# Generated by pormake.
# Topology ocu, (6,8)-cn, num edge types: 1
# Building blocks:
#     Node 0, Type 0, BuildingBlock: KUMJIN_clean_sbu_1, # of connection points: 6
#     Node 1, Type 0, BuildingBlock: KUMJIN_clean_sbu_1, # of connection points: 6
#     Node 2, Type 0, BuildingBlock: KUMJIN_clean_sbu_1, # of connection points: 6
#     Node 3, Type 0, BuildingBlock: KUMJIN_clean_sbu_1, # of connection points: 6
#     Node 4, Type 0, BuildingBlock: KUMJIN_clean_sbu_1, # of connection points: 6
#     Node 5, Type 0, BuildingBlock: KUMJIN_clean_sbu_1, # of connection points: 6
#     Node 6, Type 0, BuildingBlock: KUMJIN_clean_sbu_1, # of connection points: 6
#     Node 7, Type 0, BuildingBlock: KUMJIN_clean_sbu_1, # of connection points: 6
#     Node 8, Type 1, BuildingBlock: TAGTUT_clean_sbu_1, # of connection points: 8
#     Node 9, Type 1, BuildingBlock: TAGTUT_clean_sbu_1, # of connection points: 8
#     Node 10, Type 1, BuildingBlock: TAGTUT_clean_sbu_1, # of connection points: 8
#     Node 11, Type 1, BuildingBlock: TAGTUT_clean_sbu_1, # of connection points: 8
#     Node 12, Type 1, BuildingBlock: TAGTUT_clean_sbu_1, # of connection points: 8
#     Node 13, Type 1, BuildingBlock: TAGTUT_clean_sbu_1, # of connection points: 8
#     Edge 14, Type (0, 1), BuildingBlock: CIFDUS_clean_linker_0, # of connection points: 2
#     Edge 15, Type (0, 1), BuildingBlock: CIFDUS_clean_linker_0, # of connection points: 2
#     Edge 16, Type (0, 1), BuildingBlock: CIFDUS_clean_linker_0, # of connection points: 2
#     Edge 17, Type (0, 1), BuildingBlock: CIFDUS_clean_linker_0, # of connection points: 2
#     Edge 18, Type (0, 1), BuildingBlock: CIFDUS_clean_linker_0, # of connection points: 2
#     Edge 19, Type (0, 1), BuildingBlock: CIFDUS_clean_linker_0, # of connection points: 2
#     Edge 20, Type (0, 1), BuildingBlock: CIFDUS_clean_linker_0, # of connection points: 2
#     Edge 21, Type (0, 1), BuildingBlock: CIFDUS_clean_linker_0, # of connection points: 2
#     Edge 22, Type (0, 1), BuildingBlock: CIFDUS_clean_linker_0, # of connection points: 2
#     Edge 23, Type (0, 1), BuildingBlock: CIFDUS_clean_linker_0, # of connection points: 2
#     Edge 24, Type (0, 1), BuildingBlock: CIFDUS_clean_linker_0, # of connection points: 2
#     Edge 25, Type (0, 1), BuildingBlock: CIFDUS_clean_linker_0, # of connection points: 2
#     Edge 26, Type (0, 1), BuildingBlock: CIFDUS_clean_linker_0, # of connection points: 2
#     Edge 27, Type (0, 1), BuildingBlock: CIFDUS_clean_linker_0, # of connection points: 2
#     Edge 28, Type (0, 1), BuildingBlock: CIFDUS_clean_linker_0, # of connection points: 2
#     Edge 29, Type (0, 1), BuildingBlock: CIFDUS_clean_linker_0, # of connection points: 2
#     Edge 30, Type (0, 1), BuildingBlock: CIFDUS_clean_linker_0, # of connection points: 2
#     Edge 31, Type (0, 1), BuildingBlock: CIFDUS_clean_linker_0, # of connection points: 2
#     Edge 32, Type (0, 1), BuildingBlock: CIFDUS_clean_linker_0, # of connection points: 2
#     Edge 33, Type (0, 1), BuildingBlock: CIFDUS_clean_linker_0, # of connection points: 2
#     Edge 34, Type (0, 1), BuildingBlock: CIFDUS_clean_linker_0, # of connection points: 2
#     Edge 35, Type (0, 1), BuildingBlock: CIFDUS_clean_linker_0, # of connection points: 2
#     Edge 36, Type (0, 1), BuildingBlock: CIFDUS_clean_linker_0, # of connection points: 2
#     Edge 37, Type (0, 1), BuildingBlock: CIFDUS_clean_linker_0, # of connection points: 2
#     Edge 38, Type (0, 1), BuildingBlock: CIFDUS_clean_linker_0, # of connection points: 2
#     Edge 39, Type (0, 1), BuildingBlock: CIFDUS_clean_linker_0, # of connection points: 2
#     Edge 40, Type (0, 1), BuildingBlock: CIFDUS_clean_linker_0, # of connection points: 2
#     Edge 41, Type (0, 1), BuildingBlock: CIFDUS_clean_linker_0, # of connection points: 2
#     Edge 42, Type (0, 1), BuildingBlock: CIFDUS_clean_linker_0, # of connection points: 2
#     Edge 43, Type (0, 1), BuildingBlock: CIFDUS_clean_linker_0, # of connection points: 2
#     Edge 44, Type (0, 1), BuildingBlock: CIFDUS_clean_linker_0, # of connection points: 2
#     Edge 45, Type (0, 1), BuildingBlock: CIFDUS_clean_linker_0, # of connection points: 2
#     Edge 46, Type (0, 1), BuildingBlock: CIFDUS_clean_linker_0, # of connection points: 2
#     Edge 47, Type (0, 1), BuildingBlock: CIFDUS_clean_linker_0, # of connection points: 2
#     Edge 48, Type (0, 1), BuildingBlock: CIFDUS_clean_linker_0, # of connection points: 2
#     Edge 49, Type (0, 1), BuildingBlock: CIFDUS_clean_linker_0, # of connection points: 2
#     Edge 50, Type (0, 1), BuildingBlock: CIFDUS_clean_linker_0, # of connection points: 2
#     Edge 51, Type (0, 1), BuildingBlock: CIFDUS_clean_linker_0, # of connection points: 2
#     Edge 52, Type (0, 1), BuildingBlock: CIFDUS_clean_linker_0, # of connection points: 2
#     Edge 53, Type (0, 1), BuildingBlock: CIFDUS_clean_linker_0, # of connection points: 2
#     Edge 54, Type (0, 1), BuildingBlock: CIFDUS_clean_linker_0, # of connection points: 2
#     Edge 55, Type (0, 1), BuildingBlock: CIFDUS_clean_linker_0, # of connection points: 2
#     Edge 56, Type (0, 1), BuildingBlock: CIFDUS_clean_linker_0, # of connection points: 2
#     Edge 57, Type (0, 1), BuildingBlock: CIFDUS_clean_linker_0, # of connection points: 2
#     Edge 58, Type (0, 1), BuildingBlock: CIFDUS_clean_linker_0, # of connection points: 2
#     Edge 59, Type (0, 1), BuildingBlock: CIFDUS_clean_linker_0, # of connection points: 2
#     Edge 60, Type (0, 1), BuildingBlock: CIFDUS_clean_linker_0, # of connection points: 2
#     Edge 61, Type (0, 1), BuildingBlock: CIFDUS_clean_linker_0, # of connection points: 2
# Relax obj value: 0.079
# Max RMSD: 0.175
# Mean RMSD: 0.096
data_MOF--net-ocu--node1-KUMJIN_clean_sbu_1--node2-TAGTUT_clean_sbu_1--edge1-CIFDUS_clean_linker_0
_symmetry_space_group_name_H-M    P1
_symmetry_Int_Tables_number       1
_symmetry_cell_setting            triclinic
loop_
_symmetry_equiv_pos_as_xyz
'x, y, z'
_cell_length_a     36.235405
_cell_length_b     35.046838
_cell_length_c     38.417153
_cell_angle_alpha  101.37648
_cell_angle_beta   80.365671
_cell_angle_gamma 115.78782
loop_
_atom_site_label
_atom_site_type_symbol
_atom_site_fract_x
_atom_site_fract_y
_atom_site_fract_z
_atom_type_partial_charge
Eu0 Eu 0.2285 0.23698 0.23261 0.0
C1 C 0.35143 0.36704 0.34163 0.0
N2 N 0.36035 0.34865 0.30859 0.0
C3 C 0.41546 0.41559 0.29651 0.0
C4 C 0.37396 0.41099 0.35306 0.0
C5 C 0.39227 0.37197 0.28628 0.0
C6 C 0.40616 0.43526 0.32997 0.0
C7 C 0.30886 0.36047 0.39808 0.0
C8 C 0.31912 0.342 0.3639 0.0
C9 C 0.33118 0.40423 0.40943 0.0
C10 C 0.36362 0.4294 0.387 0.0
Eu11 Eu 0.31938 0.27479 0.29395 0.0
N12 N 0.2971 0.2999 0.35183 0.0
C13 C 0.27637 0.33441 0.41987 0.0
C14 C 0.26696 0.27399 0.37376 0.0
C15 C 0.25565 0.29089 0.40778 0.0
H16 H 0.40062 0.35683 0.26091 0.0
H17 H 0.23128 0.27021 0.42484 0.0
H18 H 0.14335 0.15919 0.26573 0.0
H19 H 0.31351 0.23595 0.10083 0.0
H20 H 0.25216 0.24017 0.36567 0.0
H21 H 0.26752 0.3474 0.44626 0.0
H22 H 0.29474 0.26804 0.16007 0.0
H23 H 0.4407 0.43395 0.27868 0.0
H24 H 0.32359 0.41894 0.43553 0.0
H25 H 0.38052 0.46313 0.39616 0.0
H26 H 0.1 0.08248 0.24925 0.0
H27 H 0.42419 0.46909 0.3378 0.0
H28 H 0.27464 0.15886 0.08049 0.0
N29 N 0.18399 0.16405 0.21846 0.0
C30 C 0.19215 0.14413 0.18593 0.0
C31 C 0.12603 0.09933 0.23132 0.0
C32 C 0.16777 0.10048 0.1751 0.0
C33 C 0.15101 0.14266 0.24084 0.0
C34 C 0.1346 0.07805 0.1984 0.0
N35 N 0.24797 0.20957 0.17456 0.0
C36 C 0.27856 0.2343 0.15219 0.0
C37 C 0.23386 0.14797 0.12915 0.0
C38 C 0.2248 0.16761 0.16319 0.0
C39 C 0.26664 0.17277 0.10681 0.0
C40 C 0.28879 0.21624 0.11826 0.0
H41 H 0.11512 0.0445 0.19106 0.0
H42 H 0.15874 0.04717 0.1327 0.0
H43 H 0.21664 0.08872 0.09251 0.0
O44 O 0.21825 0.28001 0.20478 0.0
O45 O 0.26416 0.19459 0.22493 0.0
O46 O 0.32979 0.24048 0.23877 0.0
O47 O 0.16635 0.22683 0.2252 0.0
O48 O 0.28457 0.30063 0.22506 0.0
O49 O 0.34079 0.29361 0.23831 0.0
O50 O 0.33294 0.23467 0.3224 0.0
O51 O 0.28428 0.31743 0.2995 0.0
O52 O 0.21869 0.26987 0.28835 0.0
O53 O 0.3821 0.29193 0.30544 0.0
O54 O 0.26432 0.21019 0.30148 0.0
O55 O 0.20801 0.21681 0.28791 0.0
C56 C 0.3041 0.20504 0.22126 0.0
C57 C 0.15785 0.24983 0.1744 0.0
C58 C 0.12565 0.27249 0.13616 0.0
C59 C 0.11555 0.23268 0.11434 0.0
C60 C 0.14751 0.21043 0.15215 0.0
C61 C 0.12654 0.20202 0.12228 0.0
C62 C 0.14713 0.28091 0.16617 0.0
C63 C 0.32446 0.31047 0.22095 0.0
C64 C 0.1784 0.2584 0.2069 0.0
C65 C 0.17704 0.08071 0.1414 0.0
C66 C 0.20999 0.10438 0.1185 0.0
C67 C 0.24434 0.30683 0.30369 0.0
C68 C 0.39911 0.23503 0.30828 0.0
C69 C 0.44092 0.20248 0.32313 0.0
C70 C 0.44997 0.19136 0.2865 0.0
C71 C 0.40864 0.22382 0.27192 0.0
C72 C 0.4154 0.22447 0.33378 0.0
C73 C 0.43394 0.20207 0.26112 0.0
C74 C 0.2242 0.19912 0.30458 0.0
C75 C 0.3725 0.25797 0.32 0.0
H76 H 0.09968 0.22548 0.09075 0.0
H77 H 0.15524 0.18602 0.15801 0.0
H78 H 0.1187 0.17157 0.10523 0.0
H79 H 0.15487 0.31126 0.18346 0.0
H80 H 0.46974 0.17471 0.27751 0.0
H81 H 0.39667 0.2321 0.25199 0.0
H82 H 0.40765 0.2328 0.36189 0.0
H83 H 0.44118 0.19353 0.23298 0.0
Eu84 Eu 0.73232 0.29944 0.27448 0.0
C85 C 0.86531 0.24929 0.18398 0.0
N86 N 0.82802 0.2219 0.19749 0.0
C87 C 0.81668 0.17842 0.14025 0.0
C88 C 0.87872 0.24348 0.14747 0.0
C89 C 0.80511 0.18522 0.17674 0.0
C90 C 0.85323 0.20819 0.12537 0.0
C91 C 0.93145 0.30863 0.19468 0.0
C92 C 0.89138 0.28155 0.20718 0.0
C93 C 0.94405 0.30445 0.15807 0.0
C94 C 0.91768 0.27204 0.13447 0.0
Eu95 Eu 0.8096 0.2391 0.259 0.0
N96 N 0.87784 0.28589 0.24225 0.0
C97 C 0.95775 0.33884 0.21945 0.0
C98 C 0.90391 0.31362 0.26683 0.0
C99 C 0.94409 0.34089 0.25575 0.0
H100 H 0.77789 0.16091 0.18824 0.0
H101 H 0.96443 0.36358 0.27516 0.0
H102 H 0.73918 0.34723 0.35838 0.0
H103 H 0.59774 0.17392 0.21089 0.0
H104 H 0.89317 0.31524 0.29486 0.0
H105 H 0.98878 0.3602 0.2109 0.0
H106 H 0.66623 0.23373 0.21237 0.0
H107 H 0.79768 0.14992 0.12375 0.0
H108 H 0.97437 0.32564 0.14789 0.0
H109 H 0.92818 0.2685 0.1064 0.0
H110 H 0.6968 0.33867 0.41652 0.0
H111 H 0.86235 0.20262 0.09717 0.0
H112 H 0.5549 0.1538 0.26724 0.0
N113 N 0.69404 0.29319 0.33046 0.0
C114 C 0.65527 0.26164 0.33158 0.0
C115 C 0.68488 0.31666 0.39288 0.0
C116 C 0.63031 0.25518 0.3641 0.0
C117 C 0.70879 0.3214 0.36009 0.0
C118 C 0.64564 0.2831 0.39499 0.0
N119 N 0.66519 0.24384 0.26895 0.0
C120 C 0.64928 0.22362 0.23715 0.0
C121 C 0.60062 0.20271 0.30049 0.0
C122 C 0.6408 0.23567 0.30009 0.0
C123 C 0.58564 0.17929 0.26806 0.0
C124 C 0.60979 0.1904 0.23621 0.0
H125 H 0.62734 0.27921 0.42048 0.0
H126 H 0.5719 0.21513 0.38965 0.0
H127 H 0.54575 0.16926 0.33383 0.0
O128 O 0.69173 0.3236 0.25898 0.0
O129 O 0.73005 0.25711 0.31391 0.0
O130 O 0.74298 0.20176 0.28023 0.0
O131 O 0.74537 0.3675 0.28559 0.0
O132 O 0.73865 0.26246 0.22038 0.0
O133 O 0.75076 0.20582 0.2296 0.0
O134 O 0.83263 0.22581 0.30232 0.0
O135 O 0.83238 0.30802 0.24785 0.0
O136 O 0.77936 0.31161 0.22577 0.0
O137 O 0.83026 0.18736 0.25116 0.0
O138 O 0.80879 0.28177 0.31204 0.0
O139 O 0.79079 0.33529 0.30305 0.0
C140 C 0.72401 0.21659 0.30812 0.0
C141 C 0.72474 0.39322 0.24285 0.0
C142 C 0.70428 0.43448 0.21137 0.0
C143 C 0.74422 0.45036 0.19375 0.0
C144 C 0.76414 0.40925 0.22446 0.0
C145 C 0.77372 0.43767 0.20015 0.0
C146 C 0.69461 0.40548 0.23585 0.0
C147 C 0.73804 0.2241 0.21007 0.0
C148 C 0.71502 0.36353 0.26901 0.0
C149 C 0.59108 0.22115 0.36477 0.0
C150 C 0.5763 0.19496 0.33306 0.0
C151 C 0.81864 0.3201 0.2244 0.0
C152 C 0.8287 0.15653 0.30149 0.0
C153 C 0.84889 0.11023 0.32725 0.0
C154 C 0.80683 0.08595 0.33691 0.0
C155 C 0.78726 0.13145 0.31118 0.0
C156 C 0.85956 0.14602 0.30966 0.0
C157 C 0.77647 0.09645 0.32888 0.0
C158 C 0.80874 0.32024 0.32073 0.0
C159 C 0.83994 0.19423 0.28362 0.0
H160 H 0.75248 0.47216 0.17444 0.0
H161 H 0.78759 0.39986 0.22888 0.0
H162 H 0.80416 0.44986 0.18611 0.0
H163 H 0.66403 0.39295 0.24969 0.0
H164 H 0.79724 0.05896 0.35121 0.0
H165 H 0.76334 0.13917 0.30522 0.0
H166 H 0.89161 0.16537 0.30202 0.0
H167 H 0.74437 0.07744 0.33658 0.0
Eu168 Eu 0.75893 0.70698 0.28814 0.0
C169 C 0.88229 0.85546 0.19141 0.0
N170 N 0.85928 0.85996 0.22241 0.0
C171 C 0.91402 0.92691 0.24174 0.0
C172 C 0.92267 0.88645 0.18465 0.0
C173 C 0.87405 0.89546 0.24716 0.0
C174 C 0.93857 0.92222 0.21048 0.0
C175 C 0.88735 0.81563 0.13279 0.0
C176 C 0.86495 0.82047 0.1658 0.0
C177 C 0.92795 0.84583 0.12632 0.0
C178 C 0.94557 0.88113 0.15218 0.0
Eu179 Eu 0.79299 0.80429 0.22963 0.0
N180 N 0.82586 0.79141 0.173 0.0
C181 C 0.86803 0.78089 0.10708 0.0
C182 C 0.80597 0.759 0.14735 0.0
C183 C 0.82698 0.75276 0.11425 0.0
H184 H 0.85492 0.89977 0.27104 0.0
H185 H 0.81152 0.72633 0.0943 0.0
H186 H 0.70131 0.6097 0.24602 0.0
H187 H 0.73097 0.7852 0.42108 0.0
H188 H 0.77426 0.73743 0.15288 0.0
H189 H 0.88424 0.77599 0.08142 0.0
H190 H 0.7724 0.77428 0.36491 0.0
H191 H 0.92576 0.95485 0.26156 0.0
H192 H 0.94578 0.8425 0.10121 0.0
H193 H 0.97672 0.90448 0.1466 0.0
H194 H 0.63037 0.55379 0.25275 0.0
H195 H 0.96946 0.94674 0.20629 0.0
H196 H 0.65775 0.73506 0.43044 0.0
N197 N 0.69305 0.6502 0.29288 0.0
C198 C 0.66793 0.65481 0.32237 0.0
C199 C 0.64046 0.58219 0.27236 0.0
C200 C 0.62744 0.62338 0.32755 0.0
C201 C 0.68045 0.61407 0.26847 0.0
C202 C 0.61369 0.58704 0.30184 0.0
N203 N 0.72258 0.71975 0.34276 0.0
C204 C 0.74049 0.75234 0.36905 0.0
C205 C 0.6585 0.69513 0.37973 0.0
C206 C 0.68321 0.6903 0.34819 0.0
C207 C 0.67579 0.73017 0.40588 0.0
C208 C 0.71713 0.75855 0.40072 0.0
H209 H 0.58278 0.56218 0.30486 0.0
H210 H 0.57097 0.6051 0.36274 0.0
H211 H 0.59817 0.66787 0.40838 0.0
O212 O 0.7992 0.71114 0.32619 0.0
O213 O 0.72351 0.75053 0.30117 0.0
O214 O 0.76826 0.81748 0.28633 0.0
O215 O 0.76452 0.64974 0.29677 0.0
O216 O 0.82149 0.76254 0.28366 0.0
O217 O 0.81865 0.82544 0.28423 0.0
O218 O 0.74735 0.8015 0.19767 0.0
O219 O 0.82686 0.75984 0.21339 0.0
O220 O 0.78779 0.6931 0.23243 0.0
O221 O 0.7894 0.86289 0.22181 0.0
O222 O 0.73081 0.74655 0.2295 0.0
O223 O 0.73547 0.68503 0.23357 0.0
C224 C 0.73543 0.79248 0.30445 0.0
C225 C 0.83162 0.6645 0.30933 0.0
C226 C 0.88193 0.64402 0.3262 0.0
C227 C 0.90731 0.65774 0.29513 0.0
C228 C 0.85746 0.67801 0.2785 0.0
C229 C 0.89497 0.67444 0.27138 0.0
C230 C 0.84389 0.6474 0.33306 0.0
C231 C 0.82975 0.80168 0.29894 0.0
C232 C 0.79355 0.67127 0.31809 0.0
C233 C 0.60226 0.62878 0.35843 0.0
C234 C 0.61775 0.66454 0.38444 0.0
C235 C 0.81785 0.71862 0.21196 0.0
C236 C 0.72126 0.85345 0.21688 0.0
C237 C 0.66282 0.8636 0.2031 0.0
C238 C 0.64999 0.86791 0.23971 0.0
C239 C 0.70834 0.85878 0.25331 0.0
C240 C 0.69845 0.85596 0.19188 0.0
C241 C 0.67277 0.86567 0.26461 0.0
C242 C 0.72416 0.70678 0.2167 0.0
C243 C 0.75663 0.8423 0.20453 0.0
H244 H 0.93651 0.65519 0.28904 0.0
H245 H 0.849 0.69202 0.26028 0.0
H246 H 0.91468 0.68499 0.24752 0.0
H247 H 0.82435 0.63779 0.35727 0.0
H248 H 0.62302 0.87422 0.24914 0.0
H249 H 0.72567 0.85745 0.27296 0.0
H250 H 0.70827 0.85165 0.16369 0.0
H251 H 0.66297 0.86955 0.2928 0.0
Eu252 Eu 0.22749 0.77858 0.24106 0.0
C253 C 0.27392 0.68793 0.33844 0.0
N254 N 0.29835 0.72612 0.32674 0.0
C255 C 0.32054 0.75691 0.38511 0.0
C256 C 0.27049 0.68348 0.37468 0.0
C257 C 0.32246 0.76002 0.34906 0.0
C258 C 0.294 0.71868 0.39809 0.0
C259 C 0.2255 0.61376 0.32589 0.0
C260 C 0.25158 0.65349 0.31416 0.0
C261 C 0.22124 0.60957 0.36213 0.0
C262 C 0.24378 0.64427 0.38642 0.0
Eu263 Eu 0.29937 0.72897 0.26583 0.0
N264 N 0.25581 0.65857 0.27918 0.0
C265 C 0.20497 0.5791 0.30074 0.0
C266 C 0.23873 0.62371 0.2543 0.0
C267 C 0.21229 0.5839 0.26473 0.0
H268 H 0.34343 0.78934 0.3389 0.0
H269 H 0.19812 0.55673 0.24487 0.0
H270 H 0.18016 0.71804 0.1696 0.0
H271 H 0.3377 0.94803 0.25781 0.0
H272 H 0.24601 0.62561 0.22621 0.0
H273 H 0.18462 0.54813 0.30869 0.0
H274 H 0.28762 0.88098 0.2782 0.0
H275 H 0.33962 0.7839 0.40282 0.0
H276 H 0.20096 0.57943 0.37159 0.0
H277 H 0.24039 0.6404 0.41424 0.0
H278 H 0.18114 0.72296 0.106 0.0
H279 H 0.29232 0.71649 0.4261 0.0
H280 H 0.34837 0.95558 0.19386 0.0
N281 N 0.22663 0.78085 0.18037 0.0
C282 C 0.2518 0.81833 0.16785 0.0
C283 C 0.20144 0.74983 0.12302 0.0
C284 C 0.25372 0.82238 0.13171 0.0
C285 C 0.20102 0.74707 0.1589 0.0
C286 C 0.22817 0.78749 0.10927 0.0
N287 N 0.27387 0.84748 0.22596 0.0
C288 C 0.29373 0.88215 0.25001 0.0
C289 C 0.30381 0.89108 0.1784 0.0
C290 C 0.27664 0.85222 0.19107 0.0
C291 C 0.3271 0.92529 0.20255 0.0
C292 C 0.32139 0.92105 0.23861 0.0
H293 H 0.2287 0.78938 0.08136 0.0
H294 H 0.28348 0.86431 0.09128 0.0
H295 H 0.32737 0.92439 0.1321 0.0
O296 O 0.19483 0.81894 0.26257 0.0
O297 O 0.27471 0.76867 0.19787 0.0
O298 O 0.32792 0.78122 0.22954 0.0
O299 O 0.16307 0.75766 0.23197 0.0
O300 O 0.25967 0.81037 0.293 0.0
O301 O 0.31893 0.80043 0.27642 0.0
O302 O 0.33428 0.69106 0.24372 0.0
O303 O 0.24916 0.73542 0.30805 0.0
O304 O 0.19808 0.72383 0.27429 0.0
O305 O 0.3634 0.75134 0.27682 0.0
O306 O 0.26626 0.69588 0.21477 0.0
O307 O 0.20674 0.70673 0.22882 0.0
C308 C 0.31416 0.78266 0.2005 0.0
C309 C 0.12995 0.77447 0.28587 0.0
C310 C 0.12074 0.76807 0.34889 0.0
C311 C 0.07794 0.75416 0.34817 0.0
C312 C 0.08757 0.76069 0.28522 0.0
C313 C 0.06147 0.74945 0.31627 0.0
C314 C 0.14559 0.77474 0.31687 0.0
C315 C 0.29795 0.81923 0.29807 0.0
C316 C 0.15919 0.78846 0.25491 0.0
C317 C 0.28128 0.86075 0.11903 0.0
C318 C 0.30638 0.89492 0.14227 0.0
C319 C 0.21004 0.71955 0.30312 0.0
C320 C 0.39997 0.73824 0.22346 0.0
C321 C 0.41451 0.74609 0.16041 0.0
C322 C 0.45692 0.76596 0.16494 0.0
C323 C 0.44211 0.75774 0.22771 0.0
C324 C 0.38658 0.73528 0.19048 0.0
C325 C 0.47047 0.77242 0.19858 0.0
C326 C 0.22785 0.68629 0.20956 0.0
C327 C 0.36903 0.72202 0.25305 0.0
H328 H 0.05742 0.74964 0.37241 0.0
H329 H 0.0749 0.75905 0.26108 0.0
H330 H 0.02867 0.73923 0.3161 0.0
H331 H 0.17821 0.78383 0.31675 0.0
H332 H 0.4797 0.7742 0.14232 0.0
H333 H 0.45296 0.76145 0.25331 0.0
H334 H 0.3539 0.72178 0.18761 0.0
H335 H 0.50307 0.78712 0.20173 0.0
Eu336 Eu 0.22738 0.79521 0.77819 0.0
C337 C 0.36849 0.74558 0.68317 0.0
N338 N 0.33023 0.71889 0.6956 0.0
C339 C 0.32266 0.67174 0.64023 0.0
C340 C 0.385 0.73652 0.64823 0.0
C341 C 0.30756 0.68196 0.67505 0.0
C342 C 0.36146 0.69922 0.62669 0.0
C343 C 0.43044 0.81116 0.69274 0.0
C344 C 0.39099 0.78259 0.70521 0.0
C345 C 0.44694 0.80212 0.65797 0.0
C346 C 0.42424 0.76497 0.63579 0.0
Eu347 Eu 0.30756 0.73942 0.75452 0.0
N348 N 0.37349 0.79158 0.73825 0.0
C349 C 0.45198 0.84821 0.71551 0.0
C350 C 0.39498 0.82679 0.761 0.0
C351 C 0.43429 0.85586 0.74986 0.0
H352 H 0.27816 0.65989 0.68579 0.0
H353 H 0.45102 0.88407 0.76785 0.0
H354 H 0.24725 0.85462 0.8583 0.0
H355 H 0.09366 0.64781 0.73815 0.0
H356 H 0.38211 0.83249 0.78778 0.0
H357 H 0.48236 0.87093 0.70692 0.0
H358 H 0.16012 0.70843 0.72843 0.0
H359 H 0.30448 0.64252 0.62396 0.0
H360 H 0.47711 0.82381 0.64788 0.0
H361 H 0.43714 0.75857 0.60895 0.0
H362 H 0.21323 0.85452 0.91973 0.0
H363 H 0.37308 0.69121 0.59968 0.0
H364 H 0.05672 0.64219 0.79846 0.0
N365 N 0.19836 0.79789 0.83753 0.0
C366 C 0.16009 0.76662 0.84394 0.0
C367 C 0.19806 0.82957 0.89869 0.0
C368 C 0.13964 0.76536 0.87861 0.0
C369 C 0.21739 0.82937 0.86401 0.0
C370 C 0.15907 0.79741 0.90605 0.0
N371 N 0.1634 0.7352 0.78315 0.0
C372 C 0.14568 0.70555 0.75512 0.0
C373 C 0.10363 0.70043 0.82276 0.0
C374 C 0.14236 0.73427 0.81618 0.0
C375 C 0.08643 0.66864 0.79446 0.0
C376 C 0.10733 0.67152 0.76043 0.0
H377 H 0.14437 0.79745 0.93304 0.0
H378 H 0.08536 0.72984 0.91164 0.0
H379 H 0.0539 0.67302 0.86276 0.0
O380 O 0.18818 0.80685 0.74766 0.0
O381 O 0.22595 0.74817 0.81313 0.0
O382 O 0.24188 0.69854 0.77329 0.0
O383 O 0.2126 0.8508 0.79433 0.0
O384 O 0.23383 0.76223 0.72203 0.0
O385 O 0.2483 0.70586 0.72735 0.0
O386 O 0.33661 0.72927 0.79555 0.0
O387 O 0.319 0.79153 0.72208 0.0
O388 O 0.28943 0.83747 0.75157 0.0
O389 O 0.32631 0.68676 0.74564 0.0
O390 O 0.30768 0.78154 0.80828 0.0
O391 O 0.28795 0.8346 0.8023 0.0
C392 C 0.22315 0.70886 0.80347 0.0
C393 C 0.20175 0.87914 0.74786 0.0
C394 C 0.18082 0.9216 0.71817 0.0
C395 C 0.22283 0.9477 0.71019 0.0
C396 C 0.24306 0.90636 0.74014 0.0
C397 C 0.25352 0.94019 0.72121 0.0
C398 C 0.1705 0.88669 0.73676 0.0
C399 C 0.2366 0.72586 0.7088 0.0
C400 C 0.1917 0.84288 0.76726 0.0
C401 C 0.1012 0.73156 0.88507 0.0
C402 C 0.08333 0.69917 0.85728 0.0
C403 C 0.31459 0.82749 0.72625 0.0
C404 C 0.33382 0.65993 0.79454 0.0
C405 C 0.36233 0.62311 0.8227 0.0
C406 C 0.32301 0.58905 0.82515 0.0
C407 C 0.29501 0.62567 0.79719 0.0
C408 C 0.36732 0.65864 0.80742 0.0
C409 C 0.28965 0.59047 0.81256 0.0
C410 C 0.30737 0.81973 0.81833 0.0
C411 C 0.34086 0.69606 0.77641 0.0
H412 H 0.23216 0.97392 0.69503 0.0
H413 H 0.26716 0.90134 0.74894 0.0
H414 H 0.2856 0.9607 0.71502 0.0
H415 H 0.13849 0.86593 0.74303 0.0
H416 H 0.31786 0.56159 0.83735 0.0
H417 H 0.26913 0.62595 0.78692 0.0
H418 H 0.39745 0.68495 0.80485 0.0
H419 H 0.25956 0.56412 0.81464 0.0
Eu420 Eu 0.26806 0.21321 0.78572 0.0
C421 C 0.3895 0.36401 0.69424 0.0
N422 N 0.36589 0.36808 0.72499 0.0
C423 C 0.41951 0.43563 0.74483 0.0
C424 C 0.42971 0.39556 0.68797 0.0
C425 C 0.37974 0.40367 0.74978 0.0
C426 C 0.44474 0.4314 0.71394 0.0
C427 C 0.39638 0.32432 0.63586 0.0
C428 C 0.37307 0.32878 0.66842 0.0
C429 C 0.43675 0.35522 0.6299 0.0
C430 C 0.45337 0.39071 0.65587 0.0
Eu431 Eu 0.29991 0.31183 0.73085 0.0
N432 N 0.33419 0.29885 0.67513 0.0
C433 C 0.37825 0.2891 0.61013 0.0
C434 C 0.31556 0.26574 0.64951 0.0
C435 C 0.33752 0.25994 0.61685 0.0
H436 H 0.3599 0.40779 0.77311 0.0
H437 H 0.32303 0.23304 0.59689 0.0
H438 H 0.20923 0.11828 0.74098 0.0
H439 H 0.24182 0.2861 0.92134 0.0
H440 H 0.28408 0.24342 0.65462 0.0
H441 H 0.39521 0.28448 0.58481 0.0
H442 H 0.28186 0.27806 0.86368 0.0
H443 H 0.43052 0.46368 0.76469 0.0
H444 H 0.45523 0.35221 0.60512 0.0
H445 H 0.48439 0.41453 0.65068 0.0
H446 H 0.13895 0.06136 0.74801 0.0
H447 H 0.47547 0.45633 0.71011 0.0
H448 H 0.16958 0.23396 0.93174 0.0
N449 N 0.20226 0.15594 0.79023 0.0
C450 C 0.1779 0.15861 0.8208 0.0
C451 C 0.14944 0.0887 0.76851 0.0
C452 C 0.13778 0.12649 0.82609 0.0
C453 C 0.18906 0.12122 0.7645 0.0
C454 C 0.12356 0.09149 0.79929 0.0
N455 N 0.23231 0.22337 0.84153 0.0
C456 C 0.25037 0.25547 0.86806 0.0
C457 C 0.16955 0.19607 0.87985 0.0
C458 C 0.19351 0.19298 0.84738 0.0
C459 C 0.18702 0.23041 0.90645 0.0
C460 C 0.22778 0.25995 0.90067 0.0
H461 H 0.09294 0.06612 0.80235 0.0
H462 H 0.08245 0.10568 0.8625 0.0
H463 H 0.11027 0.16659 0.90955 0.0
O464 O 0.31418 0.21558 0.81707 0.0
O465 O 0.22968 0.25321 0.80079 0.0
O466 O 0.26884 0.32189 0.78634 0.0
O467 O 0.26922 0.15429 0.79562 0.0
O468 O 0.32838 0.27352 0.79267 0.0
O469 O 0.32073 0.33323 0.78651 0.0
O470 O 0.25683 0.30935 0.69602 0.0
O471 O 0.33912 0.27202 0.71815 0.0
O472 O 0.29735 0.20307 0.72991 0.0
O473 O 0.29702 0.37042 0.72232 0.0
O474 O 0.23874 0.25424 0.73175 0.0
O475 O 0.2458 0.19313 0.72969 0.0
C476 C 0.23718 0.29419 0.80386 0.0
C477 C 0.33515 0.1591 0.80267 0.0
C478 C 0.38858 0.14366 0.82043 0.0
C479 C 0.39844 0.13094 0.78432 0.0
C480 C 0.34573 0.14651 0.76684 0.0
C481 C 0.37725 0.13257 0.75778 0.0
C482 C 0.35689 0.158 0.82933 0.0
C483 C 0.33342 0.31328 0.80419 0.0
C484 C 0.30219 0.17429 0.81267 0.0
C485 C 0.11341 0.12996 0.85806 0.0
C486 C 0.12926 0.16464 0.88487 0.0
C487 C 0.33021 0.2305 0.71357 0.0
C488 C 0.22954 0.36065 0.71509 0.0
C489 C 0.17165 0.37149 0.70079 0.0
C490 C 0.15848 0.37564 0.73735 0.0
C491 C 0.21611 0.36581 0.75142 0.0
C492 C 0.20728 0.36369 0.68981 0.0
C493 C 0.18069 0.37295 0.76244 0.0
C494 C 0.23247 0.21576 0.71587 0.0
C495 C 0.26541 0.35004 0.70356 0.0
H496 H 0.42281 0.12007 0.77657 0.0
H497 H 0.32961 0.14744 0.74593 0.0
H498 H 0.38527 0.12294 0.73006 0.0
H499 H 0.34862 0.16761 0.85704 0.0
H500 H 0.13157 0.38211 0.74665 0.0
H501 H 0.23306 0.36435 0.77127 0.0
H502 H 0.21748 0.35965 0.66169 0.0
H503 H 0.17058 0.37671 0.79056 0.0
Eu504 Eu 0.74237 0.26172 0.74113 0.0
C505 C 0.82063 0.1225 0.76067 0.0
N506 N 0.81951 0.15973 0.77754 0.0
C507 C 0.81616 0.13863 0.83417 0.0
C508 C 0.81848 0.09109 0.77988 0.0
C509 C 0.81872 0.16881 0.8138 0.0
C510 C 0.81554 0.09931 0.81715 0.0
C511 C 0.82918 0.07952 0.70516 0.0
C512 C 0.82598 0.11693 0.72409 0.0
C513 C 0.82569 0.04732 0.72392 0.0
C514 C 0.82035 0.05311 0.76128 0.0
Eu515 Eu 0.81926 0.20799 0.74219 0.0
N516 N 0.82978 0.14901 0.70708 0.0
C517 C 0.83642 0.07595 0.66803 0.0
C518 C 0.83812 0.14628 0.67092 0.0
C519 C 0.84112 0.10957 0.65088 0.0
H520 H 0.81998 0.1993 0.82712 0.0
H521 H 0.84683 0.10689 0.62222 0.0
H522 H 0.67715 0.19393 0.67984 0.0
H523 H 0.83671 0.43255 0.74079 0.0
H524 H 0.84173 0.1721 0.65745 0.0
H525 H 0.83895 0.04769 0.65244 0.0
H526 H 0.79827 0.36551 0.7673 0.0
H527 H 0.81489 0.14582 0.86296 0.0
H528 H 0.82781 0.01823 0.70984 0.0
H529 H 0.81848 0.02844 0.77551 0.0
H530 H 0.66753 0.189 0.61692 0.0
H531 H 0.81379 0.07604 0.83294 0.0
H532 H 0.83643 0.43202 0.67632 0.0
N533 N 0.7295 0.25387 0.68073 0.0
C534 C 0.75092 0.28884 0.66374 0.0
C535 C 0.69201 0.21677 0.62941 0.0
C536 C 0.74618 0.2877 0.62777 0.0
C537 C 0.69816 0.21934 0.66494 0.0
C538 C 0.71713 0.25048 0.61033 0.0
N539 N 0.77742 0.32754 0.71815 0.0
C540 C 0.79797 0.36507 0.73915 0.0
C541 C 0.79661 0.36439 0.66688 0.0
C542 C 0.77525 0.32692 0.68313 0.0
C543 C 0.81943 0.40261 0.68785 0.0
C544 C 0.8197 0.40304 0.72424 0.0
H545 H 0.71227 0.2484 0.58281 0.0
H546 H 0.76621 0.32381 0.58319 0.0
H547 H 0.81094 0.39087 0.61736 0.0
O548 O 0.71635 0.2967 0.78304 0.0
O549 O 0.81063 0.29011 0.72394 0.0
O550 O 0.82118 0.23408 0.69208 0.0
O551 O 0.68368 0.26275 0.73633 0.0
O552 O 0.78523 0.29442 0.78536 0.0
O553 O 0.79806 0.23873 0.7953 0.0
O554 O 0.88507 0.2255 0.74172 0.0
O555 O 0.75898 0.17545 0.775 0.0
O556 O 0.71429 0.20819 0.77671 0.0
O557 O 0.86207 0.27449 0.75638 0.0
O558 O 0.78067 0.18372 0.69455 0.0
O559 O 0.72128 0.19088 0.71949 0.0
C560 C 0.82505 0.27332 0.69451 0.0
C561 C 0.64495 0.26621 0.79151 0.0
C562 C 0.60713 0.28236 0.8459 0.0
C563 C 0.58444 0.23851 0.84793 0.0
C564 C 0.6222 0.22219 0.79293 0.0
C565 C 0.59141 0.20844 0.8209 0.0
C566 C 0.6362 0.29565 0.81707 0.0
C567 C 0.79823 0.27704 0.80521 0.0
C568 C 0.68245 0.28358 0.76806 0.0
C569 C 0.76894 0.32435 0.61096 0.0
C570 C 0.7942 0.3626 0.63046 0.0
C571 C 0.72375 0.17897 0.78554 0.0
C572 C 0.9244 0.29259 0.72149 0.0
C573 C 0.94682 0.30017 0.65873 0.0
C574 C 0.97033 0.34414 0.66859 0.0
C575 C 0.94777 0.33646 0.73097 0.0
C576 C 0.92497 0.27468 0.68567 0.0
C577 C 0.97106 0.362 0.70457 0.0
C578 C 0.74062 0.17135 0.69615 0.0
C579 C 0.89453 0.26661 0.74769 0.0
H580 H 0.56235 0.22776 0.87058 0.0
H581 H 0.62922 0.1988 0.77344 0.0
H582 H 0.57429 0.17458 0.82248 0.0
H583 H 0.65522 0.32955 0.81633 0.0
H584 H 0.98749 0.36489 0.64863 0.0
H585 H 0.94709 0.35105 0.75855 0.0
H586 H 0.90757 0.24057 0.6789 0.0
H587 H 0.98882 0.39595 0.7119 0.0
Eu588 Eu 0.73205 0.74326 0.72687 0.0
C589 C 0.85137 0.86903 0.84479 0.0
N590 N 0.86139 0.84896 0.81309 0.0
C591 C 0.9216 0.91308 0.80288 0.0
C592 C 0.87527 0.9127 0.85605 0.0
C593 C 0.89724 0.86961 0.79317 0.0
C594 C 0.91013 0.93497 0.83413 0.0
C595 C 0.80962 0.8639 0.90154 0.0
C596 C 0.81903 0.84502 0.86728 0.0
C597 C 0.83189 0.90789 0.91208 0.0
C598 C 0.86463 0.93225 0.88936 0.0
Eu599 Eu 0.81635 0.77624 0.79752 0.0
N600 N 0.79782 0.80267 0.85621 0.0
C601 C 0.7787 0.83778 0.92441 0.0
C602 C 0.77 0.77647 0.87935 0.0
C603 C 0.75931 0.79372 0.91348 0.0
H604 H 0.90746 0.85242 0.77003 0.0
H605 H 0.73627 0.77304 0.93135 0.0
H606 H 0.65161 0.65668 0.7553 0.0
H607 H 0.82663 0.75879 0.59905 0.0
H608 H 0.7554 0.74247 0.87096 0.0
H609 H 0.77046 0.85108 0.9509 0.0
H610 H 0.80076 0.78472 0.65792 0.0
H611 H 0.94952 0.92949 0.78655 0.0
H612 H 0.82474 0.92312 0.93809 0.0
H613 H 0.88234 0.96588 0.89827 0.0
H614 H 0.61727 0.57937 0.73521 0.0
H615 H 0.92932 0.96853 0.84183 0.0
H616 H 0.79643 0.68161 0.57571 0.0
N617 N 0.6959 0.66894 0.71016 0.0
C618 C 0.70787 0.6528 0.67724 0.0
C619 C 0.64305 0.59957 0.71886 0.0
C620 C 0.68874 0.6087 0.66457 0.0
C621 C 0.66308 0.64341 0.73044 0.0
C622 C 0.65622 0.58203 0.68598 0.0
N623 N 0.75754 0.72289 0.66886 0.0
C624 C 0.78782 0.75099 0.64855 0.0
C625 C 0.75305 0.66427 0.62222 0.0
C626 C 0.73947 0.68043 0.65606 0.0
C627 C 0.78505 0.69282 0.60177 0.0
C628 C 0.80229 0.73639 0.6149 0.0
H629 H 0.64066 0.54801 0.67713 0.0
H630 H 0.68822 0.55876 0.62095 0.0
H631 H 0.74473 0.60729 0.58408 0.0
O632 O 0.70904 0.76322 0.68713 0.0
O633 O 0.77324 0.70616 0.72112 0.0
O634 O 0.83477 0.75713 0.73994 0.0
O635 O 0.66933 0.73831 0.73366 0.0
O636 O 0.78582 0.80789 0.7213 0.0
O637 O 0.84082 0.80995 0.74685 0.0
O638 O 0.82132 0.72154 0.81221 0.0
O639 O 0.76181 0.79368 0.81664 0.0
O640 O 0.74841 0.80583 0.76491 0.0
O641 O 0.87138 0.78381 0.81977 0.0
O642 O 0.76017 0.71147 0.79551 0.0
O643 O 0.7059 0.72063 0.7812 0.0
C644 C 0.81393 0.72231 0.71894 0.0
C645 C 0.63618 0.74041 0.68562 0.0
C646 C 0.59318 0.75989 0.65529 0.0
C647 C 0.56114 0.71898 0.65882 0.0
C648 C 0.6041 0.69973 0.68751 0.0
C649 C 0.5669 0.68918 0.67412 0.0
C650 C 0.63095 0.76996 0.66884 0.0
C651 C 0.82547 0.82381 0.72537 0.0
C652 C 0.67309 0.75463 0.70486 0.0
C653 C 0.7024 0.59259 0.63097 0.0
C654 C 0.73453 0.62026 0.60992 0.0
C655 C 0.74445 0.80975 0.79984 0.0
C656 C 0.8879 0.72398 0.80828 0.0
C657 C 0.9245 0.68312 0.81786 0.0
C658 C 0.94068 0.68318 0.78201 0.0
C659 C 0.90487 0.72432 0.77269 0.0
C660 C 0.89816 0.70374 0.83094 0.0
C661 C 0.93111 0.70398 0.75965 0.0
C662 C 0.721 0.70459 0.80058 0.0
C663 C 0.8585 0.74335 0.82172 0.0
H664 H 0.53101 0.70978 0.65051 0.0
H665 H 0.60733 0.67656 0.70031 0.0
H666 H 0.54191 0.658 0.67641 0.0
H667 H 0.65636 0.80095 0.66702 0.0
H668 H 0.96083 0.6673 0.77141 0.0
H669 H 0.89762 0.74011 0.75505 0.0
H670 H 0.88501 0.70321 0.85846 0.0
H671 H 0.94386 0.70411 0.73207 0.0
C672 C 0.95428 0.11581 0.52777 0.0
C673 C 0.99737 0.07528 0.43256 0.0
C674 C 0.95074 0.92211 0.47299 0.0
Mg675 Mg 0.03491 0.1024 0.50477 0.0
O676 O 0.99966 0.05043 0.52142 0.0
Mg677 Mg 0.94593 0.01582 0.49961 0.0
Mg678 Mg 0.02349 0.00757 0.51235 0.0
O679 O 0.04722 0.9644 0.50306 0.0
Mg680 Mg 1.01121 0.91245 0.51993 0.0
Mg681 Mg 0.09967 0.9994 0.52669 0.0
C682 C 0.09698 0.09315 0.55012 0.0
C683 C 0.10695 0.04265 0.45533 0.0
O684 O 0.93064 0.07552 0.52153 0.0
O685 O 0.99359 0.13048 0.52509 0.0
O686 O 0.96809 0.04523 0.44756 0.0
O687 O 0.02987 0.10007 0.44822 0.0
O688 O 0.0877 0.11804 0.53602 0.0
O689 O 0.07607 0.05241 0.54562 0.0
C690 C 0.9412 0.9735 0.57072 0.0
O691 O 0.9785 0.97765 0.56167 0.0
O692 O 0.92366 0.98641 0.55212 0.0
O693 O 0.11526 0.9399 0.50742 0.0
O694 O 0.05307 0.88353 0.50453 0.0
O695 O 0.07393 0.9708 0.5789 0.0
C696 C 0.09242 0.8993 0.50291 0.0
O697 O 1.01128 0.91733 0.5773 0.0
O698 O 0.96023 0.89715 0.48679 0.0
C699 C 0.04295 0.9422 0.59393 0.0
O700 O 0.97056 0.96301 0.47888 0.0
O701 O 0.06939 0.03807 0.46376 0.0
O702 O 0.12407 0.02914 0.47393 0.0
C703 C 0.43649 0.09532 0.08065 0.0
C704 C 0.47623 0.08054 0.96659 0.0
C705 C 0.45372 0.92139 0.97419 0.0
Mg706 Mg 0.51932 0.10061 0.03503 0.0
O707 O 0.4956 0.04175 0.03902 0.0
Mg708 Mg 0.43895 0.00614 0.02331 0.0
Mg709 Mg 0.52555 0.00677 0.01204 0.0
O710 O 0.5566 0.97206 0.98532 0.0
Mg711 Mg 0.53752 0.91312 0.98727 0.0
Mg712 Mg 0.61326 0.01006 1.00041 0.0
C713 C 0.59819 0.09007 0.05303 0.0
C714 C 0.59098 0.05942 0.94926 0.0
O715 O 0.41711 0.05608 0.06602 0.0
O716 O 0.47515 0.11641 0.07271 0.0
O717 O 0.45024 0.04622 0.9786 0.0
O718 O 0.50792 0.10658 0.9827 0.0
O719 O 0.58016 0.11452 0.05214 0.0
O720 O 0.58262 0.05016 0.04034 0.0
C721 C 0.45812 0.95233 0.07293 0.0
O722 O 0.49505 0.9638 0.05758 0.0
O723 O 0.43245 0.96484 0.06511 0.0
O724 O 0.6374 0.96498 0.95863 0.0
O725 O 0.58373 0.90164 0.94651 0.0
O726 O 0.60708 0.96978 0.04195 0.0
C727 C 0.6221 0.92677 0.94146 0.0
O728 O 0.55276 0.90671 0.03862 0.0
O729 O 0.47453 0.89939 0.97469 0.0
C730 C 0.58509 0.9341 0.05335 0.0
O731 O 0.46812 0.96222 0.98429 0.0
O732 O 0.55471 0.04938 0.96566 0.0
O733 O 0.61686 0.04823 0.95821 0.0
C734 C 0.92713 0.58612 0.07236 0.0
C735 C 0.98507 0.59305 0.9648 0.0
C736 C 0.94754 0.42339 0.95252 0.0
Mg737 Mg 1.01374 0.59356 0.03645 0.0
O738 O 0.98664 0.53343 0.0314 0.0
Mg739 Mg 0.93395 0.50522 0.00749 0.0
Mg740 Mg 1.01634 0.49834 1.00447 0.0
O741 O 0.04675 0.46375 0.97699 0.0
Mg742 Mg 1.02198 0.40385 0.96998 0.0
Mg743 Mg 0.10001 0.49275 0.99979 0.0
C744 C 0.08707 0.57302 0.05416 0.0
C745 C 0.09415 0.55865 0.95337 0.0
O746 O 0.91051 0.55047 0.05157 0.0
O747 O 0.96635 0.60728 0.07189 0.0
O748 O 0.9559 0.55638 0.96923 0.0
O749 O 1.01324 0.6124 0.9862 0.0
O750 O 0.07123 0.59981 0.05489 0.0
O751 O 0.06978 0.53351 0.04016 0.0
C752 C 0.9371 0.43917 0.05539 0.0
O753 O 0.97541 0.44921 0.04445 0.0
O754 O 0.91621 0.45565 0.04487 0.0
O755 O 0.125 0.44972 0.95611 0.0
O756 O 0.07097 0.39171 0.93473 0.0
O757 O 0.07966 0.44066 0.03718 0.0
C758 C 0.10998 0.41418 0.93501 0.0
O759 O 1.02183 0.3853 0.02027 0.0
O760 O 0.96485 0.39777 0.95145 0.0
C761 C 0.05038 0.4039 0.04134 0.0
O762 O 0.9633 0.4627 0.96783 0.0
O763 O 0.05638 0.54831 0.96597 0.0
O764 O 0.11618 0.5421 0.96186 0.0
C765 C 0.41809 0.58547 0.01926 0.0
C766 C 0.48865 0.56368 0.93019 0.0
C767 C 0.46587 0.41864 0.97388 0.0
Mg768 Mg 0.51005 0.59858 0.00705 0.0
O769 O 0.48427 0.54382 0.02113 0.0
Mg770 Mg 0.43803 0.49861 0.9937 0.0
Mg771 Mg 0.5209 0.5139 0.01554 0.0
O772 O 0.55746 0.48408 0.01051 0.0
Mg773 Mg 0.53246 0.42984 0.02575 0.0
Mg774 Mg 0.60471 0.52961 0.03664 0.0
C775 C 0.57648 0.60862 0.05806 0.0
C776 C 0.60491 0.56518 0.96311 0.0
O777 O 0.40462 0.54443 0.01192 0.0
O778 O 0.45644 0.61046 0.02013 0.0
O779 O 0.46153 0.53025 0.9427 0.0
O780 O 0.51502 0.59381 0.94961 0.0
O781 O 0.5609 0.62698 0.04256 0.0
O782 O 0.56413 0.56775 0.05316 0.0
C783 C 0.43648 0.46255 0.06699 0.0
O784 O 0.47604 0.47628 0.06205 0.0
O785 O 0.41642 0.4682 0.0454 0.0
O786 O 0.63788 0.48519 0.01507 0.0
O787 O 0.58626 0.41879 0.00981 0.0
O788 O 0.58476 0.49739 0.08793 0.0
C789 C 0.62455 0.44429 0.00759 0.0
O790 O 0.53033 0.43461 0.08305 0.0
O791 O 0.48129 0.40096 0.99034 0.0
C792 C 0.55856 0.46404 0.10124 0.0
O793 O 0.47791 0.45952 0.97831 0.0
O794 O 0.56535 0.55126 0.96807 0.0
O795 O 0.62482 0.5602 0.98516 0.0
C796 C 0.92942 0.5914 0.58188 0.0
C797 C 0.97728 0.58627 0.47057 0.0
C798 C 0.95333 0.42489 0.47655 0.0
Mg799 Mg 1.01639 0.60294 0.54048 0.0
O800 O 0.99507 0.54341 0.54056 0.0
Mg801 Mg 0.9392 0.50756 0.52272 0.0
Mg802 Mg 0.02615 0.50988 0.51147 0.0
O803 O 0.05687 0.47573 0.48328 0.0
Mg804 Mg 0.036 0.4185 0.49192 0.0
Mg805 Mg 0.11468 0.51244 0.49642 0.0
C806 C 0.09823 0.59209 0.55304 0.0
C807 C 0.09248 0.56794 0.45126 0.0
O808 O 0.91412 0.55296 0.5649 0.0
O809 O 0.96815 0.61567 0.57759 0.0
O810 O 0.95105 0.55087 0.4807 0.0
O811 O 1.00835 0.611 0.48794 0.0
O812 O 0.0779 0.61521 0.5554 0.0
O813 O 0.08407 0.55257 0.53887 0.0
C814 C 0.958 0.45241 0.57052 0.0
O815 O 0.99517 0.46456 0.55553 0.0
O816 O 0.93221 0.46489 0.56303 0.0
O817 O 0.13514 0.46356 0.45205 0.0
O818 O 0.07787 0.40186 0.4514 0.0
O819 O 0.11142 0.4732 0.53776 0.0
C820 C 0.11541 0.42342 0.43991 0.0
O821 O 0.05361 0.41475 0.54302 0.0
O822 O 0.97276 0.40259 0.4799 0.0
C823 C 0.08917 0.44041 0.553 0.0
O824 O 0.96915 0.46607 0.48343 0.0
O825 O 0.05617 0.5563 0.46784 0.0
O826 O 0.11814 0.55422 0.45676 0.0
C827 C 0.44043 0.09884 0.57219 0.0
C828 C 0.4902 0.09215 0.46022 0.0
C829 C 0.43708 0.92462 0.45519 0.0
Mg830 Mg 0.52316 0.0978 0.53158 0.0
O831 O 0.49289 0.03787 0.52814 0.0
Mg832 Mg 0.43711 0.01207 0.50973 0.0
Mg833 Mg 0.51551 0.99604 0.50044 0.0
O834 O 0.53786 0.95426 0.47305 0.0
Mg835 Mg 0.50573 0.89518 0.46931 0.0
Mg836 Mg 0.59275 0.97748 0.49261 0.0
C837 C 0.59286 0.06704 0.54488 0.0
C838 C 0.59295 0.04395 0.44243 0.0
O839 O 0.42153 0.06291 0.55269 0.0
O840 O 0.47999 0.1179 0.56984 0.0
O841 O 0.45969 0.05785 0.46808 0.0
O842 O 0.52001 0.11286 0.47991 0.0
O843 O 0.5798 0.09639 0.54642 0.0
O844 O 0.57216 0.02759 0.53205 0.0
C845 C 0.44002 0.94846 0.55942 0.0
O846 O 0.47547 0.95252 0.54354 0.0
O847 O 0.42008 0.96751 0.55133 0.0
O848 O 0.60759 0.9256 0.44987 0.0
O849 O 0.54747 0.87377 0.43237 0.0
O850 O 0.56928 0.92735 0.53329 0.0
C851 C 0.58696 0.89008 0.4306 0.0
O852 O 0.50757 0.87688 0.51916 0.0
O853 O 0.44964 0.89495 0.45318 0.0
C854 C 0.53763 0.89244 0.53863 0.0
O855 O 0.4579 0.96347 0.46929 0.0
O856 O 0.55693 0.03994 0.45705 0.0
O857 O 0.61169 0.02403 0.45133 0.0
H858 H 0.24252 0.1498 0.34099 0.0
H859 H 0.14324 0.18092 0.32783 0.0
H860 H 0.09781 0.13304 0.37 0.0
H861 H 0.08621 0.0836 0.41244 0.0
H862 H 0.18656 0.05668 0.42948 0.0
H863 H 0.23079 0.10062 0.38412 0.0
C864 C 0.2109 0.14598 0.34713 0.0
C865 C 0.19649 0.16866 0.33027 0.0
C866 C 0.18481 0.11893 0.37243 0.0
C867 C 0.15534 0.16335 0.33928 0.0
C868 C 0.1292 0.13608 0.36381 0.0
C869 C 0.11769 0.08741 0.40648 0.0
C870 C 0.13263 0.06683 0.42507 0.0
C871 C 0.14357 0.11383 0.38076 0.0
C872 C 0.17374 0.07192 0.41603 0.0
C873 C 0.19932 0.09731 0.39001 0.0
H874 H 0.92505 0.16198 0.35232 0.0
H875 H 0.8445 0.02952 0.32201 0.0
H876 H 0.8884 0.00677 0.34617 0.0
H877 H 0.94339 0.02399 0.38389 0.0
H878 H 0.02481 0.15579 0.41443 0.0
H879 H 0.9882 0.17897 0.38099 0.0
C880 C 0.91759 0.12816 0.35022 0.0
C881 C 0.88054 0.09761 0.33624 0.0
C882 C 0.9433 0.11502 0.36424 0.0
C883 C 0.87185 0.0539 0.33366 0.0
C884 C 0.89717 0.04074 0.34729 0.0
C885 C 0.9541 0.05777 0.38224 0.0
C886 C 0.98668 0.08801 0.40205 0.0
C887 C 0.93209 0.07094 0.36384 0.0
C888 C 1.00008 0.13164 0.39939 0.0
C889 C 0.97862 0.145 0.38068 0.0
H890 H 0.84034 0.87527 0.34561 0.0
H891 H 0.87414 0.76843 0.32356 0.0
H892 H 0.90941 0.79322 0.37759 0.0
H893 H 0.9329 0.84612 0.43022 0.0
H894 H 0.90543 0.95692 0.45041 0.0
H895 H 0.86555 0.92981 0.39843 0.0
C896 C 0.85549 0.8575 0.35263 0.0
C897 C 0.85358 0.81935 0.33083 0.0
C898 C 0.87678 0.87258 0.38364 0.0
C899 C 0.87387 0.79708 0.34022 0.0
C900 C 0.89436 0.8114 0.37112 0.0
C901 C 0.91754 0.86401 0.42374 0.0
C902 C 0.92175 0.90326 0.44465 0.0
C903 C 0.89594 0.849 0.3931 0.0
C904 C 0.90249 0.92647 0.43508 0.0
C905 C 0.87983 0.91106 0.40518 0.0
H906 H 0.09271 0.74081 0.41442 0.0
H907 H 0.19503 0.83739 0.36101 0.0
H908 H 0.2056 0.88699 0.41507 0.0
H909 H 0.1664 0.91114 0.46582 0.0
H910 H 0.05976 0.81749 0.5172 0.0
H911 H 0.07053 0.75968 0.47674 0.0
C912 C 0.11817 0.77223 0.41498 0.0
C913 C 0.14041 0.78625 0.38296 0.0
C914 C 0.12246 0.80222 0.4458 0.0
C915 C 0.17555 0.82575 0.38463 0.0
C916 C 0.18161 0.85488 0.41576 0.0
C917 C 0.14687 0.87807 0.4693 0.0
C918 C 0.11087 0.86831 0.49245 0.0
C919 C 0.15211 0.84501 0.4449 0.0
C920 C 0.08659 0.8255 0.49795 0.0
C921 C 0.09264 0.79238 0.4748 0.0
H922 H 0.10791 0.86568 0.68958 0.0
H923 H 0.18165 1.00022 0.72009 0.0
H924 H 0.13966 0.01863 0.68911 0.0
H925 H 0.08935 0.99714 0.64595 0.0
H926 H 1.01458 0.86331 0.61518 0.0
H927 H 0.04775 0.84424 0.65531 0.0
C928 C 0.11405 0.89899 0.69041 0.0
C929 C 0.14898 0.93144 0.70618 0.0
C930 C 0.08927 0.90963 0.67272 0.0
C931 C 0.15603 0.97446 0.70711 0.0
C932 C 0.13175 0.98515 0.68967 0.0
C933 C 0.07923 0.96382 0.64901 0.0
C934 C 0.04988 0.93175 0.62725 0.0
C935 C 0.09935 0.95308 0.67124 0.0
C936 C 0.03697 0.88874 0.63166 0.0
C937 C 0.05648 0.87777 0.65423 0.0
H938 H 0.21882 0.14114 0.66901 0.0
H939 H 0.18442 0.24767 0.69557 0.0
H940 H 0.14452 0.22221 0.64455 0.0
H941 H 0.11724 0.16911 0.59306 0.0
H942 H 0.14496 0.05845 0.56845 0.0
H943 H 0.18917 0.08585 0.61748 0.0
C944 C 0.20242 0.15859 0.66368 0.0
C945 C 0.20559 0.19689 0.68591 0.0
C946 C 0.1783 0.14312 0.63433 0.0
C947 C 0.18377 0.21884 0.6786 0.0
C948 C 0.16058 0.20417 0.64938 0.0
C949 C 0.13356 0.15132 0.59793 0.0
C950 C 0.12816 0.11205 0.57663 0.0
C951 C 0.15772 0.16651 0.62696 0.0
C952 C 0.1487 0.08892 0.58414 0.0
C953 C 0.1739 0.10451 0.61237 0.0
H954 H 0.88345 0.23213 0.6266 0.0
H955 H 1.00961 0.32067 0.60534 0.0
H956 H 1.01683 0.27358 0.55207 0.0
H957 H 0.99501 0.19995 0.52441 0.0
H958 H 0.87506 0.10484 0.55523 0.0
H959 H 0.8565 0.16198 0.58983 0.0
C960 C 0.91237 0.24159 0.6101 0.0
C961 C 0.94655 0.27937 0.62105 0.0
C962 C 0.91746 0.21236 0.5814 0.0
C963 C 0.98294 0.29196 0.5981 0.0
C964 C 0.98726 0.26453 0.56775 0.0
C965 C 0.96463 0.19142 0.53869 0.0
C966 C 0.93736 0.14812 0.53941 0.0
C967 C 0.95596 0.22333 0.56124 0.0
C968 C 0.89722 0.13786 0.55569 0.0
C969 C 0.88688 0.17037 0.57576 0.0
H970 H 0.80653 0.86832 0.68539 0.0
H971 H 0.90939 0.84991 0.7092 0.0
H972 H 0.95489 0.89775 0.66672 0.0
H973 H 0.96497 0.94253 0.62026 0.0
H974 H 0.86004 0.95406 0.5927 0.0
H975 H 0.81658 0.91239 0.63935 0.0
C976 C 0.83896 0.87489 0.68161 0.0
C977 C 0.85428 0.8557 0.70131 0.0
C978 C 0.86481 0.90129 0.65604 0.0
C979 C 0.89654 0.86481 0.6955 0.0
C980 C 0.92265 0.89191 0.67071 0.0
C981 C 0.93257 0.93531 0.62388 0.0
C982 C 0.91612 0.95081 0.60184 0.0
C983 C 0.90705 0.9099 0.65039 0.0
C984 C 0.87403 0.94254 0.60861 0.0
C985 C 0.84887 0.91845 0.63539 0.0
H986 H 0.38328 0.2271 0.1917 0.0
H987 H 0.2639 0.12095 0.19031 0.0
H988 H 0.29265 0.07734 0.14665 0.0
H989 H 0.35328 0.0689 0.10874 0.0
H990 H 0.47208 0.17691 0.11398 0.0
H991 H 0.44225 0.21874 0.15624 0.0
C992 C 0.36346 0.19421 0.1824 0.0
C993 C 0.32136 0.17761 0.1948 0.0
C994 C 0.38034 0.16906 0.15769 0.0
C995 C 0.29636 0.13504 0.18136 0.0
C996 C 0.31292 0.10987 0.15637 0.0
C997 C 0.37264 0.10151 0.11913 0.0
C998 C 0.41527 0.11905 0.10749 0.0
C999 C 0.35511 0.12642 0.14426 0.0
C1000 C 0.43938 0.16173 0.12176 0.0
C1001 C 0.42232 0.18617 0.14622 0.0
H1002 H 0.8054 0.31223 0.15556 0.0
H1003 H 0.89726 0.38197 0.22962 0.0
H1004 H 0.94505 0.42123 0.18253 0.0
H1005 H 0.9588 0.4392 0.1206 0.0
H1006 H 0.86434 0.37095 0.04837 0.0
H1007 H 0.81986 0.32726 0.09387 0.0
C1008 C 0.83578 0.33608 0.1614 0.0
C1009 C 0.8477 0.34412 0.19602 0.0
C1010 C 0.86284 0.3586 0.13424 0.0
C1011 C 0.88744 0.37494 0.20309 0.0
C1012 C 0.91475 0.39744 0.17614 0.0
C1013 C 0.9289 0.41402 0.11468 0.0
C1014 C 0.915 0.40801 0.08103 0.0
C1015 C 0.9027 0.38984 0.14159 0.0
C1016 C 0.87578 0.37595 0.07396 0.0
C1017 C 0.8502 0.35118 0.10007 0.0
H1018 H 0.69646 0.9123 0.15031 0.0
H1019 H 0.57934 0.82974 0.1979 0.0
H1020 H 0.5437 0.84305 0.15564 0.0
H1021 H 0.54641 0.87919 0.10457 0.0
H1022 H 0.66563 0.96393 0.06073 0.0
H1023 H 0.69939 0.94825 0.10154 0.0
C1024 C 0.66314 0.89668 0.15114 0.0
C1025 C 0.64064 0.86974 0.17687 0.0
C1026 C 0.64304 0.90493 0.12731 0.0
C1027 C 0.59737 0.85063 0.17821 0.0
C1028 C 0.577 0.85814 0.15401 0.0
C1029 C 0.57969 0.89409 0.10408 0.0
C1030 C 0.6032 0.92299 0.07969 0.0
C1031 C 0.59953 0.88542 0.12837 0.0
C1032 C 0.64645 0.94209 0.07948 0.0
C1033 C 0.66606 0.93302 0.10273 0.0
H1034 H 0.24272 0.68549 0.13777 0.0
H1035 H 0.16262 0.61167 0.21922 0.0
H1036 H 0.115 0.56372 0.17531 0.0
H1037 H 0.09023 0.5507 0.11636 0.0
H1038 H 0.16461 0.63165 0.03743 0.0
H1039 H 0.22032 0.6685 0.07692 0.0
C1040 C 0.21554 0.65793 0.14544 0.0
C1041 C 0.20639 0.65158 0.18149 0.0
C1042 C 0.18684 0.63223 0.1204 0.0
C1043 C 0.17051 0.61668 0.19151 0.0
C1044 C 0.14306 0.58957 0.16646 0.0
C1045 C 0.11922 0.57549 0.10748 0.0
C1046 C 0.12376 0.58802 0.07388 0.0
C1047 C 0.15 0.59811 0.13118 0.0
C1048 C 0.16082 0.62109 0.06299 0.0
C1049 C 0.1925 0.64232 0.08569 0.0
H1050 H 0.32039 0.79187 0.87406 0.0
H1051 H 0.34351 0.90731 0.83361 0.0
H1052 H 0.38624 0.95044 0.88245 0.0
H1053 H 0.42358 0.95432 0.93258 0.0
H1054 H 0.40017 0.83786 0.97167 0.0
H1055 H 0.35024 0.79635 0.92816 0.0
C1056 C 0.33451 0.82651 0.87608 0.0
C1057 C 0.32938 0.84633 0.8499 0.0
C1058 C 0.35887 0.85096 0.90418 0.0
C1059 C 0.34717 0.89126 0.85332 0.0
C1060 C 0.37166 0.91592 0.88122 0.0
C1061 C 0.40656 0.92005 0.9323 0.0
C1062 C 0.41581 0.89919 0.95525 0.0
C1063 C 0.37856 0.89605 0.90637 0.0
C1064 C 0.39379 0.85466 0.95424 0.0
C1065 C 0.36545 0.83083 0.92915 0.0
H1066 H 0.25334 0.37579 0.83719 0.0
H1067 H 0.15676 0.24794 0.82656 0.0
H1068 H 0.10907 0.27347 0.86542 0.0
H1069 H 0.09409 0.33244 0.90184 0.0
H1070 H 0.1912 0.45999 0.91374 0.0
H1071 H 0.23883 0.43443 0.87479 0.0
C1072 C 0.22181 0.35351 0.84331 0.0
C1073 C 0.20874 0.30994 0.82867 0.0
C1074 C 0.19439 0.36847 0.86579 0.0
C1075 C 0.16787 0.28155 0.8374 0.0
C1076 C 0.14042 0.29621 0.85954 0.0
C1077 C 0.12562 0.35475 0.89583 0.0
C1078 C 0.13877 0.39828 0.91074 0.0
C1079 C 0.15321 0.33966 0.87374 0.0
C1080 C 0.18002 0.4264 0.90283 0.0
C1081 C 0.20738 0.41178 0.88048 0.0
H1082 H 0.66239 0.18819 0.83526 0.0
H1083 H 0.72006 0.10182 0.79134 0.0
H1084 H 0.68063 0.05566 0.83603 0.0
H1085 H 0.63533 0.04278 0.89053 0.0
H1086 H 0.5768 0.12719 0.93701 0.0
H1087 H 0.60986 0.17037 0.88794 0.0
C1088 C 0.6656 0.15882 0.83509 0.0
C1089 C 0.69463 0.14889 0.81011 0.0
C1090 C 0.64278 0.13209 0.8614 0.0
C1091 C 0.69854 0.11075 0.81044 0.0
C1092 C 0.67591 0.08415 0.836 0.0
C1093 C 0.6294 0.07041 0.88979 0.0
C1094 C 0.60409 0.0821 0.91755 0.0
C1095 C 0.64888 0.09507 0.86209 0.0
C1096 C 0.59609 0.11748 0.91591 0.0
C1097 C 0.61532 0.14233 0.888 0.0
H1098 H 0.97178 0.71754 0.87351 0.0
H1099 H 0.89893 0.59741 0.81355 0.0
H1100 H 0.91307 0.55848 0.85237 0.0
H1101 H 0.94397 0.55873 0.90493 0.0
H1102 H 1.01975 0.67926 0.96318 0.0
H1103 H 1.00688 0.71783 0.92356 0.0
C1104 C 0.9591 0.68285 0.8691 0.0
C1105 C 0.93402 0.66018 0.84113 0.0
C1106 C 0.96797 0.6608 0.89116 0.0
C1107 C 0.91816 0.61533 0.83512 0.0
C1108 C 0.92628 0.59315 0.85726 0.0
C1109 C 0.95816 0.59344 0.90864 0.0
C1110 C 0.98266 0.61597 0.93714 0.0
C1111 C 0.95095 0.61554 0.88551 0.0
C1112 C 1.00092 0.66099 0.94142 0.0
C1113 C 0.99328 0.68315 0.91894 0.0
H1114 H 0.05262 0.2607 0.11564 0.0
H1115 H 0.17408 0.35788 0.13537 0.0
H1116 H 0.15905 0.40959 0.11267 0.0
H1117 H 0.11455 0.42443 0.08048 0.0
H1118 H 0.99376 0.32617 0.05915 0.0
H1119 H 1.00539 0.27792 0.08936 0.0
C1120 C 0.07571 0.29328 0.11517 0.0
C1121 C 0.11463 0.30522 0.12672 0.0
C1122 C 0.06706 0.32266 0.10161 0.0
C1123 C 0.14388 0.34783 0.12668 0.0
C1124 C 0.13537 0.37736 0.11351 0.0
C1125 C 0.09032 0.39284 0.08312 0.0
C1126 C 0.05355 0.3789 0.06696 0.0
C1127 C 0.09746 0.36481 0.10001 0.0
C1128 C 1.02256 0.33778 0.07089 0.0
C1129 C 0.02924 0.30998 0.08804 0.0
H1130 H 0.18855 0.71928 0.8719 0.0
H1131 H 0.20186 0.62272 0.78837 0.0
H1132 H 0.16402 0.56808 0.82736 0.0
H1133 H 0.1274 0.54754 0.88572 0.0
H1134 H 0.10485 0.64184 0.96575 0.0
H1135 H 0.14417 0.6973 0.92712 0.0
C1136 C 0.18216 0.6862 0.86172 0.0
C1137 C 0.19833 0.67547 0.82706 0.0
C1138 C 0.15825 0.65441 0.88366 0.0
C1139 C 0.19066 0.63232 0.81504 0.0
C1140 C 0.1686 0.60086 0.83725 0.0
C1141 C 0.13076 0.58019 0.89441 0.0
C1142 C 0.11353 0.59081 0.92849 0.0
C1143 C 0.15237 0.61153 0.87166 0.0
C1144 C 0.11774 0.63302 0.93953 0.0
C1145 C 0.14039 0.6647 0.91752 0.0
H1146 H 0.40587 0.07738 0.82677 0.0
H1147 H 0.42065 0.20372 0.87767 0.0
H1148 H 0.4544 0.19782 0.9253 0.0
H1149 H 0.47526 0.15432 0.95484 0.0
H1150 H 0.45546 0.0262 0.90546 0.0
H1151 H 0.42913 0.03543 0.85462 0.0
C1152 C 0.41696 0.10386 0.84804 0.0
C1153 C 0.41062 0.14088 0.84869 0.0
C1154 C 0.43566 0.09992 0.87561 0.0
C1155 C 0.4247 0.17466 0.87675 0.0
C1156 C 0.44419 0.17138 0.9039 0.0
C1157 C 0.46607 0.12893 0.93249 0.0
C1158 C 0.46761 0.08977 0.93364 0.0
C1159 C 0.44933 0.1339 0.90392 0.0
C1160 C 0.45471 0.05666 0.90499 0.0
C1161 C 0.43945 0.06186 0.87603 0.0
H1162 H 0.83879 0.36432 0.82421 0.0
H1163 H 0.79473 0.24414 0.86462 0.0
H1164 H 0.8331 0.28015 0.91665 0.0
H1165 H 0.88618 0.34386 0.94672 0.0
H1166 H 0.92997 0.46511 0.90849 0.0
H1167 H 0.88388 0.43121 0.86054 0.0
C1168 C 0.83691 0.34622 0.8448 0.0
C1169 C 0.81501 0.30119 0.83977 0.0
C1170 C 0.85906 0.36743 0.87517 0.0
C1171 C 0.81268 0.2784 0.86694 0.0
C1172 C 0.83434 0.29909 0.89697 0.0
C1173 C 0.88477 0.36314 0.9285 0.0
C1174 C 0.91163 0.40692 0.93113 0.0
C1175 C 0.85877 0.34328 0.90074 0.0
C1176 C 0.90938 0.43146 0.90734 0.0
C1177 C 0.88337 0.41189 0.87958 0.0
H1178 H 0.76348 0.87545 0.85501 0.0
H1179 H 0.66422 0.78902 0.7921 0.0
H1180 H 0.61735 0.8168 0.82994 0.0
H1181 H 0.60379 0.86423 0.88282 0.0
H1182 H 0.70452 0.95306 0.94385 0.0
H1183 H 0.75111 0.92555 0.9056 0.0
C1184 C 0.73156 0.86253 0.8498 0.0
C1185 C 0.71734 0.82978 0.82098 0.0
C1186 C 0.70486 0.87907 0.8716 0.0
C1187 C 0.67609 0.81434 0.8139 0.0
C1188 C 0.64917 0.83008 0.83576 0.0
C1189 C 0.63596 0.87766 0.88769 0.0
C1190 C 0.65038 0.91069 0.91646 0.0
C1191 C 0.66305 0.86221 0.86497 0.0
C1192 C 0.69239 0.92787 0.92196 0.0
C1193 C 0.71916 0.91204 0.90008 0.0
H1194 H 0.79588 0.63492 0.18118 0.0
H1195 H 0.89661 0.76018 0.18324 0.0
H1196 H 0.93867 0.73049 0.14066 0.0
H1197 H 0.94763 0.66898 0.10328 0.0
H1198 H 0.84653 0.5439 0.09873 0.0
H1199 H 0.80413 0.57334 0.14171 0.0
C1200 C 0.82708 0.6557 0.17238 0.0
C1201 C 0.84296 0.69988 0.18557 0.0
C1202 C 0.85117 0.63837 0.1474 0.0
C1203 C 0.88335 0.72625 0.17347 0.0
C1204 C 0.90756 0.70921 0.14916 0.0
C1205 C 0.91633 0.64802 0.11166 0.0
C1206 C 0.90054 0.60406 0.09778 0.0
C1207 C 0.8919 0.66533 0.136 0.0
C1208 C 0.85963 0.57776 0.10877 0.0
C1209 C 0.83535 0.59462 0.13348 0.0
H1210 H 0.39062 0.84962 0.20435 0.0
H1211 H 0.30205 0.76467 0.13054 0.0
H1212 H 0.34104 0.80812 0.08355 0.0
H1213 H 0.3951 0.87506 0.06554 0.0
H1214 H 0.48586 0.95972 0.13723 0.0
H1215 H 0.45158 0.9118 0.18291 0.0
C1216 C 0.38048 0.84019 0.17775 0.0
C1217 C 0.34295 0.80453 0.17114 0.0
C1218 C 0.40312 0.86566 0.15066 0.0
C1219 C 0.33036 0.79245 0.13648 0.0
C1220 C 0.35264 0.8173 0.10956 0.0
C1221 C 0.40775 0.88253 0.09098 0.0
C1222 C 0.44259 0.92086 0.09831 0.0
C1223 C 0.38814 0.85478 0.11672 0.0
C1224 C 0.45902 0.93028 0.13113 0.0
C1225 C 0.4393 0.90298 0.15723 0.0
H1226 H 0.70208 0.13745 0.18337 0.0
H1227 H 0.7375 0.26363 0.15678 0.0
H1228 H 0.7028 0.23324 0.10302 0.0
H1229 H 0.65411 0.17197 0.06759 0.0
H1230 H 0.61782 0.04489 0.09185 0.0
H1231 H 0.66143 0.07414 0.14131 0.0
C1232 C 0.70308 0.15814 0.16532 0.0
C1233 C 0.72237 0.20291 0.17457 0.0
C1234 C 0.68239 0.1403 0.1339 0.0
C1235 C 0.72303 0.22913 0.15073 0.0
C1236 C 0.70291 0.2118 0.11981 0.0
C1237 C 0.65655 0.15058 0.08312 0.0
C1238 C 0.63246 0.10644 0.07615 0.0
C1239 C 0.6813 0.16758 0.11174 0.0
C1240 C 0.6362 0.0791 0.09644 0.0
C1241 C 0.66083 0.09586 0.12509 0.0
H1242 H 0.73863 0.66068 0.84264 0.0
H1243 H 0.63921 0.68654 0.82125 0.0
H1244 H 0.59385 0.64432 0.86743 0.0
H1245 H 0.58278 0.60161 0.91599 0.0
H1246 H 0.68405 0.57943 0.93837 0.0
H1247 H 0.72751 0.61815 0.89027 0.0
C1248 C 0.70701 0.65705 0.84786 0.0
C1249 C 0.69274 0.67704 0.82805 0.0
C1250 C 0.68109 0.63329 0.87512 0.0
C1251 C 0.65143 0.67164 0.83566 0.0
C1252 C 0.62532 0.64748 0.86232 0.0
C1253 C 0.61418 0.60507 0.9104 0.0
C1254 C 0.62962 0.58746 0.93154 0.0
C1255 C 0.63982 0.62835 0.88255 0.0
C1256 C 0.67084 0.59261 0.92322 0.0
C1257 C 0.69601 0.61488 0.89547 0.0
H1258 H 0.3835 0.5559 0.8158 0.0
H1259 H 0.4202 0.68808 0.8626 0.0
H1260 H 0.47176 0.684 0.89345 0.0
H1261 H 0.49754 0.63965 0.91519 0.0
H1262 H 0.45685 0.50603 0.87217 0.0
H1263 H 0.41694 0.51416 0.83104 0.0
C1264 C 0.40305 0.58392 0.8325 0.0
C1265 C 0.39743 0.62203 0.83733 0.0
C1266 C 0.43217 0.58111 0.85076 0.0
C1267 C 0.42374 0.65833 0.85839 0.0
C1268 C 0.45319 0.65597 0.87619 0.0
C1269 C 0.48141 0.61275 0.89575 0.0
C1270 C 0.48002 0.57223 0.89687 0.0
C1271 C 0.45667 0.61714 0.87357 0.0
C1272 C 0.45845 0.53756 0.8718 0.0
C1273 C 0.43511 0.54207 0.84864 0.0
H1274 H 0.36844 0.28645 0.84735 0.0
H1275 H 0.34967 0.39595 0.83375 0.0
H1276 H 0.38688 0.43718 0.88534 0.0
H1277 H 0.42609 0.44316 0.93394 0.0
H1278 H 0.44244 0.33307 0.94965 0.0
H1279 H 0.40398 0.2911 0.89853 0.0
C1280 C 0.37235 0.31925 0.8556 0.0
C1281 C 0.35667 0.33798 0.8359 0.0
C1282 C 0.39304 0.34277 0.88616 0.0
C1283 C 0.362 0.38063 0.84757 0.0
C1284 C 0.38307 0.40432 0.87743 0.0
C1285 C 0.42093 0.40989 0.92655 0.0
C1286 C 0.43745 0.39162 0.94587 0.0
C1287 C 0.39887 0.38582 0.8969 0.0
C1288 C 0.43014 0.34823 0.93559 0.0
C1289 C 0.4083 0.32415 0.90609 0.0
H1290 H 0.6227 0.28764 0.91331 0.0
H1291 H 0.59651 0.35314 0.84321 0.0
H1292 H 0.62105 0.41933 0.88477 0.0
H1293 H 0.64615 0.45701 0.94151 0.0
H1294 H 0.65336 0.38754 0.01883 0.0
H1295 H 0.64542 0.32575 0.97275 0.0
C1296 C 0.62113 0.3161 0.90786 0.0
C1297 C 0.60757 0.31578 0.87564 0.0
C1298 C 0.63472 0.35383 0.93209 0.0
C1299 C 0.6063 0.35287 0.86828 0.0
C1300 C 0.62126 0.39081 0.8915 0.0
C1301 C 0.64791 0.42894 0.94776 0.0
C1302 C 0.64978 0.42623 0.98318 0.0
C1303 C 0.63591 0.3917 0.92323 0.0
C1304 C 0.65211 0.39011 0.99144 0.0
C1305 C 0.64585 0.35431 0.9655 0.0
H1306 H 0.62574 0.38417 0.19292 0.0
H1307 H 0.714 0.51571 0.2102 0.0
H1308 H 0.67086 0.53806 0.18417 0.0
H1309 H 0.61466 0.5188 0.14736 0.0
H1310 H 0.52787 0.38697 0.12689 0.0
H1311 H 0.56251 0.36659 0.16447 0.0
C1312 C 0.6349 0.41781 0.19187 0.0
C1313 C 0.67344 0.44812 0.20291 0.0
C1314 C 0.6102 0.43044 0.17605 0.0
C1315 C 0.68488 0.49165 0.20131 0.0
C1316 C 0.66019 0.50447 0.18641 0.0
C1317 C 0.60257 0.48574 0.15182 0.0
C1318 C 0.56919 0.45444 0.13347 0.0
C1319 C 0.62371 0.47394 0.17229 0.0
C1320 C 0.55361 0.41188 0.1403 0.0
C1321 C 0.57381 0.40005 0.16152 0.0
H1322 H 0.6824 0.73504 0.18191 0.0
H1323 H 0.70945 0.62658 0.18199 0.0
H1324 H 0.66846 0.58792 0.13192 0.0
H1325 H 0.62286 0.58356 0.08964 0.0
H1326 H 0.59788 0.69263 0.08719 0.0
H1327 H 0.64093 0.73263 0.13612 0.0
C1328 C 0.67978 0.70318 0.17082 0.0
C1329 C 0.69897 0.68385 0.18606 0.0
C1330 C 0.65653 0.68113 0.14148 0.0
C1331 C 0.69465 0.6422 0.17133 0.0
C1332 C 0.67127 0.62 0.14251 0.0
C1333 C 0.62706 0.61618 0.09938 0.0
C1334 C 0.60686 0.63478 0.08459 0.0
C1335 C 0.65181 0.63899 0.12756 0.0
C1336 C 0.61305 0.67735 0.09782 0.0
C1337 C 0.6375 0.70023 0.12603 0.0
H1338 H 0.3507 0.66984 0.14245 0.0
H1339 H 0.44461 0.77941 0.09683 0.0
H1340 H 0.44006 0.73559 0.03839 0.0
H1341 H 0.4284 0.66321 0.00874 0.0
H1342 H 0.34446 0.55405 0.05973 0.0
H1343 H 0.32334 0.60064 0.10649 0.0
C1344 C 0.36893 0.68517 0.11968 0.0
C1345 C 0.39973 0.72742 0.12443 0.0
C1346 C 0.36789 0.65925 0.08692 0.0
C1347 C 0.42216 0.74639 0.09417 0.0
C1348 C 0.4195 0.72132 0.06076 0.0
C1349 C 0.40408 0.64959 0.02931 0.0
C1350 C 0.38958 0.60589 0.03224 0.0
C1351 C 0.39547 0.67698 0.05786 0.0
C1352 C 0.35687 0.58785 0.05765 0.0
C1353 C 0.34539 0.61467 0.08473 0.0
H1354 H 0.30494 0.35775 0.1839 0.0
H1355 H 0.40561 0.32912 0.19751 0.0
H1356 H 0.44978 0.37543 0.15362 0.0
H1357 H 0.4594 0.42229 0.10919 0.0
H1358 H 0.35755 0.44779 0.09379 0.0
H1359 H 0.31485 0.40492 0.14011 0.0
C1360 C 0.33659 0.36174 0.17748 0.0
C1361 C 0.35174 0.34008 0.19466 0.0
C1362 C 0.36187 0.38795 0.15151 0.0
C1363 C 0.39294 0.34568 0.18544 0.0
C1364 C 0.41833 0.3721 0.16004 0.0
C1365 C 0.42811 0.41884 0.11609 0.0
C1366 C 0.41216 0.43853 0.09757 0.0
C1367 C 0.40313 0.39327 0.14266 0.0
C1368 C 0.37103 0.43311 0.10714 0.0
C1369 C 0.34637 0.40845 0.13378 0.0
H1370 H 0.79029 0.63906 0.68199 0.0
H1371 H 0.89389 0.76227 0.69405 0.0
H1372 H 0.93784 0.73326 0.65433 0.0
H1373 H 0.94862 0.67315 0.61676 0.0
H1374 H 0.84627 0.54953 0.60234 0.0
H1375 H 0.80091 0.57832 0.64162 0.0
C1376 C 0.82237 0.65961 0.67569 0.0
C1377 C 0.83848 0.70295 0.69176 0.0
C1378 C 0.84819 0.64256 0.65227 0.0
C1379 C 0.88032 0.72878 0.68287 0.0
C1380 C 0.90576 0.7122 0.65993 0.0
C1381 C 0.91644 0.65223 0.62216 0.0
C1382 C 0.9014 0.60887 0.60645 0.0
C1383 C 0.8903 0.66908 0.64472 0.0
C1384 C 0.85922 0.58289 0.61392 0.0
C1385 C 0.83306 0.59942 0.63648 0.0
H1386 H 0.3522 0.8088 0.66203 0.0
H1387 H 0.33311 0.91332 0.73046 0.0
H1388 H 0.36905 0.95952 0.68432 0.0
H1389 H 0.40532 0.96963 0.6239 0.0
H1390 H 0.43292 0.8679 0.55989 0.0
H1391 H 0.39588 0.82144 0.60585 0.0
C1392 C 0.35666 0.84193 0.66751 0.0
C1393 C 0.33899 0.85713 0.69968 0.0
C1394 C 0.37937 0.86884 0.64171 0.0
C1395 C 0.34471 0.90011 0.70555 0.0
C1396 C 0.36589 0.92675 0.67933 0.0
C1397 C 0.40341 0.93735 0.62024 0.0
C1398 C 0.42138 0.92188 0.5885 0.0
C1399 C 0.38302 0.91131 0.64717 0.0
C1400 C 0.41939 0.88038 0.58414 0.0
C1401 C 0.39806 0.85383 0.61032 0.0
H1402 H 0.20455 0.41928 0.64687 0.0
H1403 H 0.08819 0.33792 0.6967 0.0
H1404 H 0.05168 0.35198 0.65618 0.0
H1405 H 0.05297 0.38997 0.60678 0.0
H1406 H 0.17075 0.47044 0.5582 0.0
H1407 H 0.20599 0.45511 0.59811 0.0
C1408 C 0.17118 0.40411 0.64852 0.0
C1409 C 0.14923 0.37744 0.67463 0.0
C1410 C 0.15037 0.41274 0.62546 0.0
C1411 C 0.10591 0.35879 0.6769 0.0
C1412 C 0.08494 0.36685 0.6537 0.0
C1413 C 0.0862 0.40328 0.60469 0.0
C1414 C 0.10881 0.43074 0.57916 0.0
C1415 C 0.1068 0.39407 0.62791 0.0
C1416 C 0.15218 0.44927 0.57758 0.0
C1417 C 0.17263 0.44036 0.60031 0.0
H1418 H 0.7539 0.16742 0.62376 0.0
H1419 H 0.6706 0.10167 0.70813 0.0
H1420 H 0.61985 0.0566 0.66584 0.0
H1421 H 0.59438 0.04486 0.60751 0.0
H1422 H 0.67271 0.1188 0.52558 0.0
H1423 H 0.73008 0.15123 0.56346 0.0
C1424 C 0.72524 0.14207 0.63244 0.0
C1425 C 0.71603 0.13753 0.66892 0.0
C1426 C 0.69498 0.11817 0.60827 0.0
C1427 C 0.67834 0.10552 0.68016 0.0
C1428 C 0.64919 0.08002 0.65602 0.0
C1429 C 0.62447 0.06702 0.59761 0.0
C1430 C 0.62968 0.07887 0.56362 0.0
C1431 C 0.6564 0.08733 0.62038 0.0
C1432 C 0.66831 0.1087 0.55144 0.0
C1433 C 0.70099 0.12739 0.57321 0.0
H1434 H 0.82011 0.29349 0.37778 0.0
H1435 H 0.84408 0.4078 0.335 0.0
H1436 H 0.88594 0.45187 0.38405 0.0
H1437 H 0.92303 0.45671 0.43439 0.0
H1438 H 0.89942 0.34145 0.47568 0.0
H1439 H 0.84931 0.29909 0.4325 0.0
C1440 C 0.83424 0.32809 0.37932 0.0
C1441 C 0.82978 0.34734 0.35242 0.0
C1442 C 0.85825 0.35305 0.40743 0.0
C1443 C 0.84738 0.39221 0.35525 0.0
C1444 C 0.87137 0.41739 0.38325 0.0
C1445 C 0.90599 0.42251 0.43465 0.0
C1446 C 0.91534 0.40218 0.45793 0.0
C1447 C 0.878 0.39806 0.40894 0.0
C1448 C 0.89309 0.3578 0.45781 0.0
C1449 C 0.86463 0.33349 0.43295 0.0
H1450 H 0.65267 0.7625 0.32668 0.0
H1451 H 0.76863 0.87158 0.34228 0.0
H1452 H 0.73375 0.91112 0.38256 0.0
H1453 H 0.67008 0.91622 0.41216 0.0
H1454 H 0.55342 0.80853 0.39486 0.0
H1455 H 0.5885 0.76765 0.35672 0.0
C1456 C 0.67024 0.79474 0.33921 0.0
C1457 C 0.71324 0.81395 0.33136 0.0
C1458 C 0.64976 0.81798 0.36193 0.0
C1459 C 0.7355 0.85597 0.34766 0.0
C1460 C 0.71555 0.87875 0.37071 0.0
C1461 C 0.65224 0.88384 0.40008 0.0
C1462 C 0.609 0.86584 0.40653 0.0
C1463 C 0.67262 0.86036 0.37777 0.0
C1464 C 0.58666 0.82365 0.3904 0.0
C1465 C 0.60674 0.8 0.36857 0.0
H1466 H 0.20903 0.72697 0.37505 0.0
H1467 H 0.14198 0.64707 0.28591 0.0
H1468 H 0.09555 0.59446 0.32463 0.0
H1469 H 0.07848 0.56754 0.38311 0.0
H1470 H 0.14636 0.64781 0.47167 0.0
H1471 H 0.18727 0.70391 0.43444 0.0
C1472 C 0.18391 0.69826 0.36428 0.0
C1473 C 0.17924 0.69066 0.32765 0.0
C1474 C 0.15727 0.66816 0.38676 0.0
C1475 C 0.14624 0.65363 0.31406 0.0
C1476 C 0.11976 0.62342 0.33618 0.0
C1477 C 0.10139 0.59785 0.39435 0.0
C1478 C 0.10917 0.60385 0.43012 0.0
C1479 C 0.12547 0.62983 0.37248 0.0
C1480 C 0.13957 0.64283 0.44428 0.0
C1481 C 0.16317 0.67479 0.42296 0.0
H1482 H 0.44212 0.12564 0.32344 0.0
H1483 H 0.47586 0.25176 0.38363 0.0
H1484 H 0.49893 0.23022 0.4298 0.0
H1485 H 0.50542 0.1739 0.45488 0.0
H1486 H 0.46821 0.04706 0.39564 0.0
H1487 H 0.45187 0.07075 0.34679 0.0
C1488 C 0.45503 0.14857 0.34643 0.0
C1489 C 0.4571 0.19017 0.35017 0.0
C1490 C 0.46778 0.13583 0.373 0.0
C1491 C 0.47345 0.21937 0.38036 0.0
C1492 C 0.48678 0.20712 0.4067 0.0
C1493 C 0.49464 0.15185 0.43087 0.0
C1494 C 0.48832 0.10897 0.42859 0.0
C1495 C 0.48365 0.16526 0.40352 0.0
C1496 C 0.4735 0.08032 0.39777 0.0
C1497 C 0.46385 0.09374 0.37001 0.0
H1498 H 0.5391 0.7436 0.60576 0.0
H1499 H 0.632 0.84909 0.66571 0.0
H1500 H 0.62262 0.8993 0.63631 0.0
H1501 H 0.58903 0.91365 0.5919 0.0
H1502 H 0.49031 0.80736 0.53891 0.0
H1503 H 0.50018 0.75792 0.56849 0.0
C1504 C 0.55679 0.77745 0.61356 0.0
C1505 C 0.58664 0.79161 0.63817 0.0
C1506 C 0.54996 0.8066 0.59784 0.0
C1507 C 0.60962 0.83622 0.6463 0.0
C1508 C 0.60389 0.86537 0.62977 0.0
C1509 C 0.5691 0.87978 0.58741 0.0
C1510 C 0.53912 0.86461 0.56282 0.0
C1511 C 0.57427 0.85095 0.60527 0.0
C1512 C 0.5136 0.82043 0.55757 0.0
C1513 C 0.51939 0.79183 0.57435 0.0
H1514 H 0.68852 0.12837 0.30358 0.0
H1515 H 0.70573 0.24316 0.3777 0.0
H1516 H 0.66273 0.20082 0.4241 0.0
H1517 H 0.62173 0.13058 0.44517 0.0
H1518 H 0.61157 0.0158 0.37386 0.0
H1519 H 0.65018 0.05803 0.3255 0.0
C1520 C 0.68302 0.1441 0.32991 0.0
C1521 C 0.69953 0.1892 0.33654 0.0
C1522 C 0.65934 0.11926 0.35729 0.0
C1523 C 0.69227 0.20872 0.37114 0.0
C1524 C 0.66791 0.18442 0.398 0.0
C1525 C 0.62753 0.11492 0.41887 0.0
C1526 C 0.61319 0.0701 0.41288 0.0
C1527 C 0.65119 0.13962 0.39149 0.0
C1528 C 0.62188 0.05025 0.37896 0.0
C1529 C 0.64413 0.07442 0.35133 0.0
H1530 H 0.95726 0.67591 0.35165 0.0
H1531 H 0.83616 0.57218 0.3572 0.0
H1532 H 0.85644 0.54351 0.40005 0.0
H1533 H 0.90696 0.54959 0.43772 0.0
H1534 H 0.02765 0.65445 0.43475 0.0
H1535 H 1.00935 0.6804 0.3884 0.0
C1536 C 0.93548 0.64681 0.36202 0.0
C1537 C 0.89513 0.62632 0.35145 0.0
C1538 C 0.94726 0.6307 0.38698 0.0
C1539 C 0.86714 0.58887 0.36533 0.0
C1540 C 0.87879 0.57235 0.38966 0.0
C1541 C 0.92958 0.57796 0.4268 0.0
C1542 C 0.96861 0.60012 0.43992 0.0
C1543 C 0.91856 0.59327 0.40096 0.0
C1544 C 0.99732 0.63685 0.42534 0.0
C1545 C 0.98683 0.6518 0.3989 0.0
H1546 H 0.28058 0.8232 0.37056 0.0
H1547 H 0.36749 0.89013 0.28842 0.0
H1548 H 0.41552 0.93594 0.33256 0.0
H1549 H 0.43819 0.94791 0.39218 0.0
H1550 H 0.35638 0.87341 0.47246 0.0
H1551 H 0.30119 0.84031 0.43232 0.0
C1552 C 0.30941 0.84891 0.36271 0.0
C1553 C 0.32031 0.85359 0.32629 0.0
C1554 C 0.33825 0.87337 0.38809 0.0
C1555 C 0.35827 0.88618 0.31627 0.0
C1556 C 0.38595 0.91211 0.34151 0.0
C1557 C 0.40778 0.92557 0.40125 0.0
C1558 C 0.40106 0.9138 0.4355 0.0
C1559 C 0.37711 0.90476 0.37719 0.0
C1560 C 0.36199 0.88363 0.44651 0.0
C1561 C 0.33056 0.86442 0.42338 0.0
H1562 H 0.16413 0.28899 0.32838 0.0
H1563 H 0.28597 0.39061 0.33442 0.0
H1564 H 0.25825 0.43599 0.37666 0.0
H1565 H 0.19827 0.44687 0.41303 0.0
H1566 H 0.07689 0.34408 0.40351 0.0
H1567 H 0.1054 0.30041 0.36172 0.0
C1568 C 0.1848 0.32113 0.3387 0.0
C1569 C 0.2274 0.33572 0.32841 0.0
C1570 C 0.16851 0.34743 0.3626 0.0
C1571 C 0.25324 0.37778 0.34225 0.0
C1572 C 0.23726 0.40404 0.36635 0.0
C1573 C 0.17804 0.41508 0.40164 0.0
C1574 C 0.13519 0.39928 0.41211 0.0
C1575 C 0.19479 0.38924 0.37695 0.0
C1576 C 0.10987 0.35766 0.39669 0.0
C1577 C 0.12616 0.33227 0.37251 0.0
H1578 H 0.30959 0.14828 0.68052 0.0
H1579 H 0.41066 0.27332 0.68685 0.0
H1580 H 0.45375 0.24427 0.64442 0.0
H1581 H 0.46314 0.18254 0.60553 0.0
H1582 H 0.36042 0.05843 0.59862 0.0
H1583 H 0.31824 0.08774 0.64124 0.0
C1584 C 0.34112 0.1693 0.67281 0.0
C1585 C 0.3567 0.2131 0.68723 0.0
C1586 C 0.36572 0.15235 0.6482 0.0
C1587 C 0.39758 0.23962 0.6763 0.0
C1588 C 0.42237 0.2229 0.65204 0.0
C1589 C 0.43156 0.16186 0.61338 0.0
C1590 C 0.41529 0.11804 0.59861 0.0
C1591 C 0.40687 0.1792 0.63782 0.0
C1592 C 0.37404 0.09213 0.60914 0.0
C1593 C 0.34974 0.1089 0.63369 0.0
H1594 H 0.88105 0.35557 0.70404 0.0
H1595 H 0.82291 0.25145 0.62267 0.0
H1596 H 0.8617 0.29699 0.57637 0.0
H1597 H 0.91019 0.36778 0.55941 0.0
H1598 H 0.96938 0.47123 0.64084 0.0
H1599 H 0.93253 0.42476 0.68692 0.0
C1600 C 0.87719 0.34289 0.67611 0.0
C1601 C 0.84975 0.30016 0.66658 0.0
C1602 C 0.89989 0.36915 0.64978 0.0
C1603 C 0.84455 0.28405 0.63045 0.0
C1604 C 0.86659 0.31011 0.60406 0.0
C1605 C 0.91574 0.37961 0.58721 0.0
C1606 C 0.94296 0.42242 0.5969 0.0
C1607 C 0.89434 0.35273 0.61342 0.0
C1608 C 0.94926 0.43804 0.63291 0.0
C1609 C 0.92783 0.41166 0.65919 0.0
H1610 H 0.20583 0.64087 0.6794 0.0
H1611 H 0.23414 0.76745 0.65767 0.0
H1612 H 0.19913 0.73711 0.60355 0.0
H1613 H 0.15183 0.67489 0.56738 0.0
H1614 H 0.12377 0.54796 0.58752 0.0
H1615 H 0.16853 0.57805 0.6361 0.0
C1616 C 0.20533 0.66178 0.66229 0.0
C1617 C 0.22186 0.70631 0.67303 0.0
C1618 C 0.18506 0.64408 0.63083 0.0
C1619 C 0.22083 0.73297 0.65052 0.0
C1620 C 0.20092 0.7157 0.61942 0.0
C1621 C 0.15644 0.65382 0.58176 0.0
C1622 C 0.13415 0.60937 0.57414 0.0
C1623 C 0.18158 0.67132 0.61005 0.0
C1624 C 0.1407 0.58237 0.59274 0.0
C1625 C 0.16591 0.59958 0.6209 0.0
loop_
_geom_bond_atom_site_label_1
_geom_bond_atom_site_label_2
_geom_bond_distance
_geom_bond_site_symmetry_2
_ccdc_geom_bond_type
Eu0 N29 2.600 . S
Eu0 N35 2.562 . S
Eu0 O44 2.462 . S
Eu0 O45 2.373 . S
Eu0 O47 2.432 . S
Eu0 O48 2.291 . S
Eu0 O52 2.335 . S
Eu0 O55 2.372 . S
Eu0 C64 2.787 . S
C1 N2 1.365 . S
C1 C4 1.405 . S
C1 C8 1.448 . S
N2 C1 1.365 . S
N2 C5 1.319 . S
N2 Eu11 2.600 . S
C3 C5 1.397 . S
C3 C6 1.367 . S
C3 H23 0.931 . S
C4 C1 1.405 . S
C4 C6 1.403 . S
C4 C10 1.439 . S
C5 N2 1.319 . S
C5 C3 1.397 . S
C5 H16 0.930 . S
C6 C3 1.367 . S
C6 C4 1.403 . S
C6 H27 0.929 . S
C7 C8 1.430 . S
C7 C9 1.387 . S
C7 C13 1.404 . S
C8 C1 1.448 . S
C8 C7 1.430 . S
C8 N12 1.351 . S
C9 C7 1.387 . S
C9 C10 1.374 . S
C9 H24 0.931 . S
C10 C4 1.439 . S
C10 C9 1.374 . S
C10 H25 0.931 . S
Eu11 N2 2.600 . S
Eu11 N12 2.562 . S
Eu11 O46 2.335 . S
Eu11 O49 2.372 . S
Eu11 O50 2.462 . S
Eu11 O51 2.373 . S
Eu11 O53 2.432 . S
Eu11 O54 2.291 . S
Eu11 C75 2.787 . S
N12 C8 1.351 . S
N12 Eu11 2.562 . S
N12 C14 1.325 . S
C13 C7 1.404 . S
C13 C15 1.366 . S
C13 H21 0.930 . S
C14 N12 1.325 . S
C14 C15 1.416 . S
C14 H20 0.929 . S
C15 C13 1.366 . S
C15 C14 1.416 . S
C15 H17 0.930 . S
H16 C5 0.930 . S
H17 C15 0.930 . S
H18 C33 0.930 . S
H19 C40 0.930 . S
H20 C14 0.929 . S
H21 C13 0.930 . S
H22 C36 0.929 . S
H23 C3 0.931 . S
H24 C9 0.931 . S
H25 C10 0.931 . S
H26 C31 0.931 . S
H27 C6 0.929 . S
H28 C39 0.930 . S
N29 Eu0 2.600 . S
N29 C30 1.365 . S
N29 C33 1.319 . S
C30 N29 1.365 . S
C30 C32 1.405 . S
C30 C38 1.448 . S
C31 H26 0.931 . S
C31 C33 1.397 . S
C31 C34 1.367 . S
C32 C30 1.405 . S
C32 C34 1.403 . S
C32 C65 1.439 . S
C33 H18 0.930 . S
C33 N29 1.319 . S
C33 C31 1.397 . S
C34 C31 1.367 . S
C34 C32 1.403 . S
C34 H41 0.929 . S
N35 Eu0 2.562 . S
N35 C36 1.325 . S
N35 C38 1.351 . S
C36 H22 0.929 . S
C36 N35 1.325 . S
C36 C40 1.416 . S
C37 C38 1.430 . S
C37 C39 1.404 . S
C37 C66 1.387 . S
C38 C30 1.448 . S
C38 N35 1.351 . S
C38 C37 1.430 . S
C39 H28 0.930 . S
C39 C37 1.404 . S
C39 C40 1.366 . S
C40 H19 0.930 . S
C40 C36 1.416 . S
C40 C39 1.366 . S
H41 C34 0.929 . S
H42 C65 0.931 . S
H43 C66 0.931 . S
O44 Eu0 2.462 . S
O44 C64 1.252 . S
O45 Eu0 2.373 . S
O45 C56 1.249 . S
O46 Eu11 2.335 . S
O46 C56 1.264 . S
O47 Eu0 2.432 . S
O47 C64 1.268 . S
O48 Eu0 2.291 . S
O48 C63 1.255 . S
O49 Eu11 2.372 . S
O49 C63 1.257 . S
O50 Eu11 2.462 . S
O50 C75 1.252 . S
O51 Eu11 2.373 . S
O51 C67 1.249 . S
O52 Eu0 2.335 . S
O52 C67 1.264 . S
O53 Eu11 2.432 . S
O53 C75 1.268 . S
O54 Eu11 2.291 . S
O54 C74 1.255 . S
O55 Eu0 2.372 . S
O55 C74 1.257 . S
C56 O45 1.249 . S
C56 O46 1.264 . S
C57 C60 1.382 . S
C57 C62 1.390 . S
C57 C64 1.506 . S
C58 C59 1.398 . S
C58 C62 1.392 . S
C59 C58 1.398 . S
C59 C61 1.372 . S
C59 H76 0.931 . S
C60 C57 1.382 . S
C60 C61 1.390 . S
C60 H77 0.931 . S
C61 C59 1.372 . S
C61 C60 1.390 . S
C61 H78 0.929 . S
C62 C57 1.390 . S
C62 C58 1.392 . S
C62 H79 0.930 . S
C63 O48 1.255 . S
C63 O49 1.257 . S
C64 Eu0 2.787 . S
C64 O44 1.252 . S
C64 O47 1.268 . S
C64 C57 1.506 . S
C65 C32 1.439 . S
C65 H42 0.931 . S
C65 C66 1.374 . S
C66 C37 1.387 . S
C66 H43 0.931 . S
C66 C65 1.374 . S
C67 O51 1.249 . S
C67 O52 1.264 . S
C68 C71 1.382 . S
C68 C72 1.390 . S
C68 C75 1.506 . S
C69 C70 1.398 . S
C69 C72 1.392 . S
C70 C69 1.398 . S
C70 C73 1.372 . S
C70 H80 0.931 . S
C71 C68 1.382 . S
C71 C73 1.390 . S
C71 H81 0.931 . S
C72 C68 1.390 . S
C72 C69 1.392 . S
C72 H82 0.930 . S
C73 C70 1.372 . S
C73 C71 1.390 . S
C73 H83 0.929 . S
C74 O54 1.255 . S
C74 O55 1.257 . S
C75 Eu11 2.787 . S
C75 O50 1.252 . S
C75 O53 1.268 . S
C75 C68 1.506 . S
H76 C59 0.931 . S
H77 C60 0.931 . S
H78 C61 0.929 . S
H79 C62 0.930 . S
H80 C70 0.931 . S
H81 C71 0.931 . S
H82 C72 0.930 . S
H83 C73 0.929 . S
Eu84 N113 2.600 . S
Eu84 N119 2.562 . S
Eu84 O128 2.462 . S
Eu84 O129 2.373 . S
Eu84 O131 2.432 . S
Eu84 O132 2.291 . S
Eu84 O136 2.335 . S
Eu84 O139 2.372 . S
Eu84 C148 2.787 . S
C85 N86 1.365 . S
C85 C88 1.405 . S
C85 C92 1.448 . S
N86 C85 1.365 . S
N86 C89 1.319 . S
N86 Eu95 2.600 . S
C87 C89 1.397 . S
C87 C90 1.367 . S
C87 H107 0.931 . S
C88 C85 1.405 . S
C88 C90 1.403 . S
C88 C94 1.439 . S
C89 N86 1.319 . S
C89 C87 1.397 . S
C89 H100 0.930 . S
C90 C87 1.367 . S
C90 C88 1.403 . S
C90 H111 0.929 . S
C91 C92 1.430 . S
C91 C93 1.387 . S
C91 C97 1.404 . S
C92 C85 1.448 . S
C92 C91 1.430 . S
C92 N96 1.351 . S
C93 C91 1.387 . S
C93 C94 1.374 . S
C93 H108 0.931 . S
C94 C88 1.439 . S
C94 C93 1.374 . S
C94 H109 0.931 . S
Eu95 N86 2.600 . S
Eu95 N96 2.562 . S
Eu95 O130 2.335 . S
Eu95 O133 2.372 . S
Eu95 O134 2.462 . S
Eu95 O135 2.373 . S
Eu95 O137 2.432 . S
Eu95 O138 2.291 . S
Eu95 C159 2.787 . S
N96 C92 1.351 . S
N96 Eu95 2.562 . S
N96 C98 1.325 . S
C97 C91 1.404 . S
C97 C99 1.366 . S
C97 H105 0.930 . S
C98 N96 1.325 . S
C98 C99 1.416 . S
C98 H104 0.929 . S
C99 C97 1.366 . S
C99 C98 1.416 . S
C99 H101 0.930 . S
H100 C89 0.930 . S
H101 C99 0.930 . S
H102 C117 0.930 . S
H103 C124 0.930 . S
H104 C98 0.929 . S
H105 C97 0.930 . S
H106 C120 0.929 . S
H107 C87 0.931 . S
H108 C93 0.931 . S
H109 C94 0.931 . S
H110 C115 0.931 . S
H111 C90 0.929 . S
H112 C123 0.930 . S
N113 Eu84 2.600 . S
N113 C114 1.365 . S
N113 C117 1.319 . S
C114 N113 1.365 . S
C114 C116 1.405 . S
C114 C122 1.448 . S
C115 H110 0.931 . S
C115 C117 1.397 . S
C115 C118 1.367 . S
C116 C114 1.405 . S
C116 C118 1.403 . S
C116 C149 1.439 . S
C117 H102 0.930 . S
C117 N113 1.319 . S
C117 C115 1.397 . S
C118 C115 1.367 . S
C118 C116 1.403 . S
C118 H125 0.929 . S
N119 Eu84 2.562 . S
N119 C120 1.325 . S
N119 C122 1.351 . S
C120 H106 0.929 . S
C120 N119 1.325 . S
C120 C124 1.416 . S
C121 C122 1.430 . S
C121 C123 1.404 . S
C121 C150 1.387 . S
C122 C114 1.448 . S
C122 N119 1.351 . S
C122 C121 1.430 . S
C123 H112 0.930 . S
C123 C121 1.404 . S
C123 C124 1.366 . S
C124 H103 0.930 . S
C124 C120 1.416 . S
C124 C123 1.366 . S
H125 C118 0.929 . S
H126 C149 0.931 . S
H127 C150 0.931 . S
O128 Eu84 2.462 . S
O128 C148 1.252 . S
O129 Eu84 2.373 . S
O129 C140 1.249 . S
O130 Eu95 2.335 . S
O130 C140 1.264 . S
O131 Eu84 2.432 . S
O131 C148 1.268 . S
O132 Eu84 2.291 . S
O132 C147 1.255 . S
O133 Eu95 2.372 . S
O133 C147 1.257 . S
O134 Eu95 2.462 . S
O134 C159 1.252 . S
O135 Eu95 2.373 . S
O135 C151 1.249 . S
O136 Eu84 2.335 . S
O136 C151 1.264 . S
O137 Eu95 2.432 . S
O137 C159 1.268 . S
O138 Eu95 2.291 . S
O138 C158 1.255 . S
O139 Eu84 2.372 . S
O139 C158 1.257 . S
C140 O129 1.249 . S
C140 O130 1.264 . S
C141 C144 1.382 . S
C141 C146 1.390 . S
C141 C148 1.506 . S
C142 C143 1.398 . S
C142 C146 1.392 . S
C143 C142 1.398 . S
C143 C145 1.372 . S
C143 H160 0.931 . S
C144 C141 1.382 . S
C144 C145 1.390 . S
C144 H161 0.931 . S
C145 C143 1.372 . S
C145 C144 1.390 . S
C145 H162 0.929 . S
C146 C141 1.390 . S
C146 C142 1.392 . S
C146 H163 0.930 . S
C147 O132 1.255 . S
C147 O133 1.257 . S
C148 Eu84 2.787 . S
C148 O128 1.252 . S
C148 O131 1.268 . S
C148 C141 1.506 . S
C149 C116 1.439 . S
C149 H126 0.931 . S
C149 C150 1.374 . S
C150 C121 1.387 . S
C150 H127 0.931 . S
C150 C149 1.374 . S
C151 O135 1.249 . S
C151 O136 1.264 . S
C152 C155 1.382 . S
C152 C156 1.390 . S
C152 C159 1.506 . S
C153 C154 1.398 . S
C153 C156 1.392 . S
C154 C153 1.398 . S
C154 C157 1.372 . S
C154 H164 0.931 . S
C155 C152 1.382 . S
C155 C157 1.390 . S
C155 H165 0.931 . S
C156 C152 1.390 . S
C156 C153 1.392 . S
C156 H166 0.930 . S
C157 C154 1.372 . S
C157 C155 1.390 . S
C157 H167 0.929 . S
C158 O138 1.255 . S
C158 O139 1.257 . S
C159 Eu95 2.787 . S
C159 O134 1.252 . S
C159 O137 1.268 . S
C159 C152 1.506 . S
H160 C143 0.931 . S
H161 C144 0.931 . S
H162 C145 0.929 . S
H163 C146 0.930 . S
H164 C154 0.931 . S
H165 C155 0.931 . S
H166 C156 0.930 . S
H167 C157 0.929 . S
Eu168 N197 2.600 . S
Eu168 N203 2.562 . S
Eu168 O212 2.462 . S
Eu168 O213 2.373 . S
Eu168 O215 2.432 . S
Eu168 O216 2.291 . S
Eu168 O220 2.335 . S
Eu168 O223 2.372 . S
Eu168 C232 2.787 . S
C169 N170 1.365 . S
C169 C172 1.405 . S
C169 C176 1.448 . S
N170 C169 1.365 . S
N170 C173 1.319 . S
N170 Eu179 2.600 . S
C171 C173 1.397 . S
C171 C174 1.367 . S
C171 H191 0.931 . S
C172 C169 1.405 . S
C172 C174 1.403 . S
C172 C178 1.439 . S
C173 N170 1.319 . S
C173 C171 1.397 . S
C173 H184 0.930 . S
C174 C171 1.367 . S
C174 C172 1.403 . S
C174 H195 0.929 . S
C175 C176 1.430 . S
C175 C177 1.387 . S
C175 C181 1.404 . S
C176 C169 1.448 . S
C176 C175 1.430 . S
C176 N180 1.351 . S
C177 C175 1.387 . S
C177 C178 1.374 . S
C177 H192 0.931 . S
C178 C172 1.439 . S
C178 C177 1.374 . S
C178 H193 0.931 . S
Eu179 N170 2.600 . S
Eu179 N180 2.562 . S
Eu179 O214 2.335 . S
Eu179 O217 2.372 . S
Eu179 O218 2.462 . S
Eu179 O219 2.373 . S
Eu179 O221 2.432 . S
Eu179 O222 2.291 . S
Eu179 C243 2.787 . S
N180 C176 1.351 . S
N180 Eu179 2.562 . S
N180 C182 1.325 . S
C181 C175 1.404 . S
C181 C183 1.366 . S
C181 H189 0.930 . S
C182 N180 1.325 . S
C182 C183 1.416 . S
C182 H188 0.929 . S
C183 C181 1.366 . S
C183 C182 1.416 . S
C183 H185 0.930 . S
H184 C173 0.930 . S
H185 C183 0.930 . S
H186 C201 0.930 . S
H187 C208 0.930 . S
H188 C182 0.929 . S
H189 C181 0.930 . S
H190 C204 0.929 . S
H191 C171 0.931 . S
H192 C177 0.931 . S
H193 C178 0.931 . S
H194 C199 0.931 . S
H195 C174 0.929 . S
H196 C207 0.930 . S
N197 Eu168 2.600 . S
N197 C198 1.365 . S
N197 C201 1.319 . S
C198 N197 1.365 . S
C198 C200 1.405 . S
C198 C206 1.448 . S
C199 H194 0.931 . S
C199 C201 1.397 . S
C199 C202 1.367 . S
C200 C198 1.405 . S
C200 C202 1.403 . S
C200 C233 1.439 . S
C201 H186 0.930 . S
C201 N197 1.319 . S
C201 C199 1.397 . S
C202 C199 1.367 . S
C202 C200 1.403 . S
C202 H209 0.929 . S
N203 Eu168 2.562 . S
N203 C204 1.325 . S
N203 C206 1.351 . S
C204 H190 0.929 . S
C204 N203 1.325 . S
C204 C208 1.416 . S
C205 C206 1.430 . S
C205 C207 1.404 . S
C205 C234 1.387 . S
C206 C198 1.448 . S
C206 N203 1.351 . S
C206 C205 1.430 . S
C207 H196 0.930 . S
C207 C205 1.404 . S
C207 C208 1.366 . S
C208 H187 0.930 . S
C208 C204 1.416 . S
C208 C207 1.366 . S
H209 C202 0.929 . S
H210 C233 0.931 . S
H211 C234 0.931 . S
O212 Eu168 2.462 . S
O212 C232 1.252 . S
O213 Eu168 2.373 . S
O213 C224 1.249 . S
O214 Eu179 2.335 . S
O214 C224 1.264 . S
O215 Eu168 2.432 . S
O215 C232 1.268 . S
O216 Eu168 2.291 . S
O216 C231 1.255 . S
O217 Eu179 2.372 . S
O217 C231 1.257 . S
O218 Eu179 2.462 . S
O218 C243 1.252 . S
O219 Eu179 2.373 . S
O219 C235 1.249 . S
O220 Eu168 2.335 . S
O220 C235 1.264 . S
O221 Eu179 2.432 . S
O221 C243 1.268 . S
O222 Eu179 2.291 . S
O222 C242 1.255 . S
O223 Eu168 2.372 . S
O223 C242 1.257 . S
C224 O213 1.249 . S
C224 O214 1.264 . S
C225 C228 1.382 . S
C225 C230 1.390 . S
C225 C232 1.506 . S
C226 C227 1.398 . S
C226 C230 1.392 . S
C227 C226 1.398 . S
C227 C229 1.372 . S
C227 H244 0.931 . S
C228 C225 1.382 . S
C228 C229 1.390 . S
C228 H245 0.931 . S
C229 C227 1.372 . S
C229 C228 1.390 . S
C229 H246 0.929 . S
C230 C225 1.390 . S
C230 C226 1.392 . S
C230 H247 0.930 . S
C231 O216 1.255 . S
C231 O217 1.257 . S
C232 Eu168 2.787 . S
C232 O212 1.252 . S
C232 O215 1.268 . S
C232 C225 1.506 . S
C233 C200 1.439 . S
C233 H210 0.931 . S
C233 C234 1.374 . S
C234 C205 1.387 . S
C234 H211 0.931 . S
C234 C233 1.374 . S
C235 O219 1.249 . S
C235 O220 1.264 . S
C236 C239 1.382 . S
C236 C240 1.390 . S
C236 C243 1.506 . S
C237 C238 1.398 . S
C237 C240 1.392 . S
C238 C237 1.398 . S
C238 C241 1.372 . S
C238 H248 0.931 . S
C239 C236 1.382 . S
C239 C241 1.390 . S
C239 H249 0.931 . S
C240 C236 1.390 . S
C240 C237 1.392 . S
C240 H250 0.930 . S
C241 C238 1.372 . S
C241 C239 1.390 . S
C241 H251 0.929 . S
C242 O222 1.255 . S
C242 O223 1.257 . S
C243 Eu179 2.787 . S
C243 O218 1.252 . S
C243 O221 1.268 . S
C243 C236 1.506 . S
H244 C227 0.931 . S
H245 C228 0.931 . S
H246 C229 0.929 . S
H247 C230 0.930 . S
H248 C238 0.931 . S
H249 C239 0.931 . S
H250 C240 0.930 . S
H251 C241 0.929 . S
Eu252 N281 2.600 . S
Eu252 N287 2.562 . S
Eu252 O296 2.462 . S
Eu252 O297 2.373 . S
Eu252 O299 2.432 . S
Eu252 O300 2.291 . S
Eu252 O304 2.335 . S
Eu252 O307 2.372 . S
Eu252 C316 2.787 . S
C253 N254 1.365 . S
C253 C256 1.405 . S
C253 C260 1.448 . S
N254 C253 1.365 . S
N254 C257 1.319 . S
N254 Eu263 2.600 . S
C255 C257 1.397 . S
C255 C258 1.367 . S
C255 H275 0.931 . S
C256 C253 1.405 . S
C256 C258 1.403 . S
C256 C262 1.439 . S
C257 N254 1.319 . S
C257 C255 1.397 . S
C257 H268 0.930 . S
C258 C255 1.367 . S
C258 C256 1.403 . S
C258 H279 0.929 . S
C259 C260 1.430 . S
C259 C261 1.387 . S
C259 C265 1.404 . S
C260 C253 1.448 . S
C260 C259 1.430 . S
C260 N264 1.351 . S
C261 C259 1.387 . S
C261 C262 1.374 . S
C261 H276 0.931 . S
C262 C256 1.439 . S
C262 C261 1.374 . S
C262 H277 0.931 . S
Eu263 N254 2.600 . S
Eu263 N264 2.562 . S
Eu263 O298 2.335 . S
Eu263 O301 2.372 . S
Eu263 O302 2.462 . S
Eu263 O303 2.373 . S
Eu263 O305 2.432 . S
Eu263 O306 2.291 . S
Eu263 C327 2.787 . S
N264 C260 1.351 . S
N264 Eu263 2.562 . S
N264 C266 1.325 . S
C265 C259 1.404 . S
C265 C267 1.366 . S
C265 H273 0.930 . S
C266 N264 1.325 . S
C266 C267 1.416 . S
C266 H272 0.929 . S
C267 C265 1.366 . S
C267 C266 1.416 . S
C267 H269 0.930 . S
H268 C257 0.930 . S
H269 C267 0.930 . S
H270 C285 0.930 . S
H271 C292 0.930 . S
H272 C266 0.929 . S
H273 C265 0.930 . S
H274 C288 0.929 . S
H275 C255 0.931 . S
H276 C261 0.931 . S
H277 C262 0.931 . S
H278 C283 0.931 . S
H279 C258 0.929 . S
H280 C291 0.930 . S
N281 Eu252 2.600 . S
N281 C282 1.365 . S
N281 C285 1.319 . S
C282 N281 1.365 . S
C282 C284 1.405 . S
C282 C290 1.448 . S
C283 H278 0.931 . S
C283 C285 1.397 . S
C283 C286 1.367 . S
C284 C282 1.405 . S
C284 C286 1.403 . S
C284 C317 1.439 . S
C285 H270 0.930 . S
C285 N281 1.319 . S
C285 C283 1.397 . S
C286 C283 1.367 . S
C286 C284 1.403 . S
C286 H293 0.929 . S
N287 Eu252 2.562 . S
N287 C288 1.325 . S
N287 C290 1.351 . S
C288 H274 0.929 . S
C288 N287 1.325 . S
C288 C292 1.416 . S
C289 C290 1.430 . S
C289 C291 1.404 . S
C289 C318 1.387 . S
C290 C282 1.448 . S
C290 N287 1.351 . S
C290 C289 1.430 . S
C291 H280 0.930 . S
C291 C289 1.404 . S
C291 C292 1.366 . S
C292 H271 0.930 . S
C292 C288 1.416 . S
C292 C291 1.366 . S
H293 C286 0.929 . S
H294 C317 0.931 . S
H295 C318 0.931 . S
O296 Eu252 2.462 . S
O296 C316 1.252 . S
O297 Eu252 2.373 . S
O297 C308 1.249 . S
O298 Eu263 2.335 . S
O298 C308 1.264 . S
O299 Eu252 2.432 . S
O299 C316 1.268 . S
O300 Eu252 2.291 . S
O300 C315 1.255 . S
O301 Eu263 2.372 . S
O301 C315 1.257 . S
O302 Eu263 2.462 . S
O302 C327 1.252 . S
O303 Eu263 2.373 . S
O303 C319 1.249 . S
O304 Eu252 2.335 . S
O304 C319 1.264 . S
O305 Eu263 2.432 . S
O305 C327 1.268 . S
O306 Eu263 2.291 . S
O306 C326 1.255 . S
O307 Eu252 2.372 . S
O307 C326 1.257 . S
C308 O297 1.249 . S
C308 O298 1.264 . S
C309 C312 1.382 . S
C309 C314 1.390 . S
C309 C316 1.506 . S
C310 C311 1.398 . S
C310 C314 1.392 . S
C311 C310 1.398 . S
C311 C313 1.372 . S
C311 H328 0.931 . S
C312 C309 1.382 . S
C312 C313 1.390 . S
C312 H329 0.931 . S
C313 C311 1.372 . S
C313 C312 1.390 . S
C313 H330 0.929 . S
C314 C309 1.390 . S
C314 C310 1.392 . S
C314 H331 0.930 . S
C315 O300 1.255 . S
C315 O301 1.257 . S
C316 Eu252 2.787 . S
C316 O296 1.252 . S
C316 O299 1.268 . S
C316 C309 1.506 . S
C317 C284 1.439 . S
C317 H294 0.931 . S
C317 C318 1.374 . S
C318 C289 1.387 . S
C318 H295 0.931 . S
C318 C317 1.374 . S
C319 O303 1.249 . S
C319 O304 1.264 . S
C320 C323 1.382 . S
C320 C324 1.390 . S
C320 C327 1.506 . S
C321 C322 1.398 . S
C321 C324 1.392 . S
C322 C321 1.398 . S
C322 C325 1.372 . S
C322 H332 0.931 . S
C323 C320 1.382 . S
C323 C325 1.390 . S
C323 H333 0.931 . S
C324 C320 1.390 . S
C324 C321 1.392 . S
C324 H334 0.930 . S
C325 C322 1.372 . S
C325 C323 1.390 . S
C325 H335 0.929 . S
C326 O306 1.255 . S
C326 O307 1.257 . S
C327 Eu263 2.787 . S
C327 O302 1.252 . S
C327 O305 1.268 . S
C327 C320 1.506 . S
H328 C311 0.931 . S
H329 C312 0.931 . S
H330 C313 0.929 . S
H331 C314 0.930 . S
H332 C322 0.931 . S
H333 C323 0.931 . S
H334 C324 0.930 . S
H335 C325 0.929 . S
Eu336 N365 2.600 . S
Eu336 N371 2.562 . S
Eu336 O380 2.462 . S
Eu336 O381 2.373 . S
Eu336 O383 2.432 . S
Eu336 O384 2.291 . S
Eu336 O388 2.335 . S
Eu336 O391 2.372 . S
Eu336 C400 2.787 . S
C337 N338 1.365 . S
C337 C340 1.405 . S
C337 C344 1.448 . S
N338 C337 1.365 . S
N338 C341 1.319 . S
N338 Eu347 2.600 . S
C339 C341 1.397 . S
C339 C342 1.367 . S
C339 H359 0.931 . S
C340 C337 1.405 . S
C340 C342 1.403 . S
C340 C346 1.439 . S
C341 N338 1.319 . S
C341 C339 1.397 . S
C341 H352 0.930 . S
C342 C339 1.367 . S
C342 C340 1.403 . S
C342 H363 0.929 . S
C343 C344 1.430 . S
C343 C345 1.387 . S
C343 C349 1.404 . S
C344 C337 1.448 . S
C344 C343 1.430 . S
C344 N348 1.351 . S
C345 C343 1.387 . S
C345 C346 1.374 . S
C345 H360 0.931 . S
C346 C340 1.439 . S
C346 C345 1.374 . S
C346 H361 0.931 . S
Eu347 N338 2.600 . S
Eu347 N348 2.562 . S
Eu347 O382 2.335 . S
Eu347 O385 2.372 . S
Eu347 O386 2.462 . S
Eu347 O387 2.373 . S
Eu347 O389 2.432 . S
Eu347 O390 2.291 . S
Eu347 C411 2.787 . S
N348 C344 1.351 . S
N348 Eu347 2.562 . S
N348 C350 1.325 . S
C349 C343 1.404 . S
C349 C351 1.366 . S
C349 H357 0.930 . S
C350 N348 1.325 . S
C350 C351 1.416 . S
C350 H356 0.929 . S
C351 C349 1.366 . S
C351 C350 1.416 . S
C351 H353 0.930 . S
H352 C341 0.930 . S
H353 C351 0.930 . S
H354 C369 0.930 . S
H355 C376 0.930 . S
H356 C350 0.929 . S
H357 C349 0.930 . S
H358 C372 0.929 . S
H359 C339 0.931 . S
H360 C345 0.931 . S
H361 C346 0.931 . S
H362 C367 0.931 . S
H363 C342 0.929 . S
H364 C375 0.930 . S
N365 Eu336 2.600 . S
N365 C366 1.365 . S
N365 C369 1.319 . S
C366 N365 1.365 . S
C366 C368 1.405 . S
C366 C374 1.448 . S
C367 H362 0.931 . S
C367 C369 1.397 . S
C367 C370 1.367 . S
C368 C366 1.405 . S
C368 C370 1.403 . S
C368 C401 1.439 . S
C369 H354 0.930 . S
C369 N365 1.319 . S
C369 C367 1.397 . S
C370 C367 1.367 . S
C370 C368 1.403 . S
C370 H377 0.929 . S
N371 Eu336 2.562 . S
N371 C372 1.325 . S
N371 C374 1.351 . S
C372 H358 0.929 . S
C372 N371 1.325 . S
C372 C376 1.416 . S
C373 C374 1.430 . S
C373 C375 1.404 . S
C373 C402 1.387 . S
C374 C366 1.448 . S
C374 N371 1.351 . S
C374 C373 1.430 . S
C375 H364 0.930 . S
C375 C373 1.404 . S
C375 C376 1.366 . S
C376 H355 0.930 . S
C376 C372 1.416 . S
C376 C375 1.366 . S
H377 C370 0.929 . S
H378 C401 0.931 . S
H379 C402 0.931 . S
O380 Eu336 2.462 . S
O380 C400 1.252 . S
O381 Eu336 2.373 . S
O381 C392 1.249 . S
O382 Eu347 2.335 . S
O382 C392 1.264 . S
O383 Eu336 2.432 . S
O383 C400 1.268 . S
O384 Eu336 2.291 . S
O384 C399 1.255 . S
O385 Eu347 2.372 . S
O385 C399 1.257 . S
O386 Eu347 2.462 . S
O386 C411 1.252 . S
O387 Eu347 2.373 . S
O387 C403 1.249 . S
O388 Eu336 2.335 . S
O388 C403 1.264 . S
O389 Eu347 2.432 . S
O389 C411 1.268 . S
O390 Eu347 2.291 . S
O390 C410 1.255 . S
O391 Eu336 2.372 . S
O391 C410 1.257 . S
C392 O381 1.249 . S
C392 O382 1.264 . S
C393 C396 1.382 . S
C393 C398 1.390 . S
C393 C400 1.506 . S
C394 C395 1.398 . S
C394 C398 1.392 . S
C395 C394 1.398 . S
C395 C397 1.372 . S
C395 H412 0.931 . S
C396 C393 1.382 . S
C396 C397 1.390 . S
C396 H413 0.931 . S
C397 C395 1.372 . S
C397 C396 1.390 . S
C397 H414 0.929 . S
C398 C393 1.390 . S
C398 C394 1.392 . S
C398 H415 0.930 . S
C399 O384 1.255 . S
C399 O385 1.257 . S
C400 Eu336 2.787 . S
C400 O380 1.252 . S
C400 O383 1.268 . S
C400 C393 1.506 . S
C401 C368 1.439 . S
C401 H378 0.931 . S
C401 C402 1.374 . S
C402 C373 1.387 . S
C402 H379 0.931 . S
C402 C401 1.374 . S
C403 O387 1.249 . S
C403 O388 1.264 . S
C404 C407 1.382 . S
C404 C408 1.390 . S
C404 C411 1.506 . S
C405 C406 1.398 . S
C405 C408 1.392 . S
C406 C405 1.398 . S
C406 C409 1.372 . S
C406 H416 0.931 . S
C407 C404 1.382 . S
C407 C409 1.390 . S
C407 H417 0.931 . S
C408 C404 1.390 . S
C408 C405 1.392 . S
C408 H418 0.930 . S
C409 C406 1.372 . S
C409 C407 1.390 . S
C409 H419 0.929 . S
C410 O390 1.255 . S
C410 O391 1.257 . S
C411 Eu347 2.787 . S
C411 O386 1.252 . S
C411 O389 1.268 . S
C411 C404 1.506 . S
H412 C395 0.931 . S
H413 C396 0.931 . S
H414 C397 0.929 . S
H415 C398 0.930 . S
H416 C406 0.931 . S
H417 C407 0.931 . S
H418 C408 0.930 . S
H419 C409 0.929 . S
Eu420 N449 2.600 . S
Eu420 N455 2.562 . S
Eu420 O464 2.462 . S
Eu420 O465 2.373 . S
Eu420 O467 2.432 . S
Eu420 O468 2.291 . S
Eu420 O472 2.335 . S
Eu420 O475 2.372 . S
Eu420 C484 2.787 . S
C421 N422 1.365 . S
C421 C424 1.405 . S
C421 C428 1.448 . S
N422 C421 1.365 . S
N422 C425 1.319 . S
N422 Eu431 2.600 . S
C423 C425 1.397 . S
C423 C426 1.367 . S
C423 H443 0.931 . S
C424 C421 1.405 . S
C424 C426 1.403 . S
C424 C430 1.439 . S
C425 N422 1.319 . S
C425 C423 1.397 . S
C425 H436 0.930 . S
C426 C423 1.367 . S
C426 C424 1.403 . S
C426 H447 0.929 . S
C427 C428 1.430 . S
C427 C429 1.387 . S
C427 C433 1.404 . S
C428 C421 1.448 . S
C428 C427 1.430 . S
C428 N432 1.351 . S
C429 C427 1.387 . S
C429 C430 1.374 . S
C429 H444 0.931 . S
C430 C424 1.439 . S
C430 C429 1.374 . S
C430 H445 0.931 . S
Eu431 N422 2.600 . S
Eu431 N432 2.562 . S
Eu431 O466 2.335 . S
Eu431 O469 2.372 . S
Eu431 O470 2.462 . S
Eu431 O471 2.373 . S
Eu431 O473 2.432 . S
Eu431 O474 2.291 . S
Eu431 C495 2.787 . S
N432 C428 1.351 . S
N432 Eu431 2.562 . S
N432 C434 1.325 . S
C433 C427 1.404 . S
C433 C435 1.366 . S
C433 H441 0.930 . S
C434 N432 1.325 . S
C434 C435 1.416 . S
C434 H440 0.929 . S
C435 C433 1.366 . S
C435 C434 1.416 . S
C435 H437 0.930 . S
H436 C425 0.930 . S
H437 C435 0.930 . S
H438 C453 0.930 . S
H439 C460 0.930 . S
H440 C434 0.929 . S
H441 C433 0.930 . S
H442 C456 0.929 . S
H443 C423 0.931 . S
H444 C429 0.931 . S
H445 C430 0.931 . S
H446 C451 0.931 . S
H447 C426 0.929 . S
H448 C459 0.930 . S
N449 Eu420 2.600 . S
N449 C450 1.365 . S
N449 C453 1.319 . S
C450 N449 1.365 . S
C450 C452 1.405 . S
C450 C458 1.448 . S
C451 H446 0.931 . S
C451 C453 1.397 . S
C451 C454 1.367 . S
C452 C450 1.405 . S
C452 C454 1.403 . S
C452 C485 1.439 . S
C453 H438 0.930 . S
C453 N449 1.319 . S
C453 C451 1.397 . S
C454 C451 1.367 . S
C454 C452 1.403 . S
C454 H461 0.929 . S
N455 Eu420 2.562 . S
N455 C456 1.325 . S
N455 C458 1.351 . S
C456 H442 0.929 . S
C456 N455 1.325 . S
C456 C460 1.416 . S
C457 C458 1.430 . S
C457 C459 1.404 . S
C457 C486 1.387 . S
C458 C450 1.448 . S
C458 N455 1.351 . S
C458 C457 1.430 . S
C459 H448 0.930 . S
C459 C457 1.404 . S
C459 C460 1.366 . S
C460 H439 0.930 . S
C460 C456 1.416 . S
C460 C459 1.366 . S
H461 C454 0.929 . S
H462 C485 0.931 . S
H463 C486 0.931 . S
O464 Eu420 2.462 . S
O464 C484 1.252 . S
O465 Eu420 2.373 . S
O465 C476 1.249 . S
O466 Eu431 2.335 . S
O466 C476 1.264 . S
O467 Eu420 2.432 . S
O467 C484 1.268 . S
O468 Eu420 2.291 . S
O468 C483 1.255 . S
O469 Eu431 2.372 . S
O469 C483 1.257 . S
O470 Eu431 2.462 . S
O470 C495 1.252 . S
O471 Eu431 2.373 . S
O471 C487 1.249 . S
O472 Eu420 2.335 . S
O472 C487 1.264 . S
O473 Eu431 2.432 . S
O473 C495 1.268 . S
O474 Eu431 2.291 . S
O474 C494 1.255 . S
O475 Eu420 2.372 . S
O475 C494 1.257 . S
C476 O465 1.249 . S
C476 O466 1.264 . S
C477 C480 1.382 . S
C477 C482 1.390 . S
C477 C484 1.506 . S
C478 C479 1.398 . S
C478 C482 1.392 . S
C479 C478 1.398 . S
C479 C481 1.372 . S
C479 H496 0.931 . S
C480 C477 1.382 . S
C480 C481 1.390 . S
C480 H497 0.931 . S
C481 C479 1.372 . S
C481 C480 1.390 . S
C481 H498 0.929 . S
C482 C477 1.390 . S
C482 C478 1.392 . S
C482 H499 0.930 . S
C483 O468 1.255 . S
C483 O469 1.257 . S
C484 Eu420 2.787 . S
C484 O464 1.252 . S
C484 O467 1.268 . S
C484 C477 1.506 . S
C485 C452 1.439 . S
C485 H462 0.931 . S
C485 C486 1.374 . S
C486 C457 1.387 . S
C486 H463 0.931 . S
C486 C485 1.374 . S
C487 O471 1.249 . S
C487 O472 1.264 . S
C488 C491 1.382 . S
C488 C492 1.390 . S
C488 C495 1.506 . S
C489 C490 1.398 . S
C489 C492 1.392 . S
C490 C489 1.398 . S
C490 C493 1.372 . S
C490 H500 0.931 . S
C491 C488 1.382 . S
C491 C493 1.390 . S
C491 H501 0.931 . S
C492 C488 1.390 . S
C492 C489 1.392 . S
C492 H502 0.930 . S
C493 C490 1.372 . S
C493 C491 1.390 . S
C493 H503 0.929 . S
C494 O474 1.255 . S
C494 O475 1.257 . S
C495 Eu431 2.787 . S
C495 O470 1.252 . S
C495 O473 1.268 . S
C495 C488 1.506 . S
H496 C479 0.931 . S
H497 C480 0.931 . S
H498 C481 0.929 . S
H499 C482 0.930 . S
H500 C490 0.931 . S
H501 C491 0.931 . S
H502 C492 0.930 . S
H503 C493 0.929 . S
Eu504 N533 2.600 . S
Eu504 N539 2.562 . S
Eu504 O548 2.462 . S
Eu504 O549 2.373 . S
Eu504 O551 2.432 . S
Eu504 O552 2.291 . S
Eu504 O556 2.335 . S
Eu504 O559 2.372 . S
Eu504 C568 2.787 . S
C505 N506 1.365 . S
C505 C508 1.405 . S
C505 C512 1.448 . S
N506 C505 1.365 . S
N506 C509 1.319 . S
N506 Eu515 2.600 . S
C507 C509 1.397 . S
C507 C510 1.367 . S
C507 H527 0.931 . S
C508 C505 1.405 . S
C508 C510 1.403 . S
C508 C514 1.439 . S
C509 N506 1.319 . S
C509 C507 1.397 . S
C509 H520 0.930 . S
C510 C507 1.367 . S
C510 C508 1.403 . S
C510 H531 0.929 . S
C511 C512 1.430 . S
C511 C513 1.387 . S
C511 C517 1.404 . S
C512 C505 1.448 . S
C512 C511 1.430 . S
C512 N516 1.351 . S
C513 C511 1.387 . S
C513 C514 1.374 . S
C513 H528 0.931 . S
C514 C508 1.439 . S
C514 C513 1.374 . S
C514 H529 0.931 . S
Eu515 N506 2.600 . S
Eu515 N516 2.562 . S
Eu515 O550 2.335 . S
Eu515 O553 2.372 . S
Eu515 O554 2.462 . S
Eu515 O555 2.373 . S
Eu515 O557 2.432 . S
Eu515 O558 2.291 . S
Eu515 C579 2.787 . S
N516 C512 1.351 . S
N516 Eu515 2.562 . S
N516 C518 1.325 . S
C517 C511 1.404 . S
C517 C519 1.366 . S
C517 H525 0.930 . S
C518 N516 1.325 . S
C518 C519 1.416 . S
C518 H524 0.929 . S
C519 C517 1.366 . S
C519 C518 1.416 . S
C519 H521 0.930 . S
H520 C509 0.930 . S
H521 C519 0.930 . S
H522 C537 0.930 . S
H523 C544 0.930 . S
H524 C518 0.929 . S
H525 C517 0.930 . S
H526 C540 0.929 . S
H527 C507 0.931 . S
H528 C513 0.931 . S
H529 C514 0.931 . S
H530 C535 0.931 . S
H531 C510 0.929 . S
H532 C543 0.930 . S
N533 Eu504 2.600 . S
N533 C534 1.365 . S
N533 C537 1.319 . S
C534 N533 1.365 . S
C534 C536 1.405 . S
C534 C542 1.448 . S
C535 H530 0.931 . S
C535 C537 1.397 . S
C535 C538 1.367 . S
C536 C534 1.405 . S
C536 C538 1.403 . S
C536 C569 1.439 . S
C537 H522 0.930 . S
C537 N533 1.319 . S
C537 C535 1.397 . S
C538 C535 1.367 . S
C538 C536 1.403 . S
C538 H545 0.929 . S
N539 Eu504 2.562 . S
N539 C540 1.325 . S
N539 C542 1.351 . S
C540 H526 0.929 . S
C540 N539 1.325 . S
C540 C544 1.416 . S
C541 C542 1.430 . S
C541 C543 1.404 . S
C541 C570 1.387 . S
C542 C534 1.448 . S
C542 N539 1.351 . S
C542 C541 1.430 . S
C543 H532 0.930 . S
C543 C541 1.404 . S
C543 C544 1.366 . S
C544 H523 0.930 . S
C544 C540 1.416 . S
C544 C543 1.366 . S
H545 C538 0.929 . S
H546 C569 0.931 . S
H547 C570 0.931 . S
O548 Eu504 2.462 . S
O548 C568 1.252 . S
O549 Eu504 2.373 . S
O549 C560 1.249 . S
O550 Eu515 2.335 . S
O550 C560 1.264 . S
O551 Eu504 2.432 . S
O551 C568 1.268 . S
O552 Eu504 2.291 . S
O552 C567 1.255 . S
O553 Eu515 2.372 . S
O553 C567 1.257 . S
O554 Eu515 2.462 . S
O554 C579 1.252 . S
O555 Eu515 2.373 . S
O555 C571 1.249 . S
O556 Eu504 2.335 . S
O556 C571 1.264 . S
O557 Eu515 2.432 . S
O557 C579 1.268 . S
O558 Eu515 2.291 . S
O558 C578 1.255 . S
O559 Eu504 2.372 . S
O559 C578 1.257 . S
C560 O549 1.249 . S
C560 O550 1.264 . S
C561 C564 1.382 . S
C561 C566 1.390 . S
C561 C568 1.506 . S
C562 C563 1.398 . S
C562 C566 1.392 . S
C563 C562 1.398 . S
C563 C565 1.372 . S
C563 H580 0.931 . S
C564 C561 1.382 . S
C564 C565 1.390 . S
C564 H581 0.931 . S
C565 C563 1.372 . S
C565 C564 1.390 . S
C565 H582 0.929 . S
C566 C561 1.390 . S
C566 C562 1.392 . S
C566 H583 0.930 . S
C567 O552 1.255 . S
C567 O553 1.257 . S
C568 Eu504 2.787 . S
C568 O548 1.252 . S
C568 O551 1.268 . S
C568 C561 1.506 . S
C569 C536 1.439 . S
C569 H546 0.931 . S
C569 C570 1.374 . S
C570 C541 1.387 . S
C570 H547 0.931 . S
C570 C569 1.374 . S
C571 O555 1.249 . S
C571 O556 1.264 . S
C572 C575 1.382 . S
C572 C576 1.390 . S
C572 C579 1.506 . S
C573 C574 1.398 . S
C573 C576 1.392 . S
C574 C573 1.398 . S
C574 C577 1.372 . S
C574 H584 0.931 . S
C575 C572 1.382 . S
C575 C577 1.390 . S
C575 H585 0.931 . S
C576 C572 1.390 . S
C576 C573 1.392 . S
C576 H586 0.930 . S
C577 C574 1.372 . S
C577 C575 1.390 . S
C577 H587 0.929 . S
C578 O558 1.255 . S
C578 O559 1.257 . S
C579 Eu515 2.787 . S
C579 O554 1.252 . S
C579 O557 1.268 . S
C579 C572 1.506 . S
H580 C563 0.931 . S
H581 C564 0.931 . S
H582 C565 0.929 . S
H583 C566 0.930 . S
H584 C574 0.931 . S
H585 C575 0.931 . S
H586 C576 0.930 . S
H587 C577 0.929 . S
Eu588 N617 2.600 . S
Eu588 N623 2.562 . S
Eu588 O632 2.462 . S
Eu588 O633 2.373 . S
Eu588 O635 2.432 . S
Eu588 O636 2.291 . S
Eu588 O640 2.335 . S
Eu588 O643 2.372 . S
Eu588 C652 2.787 . S
C589 N590 1.365 . S
C589 C592 1.405 . S
C589 C596 1.448 . S
N590 C589 1.365 . S
N590 C593 1.319 . S
N590 Eu599 2.600 . S
C591 C593 1.397 . S
C591 C594 1.367 . S
C591 H611 0.931 . S
C592 C589 1.405 . S
C592 C594 1.403 . S
C592 C598 1.439 . S
C593 N590 1.319 . S
C593 C591 1.397 . S
C593 H604 0.930 . S
C594 C591 1.367 . S
C594 C592 1.403 . S
C594 H615 0.929 . S
C595 C596 1.430 . S
C595 C597 1.387 . S
C595 C601 1.404 . S
C596 C589 1.448 . S
C596 C595 1.430 . S
C596 N600 1.351 . S
C597 C595 1.387 . S
C597 C598 1.374 . S
C597 H612 0.931 . S
C598 C592 1.439 . S
C598 C597 1.374 . S
C598 H613 0.931 . S
Eu599 N590 2.600 . S
Eu599 N600 2.562 . S
Eu599 O634 2.335 . S
Eu599 O637 2.372 . S
Eu599 O638 2.462 . S
Eu599 O639 2.373 . S
Eu599 O641 2.432 . S
Eu599 O642 2.291 . S
Eu599 C663 2.787 . S
N600 C596 1.351 . S
N600 Eu599 2.562 . S
N600 C602 1.325 . S
C601 C595 1.404 . S
C601 C603 1.366 . S
C601 H609 0.930 . S
C602 N600 1.325 . S
C602 C603 1.416 . S
C602 H608 0.929 . S
C603 C601 1.366 . S
C603 C602 1.416 . S
C603 H605 0.930 . S
H604 C593 0.930 . S
H605 C603 0.930 . S
H606 C621 0.930 . S
H607 C628 0.930 . S
H608 C602 0.929 . S
H609 C601 0.930 . S
H610 C624 0.929 . S
H611 C591 0.931 . S
H612 C597 0.931 . S
H613 C598 0.931 . S
H614 C619 0.931 . S
H615 C594 0.929 . S
H616 C627 0.930 . S
N617 Eu588 2.600 . S
N617 C618 1.365 . S
N617 C621 1.319 . S
C618 N617 1.365 . S
C618 C620 1.405 . S
C618 C626 1.448 . S
C619 H614 0.931 . S
C619 C621 1.397 . S
C619 C622 1.367 . S
C620 C618 1.405 . S
C620 C622 1.403 . S
C620 C653 1.439 . S
C621 H606 0.930 . S
C621 N617 1.319 . S
C621 C619 1.397 . S
C622 C619 1.367 . S
C622 C620 1.403 . S
C622 H629 0.929 . S
N623 Eu588 2.562 . S
N623 C624 1.325 . S
N623 C626 1.351 . S
C624 H610 0.929 . S
C624 N623 1.325 . S
C624 C628 1.416 . S
C625 C626 1.430 . S
C625 C627 1.404 . S
C625 C654 1.387 . S
C626 C618 1.448 . S
C626 N623 1.351 . S
C626 C625 1.430 . S
C627 H616 0.930 . S
C627 C625 1.404 . S
C627 C628 1.366 . S
C628 H607 0.930 . S
C628 C624 1.416 . S
C628 C627 1.366 . S
H629 C622 0.929 . S
H630 C653 0.931 . S
H631 C654 0.931 . S
O632 Eu588 2.462 . S
O632 C652 1.252 . S
O633 Eu588 2.373 . S
O633 C644 1.249 . S
O634 Eu599 2.335 . S
O634 C644 1.264 . S
O635 Eu588 2.432 . S
O635 C652 1.268 . S
O636 Eu588 2.291 . S
O636 C651 1.255 . S
O637 Eu599 2.372 . S
O637 C651 1.257 . S
O638 Eu599 2.462 . S
O638 C663 1.252 . S
O639 Eu599 2.373 . S
O639 C655 1.249 . S
O640 Eu588 2.335 . S
O640 C655 1.264 . S
O641 Eu599 2.432 . S
O641 C663 1.268 . S
O642 Eu599 2.291 . S
O642 C662 1.255 . S
O643 Eu588 2.372 . S
O643 C662 1.257 . S
C644 O633 1.249 . S
C644 O634 1.264 . S
C645 C648 1.382 . S
C645 C650 1.390 . S
C645 C652 1.506 . S
C646 C647 1.398 . S
C646 C650 1.392 . S
C647 C646 1.398 . S
C647 C649 1.372 . S
C647 H664 0.931 . S
C648 C645 1.382 . S
C648 C649 1.390 . S
C648 H665 0.931 . S
C649 C647 1.372 . S
C649 C648 1.390 . S
C649 H666 0.929 . S
C650 C645 1.390 . S
C650 C646 1.392 . S
C650 H667 0.930 . S
C651 O636 1.255 . S
C651 O637 1.257 . S
C652 Eu588 2.787 . S
C652 O632 1.252 . S
C652 O635 1.268 . S
C652 C645 1.506 . S
C653 C620 1.439 . S
C653 H630 0.931 . S
C653 C654 1.374 . S
C654 C625 1.387 . S
C654 H631 0.931 . S
C654 C653 1.374 . S
C655 O639 1.249 . S
C655 O640 1.264 . S
C656 C659 1.382 . S
C656 C660 1.390 . S
C656 C663 1.506 . S
C657 C658 1.398 . S
C657 C660 1.392 . S
C658 C657 1.398 . S
C658 C661 1.372 . S
C658 H668 0.931 . S
C659 C656 1.382 . S
C659 C661 1.390 . S
C659 H669 0.931 . S
C660 C656 1.390 . S
C660 C657 1.392 . S
C660 H670 0.930 . S
C661 C658 1.372 . S
C661 C659 1.390 . S
C661 H671 0.929 . S
C662 O642 1.255 . S
C662 O643 1.257 . S
C663 Eu599 2.787 . S
C663 O638 1.252 . S
C663 O641 1.268 . S
C663 C656 1.506 . S
H664 C647 0.931 . S
H665 C648 0.931 . S
H666 C649 0.929 . S
H667 C650 0.930 . S
H668 C658 0.931 . S
H669 C659 0.931 . S
H670 C660 0.930 . S
H671 C661 0.929 . S
C672 O684 1.241 . S
C672 O685 1.280 . S
C673 O686 1.277 . S
C673 O687 1.245 . S
C674 O698 1.247 . S
C674 O700 1.289 . S
Mg675 O676 1.926 . S
Mg675 O685 1.984 . S
Mg675 O687 1.988 . S
Mg675 O688 2.061 1_655 S
O676 Mg675 1.926 . S
O676 Mg677 1.986 1_545 S
O676 Mg678 1.903 1_655 S
Mg677 O676 1.986 1_565 S
Mg677 O684 2.042 1_565 S
Mg677 O686 2.041 1_565 S
Mg677 O692 2.038 . S
Mg677 O700 2.238 . S
Mg678 O676 1.903 1_455 S
Mg678 O679 1.931 1_545 S
Mg678 O689 2.123 . S
Mg678 O691 2.074 1_445 S
Mg678 O700 2.090 1_445 S
Mg678 O701 2.084 . S
O679 Mg678 1.931 1_565 S
O679 Mg680 1.926 . S
O679 Mg681 1.986 1_565 S
Mg680 O679 1.926 . S
Mg680 O694 1.984 . S
Mg680 O697 1.988 . S
Mg680 O698 2.061 1_455 S
Mg681 O679 1.986 1_545 S
Mg681 O689 2.238 . S
Mg681 O693 2.042 1_545 S
Mg681 O695 2.041 1_545 S
Mg681 O702 2.038 . S
C682 O688 1.247 . S
C682 O689 1.289 . S
C683 O701 1.245 . S
C683 O702 1.274 . S
O684 C672 1.241 . S
O684 Mg677 2.042 1_545 S
O685 C672 1.280 . S
O685 Mg675 1.984 . S
O686 C673 1.277 . S
O686 Mg677 2.041 1_545 S
O687 C673 1.245 . S
O687 Mg675 1.988 . S
O688 Mg675 2.061 1_455 S
O688 C682 1.247 . S
O689 Mg678 2.123 . S
O689 Mg681 2.238 . S
O689 C682 1.289 . S
C690 O691 1.245 . S
C690 O692 1.274 . S
O691 Mg678 2.074 1_665 S
O691 C690 1.245 . S
O692 Mg677 2.038 . S
O692 C690 1.274 . S
O693 Mg681 2.042 1_565 S
O693 C696 1.241 . S
O694 Mg680 1.984 . S
O694 C696 1.280 . S
O695 Mg681 2.041 1_565 S
O695 C699 1.277 . S
C696 O693 1.241 . S
C696 O694 1.280 . S
O697 Mg680 1.988 . S
O697 C699 1.245 . S
O698 C674 1.247 . S
O698 Mg680 2.061 1_655 S
C699 O695 1.277 . S
C699 O697 1.245 . S
O700 C674 1.289 . S
O700 Mg677 2.238 . S
O700 Mg678 2.090 1_665 S
O701 Mg678 2.084 . S
O701 C683 1.245 . S
O702 Mg681 2.038 . S
O702 C683 1.274 . S
C703 O715 1.241 . S
C703 O716 1.280 . S
C704 O717 1.277 . S
C704 O718 1.245 . S
C705 O729 1.247 . S
C705 O731 1.289 . S
Mg706 O707 1.926 . S
Mg706 O716 1.984 . S
Mg706 O718 1.988 1_554 S
Mg706 O719 2.061 . S
O707 Mg706 1.926 . S
O707 Mg708 1.986 1_545 S
O707 Mg709 1.924 . S
Mg708 O707 1.986 1_565 S
Mg708 O715 2.042 1_565 S
Mg708 O717 2.041 1_564 S
Mg708 O723 2.038 . S
Mg708 O731 2.238 1_554 S
Mg709 O707 1.924 . S
Mg709 O710 1.910 1_544 S
Mg709 O720 2.113 . S
Mg709 O722 2.085 1_545 S
Mg709 O731 2.100 1_544 S
Mg709 O732 2.072 1_554 S
O710 Mg709 1.910 1_566 S
O710 Mg711 1.926 . S
O710 Mg712 1.986 1_565 S
Mg711 O710 1.926 . S
Mg711 O725 1.984 . S
Mg711 O728 1.988 1_556 S
Mg711 O729 2.061 . S
Mg712 O710 1.986 1_545 S
Mg712 O720 2.238 1_556 S
Mg712 O724 2.042 1_545 S
Mg712 O726 2.041 1_546 S
Mg712 O733 2.038 . S
C713 O719 1.247 . S
C713 O720 1.289 . S
C714 O732 1.245 . S
C714 O733 1.274 . S
O715 C703 1.241 . S
O715 Mg708 2.042 1_545 S
O716 C703 1.280 . S
O716 Mg706 1.984 . S
O717 C704 1.277 . S
O717 Mg708 2.041 1_546 S
O718 C704 1.245 . S
O718 Mg706 1.988 1_556 S
O719 Mg706 2.061 . S
O719 C713 1.247 . S
O720 Mg709 2.113 . S
O720 Mg712 2.238 1_554 S
O720 C713 1.289 . S
C721 O722 1.245 . S
C721 O723 1.274 . S
O722 Mg709 2.085 1_565 S
O722 C721 1.245 . S
O723 Mg708 2.038 . S
O723 C721 1.274 . S
O724 Mg712 2.042 1_565 S
O724 C727 1.241 . S
O725 Mg711 1.984 . S
O725 C727 1.280 . S
O726 Mg712 2.041 1_564 S
O726 C730 1.277 . S
C727 O724 1.241 . S
C727 O725 1.280 . S
O728 Mg711 1.988 1_554 S
O728 C730 1.245 . S
O729 C705 1.247 . S
O729 Mg711 2.061 . S
C730 O726 1.277 . S
C730 O728 1.245 . S
O731 C705 1.289 . S
O731 Mg708 2.238 1_556 S
O731 Mg709 2.100 1_566 S
O732 Mg709 2.072 1_556 S
O732 C714 1.245 . S
O733 Mg712 2.038 . S
O733 C714 1.274 . S
C734 O746 1.241 . S
C734 O747 1.280 . S
C735 O748 1.277 . S
C735 O749 1.245 . S
C736 O760 1.247 . S
C736 O762 1.289 . S
Mg737 O738 1.926 . S
Mg737 O747 1.984 . S
Mg737 O749 1.988 1_554 S
Mg737 O750 2.061 1_655 S
O738 Mg737 1.926 . S
O738 Mg739 1.986 . S
O738 Mg740 1.901 1_655 S
Mg739 O738 1.986 . S
Mg739 O746 2.042 . S
Mg739 O748 2.041 1_554 S
Mg739 O754 2.038 . S
Mg739 O762 2.238 1_554 S
Mg740 O738 1.901 1_455 S
Mg740 O741 1.933 1_554 S
Mg740 O751 2.129 . S
Mg740 O753 2.086 1_455 S
Mg740 O762 2.084 1_454 S
Mg740 O763 2.072 1_554 S
O741 Mg740 1.933 1_556 S
O741 Mg742 1.926 . S
O741 Mg743 1.986 . S
Mg742 O741 1.926 . S
Mg742 O756 1.984 . S
Mg742 O759 1.988 1_556 S
Mg742 O760 2.061 1_455 S
Mg743 O741 1.986 . S
Mg743 O751 2.238 1_556 S
Mg743 O755 2.042 . S
Mg743 O757 2.041 1_556 S
Mg743 O764 2.038 . S
C744 O750 1.247 . S
C744 O751 1.289 . S
C745 O763 1.245 . S
C745 O764 1.274 . S
O746 C734 1.241 . S
O746 Mg739 2.042 . S
O747 C734 1.280 . S
O747 Mg737 1.984 . S
O748 C735 1.277 . S
O748 Mg739 2.041 1_556 S
O749 C735 1.245 . S
O749 Mg737 1.988 1_556 S
O750 Mg737 2.061 1_455 S
O750 C744 1.247 . S
O751 Mg740 2.129 . S
O751 Mg743 2.238 1_554 S
O751 C744 1.289 . S
C752 O753 1.245 . S
C752 O754 1.274 . S
O753 Mg740 2.086 1_655 S
O753 C752 1.245 . S
O754 Mg739 2.038 . S
O754 C752 1.274 . S
O755 Mg743 2.042 . S
O755 C758 1.241 . S
O756 Mg742 1.984 . S
O756 C758 1.280 . S
O757 Mg743 2.041 1_554 S
O757 C761 1.277 . S
C758 O755 1.241 . S
C758 O756 1.280 . S
O759 Mg742 1.988 1_554 S
O759 C761 1.245 . S
O760 C736 1.247 . S
O760 Mg742 2.061 1_655 S
C761 O757 1.277 . S
C761 O759 1.245 . S
O762 C736 1.289 . S
O762 Mg739 2.238 1_556 S
O762 Mg740 2.084 1_656 S
O763 Mg740 2.072 1_556 S
O763 C745 1.245 . S
O764 Mg743 2.038 . S
O764 C745 1.274 . S
C765 O777 1.241 . S
C765 O778 1.280 . S
C766 O779 1.277 . S
C766 O780 1.245 . S
C767 O791 1.247 . S
C767 O793 1.289 . S
Mg768 O769 1.926 . S
Mg768 O778 1.984 . S
Mg768 O780 1.988 1_554 S
Mg768 O781 2.061 . S
O769 Mg768 1.926 . S
O769 Mg770 1.986 . S
O769 Mg771 1.919 . S
Mg770 O769 1.986 . S
Mg770 O777 2.042 . S
Mg770 O779 2.041 1_554 S
Mg770 O785 2.038 . S
Mg770 O793 2.238 1_554 S
Mg771 O769 1.919 . S
Mg771 O772 1.915 1_554 S
Mg771 O782 2.113 . S
Mg771 O784 2.088 . S
Mg771 O793 2.100 1_554 S
Mg771 O794 2.069 1_554 S
O772 Mg771 1.915 1_556 S
O772 Mg773 1.926 . S
O772 Mg774 1.986 . S
Mg773 O772 1.926 . S
Mg773 O787 1.984 . S
Mg773 O790 1.988 1_556 S
Mg773 O791 2.061 . S
Mg774 O772 1.986 . S
Mg774 O782 2.238 1_556 S
Mg774 O786 2.042 . S
Mg774 O788 2.041 1_556 S
Mg774 O795 2.038 . S
C775 O781 1.247 . S
C775 O782 1.289 . S
C776 O794 1.245 . S
C776 O795 1.274 . S
O777 C765 1.241 . S
O777 Mg770 2.042 . S
O778 C765 1.280 . S
O778 Mg768 1.984 . S
O779 C766 1.277 . S
O779 Mg770 2.041 1_556 S
O780 C766 1.245 . S
O780 Mg768 1.988 1_556 S
O781 Mg768 2.061 . S
O781 C775 1.247 . S
O782 Mg771 2.113 . S
O782 Mg774 2.238 1_554 S
O782 C775 1.289 . S
C783 O784 1.245 . S
C783 O785 1.274 . S
O784 Mg771 2.088 . S
O784 C783 1.245 . S
O785 Mg770 2.038 . S
O785 C783 1.274 . S
O786 Mg774 2.042 . S
O786 C789 1.241 . S
O787 Mg773 1.984 . S
O787 C789 1.280 . S
O788 Mg774 2.041 1_554 S
O788 C792 1.277 . S
C789 O786 1.241 . S
C789 O787 1.280 . S
O790 Mg773 1.988 1_554 S
O790 C792 1.245 . S
O791 C767 1.247 . S
O791 Mg773 2.061 . S
C792 O788 1.277 . S
C792 O790 1.245 . S
O793 C767 1.289 . S
O793 Mg770 2.238 1_556 S
O793 Mg771 2.100 1_556 S
O794 Mg771 2.069 1_556 S
O794 C776 1.245 . S
O795 Mg774 2.038 . S
O795 C776 1.274 . S
C796 O808 1.241 . S
C796 O809 1.280 . S
C797 O810 1.277 . S
C797 O811 1.245 . S
C798 O822 1.247 . S
C798 O824 1.289 . S
Mg799 O800 1.926 . S
Mg799 O809 1.984 . S
Mg799 O811 1.988 . S
Mg799 O812 2.061 1_655 S
O800 Mg799 1.926 . S
O800 Mg801 1.986 . S
O800 Mg802 1.899 1_655 S
Mg801 O800 1.986 . S
Mg801 O808 2.042 . S
Mg801 O810 2.041 . S
Mg801 O816 2.038 . S
Mg801 O824 2.238 . S
Mg802 O800 1.899 1_455 S
Mg802 O803 1.935 . S
Mg802 O813 2.123 . S
Mg802 O815 2.076 1_455 S
Mg802 O824 2.090 1_455 S
Mg802 O825 2.081 . S
O803 Mg802 1.935 . S
O803 Mg804 1.926 . S
O803 Mg805 1.986 . S
Mg804 O803 1.926 . S
Mg804 O818 1.984 . S
Mg804 O821 1.988 . S
Mg804 O822 2.061 1_455 S
Mg805 O803 1.986 . S
Mg805 O813 2.238 . S
Mg805 O817 2.042 . S
Mg805 O819 2.041 . S
Mg805 O826 2.038 . S
C806 O812 1.247 . S
C806 O813 1.289 . S
C807 O825 1.245 . S
C807 O826 1.274 . S
O808 C796 1.241 . S
O808 Mg801 2.042 . S
O809 C796 1.280 . S
O809 Mg799 1.984 . S
O810 C797 1.277 . S
O810 Mg801 2.041 . S
O811 C797 1.245 . S
O811 Mg799 1.988 . S
O812 Mg799 2.061 1_455 S
O812 C806 1.247 . S
O813 Mg802 2.123 . S
O813 Mg805 2.238 . S
O813 C806 1.289 . S
C814 O815 1.245 . S
C814 O816 1.274 . S
O815 Mg802 2.076 1_655 S
O815 C814 1.245 . S
O816 Mg801 2.038 . S
O816 C814 1.274 . S
O817 Mg805 2.042 . S
O817 C820 1.241 . S
O818 Mg804 1.984 . S
O818 C820 1.280 . S
O819 Mg805 2.041 . S
O819 C823 1.277 . S
C820 O817 1.241 . S
C820 O818 1.280 . S
O821 Mg804 1.988 . S
O821 C823 1.245 . S
O822 C798 1.247 . S
O822 Mg804 2.061 1_655 S
C823 O819 1.277 . S
C823 O821 1.245 . S
O824 C798 1.289 . S
O824 Mg801 2.238 . S
O824 Mg802 2.090 1_655 S
O825 Mg802 2.081 . S
O825 C807 1.245 . S
O826 Mg805 2.038 . S
O826 C807 1.274 . S
C827 O839 1.241 . S
C827 O840 1.280 . S
C828 O841 1.277 . S
C828 O842 1.245 . S
C829 O853 1.247 . S
C829 O855 1.289 . S
Mg830 O831 1.926 . S
Mg830 O840 1.984 . S
Mg830 O842 1.988 . S
Mg830 O843 2.061 . S
O831 Mg830 1.926 . S
O831 Mg832 1.986 1_545 S
O831 Mg833 1.922 . S
Mg832 O831 1.986 1_565 S
Mg832 O839 2.042 1_565 S
Mg832 O841 2.041 1_565 S
Mg832 O847 2.038 . S
Mg832 O855 2.238 . S
Mg833 O831 1.922 . S
Mg833 O834 1.912 1_545 S
Mg833 O844 2.107 . S
Mg833 O846 2.076 1_545 S
Mg833 O855 2.106 1_545 S
Mg833 O856 2.082 . S
O834 Mg833 1.912 1_565 S
O834 Mg835 1.926 . S
O834 Mg836 1.986 1_565 S
Mg835 O834 1.926 . S
Mg835 O849 1.984 . S
Mg835 O852 1.988 . S
Mg835 O853 2.061 . S
Mg836 O834 1.986 1_545 S
Mg836 O844 2.238 . S
Mg836 O848 2.042 1_545 S
Mg836 O850 2.041 1_545 S
Mg836 O857 2.038 . S
C837 O843 1.247 . S
C837 O844 1.289 . S
C838 O856 1.245 . S
C838 O857 1.274 . S
O839 C827 1.241 . S
O839 Mg832 2.042 1_545 S
O840 C827 1.280 . S
O840 Mg830 1.984 . S
O841 C828 1.277 . S
O841 Mg832 2.041 1_545 S
O842 C828 1.245 . S
O842 Mg830 1.988 . S
O843 Mg830 2.061 . S
O843 C837 1.247 . S
O844 Mg833 2.107 . S
O844 Mg836 2.238 . S
O844 C837 1.289 . S
C845 O846 1.245 . S
C845 O847 1.274 . S
O846 Mg833 2.076 1_565 S
O846 C845 1.245 . S
O847 Mg832 2.038 . S
O847 C845 1.274 . S
O848 Mg836 2.042 1_565 S
O848 C851 1.241 . S
O849 Mg835 1.984 . S
O849 C851 1.280 . S
O850 Mg836 2.041 1_565 S
O850 C854 1.277 . S
C851 O848 1.241 . S
C851 O849 1.280 . S
O852 Mg835 1.988 . S
O852 C854 1.245 . S
O853 C829 1.247 . S
O853 Mg835 2.061 . S
C854 O850 1.277 . S
C854 O852 1.245 . S
O855 C829 1.289 . S
O855 Mg832 2.238 . S
O855 Mg833 2.106 1_565 S
O856 Mg833 2.082 . S
O856 C838 1.245 . S
O857 Mg836 2.038 . S
O857 C838 1.274 . S
H858 C864 0.930 . S
H859 C867 0.930 . S
H860 C868 0.930 . S
H861 C869 0.930 . S
H862 C872 0.930 . S
H863 C873 0.930 . S
C864 H858 0.930 . S
C864 C865 1.355 . S
C864 C866 1.415 . S
C865 C864 1.355 . S
C865 C867 1.419 . S
C866 C864 1.415 . S
C866 C871 1.425 . S
C866 C873 1.409 . S
C867 H859 0.930 . S
C867 C865 1.419 . S
C867 C868 1.362 . S
C868 H860 0.930 . S
C868 C867 1.362 . S
C868 C871 1.409 . S
C869 H861 0.930 . S
C869 C870 1.355 . S
C869 C871 1.415 . S
C870 C869 1.355 . S
C870 C872 1.419 . S
C871 C866 1.425 . S
C871 C868 1.409 . S
C871 C869 1.415 . S
C872 H862 0.930 . S
C872 C870 1.419 . S
C872 C873 1.362 . S
C873 H863 0.930 . S
C873 C866 1.409 . S
C873 C872 1.362 . S
H874 C880 0.930 . S
H875 C883 0.930 . S
H876 C884 0.930 . S
H877 C885 0.930 . S
H878 C888 0.930 . S
H879 C889 0.930 . S
C880 H874 0.930 . S
C880 C881 1.355 . S
C880 C882 1.415 . S
C881 C880 1.355 . S
C881 C883 1.419 . S
C882 C880 1.415 . S
C882 C887 1.425 . S
C882 C889 1.409 . S
C883 H875 0.930 . S
C883 C881 1.419 . S
C883 C884 1.362 . S
C884 H876 0.930 . S
C884 C883 1.362 . S
C884 C887 1.409 . S
C885 H877 0.930 . S
C885 C886 1.355 . S
C885 C887 1.415 . S
C886 C885 1.355 . S
C886 C888 1.419 . S
C887 C882 1.425 . S
C887 C884 1.409 . S
C887 C885 1.415 . S
C888 H878 0.930 . S
C888 C886 1.419 . S
C888 C889 1.362 . S
C889 H879 0.930 . S
C889 C882 1.409 . S
C889 C888 1.362 . S
H890 C896 0.930 . S
H891 C899 0.930 . S
H892 C900 0.930 . S
H893 C901 0.930 . S
H894 C904 0.930 . S
H895 C905 0.930 . S
C896 H890 0.930 . S
C896 C897 1.355 . S
C896 C898 1.415 . S
C897 C896 1.355 . S
C897 C899 1.419 . S
C898 C896 1.415 . S
C898 C903 1.425 . S
C898 C905 1.409 . S
C899 H891 0.930 . S
C899 C897 1.419 . S
C899 C900 1.362 . S
C900 H892 0.930 . S
C900 C899 1.362 . S
C900 C903 1.409 . S
C901 H893 0.930 . S
C901 C902 1.355 . S
C901 C903 1.415 . S
C902 C901 1.355 . S
C902 C904 1.419 . S
C903 C898 1.425 . S
C903 C900 1.409 . S
C903 C901 1.415 . S
C904 H894 0.930 . S
C904 C902 1.419 . S
C904 C905 1.362 . S
C905 H895 0.930 . S
C905 C898 1.409 . S
C905 C904 1.362 . S
H906 C912 0.930 . S
H907 C915 0.930 . S
H908 C916 0.930 . S
H909 C917 0.930 . S
H910 C920 0.930 . S
H911 C921 0.930 . S
C912 H906 0.930 . S
C912 C913 1.355 . S
C912 C914 1.415 . S
C913 C912 1.355 . S
C913 C915 1.419 . S
C914 C912 1.415 . S
C914 C919 1.425 . S
C914 C921 1.409 . S
C915 H907 0.930 . S
C915 C913 1.419 . S
C915 C916 1.362 . S
C916 H908 0.930 . S
C916 C915 1.362 . S
C916 C919 1.409 . S
C917 H909 0.930 . S
C917 C918 1.355 . S
C917 C919 1.415 . S
C918 C917 1.355 . S
C918 C920 1.419 . S
C919 C914 1.425 . S
C919 C916 1.409 . S
C919 C917 1.415 . S
C920 H910 0.930 . S
C920 C918 1.419 . S
C920 C921 1.362 . S
C921 H911 0.930 . S
C921 C914 1.409 . S
C921 C920 1.362 . S
H922 C928 0.930 . S
H923 C931 0.930 . S
H924 C932 0.930 . S
H925 C933 0.930 . S
H926 C936 0.930 . S
H927 C937 0.930 . S
C928 H922 0.930 . S
C928 C929 1.355 . S
C928 C930 1.415 . S
C929 C928 1.355 . S
C929 C931 1.419 . S
C930 C928 1.415 . S
C930 C935 1.425 . S
C930 C937 1.409 . S
C931 H923 0.930 . S
C931 C929 1.419 . S
C931 C932 1.362 . S
C932 H924 0.930 . S
C932 C931 1.362 . S
C932 C935 1.409 . S
C933 H925 0.930 . S
C933 C934 1.355 . S
C933 C935 1.415 . S
C934 C933 1.355 . S
C934 C936 1.419 . S
C935 C930 1.425 . S
C935 C932 1.409 . S
C935 C933 1.415 . S
C936 H926 0.930 . S
C936 C934 1.419 . S
C936 C937 1.362 . S
C937 H927 0.930 . S
C937 C930 1.409 . S
C937 C936 1.362 . S
H938 C944 0.930 . S
H939 C947 0.930 . S
H940 C948 0.930 . S
H941 C949 0.930 . S
H942 C952 0.930 . S
H943 C953 0.930 . S
C944 H938 0.930 . S
C944 C945 1.355 . S
C944 C946 1.415 . S
C945 C944 1.355 . S
C945 C947 1.419 . S
C946 C944 1.415 . S
C946 C951 1.425 . S
C946 C953 1.409 . S
C947 H939 0.930 . S
C947 C945 1.419 . S
C947 C948 1.362 . S
C948 H940 0.930 . S
C948 C947 1.362 . S
C948 C951 1.409 . S
C949 H941 0.930 . S
C949 C950 1.355 . S
C949 C951 1.415 . S
C950 C949 1.355 . S
C950 C952 1.419 . S
C951 C946 1.425 . S
C951 C948 1.409 . S
C951 C949 1.415 . S
C952 H942 0.930 . S
C952 C950 1.419 . S
C952 C953 1.362 . S
C953 H943 0.930 . S
C953 C946 1.409 . S
C953 C952 1.362 . S
H954 C960 0.930 . S
H955 C963 0.930 . S
H956 C964 0.930 . S
H957 C965 0.930 . S
H958 C968 0.930 1_565 S
H959 C969 0.930 . S
C960 H954 0.930 . S
C960 C961 1.355 . S
C960 C962 1.415 . S
C961 C960 1.355 . S
C961 C963 1.419 . S
C962 C960 1.415 . S
C962 C967 1.425 . S
C962 C969 1.409 . S
C963 H955 0.930 . S
C963 C961 1.419 . S
C963 C964 1.362 . S
C964 H956 0.930 . S
C964 C963 1.362 . S
C964 C967 1.409 . S
C965 H957 0.930 . S
C965 C966 1.355 . S
C965 C967 1.415 . S
C966 C965 1.355 . S
C966 C968 1.419 . S
C967 C962 1.425 . S
C967 C964 1.409 . S
C967 C965 1.415 . S
C968 H958 0.930 1_545 S
C968 C966 1.419 . S
C968 C969 1.362 . S
C969 H959 0.930 . S
C969 C962 1.409 . S
C969 C968 1.362 . S
H970 C976 0.930 . S
H971 C979 0.930 . S
H972 C980 0.930 . S
H973 C981 0.930 . S
H974 C984 0.930 . S
H975 C985 0.930 . S
C976 H970 0.930 . S
C976 C977 1.355 . S
C976 C978 1.415 . S
C977 C976 1.355 . S
C977 C979 1.419 . S
C978 C976 1.415 . S
C978 C983 1.425 . S
C978 C985 1.409 . S
C979 H971 0.930 . S
C979 C977 1.419 . S
C979 C980 1.362 . S
C980 H972 0.930 . S
C980 C979 1.362 . S
C980 C983 1.409 . S
C981 H973 0.930 . S
C981 C982 1.355 . S
C981 C983 1.415 . S
C982 C981 1.355 . S
C982 C984 1.419 . S
C983 C978 1.425 . S
C983 C980 1.409 . S
C983 C981 1.415 . S
C984 H974 0.930 . S
C984 C982 1.419 . S
C984 C985 1.362 . S
C985 H975 0.930 . S
C985 C978 1.409 . S
C985 C984 1.362 . S
H986 C992 0.930 . S
H987 C995 0.930 . S
H988 C996 0.930 . S
H989 C997 0.930 . S
H990 C1000 0.930 . S
H991 C1001 0.930 . S
C992 H986 0.930 . S
C992 C993 1.355 . S
C992 C994 1.415 . S
C993 C992 1.355 . S
C993 C995 1.419 . S
C994 C992 1.415 . S
C994 C999 1.425 . S
C994 C1001 1.409 . S
C995 H987 0.930 . S
C995 C993 1.419 . S
C995 C996 1.362 . S
C996 H988 0.930 . S
C996 C995 1.362 . S
C996 C999 1.409 . S
C997 H989 0.930 . S
C997 C998 1.355 . S
C997 C999 1.415 . S
C998 C997 1.355 . S
C998 C1000 1.419 . S
C999 C994 1.425 . S
C999 C996 1.409 . S
C999 C997 1.415 . S
C1000 H990 0.930 . S
C1000 C998 1.419 . S
C1000 C1001 1.362 . S
C1001 H991 0.930 . S
C1001 C994 1.409 . S
C1001 C1000 1.362 . S
H1002 C1008 0.930 . S
H1003 C1011 0.930 . S
H1004 C1012 0.930 . S
H1005 C1013 0.930 . S
H1006 C1016 0.930 . S
H1007 C1017 0.930 . S
C1008 H1002 0.930 . S
C1008 C1009 1.355 . S
C1008 C1010 1.415 . S
C1009 C1008 1.355 . S
C1009 C1011 1.419 . S
C1010 C1008 1.415 . S
C1010 C1015 1.425 . S
C1010 C1017 1.409 . S
C1011 H1003 0.930 . S
C1011 C1009 1.419 . S
C1011 C1012 1.362 . S
C1012 H1004 0.930 . S
C1012 C1011 1.362 . S
C1012 C1015 1.409 . S
C1013 H1005 0.930 . S
C1013 C1014 1.355 . S
C1013 C1015 1.415 . S
C1014 C1013 1.355 . S
C1014 C1016 1.419 . S
C1015 C1010 1.425 . S
C1015 C1012 1.409 . S
C1015 C1013 1.415 . S
C1016 H1006 0.930 . S
C1016 C1014 1.419 . S
C1016 C1017 1.362 . S
C1017 H1007 0.930 . S
C1017 C1010 1.409 . S
C1017 C1016 1.362 . S
H1018 C1024 0.930 . S
H1019 C1027 0.930 . S
H1020 C1028 0.930 . S
H1021 C1029 0.930 . S
H1022 C1032 0.930 . S
H1023 C1033 0.930 . S
C1024 H1018 0.930 . S
C1024 C1025 1.355 . S
C1024 C1026 1.415 . S
C1025 C1024 1.355 . S
C1025 C1027 1.419 . S
C1026 C1024 1.415 . S
C1026 C1031 1.425 . S
C1026 C1033 1.409 . S
C1027 H1019 0.930 . S
C1027 C1025 1.419 . S
C1027 C1028 1.362 . S
C1028 H1020 0.930 . S
C1028 C1027 1.362 . S
C1028 C1031 1.409 . S
C1029 H1021 0.930 . S
C1029 C1030 1.355 . S
C1029 C1031 1.415 . S
C1030 C1029 1.355 . S
C1030 C1032 1.419 . S
C1031 C1026 1.425 . S
C1031 C1028 1.409 . S
C1031 C1029 1.415 . S
C1032 H1022 0.930 . S
C1032 C1030 1.419 . S
C1032 C1033 1.362 . S
C1033 H1023 0.930 . S
C1033 C1026 1.409 . S
C1033 C1032 1.362 . S
H1034 C1040 0.930 . S
H1035 C1043 0.930 . S
H1036 C1044 0.930 . S
H1037 C1045 0.930 . S
H1038 C1048 0.930 . S
H1039 C1049 0.930 . S
C1040 H1034 0.930 . S
C1040 C1041 1.355 . S
C1040 C1042 1.415 . S
C1041 C1040 1.355 . S
C1041 C1043 1.419 . S
C1042 C1040 1.415 . S
C1042 C1047 1.425 . S
C1042 C1049 1.409 . S
C1043 H1035 0.930 . S
C1043 C1041 1.419 . S
C1043 C1044 1.362 . S
C1044 H1036 0.930 . S
C1044 C1043 1.362 . S
C1044 C1047 1.409 . S
C1045 H1037 0.930 . S
C1045 C1046 1.355 . S
C1045 C1047 1.415 . S
C1046 C1045 1.355 . S
C1046 C1048 1.419 . S
C1047 C1042 1.425 . S
C1047 C1044 1.409 . S
C1047 C1045 1.415 . S
C1048 H1038 0.930 . S
C1048 C1046 1.419 . S
C1048 C1049 1.362 . S
C1049 H1039 0.930 . S
C1049 C1042 1.409 . S
C1049 C1048 1.362 . S
H1050 C1056 0.930 . S
H1051 C1059 0.930 . S
H1052 C1060 0.930 . S
H1053 C1061 0.930 . S
H1054 C1064 0.930 . S
H1055 C1065 0.930 . S
C1056 H1050 0.930 . S
C1056 C1057 1.355 . S
C1056 C1058 1.415 . S
C1057 C1056 1.355 . S
C1057 C1059 1.419 . S
C1058 C1056 1.415 . S
C1058 C1063 1.425 . S
C1058 C1065 1.409 . S
C1059 H1051 0.930 . S
C1059 C1057 1.419 . S
C1059 C1060 1.362 . S
C1060 H1052 0.930 . S
C1060 C1059 1.362 . S
C1060 C1063 1.409 . S
C1061 H1053 0.930 . S
C1061 C1062 1.355 . S
C1061 C1063 1.415 . S
C1062 C1061 1.355 . S
C1062 C1064 1.419 . S
C1063 C1058 1.425 . S
C1063 C1060 1.409 . S
C1063 C1061 1.415 . S
C1064 H1054 0.930 . S
C1064 C1062 1.419 . S
C1064 C1065 1.362 . S
C1065 H1055 0.930 . S
C1065 C1058 1.409 . S
C1065 C1064 1.362 . S
H1066 C1072 0.930 . S
H1067 C1075 0.930 . S
H1068 C1076 0.930 . S
H1069 C1077 0.930 . S
H1070 C1080 0.930 . S
H1071 C1081 0.930 . S
C1072 H1066 0.930 . S
C1072 C1073 1.355 . S
C1072 C1074 1.415 . S
C1073 C1072 1.355 . S
C1073 C1075 1.419 . S
C1074 C1072 1.415 . S
C1074 C1079 1.425 . S
C1074 C1081 1.409 . S
C1075 H1067 0.930 . S
C1075 C1073 1.419 . S
C1075 C1076 1.362 . S
C1076 H1068 0.930 . S
C1076 C1075 1.362 . S
C1076 C1079 1.409 . S
C1077 H1069 0.930 . S
C1077 C1078 1.355 . S
C1077 C1079 1.415 . S
C1078 C1077 1.355 . S
C1078 C1080 1.419 . S
C1079 C1074 1.425 . S
C1079 C1076 1.409 . S
C1079 C1077 1.415 . S
C1080 H1070 0.930 . S
C1080 C1078 1.419 . S
C1080 C1081 1.362 . S
C1081 H1071 0.930 . S
C1081 C1074 1.409 . S
C1081 C1080 1.362 . S
H1082 C1088 0.930 . S
H1083 C1091 0.930 . S
H1084 C1092 0.930 . S
H1085 C1093 0.930 . S
H1086 C1096 0.930 . S
H1087 C1097 0.930 . S
C1088 H1082 0.930 . S
C1088 C1089 1.355 . S
C1088 C1090 1.415 . S
C1089 C1088 1.355 . S
C1089 C1091 1.419 . S
C1090 C1088 1.415 . S
C1090 C1095 1.425 . S
C1090 C1097 1.409 . S
C1091 H1083 0.930 . S
C1091 C1089 1.419 . S
C1091 C1092 1.362 . S
C1092 H1084 0.930 . S
C1092 C1091 1.362 . S
C1092 C1095 1.409 . S
C1093 H1085 0.930 . S
C1093 C1094 1.355 . S
C1093 C1095 1.415 . S
C1094 C1093 1.355 . S
C1094 C1096 1.419 . S
C1095 C1090 1.425 . S
C1095 C1092 1.409 . S
C1095 C1093 1.415 . S
C1096 H1086 0.930 . S
C1096 C1094 1.419 . S
C1096 C1097 1.362 . S
C1097 H1087 0.930 . S
C1097 C1090 1.409 . S
C1097 C1096 1.362 . S
H1098 C1104 0.930 . S
H1099 C1107 0.930 . S
H1100 C1108 0.930 . S
H1101 C1109 0.930 . S
H1102 C1112 0.912 1_455 S
H1103 C1113 0.930 . S
C1104 H1098 0.930 . S
C1104 C1105 1.355 . S
C1104 C1106 1.415 . S
C1105 C1104 1.355 . S
C1105 C1107 1.419 . S
C1106 C1104 1.415 . S
C1106 C1111 1.425 . S
C1106 C1113 1.409 . S
C1107 H1099 0.930 . S
C1107 C1105 1.419 . S
C1107 C1108 1.362 . S
C1108 H1100 0.930 . S
C1108 C1107 1.362 . S
C1108 C1111 1.409 . S
C1109 H1101 0.930 . S
C1109 C1110 1.355 . S
C1109 C1111 1.415 . S
C1110 C1109 1.355 . S
C1110 C1112 1.419 . S
C1111 C1106 1.425 . S
C1111 C1108 1.409 . S
C1111 C1109 1.415 . S
C1112 H1102 0.912 1_655 S
C1112 C1110 1.419 . S
C1112 C1113 1.362 . S
C1113 H1103 0.930 . S
C1113 C1106 1.409 . S
C1113 C1112 1.362 . S
H1114 C1120 0.930 . S
H1115 C1123 0.930 . S
H1116 C1124 0.930 . S
H1117 C1125 0.930 . S
H1118 C1128 0.930 . S
H1119 C1129 0.930 . S
C1120 H1114 0.930 . S
C1120 C1121 1.355 . S
C1120 C1122 1.415 . S
C1121 C1120 1.355 . S
C1121 C1123 1.419 . S
C1122 C1120 1.415 . S
C1122 C1127 1.425 . S
C1122 C1129 1.409 . S
C1123 H1115 0.930 . S
C1123 C1121 1.419 . S
C1123 C1124 1.362 . S
C1124 H1116 0.930 . S
C1124 C1123 1.362 . S
C1124 C1127 1.409 . S
C1125 H1117 0.930 . S
C1125 C1126 1.355 . S
C1125 C1127 1.415 . S
C1126 C1125 1.355 . S
C1126 C1128 1.419 . S
C1127 C1122 1.425 . S
C1127 C1124 1.409 . S
C1127 C1125 1.415 . S
C1128 H1118 0.930 . S
C1128 C1126 1.419 . S
C1128 C1129 1.362 . S
C1129 H1119 0.930 . S
C1129 C1122 1.409 . S
C1129 C1128 1.362 . S
H1130 C1136 0.930 . S
H1131 C1139 0.930 . S
H1132 C1140 0.930 . S
H1133 C1141 0.930 . S
H1134 C1144 0.930 . S
H1135 C1145 0.930 . S
C1136 H1130 0.930 . S
C1136 C1137 1.355 . S
C1136 C1138 1.415 . S
C1137 C1136 1.355 . S
C1137 C1139 1.419 . S
C1138 C1136 1.415 . S
C1138 C1143 1.425 . S
C1138 C1145 1.409 . S
C1139 H1131 0.930 . S
C1139 C1137 1.419 . S
C1139 C1140 1.362 . S
C1140 H1132 0.930 . S
C1140 C1139 1.362 . S
C1140 C1143 1.409 . S
C1141 H1133 0.930 . S
C1141 C1142 1.355 . S
C1141 C1143 1.415 . S
C1142 C1141 1.355 . S
C1142 C1144 1.419 . S
C1143 C1138 1.425 . S
C1143 C1140 1.409 . S
C1143 C1141 1.415 . S
C1144 H1134 0.930 . S
C1144 C1142 1.419 . S
C1144 C1145 1.362 . S
C1145 H1135 0.930 . S
C1145 C1138 1.409 . S
C1145 C1144 1.362 . S
H1146 C1152 0.930 . S
H1147 C1155 0.930 . S
H1148 C1156 0.930 . S
H1149 C1157 0.930 . S
H1150 C1160 0.930 . S
H1151 C1161 0.930 . S
C1152 H1146 0.930 . S
C1152 C1153 1.355 . S
C1152 C1154 1.415 . S
C1153 C1152 1.355 . S
C1153 C1155 1.419 . S
C1154 C1152 1.415 . S
C1154 C1159 1.425 . S
C1154 C1161 1.409 . S
C1155 H1147 0.930 . S
C1155 C1153 1.419 . S
C1155 C1156 1.362 . S
C1156 H1148 0.930 . S
C1156 C1155 1.362 . S
C1156 C1159 1.409 . S
C1157 H1149 0.930 . S
C1157 C1158 1.355 . S
C1157 C1159 1.415 . S
C1158 C1157 1.355 . S
C1158 C1160 1.419 . S
C1159 C1154 1.425 . S
C1159 C1156 1.409 . S
C1159 C1157 1.415 . S
C1160 H1150 0.930 . S
C1160 C1158 1.419 . S
C1160 C1161 1.362 . S
C1161 H1151 0.930 . S
C1161 C1154 1.409 . S
C1161 C1160 1.362 . S
H1162 C1168 0.930 . S
H1163 C1171 0.930 . S
H1164 C1172 0.930 . S
H1165 C1173 0.930 . S
H1166 C1176 0.930 . S
H1167 C1177 0.930 . S
C1168 H1162 0.930 . S
C1168 C1169 1.355 . S
C1168 C1170 1.415 . S
C1169 C1168 1.355 . S
C1169 C1171 1.419 . S
C1170 C1168 1.415 . S
C1170 C1175 1.425 . S
C1170 C1177 1.409 . S
C1171 H1163 0.930 . S
C1171 C1169 1.419 . S
C1171 C1172 1.362 . S
C1172 H1164 0.930 . S
C1172 C1171 1.362 . S
C1172 C1175 1.409 . S
C1173 H1165 0.930 . S
C1173 C1174 1.355 . S
C1173 C1175 1.415 . S
C1174 C1173 1.355 . S
C1174 C1176 1.419 . S
C1175 C1170 1.425 . S
C1175 C1172 1.409 . S
C1175 C1173 1.415 . S
C1176 H1166 0.930 . S
C1176 C1174 1.419 . S
C1176 C1177 1.362 . S
C1177 H1167 0.930 . S
C1177 C1170 1.409 . S
C1177 C1176 1.362 . S
H1178 C1184 0.930 . S
H1179 C1187 0.930 . S
H1180 C1188 0.930 . S
H1181 C1189 0.930 . S
H1182 C1192 0.930 . S
H1183 C1193 0.930 . S
C1184 H1178 0.930 . S
C1184 C1185 1.355 . S
C1184 C1186 1.415 . S
C1185 C1184 1.355 . S
C1185 C1187 1.419 . S
C1186 C1184 1.415 . S
C1186 C1191 1.425 . S
C1186 C1193 1.409 . S
C1187 H1179 0.930 . S
C1187 C1185 1.419 . S
C1187 C1188 1.362 . S
C1188 H1180 0.930 . S
C1188 C1187 1.362 . S
C1188 C1191 1.409 . S
C1189 H1181 0.930 . S
C1189 C1190 1.355 . S
C1189 C1191 1.415 . S
C1190 C1189 1.355 . S
C1190 C1192 1.419 . S
C1191 C1186 1.425 . S
C1191 C1188 1.409 . S
C1191 C1189 1.415 . S
C1192 H1182 0.930 . S
C1192 C1190 1.419 . S
C1192 C1193 1.362 . S
C1193 H1183 0.930 . S
C1193 C1186 1.409 . S
C1193 C1192 1.362 . S
H1194 C1200 0.930 . S
H1195 C1203 0.930 . S
H1196 C1204 0.930 . S
H1197 C1205 0.930 . S
H1198 C1208 0.930 . S
H1199 C1209 0.930 . S
C1200 H1194 0.930 . S
C1200 C1201 1.355 . S
C1200 C1202 1.415 . S
C1201 C1200 1.355 . S
C1201 C1203 1.419 . S
C1202 C1200 1.415 . S
C1202 C1207 1.425 . S
C1202 C1209 1.409 . S
C1203 H1195 0.930 . S
C1203 C1201 1.419 . S
C1203 C1204 1.362 . S
C1204 H1196 0.930 . S
C1204 C1203 1.362 . S
C1204 C1207 1.409 . S
C1205 H1197 0.930 . S
C1205 C1206 1.355 . S
C1205 C1207 1.415 . S
C1206 C1205 1.355 . S
C1206 C1208 1.419 . S
C1207 C1202 1.425 . S
C1207 C1204 1.409 . S
C1207 C1205 1.415 . S
C1208 H1198 0.930 . S
C1208 C1206 1.419 . S
C1208 C1209 1.362 . S
C1209 H1199 0.930 . S
C1209 C1202 1.409 . S
C1209 C1208 1.362 . S
H1210 C1216 0.930 . S
H1211 C1219 0.930 . S
H1212 C1220 0.930 . S
H1213 C1221 0.930 . S
H1214 C1224 0.930 . S
H1215 C1225 0.930 . S
C1216 H1210 0.930 . S
C1216 C1217 1.355 . S
C1216 C1218 1.415 . S
C1217 C1216 1.355 . S
C1217 C1219 1.419 . S
C1218 C1216 1.415 . S
C1218 C1223 1.425 . S
C1218 C1225 1.409 . S
C1219 H1211 0.930 . S
C1219 C1217 1.419 . S
C1219 C1220 1.362 . S
C1220 H1212 0.930 . S
C1220 C1219 1.362 . S
C1220 C1223 1.409 . S
C1221 H1213 0.930 . S
C1221 C1222 1.355 . S
C1221 C1223 1.415 . S
C1222 C1221 1.355 . S
C1222 C1224 1.419 . S
C1223 C1218 1.425 . S
C1223 C1220 1.409 . S
C1223 C1221 1.415 . S
C1224 H1214 0.930 . S
C1224 C1222 1.419 . S
C1224 C1225 1.362 . S
C1225 H1215 0.930 . S
C1225 C1218 1.409 . S
C1225 C1224 1.362 . S
H1226 C1232 0.930 . S
H1227 C1235 0.930 . S
H1228 C1236 0.930 . S
H1229 C1237 0.930 . S
H1230 C1240 0.930 . S
H1231 C1241 0.930 . S
C1232 H1226 0.930 . S
C1232 C1233 1.355 . S
C1232 C1234 1.415 . S
C1233 C1232 1.355 . S
C1233 C1235 1.419 . S
C1234 C1232 1.415 . S
C1234 C1239 1.425 . S
C1234 C1241 1.409 . S
C1235 H1227 0.930 . S
C1235 C1233 1.419 . S
C1235 C1236 1.362 . S
C1236 H1228 0.930 . S
C1236 C1235 1.362 . S
C1236 C1239 1.409 . S
C1237 H1229 0.930 . S
C1237 C1238 1.355 . S
C1237 C1239 1.415 . S
C1238 C1237 1.355 . S
C1238 C1240 1.419 . S
C1239 C1234 1.425 . S
C1239 C1236 1.409 . S
C1239 C1237 1.415 . S
C1240 H1230 0.930 . S
C1240 C1238 1.419 . S
C1240 C1241 1.362 . S
C1241 H1231 0.930 . S
C1241 C1234 1.409 . S
C1241 C1240 1.362 . S
H1242 C1248 0.930 . S
H1243 C1251 0.930 . S
H1244 C1252 0.930 . S
H1245 C1253 0.930 . S
H1246 C1256 0.930 . S
H1247 C1257 0.930 . S
C1248 H1242 0.930 . S
C1248 C1249 1.355 . S
C1248 C1250 1.415 . S
C1249 C1248 1.355 . S
C1249 C1251 1.419 . S
C1250 C1248 1.415 . S
C1250 C1255 1.425 . S
C1250 C1257 1.409 . S
C1251 H1243 0.930 . S
C1251 C1249 1.419 . S
C1251 C1252 1.362 . S
C1252 H1244 0.930 . S
C1252 C1251 1.362 . S
C1252 C1255 1.409 . S
C1253 H1245 0.930 . S
C1253 C1254 1.355 . S
C1253 C1255 1.415 . S
C1254 C1253 1.355 . S
C1254 C1256 1.419 . S
C1255 C1250 1.425 . S
C1255 C1252 1.409 . S
C1255 C1253 1.415 . S
C1256 H1246 0.930 . S
C1256 C1254 1.419 . S
C1256 C1257 1.362 . S
C1257 H1247 0.930 . S
C1257 C1250 1.409 . S
C1257 C1256 1.362 . S
H1258 C1264 0.930 . S
H1259 C1267 0.930 . S
H1260 C1268 0.930 . S
H1261 C1269 0.930 . S
H1262 C1272 0.930 . S
H1263 C1273 0.930 . S
C1264 H1258 0.930 . S
C1264 C1265 1.355 . S
C1264 C1266 1.415 . S
C1265 C1264 1.355 . S
C1265 C1267 1.419 . S
C1266 C1264 1.415 . S
C1266 C1271 1.425 . S
C1266 C1273 1.409 . S
C1267 H1259 0.930 . S
C1267 C1265 1.419 . S
C1267 C1268 1.362 . S
C1268 H1260 0.930 . S
C1268 C1267 1.362 . S
C1268 C1271 1.409 . S
C1269 H1261 0.930 . S
C1269 C1270 1.355 . S
C1269 C1271 1.415 . S
C1270 C1269 1.355 . S
C1270 C1272 1.419 . S
C1271 C1266 1.425 . S
C1271 C1268 1.409 . S
C1271 C1269 1.415 . S
C1272 H1262 0.930 . S
C1272 C1270 1.419 . S
C1272 C1273 1.362 . S
C1273 H1263 0.930 . S
C1273 C1266 1.409 . S
C1273 C1272 1.362 . S
H1274 C1280 0.930 . S
H1275 C1283 0.930 . S
H1276 C1284 0.930 . S
H1277 C1285 0.930 . S
H1278 C1288 0.930 . S
H1279 C1289 0.930 . S
C1280 H1274 0.930 . S
C1280 C1281 1.355 . S
C1280 C1282 1.415 . S
C1281 C1280 1.355 . S
C1281 C1283 1.419 . S
C1282 C1280 1.415 . S
C1282 C1287 1.425 . S
C1282 C1289 1.409 . S
C1283 H1275 0.930 . S
C1283 C1281 1.419 . S
C1283 C1284 1.362 . S
C1284 H1276 0.930 . S
C1284 C1283 1.362 . S
C1284 C1287 1.409 . S
C1285 H1277 0.930 . S
C1285 C1286 1.355 . S
C1285 C1287 1.415 . S
C1286 C1285 1.355 . S
C1286 C1288 1.419 . S
C1287 C1282 1.425 . S
C1287 C1284 1.409 . S
C1287 C1285 1.415 . S
C1288 H1278 0.930 . S
C1288 C1286 1.419 . S
C1288 C1289 1.362 . S
C1289 H1279 0.930 . S
C1289 C1282 1.409 . S
C1289 C1288 1.362 . S
H1290 C1296 0.930 . S
H1291 C1299 0.930 . S
H1292 C1300 0.930 . S
H1293 C1301 0.930 . S
H1294 C1304 0.930 . S
H1295 C1305 0.930 . S
C1296 H1290 0.930 . S
C1296 C1297 1.355 . S
C1296 C1298 1.415 . S
C1297 C1296 1.355 . S
C1297 C1299 1.419 . S
C1298 C1296 1.415 . S
C1298 C1303 1.425 . S
C1298 C1305 1.409 . S
C1299 H1291 0.930 . S
C1299 C1297 1.419 . S
C1299 C1300 1.362 . S
C1300 H1292 0.930 . S
C1300 C1299 1.362 . S
C1300 C1303 1.409 . S
C1301 H1293 0.930 . S
C1301 C1302 1.355 . S
C1301 C1303 1.415 . S
C1302 C1301 1.355 . S
C1302 C1304 1.419 . S
C1303 C1298 1.425 . S
C1303 C1300 1.409 . S
C1303 C1301 1.415 . S
C1304 H1294 0.930 . S
C1304 C1302 1.419 . S
C1304 C1305 1.362 . S
C1305 H1295 0.930 . S
C1305 C1298 1.409 . S
C1305 C1304 1.362 . S
H1306 C1312 0.930 . S
H1307 C1315 0.930 . S
H1308 C1316 0.930 . S
H1309 C1317 0.930 . S
H1310 C1320 0.930 . S
H1311 C1321 0.930 . S
C1312 H1306 0.930 . S
C1312 C1313 1.355 . S
C1312 C1314 1.415 . S
C1313 C1312 1.355 . S
C1313 C1315 1.419 . S
C1314 C1312 1.415 . S
C1314 C1319 1.425 . S
C1314 C1321 1.409 . S
C1315 H1307 0.930 . S
C1315 C1313 1.419 . S
C1315 C1316 1.362 . S
C1316 H1308 0.930 . S
C1316 C1315 1.362 . S
C1316 C1319 1.409 . S
C1317 H1309 0.930 . S
C1317 C1318 1.355 . S
C1317 C1319 1.415 . S
C1318 C1317 1.355 . S
C1318 C1320 1.419 . S
C1319 C1314 1.425 . S
C1319 C1316 1.409 . S
C1319 C1317 1.415 . S
C1320 H1310 0.930 . S
C1320 C1318 1.419 . S
C1320 C1321 1.362 . S
C1321 H1311 0.930 . S
C1321 C1314 1.409 . S
C1321 C1320 1.362 . S
H1322 C1328 0.930 . S
H1323 C1331 0.930 . S
H1324 C1332 0.930 . S
H1325 C1333 0.930 . S
H1326 C1336 0.930 . S
H1327 C1337 0.930 . S
C1328 H1322 0.930 . S
C1328 C1329 1.355 . S
C1328 C1330 1.415 . S
C1329 C1328 1.355 . S
C1329 C1331 1.419 . S
C1330 C1328 1.415 . S
C1330 C1335 1.425 . S
C1330 C1337 1.409 . S
C1331 H1323 0.930 . S
C1331 C1329 1.419 . S
C1331 C1332 1.362 . S
C1332 H1324 0.930 . S
C1332 C1331 1.362 . S
C1332 C1335 1.409 . S
C1333 H1325 0.930 . S
C1333 C1334 1.355 . S
C1333 C1335 1.415 . S
C1334 C1333 1.355 . S
C1334 C1336 1.419 . S
C1335 C1330 1.425 . S
C1335 C1332 1.409 . S
C1335 C1333 1.415 . S
C1336 H1326 0.930 . S
C1336 C1334 1.419 . S
C1336 C1337 1.362 . S
C1337 H1327 0.930 . S
C1337 C1330 1.409 . S
C1337 C1336 1.362 . S
H1338 C1344 0.930 . S
H1339 C1347 0.930 . S
H1340 C1348 0.930 . S
H1341 C1349 0.930 . S
H1342 C1352 0.930 . S
H1343 C1353 0.930 . S
C1344 H1338 0.930 . S
C1344 C1345 1.355 . S
C1344 C1346 1.415 . S
C1345 C1344 1.355 . S
C1345 C1347 1.419 . S
C1346 C1344 1.415 . S
C1346 C1351 1.425 . S
C1346 C1353 1.409 . S
C1347 H1339 0.930 . S
C1347 C1345 1.419 . S
C1347 C1348 1.362 . S
C1348 H1340 0.930 . S
C1348 C1347 1.362 . S
C1348 C1351 1.409 . S
C1349 H1341 0.930 . S
C1349 C1350 1.355 . S
C1349 C1351 1.415 . S
C1350 C1349 1.355 . S
C1350 C1352 1.419 . S
C1351 C1346 1.425 . S
C1351 C1348 1.409 . S
C1351 C1349 1.415 . S
C1352 H1342 0.930 . S
C1352 C1350 1.419 . S
C1352 C1353 1.362 . S
C1353 H1343 0.930 . S
C1353 C1346 1.409 . S
C1353 C1352 1.362 . S
H1354 C1360 0.930 . S
H1355 C1363 0.930 . S
H1356 C1364 0.930 . S
H1357 C1365 0.930 . S
H1358 C1368 0.930 . S
H1359 C1369 0.930 . S
C1360 H1354 0.930 . S
C1360 C1361 1.355 . S
C1360 C1362 1.415 . S
C1361 C1360 1.355 . S
C1361 C1363 1.419 . S
C1362 C1360 1.415 . S
C1362 C1367 1.425 . S
C1362 C1369 1.409 . S
C1363 H1355 0.930 . S
C1363 C1361 1.419 . S
C1363 C1364 1.362 . S
C1364 H1356 0.930 . S
C1364 C1363 1.362 . S
C1364 C1367 1.409 . S
C1365 H1357 0.930 . S
C1365 C1366 1.355 . S
C1365 C1367 1.415 . S
C1366 C1365 1.355 . S
C1366 C1368 1.419 . S
C1367 C1362 1.425 . S
C1367 C1364 1.409 . S
C1367 C1365 1.415 . S
C1368 H1358 0.930 . S
C1368 C1366 1.419 . S
C1368 C1369 1.362 . S
C1369 H1359 0.930 . S
C1369 C1362 1.409 . S
C1369 C1368 1.362 . S
H1370 C1376 0.930 . S
H1371 C1379 0.930 . S
H1372 C1380 0.930 . S
H1373 C1381 0.930 . S
H1374 C1384 0.930 . S
H1375 C1385 0.930 . S
C1376 H1370 0.930 . S
C1376 C1377 1.355 . S
C1376 C1378 1.415 . S
C1377 C1376 1.355 . S
C1377 C1379 1.419 . S
C1378 C1376 1.415 . S
C1378 C1383 1.425 . S
C1378 C1385 1.409 . S
C1379 H1371 0.930 . S
C1379 C1377 1.419 . S
C1379 C1380 1.362 . S
C1380 H1372 0.930 . S
C1380 C1379 1.362 . S
C1380 C1383 1.409 . S
C1381 H1373 0.930 . S
C1381 C1382 1.355 . S
C1381 C1383 1.415 . S
C1382 C1381 1.355 . S
C1382 C1384 1.419 . S
C1383 C1378 1.425 . S
C1383 C1380 1.409 . S
C1383 C1381 1.415 . S
C1384 H1374 0.930 . S
C1384 C1382 1.419 . S
C1384 C1385 1.362 . S
C1385 H1375 0.930 . S
C1385 C1378 1.409 . S
C1385 C1384 1.362 . S
H1386 C1392 0.930 . S
H1387 C1395 0.930 . S
H1388 C1396 0.930 . S
H1389 C1397 0.930 . S
H1390 C1400 0.930 . S
H1391 C1401 0.930 . S
C1392 H1386 0.930 . S
C1392 C1393 1.355 . S
C1392 C1394 1.415 . S
C1393 C1392 1.355 . S
C1393 C1395 1.419 . S
C1394 C1392 1.415 . S
C1394 C1399 1.425 . S
C1394 C1401 1.409 . S
C1395 H1387 0.930 . S
C1395 C1393 1.419 . S
C1395 C1396 1.362 . S
C1396 H1388 0.930 . S
C1396 C1395 1.362 . S
C1396 C1399 1.409 . S
C1397 H1389 0.930 . S
C1397 C1398 1.355 . S
C1397 C1399 1.415 . S
C1398 C1397 1.355 . S
C1398 C1400 1.419 . S
C1399 C1394 1.425 . S
C1399 C1396 1.409 . S
C1399 C1397 1.415 . S
C1400 H1390 0.930 . S
C1400 C1398 1.419 . S
C1400 C1401 1.362 . S
C1401 H1391 0.930 . S
C1401 C1394 1.409 . S
C1401 C1400 1.362 . S
H1402 C1408 0.930 . S
H1403 C1411 0.930 . S
H1404 C1412 0.930 . S
H1405 C1413 0.930 . S
H1406 C1416 0.930 . S
H1407 C1417 0.930 . S
C1408 H1402 0.930 . S
C1408 C1409 1.355 . S
C1408 C1410 1.415 . S
C1409 C1408 1.355 . S
C1409 C1411 1.419 . S
C1410 C1408 1.415 . S
C1410 C1415 1.425 . S
C1410 C1417 1.409 . S
C1411 H1403 0.930 . S
C1411 C1409 1.419 . S
C1411 C1412 1.362 . S
C1412 H1404 0.930 . S
C1412 C1411 1.362 . S
C1412 C1415 1.409 . S
C1413 H1405 0.930 . S
C1413 C1414 1.355 . S
C1413 C1415 1.415 . S
C1414 C1413 1.355 . S
C1414 C1416 1.419 . S
C1415 C1410 1.425 . S
C1415 C1412 1.409 . S
C1415 C1413 1.415 . S
C1416 H1406 0.930 . S
C1416 C1414 1.419 . S
C1416 C1417 1.362 . S
C1417 H1407 0.930 . S
C1417 C1410 1.409 . S
C1417 C1416 1.362 . S
H1418 C1424 0.930 . S
H1419 C1427 0.930 . S
H1420 C1428 0.930 . S
H1421 C1429 0.930 . S
H1422 C1432 0.930 . S
H1423 C1433 0.930 . S
C1424 H1418 0.930 . S
C1424 C1425 1.355 . S
C1424 C1426 1.415 . S
C1425 C1424 1.355 . S
C1425 C1427 1.419 . S
C1426 C1424 1.415 . S
C1426 C1431 1.425 . S
C1426 C1433 1.409 . S
C1427 H1419 0.930 . S
C1427 C1425 1.419 . S
C1427 C1428 1.362 . S
C1428 H1420 0.930 . S
C1428 C1427 1.362 . S
C1428 C1431 1.409 . S
C1429 H1421 0.930 . S
C1429 C1430 1.355 . S
C1429 C1431 1.415 . S
C1430 C1429 1.355 . S
C1430 C1432 1.419 . S
C1431 C1426 1.425 . S
C1431 C1428 1.409 . S
C1431 C1429 1.415 . S
C1432 H1422 0.930 . S
C1432 C1430 1.419 . S
C1432 C1433 1.362 . S
C1433 H1423 0.930 . S
C1433 C1426 1.409 . S
C1433 C1432 1.362 . S
H1434 C1440 0.930 . S
H1435 C1443 0.930 . S
H1436 C1444 0.930 . S
H1437 C1445 0.930 . S
H1438 C1448 0.930 . S
H1439 C1449 0.930 . S
C1440 H1434 0.930 . S
C1440 C1441 1.355 . S
C1440 C1442 1.415 . S
C1441 C1440 1.355 . S
C1441 C1443 1.419 . S
C1442 C1440 1.415 . S
C1442 C1447 1.425 . S
C1442 C1449 1.409 . S
C1443 H1435 0.930 . S
C1443 C1441 1.419 . S
C1443 C1444 1.362 . S
C1444 H1436 0.930 . S
C1444 C1443 1.362 . S
C1444 C1447 1.409 . S
C1445 H1437 0.930 . S
C1445 C1446 1.355 . S
C1445 C1447 1.415 . S
C1446 C1445 1.355 . S
C1446 C1448 1.419 . S
C1447 C1442 1.425 . S
C1447 C1444 1.409 . S
C1447 C1445 1.415 . S
C1448 H1438 0.930 . S
C1448 C1446 1.419 . S
C1448 C1449 1.362 . S
C1449 H1439 0.930 . S
C1449 C1442 1.409 . S
C1449 C1448 1.362 . S
H1450 C1456 0.930 . S
H1451 C1459 0.930 . S
H1452 C1460 0.930 . S
H1453 C1461 0.930 . S
H1454 C1464 0.930 . S
H1455 C1465 0.930 . S
C1456 H1450 0.930 . S
C1456 C1457 1.355 . S
C1456 C1458 1.415 . S
C1457 C1456 1.355 . S
C1457 C1459 1.419 . S
C1458 C1456 1.415 . S
C1458 C1463 1.425 . S
C1458 C1465 1.409 . S
C1459 H1451 0.930 . S
C1459 C1457 1.419 . S
C1459 C1460 1.362 . S
C1460 H1452 0.930 . S
C1460 C1459 1.362 . S
C1460 C1463 1.409 . S
C1461 H1453 0.930 . S
C1461 C1462 1.355 . S
C1461 C1463 1.415 . S
C1462 C1461 1.355 . S
C1462 C1464 1.419 . S
C1463 C1458 1.425 . S
C1463 C1460 1.409 . S
C1463 C1461 1.415 . S
C1464 H1454 0.930 . S
C1464 C1462 1.419 . S
C1464 C1465 1.362 . S
C1465 H1455 0.930 . S
C1465 C1458 1.409 . S
C1465 C1464 1.362 . S
H1466 C1472 0.930 . S
H1467 C1475 0.930 . S
H1468 C1476 0.930 . S
H1469 C1477 0.930 . S
H1470 C1480 0.930 . S
H1471 C1481 0.930 . S
C1472 H1466 0.930 . S
C1472 C1473 1.355 . S
C1472 C1474 1.415 . S
C1473 C1472 1.355 . S
C1473 C1475 1.419 . S
C1474 C1472 1.415 . S
C1474 C1479 1.425 . S
C1474 C1481 1.409 . S
C1475 H1467 0.930 . S
C1475 C1473 1.419 . S
C1475 C1476 1.362 . S
C1476 H1468 0.930 . S
C1476 C1475 1.362 . S
C1476 C1479 1.409 . S
C1477 H1469 0.930 . S
C1477 C1478 1.355 . S
C1477 C1479 1.415 . S
C1478 C1477 1.355 . S
C1478 C1480 1.419 . S
C1479 C1474 1.425 . S
C1479 C1476 1.409 . S
C1479 C1477 1.415 . S
C1480 H1470 0.930 . S
C1480 C1478 1.419 . S
C1480 C1481 1.362 . S
C1481 H1471 0.930 . S
C1481 C1474 1.409 . S
C1481 C1480 1.362 . S
H1482 C1488 0.930 . S
H1483 C1491 0.930 . S
H1484 C1492 0.930 . S
H1485 C1493 0.930 . S
H1486 C1496 0.930 . S
H1487 C1497 0.930 . S
C1488 H1482 0.930 . S
C1488 C1489 1.355 . S
C1488 C1490 1.415 . S
C1489 C1488 1.355 . S
C1489 C1491 1.419 . S
C1490 C1488 1.415 . S
C1490 C1495 1.425 . S
C1490 C1497 1.409 . S
C1491 H1483 0.930 . S
C1491 C1489 1.419 . S
C1491 C1492 1.362 . S
C1492 H1484 0.930 . S
C1492 C1491 1.362 . S
C1492 C1495 1.409 . S
C1493 H1485 0.930 . S
C1493 C1494 1.355 . S
C1493 C1495 1.415 . S
C1494 C1493 1.355 . S
C1494 C1496 1.419 . S
C1495 C1490 1.425 . S
C1495 C1492 1.409 . S
C1495 C1493 1.415 . S
C1496 H1486 0.930 . S
C1496 C1494 1.419 . S
C1496 C1497 1.362 . S
C1497 H1487 0.930 . S
C1497 C1490 1.409 . S
C1497 C1496 1.362 . S
H1498 C1504 0.930 . S
H1499 C1507 0.930 . S
H1500 C1508 0.930 . S
H1501 C1509 0.930 . S
H1502 C1512 0.930 . S
H1503 C1513 0.930 . S
C1504 H1498 0.930 . S
C1504 C1505 1.355 . S
C1504 C1506 1.415 . S
C1505 C1504 1.355 . S
C1505 C1507 1.419 . S
C1506 C1504 1.415 . S
C1506 C1511 1.425 . S
C1506 C1513 1.409 . S
C1507 H1499 0.930 . S
C1507 C1505 1.419 . S
C1507 C1508 1.362 . S
C1508 H1500 0.930 . S
C1508 C1507 1.362 . S
C1508 C1511 1.409 . S
C1509 H1501 0.930 . S
C1509 C1510 1.355 . S
C1509 C1511 1.415 . S
C1510 C1509 1.355 . S
C1510 C1512 1.419 . S
C1511 C1506 1.425 . S
C1511 C1508 1.409 . S
C1511 C1509 1.415 . S
C1512 H1502 0.930 . S
C1512 C1510 1.419 . S
C1512 C1513 1.362 . S
C1513 H1503 0.930 . S
C1513 C1506 1.409 . S
C1513 C1512 1.362 . S
H1514 C1520 0.930 . S
H1515 C1523 0.930 . S
H1516 C1524 0.930 . S
H1517 C1525 0.930 . S
H1518 C1528 0.930 . S
H1519 C1529 0.930 . S
C1520 H1514 0.930 . S
C1520 C1521 1.355 . S
C1520 C1522 1.415 . S
C1521 C1520 1.355 . S
C1521 C1523 1.419 . S
C1522 C1520 1.415 . S
C1522 C1527 1.425 . S
C1522 C1529 1.409 . S
C1523 H1515 0.930 . S
C1523 C1521 1.419 . S
C1523 C1524 1.362 . S
C1524 H1516 0.930 . S
C1524 C1523 1.362 . S
C1524 C1527 1.409 . S
C1525 H1517 0.930 . S
C1525 C1526 1.355 . S
C1525 C1527 1.415 . S
C1526 C1525 1.355 . S
C1526 C1528 1.419 . S
C1527 C1522 1.425 . S
C1527 C1524 1.409 . S
C1527 C1525 1.415 . S
C1528 H1518 0.930 . S
C1528 C1526 1.419 . S
C1528 C1529 1.362 . S
C1529 H1519 0.930 . S
C1529 C1522 1.409 . S
C1529 C1528 1.362 . S
H1530 C1536 0.930 . S
H1531 C1539 0.930 . S
H1532 C1540 0.930 . S
H1533 C1541 0.930 . S
H1534 C1544 0.930 . S
H1535 C1545 0.930 . S
C1536 H1530 0.930 . S
C1536 C1537 1.355 . S
C1536 C1538 1.415 . S
C1537 C1536 1.355 . S
C1537 C1539 1.419 . S
C1538 C1536 1.415 . S
C1538 C1543 1.425 . S
C1538 C1545 1.409 . S
C1539 H1531 0.930 . S
C1539 C1537 1.419 . S
C1539 C1540 1.362 . S
C1540 H1532 0.930 . S
C1540 C1539 1.362 . S
C1540 C1543 1.409 . S
C1541 H1533 0.930 . S
C1541 C1542 1.355 . S
C1541 C1543 1.415 . S
C1542 C1541 1.355 . S
C1542 C1544 1.419 . S
C1543 C1538 1.425 . S
C1543 C1540 1.409 . S
C1543 C1541 1.415 . S
C1544 H1534 0.930 . S
C1544 C1542 1.419 . S
C1544 C1545 1.362 . S
C1545 H1535 0.930 . S
C1545 C1538 1.409 . S
C1545 C1544 1.362 . S
H1546 C1552 0.930 . S
H1547 C1555 0.930 . S
H1548 C1556 0.930 . S
H1549 C1557 0.930 . S
H1550 C1560 0.930 . S
H1551 C1561 0.930 . S
C1552 H1546 0.930 . S
C1552 C1553 1.355 . S
C1552 C1554 1.415 . S
C1553 C1552 1.355 . S
C1553 C1555 1.419 . S
C1554 C1552 1.415 . S
C1554 C1559 1.425 . S
C1554 C1561 1.409 . S
C1555 H1547 0.930 . S
C1555 C1553 1.419 . S
C1555 C1556 1.362 . S
C1556 H1548 0.930 . S
C1556 C1555 1.362 . S
C1556 C1559 1.409 . S
C1557 H1549 0.930 . S
C1557 C1558 1.355 . S
C1557 C1559 1.415 . S
C1558 C1557 1.355 . S
C1558 C1560 1.419 . S
C1559 C1554 1.425 . S
C1559 C1556 1.409 . S
C1559 C1557 1.415 . S
C1560 H1550 0.930 . S
C1560 C1558 1.419 . S
C1560 C1561 1.362 . S
C1561 H1551 0.930 . S
C1561 C1554 1.409 . S
C1561 C1560 1.362 . S
H1562 C1568 0.930 . S
H1563 C1571 0.930 . S
H1564 C1572 0.930 . S
H1565 C1573 0.930 . S
H1566 C1576 0.930 . S
H1567 C1577 0.930 . S
C1568 H1562 0.930 . S
C1568 C1569 1.355 . S
C1568 C1570 1.415 . S
C1569 C1568 1.355 . S
C1569 C1571 1.419 . S
C1570 C1568 1.415 . S
C1570 C1575 1.425 . S
C1570 C1577 1.409 . S
C1571 H1563 0.930 . S
C1571 C1569 1.419 . S
C1571 C1572 1.362 . S
C1572 H1564 0.930 . S
C1572 C1571 1.362 . S
C1572 C1575 1.409 . S
C1573 H1565 0.930 . S
C1573 C1574 1.355 . S
C1573 C1575 1.415 . S
C1574 C1573 1.355 . S
C1574 C1576 1.419 . S
C1575 C1570 1.425 . S
C1575 C1572 1.409 . S
C1575 C1573 1.415 . S
C1576 H1566 0.930 . S
C1576 C1574 1.419 . S
C1576 C1577 1.362 . S
C1577 H1567 0.930 . S
C1577 C1570 1.409 . S
C1577 C1576 1.362 . S
H1578 C1584 0.930 . S
H1579 C1587 0.930 . S
H1580 C1588 0.930 . S
H1581 C1589 0.930 . S
H1582 C1592 0.930 . S
H1583 C1593 0.930 . S
C1584 H1578 0.930 . S
C1584 C1585 1.355 . S
C1584 C1586 1.415 . S
C1585 C1584 1.355 . S
C1585 C1587 1.419 . S
C1586 C1584 1.415 . S
C1586 C1591 1.425 . S
C1586 C1593 1.409 . S
C1587 H1579 0.930 . S
C1587 C1585 1.419 . S
C1587 C1588 1.362 . S
C1588 H1580 0.930 . S
C1588 C1587 1.362 . S
C1588 C1591 1.409 . S
C1589 H1581 0.930 . S
C1589 C1590 1.355 . S
C1589 C1591 1.415 . S
C1590 C1589 1.355 . S
C1590 C1592 1.419 . S
C1591 C1586 1.425 . S
C1591 C1588 1.409 . S
C1591 C1589 1.415 . S
C1592 H1582 0.930 . S
C1592 C1590 1.419 . S
C1592 C1593 1.362 . S
C1593 H1583 0.930 . S
C1593 C1586 1.409 . S
C1593 C1592 1.362 . S
H1594 C1600 0.930 . S
H1595 C1603 0.930 . S
H1596 C1604 0.930 . S
H1597 C1605 0.930 . S
H1598 C1608 0.930 . S
H1599 C1609 0.930 . S
C1600 H1594 0.930 . S
C1600 C1601 1.355 . S
C1600 C1602 1.415 . S
C1601 C1600 1.355 . S
C1601 C1603 1.419 . S
C1602 C1600 1.415 . S
C1602 C1607 1.425 . S
C1602 C1609 1.409 . S
C1603 H1595 0.930 . S
C1603 C1601 1.419 . S
C1603 C1604 1.362 . S
C1604 H1596 0.930 . S
C1604 C1603 1.362 . S
C1604 C1607 1.409 . S
C1605 H1597 0.930 . S
C1605 C1606 1.355 . S
C1605 C1607 1.415 . S
C1606 C1605 1.355 . S
C1606 C1608 1.419 . S
C1607 C1602 1.425 . S
C1607 C1604 1.409 . S
C1607 C1605 1.415 . S
C1608 H1598 0.930 . S
C1608 C1606 1.419 . S
C1608 C1609 1.362 . S
C1609 H1599 0.930 . S
C1609 C1602 1.409 . S
C1609 C1608 1.362 . S
H1610 C1616 0.930 . S
H1611 C1619 0.930 . S
H1612 C1620 0.930 . S
H1613 C1621 0.930 . S
H1614 C1624 0.930 . S
H1615 C1625 0.930 . S
C1616 H1610 0.930 . S
C1616 C1617 1.355 . S
C1616 C1618 1.415 . S
C1617 C1616 1.355 . S
C1617 C1619 1.419 . S
C1618 C1616 1.415 . S
C1618 C1623 1.425 . S
C1618 C1625 1.409 . S
C1619 H1611 0.930 . S
C1619 C1617 1.419 . S
C1619 C1620 1.362 . S
C1620 H1612 0.930 . S
C1620 C1619 1.362 . S
C1620 C1623 1.409 . S
C1621 H1613 0.930 . S
C1621 C1622 1.355 . S
C1621 C1623 1.415 . S
C1622 C1621 1.355 . S
C1622 C1624 1.419 . S
C1623 C1618 1.425 . S
C1623 C1620 1.409 . S
C1623 C1621 1.415 . S
C1624 H1614 0.930 . S
C1624 C1622 1.419 . S
C1624 C1625 1.362 . S
C1625 H1615 0.930 . S
C1625 C1618 1.409 . S
C1625 C1624 1.362 . S
C870 C683 1.665 . S
C865 C74 1.654 . S
C886 C673 1.307 . S
C881 C153 1.261 . S
C902 C674 1.358 . S
C897 C231 1.341 . S
C913 C310 0.741 . S
C918 C696 0.545 . S
C929 C394 1.241 . S
C934 C699 1.308 . S
C950 C682 1.351 . S
C945 C494 1.323 . S
C961 C573 0.767 . S
C966 C672 0.705 . S
C977 C651 1.665 . S
C982 C690 1.665 . S
C998 C703 2.416 . S
C993 C56 2.522 . S
C1009 C151 1.639 . S
C1014 C752 1.580 . S
C1030 C730 1.339 . S
C1025 C237 1.366 . S
C1046 C744 1.300 . S
C1041 C326 1.279 . S
C1057 C410 1.311 . S
C1062 C705 1.299 . S
C1078 C758 2.452 . S
C1073 C476 2.539 . S
C1089 C571 1.630 . S
C1094 C714 1.633 . S
C1105 C657 1.342 . S
C1110 C735 1.346 . S
C1121 C58 1.342 . S
C1126 C761 1.379 . S
C1137 C392 1.634 . S
C1142 C745 1.619 . S
C1158 C704 1.372 . S
C1153 C478 1.403 . S
C1174 C736 1.339 . S
C1169 C567 1.284 . S
C1185 C655 2.518 . S
C1190 C727 2.409 . S
C1201 C235 2.535 . S
C1206 C734 2.420 . S
C1222 C721 1.628 . S
C1217 C308 1.633 . S
C1233 C147 1.332 . S
C1238 C713 1.328 . S
C1249 C662 1.688 . S
C1254 C776 1.676 . S
C1265 C405 1.299 . S
C1270 C766 1.376 . S
C1286 C767 1.314 . S
C1281 C483 1.289 . S
C1302 C789 0.664 . S
C1297 C562 0.737 . S
C1313 C142 1.264 . S
C1318 C792 1.308 . S
C1334 C775 1.308 . S
C1329 C242 1.323 . S
C1345 C321 0.775 . S
C1350 C765 0.714 . S
C1361 C63 1.653 . S
C1366 C783 1.688 . S
C1377 C644 2.517 . S
C1382 C796 2.414 . S
C1398 C845 1.597 . S
C1393 C403 1.641 . S
C1409 C489 1.363 . S
C1414 C823 1.339 . S
C1425 C578 1.271 . S
C1430 C837 1.322 . S
C1446 C798 1.296 . S
C1441 C158 1.309 . S
C1457 C224 2.528 . S
C1462 C851 2.416 . S
C1478 C807 1.588 . S
C1473 C319 1.653 . S
C1494 C828 1.362 . S
C1489 C69 1.257 . S
C1510 C854 1.320 . S
C1505 C646 1.311 . S
C1521 C140 1.633 . S
C1526 C838 1.602 . S
C1537 C226 1.317 . S
C1542 C797 1.394 . S
C1558 C829 1.289 . S
C1553 C315 1.295 . S
C1569 C67 2.522 . S
C1574 C820 2.416 . S
C1585 C487 2.538 . S
C1590 C827 2.431 . S
C1606 C814 1.621 . S
C1601 C560 1.640 . S
C1622 C806 1.322 . S
C1617 C399 1.327 . S
