# Generated by pormake.
# Topology iac, (4,6)-cn, num edge types: 1
# Building blocks:
#     Node 0, Type 0, BuildingBlock: QUQFOY_clean_sbu_3, # of connection points: 4
#     Node 1, Type 0, BuildingBlock: QUQFOY_clean_sbu_3, # of connection points: 4
#     Node 2, Type 0, BuildingBlock: QUQFOY_clean_sbu_3, # of connection points: 4
#     Node 3, Type 0, BuildingBlock: QUQFOY_clean_sbu_3, # of connection points: 4
#     Node 4, Type 0, BuildingBlock: QUQFOY_clean_sbu_3, # of connection points: 4
#     Node 5, Type 0, BuildingBlock: QUQFOY_clean_sbu_3, # of connection points: 4
#     Node 6, Type 0, BuildingBlock: QUQFOY_clean_sbu_3, # of connection points: 4
#     Node 7, Type 0, BuildingBlock: QUQFOY_clean_sbu_3, # of connection points: 4
#     Node 8, Type 0, BuildingBlock: QUQFOY_clean_sbu_3, # of connection points: 4
#     Node 9, Type 0, BuildingBlock: QUQFOY_clean_sbu_3, # of connection points: 4
#     Node 10, Type 0, BuildingBlock: QUQFOY_clean_sbu_3, # of connection points: 4
#     Node 11, Type 0, BuildingBlock: QUQFOY_clean_sbu_3, # of connection points: 4
#     Node 12, Type 0, BuildingBlock: QUQFOY_clean_sbu_3, # of connection points: 4
#     Node 13, Type 0, BuildingBlock: QUQFOY_clean_sbu_3, # of connection points: 4
#     Node 14, Type 0, BuildingBlock: QUQFOY_clean_sbu_3, # of connection points: 4
#     Node 15, Type 0, BuildingBlock: QUQFOY_clean_sbu_3, # of connection points: 4
#     Node 16, Type 0, BuildingBlock: QUQFOY_clean_sbu_3, # of connection points: 4
#     Node 17, Type 0, BuildingBlock: QUQFOY_clean_sbu_3, # of connection points: 4
#     Node 18, Type 0, BuildingBlock: QUQFOY_clean_sbu_3, # of connection points: 4
#     Node 19, Type 0, BuildingBlock: QUQFOY_clean_sbu_3, # of connection points: 4
#     Node 20, Type 0, BuildingBlock: QUQFOY_clean_sbu_3, # of connection points: 4
#     Node 21, Type 0, BuildingBlock: QUQFOY_clean_sbu_3, # of connection points: 4
#     Node 22, Type 0, BuildingBlock: QUQFOY_clean_sbu_3, # of connection points: 4
#     Node 23, Type 0, BuildingBlock: QUQFOY_clean_sbu_3, # of connection points: 4
#     Node 24, Type 1, BuildingBlock: FUNLAD_clean_sbu_0, # of connection points: 6
#     Node 25, Type 1, BuildingBlock: FUNLAD_clean_sbu_0, # of connection points: 6
#     Node 26, Type 1, BuildingBlock: FUNLAD_clean_sbu_0, # of connection points: 6
#     Node 27, Type 1, BuildingBlock: FUNLAD_clean_sbu_0, # of connection points: 6
#     Node 28, Type 1, BuildingBlock: FUNLAD_clean_sbu_0, # of connection points: 6
#     Node 29, Type 1, BuildingBlock: FUNLAD_clean_sbu_0, # of connection points: 6
#     Node 30, Type 1, BuildingBlock: FUNLAD_clean_sbu_0, # of connection points: 6
#     Node 31, Type 1, BuildingBlock: FUNLAD_clean_sbu_0, # of connection points: 6
#     Node 32, Type 1, BuildingBlock: FUNLAD_clean_sbu_0, # of connection points: 6
#     Node 33, Type 1, BuildingBlock: FUNLAD_clean_sbu_0, # of connection points: 6
#     Node 34, Type 1, BuildingBlock: FUNLAD_clean_sbu_0, # of connection points: 6
#     Node 35, Type 1, BuildingBlock: FUNLAD_clean_sbu_0, # of connection points: 6
#     Node 36, Type 1, BuildingBlock: FUNLAD_clean_sbu_0, # of connection points: 6
#     Node 37, Type 1, BuildingBlock: FUNLAD_clean_sbu_0, # of connection points: 6
#     Node 38, Type 1, BuildingBlock: FUNLAD_clean_sbu_0, # of connection points: 6
#     Node 39, Type 1, BuildingBlock: FUNLAD_clean_sbu_0, # of connection points: 6
#     Edge 40, Type (0, 1), None
#     Edge 41, Type (0, 1), None
#     Edge 42, Type (0, 1), None
#     Edge 43, Type (0, 1), None
#     Edge 44, Type (0, 1), None
#     Edge 45, Type (0, 1), None
#     Edge 46, Type (0, 1), None
#     Edge 47, Type (0, 1), None
#     Edge 48, Type (0, 1), None
#     Edge 49, Type (0, 1), None
#     Edge 50, Type (0, 1), None
#     Edge 51, Type (0, 1), None
#     Edge 52, Type (0, 1), None
#     Edge 53, Type (0, 1), None
#     Edge 54, Type (0, 1), None
#     Edge 55, Type (0, 1), None
#     Edge 56, Type (0, 1), None
#     Edge 57, Type (0, 1), None
#     Edge 58, Type (0, 1), None
#     Edge 59, Type (0, 1), None
#     Edge 60, Type (0, 1), None
#     Edge 61, Type (0, 1), None
#     Edge 62, Type (0, 1), None
#     Edge 63, Type (0, 1), None
#     Edge 64, Type (0, 1), None
#     Edge 65, Type (0, 1), None
#     Edge 66, Type (0, 1), None
#     Edge 67, Type (0, 1), None
#     Edge 68, Type (0, 1), None
#     Edge 69, Type (0, 1), None
#     Edge 70, Type (0, 1), None
#     Edge 71, Type (0, 1), None
#     Edge 72, Type (0, 1), None
#     Edge 73, Type (0, 1), None
#     Edge 74, Type (0, 1), None
#     Edge 75, Type (0, 1), None
#     Edge 76, Type (0, 1), None
#     Edge 77, Type (0, 1), None
#     Edge 78, Type (0, 1), None
#     Edge 79, Type (0, 1), None
#     Edge 80, Type (0, 1), None
#     Edge 81, Type (0, 1), None
#     Edge 82, Type (0, 1), None
#     Edge 83, Type (0, 1), None
#     Edge 84, Type (0, 1), None
#     Edge 85, Type (0, 1), None
#     Edge 86, Type (0, 1), None
#     Edge 87, Type (0, 1), None
#     Edge 88, Type (0, 1), None
#     Edge 89, Type (0, 1), None
#     Edge 90, Type (0, 1), None
#     Edge 91, Type (0, 1), None
#     Edge 92, Type (0, 1), None
#     Edge 93, Type (0, 1), None
#     Edge 94, Type (0, 1), None
#     Edge 95, Type (0, 1), None
#     Edge 96, Type (0, 1), None
#     Edge 97, Type (0, 1), None
#     Edge 98, Type (0, 1), None
#     Edge 99, Type (0, 1), None
#     Edge 100, Type (0, 1), None
#     Edge 101, Type (0, 1), None
#     Edge 102, Type (0, 1), None
#     Edge 103, Type (0, 1), None
#     Edge 104, Type (0, 1), None
#     Edge 105, Type (0, 1), None
#     Edge 106, Type (0, 1), None
#     Edge 107, Type (0, 1), None
#     Edge 108, Type (0, 1), None
#     Edge 109, Type (0, 1), None
#     Edge 110, Type (0, 1), None
#     Edge 111, Type (0, 1), None
#     Edge 112, Type (0, 1), None
#     Edge 113, Type (0, 1), None
#     Edge 114, Type (0, 1), None
#     Edge 115, Type (0, 1), None
#     Edge 116, Type (0, 1), None
#     Edge 117, Type (0, 1), None
#     Edge 118, Type (0, 1), None
#     Edge 119, Type (0, 1), None
#     Edge 120, Type (0, 1), None
#     Edge 121, Type (0, 1), None
#     Edge 122, Type (0, 1), None
#     Edge 123, Type (0, 1), None
#     Edge 124, Type (0, 1), None
#     Edge 125, Type (0, 1), None
#     Edge 126, Type (0, 1), None
#     Edge 127, Type (0, 1), None
#     Edge 128, Type (0, 1), None
#     Edge 129, Type (0, 1), None
#     Edge 130, Type (0, 1), None
#     Edge 131, Type (0, 1), None
#     Edge 132, Type (0, 1), None
#     Edge 133, Type (0, 1), None
#     Edge 134, Type (0, 1), None
#     Edge 135, Type (0, 1), None
# Relax obj value: 0.507
# Max RMSD: 0.373
# Mean RMSD: 0.160
data_MOF--net-iac--node1-QUQFOY_clean_sbu_3--node2-FUNLAD_clean_sbu_0--edge1-none
_symmetry_space_group_name_H-M    P1
_symmetry_Int_Tables_number       1
_symmetry_cell_setting            triclinic
loop_
_symmetry_equiv_pos_as_xyz
'x, y, z'
_cell_length_a     26.033739
_cell_length_b     25.557345
_cell_length_c     30.957933
_cell_angle_alpha  87.817454
_cell_angle_beta   89.627998
_cell_angle_gamma 89.034191
loop_
_atom_site_label
_atom_site_type_symbol
_atom_site_fract_x
_atom_site_fract_y
_atom_site_fract_z
_atom_type_partial_charge
C0 C 0.04271 0.14594 0.22966 0.0
O1 O 0.08805 0.1281 0.2345 0.0
Cd2 Cd 0.12496 0.20125 0.19041 0.0
O3 O 0.03649 0.19043 0.21079 0.0
Cd4 Cd 0.12379 0.2093 0.18918 0.0
C5 C 0.07773 0.15456 0.11892 0.0
O6 O 0.14871 0.26946 0.24097 0.0
O7 O 0.18143 0.19249 0.25346 0.0
O8 O 0.10523 0.28823 0.14893 0.0
C9 C 0.17753 0.24003 0.26436 0.0
O10 O 0.06341 0.20079 0.12675 0.0
C11 C 0.14131 0.28244 0.12149 0.0
O12 O 0.11286 0.1333 0.14239 0.0
O13 O 0.17174 0.24314 0.12584 0.0
C14 C 0.96398 0.7786 0.33917 0.0
O15 O 0.9907 0.81722 0.32639 0.0
Cd16 Cd 0.07147 0.82912 0.36045 0.0
O17 O 0.98115 0.74764 0.36986 0.0
Cd18 Cd 0.06786 0.74068 0.41593 0.0
C19 C 0.05355 0.85834 0.46759 0.0
O20 O 0.12219 0.75009 0.34736 0.0
O21 O 0.16525 0.75367 0.40536 0.0
O22 O 0.05232 0.64331 0.427 0.0
C23 C 0.16602 0.74951 0.36468 0.0
O24 O 0.0647 0.8753 0.42949 0.0
C25 C 0.07306 0.6389 0.46406 0.0
O26 O 0.04851 0.80914 0.47424 0.0
O27 O 0.09033 0.68067 0.47868 0.0
C28 C 0.54271 0.64594 0.72965 0.0
O29 O 0.58805 0.6281 0.7345 0.0
Cd30 Cd 0.62497 0.70125 0.69041 0.0
O31 O 0.53649 0.69044 0.71079 0.0
Cd32 Cd 0.6238 0.7093 0.68918 0.0
C33 C 0.57774 0.65456 0.61891 0.0
O34 O 0.64872 0.76946 0.74096 0.0
O35 O 0.68144 0.69249 0.75345 0.0
O36 O 0.60524 0.78823 0.64892 0.0
C37 C 0.67754 0.74003 0.76436 0.0
O38 O 0.56342 0.70079 0.62675 0.0
C39 C 0.64132 0.78244 0.62149 0.0
O40 O 0.61287 0.63329 0.64239 0.0
O41 O 0.67174 0.74314 0.62583 0.0
C42 C 0.46398 0.27861 0.83917 0.0
O43 O 0.4907 0.31723 0.82639 0.0
Cd44 Cd 0.57147 0.32913 0.86045 0.0
O45 O 0.48115 0.24764 0.86986 0.0
Cd46 Cd 0.56786 0.24069 0.91593 0.0
C47 C 0.55355 0.35834 0.96759 0.0
O48 O 0.62219 0.25009 0.84736 0.0
O49 O 0.66525 0.25367 0.90536 0.0
O50 O 0.55232 0.14331 0.927 0.0
C51 C 0.66602 0.24951 0.86468 0.0
O52 O 0.5647 0.3753 0.92949 0.0
C53 C 0.57306 0.1389 0.96406 0.0
O54 O 0.54851 0.30914 0.97424 0.0
O55 O 0.59032 0.18067 0.97868 0.0
C56 C 0.15549 0.05545 0.33465 0.0
O57 O 0.16548 0.09739 0.31366 0.0
Cd58 Cd 0.19774 0.06518 0.245 0.0
O59 O 0.16589 0.01241 0.31678 0.0
Cd60 Cd 0.21774 0.00985 0.24596 0.0
C61 C 0.2887 0.12067 0.24746 0.0
O62 O 0.14013 0.02451 0.19748 0.0
O63 O 0.2106 0.01279 0.16269 0.0
O64 O 0.21505 0.91494 0.25745 0.0
C65 C 0.16177 0.01538 0.1617 0.0
O66 O 0.25861 0.12967 0.21594 0.0
C67 C 0.2633 0.90753 0.25831 0.0
O68 O 0.28311 0.07794 0.2692 0.0
O69 O 0.29121 0.94741 0.25258 0.0
C70 C 0.40916 0.96843 0.54845 0.0
O71 O 0.37626 0.00288 0.53575 0.0
Cd72 Cd 0.28781 -0.00872 0.52475 0.0
O73 O 0.3954 0.9262 0.56855 0.0
Cd74 Cd 0.30923 0.88614 0.59148 0.0
C75 C 0.32646 0.87122 0.488 0.0
O76 O 0.24734 0.96055 0.58859 0.0
O77 O 0.21634 0.8845 0.57762 0.0
O78 O 0.31786 0.86361 0.66744 0.0
C79 C 0.20835 0.93319 0.58148 0.0
O80 O 0.31089 0.91832 0.48154 0.0
C81 C 0.31532 0.81409 0.66481 0.0
O82 O 0.32765 0.84897 0.52528 0.0
O83 O 0.31207 0.79625 0.62724 0.0
C84 C 0.51457 0.9625 0.828 0.0
O85 O 0.54997 0.93854 0.80793 0.0
Cd86 Cd 0.54341 0.92572 0.73284 0.0
O87 O 0.47982 -0.01119 0.80784 0.0
Cd88 Cd 0.44837 0.01128 0.73569 0.0
C89 C 0.42633 0.87837 0.76312 0.0
O90 O 0.53365 0.01238 0.69812 0.0
O91 O 0.46624 0.01096 0.65777 0.0
O92 O 0.43594 0.10438 0.75228 0.0
C93 C 0.51458 0.01648 0.66049 0.0
O94 O 0.4716 0.86742 0.75016 0.0
C95 C 0.38793 0.10684 0.74497 0.0
O96 O 0.4085 0.92532 0.75946 0.0
O97 O 0.36703 0.06495 0.7335 0.0
C98 C 0.44272 0.06332 0.0809 0.0
O99 O 0.40146 0.04945 0.09965 0.0
Cd100 Cd 0.32689 0.10256 0.08607 0.0
O101 O 0.44471 0.10408 0.05623 0.0
Cd102 Cd 0.3916 0.17238 0.0242 0.0
C103 C 0.3572 0.23072 0.10916 0.0
O104 O 0.33263 0.10656 0.00958 0.0
O105 O 0.29965 0.18375 0.00382 0.0
O106 O 0.43858 0.16147 0.95866 0.0
C107 C 0.29659 0.13568 -0.00438 0.0
O108 O 0.32885 0.19084 0.11478 0.0
C109 C 0.41729 0.20436 0.94605 0.0
O110 O 0.39218 0.23211 0.08067 0.0
O111 O 0.41579 0.2401 0.97345 0.0
C112 C 0.90916 0.46843 0.04845 0.0
O113 O 0.87626 0.50288 0.03575 0.0
Cd114 Cd 0.78781 0.49127 0.02475 0.0
O115 O 0.8954 0.4262 0.06855 0.0
Cd116 Cd 0.80923 0.38614 0.09148 0.0
C117 C 0.82647 0.37122 0.988 0.0
O118 O 0.74735 0.46055 0.08859 0.0
O119 O 0.71634 0.3845 0.07762 0.0
O120 O 0.81786 0.3636 0.16744 0.0
C121 C 0.70835 0.43319 0.08148 0.0
O122 O 0.8109 0.41832 0.98154 0.0
C123 C 0.81532 0.31408 0.16481 0.0
O124 O 0.82765 0.34897 0.02528 0.0
O125 O 0.81207 0.29625 0.12724 0.0
C126 C 0.01457 0.4625 0.328 0.0
O127 O 0.04997 0.43853 0.30793 0.0
Cd128 Cd 0.04341 0.42571 0.23284 0.0
O129 O 0.97982 0.48881 0.30784 0.0
Cd130 Cd 0.94838 0.51127 0.23569 0.0
C131 C 0.92633 0.37837 0.26312 0.0
O132 O 0.03365 0.51237 0.19812 0.0
O133 O 0.96624 0.51095 0.15777 0.0
O134 O 0.93594 0.60438 0.25228 0.0
C135 C 0.01459 0.51647 0.1605 0.0
O136 O 0.9716 0.36742 0.25016 0.0
C137 C 0.88793 0.60684 0.24496 0.0
O138 O 0.9085 0.42532 0.25946 0.0
O139 O 0.86703 0.56495 0.2335 0.0
C140 C 0.94272 0.56332 0.5809 0.0
O141 O 0.90146 0.54945 0.59965 0.0
Cd142 Cd 0.82689 0.60256 0.58607 0.0
O143 O 0.94471 0.60408 0.55623 0.0
Cd144 Cd 0.8916 0.67237 0.5242 0.0
C145 C 0.85721 0.73071 0.60916 0.0
O146 O 0.83263 0.60655 0.50958 0.0
O147 O 0.79965 0.68375 0.50382 0.0
O148 O 0.93858 0.66145 0.45865 0.0
C149 C 0.79659 0.63567 0.49562 0.0
O150 O 0.82886 0.69083 0.61478 0.0
C151 C 0.91729 0.70435 0.44604 0.0
O152 O 0.89218 0.73211 0.58066 0.0
O153 O 0.91579 0.74009 0.47344 0.0
C154 C 0.65549 0.55544 0.83465 0.0
O155 O 0.66549 0.59739 0.81366 0.0
Cd156 Cd 0.69774 0.56518 0.745 0.0
O157 O 0.66589 0.51241 0.81678 0.0
Cd158 Cd 0.71774 0.50985 0.74596 0.0
C159 C 0.78871 0.62066 0.74746 0.0
O160 O 0.64013 0.52451 0.69747 0.0
O161 O 0.7106 0.51279 0.66269 0.0
O162 O 0.71505 0.41494 0.75745 0.0
C163 C 0.66178 0.51537 0.6617 0.0
O164 O 0.75862 0.62967 0.71594 0.0
C165 C 0.7633 0.40753 0.75831 0.0
O166 O 0.78311 0.57794 0.7692 0.0
O167 O 0.79121 0.44741 0.75258 0.0
C168 C 0.96428 0.7897 0.84198 0.0
O169 O 0.99364 0.77049 0.87081 0.0
Cd170 Cd 0.01808 0.85822 0.90218 0.0
O171 O 0.96049 0.83914 0.83964 0.0
Cd172 Cd 0.01611 0.85876 0.9023 0.0
C173 C 0.05026 0.90422 0.98196 0.0
O174 O 0.06746 0.90645 0.84899 0.0
O175 O 0.10942 0.851 0.89062 0.0
O176 O 0.04188 0.77687 0.94114 0.0
C177 C 0.1101 0.88622 0.86054 0.0
O178 O 0.07181 0.86281 0.96985 0.0
C179 C 9e-05 0.77368 0.96255 0.0
O180 O 0.01484 0.92441 0.95823 0.0
O181 O 0.96438 0.80706 0.95457 0.0
C182 C 0.95994 0.23763 0.73694 0.0
O183 O 0.9797 0.19627 0.7542 0.0
Cd184 Cd 0.06402 0.16313 0.7348 0.0
O185 O 0.98451 0.26288 0.70707 0.0
Cd186 Cd 0.07344 0.25068 0.66866 0.0
C187 C 0.06786 0.12226 0.63138 0.0
O188 O 0.12516 0.23325 0.73885 0.0
O189 O 0.16868 0.23833 0.67979 0.0
O190 O 0.08366 0.34756 0.6529 0.0
C191 C 0.16904 0.23246 0.7207 0.0
O192 O 0.06574 0.10869 0.67129 0.0
C193 C 0.07122 0.34751 0.61328 0.0
O194 O 0.06954 0.17089 0.62018 0.0
O195 O 0.06137 0.30308 0.59873 0.0
C196 C 0.46428 0.28971 0.34198 0.0
O197 O 0.49364 0.2705 0.3708 0.0
Cd198 Cd 0.51808 0.35823 0.40217 0.0
O199 O 0.46048 0.33915 0.33964 0.0
Cd200 Cd 0.51611 0.35876 0.4023 0.0
C201 C 0.55026 0.40422 0.48196 0.0
O202 O 0.56746 0.40646 0.34899 0.0
O203 O 0.60942 0.35101 0.39062 0.0
O204 O 0.54188 0.27687 0.44113 0.0
C205 C 0.6101 0.38622 0.36054 0.0
O206 O 0.57181 0.36281 0.46985 0.0
C207 C 0.50009 0.27368 0.46254 0.0
O208 O 0.51484 0.42441 0.45823 0.0
O209 O 0.46438 0.30706 0.45456 0.0
C210 C 0.45994 0.73763 0.23694 0.0
O211 O 0.4797 0.69627 0.2542 0.0
Cd212 Cd 0.56402 0.66313 0.2348 0.0
O213 O 0.48451 0.76288 0.20706 0.0
Cd214 Cd 0.57344 0.75068 0.16865 0.0
C215 C 0.56787 0.62226 0.13138 0.0
O216 O 0.62516 0.73325 0.23885 0.0
O217 O 0.66868 0.73834 0.17979 0.0
O218 O 0.58366 0.84756 0.1529 0.0
C219 C 0.66904 0.73246 0.2207 0.0
O220 O 0.56574 0.60869 0.17129 0.0
C221 C 0.57122 0.84751 0.11328 0.0
O222 O 0.56954 0.6709 0.12018 0.0
O223 O 0.56137 0.80309 0.09873 0.0
C224 C 0.9687 0.03063 0.93802 0.0
O225 O 0.98871 0.04374 0.90224 0.0
Cd226 Cd 0.9278 -0.00633 0.85853 0.0
O227 O 0.92923 0.00194 0.93549 0.0
Cd228 Cd 0.90204 -0.00065 0.85049 0.0
C229 C 0.84601 0.90092 0.86874 0.0
O230 O 0.97962 0.97922 0.79845 0.0
O231 O 0.90674 0.95268 0.77846 0.0
O232 O 0.904 0.09502 0.84707 0.0
C233 C 0.95396 0.95792 0.76941 0.0
O234 O 0.89342 0.90239 0.87821 0.0
C235 C 0.85956 0.10093 0.8309 0.0
O236 O 0.82561 0.9445 0.85813 0.0
O237 O 0.83512 0.06004 0.82312 0.0
C238 C 0.90218 0.03215 0.52655 0.0
O239 O 0.86886 0.00222 0.54403 0.0
Cd240 Cd 0.77736 0.01146 0.55182 0.0
O241 O 0.8891 0.07562 0.50769 0.0
Cd242 Cd 0.80632 0.12605 0.4925 0.0
C243 C 0.78113 0.13242 0.59802 0.0
O244 O 0.74303 0.05708 0.49227 0.0
O245 O 0.71285 0.13498 0.50217 0.0
O246 O 0.83348 0.14699 0.41864 0.0
C247 C 0.7053 0.08614 0.50312 0.0
O248 O 0.76881 0.08431 0.59858 0.0
C249 C 0.82778 0.19646 0.41939 0.0
O250 O 0.80246 0.15514 0.56522 0.0
O251 O 0.81111 0.21484 0.45451 0.0
C252 C 0.59459 0.01817 0.39909 0.0
O253 O 0.57404 0.05209 0.3732 0.0
Cd254 Cd 0.59995 0.07838 0.30011 0.0
O255 O 0.63694 -0.00481 0.3894 0.0
Cd256 Cd 0.69914 -0.00561 0.32609 0.0
C257 C 0.71944 0.12998 0.30772 0.0
O258 O 0.63907 0.00519 0.26805 0.0
O259 O 0.72059 0.00864 0.25277 0.0
O260 O 0.70371 0.89819 0.32622 0.0
C261 C 0.67464 0.01315 0.24027 0.0
O262 O 0.67204 0.13755 0.29925 0.0
C263 C 0.75235 0.89465 0.32421 0.0
O264 O 0.73711 0.08501 0.32126 0.0
O265 O 0.77703 0.93694 0.32708 0.0
C266 C 0.86867 0.89649 0.06974 0.0
O267 O 0.88385 0.89556 0.03083 0.0
Cd268 Cd 0.82031 0.8795 0.97928 0.0
O269 O 0.82339 0.88474 0.07993 0.0
Cd270 Cd 0.74523 0.85066 0.05225 0.0
C271 C 0.79389 0.75027 0.00078 0.0
O272 O 0.74499 0.92747 0.00438 0.0
O273 O 0.68862 0.86983 0.99114 0.0
O274 O 0.69893 0.8885 0.11275 0.0
C275 C 0.70098 0.91771 0.9901 0.0
O276 O 0.8147 0.78568 0.97697 0.0
C277 C 0.71954 0.84317 0.10982 0.0
O278 O 0.76588 0.7624 0.03241 0.0
O279 O 0.68926 0.80555 0.10326 0.0
C280 C 0.40218 0.53215 0.02655 0.0
O281 O 0.36886 0.50222 0.04403 0.0
Cd282 Cd 0.27736 0.51146 0.05182 0.0
O283 O 0.3891 0.57562 0.00769 0.0
Cd284 Cd 0.30632 0.62605 0.9925 0.0
C285 C 0.28113 0.63242 0.09802 0.0
O286 O 0.24304 0.55708 0.99227 0.0
O287 O 0.21285 0.63498 0.00217 0.0
O288 O 0.33348 0.64699 0.91864 0.0
C289 C 0.2053 0.58614 0.00312 0.0
O290 O 0.26881 0.58432 0.09858 0.0
C291 C 0.32778 0.69647 0.91939 0.0
O292 O 0.30246 0.65514 0.06522 0.0
O293 O 0.31111 0.71484 0.95451 0.0
C294 C 0.09459 0.51817 0.89909 0.0
O295 O 0.07404 0.55209 0.8732 0.0
Cd296 Cd 0.09995 0.57838 0.80011 0.0
O297 O 0.13694 0.49519 0.8894 0.0
Cd298 Cd 0.19914 0.4944 0.82609 0.0
C299 C 0.21944 0.62998 0.80772 0.0
O300 O 0.13907 0.50519 0.76805 0.0
O301 O 0.22059 0.50864 0.75277 0.0
O302 O 0.20371 0.39819 0.82622 0.0
C303 C 0.17464 0.51316 0.74027 0.0
O304 O 0.17204 0.63756 0.79925 0.0
C305 C 0.25235 0.39465 0.82422 0.0
O306 O 0.23712 0.58501 0.82126 0.0
O307 O 0.27703 0.43694 0.82709 0.0
C308 C 0.36867 0.39649 0.56974 0.0
O309 O 0.38385 0.39556 0.53084 0.0
Cd310 Cd 0.32031 0.37951 0.47928 0.0
O311 O 0.32339 0.38474 0.57993 0.0
Cd312 Cd 0.24523 0.35066 0.55225 0.0
C313 C 0.2939 0.25027 0.50078 0.0
O314 O 0.24499 0.42747 0.50438 0.0
O315 O 0.18863 0.36983 0.49114 0.0
O316 O 0.19892 0.3885 0.61275 0.0
C317 C 0.20099 0.41771 0.4901 0.0
O318 O 0.31471 0.28568 0.47698 0.0
C319 C 0.21954 0.34317 0.60982 0.0
O320 O 0.26589 0.2624 0.53241 0.0
O321 O 0.18926 0.30555 0.60326 0.0
C322 C 0.4687 0.53063 0.43802 0.0
O323 O 0.48871 0.54374 0.40224 0.0
Cd324 Cd 0.4278 0.49367 0.35853 0.0
O325 O 0.42923 0.50194 0.43549 0.0
Cd326 Cd 0.40204 0.49936 0.35049 0.0
C327 C 0.34601 0.40093 0.36873 0.0
O328 O 0.47962 0.47922 0.29845 0.0
O329 O 0.40674 0.45269 0.27846 0.0
O330 O 0.404 0.59502 0.34707 0.0
C331 C 0.45396 0.45792 0.26941 0.0
O332 O 0.39341 0.40239 0.37821 0.0
C333 C 0.35956 0.60094 0.3309 0.0
O334 O 0.32561 0.4445 0.35813 0.0
O335 O 0.33512 0.56004 0.32311 0.0
C336 C 0.9966 0.04066 0.97925 0.0
N337 N 0.9755 -0.00771 0.11041 0.0
C338 C 0.92828 0.01385 0.10319 0.0
C339 C 0.88733 0.98088 0.09785 0.0
C340 C 0.89718 0.9268 0.09936 0.0
C341 C 0.94294 0.90654 0.11665 0.0
C342 C 0.98208 0.94129 0.12373 0.0
Zn343 Zn 0.03113 0.01891 0.07138 0.0
C344 C 0.07086 0.93342 0.01685 0.0
N345 N 0.15478 0.06588 0.99347 0.0
C346 C 0.15633 0.1178 0.98196 0.0
C347 C 0.19743 0.03472 0.99239 0.0
C348 C 0.24509 0.05704 0.98641 0.0
C349 C 0.24835 0.11182 0.98361 0.0
C350 C 0.20358 0.1422 0.97749 0.0
Zn351 Zn 0.0963 0.03947 0.03023 0.0
O352 O 0.97768 0.02882 0.0164 0.0
C353 C 0.05625 0.12555 0.0842 0.0
O354 O 0.04361 0.05388 0.97698 0.0
H355 H 0.19548 -0.00638 0.00165 0.0
H356 H 0.92439 0.05467 0.09302 0.0
H357 H 0.1215 0.14146 0.98176 0.0
O358 O 0.0205 0.09423 0.0941 0.0
O359 O 0.08777 0.11399 0.05477 0.0
H360 H 0.02028 0.92573 0.13016 0.0
O361 O 0.15012 0.02339 0.08405 0.0
O362 O 0.08289 0.00689 0.1245 0.0
O363 O 0.10518 0.9658 0.00616 0.0
O364 O 0.0407 0.94318 0.04777 0.0
C365 C 0.131 0.01316 0.12134 0.0
H366 H 0.85162 -0.00295 0.08487 0.0
H367 H 0.95083 0.86475 0.1184 0.0
H368 H 0.27901 0.0321 0.98978 0.0
H369 H 0.20491 0.18448 0.97389 0.0
C370 C 0.40907 0.75576 0.25365 0.0
N371 N 0.26379 0.71372 0.2125 0.0
C372 C 0.28178 0.73966 0.1765 0.0
C373 C 0.28519 0.71455 0.13775 0.0
C374 C 0.2701 0.66238 0.13642 0.0
C375 C 0.24611 0.63861 0.17277 0.0
C376 C 0.24328 0.66539 0.21097 0.0
Zn377 Zn 0.29027 0.73901 0.26791 0.0
C378 C 0.3387 0.65296 0.32015 0.0
N379 N 0.36054 0.79231 0.37657 0.0
C380 C 0.37534 0.84282 0.37821 0.0
C381 C 0.3463 0.76384 0.41257 0.0
C382 C 0.33874 0.7885 0.45108 0.0
C383 C 0.34523 0.84254 0.45155 0.0
C384 C 0.36708 0.86942 0.41586 0.0
Zn385 Zn 0.33276 0.76828 0.32162 0.0
O386 O 0.36777 0.74011 0.23683 0.0
C387 C 0.28501 0.85536 0.26836 0.0
O388 O 0.40634 0.77438 0.29104 0.0
H389 H 0.33391 0.72394 0.41042 0.0
H390 H 0.29882 0.7777 0.17868 0.0
H391 H 0.38743 0.86409 0.34915 0.0
O392 O 0.2712 0.81693 0.24691 0.0
O393 O 0.31208 0.8471 0.30186 0.0
H394 H 0.22933 0.64574 0.24019 0.0
O395 O 0.25733 0.76102 0.35521 0.0
O396 O 0.21512 0.73589 0.29909 0.0
O397 O 0.35504 0.69162 0.33985 0.0
O398 O 0.30752 0.66043 0.2892 0.0
C399 C 0.21489 0.74828 0.33858 0.0
H400 H 0.30282 0.73461 0.11013 0.0
H401 H 0.23268 0.59874 0.17258 0.0
H402 H 0.32286 0.76671 0.47862 0.0
H403 H 0.37435 0.91103 0.41617 0.0
C404 C 0.54581 0.02611 0.6209 0.0
N405 N 0.61252 0.91208 0.54655 0.0
C406 C 0.65365 0.91229 0.57347 0.0
C407 C 0.67123 0.86599 0.59332 0.0
C408 C 0.64516 0.82012 0.58584 0.0
C409 C 0.60727 0.81964 0.55393 0.0
C410 C 0.59129 0.8669 0.53426 0.0
Zn411 Zn 0.57723 0.98093 0.53534 0.0
C412 C 0.46348 0.98075 0.53996 0.0
N413 N 0.51311 0.12879 0.51986 0.0
C414 C 0.53045 0.16954 0.54228 0.0
C415 C 0.48067 0.13552 0.48591 0.0
C416 C 0.46984 0.18549 0.46961 0.0
C417 C 0.49159 0.22775 0.48933 0.0
C418 C 0.51998 0.22036 0.52723 0.0
Zn419 Zn 0.54541 0.0593 0.52907 0.0
O420 O 0.57148 -0.01142 0.60508 0.0
C421 C 0.65696 0.06455 0.52086 0.0
O422 O 0.5337 0.06505 0.59632 0.0
H423 H 0.46776 0.1022 0.4687 0.0
H424 H 0.6692 0.94879 0.58348 0.0
H425 H 0.5565 0.16261 0.56904 0.0
O426 O 0.65169 0.01554 0.52641 0.0
O427 O 0.61864 0.09457 0.52721 0.0
H428 H 0.55864 0.86813 0.5128 0.0
O429 O 0.55527 0.05312 0.46088 0.0
O430 O 0.58285 0.97173 0.46705 0.0
O431 O 0.47322 0.02776 0.5294 0.0
O432 O 0.50033 0.94727 0.54273 0.0
C433 C 0.57415 0.0128 0.4436 0.0
H434 H 0.69964 0.86734 0.6187 0.0
H435 H 0.58592 0.78447 0.54846 0.0
H436 H 0.45029 0.19075 0.43902 0.0
H437 H 0.53843 0.25285 0.54201 0.0
C438 C 0.35789 0.15508 0.75336 0.0
N439 N 0.28398 0.1921 0.86953 0.0
C440 C 0.31572 0.14944 0.87449 0.0
C441 C 0.36101 0.15317 0.89805 0.0
C442 C 0.37001 0.19903 0.92044 0.0
C443 C 0.32977 0.23643 0.92279 0.0
C444 C 0.28484 0.22934 0.89965 0.0
Zn445 Zn 0.29894 0.22902 0.81019 0.0
C446 C 0.4141 0.27013 0.81666 0.0
N447 N 0.34571 0.30536 0.69297 0.0
C448 C 0.33287 0.27151 0.66195 0.0
C449 C 0.32797 0.35572 0.69021 0.0
C450 C 0.28516 0.36857 0.66474 0.0
C451 C 0.26422 0.3307 0.63841 0.0
C452 C 0.29059 0.28264 0.63543 0.0
Zn453 Zn 0.33354 0.27096 0.7533 0.0
O454 O 0.32686 0.15577 0.78506 0.0
C455 C 0.21835 0.23285 0.74558 0.0
O456 O 0.36828 0.19796 0.73345 0.0
H457 H 0.34185 0.384 0.71227 0.0
H458 H 0.30986 0.11533 0.85564 0.0
H459 H 0.34923 0.23246 0.66214 0.0
O460 O 0.22196 0.21632 0.78487 0.0
O461 O 0.25794 0.25236 0.72745 0.0
H462 H 0.25411 0.25817 0.90126 0.0
O463 O 0.30223 0.34357 0.77655 0.0
O464 O 0.26998 0.30299 0.83331 0.0
O465 O 0.40642 0.29035 0.77891 0.0
O466 O 0.37802 0.244 0.83473 0.0
C467 C 0.2777 0.34533 0.81194 0.0
H468 H 0.38882 0.12117 0.89806 0.0
H469 H 0.3325 0.27028 0.94259 0.0
H470 H 0.26863 0.40746 0.66587 0.0
H471 H 0.27755 0.25306 0.61419 0.0
C472 C 0.15705 0.95632 0.57327 0.0
N473 N 0.09618 0.04631 0.46408 0.0
C474 C 0.14325 0.0676 0.45652 0.0
C475 C 0.16245 0.07367 0.41395 0.0
C476 C 0.13362 0.05627 0.3791 0.0
C477 C 0.08467 0.03663 0.38762 0.0
C478 C 0.06639 0.03271 0.43023 0.0
Zn479 Zn 0.0714 0.01548 0.52468 0.0
C480 C 0.05016 0.8977 0.50267 0.0
N481 N 0.01655 0.93329 0.64191 0.0
C482 C 0.0485 0.94215 0.6757 0.0
C483 C 0.96553 0.92538 0.64984 0.0
C484 C 0.94475 0.93048 0.69175 0.0
C485 C 0.9764 0.94367 0.72635 0.0
C486 C 0.02931 0.94736 0.71796 0.0
Zn487 Zn 0.04334 0.96115 0.57979 0.0
O488 O 0.14944 -0.00928 0.54277 0.0
C489 C 0.06651 0.08008 0.5992 0.0
O490 O 0.11915 0.93741 0.59416 0.0
H491 H 0.93983 0.91949 0.62324 0.0
H492 H 0.16714 0.07718 0.48347 0.0
H493 H 0.08849 0.95042 0.6696 0.0
O494 O 0.07876 0.08749 0.55943 0.0
O495 O 0.05306 0.03443 0.61246 0.0
H496 H 0.0295 0.01503 0.43631 0.0
O497 O 0.96801 0.98451 0.56302 0.0
O498 O 0.99246 0.03831 0.51004 0.0
O499 O 0.03594 0.88814 0.54203 0.0
O500 O 0.06373 0.94388 0.49188 0.0
C501 C 0.9567 0.01758 0.5328 0.0
H502 H 0.20061 0.08895 0.40857 0.0
H503 H 0.06124 0.02303 0.36165 0.0
H504 H 0.90364 0.9273 0.69636 0.0
H505 H 0.05547 0.9573 0.74334 0.0
C506 C 0.31293 0.7811 0.70476 0.0
N507 N 0.40891 0.6722 0.77205 0.0
C508 C 0.41039 0.64336 0.73609 0.0
C509 C 0.45575 0.61728 0.72525 0.0
C510 C 0.49886 0.62308 0.75146 0.0
C511 C 0.49206 0.64088 0.7931 0.0
C512 C 0.44727 0.66867 0.80182 0.0
Zn513 Zn 0.35211 0.72487 0.7809 0.0
C514 C 0.39364 0.83558 0.78104 0.0
N515 N 0.24145 0.83608 0.81156 0.0
C516 C 0.19952 0.83637 0.78557 0.0
C517 C 0.24505 0.86862 0.84501 0.0
C518 C 0.20209 0.89721 0.85755 0.0
C519 C 0.15622 0.89159 0.83499 0.0
C520 C 0.15635 0.86574 0.79609 0.0
Zn521 Zn 0.29699 0.78377 0.8019 0.0
O522 O 0.34279 0.7418 0.71198 0.0
C523 C 0.25508 0.67326 0.79845 0.0
O524 O 0.28829 0.80016 0.73585 0.0
H525 H 0.27956 0.86859 0.86427 0.0
H526 H 0.37857 0.64505 0.71377 0.0
H527 H 0.19772 0.8103 0.75897 0.0
O528 O 0.29966 0.66335 0.78393 0.0
O529 O 0.24179 0.72062 0.80466 0.0
H530 H 0.44597 0.69166 0.83032 0.0
O531 O 0.30558 0.76828 0.87049 0.0
O532 O 0.35912 0.70825 0.8485 0.0
O533 O 0.35009 0.84593 0.79759 0.0
O534 O 0.40689 0.78784 0.77664 0.0
C535 C 0.33404 0.72844 0.87897 0.0
H536 H 0.45986 0.60225 0.69311 0.0
H537 H 0.52466 0.64472 0.81433 0.0
H538 H 0.20259 0.91689 0.88795 0.0
H539 H 0.12109 0.86047 0.77843 0.0
C540 C 0.56913 0.89644 0.08548 0.0
N541 N 0.63631 0.03993 0.11058 0.0
C542 C 0.60989 0.06732 0.14076 0.0
C543 C 0.62208 0.06013 0.18424 0.0
C544 C 0.66427 0.02826 0.19549 0.0
C545 C 0.69698 0.00998 0.16327 0.0
C546 C 0.68168 0.01533 0.12057 0.0
Zn547 Zn 0.59609 0.01198 0.06046 0.0
C548 C 0.65962 0.95493 -0.00164 0.0
N549 N 0.50862 0.94558 0.96356 0.0
C550 C 0.47783 0.98249 0.94365 0.0
C551 C 0.53171 0.90693 0.94112 0.0
C552 C 0.5336 0.91127 0.89621 0.0
C553 C 0.50932 0.9543 0.87494 0.0
C554 C 0.47796 -0.01211 0.89881 0.0
Zn555 Zn 0.54848 0.97212 0.01357 0.0
O556 O 0.59125 0.93752 0.09746 0.0
C557 C 0.48414 0.0263 0.07526 0.0
O558 O 0.54572 0.89809 0.04941 0.0
H559 H 0.55509 0.87729 0.95782 0.0
H560 H 0.57637 0.0907 0.13214 0.0
H561 H 0.45961 0.01274 0.96218 0.0
O562 O 0.52779 0.03841 0.08862 0.0
O563 O 0.48088 -0.00323 0.04353 0.0
H564 H 0.70371 -0.00494 0.09666 0.0
O565 O 0.55273 0.04824 0.97751 0.0
O566 O 0.60045 0.08526 0.02514 0.0
O567 O 0.61573 0.94561 0.98392 0.0
O568 O 0.66364 0.9847 0.02994 0.0
C569 C 0.57597 0.08847 0.98973 0.0
H570 H 0.59797 0.07756 0.20865 0.0
H571 H 0.73157 -0.01216 0.17125 0.0
H572 H 0.55593 0.88287 0.87861 0.0
H573 H 0.45696 0.02035 0.88334 0.0
C574 C 0.31504 0.16448 0.26717 0.0
N575 N 0.33688 0.31779 0.21678 0.0
C576 C 0.38576 0.313 0.20118 0.0
C577 C 0.39427 0.28964 0.16179 0.0
C578 C 0.35173 0.27327 0.13886 0.0
C579 C 0.30262 0.29054 0.15051 0.0
C580 C 0.29622 0.31501 0.18946 0.0
Zn581 Zn 0.32439 0.28412 0.27777 0.0
C582 C 0.21808 0.26178 0.2901 0.0
N583 N 0.30024 0.19591 0.39536 0.0
C584 C 0.33957 0.17732 0.42065 0.0
C585 C 0.25176 0.19939 0.4122 0.0
C586 C 0.24474 0.19689 0.45685 0.0
C587 C 0.28881 0.19893 0.48224 0.0
C588 C 0.33419 0.17758 0.46552 0.0
Zn589 Zn 0.31722 0.23407 0.33729 0.0
O590 O 0.31604 0.20908 0.24739 0.0
C591 C 0.42369 0.25881 0.32377 0.0
O592 O 0.32201 0.16184 0.30772 0.0
H593 H 0.21931 0.2107 0.39238 0.0
H594 H 0.41835 0.32012 0.22133 0.0
H595 H 0.37651 0.16854 0.40658 0.0
O596 O 0.40468 0.27508 0.28804 0.0
O597 O 0.39561 0.23388 0.3507 0.0
H598 H 0.25762 0.32398 0.19987 0.0
O599 O 0.31602 0.31143 0.36862 0.0
O600 O 0.33049 0.35451 0.30688 0.0
O601 O 0.23781 0.2333 0.32011 0.0
O602 O 0.2455 0.29572 0.27104 0.0
C603 C 0.32677 0.35417 0.34776 0.0
H604 H 0.43302 0.27864 0.15241 0.0
H605 H 0.26925 0.28073 0.13194 0.0
H606 H 0.20761 0.20856 0.46967 0.0
H607 H 0.36778 0.17281 0.48569 0.0
C608 C 0.65705 0.45632 0.07327 0.0
N609 N 0.59619 0.54631 0.96408 0.0
C610 C 0.64325 0.5676 0.95652 0.0
C611 C 0.66245 0.57367 0.91395 0.0
C612 C 0.63362 0.55627 0.8791 0.0
C613 C 0.58467 0.53663 0.88762 0.0
C614 C 0.56639 0.53271 0.93023 0.0
Zn615 Zn 0.5714 0.51548 0.02467 0.0
C616 C 0.55016 0.3977 0.00267 0.0
N617 N 0.51655 0.43329 0.14191 0.0
C618 C 0.5485 0.44215 0.1757 0.0
C619 C 0.46553 0.42539 0.14984 0.0
C620 C 0.44475 0.43049 0.19175 0.0
C621 C 0.4764 0.44367 0.22635 0.0
C622 C 0.52931 0.44736 0.21796 0.0
Zn623 Zn 0.54334 0.46115 0.07979 0.0
O624 O 0.64944 0.49072 0.04277 0.0
C625 C 0.56651 0.58008 0.09919 0.0
O626 O 0.61915 0.43741 0.09416 0.0
H627 H 0.43983 0.4195 0.12324 0.0
H628 H 0.66715 0.57718 0.98347 0.0
H629 H 0.58849 0.45041 0.1696 0.0
O630 O 0.57876 0.58749 0.05942 0.0
O631 O 0.55306 0.53443 0.11246 0.0
H632 H 0.5295 0.51503 0.93631 0.0
O633 O 0.46801 0.48451 0.06302 0.0
O634 O 0.49246 0.53831 0.01004 0.0
O635 O 0.53594 0.38814 0.04203 0.0
O636 O 0.56373 0.44388 0.99188 0.0
C637 C 0.45671 0.51758 0.0328 0.0
H638 H 0.70061 0.58895 0.90856 0.0
H639 H 0.56124 0.52303 0.86165 0.0
H640 H 0.40364 0.42731 0.19636 0.0
H641 H 0.55547 0.4573 0.24334 0.0
C642 C 0.81293 0.28109 0.20476 0.0
N643 N 0.90891 0.1722 0.27205 0.0
C644 C 0.91038 0.14336 0.23609 0.0
C645 C 0.95575 0.11727 0.22525 0.0
C646 C -0.00114 0.12307 0.25146 0.0
C647 C 0.99205 0.14087 0.29311 0.0
C648 C 0.94727 0.16866 0.30182 0.0
Zn649 Zn 0.8521 0.22487 0.2809 0.0
C650 C 0.89364 0.33557 0.28104 0.0
N651 N 0.74145 0.33608 0.31156 0.0
C652 C 0.69952 0.33637 0.28557 0.0
C653 C 0.74505 0.36862 0.345 0.0
C654 C 0.70209 0.39721 0.35754 0.0
C655 C 0.65622 0.39159 0.33499 0.0
C656 C 0.65635 0.36574 0.29609 0.0
Zn657 Zn 0.79699 0.28377 0.30189 0.0
O658 O 0.84279 0.24179 0.21198 0.0
C659 C 0.75507 0.17326 0.29845 0.0
O660 O 0.78829 0.30016 0.23585 0.0
H661 H 0.77956 0.36859 0.36426 0.0
H662 H 0.87857 0.14504 0.21377 0.0
H663 H 0.69772 0.3103 0.25897 0.0
O664 O 0.79965 0.16335 0.28393 0.0
O665 O 0.74178 0.22062 0.30466 0.0
H666 H 0.94596 0.19165 0.33032 0.0
O667 O 0.80557 0.26828 0.37049 0.0
O668 O 0.85911 0.20824 0.3485 0.0
O669 O 0.85009 0.34593 0.29759 0.0
O670 O 0.90689 0.28784 0.27664 0.0
C671 C 0.83403 0.22844 0.37897 0.0
H672 H 0.95986 0.10224 0.19311 0.0
H673 H 0.02465 0.14471 0.31434 0.0
H674 H 0.70259 0.41689 0.38794 0.0
H675 H 0.62109 0.36047 0.27842 0.0
C676 C 0.06913 0.39644 0.58548 0.0
N677 N 0.13631 0.53993 0.61058 0.0
C678 C 0.10989 0.56732 0.64076 0.0
C679 C 0.12208 0.56013 0.68424 0.0
C680 C 0.16427 0.52827 0.69549 0.0
C681 C 0.19698 0.50998 0.66327 0.0
C682 C 0.18168 0.51533 0.62057 0.0
Zn683 Zn 0.09609 0.51197 0.56046 0.0
C684 C 0.15962 0.45493 0.49836 0.0
N685 N 0.00863 0.44557 0.46356 0.0
C686 C 0.97783 0.48248 0.44365 0.0
C687 C 0.03171 0.40692 0.44112 0.0
C688 C 0.0336 0.41126 0.39621 0.0
C689 C 0.00932 0.45429 0.37494 0.0
C690 C 0.97796 0.48789 0.39881 0.0
Zn691 Zn 0.04849 0.47211 0.51357 0.0
O692 O 0.09125 0.43752 0.59746 0.0
C693 C 0.98414 0.5263 0.57526 0.0
O694 O 0.04573 0.39809 0.54941 0.0
H695 H 0.05509 0.37729 0.45782 0.0
H696 H 0.07638 0.5907 0.63214 0.0
H697 H 0.95961 0.51273 0.46218 0.0
O698 O 0.02779 0.53841 0.58862 0.0
O699 O 0.98088 0.49677 0.54353 0.0
H700 H 0.20371 0.49506 0.59666 0.0
O701 O 0.05273 0.54824 0.47751 0.0
O702 O 0.10045 0.58526 0.52514 0.0
O703 O 0.11573 0.4456 0.48392 0.0
O704 O 0.16364 0.4847 0.52994 0.0
C705 C 0.07597 0.58847 0.48973 0.0
H706 H 0.09797 0.57757 0.70865 0.0
H707 H 0.23157 0.48784 0.67125 0.0
H708 H 0.05594 0.38287 0.37861 0.0
H709 H 0.95696 0.52034 0.38334 0.0
C710 C 0.85789 0.65507 0.25336 0.0
N711 N 0.78398 0.6921 0.36952 0.0
C712 C 0.81572 0.64943 0.37449 0.0
C713 C 0.86101 0.65317 0.39805 0.0
C714 C 0.87001 0.69902 0.42043 0.0
C715 C 0.82977 0.73642 0.42279 0.0
C716 C 0.78484 0.72934 0.39965 0.0
Zn717 Zn 0.79894 0.72901 0.31019 0.0
C718 C 0.9141 0.77013 0.31665 0.0
N719 N 0.84571 0.80536 0.19297 0.0
C720 C 0.83287 0.77151 0.16195 0.0
C721 C 0.82798 0.85572 0.1902 0.0
C722 C 0.78516 0.86857 0.16474 0.0
C723 C 0.76422 0.8307 0.13841 0.0
C724 C 0.79059 0.78264 0.13543 0.0
Zn725 Zn 0.83354 0.77096 0.2533 0.0
O726 O 0.82686 0.65577 0.28506 0.0
C727 C 0.71836 0.73285 0.24557 0.0
O728 O 0.86828 0.69796 0.23345 0.0
H729 H 0.84185 0.884 0.21226 0.0
H730 H 0.80986 0.61533 0.35564 0.0
H731 H 0.84923 0.73246 0.16214 0.0
O732 O 0.72196 0.71632 0.28487 0.0
O733 O 0.75794 0.75236 0.22745 0.0
H734 H 0.75411 0.75816 0.40126 0.0
O735 O 0.80223 0.84357 0.27655 0.0
O736 O 0.76998 0.80298 0.33331 0.0
O737 O 0.90642 0.79034 0.27891 0.0
O738 O 0.87802 0.744 0.33472 0.0
C739 C 0.7777 0.84532 0.31194 0.0
H740 H 0.88882 0.62116 0.39805 0.0
H741 H 0.8325 0.77028 0.44259 0.0
H742 H 0.76863 0.90746 0.16587 0.0
H743 H 0.77754 0.75306 0.11419 0.0
C744 C 0.90907 0.25576 0.75365 0.0
N745 N 0.76379 0.21372 0.7125 0.0
C746 C 0.78178 0.23965 0.6765 0.0
C747 C 0.78519 0.21455 0.63775 0.0
C748 C 0.7701 0.16238 0.63642 0.0
C749 C 0.74611 0.13861 0.67277 0.0
C750 C 0.74328 0.16538 0.71097 0.0
Zn751 Zn 0.79027 0.239 0.76791 0.0
C752 C 0.8387 0.15296 0.82016 0.0
N753 N 0.86054 0.2923 0.87657 0.0
C754 C 0.87534 0.34282 0.87821 0.0
C755 C 0.8463 0.26384 0.91257 0.0
C756 C 0.83874 0.28849 0.95108 0.0
C757 C 0.84523 0.34254 0.95155 0.0
C758 C 0.86708 0.36942 0.91586 0.0
Zn759 Zn 0.83276 0.26828 0.82162 0.0
O760 O 0.86777 0.2401 0.73683 0.0
C761 C 0.78501 0.35535 0.76836 0.0
O762 O 0.90634 0.27438 0.79104 0.0
H763 H 0.83391 0.22393 0.91042 0.0
H764 H 0.79882 0.2777 0.67868 0.0
H765 H 0.88743 0.36409 0.84915 0.0
O766 O 0.7712 0.31693 0.74691 0.0
O767 O 0.81208 0.3471 0.80186 0.0
H768 H 0.72933 0.14574 0.74019 0.0
O769 O 0.75733 0.26102 0.85521 0.0
O770 O 0.71512 0.23589 0.79909 0.0
O771 O 0.85504 0.19161 0.83985 0.0
O772 O 0.80752 0.16043 0.7892 0.0
C773 C 0.71489 0.24828 0.83858 0.0
H774 H 0.80281 0.23461 0.61013 0.0
H775 H 0.73268 0.09874 0.67258 0.0
H776 H 0.82286 0.26671 0.97862 0.0
H777 H 0.87435 0.41103 0.91617 0.0
C778 C 0.81504 0.66447 0.76717 0.0
N779 N 0.83689 0.81778 0.71678 0.0
C780 C 0.88577 0.81299 0.70118 0.0
C781 C 0.89428 0.78963 0.66179 0.0
C782 C 0.85174 0.77327 0.63886 0.0
C783 C 0.80263 0.79054 0.65051 0.0
C784 C 0.79623 0.81501 0.68946 0.0
Zn785 Zn 0.82441 0.78411 0.77777 0.0
C786 C 0.71809 0.76178 0.7901 0.0
N787 N 0.80024 0.69591 0.89536 0.0
C788 C 0.83957 0.67732 0.92065 0.0
C789 C 0.75176 0.69938 0.9122 0.0
C790 C 0.74474 0.69688 0.95685 0.0
C791 C 0.78881 0.69893 0.98224 0.0
C792 C 0.83419 0.67758 0.96552 0.0
Zn793 Zn 0.81723 0.73407 0.83729 0.0
O794 O 0.81605 0.70908 0.74739 0.0
C795 C 0.92369 0.7588 0.82377 0.0
O796 O 0.82202 0.66183 0.80772 0.0
H797 H 0.71932 0.7107 0.89238 0.0
H798 H 0.91837 0.8201 0.72133 0.0
H799 H 0.87651 0.66854 0.90658 0.0
O800 O 0.90469 0.77507 0.78804 0.0
O801 O 0.89562 0.73388 0.85071 0.0
H802 H 0.75764 0.82398 0.69987 0.0
O803 O 0.81602 0.81143 0.86862 0.0
O804 O 0.8305 0.8545 0.80688 0.0
O805 O 0.73782 0.7333 0.82011 0.0
O806 O 0.74551 0.79572 0.77104 0.0
C807 C 0.82678 0.85416 0.84776 0.0
H808 H 0.93303 0.77863 0.65241 0.0
H809 H 0.76926 0.78074 0.63193 0.0
H810 H 0.7076 0.70856 0.96967 0.0
H811 H 0.86778 0.67281 0.98569 0.0
C812 C 0.4966 0.54066 0.47925 0.0
N813 N 0.4755 0.49229 0.61041 0.0
C814 C 0.42828 0.51385 0.60319 0.0
C815 C 0.38733 0.48088 0.59785 0.0
C816 C 0.39718 0.42681 0.59936 0.0
C817 C 0.44294 0.40654 0.61665 0.0
C818 C 0.48209 0.44129 0.62373 0.0
Zn819 Zn 0.53113 0.51891 0.57138 0.0
C820 C 0.57085 0.43342 0.51685 0.0
N821 N 0.65478 0.56588 0.49346 0.0
C822 C 0.65633 0.61779 0.48196 0.0
C823 C 0.69743 0.53471 0.49239 0.0
C824 C 0.74509 0.55703 0.48641 0.0
C825 C 0.74835 0.61181 0.48361 0.0
C826 C 0.70359 0.64219 0.47749 0.0
Zn827 Zn 0.5963 0.53947 0.53023 0.0
O828 O 0.47768 0.52882 0.51639 0.0
C829 C 0.55626 0.62555 0.5842 0.0
O830 O 0.54362 0.55388 0.47697 0.0
H831 H 0.69548 0.49362 0.50165 0.0
H832 H 0.42439 0.55468 0.59302 0.0
H833 H 0.6215 0.64145 0.48175 0.0
O834 O 0.5205 0.59423 0.5941 0.0
O835 O 0.58777 0.61399 0.55477 0.0
H836 H 0.52028 0.42573 0.63016 0.0
O837 O 0.65012 0.52339 0.58405 0.0
O838 O 0.5829 0.50689 0.62449 0.0
O839 O 0.60518 0.46579 0.50616 0.0
O840 O 0.54069 0.44318 0.54777 0.0
C841 C 0.63101 0.51316 0.62134 0.0
H842 H 0.35162 0.49705 0.58488 0.0
H843 H 0.45083 0.36475 0.61841 0.0
H844 H 0.77901 0.53209 0.48978 0.0
H845 H 0.70492 0.68448 0.47388 0.0
C846 C 0.04581 0.52611 0.1209 0.0
N847 N 0.11252 0.41208 0.04655 0.0
C848 C 0.15365 0.41228 0.07347 0.0
C849 C 0.17123 0.36599 0.09332 0.0
C850 C 0.14515 0.32012 0.08584 0.0
C851 C 0.10727 0.31964 0.05394 0.0
C852 C 0.09129 0.3669 0.03426 0.0
Zn853 Zn 0.07723 0.48093 0.03534 0.0
C854 C 0.96348 0.48075 0.03996 0.0
N855 N 0.01311 0.62879 0.01987 0.0
C856 C 0.03045 0.66954 0.04228 0.0
C857 C 0.98067 0.63553 0.98591 0.0
C858 C 0.96984 0.6855 0.96962 0.0
C859 C 0.99159 0.72775 0.98934 0.0
C860 C 0.01998 0.72036 0.02724 0.0
Zn861 Zn 0.04541 0.5593 0.02907 0.0
O862 O 0.07148 0.48858 0.10508 0.0
C863 C 0.15696 0.56455 0.02086 0.0
O864 O 0.0337 0.56505 0.09632 0.0
H865 H 0.96775 0.6022 0.9687 0.0
H866 H 0.16921 0.44879 0.08347 0.0
H867 H 0.0565 0.66261 0.06904 0.0
O868 O 0.15169 0.51554 0.02641 0.0
O869 O 0.11864 0.59457 0.02721 0.0
H870 H 0.05864 0.36813 0.0128 0.0
O871 O 0.05527 0.55312 0.96088 0.0
O872 O 0.08285 0.47173 0.96705 0.0
O873 O 0.97322 0.52776 0.0294 0.0
O874 O 0.00033 0.44727 0.04273 0.0
C875 C 0.07415 0.51281 0.9436 0.0
H876 H 0.19964 0.36733 0.1187 0.0
H877 H 0.08591 0.28447 0.04847 0.0
H878 H 0.95028 0.69076 0.93903 0.0
H879 H 0.03843 0.75285 0.04202 0.0
loop_
_geom_bond_atom_site_label_1
_geom_bond_atom_site_label_2
_geom_bond_distance
_geom_bond_site_symmetry_2
_ccdc_geom_bond_type
C0 O1 1.306 . S
C0 O3 1.160 . S
O1 C0 1.306 . S
O1 Cd2 2.228 . S
Cd2 O1 2.228 . S
Cd2 O6 2.273 . S
Cd2 O10 2.277 . S
O3 C0 1.160 . S
O3 Cd4 2.203 . S
Cd4 O3 2.203 . S
Cd4 O6 2.411 . S
Cd4 O7 2.333 . S
Cd4 O8 2.352 . S
Cd4 O12 2.277 . S
Cd4 O13 2.356 . S
C5 O10 1.209 . S
C5 O12 1.226 . S
O6 Cd2 2.273 . S
O6 Cd4 2.411 . S
O6 C9 1.320 . S
O7 Cd4 2.333 . S
O7 C9 1.214 . S
O8 Cd4 2.352 . S
O8 C11 1.258 . S
C9 O6 1.320 . S
C9 O7 1.214 . S
O10 Cd2 2.277 . S
O10 C5 1.209 . S
C11 O8 1.258 . S
C11 O13 1.282 . S
O12 Cd4 2.277 . S
O12 C5 1.226 . S
O13 Cd4 2.356 . S
O13 C11 1.282 . S
C14 O15 1.306 1_655 S
C14 O17 1.160 . S
O15 C14 1.306 1_455 S
O15 Cd16 2.228 . S
Cd16 O15 2.228 . S
Cd16 O20 2.273 . S
Cd16 O24 2.277 . S
O17 C14 1.160 . S
O17 Cd18 2.203 1_655 S
Cd18 O17 2.203 1_455 S
Cd18 O20 2.411 . S
Cd18 O21 2.333 . S
Cd18 O22 2.352 . S
Cd18 O26 2.277 . S
Cd18 O27 2.356 . S
C19 O24 1.209 . S
C19 O26 1.226 . S
O20 Cd16 2.273 . S
O20 Cd18 2.411 . S
O20 C23 1.320 . S
O21 Cd18 2.333 . S
O21 C23 1.214 . S
O22 Cd18 2.352 . S
O22 C25 1.258 . S
C23 O20 1.320 . S
C23 O21 1.214 . S
O24 Cd16 2.277 . S
O24 C19 1.209 . S
C25 O22 1.258 . S
C25 O27 1.282 . S
O26 Cd18 2.277 . S
O26 C19 1.226 . S
O27 Cd18 2.356 . S
O27 C25 1.282 . S
C28 O29 1.306 . S
C28 O31 1.160 . S
O29 C28 1.306 . S
O29 Cd30 2.228 . S
Cd30 O29 2.228 . S
Cd30 O34 2.273 . S
Cd30 O38 2.277 . S
O31 C28 1.160 . S
O31 Cd32 2.203 . S
Cd32 O31 2.203 . S
Cd32 O34 2.411 . S
Cd32 O35 2.333 . S
Cd32 O36 2.352 . S
Cd32 O40 2.277 . S
Cd32 O41 2.356 . S
C33 O38 1.209 . S
C33 O40 1.226 . S
O34 Cd30 2.273 . S
O34 Cd32 2.411 . S
O34 C37 1.320 . S
O35 Cd32 2.333 . S
O35 C37 1.214 . S
O36 Cd32 2.352 . S
O36 C39 1.258 . S
C37 O34 1.320 . S
C37 O35 1.214 . S
O38 Cd30 2.277 . S
O38 C33 1.209 . S
C39 O36 1.258 . S
C39 O41 1.282 . S
O40 Cd32 2.277 . S
O40 C33 1.226 . S
O41 Cd32 2.356 . S
O41 C39 1.282 . S
C42 O43 1.306 . S
C42 O45 1.160 . S
O43 C42 1.306 . S
O43 Cd44 2.228 . S
Cd44 O43 2.228 . S
Cd44 O48 2.273 . S
Cd44 O52 2.277 . S
O45 C42 1.160 . S
O45 Cd46 2.203 . S
Cd46 O45 2.203 . S
Cd46 O48 2.411 . S
Cd46 O49 2.333 . S
Cd46 O50 2.352 . S
Cd46 O54 2.277 . S
Cd46 O55 2.356 . S
C47 O52 1.209 . S
C47 O54 1.226 . S
O48 Cd44 2.273 . S
O48 Cd46 2.411 . S
O48 C51 1.320 . S
O49 Cd46 2.333 . S
O49 C51 1.214 . S
O50 Cd46 2.352 . S
O50 C53 1.258 . S
C51 O48 1.320 . S
C51 O49 1.214 . S
O52 Cd44 2.277 . S
O52 C47 1.209 . S
C53 O50 1.258 . S
C53 O55 1.282 . S
O54 Cd46 2.277 . S
O54 C47 1.226 . S
O55 Cd46 2.356 . S
O55 C53 1.282 . S
C56 O57 1.306 . S
C56 O59 1.160 . S
O57 C56 1.306 . S
O57 Cd58 2.228 . S
Cd58 O57 2.228 . S
Cd58 O62 2.273 . S
Cd58 O66 2.277 . S
O59 C56 1.160 . S
O59 Cd60 2.203 . S
Cd60 O59 2.203 . S
Cd60 O62 2.411 . S
Cd60 O63 2.333 . S
Cd60 O64 2.352 1_545 S
Cd60 O68 2.277 . S
Cd60 O69 2.356 1_545 S
C61 O66 1.209 . S
C61 O68 1.226 . S
O62 Cd58 2.273 . S
O62 Cd60 2.411 . S
O62 C65 1.320 . S
O63 Cd60 2.333 . S
O63 C65 1.214 . S
O64 Cd60 2.352 1_565 S
O64 C67 1.258 . S
C65 O62 1.320 . S
C65 O63 1.214 . S
O66 Cd58 2.277 . S
O66 C61 1.209 . S
C67 O64 1.258 . S
C67 O69 1.282 . S
O68 Cd60 2.277 . S
O68 C61 1.226 . S
O69 Cd60 2.356 1_565 S
O69 C67 1.282 . S
C70 O71 1.306 1_565 S
C70 O73 1.160 . S
O71 C70 1.306 1_545 S
O71 Cd72 2.228 . S
Cd72 O71 2.228 . S
Cd72 O76 2.273 1_545 S
Cd72 O80 2.277 1_545 S
O73 C70 1.160 . S
O73 Cd74 2.203 . S
Cd74 O73 2.203 . S
Cd74 O76 2.411 . S
Cd74 O77 2.333 . S
Cd74 O78 2.352 . S
Cd74 O82 2.277 . S
Cd74 O83 2.356 . S
C75 O80 1.209 . S
C75 O82 1.226 . S
O76 Cd72 2.273 1_565 S
O76 Cd74 2.411 . S
O76 C79 1.320 . S
O77 Cd74 2.333 . S
O77 C79 1.214 . S
O78 Cd74 2.352 . S
O78 C81 1.258 . S
C79 O76 1.320 . S
C79 O77 1.214 . S
O80 Cd72 2.277 1_565 S
O80 C75 1.209 . S
C81 O78 1.258 . S
C81 O83 1.282 . S
O82 Cd74 2.277 . S
O82 C75 1.226 . S
O83 Cd74 2.356 . S
O83 C81 1.282 . S
C84 O85 1.306 1_545 S
C84 O87 1.160 . S
O85 C84 1.306 1_565 S
O85 Cd86 2.228 . S
Cd86 O85 2.228 . S
Cd86 O90 2.273 1_565 S
Cd86 O94 2.277 . S
O87 C84 1.160 . S
O87 Cd88 2.203 . S
Cd88 O87 2.203 . S
Cd88 O90 2.411 . S
Cd88 O91 2.333 . S
Cd88 O92 2.352 . S
Cd88 O96 2.277 1_545 S
Cd88 O97 2.356 . S
C89 O94 1.209 . S
C89 O96 1.226 . S
O90 Cd86 2.273 1_545 S
O90 Cd88 2.411 . S
O90 C93 1.320 . S
O91 Cd88 2.333 . S
O91 C93 1.214 . S
O92 Cd88 2.352 . S
O92 C95 1.258 . S
C93 O90 1.320 . S
C93 O91 1.214 . S
O94 Cd86 2.277 . S
O94 C89 1.209 . S
C95 O92 1.258 . S
C95 O97 1.282 . S
O96 Cd88 2.277 1_565 S
O96 C89 1.226 . S
O97 Cd88 2.356 . S
O97 C95 1.282 . S
C98 O99 1.306 . S
C98 O101 1.160 . S
O99 C98 1.306 . S
O99 Cd100 2.228 1_545 S
Cd100 O99 2.228 1_565 S
Cd100 O104 2.273 1_565 S
Cd100 O108 2.277 1_565 S
O101 C98 1.160 . S
O101 Cd102 2.203 . S
Cd102 O101 2.203 . S
Cd102 O104 2.411 . S
Cd102 O105 2.333 . S
Cd102 O106 2.352 1_554 S
Cd102 O110 2.277 . S
Cd102 O111 2.356 1_554 S
C103 O108 1.209 . S
C103 O110 1.226 . S
O104 Cd100 2.273 1_545 S
O104 Cd102 2.411 . S
O104 C107 1.320 . S
O105 Cd102 2.333 . S
O105 C107 1.214 . S
O106 Cd102 2.352 1_556 S
O106 C109 1.258 . S
C107 O104 1.320 . S
C107 O105 1.214 . S
O108 Cd100 2.277 1_545 S
O108 C103 1.209 . S
C109 O106 1.258 . S
C109 O111 1.282 . S
O110 Cd102 2.277 . S
O110 C103 1.226 . S
O111 Cd102 2.356 1_556 S
O111 C109 1.282 . S
C112 O113 1.306 . S
C112 O115 1.160 . S
O113 C112 1.306 . S
O113 Cd114 2.228 . S
Cd114 O113 2.228 . S
Cd114 O118 2.273 . S
Cd114 O122 2.277 . S
O115 C112 1.160 . S
O115 Cd116 2.203 . S
Cd116 O115 2.203 . S
Cd116 O118 2.411 . S
Cd116 O119 2.333 . S
Cd116 O120 2.352 . S
Cd116 O124 2.277 . S
Cd116 O125 2.356 . S
C117 O122 1.209 . S
C117 O124 1.226 . S
O118 Cd114 2.273 . S
O118 Cd116 2.411 . S
O118 C121 1.320 . S
O119 Cd116 2.333 . S
O119 C121 1.214 . S
O120 Cd116 2.352 . S
O120 C123 1.258 . S
C121 O118 1.320 . S
C121 O119 1.214 . S
O122 Cd114 2.277 . S
O122 C117 1.209 . S
C123 O120 1.258 . S
C123 O125 1.282 . S
O124 Cd116 2.277 . S
O124 C117 1.226 . S
O125 Cd116 2.356 . S
O125 C123 1.282 . S
C126 O127 1.306 1_655 S
C126 O129 1.160 . S
O127 C126 1.306 1_455 S
O127 Cd128 2.228 . S
Cd128 O127 2.228 . S
Cd128 O132 2.273 1_455 S
Cd128 O136 2.277 1_455 S
O129 C126 1.160 . S
O129 Cd130 2.203 . S
Cd130 O129 2.203 . S
Cd130 O132 2.411 . S
Cd130 O133 2.333 . S
Cd130 O134 2.352 . S
Cd130 O138 2.277 . S
Cd130 O139 2.356 . S
C131 O136 1.209 . S
C131 O138 1.226 . S
O132 Cd128 2.273 1_655 S
O132 Cd130 2.411 . S
O132 C135 1.320 . S
O133 Cd130 2.333 . S
O133 C135 1.214 . S
O134 Cd130 2.352 . S
O134 C137 1.258 . S
C135 O132 1.320 . S
C135 O133 1.214 . S
O136 Cd128 2.277 1_655 S
O136 C131 1.209 . S
C137 O134 1.258 . S
C137 O139 1.282 . S
O138 Cd130 2.277 . S
O138 C131 1.226 . S
O139 Cd130 2.356 . S
O139 C137 1.282 . S
C140 O141 1.306 1_455 S
C140 O143 1.160 1_455 S
O141 C140 1.306 1_655 S
O141 Cd142 2.228 . S
Cd142 O141 2.228 . S
Cd142 O146 2.273 . S
Cd142 O150 2.277 . S
O143 C140 1.160 1_655 S
O143 Cd144 2.203 . S
Cd144 O143 2.203 . S
Cd144 O146 2.411 . S
Cd144 O147 2.333 . S
Cd144 O148 2.352 . S
Cd144 O152 2.277 . S
Cd144 O153 2.356 . S
C145 O150 1.209 . S
C145 O152 1.226 . S
O146 Cd142 2.273 . S
O146 Cd144 2.411 . S
O146 C149 1.320 . S
O147 Cd144 2.333 . S
O147 C149 1.214 . S
O148 Cd144 2.352 . S
O148 C151 1.258 . S
C149 O146 1.320 . S
C149 O147 1.214 . S
O150 Cd142 2.277 . S
O150 C145 1.209 . S
C151 O148 1.258 . S
C151 O153 1.282 . S
O152 Cd144 2.277 . S
O152 C145 1.226 . S
O153 Cd144 2.356 . S
O153 C151 1.282 . S
C154 O155 1.306 . S
C154 O157 1.160 . S
O155 C154 1.306 . S
O155 Cd156 2.228 . S
Cd156 O155 2.228 . S
Cd156 O160 2.273 . S
Cd156 O164 2.277 . S
O157 C154 1.160 . S
O157 Cd158 2.203 . S
Cd158 O157 2.203 . S
Cd158 O160 2.411 . S
Cd158 O161 2.333 . S
Cd158 O162 2.352 . S
Cd158 O166 2.277 . S
Cd158 O167 2.356 . S
C159 O164 1.209 . S
C159 O166 1.226 . S
O160 Cd156 2.273 . S
O160 Cd158 2.411 . S
O160 C163 1.320 . S
O161 Cd158 2.333 . S
O161 C163 1.214 . S
O162 Cd158 2.352 . S
O162 C165 1.258 . S
C163 O160 1.320 . S
C163 O161 1.214 . S
O164 Cd156 2.277 . S
O164 C159 1.209 . S
C165 O162 1.258 . S
C165 O167 1.282 . S
O166 Cd158 2.277 . S
O166 C159 1.226 . S
O167 Cd158 2.356 . S
O167 C165 1.282 . S
C168 O169 1.306 . S
C168 O171 1.160 . S
O169 C168 1.306 . S
O169 Cd170 2.228 1_655 S
Cd170 O169 2.228 1_455 S
Cd170 O174 2.273 . S
Cd170 O178 2.277 . S
O171 C168 1.160 . S
O171 Cd172 2.203 1_655 S
Cd172 O171 2.203 1_455 S
Cd172 O174 2.411 . S
Cd172 O175 2.333 . S
Cd172 O176 2.352 1_455 S
Cd172 O180 2.277 . S
Cd172 O181 2.356 . S
C173 O178 1.209 . S
C173 O180 1.226 . S
O174 Cd170 2.273 . S
O174 Cd172 2.411 . S
O174 C177 1.320 . S
O175 Cd172 2.333 . S
O175 C177 1.214 . S
O176 Cd172 2.352 1_655 S
O176 C179 1.258 1_655 S
C177 O174 1.320 . S
C177 O175 1.214 . S
O178 Cd170 2.277 . S
O178 C173 1.209 . S
C179 O176 1.258 1_455 S
C179 O181 1.282 . S
O180 Cd172 2.277 . S
O180 C173 1.226 . S
O181 Cd172 2.356 . S
O181 C179 1.282 . S
C182 O183 1.306 1_655 S
C182 O185 1.160 . S
O183 C182 1.306 1_455 S
O183 Cd184 2.228 . S
Cd184 O183 2.228 . S
Cd184 O188 2.273 . S
Cd184 O192 2.277 . S
O185 C182 1.160 . S
O185 Cd186 2.203 1_655 S
Cd186 O185 2.203 1_455 S
Cd186 O188 2.411 . S
Cd186 O189 2.333 . S
Cd186 O190 2.352 . S
Cd186 O194 2.277 . S
Cd186 O195 2.356 . S
C187 O192 1.209 . S
C187 O194 1.226 . S
O188 Cd184 2.273 . S
O188 Cd186 2.411 . S
O188 C191 1.320 . S
O189 Cd186 2.333 . S
O189 C191 1.214 . S
O190 Cd186 2.352 . S
O190 C193 1.258 . S
C191 O188 1.320 . S
C191 O189 1.214 . S
O192 Cd184 2.277 . S
O192 C187 1.209 . S
C193 O190 1.258 . S
C193 O195 1.282 . S
O194 Cd186 2.277 . S
O194 C187 1.226 . S
O195 Cd186 2.356 . S
O195 C193 1.282 . S
C196 O197 1.306 . S
C196 O199 1.160 . S
O197 C196 1.306 . S
O197 Cd198 2.228 . S
Cd198 O197 2.228 . S
Cd198 O202 2.273 . S
Cd198 O206 2.277 . S
O199 C196 1.160 . S
O199 Cd200 2.203 . S
Cd200 O199 2.203 . S
Cd200 O202 2.411 . S
Cd200 O203 2.333 . S
Cd200 O204 2.352 . S
Cd200 O208 2.277 . S
Cd200 O209 2.356 . S
C201 O206 1.209 . S
C201 O208 1.226 . S
O202 Cd198 2.273 . S
O202 Cd200 2.411 . S
O202 C205 1.320 . S
O203 Cd200 2.333 . S
O203 C205 1.214 . S
O204 Cd200 2.352 . S
O204 C207 1.258 . S
C205 O202 1.320 . S
C205 O203 1.214 . S
O206 Cd198 2.277 . S
O206 C201 1.209 . S
C207 O204 1.258 . S
C207 O209 1.282 . S
O208 Cd200 2.277 . S
O208 C201 1.226 . S
O209 Cd200 2.356 . S
O209 C207 1.282 . S
C210 O211 1.306 . S
C210 O213 1.160 . S
O211 C210 1.306 . S
O211 Cd212 2.228 . S
Cd212 O211 2.228 . S
Cd212 O216 2.273 . S
Cd212 O220 2.277 . S
O213 C210 1.160 . S
O213 Cd214 2.203 . S
Cd214 O213 2.203 . S
Cd214 O216 2.411 . S
Cd214 O217 2.333 . S
Cd214 O218 2.352 . S
Cd214 O222 2.277 . S
Cd214 O223 2.356 . S
C215 O220 1.209 . S
C215 O222 1.226 . S
O216 Cd212 2.273 . S
O216 Cd214 2.411 . S
O216 C219 1.320 . S
O217 Cd214 2.333 . S
O217 C219 1.214 . S
O218 Cd214 2.352 . S
O218 C221 1.258 . S
C219 O216 1.320 . S
C219 O217 1.214 . S
O220 Cd212 2.277 . S
O220 C215 1.209 . S
C221 O218 1.258 . S
C221 O223 1.282 . S
O222 Cd214 2.277 . S
O222 C215 1.226 . S
O223 Cd214 2.356 . S
O223 C221 1.282 . S
C224 O225 1.306 1_655 S
C224 O227 1.160 1_565 S
O225 C224 1.306 1_455 S
O225 Cd226 2.228 . S
Cd226 O225 2.228 . S
Cd226 O230 2.273 . S
Cd226 O234 2.277 1_455 S
O227 C224 1.160 1_545 S
O227 Cd228 2.203 . S
Cd228 O227 2.203 . S
Cd228 O230 2.411 1_645 S
Cd228 O231 2.333 . S
Cd228 O232 2.352 . S
Cd228 O236 2.277 1_545 S
Cd228 O237 2.356 . S
C229 O234 1.209 . S
C229 O236 1.226 . S
O230 Cd226 2.273 . S
O230 Cd228 2.411 1_465 S
O230 C233 1.320 1_465 S
O231 Cd228 2.333 . S
O231 C233 1.214 . S
O232 Cd228 2.352 . S
O232 C235 1.258 . S
C233 O230 1.320 1_645 S
C233 O231 1.214 . S
O234 Cd226 2.277 1_655 S
O234 C229 1.209 . S
C235 O232 1.258 . S
C235 O237 1.282 . S
O236 Cd228 2.277 1_565 S
O236 C229 1.226 . S
O237 Cd228 2.356 . S
O237 C235 1.282 . S
C238 O239 1.306 . S
C238 O241 1.160 . S
O239 C238 1.306 . S
O239 Cd240 2.228 . S
Cd240 O239 2.228 . S
Cd240 O244 2.273 . S
Cd240 O248 2.277 . S
O241 C238 1.160 . S
O241 Cd242 2.203 . S
Cd242 O241 2.203 . S
Cd242 O244 2.411 . S
Cd242 O245 2.333 . S
Cd242 O246 2.352 . S
Cd242 O250 2.277 . S
Cd242 O251 2.356 . S
C243 O248 1.209 . S
C243 O250 1.226 . S
O244 Cd240 2.273 . S
O244 Cd242 2.411 . S
O244 C247 1.320 . S
O245 Cd242 2.333 . S
O245 C247 1.214 . S
O246 Cd242 2.352 . S
O246 C249 1.258 . S
C247 O244 1.320 . S
C247 O245 1.214 . S
O248 Cd240 2.277 . S
O248 C243 1.209 . S
C249 O246 1.258 . S
C249 O251 1.282 . S
O250 Cd242 2.277 . S
O250 C243 1.226 . S
O251 Cd242 2.356 . S
O251 C249 1.282 . S
C252 O253 1.306 . S
C252 O255 1.160 . S
O253 C252 1.306 . S
O253 Cd254 2.228 . S
Cd254 O253 2.228 . S
Cd254 O258 2.273 . S
Cd254 O262 2.277 . S
O255 C252 1.160 . S
O255 Cd256 2.203 . S
Cd256 O255 2.203 . S
Cd256 O258 2.411 . S
Cd256 O259 2.333 . S
Cd256 O260 2.352 1_545 S
Cd256 O264 2.277 . S
Cd256 O265 2.356 1_545 S
C257 O262 1.209 . S
C257 O264 1.226 . S
O258 Cd254 2.273 . S
O258 Cd256 2.411 . S
O258 C261 1.320 . S
O259 Cd256 2.333 . S
O259 C261 1.214 . S
O260 Cd256 2.352 1_565 S
O260 C263 1.258 . S
C261 O258 1.320 . S
C261 O259 1.214 . S
O262 Cd254 2.277 . S
O262 C257 1.209 . S
C263 O260 1.258 . S
C263 O265 1.282 . S
O264 Cd256 2.277 . S
O264 C257 1.226 . S
O265 Cd256 2.356 1_565 S
O265 C263 1.282 . S
C266 O267 1.306 . S
C266 O269 1.160 1_545 S
O267 C266 1.306 . S
O267 Cd268 2.228 1_554 S
Cd268 O267 2.228 1_556 S
Cd268 O272 2.273 1_556 S
Cd268 O276 2.277 1_545 S
O269 C266 1.160 1_565 S
O269 Cd270 2.203 . S
Cd270 O269 2.203 . S
Cd270 O272 2.411 1_565 S
Cd270 O273 2.333 . S
Cd270 O274 2.352 . S
Cd270 O278 2.277 1_554 S
Cd270 O279 2.356 . S
C271 O276 1.209 . S
C271 O278 1.226 . S
O272 Cd268 2.273 1_554 S
O272 Cd270 2.411 1_545 S
O272 C275 1.320 1_545 S
O273 Cd270 2.333 . S
O273 C275 1.214 . S
O274 Cd270 2.352 . S
O274 C277 1.258 . S
C275 O272 1.320 1_565 S
C275 O273 1.214 . S
O276 Cd268 2.277 1_565 S
O276 C271 1.209 . S
C277 O274 1.258 . S
C277 O279 1.282 . S
O278 Cd270 2.277 1_556 S
O278 C271 1.226 . S
O279 Cd270 2.356 . S
O279 C277 1.282 . S
C280 O281 1.306 . S
C280 O283 1.159 . S
O281 C280 1.306 . S
O281 Cd282 2.228 . S
Cd282 O281 2.228 . S
Cd282 O286 2.273 . S
Cd282 O290 2.277 . S
O283 C280 1.159 . S
O283 Cd284 2.203 1_554 S
Cd284 O283 2.203 1_556 S
Cd284 O286 2.411 1_556 S
Cd284 O287 2.333 . S
Cd284 O288 2.352 . S
Cd284 O292 2.277 1_556 S
Cd284 O293 2.356 . S
C285 O290 1.209 . S
C285 O292 1.226 . S
O286 Cd282 2.273 . S
O286 Cd284 2.411 1_554 S
O286 C289 1.320 1_554 S
O287 Cd284 2.333 . S
O287 C289 1.214 . S
O288 Cd284 2.352 . S
O288 C291 1.258 . S
C289 O286 1.320 1_556 S
C289 O287 1.214 . S
O290 Cd282 2.277 . S
O290 C285 1.209 . S
C291 O288 1.258 . S
C291 O293 1.282 . S
O292 Cd284 2.277 1_554 S
O292 C285 1.226 . S
O293 Cd284 2.356 . S
O293 C291 1.282 . S
C294 O295 1.306 . S
C294 O297 1.160 . S
O295 C294 1.306 . S
O295 Cd296 2.228 . S
Cd296 O295 2.228 . S
Cd296 O300 2.273 . S
Cd296 O304 2.277 . S
O297 C294 1.160 . S
O297 Cd298 2.203 . S
Cd298 O297 2.203 . S
Cd298 O300 2.411 . S
Cd298 O301 2.333 . S
Cd298 O302 2.352 . S
Cd298 O306 2.277 . S
Cd298 O307 2.356 . S
C299 O304 1.209 . S
C299 O306 1.226 . S
O300 Cd296 2.273 . S
O300 Cd298 2.411 . S
O300 C303 1.320 . S
O301 Cd298 2.333 . S
O301 C303 1.214 . S
O302 Cd298 2.352 . S
O302 C305 1.258 . S
C303 O300 1.320 . S
C303 O301 1.214 . S
O304 Cd296 2.277 . S
O304 C299 1.209 . S
C305 O302 1.258 . S
C305 O307 1.282 . S
O306 Cd298 2.277 . S
O306 C299 1.226 . S
O307 Cd298 2.356 . S
O307 C305 1.282 . S
C308 O309 1.306 . S
C308 O311 1.160 . S
O309 C308 1.306 . S
O309 Cd310 2.228 . S
Cd310 O309 2.228 . S
Cd310 O314 2.273 . S
Cd310 O318 2.277 . S
O311 C308 1.160 . S
O311 Cd312 2.203 . S
Cd312 O311 2.203 . S
Cd312 O314 2.411 . S
Cd312 O315 2.333 . S
Cd312 O316 2.352 . S
Cd312 O320 2.277 . S
Cd312 O321 2.356 . S
C313 O318 1.209 . S
C313 O320 1.226 . S
O314 Cd310 2.273 . S
O314 Cd312 2.411 . S
O314 C317 1.320 . S
O315 Cd312 2.333 . S
O315 C317 1.214 . S
O316 Cd312 2.352 . S
O316 C319 1.258 . S
C317 O314 1.320 . S
C317 O315 1.214 . S
O318 Cd310 2.277 . S
O318 C313 1.209 . S
C319 O316 1.258 . S
C319 O321 1.282 . S
O320 Cd312 2.277 . S
O320 C313 1.226 . S
O321 Cd312 2.356 . S
O321 C319 1.282 . S
C322 O323 1.306 . S
C322 O325 1.160 . S
O323 C322 1.306 . S
O323 Cd324 2.228 . S
Cd324 O323 2.228 . S
Cd324 O328 2.273 . S
Cd324 O332 2.277 . S
O325 C322 1.160 . S
O325 Cd326 2.203 . S
Cd326 O325 2.203 . S
Cd326 O328 2.411 . S
Cd326 O329 2.333 . S
Cd326 O330 2.352 . S
Cd326 O334 2.277 . S
Cd326 O335 2.356 . S
C327 O332 1.209 . S
C327 O334 1.226 . S
O328 Cd324 2.273 . S
O328 Cd326 2.411 . S
O328 C331 1.320 . S
O329 Cd326 2.333 . S
O329 C331 1.214 . S
O330 Cd326 2.352 . S
O330 C333 1.258 . S
C331 O328 1.320 . S
C331 O329 1.214 . S
O332 Cd324 2.277 . S
O332 C327 1.209 . S
C333 O330 1.258 . S
C333 O335 1.282 . S
O334 Cd326 2.277 . S
O334 C327 1.226 . S
O335 Cd326 2.356 . S
O335 C333 1.282 . S
C336 O352 1.251 . S
C336 O354 1.254 . S
N337 C338 1.333 . S
N337 C342 1.307 1_545 S
N337 Zn343 2.020 1_655 S
C338 N337 1.333 . S
C338 C339 1.379 . S
C338 H356 0.952 . S
C339 C338 1.379 . S
C339 C340 1.390 1_545 S
C339 H366 0.949 . S
C340 C339 1.390 1_565 S
C340 C341 1.357 . S
C341 C340 1.357 . S
C341 C342 1.370 . S
C341 H367 0.950 . S
C342 N337 1.307 1_565 S
C342 C341 1.370 . S
C342 H360 0.948 . S
Zn343 N337 2.020 1_455 S
Zn343 O352 2.039 1_554 S
Zn343 O358 2.034 . S
Zn343 O362 2.025 1_545 S
Zn343 O364 2.024 1_545 S
C344 O363 1.246 . S
C344 O364 1.249 . S
N345 C346 1.307 1_554 S
N345 C347 1.333 . S
N345 Zn351 2.020 . S
C346 N345 1.307 1_556 S
C346 C350 1.370 . S
C346 H357 0.948 . S
C347 N345 1.333 . S
C347 C348 1.379 . S
C347 H355 0.952 1_545 S
C348 C347 1.379 . S
C348 C349 1.390 . S
C348 H368 0.949 1_545 S
C349 C348 1.390 . S
C349 C350 1.357 1_554 S
C350 C346 1.370 . S
C350 C349 1.357 1_556 S
C350 H369 0.950 . S
Zn351 N345 2.020 . S
Zn351 O354 2.025 1_554 S
Zn351 O359 2.024 . S
Zn351 O361 2.033 1_545 S
Zn351 O363 2.034 1_545 S
O352 C336 1.251 . S
O352 Zn343 2.039 1_556 S
C353 O358 1.246 . S
C353 O359 1.249 . S
O354 C336 1.254 . S
O354 Zn351 2.025 1_556 S
H355 C347 0.952 1_565 S
H356 C338 0.952 . S
H357 C346 0.948 . S
O358 Zn343 2.034 . S
O358 C353 1.246 . S
O359 Zn351 2.024 . S
O359 C353 1.249 . S
H360 C342 0.948 . S
O361 Zn351 2.033 1_565 S
O361 C365 1.256 . S
O362 Zn343 2.025 1_565 S
O362 C365 1.254 . S
O363 C344 1.246 . S
O363 Zn351 2.034 1_565 S
O364 Zn343 2.024 1_565 S
O364 C344 1.249 . S
C365 O361 1.256 . S
C365 O362 1.254 . S
H366 C339 0.949 . S
H367 C341 0.950 . S
H368 C348 0.949 1_565 S
H369 C350 0.950 . S
C370 O386 1.251 . S
C370 O388 1.254 . S
N371 C372 1.333 . S
N371 C376 1.307 . S
N371 Zn377 2.020 . S
C372 N371 1.333 . S
C372 C373 1.379 . S
C372 H390 0.952 . S
C373 C372 1.379 . S
C373 C374 1.390 . S
C373 H400 0.949 . S
C374 C373 1.390 . S
C374 C375 1.357 . S
C375 C374 1.357 . S
C375 C376 1.370 . S
C375 H401 0.950 . S
C376 N371 1.307 . S
C376 C375 1.370 . S
C376 H394 0.948 . S
Zn377 N371 2.020 . S
Zn377 O386 2.039 . S
Zn377 O392 2.034 . S
Zn377 O396 2.025 . S
Zn377 O398 2.024 . S
C378 O397 1.246 . S
C378 O398 1.249 . S
N379 C380 1.307 . S
N379 C381 1.333 . S
N379 Zn385 2.020 . S
C380 N379 1.307 . S
C380 C384 1.370 . S
C380 H391 0.948 . S
C381 N379 1.333 . S
C381 C382 1.379 . S
C381 H389 0.952 . S
C382 C381 1.379 . S
C382 C383 1.390 . S
C382 H402 0.949 . S
C383 C382 1.390 . S
C383 C384 1.357 . S
C384 C380 1.370 . S
C384 C383 1.357 . S
C384 H403 0.950 . S
Zn385 N379 2.020 . S
Zn385 O388 2.025 . S
Zn385 O393 2.024 . S
Zn385 O395 2.039 . S
Zn385 O397 2.034 . S
O386 C370 1.251 . S
O386 Zn377 2.039 . S
C387 O392 1.246 . S
C387 O393 1.249 . S
O388 C370 1.254 . S
O388 Zn385 2.025 . S
H389 C381 0.952 . S
H390 C372 0.952 . S
H391 C380 0.948 . S
O392 Zn377 2.034 . S
O392 C387 1.246 . S
O393 Zn385 2.024 . S
O393 C387 1.249 . S
H394 C376 0.948 . S
O395 Zn385 2.039 . S
O395 C399 1.251 . S
O396 Zn377 2.025 . S
O396 C399 1.254 . S
O397 C378 1.246 . S
O397 Zn385 2.034 . S
O398 Zn377 2.024 . S
O398 C378 1.249 . S
C399 O395 1.251 . S
C399 O396 1.254 . S
H400 C373 0.949 . S
H401 C375 0.950 . S
H402 C382 0.949 . S
H403 C384 0.950 . S
C404 O420 1.251 1_545 S
C404 O422 1.254 . S
N405 C406 1.333 . S
N405 C410 1.307 . S
N405 Zn411 2.020 . S
C406 N405 1.333 . S
C406 C407 1.379 . S
C406 H424 0.952 . S
C407 C406 1.379 . S
C407 C408 1.390 . S
C407 H434 0.949 . S
C408 C407 1.390 . S
C408 C409 1.357 . S
C409 C408 1.357 . S
C409 C410 1.370 . S
C409 H435 0.950 . S
C410 N405 1.307 . S
C410 C409 1.370 . S
C410 H428 0.948 . S
Zn411 N405 2.020 . S
Zn411 O420 2.039 . S
Zn411 O426 2.034 1_565 S
Zn411 O430 2.025 . S
Zn411 O432 2.024 . S
C412 O431 1.246 1_565 S
C412 O432 1.249 . S
N413 C414 1.307 . S
N413 C415 1.333 . S
N413 Zn419 2.020 . S
C414 N413 1.307 . S
C414 C418 1.370 . S
C414 H425 0.948 . S
C415 N413 1.333 . S
C415 C416 1.379 . S
C415 H423 0.952 . S
C416 C415 1.379 . S
C416 C417 1.390 . S
C416 H436 0.949 . S
C417 C416 1.390 . S
C417 C418 1.357 . S
C418 C414 1.370 . S
C418 C417 1.357 . S
C418 H437 0.950 . S
Zn419 N413 2.020 . S
Zn419 O422 2.025 . S
Zn419 O427 2.024 . S
Zn419 O429 2.039 . S
Zn419 O431 2.034 . S
O420 C404 1.251 1_565 S
O420 Zn411 2.039 . S
C421 O426 1.246 . S
C421 O427 1.249 . S
O422 C404 1.254 . S
O422 Zn419 2.025 . S
H423 C415 0.952 . S
H424 C406 0.952 . S
H425 C414 0.948 . S
O426 Zn411 2.034 1_545 S
O426 C421 1.246 . S
O427 Zn419 2.024 . S
O427 C421 1.249 . S
H428 C410 0.948 . S
O429 Zn419 2.039 . S
O429 C433 1.251 1_545 S
O430 Zn411 2.025 . S
O430 C433 1.254 . S
O431 C412 1.246 1_545 S
O431 Zn419 2.034 . S
O432 Zn411 2.024 . S
O432 C412 1.249 . S
C433 O429 1.251 1_565 S
C433 O430 1.254 . S
H434 C407 0.949 . S
H435 C409 0.950 . S
H436 C416 0.949 . S
H437 C418 0.950 . S
C438 O454 1.251 . S
C438 O456 1.254 . S
N439 C440 1.333 . S
N439 C444 1.307 . S
N439 Zn445 2.020 . S
C440 N439 1.333 . S
C440 C441 1.379 . S
C440 H458 0.952 . S
C441 C440 1.379 . S
C441 C442 1.390 . S
C441 H468 0.949 . S
C442 C441 1.390 . S
C442 C443 1.357 . S
C443 C442 1.357 . S
C443 C444 1.370 . S
C443 H469 0.950 1_556 S
C444 N439 1.307 . S
C444 C443 1.370 . S
C444 H462 0.948 . S
Zn445 N439 2.020 . S
Zn445 O454 2.039 . S
Zn445 O460 2.034 . S
Zn445 O464 2.025 . S
Zn445 O466 2.024 . S
C446 O465 1.246 . S
C446 O466 1.249 . S
N447 C448 1.307 . S
N447 C449 1.333 . S
N447 Zn453 2.020 . S
C448 N447 1.307 . S
C448 C452 1.370 . S
C448 H459 0.948 . S
C449 N447 1.333 . S
C449 C450 1.379 . S
C449 H457 0.952 . S
C450 C449 1.379 . S
C450 C451 1.390 . S
C450 H470 0.949 . S
C451 C450 1.390 . S
C451 C452 1.357 . S
C452 C448 1.370 . S
C452 C451 1.357 . S
C452 H471 0.950 . S
Zn453 N447 2.020 . S
Zn453 O456 2.025 . S
Zn453 O461 2.024 . S
Zn453 O463 2.039 . S
Zn453 O465 2.034 . S
O454 C438 1.251 . S
O454 Zn445 2.039 . S
C455 O460 1.246 . S
C455 O461 1.249 . S
O456 C438 1.254 . S
O456 Zn453 2.025 . S
H457 C449 0.952 . S
H458 C440 0.952 . S
H459 C448 0.948 . S
O460 Zn445 2.034 . S
O460 C455 1.246 . S
O461 Zn453 2.024 . S
O461 C455 1.249 . S
H462 C444 0.948 . S
O463 Zn453 2.039 . S
O463 C467 1.251 . S
O464 Zn445 2.025 . S
O464 C467 1.254 . S
O465 C446 1.246 . S
O465 Zn453 2.034 . S
O466 Zn445 2.024 . S
O466 C446 1.249 . S
C467 O463 1.251 . S
C467 O464 1.254 . S
H468 C441 0.949 . S
H469 C443 0.950 1_554 S
H470 C450 0.949 . S
H471 C452 0.950 . S
C472 O488 1.251 1_565 S
C472 O490 1.254 . S
N473 C474 1.333 . S
N473 C478 1.307 . S
N473 Zn479 2.020 . S
C474 N473 1.333 . S
C474 C475 1.379 . S
C474 H492 0.952 . S
C475 C474 1.379 . S
C475 C476 1.390 . S
C475 H502 0.949 . S
C476 C475 1.390 . S
C476 C477 1.357 . S
C477 C476 1.357 . S
C477 C478 1.370 . S
C477 H503 0.950 . S
C478 N473 1.307 . S
C478 C477 1.370 . S
C478 H496 0.948 . S
Zn479 N473 2.020 . S
Zn479 O488 2.039 . S
Zn479 O494 2.034 . S
Zn479 O498 2.025 . S
Zn479 O500 2.024 1_545 S
C480 O499 1.246 . S
C480 O500 1.249 . S
N481 C482 1.307 . S
N481 C483 1.333 1_455 S
N481 Zn487 2.020 1_565 S
C482 N481 1.307 . S
C482 C486 1.370 . S
C482 H493 0.948 . S
C483 N481 1.333 1_655 S
C483 C484 1.379 . S
C483 H491 0.952 . S
C484 C483 1.379 . S
C484 C485 1.390 . S
C484 H504 0.949 . S
C485 C484 1.390 . S
C485 C486 1.357 1_655 S
C486 C482 1.370 . S
C486 C485 1.357 1_455 S
C486 H505 0.950 . S
Zn487 N481 2.020 1_545 S
Zn487 O490 2.025 1_545 S
Zn487 O495 2.024 . S
Zn487 O497 2.039 1_455 S
Zn487 O499 2.034 1_545 S
O488 C472 1.251 1_545 S
O488 Zn479 2.039 . S
C489 O494 1.246 . S
C489 O495 1.249 . S
O490 C472 1.254 . S
O490 Zn487 2.025 1_565 S
H491 C483 0.952 . S
H492 C474 0.952 . S
H493 C482 0.948 . S
O494 Zn479 2.034 . S
O494 C489 1.246 . S
O495 Zn487 2.024 . S
O495 C489 1.249 . S
H496 C478 0.948 . S
O497 Zn487 2.039 1_655 S
O497 C501 1.251 . S
O498 Zn479 2.025 . S
O498 C501 1.254 1_455 S
O499 C480 1.246 . S
O499 Zn487 2.034 1_565 S
O500 Zn479 2.024 1_565 S
O500 C480 1.249 . S
C501 O497 1.251 . S
C501 O498 1.254 1_655 S
H502 C475 0.949 . S
H503 C477 0.950 . S
H504 C484 0.949 . S
H505 C486 0.950 . S
C506 O522 1.251 . S
C506 O524 1.254 . S
N507 C508 1.333 . S
N507 C512 1.307 . S
N507 Zn513 2.020 . S
C508 N507 1.333 . S
C508 C509 1.379 . S
C508 H526 0.952 . S
C509 C508 1.379 . S
C509 C510 1.390 . S
C509 H536 0.949 . S
C510 C509 1.390 . S
C510 C511 1.357 . S
C511 C510 1.357 . S
C511 C512 1.370 . S
C511 H537 0.950 . S
C512 N507 1.307 . S
C512 C511 1.370 . S
C512 H530 0.948 . S
Zn513 N507 2.020 . S
Zn513 O522 2.039 . S
Zn513 O528 2.034 . S
Zn513 O532 2.025 . S
Zn513 O534 2.024 . S
C514 O533 1.246 . S
C514 O534 1.249 . S
N515 C516 1.307 . S
N515 C517 1.333 . S
N515 Zn521 2.020 . S
C516 N515 1.307 . S
C516 C520 1.370 . S
C516 H527 0.948 . S
C517 N515 1.333 . S
C517 C518 1.379 . S
C517 H525 0.952 . S
C518 C517 1.379 . S
C518 C519 1.390 . S
C518 H538 0.949 . S
C519 C518 1.390 . S
C519 C520 1.357 . S
C520 C516 1.370 . S
C520 C519 1.357 . S
C520 H539 0.950 . S
Zn521 N515 2.020 . S
Zn521 O524 2.025 . S
Zn521 O529 2.024 . S
Zn521 O531 2.039 . S
Zn521 O533 2.034 . S
O522 C506 1.251 . S
O522 Zn513 2.039 . S
C523 O528 1.246 . S
C523 O529 1.249 . S
O524 C506 1.254 . S
O524 Zn521 2.025 . S
H525 C517 0.952 . S
H526 C508 0.952 . S
H527 C516 0.948 . S
O528 Zn513 2.034 . S
O528 C523 1.246 . S
O529 Zn521 2.024 . S
O529 C523 1.249 . S
H530 C512 0.948 . S
O531 Zn521 2.039 . S
O531 C535 1.251 . S
O532 Zn513 2.025 . S
O532 C535 1.254 . S
O533 C514 1.246 . S
O533 Zn521 2.034 . S
O534 Zn513 2.024 . S
O534 C514 1.249 . S
C535 O531 1.251 . S
C535 O532 1.254 . S
H536 C509 0.949 . S
H537 C511 0.950 . S
H538 C518 0.949 . S
H539 C520 0.950 . S
C540 O556 1.251 . S
C540 O558 1.254 . S
N541 C542 1.333 . S
N541 C546 1.307 . S
N541 Zn547 2.020 . S
C542 N541 1.333 . S
C542 C543 1.379 . S
C542 H560 0.952 . S
C543 C542 1.379 . S
C543 C544 1.390 . S
C543 H570 0.949 . S
C544 C543 1.390 . S
C544 C545 1.357 . S
C545 C544 1.357 . S
C545 C546 1.370 . S
C545 H571 0.950 . S
C546 N541 1.307 . S
C546 C545 1.370 . S
C546 H564 0.948 . S
Zn547 N541 2.020 . S
Zn547 O556 2.039 1_545 S
Zn547 O562 2.034 . S
Zn547 O566 2.025 . S
Zn547 O568 2.024 . S
C548 O567 1.246 . S
C548 O568 1.249 1_565 S
N549 C550 1.307 . S
N549 C551 1.333 1_565 S
N549 Zn555 2.020 1_556 S
C550 N549 1.307 . S
C550 C554 1.370 . S
C550 H561 0.948 . S
C551 N549 1.333 1_545 S
C551 C552 1.379 1_545 S
C551 H559 0.952 . S
C552 C551 1.379 1_565 S
C552 C553 1.390 . S
C552 H572 0.949 1_565 S
C553 C552 1.390 . S
C553 C554 1.357 . S
C554 C550 1.370 . S
C554 C553 1.357 . S
C554 H573 0.950 . S
Zn555 N549 2.020 1_554 S
Zn555 O558 2.025 . S
Zn555 O563 2.024 1_565 S
Zn555 O565 2.039 1_564 S
Zn555 O567 2.034 . S
O556 C540 1.251 . S
O556 Zn547 2.039 1_565 S
C557 O562 1.246 . S
C557 O563 1.249 . S
O558 C540 1.254 . S
O558 Zn555 2.025 . S
H559 C551 0.952 . S
H560 C542 0.952 . S
H561 C550 0.948 . S
O562 Zn547 2.034 . S
O562 C557 1.246 . S
O563 Zn555 2.024 1_545 S
O563 C557 1.249 . S
H564 C546 0.948 . S
O565 Zn555 2.039 1_546 S
O565 C569 1.251 1_556 S
O566 Zn547 2.025 . S
O566 C569 1.254 . S
O567 C548 1.246 . S
O567 Zn555 2.034 . S
O568 Zn547 2.024 . S
O568 C548 1.249 1_545 S
C569 O565 1.251 1_554 S
C569 O566 1.254 . S
H570 C543 0.949 . S
H571 C545 0.950 . S
H572 C552 0.949 1_545 S
H573 C554 0.950 . S
C574 O590 1.251 . S
C574 O592 1.254 . S
N575 C576 1.333 . S
N575 C580 1.307 . S
N575 Zn581 2.020 . S
C576 N575 1.333 . S
C576 C577 1.379 . S
C576 H594 0.952 . S
C577 C576 1.379 . S
C577 C578 1.390 . S
C577 H604 0.949 . S
C578 C577 1.390 . S
C578 C579 1.357 . S
C579 C578 1.357 . S
C579 C580 1.370 . S
C579 H605 0.950 . S
C580 N575 1.307 . S
C580 C579 1.370 . S
C580 H598 0.948 . S
Zn581 N575 2.020 . S
Zn581 O590 2.039 . S
Zn581 O596 2.034 . S
Zn581 O600 2.025 . S
Zn581 O602 2.024 . S
C582 O601 1.246 . S
C582 O602 1.249 . S
N583 C584 1.307 . S
N583 C585 1.333 . S
N583 Zn589 2.020 . S
C584 N583 1.307 . S
C584 C588 1.370 . S
C584 H595 0.948 . S
C585 N583 1.333 . S
C585 C586 1.379 . S
C585 H593 0.952 . S
C586 C585 1.379 . S
C586 C587 1.390 . S
C586 H606 0.949 . S
C587 C586 1.390 . S
C587 C588 1.357 . S
C588 C584 1.370 . S
C588 C587 1.357 . S
C588 H607 0.950 . S
Zn589 N583 2.020 . S
Zn589 O592 2.025 . S
Zn589 O597 2.024 . S
Zn589 O599 2.039 . S
Zn589 O601 2.034 . S
O590 C574 1.251 . S
O590 Zn581 2.039 . S
C591 O596 1.246 . S
C591 O597 1.249 . S
O592 C574 1.254 . S
O592 Zn589 2.025 . S
H593 C585 0.952 . S
H594 C576 0.952 . S
H595 C584 0.948 . S
O596 Zn581 2.034 . S
O596 C591 1.246 . S
O597 Zn589 2.024 . S
O597 C591 1.249 . S
H598 C580 0.948 . S
O599 Zn589 2.039 . S
O599 C603 1.251 . S
O600 Zn581 2.025 . S
O600 C603 1.254 . S
O601 C582 1.246 . S
O601 Zn589 2.034 . S
O602 Zn581 2.024 . S
O602 C582 1.249 . S
C603 O599 1.251 . S
C603 O600 1.254 . S
H604 C577 0.949 . S
H605 C579 0.950 . S
H606 C586 0.949 . S
H607 C588 0.950 . S
C608 O624 1.251 . S
C608 O626 1.254 . S
N609 C610 1.333 . S
N609 C614 1.307 . S
N609 Zn615 2.020 1_556 S
C610 N609 1.333 . S
C610 C611 1.379 . S
C610 H628 0.952 . S
C611 C610 1.379 . S
C611 C612 1.390 . S
C611 H638 0.949 . S
C612 C611 1.390 . S
C612 C613 1.357 . S
C613 C612 1.357 . S
C613 C614 1.370 . S
C613 H639 0.950 . S
C614 N609 1.307 . S
C614 C613 1.370 . S
C614 H632 0.948 . S
Zn615 N609 2.020 1_554 S
Zn615 O624 2.039 . S
Zn615 O630 2.034 . S
Zn615 O634 2.025 1_554 S
Zn615 O636 2.024 1_554 S
C616 O635 1.246 . S
C616 O636 1.249 1_554 S
N617 C618 1.307 . S
N617 C619 1.333 . S
N617 Zn623 2.020 . S
C618 N617 1.307 . S
C618 C622 1.370 . S
C618 H629 0.948 . S
C619 N617 1.333 . S
C619 C620 1.379 . S
C619 H627 0.952 . S
C620 C619 1.379 . S
C620 C621 1.390 . S
C620 H640 0.949 . S
C621 C620 1.390 . S
C621 C622 1.357 . S
C622 C618 1.370 . S
C622 C621 1.357 . S
C622 H641 0.950 . S
Zn623 N617 2.020 . S
Zn623 O626 2.025 . S
Zn623 O631 2.024 . S
Zn623 O633 2.039 . S
Zn623 O635 2.034 . S
O624 C608 1.251 . S
O624 Zn615 2.039 . S
C625 O630 1.246 . S
C625 O631 1.249 . S
O626 C608 1.254 . S
O626 Zn623 2.025 . S
H627 C619 0.952 . S
H628 C610 0.952 . S
H629 C618 0.948 . S
O630 Zn615 2.034 . S
O630 C625 1.246 . S
O631 Zn623 2.024 . S
O631 C625 1.249 . S
H632 C614 0.948 . S
O633 Zn623 2.039 . S
O633 C637 1.251 . S
O634 Zn615 2.025 1_556 S
O634 C637 1.254 1_556 S
O635 C616 1.246 . S
O635 Zn623 2.034 . S
O636 Zn615 2.024 1_556 S
O636 C616 1.249 1_556 S
C637 O633 1.251 . S
C637 O634 1.254 1_554 S
H638 C611 0.949 . S
H639 C613 0.950 . S
H640 C620 0.949 . S
H641 C622 0.950 . S
C642 O658 1.251 . S
C642 O660 1.254 . S
N643 C644 1.333 . S
N643 C648 1.307 . S
N643 Zn649 2.020 . S
C644 N643 1.333 . S
C644 C645 1.379 . S
C644 H662 0.952 . S
C645 C644 1.379 . S
C645 C646 1.390 1_655 S
C645 H672 0.949 . S
C646 C645 1.390 1_455 S
C646 C647 1.357 . S
C647 C646 1.357 . S
C647 C648 1.370 1_455 S
C647 H673 0.950 . S
C648 N643 1.307 . S
C648 C647 1.370 1_655 S
C648 H666 0.948 . S
Zn649 N643 2.020 . S
Zn649 O658 2.039 . S
Zn649 O664 2.034 . S
Zn649 O668 2.025 . S
Zn649 O670 2.024 . S
C650 O669 1.246 . S
C650 O670 1.249 . S
N651 C652 1.307 . S
N651 C653 1.333 . S
N651 Zn657 2.020 . S
C652 N651 1.307 . S
C652 C656 1.370 . S
C652 H663 0.948 . S
C653 N651 1.333 . S
C653 C654 1.379 . S
C653 H661 0.952 . S
C654 C653 1.379 . S
C654 C655 1.390 . S
C654 H674 0.949 . S
C655 C654 1.390 . S
C655 C656 1.357 . S
C656 C652 1.370 . S
C656 C655 1.357 . S
C656 H675 0.950 . S
Zn657 N651 2.020 . S
Zn657 O660 2.025 . S
Zn657 O665 2.024 . S
Zn657 O667 2.039 . S
Zn657 O669 2.034 . S
O658 C642 1.251 . S
O658 Zn649 2.039 . S
C659 O664 1.246 . S
C659 O665 1.249 . S
O660 C642 1.254 . S
O660 Zn657 2.025 . S
H661 C653 0.952 . S
H662 C644 0.952 . S
H663 C652 0.948 . S
O664 Zn649 2.034 . S
O664 C659 1.246 . S
O665 Zn657 2.024 . S
O665 C659 1.249 . S
H666 C648 0.948 . S
O667 Zn657 2.039 . S
O667 C671 1.251 . S
O668 Zn649 2.025 . S
O668 C671 1.254 . S
O669 C650 1.246 . S
O669 Zn657 2.034 . S
O670 Zn649 2.024 . S
O670 C650 1.249 . S
C671 O667 1.251 . S
C671 O668 1.254 . S
H672 C645 0.949 . S
H673 C647 0.950 . S
H674 C654 0.949 . S
H675 C656 0.950 . S
C676 O692 1.251 . S
C676 O694 1.254 . S
N677 C678 1.333 . S
N677 C682 1.307 . S
N677 Zn683 2.020 . S
C678 N677 1.333 . S
C678 C679 1.379 . S
C678 H696 0.952 . S
C679 C678 1.379 . S
C679 C680 1.390 . S
C679 H706 0.949 . S
C680 C679 1.390 . S
C680 C681 1.357 . S
C681 C680 1.357 . S
C681 C682 1.370 . S
C681 H707 0.950 . S
C682 N677 1.307 . S
C682 C681 1.370 . S
C682 H700 0.948 . S
Zn683 N677 2.020 . S
Zn683 O692 2.039 . S
Zn683 O698 2.034 . S
Zn683 O702 2.025 . S
Zn683 O704 2.024 . S
C684 O703 1.246 . S
C684 O704 1.249 . S
N685 C686 1.307 1_455 S
N685 C687 1.333 . S
N685 Zn691 2.020 . S
C686 N685 1.307 1_655 S
C686 C690 1.370 . S
C686 H697 0.948 . S
C687 N685 1.333 . S
C687 C688 1.379 . S
C687 H695 0.952 . S
C688 C687 1.379 . S
C688 C689 1.390 1_455 S
C688 H708 0.949 . S
C689 C688 1.390 1_655 S
C689 C690 1.357 . S
C690 C686 1.370 . S
C690 C689 1.357 . S
C690 H709 0.950 . S
Zn691 N685 2.020 . S
Zn691 O694 2.025 . S
Zn691 O699 2.024 1_455 S
Zn691 O701 2.039 . S
Zn691 O703 2.034 . S
O692 C676 1.251 . S
O692 Zn683 2.039 . S
C693 O698 1.246 1_655 S
C693 O699 1.249 . S
O694 C676 1.254 . S
O694 Zn691 2.025 . S
H695 C687 0.952 . S
H696 C678 0.952 . S
H697 C686 0.948 . S
O698 Zn683 2.034 . S
O698 C693 1.246 1_455 S
O699 Zn691 2.024 1_655 S
O699 C693 1.249 . S
H700 C682 0.948 . S
O701 Zn691 2.039 . S
O701 C705 1.251 . S
O702 Zn683 2.025 . S
O702 C705 1.254 . S
O703 C684 1.246 . S
O703 Zn691 2.034 . S
O704 Zn683 2.024 . S
O704 C684 1.249 . S
C705 O701 1.251 . S
C705 O702 1.254 . S
H706 C679 0.949 . S
H707 C681 0.950 . S
H708 C688 0.949 . S
H709 C690 0.950 . S
C710 O726 1.251 . S
C710 O728 1.254 . S
N711 C712 1.333 . S
N711 C716 1.307 . S
N711 Zn717 2.020 . S
C712 N711 1.333 . S
C712 C713 1.379 . S
C712 H730 0.952 . S
C713 C712 1.379 . S
C713 C714 1.390 . S
C713 H740 0.949 . S
C714 C713 1.390 . S
C714 C715 1.357 . S
C715 C714 1.357 . S
C715 C716 1.370 . S
C715 H741 0.950 . S
C716 N711 1.307 . S
C716 C715 1.370 . S
C716 H734 0.948 . S
Zn717 N711 2.020 . S
Zn717 O726 2.039 . S
Zn717 O732 2.034 . S
Zn717 O736 2.025 . S
Zn717 O738 2.024 . S
C718 O737 1.246 . S
C718 O738 1.249 . S
N719 C720 1.307 . S
N719 C721 1.333 . S
N719 Zn725 2.020 . S
C720 N719 1.307 . S
C720 C724 1.370 . S
C720 H731 0.948 . S
C721 N719 1.333 . S
C721 C722 1.379 . S
C721 H729 0.952 . S
C722 C721 1.379 . S
C722 C723 1.390 . S
C722 H742 0.949 . S
C723 C722 1.390 . S
C723 C724 1.357 . S
C724 C720 1.370 . S
C724 C723 1.357 . S
C724 H743 0.950 . S
Zn725 N719 2.020 . S
Zn725 O728 2.025 . S
Zn725 O733 2.024 . S
Zn725 O735 2.039 . S
Zn725 O737 2.034 . S
O726 C710 1.251 . S
O726 Zn717 2.039 . S
C727 O732 1.246 . S
C727 O733 1.249 . S
O728 C710 1.254 . S
O728 Zn725 2.025 . S
H729 C721 0.952 . S
H730 C712 0.952 . S
H731 C720 0.948 . S
O732 Zn717 2.034 . S
O732 C727 1.246 . S
O733 Zn725 2.024 . S
O733 C727 1.249 . S
H734 C716 0.948 . S
O735 Zn725 2.039 . S
O735 C739 1.251 . S
O736 Zn717 2.025 . S
O736 C739 1.254 . S
O737 C718 1.246 . S
O737 Zn725 2.034 . S
O738 Zn717 2.024 . S
O738 C718 1.249 . S
C739 O735 1.251 . S
C739 O736 1.254 . S
H740 C713 0.949 . S
H741 C715 0.950 . S
H742 C722 0.949 . S
H743 C724 0.950 . S
C744 O760 1.251 . S
C744 O762 1.254 . S
N745 C746 1.333 . S
N745 C750 1.307 . S
N745 Zn751 2.020 . S
C746 N745 1.333 . S
C746 C747 1.379 . S
C746 H764 0.952 . S
C747 C746 1.379 . S
C747 C748 1.390 . S
C747 H774 0.949 . S
C748 C747 1.390 . S
C748 C749 1.357 . S
C749 C748 1.357 . S
C749 C750 1.370 . S
C749 H775 0.950 . S
C750 N745 1.307 . S
C750 C749 1.370 . S
C750 H768 0.948 . S
Zn751 N745 2.020 . S
Zn751 O760 2.039 . S
Zn751 O766 2.034 . S
Zn751 O770 2.025 . S
Zn751 O772 2.024 . S
C752 O771 1.246 . S
C752 O772 1.249 . S
N753 C754 1.307 . S
N753 C755 1.333 . S
N753 Zn759 2.020 . S
C754 N753 1.307 . S
C754 C758 1.370 . S
C754 H765 0.948 . S
C755 N753 1.333 . S
C755 C756 1.379 . S
C755 H763 0.952 . S
C756 C755 1.379 . S
C756 C757 1.390 . S
C756 H776 0.949 . S
C757 C756 1.390 . S
C757 C758 1.357 . S
C758 C754 1.370 . S
C758 C757 1.357 . S
C758 H777 0.950 . S
Zn759 N753 2.020 . S
Zn759 O762 2.025 . S
Zn759 O767 2.024 . S
Zn759 O769 2.039 . S
Zn759 O771 2.034 . S
O760 C744 1.251 . S
O760 Zn751 2.039 . S
C761 O766 1.246 . S
C761 O767 1.249 . S
O762 C744 1.254 . S
O762 Zn759 2.025 . S
H763 C755 0.952 . S
H764 C746 0.952 . S
H765 C754 0.948 . S
O766 Zn751 2.034 . S
O766 C761 1.246 . S
O767 Zn759 2.024 . S
O767 C761 1.249 . S
H768 C750 0.948 . S
O769 Zn759 2.039 . S
O769 C773 1.251 . S
O770 Zn751 2.025 . S
O770 C773 1.254 . S
O771 C752 1.246 . S
O771 Zn759 2.034 . S
O772 Zn751 2.024 . S
O772 C752 1.249 . S
C773 O769 1.251 . S
C773 O770 1.254 . S
H774 C747 0.949 . S
H775 C749 0.950 . S
H776 C756 0.949 . S
H777 C758 0.950 . S
C778 O794 1.251 . S
C778 O796 1.254 . S
N779 C780 1.333 . S
N779 C784 1.307 . S
N779 Zn785 2.020 . S
C780 N779 1.333 . S
C780 C781 1.379 . S
C780 H798 0.952 . S
C781 C780 1.379 . S
C781 C782 1.390 . S
C781 H808 0.949 . S
C782 C781 1.390 . S
C782 C783 1.357 . S
C783 C782 1.357 . S
C783 C784 1.370 . S
C783 H809 0.950 . S
C784 N779 1.307 . S
C784 C783 1.370 . S
C784 H802 0.948 . S
Zn785 N779 2.020 . S
Zn785 O794 2.039 . S
Zn785 O800 2.034 . S
Zn785 O804 2.025 . S
Zn785 O806 2.024 . S
C786 O805 1.246 . S
C786 O806 1.249 . S
N787 C788 1.307 . S
N787 C789 1.333 . S
N787 Zn793 2.020 . S
C788 N787 1.307 . S
C788 C792 1.370 . S
C788 H799 0.948 . S
C789 N787 1.333 . S
C789 C790 1.379 . S
C789 H797 0.952 . S
C790 C789 1.379 . S
C790 C791 1.390 . S
C790 H810 0.949 . S
C791 C790 1.390 . S
C791 C792 1.357 . S
C792 C788 1.370 . S
C792 C791 1.357 . S
C792 H811 0.950 . S
Zn793 N787 2.020 . S
Zn793 O796 2.025 . S
Zn793 O801 2.024 . S
Zn793 O803 2.039 . S
Zn793 O805 2.034 . S
O794 C778 1.251 . S
O794 Zn785 2.039 . S
C795 O800 1.246 . S
C795 O801 1.249 . S
O796 C778 1.254 . S
O796 Zn793 2.025 . S
H797 C789 0.952 . S
H798 C780 0.952 . S
H799 C788 0.948 . S
O800 Zn785 2.034 . S
O800 C795 1.246 . S
O801 Zn793 2.024 . S
O801 C795 1.249 . S
H802 C784 0.948 . S
O803 Zn793 2.039 . S
O803 C807 1.251 . S
O804 Zn785 2.025 . S
O804 C807 1.254 . S
O805 C786 1.246 . S
O805 Zn793 2.034 . S
O806 Zn785 2.024 . S
O806 C786 1.249 . S
C807 O803 1.251 . S
C807 O804 1.254 . S
H808 C781 0.949 . S
H809 C783 0.950 . S
H810 C790 0.949 . S
H811 C792 0.950 . S
C812 O828 1.251 . S
C812 O830 1.254 . S
N813 C814 1.333 . S
N813 C818 1.307 . S
N813 Zn819 2.020 . S
C814 N813 1.333 . S
C814 C815 1.379 . S
C814 H832 0.952 . S
C815 C814 1.379 . S
C815 C816 1.390 . S
C815 H842 0.949 . S
C816 C815 1.390 . S
C816 C817 1.357 . S
C817 C816 1.357 . S
C817 C818 1.370 . S
C817 H843 0.950 . S
C818 N813 1.307 . S
C818 C817 1.370 . S
C818 H836 0.948 . S
Zn819 N813 2.020 . S
Zn819 O828 2.039 . S
Zn819 O834 2.034 . S
Zn819 O838 2.025 . S
Zn819 O840 2.024 . S
C820 O839 1.246 . S
C820 O840 1.249 . S
N821 C822 1.307 . S
N821 C823 1.333 . S
N821 Zn827 2.020 . S
C822 N821 1.307 . S
C822 C826 1.370 . S
C822 H833 0.948 . S
C823 N821 1.333 . S
C823 C824 1.379 . S
C823 H831 0.952 . S
C824 C823 1.379 . S
C824 C825 1.390 . S
C824 H844 0.949 . S
C825 C824 1.390 . S
C825 C826 1.357 . S
C826 C822 1.370 . S
C826 C825 1.357 . S
C826 H845 0.950 . S
Zn827 N821 2.020 . S
Zn827 O830 2.025 . S
Zn827 O835 2.024 . S
Zn827 O837 2.039 . S
Zn827 O839 2.034 . S
O828 C812 1.251 . S
O828 Zn819 2.039 . S
C829 O834 1.246 . S
C829 O835 1.249 . S
O830 C812 1.254 . S
O830 Zn827 2.025 . S
H831 C823 0.952 . S
H832 C814 0.952 . S
H833 C822 0.948 . S
O834 Zn819 2.034 . S
O834 C829 1.246 . S
O835 Zn827 2.024 . S
O835 C829 1.249 . S
H836 C818 0.948 . S
O837 Zn827 2.039 . S
O837 C841 1.251 . S
O838 Zn819 2.025 . S
O838 C841 1.254 . S
O839 C820 1.246 . S
O839 Zn827 2.034 . S
O840 Zn819 2.024 . S
O840 C820 1.249 . S
C841 O837 1.251 . S
C841 O838 1.254 . S
H842 C815 0.949 . S
H843 C817 0.950 . S
H844 C824 0.949 . S
H845 C826 0.950 . S
C846 O862 1.251 . S
C846 O864 1.254 . S
N847 C848 1.333 . S
N847 C852 1.307 . S
N847 Zn853 2.020 . S
C848 N847 1.333 . S
C848 C849 1.379 . S
C848 H866 0.952 . S
C849 C848 1.379 . S
C849 C850 1.390 . S
C849 H876 0.949 . S
C850 C849 1.390 . S
C850 C851 1.357 . S
C851 C850 1.357 . S
C851 C852 1.370 . S
C851 H877 0.950 . S
C852 N847 1.307 . S
C852 C851 1.370 . S
C852 H870 0.948 . S
Zn853 N847 2.020 . S
Zn853 O862 2.039 . S
Zn853 O868 2.034 . S
Zn853 O872 2.018 1_554 S
Zn853 O874 2.024 . S
C854 O873 1.246 . S
C854 O874 1.249 1_655 S
N855 C856 1.307 . S
N855 C857 1.333 1_554 S
N855 Zn861 2.020 . S
C856 N855 1.307 . S
C856 C860 1.370 . S
C856 H867 0.948 . S
C857 N855 1.333 1_556 S
C857 C858 1.379 1_455 S
C857 H865 0.952 . S
C858 C857 1.379 1_655 S
C858 C859 1.390 . S
C858 H878 0.949 . S
C859 C858 1.390 . S
C859 C860 1.357 1_656 S
C860 C856 1.370 . S
C860 C859 1.357 1_454 S
C860 H879 0.950 . S
Zn861 N855 2.020 . S
Zn861 O864 2.025 . S
Zn861 O869 2.024 . S
Zn861 O871 2.039 1_554 S
Zn861 O873 2.034 1_455 S
O862 C846 1.251 . S
O862 Zn853 2.039 . S
C863 O868 1.246 . S
C863 O869 1.249 . S
O864 C846 1.254 . S
O864 Zn861 2.025 . S
H865 C857 0.952 . S
H866 C848 0.952 . S
H867 C856 0.948 . S
O868 Zn853 2.034 . S
O868 C863 1.246 . S
O869 Zn861 2.024 . S
O869 C863 1.249 . S
H870 C852 0.948 . S
O871 Zn861 2.039 1_556 S
O871 C875 1.251 . S
O872 Zn853 2.018 1_556 S
O872 C875 1.259 . S
O873 C854 1.246 . S
O873 Zn861 2.034 1_655 S
O874 Zn853 2.024 . S
O874 C854 1.249 1_455 S
C875 O871 1.251 . S
C875 O872 1.259 . S
H876 C849 0.949 . S
H877 C851 0.950 . S
H878 C858 0.949 . S
H879 C860 0.950 . S
C353 C5 2.844 . S
C23 C399 2.739 . S
C39 C408 0.914 . S
C446 C42 2.244 . S
C19 C480 2.390 . S
C510 C28 0.741 . S
C569 C53 2.212 1_554 S
C9 C582 2.496 . S
C65 C365 2.265 1_545 S
C75 C383 1.833 . S
C404 C93 2.861 . S
C442 C109 2.875 . S
C56 C476 1.764 . S
C506 C81 2.486 . S
C553 C84 1.887 1_565 S
C578 C103 1.375 . S
C349 C107 1.382 . S
C608 C121 2.111 . S
C131 C650 2.610 . S
C693 C140 0.651 1_655 S
C61 C574 2.340 . S
C412 C70 2.402 . S
C137 C710 1.712 . S
C761 C165 2.044 . S
C173 C344 2.826 1_556 S
C744 C182 2.653 . S
C207 C417 0.975 . S
C219 C727 2.309 . S
C489 C187 2.350 . S
C655 C205 0.818 . S
C540 C221 2.178 . S
C795 C168 2.633 . S
C336 C224 2.345 1_445 S
C243 C748 1.805 . S
C433 C252 2.727 1_565 S
C277 C723 2.923 . S
C233 C485 1.915 1_545 S
C249 C671 2.518 . S
C544 C261 2.037 . S
C271 C791 1.333 . S
C266 C340 1.569 1_545 S
C280 C637 2.052 . S
C299 C523 2.571 . S
C317 C684 0.812 . S
C807 C229 2.353 . S
C421 C247 2.560 . S
C467 C305 1.639 . S
C378 C333 1.998 . S
C33 C829 2.844 . S
C773 C51 2.739 . S
C850 C11 0.914 . S
C14 C718 2.244 . S
C47 C616 2.391 1_556 S
C646 C0 0.741 . S
C705 C25 2.211 . S
C786 C37 2.496 . S
C841 C163 2.265 . S
C117 C757 1.833 1_554 S
C135 C846 2.861 1_655 S
C714 C151 2.875 . S
C612 C154 1.765 . S
C123 C642 2.486 . S
C689 C126 1.887 . S
C145 C782 1.376 . S
C825 C149 1.382 . S
C472 C79 2.111 . S
C514 C89 2.610 . S
C98 C557 0.650 . S
C778 C159 2.341 . S
C112 C854 2.402 . S
C438 C95 1.712 . S
C387 C67 2.044 . S
C201 C820 2.828 . S
C370 C210 2.654 . S
C859 C179 0.977 1_655 S
C191 C455 2.309 . S
C215 C625 2.349 . S
C177 C519 0.816 . S
C193 C676 2.178 . S
C196 C591 2.632 . S
C812 C322 2.345 . S
C285 C374 1.806 . S
C875 C294 2.727 . S
C319 C451 2.923 . S
C331 C621 1.914 . S
C535 C291 2.518 . S
C303 C680 2.037 . S
C587 C313 1.333 . S
C816 C308 1.569 . S
C501 C238 2.052 . S
C257 C659 2.571 . S
C548 C275 0.812 . S
C603 C327 2.353 . S
C289 C863 2.560 1_556 S
C739 C263 1.639 . S
C752 C235 1.998 . S
