# Generated by pormake.
# Topology pto, (3,4)-cn, num edge types: 1
# Building blocks:
#     Node 0, Type 0, BuildingBlock: OLANEW_clean_sbu_2, # of connection points: 3
#     Node 1, Type 0, BuildingBlock: OLANEW_clean_sbu_2, # of connection points: 3
#     Node 2, Type 0, BuildingBlock: OLANEW_clean_sbu_2, # of connection points: 3
#     Node 3, Type 0, BuildingBlock: OLANEW_clean_sbu_2, # of connection points: 3
#     Node 4, Type 0, BuildingBlock: OLANEW_clean_sbu_2, # of connection points: 3
#     Node 5, Type 0, BuildingBlock: OLANEW_clean_sbu_2, # of connection points: 3
#     Node 6, Type 0, BuildingBlock: OLANEW_clean_sbu_2, # of connection points: 3
#     Node 7, Type 0, BuildingBlock: OLANEW_clean_sbu_2, # of connection points: 3
#     Node 8, Type 1, BuildingBlock: KOZSID_clean_sbu_0, # of connection points: 4
#     Node 9, Type 1, BuildingBlock: KOZSID_clean_sbu_0, # of connection points: 4
#     Node 10, Type 1, BuildingBlock: KOZSID_clean_sbu_0, # of connection points: 4
#     Node 11, Type 1, BuildingBlock: KOZSID_clean_sbu_0, # of connection points: 4
#     Node 12, Type 1, BuildingBlock: KOZSID_clean_sbu_0, # of connection points: 4
#     Node 13, Type 1, BuildingBlock: KOZSID_clean_sbu_0, # of connection points: 4
#     Edge 14, Type (0, 1), BuildingBlock: XIVTED_clean_linker_0, # of connection points: 2
#     Edge 15, Type (0, 1), BuildingBlock: XIVTED_clean_linker_0, # of connection points: 2
#     Edge 16, Type (0, 1), BuildingBlock: XIVTED_clean_linker_0, # of connection points: 2
#     Edge 17, Type (0, 1), BuildingBlock: XIVTED_clean_linker_0, # of connection points: 2
#     Edge 18, Type (0, 1), BuildingBlock: XIVTED_clean_linker_0, # of connection points: 2
#     Edge 19, Type (0, 1), BuildingBlock: XIVTED_clean_linker_0, # of connection points: 2
#     Edge 20, Type (0, 1), BuildingBlock: XIVTED_clean_linker_0, # of connection points: 2
#     Edge 21, Type (0, 1), BuildingBlock: XIVTED_clean_linker_0, # of connection points: 2
#     Edge 22, Type (0, 1), BuildingBlock: XIVTED_clean_linker_0, # of connection points: 2
#     Edge 23, Type (0, 1), BuildingBlock: XIVTED_clean_linker_0, # of connection points: 2
#     Edge 24, Type (0, 1), BuildingBlock: XIVTED_clean_linker_0, # of connection points: 2
#     Edge 25, Type (0, 1), BuildingBlock: XIVTED_clean_linker_0, # of connection points: 2
#     Edge 26, Type (0, 1), BuildingBlock: XIVTED_clean_linker_0, # of connection points: 2
#     Edge 27, Type (0, 1), BuildingBlock: XIVTED_clean_linker_0, # of connection points: 2
#     Edge 28, Type (0, 1), BuildingBlock: XIVTED_clean_linker_0, # of connection points: 2
#     Edge 29, Type (0, 1), BuildingBlock: XIVTED_clean_linker_0, # of connection points: 2
#     Edge 30, Type (0, 1), BuildingBlock: XIVTED_clean_linker_0, # of connection points: 2
#     Edge 31, Type (0, 1), BuildingBlock: XIVTED_clean_linker_0, # of connection points: 2
#     Edge 32, Type (0, 1), BuildingBlock: XIVTED_clean_linker_0, # of connection points: 2
#     Edge 33, Type (0, 1), BuildingBlock: XIVTED_clean_linker_0, # of connection points: 2
#     Edge 34, Type (0, 1), BuildingBlock: XIVTED_clean_linker_0, # of connection points: 2
#     Edge 35, Type (0, 1), BuildingBlock: XIVTED_clean_linker_0, # of connection points: 2
#     Edge 36, Type (0, 1), BuildingBlock: XIVTED_clean_linker_0, # of connection points: 2
#     Edge 37, Type (0, 1), BuildingBlock: XIVTED_clean_linker_0, # of connection points: 2
# Relax obj value: 0.009
# Max RMSD: 0.121
# Mean RMSD: 0.052
data_MOF--net-pto--node1-OLANEW_clean_sbu_2--node2-KOZSID_clean_sbu_0--edge1-XIVTED_clean_linker_0
_symmetry_space_group_name_H-M    P1
_symmetry_Int_Tables_number       1
_symmetry_cell_setting            triclinic
loop_
_symmetry_equiv_pos_as_xyz
'x, y, z'
_cell_length_a     39.76098
_cell_length_b     55.93573
_cell_length_c     47.213532
_cell_angle_alpha  90.720521
_cell_angle_beta   87.01762
_cell_angle_gamma 108.59683
loop_
_atom_site_label
_atom_site_type_symbol
_atom_site_fract_x
_atom_site_fract_y
_atom_site_fract_z
_atom_type_partial_charge
O0 O 0.43081 0.35163 0.30168 0.0
Cd1 Cd 0.40421 0.34648 0.34992 0.0
O2 O 0.39407 0.37239 0.29399 0.0
Cd3 Cd 0.36773 0.3956 0.27279 0.0
O4 O 0.33367 0.41896 0.26753 0.0
C5 C 0.30569 0.41138 0.25363 0.0
O6 O 0.29788 0.38938 0.24095 0.0
C7 C 0.41832 0.36361 0.28459 0.0
C8 C 0.41169 0.30526 0.37826 0.0
O9 O 0.38672 0.30254 0.36119 0.0
O10 O 0.43339 0.32749 0.38178 0.0
O11 O 0.25875 0.91704 0.84879 0.0
Cd12 Cd 0.22306 0.93677 0.82291 0.0
O13 O 0.24737 0.88676 0.81729 0.0
Cd14 Cd 0.24645 0.84973 0.80124 0.0
O15 O 0.22678 0.81058 0.7872 0.0
C16 C 0.20274 0.80509 0.76926 0.0
O17 O 0.19209 0.8232 0.75943 0.0
C18 C 0.26254 0.89656 0.8396 0.0
C19 C 0.26197 0.96471 0.77681 0.0
O20 O 0.26083 0.97501 0.80109 0.0
O21 O 0.24469 0.9412 0.77436 0.0
O22 O 0.75293 0.74973 0.3856 0.0
Cd23 Cd 0.7299 0.70679 0.36718 0.0
O24 O 0.74103 0.76196 0.34466 0.0
Cd25 Cd 0.73651 0.78622 0.31 0.0
O26 O 0.72317 0.79775 0.26914 0.0
C27 C 0.70598 0.81326 0.26729 0.0
O28 O 0.69706 0.82342 0.29055 0.0
C29 C 0.75198 0.76752 0.36951 0.0
C30 C 0.78043 0.68239 0.35659 0.0
O31 O 0.77394 0.69627 0.33759 0.0
O32 O 0.76352 0.68046 0.38077 0.0
O33 O 0.77674 0.32352 0.64455 0.0
Cd34 Cd 0.73424 0.28261 0.63339 0.0
O35 O 0.76703 0.31544 0.69008 0.0
Cd36 Cd 0.76794 0.32554 0.73502 0.0
O37 O 0.75361 0.33468 0.77813 0.0
C38 C 0.737 0.35065 0.78065 0.0
O39 O 0.73072 0.36116 0.75763 0.0
C40 C 0.78242 0.33058 0.67003 0.0
C41 C 0.76221 0.24297 0.62721 0.0
O42 O 0.76389 0.25805 0.60657 0.0
O43 O 0.74805 0.24701 0.65105 0.0
O44 O 0.70952 0.76254 0.62149 0.0
Cd45 Cd 0.68788 0.7182 0.63559 0.0
O46 O 0.70197 0.77251 0.66574 0.0
Cd47 Cd 0.69741 0.7954 0.70288 0.0
O48 O 0.68592 0.80893 0.74478 0.0
C49 C 0.65456 0.8091 0.75121 0.0
O50 O 0.63047 0.80199 0.73211 0.0
C51 C 0.71125 0.77942 0.64014 0.0
C52 C 0.74296 0.69902 0.64495 0.0
O53 O 0.72966 0.69721 0.62056 0.0
O54 O 0.73028 0.70998 0.66482 0.0
O55 O 0.88522 0.27535 0.30266 0.0
Cd56 Cd 0.85539 0.23066 0.29305 0.0
O57 O 0.83819 0.27934 0.28413 0.0
Cd58 Cd 0.80004 0.29622 0.26834 0.0
O59 O 0.76488 0.3096 0.24339 0.0
C60 C 0.77803 0.32689 0.22498 0.0
O61 O 0.81272 0.33697 0.22199 0.0
C62 C 0.8683 0.28965 0.2946 0.0
C63 C 0.85468 0.1965 0.33572 0.0
O64 O 0.87885 0.20168 0.31561 0.0
O65 O 0.83148 0.20802 0.33608 0.0
O66 O 0.21522 0.34394 0.84952 0.0
Cd67 Cd 0.15805 0.33162 0.8277 0.0
O68 O 0.23725 0.3276 0.81369 0.0
Cd69 Cd 0.27688 0.31689 0.78719 0.0
O70 O 0.30201 0.29617 0.75827 0.0
C71 C 0.28664 0.27252 0.75705 0.0
O72 O 0.2579 0.26238 0.77338 0.0
C73 C 0.24142 0.3389 0.83743 0.0
C74 C 0.14475 0.37384 0.80693 0.0
O75 O 0.13691 0.36688 0.83286 0.0
O76 O 0.15868 0.36066 0.79064 0.0
O77 O 0.46788 0.8582 0.30156 0.0
Cd78 Cd 0.45841 0.85425 0.353 0.0
O79 O 0.41525 0.83013 0.29977 0.0
Cd80 Cd 0.36968 0.80209 0.28162 0.0
O81 O 0.32203 0.76985 0.27591 0.0
C82 C 0.32423 0.74778 0.27809 0.0
O83 O 0.35524 0.74522 0.28259 0.0
C84 C 0.44303 0.84462 0.28688 0.0
C85 C 0.44999 0.89747 0.37797 0.0
O86 O 0.48047 0.89415 0.3761 0.0
O87 O 0.42355 0.88039 0.36792 0.0
C88 C 0.09284 0.58597 0.31801 0.0
C89 C 0.10926 0.59648 0.34252 0.0
C90 C 0.09303 0.58037 0.36421 0.0
C91 C 0.0677 0.56106 0.35179 0.0
N92 N 0.06645 0.56398 0.32348 0.0
Co93 Co 0.03439 0.54004 0.29689 0.0
N94 N 0.01313 0.51513 0.32827 0.0
C95 C 0.01952 0.51821 0.35618 0.0
C96 C 0.00109 0.49772 0.37256 0.0
C97 C 0.9822 0.48033 0.35398 0.0
C98 C 0.99045 0.49123 0.3272 0.0
N99 N 0.00282 0.51581 0.27023 0.0
C100 C 0.98195 0.49155 0.27449 0.0
C101 C 0.96687 0.48072 0.24959 0.0
C102 C 0.9785 0.49873 0.22897 0.0
C103 C 0.00022 0.51937 0.24223 0.0
N104 N 0.05554 0.56504 0.26553 0.0
C105 C 0.04619 0.56316 0.23825 0.0
C106 C 0.06589 0.58303 0.22151 0.0
C107 C 0.08944 0.5985 0.23907 0.0
C108 C 0.08261 0.58714 0.26566 0.0
N109 N 0.07155 0.52396 0.28887 0.0
C110 C 0.12506 0.50164 0.27774 0.0
C111 C 0.10736 0.50791 0.25562 0.0
C112 C 0.08097 0.51908 0.26161 0.0
C113 C 0.1153 0.50656 0.30551 0.0
C114 C 0.08863 0.51755 0.31057 0.0
N115 N 0.99703 0.5564 0.30498 0.0
C116 C 0.9534 0.57437 0.28874 0.0
C117 C 0.94691 0.58204 0.31618 0.0
C118 C 0.96541 0.57619 0.33797 0.0
C119 C 0.98993 0.56344 0.33198 0.0
C120 C 0.97824 0.56167 0.28369 0.0
H121 H 0.00296 0.55983 0.34965 0.0
H122 H 0.98177 0.55647 0.26232 0.0
H123 H 0.06861 0.5237 0.24389 0.0
H124 H 0.08218 0.52068 0.3322 0.0
C125 C 0.04535 0.53962 0.36595 0.0
C126 C 0.10345 0.59752 0.29006 0.0
C127 C 0.97715 0.47778 0.30131 0.0
C128 C 0.02072 0.5416 0.2285 0.0
H129 H 0.13092 0.61392 0.34448 0.0
H130 H 0.09927 0.58234 0.38634 0.0
H131 H 0.00218 0.49537 0.39519 0.0
H132 H 0.96493 0.46153 0.35943 0.0
H133 H 0.95005 0.46159 0.24625 0.0
H134 H 0.97292 0.49669 0.20671 0.0
H135 H 0.06405 0.58559 0.19902 0.0
H136 H 0.1098 0.61591 0.23282 0.0
H137 H 0.11421 0.50461 0.23374 0.0
H138 H 0.12788 0.50166 0.32338 0.0
H139 H 0.93926 0.57801 0.27114 0.0
H140 H 0.96167 0.58188 0.3596 0.0
C141 C 0.03759 0.61262 0.75111 0.0
C142 C 0.03711 0.62238 0.77827 0.0
C143 C 0.0098 0.6056 0.79342 0.0
C144 C 0.99512 0.58666 0.77475 0.0
N145 N 0.01156 0.5902 0.74857 0.0
Co146 Co 0.99815 0.56768 0.71471 0.0
N147 N 0.95691 0.54359 0.73675 0.0
C148 C 0.94615 0.54586 0.76404 0.0
C149 C 0.91709 0.52634 0.77336 0.0
C150 C 0.90896 0.51044 0.7508 0.0
C151 C 0.93381 0.52118 0.72899 0.0
N152 N 0.98483 0.54507 0.68092 0.0
C153 C 0.95934 0.52236 0.67856 0.0
C154 C 0.96033 0.51239 0.65154 0.0
C155 C 0.98728 0.52937 0.6363 0.0
C156 C 0.00135 0.54859 0.65478 0.0
N157 N 0.03932 0.59179 0.69268 0.0
C158 C 0.04977 0.58971 0.66528 0.0
C159 C 0.0787 0.60931 0.65591 0.0
C160 C 0.0871 0.62505 0.67858 0.0
C161 C 0.06258 0.6141 0.70052 0.0
N162 N 0.02913 0.54827 0.72639 0.0
C163 C 0.06794 0.51676 0.74236 0.0
C164 C 0.07113 0.52603 0.71465 0.0
C165 C 0.0517 0.54169 0.7072 0.0
C166 C 0.04598 0.52432 0.7621 0.0
C167 C 0.02722 0.54003 0.75379 0.0
N168 N 0.96699 0.58699 0.70302 0.0
C169 C 0.94559 0.60811 0.66695 0.0
C170 C 0.92273 0.61457 0.68687 0.0
C171 C 0.9224 0.60692 0.71494 0.0
C172 C 0.94454 0.59336 0.72247 0.0
C173 C 0.96733 0.59444 0.67542 0.0
H174 H 0.94289 0.58823 0.74418 0.0
H175 H 0.98425 0.5902 0.65928 0.0
H176 H 0.05496 0.54788 0.68572 0.0
H177 H 0.0107 0.54475 0.76983 0.0
C178 C 0.96487 0.56598 0.78079 0.0
C179 C 0.06214 0.62592 0.72815 0.0
C180 C 0.93481 0.50904 0.70157 0.0
C181 C 0.03126 0.56945 0.64867 0.0
H182 H 0.05422 0.64007 0.78622 0.0
H183 H 0.00115 0.60728 0.81526 0.0
H184 H 0.90379 0.52374 0.79423 0.0
H185 H 0.88744 0.49276 0.75056 0.0
H186 H 0.94387 0.49443 0.64373 0.0
H187 H 0.9962 0.52759 0.61455 0.0
H188 H 0.09183 0.612 0.63498 0.0
H189 H 0.10862 0.64273 0.67888 0.0
H190 H 0.08832 0.52112 0.69868 0.0
H191 H 0.0422 0.5175 0.78378 0.0
H192 H 0.94708 0.61381 0.64496 0.0
H193 H 0.90473 0.61102 0.73113 0.0
C194 C 0.40404 0.08051 0.5955 0.0
C195 C 0.43224 0.07978 0.61121 0.0
C196 C 0.46196 0.09701 0.59927 0.0
C197 C 0.45028 0.10718 0.577 0.0
N198 N 0.41489 0.09736 0.57385 0.0
Co199 Co 0.38673 0.10679 0.54436 0.0
N200 N 0.42967 0.13429 0.52902 0.0
C201 C 0.46317 0.14039 0.53792 0.0
C202 C 0.48691 0.16039 0.52363 0.0
C203 C 0.46735 0.16777 0.50471 0.0
C204 C 0.43263 0.15183 0.50867 0.0
N205 N 0.35862 0.11603 0.51468 0.0
C206 C 0.36831 0.13527 0.49564 0.0
C207 C 0.33999 0.13549 0.47968 0.0
C208 C 0.31158 0.11564 0.4888 0.0
C209 C 0.32392 0.10455 0.50984 0.0
N210 N 0.34358 0.07966 0.56014 0.0
C211 C 0.31033 0.073 0.55062 0.0
C212 C 0.28589 0.05453 0.56644 0.0
C213 C 0.30449 0.04917 0.58756 0.0
C214 C 0.33945 0.06468 0.58325 0.0
N215 N 0.37566 0.13121 0.57096 0.0
C216 C 0.35871 0.16353 0.61137 0.0
C217 C 0.33287 0.14834 0.59415 0.0
C218 C 0.34188 0.13255 0.57416 0.0
C219 C 0.39346 0.16286 0.6074 0.0
C220 C 0.40129 0.14665 0.58724 0.0
N221 N 0.39785 0.08206 0.51777 0.0
C222 C 0.37813 0.0454 0.48762 0.0
C223 C 0.41287 0.04489 0.4829 0.0
C224 C 0.44006 0.06381 0.4953 0.0
C225 C 0.43204 0.08194 0.51253 0.0
C226 C 0.37135 0.06406 0.50471 0.0
H227 H 0.45404 0.09549 0.52146 0.0
H228 H 0.34434 0.06322 0.50724 0.0
H229 H 0.32101 0.1214 0.56171 0.0
H230 H 0.42812 0.14661 0.58546 0.0
C231 C 0.47136 0.12719 0.56006 0.0
C232 C 0.36743 0.06507 0.6022 0.0
C233 C 0.40339 0.15434 0.49281 0.0
C234 C 0.3027 0.08495 0.52719 0.0
H235 H 0.43131 0.06819 0.62961 0.0
H236 H 0.48876 0.10197 0.60639 0.0
H237 H 0.51501 0.16877 0.5268 0.0
H238 H 0.47746 0.18327 0.48981 0.0
H239 H 0.33941 0.14893 0.46362 0.0
H240 H 0.28477 0.11048 0.48167 0.0
H241 H 0.25776 0.04628 0.56331 0.0
H242 H 0.29336 0.03565 0.60447 0.0
H243 H 0.30573 0.14861 0.59606 0.0
H244 H 0.41435 0.17426 0.62031 0.0
H245 H 0.35592 0.03111 0.47878 0.0
H246 H 0.46758 0.06471 0.49183 0.0
C247 C 0.49664 0.86829 0.0586 0.0
C248 C 0.49844 0.89231 0.06765 0.0
C249 C 0.52064 0.90874 0.04843 0.0
C250 C 0.53097 0.89381 0.02881 0.0
N251 N 0.51612 0.86886 0.0341 0.0
Co252 Co 0.52454 0.84039 0.01191 0.0
N253 N 0.56334 0.86433 0.98758 0.0
C254 C 0.57602 0.88974 0.99003 0.0
C255 C 0.60232 0.9011 0.97002 0.0
C256 C 0.60641 0.88185 0.9536 0.0
C257 C 0.58219 0.85977 0.96458 0.0
N258 N 0.53192 0.81194 0.98899 0.0
C259 C 0.5528 0.8125 0.96523 0.0
C260 C 0.54856 0.78845 0.95483 0.0
C261 C 0.52347 0.77212 0.97228 0.0
C262 C 0.5139 0.78707 0.99224 0.0
N263 N 0.48699 0.81644 0.03722 0.0
C264 C 0.47511 0.79097 0.03561 0.0
C265 C 0.45154 0.77957 0.05739 0.0
C266 C 0.44898 0.79887 0.07441 0.0
C267 C 0.47108 0.82099 0.06184 0.0
N268 N 0.48835 0.84234 0.9852 0.0
C269 C 0.43568 0.846 0.94943 0.0
C270 C 0.43161 0.82375 0.96416 0.0
C271 C 0.45834 0.82219 0.98144 0.0
C272 C 0.46673 0.86617 0.95225 0.0
C273 C 0.49235 0.86405 0.97028 0.0
N274 N 0.56024 0.83855 0.03884 0.0
C275 C 0.58191 0.81403 0.0708 0.0
C276 C 0.60165 0.83591 0.08452 0.0
C277 C 0.60221 0.85916 0.07372 0.0
C278 C 0.58175 0.86005 0.05087 0.0
C279 C 0.56163 0.81577 0.04808 0.0
H280 H 0.58283 0.87834 0.04392 0.0
H281 H 0.54628 0.79843 0.03897 0.0
H282 H 0.45389 0.80452 0.99159 0.0
H283 H 0.51489 0.88041 0.97195 0.0
C284 C 0.55925 0.9025 0.0087 0.0
C285 C 0.47864 0.84564 0.07513 0.0
C286 C 0.57572 0.83529 0.951 0.0
C287 C 0.48809 0.77835 0.01419 0.0
H288 H 0.48623 0.89737 0.08684 0.0
H289 H 0.53 0.92912 0.04969 0.0
H290 H 0.61564 0.92109 0.96683 0.0
H291 H 0.62415 0.88395 0.93497 0.0
H292 H 0.56178 0.78334 0.93622 0.0
H293 H 0.51303 0.75181 0.97037 0.0
H294 H 0.43885 0.75957 0.06105 0.0
H295 H 0.43355 0.79678 0.09431 0.0
H296 H 0.40796 0.80759 0.96227 0.0
H297 H 0.47077 0.88383 0.94124 0.0
H298 H 0.58081 0.79556 0.0783 0.0
H299 H 0.61791 0.87665 0.08316 0.0
C300 C 0.81525 0.97576 0.57041 0.0
C301 C 0.84328 0.97262 0.58454 0.0
C302 C 0.87349 0.98982 0.57318 0.0
C303 C 0.8622 0.00238 0.55284 0.0
N304 N 0.82654 0.99459 0.55093 0.0
Co305 Co 0.79875 0.00655 0.52324 0.0
N306 N 0.84338 0.0279 0.50251 0.0
C307 C 0.87716 0.02998 0.50836 0.0
C308 C 0.90232 0.04663 0.49106 0.0
C309 C 0.88357 0.05597 0.47326 0.0
C310 C 0.84782 0.04435 0.4807 0.0
N311 N 0.77083 0.01898 0.49612 0.0
C312 C 0.78217 0.03652 0.47521 0.0
C313 C 0.75388 0.0402 0.46186 0.0
C314 C 0.7236 0.02499 0.47535 0.0
C315 C 0.73503 0.01283 0.49597 0.0
N316 N 0.75418 0.98451 0.54337 0.0
C317 C 0.72026 0.98205 0.53761 0.0
C318 C 0.69537 0.96416 0.55389 0.0
C319 C 0.71455 0.95406 0.57048 0.0
C320 C 0.75008 0.96646 0.56327 0.0
N321 N 0.79929 0.03539 0.54858 0.0
C322 C 0.80024 0.07988 0.57769 0.0
C323 C 0.76821 0.06174 0.57152 0.0
C324 C 0.76834 0.03988 0.55703 0.0
C325 C 0.83176 0.07482 0.57049 0.0
C326 C 0.83066 0.05245 0.55643 0.0
N327 N 0.79817 0.97787 0.4979 0.0
C328 C 0.76607 0.94339 0.46834 0.0
C329 C 0.7956 0.93503 0.46484 0.0
C330 C 0.82672 0.94885 0.47773 0.0
C331 C 0.82745 0.97008 0.49396 0.0
C332 C 0.76793 0.96465 0.48475 0.0
H333 H 0.85185 0.97974 0.50341 0.0
H334 H 0.74435 0.96978 0.48689 0.0
H335 H 0.74302 0.02733 0.55223 0.0
H336 H 0.8556 0.04974 0.55159 0.0
C337 C 0.88441 0.0183 0.53224 0.0
C338 C 0.77884 0.95899 0.57409 0.0
C339 C 0.81921 0.05086 0.46792 0.0
C340 C 0.71281 0.99566 0.51553 0.0
H341 H 0.8422 0.95862 0.60046 0.0
H342 H 0.90059 0.99179 0.57791 0.0
H343 H 0.93092 0.05219 0.49211 0.0
H344 H 0.89508 0.07038 0.45733 0.0
H345 H 0.75502 0.05289 0.44446 0.0
H346 H 0.69649 0.02324 0.4709 0.0
H347 H 0.66675 0.95843 0.55297 0.0
H348 H 0.70374 0.93866 0.58543 0.0
H349 H 0.74308 0.06488 0.57666 0.0
H350 H 0.85721 0.08821 0.57535 0.0
H351 H 0.74119 0.93319 0.45911 0.0
H352 H 0.85049 0.94337 0.47532 0.0
C353 C 0.52043 0.39857 0.06562 0.0
C354 C 0.52023 0.4218 0.07612 0.0
C355 C 0.53685 0.4393 0.0555 0.0
C356 C 0.5462 0.42578 0.0337 0.0
N357 N 0.53645 0.40095 0.03939 0.0
Co358 Co 0.54507 0.37453 0.01448 0.0
N359 N 0.58337 0.39981 0.99215 0.0
C360 C 0.58909 0.42489 0.99184 0.0
C361 C 0.61784 0.43773 0.97458 0.0
C362 C 0.63067 0.41959 0.963 0.0
C363 C 0.60871 0.39652 0.97367 0.0
N364 N 0.55333 0.34794 0.98957 0.0
C365 C 0.58085 0.34894 0.97097 0.0
C366 C 0.57496 0.32607 0.95693 0.0
C367 C 0.5425 0.31047 0.9669 0.0
C368 C 0.5303 0.32454 0.98638 0.0
N369 N 0.50666 0.34942 0.03684 0.0
C370 C 0.48818 0.32603 0.0286 0.0
C371 C 0.46343 0.31307 0.04904 0.0
C372 C 0.46663 0.32943 0.07144 0.0
C373 C 0.49325 0.35146 0.06331 0.0
N374 N 0.5102 0.37834 0.98872 0.0
C375 C 0.45712 0.3778 0.95191 0.0
C376 C 0.45125 0.37924 0.98131 0.0
C377 C 0.4781 0.37951 0.99932 0.0
C378 C 0.49069 0.37788 0.9413 0.0
C379 C 0.51687 0.3783 0.96002 0.0
N380 N 0.57962 0.3705 0.0403 0.0
C381 C 0.60032 0.34337 0.06893 0.0
C382 C 0.62489 0.36432 0.08097 0.0
C383 C 0.62705 0.38845 0.07154 0.0
C384 C 0.60416 0.39112 0.05122 0.0
C385 C 0.57808 0.34686 0.04864 0.0
H386 H 0.60579 0.4099 0.0448 0.0
H387 H 0.55912 0.33038 0.04008 0.0
H388 H 0.47245 0.3798 0.02188 0.0
H389 H 0.54217 0.37784 0.95119 0.0
C390 C 0.57016 0.43592 0.01085 0.0
C391 C 0.50411 0.37445 0.0803 0.0
C392 C 0.61024 0.37196 0.96327 0.0
C393 C 0.49975 0.31555 0.00441 0.0
H394 H 0.5095 0.4257 0.09655 0.0
H395 H 0.54307 0.45956 0.05694 0.0
H396 H 0.62875 0.45792 0.97133 0.0
H397 H 0.65316 0.42292 0.94794 0.0
H398 H 0.59183 0.32133 0.94058 0.0
H399 H 0.52963 0.29107 0.96093 0.0
H400 H 0.44635 0.29367 0.04834 0.0
H401 H 0.45129 0.32558 0.09144 0.0
H402 H 0.42562 0.37909 0.99045 0.0
H403 H 0.49657 0.37725 0.91869 0.0
H404 H 0.5982 0.32435 0.07517 0.0
H405 H 0.64558 0.40517 0.08036 0.0
H406 H 0.24331 0.40096 0.22642 0.0
H407 H 0.18902 0.51289 0.30237 0.0
H408 H 0.31103 0.4555 0.28163 0.0
H409 H 0.12576 0.4639 0.2402 0.0
H410 H 0.23438 0.49233 0.29436 0.0
H411 H 0.20051 0.42416 0.23013 0.0
C412 C 0.24932 0.41789 0.23917 0.0
C413 C 0.28075 0.4262 0.25386 0.0
C414 C 0.21068 0.48613 0.28235 0.0
C415 C 0.23176 0.45276 0.25834 0.0
C416 C 0.18467 0.49776 0.28704 0.0
C417 C 0.15345 0.48999 0.27206 0.0
C418 C 0.20542 0.46641 0.26264 0.0
C419 C 0.14952 0.47059 0.25209 0.0
C420 C 0.22485 0.43113 0.24128 0.0
C421 C 0.28713 0.44832 0.27 0.0
N422 N 0.17509 0.45934 0.2481 0.0
N423 N 0.26276 0.46071 0.27194 0.0
H424 H 0.21594 0.76257 0.78718 0.0
H425 H 0.05418 0.66829 0.70612 0.0
H426 H 0.14927 0.78713 0.73274 0.0
H427 H 0.12124 0.64312 0.75915 0.0
H428 H 0.09065 0.7121 0.71396 0.0
H429 H 0.18371 0.71878 0.77549 0.0
C430 C 0.19468 0.75878 0.77264 0.0
C431 C 0.18517 0.77857 0.76105 0.0
C432 C 0.09754 0.69706 0.72385 0.0
C433 C 0.14808 0.72848 0.74768 0.0
C434 C 0.07675 0.67215 0.71936 0.0
C435 C 0.0848 0.65237 0.73221 0.0
C436 C 0.12653 0.70214 0.74137 0.0
C437 C 0.11426 0.65805 0.74909 0.0
C438 C 0.17626 0.73376 0.766 0.0
C439 C 0.15744 0.77251 0.74229 0.0
N440 N 0.13403 0.68248 0.75332 0.0
N441 N 0.13979 0.74803 0.73631 0.0
H442 H 0.8225 0.68396 0.30833 0.0
H443 H 0.89994 0.5777 0.36209 0.0
H444 H 0.79617 0.64872 0.39091 0.0
H445 H 0.93604 0.61913 0.28377 0.0
H446 H 0.86021 0.60251 0.37219 0.0
H447 H 0.8628 0.65947 0.29819 0.0
C448 C 0.82526 0.67113 0.32437 0.0
C449 C 0.80591 0.66839 0.35052 0.0
C450 C 0.87681 0.60618 0.35278 0.0
C451 C 0.85186 0.64018 0.33897 0.0
C452 C 0.89965 0.59208 0.34704 0.0
C453 C 0.92155 0.59635 0.32206 0.0
C454 C 0.87567 0.62471 0.3334 0.0
C455 C 0.91939 0.61493 0.30312 0.0
C456 C 0.84828 0.65714 0.31855 0.0
C457 C 0.81057 0.65147 0.37048 0.0
N458 N 0.89693 0.62843 0.3092 0.0
N459 N 0.83297 0.63797 0.36426 0.0
H460 H 0.82673 0.34782 0.71378 0.0
H461 H 0.87866 0.49278 0.66745 0.0
H462 H 0.78937 0.37259 0.63893 0.0
H463 H 0.93772 0.46614 0.7266 0.0
H464 H 0.84083 0.44915 0.66028 0.0
H465 H 0.86293 0.39152 0.72255 0.0
C466 C 0.82577 0.3625 0.69944 0.0
C467 C 0.80464 0.35668 0.67585 0.0
C468 C 0.86208 0.45281 0.6748 0.0
C469 C 0.84627 0.40652 0.68544 0.0
C470 C 0.88355 0.47763 0.67886 0.0
C471 C 0.91134 0.48279 0.69737 0.0
C472 C 0.86823 0.43312 0.68969 0.0
C473 C 0.91655 0.46272 0.71202 0.0
C474 C 0.8467 0.38737 0.70427 0.0
C475 C 0.80529 0.3763 0.65738 0.0
N476 N 0.89515 0.4387 0.70789 0.0
N477 N 0.82561 0.40036 0.66265 0.0
H478 H 0.44729 0.30571 0.42641 0.0
H479 H 0.40112 0.15617 0.43512 0.0
H480 H 0.38284 0.25522 0.36597 0.0
H481 H 0.4189 0.20336 0.50927 0.0
H482 H 0.40638 0.19335 0.40586 0.0
H483 H 0.44901 0.2691 0.45362 0.0
C484 C 0.43378 0.28693 0.41874 0.0
C485 C 0.41471 0.28345 0.39401 0.0
C486 C 0.40926 0.19555 0.42852 0.0
C487 C 0.41692 0.24169 0.42478 0.0
C488 C 0.4063 0.17444 0.44511 0.0
C489 C 0.40902 0.17684 0.47455 0.0
C490 C 0.41578 0.21923 0.44146 0.0
C491 C 0.41634 0.20086 0.48661 0.0
C492 C 0.43467 0.26611 0.43432 0.0
C493 C 0.39761 0.25872 0.38505 0.0
N494 N 0.41945 0.2212 0.47 0.0
N495 N 0.39919 0.23876 0.4004 0.0
H496 H 0.30889 0.87357 0.81707 0.0
H497 H 0.36659 0.83867 0.9663 0.0
H498 H 0.26643 0.89313 0.8967 0.0
H499 H 0.44042 0.85998 0.89378 0.0
H500 H 0.32102 0.84742 0.93876 0.0
H501 H 0.34901 0.85731 0.84311 0.0
C502 C 0.30754 0.87395 0.84004 0.0
C503 C 0.28433 0.88456 0.85486 0.0
C504 C 0.3471 0.8499 0.92885 0.0
C505 C 0.32976 0.86608 0.88453 0.0
C506 C 0.37293 0.8448 0.94443 0.0
C507 C 0.40717 0.84874 0.93221 0.0
C508 C 0.35547 0.85849 0.90076 0.0
C509 C 0.41431 0.8569 0.90391 0.0
C510 C 0.33056 0.8649 0.8548 0.0
C511 C 0.28407 0.88513 0.88457 0.0
N512 N 0.38861 0.86148 0.88906 0.0
N513 N 0.3064 0.87593 0.89848 0.0
H514 H 0.72993 0.80683 0.35272 0.0
H515 H 0.82402 0.8979 0.47733 0.0
H516 H 0.79626 0.78756 0.412 0.0
H517 H 0.762 0.91868 0.41544 0.0
H518 H 0.8172 0.85848 0.45191 0.0
H519 H 0.74444 0.84885 0.3734 0.0
C520 C 0.74829 0.8116 0.36956 0.0
C521 C 0.76242 0.79374 0.38024 0.0
C522 C 0.80524 0.87172 0.44378 0.0
C523 C 0.77817 0.84166 0.40483 0.0
C524 C 0.80932 0.89434 0.45821 0.0
C525 C 0.79343 0.91165 0.44861 0.0
C526 C 0.78505 0.86626 0.41957 0.0
C527 C 0.77422 0.90575 0.42391 0.0
C528 C 0.75621 0.83555 0.38166 0.0
C529 C 0.78481 0.80075 0.40304 0.0
N530 N 0.77044 0.88353 0.41034 0.0
N531 N 0.79189 0.8241 0.41462 0.0
H532 H 0.74473 0.33241 0.83291 0.0
H533 H 0.60378 0.3888 0.91091 0.0
H534 H 0.69596 0.38082 0.79227 0.0
H535 H 0.66561 0.35275 0.95644 0.0
H536 H 0.63768 0.38573 0.86714 0.0
H537 H 0.71674 0.33938 0.87838 0.0
C538 C 0.72834 0.34462 0.83356 0.0
C539 C 0.7225 0.35593 0.80868 0.0
C540 C 0.64422 0.3787 0.88668 0.0
C541 C 0.69031 0.36383 0.86055 0.0
C542 C 0.62495 0.38054 0.91162 0.0
C543 C 0.6325 0.37139 0.93719 0.0
C544 C 0.67085 0.3672 0.88719 0.0
C545 C 0.65947 0.36027 0.93706 0.0
C546 C 0.71241 0.3486 0.85952 0.0
C547 C 0.70112 0.37162 0.81082 0.0
N548 N 0.67767 0.35837 0.91235 0.0
N549 N 0.68564 0.37495 0.83622 0.0
H550 H 0.29727 0.01551 0.77408 0.0
H551 H 0.35061 0.01415 0.60817 0.0
H552 H 0.27244 0.9479 0.7234 0.0
H553 H 0.36278 0.08219 0.65598 0.0
H554 H 0.32889 0.98928 0.65169 0.0
H555 H 0.32791 0.04001 0.73247 0.0
C556 C 0.2984 0.00579 0.75425 0.0
C557 C 0.28202 0.97963 0.75217 0.0
C558 C 0.33656 0.00965 0.65277 0.0
C559 C 0.31712 0.00757 0.70448 0.0
C560 C 0.34904 0.02375 0.62802 0.0
C561 C 0.35814 0.05006 0.62877 0.0
C562 C 0.33329 0.02204 0.67836 0.0
C563 C 0.35583 0.06186 0.65478 0.0
C564 C 0.31589 0.0198 0.73049 0.0
C565 C 0.28447 0.96804 0.72594 0.0
N566 N 0.34338 0.04774 0.67859 0.0
N567 N 0.30156 0.9821 0.70311 0.0
H568 H 0.7159 0.79285 0.21571 0.0
H569 H 0.60339 0.86322 0.13317 0.0
H570 H 0.66877 0.84532 0.25541 0.0
H571 H 0.64113 0.80511 0.09579 0.0
H572 H 0.63152 0.85954 0.17695 0.0
H573 H 0.69304 0.79972 0.17056 0.0
C574 C 0.70091 0.80593 0.21493 0.0
C575 C 0.6941 0.81843 0.23947 0.0
C576 C 0.63381 0.84767 0.15915 0.0
C577 C 0.66776 0.82634 0.18776 0.0
C578 C 0.61797 0.84989 0.13406 0.0
C579 C 0.62 0.83449 0.11074 0.0
C580 C 0.65192 0.82995 0.161 0.0
C581 C 0.63865 0.81719 0.11332 0.0
C582 C 0.68779 0.8098 0.18912 0.0
C583 C 0.67456 0.83519 0.2371 0.0
N584 N 0.65387 0.81539 0.138 0.0
N585 N 0.662 0.83859 0.21173 0.0
H586 H 0.80331 0.23346 0.583 0.0
H587 H 0.75943 0.08908 0.62242 0.0
H588 H 0.74822 0.20164 0.66177 0.0
H589 H 0.84106 0.12678 0.55947 0.0
H590 H 0.75515 0.13008 0.63762 0.0
H591 H 0.8179 0.19466 0.57418 0.0
C592 C 0.79455 0.21839 0.59857 0.0
C593 C 0.77431 0.22071 0.62306 0.0
C594 C 0.77435 0.12942 0.62075 0.0
C595 C 0.79057 0.17616 0.61295 0.0
C596 C 0.7767 0.10604 0.61203 0.0
C597 C 0.80053 0.10458 0.5896 0.0
C598 C 0.79553 0.15144 0.6066 0.0
C599 C 0.82249 0.12711 0.57697 0.0
C600 C 0.80298 0.19628 0.59356 0.0
C601 C 0.76383 0.20064 0.64258 0.0
N602 N 0.81913 0.14959 0.58538 0.0
N603 N 0.77168 0.17906 0.63692 0.0
H604 H 0.48307 0.3631 0.26323 0.0
H605 H 0.44185 0.37957 0.1015 0.0
H606 H 0.38425 0.37043 0.23762 0.0
H607 H 0.53808 0.36803 0.12664 0.0
H608 H 0.42117 0.37819 0.15155 0.0
H609 H 0.50472 0.36662 0.21357 0.0
C610 C 0.46603 0.3657 0.24718 0.0
C611 C 0.43203 0.36699 0.25468 0.0
C612 C 0.44683 0.37599 0.14621 0.0
C613 C 0.45653 0.37084 0.19772 0.0
C614 C 0.45853 0.37679 0.11775 0.0
C615 C 0.49155 0.37391 0.11034 0.0
C616 C 0.46841 0.37227 0.16728 0.0
C617 C 0.51242 0.37032 0.1318 0.0
C618 C 0.47841 0.36771 0.21883 0.0
C619 C 0.41103 0.37021 0.233 0.0
N620 N 0.5005 0.36959 0.15939 0.0
N621 N 0.4236 0.37198 0.20551 0.0
H622 H 0.78046 0.7034 0.69275 0.0
H623 H 0.8854 0.60976 0.63855 0.0
H624 H 0.77083 0.67035 0.60922 0.0
H625 H 0.9058 0.652 0.71647 0.0
H626 H 0.84382 0.63189 0.62701 0.0
H627 H 0.82641 0.68452 0.70172 0.0
C628 C 0.78807 0.69222 0.67625 0.0
C629 C 0.77168 0.68838 0.65023 0.0
C630 C 0.85754 0.63639 0.64656 0.0
C631 C 0.82427 0.66661 0.6604 0.0
C632 C 0.88145 0.62386 0.6531 0.0
C633 C 0.89897 0.62886 0.67864 0.0
C634 C 0.85098 0.65399 0.66574 0.0
C635 C 0.8924 0.64712 0.69682 0.0
C636 C 0.81439 0.68148 0.68137 0.0
C637 C 0.78274 0.67378 0.62961 0.0
N638 N 0.86883 0.6589 0.69009 0.0
N639 N 0.80821 0.66331 0.63519 0.0
H640 H 0.92059 0.3161 0.32904 0.0
H641 H 0.90818 0.45116 0.29097 0.0
H642 H 0.85341 0.32679 0.26481 0.0
H643 H 0.00633 0.44166 0.31472 0.0
H644 H 0.88089 0.40508 0.29052 0.0
H645 H 0.94671 0.36207 0.33256 0.0
C646 C 0.91091 0.32803 0.31596 0.0
C647 C 0.88373 0.31743 0.29727 0.0
C648 C 0.90839 0.41312 0.29584 0.0
C649 C 0.91327 0.36988 0.30144 0.0
C650 C 0.92389 0.43928 0.29606 0.0
C651 C 0.95965 0.44999 0.30228 0.0
C652 C 0.92857 0.39766 0.30265 0.0
C653 C 0.97876 0.43396 0.30948 0.0
C654 C 0.92585 0.35421 0.318 0.0
C655 C 0.87265 0.33386 0.28061 0.0
N656 N 0.96298 0.40852 0.30951 0.0
N657 N 0.88726 0.35924 0.28323 0.0
H658 H 0.14485 0.38829 0.75166 0.0
H659 H 0.0982 0.51361 0.79258 0.0
H660 H 0.12882 0.41075 0.8378 0.0
H661 H 0.07815 0.47778 0.71082 0.0
H662 H 0.12061 0.48017 0.80757 0.0
H663 H 0.13106 0.42516 0.73461 0.0
C664 C 0.13863 0.40104 0.76697 0.0
C665 C 0.13771 0.39637 0.79619 0.0
C666 C 0.11149 0.47974 0.7863 0.0
C667 C 0.12232 0.43856 0.77686 0.0
C668 C 0.09857 0.49877 0.77773 0.0
C669 C 0.08573 0.49836 0.75051 0.0
C670 C 0.1119 0.46022 0.76748 0.0
C671 C 0.08789 0.479 0.73194 0.0
C672 C 0.13071 0.42201 0.75723 0.0
C673 C 0.12953 0.4135 0.81509 0.0
N674 N 0.1005 0.46061 0.74084 0.0
N675 N 0.12217 0.43384 0.8051 0.0
H676 H 0.31988 0.69814 0.28235 0.0
H677 H 0.10726 0.6465 0.28163 0.0
H678 H 0.25518 0.74624 0.27251 0.0
H679 H 0.17235 0.59885 0.2909 0.0
H680 H 0.16118 0.6833 0.27678 0.0
H681 H 0.26628 0.66147 0.2838 0.0
C682 C 0.29442 0.701 0.28037 0.0
C683 C 0.29205 0.72534 0.27741 0.0
C684 C 0.16375 0.66481 0.27978 0.0
C685 C 0.23044 0.68335 0.27919 0.0
C686 C 0.13306 0.64392 0.28251 0.0
C687 C 0.13574 0.61985 0.28653 0.0
C688 C 0.19724 0.66152 0.28121 0.0
C689 C 0.16948 0.61723 0.28775 0.0
C690 C 0.26378 0.68003 0.28123 0.0
C691 C 0.25829 0.72785 0.27488 0.0
N692 N 0.19898 0.63784 0.28512 0.0
N693 N 0.22881 0.70712 0.27593 0.0
H694 H 0.74148 0.82185 0.67204 0.0
H695 H 0.76072 0.9168 0.54207 0.0
H696 H 0.70823 0.79814 0.58782 0.0
H697 H 0.77939 0.94188 0.62816 0.0
H698 H 0.74533 0.87301 0.55821 0.0
H699 H 0.75882 0.86582 0.65641 0.0
C700 C 0.73714 0.82584 0.65045 0.0
C701 C 0.72244 0.80625 0.63144 0.0
C702 C 0.7529 0.88802 0.57364 0.0
C703 C 0.74346 0.85652 0.61311 0.0
C704 C 0.76172 0.91293 0.56439 0.0
C705 C 0.77145 0.93269 0.58388 0.0
C706 C 0.75376 0.88289 0.60262 0.0
C707 C 0.77228 0.92698 0.61257 0.0
C708 C 0.74749 0.85098 0.64143 0.0
C709 C 0.71923 0.81262 0.60327 0.0
N710 N 0.76351 0.90252 0.62114 0.0
N711 N 0.72956 0.83716 0.595 0.0
H712 H 0.7055 0.30835 0.22382 0.0
H713 H 0.69578 0.38913 0.08735 0.0
H714 H 0.79739 0.3623 0.18247 0.0
H715 H 0.60562 0.33171 0.12605 0.0
H716 H 0.73282 0.38197 0.12405 0.0
H717 H 0.66789 0.31905 0.19021 0.0
C718 C 0.71778 0.32255 0.20777 0.0
C719 C 0.75471 0.33434 0.20587 0.0
C720 C 0.70492 0.37098 0.12454 0.0
C721 C 0.71175 0.34664 0.1672 0.0
C722 C 0.68373 0.37514 0.10367 0.0
C723 C 0.64762 0.36085 0.1035 0.0
C724 C 0.68984 0.35246 0.14545 0.0
C725 C 0.63348 0.34284 0.12505 0.0
C726 C 0.69627 0.32863 0.18853 0.0
C727 C 0.76907 0.35265 0.18466 0.0
N728 N 0.65462 0.33913 0.14509 0.0
N729 N 0.74758 0.35817 0.16608 0.0
H730 H 0.34524 0.28694 0.71996 0.0
H731 H 0.30046 0.1507 0.64819 0.0
H732 H 0.25745 0.22202 0.74767 0.0
H733 H 0.3952 0.21241 0.62562 0.0
H734 H 0.28422 0.17705 0.68441 0.0
H735 H 0.36424 0.26039 0.68517 0.0
C736 C 0.33004 0.2671 0.71882 0.0
C737 C 0.29961 0.25671 0.7367 0.0
C738 C 0.30861 0.18487 0.6716 0.0
C739 C 0.32112 0.2263 0.6969 0.0
C740 C 0.31777 0.16987 0.65077 0.0
C741 C 0.34911 0.17942 0.63373 0.0
C742 C 0.33082 0.20973 0.6754 0.0
C743 C 0.37089 0.20425 0.6384 0.0
C744 C 0.34091 0.25197 0.69896 0.0
C745 C 0.281 0.23089 0.73431 0.0
N746 N 0.36124 0.21861 0.65872 0.0
N747 N 0.29196 0.21663 0.71472 0.0
H748 H 0.39132 0.83567 0.24802 0.0
H749 H 0.52946 0.85609 0.1137 0.0
H750 H 0.50482 0.85633 0.25448 0.0
H751 H 0.41669 0.83908 0.10668 0.0
H752 H 0.52101 0.85681 0.16548 0.0
H753 H 0.39977 0.83673 0.19635 0.0
C754 C 0.41796 0.83997 0.2386 0.0
C755 C 0.44734 0.84528 0.25559 0.0
C756 C 0.49806 0.85302 0.15269 0.0
C757 C 0.45735 0.8473 0.19645 0.0
C758 C 0.50295 0.85268 0.12324 0.0
C759 C 0.47366 0.84742 0.10627 0.0
C760 C 0.4636 0.84803 0.16516 0.0
C761 C 0.4398 0.84308 0.1193 0.0
C762 C 0.42283 0.84092 0.20907 0.0
C763 C 0.48141 0.85194 0.24217 0.0
N764 N 0.43563 0.84336 0.14806 0.0
N765 N 0.48547 0.85264 0.21342 0.0
H766 H 0.81412 0.18641 0.38547 0.0
H767 H 0.85125 0.05732 0.41464 0.0
H768 H 0.88974 0.16156 0.33431 0.0
H769 H 0.80508 0.09473 0.47849 0.0
H770 H 0.86279 0.09416 0.3834 0.0
H771 H 0.80764 0.15183 0.41869 0.0
C772 C 0.82952 0.17377 0.38131 0.0
C773 C 0.85246 0.17685 0.35706 0.0
C774 C 0.85037 0.0944 0.40432 0.0
C775 C 0.84484 0.13708 0.39478 0.0
C776 C 0.84382 0.07344 0.42205 0.0
C777 C 0.82747 0.07326 0.44907 0.0
C778 C 0.83987 0.11506 0.41358 0.0
C779 C 0.81784 0.09434 0.45774 0.0
C780 C 0.82585 0.15407 0.4003 0.0
C781 C 0.87181 0.15993 0.35277 0.0
N782 N 0.82399 0.11437 0.43997 0.0
N783 N 0.86731 0.14062 0.37131 0.0
H784 H 0.29283 0.31556 0.83424 0.0
H785 H 0.40733 0.40235 0.95339 0.0
H786 H 0.26706 0.37799 0.87354 0.0
H787 H 0.43979 0.34586 0.90677 0.0
H788 H 0.35655 0.39445 0.92347 0.0
H789 H 0.34786 0.32725 0.85933 0.0
C790 C 0.29916 0.33212 0.84752 0.0
C791 C 0.2757 0.34616 0.85127 0.0
C792 C 0.37493 0.38391 0.91964 0.0
C793 C 0.33801 0.3591 0.88099 0.0
C794 C 0.40382 0.38835 0.93679 0.0
C795 C 0.42776 0.3747 0.93262 0.0
C796 C 0.36974 0.36553 0.8983 0.0
C797 C 0.42219 0.357 0.91056 0.0
C798 C 0.33041 0.33861 0.86218 0.0
C799 C 0.28448 0.36668 0.86998 0.0
N800 N 0.39363 0.35279 0.89437 0.0
N801 N 0.31486 0.37249 0.88419 0.0
H802 H 0.39271 0.91446 0.37673 0.0
H803 H 0.46322 0.02186 0.49131 0.0
H804 H 0.49654 0.93203 0.41067 0.0
H805 H 0.37973 0.02083 0.43579 0.0
H806 H 0.47374 0.98727 0.46431 0.0
H807 H 0.3849 0.95143 0.40087 0.0
C808 C 0.41389 0.92612 0.38922 0.0
C809 C 0.44531 0.92015 0.39174 0.0
C810 C 0.45325 0.99473 0.45797 0.0
C811 C 0.43641 0.96232 0.41954 0.0
C812 C 0.44733 0.01463 0.47328 0.0
C813 C 0.42047 0.0244 0.46592 0.0
C814 C 0.43192 0.98423 0.43533 0.0
C815 C 0.40027 0.0137 0.44266 0.0
C816 C 0.40945 0.94725 0.4029 0.0
C817 C 0.47191 0.93596 0.40812 0.0
N818 N 0.40626 0.99411 0.42833 0.0
N819 N 0.46675 0.95623 0.42158 0.0
H820 H 0.69671 0.82224 0.79685 0.0
H821 H 0.5367 0.82804 0.90439 0.0
H822 H 0.58974 0.81064 0.77191 0.0
H823 H 0.6427 0.83874 0.93037 0.0
H824 H 0.55657 0.82366 0.85515 0.0
H825 H 0.67857 0.83055 0.8453 0.0
C826 C 0.66946 0.82157 0.8015 0.0
C827 C 0.64467 0.81561 0.78027 0.0
C828 C 0.57561 0.82708 0.87152 0.0
C829 C 0.62371 0.82503 0.83573 0.0
C830 C 0.56425 0.82958 0.89952 0.0
C831 C 0.58823 0.83379 0.92112 0.0
C832 C 0.61122 0.8287 0.86517 0.0
C833 C 0.6236 0.83559 0.91407 0.0
C834 C 0.65912 0.82629 0.82919 0.0
C835 C 0.60975 0.81506 0.78757 0.0
N836 N 0.63407 0.83297 0.88663 0.0
N837 N 0.60031 0.8196 0.81467 0.0
loop_
_geom_bond_atom_site_label_1
_geom_bond_atom_site_label_2
_geom_bond_distance
_geom_bond_site_symmetry_2
_ccdc_geom_bond_type
O0 Cd1 2.300 . S
O0 C7 1.275 . S
Cd1 O0 2.300 . S
Cd1 O9 2.381 . S
Cd1 O10 2.378 . S
O2 Cd3 2.385 . S
O2 C7 1.255 . S
Cd3 O2 2.385 . S
Cd3 O4 2.317 . S
O4 Cd3 2.317 . S
O4 C5 1.232 . S
C5 O4 1.232 . S
C5 O6 1.218 . S
O6 C5 1.218 . S
C7 O0 1.275 . S
C7 O2 1.255 . S
C8 O9 1.258 . S
C8 O10 1.256 . S
O9 Cd1 2.381 . S
O9 C8 1.258 . S
O10 Cd1 2.378 . S
O10 C8 1.256 . S
O11 Cd12 2.300 . S
O11 C18 1.275 . S
Cd12 O11 2.300 . S
Cd12 O20 2.381 . S
Cd12 O21 2.378 . S
O13 Cd14 2.385 . S
O13 C18 1.255 . S
Cd14 O13 2.385 . S
Cd14 O15 2.317 . S
O15 Cd14 2.317 . S
O15 C16 1.232 . S
C16 O15 1.232 . S
C16 O17 1.218 . S
O17 C16 1.218 . S
C18 O11 1.275 . S
C18 O13 1.255 . S
C19 O20 1.258 . S
C19 O21 1.256 . S
O20 Cd12 2.381 . S
O20 C19 1.258 . S
O21 Cd12 2.378 . S
O21 C19 1.256 . S
O22 Cd23 2.300 . S
O22 C29 1.275 . S
Cd23 O22 2.300 . S
Cd23 O31 2.381 . S
Cd23 O32 2.378 . S
O24 Cd25 2.385 . S
O24 C29 1.255 . S
Cd25 O24 2.385 . S
Cd25 O26 2.317 . S
O26 Cd25 2.317 . S
O26 C27 1.232 . S
C27 O26 1.232 . S
C27 O28 1.218 . S
O28 C27 1.218 . S
C29 O22 1.275 . S
C29 O24 1.255 . S
C30 O31 1.258 . S
C30 O32 1.256 . S
O31 Cd23 2.381 . S
O31 C30 1.258 . S
O32 Cd23 2.378 . S
O32 C30 1.256 . S
O33 Cd34 2.300 . S
O33 C40 1.275 . S
Cd34 O33 2.300 . S
Cd34 O42 2.381 . S
Cd34 O43 2.378 . S
O35 Cd36 2.385 . S
O35 C40 1.255 . S
Cd36 O35 2.385 . S
Cd36 O37 2.317 . S
O37 Cd36 2.317 . S
O37 C38 1.232 . S
C38 O37 1.232 . S
C38 O39 1.218 . S
O39 C38 1.218 . S
C40 O33 1.275 . S
C40 O35 1.255 . S
C41 O42 1.258 . S
C41 O43 1.256 . S
O42 Cd34 2.381 . S
O42 C41 1.258 . S
O43 Cd34 2.378 . S
O43 C41 1.256 . S
O44 Cd45 2.300 . S
O44 C51 1.275 . S
Cd45 O44 2.300 . S
Cd45 O53 2.381 . S
Cd45 O54 2.378 . S
O46 Cd47 2.385 . S
O46 C51 1.255 . S
Cd47 O46 2.385 . S
Cd47 O48 2.317 . S
O48 Cd47 2.317 . S
O48 C49 1.232 . S
C49 O48 1.232 . S
C49 O50 1.218 . S
O50 C49 1.218 . S
C51 O44 1.275 . S
C51 O46 1.255 . S
C52 O53 1.258 . S
C52 O54 1.256 . S
O53 Cd45 2.381 . S
O53 C52 1.258 . S
O54 Cd45 2.378 . S
O54 C52 1.256 . S
O55 Cd56 2.300 . S
O55 C62 1.275 . S
Cd56 O55 2.300 . S
Cd56 O64 2.381 . S
Cd56 O65 2.378 . S
O57 Cd58 2.385 . S
O57 C62 1.255 . S
Cd58 O57 2.385 . S
Cd58 O59 2.317 . S
O59 Cd58 2.317 . S
O59 C60 1.232 . S
C60 O59 1.232 . S
C60 O61 1.218 . S
O61 C60 1.218 . S
C62 O55 1.275 . S
C62 O57 1.255 . S
C63 O64 1.258 . S
C63 O65 1.256 . S
O64 Cd56 2.381 . S
O64 C63 1.258 . S
O65 Cd56 2.378 . S
O65 C63 1.256 . S
O66 Cd67 2.300 . S
O66 C73 1.275 . S
Cd67 O66 2.300 . S
Cd67 O75 2.381 . S
Cd67 O76 2.378 . S
O68 Cd69 2.385 . S
O68 C73 1.255 . S
Cd69 O68 2.385 . S
Cd69 O70 2.317 . S
O70 Cd69 2.317 . S
O70 C71 1.232 . S
C71 O70 1.232 . S
C71 O72 1.218 . S
O72 C71 1.218 . S
C73 O66 1.275 . S
C73 O68 1.255 . S
C74 O75 1.258 . S
C74 O76 1.256 . S
O75 Cd67 2.381 . S
O75 C74 1.258 . S
O76 Cd67 2.378 . S
O76 C74 1.256 . S
O77 Cd78 2.300 . S
O77 C84 1.275 . S
Cd78 O77 2.300 . S
Cd78 O86 2.381 . S
Cd78 O87 2.378 . S
O79 Cd80 2.385 . S
O79 C84 1.255 . S
Cd80 O79 2.385 . S
Cd80 O81 2.317 . S
O81 Cd80 2.317 . S
O81 C82 1.232 . S
C82 O81 1.232 . S
C82 O83 1.218 . S
O83 C82 1.218 . S
C84 O77 1.275 . S
C84 O79 1.255 . S
C85 O86 1.258 . S
C85 O87 1.256 . S
O86 Cd78 2.381 . S
O86 C85 1.258 . S
O87 Cd78 2.378 . S
O87 C85 1.256 . S
C88 C89 1.443 . S
C88 N92 1.376 . S
C88 C126 1.389 . S
C89 C88 1.443 . S
C89 C90 1.340 . S
C89 H129 0.951 . S
C90 C89 1.340 . S
C90 C91 1.439 . S
C90 H130 0.950 . S
C91 C90 1.439 . S
C91 N92 1.374 . S
C91 C125 1.395 . S
N92 C88 1.376 . S
N92 C91 1.374 . S
N92 Co93 2.008 . S
Co93 N92 2.008 . S
Co93 N94 1.995 . S
Co93 N99 2.008 . S
Co93 N104 1.995 . S
Co93 N109 2.282 . S
Co93 N115 2.282 . S
N94 Co93 1.995 . S
N94 C95 1.376 . S
N94 C98 1.383 . S
C95 N94 1.376 . S
C95 C96 1.446 . S
C95 C125 1.391 . S
C96 C95 1.446 . S
C96 C97 1.339 1_455 S
C96 H131 0.949 1_455 S
C97 C96 1.339 1_655 S
C97 C98 1.439 1_655 S
C97 H132 0.950 . S
C98 N94 1.383 . S
C98 C97 1.439 1_455 S
C98 C127 1.392 . S
N99 Co93 2.008 . S
N99 C100 1.376 . S
N99 C103 1.374 . S
C100 N99 1.376 . S
C100 C101 1.443 . S
C100 C127 1.389 . S
C101 C100 1.443 . S
C101 C102 1.340 . S
C101 H133 0.946 1_455 S
C102 C101 1.340 . S
C102 C103 1.439 . S
C102 H134 0.950 . S
C103 N99 1.374 . S
C103 C102 1.439 . S
C103 C128 1.395 . S
N104 Co93 1.995 . S
N104 C105 1.376 . S
N104 C108 1.383 . S
C105 N104 1.376 . S
C105 C106 1.446 . S
C105 C128 1.391 . S
C106 C105 1.446 . S
C106 C107 1.339 . S
C106 H135 0.949 . S
C107 C106 1.339 . S
C107 C108 1.439 . S
C107 H136 0.950 . S
C108 N104 1.383 . S
C108 C107 1.439 . S
C108 C126 1.392 . S
N109 Co93 2.282 . S
N109 C112 1.332 . S
N109 C114 1.332 . S
C110 C111 1.386 . S
C110 C113 1.388 . S
C111 C110 1.386 . S
C111 C112 1.382 . S
C111 H137 0.950 . S
C112 N109 1.332 . S
C112 C111 1.382 . S
C112 H123 0.952 . S
C113 C110 1.388 . S
C113 C114 1.382 . S
C113 H138 0.950 . S
C114 N109 1.332 . S
C114 C113 1.382 . S
C114 H124 0.948 . S
N115 Co93 2.282 . S
N115 C119 1.345 . S
N115 C120 1.332 . S
C116 C117 1.386 1_455 S
C116 C120 1.385 . S
C116 H139 0.954 . S
C117 C116 1.386 1_655 S
C117 C118 1.386 . S
C118 C117 1.386 . S
C118 C119 1.364 1_655 S
C118 H140 0.950 . S
C119 N115 1.345 . S
C119 C118 1.364 1_455 S
C119 H121 0.952 . S
C120 N115 1.332 . S
C120 C116 1.385 . S
C120 H122 0.948 . S
H121 C119 0.952 . S
H122 C120 0.948 . S
H123 C112 0.952 . S
H124 C114 0.948 . S
C125 C91 1.395 . S
C125 C95 1.391 . S
C126 C88 1.389 . S
C126 C108 1.392 . S
C127 C98 1.392 . S
C127 C100 1.389 . S
C128 C103 1.395 . S
C128 C105 1.391 . S
H129 C89 0.951 . S
H130 C90 0.950 . S
H131 C96 0.949 1_655 S
H132 C97 0.950 . S
H133 C101 0.946 1_655 S
H134 C102 0.950 . S
H135 C106 0.949 . S
H136 C107 0.950 . S
H137 C111 0.950 . S
H138 C113 0.950 . S
H139 C116 0.954 . S
H140 C118 0.950 . S
C141 C142 1.443 . S
C141 N145 1.376 . S
C141 C179 1.389 . S
C142 C141 1.443 . S
C142 C143 1.340 . S
C142 H182 0.951 . S
C143 C142 1.340 . S
C143 C144 1.439 . S
C143 H183 0.950 . S
C144 C143 1.439 . S
C144 N145 1.374 . S
C144 C178 1.395 1_455 S
N145 C141 1.376 . S
N145 C144 1.374 . S
N145 Co146 2.008 . S
Co146 N145 2.008 . S
Co146 N147 1.995 1_455 S
Co146 N152 2.008 1_455 S
Co146 N157 1.995 . S
Co146 N162 2.282 . S
Co146 N168 2.282 1_455 S
N147 Co146 1.995 1_655 S
N147 C148 1.376 . S
N147 C151 1.383 . S
C148 N147 1.376 . S
C148 C149 1.446 . S
C148 C178 1.391 . S
C149 C148 1.446 . S
C149 C150 1.339 . S
C149 H184 0.949 . S
C150 C149 1.339 . S
C150 C151 1.439 . S
C150 H185 0.950 . S
C151 N147 1.383 . S
C151 C150 1.439 . S
C151 C180 1.392 . S
N152 Co146 2.008 1_655 S
N152 C153 1.376 . S
N152 C156 1.374 . S
C153 N152 1.376 . S
C153 C154 1.443 . S
C153 C180 1.389 . S
C154 C153 1.443 . S
C154 C155 1.340 . S
C154 H186 0.951 . S
C155 C154 1.340 . S
C155 C156 1.439 . S
C155 H187 0.950 . S
C156 N152 1.374 . S
C156 C155 1.439 . S
C156 C181 1.395 1_655 S
N157 Co146 1.995 . S
N157 C158 1.376 . S
N157 C161 1.383 . S
C158 N157 1.376 . S
C158 C159 1.446 . S
C158 C181 1.391 . S
C159 C158 1.446 . S
C159 C160 1.339 . S
C159 H188 0.949 . S
C160 C159 1.339 . S
C160 C161 1.439 . S
C160 H189 0.950 . S
C161 N157 1.383 . S
C161 C160 1.439 . S
C161 C179 1.392 . S
N162 Co146 2.282 . S
N162 C165 1.332 . S
N162 C167 1.332 . S
C163 C164 1.386 . S
C163 C166 1.388 . S
C164 C163 1.386 . S
C164 C165 1.382 . S
C164 H190 0.950 . S
C165 N162 1.332 . S
C165 C164 1.382 . S
C165 H176 0.952 . S
C166 C163 1.388 . S
C166 C167 1.382 . S
C166 H191 0.950 . S
C167 N162 1.332 . S
C167 C166 1.382 . S
C167 H177 0.948 . S
N168 Co146 2.282 1_655 S
N168 C172 1.332 . S
N168 C173 1.332 . S
C169 C170 1.388 . S
C169 C173 1.382 . S
C169 H192 0.950 . S
C170 C169 1.388 . S
C170 C171 1.386 . S
C171 C170 1.386 . S
C171 C172 1.382 . S
C171 H193 0.950 . S
C172 N168 1.332 . S
C172 C171 1.382 . S
C172 H174 0.952 . S
C173 N168 1.332 . S
C173 C169 1.382 . S
C173 H175 0.948 . S
H174 C172 0.952 . S
H175 C173 0.948 . S
H176 C165 0.952 . S
H177 C167 0.948 . S
C178 C144 1.395 1_655 S
C178 C148 1.391 . S
C179 C141 1.389 . S
C179 C161 1.392 . S
C180 C151 1.392 . S
C180 C153 1.389 . S
C181 C156 1.395 1_455 S
C181 C158 1.391 . S
H182 C142 0.951 . S
H183 C143 0.950 . S
H184 C149 0.949 . S
H185 C150 0.950 . S
H186 C154 0.951 . S
H187 C155 0.950 . S
H188 C159 0.949 . S
H189 C160 0.950 . S
H190 C164 0.950 . S
H191 C166 0.950 . S
H192 C169 0.950 . S
H193 C171 0.950 . S
C194 C195 1.443 . S
C194 N198 1.376 . S
C194 C232 1.389 . S
C195 C194 1.443 . S
C195 C196 1.340 . S
C195 H235 0.951 . S
C196 C195 1.340 . S
C196 C197 1.439 . S
C196 H236 0.950 . S
C197 C196 1.439 . S
C197 N198 1.374 . S
C197 C231 1.395 . S
N198 C194 1.376 . S
N198 C197 1.374 . S
N198 Co199 2.008 . S
Co199 N198 2.008 . S
Co199 N200 1.995 . S
Co199 N205 2.008 . S
Co199 N210 1.995 . S
Co199 N215 2.282 . S
Co199 N221 2.282 . S
N200 Co199 1.995 . S
N200 C201 1.376 . S
N200 C204 1.383 . S
C201 N200 1.376 . S
C201 C202 1.446 . S
C201 C231 1.391 . S
C202 C201 1.446 . S
C202 C203 1.339 . S
C202 H237 0.949 . S
C203 C202 1.339 . S
C203 C204 1.439 . S
C203 H238 0.950 . S
C204 N200 1.383 . S
C204 C203 1.439 . S
C204 C233 1.392 . S
N205 Co199 2.008 . S
N205 C206 1.376 . S
N205 C209 1.374 . S
C206 N205 1.376 . S
C206 C207 1.443 . S
C206 C233 1.389 . S
C207 C206 1.443 . S
C207 C208 1.340 . S
C207 H239 0.951 . S
C208 C207 1.340 . S
C208 C209 1.439 . S
C208 H240 0.950 . S
C209 N205 1.374 . S
C209 C208 1.439 . S
C209 C234 1.395 . S
N210 Co199 1.995 . S
N210 C211 1.376 . S
N210 C214 1.383 . S
C211 N210 1.376 . S
C211 C212 1.446 . S
C211 C234 1.391 . S
C212 C211 1.446 . S
C212 C213 1.339 . S
C212 H241 0.949 . S
C213 C212 1.339 . S
C213 C214 1.439 . S
C213 H242 0.950 . S
C214 N210 1.383 . S
C214 C213 1.439 . S
C214 C232 1.392 . S
N215 Co199 2.282 . S
N215 C218 1.332 . S
N215 C220 1.332 . S
C216 C217 1.386 . S
C216 C219 1.388 . S
C217 C216 1.386 . S
C217 C218 1.382 . S
C217 H243 0.950 . S
C218 N215 1.332 . S
C218 C217 1.382 . S
C218 H229 0.952 . S
C219 C216 1.388 . S
C219 C220 1.382 . S
C219 H244 0.950 . S
C220 N215 1.332 . S
C220 C219 1.382 . S
C220 H230 0.948 . S
N221 Co199 2.282 . S
N221 C225 1.332 . S
N221 C226 1.332 . S
C222 C223 1.388 . S
C222 C226 1.382 . S
C222 H245 0.950 . S
C223 C222 1.388 . S
C223 C224 1.386 . S
C224 C223 1.386 . S
C224 C225 1.382 . S
C224 H246 0.950 . S
C225 N221 1.332 . S
C225 C224 1.382 . S
C225 H227 0.952 . S
C226 N221 1.332 . S
C226 C222 1.382 . S
C226 H228 0.948 . S
H227 C225 0.952 . S
H228 C226 0.948 . S
H229 C218 0.952 . S
H230 C220 0.948 . S
C231 C197 1.395 . S
C231 C201 1.391 . S
C232 C194 1.389 . S
C232 C214 1.392 . S
C233 C204 1.392 . S
C233 C206 1.389 . S
C234 C209 1.395 . S
C234 C211 1.391 . S
H235 C195 0.951 . S
H236 C196 0.950 . S
H237 C202 0.949 . S
H238 C203 0.950 . S
H239 C207 0.951 . S
H240 C208 0.950 . S
H241 C212 0.949 . S
H242 C213 0.950 . S
H243 C217 0.950 . S
H244 C219 0.950 . S
H245 C222 0.950 . S
H246 C224 0.950 . S
C247 C248 1.443 . S
C247 N251 1.376 . S
C247 C285 1.389 . S
C248 C247 1.443 . S
C248 C249 1.340 . S
C248 H288 0.951 . S
C249 C248 1.340 . S
C249 C250 1.439 . S
C249 H289 0.950 . S
C250 C249 1.439 . S
C250 N251 1.374 . S
C250 C284 1.395 . S
N251 C247 1.376 . S
N251 C250 1.374 . S
N251 Co252 2.008 . S
Co252 N251 2.008 . S
Co252 N253 1.995 1_554 S
Co252 N258 2.008 1_554 S
Co252 N263 1.995 . S
Co252 N268 2.282 1_554 S
Co252 N274 2.282 . S
N253 Co252 1.995 1_556 S
N253 C254 1.372 1_556 S
N253 C257 1.383 . S
C254 N253 1.372 1_554 S
C254 C255 1.426 1_554 S
C254 C284 1.412 . S
C255 C254 1.426 1_556 S
C255 C256 1.339 . S
C255 H290 0.949 . S
C256 C255 1.339 . S
C256 C257 1.439 . S
C256 H291 0.950 . S
C257 N253 1.383 . S
C257 C256 1.439 . S
C257 C286 1.392 . S
N258 Co252 2.008 1_556 S
N258 C259 1.376 . S
N258 C262 1.374 . S
C259 N258 1.376 . S
C259 C260 1.443 . S
C259 C286 1.389 . S
C260 C259 1.443 . S
C260 C261 1.340 . S
C260 H292 0.951 . S
C261 C260 1.340 . S
C261 C262 1.439 . S
C261 H293 0.950 . S
C262 N258 1.374 . S
C262 C261 1.439 . S
C262 C287 1.395 1_556 S
N263 Co252 1.995 . S
N263 C264 1.376 . S
N263 C267 1.383 . S
C264 N263 1.376 . S
C264 C265 1.446 . S
C264 C287 1.391 . S
C265 C264 1.446 . S
C265 C266 1.339 . S
C265 H294 0.949 . S
C266 C265 1.339 . S
C266 C267 1.439 . S
C266 H295 0.950 . S
C267 N263 1.383 . S
C267 C266 1.439 . S
C267 C285 1.392 . S
N268 Co252 2.282 1_556 S
N268 C271 1.332 . S
N268 C273 1.332 . S
C269 C270 1.386 . S
C269 C272 1.388 . S
C270 C269 1.386 . S
C270 C271 1.382 . S
C270 H296 0.950 . S
C271 N268 1.332 . S
C271 C270 1.382 . S
C271 H282 0.952 . S
C272 C269 1.388 . S
C272 C273 1.382 . S
C272 H297 0.950 . S
C273 N268 1.332 . S
C273 C272 1.382 . S
C273 H283 0.948 . S
N274 Co252 2.282 . S
N274 C278 1.332 . S
N274 C279 1.332 . S
C275 C276 1.388 . S
C275 C279 1.382 . S
C275 H298 0.950 . S
C276 C275 1.388 . S
C276 C277 1.386 . S
C277 C276 1.386 . S
C277 C278 1.382 . S
C277 H299 0.950 . S
C278 N274 1.332 . S
C278 C277 1.382 . S
C278 H280 0.952 . S
C279 N274 1.332 . S
C279 C275 1.382 . S
C279 H281 0.948 . S
H280 C278 0.952 . S
H281 C279 0.948 . S
H282 C271 0.952 . S
H283 C273 0.948 . S
C284 C250 1.395 . S
C284 C254 1.412 . S
C285 C247 1.389 . S
C285 C267 1.392 . S
C286 C257 1.392 . S
C286 C259 1.389 . S
C287 C262 1.395 1_554 S
C287 C264 1.391 . S
H288 C248 0.951 . S
H289 C249 0.950 . S
H290 C255 0.949 . S
H291 C256 0.950 . S
H292 C260 0.951 . S
H293 C261 0.950 . S
H294 C265 0.949 . S
H295 C266 0.950 . S
H296 C270 0.950 . S
H297 C272 0.950 . S
H298 C275 0.950 . S
H299 C277 0.950 . S
C300 C301 1.443 . S
C300 N304 1.376 1_565 S
C300 C338 1.389 . S
C301 C300 1.443 . S
C301 C302 1.356 . S
C301 H341 0.951 . S
C302 C301 1.356 . S
C302 C303 1.415 1_565 S
C302 H342 0.971 1_565 S
C303 C302 1.415 1_545 S
C303 N304 1.374 . S
C303 C337 1.395 . S
N304 C300 1.376 1_545 S
N304 C303 1.374 . S
N304 Co305 2.008 . S
Co305 N304 2.008 . S
Co305 N306 1.995 . S
Co305 N311 2.008 . S
Co305 N316 1.995 1_545 S
Co305 N321 2.282 . S
Co305 N327 2.282 1_545 S
N306 Co305 1.995 . S
N306 C307 1.376 . S
N306 C310 1.383 . S
C307 N306 1.376 . S
C307 C308 1.446 . S
C307 C337 1.391 . S
C308 C307 1.446 . S
C308 C309 1.339 . S
C308 H343 0.949 . S
C309 C308 1.339 . S
C309 C310 1.439 . S
C309 H344 0.950 . S
C310 N306 1.383 . S
C310 C309 1.439 . S
C310 C339 1.392 . S
N311 Co305 2.008 . S
N311 C312 1.376 . S
N311 C315 1.374 . S
C312 N311 1.376 . S
C312 C313 1.443 . S
C312 C339 1.389 . S
C313 C312 1.443 . S
C313 C314 1.340 . S
C313 H345 0.951 . S
C314 C313 1.340 . S
C314 C315 1.439 . S
C314 H346 0.950 . S
C315 N311 1.374 . S
C315 C314 1.439 . S
C315 C340 1.395 . S
N316 Co305 1.995 1_565 S
N316 C317 1.376 . S
N316 C320 1.383 . S
C317 N316 1.376 . S
C317 C318 1.446 . S
C317 C340 1.391 1_565 S
C318 C317 1.446 . S
C318 C319 1.339 . S
C318 H347 0.949 . S
C319 C318 1.339 . S
C319 C320 1.439 . S
C319 H348 0.950 . S
C320 N316 1.383 . S
C320 C319 1.439 . S
C320 C338 1.392 . S
N321 Co305 2.282 . S
N321 C324 1.332 . S
N321 C326 1.332 . S
C322 C323 1.386 . S
C322 C325 1.388 . S
C323 C322 1.386 . S
C323 C324 1.382 . S
C323 H349 0.950 . S
C324 N321 1.332 . S
C324 C323 1.382 . S
C324 H335 0.952 . S
C325 C322 1.388 . S
C325 C326 1.382 . S
C325 H350 0.950 . S
C326 N321 1.332 . S
C326 C325 1.382 . S
C326 H336 0.948 . S
N327 Co305 2.282 1_565 S
N327 C331 1.332 . S
N327 C332 1.332 . S
C328 C329 1.388 . S
C328 C332 1.382 . S
C328 H351 0.950 . S
C329 C328 1.388 . S
C329 C330 1.386 . S
C330 C329 1.386 . S
C330 C331 1.382 . S
C330 H352 0.950 . S
C331 N327 1.332 . S
C331 C330 1.382 . S
C331 H333 0.952 1_565 S
C332 N327 1.332 . S
C332 C328 1.382 . S
C332 H334 0.948 . S
H333 C331 0.952 1_545 S
H334 C332 0.948 . S
H335 C324 0.952 . S
H336 C326 0.948 . S
C337 C303 1.395 . S
C337 C307 1.391 . S
C338 C300 1.389 . S
C338 C320 1.392 . S
C339 C310 1.392 . S
C339 C312 1.389 . S
C340 C315 1.395 . S
C340 C317 1.391 1_545 S
H341 C301 0.951 . S
H342 C302 0.971 1_545 S
H343 C308 0.949 . S
H344 C309 0.950 . S
H345 C313 0.951 . S
H346 C314 0.950 . S
H347 C318 0.949 . S
H348 C319 0.950 . S
H349 C323 0.950 . S
H350 C325 0.950 . S
H351 C328 0.950 . S
H352 C330 0.950 . S
C353 C354 1.443 . S
C353 N357 1.376 . S
C353 C391 1.389 . S
C354 C353 1.443 . S
C354 C355 1.340 . S
C354 H394 0.951 . S
C355 C354 1.340 . S
C355 C356 1.439 . S
C355 H395 0.950 . S
C356 C355 1.439 . S
C356 N357 1.374 . S
C356 C390 1.395 . S
N357 C353 1.376 . S
N357 C356 1.374 . S
N357 Co358 2.008 . S
Co358 N357 2.008 . S
Co358 N359 1.995 . S
Co358 N364 2.008 . S
Co358 N369 1.995 . S
Co358 N374 2.282 1_554 S
Co358 N380 2.282 . S
N359 Co358 1.995 . S
N359 C360 1.376 . S
N359 C363 1.383 1_554 S
C360 N359 1.376 . S
C360 C361 1.446 1_554 S
C360 C390 1.391 . S
C361 C360 1.446 1_556 S
C361 C362 1.339 . S
C361 H396 0.949 . S
C362 C361 1.339 . S
C362 C363 1.439 . S
C362 H397 0.950 . S
C363 N359 1.383 1_556 S
C363 C362 1.439 . S
C363 C392 1.392 . S
N364 Co358 2.008 . S
N364 C365 1.376 1_554 S
N364 C368 1.374 . S
C365 N364 1.376 1_556 S
C365 C366 1.443 . S
C365 C392 1.389 . S
C366 C365 1.443 . S
C366 C367 1.340 . S
C366 H398 0.951 . S
C367 C366 1.340 . S
C367 C368 1.439 1_556 S
C367 H399 0.950 . S
C368 N364 1.374 . S
C368 C367 1.439 1_554 S
C368 C393 1.395 . S
N369 Co358 1.995 . S
N369 C370 1.376 . S
N369 C373 1.383 . S
C370 N369 1.376 . S
C370 C371 1.446 . S
C370 C393 1.391 . S
C371 C370 1.446 . S
C371 C372 1.339 . S
C371 H400 0.949 . S
C372 C371 1.339 . S
C372 C373 1.439 . S
C372 H401 0.950 . S
C373 N369 1.383 . S
C373 C372 1.439 . S
C373 C391 1.392 . S
N374 Co358 2.282 1_556 S
N374 C377 1.332 . S
N374 C379 1.332 . S
C375 C376 1.386 . S
C375 C378 1.388 . S
C376 C375 1.386 . S
C376 C377 1.382 . S
C376 H402 0.950 . S
C377 N374 1.332 . S
C377 C376 1.382 . S
C377 H388 0.952 1_556 S
C378 C375 1.388 . S
C378 C379 1.382 . S
C378 H403 0.950 . S
C379 N374 1.332 . S
C379 C378 1.382 . S
C379 H389 0.948 . S
N380 Co358 2.282 . S
N380 C384 1.332 . S
N380 C385 1.332 . S
C381 C382 1.388 . S
C381 C385 1.382 . S
C381 H404 0.950 . S
C382 C381 1.388 . S
C382 C383 1.386 . S
C383 C382 1.386 . S
C383 C384 1.382 . S
C383 H405 0.950 . S
C384 N380 1.332 . S
C384 C383 1.382 . S
C384 H386 0.952 . S
C385 N380 1.332 . S
C385 C381 1.382 . S
C385 H387 0.948 . S
H386 C384 0.952 . S
H387 C385 0.948 . S
H388 C377 0.952 1_554 S
H389 C379 0.948 . S
C390 C356 1.395 . S
C390 C360 1.391 . S
C391 C353 1.389 . S
C391 C373 1.392 . S
C392 C363 1.392 . S
C392 C365 1.389 . S
C393 C368 1.395 . S
C393 C370 1.391 . S
H394 C354 0.951 . S
H395 C355 0.950 . S
H396 C361 0.949 . S
H397 C362 0.950 . S
H398 C366 0.951 . S
H399 C367 0.950 . S
H400 C371 0.949 . S
H401 C372 0.950 . S
H402 C376 0.950 . S
H403 C378 0.950 . S
H404 C381 0.950 . S
H405 C383 0.950 . S
H406 C412 0.930 . S
H407 C416 0.930 . S
H408 C421 0.929 . S
H409 C419 0.929 . S
H410 C414 0.929 . S
H411 C420 0.929 . S
C412 H406 0.930 . S
C412 C413 1.367 . S
C412 C420 1.378 . S
C413 C412 1.367 . S
C413 C421 1.433 . S
C414 H410 0.929 . S
C414 C416 1.378 . S
C414 C418 1.350 . S
C415 C418 1.463 . S
C415 C420 1.350 . S
C415 N423 1.427 . S
C416 H407 0.930 . S
C416 C414 1.378 . S
C416 C417 1.367 . S
C417 C416 1.367 . S
C417 C419 1.433 . S
C418 C414 1.350 . S
C418 C415 1.463 . S
C418 N422 1.427 . S
C419 H409 0.929 . S
C419 C417 1.433 . S
C419 N422 1.384 . S
C420 H411 0.929 . S
C420 C412 1.378 . S
C420 C415 1.350 . S
C421 H408 0.929 . S
C421 C413 1.433 . S
C421 N423 1.384 . S
N422 C418 1.427 . S
N422 C419 1.384 . S
N423 C415 1.427 . S
N423 C421 1.384 . S
H424 C430 0.930 . S
H425 C434 0.930 . S
H426 C439 0.929 . S
H427 C437 0.929 . S
H428 C432 0.929 . S
H429 C438 0.929 . S
C430 H424 0.930 . S
C430 C431 1.367 . S
C430 C438 1.378 . S
C431 C430 1.367 . S
C431 C439 1.433 . S
C432 H428 0.929 . S
C432 C434 1.378 . S
C432 C436 1.350 . S
C433 C436 1.463 . S
C433 C438 1.350 . S
C433 N441 1.427 . S
C434 H425 0.930 . S
C434 C432 1.378 . S
C434 C435 1.367 . S
C435 C434 1.367 . S
C435 C437 1.433 . S
C436 C432 1.350 . S
C436 C433 1.463 . S
C436 N440 1.427 . S
C437 H427 0.929 . S
C437 C435 1.433 . S
C437 N440 1.384 . S
C438 H429 0.929 . S
C438 C430 1.378 . S
C438 C433 1.350 . S
C439 H426 0.929 . S
C439 C431 1.433 . S
C439 N441 1.384 . S
N440 C436 1.427 . S
N440 C437 1.384 . S
N441 C433 1.427 . S
N441 C439 1.384 . S
H442 C448 0.930 . S
H443 C452 0.930 . S
H444 C457 0.929 . S
H445 C455 0.929 . S
H446 C450 0.929 . S
H447 C456 0.929 . S
C448 H442 0.930 . S
C448 C449 1.367 . S
C448 C456 1.378 . S
C449 C448 1.367 . S
C449 C457 1.433 . S
C450 H446 0.929 . S
C450 C452 1.378 . S
C450 C454 1.350 . S
C451 C454 1.463 . S
C451 C456 1.350 . S
C451 N459 1.427 . S
C452 H443 0.930 . S
C452 C450 1.378 . S
C452 C453 1.367 . S
C453 C452 1.367 . S
C453 C455 1.433 . S
C454 C450 1.350 . S
C454 C451 1.463 . S
C454 N458 1.427 . S
C455 H445 0.929 . S
C455 C453 1.433 . S
C455 N458 1.384 . S
C456 H447 0.929 . S
C456 C448 1.378 . S
C456 C451 1.350 . S
C457 H444 0.929 . S
C457 C449 1.433 . S
C457 N459 1.384 . S
N458 C454 1.427 . S
N458 C455 1.384 . S
N459 C451 1.427 . S
N459 C457 1.384 . S
H460 C466 0.930 . S
H461 C470 0.930 . S
H462 C475 0.929 . S
H463 C473 0.929 . S
H464 C468 0.929 . S
H465 C474 0.929 . S
C466 H460 0.930 . S
C466 C467 1.367 . S
C466 C474 1.378 . S
C467 C466 1.367 . S
C467 C475 1.433 . S
C468 H464 0.929 . S
C468 C470 1.378 . S
C468 C472 1.350 . S
C469 C472 1.463 . S
C469 C474 1.350 . S
C469 N477 1.427 . S
C470 H461 0.930 . S
C470 C468 1.378 . S
C470 C471 1.367 . S
C471 C470 1.367 . S
C471 C473 1.433 . S
C472 C468 1.350 . S
C472 C469 1.463 . S
C472 N476 1.427 . S
C473 H463 0.929 . S
C473 C471 1.433 . S
C473 N476 1.384 . S
C474 H465 0.929 . S
C474 C466 1.378 . S
C474 C469 1.350 . S
C475 H462 0.929 . S
C475 C467 1.433 . S
C475 N477 1.384 . S
N476 C472 1.427 . S
N476 C473 1.384 . S
N477 C469 1.427 . S
N477 C475 1.384 . S
H478 C484 0.930 . S
H479 C488 0.930 . S
H480 C493 0.929 . S
H481 C491 0.929 . S
H482 C486 0.929 . S
H483 C492 0.929 . S
C484 H478 0.930 . S
C484 C485 1.367 . S
C484 C492 1.378 . S
C485 C484 1.367 . S
C485 C493 1.433 . S
C486 H482 0.929 . S
C486 C488 1.378 . S
C486 C490 1.350 . S
C487 C490 1.463 . S
C487 C492 1.350 . S
C487 N495 1.427 . S
C488 H479 0.930 . S
C488 C486 1.378 . S
C488 C489 1.367 . S
C489 C488 1.367 . S
C489 C491 1.433 . S
C490 C486 1.350 . S
C490 C487 1.463 . S
C490 N494 1.427 . S
C491 H481 0.929 . S
C491 C489 1.433 . S
C491 N494 1.384 . S
C492 H483 0.929 . S
C492 C484 1.378 . S
C492 C487 1.350 . S
C493 H480 0.929 . S
C493 C485 1.433 . S
C493 N495 1.384 . S
N494 C490 1.427 . S
N494 C491 1.384 . S
N495 C487 1.427 . S
N495 C493 1.384 . S
H496 C502 0.930 . S
H497 C506 0.930 . S
H498 C511 0.929 . S
H499 C509 0.929 . S
H500 C504 0.929 . S
H501 C510 0.929 . S
C502 H496 0.930 . S
C502 C503 1.367 . S
C502 C510 1.378 . S
C503 C502 1.367 . S
C503 C511 1.433 . S
C504 H500 0.929 . S
C504 C506 1.378 . S
C504 C508 1.350 . S
C505 C508 1.463 . S
C505 C510 1.350 . S
C505 N513 1.427 . S
C506 H497 0.930 . S
C506 C504 1.378 . S
C506 C507 1.367 . S
C507 C506 1.367 . S
C507 C509 1.433 . S
C508 C504 1.350 . S
C508 C505 1.463 . S
C508 N512 1.427 . S
C509 H499 0.929 . S
C509 C507 1.433 . S
C509 N512 1.384 . S
C510 H501 0.929 . S
C510 C502 1.378 . S
C510 C505 1.350 . S
C511 H498 0.929 . S
C511 C503 1.433 . S
C511 N513 1.384 . S
N512 C508 1.427 . S
N512 C509 1.384 . S
N513 C505 1.427 . S
N513 C511 1.384 . S
H514 C520 0.930 . S
H515 C524 0.930 . S
H516 C529 0.929 . S
H517 C527 0.929 . S
H518 C522 0.929 . S
H519 C528 0.929 . S
C520 H514 0.930 . S
C520 C521 1.367 . S
C520 C528 1.378 . S
C521 C520 1.367 . S
C521 C529 1.433 . S
C522 H518 0.929 . S
C522 C524 1.378 . S
C522 C526 1.350 . S
C523 C526 1.463 . S
C523 C528 1.350 . S
C523 N531 1.427 . S
C524 H515 0.930 . S
C524 C522 1.378 . S
C524 C525 1.367 . S
C525 C524 1.367 . S
C525 C527 1.433 . S
C526 C522 1.350 . S
C526 C523 1.463 . S
C526 N530 1.427 . S
C527 H517 0.929 . S
C527 C525 1.433 . S
C527 N530 1.384 . S
C528 H519 0.929 . S
C528 C520 1.378 . S
C528 C523 1.350 . S
C529 H516 0.929 . S
C529 C521 1.433 . S
C529 N531 1.384 . S
N530 C526 1.427 . S
N530 C527 1.384 . S
N531 C523 1.427 . S
N531 C529 1.384 . S
H532 C538 0.930 . S
H533 C542 0.930 . S
H534 C547 0.929 . S
H535 C545 0.929 . S
H536 C540 0.929 . S
H537 C546 0.929 . S
C538 H532 0.930 . S
C538 C539 1.367 . S
C538 C546 1.378 . S
C539 C538 1.367 . S
C539 C547 1.433 . S
C540 H536 0.929 . S
C540 C542 1.378 . S
C540 C544 1.350 . S
C541 C544 1.463 . S
C541 C546 1.350 . S
C541 N549 1.427 . S
C542 H533 0.930 . S
C542 C540 1.378 . S
C542 C543 1.367 . S
C543 C542 1.367 . S
C543 C545 1.433 . S
C544 C540 1.350 . S
C544 C541 1.463 . S
C544 N548 1.427 . S
C545 H535 0.929 . S
C545 C543 1.433 . S
C545 N548 1.384 . S
C546 H537 0.929 . S
C546 C538 1.378 . S
C546 C541 1.350 . S
C547 H534 0.929 . S
C547 C539 1.433 . S
C547 N549 1.384 . S
N548 C544 1.427 . S
N548 C545 1.384 . S
N549 C541 1.427 . S
N549 C547 1.384 . S
H550 C556 0.930 . S
H551 C560 0.930 . S
H552 C565 0.929 . S
H553 C563 0.929 . S
H554 C558 0.929 1_565 S
H555 C564 0.929 . S
C556 H550 0.930 . S
C556 C557 1.367 . S
C556 C564 1.378 . S
C557 C556 1.367 . S
C557 C565 1.433 . S
C558 H554 0.929 1_545 S
C558 C560 1.378 . S
C558 C562 1.350 . S
C559 C562 1.463 1_565 S
C559 C564 1.350 . S
C559 N567 1.427 . S
C560 H551 0.930 . S
C560 C558 1.378 . S
C560 C561 1.367 . S
C561 C560 1.367 . S
C561 C563 1.433 . S
C562 C558 1.350 . S
C562 C559 1.463 1_545 S
C562 N566 1.427 . S
C563 H553 0.929 . S
C563 C561 1.433 . S
C563 N566 1.384 . S
C564 H555 0.929 . S
C564 C556 1.378 . S
C564 C559 1.350 . S
C565 H552 0.929 . S
C565 C557 1.433 . S
C565 N567 1.384 . S
N566 C562 1.427 . S
N566 C563 1.384 . S
N567 C559 1.427 . S
N567 C565 1.384 . S
H568 C574 0.930 . S
H569 C578 0.930 . S
H570 C583 0.929 . S
H571 C581 0.929 . S
H572 C576 0.929 . S
H573 C582 0.929 . S
C574 H568 0.930 . S
C574 C575 1.367 . S
C574 C582 1.378 . S
C575 C574 1.367 . S
C575 C583 1.433 . S
C576 H572 0.929 . S
C576 C578 1.378 . S
C576 C580 1.350 . S
C577 C580 1.463 . S
C577 C582 1.350 . S
C577 N585 1.427 . S
C578 H569 0.930 . S
C578 C576 1.378 . S
C578 C579 1.367 . S
C579 C578 1.367 . S
C579 C581 1.433 . S
C580 C576 1.350 . S
C580 C577 1.463 . S
C580 N584 1.427 . S
C581 H571 0.929 . S
C581 C579 1.433 . S
C581 N584 1.384 . S
C582 H573 0.929 . S
C582 C574 1.378 . S
C582 C577 1.350 . S
C583 H570 0.929 . S
C583 C575 1.433 . S
C583 N585 1.384 . S
N584 C580 1.427 . S
N584 C581 1.384 . S
N585 C577 1.427 . S
N585 C583 1.384 . S
H586 C592 0.930 . S
H587 C596 0.930 . S
H588 C601 0.929 . S
H589 C599 0.929 . S
H590 C594 0.929 . S
H591 C600 0.929 . S
C592 H586 0.930 . S
C592 C593 1.367 . S
C592 C600 1.378 . S
C593 C592 1.367 . S
C593 C601 1.433 . S
C594 H590 0.929 . S
C594 C596 1.378 . S
C594 C598 1.350 . S
C595 C598 1.463 . S
C595 C600 1.350 . S
C595 N603 1.427 . S
C596 H587 0.930 . S
C596 C594 1.378 . S
C596 C597 1.367 . S
C597 C596 1.367 . S
C597 C599 1.433 . S
C598 C594 1.350 . S
C598 C595 1.463 . S
C598 N602 1.427 . S
C599 H589 0.929 . S
C599 C597 1.433 . S
C599 N602 1.384 . S
C600 H591 0.929 . S
C600 C592 1.378 . S
C600 C595 1.350 . S
C601 H588 0.929 . S
C601 C593 1.433 . S
C601 N603 1.384 . S
N602 C598 1.427 . S
N602 C599 1.384 . S
N603 C595 1.427 . S
N603 C601 1.384 . S
H604 C610 0.930 . S
H605 C614 0.930 . S
H606 C619 0.929 . S
H607 C617 0.929 . S
H608 C612 0.929 . S
H609 C618 0.929 . S
C610 H604 0.930 . S
C610 C611 1.367 . S
C610 C618 1.378 . S
C611 C610 1.367 . S
C611 C619 1.433 . S
C612 H608 0.929 . S
C612 C614 1.378 . S
C612 C616 1.350 . S
C613 C616 1.463 . S
C613 C618 1.350 . S
C613 N621 1.427 . S
C614 H605 0.930 . S
C614 C612 1.378 . S
C614 C615 1.367 . S
C615 C614 1.367 . S
C615 C617 1.433 . S
C616 C612 1.350 . S
C616 C613 1.463 . S
C616 N620 1.427 . S
C617 H607 0.929 . S
C617 C615 1.433 . S
C617 N620 1.384 . S
C618 H609 0.929 . S
C618 C610 1.378 . S
C618 C613 1.350 . S
C619 H606 0.929 . S
C619 C611 1.433 . S
C619 N621 1.384 . S
N620 C616 1.427 . S
N620 C617 1.384 . S
N621 C613 1.427 . S
N621 C619 1.384 . S
H622 C628 0.930 . S
H623 C632 0.930 . S
H624 C637 0.929 . S
H625 C635 0.929 . S
H626 C630 0.929 . S
H627 C636 0.929 . S
C628 H622 0.930 . S
C628 C629 1.367 . S
C628 C636 1.378 . S
C629 C628 1.367 . S
C629 C637 1.433 . S
C630 H626 0.929 . S
C630 C632 1.378 . S
C630 C634 1.350 . S
C631 C634 1.463 . S
C631 C636 1.350 . S
C631 N639 1.427 . S
C632 H623 0.930 . S
C632 C630 1.378 . S
C632 C633 1.367 . S
C633 C632 1.367 . S
C633 C635 1.433 . S
C634 C630 1.350 . S
C634 C631 1.463 . S
C634 N638 1.427 . S
C635 H625 0.929 . S
C635 C633 1.433 . S
C635 N638 1.384 . S
C636 H627 0.929 . S
C636 C628 1.378 . S
C636 C631 1.350 . S
C637 H624 0.929 . S
C637 C629 1.433 . S
C637 N639 1.384 . S
N638 C634 1.427 . S
N638 C635 1.384 . S
N639 C631 1.427 . S
N639 C637 1.384 . S
H640 C646 0.930 . S
H641 C650 0.930 . S
H642 C655 0.929 . S
H643 C653 0.929 . S
H644 C648 0.929 . S
H645 C654 0.929 . S
C646 H640 0.930 . S
C646 C647 1.367 . S
C646 C654 1.378 . S
C647 C646 1.367 . S
C647 C655 1.433 . S
C648 H644 0.929 . S
C648 C650 1.378 . S
C648 C652 1.350 . S
C649 C652 1.463 . S
C649 C654 1.350 . S
C649 N657 1.427 . S
C650 H641 0.930 . S
C650 C648 1.378 . S
C650 C651 1.367 . S
C651 C650 1.367 . S
C651 C653 1.433 . S
C652 C648 1.350 . S
C652 C649 1.463 . S
C652 N656 1.427 . S
C653 H643 0.929 . S
C653 C651 1.433 . S
C653 N656 1.384 . S
C654 H645 0.929 . S
C654 C646 1.378 . S
C654 C649 1.350 . S
C655 H642 0.929 . S
C655 C647 1.433 . S
C655 N657 1.384 . S
N656 C652 1.427 . S
N656 C653 1.384 . S
N657 C649 1.427 . S
N657 C655 1.384 . S
H658 C664 0.930 . S
H659 C668 0.930 . S
H660 C673 0.929 . S
H661 C671 0.929 . S
H662 C666 0.929 . S
H663 C672 0.929 . S
C664 H658 0.930 . S
C664 C665 1.367 . S
C664 C672 1.378 . S
C665 C664 1.367 . S
C665 C673 1.433 . S
C666 H662 0.929 . S
C666 C668 1.378 . S
C666 C670 1.350 . S
C667 C670 1.463 . S
C667 C672 1.350 . S
C667 N675 1.427 . S
C668 H659 0.930 . S
C668 C666 1.378 . S
C668 C669 1.367 . S
C669 C668 1.367 . S
C669 C671 1.433 . S
C670 C666 1.350 . S
C670 C667 1.463 . S
C670 N674 1.427 . S
C671 H661 0.929 . S
C671 C669 1.433 . S
C671 N674 1.384 . S
C672 H663 0.929 . S
C672 C664 1.378 . S
C672 C667 1.350 . S
C673 H660 0.929 . S
C673 C665 1.433 . S
C673 N675 1.384 . S
N674 C670 1.427 . S
N674 C671 1.384 . S
N675 C667 1.427 . S
N675 C673 1.384 . S
H676 C682 0.930 . S
H677 C686 0.930 . S
H678 C691 0.929 . S
H679 C689 0.929 . S
H680 C684 0.929 . S
H681 C690 0.929 . S
C682 H676 0.930 . S
C682 C683 1.367 . S
C682 C690 1.378 . S
C683 C682 1.367 . S
C683 C691 1.433 . S
C684 H680 0.929 . S
C684 C686 1.378 . S
C684 C688 1.350 . S
C685 C688 1.463 . S
C685 C690 1.350 . S
C685 N693 1.427 . S
C686 H677 0.930 . S
C686 C684 1.378 . S
C686 C687 1.367 . S
C687 C686 1.367 . S
C687 C689 1.433 . S
C688 C684 1.350 . S
C688 C685 1.463 . S
C688 N692 1.427 . S
C689 H679 0.929 . S
C689 C687 1.433 . S
C689 N692 1.384 . S
C690 H681 0.929 . S
C690 C682 1.378 . S
C690 C685 1.350 . S
C691 H678 0.929 . S
C691 C683 1.433 . S
C691 N693 1.384 . S
N692 C688 1.427 . S
N692 C689 1.384 . S
N693 C685 1.427 . S
N693 C691 1.384 . S
H694 C700 0.930 . S
H695 C704 0.930 . S
H696 C709 0.929 . S
H697 C707 0.929 . S
H698 C702 0.929 . S
H699 C708 0.929 . S
C700 H694 0.930 . S
C700 C701 1.367 . S
C700 C708 1.378 . S
C701 C700 1.367 . S
C701 C709 1.433 . S
C702 H698 0.929 . S
C702 C704 1.378 . S
C702 C706 1.350 . S
C703 C706 1.463 . S
C703 C708 1.350 . S
C703 N711 1.427 . S
C704 H695 0.930 . S
C704 C702 1.378 . S
C704 C705 1.367 . S
C705 C704 1.367 . S
C705 C707 1.433 . S
C706 C702 1.350 . S
C706 C703 1.463 . S
C706 N710 1.427 . S
C707 H697 0.929 . S
C707 C705 1.433 . S
C707 N710 1.384 . S
C708 H699 0.929 . S
C708 C700 1.378 . S
C708 C703 1.350 . S
C709 H696 0.929 . S
C709 C701 1.433 . S
C709 N711 1.384 . S
N710 C706 1.427 . S
N710 C707 1.384 . S
N711 C703 1.427 . S
N711 C709 1.384 . S
H712 C718 0.930 . S
H713 C722 0.930 . S
H714 C727 0.929 . S
H715 C725 0.929 . S
H716 C720 0.929 . S
H717 C726 0.929 . S
C718 H712 0.930 . S
C718 C719 1.367 . S
C718 C726 1.378 . S
C719 C718 1.367 . S
C719 C727 1.433 . S
C720 H716 0.929 . S
C720 C722 1.378 . S
C720 C724 1.350 . S
C721 C724 1.463 . S
C721 C726 1.350 . S
C721 N729 1.427 . S
C722 H713 0.930 . S
C722 C720 1.378 . S
C722 C723 1.367 . S
C723 C722 1.367 . S
C723 C725 1.433 . S
C724 C720 1.350 . S
C724 C721 1.463 . S
C724 N728 1.427 . S
C725 H715 0.929 . S
C725 C723 1.433 . S
C725 N728 1.384 . S
C726 H717 0.929 . S
C726 C718 1.378 . S
C726 C721 1.350 . S
C727 H714 0.929 . S
C727 C719 1.433 . S
C727 N729 1.384 . S
N728 C724 1.427 . S
N728 C725 1.384 . S
N729 C721 1.427 . S
N729 C727 1.384 . S
H730 C736 0.930 . S
H731 C740 0.930 . S
H732 C745 0.929 . S
H733 C743 0.929 . S
H734 C738 0.929 . S
H735 C744 0.929 . S
C736 H730 0.930 . S
C736 C737 1.367 . S
C736 C744 1.378 . S
C737 C736 1.367 . S
C737 C745 1.433 . S
C738 H734 0.929 . S
C738 C740 1.378 . S
C738 C742 1.350 . S
C739 C742 1.463 . S
C739 C744 1.350 . S
C739 N747 1.427 . S
C740 H731 0.930 . S
C740 C738 1.378 . S
C740 C741 1.367 . S
C741 C740 1.367 . S
C741 C743 1.433 . S
C742 C738 1.350 . S
C742 C739 1.463 . S
C742 N746 1.427 . S
C743 H733 0.929 . S
C743 C741 1.433 . S
C743 N746 1.384 . S
C744 H735 0.929 . S
C744 C736 1.378 . S
C744 C739 1.350 . S
C745 H732 0.929 . S
C745 C737 1.433 . S
C745 N747 1.384 . S
N746 C742 1.427 . S
N746 C743 1.384 . S
N747 C739 1.427 . S
N747 C745 1.384 . S
H748 C754 0.930 . S
H749 C758 0.930 . S
H750 C763 0.929 . S
H751 C761 0.929 . S
H752 C756 0.929 . S
H753 C762 0.929 . S
C754 H748 0.930 . S
C754 C755 1.367 . S
C754 C762 1.378 . S
C755 C754 1.367 . S
C755 C763 1.433 . S
C756 H752 0.929 . S
C756 C758 1.378 . S
C756 C760 1.350 . S
C757 C760 1.463 . S
C757 C762 1.350 . S
C757 N765 1.427 . S
C758 H749 0.930 . S
C758 C756 1.378 . S
C758 C759 1.367 . S
C759 C758 1.367 . S
C759 C761 1.433 . S
C760 C756 1.350 . S
C760 C757 1.463 . S
C760 N764 1.427 . S
C761 H751 0.929 . S
C761 C759 1.433 . S
C761 N764 1.384 . S
C762 H753 0.929 . S
C762 C754 1.378 . S
C762 C757 1.350 . S
C763 H750 0.929 . S
C763 C755 1.433 . S
C763 N765 1.384 . S
N764 C760 1.427 . S
N764 C761 1.384 . S
N765 C757 1.427 . S
N765 C763 1.384 . S
H766 C772 0.930 . S
H767 C776 0.930 . S
H768 C781 0.929 . S
H769 C779 0.929 . S
H770 C774 0.929 . S
H771 C780 0.929 . S
C772 H766 0.930 . S
C772 C773 1.367 . S
C772 C780 1.378 . S
C773 C772 1.367 . S
C773 C781 1.433 . S
C774 H770 0.929 . S
C774 C776 1.378 . S
C774 C778 1.350 . S
C775 C778 1.463 . S
C775 C780 1.350 . S
C775 N783 1.427 . S
C776 H767 0.930 . S
C776 C774 1.378 . S
C776 C777 1.367 . S
C777 C776 1.367 . S
C777 C779 1.433 . S
C778 C774 1.350 . S
C778 C775 1.463 . S
C778 N782 1.427 . S
C779 H769 0.929 . S
C779 C777 1.433 . S
C779 N782 1.384 . S
C780 H771 0.929 . S
C780 C772 1.378 . S
C780 C775 1.350 . S
C781 H768 0.929 . S
C781 C773 1.433 . S
C781 N783 1.384 . S
N782 C778 1.427 . S
N782 C779 1.384 . S
N783 C775 1.427 . S
N783 C781 1.384 . S
H784 C790 0.930 . S
H785 C794 0.930 . S
H786 C799 0.929 . S
H787 C797 0.929 . S
H788 C792 0.929 . S
H789 C798 0.929 . S
C790 H784 0.930 . S
C790 C791 1.367 . S
C790 C798 1.378 . S
C791 C790 1.367 . S
C791 C799 1.433 . S
C792 H788 0.929 . S
C792 C794 1.378 . S
C792 C796 1.350 . S
C793 C796 1.463 . S
C793 C798 1.350 . S
C793 N801 1.427 . S
C794 H785 0.930 . S
C794 C792 1.378 . S
C794 C795 1.367 . S
C795 C794 1.367 . S
C795 C797 1.433 . S
C796 C792 1.350 . S
C796 C793 1.463 . S
C796 N800 1.427 . S
C797 H787 0.929 . S
C797 C795 1.433 . S
C797 N800 1.384 . S
C798 H789 0.929 . S
C798 C790 1.378 . S
C798 C793 1.350 . S
C799 H786 0.929 . S
C799 C791 1.433 . S
C799 N801 1.384 . S
N800 C796 1.427 . S
N800 C797 1.384 . S
N801 C793 1.427 . S
N801 C799 1.384 . S
H802 C808 0.930 . S
H803 C812 0.926 1_565 S
H804 C817 0.929 . S
H805 C815 0.929 . S
H806 C810 0.929 . S
H807 C816 0.929 . S
C808 H802 0.930 . S
C808 C809 1.367 . S
C808 C816 1.378 . S
C809 C808 1.367 . S
C809 C817 1.433 . S
C810 H806 0.929 . S
C810 C812 1.370 1_565 S
C810 C814 1.350 . S
C811 C814 1.463 . S
C811 C816 1.350 . S
C811 N819 1.427 . S
C812 H803 0.926 1_545 S
C812 C810 1.370 1_545 S
C812 C813 1.376 . S
C813 C812 1.376 . S
C813 C815 1.433 . S
C814 C810 1.350 . S
C814 C811 1.463 . S
C814 N818 1.427 1_565 S
C815 H805 0.929 . S
C815 C813 1.433 . S
C815 N818 1.384 . S
C816 H807 0.929 . S
C816 C808 1.378 . S
C816 C811 1.350 . S
C817 H804 0.929 . S
C817 C809 1.433 . S
C817 N819 1.384 . S
N818 C814 1.427 1_545 S
N818 C815 1.384 . S
N819 C811 1.427 . S
N819 C817 1.384 . S
H820 C826 0.930 . S
H821 C830 0.930 . S
H822 C835 0.929 . S
H823 C833 0.929 . S
H824 C828 0.929 . S
H825 C834 0.929 . S
C826 H820 0.930 . S
C826 C827 1.367 . S
C826 C834 1.378 . S
C827 C826 1.367 . S
C827 C835 1.433 . S
C828 H824 0.929 . S
C828 C830 1.378 . S
C828 C832 1.350 . S
C829 C832 1.463 . S
C829 C834 1.350 . S
C829 N837 1.427 . S
C830 H821 0.930 . S
C830 C828 1.378 . S
C830 C831 1.367 . S
C831 C830 1.367 . S
C831 C833 1.433 . S
C832 C828 1.350 . S
C832 C829 1.463 . S
C832 N836 1.427 . S
C833 H823 0.929 . S
C833 C831 1.433 . S
C833 N836 1.384 . S
C834 H825 0.929 . S
C834 C826 1.378 . S
C834 C829 1.350 . S
C835 H822 0.929 . S
C835 C827 1.433 . S
C835 N837 1.384 . S
N836 C832 1.427 . S
N836 C833 1.384 . S
N837 C829 1.427 . S
N837 C835 1.384 . S
C417 C110 1.541 . S
C413 C5 1.393 . S
C435 C179 1.481 . S
C431 C16 1.239 . S
C453 C117 1.697 . S
C449 C30 1.698 . S
C471 C180 1.617 . S
C467 C40 1.558 . S
C489 C233 1.457 . S
C485 C8 1.460 . S
C507 C269 1.491 . S
C503 C18 1.417 . S
C521 C29 1.732 . S
C525 C329 1.749 . S
C543 C392 1.550 . S
C539 C38 1.302 . S
C561 C232 1.416 . S
C557 C19 1.403 . S
C575 C27 1.481 . S
C579 C276 1.635 . S
C597 C322 1.596 . S
C593 C41 1.571 . S
C615 C391 1.542 . S
C611 C7 1.490 . S
C629 C52 1.536 . S
C633 C170 1.569 . S
C651 C127 1.603 1_655 S
C647 C62 1.561 . S
C665 C74 1.383 . S
C669 C163 1.391 . S
C683 C82 1.210 . S
C687 C126 1.404 . S
C705 C338 1.805 . S
C701 C51 1.698 . S
C723 C382 1.597 . S
C719 C60 1.349 . S
C741 C216 1.511 . S
C737 C71 1.257 . S
C755 C84 1.434 . S
C759 C285 1.489 . S
C777 C339 1.673 . S
C773 C63 1.664 . S
C795 C375 1.497 . S
C791 C73 1.447 . S
C813 C223 1.534 . S
C809 C85 1.543 . S
C827 C49 1.361 . S
C831 C286 1.663 . S
