# Generated by pormake.
# Topology ssa, (4,4)-cn, num edge types: 1
# Building blocks:
#     Node 0, Type 0, BuildingBlock: NAWXER_clean_sbu_0, # of connection points: 4
#     Node 1, Type 0, BuildingBlock: NAWXER_clean_sbu_0, # of connection points: 4
#     Node 2, Type 0, BuildingBlock: NAWXER_clean_sbu_0, # of connection points: 4
#     Node 3, Type 0, BuildingBlock: NAWXER_clean_sbu_0, # of connection points: 4
#     Node 4, Type 0, BuildingBlock: NAWXER_clean_sbu_0, # of connection points: 4
#     Node 5, Type 0, BuildingBlock: NAWXER_clean_sbu_0, # of connection points: 4
#     Node 6, Type 1, BuildingBlock: ESEHIV_clean_sbu_0, # of connection points: 4
#     Node 7, Type 1, BuildingBlock: ESEHIV_clean_sbu_0, # of connection points: 4
#     Node 8, Type 1, BuildingBlock: ESEHIV_clean_sbu_0, # of connection points: 4
#     Node 9, Type 1, BuildingBlock: ESEHIV_clean_sbu_0, # of connection points: 4
#     Node 10, Type 1, BuildingBlock: ESEHIV_clean_sbu_0, # of connection points: 4
#     Node 11, Type 1, BuildingBlock: ESEHIV_clean_sbu_0, # of connection points: 4
#     Edge 12, Type (0, 1), BuildingBlock: AJUNOK_clean_linker_0, # of connection points: 2
#     Edge 13, Type (0, 1), BuildingBlock: AJUNOK_clean_linker_0, # of connection points: 2
#     Edge 14, Type (0, 1), BuildingBlock: AJUNOK_clean_linker_0, # of connection points: 2
#     Edge 15, Type (0, 1), BuildingBlock: AJUNOK_clean_linker_0, # of connection points: 2
#     Edge 16, Type (0, 1), BuildingBlock: AJUNOK_clean_linker_0, # of connection points: 2
#     Edge 17, Type (0, 1), BuildingBlock: AJUNOK_clean_linker_0, # of connection points: 2
#     Edge 18, Type (0, 1), BuildingBlock: AJUNOK_clean_linker_0, # of connection points: 2
#     Edge 19, Type (0, 1), BuildingBlock: AJUNOK_clean_linker_0, # of connection points: 2
#     Edge 20, Type (0, 1), BuildingBlock: AJUNOK_clean_linker_0, # of connection points: 2
#     Edge 21, Type (0, 1), BuildingBlock: AJUNOK_clean_linker_0, # of connection points: 2
#     Edge 22, Type (0, 1), BuildingBlock: AJUNOK_clean_linker_0, # of connection points: 2
#     Edge 23, Type (0, 1), BuildingBlock: AJUNOK_clean_linker_0, # of connection points: 2
#     Edge 24, Type (0, 1), BuildingBlock: AJUNOK_clean_linker_0, # of connection points: 2
#     Edge 25, Type (0, 1), BuildingBlock: AJUNOK_clean_linker_0, # of connection points: 2
#     Edge 26, Type (0, 1), BuildingBlock: AJUNOK_clean_linker_0, # of connection points: 2
#     Edge 27, Type (0, 1), BuildingBlock: AJUNOK_clean_linker_0, # of connection points: 2
#     Edge 28, Type (0, 1), BuildingBlock: AJUNOK_clean_linker_0, # of connection points: 2
#     Edge 29, Type (0, 1), BuildingBlock: AJUNOK_clean_linker_0, # of connection points: 2
#     Edge 30, Type (0, 1), BuildingBlock: AJUNOK_clean_linker_0, # of connection points: 2
#     Edge 31, Type (0, 1), BuildingBlock: AJUNOK_clean_linker_0, # of connection points: 2
#     Edge 32, Type (0, 1), BuildingBlock: AJUNOK_clean_linker_0, # of connection points: 2
#     Edge 33, Type (0, 1), BuildingBlock: AJUNOK_clean_linker_0, # of connection points: 2
#     Edge 34, Type (0, 1), BuildingBlock: AJUNOK_clean_linker_0, # of connection points: 2
#     Edge 35, Type (0, 1), BuildingBlock: AJUNOK_clean_linker_0, # of connection points: 2
# Relax obj value: 0.047
# Max RMSD: 0.097
# Mean RMSD: 0.064
data_MOF--net-ssa--node1-NAWXER_clean_sbu_0--node2-ESEHIV_clean_sbu_0--edge1-AJUNOK_clean_linker_0
_symmetry_space_group_name_H-M    P1
_symmetry_Int_Tables_number       1
_symmetry_cell_setting            triclinic
loop_
_symmetry_equiv_pos_as_xyz
'x, y, z'
_cell_length_a     35.015737
_cell_length_b     35.025787
_cell_length_c     25.583871
_cell_angle_alpha  90.448892
_cell_angle_beta   90.008505
_cell_angle_gamma 120.02435
loop_
_atom_site_label
_atom_site_type_symbol
_atom_site_fract_x
_atom_site_fract_y
_atom_site_fract_z
_atom_type_partial_charge
C0 C 0.04921 0.56106 0.08781 0.0
C1 C 0.9827 0.40667 0.03107 0.0
O2 O 1.01743 0.52847 0.11073 0.0
Zn3 Zn 1.01644 0.48271 0.06551 0.0
O4 O 0.06777 0.55404 0.04873 0.0
Zn5 Zn 0.06309 0.50159 1.00206 0.0
O6 O 0.04684 0.51661 0.9341 0.0
O7 O 0.99548 0.49808 0.99384 0.0
O8 O 1.01615 0.43374 1.00443 0.0
O9 O 0.97132 0.42042 0.07105 0.0
O10 O 0.0774 0.48579 0.08707 0.0
O11 O 0.11943 0.50355 1.01725 0.0
C12 C 1.00885 0.51018 0.94708 0.0
C13 C 0.11396 0.49431 0.06575 0.0
C14 C 0.49447 0.07752 0.6001 0.0
C15 C 0.51265 0.96844 0.49139 0.0
O16 O 0.48549 0.03872 0.61233 0.0
Zn17 Zn 0.50192 1.02075 0.54711 0.0
O18 O 0.50921 0.09135 0.55404 0.0
Zn19 Zn 0.52584 0.0669 0.48463 0.0
O20 O 0.48481 0.06491 0.43192 0.0
O21 O 0.45283 1.01454 0.49294 0.0
O22 O 0.5235 1.00485 0.46828 0.0
O23 O 0.4985 0.96329 0.5382 0.0
O24 O 0.57148 0.06328 0.54551 0.0
O25 O 0.58881 0.10863 0.47888 0.0
C26 C 0.45018 0.03268 0.45087 0.0
C27 C 0.60062 0.09494 0.51821 0.0
C28 C 0.54672 0.49531 0.96629 0.0
C29 C 0.5682 0.61278 0.09531 0.0
O30 O 0.53999 0.5273 0.95756 0.0
Zn31 Zn 0.55716 0.55577 1.02748 0.0
O32 O 0.56056 0.49224 1.01153 0.0
Zn33 Zn 0.57931 0.52664 0.08503 0.0
O34 O 0.53693 0.48164 0.13133 0.0
O35 O 0.50695 0.50623 0.0747 0.0
O36 O 0.57885 0.58482 0.11181 0.0
O37 O 0.55412 0.60892 0.04853 0.0
O38 O 0.6261 0.57791 1.02601 0.0
O39 O 0.641 0.54296 0.08707 0.0
C40 C 0.50277 0.48043 0.11226 0.0
C41 C 0.6538 0.57023 0.0496 0.0
C42 C 0.08397 0.58546 0.44713 0.0
C43 C 0.98606 0.46845 0.57323 0.0
O44 O 0.10135 0.58734 0.4918 0.0
Zn45 Zn 0.0848 0.553 0.56457 0.0
O46 O 0.04431 0.55505 0.43836 0.0
Zn47 Zn 1.0326 0.5248 0.50631 0.0
O48 O 1.03288 0.57341 0.55541 0.0
O49 O 0.08761 0.59875 0.61226 0.0
O50 O 0.97583 0.47246 0.52656 0.0
O51 O 1.02503 0.49578 0.58999 0.0
O52 O 0.12796 0.53316 0.56577 0.0
O53 O 0.07719 0.50045 0.50434 0.0
C54 C 0.05423 0.59935 0.59338 0.0
C55 C 0.11196 0.50592 0.52769 0.0
C56 C 0.59306 0.03327 0.10177 0.0
C57 C 0.50405 0.09254 0.03231 0.0
O58 O 0.59065 0.06622 0.11857 0.0
Zn59 Zn 0.5502 0.06476 0.06626 0.0
O60 O 0.57199 1.01307 0.06012 0.0
Zn61 Zn 0.52777 1.0171 1.00526 0.0
O62 O 0.56033 0.03268 0.93937 0.0
O63 O 0.58948 0.08772 0.9957 0.0
O64 O 0.50091 0.0601 1.00533 0.0
O65 O 0.5293 0.10633 0.07211 0.0
O66 O 0.49115 1.00259 0.08405 0.0
O67 O 0.47419 0.95978 1.0143 0.0
C68 C 0.58946 0.07234 0.94996 0.0
C69 C 0.46579 0.96553 0.0612 0.0
C70 C 0.63206 0.54025 0.58178 0.0
C71 C 0.50909 0.525 0.46782 0.0
O72 O 0.60685 0.55212 0.60433 0.0
Zn73 Zn 0.54871 0.55616 0.58485 0.0
O74 O 0.62362 0.5267 0.53459 0.0
Zn75 Zn 0.57083 0.53167 0.52241 0.0
O76 O 0.59577 0.60123 0.52213 0.0
O77 O 0.56849 0.61849 0.59026 0.0
O78 O 0.53801 0.51447 0.4558 0.0
O79 O 0.50987 0.54022 0.51379 0.0
O80 O 0.50511 0.51533 0.63342 0.0
O81 O 0.52299 0.48252 0.57228 0.0
C82 C 0.59198 0.6301 0.5492 0.0
C83 C 0.50005 0.48005 0.61242 0.0
Cu84 Cu 0.27812 0.45647 0.28551 0.0
N85 N 0.28757 0.41519 0.24974 0.0
N86 N 0.33211 0.39876 0.20477 0.0
C87 C 0.31951 0.42872 0.21374 0.0
C88 C 0.30692 0.36451 0.23605 0.0
C89 C 0.27915 0.37463 0.26371 0.0
O90 O 0.336 0.49467 0.31966 0.0
C91 C 0.23655 0.46543 0.19252 0.0
O92 O 0.23741 0.42998 0.17739 0.0
H93 H 0.33688 0.46212 0.1991 0.0
H94 H 0.25846 0.356 0.29594 0.0
N95 N 0.23684 0.43169 0.33907 0.0
N96 N 0.19627 0.42997 0.40752 0.0
C97 C 0.23116 0.45534 0.37684 0.0
C98 C 0.20427 0.38984 0.34567 0.0
C99 C 0.17923 0.38867 0.38791 0.0
C100 C 0.34907 0.47346 0.34825 0.0
O101 O 0.32222 0.43117 0.35541 0.0
H102 H 0.25042 0.49095 0.37925 0.0
H103 H 0.1976 0.36254 0.32 0.0
O104 O 0.25461 0.48374 0.23629 0.0
H105 H 0.31081 0.33603 0.2416 0.0
H106 H 0.14954 0.36001 0.40157 0.0
Cu107 Cu 0.80676 0.24837 0.75935 0.0
N108 N 0.79781 0.21172 0.70188 0.0
N109 N 0.76401 0.17608 0.62842 0.0
C110 C 0.76743 0.20507 0.66548 0.0
C111 C 0.79333 0.16358 0.64205 0.0
C112 C 0.81482 0.18629 0.68714 0.0
O113 O 0.74937 0.22296 0.79585 0.0
C114 C 0.87329 0.3222 0.71127 0.0
O115 O 0.89262 0.29914 0.72126 0.0
H116 H 0.74636 0.21945 0.66791 0.0
H117 H 0.83998 0.18338 0.70807 0.0
N118 N 0.84514 0.24914 0.81077 0.0
N119 N 0.88237 0.26931 0.88637 0.0
C120 C 0.85813 0.27717 0.85179 0.0
C121 C 0.86166 0.22234 0.81974 0.0
C122 C 0.88534 0.23525 0.86607 0.0
C123 C 0.73182 0.18166 0.80537 0.0
O124 O 0.75211 0.16089 0.78887 0.0
H125 H 0.85021 0.30323 0.85583 0.0
H126 H 0.8563 0.19487 0.79524 0.0
O127 O 0.83375 0.30756 0.72741 0.0
H128 H 0.79787 0.13889 0.62182 0.0
H129 H 0.90296 0.22054 0.88374 0.0
Cu130 Cu 0.5959 0.82147 0.3032 0.0
N131 N 0.63234 0.87178 0.26486 0.0
N132 N 0.65051 0.9321 0.21828 0.0
C133 C 0.62211 0.90292 0.25291 0.0
C134 C 0.67973 0.9187 0.2077 0.0
C135 C 0.66861 0.88155 0.23685 0.0
O136 O 0.55417 0.83529 0.33969 0.0
C137 C 0.59804 0.75604 0.24097 0.0
O138 O 0.63792 0.77585 0.26116 0.0
H139 H 0.59238 0.90215 0.26619 0.0
H140 H 0.68438 0.86177 0.23544 0.0
N141 N 0.62795 0.81203 0.35484 0.0
N142 N 0.64095 0.78131 0.42353 0.0
C143 C 0.61003 0.78097 0.39183 0.0
C144 C 0.67181 0.83283 0.3633 0.0
C145 C 0.67997 0.81351 0.40546 0.0
C146 C 0.56789 0.85865 0.38166 0.0
O147 O 0.60749 0.8704 0.39933 0.0
H148 H 0.57505 0.75757 0.39424 0.0
H149 H 0.69611 0.85954 0.33992 0.0
O150 O 0.57182 0.77008 0.25408 0.0
H151 H 0.70588 0.93344 0.17913 0.0
H152 H 0.71199 0.82194 0.42114 0.0
Cu153 Cu 0.8458 0.5904 0.78842 0.0
N154 N 0.89152 0.63306 0.74792 0.0
N155 N 0.95178 0.65887 0.69888 0.0
C156 C 0.9156 0.62283 0.71611 0.0
C157 C 0.95076 0.69367 0.71991 0.0
C158 C 0.91303 0.67755 0.75009 0.0
O159 O 0.86695 0.55048 0.81239 0.0
C160 C 0.78747 0.56153 0.69751 0.0
O161 O 0.8234 0.57156 0.67117 0.0
H162 H 0.9082 0.58935 0.70837 0.0
H163 H 0.90318 0.6969 0.77359 0.0
N164 N 0.83748 0.61538 0.84912 0.0
N165 N 0.80493 0.62163 0.92107 0.0
C166 C 0.80088 0.59674 0.8787 0.0
C167 C 0.86591 0.65304 0.87428 0.0
C168 C 0.84563 0.65724 0.91848 0.0
C169 C 0.90713 0.5689 0.82819 0.0
O170 O 0.93104 0.6121 0.82855 0.0
H171 H 0.77172 0.56559 0.86922 0.0
H172 H 0.89931 0.67547 0.86209 0.0
O173 O 0.78983 0.56452 0.74746 0.0
H174 H 0.9758 0.72786 0.71481 0.0
H175 H 0.85985 0.68385 0.94695 0.0
Cu176 Cu 0.2413 0.80873 0.25166 0.0
N177 N 0.19453 0.79172 0.20498 0.0
N178 N 0.13723 0.74019 0.16005 0.0
C179 C 0.17795 0.75351 0.1784 0.0
C180 C 0.12746 0.77124 0.17506 0.0
C181 C 0.16331 0.8035 0.2026 0.0
O182 O 0.22097 0.75668 0.29753 0.0
C183 C 0.30149 0.84327 0.16607 0.0
O184 O 0.26706 0.84045 0.14195 0.0
H185 H 0.1936 0.73355 0.17724 0.0
H186 H 0.16468 0.83114 0.22336 0.0
N187 N 0.25169 0.85758 0.29219 0.0
N188 N 0.29105 0.91933 0.33907 0.0
C189 C 0.29228 0.88962 0.30638 0.0
C190 C 0.22357 0.86741 0.3166 0.0
C191 C 0.24785 0.9056 0.34567 0.0
C192 C 0.18138 0.73978 0.31465 0.0
O193 O 0.1592 0.75994 0.30438 0.0
H194 H 0.32217 0.88984 0.29517 0.0
H195 H 0.18803 0.8476 0.31487 0.0
O196 O 0.29681 0.82813 0.21249 0.0
H197 H 0.09592 0.76934 0.1693 0.0
H198 H 0.23474 0.9214 0.37056 0.0
Cu199 Cu 0.46034 0.25971 0.79722 0.0
N200 N 0.41871 0.26889 0.76287 0.0
N201 N 0.40436 0.3126 0.71349 0.0
C202 C 0.42731 0.29121 0.71788 0.0
C203 C 0.37845 0.30116 0.75618 0.0
C204 C 0.38745 0.27432 0.78661 0.0
O205 O 0.50155 0.31667 0.83145 0.0
C206 C 0.45861 0.19024 0.73943 0.0
O207 O 0.41871 0.17044 0.75914 0.0
H208 H 0.45568 0.2984 0.69408 0.0
H209 H 0.37701 0.26533 0.82658 0.0
N210 N 0.43411 0.22142 0.85288 0.0
N211 N 0.42991 0.18136 0.92222 0.0
C212 C 0.45679 0.21372 0.8896 0.0
C213 C 0.39124 0.19303 0.86258 0.0
C214 C 0.38859 0.16793 0.90522 0.0
C215 C 0.51236 0.35493 0.81404 0.0
O216 O 0.50562 0.35906 0.76453 0.0
H217 H 0.49242 0.2294 0.88996 0.0
H218 H 0.36404 0.18904 0.83859 0.0
O219 O 0.48389 0.23145 0.74926 0.0
H220 H 0.35893 0.31584 0.768 0.0
H221 H 0.35885 0.14053 0.92089 0.0
C222 C 0.17663 0.47862 0.07525 0.0
C223 C 0.14875 0.49228 0.09787 0.0
C224 C 0.20622 0.47196 0.10596 0.0
C225 C 0.21023 0.47982 0.16047 0.0
H226 H 0.17426 0.47113 0.03382 0.0
H227 H 0.22548 0.45952 0.08689 0.0
S228 S 0.14771 0.5199 0.23829 0.0
N229 N 0.12899 0.51594 0.17805 0.0
N230 N 0.18526 0.50458 0.23508 0.0
C231 C 0.18422 0.49572 0.18315 0.0
C232 C 0.15334 0.50156 0.15209 0.0
C233 C 0.66145 0.09035 0.56232 0.0
C234 C 0.6471 0.11595 0.53556 0.0
C235 C 0.70187 0.11004 0.58903 0.0
C236 C 0.72898 0.15604 0.59056 0.0
H237 H 0.6403 0.05491 0.56477 0.0
H238 H 0.7104 0.08943 0.61181 0.0
S239 S 0.70942 0.23749 0.52188 0.0
N240 N 0.66544 0.18941 0.50785 0.0
N241 N 0.74127 0.22645 0.55895 0.0
C242 C 0.71657 0.18179 0.56104 0.0
C243 C 0.67567 0.16172 0.53318 0.0
C244 C 0.60006 0.65886 0.17637 0.0
C245 C 0.57318 0.64901 0.13159 0.0
C246 C 0.60638 0.69244 0.21163 0.0
C247 C 0.58566 0.71771 0.20476 0.0
H248 H 0.61722 0.64093 0.18404 0.0
H249 H 0.62821 0.69885 0.24468 0.0
S250 S 0.51042 0.70472 0.09536 0.0
N251 N 0.52461 0.66707 0.08305 0.0
N252 N 0.53611 0.72986 0.15009 0.0
C253 C 0.55773 0.70772 0.161 0.0
C254 C 0.55172 0.67367 0.12427 0.0
C255 C 0.99858 0.62357 0.59241 0.0
C256 C 1.03595 0.62583 0.61653 0.0
C257 C 0.9734 0.63871 0.61782 0.0
C258 C 0.98504 0.65766 0.66771 0.0
H259 H 0.98666 0.60725 0.55492 0.0
H260 H 0.9428 0.63277 0.60003 0.0
S261 S 0.08442 0.68067 0.74355 0.0
N262 N 0.08702 0.65511 0.6902 0.0
N263 N 0.03915 0.68398 0.73773 0.0
C264 C 1.02456 0.66455 0.69019 0.0
C265 C 0.05028 0.64866 0.66454 0.0
C266 C 0.38804 0.90125 0.06049 0.0
C267 C 0.42604 0.9308 0.08892 0.0
C268 C 0.34862 0.87164 0.08595 0.0
C269 C 0.34568 0.86939 0.14096 0.0
H270 H 0.38807 0.90231 1.01819 0.0
H271 H 0.31976 0.85106 0.0622 0.0
S272 S 0.43699 0.93669 0.2337 0.0
N273 N 0.45895 0.95403 0.17544 0.0
N274 N 0.38541 0.89768 0.22293 0.0
C275 C 0.38413 0.89704 0.16985 0.0
C276 C 0.42407 0.92791 0.14396 0.0
C277 C 0.45249 0.43292 0.68547 0.0
C278 C 0.46937 0.43618 0.63479 0.0
C279 C 0.42838 0.39193 0.70992 0.0
C280 C 0.41984 0.35265 0.68433 0.0
H281 H 0.45971 0.46235 0.70746 0.0
H282 H 0.41879 0.39137 0.75025 0.0
S283 S 0.44994 0.34213 0.5485 0.0
N284 N 0.47095 0.39569 0.55757 0.0
N285 N 0.42547 0.31893 0.60391 0.0
C286 C 0.43366 0.35513 0.63248 0.0
C287 C 0.45839 0.39677 0.60759 0.0
C288 C 0.52124 0.93399 0.40844 0.0
C289 C 0.51902 0.9342 0.46364 0.0
C290 C 0.53292 0.90613 0.38129 0.0
C291 C 0.54347 0.8778 0.40829 0.0
H292 H 0.51534 0.95664 0.38598 0.0
H293 H 0.53662 0.90902 0.33922 0.0
S294 S 0.54015 0.86315 0.55198 0.0
N295 N 0.52563 0.9009 0.54364 0.0
N296 N 0.54876 0.84985 0.49283 0.0
C297 C 0.53955 0.87625 0.46309 0.0
C298 C 0.52693 0.90398 0.49069 0.0
C299 C 0.71448 0.55876 1.01749 0.0
C300 C 0.698 0.58751 1.02651 0.0
C301 C 0.75048 0.57067 0.98415 0.0
C302 C 0.77182 0.61209 0.95996 0.0
H303 H 0.69763 0.52575 0.03335 0.0
H304 H 0.76099 0.54696 0.97592 0.0
S305 S 0.74396 0.70057 0.97451 0.0
N306 N 0.70724 0.66 1.01086 0.0
N307 N 0.7759 0.68281 0.94972 0.0
C308 C 0.75745 0.64209 0.97123 0.0
C309 C 0.72024 0.62967 1.00415 0.0
C310 C 0.08796 0.63543 0.37471 0.0
C311 C 0.10965 0.6209 0.4084 0.0
C312 C 0.11177 0.67309 0.34379 0.0
C313 C 0.15839 0.69748 0.34416 0.0
H314 H 0.05226 0.61888 0.37402 0.0
H315 H 0.09325 0.68374 0.32012 0.0
S316 S 0.23117 0.67037 0.42126 0.0
N317 N 0.18074 0.63207 0.43758 0.0
N318 N 0.22522 0.70208 0.37839 0.0
C319 C 0.18055 0.68186 0.3754 0.0
C320 C 0.15628 0.64388 0.40776 0.0
C321 C 0.4425 0.09151 0.98263 0.0
C322 C 0.48074 0.11519 1.0135 0.0
C323 C 0.42406 0.11309 0.95574 0.0
C324 C 0.44357 0.15916 0.9582 0.0
H325 H 0.42773 0.05617 0.9774 0.0
H326 H 0.39609 0.0939 0.9302 0.0
S327 S 0.5408 0.23591 0.03788 0.0
N328 N 0.53504 0.18687 0.04874 0.0
N329 N 0.50043 0.22744 0.99749 0.0
C330 C 0.48011 0.18296 0.99137 0.0
C331 C 0.49863 0.16095 1.01935 0.0
C332 C 0.45509 0.48092 0.39651 0.0
C333 C 0.47269 0.51725 0.43102 0.0
C334 C 0.41637 0.46879 0.36774 0.0
C335 C 0.39427 0.49311 0.37091 0.0
H336 H 0.4698 0.46014 0.39393 0.0
H337 H 0.40262 0.439 0.34414 0.0
S338 S 0.42939 0.59392 0.45094 0.0
N339 N 0.46666 0.57947 0.46381 0.0
N340 N 0.39469 0.5571 0.40842 0.0
C341 C 0.41301 0.53113 0.40256 0.0
C342 C 0.45196 0.54302 0.43292 0.0
C343 C 0.97365 0.3431 0.97765 0.0
C344 C 0.95406 0.36252 1.00776 0.0
C345 C 0.94913 0.30988 0.94073 0.0
C346 C 0.90433 0.29548 0.93203 0.0
H347 H 1.00891 0.3559 0.97999 0.0
H348 H 0.9661 0.29796 0.91599 0.0
S349 S 0.83584 0.33038 1.00618 0.0
N350 N 0.88592 0.36082 0.03091 0.0
N351 N 0.83989 0.29849 0.96122 0.0
C352 C 0.88349 0.31176 0.96498 0.0
C353 C 0.90832 0.34518 1.0031 0.0
C354 C 0.93806 0.50984 0.92786 0.0
C355 C 0.98009 0.51843 0.91079 0.0
C356 C 0.91225 0.52239 0.89836 0.0
C357 C 0.92733 0.54412 0.85055 0.0
H358 H 0.92556 0.49489 0.96552 0.0
H359 H 0.88169 0.5177 0.91479 0.0
S360 S 1.03081 0.56805 0.7836 0.0
N361 N 1.03248 0.54519 0.83914 0.0
N362 N 0.98441 0.56957 0.78451 0.0
C363 C 0.96771 0.55037 0.83129 0.0
C364 C 0.99388 0.53723 0.86105 0.0
C365 C 0.4076 1.00796 0.3671 0.0
C366 C 0.40784 1.01163 0.42188 0.0
C367 C 0.36864 0.97931 0.33988 0.0
C368 C 0.3285 0.95403 0.36635 0.0
H369 H 0.43815 1.02495 0.34545 0.0
H370 H 0.37019 0.9755 0.29801 0.0
S371 S 0.31086 0.95539 0.50908 0.0
N372 N 0.364 0.99039 0.5012 0.0
N373 N 0.29089 0.93696 0.44996 0.0
C374 C 0.32778 0.95974 0.42067 0.0
C375 C 0.36747 0.98842 0.44845 0.0
C376 C 0.53469 0.42049 0.9415 0.0
C377 C 0.53898 0.46101 0.9258 0.0
C378 C 0.52762 0.38722 0.90519 0.0
C379 C 0.52487 0.39284 0.85116 0.0
H380 H 0.5361 0.41394 0.98255 0.0
H381 H 0.52353 0.35648 0.91991 0.0
S382 S 0.5374 0.49418 0.78882 0.0
N383 N 0.5421 0.50563 0.85202 0.0
N384 N 0.52936 0.44366 0.78361 0.0
C385 C 0.53034 0.43376 0.83467 0.0
C386 C 0.53714 0.46757 0.8719 0.0
C387 C 0.10943 0.44438 0.47564 0.0
C388 C 0.13429 0.48284 0.50596 0.0
C389 C 0.12978 0.42594 0.44588 0.0
C390 C 0.17593 0.44535 0.44483 0.0
H391 H 0.07388 0.42929 0.47311 0.0
H392 H 0.10925 0.39771 0.42123 0.0
S393 S 0.25592 0.54301 0.52221 0.0
N394 N 0.20743 0.53742 0.53681 0.0
N395 N 0.24576 0.50243 0.48098 0.0
C396 C 0.20112 0.48219 0.47745 0.0
C397 C 0.18029 0.50092 0.50813 0.0
C398 C 0.65245 0.14626 0.92078 0.0
C399 C 0.6231 0.10101 0.91019 0.0
C400 C 0.68577 0.17342 0.88519 0.0
C401 C 0.69137 0.15638 0.83768 0.0
H402 H 0.65034 0.16077 0.95743 0.0
H403 H 0.70861 0.20734 0.89616 0.0
S404 S 0.62145 0.04179 0.78827 0.0
N405 N 0.60051 0.04181 0.84608 0.0
N406 N 0.66301 0.09236 0.78024 0.0
C407 C 0.66129 0.11185 0.82567 0.0
C408 C 0.62725 0.08435 0.86151 0.0
C409 C 0.64706 0.69158 0.49463 0.0
C410 C 0.60985 0.67473 0.52729 0.0
C411 C 0.65896 0.72849 0.46334 0.0
C412 C 0.63356 0.7493 0.46292 0.0
H413 H 0.6659 0.67481 0.4913 0.0
H414 H 0.68642 0.73901 0.43676 0.0
S415 S 0.53609 0.72137 0.5452 0.0
N416 N 0.55009 0.68429 0.56071 0.0
N417 N 0.57236 0.75348 0.50132 0.0
C418 C 0.59801 0.73461 0.49772 0.0
C419 C 0.58623 0.6974 0.53018 0.0
C420 C 0.50384 0.15179 0.62671 0.0
C421 C 0.48791 0.1068 0.63808 0.0
C422 C 0.4965 0.17954 0.66066 0.0
C423 C 0.47236 0.16335 0.70711 0.0
H424 H 0.52173 0.1657 0.59087 0.0
H425 H 0.50831 0.21337 0.64942 0.0
S426 S 0.42642 0.0496 0.75778 0.0
N427 N 0.44921 0.04871 0.70164 0.0
N428 N 0.43498 0.10021 0.76435 0.0
C429 C 0.45746 0.11896 0.71972 0.0
C430 C 0.46533 0.09092 0.68563 0.0
C431 C 0.42127 0.44713 0.10593 0.0
C432 C 0.45805 0.45141 0.13364 0.0
C433 C 0.37923 0.42645 0.12801 0.0
C434 C 0.37205 0.40862 0.17825 0.0
H435 H 0.42517 0.46171 0.06771 0.0
H436 H 0.35241 0.42642 0.10686 0.0
S437 S 0.45558 0.40675 0.26544 0.0
N438 N 0.48354 0.43274 0.21278 0.0
N439 N 0.40391 0.39337 0.25393 0.0
C440 C 0.40758 0.40965 0.20505 0.0
C441 C 0.45075 0.43113 0.18277 0.0
C442 C 0.97072 0.42486 0.65587 0.0
C443 C 0.95448 0.43264 0.60906 0.0
C444 C 0.94342 0.39067 0.6898 0.0
C445 C 0.89818 0.36295 0.67953 0.0
H446 H 1.00536 0.44456 0.66596 0.0
H447 H 0.95825 0.38517 0.724 0.0
S448 S 0.8378 0.36966 0.56411 0.0
N449 N 0.88907 0.40991 0.55529 0.0
N450 N 0.83779 0.34606 0.61981 0.0
C451 C 0.88081 0.37106 0.63407 0.0
C452 C 0.90889 0.40567 0.59872 0.0
C453 C 0.63099 0.98912 0.10693 0.0
C454 C 0.6156 1.01457 0.13243 0.0
C455 C 0.64532 0.9645 0.13533 0.0
C456 C 0.64398 0.96383 0.19021 0.0
H457 H 0.63042 0.98688 0.06464 0.0
H458 H 0.65492 0.94374 0.11419 0.0
S459 S 0.60996 0.02717 0.27595 0.0
N460 N 0.60294 0.03993 0.21605 0.0
N461 N 0.62926 0.99298 0.26917 0.0
C462 C 0.6308 0.99075 0.21624 0.0
C463 C 0.61684 1.01637 0.18742 0.0
C464 C 0.67626 0.5528 0.66505 0.0
C465 C 0.67068 0.54282 0.61097 0.0
C466 C 0.71294 0.55704 0.69315 0.0
C467 C 0.74614 0.55193 0.6685 0.0
H468 H 0.65226 0.55785 0.68602 0.0
H469 H 0.71586 0.56568 0.73428 0.0
S470 S 0.74645 0.52298 0.52837 0.0
N471 N 0.70106 0.52589 0.53463 0.0
N472 N 0.76961 0.53411 0.58688 0.0
C473 C 0.74042 0.54084 0.61475 0.0
C474 C 0.70294 0.53623 0.58623 0.0
C475 C 0.09941 0.64151 0.07469 0.0
C476 C 0.06635 0.60746 0.10494 0.0
C477 C 0.12037 0.68542 0.09145 0.0
C478 C 0.10864 0.6973 0.13848 0.0
H479 H 0.11056 0.63424 0.03845 0.0
H480 H 0.1473 0.71022 0.06861 0.0
S481 S 1.02294 0.62255 0.23101 0.0
N482 N 1.02161 0.58959 0.18357 0.0
N483 N 0.06119 0.6729 0.21446 0.0
C484 C 0.07435 0.66443 0.16803 0.0
C485 C 0.05309 0.61931 0.15134 0.0
loop_
_geom_bond_atom_site_label_1
_geom_bond_atom_site_label_2
_geom_bond_distance
_geom_bond_site_symmetry_2
_ccdc_geom_bond_type
C0 O2 1.247 . S
C0 O4 1.258 . S
C1 O8 1.247 1_655 S
C1 O9 1.258 . S
O2 C0 1.247 . S
O2 Zn3 2.028 1_455 S
Zn3 O2 2.028 1_655 S
Zn3 O7 2.035 1_554 S
Zn3 O9 2.035 1_554 S
Zn3 O10 2.028 1_655 S
O4 C0 1.258 . S
O4 Zn5 2.035 1_554 S
Zn5 O4 2.035 1_556 S
Zn5 O6 2.028 . S
Zn5 O8 2.028 . S
Zn5 O11 2.035 1_556 S
O6 Zn5 2.028 . S
O6 C12 1.247 1_455 S
O7 Zn3 2.035 1_556 S
O7 C12 1.258 . S
O8 C1 1.247 1_455 S
O8 Zn5 2.028 . S
O9 C1 1.258 . S
O9 Zn3 2.035 1_556 S
O10 Zn3 2.028 1_455 S
O10 C13 1.247 . S
O11 Zn5 2.035 1_554 S
O11 C13 1.258 . S
C12 O6 1.247 1_655 S
C12 O7 1.258 . S
C13 O10 1.247 . S
C13 O11 1.258 . S
C14 O16 1.247 . S
C14 O18 1.258 . S
C15 O22 1.247 1_565 S
C15 O23 1.258 . S
O16 C14 1.247 . S
O16 Zn17 2.028 1_545 S
Zn17 O16 2.028 1_565 S
Zn17 O21 2.035 . S
Zn17 O23 2.035 . S
Zn17 O24 2.028 1_565 S
O18 C14 1.258 . S
O18 Zn19 2.035 . S
Zn19 O18 2.035 . S
Zn19 O20 2.028 . S
Zn19 O22 2.028 . S
Zn19 O25 2.035 . S
O20 Zn19 2.028 . S
O20 C26 1.247 1_545 S
O21 Zn17 2.035 . S
O21 C26 1.258 . S
O22 C15 1.247 1_545 S
O22 Zn19 2.028 . S
O23 C15 1.258 . S
O23 Zn17 2.035 . S
O24 Zn17 2.028 1_545 S
O24 C27 1.247 . S
O25 Zn19 2.035 . S
O25 C27 1.258 . S
C26 O20 1.247 1_565 S
C26 O21 1.258 . S
C27 O24 1.247 . S
C27 O25 1.258 . S
C28 O30 1.247 . S
C28 O32 1.258 . S
C29 O36 1.247 . S
C29 O37 1.258 . S
O30 C28 1.247 . S
O30 Zn31 2.028 . S
Zn31 O30 2.028 . S
Zn31 O35 2.035 1_556 S
Zn31 O37 2.035 1_556 S
Zn31 O38 2.028 . S
O32 C28 1.258 . S
O32 Zn33 2.035 1_556 S
Zn33 O32 2.035 1_554 S
Zn33 O34 2.028 . S
Zn33 O36 2.028 . S
Zn33 O39 2.035 1_554 S
O34 Zn33 2.028 . S
O34 C40 1.247 . S
O35 Zn31 2.035 1_554 S
O35 C40 1.258 . S
O36 C29 1.247 . S
O36 Zn33 2.028 . S
O37 C29 1.258 . S
O37 Zn31 2.035 1_554 S
O38 Zn31 2.028 . S
O38 C41 1.247 . S
O39 Zn33 2.035 1_556 S
O39 C41 1.258 . S
C40 O34 1.247 . S
C40 O35 1.258 . S
C41 O38 1.247 . S
C41 O39 1.258 . S
C42 O44 1.247 . S
C42 O46 1.258 . S
C43 O50 1.247 . S
C43 O51 1.258 . S
O44 C42 1.247 . S
O44 Zn45 2.028 . S
Zn45 O44 2.028 . S
Zn45 O49 2.035 1_455 S
Zn45 O51 2.035 1_455 S
Zn45 O52 2.028 . S
O46 C42 1.258 . S
O46 Zn47 2.035 1_455 S
Zn47 O46 2.035 1_655 S
Zn47 O48 2.028 . S
Zn47 O50 2.028 . S
Zn47 O53 2.035 1_655 S
O48 Zn47 2.028 . S
O48 C54 1.247 . S
O49 Zn45 2.035 1_655 S
O49 C54 1.258 . S
O50 C43 1.247 . S
O50 Zn47 2.028 . S
O51 C43 1.258 . S
O51 Zn45 2.035 1_655 S
O52 Zn45 2.028 . S
O52 C55 1.247 . S
O53 Zn47 2.035 1_455 S
O53 C55 1.258 . S
C54 O48 1.247 . S
C54 O49 1.258 . S
C55 O52 1.247 . S
C55 O53 1.258 . S
C56 O58 1.247 . S
C56 O60 1.258 . S
C57 O64 1.247 . S
C57 O65 1.258 . S
O58 C56 1.247 . S
O58 Zn59 2.028 1_565 S
Zn59 O58 2.028 1_545 S
Zn59 O63 2.035 1_554 S
Zn59 O65 2.035 1_554 S
Zn59 O66 2.028 1_545 S
O60 C56 1.258 . S
O60 Zn61 2.035 1_554 S
Zn61 O60 2.035 1_556 S
Zn61 O62 2.028 1_565 S
Zn61 O64 2.028 1_565 S
Zn61 O67 2.035 1_556 S
O62 Zn61 2.028 1_545 S
O62 C68 1.247 . S
O63 Zn59 2.035 1_556 S
O63 C68 1.258 . S
O64 C57 1.247 . S
O64 Zn61 2.028 1_545 S
O65 C57 1.258 . S
O65 Zn59 2.035 1_556 S
O66 Zn59 2.028 1_565 S
O66 C69 1.247 . S
O67 Zn61 2.035 1_554 S
O67 C69 1.258 . S
C68 O62 1.247 . S
C68 O63 1.258 . S
C69 O66 1.247 . S
C69 O67 1.258 . S
C70 O72 1.247 . S
C70 O74 1.258 . S
C71 O78 1.247 . S
C71 O79 1.258 . S
O72 C70 1.247 . S
O72 Zn73 2.028 . S
Zn73 O72 2.028 . S
Zn73 O77 2.035 . S
Zn73 O79 2.035 . S
Zn73 O80 2.028 . S
O74 C70 1.258 . S
O74 Zn75 2.035 . S
Zn75 O74 2.035 . S
Zn75 O76 2.028 . S
Zn75 O78 2.028 . S
Zn75 O81 2.035 . S
O76 Zn75 2.028 . S
O76 C82 1.247 . S
O77 Zn73 2.035 . S
O77 C82 1.258 . S
O78 C71 1.247 . S
O78 Zn75 2.028 . S
O79 C71 1.258 . S
O79 Zn73 2.035 . S
O80 Zn73 2.028 . S
O80 C83 1.247 . S
O81 Zn75 2.035 . S
O81 C83 1.258 . S
C82 O76 1.247 . S
C82 O77 1.258 . S
C83 O80 1.247 . S
C83 O81 1.258 . S
Cu84 N85 1.999 . S
Cu84 O90 1.974 . S
Cu84 N95 1.985 . S
Cu84 O104 1.959 . S
N85 Cu84 1.999 . S
N85 C87 1.263 . S
N85 C89 1.389 . S
N86 C87 1.358 . S
N86 C88 1.400 . S
C87 N85 1.263 . S
C87 N86 1.358 . S
C87 H93 0.930 . S
C88 N86 1.400 . S
C88 C89 1.351 . S
C88 H105 0.930 . S
C89 N85 1.389 . S
C89 C88 1.351 . S
C89 H94 0.930 . S
O90 Cu84 1.974 . S
O90 C100 1.282 . S
C91 O92 1.261 . S
C91 O104 1.251 . S
O92 C91 1.261 . S
H93 C87 0.930 . S
H94 C89 0.930 . S
N95 Cu84 1.985 . S
N95 C97 1.335 . S
N95 C98 1.390 . S
N96 C97 1.345 . S
N96 C99 1.336 . S
C97 N95 1.335 . S
C97 N96 1.345 . S
C97 H102 0.930 . S
C98 N95 1.390 . S
C98 C99 1.346 . S
C98 H103 0.930 . S
C99 N96 1.336 . S
C99 C98 1.346 . S
C99 H106 0.929 . S
C100 O90 1.282 . S
C100 O101 1.216 . S
O101 C100 1.216 . S
H102 C97 0.930 . S
H103 C98 0.930 . S
O104 Cu84 1.959 . S
O104 C91 1.251 . S
H105 C88 0.930 . S
H106 C99 0.929 . S
Cu107 N108 1.999 . S
Cu107 O113 1.974 . S
Cu107 N118 1.985 . S
Cu107 O127 1.959 . S
N108 Cu107 1.999 . S
N108 C110 1.263 . S
N108 C112 1.389 . S
N109 C110 1.358 . S
N109 C111 1.400 . S
C110 N108 1.263 . S
C110 N109 1.358 . S
C110 H116 0.930 . S
C111 N109 1.400 . S
C111 C112 1.351 . S
C111 H128 0.930 . S
C112 N108 1.389 . S
C112 C111 1.351 . S
C112 H117 0.930 . S
O113 Cu107 1.974 . S
O113 C123 1.282 . S
C114 O115 1.261 . S
C114 O127 1.251 . S
O115 C114 1.261 . S
H116 C110 0.930 . S
H117 C112 0.930 . S
N118 Cu107 1.985 . S
N118 C120 1.335 . S
N118 C121 1.390 . S
N119 C120 1.345 . S
N119 C122 1.336 . S
C120 N118 1.335 . S
C120 N119 1.345 . S
C120 H125 0.930 . S
C121 N118 1.390 . S
C121 C122 1.346 . S
C121 H126 0.930 . S
C122 N119 1.336 . S
C122 C121 1.346 . S
C122 H129 0.929 . S
C123 O113 1.282 . S
C123 O124 1.216 . S
O124 C123 1.216 . S
H125 C120 0.930 . S
H126 C121 0.930 . S
O127 Cu107 1.959 . S
O127 C114 1.251 . S
H128 C111 0.930 . S
H129 C122 0.929 . S
Cu130 N131 1.999 . S
Cu130 O136 1.974 . S
Cu130 N141 1.985 . S
Cu130 O150 1.959 . S
N131 Cu130 1.999 . S
N131 C133 1.263 . S
N131 C135 1.389 . S
N132 C133 1.358 . S
N132 C134 1.400 . S
C133 N131 1.263 . S
C133 N132 1.358 . S
C133 H139 0.930 . S
C134 N132 1.400 . S
C134 C135 1.351 . S
C134 H151 0.930 . S
C135 N131 1.389 . S
C135 C134 1.351 . S
C135 H140 0.930 . S
O136 Cu130 1.974 . S
O136 C146 1.282 . S
C137 O138 1.261 . S
C137 O150 1.251 . S
O138 C137 1.261 . S
H139 C133 0.930 . S
H140 C135 0.930 . S
N141 Cu130 1.985 . S
N141 C143 1.335 . S
N141 C144 1.390 . S
N142 C143 1.345 . S
N142 C145 1.336 . S
C143 N141 1.335 . S
C143 N142 1.345 . S
C143 H148 0.930 . S
C144 N141 1.390 . S
C144 C145 1.346 . S
C144 H149 0.930 . S
C145 N142 1.336 . S
C145 C144 1.346 . S
C145 H152 0.929 . S
C146 O136 1.282 . S
C146 O147 1.216 . S
O147 C146 1.216 . S
H148 C143 0.930 . S
H149 C144 0.930 . S
O150 Cu130 1.959 . S
O150 C137 1.251 . S
H151 C134 0.930 . S
H152 C145 0.929 . S
Cu153 N154 1.999 . S
Cu153 O159 1.974 . S
Cu153 N164 1.985 . S
Cu153 O173 1.959 . S
N154 Cu153 1.999 . S
N154 C156 1.263 . S
N154 C158 1.389 . S
N155 C156 1.358 . S
N155 C157 1.400 . S
C156 N154 1.263 . S
C156 N155 1.358 . S
C156 H162 0.930 . S
C157 N155 1.400 . S
C157 C158 1.351 . S
C157 H174 0.930 . S
C158 N154 1.389 . S
C158 C157 1.351 . S
C158 H163 0.930 . S
O159 Cu153 1.974 . S
O159 C169 1.282 . S
C160 O161 1.261 . S
C160 O173 1.251 . S
O161 C160 1.261 . S
H162 C156 0.930 . S
H163 C158 0.930 . S
N164 Cu153 1.985 . S
N164 C166 1.335 . S
N164 C167 1.390 . S
N165 C166 1.345 . S
N165 C168 1.336 . S
C166 N164 1.335 . S
C166 N165 1.345 . S
C166 H171 0.930 . S
C167 N164 1.390 . S
C167 C168 1.346 . S
C167 H172 0.930 . S
C168 N165 1.336 . S
C168 C167 1.346 . S
C168 H175 0.929 . S
C169 O159 1.282 . S
C169 O170 1.216 . S
O170 C169 1.216 . S
H171 C166 0.930 . S
H172 C167 0.930 . S
O173 Cu153 1.959 . S
O173 C160 1.251 . S
H174 C157 0.930 . S
H175 C168 0.929 . S
Cu176 N177 1.999 . S
Cu176 O182 1.974 . S
Cu176 N187 1.985 . S
Cu176 O196 1.959 . S
N177 Cu176 1.999 . S
N177 C179 1.263 . S
N177 C181 1.389 . S
N178 C179 1.358 . S
N178 C180 1.400 . S
C179 N177 1.263 . S
C179 N178 1.358 . S
C179 H185 0.930 . S
C180 N178 1.400 . S
C180 C181 1.351 . S
C180 H197 0.930 . S
C181 N177 1.389 . S
C181 C180 1.351 . S
C181 H186 0.930 . S
O182 Cu176 1.974 . S
O182 C192 1.282 . S
C183 O184 1.261 . S
C183 O196 1.251 . S
O184 C183 1.261 . S
H185 C179 0.930 . S
H186 C181 0.930 . S
N187 Cu176 1.985 . S
N187 C189 1.335 . S
N187 C190 1.390 . S
N188 C189 1.345 . S
N188 C191 1.336 . S
C189 N187 1.335 . S
C189 N188 1.345 . S
C189 H194 0.930 . S
C190 N187 1.390 . S
C190 C191 1.346 . S
C190 H195 0.930 . S
C191 N188 1.336 . S
C191 C190 1.346 . S
C191 H198 0.929 . S
C192 O182 1.282 . S
C192 O193 1.216 . S
O193 C192 1.216 . S
H194 C189 0.930 . S
H195 C190 0.930 . S
O196 Cu176 1.959 . S
O196 C183 1.251 . S
H197 C180 0.930 . S
H198 C191 0.929 . S
Cu199 N200 1.999 . S
Cu199 O205 1.974 . S
Cu199 N210 1.985 . S
Cu199 O219 1.959 . S
N200 Cu199 1.999 . S
N200 C202 1.263 . S
N200 C204 1.389 . S
N201 C202 1.358 . S
N201 C203 1.400 . S
C202 N200 1.263 . S
C202 N201 1.358 . S
C202 H208 0.930 . S
C203 N201 1.400 . S
C203 C204 1.351 . S
C203 H220 0.930 . S
C204 N200 1.389 . S
C204 C203 1.351 . S
C204 H209 0.930 . S
O205 Cu199 1.974 . S
O205 C215 1.282 . S
C206 O207 1.261 . S
C206 O219 1.251 . S
O207 C206 1.261 . S
H208 C202 0.930 . S
H209 C204 0.930 . S
N210 Cu199 1.985 . S
N210 C212 1.335 . S
N210 C213 1.390 . S
N211 C212 1.345 . S
N211 C214 1.336 . S
C212 N210 1.335 . S
C212 N211 1.345 . S
C212 H217 0.930 . S
C213 N210 1.390 . S
C213 C214 1.346 . S
C213 H218 0.930 . S
C214 N211 1.336 . S
C214 C213 1.346 . S
C214 H221 0.929 . S
C215 O205 1.282 . S
C215 O216 1.216 . S
O216 C215 1.216 . S
H217 C212 0.930 . S
H218 C213 0.930 . S
O219 Cu199 1.959 . S
O219 C206 1.251 . S
H220 C203 0.930 . S
H221 C214 0.929 . S
C222 C223 1.369 . S
C222 C224 1.419 . S
C222 H226 0.930 . S
C223 C222 1.369 . S
C223 C232 1.429 . S
C224 C222 1.419 . S
C224 C225 1.363 . S
C224 H227 0.929 . S
C225 C224 1.363 . S
C225 C231 1.428 . S
H226 C222 0.930 . S
H227 C224 0.929 . S
S228 N229 1.613 . S
S228 N230 1.610 . S
N229 S228 1.613 . S
N229 C232 1.350 . S
N230 S228 1.610 . S
N230 C231 1.351 . S
C231 C225 1.428 . S
C231 N230 1.351 . S
C231 C232 1.434 . S
C232 C223 1.429 . S
C232 N229 1.350 . S
C232 C231 1.434 . S
C233 C234 1.369 . S
C233 C235 1.419 . S
C233 H237 0.930 . S
C234 C233 1.369 . S
C234 C243 1.429 . S
C235 C233 1.419 . S
C235 C236 1.363 . S
C235 H238 0.929 . S
C236 C235 1.363 . S
C236 C242 1.428 . S
H237 C233 0.930 . S
H238 C235 0.929 . S
S239 N240 1.613 . S
S239 N241 1.610 . S
N240 S239 1.613 . S
N240 C243 1.350 . S
N241 S239 1.610 . S
N241 C242 1.351 . S
C242 C236 1.428 . S
C242 N241 1.351 . S
C242 C243 1.434 . S
C243 C234 1.429 . S
C243 N240 1.350 . S
C243 C242 1.434 . S
C244 C245 1.369 . S
C244 C246 1.419 . S
C244 H248 0.930 . S
C245 C244 1.369 . S
C245 C254 1.429 . S
C246 C244 1.419 . S
C246 C247 1.363 . S
C246 H249 0.929 . S
C247 C246 1.363 . S
C247 C253 1.428 . S
H248 C244 0.930 . S
H249 C246 0.929 . S
S250 N251 1.613 . S
S250 N252 1.610 . S
N251 S250 1.613 . S
N251 C254 1.350 . S
N252 S250 1.610 . S
N252 C253 1.351 . S
C253 C247 1.428 . S
C253 N252 1.351 . S
C253 C254 1.434 . S
C254 C245 1.429 . S
C254 N251 1.350 . S
C254 C253 1.434 . S
C255 C256 1.369 . S
C255 C257 1.419 . S
C255 H259 0.930 . S
C256 C255 1.369 . S
C256 C265 1.429 . S
C257 C255 1.419 . S
C257 C258 1.363 . S
C257 H260 0.929 . S
C258 C257 1.363 . S
C258 C264 1.428 . S
H259 C255 0.930 . S
H260 C257 0.929 . S
S261 N262 1.613 . S
S261 N263 1.610 1_455 S
N262 S261 1.613 . S
N262 C265 1.350 1_455 S
N263 S261 1.610 1_655 S
N263 C264 1.351 . S
C264 C258 1.428 . S
C264 N263 1.351 . S
C264 C265 1.434 . S
C265 C256 1.429 . S
C265 N262 1.350 1_655 S
C265 C264 1.434 . S
C266 C267 1.369 . S
C266 C268 1.419 . S
C266 H270 0.930 . S
C267 C266 1.369 . S
C267 C276 1.429 . S
C268 C266 1.419 . S
C268 C269 1.363 . S
C268 H271 0.929 . S
C269 C268 1.363 . S
C269 C275 1.428 . S
H270 C266 0.930 . S
H271 C268 0.929 . S
S272 N273 1.613 . S
S272 N274 1.610 . S
N273 S272 1.613 . S
N273 C276 1.350 . S
N274 S272 1.610 . S
N274 C275 1.351 . S
C275 C269 1.428 . S
C275 N274 1.351 . S
C275 C276 1.434 . S
C276 C267 1.429 . S
C276 N273 1.350 . S
C276 C275 1.434 . S
C277 C278 1.369 . S
C277 C279 1.419 . S
C277 H281 0.930 . S
C278 C277 1.369 . S
C278 C287 1.429 . S
C279 C277 1.419 . S
C279 C280 1.363 . S
C279 H282 0.929 . S
C280 C279 1.363 . S
C280 C286 1.428 . S
H281 C277 0.930 . S
H282 C279 0.929 . S
S283 N284 1.613 . S
S283 N285 1.610 . S
N284 S283 1.613 . S
N284 C287 1.350 . S
N285 S283 1.610 . S
N285 C286 1.351 . S
C286 C280 1.428 . S
C286 N285 1.351 . S
C286 C287 1.434 . S
C287 C278 1.429 . S
C287 N284 1.350 . S
C287 C286 1.434 . S
C288 C289 1.369 . S
C288 C290 1.419 . S
C288 H292 0.930 . S
C289 C288 1.369 . S
C289 C298 1.429 . S
C290 C288 1.419 . S
C290 C291 1.363 . S
C290 H293 0.929 . S
C291 C290 1.363 . S
C291 C297 1.428 . S
H292 C288 0.930 . S
H293 C290 0.929 . S
S294 N295 1.613 . S
S294 N296 1.610 . S
N295 S294 1.613 . S
N295 C298 1.350 . S
N296 S294 1.610 . S
N296 C297 1.351 . S
C297 C291 1.428 . S
C297 N296 1.351 . S
C297 C298 1.434 . S
C298 C289 1.429 . S
C298 N295 1.350 . S
C298 C297 1.434 . S
C299 C300 1.369 . S
C299 C301 1.419 . S
C299 H303 0.930 . S
C300 C299 1.369 . S
C300 C309 1.429 . S
C301 C299 1.419 . S
C301 C302 1.363 . S
C301 H304 0.929 . S
C302 C301 1.363 . S
C302 C308 1.428 . S
H303 C299 0.930 . S
H304 C301 0.929 . S
S305 N306 1.613 . S
S305 N307 1.610 . S
N306 S305 1.613 . S
N306 C309 1.350 . S
N307 S305 1.610 . S
N307 C308 1.351 . S
C308 C302 1.428 . S
C308 N307 1.351 . S
C308 C309 1.434 . S
C309 C300 1.429 . S
C309 N306 1.350 . S
C309 C308 1.434 . S
C310 C311 1.369 . S
C310 C312 1.419 . S
C310 H314 0.930 . S
C311 C310 1.369 . S
C311 C320 1.429 . S
C312 C310 1.419 . S
C312 C313 1.363 . S
C312 H315 0.929 . S
C313 C312 1.363 . S
C313 C319 1.428 . S
H314 C310 0.930 . S
H315 C312 0.929 . S
S316 N317 1.613 . S
S316 N318 1.610 . S
N317 S316 1.613 . S
N317 C320 1.350 . S
N318 S316 1.610 . S
N318 C319 1.351 . S
C319 C313 1.428 . S
C319 N318 1.351 . S
C319 C320 1.434 . S
C320 C311 1.429 . S
C320 N317 1.350 . S
C320 C319 1.434 . S
C321 C322 1.369 . S
C321 C323 1.419 . S
C321 H325 0.930 . S
C322 C321 1.369 . S
C322 C331 1.429 . S
C323 C321 1.419 . S
C323 C324 1.363 . S
C323 H326 0.929 . S
C324 C323 1.363 . S
C324 C330 1.428 . S
H325 C321 0.930 . S
H326 C323 0.929 . S
S327 N328 1.613 . S
S327 N329 1.610 . S
N328 S327 1.613 . S
N328 C331 1.350 . S
N329 S327 1.610 . S
N329 C330 1.351 . S
C330 C324 1.428 . S
C330 N329 1.351 . S
C330 C331 1.434 . S
C331 C322 1.429 . S
C331 N328 1.350 . S
C331 C330 1.434 . S
C332 C333 1.369 . S
C332 C334 1.419 . S
C332 H336 0.930 . S
C333 C332 1.369 . S
C333 C342 1.429 . S
C334 C332 1.419 . S
C334 C335 1.363 . S
C334 H337 0.929 . S
C335 C334 1.363 . S
C335 C341 1.428 . S
H336 C332 0.930 . S
H337 C334 0.929 . S
S338 N339 1.613 . S
S338 N340 1.610 . S
N339 S338 1.613 . S
N339 C342 1.350 . S
N340 S338 1.610 . S
N340 C341 1.351 . S
C341 C335 1.428 . S
C341 N340 1.351 . S
C341 C342 1.434 . S
C342 C333 1.429 . S
C342 N339 1.350 . S
C342 C341 1.434 . S
C343 C344 1.369 . S
C343 C345 1.419 . S
C343 H347 0.930 1_655 S
C344 C343 1.369 . S
C344 C353 1.429 . S
C345 C343 1.419 . S
C345 C346 1.363 . S
C345 H348 0.929 . S
C346 C345 1.363 . S
C346 C352 1.428 . S
H347 C343 0.930 1_455 S
H348 C345 0.929 . S
S349 N350 1.613 . S
S349 N351 1.610 . S
N350 S349 1.613 . S
N350 C353 1.350 . S
N351 S349 1.610 . S
N351 C352 1.351 . S
C352 C346 1.428 . S
C352 N351 1.351 . S
C352 C353 1.434 . S
C353 C344 1.429 . S
C353 N350 1.350 . S
C353 C352 1.434 . S
C354 C355 1.369 . S
C354 C356 1.419 . S
C354 H358 0.930 . S
C355 C354 1.369 . S
C355 C364 1.429 . S
C356 C354 1.419 . S
C356 C357 1.363 . S
C356 H359 0.929 . S
C357 C356 1.363 . S
C357 C363 1.428 . S
H358 C354 0.930 . S
H359 C356 0.929 . S
S360 N361 1.613 . S
S360 N362 1.610 . S
N361 S360 1.613 . S
N361 C364 1.350 . S
N362 S360 1.610 . S
N362 C363 1.351 . S
C363 C357 1.428 . S
C363 N362 1.351 . S
C363 C364 1.434 . S
C364 C355 1.429 . S
C364 N361 1.350 . S
C364 C363 1.434 . S
C365 C366 1.369 . S
C365 C367 1.419 . S
C365 H369 0.930 . S
C366 C365 1.369 . S
C366 C375 1.429 . S
C367 C365 1.419 . S
C367 C368 1.363 . S
C367 H370 0.929 . S
C368 C367 1.363 . S
C368 C374 1.428 . S
H369 C365 0.930 . S
H370 C367 0.929 . S
S371 N372 1.613 . S
S371 N373 1.610 . S
N372 S371 1.613 . S
N372 C375 1.350 . S
N373 S371 1.610 . S
N373 C374 1.351 . S
C374 C368 1.428 . S
C374 N373 1.351 . S
C374 C375 1.434 . S
C375 C366 1.429 . S
C375 N372 1.350 . S
C375 C374 1.434 . S
C376 C377 1.369 . S
C376 C378 1.419 . S
C376 H380 0.930 . S
C377 C376 1.369 . S
C377 C386 1.429 . S
C378 C376 1.419 . S
C378 C379 1.363 . S
C378 H381 0.929 . S
C379 C378 1.363 . S
C379 C385 1.428 . S
H380 C376 0.930 . S
H381 C378 0.929 . S
S382 N383 1.613 . S
S382 N384 1.610 . S
N383 S382 1.613 . S
N383 C386 1.350 . S
N384 S382 1.610 . S
N384 C385 1.351 . S
C385 C379 1.428 . S
C385 N384 1.351 . S
C385 C386 1.434 . S
C386 C377 1.429 . S
C386 N383 1.350 . S
C386 C385 1.434 . S
C387 C388 1.369 . S
C387 C389 1.419 . S
C387 H391 0.930 . S
C388 C387 1.369 . S
C388 C397 1.429 . S
C389 C387 1.419 . S
C389 C390 1.363 . S
C389 H392 0.929 . S
C390 C389 1.363 . S
C390 C396 1.428 . S
H391 C387 0.930 . S
H392 C389 0.929 . S
S393 N394 1.613 . S
S393 N395 1.610 . S
N394 S393 1.613 . S
N394 C397 1.350 . S
N395 S393 1.610 . S
N395 C396 1.351 . S
C396 C390 1.428 . S
C396 N395 1.351 . S
C396 C397 1.434 . S
C397 C388 1.429 . S
C397 N394 1.350 . S
C397 C396 1.434 . S
C398 C399 1.369 . S
C398 C400 1.419 . S
C398 H402 0.930 . S
C399 C398 1.369 . S
C399 C408 1.429 . S
C400 C398 1.419 . S
C400 C401 1.363 . S
C400 H403 0.929 . S
C401 C400 1.363 . S
C401 C407 1.428 . S
H402 C398 0.930 . S
H403 C400 0.929 . S
S404 N405 1.613 . S
S404 N406 1.610 . S
N405 S404 1.613 . S
N405 C408 1.350 . S
N406 S404 1.610 . S
N406 C407 1.351 . S
C407 C401 1.428 . S
C407 N406 1.351 . S
C407 C408 1.434 . S
C408 C399 1.429 . S
C408 N405 1.350 . S
C408 C407 1.434 . S
C409 C410 1.369 . S
C409 C411 1.419 . S
C409 H413 0.930 . S
C410 C409 1.369 . S
C410 C419 1.429 . S
C411 C409 1.419 . S
C411 C412 1.363 . S
C411 H414 0.929 . S
C412 C411 1.363 . S
C412 C418 1.428 . S
H413 C409 0.930 . S
H414 C411 0.929 . S
S415 N416 1.613 . S
S415 N417 1.610 . S
N416 S415 1.613 . S
N416 C419 1.350 . S
N417 S415 1.610 . S
N417 C418 1.351 . S
C418 C412 1.428 . S
C418 N417 1.351 . S
C418 C419 1.434 . S
C419 C410 1.429 . S
C419 N416 1.350 . S
C419 C418 1.434 . S
C420 C421 1.369 . S
C420 C422 1.419 . S
C420 H424 0.930 . S
C421 C420 1.369 . S
C421 C430 1.429 . S
C422 C420 1.419 . S
C422 C423 1.363 . S
C422 H425 0.929 . S
C423 C422 1.363 . S
C423 C429 1.428 . S
H424 C420 0.930 . S
H425 C422 0.929 . S
S426 N427 1.613 . S
S426 N428 1.610 . S
N427 S426 1.613 . S
N427 C430 1.350 . S
N428 S426 1.610 . S
N428 C429 1.351 . S
C429 C423 1.428 . S
C429 N428 1.351 . S
C429 C430 1.434 . S
C430 C421 1.429 . S
C430 N427 1.350 . S
C430 C429 1.434 . S
C431 C432 1.369 . S
C431 C433 1.419 . S
C431 H435 0.930 . S
C432 C431 1.369 . S
C432 C441 1.429 . S
C433 C431 1.419 . S
C433 C434 1.363 . S
C433 H436 0.929 . S
C434 C433 1.363 . S
C434 C440 1.428 . S
H435 C431 0.930 . S
H436 C433 0.929 . S
S437 N438 1.613 . S
S437 N439 1.610 . S
N438 S437 1.613 . S
N438 C441 1.350 . S
N439 S437 1.610 . S
N439 C440 1.351 . S
C440 C434 1.428 . S
C440 N439 1.351 . S
C440 C441 1.434 . S
C441 C432 1.429 . S
C441 N438 1.350 . S
C441 C440 1.434 . S
C442 C443 1.369 . S
C442 C444 1.419 . S
C442 H446 0.930 . S
C443 C442 1.369 . S
C443 C452 1.429 . S
C444 C442 1.419 . S
C444 C445 1.363 . S
C444 H447 0.929 . S
C445 C444 1.363 . S
C445 C451 1.428 . S
H446 C442 0.930 . S
H447 C444 0.929 . S
S448 N449 1.613 . S
S448 N450 1.610 . S
N449 S448 1.613 . S
N449 C452 1.350 . S
N450 S448 1.610 . S
N450 C451 1.351 . S
C451 C445 1.428 . S
C451 N450 1.351 . S
C451 C452 1.434 . S
C452 C443 1.429 . S
C452 N449 1.350 . S
C452 C451 1.434 . S
C453 C454 1.369 . S
C453 C455 1.419 . S
C453 H457 0.930 . S
C454 C453 1.369 . S
C454 C463 1.429 . S
C455 C453 1.419 . S
C455 C456 1.363 . S
C455 H458 0.929 . S
C456 C455 1.363 . S
C456 C462 1.428 . S
H457 C453 0.930 . S
H458 C455 0.929 . S
S459 N460 1.613 . S
S459 N461 1.610 1_545 S
N460 S459 1.613 . S
N460 C463 1.350 1_545 S
N461 S459 1.610 1_565 S
N461 C462 1.351 . S
C462 C456 1.428 . S
C462 N461 1.351 . S
C462 C463 1.434 . S
C463 C454 1.429 . S
C463 N460 1.350 1_565 S
C463 C462 1.434 . S
C464 C465 1.369 . S
C464 C466 1.419 . S
C464 H468 0.930 . S
C465 C464 1.369 . S
C465 C474 1.429 . S
C466 C464 1.419 . S
C466 C467 1.363 . S
C466 H469 0.929 . S
C467 C466 1.363 . S
C467 C473 1.428 . S
H468 C464 0.930 . S
H469 C466 0.929 . S
S470 N471 1.613 . S
S470 N472 1.610 . S
N471 S470 1.613 . S
N471 C474 1.350 . S
N472 S470 1.610 . S
N472 C473 1.351 . S
C473 C467 1.428 . S
C473 N472 1.351 . S
C473 C474 1.434 . S
C474 C465 1.429 . S
C474 N471 1.350 . S
C474 C473 1.434 . S
C475 C476 1.369 . S
C475 C477 1.419 . S
C475 H479 0.930 . S
C476 C475 1.369 . S
C476 C485 1.429 . S
C477 C475 1.419 . S
C477 C478 1.363 . S
C477 H480 0.929 . S
C478 C477 1.363 . S
C478 C484 1.428 . S
H479 C475 0.930 . S
H480 C477 0.929 . S
S481 N482 1.613 . S
S481 N483 1.610 1_655 S
N482 S481 1.613 . S
N482 C485 1.350 1_655 S
N483 S481 1.610 1_455 S
N483 C484 1.351 . S
C484 C478 1.428 . S
C484 N483 1.351 . S
C484 C485 1.434 . S
C485 C476 1.429 . S
C485 N482 1.350 1_455 S
C485 C484 1.434 . S
C223 C13 2.085 . S
C225 C91 2.040 . S
C234 C27 1.477 . S
C236 N109 1.472 . S
C247 C137 2.040 . S
C245 C29 2.085 . S
C258 N155 1.477 . S
C256 C54 1.471 . S
C269 C183 2.039 . S
C267 C69 2.086 . S
C280 N201 1.472 . S
C278 C83 1.475 . S
C289 C15 2.076 . S
C291 C146 2.069 . S
C300 C41 1.469 . S
C302 N165 1.373 . S
C313 C192 2.069 . S
C311 C42 2.076 . S
C324 N211 1.362 . S
C322 C57 1.474 . S
C333 C71 2.076 . S
C335 C100 2.069 . S
C346 N119 1.363 . S
C344 C1 1.473 . S
C357 C169 1.862 . S
C355 C12 1.928 . S
C366 C26 1.286 . S
C368 N188 1.259 . S
C379 C215 1.863 . S
C377 C28 1.927 . S
C388 C55 1.290 . S
C390 N96 1.258 . S
C399 C68 1.928 . S
C401 C123 1.861 . S
C410 C82 1.290 . S
C412 N142 1.256 . S
C421 C14 1.940 . S
C423 C206 1.913 . S
C434 N86 1.186 . S
C432 C40 1.286 . S
C443 C43 1.940 . S
C445 C114 1.912 . S
C454 C56 1.286 . S
C456 N132 1.186 . S
C465 C70 1.940 . S
C467 C160 1.913 . S
C476 C0 1.287 . S
C478 N178 1.186 . S
