# Generated by pormake.
# Topology gar, (4,6)-cn, num edge types: 1
# Building blocks:
#     Node 0, Type 0, BuildingBlock: QUQFOY_clean_sbu_3, # of connection points: 4
#     Node 1, Type 0, BuildingBlock: QUQFOY_clean_sbu_3, # of connection points: 4
#     Node 2, Type 0, BuildingBlock: QUQFOY_clean_sbu_3, # of connection points: 4
#     Node 3, Type 0, BuildingBlock: QUQFOY_clean_sbu_3, # of connection points: 4
#     Node 4, Type 0, BuildingBlock: QUQFOY_clean_sbu_3, # of connection points: 4
#     Node 5, Type 0, BuildingBlock: QUQFOY_clean_sbu_3, # of connection points: 4
#     Node 6, Type 0, BuildingBlock: QUQFOY_clean_sbu_3, # of connection points: 4
#     Node 7, Type 0, BuildingBlock: QUQFOY_clean_sbu_3, # of connection points: 4
#     Node 8, Type 0, BuildingBlock: QUQFOY_clean_sbu_3, # of connection points: 4
#     Node 9, Type 0, BuildingBlock: QUQFOY_clean_sbu_3, # of connection points: 4
#     Node 10, Type 0, BuildingBlock: QUQFOY_clean_sbu_3, # of connection points: 4
#     Node 11, Type 0, BuildingBlock: QUQFOY_clean_sbu_3, # of connection points: 4
#     Node 12, Type 0, BuildingBlock: QUQFOY_clean_sbu_3, # of connection points: 4
#     Node 13, Type 0, BuildingBlock: QUQFOY_clean_sbu_3, # of connection points: 4
#     Node 14, Type 0, BuildingBlock: QUQFOY_clean_sbu_3, # of connection points: 4
#     Node 15, Type 0, BuildingBlock: QUQFOY_clean_sbu_3, # of connection points: 4
#     Node 16, Type 0, BuildingBlock: QUQFOY_clean_sbu_3, # of connection points: 4
#     Node 17, Type 0, BuildingBlock: QUQFOY_clean_sbu_3, # of connection points: 4
#     Node 18, Type 0, BuildingBlock: QUQFOY_clean_sbu_3, # of connection points: 4
#     Node 19, Type 0, BuildingBlock: QUQFOY_clean_sbu_3, # of connection points: 4
#     Node 20, Type 0, BuildingBlock: QUQFOY_clean_sbu_3, # of connection points: 4
#     Node 21, Type 0, BuildingBlock: QUQFOY_clean_sbu_3, # of connection points: 4
#     Node 22, Type 0, BuildingBlock: QUQFOY_clean_sbu_3, # of connection points: 4
#     Node 23, Type 0, BuildingBlock: QUQFOY_clean_sbu_3, # of connection points: 4
#     Node 24, Type 1, BuildingBlock: KUMBOL_clean_sbu_0, # of connection points: 6
#     Node 25, Type 1, BuildingBlock: KUMBOL_clean_sbu_0, # of connection points: 6
#     Node 26, Type 1, BuildingBlock: KUMBOL_clean_sbu_0, # of connection points: 6
#     Node 27, Type 1, BuildingBlock: KUMBOL_clean_sbu_0, # of connection points: 6
#     Node 28, Type 1, BuildingBlock: KUMBOL_clean_sbu_0, # of connection points: 6
#     Node 29, Type 1, BuildingBlock: KUMBOL_clean_sbu_0, # of connection points: 6
#     Node 30, Type 1, BuildingBlock: KUMBOL_clean_sbu_0, # of connection points: 6
#     Node 31, Type 1, BuildingBlock: KUMBOL_clean_sbu_0, # of connection points: 6
#     Node 32, Type 1, BuildingBlock: KUMBOL_clean_sbu_0, # of connection points: 6
#     Node 33, Type 1, BuildingBlock: KUMBOL_clean_sbu_0, # of connection points: 6
#     Node 34, Type 1, BuildingBlock: KUMBOL_clean_sbu_0, # of connection points: 6
#     Node 35, Type 1, BuildingBlock: KUMBOL_clean_sbu_0, # of connection points: 6
#     Node 36, Type 1, BuildingBlock: KUMBOL_clean_sbu_0, # of connection points: 6
#     Node 37, Type 1, BuildingBlock: KUMBOL_clean_sbu_0, # of connection points: 6
#     Node 38, Type 1, BuildingBlock: KUMBOL_clean_sbu_0, # of connection points: 6
#     Node 39, Type 1, BuildingBlock: KUMBOL_clean_sbu_0, # of connection points: 6
#     Edge 40, Type (0, 1), BuildingBlock: MIFKUJ_clean_linker_0, # of connection points: 2
#     Edge 41, Type (0, 1), BuildingBlock: MIFKUJ_clean_linker_0, # of connection points: 2
#     Edge 42, Type (0, 1), BuildingBlock: MIFKUJ_clean_linker_0, # of connection points: 2
#     Edge 43, Type (0, 1), BuildingBlock: MIFKUJ_clean_linker_0, # of connection points: 2
#     Edge 44, Type (0, 1), BuildingBlock: MIFKUJ_clean_linker_0, # of connection points: 2
#     Edge 45, Type (0, 1), BuildingBlock: MIFKUJ_clean_linker_0, # of connection points: 2
#     Edge 46, Type (0, 1), BuildingBlock: MIFKUJ_clean_linker_0, # of connection points: 2
#     Edge 47, Type (0, 1), BuildingBlock: MIFKUJ_clean_linker_0, # of connection points: 2
#     Edge 48, Type (0, 1), BuildingBlock: MIFKUJ_clean_linker_0, # of connection points: 2
#     Edge 49, Type (0, 1), BuildingBlock: MIFKUJ_clean_linker_0, # of connection points: 2
#     Edge 50, Type (0, 1), BuildingBlock: MIFKUJ_clean_linker_0, # of connection points: 2
#     Edge 51, Type (0, 1), BuildingBlock: MIFKUJ_clean_linker_0, # of connection points: 2
#     Edge 52, Type (0, 1), BuildingBlock: MIFKUJ_clean_linker_0, # of connection points: 2
#     Edge 53, Type (0, 1), BuildingBlock: MIFKUJ_clean_linker_0, # of connection points: 2
#     Edge 54, Type (0, 1), BuildingBlock: MIFKUJ_clean_linker_0, # of connection points: 2
#     Edge 55, Type (0, 1), BuildingBlock: MIFKUJ_clean_linker_0, # of connection points: 2
#     Edge 56, Type (0, 1), BuildingBlock: MIFKUJ_clean_linker_0, # of connection points: 2
#     Edge 57, Type (0, 1), BuildingBlock: MIFKUJ_clean_linker_0, # of connection points: 2
#     Edge 58, Type (0, 1), BuildingBlock: MIFKUJ_clean_linker_0, # of connection points: 2
#     Edge 59, Type (0, 1), BuildingBlock: MIFKUJ_clean_linker_0, # of connection points: 2
#     Edge 60, Type (0, 1), BuildingBlock: MIFKUJ_clean_linker_0, # of connection points: 2
#     Edge 61, Type (0, 1), BuildingBlock: MIFKUJ_clean_linker_0, # of connection points: 2
#     Edge 62, Type (0, 1), BuildingBlock: MIFKUJ_clean_linker_0, # of connection points: 2
#     Edge 63, Type (0, 1), BuildingBlock: MIFKUJ_clean_linker_0, # of connection points: 2
#     Edge 64, Type (0, 1), BuildingBlock: MIFKUJ_clean_linker_0, # of connection points: 2
#     Edge 65, Type (0, 1), BuildingBlock: MIFKUJ_clean_linker_0, # of connection points: 2
#     Edge 66, Type (0, 1), BuildingBlock: MIFKUJ_clean_linker_0, # of connection points: 2
#     Edge 67, Type (0, 1), BuildingBlock: MIFKUJ_clean_linker_0, # of connection points: 2
#     Edge 68, Type (0, 1), BuildingBlock: MIFKUJ_clean_linker_0, # of connection points: 2
#     Edge 69, Type (0, 1), BuildingBlock: MIFKUJ_clean_linker_0, # of connection points: 2
#     Edge 70, Type (0, 1), BuildingBlock: MIFKUJ_clean_linker_0, # of connection points: 2
#     Edge 71, Type (0, 1), BuildingBlock: MIFKUJ_clean_linker_0, # of connection points: 2
#     Edge 72, Type (0, 1), BuildingBlock: MIFKUJ_clean_linker_0, # of connection points: 2
#     Edge 73, Type (0, 1), BuildingBlock: MIFKUJ_clean_linker_0, # of connection points: 2
#     Edge 74, Type (0, 1), BuildingBlock: MIFKUJ_clean_linker_0, # of connection points: 2
#     Edge 75, Type (0, 1), BuildingBlock: MIFKUJ_clean_linker_0, # of connection points: 2
#     Edge 76, Type (0, 1), BuildingBlock: MIFKUJ_clean_linker_0, # of connection points: 2
#     Edge 77, Type (0, 1), BuildingBlock: MIFKUJ_clean_linker_0, # of connection points: 2
#     Edge 78, Type (0, 1), BuildingBlock: MIFKUJ_clean_linker_0, # of connection points: 2
#     Edge 79, Type (0, 1), BuildingBlock: MIFKUJ_clean_linker_0, # of connection points: 2
#     Edge 80, Type (0, 1), BuildingBlock: MIFKUJ_clean_linker_0, # of connection points: 2
#     Edge 81, Type (0, 1), BuildingBlock: MIFKUJ_clean_linker_0, # of connection points: 2
#     Edge 82, Type (0, 1), BuildingBlock: MIFKUJ_clean_linker_0, # of connection points: 2
#     Edge 83, Type (0, 1), BuildingBlock: MIFKUJ_clean_linker_0, # of connection points: 2
#     Edge 84, Type (0, 1), BuildingBlock: MIFKUJ_clean_linker_0, # of connection points: 2
#     Edge 85, Type (0, 1), BuildingBlock: MIFKUJ_clean_linker_0, # of connection points: 2
#     Edge 86, Type (0, 1), BuildingBlock: MIFKUJ_clean_linker_0, # of connection points: 2
#     Edge 87, Type (0, 1), BuildingBlock: MIFKUJ_clean_linker_0, # of connection points: 2
#     Edge 88, Type (0, 1), BuildingBlock: MIFKUJ_clean_linker_0, # of connection points: 2
#     Edge 89, Type (0, 1), BuildingBlock: MIFKUJ_clean_linker_0, # of connection points: 2
#     Edge 90, Type (0, 1), BuildingBlock: MIFKUJ_clean_linker_0, # of connection points: 2
#     Edge 91, Type (0, 1), BuildingBlock: MIFKUJ_clean_linker_0, # of connection points: 2
#     Edge 92, Type (0, 1), BuildingBlock: MIFKUJ_clean_linker_0, # of connection points: 2
#     Edge 93, Type (0, 1), BuildingBlock: MIFKUJ_clean_linker_0, # of connection points: 2
#     Edge 94, Type (0, 1), BuildingBlock: MIFKUJ_clean_linker_0, # of connection points: 2
#     Edge 95, Type (0, 1), BuildingBlock: MIFKUJ_clean_linker_0, # of connection points: 2
#     Edge 96, Type (0, 1), BuildingBlock: MIFKUJ_clean_linker_0, # of connection points: 2
#     Edge 97, Type (0, 1), BuildingBlock: MIFKUJ_clean_linker_0, # of connection points: 2
#     Edge 98, Type (0, 1), BuildingBlock: MIFKUJ_clean_linker_0, # of connection points: 2
#     Edge 99, Type (0, 1), BuildingBlock: MIFKUJ_clean_linker_0, # of connection points: 2
#     Edge 100, Type (0, 1), BuildingBlock: MIFKUJ_clean_linker_0, # of connection points: 2
#     Edge 101, Type (0, 1), BuildingBlock: MIFKUJ_clean_linker_0, # of connection points: 2
#     Edge 102, Type (0, 1), BuildingBlock: MIFKUJ_clean_linker_0, # of connection points: 2
#     Edge 103, Type (0, 1), BuildingBlock: MIFKUJ_clean_linker_0, # of connection points: 2
#     Edge 104, Type (0, 1), BuildingBlock: MIFKUJ_clean_linker_0, # of connection points: 2
#     Edge 105, Type (0, 1), BuildingBlock: MIFKUJ_clean_linker_0, # of connection points: 2
#     Edge 106, Type (0, 1), BuildingBlock: MIFKUJ_clean_linker_0, # of connection points: 2
#     Edge 107, Type (0, 1), BuildingBlock: MIFKUJ_clean_linker_0, # of connection points: 2
#     Edge 108, Type (0, 1), BuildingBlock: MIFKUJ_clean_linker_0, # of connection points: 2
#     Edge 109, Type (0, 1), BuildingBlock: MIFKUJ_clean_linker_0, # of connection points: 2
#     Edge 110, Type (0, 1), BuildingBlock: MIFKUJ_clean_linker_0, # of connection points: 2
#     Edge 111, Type (0, 1), BuildingBlock: MIFKUJ_clean_linker_0, # of connection points: 2
#     Edge 112, Type (0, 1), BuildingBlock: MIFKUJ_clean_linker_0, # of connection points: 2
#     Edge 113, Type (0, 1), BuildingBlock: MIFKUJ_clean_linker_0, # of connection points: 2
#     Edge 114, Type (0, 1), BuildingBlock: MIFKUJ_clean_linker_0, # of connection points: 2
#     Edge 115, Type (0, 1), BuildingBlock: MIFKUJ_clean_linker_0, # of connection points: 2
#     Edge 116, Type (0, 1), BuildingBlock: MIFKUJ_clean_linker_0, # of connection points: 2
#     Edge 117, Type (0, 1), BuildingBlock: MIFKUJ_clean_linker_0, # of connection points: 2
#     Edge 118, Type (0, 1), BuildingBlock: MIFKUJ_clean_linker_0, # of connection points: 2
#     Edge 119, Type (0, 1), BuildingBlock: MIFKUJ_clean_linker_0, # of connection points: 2
#     Edge 120, Type (0, 1), BuildingBlock: MIFKUJ_clean_linker_0, # of connection points: 2
#     Edge 121, Type (0, 1), BuildingBlock: MIFKUJ_clean_linker_0, # of connection points: 2
#     Edge 122, Type (0, 1), BuildingBlock: MIFKUJ_clean_linker_0, # of connection points: 2
#     Edge 123, Type (0, 1), BuildingBlock: MIFKUJ_clean_linker_0, # of connection points: 2
#     Edge 124, Type (0, 1), BuildingBlock: MIFKUJ_clean_linker_0, # of connection points: 2
#     Edge 125, Type (0, 1), BuildingBlock: MIFKUJ_clean_linker_0, # of connection points: 2
#     Edge 126, Type (0, 1), BuildingBlock: MIFKUJ_clean_linker_0, # of connection points: 2
#     Edge 127, Type (0, 1), BuildingBlock: MIFKUJ_clean_linker_0, # of connection points: 2
#     Edge 128, Type (0, 1), BuildingBlock: MIFKUJ_clean_linker_0, # of connection points: 2
#     Edge 129, Type (0, 1), BuildingBlock: MIFKUJ_clean_linker_0, # of connection points: 2
#     Edge 130, Type (0, 1), BuildingBlock: MIFKUJ_clean_linker_0, # of connection points: 2
#     Edge 131, Type (0, 1), BuildingBlock: MIFKUJ_clean_linker_0, # of connection points: 2
#     Edge 132, Type (0, 1), BuildingBlock: MIFKUJ_clean_linker_0, # of connection points: 2
#     Edge 133, Type (0, 1), BuildingBlock: MIFKUJ_clean_linker_0, # of connection points: 2
#     Edge 134, Type (0, 1), BuildingBlock: MIFKUJ_clean_linker_0, # of connection points: 2
#     Edge 135, Type (0, 1), BuildingBlock: MIFKUJ_clean_linker_0, # of connection points: 2
# Relax obj value: 0.112
# Max RMSD: 0.312
# Mean RMSD: 0.144
data_MOF--net-gar--node1-QUQFOY_clean_sbu_3--node2-KUMBOL_clean_sbu_0--edge1-MIFKUJ_clean_linker_0
_symmetry_space_group_name_H-M    P1
_symmetry_Int_Tables_number       1
_symmetry_cell_setting            triclinic
loop_
_symmetry_equiv_pos_as_xyz
'x, y, z'
_cell_length_a     77.237368
_cell_length_b     73.959217
_cell_length_c     73.29559
_cell_angle_alpha  100.8801
_cell_angle_beta   92.823554
_cell_angle_gamma 102.36039
loop_
_atom_site_label
_atom_site_type_symbol
_atom_site_fract_x
_atom_site_fract_y
_atom_site_fract_z
_atom_type_partial_charge
C0 C 0.06481 0.31545 0.35765 0.0
O1 O 0.07494 0.32049 0.34552 0.0
Cd2 Cd 0.10609 0.32908 0.35027 0.0
O3 O 0.07091 0.31233 0.37292 0.0
Cd4 Cd 0.09855 0.31037 0.38925 0.0
C5 C 0.10854 0.35721 0.394 0.0
O6 O 0.11321 0.30453 0.3629 0.0
O7 O 0.13015 0.31108 0.38872 0.0
O8 O 0.08457 0.27925 0.39159 0.0
C9 C 0.12872 0.30805 0.37104 0.0
O10 O 0.10995 0.35511 0.37654 0.0
C11 C 0.08835 0.28192 0.40908 0.0
O12 O 0.10419 0.34331 0.40205 0.0
O13 O 0.09655 0.2984 0.4176 0.0
C14 C 0.97441 0.75203 0.68601 0.0
O15 O 0.9864 0.74824 0.69613 0.0
Cd16 Cd 0.01504 0.74674 0.6874 0.0
O17 O 0.97757 0.75759 0.67093 0.0
Cd18 Cd 0.00131 0.76397 0.65196 0.0
C19 C 0.99731 0.71845 0.64445 0.0
O20 O 0.02649 0.77295 0.67432 0.0
O21 O 0.03077 0.75998 0.64639 0.0
O22 O 0.00068 0.79551 0.65014 0.0
C23 C 0.03719 0.76781 0.66297 0.0
O24 O 0.00662 0.72166 0.66006 0.0
C25 C 0.99828 0.79216 0.63245 0.0
O26 O 0.99173 0.73131 0.6383 0.0
O27 O 0.99577 0.7751 0.62374 0.0
C28 C 0.56617 0.81404 0.85943 0.0
O29 O 0.57604 0.81708 0.84647 0.0
Cd30 Cd 0.60738 0.82412 0.85107 0.0
O31 O 0.57219 0.81136 0.8749 0.0
Cd32 Cd 0.59954 0.80701 0.88959 0.0
C33 C 0.60819 0.85302 0.89424 0.0
O34 O 0.61203 0.79804 0.86293 0.0
O35 O 0.63108 0.80933 0.88712 0.0
O36 O 0.58298 0.77764 0.89322 0.0
C37 C 0.62801 0.80243 0.86977 0.0
O38 O 0.61075 0.85128 0.87699 0.0
C39 C 0.58965 0.77939 0.90981 0.0
O40 O 0.6041 0.8388 0.9018 0.0
O41 O 0.60064 0.79471 0.91738 0.0
C42 C 0.47539 0.25765 0.18818 0.0
O43 O 0.48489 0.24913 0.19652 0.0
Cd44 Cd 0.5123 0.2429 0.18811 0.0
O45 O 0.47987 0.2642 0.17393 0.0
Cd46 Cd 0.50256 0.26542 0.15359 0.0
C47 C 0.49211 0.21856 0.14517 0.0
O48 O 0.52612 0.26897 0.17579 0.0
O49 O 0.532 0.26117 0.14718 0.0
O50 O 0.50493 0.29715 0.1512 0.0
C51 C 0.53719 0.26489 0.16444 0.0
O52 O 0.50053 0.21878 0.16063 0.0
C53 C 0.501 0.29325 0.13364 0.0
O54 O 0.49017 0.23354 0.14009 0.0
O55 O 0.49663 0.27597 0.12543 0.0
C56 C 0.04925 0.80177 0.13975 0.0
O57 O 0.05898 0.79454 0.14943 0.0
Cd58 Cd 0.08705 0.78764 0.1435 0.0
O59 O 0.05475 0.80756 0.12517 0.0
Cd60 Cd 0.08341 0.81126 0.10796 0.0
C61 C 0.07547 0.76232 0.09718 0.0
O62 O 0.10293 0.81583 0.13666 0.0
O63 O 0.11728 0.81558 0.11251 0.0
O64 O 0.07483 0.84145 0.10629 0.0
C65 C 0.11776 0.81642 0.12997 0.0
O66 O 0.07963 0.76428 0.11459 0.0
C67 C 0.0798 0.84304 0.0903 0.0
O68 O 0.07517 0.77684 0.09005 0.0
O69 O 0.08666 0.82988 0.08208 0.0
C70 C 0.48036 0.76277 0.39552 0.0
O71 O 0.49189 0.77103 0.38626 0.0
Cd72 Cd 0.52269 0.78299 0.39571 0.0
O73 O 0.48523 0.7583 0.41082 0.0
Cd74 Cd 0.51639 0.76019 0.42888 0.0
C75 C 0.52121 0.80812 0.44071 0.0
O76 O 0.53431 0.75732 0.40156 0.0
O77 O 0.54963 0.76732 0.42809 0.0
O78 O 0.50644 0.72659 0.43322 0.0
C79 C 0.54954 0.76225 0.41059 0.0
O80 O 0.5237 0.80716 0.42354 0.0
C81 C 0.51453 0.72931 0.44937 0.0
O82 O 0.51773 0.79308 0.44736 0.0
O83 O 0.52232 0.74631 0.4565 0.0
C84 C 0.54799 0.29924 0.63708 0.0
O85 O 0.55658 0.29095 0.64677 0.0
Cd86 Cd 0.58621 0.28679 0.6435 0.0
O87 O 0.5551 0.30677 0.62405 0.0
Cd88 Cd 0.58463 0.31114 0.60856 0.0
C89 C 0.57791 0.2622 0.59698 0.0
O90 O 0.60313 0.31563 0.63821 0.0
O91 O 0.61812 0.31482 0.61448 0.0
O92 O 0.57527 0.34086 0.60559 0.0
C93 C 0.61814 0.31574 0.63194 0.0
O94 O 0.58129 0.26372 0.61446 0.0
C95 C 0.58154 0.34281 0.59021 0.0
O96 O 0.57752 0.2769 0.59018 0.0
O97 O 0.58958 0.33023 0.58304 0.0
C98 C 0.9805 0.26355 0.89755 0.0
O99 O 0.99128 0.27314 0.88857 0.0
Cd100 Cd 0.02237 0.2846 0.89743 0.0
O101 O 0.9862 0.25793 0.9118 0.0
Cd102 Cd 0.01748 0.26004 0.92889 0.0
C103 C 0.02097 0.30748 0.94314 0.0
O104 O 0.03525 0.25891 0.90155 0.0
O105 O 0.05046 0.26915 0.92821 0.0
O106 O 0.01125 0.22581 0.93017 0.0
C107 C 0.05045 0.26411 0.9107 0.0
O108 O 0.02313 0.30773 0.92607 0.0
C109 C 0.01638 0.22798 0.94734 0.0
O110 O 0.01819 0.29192 0.94888 0.0
O111 O 0.02095 0.24498 0.95636 0.0
C112 C 0.44397 0.03111 0.32361 0.0
O113 O 0.45336 0.02477 0.31127 0.0
Cd114 Cd 0.44476 0.02307 0.27904 0.0
O115 O 0.43066 0.03732 0.31943 0.0
Cd116 Cd 0.41227 0.04366 0.29706 0.0
C117 C 0.40275 0.99718 0.28153 0.0
O118 O 0.43475 0.05131 0.27849 0.0
O119 O 0.40805 0.04631 0.26514 0.0
O120 O 0.41102 0.0732 0.31516 0.0
C121 C 0.42471 0.04988 0.2639 0.0
O122 O 0.41785 0.99771 0.27507 0.0
C123 C 0.3941 0.06952 0.3131 0.0
O124 O 0.39863 0.01185 0.29042 0.0
O125 O 0.38595 0.05273 0.30554 0.0
C126 C 0.31859 0.15693 0.50617 0.0
O127 O 0.30617 0.14577 0.51189 0.0
Cd128 Cd 0.27927 0.15388 0.5202 0.0
O129 O 0.31626 0.17254 0.50265 0.0
Cd130 Cd 0.29038 0.18804 0.50056 0.0
C131 C 0.2954 0.19943 0.54705 0.0
O132 O 0.26609 0.15977 0.49262 0.0
O133 O 0.25802 0.18537 0.50381 0.0
O134 O 0.29879 0.18918 0.46929 0.0
C135 C 0.2535 0.16791 0.49636 0.0
O136 O 0.28845 0.18187 0.54539 0.0
C137 C 0.29803 0.20621 0.46975 0.0
O138 O 0.29841 0.2065 0.53264 0.0
O139 O 0.29373 0.21516 0.48478 0.0
C140 C 0.13659 0.01254 0.80235 0.0
O141 O 0.13047 0.02319 0.7932 0.0
Cd142 Cd 0.13696 0.03053 0.7629 0.0
O143 O 0.14825 0.0037 0.7951 0.0
Cd144 Cd 0.16494 1.0013 0.76227 0.0
C145 C 0.18126 0.05328 0.76816 0.0
O146 O 0.13694 1.00171 0.74126 0.0
O147 O 0.15941 0.9995 0.72623 0.0
O148 O 0.16766 0.96606 0.76259 0.0
C149 C 0.14338 1.00121 0.72559 0.0
O150 O 0.16505 0.05425 0.76611 0.0
C151 C 0.18437 0.96783 0.76151 0.0
O152 O 0.18516 0.03706 0.76813 0.0
O153 O 0.19232 0.98463 0.76068 0.0
C154 C 0.34769 0.96111 0.01494 0.0
O155 O 0.3398 0.97448 0.01502 0.0
Cd156 Cd 0.31128 0.96336 0.99778 0.0
O157 O 0.34053 0.94474 0.00574 0.0
Cd158 Cd 0.31465 0.92697 0.01574 0.0
C159 C 0.31335 0.91929 0.97091 0.0
O160 O 0.29934 0.95065 0.02296 0.0
O161 O 0.28272 0.92232 0.01475 0.0
O162 O 0.33026 0.92864 0.04534 0.0
C163 C 0.28396 0.93992 0.02011 0.0
O164 O 0.31263 0.93656 0.97212 0.0
C165 C 0.3237 0.91129 0.04507 0.0
O166 O 0.31385 0.91179 0.98505 0.0
O167 O 0.31409 0.90132 0.03058 0.0
C168 C 0.33856 0.4165 0.03102 0.0
O169 O 0.32999 0.42432 0.02083 0.0
Cd170 Cd 0.29878 0.41538 0.01217 0.0
O171 O 0.33062 0.40269 0.03789 0.0
Cd172 Cd 0.29905 0.38403 0.0364 0.0
C173 C 0.2972 0.36949 0.98997 0.0
O174 O 0.28403 0.40997 0.03907 0.0
O175 O 0.2672 0.38209 0.02961 0.0
O176 O 0.30213 0.38448 0.06943 0.0
C177 C 0.26845 0.39969 0.03488 0.0
O178 O 0.29625 0.38634 0.9894 0.0
C179 C 0.2978 0.3667 0.06797 0.0
O180 O 0.29908 0.36433 0.00542 0.0
O181 O 0.29462 0.35665 0.05156 0.0
C182 C 0.80362 0.11441 0.02798 0.0
O183 O 0.78974 0.10332 0.03141 0.0
Cd184 Cd 0.7605 0.109 0.03162 0.0
O185 O 0.80313 0.12958 0.02254 0.0
Cd186 Cd 0.78139 0.14596 0.01458 0.0
C187 C 0.77106 0.15388 0.0582 0.0
O188 O 0.75725 0.12029 0.004 0.0
O189 O 0.75131 0.14774 0.00638 0.0
O190 O 0.79274 0.14859 0.98607 0.0
C191 C 0.74566 0.12998 0.00311 0.0
O192 O 0.76282 0.13667 0.05617 0.0
C193 C 0.79185 0.16581 0.9881 0.0
O194 O 0.77974 0.16035 0.04569 0.0
O195 O 0.78991 0.17458 0.00429 0.0
C196 C 0.15271 0.54021 0.26759 0.0
O197 O 0.14247 0.54643 0.25753 0.0
Cd198 Cd 0.15016 0.55071 0.22763 0.0
O199 O 0.16628 0.53487 0.26173 0.0
Cd200 Cd 0.1828 0.53038 0.23554 0.0
C201 C 0.19255 0.57586 0.24554 0.0
O202 O 0.15943 0.52311 0.21359 0.0
O203 O 0.18502 0.53307 0.20356 0.0
O204 O 0.18166 0.50075 0.24253 0.0
C205 C 0.16841 0.52625 0.2001 0.0
O206 O 0.17704 0.57529 0.23831 0.0
C207 C 0.19754 0.50095 0.23879 0.0
O208 O 0.19787 0.5611 0.24696 0.0
O209 O 0.20679 0.51539 0.23401 0.0
C210 C 0.83621 0.91864 0.53108 0.0
O211 O 0.8264 0.92529 0.5209 0.0
Cd212 Cd 0.79505 0.91498 0.51247 0.0
O213 O 0.82951 0.90466 0.5384 0.0
Cd214 Cd 0.7984 0.88505 0.53821 0.0
C215 C 0.79308 0.86911 0.49117 0.0
O216 O 0.78296 0.91052 0.54061 0.0
O217 O 0.76572 0.88275 0.53451 0.0
O218 O 0.80266 0.88556 0.57147 0.0
C219 C 0.76726 0.9005 0.53815 0.0
O220 O 0.78992 0.88509 0.49011 0.0
C221 C 0.7984 0.86775 0.56983 0.0
O222 O 0.79817 0.86562 0.50669 0.0
O223 O 0.79489 0.85775 0.55343 0.0
C224 C 0.95875 0.06382 0.31004 0.0
O225 O 0.9673 0.05582 0.29786 0.0
Cd226 Cd 0.95641 0.04583 0.26547 0.0
O227 O 0.94479 0.06933 0.30449 0.0
Cd228 Cd 0.92725 0.07019 0.27013 0.0
C229 C 0.91338 0.01928 0.26622 0.0
O230 O 0.95504 0.0724 0.25093 0.0
O231 O 0.93025 0.06314 0.23434 0.0
O232 O 0.92294 0.10558 0.28102 0.0
C233 C 0.94708 0.06786 0.23454 0.0
O234 O 0.92978 0.02003 0.26404 0.0
C235 C 0.9075 0.10384 0.27286 0.0
O236 O 0.90793 0.03486 0.26892 0.0
O237 O 0.90078 0.08695 0.26413 0.0
C238 C 0.30388 0.6141 0.5277 0.0
O239 O 0.29087 0.60284 0.53251 0.0
Cd240 Cd 0.26121 0.60744 0.53333 0.0
O241 O 0.30202 0.62884 0.52215 0.0
Cd242 Cd 0.27958 0.64481 0.51637 0.0
C243 C 0.27113 0.65165 0.56093 0.0
O244 O 0.2568 0.61779 0.50525 0.0
O245 O 0.24888 0.6444 0.50887 0.0
O246 O 0.29052 0.64888 0.48783 0.0
C247 C 0.24454 0.62655 0.50413 0.0
O248 O 0.26243 0.63454 0.55838 0.0
C249 C 0.28945 0.66606 0.49036 0.0
O250 O 0.27972 0.6582 0.54837 0.0
O251 O 0.28662 0.67408 0.50652 0.0
C252 C 0.45831 0.56344 0.80931 0.0
O253 O 0.46672 0.55498 0.79731 0.0
Cd254 Cd 0.45642 0.54522 0.76458 0.0
O255 O 0.44464 0.56929 0.80358 0.0
Cd256 Cd 0.42721 0.57009 0.7694 0.0
C257 C 0.41329 0.5189 0.76492 0.0
O258 O 0.45494 0.57173 0.75005 0.0
O259 O 0.43005 0.56389 0.73361 0.0
O260 O 0.42348 0.6057 0.77965 0.0
C261 C 0.4469 0.5678 0.73372 0.0
O262 O 0.42958 0.51957 0.76225 0.0
C263 C 0.40763 0.60381 0.77248 0.0
O264 O 0.40804 0.53459 0.76839 0.0
O265 O 0.40045 0.58674 0.76459 0.0
C266 C 0.65544 0.04219 0.77054 0.0
O267 O 0.64491 0.0487 0.76109 0.0
Cd268 Cd 0.64964 0.05226 0.73053 0.0
O269 O 0.66819 0.03581 0.76363 0.0
Cd270 Cd 0.68294 0.02965 0.73617 0.0
C271 C 0.6933 0.07569 0.74461 0.0
O272 O 0.65783 0.02409 0.71725 0.0
O273 O 0.68178 0.02741 0.70288 0.0
O274 O 0.68194 0.99945 0.74106 0.0
C275 C 0.665 0.02506 0.70227 0.0
O276 O 0.67724 0.07555 0.73957 0.0
C277 C 0.69836 1.00071 0.7391 0.0
O278 O 0.69879 0.06073 0.74454 0.0
O279 O 0.7078 0.01625 0.73665 0.0
C280 C 0.82344 0.66041 0.00718 0.0
O281 O 0.81291 0.64916 0.0149 0.0
Cd282 Cd 0.78425 0.65312 0.02286 0.0
O283 O 0.81886 0.67439 0.00212 0.0
Cd284 Cd 0.79191 0.68788 0.00174 0.0
C285 C 0.79663 0.699 0.04884 0.0
O286 O 0.76914 0.65858 0.99612 0.0
O287 O 0.75946 0.68393 0.0041 0.0
O288 O 0.79235 0.68881 0.96902 0.0
C289 C 0.75594 0.66604 0.999 0.0
O290 O 0.79127 0.68123 0.04754 0.0
C291 C 0.79704 0.70662 0.97117 0.0
O292 O 0.79857 0.70599 0.03424 0.0
O293 O 0.79936 0.71622 0.98778 0.0
C294 C 0.94091 0.5271 0.82421 0.0
O295 O 0.94918 0.52086 0.81075 0.0
Cd296 Cd 0.94062 0.52074 0.77933 0.0
O297 O 0.92815 0.53494 0.82189 0.0
Cd298 Cd 0.91072 0.54401 0.79956 0.0
C299 C 0.89719 0.49856 0.78059 0.0
O300 O 0.93353 0.55036 0.78082 0.0
O301 O 0.90765 0.54842 0.76722 0.0
O302 O 0.91239 0.57461 0.81779 0.0
C303 C 0.92427 0.55037 0.76615 0.0
O304 O 0.91204 0.49859 0.77378 0.0
C305 C 0.89562 0.57275 0.81645 0.0
O306 O 0.89411 0.51283 0.79142 0.0
O307 O 0.88606 0.55636 0.80966 0.0
C308 C 0.843 0.46402 0.51417 0.0
O309 O 0.83482 0.47427 0.50659 0.0
Cd310 Cd 0.80592 0.45824 0.49284 0.0
O311 O 0.83484 0.44822 0.51704 0.0
Cd312 Cd 0.80952 0.42439 0.51769 0.0
C313 C 0.81959 0.41713 0.47396 0.0
O314 O 0.79333 0.446 0.51793 0.0
O315 O 0.77697 0.41745 0.51312 0.0
O316 O 0.81736 0.43071 0.55011 0.0
C317 C 0.77805 0.43514 0.51515 0.0
O318 O 0.81548 0.43258 0.47221 0.0
C319 C 0.81832 0.41381 0.55002 0.0
O320 O 0.81795 0.41097 0.48896 0.0
O321 O 0.81474 0.4017 0.53473 0.0
C322 C 0.63641 0.51067 0.30093 0.0
O323 O 0.62853 0.51945 0.29111 0.0
Cd324 Cd 0.63591 0.52627 0.26093 0.0
O325 O 0.64937 0.50373 0.29412 0.0
Cd326 Cd 0.66529 0.50166 0.26069 0.0
C327 C 0.67934 0.55292 0.26672 0.0
O328 O 0.63684 0.49865 0.23789 0.0
O329 O 0.66132 0.50461 0.22583 0.0
O330 O 0.66832 0.4666 0.26122 0.0
C331 C 0.64447 0.50173 0.22339 0.0
O332 O 0.6627 0.55178 0.26381 0.0
C333 C 0.68485 0.46817 0.25919 0.0
O334 O 0.68476 0.5377 0.26773 0.0
O335 O 0.69263 0.48479 0.25763 0.0
Gd336 Gd 0.0683 0.04441 0.03138 0.0
Gd337 Gd 0.02427 0.02673 0.00989 0.0
C338 C -0.00074 0.96613 0.01657 0.0
C339 C 0.99794 0.94818 0.98511 0.0
C340 C 0.01115 0.9821 0.99235 0.0
C341 C 0.00765 0.98288 0.01084 0.0
C342 C 0.006 0.96469 0.97927 0.0
C343 C 0.9945 0.94894 0.00368 0.0
C344 C 0.99517 0.96709 0.03498 0.0
C345 C 0.99887 0.98448 0.04716 0.0
N346 N 0.01142 0.99995 0.02295 0.0
C347 C 0.00677 1.00073 0.04094 0.0
H348 H 0.00894 0.0135 0.05118 0.0
C349 C 0.01861 0.99827 0.96798 0.0
N350 N 0.01818 0.9984 0.98674 0.0
C351 C 0.01415 0.9814 0.95474 0.0
C352 C 0.00809 0.96447 0.96043 0.0
H353 H 0.02197 0.01117 0.96279 0.0
H354 H 0.98758 0.93625 0.00787 0.0
H355 H 0.0749 0.06059 0.99157 0.0
H356 H 0.98883 0.95454 0.03983 0.0
H357 H 0.99553 0.98545 0.06143 0.0
H358 H 0.99376 0.93483 0.97521 0.0
H359 H 0.07675 0.05393 0.07769 0.0
H360 H 0.10391 0.1177 0.00539 0.0
H361 H 0.08975 0.08925 0.98172 0.0
H362 H 0.10928 0.13224 0.07197 0.0
H363 H 0.01492 0.98156 0.94006 0.0
H364 H 0.00423 0.95143 0.95006 0.0
H365 H 0.10985 0.1342 0.03886 0.0
H366 H 0.08994 0.08113 0.10324 0.0
N367 N 0.07942 0.07255 0.02066 0.0
C368 C 0.0966 0.10537 0.00976 0.0
C369 C 0.08891 0.08922 0.99641 0.0
C370 C 0.09542 0.10517 0.02866 0.0
C371 C 0.08677 0.08827 0.03375 0.0
C372 C 0.08046 0.07286 0.00214 0.0
N373 N 0.07938 0.0702 0.05652 0.0
C374 C 0.08657 0.08712 0.05228 0.0
C375 C 0.08888 0.0831 0.089 0.0
C376 C 0.09559 0.1008 0.08491 0.0
C377 C 0.08122 0.0678 0.07453 0.0
C378 C 0.09487 0.1029 0.06634 0.0
H379 H 0.10186 0.11256 0.09609 0.0
O380 O 0.08644 0.03256 0.04643 0.0
O381 O 0.04772 0.01761 0.02068 0.0
O382 O 0.02134 0.03883 0.04064 0.0
O383 O 0.05015 0.05209 0.05464 0.0
O384 O 0.05788 0.02293 0.04837 0.0
O385 O 0.09384 0.04216 0.02121 0.0
O386 O 0.01159 0.03462 0.98641 0.0
O387 O 0.04753 0.0513 0.01366 0.0
O388 O 0.07064 0.02901 0.00147 0.0
O389 O 0.04342 0.0282 0.98659 0.0
O390 O 0.02381 0.05716 0.02122 0.0
O391 O 0.99574 0.02475 0.00828 0.0
C392 C 0.04811 0.01044 0.0351 0.0
C393 C 0.10286 0.11998 0.06138 0.0
C394 C 0.10321 0.12109 0.04255 0.0
C395 C 0.09857 0.03496 0.03496 0.0
C396 C 0.11698 0.04157 0.04299 0.0
C397 C 0.12235 0.05613 0.05882 0.0
C398 C 0.12928 0.03208 0.03488 0.0
C399 C 0.14691 0.03663 0.04266 0.0
C400 C 0.14001 0.06088 0.06659 0.0
C401 C 0.15229 0.05114 0.05859 0.0
C402 C 0.03258 0.04762 0.05564 0.0
C403 C 0.04002 0.06478 0.01913 0.0
C404 C 0.99603 0.03074 0.99264 0.0
C405 C 0.97999 0.03301 0.98281 0.0
C406 C 0.97773 0.02887 0.96326 0.0
C407 C 0.96706 0.03985 0.99299 0.0
C408 C 0.95189 0.04274 0.98371 0.0
C409 C 0.96253 0.03143 0.95395 0.0
C410 C 0.94967 0.03837 0.96408 0.0
C411 C 0.06005 0.02608 0.98588 0.0
H412 H 0.11302 0.06365 0.06526 0.0
H413 H 0.12503 0.02089 0.02257 0.0
H414 H 0.14412 0.07195 0.07894 0.0
H415 H 0.16582 0.05465 0.06505 0.0
H416 H 0.98767 0.0236 0.95524 0.0
H417 H 0.96888 0.04306 0.00812 0.0
H418 H 0.96077 0.02819 0.93886 0.0
H419 H 0.93815 0.04063 0.95657 0.0
Gd420 Gd 0.28479 0.79687 0.29093 0.0
Gd421 Gd 0.30347 0.7778 0.24803 0.0
C422 C 0.2808 0.71709 0.21629 0.0
C423 C 0.30751 0.70488 0.2132 0.0
C424 C 0.30904 0.73642 0.23149 0.0
C425 C 0.291 0.73434 0.22703 0.0
C426 C 0.3175 0.72171 0.22449 0.0
C427 C 0.28918 0.70253 0.2092 0.0
C428 C 0.26238 0.71474 0.21343 0.0
C429 C 0.25448 0.72907 0.22176 0.0
N430 N 0.28328 0.74874 0.23407 0.0
C431 C 0.26512 0.74593 0.2322 0.0
H432 H 0.25852 0.75623 0.23923 0.0
C433 C 0.3364 0.7557 0.24612 0.0
N434 N 0.31831 0.75274 0.24274 0.0
C435 C 0.34532 0.74156 0.2396 0.0
C436 C 0.33582 0.72442 0.22881 0.0
H437 H 0.34426 0.76935 0.2532 0.0
H438 H 0.28156 0.68929 0.20078 0.0
H439 H 0.32987 0.81766 0.30502 0.0
H440 H 0.25409 0.70167 0.20539 0.0
H441 H 0.24015 0.72708 0.22034 0.0
H442 H 0.31381 0.69352 0.20762 0.0
H443 H 0.24543 0.80804 0.28026 0.0
H444 H 0.33008 0.86638 0.34626 0.0
H445 H 0.34583 0.84329 0.3299 0.0
H446 H 0.27291 0.87895 0.33487 0.0
H447 H 0.35962 0.74411 0.24248 0.0
H448 H 0.3428 0.71355 0.22357 0.0
H449 H 0.30364 0.88073 0.3468 0.0
H450 H 0.23044 0.8334 0.29042 0.0
N451 N 0.30458 0.82496 0.30771 0.0
C452 C 0.32315 0.85542 0.33484 0.0
C453 C 0.33189 0.84213 0.32596 0.0
C454 C 0.30561 0.85463 0.32863 0.0
C455 C 0.29656 0.83909 0.31474 0.0
C456 C 0.32247 0.82714 0.31211 0.0
N457 N 0.27085 0.82284 0.29475 0.0
C458 C 0.2793 0.83814 0.30791 0.0
C459 C 0.2443 0.83515 0.29516 0.0
C460 C 0.25302 0.85108 0.30826 0.0
C461 C 0.25324 0.82095 0.28893 0.0
C462 C 0.27061 0.85262 0.31501 0.0
H463 H 0.24589 0.86182 0.31347 0.0
O464 O 0.25774 0.78399 0.29532 0.0
O465 O 0.28426 0.77211 0.2686 0.0
O466 O 0.27857 0.78476 0.23664 0.0
O467 O 0.268 0.79801 0.26439 0.0
O468 O 0.28467 0.76812 0.29624 0.0
O469 O 0.27716 0.79891 0.31901 0.0
O470 O 0.32925 0.79072 0.24012 0.0
O471 O 0.30447 0.80211 0.27113 0.0
O472 O 0.30978 0.7889 0.30171 0.0
O473 O 0.32142 0.77654 0.27404 0.0
O474 O 0.30504 0.80777 0.24453 0.0
O475 O 0.30757 0.77477 0.21874 0.0
C476 C 0.28472 0.76043 0.27896 0.0
C477 C 0.27948 0.86788 0.3291 0.0
C478 C 0.29692 0.86884 0.33596 0.0
C479 C 0.26076 0.78963 0.31341 0.0
C480 C 0.25194 0.77702 0.3249 0.0
C481 C 0.23373 0.77565 0.32672 0.0
C482 C 0.26154 0.76769 0.33521 0.0
C483 C 0.25292 0.75736 0.34755 0.0
C484 C 0.22516 0.76518 0.33897 0.0
C485 C 0.23475 0.75613 0.34946 0.0
C486 C 0.26696 0.79287 0.24588 0.0
C487 C 0.30488 0.81475 0.26195 0.0
C488 C 0.32436 0.78347 0.22245 0.0
C489 C 0.33363 0.79204 0.2083 0.0
C490 C 0.34894 0.78614 0.20259 0.0
C491 C 0.32742 0.80539 0.20014 0.0
C492 C 0.33682 0.81304 0.18644 0.0
C493 C 0.3581 0.79352 0.18878 0.0
C494 C 0.35211 0.80693 0.18073 0.0
C495 C 0.32201 0.78132 0.29272 0.0
H496 H 0.22624 0.78301 0.31895 0.0
H497 H 0.27567 0.76887 0.33407 0.0
H498 H 0.21117 0.76433 0.34053 0.0
H499 H 0.22808 0.74831 0.3592 0.0
H500 H 0.35372 0.77568 0.20875 0.0
H501 H 0.31555 0.80991 0.20455 0.0
H502 H 0.36983 0.78882 0.18429 0.0
H503 H 0.35932 0.81242 0.16989 0.0
Gd504 Gd 0.52378 0.03308 0.52685 0.0
Gd505 Gd 0.56886 0.0364 0.51028 0.0
C506 C 0.6057 0.09503 0.51893 0.0
C507 C 0.60902 0.09899 0.48703 0.0
C508 C 0.59132 0.06973 0.49315 0.0
C509 C 0.59483 0.0768 0.51216 0.0
C510 C 0.59876 0.08055 0.48037 0.0
C511 C 0.61243 0.10624 0.50627 0.0
C512 C 0.60985 0.10127 0.53821 0.0
C513 C 0.60378 0.08915 0.55015 0.0
N514 N 0.58825 0.06555 0.52401 0.0
C515 C 0.59312 0.07116 0.54277 0.0
H516 H 0.58851 0.06208 0.55227 0.0
C517 C 0.5792 0.04349 0.46866 0.0
N518 N 0.58121 0.05195 0.48716 0.0
C519 C 0.58636 0.05364 0.45546 0.0
C520 C 0.59597 0.07235 0.46131 0.0
H521 H 0.57167 0.02905 0.46417 0.0
H522 H 0.62065 0.12035 0.51122 0.0
H523 H 0.50509 0.00679 0.48479 0.0
H524 H 0.61808 0.11521 0.54397 0.0
H525 H 0.6072 0.09368 0.56506 0.0
H526 H 0.61467 0.10762 0.47742 0.0
H527 H 0.52148 0.04108 0.57272 0.0
H528 H 0.46927 0.95738 0.49376 0.0
H529 H 0.48374 0.97677 0.47232 0.0
H530 H 0.47099 0.96666 0.5603 0.0
H531 H 0.58444 0.04706 0.44079 0.0
H532 H 0.6015 0.08018 0.45105 0.0
H533 H 0.46399 0.95429 0.52657 0.0
H534 H 0.50705 0.02463 0.59639 0.0
N535 N 0.5037 0.00432 0.51327 0.0
C536 C 0.47888 0.97051 0.49937 0.0
C537 C 0.48698 0.98143 0.48724 0.0
C538 C 0.48292 0.97692 0.51864 0.0
C539 C 0.49564 0.99403 0.52525 0.0
C540 C 0.49918 0.99852 0.49446 0.0
N541 N 0.51085 0.01821 0.55004 0.0
C542 C 0.49932 1.0012 0.54422 0.0
C543 C 0.50489 0.0178 0.58179 0.0
C544 C 0.49362 0.99987 0.57613 0.0
C545 C 0.51313 0.027 0.56842 0.0
C546 C 0.49041 0.99151 0.55713 0.0
H547 H 0.48705 0.99287 0.58648 0.0
O548 O 0.51311 0.05637 0.54044 0.0
O549 O 0.54935 0.05186 0.52325 0.0
O550 O 0.56728 0.03338 0.54003 0.0
O551 O 0.53822 0.01928 0.54505 0.0
O552 O 0.53906 0.05838 0.54831 0.0
O553 O 0.50023 0.03926 0.514 0.0
O554 O 0.57954 0.01291 0.49721 0.0
O555 O 0.54323 0.01774 0.51382 0.0
O556 O 0.52507 0.03616 0.497 0.0
O557 O 0.55429 0.04937 0.49158 0.0
O558 O 0.5537 0.01064 0.48909 0.0
O559 O 0.59323 0.03129 0.52265 0.0
C560 C 0.55151 0.06411 0.53819 0.0
C561 C 0.47804 0.97427 0.55062 0.0
C562 C 0.47418 0.96711 0.53142 0.0
C563 C 0.49977 0.05311 0.52779 0.0
C564 C 0.48243 0.05391 0.53487 0.0
C565 C 0.47631 0.04413 0.54878 0.0
C566 C 0.47236 0.06552 0.5284 0.0
C567 C 0.45625 0.06741 0.53586 0.0
C568 C 0.4605 0.04615 0.55642 0.0
C569 C 0.45054 0.05774 0.55007 0.0
C570 C 0.55561 0.02316 0.54879 0.0
C571 C 0.54101 0.00525 0.49909 0.0
C572 C 0.59332 0.01681 0.5094 0.0
C573 C 0.61034 0.01545 0.5017 0.0
C574 C 0.6157 0.02415 0.48685 0.0
C575 C 0.62068 0.00411 0.50832 0.0
C576 C 0.63627 1.00137 0.50005 0.0
C577 C 0.63094 0.02129 0.47843 0.0
C578 C 0.64113 0.00993 0.48488 0.0
C579 C 0.537 0.0451 0.48753 0.0
H580 H 0.48379 0.03513 0.55394 0.0
H581 H 0.47703 0.07298 0.51755 0.0
H582 H 0.45601 0.03879 0.56736 0.0
H583 H 0.43842 0.05927 0.55641 0.0
H584 H 0.60797 0.03288 0.48154 0.0
H585 H 0.6166 0.9975 0.5199 0.0
H586 H 0.63482 0.02779 0.46675 0.0
H587 H 0.65275 0.00773 0.47788 0.0
Gd588 Gd 0.31988 0.27971 0.76917 0.0
Gd589 Gd 0.27588 0.29199 0.76863 0.0
C590 C 0.2429 0.27674 0.71177 0.0
C591 C 0.24027 0.30753 0.70661 0.0
C592 C 0.25666 0.3048 0.73483 0.0
C593 C 0.25338 0.28547 0.72875 0.0
C594 C 0.24973 0.31602 0.72405 0.0
C595 C 0.23679 0.28789 0.70051 0.0
C596 C 0.23811 0.25703 0.70702 0.0
C597 C 0.24379 0.24647 0.71893 0.0
N598 N 0.2592 0.27507 0.74012 0.0
C599 C 0.2542 0.25571 0.73552 0.0
H600 H 0.25826 0.24697 0.74423 0.0
C601 C 0.26589 0.33091 0.75996 0.0
N602 N 0.26526 0.31245 0.75201 0.0
C603 C 0.25959 0.34269 0.74971 0.0
C604 C 0.25173 0.33528 0.73153 0.0
H605 H 0.27153 0.33657 0.77422 0.0
H606 H 0.22891 0.28141 0.68734 0.0
H607 H 0.34198 0.32387 0.79222 0.0
H608 H 0.22944 0.24983 0.69462 0.0
H609 H 0.24002 0.23118 0.71544 0.0
H610 H 0.23499 0.31593 0.69807 0.0
H611 H 0.32407 0.23483 0.76346 0.0
H612 H 0.36351 0.32001 0.84552 0.0
H613 H 0.35856 0.33904 0.82228 0.0
H614 H 0.35392 0.25343 0.84227 0.0
H615 H 0.26061 0.35741 0.75592 0.0
H616 H 0.2466 0.34436 0.7237 0.0
H617 H 0.36106 0.28797 0.85316 0.0
H618 H 0.33256 0.21327 0.78249 0.0
N619 N 0.33686 0.2959 0.79778 0.0
C620 C 0.35613 0.31311 0.83218 0.0
C621 C 0.35344 0.32387 0.81908 0.0
C622 C 0.35007 0.29347 0.82751 0.0
C623 C 0.34064 0.28517 0.80986 0.0
C624 C 0.34381 0.31504 0.80189 0.0
N625 N 0.32945 0.2587 0.78598 0.0
C626 C 0.33671 0.26586 0.80376 0.0
C627 C 0.33365 0.228 0.78872 0.0
C628 C 0.33988 0.23491 0.80748 0.0
C629 C 0.3289 0.24025 0.778 0.0
C630 C 0.34198 0.25416 0.81509 0.0
H631 H 0.34376 0.22546 0.81572 0.0
O632 O 0.33392 0.26588 0.74765 0.0
O633 O 0.29709 0.28354 0.75136 0.0
O634 O 0.27252 0.26137 0.77303 0.0
O635 O 0.30023 0.25347 0.77454 0.0
O636 O 0.30594 0.25867 0.7442 0.0
O637 O 0.34485 0.29484 0.76086 0.0
O638 O 0.26227 0.30578 0.79064 0.0
O639 O 0.29871 0.28811 0.78599 0.0
O640 O 0.32296 0.31065 0.76565 0.0
O641 O 0.29525 0.31833 0.7631 0.0
O642 O 0.29019 0.31293 0.79378 0.0
O643 O 0.25065 0.27718 0.77683 0.0
C644 C 0.29527 0.26842 0.73917 0.0
C645 C 0.35003 0.2622 0.83325 0.0
C646 C 0.35408 0.28186 0.83946 0.0
C647 C 0.34707 0.28043 0.74874 0.0
C648 C 0.36515 0.27664 0.74851 0.0
C649 C 0.37098 0.267 0.76149 0.0
C650 C 0.37632 0.28168 0.73464 0.0
C651 C 0.39293 0.27654 0.73349 0.0
C652 C 0.38738 0.262 0.76045 0.0
C653 C 0.3982 0.26658 0.74652 0.0
C654 C 0.28261 0.24915 0.77475 0.0
C655 C 0.30094 0.30304 0.79837 0.0
C656 C 0.24885 0.29147 0.7894 0.0
C657 C 0.23091 0.29576 0.79023 0.0
C658 C 0.2257 0.30705 0.7786 0.0
C659 C 0.21909 0.28919 0.80306 0.0
C660 C 0.20219 0.29382 0.80395 0.0
C661 C 0.20935 0.31206 0.7798 0.0
C662 C 0.19772 0.30555 0.79231 0.0
C663 C 0.31295 0.3229 0.76361 0.0
H664 H 0.36277 0.26314 0.7723 0.0
H665 H 0.37192 0.28909 0.72452 0.0
H666 H 0.39168 0.25442 0.77044 0.0
H667 H 0.41085 0.26247 0.74603 0.0
H668 H 0.23431 0.31213 0.76863 0.0
H669 H 0.22291 0.28035 0.81206 0.0
H670 H 0.20563 0.32103 0.77092 0.0
H671 H 0.18512 0.30976 0.7929 0.0
Gd672 Gd 0.0535 0.0131 0.5093 0.0
Gd673 Gd 0.0438 0.05691 0.52891 0.0
C674 C 0.06021 0.08788 0.58976 0.0
C675 C 0.03208 0.09336 0.60017 0.0
C676 C 0.03337 0.07637 0.56857 0.0
C677 C 0.05147 0.07832 0.57207 0.0
C678 C 0.0235 0.08411 0.5825 0.0
C679 C 0.0504 0.09522 0.60379 0.0
C680 C 0.0786 0.09 0.59279 0.0
C681 C 0.08787 0.08292 0.57834 0.0
N682 N 0.06058 0.0712 0.55813 0.0
C683 C 0.0787 0.07371 0.56105 0.0
H684 H 0.08642 0.06829 0.55043 0.0
C685 C 0.00801 0.06704 0.54671 0.0
N686 N 0.02551 0.06759 0.55132 0.0
C687 C 0.99762 0.07427 0.56008 0.0
C688 C 0.00537 0.08273 0.57811 0.0
H689 H 0.00207 0.06095 0.53262 0.0
H690 H 0.0569 0.10257 0.61742 0.0
H691 H 0.01018 0.99852 0.49028 0.0
H692 H 0.08577 0.09721 0.60616 0.0
H693 H 0.10213 0.08453 0.58048 0.0
H694 H 0.02472 0.09936 0.61104 0.0
H695 H 0.09539 0.01015 0.5037 0.0
H696 H 0.00979 0.97478 0.43267 0.0
H697 H 0.99377 0.98356 0.46011 0.0
H698 H 0.07111 0.97657 0.42444 0.0
H699 H 0.9837 0.07352 0.5564 0.0
H700 H 0.99735 0.08851 0.58841 0.0
H701 H 0.03866 0.97236 0.41949 0.0
H702 H 0.11328 0.99946 0.47848 0.0
N703 N 0.03596 0.99899 0.48061 0.0
C704 C 0.01725 0.9815 0.44601 0.0
C705 C 0.00816 0.98635 0.46147 0.0
C706 C 0.03581 0.98486 0.44808 0.0
C707 C 0.04492 0.9937 0.46578 0.0
C708 C 0.01771 0.99488 0.47874 0.0
N709 N 0.07141 0.0039 0.48585 0.0
C710 C 0.06318 0.99617 0.46851 0.0
C711 C 0.09923 0.99856 0.47545 0.0
C712 C 0.09111 0.99126 0.45735 0.0
C713 C 0.08908 0.00459 0.48967 0.0
C714 C 0.07284 0.98975 0.45372 0.0
H715 H 0.09896 0.98645 0.44638 0.0
O716 O 0.06768 0.99548 0.52149 0.0
O717 O 0.05264 0.03208 0.53718 0.0
O718 O 0.07205 0.06121 0.5209 0.0
O719 O 0.07448 0.03471 0.49955 0.0
O720 O 0.07613 0.02425 0.53193 0.0
O721 O 0.03966 0.98478 0.51167 0.0
O722 O 0.03074 0.07451 0.51524 0.0
O723 O 0.04433 0.03756 0.50137 0.0
O724 O 0.02589 0.00823 0.51937 0.0
O725 O 0.02203 0.03599 0.53803 0.0
O726 O 0.02093 0.04578 0.50616 0.0
O727 O 0.05858 0.08454 0.52571 0.0
C728 C 0.0678 0.03185 0.54506 0.0
C729 C 0.06391 0.98151 0.43598 0.0
C730 C 0.04543 0.97911 0.43316 0.0
C731 C 0.05378 0.98162 0.51982 0.0
C732 C 0.05685 0.96255 0.51614 0.0
C733 C 0.0682 0.9569 0.50293 0.0
C734 C 0.04977 0.95053 0.52786 0.0
C735 C 0.05429 0.9331 0.52679 0.0
C736 C 0.07258 0.93934 0.50173 0.0
C737 C 0.06576 0.92749 0.51372 0.0
C738 C 0.08072 0.05245 0.5083 0.0
C739 C 0.02905 0.03719 0.49352 0.0
C740 C 0.0449 0.08805 0.51708 0.0
C741 C 0.04222 0.10726 0.5211 0.0
C742 C 0.03223 0.11346 0.53548 0.0
C743 C 0.04886 0.11917 0.50914 0.0
C744 C 0.04576 0.13736 0.51155 0.0
C745 C 0.02902 0.13162 0.53787 0.0
C746 C 0.03583 0.14361 0.52601 0.0
C747 C 0.01672 0.01774 0.5308 0.0
H748 H 0.07392 0.96615 0.49391 0.0
H749 H 0.04117 0.95499 0.53826 0.0
H750 H 0.08146 0.93502 0.49166 0.0
H751 H 0.06937 0.914 0.5128 0.0
H752 H 0.02679 0.1043 0.54467 0.0
H753 H 0.05643 0.11426 0.49789 0.0
H754 H 0.02117 0.13638 0.54885 0.0
H755 H 0.03315 0.1576 0.52792 0.0
Gd756 Gd 0.27784 0.7736 0.77142 0.0
Gd757 Gd 0.31886 0.80149 0.76381 0.0
C758 C 0.32747 0.86409 0.76106 0.0
C759 C 0.33819 0.8643 0.7305 0.0
C760 C 0.33012 0.83474 0.74138 0.0
C761 C 0.32556 0.84427 0.75789 0.0
C762 C 0.33685 0.84472 0.72766 0.0
C763 C 0.33355 0.87397 0.74718 0.0
C764 C 0.32336 0.87344 0.77814 0.0
C765 C 0.31761 0.86312 0.79163 0.0
N766 N 0.31966 0.8343 0.77104 0.0
C767 C 0.31591 0.84355 0.7879 0.0
H768 H 0.31131 0.83612 0.79865 0.0
C769 C 0.33633 0.80665 0.72465 0.0
N770 N 0.32915 0.81593 0.73924 0.0
C771 C 0.34273 0.81578 0.71047 0.0
C772 C 0.34274 0.83486 0.71184 0.0
H773 H 0.33722 0.79219 0.72411 0.0
H774 H 0.33497 0.88914 0.74934 0.0
H775 H 0.28118 0.73839 0.73512 0.0
H776 H 0.32465 0.88861 0.78109 0.0
H777 H 0.31445 0.87022 0.80493 0.0
H778 H 0.34324 0.87217 0.72008 0.0
H779 H 0.2615 0.78284 0.81268 0.0
H780 H 0.27449 0.68699 0.75483 0.0
H781 H 0.27951 0.70447 0.7293 0.0
H782 H 0.26135 0.70418 0.81795 0.0
H783 H 0.34798 0.80821 0.6987 0.0
H784 H 0.34797 0.84201 0.70099 0.0
H785 H 0.26813 0.6871 0.78798 0.0
H786 H 0.25385 0.7672 0.83914 0.0
N787 N 0.27715 0.74087 0.76408 0.0
C788 C 0.27517 0.70205 0.75758 0.0
C789 C 0.27793 0.71185 0.74313 0.0
C790 C 0.27274 0.71168 0.77525 0.0
C791 C 0.27365 0.73131 0.77809 0.0
C792 C 0.27886 0.73129 0.74659 0.0
N793 N 0.26953 0.75942 0.7968 0.0
C794 C 0.26978 0.74088 0.79496 0.0
C795 C 0.25851 0.75969 0.8269 0.0
C796 C 0.2597 0.74095 0.82571 0.0
C797 C 0.26306 0.7686 0.81204 0.0
C798 C 0.26496 0.73116 0.80943 0.0
H799 H 0.25594 0.73398 0.83713 0.0
O800 O 0.25226 0.77967 0.77665 0.0
O801 O 0.28938 0.80185 0.76376 0.0
O802 O 0.31481 0.80547 0.79429 0.0
O803 O 0.2946 0.7789 0.79831 0.0
O804 O 0.27423 0.8024 0.78573 0.0
O805 O 0.25479 0.75941 0.75176 0.0
O806 O 0.34452 0.79471 0.76076 0.0
O807 O 0.3069 0.77326 0.77079 0.0
O808 O 0.28123 0.77027 0.74076 0.0
O809 O 0.30345 0.79514 0.736 0.0
O810 O 0.32295 0.77254 0.74962 0.0
O811 O 0.34114 0.81606 0.78431 0.0
C812 C 0.28149 0.81275 0.77456 0.0
C813 C 0.26489 0.71185 0.80696 0.0
C814 C 0.26875 0.70213 0.78989 0.0
C815 C 0.24418 0.76789 0.7617 0.0
C816 C 0.22652 0.75687 0.76337 0.0
C817 C 0.22254 0.7481 0.77853 0.0
C818 C 0.213 0.75656 0.74995 0.0
C819 C 0.19547 0.74763 0.75153 0.0
C820 C 0.20499 0.73909 0.78014 0.0
C821 C 0.19144 0.73881 0.76666 0.0
C822 C 0.30721 0.79407 0.80475 0.0
C823 C 0.31431 0.76204 0.75992 0.0
C824 C 0.35208 0.80711 0.77554 0.0
C825 C 0.36991 0.81792 0.77413 0.0
C826 C 0.3741 0.82755 0.75958 0.0
C827 C 0.38337 0.81692 0.78696 0.0
C828 C 0.40102 0.82502 0.7851 0.0
C829 C 0.39182 0.83579 0.75777 0.0
C830 C 0.40535 0.83441 0.77044 0.0
C831 C 0.29005 0.78058 0.72992 0.0
H832 H 0.23283 0.7484 0.78917 0.0
H833 H 0.21609 0.76355 0.73836 0.0
H834 H 0.20186 0.73253 0.79194 0.0
H835 H 0.17783 0.73211 0.76822 0.0
H836 H 0.36389 0.82847 0.7495 0.0
H837 H 0.38021 0.80922 0.79806 0.0
H838 H 0.39508 0.84297 0.74639 0.0
H839 H 0.41911 0.84044 0.76876 0.0
Gd840 Gd 0.53935 0.03638 0.99272 0.0
Gd841 Gd 0.5518 0.03266 0.04202 0.0
C842 C 0.60737 0.05734 0.07293 0.0
C843 C 0.61868 0.02919 0.07303 0.0
C844 C 0.58877 0.02649 0.05887 0.0
C845 C 0.59113 0.04602 0.06342 0.0
C846 C 0.60235 0.0179 0.06426 0.0
C847 C 0.62121 0.04885 0.07729 0.0
C848 C 0.60921 0.07687 0.07805 0.0
C849 C 0.59481 0.08464 0.07454 0.0
N850 N 0.5775 0.05393 0.05908 0.0
C851 C 0.57891 0.07293 0.06542 0.0
H852 H 0.56791 0.07949 0.06391 0.0
C853 C 0.56899 0.99659 0.049 0.0
N854 N 0.57292 0.01582 0.05018 0.0
C855 C 0.58203 0.98749 0.054 0.0
C856 C 0.59892 0.99817 0.0613 0.0
H857 H 0.55584 0.98823 0.04355 0.0
H858 H 0.63378 0.05737 0.08438 0.0
H859 H 0.52587 0.99034 0.96838 0.0
H860 H 0.6215 0.086 0.0852 0.0
H861 H 0.59587 0.09967 0.07906 0.0
H862 H 0.6293 0.02281 0.07702 0.0
H863 H 0.5336 0.08081 0.995 0.0
H864 H 0.47482 0.98363 0.94035 0.0
H865 H 0.5 0.97034 0.94887 0.0
H866 H 0.46499 0.04598 0.95057 0.0
H867 H 0.57901 0.97226 0.05234 0.0
H868 H 0.60899 0.99109 0.06528 0.0
H869 H 0.46241 0.01187 0.94043 0.0
H870 H 0.51114 0.09649 0.98443 0.0
N871 N 0.51503 0.01506 0.97363 0.0
C872 C 0.48596 0.99255 0.94972 0.0
C873 C 0.50014 0.985 0.95449 0.0
C874 C 0.4867 0.01171 0.95632 0.0
C875 C 0.50147 0.02279 0.96858 0.0
C876 C 0.5148 0.99656 0.96607 0.0
N877 N 0.51774 0.05283 0.98514 0.0
C878 C 0.5029 0.04214 0.9744 0.0
C879 C 0.50843 0.08122 0.98186 0.0
C880 C 0.49257 0.07043 0.97201 0.0
C881 C 0.5211 0.07222 0.98787 0.0
C882 C 0.48984 0.05072 0.9677 0.0
H883 H 0.4829 0.07747 0.96701 0.0
O884 O 0.55437 0.0597 0.98219 0.0
O885 O 0.55802 0.04643 0.01845 0.0
O886 O 0.54847 0.06148 0.03996 0.0
O887 O 0.52787 0.05548 0.01416 0.0
O888 O 0.56912 0.04042 0.99341 0.0
O889 O 0.54775 0.03071 0.96507 0.0
O890 O 0.53604 0.01284 0.05589 0.0
O891 O 0.53349 0.02227 0.0159 0.0
O892 O 0.54433 0.00766 0.99343 0.0
O893 O 0.56191 0.01156 0.02158 0.0
O894 O 0.52165 0.02528 0.04042 0.0
O895 O 0.54503 0.04283 0.06986 0.0
C896 C 0.57215 0.04601 0.01113 0.0
C897 C 0.47503 0.03959 0.95592 0.0
C898 C 0.47352 0.02017 0.95019 0.0
C899 C 0.55539 0.0486 0.96631 0.0
C900 C 0.55444 0.05613 0.94953 0.0
C901 C 0.54024 0.0634 0.94374 0.0
C902 C 0.56859 0.05539 0.93881 0.0
C903 C 0.56863 0.0611 0.92179 0.0
C904 C 0.54058 0.07007 0.92707 0.0
C905 C 0.55475 0.06889 0.91601 0.0
C906 C 0.53535 0.06543 0.03052 0.0
C907 C 0.51899 0.02005 0.02265 0.0
C908 C 0.5364 0.02578 0.07084 0.0
C909 C 0.53759 0.01978 0.08848 0.0
C910 C 0.54855 0.00776 0.09221 0.0
C911 C 0.5249 0.02368 0.10042 0.0
C912 C 0.52223 0.01479 0.11544 0.0
C913 C 0.54615 0.99915 0.10762 0.0
C914 C 0.53275 0.00238 0.1191 0.0
C915 C 0.55587 0.00271 0.00439 0.0
H916 H 0.52899 0.0638 0.95184 0.0
H917 H 0.57956 0.04986 0.94359 0.0
H918 H 0.52971 0.07579 0.92254 0.0
H919 H 0.55461 0.07348 0.90283 0.0
H920 H 0.55846 0.00457 0.08304 0.0
H921 H 0.51619 0.03268 0.0973 0.0
H922 H 0.55432 0.98957 0.11033 0.0
H923 H 0.53051 0.99522 0.13066 0.0
Gd924 Gd 0.28088 0.25929 0.25585 0.0
Gd925 Gd 0.30654 0.30754 0.27652 0.0
C926 C 0.3601 0.3333 0.25701 0.0
C927 C 0.37856 0.3446 0.28642 0.0
C928 C 0.3483 0.32591 0.28541 0.0
C929 C 0.3458 0.3252 0.2664 0.0
C930 C 0.36477 0.33559 0.29558 0.0
C931 C 0.37628 0.34336 0.26717 0.0
C932 C 0.35799 0.3306 0.23761 0.0
C933 C 0.34221 0.31945 0.22794 0.0
N934 N 0.32989 0.31543 0.25694 0.0
C935 C 0.32836 0.31182 0.23777 0.0
H936 H 0.31676 0.30273 0.22956 0.0
C937 C 0.33691 0.31762 0.31276 0.0
N938 N 0.33483 0.31673 0.29386 0.0
C939 C 0.35293 0.32699 0.32331 0.0
C940 C 0.36694 0.33604 0.3147 0.0
H941 H 0.32598 0.31218 0.32028 0.0
H942 H 0.38724 0.34993 0.2602 0.0
H943 H 0.26573 0.25631 0.29808 0.0
H944 H 0.36868 0.3365 0.22992 0.0
H945 H 0.34069 0.31662 0.21284 0.0
H946 H 0.39118 0.35227 0.29406 0.0
H947 H 0.27126 0.24833 0.21009 0.0
H948 H 0.21081 0.22876 0.28996 0.0
H949 H 0.23824 0.24371 0.31081 0.0
H950 H 0.19774 0.21601 0.2237 0.0
H951 H 0.35428 0.32769 0.33821 0.0
H952 H 0.3793 0.34349 0.32298 0.0
H953 H 0.19619 0.21752 0.25726 0.0
H954 H 0.24551 0.23374 0.18681 0.0
N955 N 0.25421 0.25028 0.26988 0.0
C956 C 0.22285 0.23476 0.28419 0.0
C957 C 0.23833 0.24301 0.29597 0.0
C958 C 0.2232 0.23402 0.26503 0.0
C959 C 0.23918 0.24228 0.25826 0.0
C960 C 0.25402 0.25025 0.28853 0.0
N961 N 0.25603 0.24808 0.23342 0.0
C962 C 0.24012 0.2412 0.2394 0.0
C963 C 0.24369 0.23605 0.20155 0.0
C964 C 0.22705 0.2296 0.20752 0.0
C965 C 0.25817 0.24477 0.21476 0.0
C966 C 0.2252 0.23169 0.22663 0.0
H967 H 0.21594 0.22233 0.1973 0.0
O968 O 0.28818 0.2375 0.23602 0.0
O969 O 0.30782 0.27828 0.26436 0.0
O970 O 0.29446 0.30875 0.24812 0.0
O971 O 0.27543 0.27857 0.23662 0.0
O972 O 0.30181 0.26502 0.23659 0.0
O973 O 0.28358 0.23319 0.26409 0.0
O974 O 0.30069 0.32219 0.30345 0.0
O975 O 0.28158 0.28599 0.27516 0.0
O976 O 0.29239 0.25804 0.28423 0.0
O977 O 0.30782 0.28889 0.29748 0.0
O978 O 0.27921 0.31292 0.27234 0.0
O979 O 0.31315 0.33797 0.2833 0.0
C980 C 0.31442 0.27407 0.24931 0.0
C981 C 0.20924 0.22362 0.23328 0.0
C982 C 0.2083 0.22462 0.25243 0.0
C983 C 0.28796 0.22638 0.24773 0.0
C984 C 0.28259 0.20621 0.24038 0.0
C985 C 0.26994 0.19796 0.22503 0.0
C986 C 0.29286 0.19549 0.24748 0.0
C987 C 0.29153 0.17674 0.23888 0.0
C988 C 0.26785 0.1788 0.21691 0.0
C989 C 0.27872 0.16816 0.22374 0.0
C990 C 0.28284 0.2962 0.23533 0.0
C991 C 0.27079 0.296 0.27294 0.0
C992 C 0.30805 0.33869 0.3001 0.0
C993 C 0.30169 0.35522 0.30845 0.0
C994 C 0.30916 0.36522 0.32626 0.0
C995 C 0.29024 0.36251 0.29806 0.0
C996 C 0.28672 0.3802 0.30513 0.0
C997 C 0.30543 0.38265 0.33353 0.0
C998 C 0.2944 0.39024 0.32298 0.0
C999 C 0.30185 0.27091 0.29812 0.0
H1000 H 0.2621 0.20633 0.21913 0.0
H1001 H 0.3027 0.20211 0.25928 0.0
H1002 H 0.25822 0.17235 0.20499 0.0
H1003 H 0.27752 0.15356 0.21693 0.0
H1004 H 0.31832 0.35982 0.33428 0.0
H1005 H 0.28454 0.35463 0.28429 0.0
H1006 H 0.31148 0.39052 0.34715 0.0
H1007 H 0.29227 0.40414 0.32858 0.0
Gd1008 Gd 0.55373 0.51248 0.008 0.0
Gd1009 Gd 0.54416 0.55628 0.02853 0.0
C1010 C 0.56043 0.58466 0.08982 0.0
C1011 C 0.53202 0.58815 0.10103 0.0
C1012 C 0.53343 0.57301 0.0688 0.0
C1013 C 0.5517 0.57562 0.07201 0.0
C1014 C 0.52343 0.57953 0.0832 0.0
C1015 C 0.55047 0.59066 0.10433 0.0
C1016 C 0.57897 0.58788 0.09241 0.0
C1017 C 0.58841 0.58266 0.07734 0.0
N1018 N 0.56101 0.57014 0.05755 0.0
C1019 C 0.57924 0.57407 0.0599 0.0
H1020 H 0.58699 0.57028 0.04859 0.0
C1021 C 0.50784 0.56372 0.04714 0.0
N1022 N 0.52554 0.56491 0.05139 0.0
C1023 C 0.49734 0.56979 0.06099 0.0
C1024 C 0.50515 0.57763 0.07914 0.0
H1025 H 0.50182 0.55785 0.03304 0.0
H1026 H 0.55696 0.59762 0.11807 0.0
H1027 H 0.51232 0.49951 0.98465 0.0
H1028 H 0.58615 0.59472 0.10587 0.0
H1029 H 0.60279 0.58533 0.0791 0.0
H1030 H 0.52455 0.59322 0.11226 0.0
H1031 H 0.59557 0.50789 0.007 0.0
H1032 H 0.5164 0.47512 0.92813 0.0
H1033 H 0.4982 0.48459 0.95344 0.0
H1034 H 0.57821 0.47513 0.92652 0.0
H1035 H 0.48328 0.56855 0.05763 0.0
H1036 H 0.49703 0.58251 0.08981 0.0
H1037 H 0.5463 0.47183 0.91819 0.0
H1038 H 0.61549 0.49677 0.98421 0.0
N1039 N 0.5388 0.49924 0.97778 0.0
C1040 C 0.52281 0.48182 0.94196 0.0
C1041 C 0.5125 0.48707 0.9562 0.0
C1042 C 0.5412 0.48476 0.94588 0.0
C1043 C 0.5489 0.49354 0.96417 0.0
C1044 C 0.5207 0.49555 0.97409 0.0
N1045 N 0.57348 0.50284 0.98677 0.0
C1046 C 0.56681 0.4954 0.96882 0.0
C1047 C 0.60185 0.49643 0.97965 0.0
C1048 C 0.59538 0.48943 0.96097 0.0
C1049 C 0.59057 0.50278 0.9925 0.0
C1050 C 0.57758 0.48854 0.95539 0.0
H1051 H 0.60408 0.4843 0.95108 0.0
O1052 O 0.56408 0.49455 0.02364 0.0
O1053 O 0.55353 0.53168 0.03579 0.0
O1054 O 0.57194 0.56086 0.0189 0.0
O1055 O 0.57555 0.53362 0.99908 0.0
O1056 O 0.57661 0.52278 0.0308 0.0
O1057 O 0.53846 0.48387 0.00746 0.0
O1058 O 0.53081 0.57428 0.01598 0.0
O1059 O 0.54462 0.5374 0.00076 0.0
O1060 O 0.5251 0.5091 0.01529 0.0
O1061 O 0.52418 0.5344 0.03889 0.0
O1062 O 0.52141 0.54609 0.00556 0.0
O1063 O 0.55851 0.58474 0.0275 0.0
C1064 C 0.56879 0.53175 0.04352 0.0
C1065 C 0.57014 0.48043 0.93703 0.0
C1066 C 0.55197 0.47855 0.93228 0.0
C1067 C 0.55042 0.48047 0.01867 0.0
C1068 C 0.55433 0.46179 0.01534 0.0
C1069 C 0.56623 0.4567 0.00252 0.0
C1070 C 0.54775 0.44984 0.02725 0.0
C1071 C 0.55338 0.43308 0.02688 0.0
C1072 C 0.57176 0.43982 0.00202 0.0
C1073 C 0.56551 0.42809 0.01431 0.0
C1074 C 0.581 0.55174 0.00694 0.0
C1075 C 0.52947 0.53749 0.99284 0.0
C1076 C 0.54479 0.58821 0.01885 0.0
C1077 C 0.54159 0.60714 0.02317 0.0
C1078 C 0.53024 0.61232 0.03657 0.0
C1079 C 0.54825 0.61935 0.01154 0.0
C1080 C 0.54306 0.63642 0.01261 0.0
C1081 C 0.5253 0.62962 0.03793 0.0
C1082 C 0.53149 0.64156 0.0258 0.0
C1083 C 0.51724 0.51722 0.02916 0.0
H1084 H 0.5715 0.46589 0.99329 0.0
H1085 H 0.53874 0.45391 0.03736 0.0
H1086 H 0.58108 0.43595 0.99228 0.0
H1087 H 0.56998 0.41511 0.01393 0.0
H1088 H 0.52485 0.60286 0.04553 0.0
H1089 H 0.55671 0.6151 0.00089 0.0
H1090 H 0.51636 0.63357 0.04808 0.0
H1091 H 0.52726 0.65473 0.02666 0.0
Gd1092 Gd 0.77834 0.27292 0.27151 0.0
Gd1093 Gd 0.81813 0.30214 0.26326 0.0
C1094 C 0.82634 0.3624 0.25297 0.0
C1095 C 0.83644 0.35889 0.22192 0.0
C1096 C 0.8288 0.33156 0.23643 0.0
C1097 C 0.82455 0.34282 0.25206 0.0
C1098 C 0.8351 0.33954 0.2213 0.0
C1099 C 0.83208 0.3703 0.23773 0.0
C1100 C 0.82264 0.37355 0.26929 0.0
C1101 C 0.81752 0.3652 0.28428 0.0
N1102 N 0.8192 0.33479 0.26664 0.0
C1103 C 0.81597 0.34579 0.28275 0.0
H1104 H 0.81226 0.33985 0.2946 0.0
C1105 C 0.83401 0.30196 0.22232 0.0
N1106 N 0.82781 0.31302 0.23646 0.0
C1107 C 0.84006 0.30914 0.20687 0.0
C1108 C 0.84045 0.32797 0.20627 0.0
H1109 H 0.83415 0.28753 0.22286 0.0
H1110 H 0.83348 0.38527 0.23816 0.0
H1111 H 0.78479 0.23562 0.24 0.0
H1112 H 0.82391 0.38862 0.27054 0.0
H1113 H 0.81484 0.37371 0.29709 0.0
H1114 H 0.84119 0.36524 0.2104 0.0
H1115 H 0.76308 0.28749 0.31236 0.0
H1116 H 0.77768 0.18771 0.26561 0.0
H1117 H 0.78543 0.2025 0.23873 0.0
H1118 H 0.75912 0.21031 0.32536 0.0
H1119 H 0.8446 0.3002 0.19554 0.0
H1120 H 0.84535 0.33356 0.19439 0.0
H1121 H 0.76776 0.19074 0.29786 0.0
H1122 H 0.75328 0.27462 0.33983 0.0
N1123 N 0.77864 0.24067 0.26834 0.0
C1124 C 0.77782 0.20253 0.26652 0.0
C1125 C 0.78195 0.21074 0.25121 0.0
C1126 C 0.77361 0.21347 0.2827 0.0
C1127 C 0.77431 0.2328 0.28328 0.0
C1128 C 0.78183 0.22975 0.25217 0.0
N1129 N 0.76972 0.26219 0.29862 0.0
C1130 C 0.76965 0.24387 0.29886 0.0
C1131 C 0.75793 0.26585 0.32844 0.0
C1132 C 0.75821 0.24718 0.32913 0.0
C1133 C 0.7635 0.27309 0.31288 0.0
C1134 C 0.76391 0.23586 0.31414 0.0
H1135 H 0.75367 0.24153 0.3411 0.0
O1136 O 0.75184 0.27779 0.27271 0.0
O1137 O 0.78854 0.3013 0.26331 0.0
O1138 O 0.81124 0.30776 0.29299 0.0
O1139 O 0.79583 0.27917 0.298 0.0
O1140 O 0.77268 0.30125 0.28462 0.0
O1141 O 0.75694 0.25524 0.2514 0.0
O1142 O 0.84408 0.29584 0.26333 0.0
O1143 O 0.8076 0.2739 0.27108 0.0
O1144 O 0.78397 0.26756 0.24143 0.0
O1145 O 0.8014 0.29536 0.23626 0.0
O1146 O 0.82386 0.27359 0.25005 0.0
O1147 O 0.83952 0.31944 0.28368 0.0
C1148 C 0.78013 0.31189 0.27379 0.0
C1149 C 0.7635 0.21671 0.31375 0.0
C1150 C 0.7684 0.20556 0.29809 0.0
C1151 C 0.74515 0.26385 0.25882 0.0
C1152 C 0.72792 0.25234 0.26112 0.0
C1153 C 0.72569 0.24022 0.27382 0.0
C1154 C 0.71315 0.25494 0.2512 0.0
C1155 C 0.69602 0.24557 0.25382 0.0
C1156 C 0.70859 0.23088 0.2766 0.0
C1157 C 0.69373 0.23358 0.26669 0.0
C1158 C 0.80561 0.29622 0.30422 0.0
C1159 C 0.81554 0.26302 0.26046 0.0
C1160 C 0.85094 0.30987 0.27703 0.0
C1161 C 0.86873 0.32024 0.27501 0.0
C1162 C 0.87252 0.32986 0.2604 0.0
C1163 C 0.8825 0.31812 0.28677 0.0
C1164 C 0.90017 0.32508 0.28384 0.0
C1165 C 0.8902 0.33713 0.25756 0.0
C1166 C 0.90405 0.3346 0.26913 0.0
C1167 C 0.79021 0.27899 0.23036 0.0
H1168 H 0.73701 0.23816 0.28169 0.0
H1169 H 0.715 0.26471 0.24173 0.0
H1170 H 0.70684 0.2216 0.28648 0.0
H1171 H 0.68055 0.2262 0.26891 0.0
H1172 H 0.86197 0.33134 0.251 0.0
H1173 H 0.87947 0.31017 0.29769 0.0
H1174 H 0.89317 0.3444 0.24619 0.0
H1175 H 0.91771 0.34004 0.26664 0.0
Gd1176 Gd 0.03703 0.53536 0.49374 0.0
Gd1177 Gd 0.05093 0.5335 0.5444 0.0
C1178 C 0.1025 0.56535 0.58059 0.0
C1179 C 0.11979 0.54133 0.57842 0.0
C1180 C 0.0896 0.53371 0.56334 0.0
C1181 C 0.08833 0.55214 0.56923 0.0
C1182 C 0.10502 0.52786 0.56867 0.0
C1183 C 0.11855 0.56011 0.58433 0.0
C1184 C 0.09967 0.58296 0.58893 0.0
C1185 C 0.08271 0.58651 0.58685 0.0
N1186 N 0.07243 0.55645 0.56584 0.0
C1187 C 0.06903 0.57276 0.57572 0.0
H1188 H 0.0558 0.57535 0.57453 0.0
C1189 C 0.07409 0.50217 0.55251 0.0
N1190 N 0.07504 0.52111 0.55405 0.0
C1191 C 0.08898 0.49561 0.55742 0.0
C1192 C 0.10474 0.50855 0.56501 0.0
H1193 H 0.06192 0.49188 0.54707 0.0
H1194 H 0.12971 0.57019 0.59268 0.0
H1195 H 0.01562 0.48876 0.47418 0.0
H1196 H 0.11017 0.59344 0.59785 0.0
H1197 H 0.08013 0.59975 0.59395 0.0
H1198 H 0.13188 0.53718 0.58226 0.0
H1199 H 0.03605 0.58093 0.49187 0.0
H1200 H 0.96389 0.4879 0.45197 0.0
H1201 H 0.98724 0.47136 0.45843 0.0
H1202 H 0.96109 0.55254 0.46222 0.0
H1203 H 0.08823 0.48057 0.55544 0.0
H1204 H 0.11625 0.50346 0.56895 0.0
H1205 H 0.95405 0.51792 0.45417 0.0
H1206 H 0.01437 0.59909 0.48514 0.0
N1207 N 0.00924 0.51605 0.47866 0.0
C1208 C 0.97644 0.49589 0.45953 0.0
C1209 C 0.98959 0.48654 0.46309 0.0
C1210 C 0.97977 0.51548 0.46531 0.0
C1211 C 0.99652 0.52539 0.47486 0.0
C1212 C 0.00593 0.4968 0.47241 0.0
N1213 N 0.01704 0.55437 0.48734 0.0
C1214 C 0.00046 0.545 0.47948 0.0
C1215 C 0.01013 0.58394 0.48386 0.0
C1216 C 0.99267 0.57468 0.47745 0.0
C1217 C 0.02231 0.5735 0.48806 0.0
C1218 C 0.98778 0.55498 0.47455 0.0
H1219 H 0.98333 0.58276 0.47382 0.0
O1220 O 0.05401 0.55466 0.48045 0.0
O1221 O 0.05735 0.53932 0.51699 0.0
O1222 O 0.05765 0.56352 0.53992 0.0
O1223 O 0.03787 0.56221 0.51432 0.0
O1224 O 0.06584 0.53364 0.49107 0.0
O1225 O 0.04201 0.52555 0.4651 0.0
O1226 O 0.0358 0.50767 0.55081 0.0
O1227 O 0.03083 0.52947 0.52097 0.0
O1228 O 0.03453 0.50599 0.49895 0.0
O1229 O 0.05568 0.50879 0.52354 0.0
O1230 O 0.02387 0.54085 0.54664 0.0
O1231 O 0.03731 0.53497 0.56941 0.0
C1232 C 0.0707 0.53746 0.50866 0.0
C1233 C 0.97093 0.54507 0.46596 0.0
C1234 C 0.96695 0.52537 0.46132 0.0
C1235 C 0.05221 0.54216 0.46489 0.0
C1236 C 0.052 0.54958 0.44801 0.0
C1237 C 0.04062 0.56108 0.44403 0.0
C1238 C 0.06589 0.54739 0.43725 0.0
C1239 C 0.06901 0.55683 0.42263 0.0
C1240 C 0.04366 0.57064 0.42931 0.0
C1241 C 0.05798 0.5687 0.41868 0.0
C1242 C 0.04745 0.57121 0.53012 0.0
C1243 C 0.01852 0.53475 0.52915 0.0
C1244 C 0.03168 0.51658 0.56655 0.0
C1245 C 0.03239 0.508 0.5829 0.0
C1246 C 0.0387 0.49152 0.58282 0.0
C1247 C 0.0247 0.51565 0.59844 0.0
C1248 C 0.02236 0.50661 0.61354 0.0
C1249 C 0.03733 0.483 0.59832 0.0
C1250 C 0.02906 0.49041 0.61361 0.0
C1251 C 0.0471 0.49989 0.50714 0.0
H1252 H 0.02979 0.56298 0.45241 0.0
H1253 H 0.07488 0.53883 0.44078 0.0
H1254 H 0.03507 0.57972 0.42629 0.0
H1255 H 0.06028 0.57616 0.40733 0.0
H1256 H 0.04426 0.48497 0.57076 0.0
H1257 H 0.01973 0.52832 0.59839 0.0
H1258 H 0.04212 0.47026 0.5982 0.0
H1259 H 0.02728 0.48306 0.62508 0.0
Gd1260 Gd 0.81962 0.77916 0.26983 0.0
Gd1261 Gd 0.77599 0.79212 0.26915 0.0
C1262 C 0.74221 0.77764 0.21281 0.0
C1263 C 0.73959 0.8086 0.20821 0.0
C1264 C 0.75655 0.8055 0.23592 0.0
C1265 C 0.75304 0.78614 0.22965 0.0
C1266 C 0.74948 0.8169 0.22547 0.0
C1267 C 0.7359 0.78899 0.20193 0.0
C1268 C 0.73737 0.75795 0.20776 0.0
C1269 C 0.74346 0.74715 0.21914 0.0
N1270 N 0.75912 0.7755 0.24059 0.0
C1271 C 0.75424 0.75614 0.23557 0.0
H1272 H 0.75883 0.74718 0.24367 0.0
C1273 C 0.76675 0.83157 0.26095 0.0
N1274 N 0.76565 0.81303 0.25291 0.0
C1275 C 0.76026 0.84348 0.25101 0.0
C1276 C 0.75184 0.83618 0.23305 0.0
H1277 H 0.77294 0.8372 0.27503 0.0
H1278 H 0.72773 0.78269 0.18889 0.0
H1279 H 0.84255 0.8237 0.29185 0.0
H1280 H 0.72845 0.75093 0.19549 0.0
H1281 H 0.73979 0.73186 0.21535 0.0
H1282 H 0.73419 0.81715 0.19994 0.0
H1283 H 0.822 0.73394 0.26432 0.0
H1284 H 0.87108 0.81997 0.34137 0.0
H1285 H 0.86317 0.83874 0.31908 0.0
H1286 H 0.86059 0.75371 0.33947 0.0
H1287 H 0.76161 0.85824 0.25729 0.0
H1288 H 0.7466 0.84538 0.22546 0.0
H1289 H 0.86922 0.78829 0.34937 0.0
H1290 H 0.83238 0.71263 0.28242 0.0
N1291 N 0.83839 0.79573 0.29736 0.0
C1292 C 0.862 0.81305 0.3291 0.0
C1293 C 0.85766 0.82364 0.3165 0.0
C1294 C 0.85521 0.79351 0.32523 0.0
C1295 C 0.84364 0.78511 0.30884 0.0
C1296 C 0.84574 0.8148 0.30079 0.0
N1297 N 0.82985 0.75826 0.28623 0.0
C1298 C 0.83903 0.76571 0.30317 0.0
C1299 C 0.83419 0.7275 0.28852 0.0
C1300 C 0.84251 0.73474 0.30653 0.0
C1301 C 0.8283 0.73959 0.27836 0.0
C1302 C 0.84552 0.75413 0.31386 0.0
H1303 H 0.84728 0.7254 0.3143 0.0
O1304 O 0.83223 0.76459 0.24748 0.0
O1305 O 0.79704 0.78328 0.25205 0.0
O1306 O 0.7723 0.76125 0.27271 0.0
O1307 O 0.79991 0.7539 0.2773 0.0
O1308 O 0.80514 0.75794 0.24518 0.0
O1309 O 0.84442 0.79339 0.26033 0.0
O1310 O 0.7628 0.80558 0.29171 0.0
O1311 O 0.79841 0.78755 0.28672 0.0
O1312 O 0.82288 0.81022 0.26661 0.0
O1313 O 0.79538 0.81778 0.26227 0.0
O1314 O 0.79066 0.8125 0.29464 0.0
O1315 O 0.74996 0.77792 0.2763 0.0
C1316 C 0.7949 0.76806 0.23997 0.0
C1317 C 0.85569 0.76238 0.33097 0.0
C1318 C 0.86059 0.78206 0.33662 0.0
C1319 C 0.84571 0.77869 0.248 0.0
C1320 C 0.86346 0.77408 0.24674 0.0
C1321 C 0.8682 0.76152 0.25716 0.0
C1322 C 0.87544 0.7814 0.23443 0.0
C1323 C 0.892 0.77617 0.23274 0.0
C1324 C 0.88423 0.75595 0.25519 0.0
C1325 C 0.89598 0.76311 0.24309 0.0
C1326 C 0.78214 0.7492 0.27588 0.0
C1327 C 0.80071 0.80207 0.29963 0.0
C1328 C 0.74874 0.79181 0.28966 0.0
C1329 C 0.73127 0.79724 0.29113 0.0
C1330 C 0.72758 0.81093 0.28164 0.0
C1331 C 0.71865 0.78978 0.30289 0.0
C1332 C 0.70263 0.79623 0.30509 0.0
C1333 C 0.71226 0.81776 0.2842 0.0
C1334 C 0.70005 0.8107 0.2959 0.0
C1335 C 0.81311 0.82239 0.26355 0.0
H1336 H 0.85941 0.75578 0.26668 0.0
H1337 H 0.87195 0.7912 0.22639 0.0
H1338 H 0.88756 0.74597 0.26306 0.0
H1339 H 0.90823 0.75828 0.24176 0.0
H1340 H 0.73668 0.81665 0.27244 0.0
H1341 H 0.72125 0.779 0.31012 0.0
H1342 H 0.70987 0.82871 0.27712 0.0
H1343 H 0.6885 0.81673 0.29776 0.0
Gd1344 Gd 0.782 0.29587 0.79575 0.0
Gd1345 Gd 0.8058 0.28238 0.75465 0.0
C1346 C 0.7904 0.22509 0.71429 0.0
C1347 C 0.81873 0.21593 0.71242 0.0
C1348 C 0.81643 0.24474 0.73363 0.0
C1349 C 0.79859 0.24136 0.72779 0.0
C1350 C 0.82677 0.23213 0.72593 0.0
C1351 C 0.80057 0.21243 0.7066 0.0
C1352 C 0.77225 0.22204 0.7089 0.0
C1353 C 0.76257 0.23462 0.71749 0.0
N1354 N 0.78918 0.25384 0.73561 0.0
C1355 C 0.77125 0.25043 0.73091 0.0
H1356 H 0.76338 0.25961 0.73759 0.0
C1357 C 0.84164 0.26522 0.75168 0.0
N1358 N 0.82372 0.26055 0.74663 0.0
C1359 C 0.85244 0.25309 0.74462 0.0
C1360 C 0.84496 0.2364 0.73176 0.0
H1361 H 0.84763 0.27851 0.76102 0.0
H1362 H 0.79451 0.19989 0.69617 0.0
H1363 H 0.82294 0.31349 0.82308 0.0
H1364 H 0.76562 0.20997 0.69825 0.0
H1365 H 0.74843 0.23225 0.71373 0.0
H1366 H 0.82646 0.2061 0.70631 0.0
H1367 H 0.74276 0.30631 0.78482 0.0
H1368 H 0.82448 0.36873 0.85201 0.0
H1369 H 0.83723 0.34061 0.84639 0.0
H1370 H 0.77206 0.3831 0.82754 0.0
H1371 H 0.86659 0.25679 0.74885 0.0
H1372 H 0.85338 0.22712 0.72613 0.0
H1373 H 0.80071 0.38457 0.84432 0.0
H1374 H 0.72903 0.33326 0.78862 0.0
N1375 N 0.80004 0.3235 0.81621 0.0
C1376 C 0.81755 0.35623 0.84198 0.0
C1377 C 0.82465 0.34035 0.83902 0.0
C1378 C 0.80174 0.3559 0.83177 0.0
C1379 C 0.79313 0.33919 0.81882 0.0
C1380 C 0.81589 0.32429 0.82597 0.0
N1381 N 0.76849 0.32209 0.79751 0.0
C1382 C 0.77712 0.33854 0.80903 0.0
C1383 C 0.74276 0.33519 0.79393 0.0
C1384 C 0.75205 0.3526 0.80421 0.0
C1385 C 0.75095 0.31996 0.79129 0.0
C1386 C 0.76918 0.35431 0.81243 0.0
H1387 H 0.7455 0.3643 0.80664 0.0
O1388 O 0.7548 0.28146 0.79807 0.0
O1389 O 0.78394 0.27386 0.77165 0.0
O1390 O 0.78192 0.29167 0.74345 0.0
O1391 O 0.7653 0.29584 0.76897 0.0
O1392 O 0.78122 0.26586 0.79751 0.0
O1393 O 0.77194 0.29809 0.82269 0.0
O1394 O 0.82805 0.30082 0.74598 0.0
O1395 O 0.79868 0.30509 0.77493 0.0
O1396 O 0.80742 0.28669 0.80563 0.0
O1397 O 0.81941 0.27336 0.77856 0.0
O1398 O 0.82555 0.30687 0.77263 0.0
O1399 O 0.80423 0.28846 0.72684 0.0
C1400 C 0.78279 0.26034 0.77999 0.0
C1401 C 0.77799 0.37095 0.82483 0.0
C1402 C 0.79423 0.37175 0.83446 0.0
C1403 C 0.75633 0.28733 0.81611 0.0
C1404 C 0.7485 0.27382 0.82714 0.0
C1405 C 0.73005 0.26999 0.82834 0.0
C1406 C 0.75939 0.2663 0.83799 0.0
C1407 C 0.75193 0.25576 0.85065 0.0
C1408 C 0.72256 0.25901 0.84072 0.0
C1409 C 0.7335 0.25207 0.85205 0.0
C1410 C 0.76749 0.29526 0.75103 0.0
C1411 C 0.81383 0.31524 0.78008 0.0
C1412 C 0.82043 0.29879 0.72932 0.0
C1413 C 0.83157 0.29718 0.71383 0.0
C1414 C 0.84916 0.29509 0.71607 0.0
C1415 C 0.82542 0.30175 0.69755 0.0
C1416 C 0.83717 0.30688 0.68451 0.0
C1417 C 0.86057 0.29839 0.70225 0.0
C1418 C 0.85479 0.30474 0.68675 0.0
C1419 C 0.81945 0.27812 0.79704 0.0
H1420 H 0.72154 0.2759 0.82006 0.0
H1421 H 0.77369 0.26929 0.83722 0.0
H1422 H 0.70836 0.25623 0.84183 0.0
H1423 H 0.72766 0.24392 0.86195 0.0
H1424 H 0.8543 0.29175 0.72871 0.0
H1425 H 0.81169 0.30288 0.6959 0.0
H1426 H 0.87421 0.2971 0.7041 0.0
H1427 H 0.86435 0.30879 0.67711 0.0
Gd1428 Gd 0.77871 0.75407 0.7552 0.0
Gd1429 Gd 0.80536 0.80183 0.77708 0.0
C1430 C 0.86332 0.82592 0.76725 0.0
C1431 C 0.87791 0.83455 0.79875 0.0
C1432 C 0.84648 0.81878 0.79299 0.0
C1433 C 0.84716 0.81838 0.7742 0.0
C1434 C 0.86178 0.82716 0.80557 0.0
C1435 C 0.87869 0.83387 0.77961 0.0
C1436 C 0.86349 0.82557 0.74814 0.0
C1437 C 0.84779 0.81806 0.73653 0.0
N1438 N 0.83194 0.81101 0.76277 0.0
C1439 C 0.83213 0.81097 0.7441 0.0
H1440 H 0.82043 0.80511 0.73469 0.0
C1441 C 0.82896 0.81389 0.81783 0.0
N1442 N 0.83064 0.81178 0.79908 0.0
C1443 C 0.84375 0.82188 0.83084 0.0
C1444 C 0.86029 0.82843 0.82467 0.0
H1445 H 0.81607 0.80941 0.82275 0.0
H1446 H 0.89116 0.83979 0.77453 0.0
H1447 H 0.76389 0.75625 0.79969 0.0
H1448 H 0.8756 0.83117 0.74226 0.0
H1449 H 0.84771 0.8177 0.72169 0.0
H1450 H 0.88978 0.84106 0.80819 0.0
H1451 H 0.76459 0.7498 0.70932 0.0
H1452 H 0.71231 0.72002 0.79267 0.0
H1453 H 0.73943 0.73797 0.81276 0.0
H1454 H 0.69536 0.70968 0.72737 0.0
H1455 H 0.84232 0.82325 0.84562 0.0
H1456 H 0.87169 0.83487 0.83478 0.0
H1457 H 0.69595 0.70989 0.76092 0.0
H1458 H 0.7379 0.73483 0.68833 0.0
N1459 N 0.7532 0.7454 0.7713 0.0
C1460 C 0.72353 0.72731 0.78654 0.0
C1461 C 0.73869 0.73762 0.79796 0.0
C1462 C 0.72291 0.72686 0.7674 0.0
C1463 C 0.73812 0.73614 0.76004 0.0
C1464 C 0.75308 0.74728 0.79022 0.0
N1465 N 0.75239 0.74548 0.73436 0.0
C1466 C 0.73764 0.73638 0.74113 0.0
C1467 C 0.73749 0.73547 0.70318 0.0
C1468 C 0.72219 0.72662 0.71005 0.0
C1469 C 0.75256 0.74448 0.71542 0.0
C1470 C 0.72215 0.72681 0.72914 0.0
H1471 H 0.71062 0.71928 0.70044 0.0
O1472 O 0.78546 0.73797 0.72951 0.0
O1473 O 0.80367 0.77557 0.75685 0.0
O1474 O 0.79422 0.80367 0.74861 0.0
O1475 O 0.77677 0.77363 0.73532 0.0
O1476 O 0.8061 0.74845 0.75826 0.0
O1477 O 0.77312 0.72364 0.75094 0.0
O1478 O 0.79854 0.82295 0.7981 0.0
O1479 O 0.77813 0.78325 0.76884 0.0
O1480 O 0.78895 0.75364 0.78464 0.0
O1481 O 0.81168 0.7813 0.79447 0.0
O1482 O 0.78472 0.79561 0.79663 0.0
O1483 O 0.80291 0.82873 0.77048 0.0
C1484 C 0.81447 0.76546 0.75823 0.0
C1485 C 0.70724 0.71724 0.73642 0.0
C1486 C 0.70761 0.71728 0.75549 0.0
C1487 C 0.7784 0.72195 0.73412 0.0
C1488 C 0.7839 0.70474 0.726 0.0
C1489 C 0.77578 0.69465 0.70846 0.0
C1490 C 0.7958 0.69746 0.7359 0.0
C1491 C 0.79942 0.67984 0.72837 0.0
C1492 C 0.7793 0.67721 0.70092 0.0
C1493 C 0.79096 0.66975 0.71082 0.0
C1494 C 0.78366 0.79147 0.73494 0.0
C1495 C 0.77177 0.78703 0.78413 0.0
C1496 C 0.79891 0.83488 0.78721 0.0
C1497 C 0.80482 0.85487 0.79558 0.0
C1498 C 0.81645 0.86197 0.81193 0.0
C1499 C 0.79577 0.86662 0.78841 0.0
C1500 C 0.79718 0.8851 0.79788 0.0
C1501 C 0.81869 0.88092 0.82097 0.0
C1502 C 0.80893 0.89251 0.81405 0.0
C1503 C 0.80215 0.76477 0.79673 0.0
H1504 H 0.76638 0.70009 0.70079 0.0
H1505 H 0.80207 0.70547 0.74941 0.0
H1506 H 0.77277 0.66932 0.6875 0.0
H1507 H 0.79305 0.65591 0.70488 0.0
H1508 H 0.82331 0.85285 0.81793 0.0
H1509 H 0.78657 0.86092 0.77593 0.0
H1510 H 0.82749 0.88642 0.83368 0.0
H1511 H 0.81007 0.90688 0.82155 0.0
Gd1512 Gd 0.56935 0.54465 0.53246 0.0
Gd1513 Gd 0.5262 0.52729 0.50849 0.0
C1514 C 0.49408 0.46858 0.51397 0.0
C1515 C 0.4904 0.451 0.48207 0.0
C1516 C 0.50742 0.48373 0.4899 0.0
C1517 C 0.50464 0.48447 0.50847 0.0
C1518 C 0.49994 0.46707 0.47644 0.0
C1519 C 0.48742 0.45178 0.50079 0.0
C1520 C 0.48976 0.4702 0.53237 0.0
C1521 C 0.49578 0.48734 0.54482 0.0
N1522 N 0.51105 0.50104 0.5209 0.0
C1523 C 0.50655 0.50249 0.53895 0.0
H1524 H 0.51119 0.51495 0.54947 0.0
C1525 C 0.51598 0.50029 0.46609 0.0
N1526 N 0.51598 0.49972 0.48471 0.0
C1527 C 0.50923 0.48409 0.45236 0.0
C1528 C 0.50141 0.46729 0.45756 0.0
H1529 H 0.52092 0.51344 0.46171 0.0
H1530 H 0.47943 0.43949 0.50485 0.0
H1531 H 0.57818 0.55883 0.49051 0.0
H1532 H 0.48154 0.45842 0.53702 0.0
H1533 H 0.49247 0.48881 0.55913 0.0
H1534 H 0.48465 0.43813 0.47193 0.0
H1535 H 0.57515 0.55849 0.57918 0.0
H1536 H 0.61439 0.6122 0.50242 0.0
H1537 H 0.59771 0.584 0.47987 0.0
H1538 H 0.6177 0.63119 0.56865 0.0
H1539 H 0.50965 0.48471 0.43775 0.0
H1540 H 0.49579 0.45483 0.44687 0.0
H1541 H 0.62121 0.62987 0.53535 0.0
H1542 H 0.58869 0.58661 0.60314 0.0
N1543 N 0.58433 0.57073 0.51975 0.0
C1544 C 0.6061 0.6007 0.50741 0.0
C1545 C 0.59679 0.58479 0.49468 0.0
C1546 C 0.60421 0.60181 0.52641 0.0
C1547 C 0.59323 0.58639 0.53225 0.0
C1548 C 0.58585 0.57007 0.50103 0.0
N1549 N 0.58139 0.57182 0.55619 0.0
C1550 C 0.59131 0.58714 0.55096 0.0
C1551 C 0.58927 0.58713 0.58852 0.0
C1552 C 0.59874 0.60328 0.58327 0.0
C1553 C 0.5811 0.57136 0.5748 0.0
C1554 C 0.60023 0.60329 0.56436 0.0
H1555 H 0.60537 0.61538 0.59393 0.0
O1556 O 0.58603 0.53655 0.55264 0.0
O1557 O 0.54926 0.51792 0.5199 0.0
O1558 O 0.52277 0.54111 0.53897 0.0
O1559 O 0.55082 0.55107 0.55514 0.0
O1560 O 0.5579 0.52166 0.54753 0.0
O1561 O 0.59326 0.53571 0.5243 0.0
O1562 O 0.50948 0.53502 0.48814 0.0
O1563 O 0.546 0.55416 0.52146 0.0
O1564 O 0.57328 0.53145 0.50196 0.0
O1565 O 0.54513 0.52156 0.486 0.0
O1566 O 0.53732 0.55077 0.49393 0.0
O1567 O 0.50125 0.53427 0.51596 0.0
C1568 C 0.5489 0.50951 0.53354 0.0
C1569 C 0.6108 0.61871 0.55856 0.0
C1570 C 0.61286 0.61793 0.53963 0.0
C1571 C 0.59789 0.53396 0.54109 0.0
C1572 C 0.61657 0.54155 0.54802 0.0
C1573 C 0.62219 0.55536 0.56443 0.0
C1574 C 0.62896 0.53343 0.53837 0.0
C1575 C 0.64687 0.5383 0.54524 0.0
C1576 C 0.64021 0.56084 0.57102 0.0
C1577 C 0.65255 0.55226 0.56155 0.0
C1578 C 0.53326 0.54823 0.55487 0.0
C1579 C 0.54601 0.56295 0.5081 0.0
C1580 C 0.49717 0.53677 0.49932 0.0
C1581 C 0.47872 0.52974 0.49154 0.0
C1582 C 0.47317 0.5144 0.47642 0.0
C1583 C 0.46665 0.54001 0.49881 0.0
C1584 C 0.44911 0.53563 0.49081 0.0
C1585 C 0.45551 0.50964 0.46859 0.0
C1586 C 0.44349 0.52026 0.47568 0.0
C1587 C 0.56267 0.52421 0.48617 0.0
H1588 H 0.61279 0.56165 0.57232 0.0
H1589 H 0.62451 0.52272 0.52573 0.0
H1590 H 0.64453 0.57136 0.58375 0.0
H1591 H 0.66633 0.55603 0.56729 0.0
H1592 H 0.4824 0.50634 0.47053 0.0
H1593 H 0.47108 0.55173 0.51063 0.0
H1594 H 0.45122 0.49793 0.45682 0.0
H1595 H 0.42998 0.51672 0.46915 0.0
Gd1596 Gd 0.02429 0.5325 0.02764 0.0
Gd1597 Gd 0.06917 0.53605 0.01094 0.0
C1598 C 0.10991 0.59194 0.01691 0.0
C1599 C 0.11344 0.59404 0.98457 0.0
C1600 C 0.09288 0.5672 0.99211 0.0
C1601 C 0.09703 0.57485 0.01094 0.0
C1602 C 0.10127 0.57654 0.97871 0.0
C1603 C 0.11781 0.60169 0.00365 0.0
C1604 C 0.11501 0.59833 0.03601 0.0
C1605 C 0.10719 0.58794 0.04866 0.0
N1606 N 0.08937 0.56497 0.02341 0.0
C1607 C 0.09446 0.57113 0.04208 0.0
H1608 H 0.08897 0.5631 0.05205 0.0
C1609 C 0.07862 0.54085 0.96865 0.0
N1610 N 0.0814 0.55007 0.98691 0.0
C1611 C 0.08644 0.54965 0.95482 0.0
C1612 C 0.09765 0.56767 0.95985 0.0
H1613 H 0.07011 0.52683 0.96478 0.0
H1614 H 0.12761 0.61493 0.00801 0.0
H1615 H 0.00307 0.50661 0.98667 0.0
H1616 H 0.12545 0.61081 0.04107 0.0
H1617 H 0.1112 0.59269 0.06345 0.0
H1618 H 0.11994 0.60149 0.97449 0.0
H1619 H 0.02407 0.5407 0.07405 0.0
H1620 H 0.97158 0.45514 0.99689 0.0
H1621 H 0.98247 0.47575 0.97499 0.0
H1622 H 0.97816 0.46372 0.06353 0.0
H1623 H 0.08392 0.54247 0.94033 0.0
H1624 H 0.10383 0.57438 0.94913 0.0
H1625 H 0.97028 0.45065 0.02997 0.0
H1626 H 0.012 0.52363 0.09833 0.0
N1627 N 0.00414 0.50359 0.01503 0.0
C1628 C 0.98062 0.46874 0.00215 0.0
C1629 C 0.98669 0.48035 0.98975 0.0
C1630 C 0.98583 0.47508 0.02125 0.0
C1631 C 0.99763 0.4929 0.02736 0.0
C1632 C 0.99843 0.49788 0.99647 0.0
N1633 N 0.01283 0.51776 0.05159 0.0
C1634 C 0.00203 0.50024 0.04623 0.0
C1635 C 0.00917 0.51686 0.08373 0.0
C1636 C 0.99874 0.49845 0.07849 0.0
C1637 C 0.01595 0.52649 0.07 0.0
C1638 C 0.99484 0.49 0.05954 0.0
H1639 H 0.99346 0.49104 0.08915 0.0
O1640 O 0.01327 0.55557 0.04096 0.0
O1641 O 0.04978 0.5516 0.02416 0.0
O1642 O 0.06757 0.53441 0.04123 0.0
O1643 O 0.03904 0.51796 0.04467 0.0
O1644 O 0.03916 0.55833 0.04891 0.0
O1645 O 0.00012 0.53761 0.01495 0.0
O1646 O 0.07981 0.51225 0.99857 0.0
O1647 O 0.04369 0.51734 0.01447 0.0
O1648 O 0.02566 0.53523 0.99766 0.0
O1649 O 0.05456 0.55005 0.99293 0.0
O1650 O 0.05391 0.51046 0.98961 0.0
O1651 O 0.09312 0.53084 0.02407 0.0
C1652 C 0.0518 0.56405 0.03897 0.0
C1653 C 0.98369 0.4719 0.05352 0.0
C1654 C 0.97921 0.46445 0.03441 0.0
C1655 C -0.00028 0.55175 0.02847 0.0
C1656 C 0.98254 0.55277 0.03576 0.0
C1657 C 0.97659 0.54342 0.05004 0.0
C1658 C 0.97283 0.56485 0.02962 0.0
C1659 C 0.95757 0.5681 0.03811 0.0
C1660 C 0.96134 0.5465 0.05841 0.0
C1661 C 0.95195 0.55891 0.05262 0.0
C1662 C 0.05592 0.52472 0.05048 0.0
C1663 C 0.04126 0.50501 0.99962 0.0
C1664 C 0.09343 0.51632 0.01098 0.0
C1665 C 0.11059 0.51513 0.00358 0.0
C1666 C 0.11662 0.52477 0.98952 0.0
C1667 C 0.12036 0.50295 0.0095 0.0
C1668 C 0.13577 0.50011 0.00106 0.0
C1669 C 0.13194 0.52196 0.98115 0.0
C1670 C 0.14142 0.50958 0.98679 0.0
C1671 C 0.03714 0.54611 0.98925 0.0
H1672 H 0.98391 0.53409 0.05498 0.0
H1673 H 0.9775 0.57224 0.01871 0.0
H1674 H 0.9569 0.53941 0.06955 0.0
H1675 H 0.94019 0.56121 0.05934 0.0
H1676 H 0.10936 0.5342 0.98476 0.0
H1677 H 0.11577 0.49534 0.02028 0.0
H1678 H 0.13637 0.52927 0.97015 0.0
H1679 H 0.15322 0.50744 0.98008 0.0
H1680 H 0.00807 0.19024 0.93098 0.0
H1681 H 0.01319 0.16366 0.94424 0.0
H1682 H 0.03423 0.20172 0.99647 0.0
H1683 H 0.02932 0.22848 0.98318 0.0
H1684 H 0.05525 0.17703 0.98631 0.0
H1685 H 0.99303 0.17287 0.98974 0.0
H1686 H 0.96287 0.17168 0.97627 0.0
H1687 H 0.96174 0.1181 0.94075 0.0
H1688 H 0.99227 0.11938 0.95333 0.0
H1689 H 0.05057 0.10144 0.03858 0.0
H1690 H 0.04854 0.13019 0.02702 0.0
H1691 H 0.03167 0.09651 0.97179 0.0
H1692 H 0.03444 0.06801 0.98316 0.0
H1693 H 0.00798 0.11961 0.98528 0.0
H1694 H 0.07015 0.13056 0.97102 0.0
H1695 H 0.10275 0.13504 0.97609 0.0
H1696 H 0.10348 0.17368 0.02801 0.0
H1697 H 0.07092 0.16992 0.02282 0.0
C1698 C 0.01363 0.19299 0.94536 0.0
C1699 C 0.01817 0.21158 0.956 0.0
C1700 C 0.01655 0.17771 0.95295 0.0
C1701 C 0.02399 0.18053 0.97147 0.0
C1702 C 0.02847 0.19908 0.98217 0.0
C1703 C 0.02554 0.21439 0.97457 0.0
C1704 C 0.02737 0.16419 0.97948 0.0
C1705 C 0.04477 0.16468 0.98644 0.0
C1706 C 0.01389 0.14767 0.97916 0.0
C1707 C 0.99511 0.14635 0.97234 0.0
C1708 C 0.98646 0.16092 0.9789 0.0
C1709 C 0.96933 0.1603 0.97133 0.0
C1710 C 0.96043 0.14487 0.95758 0.0
C1711 C 0.96868 0.13007 0.95136 0.0
C1712 C 0.98594 0.13078 0.95865 0.0
C1713 C 0.04706 0.10032 0.02385 0.0
C1714 C 0.04296 0.08251 0.01172 0.0
C1715 C 0.04578 0.11674 0.01725 0.0
C1716 C 0.03983 0.1156 0.99849 0.0
C1717 C 0.03628 0.09785 0.98629 0.0
C1718 C 0.03799 0.08156 0.99278 0.0
C1719 C 0.03589 0.13251 0.99197 0.0
C1720 C 0.01834 0.13212 0.98539 0.0
C1721 C 0.0492 0.14904 0.99235 0.0
C1722 C 0.0682 0.14977 0.99668 0.0
C1723 C 0.07728 0.13986 0.98359 0.0
C1724 C 0.09575 0.14252 0.98632 0.0
C1725 C 0.10519 0.15468 0.00235 0.0
C1726 C 0.09616 0.16427 0.01562 0.0
C1727 C 0.07772 0.16199 0.01272 0.0
H1728 H 0.11948 0.15659 0.00452 0.0
H1729 H 0.94711 0.14434 0.95184 0.0
H1730 H 0.15185 0.83839 0.13518 0.0
H1731 H 0.17717 0.83538 0.15504 0.0
H1732 H 0.1449 0.78515 0.1685 0.0
H1733 H 0.11941 0.78914 0.1499 0.0
H1734 H 0.16222 0.80218 0.19777 0.0
H1735 H 0.18229 0.78812 0.13632 0.0
H1736 H 0.19033 0.794 0.10544 0.0
H1737 H 0.22926 0.84411 0.13168 0.0
H1738 H 0.22132 0.83862 0.16269 0.0
H1739 H 0.23342 0.77025 0.23821 0.0
H1740 H 0.20844 0.77426 0.21864 0.0
H1741 H 0.24031 0.8269 0.20987 0.0
H1742 H 0.26561 0.82227 0.22871 0.0
H1743 H 0.22352 0.80919 0.17862 0.0
H1744 H 0.20381 0.82194 0.24025 0.0
H1745 H 0.19563 0.8154 0.27086 0.0
H1746 H 0.15574 0.76649 0.24375 0.0
H1747 H 0.16385 0.77257 0.21298 0.0
C1748 C 0.15024 0.82671 0.14239 0.0
C1749 C 0.13359 0.81408 0.14104 0.0
C1750 C 0.16482 0.82483 0.15365 0.0
C1751 C 0.16334 0.80978 0.16326 0.0
C1752 C 0.14666 0.79699 0.16152 0.0
C1753 C 0.13199 0.79924 0.15078 0.0
C1754 C 0.17872 0.80759 0.17564 0.0
C1755 C 0.17554 0.80342 0.19334 0.0
C1756 C 0.19643 0.80971 0.17045 0.0
C1757 C 0.20107 0.81306 0.1518 0.0
C1758 C 0.19247 0.80046 0.13548 0.0
C1759 C 0.19702 0.80371 0.11797 0.0
C1760 C 0.21025 0.81945 0.1166 0.0
C1761 C 0.21899 0.83194 0.13275 0.0
C1762 C 0.21448 0.82876 0.15029 0.0
C1763 C 0.23508 0.78266 0.23207 0.0
C1764 C 0.2515 0.7959 0.23488 0.0
C1765 C 0.22068 0.78507 0.221 0.0
C1766 C 0.22217 0.80107 0.21282 0.0
C1767 C 0.23863 0.81441 0.21588 0.0
C1768 C 0.25311 0.81182 0.22672 0.0
C1769 C 0.20693 0.80364 0.20059 0.0
C1770 C 0.21016 0.8079 0.18297 0.0
C1771 C 0.18924 0.80143 0.20578 0.0
C1772 C 0.18457 0.79762 0.22431 0.0
C1773 C 0.19341 0.80969 0.24082 0.0
C1774 C 0.18876 0.80608 0.2582 0.0
C1775 C 0.1752 0.79052 0.25925 0.0
C1776 C 0.16626 0.77852 0.24292 0.0
C1777 C 0.17087 0.78205 0.22551 0.0
H1778 H 0.1716 0.78777 0.27272 0.0
H1779 H 0.21377 0.82193 0.10303 0.0
H1780 H 0.51378 0.83806 0.42852 0.0
H1781 H 0.5178 0.87041 0.44536 0.0
H1782 H 0.53465 0.85469 0.49594 0.0
H1783 H 0.53029 0.82156 0.47891 0.0
H1784 H 0.51329 0.88172 0.50233 0.0
H1785 H 0.56644 0.87754 0.47488 0.0
H1786 H 0.58568 0.86793 0.45075 0.0
H1787 H 0.56399 0.89861 0.4146 0.0
H1788 H 0.54448 0.90826 0.43844 0.0
H1789 H 0.53999 0.98581 0.52784 0.0
H1790 H 0.53657 0.95174 0.52482 0.0
H1791 H 0.52403 0.94391 0.46542 0.0
H1792 H 0.5283 0.97806 0.46839 0.0
H1793 H 0.55021 0.92861 0.47158 0.0
H1794 H 0.4891 0.91932 0.49871 0.0
H1795 H 0.46989 0.92468 0.52419 0.0
H1796 H 0.511 0.92101 0.564 0.0
H1797 H 0.53001 0.91444 0.53854 0.0
C1798 C 0.51826 0.84132 0.44326 0.0
C1799 C 0.52196 0.8272 0.45227 0.0
C1800 C 0.52058 0.85992 0.45289 0.0
C1801 C 0.52695 0.86517 0.47182 0.0
C1802 C 0.52986 0.85101 0.48128 0.0
C1803 C 0.52735 0.83211 0.47155 0.0
C1804 C 0.531 0.88566 0.48091 0.0
C1805 C 0.52162 0.892 0.49584 0.0
C1806 C 0.54216 0.89921 0.47282 0.0
C1807 C 0.55395 0.89358 0.45844 0.0
C1808 C 0.56571 0.88216 0.46175 0.0
C1809 C 0.57668 0.87672 0.44813 0.0
C1810 C 0.57605 0.88264 0.43115 0.0
C1811 C 0.56448 0.89406 0.42777 0.0
C1812 C 0.55349 0.89956 0.44135 0.0
C1813 C 0.53591 0.9768 0.51423 0.0
C1814 C 0.53434 0.98467 0.49832 0.0
C1815 C 0.53392 0.95717 0.51251 0.0
C1816 C 0.53006 0.94502 0.49486 0.0
C1817 C 0.52718 0.95288 0.47921 0.0
C1818 C 0.52951 0.97242 0.48089 0.0
C1819 C 0.53123 0.9247 0.49189 0.0
C1820 C 0.54197 0.91841 0.47824 0.0
C1821 C 0.52177 0.91137 0.50155 0.0
C1822 C 0.51103 0.91679 0.51686 0.0
C1823 C 0.49408 0.91989 0.51293 0.0
C1824 C 0.48321 0.92304 0.52735 0.0
C1825 C 0.48936 0.92365 0.54576 0.0
C1826 C 0.5063 0.92074 0.54976 0.0
C1827 C 0.51706 0.91711 0.53534 0.0
H1828 H 0.48092 0.92616 0.55689 0.0
H1829 H 0.58453 0.8784 0.42061 0.0
H1830 H 0.53194 0.32939 0.64443 0.0
H1831 H 0.50257 0.3291 0.65631 0.0
H1832 H 0.49269 0.26856 0.65042 0.0
H1833 H 0.52204 0.26892 0.63915 0.0
H1834 H 0.4619 0.28088 0.64041 0.0
H1835 H 0.50858 0.29418 0.69062 0.0
H1836 H 0.53712 0.31218 0.70797 0.0
H1837 H 0.51677 0.3625 0.71787 0.0
H1838 H 0.48817 0.34481 0.70024 0.0
H1839 H 0.40629 0.25207 0.70854 0.0
H1840 H 0.42947 0.25951 0.68779 0.0
H1841 H 0.43097 0.31892 0.70519 0.0
H1842 H 0.40755 0.3114 0.72601 0.0
H1843 H 0.46437 0.31213 0.70695 0.0
H1844 H 0.4147 0.29554 0.66123 0.0
H1845 H 0.38646 0.27583 0.64467 0.0
H1846 H 0.41229 0.23055 0.62627 0.0
H1847 H 0.44062 0.24981 0.64312 0.0
C1848 C 0.52329 0.31602 0.64529 0.0
C1849 C 0.52926 0.29918 0.6409 0.0
C1850 C 0.50655 0.31585 0.65214 0.0
C1851 C 0.49538 0.29879 0.65437 0.0
C1852 C 0.50096 0.28188 0.64881 0.0
C1853 C 0.51777 0.28211 0.64242 0.0
C1854 C 0.4788 0.29849 0.66417 0.0
C1855 C 0.4624 0.28773 0.65495 0.0
C1856 C 0.47933 0.30767 0.68306 0.0
C1857 C 0.49634 0.31825 0.69393 0.0
C1858 C 0.51025 0.30912 0.69637 0.0
C1859 C 0.52642 0.31925 0.70626 0.0
C1860 C 0.52878 0.33849 0.71397 0.0
C1861 C 0.51493 0.34761 0.71185 0.0
C1862 C 0.49874 0.33754 0.7019 0.0
C1863 C 0.41132 0.2667 0.70768 0.0
C1864 C 0.40502 0.28114 0.71886 0.0
C1865 C 0.42458 0.27096 0.69576 0.0
C1866 C 0.43203 0.28981 0.69476 0.0
C1867 C 0.42546 0.30427 0.70561 0.0
C1868 C 0.41197 0.29997 0.71741 0.0
C1869 C 0.44738 0.29422 0.68331 0.0
C1870 C 0.46364 0.30567 0.69227 0.0
C1871 C 0.44671 0.28556 0.66419 0.0
C1872 C 0.42978 0.27409 0.65361 0.0
C1873 C 0.41435 0.28134 0.65376 0.0
C1874 C 0.39832 0.27024 0.64429 0.0
C1875 C 0.39758 0.25193 0.63445 0.0
C1876 C 0.41289 0.24473 0.63393 0.0
C1877 C 0.42894 0.25574 0.64344 0.0
H1878 H 0.38514 0.24328 0.62727 0.0
H1879 H 0.54131 0.34632 0.72162 0.0
H1880 H 0.98168 0.79418 0.59936 0.0
H1881 H 0.98934 0.81981 0.58217 0.0
H1882 H 0.03149 0.84925 0.62532 0.0
H1883 H 0.02289 0.82461 0.64302 0.0
H1884 H 0.01727 0.87335 0.61605 0.0
H1885 H 0.03852 0.8224 0.58061 0.0
H1886 H 0.03664 0.79004 0.56295 0.0
H1887 H 0.99692 0.79676 0.52327 0.0
H1888 H 0.99847 0.82912 0.54078 0.0
H1889 H 0.07054 0.92916 0.55902 0.0
H1890 H 0.05858 0.90744 0.57934 0.0
H1891 H 0.00965 0.88832 0.54314 0.0
H1892 H 0.02156 0.9101 0.52297 0.0
H1893 H 0.0264 0.85966 0.54882 0.0
H1894 H 0.00884 0.9136 0.58641 0.0
H1895 H 0.01313 0.9455 0.60612 0.0
H1896 H 0.05133 0.93271 0.6434 0.0
H1897 H 0.04734 0.90081 0.62387 0.0
C1898 C 0.99234 0.80636 0.6052 0.0
C1899 C 0.00153 0.80773 0.62253 0.0
C1900 C 0.99688 0.82083 0.59532 0.0
C1901 C 0.01119 0.83633 0.60232 0.0
C1902 C 0.02031 0.83756 0.6197 0.0
C1903 C 0.01536 0.82351 0.62982 0.0
C1904 C 0.01671 0.85147 0.5918 0.0
C1905 C 0.01949 0.87032 0.60139 0.0
C1906 C 0.01944 0.84755 0.57265 0.0
C1907 C 0.01848 0.8281 0.5621 0.0
C1908 C 0.0293 0.81693 0.56818 0.0
C1909 C 0.02832 0.7986 0.55819 0.0
C1910 C 0.01663 0.79133 0.54203 0.0
C1911 C 0.00595 0.8024 0.5358 0.0
C1912 C 0.0069 0.82075 0.54573 0.0
C1913 C 0.0572 0.92036 0.5556 0.0
C1914 C 0.04697 0.92085 0.53943 0.0
C1915 C 0.05033 0.90818 0.56723 0.0
C1916 C 0.03324 0.89638 0.5627 0.0
C1917 C 0.02285 0.89738 0.54683 0.0
C1918 C 0.02964 0.90966 0.53532 0.0
C1919 C 0.02699 0.88143 0.57312 0.0
C1920 C 0.02414 0.8626 0.56348 0.0
C1921 C 0.02489 0.88538 0.59238 0.0
C1922 C 0.02796 0.90492 0.60353 0.0
C1923 C 0.01834 0.9177 0.59865 0.0
C1924 C 0.02066 0.93575 0.60985 0.0
C1925 C 0.03255 0.94116 0.62596 0.0
C1926 C 0.04216 0.92854 0.6309 0.0
C1927 C 0.03986 0.91047 0.61978 0.0
H1928 H 0.03427 0.95511 0.63463 0.0
H1929 H 0.01588 0.77714 0.53432 0.0
H1930 H 0.54656 0.83258 0.88272 0.0
H1931 H 0.51559 0.83438 0.87588 0.0
H1932 H 0.51295 0.79568 0.82311 0.0
H1933 H 0.54402 0.79482 0.82946 0.0
H1934 H 0.50342 0.82594 0.81832 0.0
H1935 H 0.49153 0.78398 0.86233 0.0
H1936 H 0.49506 0.77585 0.89321 0.0
H1937 H 0.47493 0.82358 0.91829 0.0
H1938 H 0.47155 0.83218 0.88759 0.0
H1939 H 0.4182 0.79678 0.77984 0.0
H1940 H 0.44305 0.79334 0.80002 0.0
H1941 H 0.43909 0.84353 0.83911 0.0
H1942 H 0.41394 0.84677 0.81897 0.0
H1943 H 0.45146 0.81231 0.8549 0.0
H1944 H 0.46305 0.85312 0.80965 0.0
H1945 H 0.45876 0.85956 0.77813 0.0
H1946 H 0.48002 0.81199 0.75502 0.0
H1947 H 0.484 0.80498 0.78636 0.0
C1948 C 0.53915 0.82433 0.8698 0.0
C1949 C 0.54738 0.81364 0.85647 0.0
C1950 C 0.52155 0.82529 0.86597 0.0
C1951 C 0.51205 0.81511 0.84904 0.0
C1952 C 0.52015 0.80371 0.83621 0.0
C1953 C 0.5378 0.80321 0.83978 0.0
C1954 C 0.49431 0.81755 0.8435 0.0
C1955 C 0.49208 0.82282 0.82632 0.0
C1956 C 0.47972 0.81423 0.85432 0.0
C1957 C 0.48145 0.80883 0.87269 0.0
C1958 C 0.48796 0.79282 0.87445 0.0
C1959 C 0.48993 0.78812 0.89192 0.0
C1960 C 0.48527 0.79922 0.90771 0.0
C1961 C 0.47857 0.81501 0.90605 0.0
C1962 C 0.47661 0.8198 0.88862 0.0
C1963 C 0.42253 0.80683 0.79291 0.0
C1964 C 0.41487 0.82236 0.79781 0.0
C1965 C 0.4364 0.80471 0.8045 0.0
C1966 C 0.44281 0.81828 0.82088 0.0
C1967 C 0.43415 0.83293 0.82654 0.0
C1968 C 0.42015 0.83497 0.81496 0.0
C1969 C 0.46067 0.81955 0.82936 0.0
C1970 C 0.46293 0.81545 0.84711 0.0
C1971 C 0.47544 0.82377 0.81906 0.0
C1972 C 0.47369 0.82845 0.80032 0.0
C1973 C 0.4667 0.84397 0.79783 0.0
C1974 C 0.46432 0.84771 0.78 0.0
C1975 C 0.46909 0.83618 0.76458 0.0
C1976 C 0.47631 0.82091 0.76697 0.0
C1977 C 0.47863 0.81704 0.78476 0.0
H1978 H 0.46723 0.8391 0.75078 0.0
H1979 H 0.48681 0.79556 0.92122 0.0
H1980 H 0.47312 0.18271 0.14471 0.0
H1981 H 0.47533 0.15431 0.12202 0.0
H1982 H 0.51135 0.1897 0.09284 0.0
H1983 H 0.50762 0.21754 0.11396 0.0
H1984 H 0.49429 0.16403 0.06921 0.0
H1985 H 0.52315 0.16786 0.1301 0.0
H1986 H 0.52682 0.16753 0.16363 0.0
H1987 H 0.49449 0.11108 0.15351 0.0
H1988 H 0.48982 0.11137 0.12006 0.0
H1989 H 0.5503 0.10233 0.03398 0.0
H1990 H 0.5398 0.12855 0.05252 0.0
H1991 H 0.49502 0.08851 0.0657 0.0
H1992 H 0.50605 0.06256 0.04823 0.0
H1993 H 0.5141 0.11432 0.09611 0.0
H1994 H 0.48792 0.1147 0.03243 0.0
H1995 H 0.49246 0.11664 0.99969 0.0
H1996 H 0.53179 0.1686 0.01799 0.0
H1997 H 0.52719 0.16713 0.05083 0.0
C1998 C 0.48086 0.18417 0.13293 0.0
C1999 C 0.49005 0.20196 0.13067 0.0
C2000 C 0.4823 0.16811 0.1202 0.0
C2001 C 0.49373 0.16996 0.10599 0.0
C2002 C 0.50226 0.18793 0.10351 0.0
C2003 C 0.50016 0.20382 0.11557 0.0
C2004 C 0.4982 0.15353 0.09441 0.0
C2005 C 0.4986 0.15319 0.0752 0.0
C2006 C 0.504 0.13947 0.10223 0.0
C2007 C 0.50579 0.13982 0.12259 0.0
C2008 C 0.51644 0.15554 0.13507 0.0
C2009 C 0.51868 0.15536 0.15408 0.0
C2010 C 0.51065 0.13938 0.16073 0.0
C2011 C 0.50036 0.12357 0.1484 0.0
C2012 C 0.49784 0.12377 0.12943 0.0
C2013 C 0.53805 0.09941 0.04062 0.0
C2014 C 0.52834 0.08088 0.03926 0.0
C2015 C 0.53214 0.11418 0.05109 0.0
C2016 C 0.51652 0.11021 0.05999 0.0
C2017 C 0.50694 0.09162 0.05859 0.0
C2018 C 0.51296 0.07694 0.04835 0.0
C2019 C 0.51029 0.12529 0.07142 0.0
C2020 C 0.50952 0.12518 0.0904 0.0
C2021 C 0.50513 0.13952 0.06371 0.0
C2022 C 0.50715 0.14084 0.044 0.0
C2023 C 0.49744 0.12658 0.02943 0.0
C2024 C 0.50006 0.12758 0.01088 0.0
C2025 C 0.51248 0.14267 0.00676 0.0
C2026 C 0.52216 0.15693 0.02119 0.0
C2027 C 0.51945 0.1561 0.03976 0.0
H2028 H 0.51458 0.14333 0.99238 0.0
H2029 H 0.51254 0.13918 0.17542 0.0
H2030 H 0.16347 0.31043 0.38174 0.0
H2031 H 0.18833 0.31629 0.36271 0.0
H2032 H 0.15348 0.32739 0.32028 0.0
H2033 H 0.12853 0.31835 0.33741 0.0
H2034 H 0.16469 0.29877 0.30759 0.0
H2035 H 0.19415 0.36101 0.34148 0.0
H2036 H 0.20633 0.38556 0.36957 0.0
H2037 H 0.24197 0.35233 0.38453 0.0
H2038 H 0.22994 0.32754 0.35665 0.0
H2039 H 0.24077 0.29687 0.25294 0.0
H2040 H 0.21303 0.30074 0.2666 0.0
H2041 H 0.23403 0.29091 0.3187 0.0
H2042 H 0.26204 0.28907 0.30574 0.0
H2043 H 0.22942 0.32589 0.32142 0.0
H2044 H 0.1928 0.26125 0.29833 0.0
H2045 H 0.1779 0.23297 0.27487 0.0
H2046 H 0.15666 0.2677 0.24302 0.0
H2047 H 0.1706 0.29612 0.26696 0.0
C2048 C 0.16126 0.31431 0.36843 0.0
C2049 C 0.14407 0.31382 0.36102 0.0
C2050 C 0.17551 0.31819 0.35781 0.0
C2051 C 0.17267 0.32245 0.34016 0.0
C2052 C 0.15587 0.32421 0.33391 0.0
C2053 C 0.14156 0.31905 0.34382 0.0
C2054 C 0.18527 0.31943 0.32635 0.0
C2055 C 0.17882 0.30522 0.31035 0.0
C2056 C 0.20365 0.32735 0.33028 0.0
C2057 C 0.21112 0.34242 0.34693 0.0
C2058 C 0.20455 0.35892 0.35078 0.0
C2059 C 0.21144 0.37288 0.36667 0.0
C2060 C 0.22492 0.37051 0.37882 0.0
C2061 C 0.23157 0.35419 0.37508 0.0
C2062 C 0.22476 0.34021 0.3592 0.0
C2063 C 0.239 0.29491 0.26707 0.0
C2064 C 0.25301 0.29231 0.27835 0.0
C2065 C 0.22325 0.29692 0.27476 0.0
C2066 C 0.22178 0.29623 0.29361 0.0
C2067 C 0.23512 0.29152 0.30413 0.0
C2068 C 0.25097 0.2903 0.29672 0.0
C2069 C 0.20874 0.30462 0.30363 0.0
C2070 C 0.2152 0.32002 0.31854 0.0
C2071 C 0.19041 0.29751 0.29909 0.0
C2072 C 0.18299 0.28076 0.28417 0.0
C2073 C 0.18512 0.26284 0.2862 0.0
C2074 C 0.17678 0.24679 0.27287 0.0
C2075 C 0.1667 0.24855 0.2572 0.0
C2076 C 0.16462 0.26637 0.25505 0.0
C2077 C 0.17258 0.28243 0.26858 0.0
H2078 H 0.16034 0.23609 0.24685 0.0
H2079 H 0.2302 0.38131 0.39113 0.0
H2080 H 0.93277 0.05718 0.19758 0.0
H2081 H 0.94781 0.05492 0.16888 0.0
H2082 H 0.99871 0.0734 0.20135 0.0
H2083 H 0.98358 0.07596 0.23021 0.0
H2084 H 0.00222 0.08882 0.17203 0.0
H2085 H 0.97963 0.02484 0.17667 0.0
H2086 H 0.95749 0.99647 0.17995 0.0
H2087 H 0.92712 0.99871 0.13009 0.0
H2088 H 0.94897 0.02726 0.12664 0.0
H2089 H 0.04992 0.06149 0.09181 0.0
H2090 H 0.03714 0.06578 0.12181 0.0
H2091 H 0.98443 0.04751 0.09317 0.0
H2092 H 0.99718 0.04305 0.06322 0.0
H2093 H 0.9833 0.03186 0.1215 0.0
H2094 H 0.00662 0.09643 0.11719 0.0
H2095 H 0.02965 0.12413 0.11394 0.0
H2096 H 0.05971 0.12015 0.16331 0.0
H2097 H 0.03697 0.09225 0.16671 0.0
C2098 C 0.94718 0.06078 0.19876 0.0
C2099 C 0.95674 0.0667 0.21663 0.0
C2100 C 0.95592 0.05935 0.1821 0.0
C2101 C 0.97471 0.06362 0.18235 0.0
C2102 C 0.9843 0.06988 0.20023 0.0
C2103 C 0.97554 0.0713 0.21695 0.0
C2104 C 0.98414 0.06152 0.16416 0.0
C2105 C 0.99813 0.07619 0.16116 0.0
C2106 C 0.9791 0.0453 0.14936 0.0
C2107 C 0.96583 0.02831 0.15152 0.0
C2108 C 0.96815 0.01938 0.1665 0.0
C2109 C 0.95567 0.00325 0.16837 0.0
C2110 C 0.94088 0.99583 0.15527 0.0
C2111 C 0.93856 0.0045 0.14025 0.0
C2112 C 0.95099 0.02065 0.13832 0.0
C2113 C 0.03561 0.05856 0.09171 0.0
C2114 C 0.02483 0.05189 0.07454 0.0
C2115 C 0.02817 0.06111 0.10916 0.0
C2116 C 0.00952 0.05721 0.11036 0.0
C2117 C 0.99878 0.05069 0.0932 0.0
C2118 C 0.00621 0.04818 0.0758 0.0
C2119 C 0.00112 0.05928 0.12916 0.0
C2120 C 0.98736 0.04454 0.13232 0.0
C2121 C 0.00648 0.07538 0.1441 0.0
C2122 C 0.02018 0.09212 0.14208 0.0
C2123 C 0.01821 0.10137 0.12726 0.0
C2124 C 0.0312 0.11712 0.12541 0.0
C2125 C 0.04616 0.12386 0.13837 0.0
C2126 C 0.04813 0.11489 0.15325 0.0
C2127 C 0.03519 0.09911 0.15515 0.0
H2128 H 0.05619 0.13606 0.13692 0.0
H2129 H 0.93124 0.98332 0.15673 0.0
H2130 H 0.28262 0.64791 0.45426 0.0
H2131 H 0.27394 0.66076 0.42792 0.0
H2132 H 0.28069 0.71566 0.46392 0.0
H2133 H 0.28878 0.70273 0.49066 0.0
H2134 H 0.25106 0.70595 0.43635 0.0
H2135 H 0.31472 0.70718 0.44249 0.0
H2136 H 0.33748 0.68931 0.44746 0.0
H2137 H 0.31712 0.64951 0.39635 0.0
H2138 H 0.29401 0.66701 0.39128 0.0
H2139 H 0.26746 0.77223 0.38269 0.0
H2140 H 0.27638 0.75448 0.40513 0.0
H2141 H 0.26847 0.70467 0.3613 0.0
H2142 H 0.25981 0.72259 0.33874 0.0
H2143 H 0.29613 0.70755 0.39013 0.0
H2144 H 0.23462 0.71039 0.38197 0.0
H2145 H 0.2099 0.72638 0.37976 0.0
H2146 H 0.22465 0.75734 0.43608 0.0
H2147 H 0.24967 0.74178 0.43853 0.0
C2148 C 0.2825 0.66279 0.45656 0.0
C2149 C 0.28697 0.67456 0.47434 0.0
C2150 C 0.27719 0.66995 0.4416 0.0
C2151 C 0.27686 0.68908 0.44413 0.0
C2152 C 0.28088 0.7008 0.46188 0.0
C2153 C 0.28589 0.69355 0.47697 0.0
C2154 C 0.27493 0.69753 0.42791 0.0
C2155 C 0.26087 0.70641 0.42624 0.0
C2156 C 0.28761 0.69758 0.41467 0.0
C2157 C 0.30275 0.68845 0.41644 0.0
C2158 C 0.31526 0.69475 0.4322 0.0
C2159 C 0.32813 0.68462 0.43511 0.0
C2160 C 0.32877 0.66831 0.4222 0.0
C2161 C 0.31663 0.66219 0.4063 0.0
C2162 C 0.30367 0.67223 0.40337 0.0
C2163 C 0.26834 0.75771 0.37781 0.0
C2164 C 0.26284 0.74851 0.35929 0.0
C2165 C 0.27338 0.74763 0.39054 0.0
C2166 C 0.2726 0.72826 0.38479 0.0
C2167 C 0.26899 0.71961 0.36586 0.0
C2168 C 0.26403 0.72975 0.35309 0.0
C2169 C 0.27255 0.71664 0.39887 0.0
C2170 C 0.28617 0.70699 0.40007 0.0
C2171 C 0.2594 0.7159 0.41171 0.0
C2172 C 0.24415 0.72506 0.41036 0.0
C2173 C 0.2327 0.72072 0.39384 0.0
C2174 C 0.21862 0.7297 0.39255 0.0
C2175 C 0.21575 0.74292 0.40774 0.0
C2176 C 0.22691 0.74713 0.4243 0.0
C2177 C 0.24104 0.73823 0.42565 0.0
H2178 H 0.20486 0.74987 0.40671 0.0
H2179 H 0.33865 0.66039 0.42455 0.0
H2180 H 0.67492 0.02651 0.66736 0.0
H2181 H 0.65666 0.03209 0.64162 0.0
H2182 H 0.61612 0.04146 0.67856 0.0
H2183 H 0.63288 0.03374 0.70327 0.0
H2184 H 0.60531 0.0116 0.65198 0.0
H2185 H 0.63592 0.07602 0.65781 0.0
H2186 H 0.66276 0.10182 0.6614 0.0
H2187 H 0.6769 0.07766 0.60779 0.0
H2188 H 0.65027 0.0515 0.60399 0.0
H2189 H 0.54615 0.0301 0.58379 0.0
H2190 H 0.56604 0.03257 0.6114 0.0
H2191 H 0.60278 0.00917 0.57674 0.0
H2192 H 0.58251 0.00601 0.54905 0.0
H2193 H 0.61536 0.04851 0.60201 0.0
H2194 H 0.58636 0.9825 0.59912 0.0
H2195 H 0.55926 0.95703 0.59592 0.0
H2196 H 0.54203 0.9862 0.64564 0.0
H2197 H 0.56892 0.01203 0.64892 0.0
C2198 C 0.66216 0.0299 0.66988 0.0
C2199 C 0.65519 0.02954 0.68711 0.0
C2200 C 0.65202 0.0335 0.65542 0.0
C2201 C 0.63527 0.03728 0.65853 0.0
C2202 C 0.62914 0.03868 0.67618 0.0
C2203 C 0.63874 0.03416 0.69021 0.0
C2204 C 0.62237 0.03488 0.64285 0.0
C2205 C 0.60734 0.01997 0.64127 0.0
C2206 C 0.62552 0.04551 0.62885 0.0
C2207 C 0.64111 0.06171 0.63065 0.0
C2208 C 0.64477 0.07616 0.64679 0.0
C2209 C 0.65996 0.09085 0.64888 0.0
C2210 C 0.67154 0.09136 0.63485 0.0
C2211 C 0.6679 0.07724 0.61865 0.0
C2212 C 0.65273 0.06249 0.6165 0.0
C2213 C 0.55788 0.02445 0.58221 0.0
C2214 C 0.56295 0.01779 0.56464 0.0
C2215 C 0.56938 0.02632 0.59781 0.0
C2216 C 0.58579 0.0215 0.5956 0.0
C2217 C 0.59016 0.01321 0.57827 0.0
C2218 C 0.57856 0.01112 0.56271 0.0
C2219 C 0.59855 0.02546 0.61152 0.0
C2220 C 0.61345 0.04049 0.613 0.0
C2221 C 0.59531 0.01513 0.62564 0.0
C2222 C 0.57957 0.99922 0.6242 0.0
C2223 C 0.57675 0.9835 0.60933 0.0
C2224 C 0.56144 0.96902 0.60749 0.0
C2225 C 0.54892 0.97001 0.62055 0.0
C2226 C 0.55174 0.98546 0.63553 0.0
C2227 C 0.56702 1.00001 0.6374 0.0
H2228 H 0.53704 0.9588 0.61908 0.0
H2229 H 0.68334 0.10271 0.63652 0.0
H2230 H 0.27565 0.33451 0.97518 0.0
H2231 H 0.27444 0.31672 0.94286 0.0
H2232 H 0.31951 0.3585 0.93314 0.0
H2233 H 0.32026 0.37636 0.9648 0.0
H2234 H 0.29079 0.35357 0.90834 0.0
H2235 H 0.32179 0.31217 0.93723 0.0
H2236 H 0.32194 0.2898 0.9583 0.0
H2237 H 0.27401 0.25363 0.92826 0.0
H2238 H 0.27352 0.27588 0.90712 0.0
H2239 H 0.32004 0.33259 0.82368 0.0
H2240 H 0.32021 0.33735 0.85741 0.0
H2241 H 0.285 0.2823 0.85177 0.0
H2242 H 0.28769 0.27624 0.81806 0.0
H2243 H 0.3005 0.28962 0.88387 0.0
H2244 H 0.27039 0.32702 0.8528 0.0
H2245 H 0.26682 0.34907 0.83222 0.0
H2246 H 0.30732 0.39263 0.86692 0.0
H2247 H 0.31143 0.37076 0.88742 0.0
C2248 C 0.28547 0.33953 0.96615 0.0
C2249 C 0.29801 0.35676 0.97225 0.0
C2250 C 0.28479 0.32942 0.94777 0.0
C2251 C 0.29685 0.33637 0.93559 0.0
C2252 C 0.31 0.35297 0.94224 0.0
C2253 C 0.31046 0.36314 0.96031 0.0
C2254 C 0.29515 0.32787 0.91541 0.0
C2255 C 0.29302 0.33962 0.90296 0.0
C2256 C 0.29686 0.30927 0.90834 0.0
C2257 C 0.29757 0.29571 0.92069 0.0
C2258 C 0.31127 0.29946 0.93516 0.0
C2259 C 0.31142 0.28681 0.94711 0.0
C2260 C 0.29798 0.27032 0.94464 0.0
C2261 C 0.28441 0.2664 0.93016 0.0
C2262 C 0.28421 0.279 0.91817 0.0
C2263 C 0.31341 0.32102 0.82977 0.0
C2264 C 0.30449 0.30381 0.81839 0.0
C2265 C 0.31295 0.32396 0.84903 0.0
C2266 C 0.30179 0.31064 0.85715 0.0
C2267 C 0.29356 0.29294 0.84592 0.0
C2268 C 0.29515 0.28945 0.82666 0.0
C2269 C 0.29768 0.31601 0.87685 0.0
C2270 C 0.2982 0.30355 0.88912 0.0
C2271 C 0.29399 0.33392 0.88382 0.0
C2272 C 0.29125 0.3472 0.87161 0.0
C2273 C 0.27857 0.34128 0.85599 0.0
C2274 C 0.27649 0.35374 0.84431 0.0
C2275 C 0.28689 0.37222 0.84821 0.0
C2276 C 0.29933 0.3783 0.86385 0.0
C2277 C 0.30153 0.36589 0.87551 0.0
H2278 H 0.28528 0.38184 0.83914 0.0
H2279 H 0.29808 0.26057 0.95393 0.0
H2280 H 0.99288 0.07766 0.32667 0.0
H2281 H 0.00581 0.0748 0.35679 0.0
H2282 H 0.9539 0.048 0.3696 0.0
H2283 H 0.94079 0.05195 0.33965 0.0
H2284 H 0.9702 0.06635 0.40093 0.0
H2285 H 0.99269 0.02466 0.35234 0.0
H2286 H 0.00861 0.01857 0.32424 0.0
H2287 H 0.05564 0.05823 0.35223 0.0
H2288 H 0.03995 0.06468 0.38043 0.0
H2289 H 0.99596 0.02653 0.47484 0.0
H2290 H 0.98569 0.03112 0.44442 0.0
H2291 H 0.03964 0.05556 0.43546 0.0
H2292 H 0.0501 0.0497 0.4658 0.0
H2293 H 0.02425 0.04043 0.4025 0.0
H2294 H 0.00529 0.08264 0.44975 0.0
H2295 H 0.99172 0.09249 0.47865 0.0
H2296 H 0.94109 0.05736 0.45428 0.0
H2297 H 0.95443 0.0471 0.42531 0.0
C2298 C 0.98404 0.07157 0.33605 0.0
C2299 C 0.96556 0.06545 0.33046 0.0
C2300 C 0.99161 0.0695 0.35338 0.0
C2301 C 0.98124 0.06042 0.36587 0.0
C2302 C 0.96261 0.05492 0.36062 0.0
C2303 C 0.95495 0.05737 0.34335 0.0
C2304 C 0.98966 0.05657 0.38405 0.0
C2305 C 0.98183 0.06034 0.40098 0.0
C2306 C 0.00554 0.04961 0.38515 0.0
C2307 C 0.01511 0.04522 0.36843 0.0
C2308 C 0.00643 0.03207 0.35249 0.0
C2309 C 0.0154 0.02858 0.33654 0.0
C2310 C 0.03311 0.03803 0.33644 0.0
C2311 C 0.04192 0.05092 0.35232 0.0
C2312 C 0.033 0.05447 0.3683 0.0
C2313 C 0.0058 0.03253 0.46629 0.0
C2314 C 0.02398 0.03745 0.47307 0.0
C2315 C -0.00019 0.03553 0.44877 0.0
C2316 C 0.01155 0.0445 0.43727 0.0
C2317 C 0.02994 0.0488 0.44367 0.0
C2318 C 0.03603 0.04533 0.46118 0.0
C2319 C 0.0044 0.04964 0.41919 0.0
C2320 C 0.01252 0.04626 0.40238 0.0
C2321 C 0.98908 0.0575 0.41825 0.0
C2322 C 0.98088 0.064 0.43542 0.0
C2323 C 0.99127 0.07698 0.45058 0.0
C2324 C 0.98363 0.08263 0.46697 0.0
C2325 C 0.96556 0.07553 0.46831 0.0
C2326 C 0.95508 0.06284 0.45322 0.0
C2327 C 0.96267 0.05712 0.4368 0.0
H2328 H 0.95967 0.07988 0.48103 0.0
H2329 H 0.04001 0.03535 0.32406 0.0
H2330 H 0.29857 0.67885 0.57943 0.0
H2331 H 0.2978 0.70216 0.6077 0.0
H2332 H 0.24211 0.67751 0.60935 0.0
H2333 H 0.24289 0.65369 0.58119 0.0
H2334 H 0.25696 0.72238 0.61332 0.0
H2335 H 0.26123 0.66639 0.6376 0.0
H2336 H 0.27406 0.63878 0.6387 0.0
H2337 H 0.32582 0.6754 0.65527 0.0
H2338 H 0.31335 0.70322 0.65386 0.0
H2339 H 0.25752 0.76796 0.71076 0.0
H2340 H 0.25111 0.74752 0.67955 0.0
H2341 H 0.30745 0.75526 0.67403 0.0
H2342 H 0.31376 0.77526 0.7049 0.0
H2343 H 0.28834 0.71744 0.67233 0.0
H2344 H 0.28744 0.77185 0.64631 0.0
H2345 H 0.27792 0.80132 0.64482 0.0
H2346 H 0.22372 0.77009 0.63109 0.0
H2347 H 0.23291 0.74041 0.63281 0.0
C2348 C 0.28621 0.67838 0.58591 0.0
C2349 C 0.27082 0.66457 0.57843 0.0
C2350 C 0.28577 0.69167 0.60188 0.0
C2351 C 0.26987 0.69143 0.61027 0.0
C2352 C 0.2544 0.67777 0.60281 0.0
C2353 C 0.25493 0.66416 0.587 0.0
C2354 C 0.26994 0.70509 0.62743 0.0
C2355 C 0.26339 0.72118 0.6264 0.0
C2356 C 0.27893 0.70355 0.64408 0.0
C2357 C 0.28637 0.68687 0.64546 0.0
C2358 C 0.27537 0.66855 0.64132 0.0
C2359 C 0.28258 0.65286 0.64202 0.0
C2360 C 0.30075 0.65533 0.64701 0.0
C2361 C 0.31174 0.67351 0.65139 0.0
C2362 C 0.30461 0.68924 0.65065 0.0
C2363 C 0.26844 0.76584 0.70248 0.0
C2364 C 0.28615 0.7734 0.70996 0.0
C2365 C 0.26479 0.7542 0.68482 0.0
C2366 C 0.27888 0.74997 0.67479 0.0
C2367 C 0.29649 0.75857 0.6817 0.0
C2368 C 0.3001 0.77028 0.69921 0.0
C2369 C 0.27545 0.73481 0.65825 0.0
C2370 C 0.28149 0.71847 0.65941 0.0
C2371 C 0.26633 0.73632 0.64169 0.0
C2372 C 0.26082 0.75395 0.63986 0.0
C2373 C 0.27347 0.77127 0.64306 0.0
C2374 C 0.26815 0.78802 0.64217 0.0
C2375 C 0.25022 0.78759 0.63791 0.0
C2376 C 0.2376 0.77039 0.63441 0.0
C2377 C 0.24286 0.7536 0.63532 0.0
H2378 H 0.2461 0.80057 0.63728 0.0
H2379 H 0.30631 0.64317 0.64752 0.0
H2380 H 0.66135 0.01645 0.79024 0.0
H2381 H 0.6571 0.01722 0.82326 0.0
H2382 H 0.64311 0.07129 0.82782 0.0
H2383 H 0.64681 0.07033 0.79477 0.0
H2384 H 0.66317 0.06548 0.86093 0.0
H2385 H 0.61121 0.03939 0.81483 0.0
H2386 H 0.5955 0.01763 0.78629 0.0
H2387 H 0.60266 0.97007 0.80912 0.0
H2388 H 0.61882 0.99166 0.83767 0.0
H2389 H 0.58921 0.08563 0.90374 0.0
H2390 H 0.61383 0.07957 0.8854 0.0
H2391 H 0.60529 0.02324 0.89668 0.0
H2392 H 0.58022 0.0288 0.91398 0.0
H2393 H 0.60396 0.02304 0.86103 0.0
H2394 H 0.64565 0.05515 0.91356 0.0
H2395 H 0.65908 0.08059 0.94056 0.0
H2396 H 0.66819 0.12069 0.90468 0.0
H2397 H 0.65473 0.09554 0.87751 0.0
C2398 C 0.65759 0.02856 0.79846 0.0
C2399 C 0.65382 0.04307 0.79019 0.0
C2400 C 0.6555 0.02911 0.81722 0.0
C2401 C 0.64998 0.04435 0.8277 0.0
C2402 C 0.64761 0.05957 0.81978 0.0
C2403 C 0.64929 0.05881 0.80095 0.0
C2404 C 0.64262 0.04266 0.84528 0.0
C2405 C 0.65039 0.05602 0.86129 0.0
C2406 C 0.62607 0.03013 0.84535 0.0
C2407 C 0.61653 0.01711 0.82818 0.0
C2408 C 0.60966 0.0243 0.81364 0.0
C2409 C 0.60065 0.01201 0.79749 0.0
C2410 C 0.59817 0.99248 0.79585 0.0
C2411 C 0.60469 0.98521 0.81038 0.0
C2412 C 0.61381 0.99746 0.82652 0.0
C2413 C 0.59262 0.07199 0.90217 0.0
C2414 C 0.58291 0.05768 0.91012 0.0
C2415 C 0.60689 0.06869 0.89217 0.0
C2416 C 0.6116 0.05114 0.89025 0.0
C2417 C 0.60203 0.03697 0.89841 0.0
C2418 C 0.58769 0.04014 0.90811 0.0
C2419 C 0.62413 0.04641 0.87683 0.0
C2420 C 0.61724 0.0318 0.86139 0.0
C2421 C 0.64119 0.05821 0.87719 0.0
C2422 C 0.64917 0.07344 0.89351 0.0
C2423 C 0.65044 0.06941 0.91145 0.0
C2424 C 0.65808 0.08378 0.92678 0.0
C2425 C 0.66449 0.10224 0.92433 0.0
C2426 C 0.66327 0.10638 0.90655 0.0
C2427 C 0.65569 0.09206 0.89118 0.0
H2428 H 0.6704 0.11334 0.93621 0.0
H2429 H 0.59113 0.98297 0.78337 0.0
H2430 H 0.29718 0.38517 0.10354 0.0
H2431 H 0.29219 0.37163 0.13112 0.0
H2432 H 0.28879 0.31588 0.09812 0.0
H2433 H 0.29316 0.32937 0.07011 0.0
H2434 H 0.26362 0.31468 0.12109 0.0
H2435 H 0.32629 0.34029 0.12779 0.0
H2436 H 0.35444 0.36399 0.12933 0.0
H2437 H 0.33886 0.39953 0.17603 0.0
H2438 H 0.3105 0.37619 0.17459 0.0
H2439 H 0.27989 0.27512 0.2004 0.0
H2440 H 0.27818 0.28568 0.17109 0.0
H2441 H 0.27708 0.34147 0.20114 0.0
H2442 H 0.27857 0.33071 0.23073 0.0
H2443 H 0.30404 0.34125 0.1791 0.0
H2444 H 0.24107 0.31371 0.17231 0.0
H2445 H 0.21455 0.28806 0.17144 0.0
H2446 H 0.23238 0.25393 0.12529 0.0
H2447 H 0.25916 0.27928 0.12606 0.0
C2448 C 0.2955 0.37004 0.10213 0.0
C2449 C 0.2957 0.35833 0.08469 0.0
C2450 C 0.29269 0.36232 0.11794 0.0
C2451 C 0.29042 0.34279 0.11674 0.0
C2452 C 0.29057 0.33101 0.09934 0.0
C2453 C 0.29315 0.33872 0.0834 0.0
C2454 C 0.28767 0.33482 0.13372 0.0
C2455 C 0.27257 0.32032 0.13372 0.0
C2456 C 0.29924 0.34234 0.15027 0.0
C2457 C 0.31617 0.35657 0.15094 0.0
C2458 C 0.32878 0.35325 0.13825 0.0
C2459 C 0.34479 0.36661 0.13914 0.0
C2460 C 0.34841 0.38328 0.15273 0.0
C2461 C 0.33603 0.38663 0.16548 0.0
C2462 C 0.31998 0.37334 0.16464 0.0
C2463 C 0.27833 0.28931 0.20075 0.0
C2464 C 0.2789 0.30195 0.21778 0.0
C2465 C 0.27753 0.29541 0.18396 0.0
C2466 C 0.27729 0.31428 0.18395 0.0
C2467 C 0.27714 0.32679 0.20091 0.0
C2468 C 0.278 0.32068 0.21774 0.0
C2469 C 0.27978 0.32154 0.16662 0.0
C2470 C 0.29499 0.33575 0.16651 0.0
C2471 C 0.26846 0.31353 0.15 0.0
C2472 C 0.25221 0.29837 0.14934 0.0
C2473 C 0.23941 0.30069 0.16206 0.0
C2474 C 0.22431 0.28621 0.16157 0.0
C2475 C 0.2218 0.26936 0.14834 0.0
C2476 C 0.23435 0.26699 0.13553 0.0
C2477 C 0.24948 0.28142 0.13598 0.0
H2478 H 0.21011 0.25816 0.148 0.0
H2479 H 0.36083 0.39359 0.15341 0.0
H2480 H 0.28384 0.97655 0.02156 0.0
H2481 H 0.25812 0.99049 0.02209 0.0
H2482 H 0.2235 0.93582 0.02034 0.0
H2483 H 0.24939 0.92148 0.01932 0.0
H2484 H 0.21172 0.95667 0.99621 0.0
H2485 H 0.2332 0.96527 0.06046 0.0
H2486 H 0.25649 0.97439 0.08685 0.0
H2487 H 0.2677 0.03173 0.07914 0.0
H2488 H 0.2447 0.0229 0.05247 0.0
H2489 H 0.14074 0.99835 0.03199 0.0
H2490 H 0.16236 0.97972 0.02195 0.0
H2491 H 0.20244 0.03108 0.0251 0.0
H2492 H 0.18084 0.04986 0.03513 0.0
H2493 H 0.21007 0.0093 0.04876 0.0
H2494 H 0.1894 1.00093 0.98423 0.0
H2495 H 0.16921 0.99144 0.95526 0.0
H2496 H 0.1578 0.93379 0.96201 0.0
H2497 H 0.17764 0.94296 0.9912 0.0
C2498 C 0.27077 0.96747 0.02132 0.0
C2499 C 0.26845 0.94801 0.02057 0.0
C2500 C 0.25616 0.97545 0.02162 0.0
C2501 C 0.23915 0.96413 0.02156 0.0
C2502 C 0.23668 0.94463 0.02047 0.0
C2503 C 0.25136 0.93655 0.01996 0.0
C2504 C 0.22407 0.973 0.02289 0.0
C2505 C 0.21098 0.96793 0.00782 0.0
C2506 C 0.22377 0.98791 0.03793 0.0
C2507 C 0.23724 0.99339 0.0544 0.0
C2508 C 0.24067 0.97981 0.06434 0.0
C2509 C 0.25383 0.98493 0.07934 0.0
C2510 C 0.26357 0.00362 0.08466 0.0
C2511 C 0.26013 0.01725 0.07501 0.0
C2512 C 0.24701 0.0122 0.05997 0.0
C2513 C 0.15403 0.00565 0.03003 0.0
C2514 C 0.15931 0.02551 0.03459 0.0
C2515 C 0.16628 0.995 0.02416 0.0
C2516 C 0.18386 0.00411 0.02278 0.0
C2517 C 0.18883 0.02391 0.02609 0.0
C2518 C 0.17662 0.03457 0.03202 0.0
C2519 C 0.19772 0.99335 0.02178 0.0
C2520 C 0.21055 0.99795 0.03713 0.0
C2521 C 0.1977 0.97801 0.00699 0.0
C2522 C 0.18479 0.97273 0.99013 0.0
C2523 C 0.18231 0.9863 0.97977 0.0
C2524 C 0.171 0.98095 0.96323 0.0
C2525 C 0.16216 0.96204 0.95684 0.0
C2526 C 0.16458 0.94844 0.96701 0.0
C2527 C 0.17584 0.95372 0.98356 0.0
H2528 H 0.1535 0.95792 0.94398 0.0
H2529 H 0.27378 0.00755 0.09626 0.0
H2530 H 0.7247 0.67776 0.00279 0.0
H2531 H 0.69481 0.65811 0.00261 0.0
H2532 H 0.71615 0.60812 0.99412 0.0
H2533 H 0.74591 0.6276 0.99377 0.0
H2534 H 0.68624 0.60143 0.97294 0.0
H2535 H 0.70511 0.62885 0.03754 0.0
H2536 H 0.71641 0.6549 0.06463 0.0
H2537 H 0.67088 0.67797 0.056 0.0
H2538 H 0.65944 0.65222 0.02866 0.0
H2539 H 0.61096 0.53888 0.99769 0.0
H2540 H 0.64049 0.55782 0.99514 0.0
H2541 H 0.62009 0.60841 0.00516 0.0
H2542 H 0.59074 0.58958 0.00831 0.0
H2543 H 0.64978 0.61459 0.02558 0.0
H2544 H 0.63097 0.58691 0.96075 0.0
H2545 H 0.61996 0.56078 0.93365 0.0
H2546 H 0.66556 0.538 0.94289 0.0
H2547 H 0.67671 0.56384 0.97022 0.0
C2548 C 0.723 0.66258 0.00083 0.0
C2549 C 0.7377 0.65426 0.99838 0.0
C2550 C 0.70591 0.65135 0.00082 0.0
C2551 C 0.70322 0.63161 0.99864 0.0
C2552 C 0.71785 0.62329 0.99586 0.0
C2553 C 0.73489 0.63447 0.9957 0.0
C2554 C 0.68521 0.61959 0.99936 0.0
C2555 C 0.67835 0.60419 0.98456 0.0
C2556 C 0.67474 0.62332 0.01435 0.0
C2557 C 0.68151 0.6387 0.03094 0.0
C2558 C 0.69757 0.63955 0.04134 0.0
C2559 C 0.70399 0.65425 0.05675 0.0
C2560 C 0.69439 0.66811 0.06201 0.0
C2561 C 0.67831 0.66725 0.0519 0.0
C2562 C 0.67185 0.65259 0.03645 0.0
C2563 C 0.61268 0.55396 0.99902 0.0
C2564 C 0.59845 0.56266 0.00314 0.0
C2565 C 0.62962 0.56484 0.99758 0.0
C2566 C 0.63258 0.58461 -0.00019 0.0
C2567 C 0.61824 0.59323 0.00347 0.0
C2568 C 0.60142 0.58241 0.00519 0.0
C2569 C 0.65068 0.5965 0.99905 0.0
C2570 C 0.65762 0.61185 0.01391 0.0
C2571 C 0.66123 0.59268 0.98413 0.0
C2572 C 0.65458 0.57721 0.96764 0.0
C2573 C 0.63858 0.57625 0.95708 0.0
C2574 C 0.63233 0.5615 0.94167 0.0
C2575 C 0.64203 0.54771 0.93658 0.0
C2576 C 0.65804 0.54867 0.94687 0.0
C2577 C 0.66434 0.56337 0.96231 0.0
H2578 H 0.63717 0.5363 0.92465 0.0
H2579 H 0.69939 0.67948 0.07393 0.0
H2580 H 0.71954 0.46579 0.25078 0.0
H2581 H 0.73478 0.4398 0.2509 0.0
H2582 H 0.68769 0.40627 0.26726 0.0
H2583 H 0.67243 0.43219 0.26701 0.0
H2584 H 0.71405 0.39998 0.28635 0.0
H2585 H 0.70445 0.39628 0.2214 0.0
H2586 H 0.70512 0.40772 0.1919 0.0
H2587 H 0.76224 0.42342 0.19948 0.0
H2588 H 0.76189 0.41221 0.22915 0.0
H2589 H 0.74697 0.3168 0.28243 0.0
H2590 H 0.73068 0.33997 0.27698 0.0
H2591 H 0.77416 0.36705 0.24988 0.0
H2592 H 0.78926 0.34143 0.25254 0.0
H2593 H 0.74948 0.3773 0.23603 0.0
H2594 H 0.75729 0.38129 0.30346 0.0
H2595 H 0.75411 0.36899 0.33243 0.0
H2596 H 0.69742 0.35172 0.31925 0.0
H2597 H 0.70032 0.36371 0.29008 0.0
C2598 C 0.71227 0.4529 0.25434 0.0
C2599 C 0.69445 0.45162 0.2589 0.0
C2600 C 0.72111 0.43771 0.2543 0.0
C2601 C 0.71273 0.42033 0.25896 0.0
C2602 C 0.69494 0.41911 0.26358 0.0
C2603 C 0.68603 0.43419 0.26339 0.0
C2604 C 0.72247 0.4039 0.25964 0.0
C2605 C 0.72163 0.39505 0.27514 0.0
C2606 C 0.7328 0.39689 0.24541 0.0
C2607 C 0.73314 0.40361 0.2276 0.0
C2608 C 0.71715 0.4023 0.21685 0.0
C2609 C 0.71747 0.40871 0.20008 0.0
C2610 C 0.73371 0.41635 0.19385 0.0
C2611 C 0.74967 0.41752 0.20434 0.0
C2612 C 0.74942 0.41112 0.22113 0.0
C2613 C 0.75337 0.32758 0.27525 0.0
C2614 C 0.77037 0.32709 0.26886 0.0
C2615 C 0.74393 0.34154 0.27248 0.0
C2616 C 0.75119 0.357 0.26421 0.0
C2617 C 0.76788 0.35613 0.25694 0.0
C2618 C 0.77696 0.34137 0.25881 0.0
C2619 C 0.74138 0.37345 0.26304 0.0
C2620 C 0.7421 0.38231 0.24737 0.0
C2621 C 0.73073 0.38042 0.27709 0.0
C2622 C 0.72905 0.3733 0.2946 0.0
C2623 C 0.74417 0.37483 0.30675 0.0
C2624 C 0.7424 0.3679 0.32319 0.0
C2625 C 0.72556 0.3596 0.3277 0.0
C2626 C 0.71045 0.35817 0.31576 0.0
C2627 C 0.71214 0.36503 0.29928 0.0
H2628 H 0.72418 0.35434 0.34047 0.0
H2629 H 0.73393 0.42132 0.18087 0.0
H2630 H 0.86549 0.49068 0.50056 0.0
H2631 H 0.89661 0.49147 0.49616 0.0
H2632 H 0.89506 0.44551 0.52507 0.0
H2633 H 0.86387 0.44462 0.52978 0.0
H2634 H 0.92133 0.47879 0.53855 0.0
H2635 H 0.90406 0.4339 0.48184 0.0
H2636 H 0.88658 0.41784 0.45189 0.0
H2637 H 0.90179 0.4684 0.43021 0.0
H2638 H 0.91927 0.48479 0.46 0.0
H2639 H 0.00878 0.49766 0.5219 0.0
H2640 H 0.97999 0.47815 0.50868 0.0
H2641 H 0.95982 0.52821 0.50836 0.0
H2642 H 0.98925 0.54817 0.52117 0.0
H2643 H 0.94675 0.48112 0.47783 0.0
H2644 H 0.9448 0.52554 0.54139 0.0
H2645 H 0.96572 0.54562 0.5676 0.0
H2646 H 0.98773 0.49827 0.57383 0.0
H2647 H 0.96706 0.47801 0.54744 0.0
C2648 C 0.87179 0.48092 0.50619 0.0
C2649 C 0.86231 0.46761 0.51543 0.0
C2650 C 0.88934 0.48101 0.50322 0.0
C2651 C 0.89755 0.46789 0.50954 0.0
C2652 C 0.88851 0.4552 0.51958 0.0
C2653 C 0.87091 0.45505 0.52255 0.0
C2654 C 0.91651 0.47027 0.50851 0.0
C2655 C 0.92704 0.47866 0.52529 0.0
C2656 C 0.92368 0.47024 0.49113 0.0
C2657 C 0.91297 0.46057 0.47321 0.0
C2658 C 0.90358 0.44163 0.47073 0.0
C2659 C 0.89372 0.43245 0.45375 0.0
C2660 C 0.89308 0.44209 0.43916 0.0
C2661 C 0.90233 0.46093 0.4415 0.0
C2662 C 0.91227 0.47015 0.45841 0.0
C2663 C 0.99827 0.50451 0.51866 0.0
C2664 C 0.00081 0.52423 0.52272 0.0
C2665 C 0.98213 0.49339 0.51064 0.0
C2666 C 0.96822 0.50192 0.50739 0.0
C2667 C 0.97081 0.52167 0.51058 0.0
C2668 C 0.98725 0.53295 0.51843 0.0
C2669 C 0.95062 0.49068 0.5076 0.0
C2670 C 0.94099 0.48054 0.49092 0.0
C2671 C 0.94404 0.48926 0.52497 0.0
C2672 C 0.95432 0.50028 0.54265 0.0
C2673 C 0.95384 0.51935 0.54866 0.0
C2674 C 0.96576 0.5308 0.56338 0.0
C2675 C 0.97806 0.52324 0.57234 0.0
C2676 C 0.9782 0.5041 0.56686 0.0
C2677 C 0.96637 0.49262 0.55204 0.0
H2678 H 0.98754 0.53229 0.58342 0.0
H2679 H 0.88543 0.43496 0.42603 0.0
H2680 H 0.35844 0.0667 0.30863 0.0
H2681 H 0.34517 0.08771 0.29336 0.0
H2682 H 0.39625 0.12699 0.2994 0.0
H2683 H 0.40951 0.10647 0.31518 0.0
H2684 H 0.37099 0.14419 0.30656 0.0
H2685 H 0.38071 0.09768 0.25627 0.0
H2686 H 0.37996 0.0667 0.23615 0.0
H2687 H 0.32282 0.05382 0.23103 0.0
H2688 H 0.32319 0.08456 0.25128 0.0
H2689 H 0.32732 0.18964 0.24471 0.0
H2690 H 0.34866 0.17528 0.25918 0.0
H2691 H 0.30603 0.12812 0.26313 0.0
H2692 H 0.28456 0.14254 0.24877 0.0
H2693 H 0.33395 0.11787 0.24638 0.0
H2694 H 0.32509 0.16162 0.30247 0.0
H2695 H 0.32679 0.1912 0.32538 0.0
H2696 H 0.38284 0.20822 0.32059 0.0
H2697 H 0.38143 0.17885 0.29754 0.0
C2698 C 0.36667 0.08017 0.30736 0.0
C2699 C 0.38504 0.0848 0.31267 0.0
C2700 C 0.35921 0.09184 0.29818 0.0
C2701 C 0.37005 0.10824 0.29443 0.0
C2702 C 0.38789 0.11402 0.30173 0.0
C2703 C 0.39532 0.10247 0.31109 0.0
C2704 C 0.36233 0.12003 0.28405 0.0
C2705 C 0.36321 0.13863 0.29316 0.0
C2706 C 0.35223 0.11251 0.26664 0.0
C2707 C 0.352 0.09343 0.25547 0.0
C2708 C 0.36798 0.08814 0.2511 0.0
C2709 C 0.36762 0.07063 0.23959 0.0
C2710 C 0.35136 0.05829 0.23235 0.0
C2711 C 0.33541 0.06338 0.23666 0.0
C2712 C 0.3357 0.08085 0.24815 0.0
C2713 C 0.32255 0.17618 0.24868 0.0
C2714 C 0.30439 0.167 0.24561 0.0
C2715 C 0.33469 0.16818 0.25708 0.0
C2716 C 0.32877 0.15089 0.26237 0.0
C2717 C 0.31069 0.1416 0.25915 0.0
C2718 C 0.29853 0.14962 0.25077 0.0
C2719 C 0.34152 0.14144 0.26967 0.0
C2720 C 0.34196 0.12347 0.25965 0.0
C2721 C 0.3528 0.1495 0.28627 0.0
C2722 C 0.35304 0.16826 0.29792 0.0
C2723 C 0.33766 0.17192 0.3059 0.0
C2724 C 0.33862 0.18857 0.31905 0.0
C2725 C 0.35488 0.20164 0.32435 0.0
C2726 C 0.37022 0.19817 0.31638 0.0
C2727 C 0.36934 0.18156 0.30325 0.0
H2728 H 0.35563 0.21439 0.33471 0.0
H2729 H 0.35111 0.0448 0.22336 0.0
H2730 H 0.32447 0.12164 0.50087 0.0
H2731 H 0.35293 0.11271 0.50281 0.0
H2732 H 0.38062 0.17106 0.50952 0.0
H2733 H 0.35184 0.18026 0.50743 0.0
H2734 H 0.39615 0.1385 0.48534 0.0
H2735 H 0.38038 0.16208 0.54673 0.0
H2736 H 0.35929 0.16595 0.57059 0.0
H2737 H 0.34534 0.10586 0.56671 0.0
H2738 H 0.3662 0.10161 0.54266 0.0
H2739 H 0.4673 0.10289 0.52823 0.0
H2740 H 0.44842 0.12349 0.51988 0.0
H2741 H 0.40168 0.0795 0.52005 0.0
H2742 H 0.42033 0.05888 0.52799 0.0
H2743 H 0.40134 0.11366 0.54325 0.0
H2744 H 0.41469 0.09 0.47997 0.0
H2745 H 0.43493 0.08542 0.45537 0.0
H2746 H 0.45379 0.14556 0.46273 0.0
H2747 H 0.4338 0.15048 0.48755 0.0
C2748 C 0.33657 0.1326 0.50243 0.0
C2749 C 0.33593 0.15169 0.50431 0.0
C2750 C 0.35282 0.12744 0.50341 0.0
C2751 C 0.36879 0.14125 0.50644 0.0
C2752 C 0.36837 0.16023 0.50708 0.0
C2753 C 0.35197 0.16544 0.50596 0.0
C2754 C 0.38534 0.13562 0.51145 0.0
C2755 C 0.39767 0.13353 0.49821 0.0
C2756 C 0.38714 0.12906 0.52817 0.0
C2757 C 0.37479 0.13154 0.54285 0.0
C2758 C 0.37274 0.14969 0.5509 0.0
C2759 C 0.36084 0.15195 0.56447 0.0
C2760 C 0.35097 0.13616 0.57015 0.0
C2761 C 0.35301 0.11808 0.56231 0.0
C2762 C 0.36489 0.11574 0.54874 0.0
C2763 C 0.45302 0.09752 0.5261 0.0
C2764 C 0.44527 0.07937 0.52901 0.0
C2765 C 0.44228 0.1093 0.52138 0.0
C2766 C 0.42368 0.10304 0.51951 0.0
C2767 C 0.41602 0.08465 0.52161 0.0
C2768 C 0.42668 0.07292 0.52625 0.0
C2769 C 0.41185 0.11581 0.51686 0.0
C2770 C 0.40032 0.1192 0.53064 0.0
C2771 C 0.41096 0.12359 0.50071 0.0
C2772 C 0.42292 0.1206 0.48578 0.0
C2773 C 0.42327 0.10224 0.47647 0.0
C2774 C 0.43467 0.09958 0.46245 0.0
C2775 C 0.44569 0.11519 0.45754 0.0
C2776 C 0.44528 0.13348 0.46658 0.0
C2777 C 0.43391 0.13621 0.48061 0.0
H2778 H 0.4545 0.1131 0.44668 0.0
H2779 H 0.34175 0.13794 0.58064 0.0
H2780 H 0.71607 0.56649 0.27894 0.0
H2781 H 0.73445 0.59882 0.28158 0.0
H2782 H 0.68886 0.61637 0.26093 0.0
H2783 H 0.67077 0.58466 0.25828 0.0
H2784 H 0.71512 0.63182 0.24494 0.0
H2785 H 0.70702 0.6293 0.30822 0.0
H2786 H 0.70794 0.61774 0.33759 0.0
H2787 H 0.76489 0.62733 0.3394 0.0
H2788 H 0.76428 0.63872 0.30986 0.0
H2789 H 0.74601 0.73262 0.2689 0.0
H2790 H 0.73035 0.7 0.2679 0.0
H2791 H 0.77965 0.68652 0.28402 0.0
H2792 H 0.79547 0.71928 0.28501 0.0
H2793 H 0.75294 0.66863 0.30203 0.0
H2794 H 0.75929 0.67338 0.23793 0.0
H2795 H 0.75609 0.68639 0.20966 0.0
H2796 H 0.69928 0.67376 0.21071 0.0
H2797 H 0.70215 0.66099 0.23918 0.0
C2798 C 0.70995 0.5772 0.27493 0.0
C2799 C 0.69169 0.5725 0.2684 0.0
C2800 C 0.72051 0.59591 0.27656 0.0
C2801 C 0.71327 0.6106 0.27156 0.0
C2802 C 0.69513 0.60573 0.26489 0.0
C2803 C 0.68464 0.58729 0.26344 0.0
C2804 C 0.72422 0.63087 0.2729 0.0
C2805 C 0.72323 0.63979 0.25756 0.0
C2806 C 0.73515 0.64178 0.28915 0.0
C2807 C 0.73558 0.63459 0.30668 0.0
C2808 C 0.71972 0.62873 0.31475 0.0
C2809 C 0.72019 0.62226 0.33146 0.0
C2810 C 0.73646 0.62173 0.34031 0.0
C2811 C 0.75229 0.62769 0.33249 0.0
C2812 C 0.7519 0.63416 0.31576 0.0
C2813 C 0.75371 0.72286 0.27223 0.0
C2814 C 0.77236 0.72905 0.27675 0.0
C2815 C 0.7446 0.70392 0.27158 0.0
C2816 C 0.75361 0.69018 0.27553 0.0
C2817 C 0.77212 0.69644 0.28071 0.0
C2818 C 0.7813 0.7154 0.28119 0.0
C2819 C 0.7438 0.66949 0.27407 0.0
C2820 C 0.74495 0.66055 0.28937 0.0
C2821 C 0.73269 0.65864 0.2579 0.0
C2822 C 0.73096 0.6664 0.24082 0.0
C2823 C 0.74612 0.67353 0.23224 0.0
C2824 C 0.74437 0.68085 0.21616 0.0
C2825 C 0.7275 0.68095 0.20842 0.0
C2826 C 0.71234 0.67371 0.21674 0.0
C2827 C 0.71403 0.66644 0.23284 0.0
H2828 H 0.72617 0.6866 0.19597 0.0
H2829 H 0.7368 0.61675 0.35327 0.0
H2830 H 0.88721 0.47256 0.74835 0.0
H2831 H 0.86661 0.44145 0.74482 0.0
H2832 H 0.85836 0.45417 0.80323 0.0
H2833 H 0.87825 0.48524 0.8067 0.0
H2834 H 0.87572 0.41769 0.77537 0.0
H2835 H 0.8264 0.45263 0.79625 0.0
H2836 H 0.80954 0.47554 0.7888 0.0
H2837 H 0.79717 0.44406 0.73239 0.0
H2838 H 0.81437 0.42123 0.73947 0.0
H2839 H 0.83795 0.34162 0.80453 0.0
H2840 H 0.84302 0.37571 0.80743 0.0
H2841 H 0.80535 0.36717 0.75925 0.0
H2842 H 0.79654 0.33374 0.76004 0.0
H2843 H 0.80987 0.40093 0.77546 0.0
H2844 H 0.85164 0.36156 0.75537 0.0
H2845 H 0.86815 0.33773 0.76109 0.0
H2846 H 0.89564 0.37561 0.81075 0.0
H2847 H 0.8793 0.39964 0.80529 0.0
C2848 C 0.88059 0.46874 0.76022 0.0
C2849 C 0.88395 0.48102 0.7777 0.0
C2850 C 0.86888 0.45122 0.75818 0.0
C2851 C 0.86083 0.4461 0.77368 0.0
C2852 C 0.86407 0.45844 0.79106 0.0
C2853 C 0.87543 0.476 0.79303 0.0
C2854 C 0.85123 0.42688 0.77281 0.0
C2855 C 0.86132 0.4138 0.77514 0.0
C2856 C 0.83259 0.42217 0.77227 0.0
C2857 C 0.82175 0.43541 0.76832 0.0
C2858 C 0.82018 0.4507 0.78224 0.0
C2859 C 0.81058 0.46366 0.77809 0.0
C2860 C 0.80232 0.46129 0.76012 0.0
C2861 C 0.80361 0.44591 0.74629 0.0
C2862 C 0.8133 0.43299 0.75035 0.0
C2863 C 0.82977 0.34727 0.79569 0.0
C2864 C 0.81655 0.33543 0.78256 0.0
C2865 C 0.83292 0.36659 0.79697 0.0
C2866 C 0.82536 0.37365 0.78281 0.0
C2867 C 0.81147 0.36195 0.77019 0.0
C2868 C 0.80673 0.34287 0.77044 0.0
C2869 C 0.83439 0.39171 0.77878 0.0
C2870 C 0.82424 0.40451 0.77531 0.0
C2871 C 0.85309 0.39601 0.77776 0.0
C2872 C 0.86434 0.38242 0.77985 0.0
C2873 C 0.86141 0.36489 0.76733 0.0
C2874 C 0.87067 0.35132 0.77059 0.0
C2875 C 0.88296 0.35517 0.78625 0.0
C2876 C 0.88619 0.37269 0.79857 0.0
C2877 C 0.87702 0.38633 0.79534 0.0
H2878 H 0.88996 0.34457 0.78887 0.0
H2879 H 0.7949 0.47134 0.75693 0.0
H2880 H 0.09938 0.85953 0.06467 0.0
H2881 H 0.09522 0.88695 0.05173 0.0
H2882 H 0.05003 0.89031 0.08332 0.0
H2883 H 0.0545 0.86355 0.09674 0.0
H2884 H 0.04467 0.89123 0.04318 0.0
H2885 H 0.0847 0.92062 0.09901 0.0
H2886 H 0.11248 0.9267 0.11949 0.0
H2887 H 0.1428 0.94477 0.07599 0.0
H2888 H 0.11518 0.93851 0.05513 0.0
H2889 H 0.0367 0.99061 0.06137 0.0
H2890 H 0.04246 0.96025 0.06551 0.0
H2891 H 0.06863 0.95584 0.01484 0.0
H2892 H 0.06177 0.98576 0.01 0.0
H2893 H 0.08588 0.95447 0.06006 0.0
H2894 H 0.04773 0.92474 0.00369 0.0
H2895 H 0.02104 0.91614 0.98127 0.0
H2896 H 0.98887 0.89744 0.02324 0.0
H2897 H 0.01539 0.90629 0.04604 0.0
C2898 C 0.08857 0.86613 0.06885 0.0
C2899 C 0.07728 0.85931 0.08179 0.0
C2900 C 0.08624 0.88185 0.06149 0.0
C2901 C 0.0723 0.89078 0.06654 0.0
C2902 C 0.06088 0.88374 0.07919 0.0
C2903 C 0.06348 0.86843 0.08689 0.0
C2904 C 0.06929 0.9073 0.05864 0.0
C2905 C 0.05371 0.90504 0.0469 0.0
C2906 C 0.08128 0.92528 0.06297 0.0
C2907 C 0.09789 0.9288 0.07541 0.0
C2908 C 0.0973 0.92564 0.09372 0.0
C2909 C 0.11302 0.92918 0.10542 0.0
C2910 C 0.12941 0.93604 0.09902 0.0
C2911 C 0.1301 0.9394 0.08091 0.0
C2912 C 0.11442 0.93586 0.06914 0.0
C2913 C 0.04291 0.98273 0.05063 0.0
C2914 C 0.04813 0.99026 0.03499 0.0
C2915 C 0.04643 0.96548 0.05315 0.0
C2916 C 0.05586 0.95559 0.04045 0.0
C2917 C 0.06102 0.96296 0.02467 0.0
C2918 C 0.05696 0.97999 0.02182 0.0
C2919 C 0.06119 0.93836 0.04468 0.0
C2920 C 0.07705 0.94055 0.05601 0.0
C2921 C 0.04966 0.92021 0.0397 0.0
C2922 C 0.03349 0.91646 0.02664 0.0
C2923 C 0.03491 0.9192 0.00827 0.0
C2924 C 0.01985 0.91408 0.99543 0.0
C2925 C 0.0033 0.90605 0.00077 0.0
C2926 C 0.00172 0.90351 0.01908 0.0
C2927 C 0.01676 0.90862 0.03198 0.0
H2928 H 0.99166 0.90201 0.99078 0.0
H2929 H 0.14155 0.9388 0.10812 0.0
H2930 H 0.95985 0.23438 0.8717 0.0
H2931 H 0.93081 0.23376 0.85596 0.0
H2932 H 0.9295 0.28642 0.89244 0.0
H2933 H 0.95837 0.2868 0.90832 0.0
H2934 H 0.89595 0.26352 0.88459 0.0
H2935 H 0.94459 0.28552 0.84899 0.0
H2936 H 0.97168 0.28182 0.8336 0.0
H2937 H 0.94226 0.23086 0.79716 0.0
H2938 H 0.91502 0.23415 0.8125 0.0
H2939 H 0.83236 0.2931 0.83428 0.0
H2940 H 0.8598 0.29138 0.84997 0.0
H2941 H 0.86619 0.24779 0.8043 0.0
H2942 H 0.84062 0.25285 0.78655 0.0
H2943 H 0.8968 0.26368 0.81697 0.0
H2944 H 0.84702 0.24281 0.85107 0.0
H2945 H 0.81976 0.24855 0.86501 0.0
H2946 H 0.85086 0.29599 0.90484 0.0
H2947 H 0.8782 0.29102 0.89066 0.0
C2948 C 0.95302 0.24543 0.8768 0.0
C2949 C 0.9612 0.26039 0.89156 0.0
C2950 C 0.9365 0.24523 0.86763 0.0
C2951 C 0.92791 0.2602 0.87274 0.0
C2952 C 0.93568 0.27465 0.88816 0.0
C2953 C 0.95217 0.2748 0.89735 0.0
C2954 C 0.91172 0.26166 0.86122 0.0
C2955 C 0.89616 0.26359 0.86982 0.0
C2956 C 0.91169 0.26148 0.84182 0.0
C2957 C 0.9278 0.26003 0.83194 0.0
C2958 C 0.9439 0.27354 0.83768 0.0
C2959 C 0.95929 0.27149 0.829 0.0
C2960 C 0.95869 0.2561 0.81443 0.0
C2961 C 0.94269 0.24278 0.80844 0.0
C2962 C 0.92726 0.24474 0.8171 0.0
C2963 C 0.83986 0.28385 0.82696 0.0
C2964 C 0.83437 0.27395 0.80852 0.0
C2965 C 0.85548 0.28222 0.83646 0.0
C2966 C 0.86509 0.26879 0.82897 0.0
C2967 C 0.85928 0.25828 0.81074 0.0
C2968 C 0.8444 0.26106 0.80059 0.0
C2969 C 0.88076 0.26553 0.84027 0.0
C2970 C 0.89633 0.2633 0.83166 0.0
C2971 C 0.8807 0.26518 0.85966 0.0
C2972 C 0.86466 0.26659 0.86973 0.0
C2973 C 0.84805 0.25441 0.86286 0.0
C2974 C 0.83255 0.25771 0.87061 0.0
C2975 C 0.83356 0.27271 0.88571 0.0
C2976 C 0.85009 0.28439 0.89313 0.0
C2977 C 0.86559 0.28138 0.8852 0.0
H2978 H 0.82156 0.27517 0.89176 0.0
H2979 H 0.97063 0.2545 0.80777 0.0
H2980 H 0.57115 0.22926 0.60926 0.0
H2981 H 0.56746 0.19728 0.59183 0.0
H2982 H 0.57189 0.21751 0.54048 0.0
H2983 H 0.57574 0.25036 0.55814 0.0
H2984 H 0.54325 0.18002 0.54139 0.0
H2985 H 0.60601 0.20773 0.55203 0.0
H2986 H 0.63322 0.2273 0.57091 0.0
H2987 H 0.62612 0.19138 0.61093 0.0
H2988 H 0.59871 0.17178 0.59244 0.0
H2989 H 0.55412 0.08379 0.50957 0.0
H2990 H 0.55945 0.11821 0.51254 0.0
H2991 H 0.56737 0.12549 0.57237 0.0
H2992 H 0.5619 0.09119 0.56943 0.0
H2993 H 0.59218 0.15081 0.55877 0.0
H2994 H 0.52856 0.12501 0.5502 0.0
H2995 H 0.50035 0.10596 0.53308 0.0
H2996 H 0.50762 0.1384 0.49012 0.0
H2997 H 0.53626 0.15728 0.5067 0.0
C2998 C 0.57129 0.22716 0.59424 0.0
C2999 C 0.57408 0.24264 0.58521 0.0
C3000 C 0.56905 0.20869 0.58426 0.0
C3001 C 0.56953 0.20492 0.56488 0.0
C3002 C 0.57147 0.22009 0.55548 0.0
C3003 C 0.57374 0.23886 0.56558 0.0
C3004 C 0.56953 0.18519 0.55535 0.0
C3005 C 0.55415 0.17368 0.54464 0.0
C3006 C 0.58359 0.17682 0.55991 0.0
C3007 C 0.60028 0.18833 0.57087 0.0
C3008 C 0.61021 0.20407 0.5649 0.0
C3009 C 0.62567 0.21516 0.57553 0.0
C3010 C 0.63139 0.2106 0.59211 0.0
C3011 C 0.62168 0.1949 0.59807 0.0
C3012 C 0.6062 0.18377 0.58751 0.0
C3013 C 0.55741 0.09274 0.52331 0.0
C3014 C 0.55783 0.08477 0.5393 0.0
C3015 C 0.56027 0.11244 0.525 0.0
C3016 C 0.56366 0.1245 0.5427 0.0
C3017 C 0.56477 0.11653 0.55856 0.0
C3018 C 0.5617 0.09692 0.55689 0.0
C3019 C 0.56573 0.14541 0.54516 0.0
C3020 C 0.5815 0.15714 0.55479 0.0
C3021 C 0.55198 0.15384 0.53956 0.0
C3022 C 0.53479 0.14234 0.52953 0.0
C3023 C 0.52433 0.12791 0.53696 0.0
C3024 C 0.50821 0.11716 0.52736 0.0
C3025 C 0.50221 0.12091 0.51048 0.0
C3026 C 0.51233 0.13544 0.50316 0.0
C3027 C 0.52854 0.14613 0.51262 0.0
H3028 H 0.48969 0.11262 0.50311 0.0
H3029 H 0.64336 0.21921 0.60033 0.0
H3030 H 0.55436 0.77046 0.3762 0.0
H3031 H 0.58173 0.77466 0.36061 0.0
H3032 H 0.60994 0.76263 0.40754 0.0
H3033 H 0.58268 0.75977 0.42377 0.0
H3034 H 0.63142 0.78833 0.39506 0.0
H3035 H 0.59405 0.72854 0.36396 0.0
H3036 H 0.56555 0.70821 0.34848 0.0
H3037 H 0.5678 0.74066 0.30552 0.0
H3038 H 0.59621 0.76131 0.32085 0.0
H3039 H 0.70558 0.78474 0.33911 0.0
H3040 H 0.68151 0.77546 0.35861 0.0
H3041 H 0.64317 0.78212 0.31699 0.0
H3042 H 0.66659 0.78961 0.29711 0.0
H3043 H 0.62826 0.75489 0.32925 0.0
H3044 H 0.66368 0.81666 0.36191 0.0
H3045 H 0.69083 0.83875 0.37863 0.0
H3046 H 0.69173 0.80371 0.41902 0.0
H3047 H 0.66472 0.7813 0.4024 0.0
C3048 C 0.56638 0.76866 0.38319 0.0
C3049 C 0.56627 0.76449 0.4011 0.0
C3050 C 0.58208 0.77097 0.3742 0.0
C3051 C 0.59797 0.76835 0.38251 0.0
C3052 C 0.59794 0.76458 0.40064 0.0
C3053 C 0.58231 0.76284 0.40989 0.0
C3054 C 0.61439 0.7693 0.37211 0.0
C3055 C 0.63077 0.7808 0.38074 0.0
C3056 C 0.61377 0.75958 0.35337 0.0
C3057 C 0.59725 0.74647 0.34356 0.0
C3058 C 0.58849 0.73129 0.35117 0.0
C3059 C 0.57233 0.71974 0.34245 0.0
C3060 C 0.56487 0.72314 0.32603 0.0
C3061 C 0.57361 0.73802 0.31822 0.0
C3062 C 0.58977 0.74962 0.32689 0.0
C3063 C 0.69197 0.78385 0.33398 0.0
C3064 C 0.68824 0.78842 0.31659 0.0
C3065 C 0.67816 0.77883 0.34532 0.0
C3066 C 0.66032 0.77856 0.3397 0.0
C3067 C 0.65665 0.78229 0.32198 0.0
C3068 C 0.67025 0.78687 0.3106 0.0
C3069 C 0.64524 0.77469 0.35183 0.0
C3070 C 0.62905 0.76239 0.34359 0.0
C3071 C 0.64608 0.78376 0.37088 0.0
C3072 C 0.66234 0.79719 0.38077 0.0
C3073 C 0.66976 0.81361 0.37427 0.0
C3074 C 0.68511 0.82619 0.38374 0.0
C3075 C 0.69304 0.8226 0.39983 0.0
C3076 C 0.68561 0.80644 0.40652 0.0
C3077 C 0.67029 0.7938 0.39708 0.0
H3078 H 0.70491 0.83236 0.40715 0.0
H3079 H 0.55231 0.71425 0.31935 0.0
H3080 H 0.0701 0.24607 0.39427 0.0
H3081 H 0.06493 0.21915 0.40961 0.0
H3082 H 0.09236 0.25493 0.46078 0.0
H3083 H 0.0978 0.28205 0.44546 0.0
H3084 H 0.10261 0.22037 0.45102 0.0
H3085 H 0.0491 0.24374 0.45762 0.0
H3086 H 0.02363 0.25454 0.44541 0.0
H3087 H 0.00435 0.20018 0.40922 0.0
H3088 H 0.02987 0.18913 0.42107 0.0
H3089 H 0.0679 0.17208 0.52084 0.0
H3090 H 0.07848 0.1934 0.49986 0.0
H3091 H 0.04997 0.15158 0.45278 0.0
H3092 H 0.03959 0.13008 0.47376 0.0
H3093 H 0.04098 0.18657 0.45703 0.0
H3094 H 0.09332 0.16224 0.45289 0.0
H3095 H 0.12035 0.15251 0.46272 0.0
H3096 H 0.14255 0.20887 0.49358 0.0
H3097 H 0.11561 0.21892 0.48406 0.0
C3098 C 0.07496 0.24826 0.40882 0.0
C3099 C 0.08427 0.26613 0.41875 0.0
C3100 C 0.07202 0.23288 0.4175 0.0
C3101 C 0.07825 0.2352 0.43625 0.0
C3102 C 0.08754 0.25299 0.44624 0.0
C3103 C 0.09049 0.26843 0.43755 0.0
C3104 C 0.0747 0.21904 0.44551 0.0
C3105 C 0.08918 0.21305 0.45259 0.0
C3106 C 0.05713 0.20928 0.44682 0.0
C3107 C 0.04145 0.21565 0.44014 0.0
C3108 C 0.03946 0.23411 0.44701 0.0
C3109 C 0.02502 0.24028 0.44016 0.0
C3110 C 0.01239 0.22807 0.42652 0.0
C3111 C 0.01414 0.20962 0.41978 0.0
C3112 C 0.02858 0.20339 0.42659 0.0
C3113 C 0.06409 0.16745 0.50599 0.0
C3114 C 0.05282 0.14969 0.49883 0.0
C3115 C 0.07028 0.17946 0.49403 0.0
C3116 C 0.06509 0.17392 0.47483 0.0
C3117 C 0.05421 0.15595 0.46757 0.0
C3118 C 0.04825 0.14379 0.47951 0.0
C3119 C 0.06894 0.18797 0.46296 0.0
C3120 C 0.05446 0.19368 0.45536 0.0
C3121 C 0.08653 0.1975 0.46128 0.0
C3122 C 0.10233 0.19127 0.46792 0.0
C3123 C 0.10384 0.17249 0.462 0.0
C3124 C 0.11919 0.16694 0.46744 0.0
C3125 C 0.13313 0.18005 0.47881 0.0
C3126 C 0.13173 0.19872 0.4848 0.0
C3127 C 0.11644 0.20436 0.47936 0.0
H3128 H 0.14503 0.17574 0.48294 0.0
H3129 H 0.00124 0.23288 0.42119 0.0
H3130 H 0.56471 0.25806 0.14432 0.0
H3131 H 0.59317 0.25335 0.15663 0.0
H3132 H 0.57457 0.25688 0.2115 0.0
H3133 H 0.54649 0.26192 0.19956 0.0
H3134 H 0.60546 0.28287 0.20991 0.0
H3135 H 0.58022 0.21561 0.18966 0.0
H3136 H 0.56572 0.18692 0.1664 0.0
H3137 H 0.60918 0.19652 0.13244 0.0
H3138 H 0.62389 0.22533 0.15547 0.0
H3139 H 0.66534 0.25324 0.26669 0.0
H3140 H 0.64014 0.25851 0.24845 0.0
H3141 H 0.66769 0.25102 0.1987 0.0
H3142 H 0.69265 0.24519 0.21671 0.0
H3143 H 0.6347 0.2292 0.1937 0.0
H3144 H 0.66117 0.29533 0.21667 0.0
H3145 H 0.67409 0.32503 0.2393 0.0
H3146 H 0.62701 0.31792 0.26847 0.0
H3147 H 0.61386 0.28818 0.24607 0.0
C3148 C 0.56672 0.25768 0.15896 0.0
C3149 C 0.5537 0.26078 0.17112 0.0
C3150 C 0.58282 0.25483 0.16588 0.0
C3151 C 0.58579 0.25492 0.1849 0.0
C3152 C 0.57241 0.25694 0.19679 0.0
C3153 C 0.55647 0.25993 0.18997 0.0
C3154 C 0.60344 0.25515 0.19308 0.0
C3155 C 0.61187 0.27109 0.20654 0.0
C3156 C 0.61182 0.24005 0.18797 0.0
C3157 C 0.60306 0.2227 0.17418 0.0
C3158 C 0.58662 0.21166 0.17717 0.0
C3159 C 0.57839 0.19536 0.16405 0.0
C3160 C 0.5865 0.18993 0.14793 0.0
C3161 C 0.60291 0.20075 0.14493 0.0
C3162 C 0.61121 0.21704 0.15802 0.0
C3163 C 0.66592 0.25263 0.25185 0.0
C3164 C 0.68076 0.24865 0.24302 0.0
C3165 C 0.65173 0.25595 0.24154 0.0
C3166 C 0.65228 0.25537 0.22234 0.0
C3167 C 0.66717 0.25164 0.21355 0.0
C3168 C 0.68134 0.2483 0.22383 0.0
C3169 C 0.63653 0.2567 0.21116 0.0
C3170 C 0.62847 0.24111 0.19698 0.0
C3171 C 0.62835 0.27209 0.21573 0.0
C3172 C 0.63663 0.28942 0.22981 0.0
C3173 C 0.65369 0.29998 0.22806 0.0
C3174 C 0.66101 0.31687 0.24079 0.0
C3175 C 0.6514 0.32332 0.25535 0.0
C3176 C 0.63445 0.3129 0.25721 0.0
C3177 C 0.62705 0.29605 0.24448 0.0
H3178 H 0.65707 0.33643 0.26515 0.0
H3179 H 0.5801 0.17732 0.13778 0.0
H3180 H 0.59675 0.85912 0.92861 0.0
H3181 H 0.58653 0.88638 0.94346 0.0
H3182 H 0.60393 0.91526 0.8994 0.0
H3183 H 0.61364 0.88726 0.88348 0.0
H3184 H 0.61667 0.93067 0.94213 0.0
H3185 H 0.56493 0.90703 0.89735 0.0
H3186 H 0.53956 0.88292 0.87963 0.0
H3187 H 0.5177 0.87383 0.93074 0.0
H3188 H 0.54307 0.89753 0.9488 0.0
H3189 H 0.58152 0.00726 0.98201 0.0
H3190 H 0.59287 0.98219 0.96326 0.0
H3191 H 0.55985 0.94093 0.98907 0.0
H3192 H 0.54836 0.96629 0.00785 0.0
H3193 H 0.55402 0.93304 0.95169 0.0
H3194 H 0.60181 0.94993 0.99719 0.0
H3195 H 0.62733 0.96781 0.0194 0.0
H3196 H 0.65748 0.98083 0.97402 0.0
H3197 H 0.6317 0.96435 0.95156 0.0
C3198 C 0.59853 0.87119 0.92194 0.0
C3199 C 0.60589 0.87102 0.90476 0.0
C3200 C 0.59238 0.88657 0.93032 0.0
C3201 C 0.59394 0.90221 0.92198 0.0
C3202 C 0.60221 0.9028 0.90549 0.0
C3203 C 0.60801 0.88707 0.89671 0.0
C3204 C 0.58914 0.91871 0.93247 0.0
C3205 C 0.60304 0.9318 0.94389 0.0
C3206 C 0.57121 0.91865 0.93539 0.0
C3207 C 0.55605 0.90405 0.92446 0.0
C3208 C 0.55485 0.89974 0.90484 0.0
C3209 C 0.54042 0.88616 0.89473 0.0
C3210 C 0.52704 0.87685 0.90405 0.0
C3211 C 0.52807 0.88105 0.92352 0.0
C3212 C 0.54247 0.89457 0.9337 0.0
C3213 C 0.57706 0.99284 0.98385 0.0
C3214 C 0.56418 0.98822 0.99593 0.0
C3215 C 0.58355 0.97867 0.97333 0.0
C3216 C 0.5771 0.95993 0.97494 0.0
C3217 C 0.56485 0.95546 0.98782 0.0
C3218 C 0.55838 0.96973 0.99843 0.0
C3219 C 0.58164 0.94501 0.96151 0.0
C3220 C 0.56771 0.9323 0.9497 0.0
C3221 C 0.59953 0.9446 0.95896 0.0
C3222 C 0.61461 0.95606 0.9726 0.0
C3223 C 0.61365 0.95709 0.99191 0.0
C3224 C 0.62821 0.967 0.00459 0.0
C3225 C 0.644 0.97554 0.99815 0.0
C3226 C 0.6452 0.97433 0.97902 0.0
C3227 C 0.63054 0.96489 0.96631 0.0
H3228 H 0.65533 0.98304 0.00797 0.0
H3229 H 0.51584 0.86642 0.8962 0.0
H3230 H 0.944 0.74849 0.66409 0.0
H3231 H 0.9148 0.75013 0.67476 0.0
H3232 H 0.9357 0.75341 0.73137 0.0
H3233 H 0.96462 0.75114 0.7208 0.0
H3234 H 0.9026 0.73362 0.7247 0.0
H3235 H 0.93727 0.79281 0.71065 0.0
H3236 H 0.95147 0.81246 0.68938 0.0
H3237 H 0.90132 0.80265 0.65688 0.0
H3238 H 0.8869 0.78262 0.67773 0.0
H3239 H 0.84618 0.77439 0.77897 0.0
H3240 H 0.87541 0.77794 0.76639 0.0
H3241 H 0.84963 0.76862 0.71064 0.0
H3242 H 0.82073 0.7655 0.72319 0.0
H3243 H 0.88409 0.79188 0.71544 0.0
H3244 H 0.85144 0.72891 0.7238 0.0
H3245 H 0.83502 0.70891 0.74356 0.0
H3246 H 0.87931 0.72673 0.78558 0.0
H3247 H 0.89611 0.74664 0.76586 0.0
C3248 C 0.94223 0.74929 0.67877 0.0
C3249 C 0.95654 0.7503 0.69182 0.0
C3250 C 0.92562 0.75014 0.68476 0.0
C3251 C 0.92347 0.75243 0.70382 0.0
C3252 C 0.93733 0.75182 0.71659 0.0
C3253 C 0.95381 0.75065 0.71059 0.0
C3254 C 0.90758 0.75745 0.71108 0.0
C3255 C 0.89865 0.74642 0.72275 0.0
C3256 C 0.90231 0.77395 0.70811 0.0
C3257 C 0.91107 0.78601 0.69561 0.0
C3258 C 0.92931 0.79471 0.69887 0.0
C3259 C 0.93739 0.80592 0.68689 0.0
C3260 C 0.92731 0.80875 0.67175 0.0
C3261 C 0.90912 0.80039 0.66857 0.0
C3262 C 0.901 0.78909 0.68045 0.0
C3263 C 0.84703 0.77353 0.76413 0.0
C3264 C 0.83173 0.76947 0.75179 0.0
C3265 C 0.86352 0.77586 0.75705 0.0
C3266 C 0.86436 0.77336 0.73768 0.0
C3267 C 0.84906 0.77069 0.72562 0.0
C3268 C 0.83269 0.76855 0.73268 0.0
C3269 C 0.87988 0.76851 0.72956 0.0
C3270 C 0.88836 0.77927 0.71747 0.0
C3271 C 0.88471 0.75171 0.73193 0.0
C3272 C 0.87499 0.73916 0.7434 0.0
C3273 C 0.85769 0.72844 0.73721 0.0
C3274 C 0.84832 0.71713 0.74839 0.0
C3275 C 0.85609 0.71652 0.76581 0.0
C3276 C 0.87328 0.72723 0.77209 0.0
C3277 C 0.8828 0.7384 0.76086 0.0
H3278 H 0.84882 0.70773 0.77444 0.0
H3279 H 0.93359 0.81747 0.66252 0.0
H3280 H 0.14563 0.99344 0.83061 0.0
H3281 H 0.13381 0.99356 0.86138 0.0
H3282 H 0.0992 0.02888 0.84848 0.0
H3283 H 0.11088 0.02899 0.81843 0.0
H3284 H 0.111 0.04246 0.88205 0.0
H3285 H 0.08572 0.97818 0.85061 0.0
H3286 H 0.08568 0.94581 0.83424 0.0
H3287 H 0.11686 0.938 0.88106 0.0
H3288 H 0.11727 0.97042 0.89762 0.0
H3289 H 0.04896 0.03333 0.95179 0.0
H3290 H 0.06245 0.02927 0.92203 0.0
H3291 H 0.10247 0.00638 0.94659 0.0
H3292 H 0.08932 0.01095 0.97659 0.0
H3293 H 0.08967 0.98579 0.90868 0.0
H3294 H 0.11435 0.04916 0.94028 0.0
H3295 H 0.11384 0.08106 0.95743 0.0
H3296 H 0.08395 0.09028 0.91042 0.0
H3297 H 0.08402 0.05826 0.89309 0.0
C3298 C 0.13547 1.00119 0.83426 0.0
C3299 C 0.1295 0.01127 0.82152 0.0
C3300 C 0.12854 1.0012 0.85204 0.0
C3301 C 0.11531 0.01125 0.85786 0.0
C3302 C 0.10937 0.02108 0.845 0.0
C3303 C 0.11619 0.02106 0.82744 0.0
C3304 C 0.10777 0.01222 0.87713 0.0
C3305 C 0.10618 0.02988 0.88755 0.0
C3306 C 0.10172 0.99619 0.8853 0.0
C3307 C 0.10173 0.97682 0.87525 0.0
C3308 C 0.09272 0.96963 0.85734 0.0
C3309 C 0.09259 0.95125 0.84804 0.0
C3310 C 0.10131 0.93988 0.85658 0.0
C3311 C 0.11015 0.94684 0.87444 0.0
C3312 C 0.11033 0.96521 0.88379 0.0
C3313 C 0.06056 0.0273 0.95095 0.0
C3314 C 0.06786 0.02251 0.96699 0.0
C3315 C 0.06839 0.025 0.93374 0.0
C3316 C 0.0837 0.01744 0.93157 0.0
C3317 C 0.09072 0.01216 0.94744 0.0
C3318 C 0.08314 0.01488 0.9648 0.0
C3319 C 0.09266 0.01592 0.91316 0.0
C3320 C 0.09452 0.99827 0.90303 0.0
C3321 C 0.09901 0.03193 0.9052 0.0
C3322 C 0.09901 0.05122 0.91547 0.0
C3323 C 0.10752 0.05792 0.93366 0.0
C3324 C 0.10733 0.07603 0.9434 0.0
C3325 C 0.09881 0.08767 0.93505 0.0
C3326 C 0.09051 0.08123 0.91689 0.0
C3327 C 0.09063 0.0631 0.9071 0.0
H3328 H 0.09867 0.10169 0.94262 0.0
H3329 H 0.10118 0.92565 0.84937 0.0
H3330 H 0.80238 0.42066 0.5815 0.0
H3331 H 0.80368 0.40464 0.60766 0.0
H3332 H 0.8447 0.37897 0.58325 0.0
H3333 H 0.84247 0.39397 0.55649 0.0
H3334 H 0.81549 0.35364 0.58713 0.0
H3335 H 0.85311 0.4116 0.62695 0.0
H3336 H 0.85806 0.44579 0.64007 0.0
H3337 H 0.80835 0.43638 0.66451 0.0
H3338 H 0.80314 0.40213 0.65153 0.0
H3339 H 0.84779 0.30638 0.64924 0.0
H3340 H 0.84124 0.32603 0.62793 0.0
H3341 H 0.80595 0.34816 0.66553 0.0
H3342 H 0.81421 0.33073 0.68793 0.0
H3343 H 0.82546 0.37545 0.65583 0.0
H3344 H 0.78969 0.31723 0.62028 0.0
H3345 H 0.78202 0.28353 0.6047 0.0
H3346 H 0.82502 0.29334 0.57019 0.0
H3347 H 0.83296 0.32704 0.58559 0.0
C3348 C 0.81198 0.41198 0.58212 0.0
C3349 C 0.82215 0.40809 0.5672 0.0
C3350 C 0.8128 0.40299 0.59703 0.0
C3351 C 0.82423 0.39065 0.5972 0.0
C3352 C 0.83572 0.38838 0.58313 0.0
C3353 C 0.83446 0.39685 0.56796 0.0
C3354 C 0.82222 0.37768 0.61006 0.0
C3355 C 0.81789 0.35833 0.60218 0.0
C3356 C 0.82409 0.38399 0.62955 0.0
C3357 C 0.82776 0.40436 0.63831 0.0
C3358 C 0.8433 0.41684 0.6352 0.0
C3359 C 0.84613 0.43622 0.64259 0.0
C3360 C 0.83353 0.44325 0.65312 0.0
C3361 C 0.81813 0.4309 0.65641 0.0
C3362 C 0.81527 0.4115 0.64912 0.0
C3363 C 0.8387 0.31546 0.65303 0.0
C3364 C 0.8315 0.31676 0.6703 0.0
C3365 C 0.83464 0.32639 0.64065 0.0
C3366 C 0.82277 0.33821 0.645 0.0
C3367 C 0.81502 0.339 0.66186 0.0
C3368 C 0.81958 0.32868 0.67454 0.0
C3369 C 0.82001 0.3512 0.63285 0.0
C3370 C 0.82296 0.37061 0.64082 0.0
C3371 C 0.81664 0.34494 0.61333 0.0
C3372 C 0.81195 0.32462 0.60416 0.0
C3373 C 0.79756 0.31216 0.60945 0.0
C3374 C 0.79314 0.29307 0.60061 0.0
C3375 C 0.80304 0.2863 0.58649 0.0
C3376 C 0.81735 0.2986 0.58112 0.0
C3377 C 0.82177 0.3177 0.58985 0.0
H3378 H 0.79961 0.27151 0.57968 0.0
H3379 H 0.83569 0.45827 0.65871 0.0
H3380 H 0.46335 0.00994 0.33868 0.0
H3381 H 0.4704 0.0119 0.372 0.0
H3382 H 0.43958 0.05412 0.38544 0.0
H3383 H 0.4325 0.05238 0.35245 0.0
H3384 H 0.47714 0.0654 0.3946 0.0
H3385 H 0.42729 0.02 0.40527 0.0
H3386 H 0.4046 0.99005 0.39678 0.0
H3387 H 0.4453 0.95872 0.39802 0.0
H3388 H 0.46829 0.98849 0.40638 0.0
H3389 H 0.52067 0.07278 0.48504 0.0
H3390 H 0.49847 0.07114 0.45942 0.0
H3391 H 0.51419 0.02265 0.42793 0.0
H3392 H 0.53645 0.02436 0.45359 0.0
H3393 H 0.47679 0.01744 0.43379 0.0
H3394 H 0.52497 0.05836 0.41196 0.0
H3395 H 0.55025 0.08603 0.41654 0.0
H3396 H 0.51504 0.12302 0.43164 0.0
H3397 H 0.48955 0.09547 0.42739 0.0
C3398 C 0.45794 0.01941 0.34878 0.0
C3399 C 0.44779 0.03127 0.34318 0.0
C3400 C 0.46157 0.02021 0.36766 0.0
C3401 C 0.45517 0.03295 0.38083 0.0
C3402 C 0.44422 0.044 0.37527 0.0
C3403 C 0.4405 0.04315 0.35649 0.0
C3404 C 0.46384 0.03816 0.39957 0.0
C3405 C 0.47662 0.0553 0.40368 0.0
C3406 C 0.4633 0.02454 0.4107 0.0
C3407 C 0.44952 0.00652 0.40653 0.0
C3408 C 0.43141 0.00673 0.40376 0.0
C3409 C 0.41849 0.98978 0.39896 0.0
C3410 C 0.4235 0.97249 0.39688 0.0
C3411 C 0.44144 0.97213 0.39971 0.0
C3412 C 0.45442 0.98905 0.40456 0.0
C3413 C 0.51988 0.06244 0.4722 0.0
C3414 C 0.53014 0.04891 0.47069 0.0
C3415 C 0.5071 0.06127 0.45791 0.0
C3416 C 0.50472 0.04654 0.4423 0.0
C3417 C 0.51593 0.03388 0.44019 0.0
C3418 C 0.52879 0.03514 0.45446 0.0
C3419 C 0.49033 0.04427 0.42816 0.0
C3420 C 0.47668 0.02785 0.42517 0.0
C3421 C 0.49031 0.05826 0.4176 0.0
C3422 C 0.50541 0.0749 0.41953 0.0
C3423 C 0.52264 0.0724 0.41634 0.0
C3424 C 0.537 0.08805 0.41887 0.0
C3425 C 0.53426 0.10627 0.42442 0.0
C3426 C 0.51713 0.10889 0.42735 0.0
C3427 C 0.50272 0.09327 0.42487 0.0
H3428 H 0.5454 0.11838 0.42641 0.0
H3429 H 0.41349 0.95939 0.39307 0.0
H3430 H 0.80198 0.73792 0.05886 0.0
H3431 H 0.80368 0.75679 0.09071 0.0
H3432 H 0.80106 0.70648 0.11305 0.0
H3433 H 0.79945 0.68774 0.08178 0.0
H3434 H 0.77238 0.72714 0.1197 0.0
H3435 H 0.83631 0.73438 0.12259 0.0
H3436 H 0.86587 0.74496 0.11194 0.0
H3437 H 0.86048 0.80249 0.12406 0.0
H3438 H 0.8307 0.7922 0.13449 0.0
H3439 H 0.78488 0.73542 0.21515 0.0
H3440 H 0.78549 0.73046 0.18152 0.0
H3441 H 0.79728 0.79075 0.18475 0.0
H3442 H 0.79708 0.79581 0.21903 0.0
H3443 H 0.82026 0.77268 0.16312 0.0
H3444 H 0.75405 0.76369 0.15509 0.0
H3445 H 0.72306 0.75114 0.16117 0.0
H3446 H 0.73373 0.69606 0.15833 0.0
H3447 H 0.76448 0.70811 0.15118 0.0
C3448 C 0.80212 0.731 0.07061 0.0
C3449 C 0.80018 0.71126 0.06775 0.0
C3450 C 0.80319 0.7418 0.08876 0.0
C3451 C 0.80243 0.73297 0.10416 0.0
C3452 C 0.80165 0.71354 0.10133 0.0
C3453 C 0.8006 0.70283 0.08338 0.0
C3454 C 0.79959 0.74284 0.1229 0.0
C3455 C 0.78284 0.73723 0.12913 0.0
C3456 C 0.81313 0.75627 0.13502 0.0
C3457 C 0.83115 0.76249 0.12906 0.0
C3458 C 0.84132 0.74927 0.12279 0.0
C3459 C 0.85815 0.75521 0.11684 0.0
C3460 C 0.86502 0.77438 0.11725 0.0
C3461 C 0.85512 0.78764 0.12371 0.0
C3462 C 0.83827 0.78176 0.12965 0.0
C3463 C 0.78706 0.74764 0.20867 0.0
C3464 C 0.79071 0.76597 0.21966 0.0
C3465 C 0.78738 0.7448 0.18939 0.0
C3466 C 0.79118 0.7602 0.18046 0.0
C3467 C 0.79419 0.77864 0.19131 0.0
C3468 C 0.79386 0.78152 0.21082 0.0
C3469 C 0.79308 0.7565 0.16005 0.0
C3470 C 0.80964 0.76314 0.15348 0.0
C3471 C 0.77946 0.74381 0.14743 0.0
C3472 C 0.7615 0.73683 0.15289 0.0
C3473 C 0.74976 0.74894 0.15586 0.0
C3474 C 0.7322 0.74185 0.15921 0.0
C3475 C 0.72646 0.72285 0.16027 0.0
C3476 C 0.73819 0.71079 0.15758 0.0
C3477 C 0.7556 0.71767 0.15364 0.0
H3478 H 0.71292 0.71747 0.16313 0.0
H3479 H 0.87804 0.77895 0.11262 0.0
H3480 H 0.1451 0.98442 0.68875 0.0
H3481 H 0.12962 0.98798 0.66023 0.0
H3482 H 0.10403 0.02786 0.69267 0.0
H3483 H 0.11831 0.02275 0.72145 0.0
H3484 H 0.08189 0.01329 0.66516 0.0
H3485 H 0.14565 0.03728 0.66235 0.0
H3486 H 0.17697 0.0346 0.66221 0.0
H3487 H 0.16254 0.98751 0.61577 0.0
H3488 H 0.13115 0.98983 0.61575 0.0
H3489 H 0.0555 0.04487 0.58055 0.0
H3490 H 0.06619 0.04109 0.61148 0.0
H3491 H 0.09807 0.00415 0.5852 0.0
H3492 H 0.08949 0.01001 0.55527 0.0
H3493 H 0.11709 0.01986 0.61126 0.0
H3494 H 0.05377 0.99427 0.61292 0.0
H3495 H 0.02192 0.99492 0.61277 0.0
H3496 H 0.03394 0.04178 0.65951 0.0
H3497 H 0.06585 0.04152 0.65983 0.0
C3498 C 0.13614 0.99394 0.68992 0.0
C3499 C 0.13329 0.00336 0.70777 0.0
C3500 C 0.12733 0.99628 0.67331 0.0
C3501 C 0.11591 0.00901 0.67348 0.0
C3502 C 0.11273 0.01809 0.69145 0.0
C3503 C 0.12106 0.01519 0.70816 0.0
C3504 C 0.10764 0.01296 0.65523 0.0
C3505 C 0.08975 0.01483 0.65346 0.0
C3506 C 0.11719 0.01477 0.63925 0.0
C3507 C 0.13609 0.01366 0.63915 0.0
C3508 C 0.14919 0.02636 0.65214 0.0
C3509 C 0.16693 0.02488 0.65209 0.0
C3510 C 0.17173 0.01087 0.63901 0.0
C3511 C 0.15881 0.99835 0.6259 0.0
C3512 C 0.14105 0.99975 0.6259 0.0
C3513 C 0.06511 0.03633 0.58135 0.0
C3514 C 0.07193 0.02846 0.56484 0.0
C3515 C 0.07105 0.03372 0.59933 0.0
C3516 C 0.08333 0.0222 0.60156 0.0
C3517 C 0.08916 0.01358 0.58482 0.0
C3518 C 0.08394 0.01686 0.56723 0.0
C3519 C 0.09101 0.0194 0.62063 0.0
C3520 C 0.10898 0.01803 0.62271 0.0
C3521 C 0.08136 0.01771 0.63664 0.0
C3522 C 0.06222 0.01802 0.63624 0.0
C3523 C 0.04963 0.00481 0.62306 0.0
C3524 C 0.03157 0.00509 0.62297 0.0
C3525 C 0.02593 0.01843 0.63607 0.0
C3526 C 0.03833 0.03149 0.64933 0.0
C3527 C 0.0564 0.03128 0.64948 0.0
H3528 H 0.01195 0.01862 0.63599 0.0
H3529 H 0.18547 0.00974 0.63902 0.0
H3530 H 0.83134 0.38498 0.47398 0.0
H3531 H 0.83398 0.36172 0.44667 0.0
H3532 H 0.82522 0.39992 0.41119 0.0
H3533 H 0.82211 0.42325 0.43847 0.0
H3534 H 0.79796 0.36756 0.40875 0.0
H3535 H 0.86299 0.38351 0.41117 0.0
H3536 H 0.89289 0.38816 0.42728 0.0
H3537 H 0.88041 0.33086 0.43508 0.0
H3538 H 0.85038 0.32592 0.4192 0.0
H3539 H 0.79902 0.32976 0.31825 0.0
H3540 H 0.80357 0.34622 0.35035 0.0
H3541 H 0.81578 0.29706 0.36724 0.0
H3542 H 0.81258 0.28083 0.33414 0.0
H3543 H 0.83948 0.32841 0.38369 0.0
H3544 H 0.777 0.3103 0.37698 0.0
H3545 H 0.74644 0.30449 0.36219 0.0
H3546 H 0.7521 0.36403 0.36531 0.0
H3547 H 0.78289 0.3702 0.3794 0.0
C3548 C 0.83037 0.38865 0.4604 0.0
C3549 C 0.82565 0.40551 0.45818 0.0
C3550 C 0.83219 0.37544 0.44487 0.0
C3551 C 0.8295 0.37911 0.42708 0.0
C3552 C 0.82718 0.39693 0.42497 0.0
C3553 C 0.82524 0.41013 0.4405 0.0
C3554 C 0.82462 0.36325 0.41113 0.0
C3555 C 0.80707 0.35913 0.40301 0.0
C3556 C 0.83616 0.35143 0.40496 0.0
C3557 C 0.85438 0.35439 0.41413 0.0
C3558 C 0.86658 0.37194 0.41642 0.0
C3559 C 0.88357 0.37462 0.42549 0.0
C3560 C 0.88853 0.35983 0.43224 0.0
C3561 C 0.87655 0.3423 0.42986 0.0
C3562 C 0.85957 0.33955 0.42079 0.0
C3563 C 0.80307 0.32259 0.32871 0.0
C3564 C 0.80627 0.30449 0.32388 0.0
C3565 C 0.80519 0.3318 0.34712 0.0
C3566 C 0.80976 0.32272 0.36115 0.0
C3567 C 0.81219 0.30418 0.3565 0.0
C3568 C 0.81033 0.29498 0.33778 0.0
C3569 C 0.81317 0.33364 0.38034 0.0
C3570 C 0.83026 0.33667 0.38946 0.0
C3571 C 0.80105 0.34431 0.38776 0.0
C3572 C 0.78235 0.34071 0.37935 0.0
C3573 C 0.77181 0.32216 0.37439 0.0
C3574 C 0.75444 0.31879 0.36605 0.0
C3575 C 0.74735 0.33386 0.36275 0.0
C3576 C 0.75762 0.35235 0.36778 0.0
C3577 C 0.77505 0.35579 0.37596 0.0
H3578 H 0.73387 0.33119 0.35637 0.0
H3579 H 0.90167 0.36195 0.4393 0.0
H3580 H 0.40886 0.0215 0.23517 0.0
H3581 H 0.42212 0.01075 0.20654 0.0
H3582 H 0.46933 0.05518 0.225 0.0
H3583 H 0.45635 0.06575 0.2538 0.0
H3584 H 0.44553 0.05238 0.18906 0.0
H3585 H 0.47825 0.021 0.22543 0.0
H3586 H 0.48413 0.99856 0.24453 0.0
H3587 H 0.45731 0.95195 0.20119 0.0
H3588 H 0.45081 0.97415 0.18199 0.0
H3589 H 0.52017 0.04657 0.13925 0.0
H3590 H 0.49561 0.05126 0.15808 0.0
H3591 H 0.46589 0.9949 0.13253 0.0
H3592 H 0.49084 0.99005 0.11418 0.0
H3593 H 0.47431 0.99916 0.16868 0.0
H3594 H 0.449 0.03474 0.1302 0.0
H3595 H 0.44598 0.0597 0.113 0.0
H3596 H 0.4638 0.10209 0.1629 0.0
H3597 H 0.4677 0.0776 0.18018 0.0
C3598 C 0.42199 0.02904 0.23293 0.0
C3599 C 0.43152 0.04478 0.24613 0.0
C3600 C 0.42963 0.02263 0.21693 0.0
C3601 C 0.44666 0.03208 0.21412 0.0
C3602 C 0.45623 0.04766 0.22735 0.0
C3603 C 0.44875 0.05386 0.24346 0.0
C3604 C 0.45322 0.02809 0.19599 0.0
C3605 C 0.45196 0.04083 0.18443 0.0
C3606 C 0.4609 0.0126 0.19026 0.0
C3607 C 0.46356 0.9993 0.20246 0.0
C3608 C 0.47312 0.00601 0.22016 0.0
C3609 C 0.4767 0.99331 0.23096 0.0
C3610 C 0.47098 0.97384 0.22414 0.0
C3611 C 0.46162 0.96704 0.20652 0.0
C3612 C 0.45793 0.97968 0.1957 0.0
C3613 C 0.5083 0.03531 0.13771 0.0
C3614 C 0.50742 0.01769 0.12619 0.0
C3615 C 0.49415 0.03814 0.14801 0.0
C3616 C 0.47897 0.02343 0.14654 0.0
C3617 C 0.47754 0.00638 0.13372 0.0
C3618 C 0.49181 0.00346 0.12365 0.0
C3619 C 0.46734 0.02397 0.16166 0.0
C3620 C 0.46751 0.01049 0.17283 0.0
C3621 C 0.45934 0.03933 0.16742 0.0
C3622 C 0.45872 0.05422 0.15648 0.0
C3623 C 0.45267 0.0494 0.13741 0.0
C3624 C 0.45078 0.0635 0.12765 0.0
C3625 C 0.4548 0.08248 0.13682 0.0
C3626 C 0.46082 0.08741 0.15575 0.0
C3627 C 0.46294 0.07343 0.16551 0.0
H3628 H 0.45318 0.09335 0.12928 0.0
H3629 H 0.4739 0.96404 0.23246 0.0
H3630 H 0.82537 0.73357 0.96572 0.0
H3631 H 0.83109 0.74489 0.93669 0.0
H3632 H 0.77982 0.71106 0.91137 0.0
H3633 H 0.7748 0.6988 0.93981 0.0
H3634 H 0.80253 0.70626 0.88834 0.0
H3635 H 0.79087 0.76252 0.92792 0.0
H3636 H 0.79668 0.78799 0.95609 0.0
H3637 H 0.85023 0.80672 0.94273 0.0
H3638 H 0.84477 0.78124 0.91457 0.0
H3639 H 0.77982 0.73924 0.81218 0.0
H3640 H 0.78253 0.73373 0.84336 0.0
H3641 H 0.83558 0.76937 0.85291 0.0
H3642 H 0.8319 0.77719 0.82205 0.0
H3643 H 0.81889 0.77383 0.88392 0.0
H3644 H 0.82767 0.71933 0.84089 0.0
H3645 H 0.81901 0.69577 0.81141 0.0
H3646 H 0.7687 0.6743 0.83095 0.0
H3647 H 0.77697 0.69785 0.86045 0.0
C3648 C 0.81531 0.72881 0.95396 0.0
C3649 C 0.79964 0.71543 0.95487 0.0
C3650 C 0.81854 0.73528 0.93741 0.0
C3651 C 0.80583 0.72896 0.92181 0.0
C3652 C 0.78991 0.71604 0.9231 0.0
C3653 C 0.78697 0.70915 0.93936 0.0
C3654 C 0.80906 0.73508 0.90385 0.0
C3655 C 0.80606 0.72105 0.88744 0.0
C3656 C 0.81433 0.75434 0.90258 0.0
C3657 C 0.81747 0.76988 0.91926 0.0
C3658 C 0.8039 0.77204 0.93104 0.0
C3659 C 0.80713 0.78647 0.94699 0.0
C3660 C 0.82383 0.79893 0.95122 0.0
C3661 C 0.83731 0.79704 0.93945 0.0
C3662 C 0.83415 0.78263 0.92348 0.0
C3663 C 0.79192 0.74638 0.82088 0.0
C3664 C 0.80541 0.75911 0.81466 0.0
C3665 C 0.7936 0.74289 0.83874 0.0
C3666 C 0.80946 0.75065 0.85033 0.0
C3667 C 0.82323 0.76314 0.84417 0.0
C3668 C 0.82115 0.76748 0.82649 0.0
C3669 C 0.81149 0.74502 0.86855 0.0
C3670 C 0.8157 0.75905 0.88493 0.0
C3671 C 0.80721 0.72573 0.86985 0.0
C3672 C 0.80301 0.71029 0.85295 0.0
C3673 C 0.81484 0.70945 0.83898 0.0
C3674 C 0.80996 0.69616 0.82223 0.0
C3675 C 0.79333 0.68352 0.81933 0.0
C3676 C 0.78161 0.68404 0.83325 0.0
C3677 C 0.78642 0.69729 0.85003 0.0
H3678 H 0.78952 0.67336 0.80629 0.0
H3679 H 0.82631 0.81007 0.9636 0.0
H3680 H 0.81061 0.08369 0.00687 0.0
H3681 H 0.83944 0.07519 0.00532 0.0
H3682 H 0.86297 0.12431 0.04819 0.0
H3683 H 0.83419 0.13357 0.04869 0.0
H3684 H 0.88498 0.11779 0.02107 0.0
H3685 H 0.85116 0.08204 0.06046 0.0
H3686 H 0.82226 0.0638 0.0669 0.0
H3687 H 0.8225 0.02081 0.01858 0.0
H3688 H 0.85128 0.03893 0.01168 0.0
H3689 H 0.9579 0.07233 0.01377 0.0
H3690 H 0.93558 0.08665 0.02991 0.0
H3691 H 0.89381 0.04567 0.99345 0.0
H3692 H 0.9159 0.03085 0.97793 0.0
H3693 H 0.88427 0.05204 0.02768 0.0
H3694 H 0.91473 0.09079 0.98569 0.0
H3695 H 0.94099 0.11137 0.97648 0.0
H3696 H 0.94545 0.1506 0.0287 0.0
H3697 H 0.91952 0.13001 0.03843 0.0
C3698 C 0.82196 0.09251 0.01601 0.0
C3699 C 0.82041 0.10884 0.0283 0.0
C3700 C 0.83834 0.08776 0.01509 0.0
C3701 C 0.85308 0.09884 0.0271 0.0
C3702 C 0.85163 0.11553 0.03904 0.0
C3703 C 0.8353 0.12064 0.03948 0.0
C3704 C 0.86966 0.09226 0.02755 0.0
C3705 C 0.88508 0.10361 0.02298 0.0
C3706 C 0.86959 0.07384 0.03023 0.0
C3707 C 0.85348 0.06176 0.03565 0.0
C3708 C 0.84516 0.06856 0.05135 0.0
C3709 C 0.82874 0.05831 0.05501 0.0
C3710 C 0.82058 0.04113 0.04318 0.0
C3711 C 0.8289 0.03407 0.02778 0.0
C3712 C 0.84531 0.04429 0.02403 0.0
C3713 C 0.94393 0.06616 0.00949 0.0
C3714 C 0.93858 0.05064 0.99443 0.0
C3715 C 0.93124 0.07442 0.01865 0.0
C3716 C 0.9131 0.06737 0.01268 0.0
C3717 C 0.90777 0.05135 0.99824 0.0
C3718 C 0.92038 0.04304 0.98922 0.0
C3719 C 0.89949 0.07721 0.02019 0.0
C3720 C 0.88453 0.06649 0.02645 0.0
C3721 C 0.90005 0.09627 0.01909 0.0
C3722 C 0.91548 0.10862 0.01298 0.0
C3723 C 0.92144 0.10369 0.99529 0.0
C3724 C 0.93625 0.11537 0.98997 0.0
C3725 C 0.94497 0.13217 0.0021 0.0
C3726 C 0.93877 0.13748 0.01942 0.0
C3727 C 0.92407 0.12579 0.02486 0.0
H3728 H 0.95656 0.14107 0.99814 0.0
H3729 H 0.80778 0.0333 0.04593 0.0
H3730 H 0.3612 0.42197 0.00472 0.0
H3731 H 0.39307 0.43671 0.00942 0.0
H3732 H 0.39155 0.44223 0.06892 0.0
H3733 H 0.35957 0.42677 0.06417 0.0
H3734 H 0.4061 0.47724 0.05411 0.0
H3735 H 0.41368 0.41348 0.0513 0.0
H3736 H 0.40823 0.37948 0.03727 0.0
H3737 H 0.42848 0.39271 0.98668 0.0
H3738 H 0.43388 0.42678 0.00033 0.0
H3739 H 0.4991 0.52302 0.06054 0.0
H3740 H 0.47006 0.50456 0.06594 0.0
H3741 H 0.46571 0.47057 0.01037 0.0
H3742 H 0.49488 0.48763 0.00569 0.0
H3743 H 0.45477 0.44832 0.02973 0.0
H3744 H 0.44223 0.50891 0.02658 0.0
H3745 H 0.44469 0.54329 0.03557 0.0
H3746 H 0.43072 0.53733 0.09047 0.0
H3747 H 0.42844 0.50294 0.08187 0.0
C3748 C 0.36776 0.42603 0.01878 0.0
C3749 C 0.35804 0.42329 0.0341 0.0
C3750 C 0.38593 0.4344 0.02144 0.0
C3751 C 0.39463 0.44056 0.0395 0.0
C3752 C 0.38504 0.4375 0.05487 0.0
C3753 C 0.36687 0.42863 0.05216 0.0
C3754 C 0.41339 0.4514 0.04208 0.0
C3755 C 0.41691 0.47094 0.04919 0.0
C3756 C 0.42722 0.4432 0.03498 0.0
C3757 C 0.42412 0.42269 0.02683 0.0
C3758 C 0.41687 0.40914 0.03715 0.0
C3759 C 0.41382 0.38985 0.02927 0.0
C3760 C 0.41799 0.38394 0.01109 0.0
C3761 C 0.42527 0.3973 0.00077 0.0
C3762 C 0.42837 0.4166 0.00859 0.0
C3763 C 0.49191 0.51155 0.04955 0.0
C3764 C 0.4994 0.50686 0.03267 0.0
C3765 C 0.47521 0.50107 0.05258 0.0
C3766 C 0.46542 0.48612 0.03852 0.0
C3767 C 0.47288 0.48179 0.02161 0.0
C3768 C 0.48966 0.49178 0.01885 0.0
C3769 C 0.44759 0.47458 0.04109 0.0
C3770 C 0.44417 0.4548 0.03498 0.0
C3771 C 0.43366 0.48271 0.04837 0.0
C3772 C 0.43547 0.50342 0.05368 0.0
C3773 C 0.4399 0.51497 0.04063 0.0
C3774 C 0.44122 0.53445 0.04565 0.0
C3775 C 0.43795 0.54251 0.06361 0.0
C3776 C 0.43333 0.53109 0.07659 0.0
C3777 C 0.43204 0.51161 0.07166 0.0
H3778 H 0.43894 0.55758 0.06745 0.0
H3779 H 0.4156 0.369 0.00501 0.0
H3780 H 0.37622 0.60505 0.75245 0.0
H3781 H 0.36152 0.63136 0.75213 0.0
H3782 H 0.40217 0.66768 0.79305 0.0
H3783 H 0.41713 0.64137 0.79312 0.0
H3784 H 0.37029 0.67651 0.80147 0.0
H3785 H 0.39979 0.67245 0.74609 0.0
H3786 H 0.40857 0.6575 0.71605 0.0
H3787 H 0.35391 0.64161 0.69322 0.0
H3788 H 0.34479 0.65632 0.72322 0.0
H3789 H 0.33472 0.75918 0.7918 0.0
H3790 H 0.35148 0.73537 0.79563 0.0
H3791 H 0.32812 0.7023 0.74172 0.0
H3792 H 0.31394 0.72763 0.73698 0.0
H3793 H 0.354 0.69269 0.74146 0.0
H3794 H 0.3245 0.69593 0.80017 0.0
H3795 H 0.31801 0.71159 0.8311 0.0
H3796 H 0.37397 0.72993 0.84849 0.0
H3797 H 0.38078 0.71455 0.81764 0.0
C3798 C 0.38218 0.61858 0.76146 0.0
C3799 C 0.39818 0.62052 0.77279 0.0
C3800 C 0.37365 0.63393 0.76121 0.0
C3801 C 0.3804 0.65222 0.77247 0.0
C3802 C 0.39623 0.65412 0.7841 0.0
C3803 C 0.40496 0.63881 0.7841 0.0
C3804 C 0.37115 0.66905 0.77182 0.0
C3805 C 0.36675 0.67996 0.78825 0.0
C3806 C 0.36622 0.67432 0.7549 0.0
C3807 C 0.37159 0.66529 0.73694 0.0
C3808 C 0.38963 0.66562 0.73471 0.0
C3809 C 0.39467 0.65723 0.71768 0.0
C3810 C 0.3818 0.64856 0.70275 0.0
C3811 C 0.36386 0.6483 0.70481 0.0
C3812 C 0.35875 0.65668 0.72181 0.0
C3813 C 0.3328 0.74662 0.7809 0.0
C3814 C 0.32186 0.74532 0.76437 0.0
C3815 C 0.34248 0.73248 0.78316 0.0
C3816 C 0.34123 0.71563 0.76938 0.0
C3817 C 0.33003 0.7145 0.75299 0.0
C3818 C 0.32122 0.72907 0.75037 0.0
C3819 C 0.35179 0.69978 0.77109 0.0
C3820 C 0.35684 0.68911 0.75476 0.0
C3821 C 0.35729 0.69479 0.78819 0.0
C3822 C 0.35313 0.70427 0.80655 0.0
C3823 C 0.3354 0.70339 0.81057 0.0
C3824 C 0.33168 0.71221 0.82809 0.0
C3825 C 0.34557 0.72179 0.84173 0.0
C3826 C 0.36322 0.72256 0.8379 0.0
C3827 C 0.36702 0.7138 0.82041 0.0
H3828 H 0.34266 0.72858 0.85528 0.0
H3829 H 0.38573 0.64208 0.68957 0.0
H3830 H 0.23297 0.59436 0.5164 0.0
H3831 H 0.20331 0.58263 0.52435 0.0
H3832 H 0.18443 0.62432 0.49963 0.0
H3833 H 0.21503 0.63784 0.49372 0.0
H3834 H 0.1703 0.62144 0.53102 0.0
H3835 H 0.17894 0.57716 0.47684 0.0
H3836 H 0.1951 0.55564 0.45848 0.0
H3837 H 0.18979 0.52117 0.49973 0.0
H3838 H 0.17409 0.54268 0.5186 0.0
H3839 H 0.0822 0.57333 0.50706 0.0
H3840 H 0.11217 0.59217 0.5155 0.0
H3841 H 0.12668 0.54663 0.5377 0.0
H3842 H 0.09715 0.52662 0.52608 0.0
H3843 H 0.14409 0.55268 0.51157 0.0
H3844 H 0.13173 0.59739 0.56451 0.0
H3845 H 0.11414 0.61909 0.58009 0.0
H3846 H 0.12282 0.65188 0.53763 0.0
H3847 H 0.14058 0.63065 0.52189 0.0
C3848 C 0.22258 0.60106 0.51261 0.0
C3849 C 0.22617 0.61703 0.50458 0.0
C3850 C 0.20561 0.59429 0.5171 0.0
C3851 C 0.19176 0.60247 0.51228 0.0
C3852 C 0.19509 0.61794 0.50347 0.0
C3853 C 0.21237 0.6254 0.49984 0.0
C3854 C 0.17379 0.59448 0.51634 0.0
C3855 C 0.1644 0.60642 0.52679 0.0
C3856 C 0.16646 0.57488 0.51095 0.0
C3857 C 0.17543 0.56162 0.4992 0.0
C3858 C 0.18127 0.56503 0.48202 0.0
C3859 C 0.19036 0.55285 0.47154 0.0
C3860 C 0.19342 0.53707 0.47792 0.0
C3861 C 0.1874 0.5334 0.4948 0.0
C3862 C 0.17842 0.54558 0.5054 0.0
C3863 C 0.09187 0.56754 0.51393 0.0
C3864 C 0.08788 0.54878 0.51602 0.0
C3865 C 0.1088 0.57853 0.51938 0.0
C3866 C 0.12161 0.571 0.52768 0.0
C3867 C 0.11688 0.55271 0.53146 0.0
C3868 C 0.10021 0.5413 0.52484 0.0
C3869 C 0.14037 0.57946 0.52675 0.0
C3870 C 0.15 0.56763 0.51652 0.0
C3871 C 0.14758 0.59916 0.53201 0.0
C3872 C 0.13757 0.61243 0.54206 0.0
C3873 C 0.12994 0.60926 0.55853 0.0
C3874 C 0.11992 0.62145 0.56737 0.0
C3875 C 0.11732 0.63675 0.55982 0.0
C3876 C 0.12488 0.64005 0.5435 0.0
C3877 C 0.13504 0.62804 0.53469 0.0
H3878 H 0.10945 0.64606 0.56663 0.0
H3879 H 0.20048 0.52769 0.46978 0.0
H3880 H 0.73336 1.00047 0.74128 0.0
H3881 H 0.74605 0.9735 0.74362 0.0
H3882 H 0.69325 0.93768 0.73908 0.0
H3883 H 0.68039 0.96469 0.73706 0.0
H3884 H 0.71432 0.93952 0.77082 0.0
H3885 H 0.71849 0.92872 0.70547 0.0
H3886 H 0.72483 0.94026 0.67655 0.0
H3887 H 0.78011 0.96005 0.69655 0.0
H3888 H 0.77408 0.94904 0.72581 0.0
H3889 H 0.76151 0.8739 0.79273 0.0
H3890 H 0.74131 0.8874 0.77564 0.0
H3891 H 0.78522 0.93263 0.77006 0.0
H3892 H 0.80573 0.91864 0.78667 0.0
H3893 H 0.76314 0.91839 0.73742 0.0
H3894 H 0.75963 0.93887 0.80266 0.0
H3895 H 0.75503 0.93642 0.83518 0.0
H3896 H 0.70066 0.90721 0.81863 0.0
H3897 H 0.7051 0.90877 0.78574 0.0
C3898 C 0.72449 0.98678 0.74048 0.0
C3899 C 0.70599 0.98453 0.73925 0.0
C3900 C 0.73171 0.97141 0.74156 0.0
C3901 C 0.72045 0.95372 0.74113 0.0
C3902 C 0.70198 0.95129 0.73916 0.0
C3903 C 0.69474 0.96669 0.73823 0.0
C3904 C 0.72816 0.93882 0.74598 0.0
C3905 C 0.72452 0.93418 0.76323 0.0
C3906 C 0.74181 0.93277 0.73615 0.0
C3907 C 0.74583 0.93792 0.71787 0.0
C3908 C 0.73203 0.93544 0.7037 0.0
C3909 C 0.73555 0.94197 0.68726 0.0
C3910 C 0.75287 0.95084 0.6847 0.0
C3911 C 0.76671 0.9531 0.69853 0.0
C3912 C 0.76325 0.94667 0.71504 0.0
C3913 C 0.76677 0.88686 0.78802 0.0
C3914 C 0.78502 0.89549 0.79107 0.0
C3915 C 0.75532 0.89436 0.77813 0.0
C3916 C 0.76192 0.91083 0.77159 0.0
C3917 C 0.78008 0.91974 0.77492 0.0
C3918 C 0.79163 0.91208 0.7847 0.0
C3919 C 0.7496 0.91958 0.76256 0.0
C3920 C 0.75239 0.92296 0.74459 0.0
C3921 C 0.73544 0.92508 0.77197 0.0
C3922 C 0.73284 0.92351 0.79163 0.0
C3923 C 0.74679 0.93153 0.80584 0.0
C3924 C 0.7442 0.93033 0.82435 0.0
C3925 C 0.7276 0.92149 0.82891 0.0
C3926 C 0.71355 0.91383 0.81497 0.0
C3927 C 0.71612 0.9148 0.79639 0.0
H3928 H 0.72558 0.92069 0.84327 0.0
H3929 H 0.75555 0.956 0.67201 0.0
H3930 H 0.76779 0.93544 0.53159 0.0
H3931 H 0.74271 0.94989 0.52794 0.0
H3932 H 0.70676 0.8999 0.53743 0.0
H3933 H 0.732 0.88489 0.54024 0.0
H3934 H 0.6929 0.91281 0.50992 0.0
H3935 H 0.71904 0.94129 0.57222 0.0
H3936 H 0.74415 0.95699 0.59601 0.0
H3937 H 0.75596 0.0041 0.56868 0.0
H3938 H 0.73106 0.9886 0.54462 0.0
H3939 H 0.62585 0.96744 0.51131 0.0
H3940 H 0.6451 0.94803 0.52142 0.0
H3941 H 0.69146 0.9895 0.51414 0.0
H3942 H 0.67248 0.00915 0.50482 0.0
H3943 H 0.6964 0.97786 0.54532 0.0
H3944 H 0.67381 0.94825 0.48129 0.0
H3945 H 0.65065 0.93217 0.45555 0.0
H3946 H 0.63339 0.88725 0.48468 0.0
H3947 H 0.65629 0.90322 0.51074 0.0
C3948 C 0.75457 0.92752 0.533 0.0
C3949 C 0.75186 0.90911 0.53639 0.0
C3950 C 0.74023 0.93584 0.53099 0.0
C3951 C 0.72288 0.9262 0.53291 0.0
C3952 C 0.72005 0.90767 0.53605 0.0
C3953 C 0.73445 0.89914 0.5377 0.0
C3954 C 0.70785 0.93562 0.53138 0.0
C3955 C 0.69342 0.92686 0.51797 0.0
C3956 C 0.70865 0.95405 0.54172 0.0
C3957 C 0.72318 0.96376 0.55662 0.0
C3958 C 0.72699 0.955 0.5713 0.0
C3959 C 0.7412 0.96385 0.58481 0.0
C3960 C 0.75164 0.98153 0.58385 0.0
C3961 C 0.74784 0.99042 0.56943 0.0
C3962 C 0.73365 0.98164 0.55588 0.0
C3963 C 0.64015 0.97252 0.51212 0.0
C3964 C 0.64763 0.98978 0.50708 0.0
C3965 C 0.65113 0.96133 0.51773 0.0
C3966 C 0.66974 0.9672 0.51832 0.0
C3967 C 0.67716 0.98463 0.51376 0.0
C3968 C 0.66626 0.99578 0.50824 0.0
C3969 C 0.68176 0.95534 0.52339 0.0
C3970 C 0.69562 0.96363 0.53757 0.0
C3971 C 0.68047 0.93655 0.51366 0.0
C3972 C 0.66657 0.92709 0.4981 0.0
C3973 C 0.66494 0.93505 0.48231 0.0
C3974 C 0.65189 0.92593 0.46764 0.0
C3975 C 0.6405 0.90874 0.46852 0.0
C3976 C 0.64218 0.9006 0.48405 0.0
C3977 C 0.65518 0.90969 0.49878 0.0
H3978 H 0.63042 0.90169 0.45714 0.0
H3979 H 0.76268 0.98833 0.59429 0.0
H3980 H 0.4218 0.48432 0.75562 0.0
H3981 H 0.40447 0.45279 0.75546 0.0
H3982 H 0.35981 0.4758 0.77274 0.0
H3983 H 0.37752 0.50804 0.7733 0.0
H3984 H 0.36172 0.44748 0.79082 0.0
H3985 H 0.36256 0.4504 0.72583 0.0
H3986 H 0.37654 0.45615 0.69729 0.0
H3987 H 0.40669 0.41434 0.70137 0.0
H3988 H 0.39307 0.40852 0.73007 0.0
H3989 H 0.3005 0.35604 0.77079 0.0
H3990 H 0.31619 0.3886 0.77098 0.0
H3991 H 0.36304 0.36912 0.75515 0.0
H3992 H 0.3474 0.3365 0.75511 0.0
H3993 H 0.35917 0.39582 0.736 0.0
H3994 H 0.36006 0.39263 0.79983 0.0
H3995 H 0.34829 0.38662 0.8293 0.0
H3996 H 0.31735 0.42833 0.82862 0.0
H3997 H 0.32868 0.43436 0.79891 0.0
C3998 C 0.40825 0.48296 0.75934 0.0
C3999 C 0.40129 0.49928 0.76433 0.0
C4000 C 0.39817 0.46456 0.75912 0.0
C4001 C 0.38041 0.46126 0.76371 0.0
C4002 C 0.37335 0.4775 0.76896 0.0
C4003 C 0.38354 0.49613 0.76919 0.0
C4004 C 0.36962 0.441 0.76304 0.0
C4005 C 0.36091 0.43636 0.77861 0.0
C4006 C 0.36882 0.4258 0.74754 0.0
C4007 C 0.37689 0.42913 0.73018 0.0
C4008 C 0.37225 0.44251 0.7207 0.0
C4009 C 0.3801 0.44577 0.70448 0.0
C4010 C 0.39252 0.43565 0.69754 0.0
C4011 C 0.39708 0.42219 0.70677 0.0
C4012 C 0.38928 0.41888 0.723 0.0
C4013 C 0.31407 0.3585 0.76714 0.0
C4014 C 0.32239 0.34315 0.76277 0.0
C4015 C 0.32321 0.3774 0.76743 0.0
C4016 C 0.34111 0.38188 0.7632 0.0
C4017 C 0.34935 0.36651 0.75849 0.0
C4018 C 0.34029 0.34764 0.75849 0.0
C4019 C 0.35113 0.40235 0.76369 0.0
C4020 C 0.35979 0.40699 0.74812 0.0
C4021 C 0.35207 0.41747 0.77927 0.0
C4022 C 0.34504 0.41377 0.797 0.0
C4023 C 0.35058 0.40037 0.80583 0.0
C4024 C 0.34402 0.39699 0.82261 0.0
C4025 C 0.33205 0.40705 0.83079 0.0
C4026 C 0.3266 0.42052 0.82222 0.0
C4027 C 0.33308 0.42392 0.80541 0.0
H4028 H 0.32705 0.40448 0.84381 0.0
H4029 H 0.3986 0.4382 0.685 0.0
H4030 H 0.18631 0.61014 0.26013 0.0
H4031 H 0.20769 0.64058 0.26379 0.0
H4032 H 0.2484 0.61161 0.2444 0.0
H4033 H 0.22754 0.58132 0.24182 0.0
H4034 H 0.26127 0.64229 0.27145 0.0
H4035 H 0.22081 0.62633 0.21332 0.0
H4036 H 0.19021 0.61767 0.19781 0.0
H4037 H 0.17931 0.66856 0.22916 0.0
H4038 H 0.20973 0.67743 0.24495 0.0
H4039 H 0.30633 0.73621 0.27096 0.0
H4040 H 0.29632 0.70227 0.2573 0.0
H4041 H 0.24173 0.7066 0.26328 0.0
H4042 H 0.25171 0.74049 0.27438 0.0
H4043 H 0.24223 0.6843 0.23297 0.0
H4044 H 0.27069 0.6945 0.29758 0.0
H4045 H 0.2972 0.70628 0.32039 0.0
H4046 H 0.32555 0.67104 0.28598 0.0
H4047 H 0.29924 0.65926 0.26287 0.0
C4048 C 0.19993 0.61041 0.25704 0.0
C4049 C 0.20539 0.59371 0.2504 0.0
C4050 C 0.21202 0.62762 0.25906 0.0
C4051 C 0.22925 0.62804 0.25366 0.0
C4052 C 0.23502 0.61134 0.24837 0.0
C4053 C 0.22314 0.59417 0.24689 0.0
C4054 C 0.24088 0.64577 0.2521 0.0
C4055 C 0.2573 0.65143 0.26286 0.0
C4056 C 0.23547 0.6574 0.24077 0.0
C4057 C 0.21759 0.65257 0.23024 0.0
C4058 C 0.21191 0.63572 0.2168 0.0
C4059 C 0.19458 0.63075 0.20801 0.0
C4060 C 0.18284 0.64257 0.21248 0.0
C4061 C 0.18843 0.65944 0.22566 0.0
C4062 C 0.20573 0.66448 0.23448 0.0
C4063 C 0.29223 0.72971 0.26872 0.0
C4064 C 0.27957 0.74046 0.27267 0.0
C4065 C 0.28656 0.71051 0.26115 0.0
C4066 C 0.26831 0.70206 0.25907 0.0
C4067 C 0.25584 0.71296 0.26417 0.0
C4068 C 0.26146 0.73213 0.2708 0.0
C4069 C 0.26177 0.68165 0.25378 0.0
C4070 C 0.24653 0.67495 0.24111 0.0
C4071 C 0.26761 0.66959 0.26433 0.0
C4072 C 0.28313 0.67614 0.27849 0.0
C4073 C 0.28259 0.68927 0.29493 0.0
C4074 C 0.29758 0.69598 0.30787 0.0
C4075 C 0.31307 0.68945 0.30461 0.0
C4076 C 0.31356 0.67612 0.28846 0.0
C4077 C 0.29863 0.66943 0.27544 0.0
H4078 H 0.32468 0.69468 0.31462 0.0
H4079 H 0.1694 0.63864 0.20574 0.0
H4080 H 0.4908 0.6951 0.44719 0.0
H4081 H 0.49511 0.6683 0.46103 0.0
H4082 H 0.54725 0.70005 0.48519 0.0
H4083 H 0.54271 0.7271 0.47218 0.0
H4084 H 0.54338 0.65987 0.4615 0.0
H4085 H 0.52261 0.69606 0.51434 0.0
H4086 H 0.50178 0.71276 0.53095 0.0
H4087 H 0.46064 0.66176 0.51815 0.0
H4088 H 0.48118 0.64482 0.50119 0.0
H4089 H 0.56991 0.59785 0.51195 0.0
H4090 H 0.56374 0.62676 0.50544 0.0
H4091 H 0.50751 0.60184 0.50036 0.0
H4092 H 0.51391 0.57292 0.50764 0.0
H4093 H 0.51257 0.63847 0.5141 0.0
H4094 H 0.532 0.60188 0.46159 0.0
H4095 H 0.55201 0.584 0.44493 0.0
H4096 H 0.59411 0.63416 0.45551 0.0
H4097 H 0.57442 0.65229 0.47251 0.0
C4098 C 0.50308 0.69645 0.45567 0.0
C4099 C 0.51635 0.71333 0.45866 0.0
C4100 C 0.50553 0.68111 0.46357 0.0
C4101 C 0.52152 0.68209 0.47418 0.0
C4102 C 0.53478 0.69892 0.47714 0.0
C4103 C 0.53212 0.71443 0.46975 0.0
C4104 C 0.52477 0.66539 0.48155 0.0
C4105 C 0.5368 0.65534 0.47315 0.0
C4106 C 0.51583 0.65904 0.49639 0.0
C4107 C 0.50335 0.66926 0.50623 0.0
C4108 C 0.50905 0.68848 0.51482 0.0
C4109 C 0.49732 0.69797 0.52437 0.0
C4110 C 0.47987 0.68835 0.52554 0.0
C4111 C 0.47414 0.66921 0.51719 0.0
C4112 C 0.48583 0.65966 0.5076 0.0
C4113 C 0.55631 0.59838 0.50995 0.0
C4114 C 0.5426 0.5825 0.51004 0.0
C4115 C 0.55268 0.61513 0.50599 0.0
C4116 C 0.53512 0.61645 0.50165 0.0
C4117 C 0.52124 0.60126 0.50332 0.0
C4118 C 0.52495 0.58459 0.50749 0.0
C4119 C 0.5314 0.63302 0.49421 0.0
C4120 C 0.51919 0.64297 0.50246 0.0
C4121 C 0.54 0.63915 0.47902 0.0
C4122 C 0.55178 0.62841 0.46847 0.0
C4123 C 0.54555 0.60908 0.46045 0.0
C4124 C 0.55684 0.5989 0.45095 0.0
C4125 C 0.57434 0.60793 0.44921 0.0
C4126 C 0.58056 0.62718 0.4569 0.0
C4127 C 0.56934 0.63742 0.46646 0.0
H4128 H 0.58306 0.60002 0.44187 0.0
H4129 H 0.47082 0.69572 0.53298 0.0
H4130 H 0.65332 0.32129 0.62436 0.0
H4131 H 0.6789 0.31806 0.64361 0.0
H4132 H 0.64413 0.30148 0.68481 0.0
H4133 H 0.61882 0.30572 0.66608 0.0
H4134 H 0.67139 0.32271 0.70264 0.0
H4135 H 0.66505 0.2699 0.65104 0.0
H4136 H 0.66348 0.2537 0.61812 0.0
H4137 H 0.71572 0.28606 0.61344 0.0
H4138 H 0.71752 0.30261 0.64625 0.0
H4139 H 0.73168 0.28753 0.75543 0.0
H4140 H 0.70715 0.29102 0.73509 0.0
H4141 H 0.74432 0.31101 0.69734 0.0
H4142 H 0.76896 0.30721 0.71763 0.0
H4143 H 0.71664 0.28878 0.67752 0.0
H4144 H 0.7228 0.34089 0.72975 0.0
H4145 H 0.7241 0.35641 0.76284 0.0
H4146 H 0.67149 0.32423 0.76638 0.0
H4147 H 0.66997 0.30833 0.73339 0.0
C4148 C 0.65114 0.317 0.63756 0.0
C4149 C 0.63393 0.31386 0.64365 0.0
C4150 C 0.66583 0.31494 0.64854 0.0
C4151 C 0.66369 0.30916 0.66574 0.0
C4152 C 0.64642 0.30599 0.67173 0.0
C4153 C 0.63184 0.30841 0.66095 0.0
C4154 C 0.6793 0.30701 0.67786 0.0
C4155 C 0.68107 0.31499 0.69708 0.0
C4156 C 0.69249 0.29747 0.67084 0.0
C4157 C 0.69133 0.28765 0.65105 0.0
C4158 C 0.67614 0.27367 0.64294 0.0
C4159 C 0.67522 0.2644 0.62431 0.0
C4160 C 0.68946 0.26889 0.61368 0.0
C4161 C 0.70468 0.28262 0.62167 0.0
C4162 C 0.70566 0.29195 0.64029 0.0
C4163 C 0.73473 0.29304 0.74301 0.0
C4164 C 0.75246 0.29754 0.73851 0.0
C4165 C 0.72059 0.29499 0.73126 0.0
C4166 C 0.72368 0.30176 0.71471 0.0
C4167 C 0.74138 0.30589 0.71 0.0
C4168 C 0.75554 0.30376 0.72168 0.0
C4169 C 0.70853 0.30428 0.70227 0.0
C4170 C 0.70689 0.29643 0.68302 0.0
C4171 C 0.69536 0.31383 0.70926 0.0
C4172 C 0.69634 0.32331 0.72914 0.0
C4173 C 0.71156 0.33703 0.73762 0.0
C4174 C 0.71232 0.34591 0.75635 0.0
C4175 C 0.69789 0.34129 0.7667 0.0
C4176 C 0.68266 0.32779 0.75835 0.0
C4177 C 0.68184 0.31885 0.73963 0.0
H4178 H 0.69852 0.34819 0.7812 0.0
H4179 H 0.68873 0.26168 0.59927 0.0
H4180 H 0.03938 0.32437 0.97769 0.0
H4181 H 0.04251 0.3576 0.99381 0.0
H4182 H 0.00449 0.36448 0.95202 0.0
H4183 H 0.00172 0.33189 0.93592 0.0
H4184 H 0.03683 0.38949 0.95481 0.0
H4185 H 0.9954 0.36457 0.99827 0.0
H4186 H 0.98788 0.34587 0.02252 0.0
H4187 H 0.03496 0.37826 0.05703 0.0
H4188 H 0.04283 0.39703 0.03293 0.0
H4189 H 0.02156 0.47821 0.97147 0.0
H4190 H 0.01602 0.44394 0.96824 0.0
H4191 H 0.04505 0.45132 0.02199 0.0
H4192 H 0.04865 0.48561 0.02611 0.0
H4193 H 0.02323 0.41949 0.01722 0.0
H4194 H 0.06527 0.44494 0.9785 0.0
H4195 H 0.07698 0.46422 0.95589 0.0
H4196 H 0.03564 0.43094 0.91414 0.0
H4197 H 0.02356 0.4116 0.93657 0.0
C4198 C 0.03137 0.33291 0.97233 0.0
C4199 C 0.02039 0.32564 0.9555 0.0
C4200 C 0.03317 0.35187 0.98151 0.0
C4201 C 0.02382 0.36363 0.97404 0.0
C4202 C 0.01194 0.3558 0.958 0.0
C4203 C 0.01034 0.33714 0.94881 0.0
C4204 C 0.02763 0.38452 0.98105 0.0
C4205 C 0.03369 0.39601 0.96842 0.0
C4206 C 0.02471 0.39322 0.99921 0.0
C4207 C 0.01977 0.38208 0.01373 0.0
C4208 C 0.0042 0.36762 0.01098 0.0
C4209 C -0.00014 0.35703 0.02472 0.0
C4210 C 0.01096 0.36084 0.04128 0.0
C4211 C 0.02638 0.37531 0.04419 0.0
C4212 C 0.03076 0.38594 0.03052 0.0
C4213 C 0.02612 0.47246 0.98288 0.0
C4214 C 0.0352 0.48454 0.99915 0.0
C4215 C 0.02325 0.45285 0.98094 0.0
C4216 C 0.03078 0.44487 0.99451 0.0
C4217 C 0.03917 0.45695 0.01121 0.0
C4218 C 0.04121 0.4766 0.01358 0.0
C4219 C 0.03115 0.42431 0.99037 0.0
C4220 C 0.02635 0.413 0.00361 0.0
C4221 C 0.03589 0.41568 0.97294 0.0
C4222 C 0.04348 0.42687 0.95923 0.0
C4223 C 0.05868 0.44174 0.96449 0.0
C4224 C 0.06537 0.4527 0.95172 0.0
C4225 C 0.05705 0.44881 0.9336 0.0
C4226 C 0.04208 0.43392 0.92818 0.0
C4227 C 0.03533 0.42293 0.9409 0.0
H4228 H 0.06221 0.45734 0.92374 0.0
H4229 H 0.00759 0.35262 0.05188 0.0
H4230 H 0.01932 0.80626 0.11977 0.0
H4231 H 0.98922 0.80449 0.13035 0.0
H4232 H 0.00892 0.79824 0.18435 0.0
H4233 H 0.03842 0.79985 0.17406 0.0
H4234 H 0.97996 0.77079 0.17004 0.0
H4235 H 0.99879 0.8391 0.17643 0.0
H4236 H 0.00808 0.86813 0.1641 0.0
H4237 H 0.95912 0.85384 0.12871 0.0
H4238 H 0.94966 0.82453 0.1406 0.0
H4239 H 0.9278 0.78883 0.24137 0.0
H4240 H 0.95071 0.79561 0.22037 0.0
H4241 H 0.91034 0.7881 0.17516 0.0
H4242 H 0.88703 0.78083 0.19625 0.0
H4243 H 0.94459 0.81991 0.17719 0.0
H4244 H 0.92454 0.75324 0.17351 0.0
H4245 H 0.91552 0.72432 0.18607 0.0
H4246 H 0.96727 0.73533 0.2157 0.0
H4247 H 0.97647 0.76455 0.20364 0.0
C4248 C 0.01721 0.80475 0.13395 0.0
C4249 C 0.03131 0.80296 0.14596 0.0
C4250 C 0.0 0.80374 0.13999 0.0
C4251 C 0.9967 0.80105 0.15815 0.0
C4252 C 0.01097 0.80008 0.17024 0.0
C4253 C 0.02794 0.80101 0.16427 0.0
C4254 C 0.97848 0.79812 0.16482 0.0
C4255 C 0.97225 0.78156 0.17153 0.0
C4256 C 0.96798 0.81179 0.1662 0.0
C4257 C 0.97363 0.82949 0.15922 0.0
C4258 C 0.99008 0.84205 0.16588 0.0
C4259 C 0.99536 0.85857 0.15899 0.0
C4260 C 0.98423 0.86279 0.14557 0.0
C4261 C 0.96775 0.85053 0.13906 0.0
C4262 C 0.96242 0.83396 0.14587 0.0
C4263 C 0.92369 0.7888 0.22702 0.0
C4264 C 0.90551 0.78389 0.22046 0.0
C4265 C 0.93686 0.79281 0.21503 0.0
C4266 C 0.93232 0.79219 0.19612 0.0
C4267 C 0.91419 0.78869 0.1897 0.0
C4268 C 0.90087 0.78455 0.20178 0.0
C4269 C 0.94668 0.79298 0.18312 0.0
C4270 C 0.95213 0.809 0.17526 0.0
C4271 C 0.95659 0.77881 0.18058 0.0
C4272 C 0.95113 0.76118 0.18779 0.0
C4273 C 0.93394 0.7496 0.18285 0.0
C4274 C 0.9288 0.73314 0.18986 0.0
C4275 C 0.9408 0.72801 0.2017 0.0
C4276 C 0.95798 0.73932 0.20654 0.0
C4277 C 0.96316 0.75584 0.19962 0.0
H4278 H 0.93681 0.71524 0.2071 0.0
H4279 H 0.98834 0.8756 0.14026 0.0
H4280 H 0.48273 0.29491 0.10141 0.0
H4281 H 0.48991 0.31979 0.08321 0.0
H4282 H 0.5351 0.34832 0.12311 0.0
H4283 H 0.52717 0.32449 0.1418 0.0
H4284 H 0.51923 0.37238 0.11604 0.0
H4285 H 0.53849 0.32139 0.07803 0.0
H4286 H 0.53521 0.28899 0.05985 0.0
H4287 H 0.49419 0.29725 0.02269 0.0
H4288 H 0.49711 0.32966 0.04077 0.0
H4289 H 0.57149 0.42626 0.05657 0.0
H4290 H 0.55988 0.40467 0.07713 0.0
H4291 H 0.50816 0.3913 0.04628 0.0
H4292 H 0.51964 0.41318 0.02604 0.0
H4293 H 0.52545 0.35996 0.0481 0.0
H4294 H 0.50473 0.40985 0.09249 0.0
H4295 H 0.50702 0.43939 0.11568 0.0
H4296 H 0.55508 0.43178 0.1421 0.0
H4297 H 0.55276 0.40194 0.11933 0.0
C4298 C 0.49401 0.30671 0.10628 0.0
C4299 C 0.50424 0.30817 0.12303 0.0
C4300 C 0.49824 0.3207 0.09583 0.0
C4301 C 0.51315 0.33576 0.10175 0.0
C4302 C 0.52345 0.33693 0.11839 0.0
C4303 C 0.51887 0.32339 0.12909 0.0
C4304 C 0.51781 0.35092 0.09123 0.0
C4305 C 0.52083 0.3696 0.10121 0.0
C4306 C 0.51955 0.34728 0.07186 0.0
C4307 C 0.5179 0.32788 0.06085 0.0
C4308 C 0.5287 0.31626 0.06604 0.0
C4309 C 0.52692 0.2979 0.05574 0.0
C4310 C 0.51447 0.29105 0.04015 0.0
C4311 C 0.50382 0.30257 0.03478 0.0
C4312 C 0.50555 0.32095 0.04503 0.0
C4313 C 0.55763 0.41878 0.05439 0.0
C4314 C 0.54644 0.42089 0.03968 0.0
C4315 C 0.55099 0.40672 0.06619 0.0
C4316 C 0.5332 0.39656 0.06314 0.0
C4317 C 0.52189 0.39918 0.04882 0.0
C4318 C 0.52844 0.41147 0.03725 0.0
C4319 C 0.52715 0.38127 0.07308 0.0
C4320 C 0.52386 0.36259 0.06293 0.0
C4321 C 0.52578 0.3848 0.09244 0.0
C4322 C 0.52877 0.40398 0.10403 0.0
C4323 C 0.51597 0.41473 0.10302 0.0
C4324 C 0.51713 0.43135 0.11625 0.0
C4325 C 0.5312 0.43746 0.13035 0.0
C4326 C 0.54422 0.42705 0.13116 0.0
C4327 C 0.54296 0.41027 0.11814 0.0
H4328 H 0.53201 0.45027 0.14065 0.0
H4329 H 0.51309 0.27683 0.03221 0.0
H4330 H 0.04605 0.31177 0.32447 0.0
H4331 H 0.01514 0.31347 0.31934 0.0
H4332 H 0.00981 0.31925 0.37839 0.0
H4333 H 0.04086 0.3172 0.38368 0.0
H4334 H 0.98085 0.29431 0.35539 0.0
H4335 H 0.01414 0.35819 0.36177 0.0
H4336 H 0.03848 0.38359 0.35616 0.0
H4337 H 0.02137 0.36923 0.29756 0.0
H4338 H 0.9971 0.34362 0.30277 0.0
H4339 H 0.9038 0.33158 0.32172 0.0
H4340 H 0.9281 0.32661 0.34167 0.0
H4341 H 0.95197 0.30492 0.2927 0.0
H4342 H 0.92777 0.3098 0.2727 0.0
H4343 H 0.96946 0.34263 0.32061 0.0
H4344 H 0.94162 0.27522 0.31277 0.0
H4345 H 0.91904 0.24747 0.31671 0.0
H4346 H 0.92658 0.26697 0.37618 0.0
H4347 H 0.94906 0.29498 0.37256 0.0
C4348 C 0.03828 0.31326 0.33635 0.0
C4349 C 0.04579 0.31448 0.35446 0.0
C4350 C 0.02071 0.31432 0.33343 0.0
C4351 C 0.01052 0.31695 0.34859 0.0
C4352 C 0.01767 0.3174 0.36662 0.0
C4353 C 0.03529 0.31615 0.36956 0.0
C4354 C 0.9924 0.31926 0.34518 0.0
C4355 C 0.97821 0.30514 0.34823 0.0
C4356 C 0.98921 0.33344 0.33584 0.0
C4357 C 0.00378 0.34897 0.33269 0.0
C4358 C 0.01561 0.3604 0.34768 0.0
C4359 C 0.0294 0.37484 0.34457 0.0
C4360 C 0.03146 0.37803 0.32652 0.0
C4361 C 0.01974 0.36678 0.31154 0.0
C4362 C 0.00594 0.35233 0.31458 0.0
C4363 C 0.91412 0.32545 0.31529 0.0
C4364 C 0.9143 0.32146 0.29577 0.0
C4365 C 0.92774 0.32239 0.32665 0.0
C4366 C 0.94149 0.31518 0.31853 0.0
C4367 C 0.9412 0.31027 0.29906 0.0
C4368 C 0.92766 0.3134 0.28771 0.0
C4369 C 0.95814 0.31698 0.32971 0.0
C4370 C 0.972 0.33216 0.32834 0.0
C4371 C 0.96097 0.30365 0.34032 0.0
C4372 C 0.94671 0.28742 0.34236 0.0
C4373 C 0.93819 0.27381 0.32665 0.0
C4374 C 0.9255 0.25796 0.32884 0.0
C4375 C 0.92129 0.25552 0.34668 0.0
C4376 C 0.92977 0.26892 0.36237 0.0
C4377 C 0.94248 0.28479 0.36025 0.0
H4378 H 0.91153 0.24319 0.34834 0.0
H4379 H 0.04215 0.3892 0.32414 0.0
H4380 H 0.02617 0.70735 0.63399 0.0
H4381 H 0.02788 0.67987 0.61068 0.0
H4382 H 0.97048 0.66341 0.60206 0.0
H4383 H 0.96872 0.69178 0.62541 0.0
H4384 H 0.99384 0.63505 0.61041 0.0
H4385 H 0.98306 0.67315 0.56736 0.0
H4386 H 0.98524 0.70203 0.55459 0.0
H4387 H 0.04167 0.7079 0.5533 0.0
H4388 H 0.03989 0.67926 0.56632 0.0
H4389 H 0.01355 0.57357 0.52972 0.0
H4390 H 0.001 0.59615 0.55001 0.0
H4391 H 0.05378 0.62692 0.57356 0.0
H4392 H 0.06668 0.60336 0.55356 0.0
H4393 H 0.02536 0.64476 0.5544 0.0
H4394 H 0.03722 0.61001 0.60109 0.0
H4395 H 0.03628 0.58161 0.61432 0.0
H4396 H 0.97917 0.5699 0.60983 0.0
H4397 H 0.97974 0.59804 0.59615 0.0
C4398 C 0.01393 0.69779 0.62722 0.0
C4399 C 0.99734 0.70123 0.63141 0.0
C4400 C 0.0149 0.6823 0.61388 0.0
C4401 C -0.00071 0.66998 0.60474 0.0
C4402 C 0.98256 0.67308 0.60903 0.0
C4403 C 0.98158 0.68903 0.62225 0.0
C4404 C 0.00134 0.65363 0.59132 0.0
C4405 C 0.00015 0.63677 0.59774 0.0
C4406 C 0.01007 0.65649 0.57529 0.0
C4407 C 0.01131 0.67405 0.56789 0.0
C4408 C 0.99596 0.6807 0.56454 0.0
C4409 C 0.99712 0.69701 0.55721 0.0
C4410 C 0.01358 0.7068 0.55315 0.0
C4411 C 0.02892 0.70031 0.55644 0.0
C4412 C 0.02783 0.68401 0.56376 0.0
C4413 C 0.02255 0.58515 0.53913 0.0
C4414 C 0.04105 0.58688 0.54019 0.0
C4415 C 0.01533 0.59779 0.55085 0.0
C4416 C 0.02653 0.61263 0.56338 0.0
C4417 C 0.04509 0.61508 0.56407 0.0
C4418 C 0.05239 0.60195 0.5526 0.0
C4419 C 0.01855 0.6267 0.57401 0.0
C4420 C 0.01861 0.64285 0.56679 0.0
C4421 C 0.0089 0.62316 0.5893 0.0
C4422 C 0.00851 0.606 0.59724 0.0
C4423 C 0.02444 0.60122 0.60259 0.0
C4424 C 0.02398 0.58521 0.61027 0.0
C4425 C 0.00767 0.57391 0.61285 0.0
C4426 C 0.99179 0.57863 0.60777 0.0
C4427 C 0.99218 0.59462 0.60004 0.0
H4428 H 0.00735 0.56155 0.61884 0.0
H4429 H 0.01445 0.7194 0.54744 0.0
H4430 H 0.65828 0.83048 0.87604 0.0
H4431 H 0.67967 0.83731 0.85317 0.0
H4432 H 0.64844 0.79034 0.81234 0.0
H4433 H 0.6272 0.78343 0.83488 0.0
H4434 H 0.68741 0.79486 0.8365 0.0
H4435 H 0.64798 0.81733 0.79615 0.0
H4436 H 0.63126 0.84062 0.7898 0.0
H4437 H 0.67984 0.88317 0.79664 0.0
H4438 H 0.69686 0.86038 0.80407 0.0
H4439 H 0.73972 0.77229 0.76299 0.0
H4440 H 0.71152 0.78095 0.77024 0.0
H4441 H 0.74051 0.83067 0.8092 0.0
H4442 H 0.76754 0.81988 0.80544 0.0
H4443 H 0.70169 0.82772 0.78413 0.0
H4444 H 0.73828 0.81011 0.83324 0.0
H4445 H 0.75465 0.79078 0.84804 0.0
H4446 H 0.71072 0.74274 0.83127 0.0
H4447 H 0.69476 0.76141 0.81487 0.0
C4448 C 0.65605 0.82173 0.86213 0.0
C4449 C 0.64154 0.80613 0.85716 0.0
C4450 C 0.66782 0.82605 0.849 0.0
C4451 C 0.66501 0.81478 0.83101 0.0
C4452 C 0.65021 0.79965 0.82596 0.0
C4453 C 0.63849 0.79538 0.83895 0.0
C4454 C 0.68009 0.8139 0.82025 0.0
C4455 C 0.69045 0.80189 0.82489 0.0
C4456 C 0.68391 0.8235 0.80555 0.0
C4457 C 0.67366 0.83718 0.80108 0.0
C4458 C 0.6551 0.83175 0.7968 0.0
C4459 C 0.64556 0.84488 0.79296 0.0
C4460 C 0.65449 0.86343 0.79301 0.0
C4461 C 0.67297 0.86886 0.79685 0.0
C4462 C 0.68255 0.85585 0.80092 0.0
C4463 C 0.73988 0.7845 0.77363 0.0
C4464 C 0.7555 0.7942 0.7849 0.0
C4465 C 0.72398 0.78996 0.77708 0.0
C4466 C 0.72421 0.8062 0.79053 0.0
C4467 C 0.74027 0.81795 0.79894 0.0
C4468 C 0.75573 0.81155 0.79686 0.0
C4469 C 0.70848 0.80804 0.8 0.0
C4470 C 0.6983 0.82041 0.79543 0.0
C4471 C 0.70475 0.79894 0.81512 0.0
C4472 C 0.71571 0.78694 0.82195 0.0
C4473 C 0.73253 0.79518 0.83174 0.0
C4474 C 0.74167 0.78437 0.84063 0.0
C4475 C 0.73376 0.76553 0.84056 0.0
C4476 C 0.71688 0.75732 0.83122 0.0
C4477 C 0.70797 0.76789 0.82177 0.0
H4478 H 0.74071 0.75728 0.84776 0.0
H4479 H 0.6471 0.87356 0.78995 0.0
H4480 H 0.43296 0.56469 0.69735 0.0
H4481 H 0.4477 0.56285 0.6685 0.0
H4482 H 0.49746 0.56596 0.69952 0.0
H4483 H 0.48277 0.5687 0.72863 0.0
H4484 H 0.50635 0.58342 0.67369 0.0
H4485 H 0.46799 0.52237 0.66822 0.0
H4486 H 0.43981 0.4991 0.66804 0.0
H4487 H 0.41655 0.51874 0.62326 0.0
H4488 H 0.44454 0.54228 0.62333 0.0
H4489 H 0.54862 0.55328 0.59121 0.0
H4490 H 0.53533 0.5572 0.62069 0.0
H4491 H 0.48502 0.5552 0.59139 0.0
H4492 H 0.49836 0.5507 0.56158 0.0
H4493 H 0.47718 0.53717 0.61683 0.0
H4494 H 0.51719 0.5983 0.62252 0.0
H4495 H 0.54624 0.62023 0.62289 0.0
H4496 H 0.56757 0.59894 0.66755 0.0
H4497 H 0.53871 0.57671 0.66729 0.0
C4498 C 0.44706 0.56498 0.69816 0.0
C4499 C 0.45642 0.56676 0.71572 0.0
C4500 C 0.4556 0.56372 0.68138 0.0
C4501 C 0.47393 0.56368 0.68109 0.0
C4502 C 0.48339 0.5658 0.69873 0.0
C4503 C 0.47487 0.56733 0.71561 0.0
C4504 C 0.48304 0.56152 0.66265 0.0
C4505 C 0.49993 0.57309 0.6614 0.0
C4506 C 0.4751 0.54832 0.64599 0.0
C4507 C 0.45829 0.5342 0.64591 0.0
C4508 C 0.45683 0.5218 0.65842 0.0
C4509 C 0.4409 0.50855 0.65832 0.0
C4510 C 0.42639 0.50748 0.64568 0.0
C4511 C 0.42779 0.51961 0.63307 0.0
C4512 C 0.44369 0.53289 0.63312 0.0
C4513 C 0.53484 0.55408 0.59084 0.0
C4514 C 0.52493 0.55204 0.5735 0.0
C4515 C 0.52708 0.55638 0.60807 0.0
C4516 C 0.50897 0.55707 0.60902 0.0
C4517 C 0.49899 0.55492 0.59166 0.0
C4518 C 0.50674 0.55242 0.57436 0.0
C4519 C 0.50034 0.55927 0.62773 0.0
C4520 C 0.48357 0.5476 0.62907 0.0
C4521 C 0.50851 0.57224 0.64449 0.0
C4522 C 0.52582 0.58572 0.64476 0.0
C4523 C 0.5281 0.59823 0.63235 0.0
C4524 C 0.54454 0.61071 0.63255 0.0
C4525 C 0.55876 0.61094 0.6452 0.0
C4526 C 0.55655 0.59873 0.65773 0.0
C4527 C 0.54015 0.58619 0.65758 0.0
H4528 H 0.57147 0.62061 0.64531 0.0
H4529 H 0.41406 0.49721 0.64563 0.0
H4530 H 0.78406 0.19986 0.98761 0.0
H4531 H 0.77202 0.20969 0.9607 0.0
H4532 H 0.77487 0.15684 0.92541 0.0
H4533 H 0.7872 0.14695 0.95209 0.0
H4534 H 0.7965 0.18805 0.9181 0.0
H4535 H 0.73535 0.16737 0.92499 0.0
H4536 H 0.70728 0.16231 0.93993 0.0
H4537 H 0.71211 0.22228 0.95472 0.0
H4538 H 0.74029 0.22776 0.94008 0.0
H4539 H 0.76753 0.22629 0.84177 0.0
H4540 H 0.77846 0.20966 0.8642 0.0
H4541 H 0.77286 0.25409 0.9095 0.0
H4542 H 0.76157 0.27046 0.8871 0.0
H4543 H 0.74846 0.22063 0.90706 0.0
H4544 H 0.81334 0.24045 0.91375 0.0
H4545 H 0.84474 0.24582 0.90669 0.0
H4546 H 0.83453 0.19044 0.87171 0.0
H4547 H 0.80328 0.18443 0.87932 0.0
C4548 C 0.78227 0.1904 0.97409 0.0
C4549 C 0.78719 0.17297 0.97177 0.0
C4550 C 0.77482 0.19574 0.95891 0.0
C4551 C 0.77228 0.18374 0.9413 0.0
C4552 C 0.7765 0.16604 0.93906 0.0
C4553 C 0.78404 0.16073 0.95418 0.0
C4554 C 0.77056 0.19201 0.92499 0.0
C4555 C 0.7857 0.19469 0.91519 0.0
C4556 C 0.75676 0.20116 0.92202 0.0
C4557 C 0.74007 0.19797 0.93148 0.0
C4558 C 0.73057 0.17951 0.93161 0.0
C4559 C 0.71458 0.17656 0.93998 0.0
C4560 C 0.70793 0.19197 0.94829 0.0
C4561 C 0.71727 0.21036 0.94827 0.0
C4562 C 0.73324 0.21339 0.9399 0.0
C4563 C 0.76938 0.23277 0.85649 0.0
C4564 C 0.76336 0.24916 0.86303 0.0
C4565 C 0.77578 0.22344 0.86922 0.0
C4566 C 0.77612 0.2306 0.88839 0.0
C4567 C 0.77252 0.24841 0.8947 0.0
C4568 C 0.76598 0.25762 0.88201 0.0
C4569 C 0.77493 0.21753 0.90116 0.0
C4570 C 0.75907 0.21371 0.90983 0.0
C4571 C 0.78825 0.20768 0.90361 0.0
C4572 C 0.80592 0.21223 0.89661 0.0
C4573 C 0.81773 0.22959 0.90424 0.0
C4574 C 0.83555 0.23261 0.90042 0.0
C4575 C 0.84156 0.2186 0.88853 0.0
C4576 C 0.82981 0.20139 0.8807 0.0
C4577 C 0.81209 0.1981 0.88487 0.0
H4578 H 0.85534 0.22105 0.8855 0.0
H4579 H 0.69554 0.18965 0.95472 0.0
H4580 H 0.1375 0.50401 0.18494 0.0
H4581 H 0.11744 0.51062 0.16184 0.0
H4582 H 0.15752 0.55869 0.15468 0.0
H4583 H 0.17769 0.55264 0.1788 0.0
H4584 H 0.11366 0.55787 0.16002 0.0
H4585 H 0.1571 0.53267 0.1194 0.0
H4586 H 0.17886 0.51304 0.12219 0.0
H4587 H 0.1367 0.46693 0.12849 0.0
H4588 H 0.1147 0.48616 0.12534 0.0
H4589 H 0.06881 0.55684 0.07473 0.0
H4590 H 0.0862 0.55995 0.10387 0.0
H4591 H 0.07068 0.49939 0.09966 0.0
H4592 H 0.05411 0.49622 0.06926 0.0
H4593 H 0.105 0.5106 0.10044 0.0
H4594 H 0.06076 0.53232 0.13644 0.0
H4595 H 0.03847 0.55137 0.14366 0.0
H4596 H 0.07955 0.60234 0.15293 0.0
H4597 H 0.10206 0.58362 0.14541 0.0
C4598 C 0.14208 0.51588 0.17831 0.0
C4599 C 0.15896 0.52777 0.18331 0.0
C4600 C 0.13059 0.51983 0.16553 0.0
C4601 C 0.13612 0.53532 0.15718 0.0
C4602 C 0.15321 0.54693 0.1615 0.0
C4603 C 0.16474 0.54315 0.17471 0.0
C4604 C 0.1243 0.53716 0.14215 0.0
C4605 C 0.11193 0.54815 0.14663 0.0
C4606 C 0.12201 0.52369 0.12537 0.0
C4607 C 0.13427 0.51075 0.12191 0.0
C4608 C 0.15244 0.51812 0.12072 0.0
C4609 C 0.16483 0.50714 0.12258 0.0
C4610 C 0.15916 0.48884 0.12573 0.0
C4611 C 0.14105 0.48115 0.12613 0.0
C4612 C 0.12859 0.49197 0.12401 0.0
C4613 C 0.06888 0.54427 0.08026 0.0
C4614 C 0.06104 0.52627 0.06984 0.0
C4615 C 0.07848 0.54607 0.09706 0.0
C4616 C 0.07971 0.52987 0.10377 0.0
C4617 C 0.06984 0.51197 0.09445 0.0
C4618 C 0.06045 0.51015 0.07729 0.0
C4619 C 0.09398 0.5315 0.11809 0.0
C4620 C 0.10679 0.52093 0.11344 0.0
C4621 C 0.09651 0.54532 0.13479 0.0
C4622 C 0.0831 0.55655 0.14028 0.0
C4623 C 0.06505 0.54759 0.13999 0.0
C4624 C 0.05236 0.55833 0.14411 0.0
C4625 C 0.05759 0.57805 0.14873 0.0
C4626 C 0.07552 0.58706 0.14936 0.0
C4627 C 0.08826 0.57639 0.1452 0.0
H4628 H 0.04774 0.58634 0.15185 0.0
H4629 H 0.1688 0.48059 0.12787 0.0
H4630 H 0.81962 0.85396 0.47652 0.0
H4631 H 0.81933 0.83656 0.44439 0.0
H4632 H 0.76373 0.83599 0.43428 0.0
H4633 H 0.76419 0.85404 0.46615 0.0
H4634 H 0.77656 0.80022 0.41729 0.0
H4635 H 0.7864 0.86816 0.42229 0.0
H4636 H 0.80156 0.90134 0.43527 0.0
H4637 H 0.85133 0.88979 0.41876 0.0
H4638 H 0.83651 0.85641 0.40607 0.0
H4639 H 0.77402 0.78372 0.31664 0.0
H4640 H 0.77019 0.79017 0.34985 0.0
H4641 H 0.8246 0.82271 0.36086 0.0
H4642 H 0.82611 0.82048 0.32785 0.0
H4643 H 0.80914 0.84181 0.37857 0.0
H4644 H 0.80022 0.77303 0.37357 0.0
H4645 H 0.78518 0.73956 0.36159 0.0
H4646 H 0.73544 0.7512 0.37809 0.0
H4647 H 0.75012 0.78474 0.38993 0.0
C4648 C 0.80724 0.84959 0.46758 0.0
C4649 C 0.7919 0.85518 0.47369 0.0
C4650 C 0.80709 0.83973 0.44928 0.0
C4651 C 0.7915 0.83501 0.43703 0.0
C4652 C 0.77583 0.8394 0.44358 0.0
C4653 C 0.77611 0.8497 0.46171 0.0
C4654 C 0.79219 0.82787 0.41686 0.0
C4655 C 0.78375 0.80915 0.40868 0.0
C4656 C 0.8015 0.83963 0.40579 0.0
C4657 C 0.81039 0.85971 0.41351 0.0
C4658 C 0.80061 0.87262 0.42167 0.0
C4659 C 0.80914 0.89148 0.42893 0.0
C4660 C 0.82741 0.89765 0.42792 0.0
C4661 C 0.83719 0.88498 0.4196 0.0
C4662 C 0.82873 0.86609 0.41239 0.0
C4663 C 0.78525 0.79194 0.32628 0.0
C4664 C 0.80093 0.80073 0.31951 0.0
C4665 C 0.78314 0.79545 0.34545 0.0
C4666 C 0.79719 0.80674 0.35841 0.0
C4667 C 0.81335 0.81406 0.3515 0.0
C4668 C 0.81474 0.81202 0.33238 0.0
C4669 C 0.79479 0.81324 0.37863 0.0
C4670 C 0.80246 0.83228 0.38693 0.0
C4671 C 0.78502 0.80157 0.38977 0.0
C4672 C 0.77625 0.78142 0.38248 0.0
C4673 C 0.78606 0.76846 0.37453 0.0
C4674 C 0.77759 0.74948 0.36778 0.0
C4675 C 0.75936 0.74327 0.36904 0.0
C4676 C 0.74955 0.75602 0.37709 0.0
C4677 C 0.75794 0.77501 0.38382 0.0
H4678 H 0.75284 0.72857 0.36383 0.0
H4679 H 0.83399 0.91227 0.43351 0.0
H4680 H 0.44141 0.54543 0.83575 0.0
H4681 H 0.4544 0.54137 0.86546 0.0
H4682 H 0.50343 0.57933 0.85903 0.0
H4683 H 0.49067 0.58229 0.8287 0.0
H4684 H 0.51393 0.55571 0.8735 0.0
H4685 H 0.46883 0.58815 0.89467 0.0
H4686 H 0.43854 0.59389 0.89582 0.0
H4687 H 0.41947 0.5396 0.90954 0.0
H4688 H 0.44961 0.53348 0.90831 0.0
H4689 H 0.55014 0.55526 0.96788 0.0
H4690 H 0.53987 0.56196 0.93812 0.0
H4691 H 0.48749 0.52852 0.9417 0.0
H4692 H 0.49736 0.52388 0.97218 0.0
H4693 H 0.48013 0.55272 0.92885 0.0
H4694 H 0.52704 0.52054 0.90675 0.0
H4695 H 0.55796 0.51667 0.90555 0.0
H4696 H 0.57456 0.57238 0.89423 0.0
H4697 H 0.54381 0.57665 0.89557 0.0
C4698 C 0.45475 0.55347 0.84092 0.0
C4699 C 0.46456 0.56487 0.82981 0.0
C4700 C 0.46237 0.55109 0.85817 0.0
C4701 C 0.48012 0.56031 0.86547 0.0
C4702 C 0.48981 0.57191 0.85437 0.0
C4703 C 0.48231 0.57392 0.83693 0.0
C4704 C 0.48867 0.55744 0.88406 0.0
C4705 C 0.50643 0.5552 0.88559 0.0
C4706 C 0.47947 0.55658 0.90038 0.0
C4707 C 0.46141 0.5603 0.90124 0.0
C4708 C 0.45815 0.57742 0.89785 0.0
C4709 C 0.44102 0.58074 0.89853 0.0
C4710 C 0.42709 0.5671 0.9027 0.0
C4711 C 0.43027 0.55014 0.90629 0.0
C4712 C 0.44737 0.54675 0.90563 0.0
C4713 C 0.53653 0.54898 0.9621 0.0
C4714 C 0.52483 0.53842 0.97251 0.0
C4715 C 0.53052 0.55276 0.94474 0.0
C4716 C 0.51264 0.5456 0.9366 0.0
C4717 C 0.50125 0.53463 0.947 0.0
C4718 C 0.50704 0.53158 0.96458 0.0
C4719 C 0.50517 0.55001 0.91819 0.0
C4720 C 0.48762 0.55285 0.91674 0.0
C4721 C 0.51467 0.55154 0.90205 0.0
C4722 C 0.53315 0.54897 0.90144 0.0
C4723 C 0.53731 0.53199 0.90411 0.0
C4724 C 0.5548 0.52973 0.9034 0.0
C4725 C 0.56822 0.54429 0.89986 0.0
C4726 C 0.56417 0.56113 0.897 0.0
C4727 C 0.54672 0.56347 0.89774 0.0
H4728 H 0.58175 0.5425 0.89929 0.0
H4729 H 0.41383 0.56969 0.9032 0.0
H4730 H 0.74771 0.1759 0.06576 0.0
H4731 H 0.74899 0.20011 0.09418 0.0
H4732 H 0.79575 0.18544 0.11656 0.0
H4733 H 0.79433 0.16122 0.08831 0.0
H4734 H 0.76984 0.18611 0.14024 0.0
H4735 H 0.80025 0.22443 0.10033 0.0
H4736 H 0.80467 0.23923 0.07296 0.0
H4737 H 0.76063 0.26513 0.08475 0.0
H4738 H 0.75577 0.25023 0.11204 0.0
H4739 H 0.81139 0.2589 0.21292 0.0
H4740 H 0.80461 0.23823 0.18212 0.0
H4741 H 0.75661 0.258 0.17407 0.0
H4742 H 0.76356 0.27896 0.20515 0.0
H4743 H 0.77815 0.25499 0.14287 0.0
H4744 H 0.75022 0.2176 0.18507 0.0
H4745 H 0.74613 0.20096 0.21128 0.0
H4746 H 0.78822 0.1734 0.19513 0.0
H4747 H 0.79271 0.19002 0.16897 0.0
C4748 C 0.75808 0.17787 0.07695 0.0
C4749 C 0.77077 0.16682 0.07542 0.0
C4750 C 0.75893 0.19171 0.0929 0.0
C4751 C 0.77255 0.1945 0.10717 0.0
C4752 C 0.7852 0.18337 0.10555 0.0
C4753 C 0.78432 0.16955 0.08965 0.0
C4754 C 0.77309 0.20817 0.12445 0.0
C4755 C 0.7718 0.20121 0.14089 0.0
C4756 C 0.77503 0.22768 0.12492 0.0
C4757 C 0.77744 0.23593 0.10803 0.0
C4758 C 0.79131 0.23301 0.0969 0.0
C4759 C 0.79395 0.24149 0.08145 0.0
C4760 C 0.78288 0.25304 0.07706 0.0
C4761 C 0.76915 0.25612 0.08811 0.0
C4762 C 0.76644 0.24765 0.10356 0.0
C4763 C 0.7998 0.25934 0.20423 0.0
C4764 C 0.78819 0.2707 0.21079 0.0
C4765 C 0.79577 0.24735 0.18692 0.0
C4766 C 0.78001 0.24654 0.17623 0.0
C4767 C 0.76878 0.25855 0.18238 0.0
C4768 C 0.77281 0.27056 0.19984 0.0
C4769 C 0.77544 0.23292 0.15865 0.0
C4770 C 0.7759 0.23986 0.14216 0.0
C4771 C 0.77309 0.21337 0.1581 0.0
C4772 C 0.7718 0.20509 0.17507 0.0
C4773 C 0.75881 0.20825 0.1873 0.0
C4774 C 0.75633 0.19871 0.20206 0.0
C4775 C 0.76674 0.18595 0.20469 0.0
C4776 C 0.78004 0.18313 0.19294 0.0
C4777 C 0.78256 0.19262 0.17817 0.0
H4778 H 0.76455 0.17829 0.21589 0.0
H4779 H 0.785 0.25966 0.06514 0.0
H4780 H 0.14354 0.50998 0.28317 0.0
H4781 H 0.1389 0.51043 0.31611 0.0
H4782 H 0.15336 0.57148 0.32796 0.0
H4783 H 0.15752 0.57101 0.29489 0.0
H4784 H 0.16257 0.55066 0.35878 0.0
H4785 H 0.11596 0.56128 0.31796 0.0
H4786 H 0.09716 0.55465 0.28824 0.0
H4787 H 0.07626 0.49785 0.29492 0.0
H4788 H 0.09536 0.50406 0.3245 0.0
H4789 H 0.09606 0.58339 0.41422 0.0
H4790 H 0.1202 0.57731 0.395 0.0
H4791 H 0.09966 0.51722 0.38881 0.0
H4792 H 0.07548 0.52313 0.40748 0.0
H4793 H 0.09663 0.53428 0.35702 0.0
H4794 H 0.14 0.53096 0.40527 0.0
H4795 H 0.15877 0.54274 0.43518 0.0
H4796 H 0.18466 0.59202 0.41574 0.0
H4797 H 0.16598 0.58064 0.3858 0.0
C4798 C 0.14579 0.5234 0.29295 0.0
C4799 C 0.15002 0.54047 0.28686 0.0
C4800 C 0.14362 0.52365 0.31165 0.0
C4801 C 0.14595 0.54099 0.32419 0.0
C4802 C 0.15175 0.55805 0.31833 0.0
C4803 C 0.15359 0.55779 0.29955 0.0
C4804 C 0.13766 0.54138 0.34154 0.0
C4805 C 0.14819 0.54703 0.35861 0.0
C4806 C 0.11894 0.53682 0.34089 0.0
C4807 C 0.10734 0.533 0.32321 0.0
C4808 C 0.10755 0.5473 0.31295 0.0
C4809 C 0.09682 0.54363 0.29615 0.0
C4810 C 0.08559 0.5258 0.28964 0.0
C4811 C 0.08504 0.51163 0.29994 0.0
C4812 C 0.09584 0.51519 0.3167 0.0
C4813 C 0.09688 0.56895 0.40881 0.0
C4814 C 0.08382 0.5537 0.41175 0.0
C4815 C 0.11085 0.56551 0.39838 0.0
C4816 C 0.11168 0.54685 0.39088 0.0
C4817 C 0.09932 0.53167 0.3949 0.0
C4818 C 0.0854 0.53508 0.4052 0.0
C4819 C 0.12144 0.54329 0.37461 0.0
C4820 C 0.11106 0.53731 0.35746 0.0
C4821 C 0.14018 0.54824 0.37539 0.0
C4822 C 0.15148 0.55502 0.39335 0.0
C4823 C 0.14961 0.54438 0.40743 0.0
C4824 C 0.16026 0.55096 0.42437 0.0
C4825 C 0.17283 0.56816 0.42737 0.0
C4826 C 0.17489 0.57872 0.4134 0.0
C4827 C 0.16431 0.57219 0.39643 0.0
H4828 H 0.18098 0.57336 0.44051 0.0
H4829 H 0.07726 0.523 0.27665 0.0
H4830 H 0.76992 0.86618 0.58972 0.0
H4831 H 0.76468 0.85211 0.61727 0.0
H4832 H 0.81558 0.83688 0.6147 0.0
H4833 H 0.8205 0.85047 0.58673 0.0
H4834 H 0.79047 0.80827 0.62019 0.0
H4835 H 0.80802 0.87542 0.64695 0.0
H4836 H 0.80606 0.90883 0.65229 0.0
H4837 H 0.75328 0.89376 0.66906 0.0
H4838 H 0.75482 0.86021 0.66354 0.0
H4839 H 0.80496 0.78691 0.70755 0.0
H4840 H 0.80526 0.79931 0.67915 0.0
H4841 H 0.75756 0.81892 0.69221 0.0
H4842 H 0.75871 0.80838 0.72208 0.0
H4843 H 0.77762 0.84419 0.68028 0.0
H4844 H 0.76007 0.77751 0.65557 0.0
H4845 H 0.76222 0.74425 0.65202 0.0
H4846 H 0.81365 0.7578 0.63174 0.0
H4847 H 0.81193 0.79117 0.63539 0.0
C4848 C 0.77994 0.85981 0.59513 0.0
C4849 C 0.79558 0.8593 0.58629 0.0
C4850 C 0.77701 0.8519 0.61088 0.0
C4851 C 0.78984 0.84367 0.61821 0.0
C4852 C 0.8055 0.84317 0.60929 0.0
C4853 C 0.80834 0.8509 0.59338 0.0
C4854 C 0.78677 0.83508 0.63484 0.0
C4855 C 0.7878 0.81615 0.6334 0.0
C4856 C 0.78255 0.84514 0.65184 0.0
C4857 C 0.78146 0.86526 0.65458 0.0
C4858 C 0.79591 0.87919 0.65154 0.0
C4859 C 0.79489 0.89817 0.65465 0.0
C4860 C 0.77953 0.90341 0.66095 0.0
C4861 C 0.76515 0.88968 0.66413 0.0
C4862 C 0.76609 0.87069 0.661 0.0
C4863 C 0.79469 0.7941 0.70444 0.0
C4864 C 0.78205 0.79714 0.71701 0.0
C4865 C 0.7946 0.80081 0.68795 0.0
C4866 C 0.78116 0.80967 0.68314 0.0
C4867 C 0.76807 0.81211 0.69553 0.0
C4868 C 0.76862 0.80604 0.71249 0.0
C4869 C 0.78156 0.81739 0.66579 0.0
C4870 C 0.78 0.83614 0.66704 0.0
C4871 C 0.78506 0.80709 0.64853 0.0
C4872 C 0.78587 0.78687 0.6458 0.0
C4873 C 0.77185 0.7734 0.65038 0.0
C4874 C 0.773 0.75453 0.64836 0.0
C4875 C 0.78806 0.74892 0.64167 0.0
C4876 C 0.80198 0.76215 0.6369 0.0
C4877 C 0.80091 0.78105 0.6389 0.0
H4878 H 0.78895 0.73431 0.64016 0.0
H4879 H 0.77879 0.91811 0.66342 0.0
H4880 H 0.7786 0.47122 0.51367 0.0
H4881 H 0.7541 0.48677 0.51694 0.0
H4882 H 0.71824 0.43385 0.51909 0.0
H4883 H 0.74311 0.41784 0.51589 0.0
H4884 H 0.70688 0.45583 0.49471 0.0
H4885 H 0.73072 0.46347 0.55799 0.0
H4886 H 0.7542 0.47168 0.58413 0.0
H4887 H 0.76727 0.52907 0.57669 0.0
H4888 H 0.74413 0.52116 0.55025 0.0
H4889 H 0.64022 0.50024 0.53334 0.0
H4890 H 0.66109 0.48151 0.52166 0.0
H4891 H 0.70182 0.53254 0.52565 0.0
H4892 H 0.68077 0.55157 0.53717 0.0
H4893 H 0.70993 0.50977 0.54743 0.0
H4894 H 0.68885 0.50335 0.4841 0.0
H4895 H 0.66986 0.49569 0.45442 0.0
H4896 H 0.65443 0.43764 0.4594 0.0
H4897 H 0.67303 0.44498 0.48931 0.0
C4898 C 0.76551 0.46278 0.51476 0.0
C4899 C 0.76265 0.44338 0.51474 0.0
C4900 C 0.75162 0.47173 0.51675 0.0
C4901 C 0.7347 0.46143 0.51875 0.0
C4902 C 0.73146 0.44189 0.51784 0.0
C4903 C 0.74551 0.43282 0.5159 0.0
C4904 C 0.72044 0.4714 0.52111 0.0
C4905 C 0.70709 0.46733 0.50643 0.0
C4906 C 0.72169 0.48688 0.53607 0.0
C4907 C 0.73571 0.49166 0.55201 0.0
C4908 C 0.7387 0.47781 0.56179 0.0
C4909 C 0.75195 0.48242 0.57669 0.0
C4910 C 0.76223 0.50088 0.58205 0.0
C4911 C 0.75929 0.51477 0.57252 0.0
C4912 C 0.7461 0.51023 0.55758 0.0
C4913 C 0.65344 0.50754 0.53113 0.0
C4914 C 0.65901 0.52735 0.53627 0.0
C4915 C 0.66528 0.4968 0.52433 0.0
C4916 C 0.68284 0.50572 0.52271 0.0
C4917 C 0.68819 0.52553 0.52675 0.0
C4918 C 0.67631 0.53632 0.53354 0.0
C4919 C 0.69626 0.49441 0.5208 0.0
C4920 C 0.70945 0.49817 0.53573 0.0
C4921 C 0.69497 0.4788 0.50594 0.0
C4922 C 0.68218 0.4748 0.48912 0.0
C4923 C 0.68108 0.48905 0.47913 0.0
C4924 C 0.67046 0.48473 0.46219 0.0
C4925 C 0.66096 0.4662 0.45505 0.0
C4926 C 0.66178 0.45199 0.46497 0.0
C4927 C 0.67233 0.45624 0.48194 0.0
H4928 H 0.65312 0.46285 0.44174 0.0
H4929 H 0.77246 0.50442 0.59361 0.0
H4930 H 0.23728 0.13594 0.47133 0.0
H4931 H 0.20759 0.11583 0.47161 0.0
H4932 H 0.19894 0.1538 0.52088 0.0
H4933 H 0.22839 0.17434 0.52025 0.0
H4934 H 0.19241 0.11283 0.52221 0.0
H4935 H 0.17595 0.15583 0.4872 0.0
H4936 H 0.17792 0.17419 0.46229 0.0
H4937 H 0.16682 0.12277 0.42076 0.0
H4938 H 0.16497 0.10409 0.44547 0.0
H4939 H 0.09944 0.08661 0.52823 0.0
H4940 H 0.12902 0.10394 0.52441 0.0
H4941 H 0.13262 0.06079 0.47716 0.0
H4942 H 0.10279 0.04275 0.48117 0.0
H4943 H 0.14232 0.1025 0.4735 0.0
H4944 H 0.15599 0.05966 0.51079 0.0
H4945 H 0.15372 0.04305 0.53704 0.0
H4946 H 0.16982 0.09616 0.57593 0.0
H4947 H 0.17187 0.11313 0.54991 0.0
C4948 C 0.22893 0.14011 0.48206 0.0
C4949 C 0.23506 0.15672 0.49571 0.0
C4950 C 0.21201 0.12862 0.48222 0.0
C4951 C 0.20111 0.13331 0.49629 0.0
C4952 C 0.20717 0.14995 0.5099 0.0
C4953 C 0.22391 0.16172 0.50946 0.0
C4954 C 0.1836 0.12052 0.49705 0.0
C4955 C 0.1814 0.11067 0.51166 0.0
C4956 C 0.16939 0.11746 0.48308 0.0
C4957 C 0.17056 0.12858 0.46817 0.0
C4958 C 0.17412 0.14844 0.47275 0.0
C4959 C 0.17517 0.15891 0.45868 0.0
C4960 C 0.17258 0.14966 0.43995 0.0
C4961 C 0.16887 0.12992 0.43527 0.0
C4962 C 0.1678 0.11938 0.44931 0.0
C4963 C 0.10641 0.08057 0.51704 0.0
C4964 C 0.09865 0.06306 0.50511 0.0
C4965 C 0.12341 0.0906 0.5149 0.0
C4966 C 0.13307 0.08362 0.50061 0.0
C4967 C 0.12536 0.06638 0.48835 0.0
C4968 C 0.10835 0.05607 0.49068 0.0
C4969 C 0.1511 0.09474 0.49867 0.0
C4970 C 0.1534 0.10441 0.48391 0.0
C4971 C 0.16534 0.09782 0.51267 0.0
C4972 C 0.16387 0.08768 0.52838 0.0
C4973 C 0.15882 0.06782 0.52494 0.0
C4974 C 0.15762 0.05833 0.53978 0.0
C4975 C 0.16157 0.06854 0.55814 0.0
C4976 C 0.16673 0.08827 0.5617 0.0
C4977 C 0.16791 0.09783 0.54691 0.0
H4978 H 0.16067 0.06117 0.56961 0.0
H4979 H 0.17339 0.15779 0.42907 0.0
H4980 H 0.22028 0.96718 0.75804 0.0
H4981 H 0.23562 0.94137 0.7583 0.0
H4982 H 0.18619 0.90435 0.76489 0.0
H4983 H 0.17086 0.93026 0.76481 0.0
H4984 H 0.20956 0.89507 0.78508 0.0
H4985 H 0.21016 0.90118 0.72187 0.0
H4986 H 0.2154 0.91758 0.69563 0.0
H4987 H 0.27134 0.93427 0.71336 0.0
H4988 H 0.2664 0.9181 0.73983 0.0
H4989 H 0.24606 0.81353 0.77772 0.0
H4990 H 0.22931 0.83632 0.77215 0.0
H4991 H 0.27601 0.87025 0.75549 0.0
H4992 H 0.29178 0.84523 0.75764 0.0
H4993 H 0.25322 0.88125 0.74021 0.0
H4994 H 0.25039 0.87529 0.80578 0.0
H4995 H 0.24311 0.85649 0.83 0.0
H4996 H 0.18889 0.83768 0.80588 0.0
H4997 H 0.19589 0.85626 0.78147 0.0
C4998 C 0.21251 0.95357 0.75949 0.0
C4999 C 0.19402 0.95134 0.76138 0.0
C5000 C 0.22143 0.93847 0.7595 0.0
C5001 C 0.21243 0.92012 0.76138 0.0
C5002 C 0.19394 0.91794 0.7634 0.0
C5003 C 0.18501 0.93302 0.7633 0.0
C5004 C 0.22217 0.9036 0.76161 0.0
C5005 C 0.21899 0.89214 0.77508 0.0
C5006 C 0.2348 0.89902 0.74888 0.0
C5007 C 0.23789 0.9086 0.73294 0.0
C5008 C 0.22357 0.90844 0.72023 0.0
C5009 C 0.22648 0.91768 0.70531 0.0
C5010 C 0.24369 0.92701 0.70286 0.0
C5011 C 0.25802 0.92705 0.71529 0.0
C5012 C 0.25518 0.91783 0.73024 0.0
C5013 C 0.25303 0.82569 0.77273 0.0
C5014 C 0.27114 0.8273 0.76912 0.0
C5015 C 0.24328 0.83944 0.77 0.0
C5016 C 0.2512 0.85667 0.76481 0.0
C5017 C 0.26906 0.85788 0.76019 0.0
C5018 C 0.27853 0.84342 0.76182 0.0
C5019 C 0.24102 0.87291 0.76407 0.0
C5020 C 0.24401 0.88429 0.75041 0.0
C5021 C 0.22805 0.87734 0.77655 0.0
C5022 C 0.22368 0.86708 0.7918 0.0
C5023 C 0.2369 0.86722 0.80573 0.0
C5024 C 0.23284 0.85656 0.81945 0.0
C5025 C 0.21556 0.84588 0.81947 0.0
C5026 C 0.20227 0.84596 0.80586 0.0
C5027 C 0.20626 0.85658 0.79211 0.0
H5028 H 0.21247 0.83755 0.83003 0.0
H5029 H 0.24592 0.93418 0.69132 0.0
H5030 H 0.36947 0.93667 0.01221 0.0
H5031 H 0.40079 0.94451 0.02276 0.0
H5032 H 0.39609 0.99909 0.05277 0.0
H5033 H 0.36455 0.99155 0.0417 0.0
H5034 H 0.40643 0.99842 0.01743 0.0
H5035 H 0.42302 0.9758 0.07088 0.0
H5036 H 0.42354 0.95294 0.09125 0.0
H5037 H 0.44526 0.91799 0.04902 0.0
H5038 H 0.44451 0.94038 0.02818 0.0
H5039 H 0.49511 0.04159 0.02183 0.0
H5040 H 0.46345 0.02886 0.01851 0.0
H5041 H 0.47181 0.97316 0.99663 0.0
H5042 H 0.50395 0.98602 0.00166 0.0
H5043 H 0.46009 0.97425 0.02886 0.0
H5044 H 0.43778 0.99243 0.97364 0.0
H5045 H 0.43454 0.01328 0.95166 0.0
H5046 H 0.42332 0.05463 0.99619 0.0
H5047 H 0.42552 0.03363 0.01824 0.0
C5048 C 0.37496 0.95017 0.0215 0.0
C5049 C 0.36511 0.96415 0.02507 0.0
C5050 C 0.39279 0.95438 0.02804 0.0
C5051 C 0.40076 0.97267 0.03782 0.0
C5052 C 0.39006 0.98503 0.04482 0.0
C5053 C 0.37225 0.98098 0.03801 0.0
C5054 C 0.41824 0.98092 0.03255 0.0
C5055 C 0.41835 0.99351 0.02039 0.0
C5056 C 0.43322 0.97342 0.03535 0.0
C5057 C 0.4336 0.9598 0.04786 0.0
C5058 C 0.42773 0.96315 0.06581 0.0
C5059 C 0.4281 0.95028 0.07748 0.0
C5060 C 0.4344 0.93401 0.07142 0.0
C5061 C 0.44037 0.93059 0.05369 0.0
C5062 C 0.43999 0.94339 0.04195 0.0
C5063 C 0.49014 0.02683 0.01565 0.0
C5064 C 0.50164 0.0146 0.01245 0.0
C5065 C 0.47196 0.01953 0.01333 0.0
C5066 C 0.46529 0.99996 0.00759 0.0
C5067 C 0.4768 0.98828 0.00127 0.0
C5068 C 0.49507 0.99558 0.00406 0.0
C5069 C 0.44816 0.99166 0.01373 0.0
C5070 C 0.44813 0.97908 0.02597 0.0
C5071 C 0.43302 0.9988 0.01078 0.0
C5072 C 0.43197 0.01154 0.99759 0.0
C5073 C 0.43469 0.006 0.97874 0.0
C5074 C 0.43296 0.0178 0.96627 0.0
C5075 C 0.42906 0.03539 0.97258 0.0
C5076 C 0.42644 0.04104 0.99133 0.0
C5077 C 0.4277 0.02911 0.00377 0.0
H5078 H 0.42794 0.04457 0.96292 0.0
H5079 H 0.43469 0.92408 0.08049 0.0
H5080 H 0.87436 0.59348 0.83602 0.0
H5081 H 0.85983 0.61591 0.82369 0.0
H5082 H 0.88582 0.60605 0.77295 0.0
H5083 H 0.90124 0.58547 0.78586 0.0
H5084 H 0.88536 0.63953 0.7795 0.0
H5085 H 0.84124 0.58251 0.77635 0.0
H5086 H 0.82401 0.55638 0.78913 0.0
H5087 H 0.80296 0.59597 0.8273 0.0
H5088 H 0.82012 0.62236 0.81474 0.0
H5089 H 0.82334 0.6596 0.71455 0.0
H5090 H 0.8414 0.64388 0.73154 0.0
H5091 H 0.82216 0.66689 0.78313 0.0
H5092 H 0.80293 0.68147 0.76609 0.0
H5093 H 0.81961 0.62854 0.77762 0.0
H5094 H 0.87593 0.68485 0.7786 0.0
H5095 H 0.89677 0.70424 0.76138 0.0
H5096 H 0.89356 0.65578 0.71764 0.0
H5097 H 0.87346 0.63596 0.73499 0.0
C5098 C 0.8773 0.59683 0.82259 0.0
C5099 C 0.88905 0.58837 0.81195 0.0
C5100 C 0.86889 0.60929 0.81543 0.0
C5101 C 0.87164 0.61246 0.79732 0.0
C5102 C 0.8837 0.60411 0.78703 0.0
C5103 C 0.89251 0.59239 0.79441 0.0
C5104 C 0.86155 0.62372 0.7884 0.0
C5105 C 0.87096 0.6371 0.77914 0.0
C5106 C 0.84278 0.62022 0.7875 0.0
C5107 C 0.83203 0.6044 0.79471 0.0
C5108 C 0.83294 0.58563 0.78748 0.0
C5109 C 0.82319 0.57078 0.79468 0.0
C5110 C 0.81243 0.57452 0.80905 0.0
C5111 C 0.8113 0.59311 0.81617 0.0
C5112 C 0.82099 0.60801 0.80898 0.0
C5113 C 0.82287 0.66127 0.7295 0.0
C5114 C 0.81158 0.67169 0.73892 0.0
C5115 C 0.83351 0.6526 0.73924 0.0
C5116 C 0.83341 0.65463 0.75862 0.0
C5117 C 0.82252 0.66537 0.76816 0.0
C5118 C 0.81164 0.67379 0.75841 0.0
C5119 C 0.84349 0.64432 0.76881 0.0
C5120 C 0.83401 0.6311 0.77828 0.0
C5121 C 0.86211 0.64692 0.76881 0.0
C5122 C 0.87284 0.65914 0.75778 0.0
C5123 C 0.87947 0.67846 0.76517 0.0
C5124 C 0.89122 0.68947 0.75547 0.0
C5125 C 0.89615 0.68136 0.73828 0.0
C5126 C 0.88958 0.66211 0.73085 0.0
C5127 C 0.87812 0.65097 0.74066 0.0
H5128 H 0.90523 0.68995 0.73082 0.0
H5129 H 0.80494 0.56302 0.81465 0.0
H5130 H 0.85112 0.67274 0.03359 0.0
H5131 H 0.87899 0.66206 0.03373 0.0
H5132 H 0.86392 0.63064 0.97722 0.0
H5133 H 0.83585 0.6412 0.97727 0.0
H5134 H 0.86932 0.60852 0.00033 0.0
H5135 H 0.90209 0.66718 0.98854 0.0
H5136 H 0.91222 0.70182 0.9932 0.0
H5137 H 0.93377 0.70436 0.04899 0.0
H5138 H 0.92357 0.66977 0.04477 0.0
H5139 H 0.94362 0.56688 0.00294 0.0
H5140 H 0.92468 0.58685 0.99335 0.0
H5141 H 0.93036 0.61878 0.04986 0.0
H5142 H 0.94905 0.59865 0.05954 0.0
H5143 H 0.93176 0.64156 0.02282 0.0
H5144 H 0.89569 0.5861 0.03759 0.0
H5145 H 0.88359 0.55216 0.03612 0.0
H5146 H 0.86624 0.54457 0.97805 0.0
H5147 H 0.87859 0.57845 0.97909 0.0
C5148 C 0.85412 0.66409 0.02102 0.0
C5149 C 0.84156 0.65776 0.00541 0.0
C5150 C 0.87006 0.65808 0.02105 0.0
C5151 C 0.8736 0.64561 0.00545 0.0
C5152 C 0.86149 0.64033 0.98936 0.0
C5153 C 0.84553 0.64636 0.98936 0.0
C5154 C 0.88805 0.63551 0.00721 0.0
C5155 C 0.88309 0.61575 0.00467 0.0
C5156 C 0.90583 0.64501 0.01375 0.0
C5157 C 0.91195 0.66585 0.01636 0.0
C5158 C 0.90886 0.67513 0.00185 0.0
C5159 C 0.91465 0.69476 0.00441 0.0
C5160 C 0.9236 0.70529 0.02138 0.0
C5161 C 0.92683 0.6962 0.03584 0.0
C5162 C 0.92107 0.67657 0.03336 0.0
C5163 C 0.94097 0.57832 0.01322 0.0
C5164 C 0.94755 0.58116 0.03199 0.0
C5165 C 0.9302 0.58968 0.00775 0.0
C5166 C 0.92607 0.60419 0.02094 0.0
C5167 C 0.93341 0.60766 0.0395 0.0
C5168 C 0.94393 0.5961 0.04503 0.0
C5169 C 0.91292 0.61469 0.01577 0.0
C5170 C 0.91808 0.63442 0.0179 0.0
C5171 C 0.89517 0.60526 0.00918 0.0
C5172 C 0.88838 0.58474 0.00832 0.0
C5173 C 0.88959 0.57714 0.02442 0.0
C5174 C 0.88261 0.55792 0.02369 0.0
C5175 C 0.87423 0.54619 0.00698 0.0
C5176 C 0.87282 0.55366 0.99096 0.0
C5177 C 0.87983 0.57286 0.99161 0.0
H5178 H 0.86876 0.53134 0.00646 0.0
H5179 H 0.92807 0.72049 0.02333 0.0
H5180 H 0.19379 0.08094 0.7997 0.0
H5181 H 0.21126 0.11332 0.80182 0.0
H5182 H 0.21536 0.10118 0.74253 0.0
H5183 H 0.19839 0.06864 0.74065 0.0
H5184 H 0.24479 0.12306 0.75644 0.0
H5185 H 0.18527 0.12899 0.76753 0.0
H5186 H 0.15767 0.12523 0.78339 0.0
H5187 H 0.18707 0.15682 0.83493 0.0
H5188 H 0.21489 0.16057 0.81943 0.0
H5189 H 0.27459 0.21854 0.74562 0.0
H5190 H 0.25797 0.18622 0.74484 0.0
H5191 H 0.25272 0.20093 0.80377 0.0
H5192 H 0.26848 0.23374 0.80414 0.0
H5193 H 0.22409 0.17768 0.79081 0.0
H5194 H 0.28367 0.17149 0.77967 0.0
H5195 H 0.31118 0.17512 0.76365 0.0
H5196 H 0.28147 0.14369 0.7122 0.0
H5197 H 0.25375 0.1401 0.72786 0.0
C5198 C 0.19888 0.08498 0.78719 0.0
C5199 C 0.19512 0.0717 0.77011 0.0
C5200 C 0.20865 0.10382 0.78832 0.0
C5201 C 0.21466 0.11042 0.7723 0.0
C5202 C 0.21116 0.09695 0.75527 0.0
C5203 C 0.20151 0.07808 0.75419 0.0
C5204 C 0.22448 0.13108 0.77312 0.0
C5205 C 0.24 0.13491 0.76381 0.0
C5206 C 0.21891 0.1471 0.78302 0.0
C5207 C 0.2022 0.14488 0.79235 0.0
C5208 C 0.18587 0.13502 0.78227 0.0
C5209 C 0.17019 0.13291 0.7912 0.0
C5210 C 0.17063 0.14073 0.81017 0.0
C5211 C 0.18675 0.15073 0.82024 0.0
C5212 C 0.20248 0.15287 0.81139 0.0
C5213 C 0.27003 0.21488 0.75848 0.0
C5214 C 0.27326 0.22889 0.775 0.0
C5215 C 0.26053 0.19613 0.7581 0.0
C5216 C 0.25424 0.19027 0.77437 0.0
C5217 C 0.25732 0.20448 0.79089 0.0
C5218 C 0.26654 0.22339 0.79118 0.0
C5219 C 0.24444 0.16967 0.7741 0.0
C5220 C 0.22891 0.16585 0.78349 0.0
C5221 C 0.24998 0.1536 0.76428 0.0
C5222 C 0.26664 0.15567 0.7549 0.0
C5223 C 0.283 0.16544 0.76492 0.0
C5224 C 0.29863 0.16748 0.7559 0.0
C5225 C 0.29807 0.15966 0.73691 0.0
C5226 C 0.28188 0.14975 0.7269 0.0
C5227 C 0.26622 0.1477 0.73584 0.0
H5228 H 0.31018 0.16126 0.72996 0.0
H5229 H 0.15847 0.13908 0.81705 0.0
H5230 H 0.40485 0.96231 0.26229 0.0
H5231 H 0.38387 0.93224 0.26208 0.0
H5232 H 0.35124 0.96173 0.29723 0.0
H5233 H 0.37174 0.99159 0.29754 0.0
H5234 H 0.36323 0.93106 0.30993 0.0
H5235 H 0.33556 0.94671 0.25537 0.0
H5236 H 0.33714 0.95562 0.22462 0.0
H5237 H 0.35396 0.90486 0.20225 0.0
H5238 H 0.35273 0.8958 0.23295 0.0
H5239 H 0.28659 0.84236 0.26835 0.0
H5240 H 0.29965 0.87616 0.28057 0.0
H5241 H 0.35196 0.86429 0.28316 0.0
H5242 H 0.3389 0.83073 0.27224 0.0
H5243 H 0.32616 0.88858 0.25485 0.0
H5244 H 0.36902 0.88394 0.30891 0.0
H5245 H 0.37748 0.87946 0.3403 0.0
H5246 H 0.33912 0.90968 0.36294 0.0
H5247 H 0.32986 0.9135 0.33141 0.0
C5248 C 0.39309 0.96236 0.26976 0.0
C5249 C 0.38991 0.97922 0.2799 0.0
C5250 C 0.38119 0.94531 0.26958 0.0
C5251 C 0.36618 0.94514 0.27958 0.0
C5252 C 0.36282 0.96187 0.28942 0.0
C5253 C 0.37455 0.97884 0.28951 0.0
C5254 C 0.35448 0.92735 0.28083 0.0
C5255 C 0.35481 0.92182 0.29803 0.0
C5256 C 0.34402 0.9155 0.26509 0.0
C5257 C 0.34411 0.92062 0.24647 0.0
C5258 C 0.33965 0.93749 0.24391 0.0
C5259 C 0.34049 0.94257 0.22649 0.0
C5260 C 0.34567 0.93083 0.2115 0.0
C5261 C 0.34994 0.91394 0.21387 0.0
C5262 C 0.34914 0.90881 0.23127 0.0
C5263 C 0.30078 0.84711 0.27231 0.0
C5264 C 0.31191 0.83442 0.26984 0.0
C5265 C 0.30814 0.86616 0.2795 0.0
C5266 C 0.32665 0.87245 0.28359 0.0
C5267 C 0.33762 0.85955 0.28128 0.0
C5268 C 0.33025 0.84056 0.27448 0.0
C5269 C 0.33485 0.89213 0.28405 0.0
C5270 C 0.334 0.89804 0.26699 0.0
C5271 C 0.34546 0.90402 0.29973 0.0
C5272 C 0.34824 0.89831 0.3177 0.0
C5273 C 0.36183 0.88887 0.32042 0.0
C5274 C 0.36697 0.88671 0.33829 0.0
C5275 C 0.35894 0.8944 0.35364 0.0
C5276 C 0.34539 0.9038 0.35105 0.0
C5277 C 0.33999 0.90569 0.33314 0.0
H5278 H 0.36307 0.8929 0.36749 0.0
H5279 H 0.34635 0.93481 0.19803 0.0
H5280 H 0.553 0.35915 0.59023 0.0
H5281 H 0.54895 0.38561 0.57596 0.0
H5282 H 0.60098 0.39002 0.55617 0.0
H5283 H 0.60476 0.36285 0.56973 0.0
H5284 H 0.5914 0.42654 0.57709 0.0
H5285 H 0.57278 0.37503 0.52484 0.0
H5286 H 0.55608 0.34383 0.50741 0.0
H5287 H 0.50676 0.36037 0.51701 0.0
H5288 H 0.52317 0.39158 0.53482 0.0
H5289 H 0.57769 0.49559 0.52265 0.0
H5290 H 0.58527 0.46644 0.52872 0.0
H5291 H 0.53374 0.44994 0.54828 0.0
H5292 H 0.52718 0.47962 0.5442 0.0
H5293 H 0.54576 0.41901 0.52446 0.0
H5294 H 0.56354 0.46869 0.5788 0.0
H5295 H 0.57934 0.50022 0.59629 0.0
H5296 H 0.6295 0.48725 0.58336 0.0
H5297 H 0.61394 0.45574 0.56539 0.0
C5298 C 0.56356 0.36567 0.58275 0.0
C5299 C 0.5792 0.35881 0.58113 0.0
C5300 C 0.56122 0.38082 0.57457 0.0
C5301 C 0.57464 0.38994 0.56496 0.0
C5302 C 0.59039 0.38327 0.56347 0.0
C5303 C 0.59252 0.36768 0.57117 0.0
C5304 C 0.57212 0.4065 0.55679 0.0
C5305 C 0.58169 0.42483 0.56532 0.0
C5306 C 0.55917 0.40447 0.54169 0.0
C5307 C 0.54922 0.38556 0.53141 0.0
C5308 C 0.55837 0.37193 0.52349 0.0
C5309 C 0.54895 0.35426 0.51347 0.0
C5310 C 0.53036 0.35009 0.51116 0.0
C5311 C 0.52116 0.3636 0.51886 0.0
C5312 C 0.53052 0.38128 0.52892 0.0
C5313 C 0.56776 0.48546 0.52769 0.0
C5314 C 0.55128 0.4897 0.53199 0.0
C5315 C 0.57217 0.46882 0.53129 0.0
C5316 C 0.56002 0.45577 0.53884 0.0
C5317 C 0.54328 0.45952 0.54219 0.0
C5318 C 0.53926 0.47648 0.53938 0.0
C5319 C 0.565 0.43902 0.54477 0.0
C5320 C 0.55573 0.42068 0.53598 0.0
C5321 C 0.57815 0.44105 0.55969 0.0
C5322 C 0.58756 0.45998 0.57045 0.0
C5323 C 0.57793 0.47265 0.57944 0.0
C5324 C 0.58684 0.4905 0.58949 0.0
C5325 C 0.60541 0.49578 0.59086 0.0
C5326 C 0.61511 0.48317 0.58222 0.0
C5327 C 0.60625 0.46532 0.57208 0.0
H5328 H 0.61229 0.5096 0.59867 0.0
H5329 H 0.5231 0.33642 0.50336 0.0
H5330 H 0.45108 0.77088 0.41319 0.0
H5331 H 0.42238 0.77215 0.39775 0.0
H5332 H 0.43844 0.74845 0.34464 0.0
H5333 H 0.46695 0.74763 0.35987 0.0
H5334 H 0.42826 0.7786 0.3415 0.0
H5335 H 0.40349 0.72504 0.36768 0.0
H5336 H 0.39552 0.70663 0.392 0.0
H5337 H 0.36649 0.74685 0.41702 0.0
H5338 H 0.37456 0.76571 0.39304 0.0
H5339 H 0.34905 0.76339 0.28168 0.0
H5340 H 0.37427 0.75952 0.30046 0.0
H5341 H 0.35526 0.78739 0.34993 0.0
H5342 H 0.33004 0.79173 0.33098 0.0
H5343 H 0.36642 0.75671 0.35655 0.0
H5344 H 0.39109 0.80992 0.33023 0.0
H5345 H 0.3994 0.82857 0.30616 0.0
H5346 H 0.42896 0.78872 0.28153 0.0
H5347 H 0.42058 0.76965 0.30527 0.0
C5348 C 0.4482 0.76535 0.39832 0.0
C5349 C 0.46132 0.75903 0.38779 0.0
C5350 C 0.43177 0.76617 0.38943 0.0
C5351 C 0.42807 0.76053 0.36985 0.0
C5352 C 0.44082 0.75311 0.35965 0.0
C5353 C 0.45715 0.75248 0.36844 0.0
C5354 C 0.41198 0.76386 0.35952 0.0
C5355 C 0.41474 0.77349 0.34469 0.0
C5356 C 0.39421 0.75795 0.36392 0.0
C5357 C 0.38987 0.74695 0.37871 0.0
C5358 C 0.39563 0.73013 0.37852 0.0
C5359 C 0.39104 0.71957 0.39222 0.0
C5360 C 0.38056 0.72561 0.40609 0.0
C5361 C 0.37466 0.74222 0.4063 0.0
C5362 C 0.37925 0.75286 0.39267 0.0
C5363 C 0.3502 0.76902 0.2964 0.0
C5364 C 0.33737 0.77822 0.30446 0.0
C5365 C 0.36477 0.7667 0.30729 0.0
C5366 C 0.36701 0.77337 0.32674 0.0
C5367 C 0.35403 0.78214 0.33498 0.0
C5368 C 0.33952 0.78463 0.32403 0.0
C5369 C 0.38279 0.77103 0.33834 0.0
C5370 C 0.37997 0.76174 0.35341 0.0
C5371 C 0.40057 0.77719 0.33417 0.0
C5372 C 0.405 0.78822 0.31941 0.0
C5373 C 0.39914 0.80498 0.31953 0.0
C5374 C 0.40392 0.81566 0.30597 0.0
C5375 C 0.41465 0.8098 0.29229 0.0
C5376 C 0.4206 0.79322 0.29211 0.0
C5377 C 0.41583 0.78246 0.3056 0.0
H5378 H 0.4184 0.81814 0.28186 0.0
H5379 H 0.37697 0.71738 0.41664 0.0
H5380 H 0.06968 0.74924 0.05836 0.0
H5381 H 0.06471 0.716 0.04135 0.0
H5382 H 0.06585 0.6977 0.09372 0.0
H5383 H 0.07056 0.73 0.11051 0.0
H5384 H 0.09181 0.68763 0.06792 0.0
H5385 H 0.02913 0.68839 0.07162 0.0
H5386 H 0.00173 0.69856 0.06407 0.0
H5387 H 0.00441 0.67788 0.00571 0.0
H5388 H 0.03206 0.66789 0.01289 0.0
H5389 H 0.06266 0.59106 0.07026 0.0
H5390 H 0.06727 0.62533 0.07345 0.0
H5391 H 0.05852 0.61835 0.01376 0.0
H5392 H 0.05404 0.58398 0.01051 0.0
H5393 H 0.03766 0.64218 0.0348 0.0
H5394 H 0.10398 0.65105 0.03086 0.0
H5395 H 0.13377 0.64564 0.03822 0.0
H5396 H 0.12356 0.6484 0.09566 0.0
H5397 H 0.09405 0.65473 0.08871 0.0
C5398 C 0.06864 0.73808 0.06619 0.0
C5399 C 0.07084 0.74251 0.08588 0.0
C5400 C 0.06572 0.71909 0.05645 0.0
C5401 C 0.06494 0.70434 0.06629 0.0
C5402 C 0.06641 0.70877 0.0858 0.0
C5403 C 0.06923 0.72744 0.09541 0.0
C5404 C 0.0647 0.68447 0.05706 0.0
C5405 C 0.07995 0.67779 0.06054 0.0
C5406 C 0.04941 0.67158 0.04705 0.0
C5407 C 0.03287 0.67771 0.04277 0.0
C5408 C 0.02405 0.68627 0.05715 0.0
C5409 C 0.00843 0.69193 0.05295 0.0
C5410 C 0.00138 0.68896 0.03442 0.0
C5411 C 0.00992 0.68024 0.02005 0.0
C5412 C 0.02557 0.67458 0.02419 0.0
C5413 C 0.06225 0.59686 0.05777 0.0
C5414 C 0.05831 0.58475 0.04014 0.0
C5415 C 0.06484 0.61648 0.05959 0.0
C5416 C 0.06335 0.62456 0.04385 0.0
C5417 C 0.05982 0.61254 0.02613 0.0
C5418 C 0.05748 0.59285 0.02427 0.0
C5419 C 0.06463 0.64539 0.04635 0.0
C5420 C 0.04962 0.65219 0.04168 0.0
C5421 C 0.08008 0.6586 0.05532 0.0
C5422 C 0.09683 0.65299 0.05923 0.0
C5423 C 0.10808 0.65032 0.04501 0.0
C5424 C 0.12498 0.64739 0.04916 0.0
C5425 C 0.13052 0.64656 0.06738 0.0
C5426 C 0.11923 0.64893 0.08154 0.0
C5427 C 0.1025 0.65237 0.07755 0.0
H5428 H 0.14355 0.64411 0.07052 0.0
H5429 H 0.98927 0.69333 0.03119 0.0
H5430 H 0.05408 0.25876 0.87323 0.0
H5431 H 0.08151 0.26193 0.85769 0.0
H5432 H 0.11247 0.27635 0.91111 0.0
H5433 H 0.08497 0.27362 0.9268 0.0
H5434 H 0.12743 0.29869 0.88876 0.0
H5435 H 0.10695 0.23194 0.88253 0.0
H5436 H 0.08426 0.20192 0.87502 0.0
H5437 H 0.07799 0.20766 0.81801 0.0
H5438 H 0.1005 0.23785 0.82523 0.0
H5439 H 0.20654 0.29443 0.84187 0.0
H5440 H 0.18295 0.28695 0.86253 0.0
H5441 H 0.14372 0.27025 0.81495 0.0
H5442 H 0.16708 0.27728 0.79447 0.0
H5443 H 0.13501 0.24724 0.83774 0.0
H5444 H 0.15323 0.31509 0.84462 0.0
H5445 H 0.17405 0.34637 0.85246 0.0
H5446 H 0.18356 0.33923 0.9086 0.0
H5447 H 0.16301 0.30775 0.901 0.0
C5448 C 0.06671 0.26256 0.88171 0.0
C5449 C 0.06726 0.26584 0.90129 0.0
C5450 C 0.08244 0.2643 0.87278 0.0
C5451 C 0.09919 0.26908 0.88314 0.0
C5452 C 0.09979 0.27258 0.90273 0.0
C5453 C 0.08402 0.27096 0.9117 0.0
C5454 C 0.11596 0.27046 0.87344 0.0
C5455 C 0.12925 0.28728 0.87786 0.0
C5456 C 0.11836 0.25573 0.85902 0.0
C5457 C 0.10538 0.23719 0.85443 0.0
C5458 C 0.10072 0.2268 0.86839 0.0
C5459 C 0.08788 0.20977 0.86419 0.0
C5460 C 0.07968 0.20289 0.84605 0.0
C5461 C 0.08437 0.213 0.83205 0.0
C5462 C 0.0972 0.23005 0.83617 0.0
C5463 C 0.19293 0.28878 0.83582 0.0
C5464 C 0.18872 0.28661 0.8165 0.0
C5465 C 0.17938 0.28469 0.84766 0.0
C5466 C 0.16136 0.27832 0.84043 0.0
C5467 C 0.15739 0.27519 0.82102 0.0
C5468 C 0.17081 0.27931 0.80928 0.0
C5469 C 0.14641 0.27566 0.85278 0.0
C5470 C 0.1334 0.25855 0.84885 0.0
C5471 C 0.14428 0.29015 0.86765 0.0
C5472 C 0.15681 0.30895 0.87215 0.0
C5473 C 0.15992 0.3201 0.85858 0.0
C5474 C 0.17164 0.33788 0.86299 0.0
C5475 C 0.18018 0.34475 0.88099 0.0
C5476 C 0.17699 0.33386 0.89464 0.0
C5477 C 0.16532 0.31604 0.89028 0.0
H5478 H 0.18922 0.35853 0.88439 0.0
H5479 H 0.06969 0.18974 0.84284 0.0
H5480 H 0.61072 0.77154 0.93655 0.0
H5481 H 0.60461 0.74343 0.9505 0.0
H5482 H 0.55371 0.72378 0.9178 0.0
H5483 H 0.55981 0.75155 0.90356 0.0
H5484 H 0.5558 0.72903 0.95955 0.0
H5485 H 0.57862 0.69993 0.90397 0.0
H5486 H 0.60151 0.6998 0.8817 0.0
H5487 H 0.64018 0.69843 0.92525 0.0
H5488 H 0.61754 0.69882 0.94788 0.0
H5489 H 0.52241 0.64548 0.98649 0.0
H5490 H 0.53217 0.66597 0.96457 0.0
H5491 H 0.5868 0.67395 0.98653 0.0
H5492 H 0.57706 0.65266 0.00788 0.0
H5493 H 0.58458 0.67442 0.9493 0.0
H5494 H 0.56295 0.70435 0.00485 0.0
H5495 H 0.5419 0.70899 0.02859 0.0
H5496 H 0.50294 0.71283 0.98648 0.0
H5497 H 0.52366 0.70789 0.96244 0.0
C5498 C 0.59822 0.76123 0.93246 0.0
C5499 C 0.58562 0.76359 0.9192 0.0
C5500 C 0.5949 0.74518 0.94018 0.0
C5501 C 0.57889 0.73166 0.93482 0.0
C5502 C 0.56622 0.73411 0.92176 0.0
C5503 C 0.56965 0.74994 0.91382 0.0
C5504 C 0.57445 0.71591 0.94429 0.0
C5505 C 0.56183 0.71689 0.95714 0.0
C5506 C 0.58297 0.70068 0.94137 0.0
C5507 C 0.5964 0.69949 0.92765 0.0
C5508 C 0.59202 0.69966 0.90882 0.0
C5509 C 0.60494 0.69954 0.89613 0.0
C5510 C 0.6223 0.69913 0.90206 0.0
C5511 C 0.62673 0.69873 0.92068 0.0
C5512 C 0.61384 0.69886 0.93344 0.0
C5513 C 0.53648 0.65156 0.98649 0.0
C5514 C 0.54901 0.64818 0.99912 0.0
C5515 C 0.54205 0.66304 0.97392 0.0
C5516 C 0.56014 0.67174 0.97431 0.0
C5517 C 0.57279 0.6674 0.98613 0.0
C5518 C 0.56723 0.65553 0.99843 0.0
C5519 C 0.5654 0.68723 0.96434 0.0
C5520 C 0.57838 0.6864 0.95158 0.0
C5521 C 0.55735 0.70289 0.96744 0.0
C5522 C 0.54477 0.70552 0.98183 0.0
C5523 C 0.54983 0.70598 0.00063 0.0
C5524 C 0.53797 0.7087 0.01415 0.0
C5525 C 0.52108 0.71114 0.00904 0.0
C5526 C 0.51601 0.71088 0.99041 0.0
C5527 C 0.5278 0.70812 0.97684 0.0
H5528 H 0.51193 0.7133 0.01954 0.0
H5529 H 0.63231 0.69911 0.89223 0.0
H5530 H 0.06233 0.79248 0.68772 0.0
H5531 H 0.09018 0.78657 0.70041 0.0
H5532 H 0.07616 0.72942 0.66827 0.0
H5533 H 0.04868 0.73547 0.65503 0.0
H5534 H 0.09093 0.74038 0.71271 0.0
H5535 H 0.10165 0.7474 0.64845 0.0
H5536 H 0.09782 0.76478 0.6235 0.0
H5537 H 0.12787 0.81628 0.65859 0.0
H5538 H 0.13157 0.79922 0.6839 0.0
H5539 H 0.1713 0.71804 0.73049 0.0
H5540 H 0.14605 0.71961 0.70972 0.0
H5541 H 0.16281 0.78051 0.72122 0.0
H5542 H 0.18837 0.77893 0.74149 0.0
H5543 H 0.14625 0.76618 0.68529 0.0
H5544 H 0.13606 0.76196 0.74872 0.0
H5545 H 0.13851 0.74792 0.77642 0.0
H5546 H 0.10643 0.69491 0.74618 0.0
H5547 H 0.10406 0.70859 0.71816 0.0
C5548 C 0.06536 0.77875 0.68334 0.0
C5549 C 0.05386 0.76457 0.67015 0.0
C5550 C 0.08103 0.77536 0.69065 0.0
C5551 C 0.08497 0.75761 0.68515 0.0
C5552 C 0.07316 0.74317 0.67253 0.0
C5553 C 0.05772 0.74672 0.66485 0.0
C5554 C 0.10214 0.75466 0.69155 0.0
C5555 C 0.10301 0.74561 0.70654 0.0
C5556 C 0.11772 0.76211 0.6837 0.0
C5557 C 0.11689 0.77205 0.66803 0.0
C5558 C 0.10747 0.76242 0.65081 0.0
C5559 C 0.10528 0.77222 0.63663 0.0
C5560 C 0.1126 0.79163 0.63945 0.0
C5561 C 0.12224 0.80124 0.65642 0.0
C5562 C 0.12442 0.79151 0.67067 0.0
C5563 C 0.16968 0.73168 0.72827 0.0
C5564 C 0.18136 0.74837 0.73776 0.0
C5565 C 0.15546 0.73257 0.71633 0.0
C5566 C 0.15253 0.75019 0.71425 0.0
C5567 C 0.16494 0.76681 0.72266 0.0
C5568 C 0.17935 0.7659 0.73435 0.0
C5569 C 0.13511 0.75142 0.70629 0.0
C5570 C 0.13417 0.76046 0.6912 0.0
C5571 C 0.11941 0.74424 0.71428 0.0
C5572 C 0.11998 0.73625 0.73134 0.0
C5573 C 0.12954 0.74731 0.74799 0.0
C5574 C 0.13094 0.73941 0.76372 0.0
C5575 C 0.12265 0.72052 0.76305 0.0
C5576 C 0.11285 0.70953 0.74667 0.0
C5577 C 0.11146 0.71735 0.73086 0.0
H5578 H 0.12379 0.71441 0.77524 0.0
H5579 H 0.11081 0.79921 0.62849 0.0
H5580 H 0.09137 0.38162 0.38302 0.0
H5581 H 0.08513 0.40933 0.40275 0.0
H5582 H 0.11957 0.40259 0.44809 0.0
H5583 H 0.12465 0.37371 0.42862 0.0
H5584 H 0.08837 0.40507 0.45858 0.0
H5585 H 0.1297 0.44063 0.42275 0.0
H5586 H 0.14038 0.44706 0.39292 0.0
H5587 H 0.09021 0.45867 0.37721 0.0
H5588 H 0.07915 0.45208 0.40681 0.0
H5589 H 0.07227 0.48256 0.51842 0.0
H5590 H 0.08844 0.46317 0.49899 0.0
H5591 H 0.057 0.46684 0.45004 0.0
H5592 H 0.04269 0.48855 0.46915 0.0
H5593 H 0.08932 0.46753 0.44251 0.0
H5594 H 0.04583 0.42883 0.47204 0.0
H5595 H 0.03117 0.42202 0.49992 0.0
H5596 H 0.08009 0.41443 0.52441 0.0
H5597 H 0.09511 0.42145 0.49675 0.0
C5598 C 0.09803 0.38645 0.39701 0.0
C5599 C 0.10859 0.3759 0.40443 0.0
C5600 C 0.09454 0.40229 0.40823 0.0
C5601 C 0.10223 0.4082 0.42671 0.0
C5602 C 0.11366 0.39824 0.43378 0.0
C5603 C 0.11663 0.38193 0.42273 0.0
C5604 C 0.09656 0.42329 0.43922 0.0
C5605 C 0.08899 0.41889 0.45531 0.0
C5606 C 0.09658 0.44091 0.43435 0.0
C5607 C 0.10362 0.44586 0.41701 0.0
C5608 C 0.12097 0.44459 0.41294 0.0
C5609 C 0.12706 0.44822 0.39606 0.0
C5610 C 0.11598 0.45327 0.38318 0.0
C5611 C 0.0988 0.4548 0.38721 0.0
C5612 C 0.09263 0.45117 0.40406 0.0
C5613 C 0.06867 0.47929 0.50363 0.0
C5614 C 0.05529 0.48626 0.49558 0.0
C5615 C 0.07799 0.46821 0.49251 0.0
C5616 C 0.07342 0.46314 0.47324 0.0
C5617 C 0.06044 0.47039 0.465 0.0
C5618 C 0.05171 0.48221 0.47607 0.0
C5619 C 0.08139 0.4493 0.46182 0.0
C5620 C 0.08914 0.45384 0.44593 0.0
C5621 C 0.08098 0.43154 0.46645 0.0
C5622 C 0.0716 0.42568 0.48234 0.0
C5623 C 0.05343 0.42559 0.48332 0.0
C5624 C 0.04508 0.42177 0.49912 0.0
C5625 C 0.0547 0.41781 0.51393 0.0
C5626 C 0.07266 0.41748 0.51291 0.0
C5627 C 0.08109 0.42133 0.49716 0.0
H5628 H 0.04825 0.41499 0.5262 0.0
H5629 H 0.1207 0.45599 0.37008 0.0
H5630 H 0.4592 0.28677 0.19217 0.0
H5631 H 0.42888 0.28604 0.20111 0.0
H5632 H 0.42114 0.22654 0.20146 0.0
H5633 H 0.45161 0.22737 0.19331 0.0
H5634 H 0.39004 0.25165 0.18724 0.0
H5635 H 0.43107 0.2372 0.23842 0.0
H5636 H 0.46196 0.24621 0.25317 0.0
H5637 H 0.46001 0.30482 0.2627 0.0
H5638 H 0.42922 0.2961 0.24765 0.0
H5639 H 0.31948 0.24007 0.2312 0.0
H5640 H 0.34744 0.23131 0.22711 0.0
H5641 H 0.37483 0.28483 0.26155 0.0
H5642 H 0.34612 0.29095 0.26987 0.0
H5643 H 0.39669 0.26382 0.25669 0.0
H5644 H 0.35699 0.28209 0.21441 0.0
H5645 H 0.32766 0.27934 0.19776 0.0
H5646 H 0.32813 0.2232 0.16906 0.0
H5647 H 0.35737 0.22556 0.18569 0.0
C5648 C 0.45088 0.27361 0.19412 0.0
C5649 C 0.45757 0.25733 0.19302 0.0
C5650 C 0.43365 0.27312 0.19876 0.0
C5651 C 0.42317 0.25624 0.20178 0.0
C5652 C 0.4293 0.23958 0.19901 0.0
C5653 C 0.44666 0.24018 0.19488 0.0
C5654 C 0.40787 0.25697 0.21209 0.0
C5655 C 0.39127 0.25406 0.20237 0.0
C5656 C 0.41006 0.26098 0.23173 0.0
C5657 C 0.42793 0.26602 0.24204 0.0
C5658 C 0.43724 0.25199 0.24377 0.0
C5659 C 0.45473 0.25704 0.25209 0.0
C5660 C 0.46294 0.27608 0.2589 0.0
C5661 C 0.45364 0.29009 0.25745 0.0
C5662 C 0.43617 0.2851 0.24903 0.0
C5663 C 0.33124 0.24965 0.23875 0.0
C5664 C 0.33089 0.26747 0.24936 0.0
C5665 C 0.34728 0.24455 0.23638 0.0
C5666 C 0.363 0.2582 0.2426 0.0
C5667 C 0.36269 0.2745 0.25577 0.0
C5668 C 0.34641 0.27859 0.25978 0.0
C5669 C 0.37836 0.25773 0.23193 0.0
C5670 C 0.39517 0.26106 0.24155 0.0
C5671 C 0.37642 0.25503 0.21212 0.0
C5672 C 0.35931 0.25398 0.20133 0.0
C5673 C 0.35086 0.26921 0.20448 0.0
C5674 C 0.33424 0.26769 0.19509 0.0
C5675 C 0.32604 0.2511 0.18237 0.0
C5676 C 0.3345 0.23604 0.17891 0.0
C5677 C 0.35111 0.23746 0.18828 0.0
H5678 H 0.31314 0.24992 0.17519 0.0
H5679 H 0.4765 0.27997 0.26528 0.0
H5680 H 0.60477 0.5165 0.31346 0.0
H5681 H 0.59374 0.51693 0.34393 0.0
H5682 H 0.64119 0.50247 0.36419 0.0
H5683 H 0.65232 0.50157 0.33297 0.0
H5684 H 0.61369 0.48537 0.38108 0.0
H5685 H 0.63272 0.54978 0.37494 0.0
H5686 H 0.63441 0.57726 0.36001 0.0
H5687 H 0.57799 0.57163 0.36109 0.0
H5688 H 0.57593 0.54397 0.37581 0.0
H5689 H 0.59601 0.51679 0.47835 0.0
H5690 H 0.60898 0.51252 0.44816 0.0
H5691 H 0.56138 0.52054 0.42093 0.0
H5692 H 0.54837 0.52447 0.45078 0.0
H5693 H 0.59054 0.54104 0.40852 0.0
H5694 H 0.57106 0.47751 0.41471 0.0
H5695 H 0.56828 0.44965 0.42915 0.0
H5696 H 0.62423 0.45273 0.42738 0.0
H5697 H 0.62757 0.48114 0.41358 0.0
C5698 C 0.61307 0.51334 0.32423 0.0
C5699 C 0.62975 0.50918 0.32024 0.0
C5700 C 0.60665 0.51373 0.34202 0.0
C5701 C 0.6166 0.51031 0.35717 0.0
C5702 C 0.63303 0.50541 0.35317 0.0
C5703 C 0.63949 0.50488 0.33511 0.0
C5704 C 0.60979 0.51228 0.37683 0.0
C5705 C 0.60901 0.49778 0.38714 0.0
C5706 C 0.60298 0.52809 0.38516 0.0
C5707 C 0.60416 0.54472 0.37634 0.0
C5708 C 0.62066 0.55434 0.37188 0.0
C5709 C 0.62168 0.56995 0.36347 0.0
C5710 C 0.60631 0.57616 0.35957 0.0
C5711 C 0.58988 0.56679 0.3641 0.0
C5712 C 0.58878 0.55116 0.3725 0.0
C5713 C 0.58815 0.51744 0.46594 0.0
C5714 C 0.5708 0.52068 0.46741 0.0
C5715 C 0.59565 0.51496 0.44847 0.0
C5716 C 0.58634 0.51606 0.43171 0.0
C5717 C 0.56911 0.51949 0.43326 0.0
C5718 C 0.5615 0.52156 0.45058 0.0
C5719 C 0.59449 0.5142 0.41279 0.0
C5720 C 0.59542 0.52871 0.40258 0.0
C5721 C 0.60136 0.49841 0.40462 0.0
C5722 C 0.59961 0.48167 0.41338 0.0
C5723 C 0.58286 0.47249 0.41772 0.0
C5724 C 0.58119 0.4566 0.42579 0.0
C5725 C 0.59614 0.44957 0.42937 0.0
C5726 C 0.61276 0.4584 0.42484 0.0
C5727 C 0.61455 0.47441 0.41691 0.0
H5728 H 0.59482 0.43721 0.43553 0.0
H5729 H 0.60713 0.58825 0.35306 0.0
H5730 H 0.29603 0.89082 0.05789 0.0
H5731 H 0.29567 0.87873 0.08666 0.0
H5732 H 0.352 0.90303 0.09907 0.0
H5733 H 0.35228 0.91595 0.07038 0.0
H5734 H 0.33722 0.86076 0.09611 0.0
H5735 H 0.33093 0.92258 0.12694 0.0
H5736 H 0.31712 0.95001 0.12988 0.0
H5737 H 0.2663 0.91435 0.13399 0.0
H5738 H 0.2798 0.88666 0.13092 0.0
H5739 H 0.35656 0.84699 0.18351 0.0
H5740 H 0.34942 0.86706 0.16272 0.0
H5741 H 0.29675 0.83114 0.14862 0.0
H5742 H 0.30392 0.81072 0.16942 0.0
H5743 H 0.30697 0.87919 0.15268 0.0
H5744 H 0.31121 0.81724 0.11855 0.0
H5745 H 0.3234 0.78869 0.11245 0.0
H5746 H 0.37554 0.82303 0.11106 0.0
H5747 H 0.36368 0.85183 0.1175 0.0
C5748 C 0.30833 0.89356 0.06679 0.0
C5749 C 0.32426 0.90388 0.06199 0.0
C5750 C 0.30804 0.88691 0.08323 0.0
C5751 C 0.32375 0.89023 0.09484 0.0
C5752 C 0.33975 0.90064 0.09019 0.0
C5753 C 0.33994 0.9078 0.07389 0.0
C5754 C 0.3236 0.88084 0.11065 0.0
C5755 C 0.33084 0.86492 0.10861 0.0
C5756 C 0.31443 0.88589 0.12633 0.0
C5757 C 0.30636 0.90255 0.12862 0.0
C5758 C 0.31679 0.92058 0.12839 0.0
C5759 C 0.30903 0.93618 0.1301 0.0
C5760 C 0.29084 0.93392 0.1321 0.0
C5761 C 0.28039 0.91608 0.13246 0.0
C5762 C 0.2881 0.90044 0.13079 0.0
C5763 C 0.3433 0.84369 0.17638 0.0
C5764 C 0.33087 0.82724 0.1777 0.0
C5765 C 0.33921 0.85519 0.16467 0.0
C5766 C 0.32266 0.85037 0.15418 0.0
C5767 C 0.30955 0.835 0.15678 0.0
C5768 C 0.31366 0.82339 0.16857 0.0
C5769 C 0.32083 0.85925 0.1382 0.0
C5770 C 0.31324 0.87502 0.14014 0.0
C5771 C 0.32932 0.85385 0.12209 0.0
C5772 C 0.33663 0.83668 0.1189 0.0
C5773 C 0.32533 0.81872 0.1173 0.0
C5774 C 0.33216 0.80249 0.11368 0.0
C5775 C 0.35026 0.80405 0.11148 0.0
C5776 C 0.36155 0.82185 0.11287 0.0
C5777 C 0.35478 0.83812 0.11652 0.0
H5778 H 0.35551 0.79146 0.1086 0.0
H5779 H 0.28485 0.94601 0.13339 0.0
H5780 H 0.97415 0.52719 0.83745 0.0
H5781 H 0.98493 0.53189 0.87018 0.0
H5782 H 0.93191 0.53188 0.88634 0.0
H5783 H 0.92094 0.52731 0.85349 0.0
H5784 H 0.96287 0.56412 0.90536 0.0
H5785 H 0.94225 0.4967 0.89383 0.0
H5786 H 0.93694 0.46584 0.87206 0.0
H5787 H 0.99322 0.47227 0.86887 0.0
H5788 H 0.99886 0.50325 0.89047 0.0
H5789 H 0.01068 0.56395 0.99202 0.0
H5790 H 0.9892 0.56218 0.96603 0.0
H5791 H 0.02486 0.5422 0.92745 0.0
H5792 H 0.04578 0.54263 0.95366 0.0
H5793 H 0.99343 0.51728 0.92493 0.0
H5794 H 0.01376 0.58518 0.92869 0.0
H5795 H 0.02162 0.61756 0.94774 0.0
H5796 H 0.96821 0.61144 0.96359 0.0
H5797 H 0.96009 0.57891 0.94476 0.0
C5798 C 0.96476 0.52779 0.84793 0.0
C5799 C 0.94682 0.5269 0.84318 0.0
C5800 C 0.9709 0.53063 0.8665 0.0
C5801 C 0.95906 0.53221 0.8803 0.0
C5802 C 0.94105 0.53078 0.87565 0.0
C5803 C 0.9349 0.52806 0.85703 0.0
C5804 C 0.96609 0.53537 0.89957 0.0
C5805 C 0.9691 0.5538 0.91014 0.0
C5806 C 0.97413 0.52175 0.90529 0.0
C5807 C 0.97097 0.50223 0.89393 0.0
C5808 C 0.9535 0.49143 0.88864 0.0
C5809 C 0.95043 0.47396 0.87626 0.0
C5810 C 0.96474 0.46708 0.86913 0.0
C5811 C 0.98216 0.47757 0.8745 0.0
C5812 C 0.98531 0.49505 0.88689 0.0
C5813 C 0.01416 0.55992 0.97791 0.0
C5814 C 0.02951 0.5531 0.97453 0.0
C5815 C 0.00194 0.55892 0.96316 0.0
C5816 C 0.00549 0.5518 0.94503 0.0
C5817 C 0.02201 0.54753 0.94153 0.0
C5818 C 0.03406 0.54811 0.95638 0.0
C5819 C 0.99118 0.54642 0.9301 0.0
C5820 C 0.98668 0.52747 0.92066 0.0
C5821 C 0.98191 0.55961 0.92538 0.0
C5822 C 0.98632 0.57966 0.93534 0.0
C5823 C 0.00367 0.5908 0.93615 0.0
C5824 C 0.00819 0.60914 0.94695 0.0
C5825 C 0.99542 0.61655 0.95687 0.0
C5826 C 0.97807 0.60569 0.95586 0.0
C5827 C 0.97348 0.58732 0.94509 0.0
H5828 H 0.99898 0.63071 0.96533 0.0
H5829 H 0.96233 0.45363 0.8594 0.0
H5830 H 0.30099 0.23831 0.55771 0.0
H5831 H 0.30284 0.25671 0.5898 0.0
H5832 H 0.30074 0.20589 0.61114 0.0
H5833 H 0.29886 0.18761 0.57957 0.0
H5834 H 0.27254 0.22505 0.61932 0.0
H5835 H 0.33633 0.23714 0.61776 0.0
H5836 H 0.36402 0.25029 0.60495 0.0
H5837 H 0.35612 0.3064 0.62269 0.0
H5838 H 0.32781 0.29353 0.63475 0.0
H5839 H 0.28541 0.23559 0.71476 0.0
H5840 H 0.28605 0.23019 0.68117 0.0
H5841 H 0.29661 0.2903 0.68345 0.0
H5842 H 0.29664 0.29582 0.71779 0.0
H5843 H 0.31928 0.27351 0.66143 0.0
H5844 H 0.25311 0.2609 0.65421 0.0
H5845 H 0.22242 0.24718 0.66036 0.0
H5846 H 0.23549 0.19328 0.65837 0.0
H5847 H 0.26594 0.20647 0.65114 0.0
C5848 C 0.3013 0.23118 0.5693 0.0
C5849 C 0.29939 0.21143 0.56609 0.0
C5850 C 0.30242 0.24171 0.5876 0.0
C5851 C 0.30181 0.2326 0.6028 0.0
C5852 C 0.30115 0.21316 0.59959 0.0
C5853 C 0.29997 0.20271 0.58149 0.0
C5854 C 0.29913 0.2422 0.62178 0.0
C5855 C 0.2828 0.2357 0.62848 0.0
C5856 C 0.31229 0.25655 0.6335 0.0
C5857 C 0.3297 0.26431 0.62688 0.0
C5858 C 0.3403 0.25226 0.6187 0.0
C5859 C 0.35614 0.25967 0.61157 0.0
C5860 C 0.36182 0.27916 0.61299 0.0
C5861 C 0.35166 0.29129 0.62155 0.0
C5862 C 0.33566 0.28394 0.62846 0.0
C5863 C 0.28732 0.24767 0.70809 0.0
C5864 C 0.29071 0.26609 0.71887 0.0
C5865 C 0.28764 0.24457 0.6888 0.0
C5866 C 0.29108 0.25978 0.67958 0.0
C5867 C 0.29381 0.27831 0.69021 0.0
C5868 C 0.29357 0.28146 0.70976 0.0
C5869 C 0.29279 0.25579 0.65908 0.0
C5870 C 0.3089 0.26326 0.65209 0.0
C5871 C 0.27947 0.2423 0.64679 0.0
C5872 C 0.26175 0.23471 0.65247 0.0
C5873 C 0.24942 0.24616 0.65521 0.0
C5874 C 0.23202 0.23841 0.65859 0.0
C5875 C 0.22705 0.21942 0.65993 0.0
C5876 C 0.23937 0.20801 0.65745 0.0
C5877 C 0.25661 0.21554 0.65347 0.0
H5878 H 0.21364 0.21353 0.66282 0.0
H5879 H 0.37414 0.28487 0.60754 0.0
H5880 H 0.65862 0.51201 0.19175 0.0
H5881 H 0.64376 0.51713 0.16353 0.0
H5882 H 0.59291 0.50228 0.18497 0.0
H5883 H 0.60786 0.49703 0.21342 0.0
H5884 H 0.58786 0.4889 0.14748 0.0
H5885 H 0.61315 0.54922 0.18408 0.0
H5886 H 0.63616 0.57477 0.20366 0.0
H5887 H 0.66852 0.57623 0.15774 0.0
H5888 H 0.64579 0.55046 0.13794 0.0
H5889 H 0.5477 0.52509 0.07323 0.0
H5890 H 0.55765 0.52058 0.10431 0.0
H5891 H 0.6121 0.53289 0.09114 0.0
H5892 H 0.60223 0.53737 0.06045 0.0
H5893 H 0.61219 0.54837 0.12638 0.0
H5894 H 0.58595 0.48315 0.09189 0.0
H5895 H 0.56047 0.46012 0.07297 0.0
H5896 H 0.52655 0.47243 0.11611 0.0
H5897 H 0.55197 0.49493 0.13553 0.0
C5898 C 0.64425 0.50973 0.19061 0.0
C5899 C 0.63471 0.5041 0.20537 0.0
C5900 C 0.63563 0.5128 0.17424 0.0
C5901 C 0.61692 0.51046 0.17162 0.0
C5902 C 0.60726 0.50433 0.18614 0.0
C5903 C 0.61594 0.50136 0.20265 0.0
C5904 C 0.6079 0.51502 0.15416 0.0
C5905 C 0.59321 0.50204 0.14313 0.0
C5906 C 0.61422 0.53217 0.14788 0.0
C5907 C 0.62786 0.54778 0.15959 0.0
C5908 C 0.62523 0.55491 0.17819 0.0
C5909 C 0.63821 0.56943 0.18933 0.0
C5910 C 0.65382 0.57708 0.18196 0.0
C5911 C 0.65644 0.57026 0.16343 0.0
C5912 C 0.6435 0.5557 0.15223 0.0
C5913 C 0.56182 0.52715 0.07705 0.0
C5914 C 0.57408 0.53177 0.064 0.0
C5915 C 0.56759 0.52426 0.09492 0.0
C5916 C 0.58586 0.52593 0.10054 0.0
C5917 C 0.59799 0.5313 0.08768 0.0
C5918 C 0.59225 0.53394 0.0699 0.0
C5919 C 0.59265 0.52203 0.11937 0.0
C5920 C 0.60692 0.5352 0.13071 0.0
C5921 C 0.58569 0.50529 0.12609 0.0
C5922 C 0.57083 0.49062 0.11515 0.0
C5923 C 0.5731 0.48068 0.09743 0.0
C5924 C 0.55869 0.46768 0.08664 0.0
C5925 C 0.54193 0.46465 0.0934 0.0
C5926 C 0.53958 0.47457 0.11098 0.0
C5927 C 0.55402 0.48729 0.12197 0.0
H5928 H 0.53075 0.45469 0.08498 0.0
H5929 H 0.66386 0.58832 0.19061 0.0
H5930 H 0.34337 0.90957 0.96111 0.0
H5931 H 0.34613 0.88467 0.93493 0.0
H5932 H 0.2907 0.87741 0.9162 0.0
H5933 H 0.28798 0.90245 0.94251 0.0
H5934 H 0.30071 0.84365 0.91953 0.0
H5935 H 0.31952 0.89855 0.89347 0.0
H5936 H 0.33737 0.93032 0.893 0.0
H5937 H 0.38515 0.90948 0.8932 0.0
H5938 H 0.3676 0.87762 0.8941 0.0
H5939 H 0.284 0.80699 0.82615 0.0
H5940 H 0.28967 0.82399 0.85824 0.0
H5941 H 0.34366 0.81658 0.85958 0.0
H5942 H 0.3377 0.79905 0.82691 0.0
H5943 H 0.34024 0.85387 0.86925 0.0
H5944 H 0.31646 0.79539 0.88718 0.0
H5945 H 0.29481 0.76474 0.88242 0.0
H5946 H 0.25238 0.79336 0.89307 0.0
H5947 H 0.27368 0.82418 0.89755 0.0
C5948 C 0.33198 0.90298 0.95101 0.0
C5949 C 0.31559 0.90794 0.95327 0.0
C5950 C 0.3335 0.88873 0.9363 0.0
C5951 C 0.31859 0.8793 0.92388 0.0
C5952 C 0.30228 0.88461 0.92584 0.0
C5953 C 0.30079 0.899 0.94054 0.0
C5954 C 0.32 0.86375 0.90886 0.0
C5955 C 0.30938 0.84576 0.90854 0.0
C5956 C 0.33169 0.86668 0.89496 0.0
C5957 C 0.34228 0.88576 0.89416 0.0
C5958 C 0.33386 0.90077 0.89363 0.0
C5959 C 0.34391 0.9188 0.89326 0.0
C5960 C 0.36239 0.92194 0.89316 0.0
C5961 C 0.37084 0.90704 0.89335 0.0
C5962 C 0.36085 0.88899 0.89381 0.0
C5963 C 0.29667 0.80794 0.83363 0.0
C5964 C 0.31014 0.801 0.82466 0.0
C5965 C 0.30001 0.81785 0.85186 0.0
C5966 C 0.31692 0.82098 0.86134 0.0
C5967 C 0.33045 0.81385 0.85248 0.0
C5968 C 0.32706 0.80388 0.83404 0.0
C5969 C 0.32056 0.83383 0.87956 0.0
C5970 C 0.33216 0.85146 0.88064 0.0
C5971 C 0.30941 0.83066 0.89389 0.0
C5972 C 0.29674 0.81215 0.89282 0.0
C5973 C 0.30252 0.79517 0.88862 0.0
C5974 C 0.29029 0.77775 0.88589 0.0
C5975 C 0.27223 0.77711 0.88746 0.0
C5976 C 0.26638 0.79388 0.89192 0.0
C5977 C 0.27855 0.81134 0.89462 0.0
H5978 H 0.26277 0.76361 0.88521 0.0
H5979 H 0.37016 0.9359 0.89286 0.0
H5980 H 0.95516 0.5396 0.76025 0.0
H5981 H 0.96646 0.52991 0.73096 0.0
H5982 H 0.92281 0.54384 0.7017 0.0
H5983 H 0.90948 0.55071 0.73139 0.0
H5984 H 0.9353 0.51387 0.68122 0.0
H5985 H 0.9605 0.57706 0.71661 0.0
H5986 H 0.97231 0.59849 0.74673 0.0
H5987 H 0.01586 0.57125 0.75006 0.0
H5988 H 0.0041 0.54938 0.72019 0.0
H5989 H 0.99155 0.51777 0.6085 0.0
H5990 H 0.97304 0.52869 0.63205 0.0
H5991 H 0.00879 0.51971 0.67489 0.0
H5992 H 0.02826 0.51013 0.6513 0.0
H5993 H 0.99743 0.5516 0.6855 0.0
H5994 H 0.97194 0.48685 0.65454 0.0
H5995 H 0.9598 0.46166 0.627 0.0
H5996 H 0.91724 0.48865 0.61714 0.0
H5997 H 0.92942 0.51434 0.64434 0.0
C5998 C 0.94743 0.53995 0.74767 0.0
C5999 C 0.93137 0.54593 0.74813 0.0
C6000 C 0.95406 0.53454 0.73089 0.0
C6001 C 0.9458 0.53691 0.71439 0.0
C6002 C 0.92943 0.54223 0.71448 0.0
C6003 C 0.92205 0.54645 0.73136 0.0
C6004 C 0.95577 0.5361 0.69789 0.0
C6005 C 0.94871 0.52241 0.68185 0.0
C6006 C 0.97336 0.54716 0.6991 0.0
C6007 C 0.98145 0.56164 0.71606 0.0
C6008 C 0.97268 0.57576 0.72367 0.0
C6009 C 0.97931 0.5879 0.74077 0.0
C6010 C 0.99485 0.58626 0.75028 0.0
C6011 C 0.00386 0.57255 0.74265 0.0
C6012 C 0.99724 0.5603 0.72561 0.0
C6013 C 0.99578 0.51866 0.62295 0.0
C6014 C 0.01141 0.51326 0.6281 0.0
C6015 C 0.98506 0.52467 0.63635 0.0
C6016 C 0.98947 0.52469 0.65506 0.0
C6017 C 0.00523 0.51969 0.6604 0.0
C6018 C 0.01618 0.51402 0.64697 0.0
C6019 C 0.9772 0.52895 0.66901 0.0
C6020 C 0.98384 0.54343 0.68455 0.0
C6021 C 0.95935 0.51846 0.66739 0.0
C6022 C 0.95176 0.5027 0.65133 0.0
C6023 C 0.96009 0.48753 0.64642 0.0
C6024 C 0.9532 0.47316 0.63085 0.0
C6025 C 0.9378 0.4736 0.62028 0.0
C6026 C 0.92921 0.48837 0.6253 0.0
C6027 C 0.93612 0.50286 0.64077 0.0
H6028 H 0.93249 0.46246 0.60824 0.0
H6029 H -0.00011 0.59559 0.76358 0.0
H6030 H 0.31213 0.19194 0.43833 0.0
H6031 H 0.31568 0.20465 0.40997 0.0
H6032 H 0.29503 0.25229 0.43514 0.0
H6033 H 0.29145 0.23965 0.46369 0.0
H6034 H 0.27815 0.23435 0.40042 0.0
H6035 H 0.33835 0.25808 0.42845 0.0
H6036 H 0.36741 0.2564 0.44266 0.0
H6037 H 0.37489 0.21852 0.3931 0.0
H6038 H 0.34574 0.21971 0.37869 0.0
H6039 H 0.29902 0.29054 0.33245 0.0
H6040 H 0.30017 0.27977 0.36202 0.0
H6041 H 0.31177 0.22771 0.33354 0.0
H6042 H 0.31001 0.2382 0.30371 0.0
H6043 H 0.33391 0.248 0.36957 0.0
H6044 H 0.27422 0.21992 0.34319 0.0
H6045 H 0.24447 0.21804 0.32811 0.0
H6046 H 0.23608 0.26104 0.37285 0.0
H6047 H 0.26581 0.2631 0.38825 0.0
C6048 C 0.30852 0.20523 0.43793 0.0
C6049 C 0.30145 0.21478 0.45323 0.0
C6050 C 0.31066 0.21252 0.42174 0.0
C6051 C 0.30574 0.22947 0.42052 0.0
C6052 C 0.29897 0.23922 0.43587 0.0
C6053 C 0.29696 0.23201 0.45216 0.0
C6054 C 0.30644 0.23623 0.40274 0.0
C6055 C 0.29042 0.23768 0.39388 0.0
C6056 C 0.32232 0.23977 0.39381 0.0
C6057 C 0.33974 0.23881 0.40258 0.0
C6058 C 0.34609 0.24921 0.42066 0.0
C6059 C 0.36261 0.24839 0.42873 0.0
C6060 C 0.37297 0.23731 0.41882 0.0
C6061 C 0.36684 0.22706 0.40079 0.0
C6062 C 0.35032 0.22781 0.39266 0.0
C6063 C 0.30209 0.27693 0.33257 0.0
C6064 C 0.30456 0.2652 0.31595 0.0
C6065 C 0.30262 0.27077 0.34939 0.0
C6066 C 0.30598 0.25297 0.34984 0.0
C6067 C 0.30912 0.24149 0.33336 0.0
C6068 C 0.30813 0.24746 0.31643 0.0
C6069 C 0.30571 0.24625 0.36754 0.0
C6070 C 0.32173 0.24478 0.37629 0.0
C6071 C 0.28982 0.24235 0.37625 0.0
C6072 C 0.2723 0.24183 0.36674 0.0
C6073 C 0.26611 0.22914 0.34969 0.0
C6074 C 0.24921 0.22795 0.34116 0.0
C6075 C 0.2384 0.23946 0.3495 0.0
C6076 C 0.24447 0.25216 0.36641 0.0
C6077 C 0.26132 0.25329 0.37508 0.0
H6078 H 0.22531 0.23851 0.34286 0.0
H6079 H 0.38576 0.23672 0.42508 0.0
H6080 H 0.31146 0.57953 0.52169 0.0
H6081 H 0.34098 0.57277 0.51949 0.0
H6082 H 0.36504 0.63258 0.53127 0.0
H6083 H 0.33547 0.63946 0.53287 0.0
H6084 H 0.37887 0.61103 0.50192 0.0
H6085 H 0.36798 0.6114 0.56571 0.0
H6086 H 0.3467 0.60356 0.58859 0.0
H6087 H 0.34086 0.54434 0.56625 0.0
H6088 H 0.36194 0.55184 0.54308 0.0
H6089 H 0.45654 0.5741 0.50074 0.0
H6090 H 0.43679 0.59385 0.51389 0.0
H6091 H 0.3948 0.54394 0.51032 0.0
H6092 H 0.41474 0.52401 0.49797 0.0
H6093 H 0.3957 0.56957 0.54245 0.0
H6094 H 0.39956 0.56829 0.47597 0.0
H6095 H 0.41496 0.57416 0.44826 0.0
H6096 H 0.43027 0.63353 0.47233 0.0
H6097 H 0.41527 0.62794 0.5004 0.0
C6098 C 0.32307 0.59118 0.52399 0.0
C6099 C 0.32141 0.60995 0.52769 0.0
C6100 C 0.33982 0.58736 0.52264 0.0
C6101 C 0.355 0.60227 0.52555 0.0
C6102 C 0.35337 0.62102 0.52907 0.0
C6103 C 0.33659 0.62486 0.53009 0.0
C6104 C 0.37256 0.59795 0.52536 0.0
C6105 C 0.38299 0.60249 0.51111 0.0
C6106 C 0.37757 0.58681 0.53742 0.0
C6107 C 0.36668 0.58218 0.55278 0.0
C6108 C 0.36233 0.5967 0.56584 0.0
C6109 C 0.35022 0.59232 0.57878 0.0
C6110 C 0.34247 0.57346 0.57891 0.0
C6111 C 0.34695 0.55894 0.56621 0.0
C6112 C 0.35905 0.56324 0.55322 0.0
C6113 C 0.44318 0.56733 0.50305 0.0
C6114 C 0.43705 0.54753 0.49827 0.0
C6115 C 0.43197 0.57862 0.51053 0.0
C6116 C 0.41444 0.57027 0.51298 0.0
C6117 C 0.40839 0.55054 0.50859 0.0
C6118 C 0.41964 0.53922 0.50126 0.0
C6119 C 0.40169 0.58193 0.51841 0.0
C6120 C 0.39218 0.57887 0.53378 0.0
C6121 C 0.39744 0.59434 0.50724 0.0
C6122 C 0.4066 0.59765 0.49044 0.0
C6123 C 0.40641 0.58256 0.47547 0.0
C6124 C 0.41504 0.58584 0.45968 0.0
C6125 C 0.42366 0.60419 0.45858 0.0
C6126 C 0.42366 0.61931 0.47325 0.0
C6127 C 0.41513 0.61609 0.48912 0.0
H6128 H 0.43029 0.60671 0.44632 0.0
H6129 H 0.33295 0.5701 0.58881 0.0
H6130 H 0.85259 0.95292 0.5248 0.0
H6131 H 0.88426 0.96704 0.52736 0.0
H6132 H 0.89582 0.9189 0.54659 0.0
H6133 H 0.86369 0.90457 0.54431 0.0
H6134 H 0.91796 0.95397 0.56574 0.0
H6135 H 0.90183 0.92039 0.50322 0.0
H6136 H 0.88265 0.90956 0.47356 0.0
H6137 H 0.89111 0.96671 0.46552 0.0
H6138 H 0.9102 0.97792 0.49526 0.0
H6139 H 0.00837 0.98258 0.53872 0.0
H6140 H 0.97857 0.96376 0.54136 0.0
H6141 H 0.95561 0.00993 0.53227 0.0
H6142 H 0.98536 0.02894 0.53017 0.0
H6143 H 0.94073 0.97139 0.50773 0.0
H6144 H 0.95528 0.0043 0.5724 0.0
H6145 H 0.97463 0.01406 0.60197 0.0
H6146 H 0.96997 0.95587 0.60522 0.0
H6147 H 0.95076 0.94576 0.57549 0.0
C6148 C 0.86178 0.94527 0.52966 0.0
C6149 C 0.85557 0.92747 0.53412 0.0
C6150 C 0.87993 0.95341 0.53113 0.0
C6151 C 0.89244 0.9439 0.53686 0.0
C6152 C 0.88638 0.92645 0.54208 0.0
C6153 C 0.86805 0.91827 0.54073 0.0
C6154 C 0.91171 0.95213 0.53637 0.0
C6155 C 0.92305 0.95744 0.55299 0.0
C6156 C 0.91837 0.9567 0.51974 0.0
C6157 C 0.9074 0.95001 0.50151 0.0
C6158 C 0.89957 0.93066 0.49515 0.0
C6159 C 0.88871 0.92445 0.47833 0.0
C6160 C 0.88565 0.93744 0.46767 0.0
C6161 C 0.89351 0.95666 0.47378 0.0
C6162 C 0.9044 0.96295 0.4906 0.0
C6163 C 0.99696 0.9888 0.53764 0.0
C6164 C -0.00085 0.00731 0.53453 0.0
C6165 C 0.97999 0.97805 0.5391 0.0
C6166 C 0.96492 0.98547 0.53698 0.0
C6167 C 0.9671 0.00399 0.534 0.0
C6168 C 0.9841 0.01491 0.53301 0.0
C6169 C 0.9468 0.97371 0.53717 0.0
C6170 C 0.93571 0.96768 0.52042 0.0
C6171 C 0.94054 0.96823 0.55359 0.0
C6172 C 0.95176 0.97427 0.57162 0.0
C6173 C 0.9585 0.99358 0.57934 0.0
C6174 C 0.96941 0.99918 0.59614 0.0
C6175 C 0.97357 0.98559 0.60544 0.0
C6176 C 0.96675 0.96638 0.59799 0.0
C6177 C 0.95584 0.96071 0.58117 0.0
H6178 H 0.98205 0.98996 0.61843 0.0
H6179 H 0.87718 0.93261 0.45468 0.0
H6180 H 0.91415 0.13985 0.2967 0.0
H6181 H 0.89908 0.16606 0.29658 0.0
H6182 H 0.86431 0.13299 0.24881 0.0
H6183 H 0.87897 0.10662 0.24926 0.0
H6184 H 0.87615 0.17057 0.24419 0.0
H6185 H 0.85036 0.14226 0.29467 0.0
H6186 H 0.85277 0.13245 0.32488 0.0
H6187 H 0.87861 0.18938 0.35153 0.0
H6188 H 0.87654 0.19948 0.32143 0.0
H6189 H 0.81814 0.23134 0.23521 0.0
H6190 H 0.83162 0.20521 0.2388 0.0
H6191 H 0.84635 0.23033 0.297 0.0
H6192 H 0.8306 0.25545 0.29367 0.0
H6193 H 0.84705 0.19811 0.29795 0.0
H6194 H 0.87671 0.22833 0.25373 0.0
H6195 H 0.8804 0.24262 0.22595 0.0
H6196 H 0.85644 0.18886 0.19057 0.0
H6197 H 0.85245 0.17429 0.21818 0.0
C6198 C 0.90323 0.13796 0.28617 0.0
C6199 C 0.89802 0.12052 0.27305 0.0
C6200 C 0.89443 0.1532 0.28613 0.0
C6201 C 0.88009 0.15212 0.27273 0.0
C6202 C 0.87511 0.1348 0.25947 0.0
C6203 C 0.88361 0.11944 0.25977 0.0
C6204 C 0.8705 0.1687 0.27223 0.0
C6205 C 0.86957 0.17626 0.25594 0.0
C6206 C 0.86255 0.17759 0.28765 0.0
C6207 C 0.8634 0.17159 0.30577 0.0
C6208 C 0.85662 0.15266 0.30696 0.0
C6209 C 0.85792 0.14706 0.32406 0.0
C6210 C 0.86586 0.16028 0.34011 0.0
C6211 C 0.87246 0.17915 0.33909 0.0
C6212 C 0.87121 0.18483 0.32202 0.0
C6213 C 0.82388 0.23122 0.24896 0.0
C6214 C 0.82261 0.24574 0.26413 0.0
C6215 C 0.83226 0.21621 0.25099 0.0
C6216 C 0.84136 0.21541 0.26806 0.0
C6217 C 0.8399 0.2299 0.28343 0.0
C6218 C 0.83068 0.24454 0.28155 0.0
C6219 C 0.85217 0.19978 0.26957 0.0
C6220 C 0.85346 0.19244 0.28607 0.0
C6221 C 0.86139 0.19175 0.25468 0.0
C6222 C 0.86413 0.20027 0.23801 0.0
C6223 C 0.8722 0.21957 0.24002 0.0
C6224 C 0.87434 0.22772 0.22432 0.0
C6225 C 0.86862 0.21666 0.20651 0.0
C6226 C 0.86085 0.1974 0.20438 0.0
C6227 C 0.85867 0.18918 0.22004 0.0
H6228 H 0.87023 0.22301 0.19437 0.0
H6229 H 0.86689 0.1559 0.35332 0.0
H6230 H 0.71727 0.14614 0.00059 0.0
H6231 H 0.68761 0.13479 0.01033 0.0
H6232 H 0.70461 0.08696 0.02496 0.0
H6233 H 0.73293 0.09667 0.01312 0.0
H6234 H 0.67646 0.07712 0.00194 0.0
H6235 H 0.69655 0.12945 0.05902 0.0
H6236 H 0.70548 0.16363 0.07289 0.0
H6237 H 0.65821 0.17238 0.04589 0.0
H6238 H 0.64907 0.13836 0.03189 0.0
H6239 H 0.59816 0.02935 0.02053 0.0
H6240 H 0.62885 0.04588 0.03213 0.0
H6241 H 0.61511 0.09925 0.02982 0.0
H6242 H 0.58416 0.08294 0.02151 0.0
H6243 H 0.64253 0.10762 0.04948 0.0
H6244 H 0.62311 0.06403 0.98954 0.0
H6245 H 0.61186 0.03319 0.968 0.0
H6246 H 0.65524 0.0127 0.98908 0.0
H6247 H 0.66603 0.04279 0.01126 0.0
C6248 C 0.71444 0.13305 0.00563 0.0
C6249 C 0.72736 0.12232 0.00628 0.0
C6250 C 0.69777 0.12692 0.01163 0.0
C6251 C 0.69429 0.11044 0.0189 0.0
C6252 C 0.70727 0.09992 0.01965 0.0
C6253 C 0.72341 0.10543 0.01278 0.0
C6254 C 0.67639 0.10193 0.02272 0.0
C6255 C 0.66915 0.08365 0.01261 0.0
C6256 C 0.66654 0.11106 0.03568 0.0
C6257 C 0.67218 0.13141 0.0444 0.0
C6258 C 0.68812 0.13869 0.05603 0.0
C6259 C 0.69319 0.15803 0.06393 0.0
C6260 C 0.68243 0.17016 0.06027 0.0
C6261 C 0.66653 0.16299 0.04875 0.0
C6262 C 0.66138 0.14369 0.04089 0.0
C6263 C 0.60177 0.04466 0.02343 0.0
C6264 C 0.58935 0.05517 0.02028 0.0
C6265 C 0.61914 0.05407 0.02997 0.0
C6266 C 0.62435 0.07364 0.03093 0.0
C6267 C 0.61146 0.08413 0.02912 0.0
C6268 C 0.5939 0.07486 0.02402 0.0
C6269 C 0.64286 0.08243 0.02913 0.0
C6270 C 0.65009 0.10086 0.03926 0.0
C6271 C 0.65237 0.07395 0.0152 0.0
C6272 C 0.64519 0.05552 0.00228 0.0
C6273 C 0.63003 0.05277 0.98974 0.0
C6274 C 0.62367 0.03536 0.97747 0.0
C6275 C 0.63264 0.0208 0.9773 0.0
C6276 C 0.64798 0.02367 0.9894 0.0
C6277 C 0.65417 0.04086 0.00191 0.0
H6278 H 0.62781 0.00739 0.96769 0.0
H6279 H 0.6864 0.18512 0.06636 0.0
H6280 H 0.2152 0.48268 0.21339 0.0
H6281 H 0.22919 0.45657 0.2174 0.0
H6282 H 0.21107 0.45899 0.27243 0.0
H6283 H 0.19652 0.48441 0.26818 0.0
H6284 H 0.25318 0.46533 0.26132 0.0
H6285 H 0.19189 0.42567 0.2589 0.0
H6286 H 0.162 0.41539 0.24179 0.0
H6287 H 0.18449 0.39309 0.19238 0.0
H6288 H 0.2146 0.40366 0.20918 0.0
H6289 H 0.26204 0.40025 0.31639 0.0
H6290 H 0.2462 0.41673 0.29771 0.0
H6291 H 0.27044 0.39517 0.24899 0.0
H6292 H 0.28705 0.37929 0.26766 0.0
H6293 H 0.22723 0.39616 0.24916 0.0
H6294 H 0.29014 0.43236 0.25903 0.0
H6295 H 0.3184 0.44787 0.27834 0.0
H6296 H 0.29071 0.4803 0.3166 0.0
H6297 H 0.26228 0.46483 0.29762 0.0
C6298 C 0.21412 0.47733 0.22617 0.0
C6299 C 0.20507 0.48521 0.24058 0.0
C6300 C 0.22189 0.46252 0.22836 0.0
C6301 C 0.22079 0.45602 0.24505 0.0
C6302 C 0.21158 0.46381 0.25935 0.0
C6303 C 0.20345 0.47822 0.25698 0.0
C6304 C 0.23099 0.44268 0.24877 0.0
C6305 C 0.24777 0.45015 0.2584 0.0
C6306 C 0.22353 0.42314 0.24492 0.0
C6307 C 0.20543 0.41542 0.23525 0.0
C6308 C 0.19043 0.41854 0.2444 0.0
C6309 C 0.17347 0.41273 0.23475 0.0
C6310 C 0.17134 0.40358 0.216 0.0
C6311 C 0.18617 0.40016 0.2069 0.0
C6312 C 0.20318 0.40605 0.21648 0.0
C6313 C 0.264 0.39898 0.30171 0.0
C6314 C 0.27586 0.38861 0.29352 0.0
C6315 C 0.2548 0.40817 0.29107 0.0
C6316 C 0.25724 0.40692 0.27213 0.0
C6317 C 0.26839 0.39598 0.26362 0.0
C6318 C 0.27779 0.38694 0.2743 0.0
C6319 C 0.24954 0.41885 0.26197 0.0
C6320 C 0.23309 0.41119 0.25133 0.0
C6321 C 0.25712 0.43845 0.26531 0.0
C6322 C 0.2741 0.44726 0.27704 0.0
C6323 C 0.29007 0.4426 0.2717 0.0
C6324 C 0.30612 0.45145 0.28254 0.0
C6325 C 0.30634 0.46501 0.29872 0.0
C6326 C 0.29052 0.46977 0.3041 0.0
C6327 C 0.27445 0.46097 0.2933 0.0
H6328 H 0.31879 0.47188 0.30706 0.0
H6329 H 0.15821 0.39915 0.20852 0.0
H6330 H 0.23632 0.38343 0.01482 0.0
H6331 H 0.21165 0.3986 0.01006 0.0
H6332 H 0.24089 0.45006 0.04646 0.0
H6333 H 0.26574 0.43512 0.05104 0.0
H6334 H 0.20345 0.43756 0.05245 0.0
H6335 H 0.24162 0.44852 0.00301 0.0
H6336 H 0.25772 0.43785 0.97629 0.0
H6337 H 0.20854 0.40455 0.94639 0.0
H6338 H 0.19217 0.41477 0.97307 0.0
H6339 H 0.15906 0.50684 0.03181 0.0
H6340 H 0.1793 0.48719 0.03898 0.0
H6341 H 0.15567 0.44462 0.99023 0.0
H6342 H 0.13595 0.46471 0.98276 0.0
H6343 H 0.18922 0.45029 0.99003 0.0
H6344 H 0.15034 0.43751 0.036 0.0
H6345 H 0.13242 0.44166 0.06275 0.0
H6346 H 0.17955 0.47217 0.09829 0.0
H6347 H 0.19761 0.46858 0.07176 0.0
C6348 C 0.23742 0.39793 0.02192 0.0
C6349 C 0.25297 0.40817 0.0332 0.0
C6350 C 0.22337 0.40656 0.01913 0.0
C6351 C 0.22459 0.42545 0.02778 0.0
C6352 C 0.23979 0.43547 0.03963 0.0
C6353 C 0.25395 0.42695 0.04218 0.0
C6354 C 0.2102 0.43498 0.02416 0.0
C6355 C 0.20042 0.44061 0.03889 0.0
C6356 C 0.20587 0.43813 0.00624 0.0
C6357 C 0.2157 0.43226 0.9901 0.0
C6358 C 0.23426 0.4388 0.9908 0.0
C6359 C 0.24343 0.43285 0.97565 0.0
C6360 C 0.23417 0.42049 0.95967 0.0
C6361 C 0.2157 0.4141 0.95878 0.0
C6362 C 0.20647 0.41998 0.97391 0.0
C6363 C 0.15805 0.49312 0.02288 0.0
C6364 C 0.14603 0.48714 0.00682 0.0
C6365 C 0.16954 0.48186 0.02699 0.0
C6366 C 0.16897 0.46431 0.01521 0.0
C6367 C 0.15643 0.4581 0.99949 0.0
C6368 C 0.14512 0.46948 0.99527 0.0
C6369 C 0.18235 0.45319 0.01847 0.0
C6370 C 0.19206 0.44727 0.00364 0.0
C6371 C 0.18632 0.44933 0.03621 0.0
C6372 C 0.17529 0.45292 0.05186 0.0
C6373 C 0.15681 0.44542 0.04946 0.0
C6374 C 0.14662 0.44762 0.0646 0.0
C6375 C 0.15479 0.45718 0.0822 0.0
C6376 C 0.17314 0.46482 0.08468 0.0
C6377 C 0.18337 0.46273 0.06958 0.0
H6378 H 0.14687 0.45845 0.0939 0.0
H6379 H 0.24129 0.4159 0.94796 0.0
H6380 H 0.87587 0.00619 0.26107 0.0
H6381 H 0.85822 0.97385 0.25949 0.0
H6382 H 0.90638 0.95553 0.27033 0.0
H6383 H 0.92381 0.98719 0.27105 0.0
H6384 H 0.88841 0.92876 0.24747 0.0
H6385 H 0.87071 0.96266 0.30351 0.0
H6386 H 0.85856 0.98764 0.32221 0.0
H6387 H 0.80918 0.96826 0.28735 0.0
H6388 H 0.82112 0.94327 0.26834 0.0
H6389 H 0.84956 0.83825 0.26692 0.0
H6390 H 0.86517 0.87072 0.26788 0.0
H6391 H 0.81519 0.88546 0.25695 0.0
H6392 H 0.79943 0.85314 0.25736 0.0
H6393 H 0.83323 0.91412 0.27872 0.0
H6394 H 0.85173 0.87901 0.2233 0.0
H6395 H 0.86493 0.85447 0.20531 0.0
H6396 H 0.9141 0.87654 0.24019 0.0
H6397 H 0.90114 0.90107 0.2585 0.0
C6398 C 0.88271 0.99532 0.26321 0.0
C6399 C 0.9015 0.99977 0.26618 0.0
C6400 C 0.87252 0.9766 0.26242 0.0
C6401 C 0.88063 0.9616 0.26498 0.0
C6402 C 0.89937 0.96626 0.26812 0.0
C6403 C 0.90948 0.98472 0.26862 0.0
C6404 C 0.8701 0.94113 0.26416 0.0
C6405 C 0.87646 0.92575 0.25457 0.0
C6406 C 0.85412 0.93641 0.27289 0.0
C6407 C 0.84686 0.95124 0.28441 0.0
C6408 C 0.85729 0.96379 0.29979 0.0
C6409 C 0.85044 0.97794 0.31045 0.0
C6410 C 0.83312 0.97957 0.30594 0.0
C6411 C 0.8226 0.967 0.29081 0.0
C6412 C 0.82939 0.95283 0.2801 0.0
C6413 C 0.84169 0.84829 0.26488 0.0
C6414 C 0.82288 0.84252 0.26235 0.0
C6415 C 0.85084 0.86715 0.26509 0.0
C6416 C 0.84174 0.88121 0.2621 0.0
C6417 C 0.82294 0.8754 0.25935 0.0
C6418 C 0.81376 0.85658 0.2595 0.0
C6419 C 0.85162 0.90174 0.26214 0.0
C6420 C 0.84514 0.91713 0.27158 0.0
C6421 C 0.86763 0.9065 0.2534 0.0
C6422 C 0.87541 0.89176 0.24236 0.0
C6423 C 0.86532 0.87855 0.22718 0.0
C6424 C 0.87277 0.86466 0.21693 0.0
C6425 C 0.89032 0.86391 0.22163 0.0
C6426 C 0.9005 0.87711 0.23657 0.0
C6427 C 0.89312 0.89102 0.24688 0.0
H6428 H 0.89605 0.85314 0.21368 0.0
H6429 H 0.82785 0.99055 0.31419 0.0
H6430 H 0.72862 0.08339 0.74134 0.0
H6431 H 0.7487 0.11464 0.74854 0.0
H6432 H 0.70616 0.13887 0.77105 0.0
H6433 H 0.68586 0.10773 0.76335 0.0
H6434 H 0.71747 0.14923 0.73888 0.0
H6435 H 0.74307 0.14396 0.79847 0.0
H6436 H 0.75797 0.12884 0.81991 0.0
H6437 H 0.80296 0.13216 0.78752 0.0
H6438 H 0.78825 0.14714 0.76577 0.0
H6439 H 0.74898 0.24283 0.77371 0.0
H6440 H 0.73707 0.20947 0.76219 0.0
H6441 H 0.79008 0.20158 0.75254 0.0
H6442 H 0.8022 0.23493 0.7671 0.0
H6443 H 0.77693 0.18002 0.7721 0.0
H6444 H 0.7491 0.18398 0.7111 0.0
H6445 H 0.73232 0.19766 0.68966 0.0
H6446 H 0.69021 0.19664 0.72581 0.0
H6447 H 0.70656 0.18265 0.74715 0.0
C6448 C 0.72374 0.09537 0.74823 0.0
C6449 C 0.70575 0.09359 0.75129 0.0
C6450 C 0.73523 0.11304 0.75257 0.0
C6451 C 0.72871 0.12876 0.76019 0.0
C6452 C 0.71121 0.12666 0.7651 0.0
C6453 C 0.69965 0.10908 0.76045 0.0
C6454 C 0.73842 0.14733 0.7585 0.0
C6455 C 0.73044 0.15616 0.74625 0.0
C6456 C 0.75563 0.15547 0.76728 0.0
C6457 C 0.76447 0.14647 0.78037 0.0
C6458 C 0.75607 0.14131 0.79581 0.0
C6459 C 0.7645 0.13281 0.80806 0.0
C6460 C 0.78137 0.12949 0.80505 0.0
C6461 C 0.78988 0.13472 0.78982 0.0
C6462 C 0.78152 0.14324 0.77755 0.0
C6463 C 0.75796 0.2339 0.76884 0.0
C6464 C 0.7763 0.24101 0.77085 0.0
C6465 C 0.75114 0.21495 0.76164 0.0
C6466 C 0.76258 0.20308 0.75565 0.0
C6467 C 0.78101 0.21058 0.75681 0.0
C6468 C 0.78793 0.22945 0.76507 0.0
C6469 C 0.75569 0.18266 0.75301 0.0
C6470 C 0.76421 0.17308 0.76426 0.0
C6471 C 0.73882 0.17377 0.74336 0.0
C6472 C 0.72921 0.18265 0.73081 0.0
C6473 C 0.73636 0.18691 0.71451 0.0
C6474 C 0.72685 0.19452 0.70232 0.0
C6475 C 0.7103 0.19817 0.70645 0.0
C6476 C 0.70307 0.1939 0.72264 0.0
C6477 C 0.71237 0.18598 0.73469 0.0
H6478 H 0.70304 0.20421 0.69707 0.0
H6479 H 0.78788 0.12289 0.81453 0.0
loop_
_geom_bond_atom_site_label_1
_geom_bond_atom_site_label_2
_geom_bond_distance
_geom_bond_site_symmetry_2
_ccdc_geom_bond_type
C0 O1 1.306 . S
C0 O3 1.160 . S
O1 C0 1.306 . S
O1 Cd2 2.228 . S
Cd2 O1 2.228 . S
Cd2 O6 2.273 . S
Cd2 O10 2.277 . S
O3 C0 1.160 . S
O3 Cd4 2.203 . S
Cd4 O3 2.203 . S
Cd4 O6 2.411 . S
Cd4 O7 2.333 . S
Cd4 O8 2.352 . S
Cd4 O12 2.277 . S
Cd4 O13 2.356 . S
C5 O10 1.209 . S
C5 O12 1.226 . S
O6 Cd2 2.273 . S
O6 Cd4 2.411 . S
O6 C9 1.320 . S
O7 Cd4 2.333 . S
O7 C9 1.214 . S
O8 Cd4 2.352 . S
O8 C11 1.258 . S
C9 O6 1.320 . S
C9 O7 1.214 . S
O10 Cd2 2.277 . S
O10 C5 1.209 . S
C11 O8 1.258 . S
C11 O13 1.282 . S
O12 Cd4 2.277 . S
O12 C5 1.226 . S
O13 Cd4 2.356 . S
O13 C11 1.282 . S
C14 O15 1.306 . S
C14 O17 1.160 . S
O15 C14 1.306 . S
O15 Cd16 2.228 1_655 S
Cd16 O15 2.228 1_455 S
Cd16 O20 2.273 . S
Cd16 O24 2.277 1_455 S
O17 C14 1.160 . S
O17 Cd18 2.140 1_655 S
Cd18 O17 2.140 1_455 S
Cd18 O20 2.443 . S
Cd18 O21 2.398 . S
Cd18 O22 2.342 . S
Cd18 O26 2.281 1_455 S
Cd18 O27 2.360 . S
C19 O24 1.209 . S
C19 O26 1.226 . S
O20 Cd16 2.273 . S
O20 Cd18 2.443 . S
O20 C23 1.320 . S
O21 Cd18 2.398 . S
O21 C23 1.214 . S
O22 Cd18 2.342 . S
O22 C25 1.258 . S
C23 O20 1.320 . S
C23 O21 1.214 . S
O24 Cd16 2.277 1_655 S
O24 C19 1.209 . S
C25 O22 1.258 . S
C25 O27 1.282 . S
O26 Cd18 2.281 1_655 S
O26 C19 1.226 . S
O27 Cd18 2.360 . S
O27 C25 1.282 . S
C28 O29 1.306 . S
C28 O31 1.160 . S
O29 C28 1.306 . S
O29 Cd30 2.228 . S
Cd30 O29 2.228 . S
Cd30 O34 2.273 . S
Cd30 O38 2.277 . S
O31 C28 1.160 . S
O31 Cd32 2.203 . S
Cd32 O31 2.203 . S
Cd32 O34 2.411 . S
Cd32 O35 2.333 . S
Cd32 O36 2.352 . S
Cd32 O40 2.277 . S
Cd32 O41 2.356 . S
C33 O38 1.209 . S
C33 O40 1.226 . S
O34 Cd30 2.273 . S
O34 Cd32 2.411 . S
O34 C37 1.320 . S
O35 Cd32 2.333 . S
O35 C37 1.214 . S
O36 Cd32 2.352 . S
O36 C39 1.258 . S
C37 O34 1.320 . S
C37 O35 1.214 . S
O38 Cd30 2.277 . S
O38 C33 1.209 . S
C39 O36 1.258 . S
C39 O41 1.282 . S
O40 Cd32 2.277 . S
O40 C33 1.226 . S
O41 Cd32 2.356 . S
O41 C39 1.282 . S
C42 O43 1.306 . S
C42 O45 1.160 . S
O43 C42 1.306 . S
O43 Cd44 2.228 . S
Cd44 O43 2.228 . S
Cd44 O48 2.273 . S
Cd44 O52 2.277 . S
O45 C42 1.160 . S
O45 Cd46 2.203 . S
Cd46 O45 2.203 . S
Cd46 O48 2.411 . S
Cd46 O49 2.333 . S
Cd46 O50 2.352 . S
Cd46 O54 2.277 . S
Cd46 O55 2.356 . S
C47 O52 1.209 . S
C47 O54 1.226 . S
O48 Cd44 2.273 . S
O48 Cd46 2.411 . S
O48 C51 1.320 . S
O49 Cd46 2.333 . S
O49 C51 1.214 . S
O50 Cd46 2.352 . S
O50 C53 1.258 . S
C51 O48 1.320 . S
C51 O49 1.214 . S
O52 Cd44 2.277 . S
O52 C47 1.209 . S
C53 O50 1.258 . S
C53 O55 1.282 . S
O54 Cd46 2.277 . S
O54 C47 1.226 . S
O55 Cd46 2.356 . S
O55 C53 1.282 . S
C56 O57 1.306 . S
C56 O59 1.160 . S
O57 C56 1.306 . S
O57 Cd58 2.228 . S
Cd58 O57 2.228 . S
Cd58 O62 2.273 . S
Cd58 O66 2.277 . S
O59 C56 1.160 . S
O59 Cd60 2.203 . S
Cd60 O59 2.203 . S
Cd60 O62 2.411 . S
Cd60 O63 2.333 . S
Cd60 O64 2.352 . S
Cd60 O68 2.277 . S
Cd60 O69 2.356 . S
C61 O66 1.209 . S
C61 O68 1.226 . S
O62 Cd58 2.273 . S
O62 Cd60 2.411 . S
O62 C65 1.320 . S
O63 Cd60 2.333 . S
O63 C65 1.214 . S
O64 Cd60 2.352 . S
O64 C67 1.258 . S
C65 O62 1.320 . S
C65 O63 1.214 . S
O66 Cd58 2.277 . S
O66 C61 1.209 . S
C67 O64 1.258 . S
C67 O69 1.282 . S
O68 Cd60 2.277 . S
O68 C61 1.226 . S
O69 Cd60 2.356 . S
O69 C67 1.282 . S
C70 O71 1.306 . S
C70 O73 1.160 . S
O71 C70 1.306 . S
O71 Cd72 2.228 . S
Cd72 O71 2.228 . S
Cd72 O76 2.273 . S
Cd72 O80 2.277 . S
O73 C70 1.160 . S
O73 Cd74 2.203 . S
Cd74 O73 2.203 . S
Cd74 O76 2.411 . S
Cd74 O77 2.333 . S
Cd74 O78 2.352 . S
Cd74 O82 2.277 . S
Cd74 O83 2.356 . S
C75 O80 1.209 . S
C75 O82 1.226 . S
O76 Cd72 2.273 . S
O76 Cd74 2.411 . S
O76 C79 1.320 . S
O77 Cd74 2.333 . S
O77 C79 1.214 . S
O78 Cd74 2.352 . S
O78 C81 1.258 . S
C79 O76 1.320 . S
C79 O77 1.214 . S
O80 Cd72 2.277 . S
O80 C75 1.209 . S
C81 O78 1.258 . S
C81 O83 1.282 . S
O82 Cd74 2.277 . S
O82 C75 1.226 . S
O83 Cd74 2.356 . S
O83 C81 1.282 . S
C84 O85 1.306 . S
C84 O87 1.160 . S
O85 C84 1.306 . S
O85 Cd86 2.228 . S
Cd86 O85 2.228 . S
Cd86 O90 2.273 . S
Cd86 O94 2.277 . S
O87 C84 1.160 . S
O87 Cd88 2.203 . S
Cd88 O87 2.203 . S
Cd88 O90 2.411 . S
Cd88 O91 2.333 . S
Cd88 O92 2.352 . S
Cd88 O96 2.277 . S
Cd88 O97 2.356 . S
C89 O94 1.209 . S
C89 O96 1.226 . S
O90 Cd86 2.273 . S
O90 Cd88 2.411 . S
O90 C93 1.320 . S
O91 Cd88 2.333 . S
O91 C93 1.214 . S
O92 Cd88 2.352 . S
O92 C95 1.258 . S
C93 O90 1.320 . S
C93 O91 1.214 . S
O94 Cd86 2.277 . S
O94 C89 1.209 . S
C95 O92 1.258 . S
C95 O97 1.282 . S
O96 Cd88 2.277 . S
O96 C89 1.226 . S
O97 Cd88 2.356 . S
O97 C95 1.282 . S
C98 O99 1.306 . S
C98 O101 1.160 . S
O99 C98 1.306 . S
O99 Cd100 2.228 1_655 S
Cd100 O99 2.228 1_455 S
Cd100 O104 2.273 . S
Cd100 O108 2.277 . S
O101 C98 1.160 . S
O101 Cd102 2.203 1_655 S
Cd102 O101 2.203 1_455 S
Cd102 O104 2.411 . S
Cd102 O105 2.333 . S
Cd102 O106 2.352 . S
Cd102 O110 2.277 . S
Cd102 O111 2.356 . S
C103 O108 1.209 . S
C103 O110 1.226 . S
O104 Cd100 2.273 . S
O104 Cd102 2.411 . S
O104 C107 1.320 . S
O105 Cd102 2.333 . S
O105 C107 1.214 . S
O106 Cd102 2.352 . S
O106 C109 1.258 . S
C107 O104 1.320 . S
C107 O105 1.214 . S
O108 Cd100 2.277 . S
O108 C103 1.209 . S
C109 O106 1.258 . S
C109 O111 1.282 . S
O110 Cd102 2.277 . S
O110 C103 1.226 . S
O111 Cd102 2.356 . S
O111 C109 1.282 . S
C112 O113 1.306 . S
C112 O115 1.160 . S
O113 C112 1.306 . S
O113 Cd114 2.228 . S
Cd114 O113 2.228 . S
Cd114 O118 2.273 . S
Cd114 O122 2.277 1_545 S
O115 C112 1.160 . S
O115 Cd116 2.203 . S
Cd116 O115 2.203 . S
Cd116 O118 2.411 . S
Cd116 O119 2.333 . S
Cd116 O120 2.352 . S
Cd116 O124 2.277 . S
Cd116 O125 2.356 . S
C117 O122 1.209 . S
C117 O124 1.226 1_565 S
O118 Cd114 2.273 . S
O118 Cd116 2.411 . S
O118 C121 1.320 . S
O119 Cd116 2.333 . S
O119 C121 1.214 . S
O120 Cd116 2.352 . S
O120 C123 1.258 . S
C121 O118 1.320 . S
C121 O119 1.214 . S
O122 Cd114 2.277 1_565 S
O122 C117 1.209 . S
C123 O120 1.258 . S
C123 O125 1.282 . S
O124 Cd116 2.277 . S
O124 C117 1.226 1_545 S
O125 Cd116 2.356 . S
O125 C123 1.282 . S
C126 O127 1.306 . S
C126 O129 1.160 . S
O127 C126 1.306 . S
O127 Cd128 2.228 . S
Cd128 O127 2.228 . S
Cd128 O132 2.273 . S
Cd128 O136 2.277 . S
O129 C126 1.160 . S
O129 Cd130 2.203 . S
Cd130 O129 2.203 . S
Cd130 O132 2.411 . S
Cd130 O133 2.333 . S
Cd130 O134 2.352 . S
Cd130 O138 2.277 . S
Cd130 O139 2.356 . S
C131 O136 1.209 . S
C131 O138 1.226 . S
O132 Cd128 2.273 . S
O132 Cd130 2.411 . S
O132 C135 1.320 . S
O133 Cd130 2.333 . S
O133 C135 1.214 . S
O134 Cd130 2.352 . S
O134 C137 1.258 . S
C135 O132 1.320 . S
C135 O133 1.214 . S
O136 Cd128 2.277 . S
O136 C131 1.209 . S
C137 O134 1.258 . S
C137 O139 1.282 . S
O138 Cd130 2.277 . S
O138 C131 1.226 . S
O139 Cd130 2.356 . S
O139 C137 1.282 . S
C140 O141 1.306 . S
C140 O143 1.179 . S
O141 C140 1.306 . S
O141 Cd142 2.228 . S
Cd142 O141 2.228 . S
Cd142 O146 2.273 1_545 S
Cd142 O150 2.277 . S
O143 C140 1.179 . S
O143 Cd144 2.206 1_545 S
Cd144 O143 2.206 1_565 S
Cd144 O146 2.411 . S
Cd144 O147 2.333 . S
Cd144 O148 2.352 . S
Cd144 O152 2.277 1_565 S
Cd144 O153 2.356 . S
C145 O150 1.209 . S
C145 O152 1.226 . S
O146 Cd142 2.273 1_565 S
O146 Cd144 2.411 . S
O146 C149 1.320 . S
O147 Cd144 2.333 . S
O147 C149 1.214 . S
O148 Cd144 2.352 . S
O148 C151 1.258 . S
C149 O146 1.320 . S
C149 O147 1.214 . S
O150 Cd142 2.277 . S
O150 C145 1.209 . S
C151 O148 1.258 . S
C151 O153 1.282 . S
O152 Cd144 2.277 1_545 S
O152 C145 1.226 . S
O153 Cd144 2.356 . S
O153 C151 1.282 . S
C154 O155 1.306 . S
C154 O157 1.160 . S
O155 C154 1.306 . S
O155 Cd156 2.228 1_554 S
Cd156 O155 2.228 1_556 S
Cd156 O160 2.273 1_556 S
Cd156 O164 2.277 . S
O157 C154 1.160 . S
O157 Cd158 2.203 . S
Cd158 O157 2.203 . S
Cd158 O160 2.411 . S
Cd158 O161 2.333 . S
Cd158 O162 2.352 . S
Cd158 O166 2.277 1_554 S
Cd158 O167 2.356 . S
C159 O164 1.209 . S
C159 O166 1.226 . S
O160 Cd156 2.273 1_554 S
O160 Cd158 2.411 . S
O160 C163 1.320 . S
O161 Cd158 2.333 . S
O161 C163 1.214 . S
O162 Cd158 2.352 . S
O162 C165 1.258 . S
C163 O160 1.320 . S
C163 O161 1.214 . S
O164 Cd156 2.277 . S
O164 C159 1.209 . S
C165 O162 1.258 . S
C165 O167 1.282 . S
O166 Cd158 2.277 1_556 S
O166 C159 1.226 . S
O167 Cd158 2.356 . S
O167 C165 1.282 . S
C168 O169 1.306 . S
C168 O171 1.160 . S
O169 C168 1.306 . S
O169 Cd170 2.228 . S
Cd170 O169 2.228 . S
Cd170 O174 2.273 . S
Cd170 O178 2.277 . S
O171 C168 1.160 . S
O171 Cd172 2.203 . S
Cd172 O171 2.203 . S
Cd172 O174 2.411 . S
Cd172 O175 2.333 . S
Cd172 O176 2.352 . S
Cd172 O180 2.277 . S
Cd172 O181 2.356 . S
C173 O178 1.211 . S
C173 O180 1.271 . S
O174 Cd170 2.273 . S
O174 Cd172 2.411 . S
O174 C177 1.320 . S
O175 Cd172 2.333 . S
O175 C177 1.214 . S
O176 Cd172 2.352 . S
O176 C179 1.258 . S
C177 O174 1.320 . S
C177 O175 1.214 . S
O178 Cd170 2.277 . S
O178 C173 1.211 . S
C179 O176 1.258 . S
C179 O181 1.282 . S
O180 Cd172 2.277 . S
O180 C173 1.271 . S
O181 Cd172 2.356 . S
O181 C179 1.282 . S
C182 O183 1.306 . S
C182 O185 1.160 . S
O183 C182 1.306 . S
O183 Cd184 2.228 . S
Cd184 O183 2.228 . S
Cd184 O188 2.273 . S
Cd184 O192 2.277 . S
O185 C182 1.160 . S
O185 Cd186 2.203 . S
Cd186 O185 2.203 . S
Cd186 O188 2.411 . S
Cd186 O189 2.333 . S
Cd186 O190 2.352 1_554 S
Cd186 O194 2.277 . S
Cd186 O195 2.356 . S
C187 O192 1.209 . S
C187 O194 1.226 . S
O188 Cd184 2.273 . S
O188 Cd186 2.411 . S
O188 C191 1.320 . S
O189 Cd186 2.333 . S
O189 C191 1.214 . S
O190 Cd186 2.352 1_556 S
O190 C193 1.258 . S
C191 O188 1.320 . S
C191 O189 1.214 . S
O192 Cd184 2.277 . S
O192 C187 1.209 . S
C193 O190 1.258 . S
C193 O195 1.282 1_556 S
O194 Cd186 2.277 . S
O194 C187 1.226 . S
O195 Cd186 2.356 . S
O195 C193 1.282 1_554 S
C196 O197 1.306 . S
C196 O199 1.160 . S
O197 C196 1.306 . S
O197 Cd198 2.228 . S
Cd198 O197 2.228 . S
Cd198 O202 2.273 . S
Cd198 O206 2.277 . S
O199 C196 1.160 . S
O199 Cd200 2.203 . S
Cd200 O199 2.203 . S
Cd200 O202 2.411 . S
Cd200 O203 2.333 . S
Cd200 O204 2.352 . S
Cd200 O208 2.277 . S
Cd200 O209 2.356 . S
C201 O206 1.209 . S
C201 O208 1.226 . S
O202 Cd198 2.273 . S
O202 Cd200 2.411 . S
O202 C205 1.320 . S
O203 Cd200 2.333 . S
O203 C205 1.214 . S
O204 Cd200 2.352 . S
O204 C207 1.258 . S
C205 O202 1.320 . S
C205 O203 1.214 . S
O206 Cd198 2.277 . S
O206 C201 1.209 . S
C207 O204 1.258 . S
C207 O209 1.282 . S
O208 Cd200 2.277 . S
O208 C201 1.226 . S
O209 Cd200 2.356 . S
O209 C207 1.282 . S
C210 O211 1.306 . S
C210 O213 1.160 . S
O211 C210 1.306 . S
O211 Cd212 2.228 . S
Cd212 O211 2.228 . S
Cd212 O216 2.273 . S
Cd212 O220 2.277 . S
O213 C210 1.160 . S
O213 Cd214 2.203 . S
Cd214 O213 2.203 . S
Cd214 O216 2.411 . S
Cd214 O217 2.333 . S
Cd214 O218 2.352 . S
Cd214 O222 2.277 . S
Cd214 O223 2.356 . S
C215 O220 1.209 . S
C215 O222 1.226 . S
O216 Cd212 2.273 . S
O216 Cd214 2.411 . S
O216 C219 1.320 . S
O217 Cd214 2.333 . S
O217 C219 1.214 . S
O218 Cd214 2.352 . S
O218 C221 1.258 . S
C219 O216 1.320 . S
C219 O217 1.214 . S
O220 Cd212 2.277 . S
O220 C215 1.209 . S
C221 O218 1.258 . S
C221 O223 1.282 . S
O222 Cd214 2.277 . S
O222 C215 1.226 . S
O223 Cd214 2.356 . S
O223 C221 1.282 . S
C224 O225 1.306 . S
C224 O227 1.160 . S
O225 C224 1.306 . S
O225 Cd226 2.228 . S
Cd226 O225 2.228 . S
Cd226 O230 2.273 . S
Cd226 O234 2.277 . S
O227 C224 1.160 . S
O227 Cd228 2.203 . S
Cd228 O227 2.203 . S
Cd228 O230 2.411 . S
Cd228 O231 2.333 . S
Cd228 O232 2.352 . S
Cd228 O236 2.277 . S
Cd228 O237 2.356 . S
C229 O234 1.209 . S
C229 O236 1.226 . S
O230 Cd226 2.273 . S
O230 Cd228 2.411 . S
O230 C233 1.320 . S
O231 Cd228 2.333 . S
O231 C233 1.214 . S
O232 Cd228 2.352 . S
O232 C235 1.258 . S
C233 O230 1.320 . S
C233 O231 1.214 . S
O234 Cd226 2.277 . S
O234 C229 1.209 . S
C235 O232 1.258 . S
C235 O237 1.282 . S
O236 Cd228 2.277 . S
O236 C229 1.226 . S
O237 Cd228 2.356 . S
O237 C235 1.282 . S
C238 O239 1.306 . S
C238 O241 1.160 . S
O239 C238 1.306 . S
O239 Cd240 2.228 . S
Cd240 O239 2.228 . S
Cd240 O244 2.273 . S
Cd240 O248 2.277 . S
O241 C238 1.160 . S
O241 Cd242 2.203 . S
Cd242 O241 2.203 . S
Cd242 O244 2.411 . S
Cd242 O245 2.333 . S
Cd242 O246 2.352 . S
Cd242 O250 2.277 . S
Cd242 O251 2.356 . S
C243 O248 1.209 . S
C243 O250 1.226 . S
O244 Cd240 2.273 . S
O244 Cd242 2.411 . S
O244 C247 1.320 . S
O245 Cd242 2.333 . S
O245 C247 1.214 . S
O246 Cd242 2.352 . S
O246 C249 1.258 . S
C247 O244 1.320 . S
C247 O245 1.214 . S
O248 Cd240 2.277 . S
O248 C243 1.209 . S
C249 O246 1.258 . S
C249 O251 1.282 . S
O250 Cd242 2.277 . S
O250 C243 1.226 . S
O251 Cd242 2.356 . S
O251 C249 1.282 . S
C252 O253 1.306 . S
C252 O255 1.160 . S
O253 C252 1.306 . S
O253 Cd254 2.228 . S
Cd254 O253 2.228 . S
Cd254 O258 2.273 . S
Cd254 O262 2.277 . S
O255 C252 1.160 . S
O255 Cd256 2.203 . S
Cd256 O255 2.203 . S
Cd256 O258 2.411 . S
Cd256 O259 2.333 . S
Cd256 O260 2.352 . S
Cd256 O264 2.277 . S
Cd256 O265 2.356 . S
C257 O262 1.209 . S
C257 O264 1.226 . S
O258 Cd254 2.273 . S
O258 Cd256 2.411 . S
O258 C261 1.320 . S
O259 Cd256 2.333 . S
O259 C261 1.214 . S
O260 Cd256 2.352 . S
O260 C263 1.258 . S
C261 O258 1.320 . S
C261 O259 1.214 . S
O262 Cd254 2.277 . S
O262 C257 1.209 . S
C263 O260 1.258 . S
C263 O265 1.282 . S
O264 Cd256 2.277 . S
O264 C257 1.226 . S
O265 Cd256 2.356 . S
O265 C263 1.282 . S
C266 O267 1.306 . S
C266 O269 1.160 . S
O267 C266 1.306 . S
O267 Cd268 2.228 . S
Cd268 O267 2.228 . S
Cd268 O272 2.273 . S
Cd268 O276 2.277 . S
O269 C266 1.160 . S
O269 Cd270 2.203 . S
Cd270 O269 2.203 . S
Cd270 O272 2.411 . S
Cd270 O273 2.333 . S
Cd270 O274 2.352 . S
Cd270 O278 2.277 . S
Cd270 O279 2.356 . S
C271 O276 1.209 . S
C271 O278 1.226 . S
O272 Cd268 2.273 . S
O272 Cd270 2.411 . S
O272 C275 1.320 . S
O273 Cd270 2.333 . S
O273 C275 1.214 . S
O274 Cd270 2.352 . S
O274 C277 1.258 . S
C275 O272 1.320 . S
C275 O273 1.214 . S
O276 Cd268 2.277 . S
O276 C271 1.209 . S
C277 O274 1.258 . S
C277 O279 1.282 . S
O278 Cd270 2.277 . S
O278 C271 1.226 . S
O279 Cd270 2.356 . S
O279 C277 1.282 . S
C280 O281 1.306 . S
C280 O283 1.160 1_554 S
O281 C280 1.306 . S
O281 Cd282 2.228 . S
Cd282 O281 2.228 . S
Cd282 O286 2.273 1_554 S
Cd282 O290 2.277 . S
O283 C280 1.160 1_556 S
O283 Cd284 2.203 . S
Cd284 O283 2.203 . S
Cd284 O286 2.411 . S
Cd284 O287 2.333 . S
Cd284 O288 2.352 . S
Cd284 O292 2.277 1_556 S
Cd284 O293 2.356 . S
C285 O290 1.209 . S
C285 O292 1.226 . S
O286 Cd282 2.273 1_556 S
O286 Cd284 2.411 . S
O286 C289 1.320 . S
O287 Cd284 2.333 . S
O287 C289 1.214 . S
O288 Cd284 2.352 . S
O288 C291 1.258 . S
C289 O286 1.320 . S
C289 O287 1.214 . S
O290 Cd282 2.277 . S
O290 C285 1.209 . S
C291 O288 1.258 . S
C291 O293 1.282 . S
O292 Cd284 2.277 1_554 S
O292 C285 1.226 . S
O293 Cd284 2.356 . S
O293 C291 1.282 . S
C294 O295 1.306 . S
C294 O297 1.160 . S
O295 C294 1.306 . S
O295 Cd296 2.228 . S
Cd296 O295 2.228 . S
Cd296 O300 2.273 . S
Cd296 O304 2.277 . S
O297 C294 1.160 . S
O297 Cd298 2.203 . S
Cd298 O297 2.203 . S
Cd298 O300 2.411 . S
Cd298 O301 2.333 . S
Cd298 O302 2.352 . S
Cd298 O306 2.277 . S
Cd298 O307 2.356 . S
C299 O304 1.209 . S
C299 O306 1.226 . S
O300 Cd296 2.273 . S
O300 Cd298 2.411 . S
O300 C303 1.320 . S
O301 Cd298 2.333 . S
O301 C303 1.214 . S
O302 Cd298 2.352 . S
O302 C305 1.258 . S
C303 O300 1.320 . S
C303 O301 1.214 . S
O304 Cd296 2.277 . S
O304 C299 1.209 . S
C305 O302 1.258 . S
C305 O307 1.282 . S
O306 Cd298 2.277 . S
O306 C299 1.226 . S
O307 Cd298 2.356 . S
O307 C305 1.282 . S
C308 O309 1.306 . S
C308 O311 1.160 . S
O309 C308 1.306 . S
O309 Cd310 2.228 . S
Cd310 O309 2.228 . S
Cd310 O314 2.273 . S
Cd310 O318 2.277 . S
O311 C308 1.160 . S
O311 Cd312 2.203 . S
Cd312 O311 2.203 . S
Cd312 O314 2.411 . S
Cd312 O315 2.333 . S
Cd312 O316 2.352 . S
Cd312 O320 2.277 . S
Cd312 O321 2.356 . S
C313 O318 1.209 . S
C313 O320 1.226 . S
O314 Cd310 2.273 . S
O314 Cd312 2.411 . S
O314 C317 1.320 . S
O315 Cd312 2.333 . S
O315 C317 1.214 . S
O316 Cd312 2.352 . S
O316 C319 1.258 . S
C317 O314 1.320 . S
C317 O315 1.214 . S
O318 Cd310 2.277 . S
O318 C313 1.209 . S
C319 O316 1.258 . S
C319 O321 1.282 . S
O320 Cd312 2.277 . S
O320 C313 1.226 . S
O321 Cd312 2.356 . S
O321 C319 1.282 . S
C322 O323 1.306 . S
C322 O325 1.160 . S
O323 C322 1.306 . S
O323 Cd324 2.228 . S
Cd324 O323 2.228 . S
Cd324 O328 2.273 . S
Cd324 O332 2.277 . S
O325 C322 1.160 . S
O325 Cd326 2.203 . S
Cd326 O325 2.203 . S
Cd326 O328 2.411 . S
Cd326 O329 2.333 . S
Cd326 O330 2.352 . S
Cd326 O334 2.277 . S
Cd326 O335 2.356 . S
C327 O332 1.209 . S
C327 O334 1.226 . S
O328 Cd324 2.273 . S
O328 Cd326 2.411 . S
O328 C331 1.320 . S
O329 Cd326 2.333 . S
O329 C331 1.214 . S
O330 Cd326 2.352 . S
O330 C333 1.258 . S
C331 O328 1.320 . S
C331 O329 1.214 . S
O332 Cd324 2.277 . S
O332 C327 1.209 . S
C333 O330 1.258 . S
C333 O335 1.282 . S
O334 Cd326 2.277 . S
O334 C327 1.226 . S
O335 Cd326 2.356 . S
O335 C333 1.282 . S
Gd336 N367 2.661 . S
Gd336 N373 2.601 . S
Gd336 O380 2.545 . S
Gd336 O381 2.606 . S
Gd336 O383 2.429 . S
Gd336 O384 2.545 . S
Gd336 O385 2.412 . S
Gd336 O387 2.362 . S
Gd336 O388 2.322 1_554 S
Gd336 C395 2.828 . S
Gd337 N346 2.661 1_545 S
Gd337 N350 2.601 1_544 S
Gd337 O381 2.362 . S
Gd337 O382 2.324 . S
Gd337 O386 2.497 1_454 S
Gd337 O387 2.606 . S
Gd337 O389 2.429 1_554 S
Gd337 O390 2.545 . S
Gd337 O391 2.412 1_455 S
Gd337 C404 2.828 1_454 S
C338 C341 1.417 1_655 S
C338 C343 1.431 . S
C338 C344 1.412 . S
C339 C342 1.437 . S
C339 C343 1.317 1_556 S
C339 H358 0.929 . S
C340 C341 1.426 1_556 S
C340 C342 1.413 1_455 S
C340 N350 1.359 . S
C341 C338 1.417 1_455 S
C341 C340 1.426 1_554 S
C341 N346 1.350 . S
C342 C339 1.437 . S
C342 C340 1.413 1_655 S
C342 C352 1.391 . S
C343 C338 1.431 . S
C343 C339 1.317 1_554 S
C343 H354 0.930 . S
C344 C338 1.412 . S
C344 C345 1.355 1_655 S
C344 H356 0.930 . S
C345 C344 1.355 1_455 S
C345 C347 1.402 . S
C345 H357 0.930 . S
N346 Gd337 2.661 1_565 S
N346 C341 1.350 . S
N346 C347 1.307 . S
C347 C345 1.402 . S
C347 N346 1.307 . S
C347 H348 0.930 1_565 S
H348 C347 0.930 1_545 S
C349 N350 1.334 . S
C349 C351 1.394 . S
C349 H353 0.930 1_565 S
N350 Gd337 2.601 1_566 S
N350 C340 1.359 . S
N350 C349 1.334 . S
C351 C349 1.394 . S
C351 C352 1.359 1_455 S
C351 H363 0.930 . S
C352 C342 1.391 . S
C352 C351 1.359 1_655 S
C352 H364 0.929 . S
H353 C349 0.930 1_545 S
H354 C343 0.930 . S
H355 C372 0.923 1_556 S
H356 C344 0.930 . S
H357 C345 0.930 . S
H358 C339 0.929 . S
H359 C377 0.930 . S
H360 C368 0.910 1_556 S
H361 C369 0.930 . S
H362 C393 0.929 . S
H363 C351 0.930 . S
H364 C352 0.929 . S
H365 C394 0.930 . S
H366 C375 0.930 . S
N367 Gd336 2.661 . S
N367 C371 1.350 . S
N367 C372 1.322 . S
C368 H360 0.910 1_554 S
C368 C369 1.355 1_554 S
C368 C370 1.412 . S
C369 H361 0.930 . S
C369 C368 1.355 1_556 S
C369 C372 1.394 1_556 S
C370 C368 1.412 . S
C370 C371 1.417 . S
C370 C394 1.431 . S
C371 N367 1.350 . S
C371 C370 1.417 . S
C371 C374 1.426 . S
C372 H355 0.923 1_554 S
C372 N367 1.322 . S
C372 C369 1.394 1_554 S
N373 Gd336 2.601 . S
N373 C374 1.359 . S
N373 C377 1.334 . S
C374 C371 1.426 . S
C374 N373 1.359 . S
C374 C378 1.413 . S
C375 H366 0.930 . S
C375 C376 1.359 . S
C375 C377 1.394 . S
C376 C375 1.359 . S
C376 C378 1.391 . S
C376 H379 0.929 . S
C377 H359 0.930 . S
C377 N373 1.334 . S
C377 C375 1.394 . S
C378 C374 1.413 . S
C378 C376 1.391 . S
C378 C393 1.437 . S
H379 C376 0.929 . S
O380 Gd336 2.545 . S
O380 C395 1.258 . S
O381 Gd336 2.606 . S
O381 Gd337 2.362 . S
O381 C392 1.284 . S
O382 Gd337 2.324 . S
O382 C402 1.254 . S
O383 Gd336 2.429 . S
O383 C402 1.268 . S
O384 Gd336 2.545 . S
O384 C392 1.250 . S
O385 Gd336 2.412 . S
O385 C395 1.252 . S
O386 Gd337 2.497 1_656 S
O386 C404 1.303 . S
O387 Gd336 2.362 . S
O387 Gd337 2.606 . S
O387 C403 1.284 . S
O388 Gd336 2.322 1_556 S
O388 C411 1.255 . S
O389 Gd337 2.429 1_556 S
O389 C411 1.268 . S
O390 Gd337 2.545 . S
O390 C403 1.250 . S
O391 Gd337 2.412 1_655 S
O391 C404 1.252 1_554 S
C392 O381 1.284 . S
C392 O384 1.250 . S
C393 H362 0.929 . S
C393 C378 1.437 . S
C393 C394 1.317 . S
C394 H365 0.930 . S
C394 C370 1.431 . S
C394 C393 1.317 . S
C395 Gd336 2.828 . S
C395 O380 1.258 . S
C395 O385 1.252 . S
C395 C396 1.497 . S
C396 C395 1.497 . S
C396 C397 1.395 . S
C396 C398 1.380 . S
C397 C396 1.395 . S
C397 C400 1.398 . S
C397 H412 0.930 . S
C398 C396 1.380 . S
C398 C399 1.391 . S
C398 H413 0.930 . S
C399 C398 1.391 . S
C399 C401 1.387 . S
C400 C397 1.398 . S
C400 C401 1.380 . S
C400 H414 0.930 . S
C401 C399 1.387 . S
C401 C400 1.380 . S
C401 H415 0.930 . S
C402 O382 1.254 . S
C402 O383 1.268 . S
C403 O387 1.284 . S
C403 O390 1.250 . S
C404 Gd337 2.828 1_656 S
C404 O386 1.303 . S
C404 O391 1.252 1_556 S
C404 C405 1.497 . S
C405 C404 1.497 . S
C405 C406 1.395 . S
C405 C407 1.380 1_556 S
C406 C405 1.395 . S
C406 C409 1.398 . S
C406 H416 0.930 . S
C407 C405 1.380 1_554 S
C407 C408 1.391 . S
C407 H417 0.930 . S
C408 C407 1.391 . S
C408 C410 1.387 1_554 S
C409 C406 1.398 . S
C409 C410 1.380 . S
C409 H418 0.930 . S
C410 C408 1.387 1_556 S
C410 C409 1.380 . S
C410 H419 0.930 . S
C411 O388 1.255 . S
C411 O389 1.268 . S
H412 C397 0.930 . S
H413 C398 0.930 . S
H414 C400 0.930 . S
H415 C401 0.930 . S
H416 C406 0.930 . S
H417 C407 0.930 . S
H418 C409 0.930 . S
H419 C410 0.930 . S
Gd420 N451 2.661 . S
Gd420 N457 2.601 . S
Gd420 O464 2.545 . S
Gd420 O465 2.606 . S
Gd420 O467 2.429 . S
Gd420 O468 2.545 . S
Gd420 O469 2.412 . S
Gd420 O471 2.362 . S
Gd420 O472 2.324 . S
Gd420 C479 2.828 . S
Gd421 N430 2.661 . S
Gd421 N434 2.601 . S
Gd421 O465 2.362 . S
Gd421 O466 2.324 . S
Gd421 O470 2.545 . S
Gd421 O471 2.606 . S
Gd421 O473 2.429 . S
Gd421 O474 2.545 . S
Gd421 O475 2.412 . S
Gd421 C488 2.828 . S
C422 C425 1.417 . S
C422 C427 1.431 . S
C422 C428 1.412 . S
C423 C426 1.437 . S
C423 C427 1.317 . S
C423 H442 0.929 . S
C424 C425 1.426 . S
C424 C426 1.413 . S
C424 N434 1.359 . S
C425 C422 1.417 . S
C425 C424 1.426 . S
C425 N430 1.350 . S
C426 C423 1.437 . S
C426 C424 1.413 . S
C426 C436 1.391 . S
C427 C422 1.431 . S
C427 C423 1.317 . S
C427 H438 0.930 . S
C428 C422 1.412 . S
C428 C429 1.355 . S
C428 H440 0.930 . S
C429 C428 1.355 . S
C429 C431 1.402 . S
C429 H441 0.930 . S
N430 Gd421 2.661 . S
N430 C425 1.350 . S
N430 C431 1.307 . S
C431 C429 1.402 . S
C431 N430 1.307 . S
C431 H432 0.930 . S
H432 C431 0.930 . S
C433 N434 1.334 . S
C433 C435 1.394 . S
C433 H437 0.930 . S
N434 Gd421 2.601 . S
N434 C424 1.359 . S
N434 C433 1.334 . S
C435 C433 1.394 . S
C435 C436 1.359 . S
C435 H447 0.930 . S
C436 C426 1.391 . S
C436 C435 1.359 . S
C436 H448 0.929 . S
H437 C433 0.930 . S
H438 C427 0.930 . S
H439 C456 0.930 . S
H440 C428 0.930 . S
H441 C429 0.930 . S
H442 C423 0.929 . S
H443 C461 0.930 . S
H444 C452 0.930 . S
H445 C453 0.930 . S
H446 C477 0.929 . S
H447 C435 0.930 . S
H448 C436 0.929 . S
H449 C478 0.930 . S
H450 C459 0.930 . S
N451 Gd420 2.661 . S
N451 C455 1.350 . S
N451 C456 1.307 . S
C452 H444 0.930 . S
C452 C453 1.355 . S
C452 C454 1.412 . S
C453 H445 0.930 . S
C453 C452 1.355 . S
C453 C456 1.402 . S
C454 C452 1.412 . S
C454 C455 1.417 . S
C454 C478 1.431 . S
C455 N451 1.350 . S
C455 C454 1.417 . S
C455 C458 1.426 . S
C456 H439 0.930 . S
C456 N451 1.307 . S
C456 C453 1.402 . S
N457 Gd420 2.601 . S
N457 C458 1.359 . S
N457 C461 1.334 . S
C458 C455 1.426 . S
C458 N457 1.359 . S
C458 C462 1.413 . S
C459 H450 0.930 . S
C459 C460 1.359 . S
C459 C461 1.394 . S
C460 C459 1.359 . S
C460 C462 1.391 . S
C460 H463 0.929 . S
C461 H443 0.930 . S
C461 N457 1.334 . S
C461 C459 1.394 . S
C462 C458 1.413 . S
C462 C460 1.391 . S
C462 C477 1.437 . S
H463 C460 0.929 . S
O464 Gd420 2.545 . S
O464 C479 1.258 . S
O465 Gd420 2.606 . S
O465 Gd421 2.362 . S
O465 C476 1.284 . S
O466 Gd421 2.324 . S
O466 C486 1.254 . S
O467 Gd420 2.429 . S
O467 C486 1.268 . S
O468 Gd420 2.545 . S
O468 C476 1.250 . S
O469 Gd420 2.412 . S
O469 C479 1.252 . S
O470 Gd421 2.545 . S
O470 C488 1.258 . S
O471 Gd420 2.362 . S
O471 Gd421 2.606 . S
O471 C487 1.284 . S
O472 Gd420 2.324 . S
O472 C495 1.254 . S
O473 Gd421 2.429 . S
O473 C495 1.268 . S
O474 Gd421 2.545 . S
O474 C487 1.250 . S
O475 Gd421 2.412 . S
O475 C488 1.252 . S
C476 O465 1.284 . S
C476 O468 1.250 . S
C477 H446 0.929 . S
C477 C462 1.437 . S
C477 C478 1.317 . S
C478 H449 0.930 . S
C478 C454 1.431 . S
C478 C477 1.317 . S
C479 Gd420 2.828 . S
C479 O464 1.258 . S
C479 O469 1.252 . S
C479 C480 1.497 . S
C480 C479 1.497 . S
C480 C481 1.395 . S
C480 C482 1.380 . S
C481 C480 1.395 . S
C481 C484 1.398 . S
C481 H496 0.930 . S
C482 C480 1.380 . S
C482 C483 1.391 . S
C482 H497 0.930 . S
C483 C482 1.391 . S
C483 C485 1.387 . S
C484 C481 1.398 . S
C484 C485 1.380 . S
C484 H498 0.930 . S
C485 C483 1.387 . S
C485 C484 1.380 . S
C485 H499 0.930 . S
C486 O466 1.254 . S
C486 O467 1.268 . S
C487 O471 1.284 . S
C487 O474 1.250 . S
C488 Gd421 2.828 . S
C488 O470 1.258 . S
C488 O475 1.252 . S
C488 C489 1.497 . S
C489 C488 1.497 . S
C489 C490 1.395 . S
C489 C491 1.380 . S
C490 C489 1.395 . S
C490 C493 1.398 . S
C490 H500 0.930 . S
C491 C489 1.380 . S
C491 C492 1.391 . S
C491 H501 0.930 . S
C492 C491 1.391 . S
C492 C494 1.387 . S
C493 C490 1.398 . S
C493 C494 1.380 . S
C493 H502 0.930 . S
C494 C492 1.387 . S
C494 C493 1.380 . S
C494 H503 0.930 . S
C495 O472 1.254 . S
C495 O473 1.268 . S
H496 C481 0.930 . S
H497 C482 0.930 . S
H498 C484 0.930 . S
H499 C485 0.930 . S
H500 C490 0.930 . S
H501 C491 0.930 . S
H502 C493 0.930 . S
H503 C494 0.930 . S
Gd504 N535 2.661 1_545 S
Gd504 N541 2.601 . S
Gd504 O548 2.545 . S
Gd504 O549 2.606 . S
Gd504 O551 2.429 . S
Gd504 O552 2.545 . S
Gd504 O553 2.412 . S
Gd504 O555 2.362 . S
Gd504 O556 2.324 . S
Gd504 C563 2.828 . S
Gd505 N514 2.661 . S
Gd505 N518 2.601 . S
Gd505 O549 2.362 . S
Gd505 O550 2.324 . S
Gd505 O554 2.545 . S
Gd505 O555 2.606 . S
Gd505 O557 2.429 . S
Gd505 O558 2.545 1_545 S
Gd505 O559 2.412 . S
Gd505 C572 2.828 . S
C506 C509 1.417 . S
C506 C511 1.431 . S
C506 C512 1.412 . S
C507 C510 1.437 . S
C507 C511 1.317 . S
C507 H526 0.929 . S
C508 C509 1.426 . S
C508 C510 1.413 . S
C508 N518 1.359 . S
C509 C506 1.417 . S
C509 C508 1.426 . S
C509 N514 1.350 . S
C510 C507 1.437 . S
C510 C508 1.413 . S
C510 C520 1.391 . S
C511 C506 1.431 . S
C511 C507 1.317 . S
C511 H522 0.930 . S
C512 C506 1.412 . S
C512 C513 1.355 . S
C512 H524 0.930 . S
C513 C512 1.355 . S
C513 C515 1.402 . S
C513 H525 0.930 . S
N514 Gd505 2.661 . S
N514 C509 1.350 . S
N514 C515 1.307 . S
C515 C513 1.402 . S
C515 N514 1.307 . S
C515 H516 0.930 . S
H516 C515 0.930 . S
C517 N518 1.334 . S
C517 C519 1.394 . S
C517 H521 0.930 . S
N518 Gd505 2.601 . S
N518 C508 1.359 . S
N518 C517 1.334 . S
C519 C517 1.394 . S
C519 C520 1.359 . S
C519 H531 0.930 . S
C520 C510 1.391 . S
C520 C519 1.359 . S
C520 H532 0.929 . S
H521 C517 0.930 . S
H522 C511 0.930 . S
H523 C540 0.904 1_545 S
H524 C512 0.930 . S
H525 C513 0.930 . S
H526 C507 0.929 . S
H527 C545 0.930 . S
H528 C536 0.930 . S
H529 C537 0.930 . S
H530 C561 0.929 . S
H531 C519 0.930 . S
H532 C520 0.929 . S
H533 C562 0.930 . S
H534 C543 0.930 . S
N535 Gd504 2.661 1_565 S
N535 C539 1.350 . S
N535 C540 1.307 . S
C536 H528 0.930 . S
C536 C537 1.355 . S
C536 C538 1.412 . S
C537 H529 0.930 . S
C537 C536 1.355 . S
C537 C540 1.402 . S
C538 C536 1.412 . S
C538 C539 1.417 . S
C538 C562 1.431 . S
C539 N535 1.350 . S
C539 C538 1.417 . S
C539 C542 1.426 . S
C540 H523 0.904 1_565 S
C540 N535 1.307 . S
C540 C537 1.402 . S
N541 Gd504 2.601 . S
N541 C542 1.359 1_545 S
N541 C545 1.334 . S
C542 C539 1.426 . S
C542 N541 1.359 1_565 S
C542 C546 1.413 . S
C543 H534 0.930 . S
C543 C544 1.359 1_545 S
C543 C545 1.394 . S
C544 C543 1.359 1_565 S
C544 C546 1.391 . S
C544 H547 0.929 . S
C545 H527 0.930 . S
C545 N541 1.334 . S
C545 C543 1.394 . S
C546 C542 1.413 . S
C546 C544 1.391 . S
C546 C561 1.437 . S
H547 C544 0.929 . S
O548 Gd504 2.545 . S
O548 C563 1.258 . S
O549 Gd504 2.606 . S
O549 Gd505 2.362 . S
O549 C560 1.284 . S
O550 Gd505 2.324 . S
O550 C570 1.254 . S
O551 Gd504 2.429 . S
O551 C570 1.268 . S
O552 Gd504 2.545 . S
O552 C560 1.250 . S
O553 Gd504 2.412 . S
O553 C563 1.252 . S
O554 Gd505 2.545 . S
O554 C572 1.258 . S
O555 Gd504 2.362 . S
O555 Gd505 2.606 . S
O555 C571 1.284 1_545 S
O556 Gd504 2.324 . S
O556 C579 1.254 . S
O557 Gd505 2.429 . S
O557 C579 1.268 . S
O558 Gd505 2.545 1_565 S
O558 C571 1.250 . S
O559 Gd505 2.412 . S
O559 C572 1.252 . S
C560 O549 1.284 . S
C560 O552 1.250 . S
C561 H530 0.929 . S
C561 C546 1.437 . S
C561 C562 1.317 . S
C562 H533 0.930 . S
C562 C538 1.431 . S
C562 C561 1.317 . S
C563 Gd504 2.828 . S
C563 O548 1.258 . S
C563 O553 1.252 . S
C563 C564 1.497 . S
C564 C563 1.497 . S
C564 C565 1.395 . S
C564 C566 1.380 . S
C565 C564 1.395 . S
C565 C568 1.398 . S
C565 H580 0.930 . S
C566 C564 1.380 . S
C566 C567 1.391 . S
C566 H581 0.930 . S
C567 C566 1.391 . S
C567 C569 1.387 . S
C568 C565 1.398 . S
C568 C569 1.380 . S
C568 H582 0.930 . S
C569 C567 1.387 . S
C569 C568 1.380 . S
C569 H583 0.930 . S
C570 O550 1.254 . S
C570 O551 1.268 . S
C571 O555 1.284 1_565 S
C571 O558 1.250 . S
C572 Gd505 2.828 . S
C572 O554 1.258 . S
C572 O559 1.252 . S
C572 C573 1.497 . S
C573 C572 1.497 . S
C573 C574 1.395 . S
C573 C575 1.380 . S
C574 C573 1.395 . S
C574 C577 1.439 . S
C574 H584 0.930 . S
C575 C573 1.380 . S
C575 C576 1.391 1_545 S
C575 H585 0.930 . S
C576 C575 1.391 1_565 S
C576 C578 1.387 . S
C577 C574 1.439 . S
C577 C578 1.336 1_545 S
C577 H586 0.938 . S
C578 C576 1.387 . S
C578 C577 1.336 1_565 S
C578 H587 0.930 . S
C579 O556 1.254 . S
C579 O557 1.268 . S
H580 C565 0.930 . S
H581 C566 0.930 . S
H582 C568 0.930 . S
H583 C569 0.930 . S
H584 C574 0.930 . S
H585 C575 0.930 . S
H586 C577 0.938 . S
H587 C578 0.930 . S
Gd588 N619 2.661 . S
Gd588 N625 2.601 . S
Gd588 O632 2.545 . S
Gd588 O633 2.606 . S
Gd588 O635 2.429 . S
Gd588 O636 2.545 . S
Gd588 O637 2.412 . S
Gd588 O639 2.362 . S
Gd588 O640 2.324 . S
Gd588 C647 2.828 . S
Gd589 N598 2.661 . S
Gd589 N602 2.601 . S
Gd589 O633 2.362 . S
Gd589 O634 2.324 . S
Gd589 O638 2.545 . S
Gd589 O639 2.606 . S
Gd589 O641 2.429 . S
Gd589 O642 2.545 . S
Gd589 O643 2.412 . S
Gd589 C656 2.828 . S
C590 C593 1.417 . S
C590 C595 1.431 . S
C590 C596 1.412 . S
C591 C594 1.437 . S
C591 C595 1.317 . S
C591 H610 0.929 . S
C592 C593 1.426 . S
C592 C594 1.413 . S
C592 N602 1.359 . S
C593 C590 1.417 . S
C593 C592 1.426 . S
C593 N598 1.350 . S
C594 C591 1.437 . S
C594 C592 1.413 . S
C594 C604 1.391 . S
C595 C590 1.431 . S
C595 C591 1.317 . S
C595 H606 0.930 . S
C596 C590 1.412 . S
C596 C597 1.355 . S
C596 H608 0.930 . S
C597 C596 1.355 . S
C597 C599 1.402 . S
C597 H609 0.930 . S
N598 Gd589 2.661 . S
N598 C593 1.350 . S
N598 C599 1.307 . S
C599 C597 1.402 . S
C599 N598 1.307 . S
C599 H600 0.930 . S
H600 C599 0.930 . S
C601 N602 1.334 . S
C601 C603 1.394 . S
C601 H605 0.930 . S
N602 Gd589 2.601 . S
N602 C592 1.359 . S
N602 C601 1.334 . S
C603 C601 1.394 . S
C603 C604 1.359 . S
C603 H615 0.930 . S
C604 C594 1.391 . S
C604 C603 1.359 . S
C604 H616 0.929 . S
H605 C601 0.930 . S
H606 C595 0.930 . S
H607 C624 0.930 . S
H608 C596 0.930 . S
H609 C597 0.930 . S
H610 C591 0.929 . S
H611 C629 0.930 . S
H612 C620 0.930 . S
H613 C621 0.930 . S
H614 C645 0.929 . S
H615 C603 0.930 . S
H616 C604 0.929 . S
H617 C646 0.930 . S
H618 C627 0.930 . S
N619 Gd588 2.661 . S
N619 C623 1.350 . S
N619 C624 1.307 . S
C620 H612 0.930 . S
C620 C621 1.355 . S
C620 C622 1.412 . S
C621 H613 0.930 . S
C621 C620 1.355 . S
C621 C624 1.402 . S
C622 C620 1.412 . S
C622 C623 1.417 . S
C622 C646 1.431 . S
C623 N619 1.350 . S
C623 C622 1.417 . S
C623 C626 1.426 . S
C624 H607 0.930 . S
C624 N619 1.307 . S
C624 C621 1.402 . S
N625 Gd588 2.601 . S
N625 C626 1.359 . S
N625 C629 1.334 . S
C626 C623 1.426 . S
C626 N625 1.359 . S
C626 C630 1.413 . S
C627 H618 0.930 . S
C627 C628 1.359 . S
C627 C629 1.394 . S
C628 C627 1.359 . S
C628 C630 1.391 . S
C628 H631 0.929 . S
C629 H611 0.930 . S
C629 N625 1.334 . S
C629 C627 1.394 . S
C630 C626 1.413 . S
C630 C628 1.391 . S
C630 C645 1.437 . S
H631 C628 0.929 . S
O632 Gd588 2.545 . S
O632 C647 1.258 . S
O633 Gd588 2.606 . S
O633 Gd589 2.362 . S
O633 C644 1.284 . S
O634 Gd589 2.324 . S
O634 C654 1.254 . S
O635 Gd588 2.429 . S
O635 C654 1.268 . S
O636 Gd588 2.545 . S
O636 C644 1.250 . S
O637 Gd588 2.412 . S
O637 C647 1.252 . S
O638 Gd589 2.545 . S
O638 C656 1.258 . S
O639 Gd588 2.362 . S
O639 Gd589 2.606 . S
O639 C655 1.284 . S
O640 Gd588 2.324 . S
O640 C663 1.254 . S
O641 Gd589 2.429 . S
O641 C663 1.268 . S
O642 Gd589 2.545 . S
O642 C655 1.250 . S
O643 Gd589 2.412 . S
O643 C656 1.252 . S
C644 O633 1.284 . S
C644 O636 1.250 . S
C645 H614 0.929 . S
C645 C630 1.437 . S
C645 C646 1.317 . S
C646 H617 0.930 . S
C646 C622 1.431 . S
C646 C645 1.317 . S
C647 Gd588 2.828 . S
C647 O632 1.258 . S
C647 O637 1.252 . S
C647 C648 1.497 . S
C648 C647 1.497 . S
C648 C649 1.395 . S
C648 C650 1.380 . S
C649 C648 1.395 . S
C649 C652 1.398 . S
C649 H664 0.930 . S
C650 C648 1.380 . S
C650 C651 1.391 . S
C650 H665 0.930 . S
C651 C650 1.391 . S
C651 C653 1.387 . S
C652 C649 1.398 . S
C652 C653 1.380 . S
C652 H666 0.930 . S
C653 C651 1.387 . S
C653 C652 1.380 . S
C653 H667 0.930 . S
C654 O634 1.254 . S
C654 O635 1.268 . S
C655 O639 1.284 . S
C655 O642 1.250 . S
C656 Gd589 2.828 . S
C656 O638 1.258 . S
C656 O643 1.252 . S
C656 C657 1.497 . S
C657 C656 1.497 . S
C657 C658 1.395 . S
C657 C659 1.380 . S
C658 C657 1.395 . S
C658 C661 1.398 . S
C658 H668 0.930 . S
C659 C657 1.380 . S
C659 C660 1.391 . S
C659 H669 0.930 . S
C660 C659 1.391 . S
C660 C662 1.387 . S
C661 C658 1.398 . S
C661 C662 1.380 . S
C661 H670 0.930 . S
C662 C660 1.387 . S
C662 C661 1.380 . S
C662 H671 0.930 . S
C663 O640 1.254 . S
C663 O641 1.268 . S
H664 C649 0.930 . S
H665 C650 0.930 . S
H666 C652 0.930 . S
H667 C653 0.930 . S
H668 C658 0.930 . S
H669 C659 0.930 . S
H670 C661 0.930 . S
H671 C662 0.930 . S
Gd672 N703 2.661 1_545 S
Gd672 N709 2.601 1_545 S
Gd672 O716 2.545 1_545 S
Gd672 O717 2.606 . S
Gd672 O719 2.429 . S
Gd672 O720 2.545 . S
Gd672 O721 2.412 1_545 S
Gd672 O723 2.362 . S
Gd672 O724 2.324 . S
Gd672 C731 2.828 1_545 S
Gd673 N682 2.661 . S
Gd673 N686 2.601 . S
Gd673 O717 2.362 . S
Gd673 O718 2.324 . S
Gd673 O722 2.545 . S
Gd673 O723 2.606 . S
Gd673 O725 2.429 . S
Gd673 O726 2.545 . S
Gd673 O727 2.412 . S
Gd673 C740 2.828 . S
C674 C677 1.417 . S
C674 C679 1.431 . S
C674 C680 1.412 . S
C675 C678 1.437 . S
C675 C679 1.317 . S
C675 H694 0.929 . S
C676 C677 1.426 . S
C676 C678 1.413 . S
C676 N686 1.359 . S
C677 C674 1.417 . S
C677 C676 1.426 . S
C677 N682 1.350 . S
C678 C675 1.437 . S
C678 C676 1.413 . S
C678 C688 1.391 . S
C679 C674 1.431 . S
C679 C675 1.317 . S
C679 H690 0.930 . S
C680 C674 1.412 . S
C680 C681 1.355 . S
C680 H692 0.930 . S
C681 C680 1.355 . S
C681 C683 1.402 . S
C681 H693 0.930 . S
N682 Gd673 2.661 . S
N682 C677 1.350 . S
N682 C683 1.307 . S
C683 C681 1.402 . S
C683 N682 1.307 . S
C683 H684 0.930 . S
H684 C683 0.930 . S
C685 N686 1.334 . S
C685 C687 1.394 . S
C685 H689 0.930 . S
N686 Gd673 2.601 . S
N686 C676 1.359 . S
N686 C685 1.334 . S
C687 C685 1.394 . S
C687 C688 1.359 . S
C687 H699 0.930 1_455 S
C688 C678 1.391 . S
C688 C687 1.359 . S
C688 H700 0.929 . S
H689 C685 0.930 . S
H690 C679 0.930 . S
H691 C708 0.930 . S
H692 C680 0.930 . S
H693 C681 0.930 . S
H694 C675 0.929 . S
H695 C713 0.930 1_545 S
H696 C704 0.930 . S
H697 C705 0.930 1_655 S
H698 C729 0.929 . S
H699 C687 0.930 1_655 S
H700 C688 0.929 . S
H701 C730 0.930 . S
H702 C711 0.930 . S
N703 Gd672 2.661 1_565 S
N703 C707 1.350 . S
N703 C708 1.307 . S
C704 H696 0.930 . S
C704 C705 1.355 . S
C704 C706 1.412 . S
C705 H697 0.930 1_455 S
C705 C704 1.355 . S
C705 C708 1.402 . S
C706 C704 1.412 . S
C706 C707 1.417 . S
C706 C730 1.431 . S
C707 N703 1.350 . S
C707 C706 1.417 . S
C707 C710 1.426 . S
C708 H691 0.930 . S
C708 N703 1.307 . S
C708 C705 1.402 . S
N709 Gd672 2.601 1_565 S
N709 C710 1.359 . S
N709 C713 1.334 . S
C710 C707 1.426 . S
C710 N709 1.359 . S
C710 C714 1.413 . S
C711 H702 0.930 . S
C711 C712 1.359 . S
C711 C713 1.394 . S
C712 C711 1.359 . S
C712 C714 1.391 . S
C712 H715 0.929 . S
C713 H695 0.930 1_565 S
C713 N709 1.334 . S
C713 C711 1.394 . S
C714 C710 1.413 . S
C714 C712 1.391 . S
C714 C729 1.437 . S
H715 C712 0.929 . S
O716 Gd672 2.545 1_565 S
O716 C731 1.258 . S
O717 Gd672 2.606 . S
O717 Gd673 2.362 . S
O717 C728 1.284 . S
O718 Gd673 2.324 . S
O718 C738 1.254 . S
O719 Gd672 2.429 . S
O719 C738 1.268 . S
O720 Gd672 2.545 . S
O720 C728 1.250 . S
O721 Gd672 2.412 1_565 S
O721 C731 1.252 . S
O722 Gd673 2.545 . S
O722 C740 1.258 . S
O723 Gd672 2.362 . S
O723 Gd673 2.606 . S
O723 C739 1.284 . S
O724 Gd672 2.324 . S
O724 C747 1.254 . S
O725 Gd673 2.429 . S
O725 C747 1.268 . S
O726 Gd673 2.545 . S
O726 C739 1.250 . S
O727 Gd673 2.412 . S
O727 C740 1.252 . S
C728 O717 1.284 . S
C728 O720 1.250 . S
C729 H698 0.929 . S
C729 C714 1.437 . S
C729 C730 1.317 . S
C730 H701 0.930 . S
C730 C706 1.431 . S
C730 C729 1.317 . S
C731 Gd672 2.828 1_565 S
C731 O716 1.258 . S
C731 O721 1.252 . S
C731 C732 1.497 . S
C732 C731 1.497 . S
C732 C733 1.395 . S
C732 C734 1.380 . S
C733 C732 1.395 . S
C733 C736 1.398 . S
C733 H748 0.930 . S
C734 C732 1.380 . S
C734 C735 1.391 . S
C734 H749 0.930 . S
C735 C734 1.391 . S
C735 C737 1.387 . S
C736 C733 1.398 . S
C736 C737 1.380 . S
C736 H750 0.930 . S
C737 C735 1.387 . S
C737 C736 1.380 . S
C737 H751 0.930 . S
C738 O718 1.254 . S
C738 O719 1.268 . S
C739 O723 1.284 . S
C739 O726 1.250 . S
C740 Gd673 2.828 . S
C740 O722 1.258 . S
C740 O727 1.252 . S
C740 C741 1.497 . S
C741 C740 1.497 . S
C741 C742 1.395 . S
C741 C743 1.380 . S
C742 C741 1.395 . S
C742 C745 1.398 . S
C742 H752 0.930 . S
C743 C741 1.380 . S
C743 C744 1.391 . S
C743 H753 0.930 . S
C744 C743 1.391 . S
C744 C746 1.387 . S
C745 C742 1.398 . S
C745 C746 1.380 . S
C745 H754 0.930 . S
C746 C744 1.387 . S
C746 C745 1.380 . S
C746 H755 0.930 . S
C747 O724 1.254 . S
C747 O725 1.268 . S
H748 C733 0.930 . S
H749 C734 0.930 . S
H750 C736 0.930 . S
H751 C737 0.930 . S
H752 C742 0.930 . S
H753 C743 0.930 . S
H754 C745 0.930 . S
H755 C746 0.930 . S
Gd756 N787 2.661 . S
Gd756 N793 2.601 . S
Gd756 O800 2.545 . S
Gd756 O801 2.606 . S
Gd756 O803 2.429 . S
Gd756 O804 2.545 . S
Gd756 O805 2.412 . S
Gd756 O807 2.362 . S
Gd756 O808 2.324 . S
Gd756 C815 2.828 . S
Gd757 N766 2.661 . S
Gd757 N770 2.601 . S
Gd757 O801 2.362 . S
Gd757 O802 2.324 . S
Gd757 O806 2.545 . S
Gd757 O807 2.606 . S
Gd757 O809 2.429 . S
Gd757 O810 2.545 . S
Gd757 O811 2.412 . S
Gd757 C824 2.828 . S
C758 C761 1.417 . S
C758 C763 1.431 . S
C758 C764 1.412 . S
C759 C762 1.437 . S
C759 C763 1.317 . S
C759 H778 0.929 . S
C760 C761 1.426 . S
C760 C762 1.413 . S
C760 N770 1.359 . S
C761 C758 1.417 . S
C761 C760 1.426 . S
C761 N766 1.350 . S
C762 C759 1.437 . S
C762 C760 1.413 . S
C762 C772 1.391 . S
C763 C758 1.431 . S
C763 C759 1.317 . S
C763 H774 0.930 . S
C764 C758 1.412 . S
C764 C765 1.355 . S
C764 H776 0.930 . S
C765 C764 1.355 . S
C765 C767 1.402 . S
C765 H777 0.930 . S
N766 Gd757 2.661 . S
N766 C761 1.350 . S
N766 C767 1.307 . S
C767 C765 1.402 . S
C767 N766 1.307 . S
C767 H768 0.930 . S
H768 C767 0.930 . S
C769 N770 1.334 . S
C769 C771 1.394 . S
C769 H773 0.930 . S
N770 Gd757 2.601 . S
N770 C760 1.359 . S
N770 C769 1.334 . S
C771 C769 1.394 . S
C771 C772 1.359 . S
C771 H783 0.930 . S
C772 C762 1.391 . S
C772 C771 1.359 . S
C772 H784 0.929 . S
H773 C769 0.930 . S
H774 C763 0.930 . S
H775 C792 0.930 . S
H776 C764 0.930 . S
H777 C765 0.930 . S
H778 C759 0.929 . S
H779 C797 0.930 . S
H780 C788 0.930 . S
H781 C789 0.930 . S
H782 C813 0.929 . S
H783 C771 0.930 . S
H784 C772 0.929 . S
H785 C814 0.930 . S
H786 C795 0.930 . S
N787 Gd756 2.661 . S
N787 C791 1.350 . S
N787 C792 1.307 . S
C788 H780 0.930 . S
C788 C789 1.355 . S
C788 C790 1.412 . S
C789 H781 0.930 . S
C789 C788 1.355 . S
C789 C792 1.402 . S
C790 C788 1.412 . S
C790 C791 1.417 . S
C790 C814 1.431 . S
C791 N787 1.350 . S
C791 C790 1.417 . S
C791 C794 1.426 . S
C792 H775 0.930 . S
C792 N787 1.307 . S
C792 C789 1.402 . S
N793 Gd756 2.601 . S
N793 C794 1.359 . S
N793 C797 1.334 . S
C794 C791 1.426 . S
C794 N793 1.359 . S
C794 C798 1.413 . S
C795 H786 0.930 . S
C795 C796 1.359 . S
C795 C797 1.394 . S
C796 C795 1.359 . S
C796 C798 1.391 . S
C796 H799 0.929 . S
C797 H779 0.930 . S
C797 N793 1.334 . S
C797 C795 1.394 . S
C798 C794 1.413 . S
C798 C796 1.391 . S
C798 C813 1.437 . S
H799 C796 0.929 . S
O800 Gd756 2.545 . S
O800 C815 1.258 . S
O801 Gd756 2.606 . S
O801 Gd757 2.362 . S
O801 C812 1.284 . S
O802 Gd757 2.324 . S
O802 C822 1.254 . S
O803 Gd756 2.429 . S
O803 C822 1.268 . S
O804 Gd756 2.545 . S
O804 C812 1.250 . S
O805 Gd756 2.412 . S
O805 C815 1.252 . S
O806 Gd757 2.545 . S
O806 C824 1.258 . S
O807 Gd756 2.362 . S
O807 Gd757 2.606 . S
O807 C823 1.284 . S
O808 Gd756 2.324 . S
O808 C831 1.254 . S
O809 Gd757 2.429 . S
O809 C831 1.268 . S
O810 Gd757 2.545 . S
O810 C823 1.250 . S
O811 Gd757 2.412 . S
O811 C824 1.252 . S
C812 O801 1.284 . S
C812 O804 1.250 . S
C813 H782 0.929 . S
C813 C798 1.437 . S
C813 C814 1.317 . S
C814 H785 0.930 . S
C814 C790 1.431 . S
C814 C813 1.317 . S
C815 Gd756 2.828 . S
C815 O800 1.258 . S
C815 O805 1.252 . S
C815 C816 1.497 . S
C816 C815 1.497 . S
C816 C817 1.395 . S
C816 C818 1.380 . S
C817 C816 1.395 . S
C817 C820 1.398 . S
C817 H832 0.930 . S
C818 C816 1.380 . S
C818 C819 1.391 . S
C818 H833 0.930 . S
C819 C818 1.391 . S
C819 C821 1.387 . S
C820 C817 1.398 . S
C820 C821 1.380 . S
C820 H834 0.930 . S
C821 C819 1.387 . S
C821 C820 1.380 . S
C821 H835 0.930 . S
C822 O802 1.254 . S
C822 O803 1.268 . S
C823 O807 1.284 . S
C823 O810 1.250 . S
C824 Gd757 2.828 . S
C824 O806 1.258 . S
C824 O811 1.252 . S
C824 C825 1.497 . S
C825 C824 1.497 . S
C825 C826 1.395 . S
C825 C827 1.380 . S
C826 C825 1.395 . S
C826 C829 1.398 . S
C826 H836 0.930 . S
C827 C825 1.380 . S
C827 C828 1.391 . S
C827 H837 0.930 . S
C828 C827 1.391 . S
C828 C830 1.387 . S
C829 C826 1.398 . S
C829 C830 1.380 . S
C829 H838 0.930 . S
C830 C828 1.387 . S
C830 C829 1.380 . S
C830 H839 0.930 . S
C831 O808 1.254 . S
C831 O809 1.268 . S
H832 C817 0.930 . S
H833 C818 0.930 . S
H834 C820 0.930 . S
H835 C821 0.930 . S
H836 C826 0.930 . S
H837 C827 0.930 . S
H838 C829 0.930 . S
H839 C830 0.930 . S
Gd840 N871 2.661 . S
Gd840 N877 2.601 . S
Gd840 O884 2.545 . S
Gd840 O885 2.606 1_556 S
Gd840 O887 2.429 1_556 S
Gd840 O888 2.547 . S
Gd840 O889 2.412 . S
Gd840 O891 2.362 1_556 S
Gd840 O892 2.324 . S
Gd840 C899 2.828 . S
Gd841 N850 2.661 . S
Gd841 N854 2.601 . S
Gd841 O885 2.362 . S
Gd841 O886 2.324 . S
Gd841 O890 2.545 . S
Gd841 O891 2.606 . S
Gd841 O893 2.429 . S
Gd841 O894 2.545 . S
Gd841 O895 2.412 . S
Gd841 C908 2.828 . S
C842 C845 1.417 . S
C842 C847 1.431 . S
C842 C848 1.412 . S
C843 C846 1.437 . S
C843 C847 1.317 . S
C843 H862 0.929 . S
C844 C845 1.426 . S
C844 C846 1.413 . S
C844 N854 1.359 . S
C845 C842 1.417 . S
C845 C844 1.426 . S
C845 N850 1.350 . S
C846 C843 1.437 . S
C846 C844 1.413 . S
C846 C856 1.391 1_545 S
C847 C842 1.431 . S
C847 C843 1.317 . S
C847 H858 0.930 . S
C848 C842 1.412 . S
C848 C849 1.355 . S
C848 H860 0.930 . S
C849 C848 1.355 . S
C849 C851 1.402 . S
C849 H861 0.930 . S
N850 Gd841 2.661 . S
N850 C845 1.350 . S
N850 C851 1.307 . S
C851 C849 1.402 . S
C851 N850 1.307 . S
C851 H852 0.930 . S
H852 C851 0.930 . S
C853 N854 1.334 1_565 S
C853 C855 1.394 . S
C853 H857 0.930 . S
N854 Gd841 2.601 . S
N854 C844 1.359 . S
N854 C853 1.334 1_545 S
C855 C853 1.394 . S
C855 C856 1.359 . S
C855 H867 0.930 . S
C856 C846 1.391 1_565 S
C856 C855 1.359 . S
C856 H868 0.929 . S
H857 C853 0.930 . S
H858 C847 0.930 . S
H859 C876 0.910 1_565 S
H860 C848 0.930 . S
H861 C849 0.930 . S
H862 C843 0.929 . S
H863 C881 0.930 . S
H864 C872 0.930 . S
H865 C873 0.930 . S
H866 C897 0.929 . S
H867 C855 0.930 . S
H868 C856 0.929 . S
H869 C898 0.930 . S
H870 C879 0.930 . S
N871 Gd840 2.661 . S
N871 C875 1.350 . S
N871 C876 1.339 . S
C872 H864 0.930 . S
C872 C873 1.355 . S
C872 C874 1.412 1_565 S
C873 H865 0.930 . S
C873 C872 1.355 . S
C873 C876 1.389 1_565 S
C874 C872 1.412 1_545 S
C874 C875 1.417 . S
C874 C898 1.431 . S
C875 N871 1.350 . S
C875 C874 1.417 . S
C875 C878 1.426 . S
C876 H859 0.910 1_545 S
C876 N871 1.339 . S
C876 C873 1.389 1_545 S
N877 Gd840 2.601 . S
N877 C878 1.359 . S
N877 C881 1.334 . S
C878 C875 1.426 . S
C878 N877 1.359 . S
C878 C882 1.413 . S
C879 H870 0.930 . S
C879 C880 1.359 . S
C879 C881 1.394 . S
C880 C879 1.359 . S
C880 C882 1.391 . S
C880 H883 0.929 . S
C881 H863 0.930 . S
C881 N877 1.334 . S
C881 C879 1.394 . S
C882 C878 1.413 . S
C882 C880 1.391 . S
C882 C897 1.437 . S
H883 C880 0.929 . S
O884 Gd840 2.545 . S
O884 C899 1.258 . S
O885 Gd840 2.606 1_554 S
O885 Gd841 2.362 . S
O885 C896 1.284 . S
O886 Gd841 2.324 . S
O886 C906 1.254 . S
O887 Gd840 2.429 1_554 S
O887 C906 1.268 . S
O888 Gd840 2.547 . S
O888 C896 1.196 1_556 S
O889 Gd840 2.412 . S
O889 C899 1.252 . S
O890 Gd841 2.545 . S
O890 C908 1.258 . S
O891 Gd840 2.362 1_554 S
O891 Gd841 2.606 . S
O891 C907 1.284 . S
O892 Gd840 2.324 . S
O892 C915 1.254 1_556 S
O893 Gd841 2.429 . S
O893 C915 1.268 . S
O894 Gd841 2.545 . S
O894 C907 1.250 . S
O895 Gd841 2.412 . S
O895 C908 1.252 . S
C896 O885 1.284 . S
C896 O888 1.196 1_554 S
C897 H866 0.929 . S
C897 C882 1.437 . S
C897 C898 1.317 . S
C898 H869 0.930 . S
C898 C874 1.431 . S
C898 C897 1.317 . S
C899 Gd840 2.828 . S
C899 O884 1.258 . S
C899 O889 1.252 . S
C899 C900 1.497 . S
C900 C899 1.497 . S
C900 C901 1.395 . S
C900 C902 1.380 . S
C901 C900 1.395 . S
C901 C904 1.398 . S
C901 H916 0.930 . S
C902 C900 1.380 . S
C902 C903 1.391 . S
C902 H917 0.930 . S
C903 C902 1.391 . S
C903 C905 1.387 . S
C904 C901 1.398 . S
C904 C905 1.380 . S
C904 H918 0.930 . S
C905 C903 1.387 . S
C905 C904 1.380 . S
C905 H919 0.930 . S
C906 O886 1.254 . S
C906 O887 1.268 . S
C907 O891 1.284 . S
C907 O894 1.250 . S
C908 Gd841 2.828 . S
C908 O890 1.258 . S
C908 O895 1.252 . S
C908 C909 1.497 . S
C909 C908 1.497 . S
C909 C910 1.395 1_545 S
C909 C911 1.380 . S
C910 C909 1.395 1_565 S
C910 C913 1.398 . S
C910 H920 0.930 . S
C911 C909 1.380 . S
C911 C912 1.391 . S
C911 H921 0.930 . S
C912 C911 1.391 . S
C912 C914 1.387 . S
C913 C910 1.398 . S
C913 C914 1.380 1_565 S
C913 H922 0.930 . S
C914 C912 1.387 . S
C914 C913 1.380 1_545 S
C914 H923 0.930 . S
C915 O892 1.254 1_554 S
C915 O893 1.268 . S
H916 C901 0.930 . S
H917 C902 0.930 . S
H918 C904 0.930 . S
H919 C905 0.930 . S
H920 C910 0.930 . S
H921 C911 0.930 . S
H922 C913 0.930 . S
H923 C914 0.930 . S
Gd924 N955 2.661 . S
Gd924 N961 2.601 . S
Gd924 O968 2.545 . S
Gd924 O969 2.606 . S
Gd924 O971 2.429 . S
Gd924 O972 2.545 . S
Gd924 O973 2.412 . S
Gd924 O975 2.362 . S
Gd924 O976 2.324 . S
Gd924 C983 2.828 . S
Gd925 N934 2.661 . S
Gd925 N938 2.601 . S
Gd925 O969 2.362 . S
Gd925 O970 2.324 . S
Gd925 O974 2.545 . S
Gd925 O975 2.606 . S
Gd925 O977 2.429 . S
Gd925 O978 2.545 . S
Gd925 O979 2.412 . S
Gd925 C992 2.828 . S
C926 C929 1.417 . S
C926 C931 1.431 . S
C926 C932 1.412 . S
C927 C930 1.437 . S
C927 C931 1.317 . S
C927 H946 0.929 . S
C928 C929 1.426 . S
C928 C930 1.413 . S
C928 N938 1.359 . S
C929 C926 1.417 . S
C929 C928 1.426 . S
C929 N934 1.350 . S
C930 C927 1.437 . S
C930 C928 1.413 . S
C930 C940 1.391 . S
C931 C926 1.431 . S
C931 C927 1.317 . S
C931 H942 0.930 . S
C932 C926 1.412 . S
C932 C933 1.355 . S
C932 H944 0.930 . S
C933 C932 1.355 . S
C933 C935 1.402 . S
C933 H945 0.930 . S
N934 Gd925 2.661 . S
N934 C929 1.350 . S
N934 C935 1.307 . S
C935 C933 1.402 . S
C935 N934 1.307 . S
C935 H936 0.930 . S
H936 C935 0.930 . S
C937 N938 1.334 . S
C937 C939 1.394 . S
C937 H941 0.930 . S
N938 Gd925 2.601 . S
N938 C928 1.359 . S
N938 C937 1.334 . S
C939 C937 1.394 . S
C939 C940 1.359 . S
C939 H951 0.930 . S
C940 C930 1.391 . S
C940 C939 1.359 . S
C940 H952 0.929 . S
H941 C937 0.930 . S
H942 C931 0.930 . S
H943 C960 0.930 . S
H944 C932 0.930 . S
H945 C933 0.930 . S
H946 C927 0.929 . S
H947 C965 0.930 . S
H948 C956 0.930 . S
H949 C957 0.930 . S
H950 C981 0.929 . S
H951 C939 0.930 . S
H952 C940 0.929 . S
H953 C982 0.930 . S
H954 C963 0.930 . S
N955 Gd924 2.661 . S
N955 C959 1.350 . S
N955 C960 1.307 . S
C956 H948 0.930 . S
C956 C957 1.355 . S
C956 C958 1.412 . S
C957 H949 0.930 . S
C957 C956 1.355 . S
C957 C960 1.402 . S
C958 C956 1.412 . S
C958 C959 1.417 . S
C958 C982 1.431 . S
C959 N955 1.350 . S
C959 C958 1.417 . S
C959 C962 1.426 . S
C960 H943 0.930 . S
C960 N955 1.307 . S
C960 C957 1.402 . S
N961 Gd924 2.601 . S
N961 C962 1.359 . S
N961 C965 1.334 . S
C962 C959 1.426 . S
C962 N961 1.359 . S
C962 C966 1.413 . S
C963 H954 0.930 . S
C963 C964 1.359 . S
C963 C965 1.394 . S
C964 C963 1.359 . S
C964 C966 1.391 . S
C964 H967 0.929 . S
C965 H947 0.930 . S
C965 N961 1.334 . S
C965 C963 1.394 . S
C966 C962 1.413 . S
C966 C964 1.391 . S
C966 C981 1.437 . S
H967 C964 0.929 . S
O968 Gd924 2.545 . S
O968 C983 1.258 . S
O969 Gd924 2.606 . S
O969 Gd925 2.362 . S
O969 C980 1.284 . S
O970 Gd925 2.324 . S
O970 C990 1.254 . S
O971 Gd924 2.429 . S
O971 C990 1.268 . S
O972 Gd924 2.545 . S
O972 C980 1.250 . S
O973 Gd924 2.412 . S
O973 C983 1.252 . S
O974 Gd925 2.545 . S
O974 C992 1.258 . S
O975 Gd924 2.362 . S
O975 Gd925 2.606 . S
O975 C991 1.284 . S
O976 Gd924 2.324 . S
O976 C999 1.254 . S
O977 Gd925 2.429 . S
O977 C999 1.268 . S
O978 Gd925 2.545 . S
O978 C991 1.250 . S
O979 Gd925 2.412 . S
O979 C992 1.252 . S
C980 O969 1.284 . S
C980 O972 1.250 . S
C981 H950 0.929 . S
C981 C966 1.437 . S
C981 C982 1.317 . S
C982 H953 0.930 . S
C982 C958 1.431 . S
C982 C981 1.317 . S
C983 Gd924 2.828 . S
C983 O968 1.258 . S
C983 O973 1.252 . S
C983 C984 1.497 . S
C984 C983 1.497 . S
C984 C985 1.395 . S
C984 C986 1.380 . S
C985 C984 1.395 . S
C985 C988 1.398 . S
C985 H1000 0.930 . S
C986 C984 1.380 . S
C986 C987 1.391 . S
C986 H1001 0.930 . S
C987 C986 1.391 . S
C987 C989 1.387 . S
C988 C985 1.398 . S
C988 C989 1.380 . S
C988 H1002 0.930 . S
C989 C987 1.387 . S
C989 C988 1.380 . S
C989 H1003 0.930 . S
C990 O970 1.254 . S
C990 O971 1.268 . S
C991 O975 1.284 . S
C991 O978 1.250 . S
C992 Gd925 2.828 . S
C992 O974 1.258 . S
C992 O979 1.252 . S
C992 C993 1.497 . S
C993 C992 1.497 . S
C993 C994 1.395 . S
C993 C995 1.380 . S
C994 C993 1.395 . S
C994 C997 1.398 . S
C994 H1004 0.930 . S
C995 C993 1.380 . S
C995 C996 1.391 . S
C995 H1005 0.930 . S
C996 C995 1.391 . S
C996 C998 1.387 . S
C997 C994 1.398 . S
C997 C998 1.380 . S
C997 H1006 0.930 . S
C998 C996 1.387 . S
C998 C997 1.380 . S
C998 H1007 0.930 . S
C999 O976 1.254 . S
C999 O977 1.268 . S
H1000 C985 0.930 . S
H1001 C986 0.930 . S
H1002 C988 0.930 . S
H1003 C989 0.930 . S
H1004 C994 0.930 . S
H1005 C995 0.930 . S
H1006 C997 0.930 . S
H1007 C998 0.930 . S
Gd1008 N1039 2.661 1_554 S
Gd1008 N1045 2.601 1_554 S
Gd1008 O1052 2.545 . S
Gd1008 O1053 2.606 . S
Gd1008 O1055 2.429 . S
Gd1008 O1056 2.545 . S
Gd1008 O1057 2.412 . S
Gd1008 O1059 2.362 1_554 S
Gd1008 O1060 2.324 . S
Gd1008 C1067 2.828 . S
Gd1009 N1018 2.661 . S
Gd1009 N1022 2.601 . S
Gd1009 O1053 2.362 . S
Gd1009 O1054 2.324 . S
Gd1009 O1058 2.545 . S
Gd1009 O1059 2.606 1_554 S
Gd1009 O1061 2.429 . S
Gd1009 O1062 2.545 1_554 S
Gd1009 O1063 2.412 . S
Gd1009 C1076 2.828 . S
C1010 C1013 1.417 . S
C1010 C1015 1.431 . S
C1010 C1016 1.412 . S
C1011 C1014 1.437 . S
C1011 C1015 1.317 . S
C1011 H1030 0.929 . S
C1012 C1013 1.426 . S
C1012 C1014 1.413 . S
C1012 N1022 1.359 . S
C1013 C1010 1.417 . S
C1013 C1012 1.426 . S
C1013 N1018 1.350 . S
C1014 C1011 1.437 . S
C1014 C1012 1.413 . S
C1014 C1024 1.391 . S
C1015 C1010 1.431 . S
C1015 C1011 1.317 . S
C1015 H1026 0.930 . S
C1016 C1010 1.412 . S
C1016 C1017 1.355 . S
C1016 H1028 0.930 . S
C1017 C1016 1.355 . S
C1017 C1019 1.402 . S
C1017 H1029 0.930 . S
N1018 Gd1009 2.661 . S
N1018 C1013 1.350 . S
N1018 C1019 1.307 . S
C1019 C1017 1.402 . S
C1019 N1018 1.307 . S
C1019 H1020 0.930 . S
H1020 C1019 0.930 . S
C1021 N1022 1.334 . S
C1021 C1023 1.394 . S
C1021 H1025 0.930 . S
N1022 Gd1009 2.601 . S
N1022 C1012 1.359 . S
N1022 C1021 1.334 . S
C1023 C1021 1.394 . S
C1023 C1024 1.359 . S
C1023 H1035 0.930 . S
C1024 C1014 1.391 . S
C1024 C1023 1.359 . S
C1024 H1036 0.929 . S
H1025 C1021 0.930 . S
H1026 C1015 0.930 . S
H1027 C1044 0.930 . S
H1028 C1016 0.930 . S
H1029 C1017 0.930 . S
H1030 C1011 0.929 . S
H1031 C1049 0.930 . S
H1032 C1040 0.930 . S
H1033 C1041 0.930 . S
H1034 C1065 0.929 . S
H1035 C1023 0.930 . S
H1036 C1024 0.929 . S
H1037 C1066 0.930 . S
H1038 C1047 0.930 . S
N1039 Gd1008 2.661 1_556 S
N1039 C1043 1.350 . S
N1039 C1044 1.307 . S
C1040 H1032 0.930 . S
C1040 C1041 1.355 . S
C1040 C1042 1.412 . S
C1041 H1033 0.930 . S
C1041 C1040 1.355 . S
C1041 C1044 1.402 . S
C1042 C1040 1.412 . S
C1042 C1043 1.417 . S
C1042 C1066 1.431 . S
C1043 N1039 1.350 . S
C1043 C1042 1.417 . S
C1043 C1046 1.426 . S
C1044 H1027 0.930 . S
C1044 N1039 1.307 . S
C1044 C1041 1.402 . S
N1045 Gd1008 2.601 1_556 S
N1045 C1046 1.359 . S
N1045 C1049 1.334 . S
C1046 C1043 1.426 . S
C1046 N1045 1.359 . S
C1046 C1050 1.413 . S
C1047 H1038 0.930 . S
C1047 C1048 1.359 . S
C1047 C1049 1.394 . S
C1048 C1047 1.359 . S
C1048 C1050 1.391 . S
C1048 H1051 0.929 . S
C1049 H1031 0.930 . S
C1049 N1045 1.334 . S
C1049 C1047 1.394 . S
C1050 C1046 1.413 . S
C1050 C1048 1.391 . S
C1050 C1065 1.437 . S
H1051 C1048 0.929 . S
O1052 Gd1008 2.545 . S
O1052 C1067 1.258 . S
O1053 Gd1008 2.606 . S
O1053 Gd1009 2.362 . S
O1053 C1064 1.284 . S
O1054 Gd1009 2.324 . S
O1054 C1074 1.254 . S
O1055 Gd1008 2.429 . S
O1055 C1074 1.268 . S
O1056 Gd1008 2.545 . S
O1056 C1064 1.250 . S
O1057 Gd1008 2.412 . S
O1057 C1067 1.252 . S
O1058 Gd1009 2.545 . S
O1058 C1076 1.258 . S
O1059 Gd1008 2.362 1_556 S
O1059 Gd1009 2.606 1_556 S
O1059 C1075 1.284 . S
O1060 Gd1008 2.324 . S
O1060 C1083 1.254 . S
O1061 Gd1009 2.429 . S
O1061 C1083 1.268 . S
O1062 Gd1009 2.545 1_556 S
O1062 C1075 1.250 . S
O1063 Gd1009 2.412 . S
O1063 C1076 1.252 . S
C1064 O1053 1.284 . S
C1064 O1056 1.250 . S
C1065 H1034 0.929 . S
C1065 C1050 1.437 . S
C1065 C1066 1.317 . S
C1066 H1037 0.930 . S
C1066 C1042 1.431 . S
C1066 C1065 1.317 . S
C1067 Gd1008 2.828 . S
C1067 O1052 1.258 . S
C1067 O1057 1.252 . S
C1067 C1068 1.497 . S
C1068 C1067 1.497 . S
C1068 C1069 1.395 . S
C1068 C1070 1.380 . S
C1069 C1068 1.395 . S
C1069 C1072 1.398 . S
C1069 H1084 0.930 . S
C1070 C1068 1.380 . S
C1070 C1071 1.391 . S
C1070 H1085 0.930 . S
C1071 C1070 1.391 . S
C1071 C1073 1.387 . S
C1072 C1069 1.398 . S
C1072 C1073 1.380 . S
C1072 H1086 0.930 . S
C1073 C1071 1.387 . S
C1073 C1072 1.380 . S
C1073 H1087 0.930 . S
C1074 O1054 1.254 . S
C1074 O1055 1.268 . S
C1075 O1059 1.284 . S
C1075 O1062 1.250 . S
C1076 Gd1009 2.828 . S
C1076 O1058 1.258 . S
C1076 O1063 1.252 . S
C1076 C1077 1.497 . S
C1077 C1076 1.497 . S
C1077 C1078 1.395 . S
C1077 C1079 1.380 . S
C1078 C1077 1.395 . S
C1078 C1081 1.398 . S
C1078 H1088 0.930 . S
C1079 C1077 1.380 . S
C1079 C1080 1.390 1_554 S
C1079 H1089 0.930 . S
C1080 C1079 1.390 1_556 S
C1080 C1082 1.387 1_556 S
C1081 C1078 1.398 . S
C1081 C1082 1.380 . S
C1081 H1090 0.930 . S
C1082 C1080 1.387 1_554 S
C1082 C1081 1.380 . S
C1082 H1091 0.930 . S
C1083 O1060 1.254 . S
C1083 O1061 1.268 . S
H1084 C1069 0.930 . S
H1085 C1070 0.930 . S
H1086 C1072 0.930 . S
H1087 C1073 0.930 . S
H1088 C1078 0.930 . S
H1089 C1079 0.930 . S
H1090 C1081 0.930 . S
H1091 C1082 0.930 . S
Gd1092 N1123 2.661 . S
Gd1092 N1129 2.601 . S
Gd1092 O1136 2.545 . S
Gd1092 O1137 2.606 . S
Gd1092 O1139 2.429 . S
Gd1092 O1140 2.545 . S
Gd1092 O1141 2.412 . S
Gd1092 O1143 2.362 . S
Gd1092 O1144 2.324 . S
Gd1092 C1151 2.828 . S
Gd1093 N1102 2.661 . S
Gd1093 N1106 2.601 . S
Gd1093 O1137 2.362 . S
Gd1093 O1138 2.324 . S
Gd1093 O1142 2.545 . S
Gd1093 O1143 2.606 . S
Gd1093 O1145 2.429 . S
Gd1093 O1146 2.545 . S
Gd1093 O1147 2.412 . S
Gd1093 C1160 2.828 . S
C1094 C1097 1.417 . S
C1094 C1099 1.431 . S
C1094 C1100 1.412 . S
C1095 C1098 1.437 . S
C1095 C1099 1.317 . S
C1095 H1114 0.929 . S
C1096 C1097 1.426 . S
C1096 C1098 1.413 . S
C1096 N1106 1.359 . S
C1097 C1094 1.417 . S
C1097 C1096 1.426 . S
C1097 N1102 1.350 . S
C1098 C1095 1.437 . S
C1098 C1096 1.413 . S
C1098 C1108 1.391 . S
C1099 C1094 1.431 . S
C1099 C1095 1.317 . S
C1099 H1110 0.930 . S
C1100 C1094 1.412 . S
C1100 C1101 1.355 . S
C1100 H1112 0.930 . S
C1101 C1100 1.355 . S
C1101 C1103 1.402 . S
C1101 H1113 0.930 . S
N1102 Gd1093 2.661 . S
N1102 C1097 1.350 . S
N1102 C1103 1.307 . S
C1103 C1101 1.402 . S
C1103 N1102 1.307 . S
C1103 H1104 0.930 . S
H1104 C1103 0.930 . S
C1105 N1106 1.334 . S
C1105 C1107 1.394 . S
C1105 H1109 0.930 . S
N1106 Gd1093 2.601 . S
N1106 C1096 1.359 . S
N1106 C1105 1.334 . S
C1107 C1105 1.394 . S
C1107 C1108 1.359 . S
C1107 H1119 0.930 . S
C1108 C1098 1.391 . S
C1108 C1107 1.359 . S
C1108 H1120 0.929 . S
H1109 C1105 0.930 . S
H1110 C1099 0.930 . S
H1111 C1128 0.930 . S
H1112 C1100 0.930 . S
H1113 C1101 0.930 . S
H1114 C1095 0.929 . S
H1115 C1133 0.930 . S
H1116 C1124 0.930 . S
H1117 C1125 0.930 . S
H1118 C1149 0.929 . S
H1119 C1107 0.930 . S
H1120 C1108 0.929 . S
H1121 C1150 0.930 . S
H1122 C1131 0.930 . S
N1123 Gd1092 2.661 . S
N1123 C1127 1.350 . S
N1123 C1128 1.307 . S
C1124 H1116 0.930 . S
C1124 C1125 1.355 . S
C1124 C1126 1.412 . S
C1125 H1117 0.930 . S
C1125 C1124 1.355 . S
C1125 C1128 1.402 . S
C1126 C1124 1.412 . S
C1126 C1127 1.417 . S
C1126 C1150 1.431 . S
C1127 N1123 1.350 . S
C1127 C1126 1.417 . S
C1127 C1130 1.426 . S
C1128 H1111 0.930 . S
C1128 N1123 1.307 . S
C1128 C1125 1.402 . S
N1129 Gd1092 2.601 . S
N1129 C1130 1.359 . S
N1129 C1133 1.334 . S
C1130 C1127 1.426 . S
C1130 N1129 1.359 . S
C1130 C1134 1.413 . S
C1131 H1122 0.930 . S
C1131 C1132 1.359 . S
C1131 C1133 1.394 . S
C1132 C1131 1.359 . S
C1132 C1134 1.391 . S
C1132 H1135 0.929 . S
C1133 H1115 0.930 . S
C1133 N1129 1.334 . S
C1133 C1131 1.394 . S
C1134 C1130 1.413 . S
C1134 C1132 1.391 . S
C1134 C1149 1.437 . S
H1135 C1132 0.929 . S
O1136 Gd1092 2.545 . S
O1136 C1151 1.258 . S
O1137 Gd1092 2.606 . S
O1137 Gd1093 2.362 . S
O1137 C1148 1.284 . S
O1138 Gd1093 2.324 . S
O1138 C1158 1.254 . S
O1139 Gd1092 2.429 . S
O1139 C1158 1.268 . S
O1140 Gd1092 2.545 . S
O1140 C1148 1.250 . S
O1141 Gd1092 2.412 . S
O1141 C1151 1.252 . S
O1142 Gd1093 2.545 . S
O1142 C1160 1.258 . S
O1143 Gd1092 2.362 . S
O1143 Gd1093 2.606 . S
O1143 C1159 1.284 . S
O1144 Gd1092 2.324 . S
O1144 C1167 1.254 . S
O1145 Gd1093 2.429 . S
O1145 C1167 1.268 . S
O1146 Gd1093 2.545 . S
O1146 C1159 1.250 . S
O1147 Gd1093 2.412 . S
O1147 C1160 1.252 . S
C1148 O1137 1.284 . S
C1148 O1140 1.250 . S
C1149 H1118 0.929 . S
C1149 C1134 1.437 . S
C1149 C1150 1.317 . S
C1150 H1121 0.930 . S
C1150 C1126 1.431 . S
C1150 C1149 1.317 . S
C1151 Gd1092 2.828 . S
C1151 O1136 1.258 . S
C1151 O1141 1.252 . S
C1151 C1152 1.497 . S
C1152 C1151 1.497 . S
C1152 C1153 1.395 . S
C1152 C1154 1.380 . S
C1153 C1152 1.395 . S
C1153 C1156 1.398 . S
C1153 H1168 0.930 . S
C1154 C1152 1.380 . S
C1154 C1155 1.391 . S
C1154 H1169 0.930 . S
C1155 C1154 1.391 . S
C1155 C1157 1.387 . S
C1156 C1153 1.398 . S
C1156 C1157 1.380 . S
C1156 H1170 0.930 . S
C1157 C1155 1.387 . S
C1157 C1156 1.380 . S
C1157 H1171 0.930 . S
C1158 O1138 1.254 . S
C1158 O1139 1.268 . S
C1159 O1143 1.284 . S
C1159 O1146 1.250 . S
C1160 Gd1093 2.828 . S
C1160 O1142 1.258 . S
C1160 O1147 1.252 . S
C1160 C1161 1.497 . S
C1161 C1160 1.497 . S
C1161 C1162 1.395 . S
C1161 C1163 1.380 . S
C1162 C1161 1.395 . S
C1162 C1165 1.398 . S
C1162 H1172 0.930 . S
C1163 C1161 1.380 . S
C1163 C1164 1.391 . S
C1163 H1173 0.930 . S
C1164 C1163 1.391 . S
C1164 C1166 1.387 . S
C1165 C1162 1.398 . S
C1165 C1166 1.380 . S
C1165 H1174 0.930 . S
C1166 C1164 1.387 . S
C1166 C1165 1.380 . S
C1166 H1175 0.930 . S
C1167 O1144 1.254 . S
C1167 O1145 1.268 . S
H1168 C1153 0.930 . S
H1169 C1154 0.930 . S
H1170 C1156 0.930 . S
H1171 C1157 0.930 . S
H1172 C1162 0.930 . S
H1173 C1163 0.930 . S
H1174 C1165 0.930 . S
H1175 C1166 0.930 . S
Gd1176 N1207 2.661 . S
Gd1176 N1213 2.601 . S
Gd1176 O1220 2.545 . S
Gd1176 O1221 2.606 . S
Gd1176 O1223 2.429 . S
Gd1176 O1224 2.545 . S
Gd1176 O1225 2.412 . S
Gd1176 O1227 2.362 . S
Gd1176 O1228 2.324 . S
Gd1176 C1235 2.828 . S
Gd1177 N1186 2.661 . S
Gd1177 N1190 2.601 . S
Gd1177 O1221 2.362 . S
Gd1177 O1222 2.324 . S
Gd1177 O1226 2.545 . S
Gd1177 O1227 2.606 . S
Gd1177 O1229 2.429 . S
Gd1177 O1230 2.545 . S
Gd1177 O1231 2.412 . S
Gd1177 C1244 2.828 . S
C1178 C1181 1.417 . S
C1178 C1183 1.431 . S
C1178 C1184 1.412 . S
C1179 C1182 1.437 . S
C1179 C1183 1.317 . S
C1179 H1198 0.929 . S
C1180 C1181 1.426 . S
C1180 C1182 1.413 . S
C1180 N1190 1.359 . S
C1181 C1178 1.417 . S
C1181 C1180 1.426 . S
C1181 N1186 1.350 . S
C1182 C1179 1.437 . S
C1182 C1180 1.413 . S
C1182 C1192 1.391 . S
C1183 C1178 1.431 . S
C1183 C1179 1.317 . S
C1183 H1194 0.930 . S
C1184 C1178 1.412 . S
C1184 C1185 1.355 . S
C1184 H1196 0.930 . S
C1185 C1184 1.355 . S
C1185 C1187 1.402 . S
C1185 H1197 0.930 . S
N1186 Gd1177 2.661 . S
N1186 C1181 1.350 . S
N1186 C1187 1.307 . S
C1187 C1185 1.402 . S
C1187 N1186 1.307 . S
C1187 H1188 0.930 . S
H1188 C1187 0.930 . S
C1189 N1190 1.334 . S
C1189 C1191 1.394 . S
C1189 H1193 0.930 . S
N1190 Gd1177 2.601 . S
N1190 C1180 1.359 . S
N1190 C1189 1.334 . S
C1191 C1189 1.394 . S
C1191 C1192 1.359 . S
C1191 H1203 0.930 . S
C1192 C1182 1.391 . S
C1192 C1191 1.359 . S
C1192 H1204 0.929 . S
H1193 C1189 0.930 . S
H1194 C1183 0.930 . S
H1195 C1212 0.930 . S
H1196 C1184 0.930 . S
H1197 C1185 0.930 . S
H1198 C1179 0.929 . S
H1199 C1217 0.930 . S
H1200 C1208 0.930 . S
H1201 C1209 0.930 . S
H1202 C1233 0.929 . S
H1203 C1191 0.930 . S
H1204 C1192 0.929 . S
H1205 C1234 0.930 . S
H1206 C1215 0.930 . S
N1207 Gd1176 2.661 . S
N1207 C1211 1.350 . S
N1207 C1212 1.307 . S
C1208 H1200 0.930 . S
C1208 C1209 1.355 . S
C1208 C1210 1.412 . S
C1209 H1201 0.930 . S
C1209 C1208 1.355 . S
C1209 C1212 1.402 1_655 S
C1210 C1208 1.412 . S
C1210 C1211 1.417 1_655 S
C1210 C1234 1.431 . S
C1211 N1207 1.350 . S
C1211 C1210 1.417 1_455 S
C1211 C1214 1.426 . S
C1212 H1195 0.930 . S
C1212 N1207 1.307 . S
C1212 C1209 1.402 1_455 S
N1213 Gd1176 2.601 . S
N1213 C1214 1.359 . S
N1213 C1217 1.334 . S
C1214 C1211 1.426 . S
C1214 N1213 1.359 . S
C1214 C1218 1.413 1_455 S
C1215 H1206 0.930 . S
C1215 C1216 1.359 1_455 S
C1215 C1217 1.394 . S
C1216 C1215 1.359 1_655 S
C1216 C1218 1.391 . S
C1216 H1219 0.929 . S
C1217 H1199 0.930 . S
C1217 N1213 1.334 . S
C1217 C1215 1.394 . S
C1218 C1214 1.413 1_655 S
C1218 C1216 1.391 . S
C1218 C1233 1.437 . S
H1219 C1216 0.929 . S
O1220 Gd1176 2.545 . S
O1220 C1235 1.258 . S
O1221 Gd1176 2.606 . S
O1221 Gd1177 2.362 . S
O1221 C1232 1.284 . S
O1222 Gd1177 2.324 . S
O1222 C1242 1.254 . S
O1223 Gd1176 2.429 . S
O1223 C1242 1.268 . S
O1224 Gd1176 2.545 . S
O1224 C1232 1.250 . S
O1225 Gd1176 2.412 . S
O1225 C1235 1.252 . S
O1226 Gd1177 2.545 . S
O1226 C1244 1.258 . S
O1227 Gd1176 2.362 . S
O1227 Gd1177 2.606 . S
O1227 C1243 1.284 . S
O1228 Gd1176 2.324 . S
O1228 C1251 1.254 . S
O1229 Gd1177 2.429 . S
O1229 C1251 1.268 . S
O1230 Gd1177 2.545 . S
O1230 C1243 1.250 . S
O1231 Gd1177 2.412 . S
O1231 C1244 1.252 . S
C1232 O1221 1.284 . S
C1232 O1224 1.250 . S
C1233 H1202 0.929 . S
C1233 C1218 1.437 . S
C1233 C1234 1.317 . S
C1234 H1205 0.930 . S
C1234 C1210 1.431 . S
C1234 C1233 1.317 . S
C1235 Gd1176 2.828 . S
C1235 O1220 1.258 . S
C1235 O1225 1.252 . S
C1235 C1236 1.497 . S
C1236 C1235 1.497 . S
C1236 C1237 1.395 . S
C1236 C1238 1.380 . S
C1237 C1236 1.395 . S
C1237 C1240 1.398 . S
C1237 H1252 0.930 . S
C1238 C1236 1.380 . S
C1238 C1239 1.391 . S
C1238 H1253 0.930 . S
C1239 C1238 1.391 . S
C1239 C1241 1.387 . S
C1240 C1237 1.398 . S
C1240 C1241 1.380 . S
C1240 H1254 0.930 . S
C1241 C1239 1.387 . S
C1241 C1240 1.380 . S
C1241 H1255 0.930 . S
C1242 O1222 1.254 . S
C1242 O1223 1.268 . S
C1243 O1227 1.284 . S
C1243 O1230 1.250 . S
C1244 Gd1177 2.828 . S
C1244 O1226 1.258 . S
C1244 O1231 1.252 . S
C1244 C1245 1.497 . S
C1245 C1244 1.497 . S
C1245 C1246 1.395 . S
C1245 C1247 1.380 . S
C1246 C1245 1.395 . S
C1246 C1249 1.398 . S
C1246 H1256 0.930 . S
C1247 C1245 1.380 . S
C1247 C1248 1.391 . S
C1247 H1257 0.930 . S
C1248 C1247 1.391 . S
C1248 C1250 1.387 . S
C1249 C1246 1.398 . S
C1249 C1250 1.380 . S
C1249 H1258 0.930 . S
C1250 C1248 1.387 . S
C1250 C1249 1.380 . S
C1250 H1259 0.930 . S
C1251 O1228 1.254 . S
C1251 O1229 1.268 . S
H1252 C1237 0.930 . S
H1253 C1238 0.930 . S
H1254 C1240 0.930 . S
H1255 C1241 0.930 . S
H1256 C1246 0.930 . S
H1257 C1247 0.930 . S
H1258 C1249 0.930 . S
H1259 C1250 0.930 . S
Gd1260 N1291 2.661 . S
Gd1260 N1297 2.601 . S
Gd1260 O1304 2.545 . S
Gd1260 O1305 2.606 . S
Gd1260 O1307 2.429 . S
Gd1260 O1308 2.545 . S
Gd1260 O1309 2.412 . S
Gd1260 O1311 2.362 . S
Gd1260 O1312 2.324 . S
Gd1260 C1319 2.828 . S
Gd1261 N1270 2.661 . S
Gd1261 N1274 2.601 . S
Gd1261 O1305 2.362 . S
Gd1261 O1306 2.324 . S
Gd1261 O1310 2.545 . S
Gd1261 O1311 2.606 . S
Gd1261 O1313 2.429 . S
Gd1261 O1314 2.545 . S
Gd1261 O1315 2.412 . S
Gd1261 C1328 2.828 . S
C1262 C1265 1.417 . S
C1262 C1267 1.431 . S
C1262 C1268 1.412 . S
C1263 C1266 1.437 . S
C1263 C1267 1.317 . S
C1263 H1282 0.929 . S
C1264 C1265 1.426 . S
C1264 C1266 1.413 . S
C1264 N1274 1.359 . S
C1265 C1262 1.417 . S
C1265 C1264 1.426 . S
C1265 N1270 1.350 . S
C1266 C1263 1.437 . S
C1266 C1264 1.413 . S
C1266 C1276 1.391 . S
C1267 C1262 1.431 . S
C1267 C1263 1.317 . S
C1267 H1278 0.930 . S
C1268 C1262 1.412 . S
C1268 C1269 1.355 . S
C1268 H1280 0.930 . S
C1269 C1268 1.355 . S
C1269 C1271 1.402 . S
C1269 H1281 0.930 . S
N1270 Gd1261 2.661 . S
N1270 C1265 1.350 . S
N1270 C1271 1.307 . S
C1271 C1269 1.402 . S
C1271 N1270 1.307 . S
C1271 H1272 0.930 . S
H1272 C1271 0.930 . S
C1273 N1274 1.334 . S
C1273 C1275 1.394 . S
C1273 H1277 0.930 . S
N1274 Gd1261 2.601 . S
N1274 C1264 1.359 . S
N1274 C1273 1.334 . S
C1275 C1273 1.394 . S
C1275 C1276 1.359 . S
C1275 H1287 0.930 . S
C1276 C1266 1.391 . S
C1276 C1275 1.359 . S
C1276 H1288 0.929 . S
H1277 C1273 0.930 . S
H1278 C1267 0.930 . S
H1279 C1296 0.930 . S
H1280 C1268 0.930 . S
H1281 C1269 0.930 . S
H1282 C1263 0.929 . S
H1283 C1301 0.930 . S
H1284 C1292 0.930 . S
H1285 C1293 0.930 . S
H1286 C1317 0.929 . S
H1287 C1275 0.930 . S
H1288 C1276 0.929 . S
H1289 C1318 0.930 . S
H1290 C1299 0.930 . S
N1291 Gd1260 2.661 . S
N1291 C1295 1.350 . S
N1291 C1296 1.307 . S
C1292 H1284 0.930 . S
C1292 C1293 1.355 . S
C1292 C1294 1.412 . S
C1293 H1285 0.930 . S
C1293 C1292 1.355 . S
C1293 C1296 1.402 . S
C1294 C1292 1.412 . S
C1294 C1295 1.417 . S
C1294 C1318 1.431 . S
C1295 N1291 1.350 . S
C1295 C1294 1.417 . S
C1295 C1298 1.426 . S
C1296 H1279 0.930 . S
C1296 N1291 1.307 . S
C1296 C1293 1.402 . S
N1297 Gd1260 2.601 . S
N1297 C1298 1.359 . S
N1297 C1301 1.334 . S
C1298 C1295 1.426 . S
C1298 N1297 1.359 . S
C1298 C1302 1.413 . S
C1299 H1290 0.930 . S
C1299 C1300 1.359 . S
C1299 C1301 1.394 . S
C1300 C1299 1.359 . S
C1300 C1302 1.391 . S
C1300 H1303 0.929 . S
C1301 H1283 0.930 . S
C1301 N1297 1.334 . S
C1301 C1299 1.394 . S
C1302 C1298 1.413 . S
C1302 C1300 1.391 . S
C1302 C1317 1.437 . S
H1303 C1300 0.929 . S
O1304 Gd1260 2.545 . S
O1304 C1319 1.258 . S
O1305 Gd1260 2.606 . S
O1305 Gd1261 2.362 . S
O1305 C1316 1.284 . S
O1306 Gd1261 2.324 . S
O1306 C1326 1.254 . S
O1307 Gd1260 2.429 . S
O1307 C1326 1.268 . S
O1308 Gd1260 2.545 . S
O1308 C1316 1.250 . S
O1309 Gd1260 2.412 . S
O1309 C1319 1.252 . S
O1310 Gd1261 2.545 . S
O1310 C1328 1.258 . S
O1311 Gd1260 2.362 . S
O1311 Gd1261 2.606 . S
O1311 C1327 1.284 . S
O1312 Gd1260 2.324 . S
O1312 C1335 1.254 . S
O1313 Gd1261 2.429 . S
O1313 C1335 1.268 . S
O1314 Gd1261 2.545 . S
O1314 C1327 1.250 . S
O1315 Gd1261 2.412 . S
O1315 C1328 1.252 . S
C1316 O1305 1.284 . S
C1316 O1308 1.250 . S
C1317 H1286 0.929 . S
C1317 C1302 1.437 . S
C1317 C1318 1.317 . S
C1318 H1289 0.930 . S
C1318 C1294 1.431 . S
C1318 C1317 1.317 . S
C1319 Gd1260 2.828 . S
C1319 O1304 1.258 . S
C1319 O1309 1.252 . S
C1319 C1320 1.497 . S
C1320 C1319 1.497 . S
C1320 C1321 1.395 . S
C1320 C1322 1.380 . S
C1321 C1320 1.395 . S
C1321 C1324 1.398 . S
C1321 H1336 0.930 . S
C1322 C1320 1.380 . S
C1322 C1323 1.391 . S
C1322 H1337 0.930 . S
C1323 C1322 1.391 . S
C1323 C1325 1.387 . S
C1324 C1321 1.398 . S
C1324 C1325 1.380 . S
C1324 H1338 0.930 . S
C1325 C1323 1.387 . S
C1325 C1324 1.380 . S
C1325 H1339 0.930 . S
C1326 O1306 1.254 . S
C1326 O1307 1.268 . S
C1327 O1311 1.284 . S
C1327 O1314 1.250 . S
C1328 Gd1261 2.828 . S
C1328 O1310 1.258 . S
C1328 O1315 1.252 . S
C1328 C1329 1.497 . S
C1329 C1328 1.497 . S
C1329 C1330 1.395 . S
C1329 C1331 1.380 . S
C1330 C1329 1.395 . S
C1330 C1333 1.398 . S
C1330 H1340 0.930 . S
C1331 C1329 1.380 . S
C1331 C1332 1.391 . S
C1331 H1341 0.930 . S
C1332 C1331 1.391 . S
C1332 C1334 1.387 . S
C1333 C1330 1.398 . S
C1333 C1334 1.380 . S
C1333 H1342 0.930 . S
C1334 C1332 1.387 . S
C1334 C1333 1.380 . S
C1334 H1343 0.930 . S
C1335 O1312 1.254 . S
C1335 O1313 1.268 . S
H1336 C1321 0.930 . S
H1337 C1322 0.930 . S
H1338 C1324 0.930 . S
H1339 C1325 0.930 . S
H1340 C1330 0.930 . S
H1341 C1331 0.930 . S
H1342 C1333 0.930 . S
H1343 C1334 0.930 . S
Gd1344 N1375 2.661 . S
Gd1344 N1381 2.601 . S
Gd1344 O1388 2.545 . S
Gd1344 O1389 2.606 . S
Gd1344 O1391 2.429 . S
Gd1344 O1392 2.545 . S
Gd1344 O1393 2.412 . S
Gd1344 O1395 2.362 . S
Gd1344 O1396 2.324 . S
Gd1344 C1403 2.828 . S
Gd1345 N1354 2.661 . S
Gd1345 N1358 2.601 . S
Gd1345 O1389 2.362 . S
Gd1345 O1390 2.324 . S
Gd1345 O1394 2.545 . S
Gd1345 O1395 2.606 . S
Gd1345 O1397 2.429 . S
Gd1345 O1398 2.545 . S
Gd1345 O1399 2.412 . S
Gd1345 C1412 2.828 . S
C1346 C1349 1.417 . S
C1346 C1351 1.431 . S
C1346 C1352 1.412 . S
C1347 C1350 1.437 . S
C1347 C1351 1.317 . S
C1347 H1366 0.929 . S
C1348 C1349 1.426 . S
C1348 C1350 1.413 . S
C1348 N1358 1.359 . S
C1349 C1346 1.417 . S
C1349 C1348 1.426 . S
C1349 N1354 1.350 . S
C1350 C1347 1.437 . S
C1350 C1348 1.413 . S
C1350 C1360 1.391 . S
C1351 C1346 1.431 . S
C1351 C1347 1.317 . S
C1351 H1362 0.930 . S
C1352 C1346 1.412 . S
C1352 C1353 1.355 . S
C1352 H1364 0.930 . S
C1353 C1352 1.355 . S
C1353 C1355 1.402 . S
C1353 H1365 0.930 . S
N1354 Gd1345 2.661 . S
N1354 C1349 1.350 . S
N1354 C1355 1.307 . S
C1355 C1353 1.402 . S
C1355 N1354 1.307 . S
C1355 H1356 0.930 . S
H1356 C1355 0.930 . S
C1357 N1358 1.334 . S
C1357 C1359 1.394 . S
C1357 H1361 0.930 . S
N1358 Gd1345 2.601 . S
N1358 C1348 1.359 . S
N1358 C1357 1.334 . S
C1359 C1357 1.394 . S
C1359 C1360 1.359 . S
C1359 H1371 0.930 . S
C1360 C1350 1.391 . S
C1360 C1359 1.359 . S
C1360 H1372 0.929 . S
H1361 C1357 0.930 . S
H1362 C1351 0.930 . S
H1363 C1380 0.930 . S
H1364 C1352 0.930 . S
H1365 C1353 0.930 . S
H1366 C1347 0.929 . S
H1367 C1385 0.930 . S
H1368 C1376 0.930 . S
H1369 C1377 0.930 . S
H1370 C1401 0.929 . S
H1371 C1359 0.930 . S
H1372 C1360 0.929 . S
H1373 C1402 0.930 . S
H1374 C1383 0.930 . S
N1375 Gd1344 2.661 . S
N1375 C1379 1.350 . S
N1375 C1380 1.307 . S
C1376 H1368 0.930 . S
C1376 C1377 1.355 . S
C1376 C1378 1.412 . S
C1377 H1369 0.930 . S
C1377 C1376 1.355 . S
C1377 C1380 1.402 . S
C1378 C1376 1.412 . S
C1378 C1379 1.417 . S
C1378 C1402 1.431 . S
C1379 N1375 1.350 . S
C1379 C1378 1.417 . S
C1379 C1382 1.426 . S
C1380 H1363 0.930 . S
C1380 N1375 1.307 . S
C1380 C1377 1.402 . S
N1381 Gd1344 2.601 . S
N1381 C1382 1.359 . S
N1381 C1385 1.334 . S
C1382 C1379 1.426 . S
C1382 N1381 1.359 . S
C1382 C1386 1.413 . S
C1383 H1374 0.930 . S
C1383 C1384 1.359 . S
C1383 C1385 1.394 . S
C1384 C1383 1.359 . S
C1384 C1386 1.391 . S
C1384 H1387 0.929 . S
C1385 H1367 0.930 . S
C1385 N1381 1.334 . S
C1385 C1383 1.394 . S
C1386 C1382 1.413 . S
C1386 C1384 1.391 . S
C1386 C1401 1.437 . S
H1387 C1384 0.929 . S
O1388 Gd1344 2.545 . S
O1388 C1403 1.258 . S
O1389 Gd1344 2.606 . S
O1389 Gd1345 2.362 . S
O1389 C1400 1.284 . S
O1390 Gd1345 2.324 . S
O1390 C1410 1.254 . S
O1391 Gd1344 2.429 . S
O1391 C1410 1.268 . S
O1392 Gd1344 2.545 . S
O1392 C1400 1.250 . S
O1393 Gd1344 2.412 . S
O1393 C1403 1.252 . S
O1394 Gd1345 2.545 . S
O1394 C1412 1.258 . S
O1395 Gd1344 2.362 . S
O1395 Gd1345 2.606 . S
O1395 C1411 1.284 . S
O1396 Gd1344 2.324 . S
O1396 C1419 1.254 . S
O1397 Gd1345 2.429 . S
O1397 C1419 1.268 . S
O1398 Gd1345 2.545 . S
O1398 C1411 1.250 . S
O1399 Gd1345 2.412 . S
O1399 C1412 1.252 . S
C1400 O1389 1.284 . S
C1400 O1392 1.250 . S
C1401 H1370 0.929 . S
C1401 C1386 1.437 . S
C1401 C1402 1.317 . S
C1402 H1373 0.930 . S
C1402 C1378 1.431 . S
C1402 C1401 1.317 . S
C1403 Gd1344 2.828 . S
C1403 O1388 1.258 . S
C1403 O1393 1.252 . S
C1403 C1404 1.497 . S
C1404 C1403 1.497 . S
C1404 C1405 1.395 . S
C1404 C1406 1.380 . S
C1405 C1404 1.395 . S
C1405 C1408 1.398 . S
C1405 H1420 0.930 . S
C1406 C1404 1.380 . S
C1406 C1407 1.391 . S
C1406 H1421 0.930 . S
C1407 C1406 1.391 . S
C1407 C1409 1.387 . S
C1408 C1405 1.398 . S
C1408 C1409 1.380 . S
C1408 H1422 0.930 . S
C1409 C1407 1.387 . S
C1409 C1408 1.380 . S
C1409 H1423 0.930 . S
C1410 O1390 1.254 . S
C1410 O1391 1.268 . S
C1411 O1395 1.284 . S
C1411 O1398 1.250 . S
C1412 Gd1345 2.828 . S
C1412 O1394 1.258 . S
C1412 O1399 1.252 . S
C1412 C1413 1.497 . S
C1413 C1412 1.497 . S
C1413 C1414 1.395 . S
C1413 C1415 1.380 . S
C1414 C1413 1.395 . S
C1414 C1417 1.398 . S
C1414 H1424 0.930 . S
C1415 C1413 1.380 . S
C1415 C1416 1.391 . S
C1415 H1425 0.930 . S
C1416 C1415 1.391 . S
C1416 C1418 1.387 . S
C1417 C1414 1.398 . S
C1417 C1418 1.380 . S
C1417 H1426 0.930 . S
C1418 C1416 1.387 . S
C1418 C1417 1.380 . S
C1418 H1427 0.930 . S
C1419 O1396 1.254 . S
C1419 O1397 1.268 . S
H1420 C1405 0.930 . S
H1421 C1406 0.930 . S
H1422 C1408 0.930 . S
H1423 C1409 0.930 . S
H1424 C1414 0.930 . S
H1425 C1415 0.930 . S
H1426 C1417 0.930 . S
H1427 C1418 0.930 . S
Gd1428 N1459 2.661 . S
Gd1428 N1465 2.601 . S
Gd1428 O1472 2.545 . S
Gd1428 O1473 2.606 . S
Gd1428 O1475 2.429 . S
Gd1428 O1476 2.545 . S
Gd1428 O1477 2.412 . S
Gd1428 O1479 2.362 . S
Gd1428 O1480 2.324 . S
Gd1428 C1487 2.828 . S
Gd1429 N1438 2.661 . S
Gd1429 N1442 2.601 . S
Gd1429 O1473 2.362 . S
Gd1429 O1474 2.324 . S
Gd1429 O1478 2.545 . S
Gd1429 O1479 2.606 . S
Gd1429 O1481 2.429 . S
Gd1429 O1482 2.545 . S
Gd1429 O1483 2.412 . S
Gd1429 C1496 2.828 . S
C1430 C1433 1.417 . S
C1430 C1435 1.431 . S
C1430 C1436 1.412 . S
C1431 C1434 1.437 . S
C1431 C1435 1.317 . S
C1431 H1450 0.929 . S
C1432 C1433 1.426 . S
C1432 C1434 1.413 . S
C1432 N1442 1.359 . S
C1433 C1430 1.417 . S
C1433 C1432 1.426 . S
C1433 N1438 1.350 . S
C1434 C1431 1.437 . S
C1434 C1432 1.413 . S
C1434 C1444 1.391 . S
C1435 C1430 1.431 . S
C1435 C1431 1.317 . S
C1435 H1446 0.930 . S
C1436 C1430 1.412 . S
C1436 C1437 1.355 . S
C1436 H1448 0.930 . S
C1437 C1436 1.355 . S
C1437 C1439 1.402 . S
C1437 H1449 0.930 . S
N1438 Gd1429 2.661 . S
N1438 C1433 1.350 . S
N1438 C1439 1.307 . S
C1439 C1437 1.402 . S
C1439 N1438 1.307 . S
C1439 H1440 0.930 . S
H1440 C1439 0.930 . S
C1441 N1442 1.334 . S
C1441 C1443 1.394 . S
C1441 H1445 0.930 . S
N1442 Gd1429 2.601 . S
N1442 C1432 1.359 . S
N1442 C1441 1.334 . S
C1443 C1441 1.394 . S
C1443 C1444 1.359 . S
C1443 H1455 0.930 . S
C1444 C1434 1.391 . S
C1444 C1443 1.359 . S
C1444 H1456 0.929 . S
H1445 C1441 0.930 . S
H1446 C1435 0.930 . S
H1447 C1464 0.930 . S
H1448 C1436 0.930 . S
H1449 C1437 0.930 . S
H1450 C1431 0.929 . S
H1451 C1469 0.930 . S
H1452 C1460 0.930 . S
H1453 C1461 0.930 . S
H1454 C1485 0.929 . S
H1455 C1443 0.930 . S
H1456 C1444 0.929 . S
H1457 C1486 0.930 . S
H1458 C1467 0.930 . S
N1459 Gd1428 2.661 . S
N1459 C1463 1.350 . S
N1459 C1464 1.307 . S
C1460 H1452 0.930 . S
C1460 C1461 1.355 . S
C1460 C1462 1.412 . S
C1461 H1453 0.930 . S
C1461 C1460 1.355 . S
C1461 C1464 1.402 . S
C1462 C1460 1.412 . S
C1462 C1463 1.417 . S
C1462 C1486 1.431 . S
C1463 N1459 1.350 . S
C1463 C1462 1.417 . S
C1463 C1466 1.426 . S
C1464 H1447 0.930 . S
C1464 N1459 1.307 . S
C1464 C1461 1.402 . S
N1465 Gd1428 2.601 . S
N1465 C1466 1.359 . S
N1465 C1469 1.334 . S
C1466 C1463 1.426 . S
C1466 N1465 1.359 . S
C1466 C1470 1.413 . S
C1467 H1458 0.930 . S
C1467 C1468 1.359 . S
C1467 C1469 1.394 . S
C1468 C1467 1.359 . S
C1468 C1470 1.391 . S
C1468 H1471 0.929 . S
C1469 H1451 0.930 . S
C1469 N1465 1.334 . S
C1469 C1467 1.394 . S
C1470 C1466 1.413 . S
C1470 C1468 1.391 . S
C1470 C1485 1.437 . S
H1471 C1468 0.929 . S
O1472 Gd1428 2.545 . S
O1472 C1487 1.258 . S
O1473 Gd1428 2.606 . S
O1473 Gd1429 2.362 . S
O1473 C1484 1.284 . S
O1474 Gd1429 2.324 . S
O1474 C1494 1.254 . S
O1475 Gd1428 2.429 . S
O1475 C1494 1.268 . S
O1476 Gd1428 2.545 . S
O1476 C1484 1.250 . S
O1477 Gd1428 2.412 . S
O1477 C1487 1.252 . S
O1478 Gd1429 2.545 . S
O1478 C1496 1.258 . S
O1479 Gd1428 2.362 . S
O1479 Gd1429 2.606 . S
O1479 C1495 1.284 . S
O1480 Gd1428 2.324 . S
O1480 C1503 1.254 . S
O1481 Gd1429 2.429 . S
O1481 C1503 1.268 . S
O1482 Gd1429 2.545 . S
O1482 C1495 1.250 . S
O1483 Gd1429 2.412 . S
O1483 C1496 1.252 . S
C1484 O1473 1.284 . S
C1484 O1476 1.250 . S
C1485 H1454 0.929 . S
C1485 C1470 1.437 . S
C1485 C1486 1.317 . S
C1486 H1457 0.930 . S
C1486 C1462 1.431 . S
C1486 C1485 1.317 . S
C1487 Gd1428 2.828 . S
C1487 O1472 1.258 . S
C1487 O1477 1.252 . S
C1487 C1488 1.497 . S
C1488 C1487 1.497 . S
C1488 C1489 1.395 . S
C1488 C1490 1.380 . S
C1489 C1488 1.395 . S
C1489 C1492 1.398 . S
C1489 H1504 0.930 . S
C1490 C1488 1.380 . S
C1490 C1491 1.391 . S
C1490 H1505 0.930 . S
C1491 C1490 1.391 . S
C1491 C1493 1.387 . S
C1492 C1489 1.398 . S
C1492 C1493 1.380 . S
C1492 H1506 0.930 . S
C1493 C1491 1.387 . S
C1493 C1492 1.380 . S
C1493 H1507 0.930 . S
C1494 O1474 1.254 . S
C1494 O1475 1.268 . S
C1495 O1479 1.284 . S
C1495 O1482 1.250 . S
C1496 Gd1429 2.828 . S
C1496 O1478 1.258 . S
C1496 O1483 1.252 . S
C1496 C1497 1.497 . S
C1497 C1496 1.497 . S
C1497 C1498 1.395 . S
C1497 C1499 1.380 . S
C1498 C1497 1.395 . S
C1498 C1501 1.398 . S
C1498 H1508 0.930 . S
C1499 C1497 1.380 . S
C1499 C1500 1.391 . S
C1499 H1509 0.930 . S
C1500 C1499 1.391 . S
C1500 C1502 1.387 . S
C1501 C1498 1.398 . S
C1501 C1502 1.380 . S
C1501 H1510 0.930 . S
C1502 C1500 1.387 . S
C1502 C1501 1.380 . S
C1502 H1511 0.930 . S
C1503 O1480 1.254 . S
C1503 O1481 1.268 . S
H1504 C1489 0.930 . S
H1505 C1490 0.930 . S
H1506 C1492 0.930 . S
H1507 C1493 0.930 . S
H1508 C1498 0.930 . S
H1509 C1499 0.930 . S
H1510 C1501 0.930 . S
H1511 C1502 0.930 . S
Gd1512 N1543 2.661 . S
Gd1512 N1549 2.601 . S
Gd1512 O1556 2.545 . S
Gd1512 O1557 2.606 . S
Gd1512 O1559 2.429 . S
Gd1512 O1560 2.545 . S
Gd1512 O1561 2.412 . S
Gd1512 O1563 2.362 . S
Gd1512 O1564 2.324 . S
Gd1512 C1571 2.828 . S
Gd1513 N1522 2.661 . S
Gd1513 N1526 2.601 . S
Gd1513 O1557 2.362 . S
Gd1513 O1558 2.324 . S
Gd1513 O1562 2.545 . S
Gd1513 O1563 2.606 . S
Gd1513 O1565 2.429 . S
Gd1513 O1566 2.545 . S
Gd1513 O1567 2.412 . S
Gd1513 C1580 2.828 . S
C1514 C1517 1.417 . S
C1514 C1519 1.431 . S
C1514 C1520 1.412 . S
C1515 C1518 1.437 . S
C1515 C1519 1.317 . S
C1515 H1534 0.929 . S
C1516 C1517 1.426 . S
C1516 C1518 1.413 . S
C1516 N1526 1.359 . S
C1517 C1514 1.417 . S
C1517 C1516 1.426 . S
C1517 N1522 1.350 . S
C1518 C1515 1.437 . S
C1518 C1516 1.413 . S
C1518 C1528 1.391 . S
C1519 C1514 1.431 . S
C1519 C1515 1.317 . S
C1519 H1530 0.930 . S
C1520 C1514 1.412 . S
C1520 C1521 1.355 . S
C1520 H1532 0.930 . S
C1521 C1520 1.355 . S
C1521 C1523 1.402 . S
C1521 H1533 0.930 . S
N1522 Gd1513 2.661 . S
N1522 C1517 1.350 . S
N1522 C1523 1.307 . S
C1523 C1521 1.402 . S
C1523 N1522 1.307 . S
C1523 H1524 0.930 . S
H1524 C1523 0.930 . S
C1525 N1526 1.334 . S
C1525 C1527 1.394 . S
C1525 H1529 0.930 . S
N1526 Gd1513 2.601 . S
N1526 C1516 1.359 . S
N1526 C1525 1.334 . S
C1527 C1525 1.394 . S
C1527 C1528 1.359 . S
C1527 H1539 0.930 . S
C1528 C1518 1.391 . S
C1528 C1527 1.359 . S
C1528 H1540 0.929 . S
H1529 C1525 0.930 . S
H1530 C1519 0.930 . S
H1531 C1548 0.930 . S
H1532 C1520 0.930 . S
H1533 C1521 0.930 . S
H1534 C1515 0.929 . S
H1535 C1553 0.930 . S
H1536 C1544 0.930 . S
H1537 C1545 0.930 . S
H1538 C1569 0.929 . S
H1539 C1527 0.930 . S
H1540 C1528 0.929 . S
H1541 C1570 0.930 . S
H1542 C1551 0.930 . S
N1543 Gd1512 2.661 . S
N1543 C1547 1.350 . S
N1543 C1548 1.307 . S
C1544 H1536 0.930 . S
C1544 C1545 1.355 . S
C1544 C1546 1.412 . S
C1545 H1537 0.930 . S
C1545 C1544 1.355 . S
C1545 C1548 1.402 . S
C1546 C1544 1.412 . S
C1546 C1547 1.417 . S
C1546 C1570 1.431 . S
C1547 N1543 1.350 . S
C1547 C1546 1.417 . S
C1547 C1550 1.426 . S
C1548 H1531 0.930 . S
C1548 N1543 1.307 . S
C1548 C1545 1.402 . S
N1549 Gd1512 2.601 . S
N1549 C1550 1.359 . S
N1549 C1553 1.334 . S
C1550 C1547 1.426 . S
C1550 N1549 1.359 . S
C1550 C1554 1.413 . S
C1551 H1542 0.930 . S
C1551 C1552 1.359 . S
C1551 C1553 1.394 . S
C1552 C1551 1.359 . S
C1552 C1554 1.391 . S
C1552 H1555 0.929 . S
C1553 H1535 0.930 . S
C1553 N1549 1.334 . S
C1553 C1551 1.394 . S
C1554 C1550 1.413 . S
C1554 C1552 1.391 . S
C1554 C1569 1.437 . S
H1555 C1552 0.929 . S
O1556 Gd1512 2.545 . S
O1556 C1571 1.258 . S
O1557 Gd1512 2.606 . S
O1557 Gd1513 2.362 . S
O1557 C1568 1.284 . S
O1558 Gd1513 2.324 . S
O1558 C1578 1.254 . S
O1559 Gd1512 2.429 . S
O1559 C1578 1.268 . S
O1560 Gd1512 2.545 . S
O1560 C1568 1.250 . S
O1561 Gd1512 2.412 . S
O1561 C1571 1.252 . S
O1562 Gd1513 2.545 . S
O1562 C1580 1.258 . S
O1563 Gd1512 2.362 . S
O1563 Gd1513 2.606 . S
O1563 C1579 1.284 . S
O1564 Gd1512 2.324 . S
O1564 C1587 1.254 . S
O1565 Gd1513 2.429 . S
O1565 C1587 1.268 . S
O1566 Gd1513 2.545 . S
O1566 C1579 1.250 . S
O1567 Gd1513 2.412 . S
O1567 C1580 1.252 . S
C1568 O1557 1.284 . S
C1568 O1560 1.250 . S
C1569 H1538 0.929 . S
C1569 C1554 1.437 . S
C1569 C1570 1.317 . S
C1570 H1541 0.930 . S
C1570 C1546 1.431 . S
C1570 C1569 1.317 . S
C1571 Gd1512 2.828 . S
C1571 O1556 1.258 . S
C1571 O1561 1.252 . S
C1571 C1572 1.497 . S
C1572 C1571 1.497 . S
C1572 C1573 1.395 . S
C1572 C1574 1.380 . S
C1573 C1572 1.395 . S
C1573 C1576 1.398 . S
C1573 H1588 0.930 . S
C1574 C1572 1.380 . S
C1574 C1575 1.391 . S
C1574 H1589 0.930 . S
C1575 C1574 1.391 . S
C1575 C1577 1.387 . S
C1576 C1573 1.398 . S
C1576 C1577 1.380 . S
C1576 H1590 0.930 . S
C1577 C1575 1.387 . S
C1577 C1576 1.380 . S
C1577 H1591 0.930 . S
C1578 O1558 1.254 . S
C1578 O1559 1.268 . S
C1579 O1563 1.284 . S
C1579 O1566 1.250 . S
C1580 Gd1513 2.828 . S
C1580 O1562 1.258 . S
C1580 O1567 1.252 . S
C1580 C1581 1.497 . S
C1581 C1580 1.497 . S
C1581 C1582 1.395 . S
C1581 C1583 1.380 . S
C1582 C1581 1.395 . S
C1582 C1585 1.398 . S
C1582 H1592 0.930 . S
C1583 C1581 1.380 . S
C1583 C1584 1.391 . S
C1583 H1593 0.930 . S
C1584 C1583 1.391 . S
C1584 C1586 1.387 . S
C1585 C1582 1.398 . S
C1585 C1586 1.380 . S
C1585 H1594 0.930 . S
C1586 C1584 1.387 . S
C1586 C1585 1.380 . S
C1586 H1595 0.930 . S
C1587 O1564 1.254 . S
C1587 O1565 1.268 . S
H1588 C1573 0.930 . S
H1589 C1574 0.930 . S
H1590 C1576 0.930 . S
H1591 C1577 0.930 . S
H1592 C1582 0.930 . S
H1593 C1583 0.930 . S
H1594 C1585 0.930 . S
H1595 C1586 0.930 . S
Gd1596 N1627 2.661 . S
Gd1596 N1633 2.601 . S
Gd1596 O1640 2.545 . S
Gd1596 O1641 2.606 . S
Gd1596 O1643 2.429 . S
Gd1596 O1644 2.545 . S
Gd1596 O1645 2.412 1_455 S
Gd1596 O1647 2.362 . S
Gd1596 O1648 2.265 1_554 S
Gd1596 C1655 2.828 1_455 S
Gd1597 N1606 2.661 . S
Gd1597 N1610 2.601 1_554 S
Gd1597 O1641 2.362 . S
Gd1597 O1642 2.324 . S
Gd1597 O1646 2.545 1_554 S
Gd1597 O1647 2.606 . S
Gd1597 O1649 2.429 1_554 S
Gd1597 O1650 2.545 . S
Gd1597 O1651 2.412 . S
Gd1597 C1664 2.819 1_554 S
C1598 C1601 1.417 . S
C1598 C1603 1.431 . S
C1598 C1604 1.412 . S
C1599 C1602 1.437 . S
C1599 C1603 1.317 1_556 S
C1599 H1618 0.929 . S
C1600 C1601 1.426 1_556 S
C1600 C1602 1.413 . S
C1600 N1610 1.359 . S
C1601 C1598 1.417 . S
C1601 C1600 1.426 1_554 S
C1601 N1606 1.350 . S
C1602 C1599 1.437 . S
C1602 C1600 1.413 . S
C1602 C1612 1.391 . S
C1603 C1598 1.431 . S
C1603 C1599 1.317 1_554 S
C1603 H1614 0.930 . S
C1604 C1598 1.412 . S
C1604 C1605 1.355 . S
C1604 H1616 0.930 . S
C1605 C1604 1.355 . S
C1605 C1607 1.402 . S
C1605 H1617 0.930 . S
N1606 Gd1597 2.661 . S
N1606 C1601 1.350 . S
N1606 C1607 1.307 . S
C1607 C1605 1.402 . S
C1607 N1606 1.307 . S
C1607 H1608 0.930 . S
H1608 C1607 0.930 . S
C1609 N1610 1.334 . S
C1609 C1611 1.394 . S
C1609 H1613 0.930 . S
N1610 Gd1597 2.601 1_556 S
N1610 C1600 1.359 . S
N1610 C1609 1.334 . S
C1611 C1609 1.394 . S
C1611 C1612 1.359 . S
C1611 H1623 0.930 . S
C1612 C1602 1.391 . S
C1612 C1611 1.359 . S
C1612 H1624 0.929 . S
H1613 C1609 0.930 . S
H1614 C1603 0.930 . S
H1615 C1632 0.932 . S
H1616 C1604 0.930 . S
H1617 C1605 0.930 . S
H1618 C1599 0.929 . S
H1619 C1637 0.930 . S
H1620 C1628 0.930 . S
H1621 C1629 0.930 . S
H1622 C1653 0.929 . S
H1623 C1611 0.930 . S
H1624 C1612 0.929 . S
H1625 C1654 0.930 . S
H1626 C1635 0.930 . S
N1627 Gd1596 2.661 . S
N1627 C1631 1.350 1_455 S
N1627 C1632 1.307 1_554 S
C1628 H1620 0.930 . S
C1628 C1629 1.355 . S
C1628 C1630 1.412 1_556 S
C1629 H1621 0.930 . S
C1629 C1628 1.355 . S
C1629 C1632 1.400 1_655 S
C1630 C1628 1.412 1_554 S
C1630 C1631 1.417 . S
C1630 C1654 1.431 . S
C1631 N1627 1.350 1_655 S
C1631 C1630 1.417 . S
C1631 C1634 1.426 . S
C1632 H1615 0.932 . S
C1632 N1627 1.307 1_556 S
C1632 C1629 1.400 1_455 S
N1633 Gd1596 2.601 . S
N1633 C1634 1.359 1_455 S
N1633 C1637 1.334 . S
C1634 C1631 1.426 . S
C1634 N1633 1.359 1_655 S
C1634 C1638 1.413 . S
C1635 H1626 0.930 . S
C1635 C1636 1.359 1_455 S
C1635 C1637 1.394 . S
C1636 C1635 1.359 1_655 S
C1636 C1638 1.391 . S
C1636 H1639 0.929 . S
C1637 H1619 0.930 . S
C1637 N1633 1.334 . S
C1637 C1635 1.394 . S
C1638 C1634 1.413 . S
C1638 C1636 1.391 . S
C1638 C1653 1.437 . S
H1639 C1636 0.929 . S
O1640 Gd1596 2.545 . S
O1640 C1655 1.258 1_455 S
O1641 Gd1596 2.606 . S
O1641 Gd1597 2.362 . S
O1641 C1652 1.284 . S
O1642 Gd1597 2.324 . S
O1642 C1662 1.254 . S
O1643 Gd1596 2.429 . S
O1643 C1662 1.268 . S
O1644 Gd1596 2.545 . S
O1644 C1652 1.250 . S
O1645 Gd1596 2.412 1_655 S
O1645 C1655 1.252 . S
O1646 Gd1597 2.545 1_556 S
O1646 C1664 1.291 . S
O1647 Gd1596 2.362 . S
O1647 Gd1597 2.606 . S
O1647 C1663 1.284 . S
O1648 Gd1596 2.265 1_556 S
O1648 C1671 1.302 . S
O1649 Gd1597 2.429 1_556 S
O1649 C1671 1.268 . S
O1650 Gd1597 2.545 . S
O1650 C1663 1.250 . S
O1651 Gd1597 2.412 . S
O1651 C1664 1.212 1_554 S
C1652 O1641 1.284 . S
C1652 O1644 1.250 . S
C1653 H1622 0.929 . S
C1653 C1638 1.437 . S
C1653 C1654 1.317 . S
C1654 H1625 0.930 . S
C1654 C1630 1.431 . S
C1654 C1653 1.317 . S
C1655 Gd1596 2.828 1_655 S
C1655 O1640 1.258 1_655 S
C1655 O1645 1.252 . S
C1655 C1656 1.497 . S
C1656 C1655 1.497 . S
C1656 C1657 1.395 . S
C1656 C1658 1.380 . S
C1657 C1656 1.395 . S
C1657 C1660 1.398 . S
C1657 H1672 0.930 . S
C1658 C1656 1.380 . S
C1658 C1659 1.391 . S
C1658 H1673 0.930 . S
C1659 C1658 1.391 . S
C1659 C1661 1.387 . S
C1660 C1657 1.398 . S
C1660 C1661 1.380 . S
C1660 H1674 0.930 . S
C1661 C1659 1.387 . S
C1661 C1660 1.380 . S
C1661 H1675 0.930 . S
C1662 O1642 1.254 . S
C1662 O1643 1.268 . S
C1663 O1647 1.284 . S
C1663 O1650 1.250 . S
C1664 Gd1597 2.819 1_556 S
C1664 O1646 1.291 . S
C1664 O1651 1.212 1_556 S
C1664 C1665 1.504 . S
C1665 C1664 1.504 . S
C1665 C1666 1.395 . S
C1665 C1667 1.380 1_556 S
C1666 C1665 1.395 . S
C1666 C1669 1.398 . S
C1666 H1676 0.930 . S
C1667 C1665 1.380 1_554 S
C1667 C1668 1.391 . S
C1667 H1677 0.930 . S
C1668 C1667 1.391 . S
C1668 C1670 1.387 1_554 S
C1669 C1666 1.398 . S
C1669 C1670 1.380 . S
C1669 H1678 0.930 . S
C1670 C1668 1.387 1_556 S
C1670 C1669 1.380 . S
C1670 H1679 0.930 . S
C1671 O1648 1.302 . S
C1671 O1649 1.268 . S
H1672 C1657 0.930 . S
H1673 C1658 0.930 . S
H1674 C1660 0.930 . S
H1675 C1661 0.930 . S
H1676 C1666 0.930 . S
H1677 C1667 0.930 . S
H1678 C1669 0.930 . S
H1679 C1670 0.930 . S
H1680 C1698 0.951 . S
H1681 C1700 0.951 . S
H1682 C1702 0.950 . S
H1683 C1703 0.950 . S
H1684 C1705 0.950 . S
H1685 C1708 0.950 . S
H1686 C1709 0.950 . S
H1687 C1711 0.950 . S
H1688 C1712 0.950 . S
H1689 C1713 0.951 . S
H1690 C1715 0.951 . S
H1691 C1717 0.950 . S
H1692 C1718 0.950 . S
H1693 C1720 0.950 . S
H1694 C1723 0.950 . S
H1695 C1724 0.950 . S
H1696 C1726 0.950 . S
H1697 C1727 0.950 . S
C1698 H1680 0.951 . S
C1698 C1699 1.366 . S
C1698 C1700 1.388 . S
C1699 C1698 1.366 . S
C1699 C1703 1.385 . S
C1700 H1681 0.951 . S
C1700 C1698 1.388 . S
C1700 C1701 1.366 . S
C1701 C1700 1.366 . S
C1701 C1702 1.414 . S
C1701 C1704 1.499 . S
C1702 H1682 0.950 . S
C1702 C1701 1.414 . S
C1702 C1703 1.374 . S
C1703 H1683 0.950 . S
C1703 C1699 1.385 . S
C1703 C1702 1.374 . S
C1704 C1701 1.499 . S
C1704 C1705 1.373 . S
C1704 C1706 1.389 . S
C1705 H1684 0.950 . S
C1705 C1704 1.373 . S
C1705 C1721 1.377 . S
C1706 C1704 1.389 . S
C1706 C1707 1.524 1_455 S
C1706 C1720 1.377 . S
C1707 C1706 1.524 1_655 S
C1707 C1708 1.397 . S
C1707 C1712 1.363 . S
C1708 H1685 0.950 . S
C1708 C1707 1.397 . S
C1708 C1709 1.334 . S
C1709 H1686 0.950 . S
C1709 C1708 1.334 . S
C1709 C1710 1.287 . S
C1710 C1709 1.287 . S
C1710 C1711 1.524 . S
C1710 H1729 0.913 . S
C1711 H1687 0.950 . S
C1711 C1710 1.524 . S
C1711 C1712 1.415 . S
C1712 H1688 0.950 . S
C1712 C1707 1.363 . S
C1712 C1711 1.415 . S
C1713 H1689 0.951 . S
C1713 C1714 1.366 . S
C1713 C1715 1.388 . S
C1714 C1713 1.366 . S
C1714 C1718 1.385 1_554 S
C1715 H1690 0.951 . S
C1715 C1713 1.388 . S
C1715 C1716 1.367 . S
C1716 C1715 1.367 . S
C1716 C1717 1.413 1_554 S
C1716 C1719 1.498 1_554 S
C1717 H1691 0.950 . S
C1717 C1716 1.413 1_556 S
C1717 C1718 1.374 . S
C1718 H1692 0.950 . S
C1718 C1714 1.385 1_556 S
C1718 C1717 1.374 . S
C1719 C1716 1.498 1_556 S
C1719 C1720 1.373 . S
C1719 C1721 1.389 . S
C1720 H1693 0.950 . S
C1720 C1706 1.377 . S
C1720 C1719 1.373 . S
C1721 C1705 1.377 . S
C1721 C1719 1.389 . S
C1721 C1722 1.524 . S
C1722 C1721 1.524 . S
C1722 C1723 1.397 . S
C1722 C1727 1.363 1_556 S
C1723 H1694 0.950 . S
C1723 C1722 1.397 . S
C1723 C1724 1.334 . S
C1724 H1695 0.950 . S
C1724 C1723 1.334 . S
C1724 C1725 1.287 1_556 S
C1725 C1724 1.287 1_554 S
C1725 C1726 1.524 . S
C1725 H1728 0.999 . S
C1726 H1696 0.950 . S
C1726 C1725 1.524 . S
C1726 C1727 1.415 . S
C1727 H1697 0.950 . S
C1727 C1722 1.363 1_554 S
C1727 C1726 1.415 . S
H1728 C1725 0.999 . S
H1729 C1710 0.913 . S
H1730 C1748 0.951 . S
H1731 C1750 0.951 . S
H1732 C1752 0.950 . S
H1733 C1753 0.950 . S
H1734 C1755 0.950 . S
H1735 C1758 0.950 . S
H1736 C1759 0.950 . S
H1737 C1761 0.950 . S
H1738 C1762 0.950 . S
H1739 C1763 0.951 . S
H1740 C1765 0.951 . S
H1741 C1767 0.950 . S
H1742 C1768 0.950 . S
H1743 C1770 0.950 . S
H1744 C1773 0.950 . S
H1745 C1774 0.950 . S
H1746 C1776 0.950 . S
H1747 C1777 0.950 . S
C1748 H1730 0.951 . S
C1748 C1749 1.366 . S
C1748 C1750 1.388 . S
C1749 C1748 1.366 . S
C1749 C1753 1.385 . S
C1750 H1731 0.951 . S
C1750 C1748 1.388 . S
C1750 C1751 1.366 . S
C1751 C1750 1.366 . S
C1751 C1752 1.414 . S
C1751 C1754 1.499 . S
C1752 H1732 0.950 . S
C1752 C1751 1.414 . S
C1752 C1753 1.374 . S
C1753 H1733 0.950 . S
C1753 C1749 1.385 . S
C1753 C1752 1.374 . S
C1754 C1751 1.499 . S
C1754 C1755 1.373 . S
C1754 C1756 1.389 . S
C1755 H1734 0.950 . S
C1755 C1754 1.373 . S
C1755 C1771 1.377 . S
C1756 C1754 1.389 . S
C1756 C1757 1.524 . S
C1756 C1770 1.377 . S
C1757 C1756 1.524 . S
C1757 C1758 1.397 . S
C1757 C1762 1.363 . S
C1758 H1735 0.950 . S
C1758 C1757 1.397 . S
C1758 C1759 1.334 . S
C1759 H1736 0.950 . S
C1759 C1758 1.334 . S
C1759 C1760 1.287 . S
C1760 C1759 1.287 . S
C1760 C1761 1.524 . S
C1760 H1779 0.913 . S
C1761 H1737 0.950 . S
C1761 C1760 1.524 . S
C1761 C1762 1.415 . S
C1762 H1738 0.950 . S
C1762 C1757 1.363 . S
C1762 C1761 1.415 . S
C1763 H1739 0.951 . S
C1763 C1764 1.366 . S
C1763 C1765 1.388 . S
C1764 C1763 1.366 . S
C1764 C1768 1.385 . S
C1765 H1740 0.951 . S
C1765 C1763 1.388 . S
C1765 C1766 1.366 . S
C1766 C1765 1.366 . S
C1766 C1767 1.414 . S
C1766 C1769 1.499 . S
C1767 H1741 0.950 . S
C1767 C1766 1.414 . S
C1767 C1768 1.374 . S
C1768 H1742 0.950 . S
C1768 C1764 1.385 . S
C1768 C1767 1.374 . S
C1769 C1766 1.499 . S
C1769 C1770 1.373 . S
C1769 C1771 1.389 . S
C1770 H1743 0.950 . S
C1770 C1756 1.377 . S
C1770 C1769 1.373 . S
C1771 C1755 1.377 . S
C1771 C1769 1.389 . S
C1771 C1772 1.524 . S
C1772 C1771 1.524 . S
C1772 C1773 1.397 . S
C1772 C1777 1.363 . S
C1773 H1744 0.950 . S
C1773 C1772 1.397 . S
C1773 C1774 1.334 . S
C1774 H1745 0.950 . S
C1774 C1773 1.334 . S
C1774 C1775 1.287 . S
C1775 C1774 1.287 . S
C1775 C1776 1.524 . S
C1775 H1778 0.999 . S
C1776 H1746 0.950 . S
C1776 C1775 1.524 . S
C1776 C1777 1.415 . S
C1777 H1747 0.950 . S
C1777 C1772 1.363 . S
C1777 C1776 1.415 . S
H1778 C1775 0.999 . S
H1779 C1760 0.913 . S
H1780 C1798 0.951 . S
H1781 C1800 0.951 . S
H1782 C1802 0.950 . S
H1783 C1803 0.950 . S
H1784 C1805 0.950 . S
H1785 C1808 0.950 . S
H1786 C1809 0.950 . S
H1787 C1811 0.950 . S
H1788 C1812 0.950 . S
H1789 C1813 0.951 . S
H1790 C1815 0.951 . S
H1791 C1817 0.950 . S
H1792 C1818 0.950 . S
H1793 C1820 0.950 . S
H1794 C1823 0.950 . S
H1795 C1824 0.950 . S
H1796 C1826 0.950 . S
H1797 C1827 0.950 . S
C1798 H1780 0.951 . S
C1798 C1799 1.366 . S
C1798 C1800 1.388 . S
C1799 C1798 1.366 . S
C1799 C1803 1.385 . S
C1800 H1781 0.951 . S
C1800 C1798 1.388 . S
C1800 C1801 1.366 . S
C1801 C1800 1.366 . S
C1801 C1802 1.414 . S
C1801 C1804 1.499 . S
C1802 H1782 0.950 . S
C1802 C1801 1.414 . S
C1802 C1803 1.374 . S
C1803 H1783 0.950 . S
C1803 C1799 1.385 . S
C1803 C1802 1.374 . S
C1804 C1801 1.499 . S
C1804 C1805 1.373 . S
C1804 C1806 1.389 . S
C1805 H1784 0.950 . S
C1805 C1804 1.373 . S
C1805 C1821 1.377 . S
C1806 C1804 1.389 . S
C1806 C1807 1.524 . S
C1806 C1820 1.377 . S
C1807 C1806 1.524 . S
C1807 C1808 1.397 . S
C1807 C1812 1.363 . S
C1808 H1785 0.950 . S
C1808 C1807 1.397 . S
C1808 C1809 1.334 . S
C1809 H1786 0.950 . S
C1809 C1808 1.334 . S
C1809 C1810 1.287 . S
C1810 C1809 1.287 . S
C1810 C1811 1.524 . S
C1810 H1829 0.913 . S
C1811 H1787 0.950 . S
C1811 C1810 1.524 . S
C1811 C1812 1.415 . S
C1812 H1788 0.950 . S
C1812 C1807 1.363 . S
C1812 C1811 1.415 . S
C1813 H1789 0.951 . S
C1813 C1814 1.366 . S
C1813 C1815 1.388 . S
C1814 C1813 1.366 . S
C1814 C1818 1.385 . S
C1815 H1790 0.951 . S
C1815 C1813 1.388 . S
C1815 C1816 1.366 . S
C1816 C1815 1.366 . S
C1816 C1817 1.414 . S
C1816 C1819 1.499 . S
C1817 H1791 0.950 . S
C1817 C1816 1.414 . S
C1817 C1818 1.374 . S
C1818 H1792 0.950 . S
C1818 C1814 1.385 . S
C1818 C1817 1.374 . S
C1819 C1816 1.499 . S
C1819 C1820 1.373 . S
C1819 C1821 1.389 . S
C1820 H1793 0.950 . S
C1820 C1806 1.377 . S
C1820 C1819 1.373 . S
C1821 C1805 1.377 . S
C1821 C1819 1.389 . S
C1821 C1822 1.524 . S
C1822 C1821 1.524 . S
C1822 C1823 1.397 . S
C1822 C1827 1.363 . S
C1823 H1794 0.950 . S
C1823 C1822 1.397 . S
C1823 C1824 1.334 . S
C1824 H1795 0.950 . S
C1824 C1823 1.334 . S
C1824 C1825 1.287 . S
C1825 C1824 1.287 . S
C1825 C1826 1.524 . S
C1825 H1828 0.999 . S
C1826 H1796 0.950 . S
C1826 C1825 1.524 . S
C1826 C1827 1.415 . S
C1827 H1797 0.950 . S
C1827 C1822 1.363 . S
C1827 C1826 1.415 . S
H1828 C1825 0.999 . S
H1829 C1810 0.913 . S
H1830 C1848 0.951 . S
H1831 C1850 0.951 . S
H1832 C1852 0.950 . S
H1833 C1853 0.950 . S
H1834 C1855 0.950 . S
H1835 C1858 0.950 . S
H1836 C1859 0.950 . S
H1837 C1861 0.950 . S
H1838 C1862 0.950 . S
H1839 C1863 0.951 . S
H1840 C1865 0.951 . S
H1841 C1867 0.950 . S
H1842 C1868 0.950 . S
H1843 C1870 0.950 . S
H1844 C1873 0.950 . S
H1845 C1874 0.950 . S
H1846 C1876 0.950 . S
H1847 C1877 0.950 . S
C1848 H1830 0.951 . S
C1848 C1849 1.366 . S
C1848 C1850 1.388 . S
C1849 C1848 1.366 . S
C1849 C1853 1.385 . S
C1850 H1831 0.951 . S
C1850 C1848 1.388 . S
C1850 C1851 1.366 . S
C1851 C1850 1.366 . S
C1851 C1852 1.414 . S
C1851 C1854 1.499 . S
C1852 H1832 0.950 . S
C1852 C1851 1.414 . S
C1852 C1853 1.374 . S
C1853 H1833 0.950 . S
C1853 C1849 1.385 . S
C1853 C1852 1.374 . S
C1854 C1851 1.499 . S
C1854 C1855 1.373 . S
C1854 C1856 1.389 . S
C1855 H1834 0.950 . S
C1855 C1854 1.373 . S
C1855 C1871 1.377 . S
C1856 C1854 1.389 . S
C1856 C1857 1.524 . S
C1856 C1870 1.377 . S
C1857 C1856 1.524 . S
C1857 C1858 1.397 . S
C1857 C1862 1.363 . S
C1858 H1835 0.950 . S
C1858 C1857 1.397 . S
C1858 C1859 1.334 . S
C1859 H1836 0.950 . S
C1859 C1858 1.334 . S
C1859 C1860 1.287 . S
C1860 C1859 1.287 . S
C1860 C1861 1.524 . S
C1860 H1879 0.913 . S
C1861 H1837 0.950 . S
C1861 C1860 1.524 . S
C1861 C1862 1.415 . S
C1862 H1838 0.950 . S
C1862 C1857 1.363 . S
C1862 C1861 1.415 . S
C1863 H1839 0.951 . S
C1863 C1864 1.366 . S
C1863 C1865 1.388 . S
C1864 C1863 1.366 . S
C1864 C1868 1.385 . S
C1865 H1840 0.951 . S
C1865 C1863 1.388 . S
C1865 C1866 1.366 . S
C1866 C1865 1.366 . S
C1866 C1867 1.414 . S
C1866 C1869 1.499 . S
C1867 H1841 0.950 . S
C1867 C1866 1.414 . S
C1867 C1868 1.374 . S
C1868 H1842 0.950 . S
C1868 C1864 1.385 . S
C1868 C1867 1.374 . S
C1869 C1866 1.499 . S
C1869 C1870 1.373 . S
C1869 C1871 1.389 . S
C1870 H1843 0.950 . S
C1870 C1856 1.377 . S
C1870 C1869 1.373 . S
C1871 C1855 1.377 . S
C1871 C1869 1.389 . S
C1871 C1872 1.524 . S
C1872 C1871 1.524 . S
C1872 C1873 1.397 . S
C1872 C1877 1.363 . S
C1873 H1844 0.950 . S
C1873 C1872 1.397 . S
C1873 C1874 1.334 . S
C1874 H1845 0.950 . S
C1874 C1873 1.334 . S
C1874 C1875 1.287 . S
C1875 C1874 1.287 . S
C1875 C1876 1.524 . S
C1875 H1878 0.999 . S
C1876 H1846 0.950 . S
C1876 C1875 1.524 . S
C1876 C1877 1.415 . S
C1877 H1847 0.950 . S
C1877 C1872 1.363 . S
C1877 C1876 1.415 . S
H1878 C1875 0.999 . S
H1879 C1860 0.913 . S
H1880 C1898 0.951 . S
H1881 C1900 0.951 1_655 S
H1882 C1902 0.950 . S
H1883 C1903 0.950 . S
H1884 C1905 0.950 . S
H1885 C1908 0.950 . S
H1886 C1909 0.950 . S
H1887 C1911 0.950 1_655 S
H1888 C1912 0.950 1_655 S
H1889 C1913 0.951 . S
H1890 C1915 0.951 . S
H1891 C1917 0.950 . S
H1892 C1918 0.950 . S
H1893 C1920 0.950 . S
H1894 C1923 0.950 . S
H1895 C1924 0.950 . S
H1896 C1926 0.950 . S
H1897 C1927 0.950 . S
C1898 H1880 0.951 . S
C1898 C1899 1.366 1_655 S
C1898 C1900 1.388 1_655 S
C1899 C1898 1.366 1_455 S
C1899 C1903 1.385 . S
C1900 H1881 0.951 1_455 S
C1900 C1898 1.388 1_455 S
C1900 C1901 1.366 . S
C1901 C1900 1.366 . S
C1901 C1902 1.414 . S
C1901 C1904 1.499 . S
C1902 H1882 0.950 . S
C1902 C1901 1.414 . S
C1902 C1903 1.374 . S
C1903 H1883 0.950 . S
C1903 C1899 1.385 . S
C1903 C1902 1.374 . S
C1904 C1901 1.499 . S
C1904 C1905 1.373 . S
C1904 C1906 1.389 . S
C1905 H1884 0.950 . S
C1905 C1904 1.373 . S
C1905 C1921 1.377 . S
C1906 C1904 1.389 . S
C1906 C1907 1.524 . S
C1906 C1920 1.377 . S
C1907 C1906 1.524 . S
C1907 C1908 1.397 . S
C1907 C1912 1.363 . S
C1908 H1885 0.950 . S
C1908 C1907 1.397 . S
C1908 C1909 1.334 . S
C1909 H1886 0.950 . S
C1909 C1908 1.334 . S
C1909 C1910 1.287 . S
C1910 C1909 1.287 . S
C1910 C1911 1.524 . S
C1910 H1929 0.913 . S
C1911 H1887 0.950 1_455 S
C1911 C1910 1.524 . S
C1911 C1912 1.415 . S
C1912 H1888 0.950 1_455 S
C1912 C1907 1.363 . S
C1912 C1911 1.415 . S
C1913 H1889 0.951 . S
C1913 C1914 1.366 . S
C1913 C1915 1.388 . S
C1914 C1913 1.366 . S
C1914 C1918 1.385 . S
C1915 H1890 0.951 . S
C1915 C1913 1.388 . S
C1915 C1916 1.366 . S
C1916 C1915 1.366 . S
C1916 C1917 1.414 . S
C1916 C1919 1.499 . S
C1917 H1891 0.950 . S
C1917 C1916 1.414 . S
C1917 C1918 1.374 . S
C1918 H1892 0.950 . S
C1918 C1914 1.385 . S
C1918 C1917 1.374 . S
C1919 C1916 1.499 . S
C1919 C1920 1.373 . S
C1919 C1921 1.389 . S
C1920 H1893 0.950 . S
C1920 C1906 1.377 . S
C1920 C1919 1.373 . S
C1921 C1905 1.377 . S
C1921 C1919 1.389 . S
C1921 C1922 1.524 . S
C1922 C1921 1.524 . S
C1922 C1923 1.397 . S
C1922 C1927 1.363 . S
C1923 H1894 0.950 . S
C1923 C1922 1.397 . S
C1923 C1924 1.334 . S
C1924 H1895 0.950 . S
C1924 C1923 1.334 . S
C1924 C1925 1.287 . S
C1925 C1924 1.287 . S
C1925 C1926 1.524 . S
C1925 H1928 0.999 . S
C1926 H1896 0.950 . S
C1926 C1925 1.524 . S
C1926 C1927 1.415 . S
C1927 H1897 0.950 . S
C1927 C1922 1.363 . S
C1927 C1926 1.415 . S
H1928 C1925 0.999 . S
H1929 C1910 0.913 . S
H1930 C1948 0.951 . S
H1931 C1950 0.951 . S
H1932 C1952 0.950 . S
H1933 C1953 0.950 . S
H1934 C1955 0.950 . S
H1935 C1958 0.950 . S
H1936 C1959 0.950 . S
H1937 C1961 0.950 . S
H1938 C1962 0.950 . S
H1939 C1963 0.951 . S
H1940 C1965 0.951 . S
H1941 C1967 0.950 . S
H1942 C1968 0.950 . S
H1943 C1970 0.950 . S
H1944 C1973 0.950 . S
H1945 C1974 0.950 . S
H1946 C1976 0.950 . S
H1947 C1977 0.950 . S
C1948 H1930 0.951 . S
C1948 C1949 1.366 . S
C1948 C1950 1.388 . S
C1949 C1948 1.366 . S
C1949 C1953 1.385 . S
C1950 H1931 0.951 . S
C1950 C1948 1.388 . S
C1950 C1951 1.366 . S
C1951 C1950 1.366 . S
C1951 C1952 1.414 . S
C1951 C1954 1.499 . S
C1952 H1932 0.950 . S
C1952 C1951 1.414 . S
C1952 C1953 1.374 . S
C1953 H1933 0.950 . S
C1953 C1949 1.385 . S
C1953 C1952 1.374 . S
C1954 C1951 1.499 . S
C1954 C1955 1.373 . S
C1954 C1956 1.389 . S
C1955 H1934 0.950 . S
C1955 C1954 1.373 . S
C1955 C1971 1.377 . S
C1956 C1954 1.389 . S
C1956 C1957 1.524 . S
C1956 C1970 1.377 . S
C1957 C1956 1.524 . S
C1957 C1958 1.397 . S
C1957 C1962 1.363 . S
C1958 H1935 0.950 . S
C1958 C1957 1.397 . S
C1958 C1959 1.334 . S
C1959 H1936 0.950 . S
C1959 C1958 1.334 . S
C1959 C1960 1.287 . S
C1960 C1959 1.287 . S
C1960 C1961 1.524 . S
C1960 H1979 0.913 . S
C1961 H1937 0.950 . S
C1961 C1960 1.524 . S
C1961 C1962 1.415 . S
C1962 H1938 0.950 . S
C1962 C1957 1.363 . S
C1962 C1961 1.415 . S
C1963 H1939 0.951 . S
C1963 C1964 1.366 . S
C1963 C1965 1.388 . S
C1964 C1963 1.366 . S
C1964 C1968 1.385 . S
C1965 H1940 0.951 . S
C1965 C1963 1.388 . S
C1965 C1966 1.366 . S
C1966 C1965 1.366 . S
C1966 C1967 1.414 . S
C1966 C1969 1.499 . S
C1967 H1941 0.950 . S
C1967 C1966 1.414 . S
C1967 C1968 1.374 . S
C1968 H1942 0.950 . S
C1968 C1964 1.385 . S
C1968 C1967 1.374 . S
C1969 C1966 1.499 . S
C1969 C1970 1.373 . S
C1969 C1971 1.389 . S
C1970 H1943 0.950 . S
C1970 C1956 1.377 . S
C1970 C1969 1.373 . S
C1971 C1955 1.377 . S
C1971 C1969 1.389 . S
C1971 C1972 1.524 . S
C1972 C1971 1.524 . S
C1972 C1973 1.397 . S
C1972 C1977 1.363 . S
C1973 H1944 0.950 . S
C1973 C1972 1.397 . S
C1973 C1974 1.334 . S
C1974 H1945 0.950 . S
C1974 C1973 1.334 . S
C1974 C1975 1.287 . S
C1975 C1974 1.287 . S
C1975 C1976 1.524 . S
C1975 H1978 0.999 . S
C1976 H1946 0.950 . S
C1976 C1975 1.524 . S
C1976 C1977 1.415 . S
C1977 H1947 0.950 . S
C1977 C1972 1.363 . S
C1977 C1976 1.415 . S
H1978 C1975 0.999 . S
H1979 C1960 0.913 . S
H1980 C1998 0.951 . S
H1981 C2000 0.951 . S
H1982 C2002 0.950 . S
H1983 C2003 0.950 . S
H1984 C2005 0.950 . S
H1985 C2008 0.950 . S
H1986 C2009 0.950 . S
H1987 C2011 0.950 . S
H1988 C2012 0.950 . S
H1989 C2013 0.951 . S
H1990 C2015 0.951 . S
H1991 C2017 0.950 . S
H1992 C2018 0.950 . S
H1993 C2020 0.950 . S
H1994 C2023 0.950 . S
H1995 C2024 0.950 . S
H1996 C2026 0.950 . S
H1997 C2027 0.950 . S
C1998 H1980 0.951 . S
C1998 C1999 1.366 . S
C1998 C2000 1.388 . S
C1999 C1998 1.366 . S
C1999 C2003 1.385 . S
C2000 H1981 0.951 . S
C2000 C1998 1.388 . S
C2000 C2001 1.366 . S
C2001 C2000 1.366 . S
C2001 C2002 1.414 . S
C2001 C2004 1.499 . S
C2002 H1982 0.950 . S
C2002 C2001 1.414 . S
C2002 C2003 1.374 . S
C2003 H1983 0.950 . S
C2003 C1999 1.385 . S
C2003 C2002 1.374 . S
C2004 C2001 1.499 . S
C2004 C2005 1.373 . S
C2004 C2006 1.389 . S
C2005 H1984 0.950 . S
C2005 C2004 1.373 . S
C2005 C2021 1.377 . S
C2006 C2004 1.389 . S
C2006 C2007 1.524 . S
C2006 C2020 1.377 . S
C2007 C2006 1.524 . S
C2007 C2008 1.397 . S
C2007 C2012 1.363 . S
C2008 H1985 0.950 . S
C2008 C2007 1.397 . S
C2008 C2009 1.334 . S
C2009 H1986 0.950 . S
C2009 C2008 1.334 . S
C2009 C2010 1.287 . S
C2010 C2009 1.287 . S
C2010 C2011 1.524 . S
C2010 H2029 0.913 . S
C2011 H1987 0.950 . S
C2011 C2010 1.524 . S
C2011 C2012 1.415 . S
C2012 H1988 0.950 . S
C2012 C2007 1.363 . S
C2012 C2011 1.415 . S
C2013 H1989 0.951 . S
C2013 C2014 1.366 . S
C2013 C2015 1.388 . S
C2014 C2013 1.366 . S
C2014 C2018 1.385 . S
C2015 H1990 0.951 . S
C2015 C2013 1.388 . S
C2015 C2016 1.366 . S
C2016 C2015 1.366 . S
C2016 C2017 1.414 . S
C2016 C2019 1.499 . S
C2017 H1991 0.950 . S
C2017 C2016 1.414 . S
C2017 C2018 1.374 . S
C2018 H1992 0.950 . S
C2018 C2014 1.385 . S
C2018 C2017 1.374 . S
C2019 C2016 1.499 . S
C2019 C2020 1.373 . S
C2019 C2021 1.389 . S
C2020 H1993 0.950 . S
C2020 C2006 1.377 . S
C2020 C2019 1.373 . S
C2021 C2005 1.377 . S
C2021 C2019 1.389 . S
C2021 C2022 1.524 . S
C2022 C2021 1.524 . S
C2022 C2023 1.397 . S
C2022 C2027 1.363 . S
C2023 H1994 0.950 . S
C2023 C2022 1.397 . S
C2023 C2024 1.334 . S
C2024 H1995 0.950 . S
C2024 C2023 1.334 . S
C2024 C2025 1.287 . S
C2025 C2024 1.287 . S
C2025 C2026 1.524 . S
C2025 H2028 0.999 1_554 S
C2026 H1996 0.950 . S
C2026 C2025 1.524 . S
C2026 C2027 1.415 . S
C2027 H1997 0.950 . S
C2027 C2022 1.363 . S
C2027 C2026 1.415 . S
H2028 C2025 0.999 1_556 S
H2029 C2010 0.913 . S
H2030 C2048 0.951 . S
H2031 C2050 0.951 . S
H2032 C2052 0.950 . S
H2033 C2053 0.950 . S
H2034 C2055 0.950 . S
H2035 C2058 0.950 . S
H2036 C2059 0.950 . S
H2037 C2061 0.950 . S
H2038 C2062 0.950 . S
H2039 C2063 0.951 . S
H2040 C2065 0.951 . S
H2041 C2067 0.950 . S
H2042 C2068 0.950 . S
H2043 C2070 0.950 . S
H2044 C2073 0.950 . S
H2045 C2074 0.950 . S
H2046 C2076 0.950 . S
H2047 C2077 0.950 . S
C2048 H2030 0.951 . S
C2048 C2049 1.366 . S
C2048 C2050 1.388 . S
C2049 C2048 1.366 . S
C2049 C2053 1.385 . S
C2050 H2031 0.951 . S
C2050 C2048 1.388 . S
C2050 C2051 1.366 . S
C2051 C2050 1.366 . S
C2051 C2052 1.414 . S
C2051 C2054 1.499 . S
C2052 H2032 0.950 . S
C2052 C2051 1.414 . S
C2052 C2053 1.374 . S
C2053 H2033 0.950 . S
C2053 C2049 1.385 . S
C2053 C2052 1.374 . S
C2054 C2051 1.499 . S
C2054 C2055 1.373 . S
C2054 C2056 1.389 . S
C2055 H2034 0.950 . S
C2055 C2054 1.373 . S
C2055 C2071 1.377 . S
C2056 C2054 1.389 . S
C2056 C2057 1.524 . S
C2056 C2070 1.377 . S
C2057 C2056 1.524 . S
C2057 C2058 1.397 . S
C2057 C2062 1.363 . S
C2058 H2035 0.950 . S
C2058 C2057 1.397 . S
C2058 C2059 1.334 . S
C2059 H2036 0.950 . S
C2059 C2058 1.334 . S
C2059 C2060 1.287 . S
C2060 C2059 1.287 . S
C2060 C2061 1.524 . S
C2060 H2079 0.913 . S
C2061 H2037 0.950 . S
C2061 C2060 1.524 . S
C2061 C2062 1.415 . S
C2062 H2038 0.950 . S
C2062 C2057 1.363 . S
C2062 C2061 1.415 . S
C2063 H2039 0.951 . S
C2063 C2064 1.366 . S
C2063 C2065 1.388 . S
C2064 C2063 1.366 . S
C2064 C2068 1.385 . S
C2065 H2040 0.951 . S
C2065 C2063 1.388 . S
C2065 C2066 1.366 . S
C2066 C2065 1.366 . S
C2066 C2067 1.414 . S
C2066 C2069 1.499 . S
C2067 H2041 0.950 . S
C2067 C2066 1.414 . S
C2067 C2068 1.374 . S
C2068 H2042 0.950 . S
C2068 C2064 1.385 . S
C2068 C2067 1.374 . S
C2069 C2066 1.499 . S
C2069 C2070 1.373 . S
C2069 C2071 1.389 . S
C2070 H2043 0.950 . S
C2070 C2056 1.377 . S
C2070 C2069 1.373 . S
C2071 C2055 1.377 . S
C2071 C2069 1.389 . S
C2071 C2072 1.524 . S
C2072 C2071 1.524 . S
C2072 C2073 1.397 . S
C2072 C2077 1.363 . S
C2073 H2044 0.950 . S
C2073 C2072 1.397 . S
C2073 C2074 1.334 . S
C2074 H2045 0.950 . S
C2074 C2073 1.334 . S
C2074 C2075 1.287 . S
C2075 C2074 1.287 . S
C2075 C2076 1.524 . S
C2075 H2078 0.999 . S
C2076 H2046 0.950 . S
C2076 C2075 1.524 . S
C2076 C2077 1.415 . S
C2077 H2047 0.950 . S
C2077 C2072 1.363 . S
C2077 C2076 1.415 . S
H2078 C2075 0.999 . S
H2079 C2060 0.913 . S
H2080 C2098 0.951 . S
H2081 C2100 0.951 . S
H2082 C2102 0.950 1_455 S
H2083 C2103 0.950 . S
H2084 C2105 0.950 . S
H2085 C2108 0.950 . S
H2086 C2109 0.950 1_565 S
H2087 C2111 0.950 1_565 S
H2088 C2112 0.950 . S
H2089 C2113 0.951 . S
H2090 C2115 0.951 . S
H2091 C2117 0.954 1_655 S
H2092 C2118 0.969 . S
H2093 C2120 0.950 . S
H2094 C2123 0.950 . S
H2095 C2124 0.950 . S
H2096 C2126 0.950 . S
H2097 C2127 0.950 . S
C2098 H2080 0.951 . S
C2098 C2099 1.366 . S
C2098 C2100 1.388 . S
C2099 C2098 1.366 . S
C2099 C2103 1.385 . S
C2100 H2081 0.951 . S
C2100 C2098 1.388 . S
C2100 C2101 1.366 . S
C2101 C2100 1.366 . S
C2101 C2102 1.414 . S
C2101 C2104 1.499 . S
C2102 H2082 0.950 1_655 S
C2102 C2101 1.414 . S
C2102 C2103 1.374 . S
C2103 H2083 0.950 . S
C2103 C2099 1.385 . S
C2103 C2102 1.374 . S
C2104 C2101 1.499 . S
C2104 C2105 1.373 1_655 S
C2104 C2106 1.389 . S
C2105 H2084 0.950 . S
C2105 C2104 1.373 1_455 S
C2105 C2121 1.377 . S
C2106 C2104 1.389 . S
C2106 C2107 1.524 . S
C2106 C2120 1.377 . S
C2107 C2106 1.524 . S
C2107 C2108 1.397 . S
C2107 C2112 1.363 . S
C2108 H2085 0.950 . S
C2108 C2107 1.397 . S
C2108 C2109 1.334 . S
C2109 H2086 0.950 1_545 S
C2109 C2108 1.334 . S
C2109 C2110 1.287 1_545 S
C2110 C2109 1.287 1_565 S
C2110 C2111 1.524 1_565 S
C2110 H2129 0.913 . S
C2111 H2087 0.950 1_545 S
C2111 C2110 1.524 1_545 S
C2111 C2112 1.415 . S
C2112 H2088 0.950 . S
C2112 C2107 1.363 . S
C2112 C2111 1.415 . S
C2113 H2089 0.951 . S
C2113 C2114 1.366 . S
C2113 C2115 1.388 . S
C2114 C2113 1.366 . S
C2114 C2118 1.385 . S
C2115 H2090 0.951 . S
C2115 C2113 1.388 . S
C2115 C2116 1.366 . S
C2116 C2115 1.366 . S
C2116 C2117 1.412 . S
C2116 C2119 1.499 . S
C2117 H2091 0.954 1_455 S
C2117 C2116 1.412 . S
C2117 C2118 1.372 . S
C2118 H2092 0.969 . S
C2118 C2114 1.385 . S
C2118 C2117 1.372 . S
C2119 C2116 1.499 . S
C2119 C2120 1.373 1_455 S
C2119 C2121 1.389 . S
C2120 H2093 0.950 . S
C2120 C2106 1.377 . S
C2120 C2119 1.373 1_655 S
C2121 C2105 1.377 . S
C2121 C2119 1.389 . S
C2121 C2122 1.524 . S
C2122 C2121 1.524 . S
C2122 C2123 1.397 . S
C2122 C2127 1.363 . S
C2123 H2094 0.950 . S
C2123 C2122 1.397 . S
C2123 C2124 1.334 . S
C2124 H2095 0.950 . S
C2124 C2123 1.334 . S
C2124 C2125 1.287 . S
C2125 C2124 1.287 . S
C2125 C2126 1.524 . S
C2125 H2128 0.999 . S
C2126 H2096 0.950 . S
C2126 C2125 1.524 . S
C2126 C2127 1.415 . S
C2127 H2097 0.950 . S
C2127 C2122 1.363 . S
C2127 C2126 1.415 . S
H2128 C2125 0.999 . S
H2129 C2110 0.913 . S
H2130 C2148 0.951 . S
H2131 C2150 0.951 . S
H2132 C2152 0.950 . S
H2133 C2153 0.950 . S
H2134 C2155 0.950 . S
H2135 C2158 0.950 . S
H2136 C2159 0.950 . S
H2137 C2161 0.950 . S
H2138 C2162 0.950 . S
H2139 C2163 0.951 . S
H2140 C2165 0.951 . S
H2141 C2167 0.950 . S
H2142 C2168 0.950 . S
H2143 C2170 0.950 . S
H2144 C2173 0.950 . S
H2145 C2174 0.950 . S
H2146 C2176 0.950 . S
H2147 C2177 0.950 . S
C2148 H2130 0.951 . S
C2148 C2149 1.366 . S
C2148 C2150 1.388 . S
C2149 C2148 1.366 . S
C2149 C2153 1.385 . S
C2150 H2131 0.951 . S
C2150 C2148 1.388 . S
C2150 C2151 1.366 . S
C2151 C2150 1.366 . S
C2151 C2152 1.414 . S
C2151 C2154 1.499 . S
C2152 H2132 0.950 . S
C2152 C2151 1.414 . S
C2152 C2153 1.374 . S
C2153 H2133 0.950 . S
C2153 C2149 1.385 . S
C2153 C2152 1.374 . S
C2154 C2151 1.499 . S
C2154 C2155 1.373 . S
C2154 C2156 1.389 . S
C2155 H2134 0.950 . S
C2155 C2154 1.373 . S
C2155 C2171 1.377 . S
C2156 C2154 1.389 . S
C2156 C2157 1.524 . S
C2156 C2170 1.377 . S
C2157 C2156 1.524 . S
C2157 C2158 1.397 . S
C2157 C2162 1.363 . S
C2158 H2135 0.950 . S
C2158 C2157 1.397 . S
C2158 C2159 1.334 . S
C2159 H2136 0.950 . S
C2159 C2158 1.334 . S
C2159 C2160 1.287 . S
C2160 C2159 1.287 . S
C2160 C2161 1.524 . S
C2160 H2179 0.913 . S
C2161 H2137 0.950 . S
C2161 C2160 1.524 . S
C2161 C2162 1.415 . S
C2162 H2138 0.950 . S
C2162 C2157 1.363 . S
C2162 C2161 1.415 . S
C2163 H2139 0.951 . S
C2163 C2164 1.366 . S
C2163 C2165 1.388 . S
C2164 C2163 1.366 . S
C2164 C2168 1.385 . S
C2165 H2140 0.951 . S
C2165 C2163 1.388 . S
C2165 C2166 1.366 . S
C2166 C2165 1.366 . S
C2166 C2167 1.414 . S
C2166 C2169 1.499 . S
C2167 H2141 0.950 . S
C2167 C2166 1.414 . S
C2167 C2168 1.374 . S
C2168 H2142 0.950 . S
C2168 C2164 1.385 . S
C2168 C2167 1.374 . S
C2169 C2166 1.499 . S
C2169 C2170 1.373 . S
C2169 C2171 1.389 . S
C2170 H2143 0.950 . S
C2170 C2156 1.377 . S
C2170 C2169 1.373 . S
C2171 C2155 1.377 . S
C2171 C2169 1.389 . S
C2171 C2172 1.524 . S
C2172 C2171 1.524 . S
C2172 C2173 1.397 . S
C2172 C2177 1.363 . S
C2173 H2144 0.950 . S
C2173 C2172 1.397 . S
C2173 C2174 1.334 . S
C2174 H2145 0.950 . S
C2174 C2173 1.334 . S
C2174 C2175 1.287 . S
C2175 C2174 1.287 . S
C2175 C2176 1.524 . S
C2175 H2178 0.999 . S
C2176 H2146 0.950 . S
C2176 C2175 1.524 . S
C2176 C2177 1.415 . S
C2177 H2147 0.950 . S
C2177 C2172 1.363 . S
C2177 C2176 1.415 . S
H2178 C2175 0.999 . S
H2179 C2160 0.913 . S
H2180 C2198 0.951 . S
H2181 C2200 0.951 . S
H2182 C2202 0.950 . S
H2183 C2203 0.950 . S
H2184 C2205 0.950 . S
H2185 C2208 0.950 . S
H2186 C2209 0.950 . S
H2187 C2211 0.950 . S
H2188 C2212 0.950 . S
H2189 C2213 0.951 . S
H2190 C2215 0.951 . S
H2191 C2217 0.950 . S
H2192 C2218 0.950 . S
H2193 C2220 0.950 . S
H2194 C2223 0.950 . S
H2195 C2224 0.950 . S
H2196 C2226 0.950 . S
H2197 C2227 0.986 . S
C2198 H2180 0.951 . S
C2198 C2199 1.366 . S
C2198 C2200 1.388 . S
C2199 C2198 1.366 . S
C2199 C2203 1.385 . S
C2200 H2181 0.951 . S
C2200 C2198 1.388 . S
C2200 C2201 1.366 . S
C2201 C2200 1.366 . S
C2201 C2202 1.414 . S
C2201 C2204 1.499 . S
C2202 H2182 0.950 . S
C2202 C2201 1.414 . S
C2202 C2203 1.374 . S
C2203 H2183 0.950 . S
C2203 C2199 1.385 . S
C2203 C2202 1.374 . S
C2204 C2201 1.499 . S
C2204 C2205 1.373 . S
C2204 C2206 1.389 . S
C2205 H2184 0.950 . S
C2205 C2204 1.373 . S
C2205 C2221 1.377 . S
C2206 C2204 1.389 . S
C2206 C2207 1.524 . S
C2206 C2220 1.377 . S
C2207 C2206 1.524 . S
C2207 C2208 1.397 . S
C2207 C2212 1.363 . S
C2208 H2185 0.950 . S
C2208 C2207 1.397 . S
C2208 C2209 1.334 . S
C2209 H2186 0.950 . S
C2209 C2208 1.334 . S
C2209 C2210 1.287 . S
C2210 C2209 1.287 . S
C2210 C2211 1.524 . S
C2210 H2229 0.913 . S
C2211 H2187 0.950 . S
C2211 C2210 1.524 . S
C2211 C2212 1.415 . S
C2212 H2188 0.950 . S
C2212 C2207 1.363 . S
C2212 C2211 1.415 . S
C2213 H2189 0.951 . S
C2213 C2214 1.366 . S
C2213 C2215 1.388 . S
C2214 C2213 1.366 . S
C2214 C2218 1.385 . S
C2215 H2190 0.951 . S
C2215 C2213 1.388 . S
C2215 C2216 1.366 . S
C2216 C2215 1.366 . S
C2216 C2217 1.414 . S
C2216 C2219 1.499 . S
C2217 H2191 0.950 . S
C2217 C2216 1.414 . S
C2217 C2218 1.374 . S
C2218 H2192 0.950 . S
C2218 C2214 1.385 . S
C2218 C2217 1.374 . S
C2219 C2216 1.499 . S
C2219 C2220 1.373 . S
C2219 C2221 1.389 . S
C2220 H2193 0.950 . S
C2220 C2206 1.377 . S
C2220 C2219 1.373 . S
C2221 C2205 1.377 . S
C2221 C2219 1.389 . S
C2221 C2222 1.524 . S
C2222 C2221 1.524 . S
C2222 C2223 1.397 1_545 S
C2222 C2227 1.368 . S
C2223 H2194 0.950 . S
C2223 C2222 1.397 1_565 S
C2223 C2224 1.334 . S
C2224 H2195 0.950 . S
C2224 C2223 1.334 . S
C2224 C2225 1.287 . S
C2225 C2224 1.287 . S
C2225 C2226 1.524 . S
C2225 H2228 0.999 . S
C2226 H2196 0.950 . S
C2226 C2225 1.524 . S
C2226 C2227 1.378 1_565 S
C2227 H2197 0.986 . S
C2227 C2222 1.368 . S
C2227 C2226 1.378 1_545 S
H2228 C2225 0.999 . S
H2229 C2210 0.913 . S
H2230 C2248 0.951 . S
H2231 C2250 0.951 . S
H2232 C2252 0.950 . S
H2233 C2253 0.950 . S
H2234 C2255 0.950 . S
H2235 C2258 0.950 . S
H2236 C2259 0.950 . S
H2237 C2261 0.950 . S
H2238 C2262 0.950 . S
H2239 C2263 0.951 . S
H2240 C2265 0.951 . S
H2241 C2267 0.950 . S
H2242 C2268 0.950 . S
H2243 C2270 0.950 . S
H2244 C2273 0.950 . S
H2245 C2274 0.950 . S
H2246 C2276 0.950 . S
H2247 C2277 0.950 . S
C2248 H2230 0.951 . S
C2248 C2249 1.366 . S
C2248 C2250 1.388 . S
C2249 C2248 1.366 . S
C2249 C2253 1.385 . S
C2250 H2231 0.951 . S
C2250 C2248 1.388 . S
C2250 C2251 1.366 . S
C2251 C2250 1.366 . S
C2251 C2252 1.414 . S
C2251 C2254 1.499 . S
C2252 H2232 0.950 . S
C2252 C2251 1.414 . S
C2252 C2253 1.374 . S
C2253 H2233 0.950 . S
C2253 C2249 1.385 . S
C2253 C2252 1.374 . S
C2254 C2251 1.499 . S
C2254 C2255 1.373 . S
C2254 C2256 1.389 . S
C2255 H2234 0.950 . S
C2255 C2254 1.373 . S
C2255 C2271 1.377 . S
C2256 C2254 1.389 . S
C2256 C2257 1.524 . S
C2256 C2270 1.377 . S
C2257 C2256 1.524 . S
C2257 C2258 1.397 . S
C2257 C2262 1.363 . S
C2258 H2235 0.950 . S
C2258 C2257 1.397 . S
C2258 C2259 1.334 . S
C2259 H2236 0.950 . S
C2259 C2258 1.334 . S
C2259 C2260 1.287 . S
C2260 C2259 1.287 . S
C2260 C2261 1.524 . S
C2260 H2279 0.913 . S
C2261 H2237 0.950 . S
C2261 C2260 1.524 . S
C2261 C2262 1.415 . S
C2262 H2238 0.950 . S
C2262 C2257 1.363 . S
C2262 C2261 1.415 . S
C2263 H2239 0.951 . S
C2263 C2264 1.366 . S
C2263 C2265 1.388 . S
C2264 C2263 1.366 . S
C2264 C2268 1.385 . S
C2265 H2240 0.951 . S
C2265 C2263 1.388 . S
C2265 C2266 1.366 . S
C2266 C2265 1.366 . S
C2266 C2267 1.414 . S
C2266 C2269 1.499 . S
C2267 H2241 0.950 . S
C2267 C2266 1.414 . S
C2267 C2268 1.374 . S
C2268 H2242 0.950 . S
C2268 C2264 1.385 . S
C2268 C2267 1.374 . S
C2269 C2266 1.499 . S
C2269 C2270 1.373 . S
C2269 C2271 1.389 . S
C2270 H2243 0.950 . S
C2270 C2256 1.377 . S
C2270 C2269 1.373 . S
C2271 C2255 1.377 . S
C2271 C2269 1.389 . S
C2271 C2272 1.524 . S
C2272 C2271 1.524 . S
C2272 C2273 1.397 . S
C2272 C2277 1.363 . S
C2273 H2244 0.950 . S
C2273 C2272 1.397 . S
C2273 C2274 1.334 . S
C2274 H2245 0.950 . S
C2274 C2273 1.334 . S
C2274 C2275 1.287 . S
C2275 C2274 1.287 . S
C2275 C2276 1.524 . S
C2275 H2278 0.999 . S
C2276 H2246 0.950 . S
C2276 C2275 1.524 . S
C2276 C2277 1.415 . S
C2277 H2247 0.950 . S
C2277 C2272 1.363 . S
C2277 C2276 1.415 . S
H2278 C2275 0.999 . S
H2279 C2260 0.913 . S
H2280 C2298 0.951 . S
H2281 C2300 0.951 1_455 S
H2282 C2302 0.950 . S
H2283 C2303 0.950 . S
H2284 C2305 0.950 . S
H2285 C2308 0.950 1_655 S
H2286 C2309 0.950 . S
H2287 C2311 0.950 . S
H2288 C2312 0.950 . S
H2289 C2313 0.951 . S
H2290 C2315 0.951 1_655 S
H2291 C2317 0.950 . S
H2292 C2318 0.950 . S
H2293 C2320 0.950 . S
H2294 C2323 0.950 1_455 S
H2295 C2324 0.950 . S
H2296 C2326 0.950 . S
H2297 C2327 0.950 . S
C2298 H2280 0.951 . S
C2298 C2299 1.366 . S
C2298 C2300 1.388 . S
C2299 C2298 1.366 . S
C2299 C2303 1.385 . S
C2300 H2281 0.951 1_655 S
C2300 C2298 1.388 . S
C2300 C2301 1.366 . S
C2301 C2300 1.366 . S
C2301 C2302 1.414 . S
C2301 C2304 1.499 . S
C2302 H2282 0.950 . S
C2302 C2301 1.414 . S
C2302 C2303 1.374 . S
C2303 H2283 0.950 . S
C2303 C2299 1.385 . S
C2303 C2302 1.374 . S
C2304 C2301 1.499 . S
C2304 C2305 1.373 . S
C2304 C2306 1.389 1_655 S
C2305 H2284 0.950 . S
C2305 C2304 1.373 . S
C2305 C2321 1.377 . S
C2306 C2304 1.389 1_455 S
C2306 C2307 1.524 . S
C2306 C2320 1.377 . S
C2307 C2306 1.524 . S
C2307 C2308 1.397 . S
C2307 C2312 1.363 . S
C2308 H2285 0.950 1_455 S
C2308 C2307 1.397 . S
C2308 C2309 1.334 . S
C2309 H2286 0.950 . S
C2309 C2308 1.334 . S
C2309 C2310 1.287 . S
C2310 C2309 1.287 . S
C2310 C2311 1.524 . S
C2310 H2329 0.913 . S
C2311 H2287 0.950 . S
C2311 C2310 1.524 . S
C2311 C2312 1.415 . S
C2312 H2288 0.950 . S
C2312 C2307 1.363 . S
C2312 C2311 1.415 . S
C2313 H2289 0.951 . S
C2313 C2314 1.366 . S
C2313 C2315 1.388 . S
C2314 C2313 1.366 . S
C2314 C2318 1.385 . S
C2315 H2290 0.951 1_455 S
C2315 C2313 1.388 . S
C2315 C2316 1.366 . S
C2316 C2315 1.366 . S
C2316 C2317 1.414 . S
C2316 C2319 1.499 . S
C2317 H2291 0.950 . S
C2317 C2316 1.414 . S
C2317 C2318 1.374 . S
C2318 H2292 0.950 . S
C2318 C2314 1.385 . S
C2318 C2317 1.374 . S
C2319 C2316 1.499 . S
C2319 C2320 1.373 . S
C2319 C2321 1.389 1_455 S
C2320 H2293 0.950 . S
C2320 C2306 1.377 . S
C2320 C2319 1.373 . S
C2321 C2305 1.377 . S
C2321 C2319 1.389 1_655 S
C2321 C2322 1.524 . S
C2322 C2321 1.524 . S
C2322 C2323 1.397 . S
C2322 C2327 1.363 . S
C2323 H2294 0.950 1_655 S
C2323 C2322 1.397 . S
C2323 C2324 1.334 . S
C2324 H2295 0.950 . S
C2324 C2323 1.334 . S
C2324 C2325 1.287 . S
C2325 C2324 1.287 . S
C2325 C2326 1.524 . S
C2325 H2328 0.999 . S
C2326 H2296 0.950 . S
C2326 C2325 1.524 . S
C2326 C2327 1.415 . S
C2327 H2297 0.950 . S
C2327 C2322 1.363 . S
C2327 C2326 1.415 . S
H2328 C2325 0.999 . S
H2329 C2310 0.913 . S
H2330 C2348 0.951 . S
H2331 C2350 0.951 . S
H2332 C2352 0.950 . S
H2333 C2353 0.950 . S
H2334 C2355 0.950 . S
H2335 C2358 0.950 . S
H2336 C2359 0.950 . S
H2337 C2361 0.950 . S
H2338 C2362 0.950 . S
H2339 C2363 0.951 . S
H2340 C2365 0.951 . S
H2341 C2367 0.950 . S
H2342 C2368 0.950 . S
H2343 C2370 0.950 . S
H2344 C2373 0.950 . S
H2345 C2374 0.950 . S
H2346 C2376 0.950 . S
H2347 C2377 0.950 . S
C2348 H2330 0.951 . S
C2348 C2349 1.366 . S
C2348 C2350 1.388 . S
C2349 C2348 1.366 . S
C2349 C2353 1.385 . S
C2350 H2331 0.951 . S
C2350 C2348 1.388 . S
C2350 C2351 1.366 . S
C2351 C2350 1.366 . S
C2351 C2352 1.414 . S
C2351 C2354 1.499 . S
C2352 H2332 0.950 . S
C2352 C2351 1.414 . S
C2352 C2353 1.374 . S
C2353 H2333 0.950 . S
C2353 C2349 1.385 . S
C2353 C2352 1.374 . S
C2354 C2351 1.499 . S
C2354 C2355 1.373 . S
C2354 C2356 1.389 . S
C2355 H2334 0.950 . S
C2355 C2354 1.373 . S
C2355 C2371 1.377 . S
C2356 C2354 1.389 . S
C2356 C2357 1.524 . S
C2356 C2370 1.377 . S
C2357 C2356 1.524 . S
C2357 C2358 1.397 . S
C2357 C2362 1.363 . S
C2358 H2335 0.950 . S
C2358 C2357 1.397 . S
C2358 C2359 1.334 . S
C2359 H2336 0.950 . S
C2359 C2358 1.334 . S
C2359 C2360 1.287 . S
C2360 C2359 1.287 . S
C2360 C2361 1.524 . S
C2360 H2379 0.913 . S
C2361 H2337 0.950 . S
C2361 C2360 1.524 . S
C2361 C2362 1.415 . S
C2362 H2338 0.950 . S
C2362 C2357 1.363 . S
C2362 C2361 1.415 . S
C2363 H2339 0.951 . S
C2363 C2364 1.366 . S
C2363 C2365 1.388 . S
C2364 C2363 1.366 . S
C2364 C2368 1.385 . S
C2365 H2340 0.951 . S
C2365 C2363 1.388 . S
C2365 C2366 1.366 . S
C2366 C2365 1.366 . S
C2366 C2367 1.414 . S
C2366 C2369 1.499 . S
C2367 H2341 0.950 . S
C2367 C2366 1.414 . S
C2367 C2368 1.374 . S
C2368 H2342 0.950 . S
C2368 C2364 1.385 . S
C2368 C2367 1.374 . S
C2369 C2366 1.499 . S
C2369 C2370 1.373 . S
C2369 C2371 1.389 . S
C2370 H2343 0.950 . S
C2370 C2356 1.377 . S
C2370 C2369 1.373 . S
C2371 C2355 1.377 . S
C2371 C2369 1.389 . S
C2371 C2372 1.524 . S
C2372 C2371 1.524 . S
C2372 C2373 1.397 . S
C2372 C2377 1.363 . S
C2373 H2344 0.950 . S
C2373 C2372 1.397 . S
C2373 C2374 1.334 . S
C2374 H2345 0.950 . S
C2374 C2373 1.334 . S
C2374 C2375 1.287 . S
C2375 C2374 1.287 . S
C2375 C2376 1.524 . S
C2375 H2378 0.999 . S
C2376 H2346 0.950 . S
C2376 C2375 1.524 . S
C2376 C2377 1.415 . S
C2377 H2347 0.950 . S
C2377 C2372 1.363 . S
C2377 C2376 1.415 . S
H2378 C2375 0.999 . S
H2379 C2360 0.913 . S
H2380 C2398 0.951 . S
H2381 C2400 0.951 . S
H2382 C2402 0.950 . S
H2383 C2403 0.950 . S
H2384 C2405 0.950 . S
H2385 C2408 0.950 . S
H2386 C2409 0.950 . S
H2387 C2411 0.950 . S
H2388 C2412 0.950 . S
H2389 C2413 0.951 . S
H2390 C2415 0.951 . S
H2391 C2417 0.950 . S
H2392 C2418 0.950 . S
H2393 C2420 0.950 . S
H2394 C2423 0.950 . S
H2395 C2424 0.950 . S
H2396 C2426 0.950 . S
H2397 C2427 0.950 . S
C2398 H2380 0.951 . S
C2398 C2399 1.366 . S
C2398 C2400 1.388 . S
C2399 C2398 1.366 . S
C2399 C2403 1.385 . S
C2400 H2381 0.951 . S
C2400 C2398 1.388 . S
C2400 C2401 1.366 . S
C2401 C2400 1.366 . S
C2401 C2402 1.414 . S
C2401 C2404 1.499 . S
C2402 H2382 0.950 . S
C2402 C2401 1.414 . S
C2402 C2403 1.374 . S
C2403 H2383 0.950 . S
C2403 C2399 1.385 . S
C2403 C2402 1.374 . S
C2404 C2401 1.499 . S
C2404 C2405 1.373 . S
C2404 C2406 1.389 . S
C2405 H2384 0.950 . S
C2405 C2404 1.373 . S
C2405 C2421 1.377 . S
C2406 C2404 1.389 . S
C2406 C2407 1.524 . S
C2406 C2420 1.377 . S
C2407 C2406 1.524 . S
C2407 C2408 1.397 . S
C2407 C2412 1.363 1_545 S
C2408 H2385 0.950 . S
C2408 C2407 1.397 . S
C2408 C2409 1.334 . S
C2409 H2386 0.950 . S
C2409 C2408 1.334 . S
C2409 C2410 1.287 1_545 S
C2410 C2409 1.287 1_565 S
C2410 C2411 1.524 . S
C2410 H2429 0.913 . S
C2411 H2387 0.950 . S
C2411 C2410 1.524 . S
C2411 C2412 1.415 . S
C2412 H2388 0.950 . S
C2412 C2407 1.363 1_565 S
C2412 C2411 1.415 . S
C2413 H2389 0.951 . S
C2413 C2414 1.366 . S
C2413 C2415 1.388 . S
C2414 C2413 1.366 . S
C2414 C2418 1.385 . S
C2415 H2390 0.951 . S
C2415 C2413 1.388 . S
C2415 C2416 1.366 . S
C2416 C2415 1.366 . S
C2416 C2417 1.414 . S
C2416 C2419 1.499 . S
C2417 H2391 0.950 . S
C2417 C2416 1.414 . S
C2417 C2418 1.374 . S
C2418 H2392 0.950 . S
C2418 C2414 1.385 . S
C2418 C2417 1.374 . S
C2419 C2416 1.499 . S
C2419 C2420 1.373 . S
C2419 C2421 1.389 . S
C2420 H2393 0.950 . S
C2420 C2406 1.377 . S
C2420 C2419 1.373 . S
C2421 C2405 1.377 . S
C2421 C2419 1.389 . S
C2421 C2422 1.524 . S
C2422 C2421 1.524 . S
C2422 C2423 1.397 . S
C2422 C2427 1.363 . S
C2423 H2394 0.950 . S
C2423 C2422 1.397 . S
C2423 C2424 1.334 . S
C2424 H2395 0.950 . S
C2424 C2423 1.334 . S
C2424 C2425 1.287 . S
C2425 C2424 1.287 . S
C2425 C2426 1.524 . S
C2425 H2428 0.999 . S
C2426 H2396 0.950 . S
C2426 C2425 1.524 . S
C2426 C2427 1.415 . S
C2427 H2397 0.950 . S
C2427 C2422 1.363 . S
C2427 C2426 1.415 . S
H2428 C2425 0.999 . S
H2429 C2410 0.913 . S
H2430 C2448 0.951 . S
H2431 C2450 0.951 . S
H2432 C2452 0.950 . S
H2433 C2453 0.950 . S
H2434 C2455 0.950 . S
H2435 C2458 0.950 . S
H2436 C2459 0.950 . S
H2437 C2461 0.950 . S
H2438 C2462 0.950 . S
H2439 C2463 0.951 . S
H2440 C2465 0.951 . S
H2441 C2467 0.950 . S
H2442 C2468 0.950 . S
H2443 C2470 0.950 . S
H2444 C2473 0.950 . S
H2445 C2474 0.950 . S
H2446 C2476 0.950 . S
H2447 C2477 0.950 . S
C2448 H2430 0.951 . S
C2448 C2449 1.366 . S
C2448 C2450 1.388 . S
C2449 C2448 1.366 . S
C2449 C2453 1.385 . S
C2450 H2431 0.951 . S
C2450 C2448 1.388 . S
C2450 C2451 1.366 . S
C2451 C2450 1.366 . S
C2451 C2452 1.414 . S
C2451 C2454 1.499 . S
C2452 H2432 0.950 . S
C2452 C2451 1.414 . S
C2452 C2453 1.374 . S
C2453 H2433 0.950 . S
C2453 C2449 1.385 . S
C2453 C2452 1.374 . S
C2454 C2451 1.499 . S
C2454 C2455 1.373 . S
C2454 C2456 1.389 . S
C2455 H2434 0.950 . S
C2455 C2454 1.373 . S
C2455 C2471 1.377 . S
C2456 C2454 1.389 . S
C2456 C2457 1.524 . S
C2456 C2470 1.377 . S
C2457 C2456 1.524 . S
C2457 C2458 1.397 . S
C2457 C2462 1.363 . S
C2458 H2435 0.950 . S
C2458 C2457 1.397 . S
C2458 C2459 1.334 . S
C2459 H2436 0.950 . S
C2459 C2458 1.334 . S
C2459 C2460 1.287 . S
C2460 C2459 1.287 . S
C2460 C2461 1.524 . S
C2460 H2479 0.913 . S
C2461 H2437 0.950 . S
C2461 C2460 1.524 . S
C2461 C2462 1.415 . S
C2462 H2438 0.950 . S
C2462 C2457 1.363 . S
C2462 C2461 1.415 . S
C2463 H2439 0.951 . S
C2463 C2464 1.366 . S
C2463 C2465 1.388 . S
C2464 C2463 1.366 . S
C2464 C2468 1.385 . S
C2465 H2440 0.951 . S
C2465 C2463 1.388 . S
C2465 C2466 1.366 . S
C2466 C2465 1.366 . S
C2466 C2467 1.414 . S
C2466 C2469 1.499 . S
C2467 H2441 0.950 . S
C2467 C2466 1.414 . S
C2467 C2468 1.374 . S
C2468 H2442 0.950 . S
C2468 C2464 1.385 . S
C2468 C2467 1.374 . S
C2469 C2466 1.499 . S
C2469 C2470 1.373 . S
C2469 C2471 1.389 . S
C2470 H2443 0.950 . S
C2470 C2456 1.377 . S
C2470 C2469 1.373 . S
C2471 C2455 1.377 . S
C2471 C2469 1.389 . S
C2471 C2472 1.524 . S
C2472 C2471 1.524 . S
C2472 C2473 1.397 . S
C2472 C2477 1.363 . S
C2473 H2444 0.950 . S
C2473 C2472 1.397 . S
C2473 C2474 1.334 . S
C2474 H2445 0.950 . S
C2474 C2473 1.334 . S
C2474 C2475 1.287 . S
C2475 C2474 1.287 . S
C2475 C2476 1.524 . S
C2475 H2478 0.999 . S
C2476 H2446 0.950 . S
C2476 C2475 1.524 . S
C2476 C2477 1.415 . S
C2477 H2447 0.950 . S
C2477 C2472 1.363 . S
C2477 C2476 1.415 . S
H2478 C2475 0.999 . S
H2479 C2460 0.913 . S
H2480 C2498 0.951 . S
H2481 C2500 0.951 . S
H2482 C2502 0.950 . S
H2483 C2503 0.950 . S
H2484 C2505 0.950 1_556 S
H2485 C2508 0.950 . S
H2486 C2509 0.950 . S
H2487 C2511 0.950 . S
H2488 C2512 0.950 . S
H2489 C2513 0.951 . S
H2490 C2515 0.951 . S
H2491 C2517 0.950 . S
H2492 C2518 0.950 . S
H2493 C2520 0.950 1_545 S
H2494 C2523 0.950 . S
H2495 C2524 0.950 . S
H2496 C2526 0.950 . S
H2497 C2527 0.950 . S
C2498 H2480 0.951 . S
C2498 C2499 1.366 . S
C2498 C2500 1.388 . S
C2499 C2498 1.366 . S
C2499 C2503 1.385 . S
C2500 H2481 0.951 . S
C2500 C2498 1.388 . S
C2500 C2501 1.366 . S
C2501 C2500 1.366 . S
C2501 C2502 1.414 . S
C2501 C2504 1.499 . S
C2502 H2482 0.950 . S
C2502 C2501 1.414 . S
C2502 C2503 1.374 . S
C2503 H2483 0.950 . S
C2503 C2499 1.385 . S
C2503 C2502 1.374 . S
C2504 C2501 1.499 . S
C2504 C2505 1.373 . S
C2504 C2506 1.389 . S
C2505 H2484 0.950 1_554 S
C2505 C2504 1.373 . S
C2505 C2521 1.377 . S
C2506 C2504 1.389 . S
C2506 C2507 1.524 . S
C2506 C2520 1.377 . S
C2507 C2506 1.524 . S
C2507 C2508 1.397 . S
C2507 C2512 1.363 1_565 S
C2508 H2485 0.950 . S
C2508 C2507 1.397 . S
C2508 C2509 1.334 . S
C2509 H2486 0.950 . S
C2509 C2508 1.334 . S
C2509 C2510 1.287 . S
C2510 C2509 1.287 . S
C2510 C2511 1.524 1_565 S
C2510 H2529 0.913 1_565 S
C2511 H2487 0.950 . S
C2511 C2510 1.524 1_545 S
C2511 C2512 1.415 . S
C2512 H2488 0.950 . S
C2512 C2507 1.363 1_545 S
C2512 C2511 1.415 . S
C2513 H2489 0.951 . S
C2513 C2514 1.366 1_565 S
C2513 C2515 1.388 . S
C2514 C2513 1.366 1_545 S
C2514 C2518 1.385 . S
C2515 H2490 0.951 . S
C2515 C2513 1.388 . S
C2515 C2516 1.366 . S
C2516 C2515 1.366 . S
C2516 C2517 1.414 1_565 S
C2516 C2519 1.499 . S
C2517 H2491 0.950 . S
C2517 C2516 1.414 1_545 S
C2517 C2518 1.374 . S
C2518 H2492 0.950 . S
C2518 C2514 1.385 . S
C2518 C2517 1.374 . S
C2519 C2516 1.499 . S
C2519 C2520 1.373 . S
C2519 C2521 1.389 . S
C2520 H2493 0.950 1_565 S
C2520 C2506 1.377 . S
C2520 C2519 1.373 . S
C2521 C2505 1.377 . S
C2521 C2519 1.389 . S
C2521 C2522 1.524 1_554 S
C2522 C2521 1.524 1_556 S
C2522 C2523 1.397 . S
C2522 C2527 1.363 . S
C2523 H2494 0.950 . S
C2523 C2522 1.397 . S
C2523 C2524 1.334 . S
C2524 H2495 0.950 . S
C2524 C2523 1.334 . S
C2524 C2525 1.287 . S
C2525 C2524 1.287 . S
C2525 C2526 1.524 . S
C2525 H2528 0.999 . S
C2526 H2496 0.950 . S
C2526 C2525 1.524 . S
C2526 C2527 1.415 . S
C2527 H2497 0.950 . S
C2527 C2522 1.363 . S
C2527 C2526 1.415 . S
H2528 C2525 0.999 . S
H2529 C2510 0.913 1_545 S
H2530 C2548 0.960 1_554 S
H2531 C2550 0.951 . S
H2532 C2552 0.950 . S
H2533 C2553 0.950 . S
H2534 C2555 0.950 . S
H2535 C2558 0.950 . S
H2536 C2559 0.950 . S
H2537 C2561 0.950 . S
H2538 C2562 0.950 . S
H2539 C2563 0.948 . S
H2540 C2565 0.951 1_556 S
H2541 C2567 0.950 . S
H2542 C2568 0.950 . S
H2543 C2570 0.950 . S
H2544 C2573 0.950 . S
H2545 C2574 0.950 . S
H2546 C2576 0.950 . S
H2547 C2577 0.950 . S
C2548 H2530 0.960 1_556 S
C2548 C2549 1.365 . S
C2548 C2550 1.389 1_556 S
C2549 C2548 1.365 . S
C2549 C2553 1.385 . S
C2550 H2531 0.951 . S
C2550 C2548 1.389 1_554 S
C2550 C2551 1.366 . S
C2551 C2550 1.366 . S
C2551 C2552 1.414 1_554 S
C2551 C2554 1.487 . S
C2552 H2532 0.950 . S
C2552 C2551 1.414 1_556 S
C2552 C2553 1.374 . S
C2553 H2533 0.950 . S
C2553 C2549 1.385 . S
C2553 C2552 1.374 . S
C2554 C2551 1.487 . S
C2554 C2555 1.342 1_554 S
C2554 C2556 1.431 . S
C2555 H2534 0.950 . S
C2555 C2554 1.342 1_556 S
C2555 C2571 1.377 . S
C2556 C2554 1.431 . S
C2556 C2557 1.524 . S
C2556 C2570 1.377 . S
C2557 C2556 1.524 . S
C2557 C2558 1.397 . S
C2557 C2562 1.363 . S
C2558 H2535 0.950 . S
C2558 C2557 1.397 . S
C2558 C2559 1.334 . S
C2559 H2536 0.950 . S
C2559 C2558 1.334 . S
C2559 C2560 1.287 . S
C2560 C2559 1.287 . S
C2560 C2561 1.524 . S
C2560 H2579 0.913 . S
C2561 H2537 0.950 . S
C2561 C2560 1.524 . S
C2561 C2562 1.415 . S
C2562 H2538 0.950 . S
C2562 C2557 1.363 . S
C2562 C2561 1.415 . S
C2563 H2539 0.948 . S
C2563 C2564 1.366 . S
C2563 C2565 1.388 . S
C2564 C2563 1.366 . S
C2564 C2568 1.385 . S
C2565 H2540 0.951 1_554 S
C2565 C2563 1.388 . S
C2565 C2566 1.365 . S
C2566 C2565 1.365 . S
C2566 C2567 1.414 . S
C2566 C2569 1.504 . S
C2567 H2541 0.950 . S
C2567 C2566 1.414 . S
C2567 C2568 1.374 . S
C2568 H2542 0.950 . S
C2568 C2564 1.385 . S
C2568 C2567 1.374 . S
C2569 C2566 1.504 . S
C2569 C2570 1.387 . S
C2569 C2571 1.372 1_554 S
C2570 H2543 0.950 . S
C2570 C2556 1.377 . S
C2570 C2569 1.387 . S
C2571 C2555 1.377 . S
C2571 C2569 1.372 1_556 S
C2571 C2572 1.524 . S
C2572 C2571 1.524 . S
C2572 C2573 1.397 . S
C2572 C2577 1.363 . S
C2573 H2544 0.950 . S
C2573 C2572 1.397 . S
C2573 C2574 1.334 . S
C2574 H2545 0.950 . S
C2574 C2573 1.334 . S
C2574 C2575 1.287 . S
C2575 C2574 1.287 . S
C2575 C2576 1.524 . S
C2575 H2578 0.999 . S
C2576 H2546 0.950 . S
C2576 C2575 1.524 . S
C2576 C2577 1.415 . S
C2577 H2547 0.950 . S
C2577 C2572 1.363 . S
C2577 C2576 1.415 . S
H2578 C2575 0.999 . S
H2579 C2560 0.913 . S
H2580 C2598 0.951 . S
H2581 C2600 0.951 . S
H2582 C2602 0.950 . S
H2583 C2603 0.950 . S
H2584 C2605 0.950 . S
H2585 C2608 0.950 . S
H2586 C2609 0.950 . S
H2587 C2611 0.950 . S
H2588 C2612 0.950 . S
H2589 C2613 0.951 . S
H2590 C2615 0.951 . S
H2591 C2617 0.950 . S
H2592 C2618 0.950 . S
H2593 C2620 0.950 . S
H2594 C2623 0.950 . S
H2595 C2624 0.950 . S
H2596 C2626 0.950 . S
H2597 C2627 0.950 . S
C2598 H2580 0.951 . S
C2598 C2599 1.366 . S
C2598 C2600 1.388 . S
C2599 C2598 1.366 . S
C2599 C2603 1.385 . S
C2600 H2581 0.951 . S
C2600 C2598 1.388 . S
C2600 C2601 1.366 . S
C2601 C2600 1.366 . S
C2601 C2602 1.414 . S
C2601 C2604 1.499 . S
C2602 H2582 0.950 . S
C2602 C2601 1.414 . S
C2602 C2603 1.374 . S
C2603 H2583 0.950 . S
C2603 C2599 1.385 . S
C2603 C2602 1.374 . S
C2604 C2601 1.499 . S
C2604 C2605 1.373 . S
C2604 C2606 1.389 . S
C2605 H2584 0.950 . S
C2605 C2604 1.373 . S
C2605 C2621 1.377 . S
C2606 C2604 1.389 . S
C2606 C2607 1.524 . S
C2606 C2620 1.377 . S
C2607 C2606 1.524 . S
C2607 C2608 1.397 . S
C2607 C2612 1.363 . S
C2608 H2585 0.950 . S
C2608 C2607 1.397 . S
C2608 C2609 1.334 . S
C2609 H2586 0.950 . S
C2609 C2608 1.334 . S
C2609 C2610 1.287 . S
C2610 C2609 1.287 . S
C2610 C2611 1.524 . S
C2610 H2629 0.913 . S
C2611 H2587 0.950 . S
C2611 C2610 1.524 . S
C2611 C2612 1.415 . S
C2612 H2588 0.950 . S
C2612 C2607 1.363 . S
C2612 C2611 1.415 . S
C2613 H2589 0.951 . S
C2613 C2614 1.366 . S
C2613 C2615 1.388 . S
C2614 C2613 1.366 . S
C2614 C2618 1.385 . S
C2615 H2590 0.951 . S
C2615 C2613 1.388 . S
C2615 C2616 1.366 . S
C2616 C2615 1.366 . S
C2616 C2617 1.414 . S
C2616 C2619 1.499 . S
C2617 H2591 0.950 . S
C2617 C2616 1.414 . S
C2617 C2618 1.374 . S
C2618 H2592 0.950 . S
C2618 C2614 1.385 . S
C2618 C2617 1.374 . S
C2619 C2616 1.499 . S
C2619 C2620 1.373 . S
C2619 C2621 1.389 . S
C2620 H2593 0.950 . S
C2620 C2606 1.377 . S
C2620 C2619 1.373 . S
C2621 C2605 1.377 . S
C2621 C2619 1.389 . S
C2621 C2622 1.524 . S
C2622 C2621 1.524 . S
C2622 C2623 1.397 . S
C2622 C2627 1.363 . S
C2623 H2594 0.950 . S
C2623 C2622 1.397 . S
C2623 C2624 1.334 . S
C2624 H2595 0.950 . S
C2624 C2623 1.334 . S
C2624 C2625 1.287 . S
C2625 C2624 1.287 . S
C2625 C2626 1.524 . S
C2625 H2628 0.999 . S
C2626 H2596 0.950 . S
C2626 C2625 1.524 . S
C2626 C2627 1.415 . S
C2627 H2597 0.950 . S
C2627 C2622 1.363 . S
C2627 C2626 1.415 . S
H2628 C2625 0.999 . S
H2629 C2610 0.913 . S
H2630 C2648 0.951 . S
H2631 C2650 0.951 . S
H2632 C2652 0.950 . S
H2633 C2653 0.950 . S
H2634 C2655 0.950 . S
H2635 C2658 0.950 . S
H2636 C2659 0.950 . S
H2637 C2661 0.950 . S
H2638 C2662 0.950 . S
H2639 C2663 0.951 . S
H2640 C2665 0.951 . S
H2641 C2667 0.950 . S
H2642 C2668 0.947 1_455 S
H2643 C2670 0.950 . S
H2644 C2673 0.950 . S
H2645 C2674 0.950 . S
H2646 C2676 0.950 . S
H2647 C2677 0.950 . S
C2648 H2630 0.951 . S
C2648 C2649 1.366 . S
C2648 C2650 1.388 . S
C2649 C2648 1.366 . S
C2649 C2653 1.385 . S
C2650 H2631 0.951 . S
C2650 C2648 1.388 . S
C2650 C2651 1.366 . S
C2651 C2650 1.366 . S
C2651 C2652 1.414 . S
C2651 C2654 1.499 . S
C2652 H2632 0.950 . S
C2652 C2651 1.414 . S
C2652 C2653 1.374 . S
C2653 H2633 0.950 . S
C2653 C2649 1.385 . S
C2653 C2652 1.374 . S
C2654 C2651 1.499 . S
C2654 C2655 1.373 . S
C2654 C2656 1.389 . S
C2655 H2634 0.950 . S
C2655 C2654 1.373 . S
C2655 C2671 1.377 . S
C2656 C2654 1.389 . S
C2656 C2657 1.524 . S
C2656 C2670 1.377 . S
C2657 C2656 1.524 . S
C2657 C2658 1.397 . S
C2657 C2662 1.363 . S
C2658 H2635 0.950 . S
C2658 C2657 1.397 . S
C2658 C2659 1.334 . S
C2659 H2636 0.950 . S
C2659 C2658 1.334 . S
C2659 C2660 1.287 . S
C2660 C2659 1.287 . S
C2660 C2661 1.524 . S
C2660 H2679 0.913 . S
C2661 H2637 0.950 . S
C2661 C2660 1.524 . S
C2661 C2662 1.415 . S
C2662 H2638 0.950 . S
C2662 C2657 1.363 . S
C2662 C2661 1.415 . S
C2663 H2639 0.951 . S
C2663 C2664 1.366 . S
C2663 C2665 1.388 1_455 S
C2664 C2663 1.366 . S
C2664 C2668 1.385 1_455 S
C2665 H2640 0.951 . S
C2665 C2663 1.388 1_655 S
C2665 C2666 1.366 . S
C2666 C2665 1.366 . S
C2666 C2667 1.414 . S
C2666 C2669 1.499 . S
C2667 H2641 0.950 . S
C2667 C2666 1.414 . S
C2667 C2668 1.374 . S
C2668 H2642 0.947 1_655 S
C2668 C2664 1.385 1_655 S
C2668 C2667 1.374 . S
C2669 C2666 1.499 . S
C2669 C2670 1.373 . S
C2669 C2671 1.389 . S
C2670 H2643 0.950 . S
C2670 C2656 1.377 . S
C2670 C2669 1.373 . S
C2671 C2655 1.377 . S
C2671 C2669 1.389 . S
C2671 C2672 1.524 . S
C2672 C2671 1.524 . S
C2672 C2673 1.397 . S
C2672 C2677 1.363 . S
C2673 H2644 0.950 . S
C2673 C2672 1.397 . S
C2673 C2674 1.334 . S
C2674 H2645 0.950 . S
C2674 C2673 1.334 . S
C2674 C2675 1.287 . S
C2675 C2674 1.287 . S
C2675 C2676 1.524 . S
C2675 H2678 0.999 . S
C2676 H2646 0.950 . S
C2676 C2675 1.524 . S
C2676 C2677 1.415 . S
C2677 H2647 0.950 . S
C2677 C2672 1.363 . S
C2677 C2676 1.415 . S
H2678 C2675 0.999 . S
H2679 C2660 0.913 . S
H2680 C2698 0.951 . S
H2681 C2700 0.951 . S
H2682 C2702 0.950 . S
H2683 C2703 0.950 . S
H2684 C2705 0.950 . S
H2685 C2708 0.950 . S
H2686 C2709 0.950 . S
H2687 C2711 0.950 . S
H2688 C2712 0.950 . S
H2689 C2713 0.951 . S
H2690 C2715 0.951 . S
H2691 C2717 0.950 . S
H2692 C2718 0.950 . S
H2693 C2720 0.950 . S
H2694 C2723 0.950 . S
H2695 C2724 0.950 . S
H2696 C2726 0.950 . S
H2697 C2727 0.950 . S
C2698 H2680 0.951 . S
C2698 C2699 1.366 . S
C2698 C2700 1.388 . S
C2699 C2698 1.366 . S
C2699 C2703 1.385 . S
C2700 H2681 0.951 . S
C2700 C2698 1.388 . S
C2700 C2701 1.366 . S
C2701 C2700 1.366 . S
C2701 C2702 1.414 . S
C2701 C2704 1.499 . S
C2702 H2682 0.950 . S
C2702 C2701 1.414 . S
C2702 C2703 1.374 . S
C2703 H2683 0.950 . S
C2703 C2699 1.385 . S
C2703 C2702 1.374 . S
C2704 C2701 1.499 . S
C2704 C2705 1.373 . S
C2704 C2706 1.389 . S
C2705 H2684 0.950 . S
C2705 C2704 1.373 . S
C2705 C2721 1.377 . S
C2706 C2704 1.389 . S
C2706 C2707 1.524 . S
C2706 C2720 1.377 . S
C2707 C2706 1.524 . S
C2707 C2708 1.397 . S
C2707 C2712 1.363 . S
C2708 H2685 0.950 . S
C2708 C2707 1.397 . S
C2708 C2709 1.334 . S
C2709 H2686 0.950 . S
C2709 C2708 1.334 . S
C2709 C2710 1.287 . S
C2710 C2709 1.287 . S
C2710 C2711 1.524 . S
C2710 H2729 0.913 . S
C2711 H2687 0.950 . S
C2711 C2710 1.524 . S
C2711 C2712 1.415 . S
C2712 H2688 0.950 . S
C2712 C2707 1.363 . S
C2712 C2711 1.415 . S
C2713 H2689 0.951 . S
C2713 C2714 1.366 . S
C2713 C2715 1.388 . S
C2714 C2713 1.366 . S
C2714 C2718 1.385 . S
C2715 H2690 0.951 . S
C2715 C2713 1.388 . S
C2715 C2716 1.366 . S
C2716 C2715 1.366 . S
C2716 C2717 1.414 . S
C2716 C2719 1.499 . S
C2717 H2691 0.950 . S
C2717 C2716 1.414 . S
C2717 C2718 1.374 . S
C2718 H2692 0.950 . S
C2718 C2714 1.385 . S
C2718 C2717 1.374 . S
C2719 C2716 1.499 . S
C2719 C2720 1.373 . S
C2719 C2721 1.389 . S
C2720 H2693 0.950 . S
C2720 C2706 1.377 . S
C2720 C2719 1.373 . S
C2721 C2705 1.377 . S
C2721 C2719 1.389 . S
C2721 C2722 1.524 . S
C2722 C2721 1.524 . S
C2722 C2723 1.397 . S
C2722 C2727 1.363 . S
C2723 H2694 0.950 . S
C2723 C2722 1.397 . S
C2723 C2724 1.334 . S
C2724 H2695 0.950 . S
C2724 C2723 1.334 . S
C2724 C2725 1.287 . S
C2725 C2724 1.287 . S
C2725 C2726 1.524 . S
C2725 H2728 0.999 . S
C2726 H2696 0.950 . S
C2726 C2725 1.524 . S
C2726 C2727 1.415 . S
C2727 H2697 0.950 . S
C2727 C2722 1.363 . S
C2727 C2726 1.415 . S
H2728 C2725 0.999 . S
H2729 C2710 0.913 . S
H2730 C2748 0.951 . S
H2731 C2750 0.951 . S
H2732 C2752 0.950 . S
H2733 C2753 0.950 . S
H2734 C2755 0.950 . S
H2735 C2758 0.950 . S
H2736 C2759 0.950 . S
H2737 C2761 0.950 . S
H2738 C2762 0.950 . S
H2739 C2763 0.951 . S
H2740 C2765 0.951 . S
H2741 C2767 0.950 . S
H2742 C2768 0.950 . S
H2743 C2770 0.950 . S
H2744 C2773 0.950 . S
H2745 C2774 0.950 . S
H2746 C2776 0.950 . S
H2747 C2777 0.950 . S
C2748 H2730 0.951 . S
C2748 C2749 1.366 . S
C2748 C2750 1.388 . S
C2749 C2748 1.366 . S
C2749 C2753 1.385 . S
C2750 H2731 0.951 . S
C2750 C2748 1.388 . S
C2750 C2751 1.366 . S
C2751 C2750 1.366 . S
C2751 C2752 1.414 . S
C2751 C2754 1.499 . S
C2752 H2732 0.950 . S
C2752 C2751 1.414 . S
C2752 C2753 1.374 . S
C2753 H2733 0.950 . S
C2753 C2749 1.385 . S
C2753 C2752 1.374 . S
C2754 C2751 1.499 . S
C2754 C2755 1.373 . S
C2754 C2756 1.389 . S
C2755 H2734 0.950 . S
C2755 C2754 1.373 . S
C2755 C2771 1.377 . S
C2756 C2754 1.389 . S
C2756 C2757 1.524 . S
C2756 C2770 1.377 . S
C2757 C2756 1.524 . S
C2757 C2758 1.397 . S
C2757 C2762 1.363 . S
C2758 H2735 0.950 . S
C2758 C2757 1.397 . S
C2758 C2759 1.334 . S
C2759 H2736 0.950 . S
C2759 C2758 1.334 . S
C2759 C2760 1.287 . S
C2760 C2759 1.287 . S
C2760 C2761 1.524 . S
C2760 H2779 0.913 . S
C2761 H2737 0.950 . S
C2761 C2760 1.524 . S
C2761 C2762 1.415 . S
C2762 H2738 0.950 . S
C2762 C2757 1.363 . S
C2762 C2761 1.415 . S
C2763 H2739 0.951 . S
C2763 C2764 1.366 . S
C2763 C2765 1.388 . S
C2764 C2763 1.366 . S
C2764 C2768 1.385 . S
C2765 H2740 0.951 . S
C2765 C2763 1.388 . S
C2765 C2766 1.366 . S
C2766 C2765 1.366 . S
C2766 C2767 1.414 . S
C2766 C2769 1.499 . S
C2767 H2741 0.950 . S
C2767 C2766 1.414 . S
C2767 C2768 1.374 . S
C2768 H2742 0.950 . S
C2768 C2764 1.385 . S
C2768 C2767 1.374 . S
C2769 C2766 1.499 . S
C2769 C2770 1.373 . S
C2769 C2771 1.389 . S
C2770 H2743 0.950 . S
C2770 C2756 1.377 . S
C2770 C2769 1.373 . S
C2771 C2755 1.377 . S
C2771 C2769 1.389 . S
C2771 C2772 1.524 . S
C2772 C2771 1.524 . S
C2772 C2773 1.397 . S
C2772 C2777 1.363 . S
C2773 H2744 0.950 . S
C2773 C2772 1.397 . S
C2773 C2774 1.334 . S
C2774 H2745 0.950 . S
C2774 C2773 1.334 . S
C2774 C2775 1.287 . S
C2775 C2774 1.287 . S
C2775 C2776 1.524 . S
C2775 H2778 0.999 . S
C2776 H2746 0.950 . S
C2776 C2775 1.524 . S
C2776 C2777 1.415 . S
C2777 H2747 0.950 . S
C2777 C2772 1.363 . S
C2777 C2776 1.415 . S
H2778 C2775 0.999 . S
H2779 C2760 0.913 . S
H2780 C2798 0.951 . S
H2781 C2800 0.951 . S
H2782 C2802 0.950 . S
H2783 C2803 0.950 . S
H2784 C2805 0.950 . S
H2785 C2808 0.950 . S
H2786 C2809 0.950 . S
H2787 C2811 0.950 . S
H2788 C2812 0.950 . S
H2789 C2813 0.951 . S
H2790 C2815 0.951 . S
H2791 C2817 0.950 . S
H2792 C2818 0.950 . S
H2793 C2820 0.950 . S
H2794 C2823 0.950 . S
H2795 C2824 0.950 . S
H2796 C2826 0.950 . S
H2797 C2827 0.950 . S
C2798 H2780 0.951 . S
C2798 C2799 1.366 . S
C2798 C2800 1.388 . S
C2799 C2798 1.366 . S
C2799 C2803 1.385 . S
C2800 H2781 0.951 . S
C2800 C2798 1.388 . S
C2800 C2801 1.366 . S
C2801 C2800 1.366 . S
C2801 C2802 1.414 . S
C2801 C2804 1.499 . S
C2802 H2782 0.950 . S
C2802 C2801 1.414 . S
C2802 C2803 1.374 . S
C2803 H2783 0.950 . S
C2803 C2799 1.385 . S
C2803 C2802 1.374 . S
C2804 C2801 1.499 . S
C2804 C2805 1.373 . S
C2804 C2806 1.389 . S
C2805 H2784 0.950 . S
C2805 C2804 1.373 . S
C2805 C2821 1.377 . S
C2806 C2804 1.389 . S
C2806 C2807 1.524 . S
C2806 C2820 1.377 . S
C2807 C2806 1.524 . S
C2807 C2808 1.397 . S
C2807 C2812 1.363 . S
C2808 H2785 0.950 . S
C2808 C2807 1.397 . S
C2808 C2809 1.334 . S
C2809 H2786 0.950 . S
C2809 C2808 1.334 . S
C2809 C2810 1.287 . S
C2810 C2809 1.287 . S
C2810 C2811 1.524 . S
C2810 H2829 0.913 . S
C2811 H2787 0.950 . S
C2811 C2810 1.524 . S
C2811 C2812 1.415 . S
C2812 H2788 0.950 . S
C2812 C2807 1.363 . S
C2812 C2811 1.415 . S
C2813 H2789 0.951 . S
C2813 C2814 1.366 . S
C2813 C2815 1.388 . S
C2814 C2813 1.366 . S
C2814 C2818 1.385 . S
C2815 H2790 0.951 . S
C2815 C2813 1.388 . S
C2815 C2816 1.366 . S
C2816 C2815 1.366 . S
C2816 C2817 1.414 . S
C2816 C2819 1.499 . S
C2817 H2791 0.950 . S
C2817 C2816 1.414 . S
C2817 C2818 1.374 . S
C2818 H2792 0.950 . S
C2818 C2814 1.385 . S
C2818 C2817 1.374 . S
C2819 C2816 1.499 . S
C2819 C2820 1.373 . S
C2819 C2821 1.389 . S
C2820 H2793 0.950 . S
C2820 C2806 1.377 . S
C2820 C2819 1.373 . S
C2821 C2805 1.377 . S
C2821 C2819 1.389 . S
C2821 C2822 1.524 . S
C2822 C2821 1.524 . S
C2822 C2823 1.397 . S
C2822 C2827 1.363 . S
C2823 H2794 0.950 . S
C2823 C2822 1.397 . S
C2823 C2824 1.334 . S
C2824 H2795 0.950 . S
C2824 C2823 1.334 . S
C2824 C2825 1.287 . S
C2825 C2824 1.287 . S
C2825 C2826 1.524 . S
C2825 H2828 0.999 . S
C2826 H2796 0.950 . S
C2826 C2825 1.524 . S
C2826 C2827 1.415 . S
C2827 H2797 0.950 . S
C2827 C2822 1.363 . S
C2827 C2826 1.415 . S
H2828 C2825 0.999 . S
H2829 C2810 0.913 . S
H2830 C2848 0.951 . S
H2831 C2850 0.951 . S
H2832 C2852 0.950 . S
H2833 C2853 0.950 . S
H2834 C2855 0.950 . S
H2835 C2858 0.950 . S
H2836 C2859 0.950 . S
H2837 C2861 0.950 . S
H2838 C2862 0.950 . S
H2839 C2863 0.951 . S
H2840 C2865 0.951 . S
H2841 C2867 0.950 . S
H2842 C2868 0.950 . S
H2843 C2870 0.950 . S
H2844 C2873 0.950 . S
H2845 C2874 0.950 . S
H2846 C2876 0.950 . S
H2847 C2877 0.950 . S
C2848 H2830 0.951 . S
C2848 C2849 1.366 . S
C2848 C2850 1.388 . S
C2849 C2848 1.366 . S
C2849 C2853 1.385 . S
C2850 H2831 0.951 . S
C2850 C2848 1.388 . S
C2850 C2851 1.366 . S
C2851 C2850 1.366 . S
C2851 C2852 1.414 . S
C2851 C2854 1.499 . S
C2852 H2832 0.950 . S
C2852 C2851 1.414 . S
C2852 C2853 1.374 . S
C2853 H2833 0.950 . S
C2853 C2849 1.385 . S
C2853 C2852 1.374 . S
C2854 C2851 1.499 . S
C2854 C2855 1.373 . S
C2854 C2856 1.389 . S
C2855 H2834 0.950 . S
C2855 C2854 1.373 . S
C2855 C2871 1.377 . S
C2856 C2854 1.389 . S
C2856 C2857 1.524 . S
C2856 C2870 1.377 . S
C2857 C2856 1.524 . S
C2857 C2858 1.397 . S
C2857 C2862 1.363 . S
C2858 H2835 0.950 . S
C2858 C2857 1.397 . S
C2858 C2859 1.334 . S
C2859 H2836 0.950 . S
C2859 C2858 1.334 . S
C2859 C2860 1.287 . S
C2860 C2859 1.287 . S
C2860 C2861 1.524 . S
C2860 H2879 0.913 . S
C2861 H2837 0.950 . S
C2861 C2860 1.524 . S
C2861 C2862 1.415 . S
C2862 H2838 0.950 . S
C2862 C2857 1.363 . S
C2862 C2861 1.415 . S
C2863 H2839 0.951 . S
C2863 C2864 1.366 . S
C2863 C2865 1.388 . S
C2864 C2863 1.366 . S
C2864 C2868 1.385 . S
C2865 H2840 0.951 . S
C2865 C2863 1.388 . S
C2865 C2866 1.366 . S
C2866 C2865 1.366 . S
C2866 C2867 1.414 . S
C2866 C2869 1.499 . S
C2867 H2841 0.950 . S
C2867 C2866 1.414 . S
C2867 C2868 1.374 . S
C2868 H2842 0.950 . S
C2868 C2864 1.385 . S
C2868 C2867 1.374 . S
C2869 C2866 1.499 . S
C2869 C2870 1.373 . S
C2869 C2871 1.389 . S
C2870 H2843 0.950 . S
C2870 C2856 1.377 . S
C2870 C2869 1.373 . S
C2871 C2855 1.377 . S
C2871 C2869 1.389 . S
C2871 C2872 1.524 . S
C2872 C2871 1.524 . S
C2872 C2873 1.397 . S
C2872 C2877 1.363 . S
C2873 H2844 0.950 . S
C2873 C2872 1.397 . S
C2873 C2874 1.334 . S
C2874 H2845 0.950 . S
C2874 C2873 1.334 . S
C2874 C2875 1.287 . S
C2875 C2874 1.287 . S
C2875 C2876 1.524 . S
C2875 H2878 0.999 . S
C2876 H2846 0.950 . S
C2876 C2875 1.524 . S
C2876 C2877 1.415 . S
C2877 H2847 0.950 . S
C2877 C2872 1.363 . S
C2877 C2876 1.415 . S
H2878 C2875 0.999 . S
H2879 C2860 0.913 . S
H2880 C2898 0.951 . S
H2881 C2900 0.951 . S
H2882 C2902 0.950 . S
H2883 C2903 0.950 . S
H2884 C2905 0.950 . S
H2885 C2908 0.950 . S
H2886 C2909 0.950 . S
H2887 C2911 0.950 . S
H2888 C2912 0.950 . S
H2889 C2913 0.951 . S
H2890 C2915 0.951 . S
H2891 C2917 0.950 . S
H2892 C2918 0.950 . S
H2893 C2920 0.950 . S
H2894 C2923 0.950 . S
H2895 C2924 0.950 . S
H2896 C2926 0.950 1_655 S
H2897 C2927 0.950 . S
C2898 H2880 0.951 . S
C2898 C2899 1.366 . S
C2898 C2900 1.388 . S
C2899 C2898 1.366 . S
C2899 C2903 1.385 . S
C2900 H2881 0.951 . S
C2900 C2898 1.388 . S
C2900 C2901 1.366 . S
C2901 C2900 1.366 . S
C2901 C2902 1.414 . S
C2901 C2904 1.499 . S
C2902 H2882 0.950 . S
C2902 C2901 1.414 . S
C2902 C2903 1.374 . S
C2903 H2883 0.950 . S
C2903 C2899 1.385 . S
C2903 C2902 1.374 . S
C2904 C2901 1.499 . S
C2904 C2905 1.373 . S
C2904 C2906 1.389 . S
C2905 H2884 0.950 . S
C2905 C2904 1.373 . S
C2905 C2921 1.377 . S
C2906 C2904 1.389 . S
C2906 C2907 1.524 . S
C2906 C2920 1.377 . S
C2907 C2906 1.524 . S
C2907 C2908 1.397 . S
C2907 C2912 1.363 . S
C2908 H2885 0.950 . S
C2908 C2907 1.397 . S
C2908 C2909 1.334 . S
C2909 H2886 0.950 . S
C2909 C2908 1.334 . S
C2909 C2910 1.287 . S
C2910 C2909 1.287 . S
C2910 C2911 1.524 . S
C2910 H2929 0.913 . S
C2911 H2887 0.950 . S
C2911 C2910 1.524 . S
C2911 C2912 1.415 . S
C2912 H2888 0.950 . S
C2912 C2907 1.363 . S
C2912 C2911 1.415 . S
C2913 H2889 0.951 . S
C2913 C2914 1.366 . S
C2913 C2915 1.388 . S
C2914 C2913 1.366 . S
C2914 C2918 1.385 . S
C2915 H2890 0.951 . S
C2915 C2913 1.388 . S
C2915 C2916 1.366 . S
C2916 C2915 1.366 . S
C2916 C2917 1.414 . S
C2916 C2919 1.499 . S
C2917 H2891 0.950 . S
C2917 C2916 1.414 . S
C2917 C2918 1.374 . S
C2918 H2892 0.950 . S
C2918 C2914 1.385 . S
C2918 C2917 1.374 . S
C2919 C2916 1.499 . S
C2919 C2920 1.373 . S
C2919 C2921 1.389 . S
C2920 H2893 0.950 . S
C2920 C2906 1.377 . S
C2920 C2919 1.373 . S
C2921 C2905 1.377 . S
C2921 C2919 1.389 . S
C2921 C2922 1.524 . S
C2922 C2921 1.524 . S
C2922 C2923 1.397 . S
C2922 C2927 1.363 . S
C2923 H2894 0.950 . S
C2923 C2922 1.397 . S
C2923 C2924 1.334 1_554 S
C2924 H2895 0.950 . S
C2924 C2923 1.334 1_556 S
C2924 C2925 1.287 1_556 S
C2925 C2924 1.287 1_554 S
C2925 C2926 1.524 . S
C2925 H2928 0.999 1_454 S
C2926 H2896 0.950 1_455 S
C2926 C2925 1.524 . S
C2926 C2927 1.415 . S
C2927 H2897 0.950 . S
C2927 C2922 1.363 . S
C2927 C2926 1.415 . S
H2928 C2925 0.999 1_656 S
H2929 C2910 0.913 . S
H2930 C2948 0.951 . S
H2931 C2950 0.951 . S
H2932 C2952 0.950 . S
H2933 C2953 0.950 . S
H2934 C2955 0.950 . S
H2935 C2958 0.950 . S
H2936 C2959 0.950 . S
H2937 C2961 0.950 . S
H2938 C2962 0.950 . S
H2939 C2963 0.951 . S
H2940 C2965 0.951 . S
H2941 C2967 0.950 . S
H2942 C2968 0.950 . S
H2943 C2970 0.950 . S
H2944 C2973 0.950 . S
H2945 C2974 0.950 . S
H2946 C2976 0.950 . S
H2947 C2977 0.950 . S
C2948 H2930 0.951 . S
C2948 C2949 1.366 . S
C2948 C2950 1.388 . S
C2949 C2948 1.366 . S
C2949 C2953 1.385 . S
C2950 H2931 0.951 . S
C2950 C2948 1.388 . S
C2950 C2951 1.366 . S
C2951 C2950 1.366 . S
C2951 C2952 1.414 . S
C2951 C2954 1.499 . S
C2952 H2932 0.950 . S
C2952 C2951 1.414 . S
C2952 C2953 1.374 . S
C2953 H2933 0.950 . S
C2953 C2949 1.385 . S
C2953 C2952 1.374 . S
C2954 C2951 1.499 . S
C2954 C2955 1.373 . S
C2954 C2956 1.389 . S
C2955 H2934 0.950 . S
C2955 C2954 1.373 . S
C2955 C2971 1.377 . S
C2956 C2954 1.389 . S
C2956 C2957 1.524 . S
C2956 C2970 1.377 . S
C2957 C2956 1.524 . S
C2957 C2958 1.397 . S
C2957 C2962 1.363 . S
C2958 H2935 0.950 . S
C2958 C2957 1.397 . S
C2958 C2959 1.334 . S
C2959 H2936 0.950 . S
C2959 C2958 1.334 . S
C2959 C2960 1.287 . S
C2960 C2959 1.287 . S
C2960 C2961 1.524 . S
C2960 H2979 0.913 . S
C2961 H2937 0.950 . S
C2961 C2960 1.524 . S
C2961 C2962 1.415 . S
C2962 H2938 0.950 . S
C2962 C2957 1.363 . S
C2962 C2961 1.415 . S
C2963 H2939 0.951 . S
C2963 C2964 1.366 . S
C2963 C2965 1.388 . S
C2964 C2963 1.366 . S
C2964 C2968 1.385 . S
C2965 H2940 0.951 . S
C2965 C2963 1.388 . S
C2965 C2966 1.366 . S
C2966 C2965 1.366 . S
C2966 C2967 1.414 . S
C2966 C2969 1.499 . S
C2967 H2941 0.950 . S
C2967 C2966 1.414 . S
C2967 C2968 1.374 . S
C2968 H2942 0.950 . S
C2968 C2964 1.385 . S
C2968 C2967 1.374 . S
C2969 C2966 1.499 . S
C2969 C2970 1.373 . S
C2969 C2971 1.389 . S
C2970 H2943 0.950 . S
C2970 C2956 1.377 . S
C2970 C2969 1.373 . S
C2971 C2955 1.377 . S
C2971 C2969 1.389 . S
C2971 C2972 1.524 . S
C2972 C2971 1.524 . S
C2972 C2973 1.397 . S
C2972 C2977 1.363 . S
C2973 H2944 0.950 . S
C2973 C2972 1.397 . S
C2973 C2974 1.334 . S
C2974 H2945 0.950 . S
C2974 C2973 1.334 . S
C2974 C2975 1.287 . S
C2975 C2974 1.287 . S
C2975 C2976 1.524 . S
C2975 H2978 0.999 . S
C2976 H2946 0.950 . S
C2976 C2975 1.524 . S
C2976 C2977 1.415 . S
C2977 H2947 0.950 . S
C2977 C2972 1.363 . S
C2977 C2976 1.415 . S
H2978 C2975 0.999 . S
H2979 C2960 0.913 . S
H2980 C2998 0.951 . S
H2981 C3000 0.951 . S
H2982 C3002 0.950 . S
H2983 C3003 0.950 . S
H2984 C3005 0.950 . S
H2985 C3008 0.950 . S
H2986 C3009 0.950 . S
H2987 C3011 0.950 . S
H2988 C3012 0.950 . S
H2989 C3013 0.951 . S
H2990 C3015 0.951 . S
H2991 C3017 0.950 . S
H2992 C3018 0.950 . S
H2993 C3020 0.950 . S
H2994 C3023 0.950 . S
H2995 C3024 0.950 . S
H2996 C3026 0.950 . S
H2997 C3027 0.950 . S
C2998 H2980 0.951 . S
C2998 C2999 1.366 . S
C2998 C3000 1.388 . S
C2999 C2998 1.366 . S
C2999 C3003 1.385 . S
C3000 H2981 0.951 . S
C3000 C2998 1.388 . S
C3000 C3001 1.366 . S
C3001 C3000 1.366 . S
C3001 C3002 1.414 . S
C3001 C3004 1.499 . S
C3002 H2982 0.950 . S
C3002 C3001 1.414 . S
C3002 C3003 1.374 . S
C3003 H2983 0.950 . S
C3003 C2999 1.385 . S
C3003 C3002 1.374 . S
C3004 C3001 1.499 . S
C3004 C3005 1.373 . S
C3004 C3006 1.389 . S
C3005 H2984 0.950 . S
C3005 C3004 1.373 . S
C3005 C3021 1.377 . S
C3006 C3004 1.389 . S
C3006 C3007 1.524 . S
C3006 C3020 1.377 . S
C3007 C3006 1.524 . S
C3007 C3008 1.397 . S
C3007 C3012 1.363 . S
C3008 H2985 0.950 . S
C3008 C3007 1.397 . S
C3008 C3009 1.334 . S
C3009 H2986 0.950 . S
C3009 C3008 1.334 . S
C3009 C3010 1.287 . S
C3010 C3009 1.287 . S
C3010 C3011 1.524 . S
C3010 H3029 0.913 . S
C3011 H2987 0.950 . S
C3011 C3010 1.524 . S
C3011 C3012 1.415 . S
C3012 H2988 0.950 . S
C3012 C3007 1.363 . S
C3012 C3011 1.415 . S
C3013 H2989 0.951 . S
C3013 C3014 1.366 . S
C3013 C3015 1.388 . S
C3014 C3013 1.366 . S
C3014 C3018 1.385 . S
C3015 H2990 0.951 . S
C3015 C3013 1.388 . S
C3015 C3016 1.366 . S
C3016 C3015 1.366 . S
C3016 C3017 1.414 . S
C3016 C3019 1.499 . S
C3017 H2991 0.950 . S
C3017 C3016 1.414 . S
C3017 C3018 1.374 . S
C3018 H2992 0.950 . S
C3018 C3014 1.385 . S
C3018 C3017 1.374 . S
C3019 C3016 1.499 . S
C3019 C3020 1.373 . S
C3019 C3021 1.389 . S
C3020 H2993 0.950 . S
C3020 C3006 1.377 . S
C3020 C3019 1.373 . S
C3021 C3005 1.377 . S
C3021 C3019 1.389 . S
C3021 C3022 1.524 . S
C3022 C3021 1.524 . S
C3022 C3023 1.397 . S
C3022 C3027 1.363 . S
C3023 H2994 0.950 . S
C3023 C3022 1.397 . S
C3023 C3024 1.334 . S
C3024 H2995 0.950 . S
C3024 C3023 1.334 . S
C3024 C3025 1.287 . S
C3025 C3024 1.287 . S
C3025 C3026 1.524 . S
C3025 H3028 0.999 . S
C3026 H2996 0.950 . S
C3026 C3025 1.524 . S
C3026 C3027 1.415 . S
C3027 H2997 0.950 . S
C3027 C3022 1.363 . S
C3027 C3026 1.415 . S
H3028 C3025 0.999 . S
H3029 C3010 0.913 . S
H3030 C3048 0.951 . S
H3031 C3050 0.951 . S
H3032 C3052 0.950 . S
H3033 C3053 0.950 . S
H3034 C3055 0.950 . S
H3035 C3058 0.950 . S
H3036 C3059 0.950 . S
H3037 C3061 0.950 . S
H3038 C3062 0.950 . S
H3039 C3063 0.951 . S
H3040 C3065 0.951 . S
H3041 C3067 0.950 . S
H3042 C3068 0.950 . S
H3043 C3070 0.950 . S
H3044 C3073 0.950 . S
H3045 C3074 0.950 . S
H3046 C3076 0.950 . S
H3047 C3077 0.950 . S
C3048 H3030 0.951 . S
C3048 C3049 1.366 . S
C3048 C3050 1.388 . S
C3049 C3048 1.366 . S
C3049 C3053 1.385 . S
C3050 H3031 0.951 . S
C3050 C3048 1.388 . S
C3050 C3051 1.366 . S
C3051 C3050 1.366 . S
C3051 C3052 1.414 . S
C3051 C3054 1.499 . S
C3052 H3032 0.950 . S
C3052 C3051 1.414 . S
C3052 C3053 1.374 . S
C3053 H3033 0.950 . S
C3053 C3049 1.385 . S
C3053 C3052 1.374 . S
C3054 C3051 1.499 . S
C3054 C3055 1.373 . S
C3054 C3056 1.389 . S
C3055 H3034 0.950 . S
C3055 C3054 1.373 . S
C3055 C3071 1.377 . S
C3056 C3054 1.389 . S
C3056 C3057 1.524 . S
C3056 C3070 1.377 . S
C3057 C3056 1.524 . S
C3057 C3058 1.397 . S
C3057 C3062 1.363 . S
C3058 H3035 0.950 . S
C3058 C3057 1.397 . S
C3058 C3059 1.334 . S
C3059 H3036 0.950 . S
C3059 C3058 1.334 . S
C3059 C3060 1.287 . S
C3060 C3059 1.287 . S
C3060 C3061 1.524 . S
C3060 H3079 0.913 . S
C3061 H3037 0.950 . S
C3061 C3060 1.524 . S
C3061 C3062 1.415 . S
C3062 H3038 0.950 . S
C3062 C3057 1.363 . S
C3062 C3061 1.415 . S
C3063 H3039 0.951 . S
C3063 C3064 1.366 . S
C3063 C3065 1.388 . S
C3064 C3063 1.366 . S
C3064 C3068 1.385 . S
C3065 H3040 0.951 . S
C3065 C3063 1.388 . S
C3065 C3066 1.366 . S
C3066 C3065 1.366 . S
C3066 C3067 1.414 . S
C3066 C3069 1.499 . S
C3067 H3041 0.950 . S
C3067 C3066 1.414 . S
C3067 C3068 1.374 . S
C3068 H3042 0.950 . S
C3068 C3064 1.385 . S
C3068 C3067 1.374 . S
C3069 C3066 1.499 . S
C3069 C3070 1.373 . S
C3069 C3071 1.389 . S
C3070 H3043 0.950 . S
C3070 C3056 1.377 . S
C3070 C3069 1.373 . S
C3071 C3055 1.377 . S
C3071 C3069 1.389 . S
C3071 C3072 1.524 . S
C3072 C3071 1.524 . S
C3072 C3073 1.397 . S
C3072 C3077 1.363 . S
C3073 H3044 0.950 . S
C3073 C3072 1.397 . S
C3073 C3074 1.334 . S
C3074 H3045 0.950 . S
C3074 C3073 1.334 . S
C3074 C3075 1.287 . S
C3075 C3074 1.287 . S
C3075 C3076 1.524 . S
C3075 H3078 0.999 . S
C3076 H3046 0.950 . S
C3076 C3075 1.524 . S
C3076 C3077 1.415 . S
C3077 H3047 0.950 . S
C3077 C3072 1.363 . S
C3077 C3076 1.415 . S
H3078 C3075 0.999 . S
H3079 C3060 0.913 . S
H3080 C3098 0.951 . S
H3081 C3100 0.951 . S
H3082 C3102 0.950 . S
H3083 C3103 0.950 . S
H3084 C3105 0.950 . S
H3085 C3108 0.950 . S
H3086 C3109 0.950 . S
H3087 C3111 0.950 . S
H3088 C3112 0.950 . S
H3089 C3113 0.951 . S
H3090 C3115 0.951 . S
H3091 C3117 0.950 . S
H3092 C3118 0.950 . S
H3093 C3120 0.950 . S
H3094 C3123 0.950 . S
H3095 C3124 0.950 . S
H3096 C3126 0.950 . S
H3097 C3127 0.950 . S
C3098 H3080 0.951 . S
C3098 C3099 1.366 . S
C3098 C3100 1.388 . S
C3099 C3098 1.366 . S
C3099 C3103 1.385 . S
C3100 H3081 0.951 . S
C3100 C3098 1.388 . S
C3100 C3101 1.366 . S
C3101 C3100 1.366 . S
C3101 C3102 1.414 . S
C3101 C3104 1.499 . S
C3102 H3082 0.950 . S
C3102 C3101 1.414 . S
C3102 C3103 1.374 . S
C3103 H3083 0.950 . S
C3103 C3099 1.385 . S
C3103 C3102 1.374 . S
C3104 C3101 1.499 . S
C3104 C3105 1.373 . S
C3104 C3106 1.389 . S
C3105 H3084 0.950 . S
C3105 C3104 1.373 . S
C3105 C3121 1.377 . S
C3106 C3104 1.389 . S
C3106 C3107 1.524 . S
C3106 C3120 1.377 . S
C3107 C3106 1.524 . S
C3107 C3108 1.397 . S
C3107 C3112 1.363 . S
C3108 H3085 0.950 . S
C3108 C3107 1.397 . S
C3108 C3109 1.334 . S
C3109 H3086 0.950 . S
C3109 C3108 1.334 . S
C3109 C3110 1.287 . S
C3110 C3109 1.287 . S
C3110 C3111 1.524 . S
C3110 H3129 0.913 . S
C3111 H3087 0.950 . S
C3111 C3110 1.524 . S
C3111 C3112 1.415 . S
C3112 H3088 0.950 . S
C3112 C3107 1.363 . S
C3112 C3111 1.415 . S
C3113 H3089 0.951 . S
C3113 C3114 1.366 . S
C3113 C3115 1.388 . S
C3114 C3113 1.366 . S
C3114 C3118 1.385 . S
C3115 H3090 0.951 . S
C3115 C3113 1.388 . S
C3115 C3116 1.366 . S
C3116 C3115 1.366 . S
C3116 C3117 1.414 . S
C3116 C3119 1.499 . S
C3117 H3091 0.950 . S
C3117 C3116 1.414 . S
C3117 C3118 1.374 . S
C3118 H3092 0.950 . S
C3118 C3114 1.385 . S
C3118 C3117 1.374 . S
C3119 C3116 1.499 . S
C3119 C3120 1.373 . S
C3119 C3121 1.389 . S
C3120 H3093 0.950 . S
C3120 C3106 1.377 . S
C3120 C3119 1.373 . S
C3121 C3105 1.377 . S
C3121 C3119 1.389 . S
C3121 C3122 1.524 . S
C3122 C3121 1.524 . S
C3122 C3123 1.397 . S
C3122 C3127 1.363 . S
C3123 H3094 0.950 . S
C3123 C3122 1.397 . S
C3123 C3124 1.334 . S
C3124 H3095 0.950 . S
C3124 C3123 1.334 . S
C3124 C3125 1.287 . S
C3125 C3124 1.287 . S
C3125 C3126 1.524 . S
C3125 H3128 0.999 . S
C3126 H3096 0.950 . S
C3126 C3125 1.524 . S
C3126 C3127 1.415 . S
C3127 H3097 0.950 . S
C3127 C3122 1.363 . S
C3127 C3126 1.415 . S
H3128 C3125 0.999 . S
H3129 C3110 0.913 . S
H3130 C3148 0.951 . S
H3131 C3150 0.951 . S
H3132 C3152 0.950 . S
H3133 C3153 0.950 . S
H3134 C3155 0.950 . S
H3135 C3158 0.950 . S
H3136 C3159 0.950 . S
H3137 C3161 0.950 . S
H3138 C3162 0.950 . S
H3139 C3163 0.951 . S
H3140 C3165 0.951 . S
H3141 C3167 0.950 . S
H3142 C3168 0.950 . S
H3143 C3170 0.950 . S
H3144 C3173 0.950 . S
H3145 C3174 0.950 . S
H3146 C3176 0.950 . S
H3147 C3177 0.950 . S
C3148 H3130 0.951 . S
C3148 C3149 1.366 . S
C3148 C3150 1.388 . S
C3149 C3148 1.366 . S
C3149 C3153 1.385 . S
C3150 H3131 0.951 . S
C3150 C3148 1.388 . S
C3150 C3151 1.366 . S
C3151 C3150 1.366 . S
C3151 C3152 1.414 . S
C3151 C3154 1.499 . S
C3152 H3132 0.950 . S
C3152 C3151 1.414 . S
C3152 C3153 1.374 . S
C3153 H3133 0.950 . S
C3153 C3149 1.385 . S
C3153 C3152 1.374 . S
C3154 C3151 1.499 . S
C3154 C3155 1.373 . S
C3154 C3156 1.389 . S
C3155 H3134 0.950 . S
C3155 C3154 1.373 . S
C3155 C3171 1.377 . S
C3156 C3154 1.389 . S
C3156 C3157 1.524 . S
C3156 C3170 1.377 . S
C3157 C3156 1.524 . S
C3157 C3158 1.397 . S
C3157 C3162 1.363 . S
C3158 H3135 0.950 . S
C3158 C3157 1.397 . S
C3158 C3159 1.334 . S
C3159 H3136 0.950 . S
C3159 C3158 1.334 . S
C3159 C3160 1.287 . S
C3160 C3159 1.287 . S
C3160 C3161 1.524 . S
C3160 H3179 0.913 . S
C3161 H3137 0.950 . S
C3161 C3160 1.524 . S
C3161 C3162 1.415 . S
C3162 H3138 0.950 . S
C3162 C3157 1.363 . S
C3162 C3161 1.415 . S
C3163 H3139 0.951 . S
C3163 C3164 1.366 . S
C3163 C3165 1.388 . S
C3164 C3163 1.366 . S
C3164 C3168 1.385 . S
C3165 H3140 0.951 . S
C3165 C3163 1.388 . S
C3165 C3166 1.366 . S
C3166 C3165 1.366 . S
C3166 C3167 1.414 . S
C3166 C3169 1.499 . S
C3167 H3141 0.950 . S
C3167 C3166 1.414 . S
C3167 C3168 1.374 . S
C3168 H3142 0.950 . S
C3168 C3164 1.385 . S
C3168 C3167 1.374 . S
C3169 C3166 1.499 . S
C3169 C3170 1.373 . S
C3169 C3171 1.389 . S
C3170 H3143 0.950 . S
C3170 C3156 1.377 . S
C3170 C3169 1.373 . S
C3171 C3155 1.377 . S
C3171 C3169 1.389 . S
C3171 C3172 1.524 . S
C3172 C3171 1.524 . S
C3172 C3173 1.397 . S
C3172 C3177 1.363 . S
C3173 H3144 0.950 . S
C3173 C3172 1.397 . S
C3173 C3174 1.334 . S
C3174 H3145 0.950 . S
C3174 C3173 1.334 . S
C3174 C3175 1.287 . S
C3175 C3174 1.287 . S
C3175 C3176 1.524 . S
C3175 H3178 0.999 . S
C3176 H3146 0.950 . S
C3176 C3175 1.524 . S
C3176 C3177 1.415 . S
C3177 H3147 0.950 . S
C3177 C3172 1.363 . S
C3177 C3176 1.415 . S
H3178 C3175 0.999 . S
H3179 C3160 0.913 . S
H3180 C3198 0.951 . S
H3181 C3200 0.951 . S
H3182 C3202 0.950 . S
H3183 C3203 0.950 . S
H3184 C3205 0.950 . S
H3185 C3208 0.950 . S
H3186 C3209 0.950 . S
H3187 C3211 0.950 . S
H3188 C3212 0.950 . S
H3189 C3213 0.950 1_545 S
H3190 C3215 0.951 . S
H3191 C3217 0.950 . S
H3192 C3218 0.930 1_554 S
H3193 C3220 0.950 . S
H3194 C3223 0.950 . S
H3195 C3224 0.950 . S
H3196 C3226 0.950 . S
H3197 C3227 0.950 . S
C3198 H3180 0.951 . S
C3198 C3199 1.366 . S
C3198 C3200 1.388 . S
C3199 C3198 1.366 . S
C3199 C3203 1.385 . S
C3200 H3181 0.951 . S
C3200 C3198 1.388 . S
C3200 C3201 1.366 . S
C3201 C3200 1.366 . S
C3201 C3202 1.414 . S
C3201 C3204 1.499 . S
C3202 H3182 0.950 . S
C3202 C3201 1.414 . S
C3202 C3203 1.374 . S
C3203 H3183 0.950 . S
C3203 C3199 1.385 . S
C3203 C3202 1.374 . S
C3204 C3201 1.499 . S
C3204 C3205 1.373 . S
C3204 C3206 1.389 . S
C3205 H3184 0.950 . S
C3205 C3204 1.373 . S
C3205 C3221 1.377 . S
C3206 C3204 1.389 . S
C3206 C3207 1.524 . S
C3206 C3220 1.377 . S
C3207 C3206 1.524 . S
C3207 C3208 1.397 . S
C3207 C3212 1.363 . S
C3208 H3185 0.950 . S
C3208 C3207 1.397 . S
C3208 C3209 1.334 . S
C3209 H3186 0.950 . S
C3209 C3208 1.334 . S
C3209 C3210 1.287 . S
C3210 C3209 1.287 . S
C3210 C3211 1.524 . S
C3210 H3229 0.913 . S
C3211 H3187 0.950 . S
C3211 C3210 1.524 . S
C3211 C3212 1.415 . S
C3212 H3188 0.950 . S
C3212 C3207 1.363 . S
C3212 C3211 1.415 . S
C3213 H3189 0.950 1_565 S
C3213 C3214 1.366 . S
C3213 C3215 1.389 . S
C3214 C3213 1.366 . S
C3214 C3218 1.394 . S
C3215 H3190 0.951 . S
C3215 C3213 1.389 . S
C3215 C3216 1.366 . S
C3216 C3215 1.366 . S
C3216 C3217 1.414 . S
C3216 C3219 1.499 . S
C3217 H3191 0.950 . S
C3217 C3216 1.414 . S
C3217 C3218 1.385 . S
C3218 H3192 0.930 1_556 S
C3218 C3214 1.394 . S
C3218 C3217 1.385 . S
C3219 C3216 1.499 . S
C3219 C3220 1.373 . S
C3219 C3221 1.389 . S
C3220 H3193 0.950 . S
C3220 C3206 1.377 . S
C3220 C3219 1.373 . S
C3221 C3205 1.377 . S
C3221 C3219 1.389 . S
C3221 C3222 1.524 . S
C3222 C3221 1.524 . S
C3222 C3223 1.397 . S
C3222 C3227 1.363 . S
C3223 H3194 0.950 . S
C3223 C3222 1.397 . S
C3223 C3224 1.334 1_556 S
C3224 H3195 0.950 . S
C3224 C3223 1.334 1_554 S
C3224 C3225 1.287 1_554 S
C3225 C3224 1.287 1_556 S
C3225 C3226 1.524 . S
C3225 H3228 1.029 . S
C3226 H3196 0.950 . S
C3226 C3225 1.524 . S
C3226 C3227 1.415 . S
C3227 H3197 0.950 . S
C3227 C3222 1.363 . S
C3227 C3226 1.415 . S
H3228 C3225 1.029 . S
H3229 C3210 0.913 . S
H3230 C3248 0.951 . S
H3231 C3250 0.951 . S
H3232 C3252 0.950 . S
H3233 C3253 0.950 . S
H3234 C3255 0.950 . S
H3235 C3258 0.950 . S
H3236 C3259 0.950 . S
H3237 C3261 0.950 . S
H3238 C3262 0.950 . S
H3239 C3263 0.951 . S
H3240 C3265 0.951 . S
H3241 C3267 0.950 . S
H3242 C3268 0.950 . S
H3243 C3270 0.950 . S
H3244 C3273 0.950 . S
H3245 C3274 0.950 . S
H3246 C3276 0.950 . S
H3247 C3277 0.950 . S
C3248 H3230 0.951 . S
C3248 C3249 1.366 . S
C3248 C3250 1.388 . S
C3249 C3248 1.366 . S
C3249 C3253 1.385 . S
C3250 H3231 0.951 . S
C3250 C3248 1.388 . S
C3250 C3251 1.366 . S
C3251 C3250 1.366 . S
C3251 C3252 1.414 . S
C3251 C3254 1.499 . S
C3252 H3232 0.950 . S
C3252 C3251 1.414 . S
C3252 C3253 1.374 . S
C3253 H3233 0.950 . S
C3253 C3249 1.385 . S
C3253 C3252 1.374 . S
C3254 C3251 1.499 . S
C3254 C3255 1.373 . S
C3254 C3256 1.389 . S
C3255 H3234 0.950 . S
C3255 C3254 1.373 . S
C3255 C3271 1.377 . S
C3256 C3254 1.389 . S
C3256 C3257 1.524 . S
C3256 C3270 1.377 . S
C3257 C3256 1.524 . S
C3257 C3258 1.397 . S
C3257 C3262 1.363 . S
C3258 H3235 0.950 . S
C3258 C3257 1.397 . S
C3258 C3259 1.334 . S
C3259 H3236 0.950 . S
C3259 C3258 1.334 . S
C3259 C3260 1.287 . S
C3260 C3259 1.287 . S
C3260 C3261 1.524 . S
C3260 H3279 0.913 . S
C3261 H3237 0.950 . S
C3261 C3260 1.524 . S
C3261 C3262 1.415 . S
C3262 H3238 0.950 . S
C3262 C3257 1.363 . S
C3262 C3261 1.415 . S
C3263 H3239 0.951 . S
C3263 C3264 1.366 . S
C3263 C3265 1.388 . S
C3264 C3263 1.366 . S
C3264 C3268 1.385 . S
C3265 H3240 0.951 . S
C3265 C3263 1.388 . S
C3265 C3266 1.366 . S
C3266 C3265 1.366 . S
C3266 C3267 1.414 . S
C3266 C3269 1.499 . S
C3267 H3241 0.950 . S
C3267 C3266 1.414 . S
C3267 C3268 1.374 . S
C3268 H3242 0.950 . S
C3268 C3264 1.385 . S
C3268 C3267 1.374 . S
C3269 C3266 1.499 . S
C3269 C3270 1.373 . S
C3269 C3271 1.389 . S
C3270 H3243 0.950 . S
C3270 C3256 1.377 . S
C3270 C3269 1.373 . S
C3271 C3255 1.377 . S
C3271 C3269 1.389 . S
C3271 C3272 1.524 . S
C3272 C3271 1.524 . S
C3272 C3273 1.397 . S
C3272 C3277 1.363 . S
C3273 H3244 0.950 . S
C3273 C3272 1.397 . S
C3273 C3274 1.334 . S
C3274 H3245 0.950 . S
C3274 C3273 1.334 . S
C3274 C3275 1.287 . S
C3275 C3274 1.287 . S
C3275 C3276 1.524 . S
C3275 H3278 0.999 . S
C3276 H3246 0.950 . S
C3276 C3275 1.524 . S
C3276 C3277 1.415 . S
C3277 H3247 0.950 . S
C3277 C3272 1.363 . S
C3277 C3276 1.415 . S
H3278 C3275 0.999 . S
H3279 C3260 0.913 . S
H3280 C3298 0.951 . S
H3281 C3300 0.951 . S
H3282 C3302 0.950 . S
H3283 C3303 0.950 . S
H3284 C3305 0.950 . S
H3285 C3308 0.950 . S
H3286 C3309 0.950 . S
H3287 C3311 0.950 . S
H3288 C3312 0.950 . S
H3289 C3313 0.951 . S
H3290 C3315 0.951 . S
H3291 C3317 0.919 1_565 S
H3292 C3318 0.950 . S
H3293 C3320 0.950 . S
H3294 C3323 0.950 . S
H3295 C3324 0.950 . S
H3296 C3326 0.950 . S
H3297 C3327 0.950 . S
C3298 H3280 0.951 . S
C3298 C3299 1.366 1_565 S
C3298 C3300 1.388 . S
C3299 C3298 1.366 1_545 S
C3299 C3303 1.385 . S
C3300 H3281 0.951 . S
C3300 C3298 1.388 . S
C3300 C3301 1.366 1_565 S
C3301 C3300 1.366 1_545 S
C3301 C3302 1.414 . S
C3301 C3304 1.499 . S
C3302 H3282 0.950 . S
C3302 C3301 1.414 . S
C3302 C3303 1.374 . S
C3303 H3283 0.950 . S
C3303 C3299 1.385 . S
C3303 C3302 1.374 . S
C3304 C3301 1.499 . S
C3304 C3305 1.373 . S
C3304 C3306 1.389 1_545 S
C3305 H3284 0.950 . S
C3305 C3304 1.373 . S
C3305 C3321 1.377 . S
C3306 C3304 1.389 1_565 S
C3306 C3307 1.524 . S
C3306 C3320 1.377 . S
C3307 C3306 1.524 . S
C3307 C3308 1.397 . S
C3307 C3312 1.363 . S
C3308 H3285 0.950 . S
C3308 C3307 1.397 . S
C3308 C3309 1.334 . S
C3309 H3286 0.950 . S
C3309 C3308 1.334 . S
C3309 C3310 1.287 . S
C3310 C3309 1.287 . S
C3310 C3311 1.524 . S
C3310 H3329 0.913 . S
C3311 H3287 0.950 . S
C3311 C3310 1.524 . S
C3311 C3312 1.415 . S
C3312 H3288 0.950 . S
C3312 C3307 1.363 . S
C3312 C3311 1.415 . S
C3313 H3289 0.951 . S
C3313 C3314 1.366 . S
C3313 C3315 1.388 . S
C3314 C3313 1.366 . S
C3314 C3318 1.385 . S
C3315 H3290 0.951 . S
C3315 C3313 1.388 . S
C3315 C3316 1.366 . S
C3316 C3315 1.366 . S
C3316 C3317 1.414 . S
C3316 C3319 1.499 . S
C3317 H3291 0.919 1_545 S
C3317 C3316 1.414 . S
C3317 C3318 1.374 . S
C3318 H3292 0.950 . S
C3318 C3314 1.385 . S
C3318 C3317 1.374 . S
C3319 C3316 1.499 . S
C3319 C3320 1.373 1_545 S
C3319 C3321 1.389 . S
C3320 H3293 0.950 . S
C3320 C3306 1.377 . S
C3320 C3319 1.373 1_565 S
C3321 C3305 1.377 . S
C3321 C3319 1.389 . S
C3321 C3322 1.524 . S
C3322 C3321 1.524 . S
C3322 C3323 1.397 . S
C3322 C3327 1.363 . S
C3323 H3294 0.950 . S
C3323 C3322 1.397 . S
C3323 C3324 1.334 . S
C3324 H3295 0.950 . S
C3324 C3323 1.334 . S
C3324 C3325 1.287 . S
C3325 C3324 1.287 . S
C3325 C3326 1.524 . S
C3325 H3328 0.999 . S
C3326 H3296 0.950 . S
C3326 C3325 1.524 . S
C3326 C3327 1.415 . S
C3327 H3297 0.950 . S
C3327 C3322 1.363 . S
C3327 C3326 1.415 . S
H3328 C3325 0.999 . S
H3329 C3310 0.913 . S
H3330 C3348 0.951 . S
H3331 C3350 0.951 . S
H3332 C3352 0.950 . S
H3333 C3353 0.950 . S
H3334 C3355 0.950 . S
H3335 C3358 0.950 . S
H3336 C3359 0.950 . S
H3337 C3361 0.950 . S
H3338 C3362 0.950 . S
H3339 C3363 0.951 . S
H3340 C3365 0.951 . S
H3341 C3367 0.950 . S
H3342 C3368 0.950 . S
H3343 C3370 0.950 . S
H3344 C3373 0.950 . S
H3345 C3374 0.950 . S
H3346 C3376 0.950 . S
H3347 C3377 0.950 . S
C3348 H3330 0.951 . S
C3348 C3349 1.366 . S
C3348 C3350 1.388 . S
C3349 C3348 1.366 . S
C3349 C3353 1.385 . S
C3350 H3331 0.951 . S
C3350 C3348 1.388 . S
C3350 C3351 1.366 . S
C3351 C3350 1.366 . S
C3351 C3352 1.414 . S
C3351 C3354 1.499 . S
C3352 H3332 0.950 . S
C3352 C3351 1.414 . S
C3352 C3353 1.374 . S
C3353 H3333 0.950 . S
C3353 C3349 1.385 . S
C3353 C3352 1.374 . S
C3354 C3351 1.499 . S
C3354 C3355 1.373 . S
C3354 C3356 1.389 . S
C3355 H3334 0.950 . S
C3355 C3354 1.373 . S
C3355 C3371 1.377 . S
C3356 C3354 1.389 . S
C3356 C3357 1.524 . S
C3356 C3370 1.377 . S
C3357 C3356 1.524 . S
C3357 C3358 1.397 . S
C3357 C3362 1.363 . S
C3358 H3335 0.950 . S
C3358 C3357 1.397 . S
C3358 C3359 1.334 . S
C3359 H3336 0.950 . S
C3359 C3358 1.334 . S
C3359 C3360 1.287 . S
C3360 C3359 1.287 . S
C3360 C3361 1.524 . S
C3360 H3379 0.913 . S
C3361 H3337 0.950 . S
C3361 C3360 1.524 . S
C3361 C3362 1.415 . S
C3362 H3338 0.950 . S
C3362 C3357 1.363 . S
C3362 C3361 1.415 . S
C3363 H3339 0.951 . S
C3363 C3364 1.366 . S
C3363 C3365 1.388 . S
C3364 C3363 1.366 . S
C3364 C3368 1.385 . S
C3365 H3340 0.951 . S
C3365 C3363 1.388 . S
C3365 C3366 1.366 . S
C3366 C3365 1.366 . S
C3366 C3367 1.414 . S
C3366 C3369 1.499 . S
C3367 H3341 0.950 . S
C3367 C3366 1.414 . S
C3367 C3368 1.374 . S
C3368 H3342 0.950 . S
C3368 C3364 1.385 . S
C3368 C3367 1.374 . S
C3369 C3366 1.499 . S
C3369 C3370 1.373 . S
C3369 C3371 1.389 . S
C3370 H3343 0.950 . S
C3370 C3356 1.377 . S
C3370 C3369 1.373 . S
C3371 C3355 1.377 . S
C3371 C3369 1.389 . S
C3371 C3372 1.524 . S
C3372 C3371 1.524 . S
C3372 C3373 1.397 . S
C3372 C3377 1.363 . S
C3373 H3344 0.950 . S
C3373 C3372 1.397 . S
C3373 C3374 1.334 . S
C3374 H3345 0.950 . S
C3374 C3373 1.334 . S
C3374 C3375 1.287 . S
C3375 C3374 1.287 . S
C3375 C3376 1.524 . S
C3375 H3378 0.999 . S
C3376 H3346 0.950 . S
C3376 C3375 1.524 . S
C3376 C3377 1.415 . S
C3377 H3347 0.950 . S
C3377 C3372 1.363 . S
C3377 C3376 1.415 . S
H3378 C3375 0.999 . S
H3379 C3360 0.913 . S
H3380 C3398 0.951 . S
H3381 C3400 0.951 . S
H3382 C3402 0.950 . S
H3383 C3403 0.950 . S
H3384 C3405 0.950 . S
H3385 C3408 0.950 . S
H3386 C3409 0.950 . S
H3387 C3411 0.950 . S
H3388 C3412 0.950 . S
H3389 C3413 0.951 . S
H3390 C3415 0.951 . S
H3391 C3417 0.950 . S
H3392 C3418 0.950 . S
H3393 C3420 0.950 . S
H3394 C3423 0.950 . S
H3395 C3424 0.950 . S
H3396 C3426 0.950 . S
H3397 C3427 0.950 . S
C3398 H3380 0.951 . S
C3398 C3399 1.366 . S
C3398 C3400 1.388 . S
C3399 C3398 1.366 . S
C3399 C3403 1.385 . S
C3400 H3381 0.951 . S
C3400 C3398 1.388 . S
C3400 C3401 1.366 . S
C3401 C3400 1.366 . S
C3401 C3402 1.414 . S
C3401 C3404 1.499 . S
C3402 H3382 0.950 . S
C3402 C3401 1.414 . S
C3402 C3403 1.374 . S
C3403 H3383 0.950 . S
C3403 C3399 1.385 . S
C3403 C3402 1.374 . S
C3404 C3401 1.499 . S
C3404 C3405 1.373 . S
C3404 C3406 1.389 . S
C3405 H3384 0.950 . S
C3405 C3404 1.373 . S
C3405 C3421 1.377 . S
C3406 C3404 1.389 . S
C3406 C3407 1.524 . S
C3406 C3420 1.377 . S
C3407 C3406 1.524 . S
C3407 C3408 1.397 . S
C3407 C3412 1.363 1_545 S
C3408 H3385 0.950 . S
C3408 C3407 1.397 . S
C3408 C3409 1.334 1_545 S
C3409 H3386 0.950 . S
C3409 C3408 1.334 1_565 S
C3409 C3410 1.287 . S
C3410 C3409 1.287 . S
C3410 C3411 1.524 . S
C3410 H3429 0.913 . S
C3411 H3387 0.950 . S
C3411 C3410 1.524 . S
C3411 C3412 1.415 . S
C3412 H3388 0.950 . S
C3412 C3407 1.363 1_565 S
C3412 C3411 1.415 . S
C3413 H3389 0.951 . S
C3413 C3414 1.366 . S
C3413 C3415 1.388 . S
C3414 C3413 1.366 . S
C3414 C3418 1.385 . S
C3415 H3390 0.951 . S
C3415 C3413 1.388 . S
C3415 C3416 1.366 . S
C3416 C3415 1.366 . S
C3416 C3417 1.414 . S
C3416 C3419 1.499 . S
C3417 H3391 0.950 . S
C3417 C3416 1.414 . S
C3417 C3418 1.374 . S
C3418 H3392 0.950 . S
C3418 C3414 1.385 . S
C3418 C3417 1.374 . S
C3419 C3416 1.499 . S
C3419 C3420 1.373 . S
C3419 C3421 1.389 . S
C3420 H3393 0.950 . S
C3420 C3406 1.377 . S
C3420 C3419 1.373 . S
C3421 C3405 1.377 . S
C3421 C3419 1.389 . S
C3421 C3422 1.524 . S
C3422 C3421 1.524 . S
C3422 C3423 1.397 . S
C3422 C3427 1.363 . S
C3423 H3394 0.950 . S
C3423 C3422 1.397 . S
C3423 C3424 1.334 . S
C3424 H3395 0.950 . S
C3424 C3423 1.334 . S
C3424 C3425 1.287 . S
C3425 C3424 1.287 . S
C3425 C3426 1.524 . S
C3425 H3428 0.999 . S
C3426 H3396 0.950 . S
C3426 C3425 1.524 . S
C3426 C3427 1.415 . S
C3427 H3397 0.950 . S
C3427 C3422 1.363 . S
C3427 C3426 1.415 . S
H3428 C3425 0.999 . S
H3429 C3410 0.913 . S
H3430 C3448 0.951 . S
H3431 C3450 0.951 . S
H3432 C3452 0.950 . S
H3433 C3453 0.950 . S
H3434 C3455 0.950 . S
H3435 C3458 0.950 . S
H3436 C3459 0.950 . S
H3437 C3461 0.950 . S
H3438 C3462 0.950 . S
H3439 C3463 0.951 . S
H3440 C3465 0.951 . S
H3441 C3467 0.950 . S
H3442 C3468 0.950 . S
H3443 C3470 0.950 . S
H3444 C3473 0.950 . S
H3445 C3474 0.950 . S
H3446 C3476 0.950 . S
H3447 C3477 0.950 . S
C3448 H3430 0.951 . S
C3448 C3449 1.366 . S
C3448 C3450 1.388 . S
C3449 C3448 1.366 . S
C3449 C3453 1.385 . S
C3450 H3431 0.951 . S
C3450 C3448 1.388 . S
C3450 C3451 1.366 . S
C3451 C3450 1.366 . S
C3451 C3452 1.414 . S
C3451 C3454 1.499 . S
C3452 H3432 0.950 . S
C3452 C3451 1.414 . S
C3452 C3453 1.374 . S
C3453 H3433 0.950 . S
C3453 C3449 1.385 . S
C3453 C3452 1.374 . S
C3454 C3451 1.499 . S
C3454 C3455 1.373 . S
C3454 C3456 1.389 . S
C3455 H3434 0.950 . S
C3455 C3454 1.373 . S
C3455 C3471 1.377 . S
C3456 C3454 1.389 . S
C3456 C3457 1.524 . S
C3456 C3470 1.377 . S
C3457 C3456 1.524 . S
C3457 C3458 1.397 . S
C3457 C3462 1.363 . S
C3458 H3435 0.950 . S
C3458 C3457 1.397 . S
C3458 C3459 1.334 . S
C3459 H3436 0.950 . S
C3459 C3458 1.334 . S
C3459 C3460 1.287 . S
C3460 C3459 1.287 . S
C3460 C3461 1.524 . S
C3460 H3479 0.913 . S
C3461 H3437 0.950 . S
C3461 C3460 1.524 . S
C3461 C3462 1.415 . S
C3462 H3438 0.950 . S
C3462 C3457 1.363 . S
C3462 C3461 1.415 . S
C3463 H3439 0.951 . S
C3463 C3464 1.366 . S
C3463 C3465 1.388 . S
C3464 C3463 1.366 . S
C3464 C3468 1.385 . S
C3465 H3440 0.951 . S
C3465 C3463 1.388 . S
C3465 C3466 1.366 . S
C3466 C3465 1.366 . S
C3466 C3467 1.414 . S
C3466 C3469 1.499 . S
C3467 H3441 0.950 . S
C3467 C3466 1.414 . S
C3467 C3468 1.374 . S
C3468 H3442 0.950 . S
C3468 C3464 1.385 . S
C3468 C3467 1.374 . S
C3469 C3466 1.499 . S
C3469 C3470 1.373 . S
C3469 C3471 1.389 . S
C3470 H3443 0.950 . S
C3470 C3456 1.377 . S
C3470 C3469 1.373 . S
C3471 C3455 1.377 . S
C3471 C3469 1.389 . S
C3471 C3472 1.524 . S
C3472 C3471 1.524 . S
C3472 C3473 1.397 . S
C3472 C3477 1.363 . S
C3473 H3444 0.950 . S
C3473 C3472 1.397 . S
C3473 C3474 1.334 . S
C3474 H3445 0.950 . S
C3474 C3473 1.334 . S
C3474 C3475 1.287 . S
C3475 C3474 1.287 . S
C3475 C3476 1.524 . S
C3475 H3478 0.999 . S
C3476 H3446 0.950 . S
C3476 C3475 1.524 . S
C3476 C3477 1.415 . S
C3477 H3447 0.950 . S
C3477 C3472 1.363 . S
C3477 C3476 1.415 . S
H3478 C3475 0.999 . S
H3479 C3460 0.913 . S
H3480 C3498 0.951 . S
H3481 C3500 0.951 . S
H3482 C3502 0.950 . S
H3483 C3503 0.950 . S
H3484 C3505 0.950 . S
H3485 C3508 0.950 . S
H3486 C3509 0.950 . S
H3487 C3511 0.950 . S
H3488 C3512 0.950 . S
H3489 C3513 0.951 . S
H3490 C3515 0.951 . S
H3491 C3517 0.950 1_565 S
H3492 C3518 0.950 . S
H3493 C3520 0.950 . S
H3494 C3523 0.950 1_565 S
H3495 C3524 0.950 1_565 S
H3496 C3526 0.950 . S
H3497 C3527 0.950 . S
C3498 H3480 0.951 . S
C3498 C3499 1.366 . S
C3498 C3500 1.388 . S
C3499 C3498 1.366 . S
C3499 C3503 1.385 1_565 S
C3500 H3481 0.951 . S
C3500 C3498 1.388 . S
C3500 C3501 1.366 1_565 S
C3501 C3500 1.366 1_545 S
C3501 C3502 1.414 . S
C3501 C3504 1.499 . S
C3502 H3482 0.950 . S
C3502 C3501 1.414 . S
C3502 C3503 1.374 . S
C3503 H3483 0.950 . S
C3503 C3499 1.385 1_545 S
C3503 C3502 1.374 . S
C3504 C3501 1.499 . S
C3504 C3505 1.373 . S
C3504 C3506 1.389 . S
C3505 H3484 0.950 . S
C3505 C3504 1.373 . S
C3505 C3521 1.377 . S
C3506 C3504 1.389 . S
C3506 C3507 1.524 . S
C3506 C3520 1.377 . S
C3507 C3506 1.524 . S
C3507 C3508 1.397 . S
C3507 C3512 1.363 1_545 S
C3508 H3485 0.950 . S
C3508 C3507 1.397 . S
C3508 C3509 1.334 . S
C3509 H3486 0.950 . S
C3509 C3508 1.334 . S
C3509 C3510 1.287 . S
C3510 C3509 1.287 . S
C3510 C3511 1.524 1_545 S
C3510 H3529 0.913 . S
C3511 H3487 0.950 . S
C3511 C3510 1.524 1_565 S
C3511 C3512 1.415 . S
C3512 H3488 0.950 . S
C3512 C3507 1.363 1_565 S
C3512 C3511 1.415 . S
C3513 H3489 0.951 . S
C3513 C3514 1.366 . S
C3513 C3515 1.388 . S
C3514 C3513 1.366 . S
C3514 C3518 1.385 . S
C3515 H3490 0.951 . S
C3515 C3513 1.388 . S
C3515 C3516 1.366 . S
C3516 C3515 1.366 . S
C3516 C3517 1.414 . S
C3516 C3519 1.499 . S
C3517 H3491 0.950 1_545 S
C3517 C3516 1.414 . S
C3517 C3518 1.374 . S
C3518 H3492 0.950 . S
C3518 C3514 1.385 . S
C3518 C3517 1.374 . S
C3519 C3516 1.499 . S
C3519 C3520 1.373 . S
C3519 C3521 1.389 . S
C3520 H3493 0.950 . S
C3520 C3506 1.377 . S
C3520 C3519 1.373 . S
C3521 C3505 1.377 . S
C3521 C3519 1.389 . S
C3521 C3522 1.524 . S
C3522 C3521 1.524 . S
C3522 C3523 1.397 . S
C3522 C3527 1.363 . S
C3523 H3494 0.950 1_545 S
C3523 C3522 1.397 . S
C3523 C3524 1.334 . S
C3524 H3495 0.950 1_545 S
C3524 C3523 1.334 . S
C3524 C3525 1.287 . S
C3525 C3524 1.287 . S
C3525 C3526 1.524 . S
C3525 H3528 0.999 . S
C3526 H3496 0.950 . S
C3526 C3525 1.524 . S
C3526 C3527 1.415 . S
C3527 H3497 0.950 . S
C3527 C3522 1.363 . S
C3527 C3526 1.415 . S
H3528 C3525 0.999 . S
H3529 C3510 0.913 . S
H3530 C3548 0.951 . S
H3531 C3550 0.951 . S
H3532 C3552 0.950 . S
H3533 C3553 0.950 . S
H3534 C3555 0.950 . S
H3535 C3558 0.950 . S
H3536 C3559 0.950 . S
H3537 C3561 0.950 . S
H3538 C3562 0.950 . S
H3539 C3563 0.951 . S
H3540 C3565 0.951 . S
H3541 C3567 0.950 . S
H3542 C3568 0.950 . S
H3543 C3570 0.950 . S
H3544 C3573 0.950 . S
H3545 C3574 0.950 . S
H3546 C3576 0.950 . S
H3547 C3577 0.950 . S
C3548 H3530 0.951 . S
C3548 C3549 1.366 . S
C3548 C3550 1.388 . S
C3549 C3548 1.366 . S
C3549 C3553 1.385 . S
C3550 H3531 0.951 . S
C3550 C3548 1.388 . S
C3550 C3551 1.366 . S
C3551 C3550 1.366 . S
C3551 C3552 1.414 . S
C3551 C3554 1.499 . S
C3552 H3532 0.950 . S
C3552 C3551 1.414 . S
C3552 C3553 1.374 . S
C3553 H3533 0.950 . S
C3553 C3549 1.385 . S
C3553 C3552 1.374 . S
C3554 C3551 1.499 . S
C3554 C3555 1.373 . S
C3554 C3556 1.389 . S
C3555 H3534 0.950 . S
C3555 C3554 1.373 . S
C3555 C3571 1.377 . S
C3556 C3554 1.389 . S
C3556 C3557 1.524 . S
C3556 C3570 1.377 . S
C3557 C3556 1.524 . S
C3557 C3558 1.397 . S
C3557 C3562 1.363 . S
C3558 H3535 0.950 . S
C3558 C3557 1.397 . S
C3558 C3559 1.334 . S
C3559 H3536 0.950 . S
C3559 C3558 1.334 . S
C3559 C3560 1.287 . S
C3560 C3559 1.287 . S
C3560 C3561 1.524 . S
C3560 H3579 0.913 . S
C3561 H3537 0.950 . S
C3561 C3560 1.524 . S
C3561 C3562 1.415 . S
C3562 H3538 0.950 . S
C3562 C3557 1.363 . S
C3562 C3561 1.415 . S
C3563 H3539 0.951 . S
C3563 C3564 1.366 . S
C3563 C3565 1.388 . S
C3564 C3563 1.366 . S
C3564 C3568 1.385 . S
C3565 H3540 0.951 . S
C3565 C3563 1.388 . S
C3565 C3566 1.366 . S
C3566 C3565 1.366 . S
C3566 C3567 1.414 . S
C3566 C3569 1.499 . S
C3567 H3541 0.950 . S
C3567 C3566 1.414 . S
C3567 C3568 1.374 . S
C3568 H3542 0.950 . S
C3568 C3564 1.385 . S
C3568 C3567 1.374 . S
C3569 C3566 1.499 . S
C3569 C3570 1.373 . S
C3569 C3571 1.389 . S
C3570 H3543 0.950 . S
C3570 C3556 1.377 . S
C3570 C3569 1.373 . S
C3571 C3555 1.377 . S
C3571 C3569 1.389 . S
C3571 C3572 1.524 . S
C3572 C3571 1.524 . S
C3572 C3573 1.397 . S
C3572 C3577 1.363 . S
C3573 H3544 0.950 . S
C3573 C3572 1.397 . S
C3573 C3574 1.334 . S
C3574 H3545 0.950 . S
C3574 C3573 1.334 . S
C3574 C3575 1.287 . S
C3575 C3574 1.287 . S
C3575 C3576 1.524 . S
C3575 H3578 0.999 . S
C3576 H3546 0.950 . S
C3576 C3575 1.524 . S
C3576 C3577 1.415 . S
C3577 H3547 0.950 . S
C3577 C3572 1.363 . S
C3577 C3576 1.415 . S
H3578 C3575 0.999 . S
H3579 C3560 0.913 . S
H3580 C3598 0.951 1_565 S
H3581 C3600 0.951 1_565 S
H3582 C3602 0.950 . S
H3583 C3603 0.950 . S
H3584 C3605 0.950 . S
H3585 C3608 0.950 . S
H3586 C3609 0.950 . S
H3587 C3611 0.950 . S
H3588 C3612 0.950 . S
H3589 C3613 0.951 . S
H3590 C3615 0.951 . S
H3591 C3617 0.950 1_565 S
H3592 C3618 0.950 1_565 S
H3593 C3620 0.989 . S
H3594 C3623 0.950 . S
H3595 C3624 0.950 . S
H3596 C3626 0.950 . S
H3597 C3627 0.950 . S
C3598 H3580 0.951 1_545 S
C3598 C3599 1.366 . S
C3598 C3600 1.388 . S
C3599 C3598 1.366 . S
C3599 C3603 1.385 . S
C3600 H3581 0.951 1_545 S
C3600 C3598 1.388 . S
C3600 C3601 1.366 . S
C3601 C3600 1.366 . S
C3601 C3602 1.414 . S
C3601 C3604 1.499 . S
C3602 H3582 0.950 . S
C3602 C3601 1.414 . S
C3602 C3603 1.374 . S
C3603 H3583 0.950 . S
C3603 C3599 1.385 . S
C3603 C3602 1.374 . S
C3604 C3601 1.499 . S
C3604 C3605 1.373 . S
C3604 C3606 1.389 . S
C3605 H3584 0.950 . S
C3605 C3604 1.373 . S
C3605 C3621 1.377 . S
C3606 C3604 1.389 . S
C3606 C3607 1.524 1_545 S
C3606 C3620 1.377 . S
C3607 C3606 1.524 1_565 S
C3607 C3608 1.397 1_565 S
C3607 C3612 1.363 . S
C3608 H3585 0.950 . S
C3608 C3607 1.397 1_545 S
C3608 C3609 1.334 1_545 S
C3609 H3586 0.950 . S
C3609 C3608 1.334 1_565 S
C3609 C3610 1.287 . S
C3610 C3609 1.287 . S
C3610 C3611 1.524 . S
C3610 H3629 0.913 . S
C3611 H3587 0.950 . S
C3611 C3610 1.524 . S
C3611 C3612 1.415 . S
C3612 H3588 0.950 . S
C3612 C3607 1.363 . S
C3612 C3611 1.415 . S
C3613 H3589 0.951 . S
C3613 C3614 1.366 . S
C3613 C3615 1.388 . S
C3614 C3613 1.366 . S
C3614 C3618 1.385 . S
C3615 H3590 0.951 . S
C3615 C3613 1.388 . S
C3615 C3616 1.366 . S
C3616 C3615 1.366 . S
C3616 C3617 1.414 . S
C3616 C3619 1.499 . S
C3617 H3591 0.950 1_545 S
C3617 C3616 1.414 . S
C3617 C3618 1.374 . S
C3618 H3592 0.950 1_545 S
C3618 C3614 1.385 . S
C3618 C3617 1.374 . S
C3619 C3616 1.499 . S
C3619 C3620 1.373 . S
C3619 C3621 1.389 . S
C3620 H3593 0.989 . S
C3620 C3606 1.377 . S
C3620 C3619 1.373 . S
C3621 C3605 1.377 . S
C3621 C3619 1.389 . S
C3621 C3622 1.524 . S
C3622 C3621 1.524 . S
C3622 C3623 1.397 . S
C3622 C3627 1.363 . S
C3623 H3594 0.950 . S
C3623 C3622 1.397 . S
C3623 C3624 1.334 . S
C3624 H3595 0.950 . S
C3624 C3623 1.334 . S
C3624 C3625 1.287 . S
C3625 C3624 1.287 . S
C3625 C3626 1.524 . S
C3625 H3628 0.999 . S
C3626 H3596 0.950 . S
C3626 C3625 1.524 . S
C3626 C3627 1.415 . S
C3627 H3597 0.950 . S
C3627 C3622 1.363 . S
C3627 C3626 1.415 . S
H3628 C3625 0.999 . S
H3629 C3610 0.913 . S
H3630 C3648 0.951 . S
H3631 C3650 0.951 . S
H3632 C3652 0.950 . S
H3633 C3653 0.950 . S
H3634 C3655 0.950 . S
H3635 C3658 0.950 . S
H3636 C3659 0.950 . S
H3637 C3661 0.950 . S
H3638 C3662 0.950 . S
H3639 C3663 0.951 . S
H3640 C3665 0.951 . S
H3641 C3667 0.950 . S
H3642 C3668 0.950 . S
H3643 C3670 0.950 . S
H3644 C3673 0.950 . S
H3645 C3674 0.950 . S
H3646 C3676 0.950 . S
H3647 C3677 0.950 . S
C3648 H3630 0.951 . S
C3648 C3649 1.366 . S
C3648 C3650 1.388 . S
C3649 C3648 1.366 . S
C3649 C3653 1.385 . S
C3650 H3631 0.951 . S
C3650 C3648 1.388 . S
C3650 C3651 1.366 . S
C3651 C3650 1.366 . S
C3651 C3652 1.414 . S
C3651 C3654 1.499 . S
C3652 H3632 0.950 . S
C3652 C3651 1.414 . S
C3652 C3653 1.374 . S
C3653 H3633 0.950 . S
C3653 C3649 1.385 . S
C3653 C3652 1.374 . S
C3654 C3651 1.499 . S
C3654 C3655 1.373 . S
C3654 C3656 1.389 . S
C3655 H3634 0.950 . S
C3655 C3654 1.373 . S
C3655 C3671 1.377 . S
C3656 C3654 1.389 . S
C3656 C3657 1.524 . S
C3656 C3670 1.377 . S
C3657 C3656 1.524 . S
C3657 C3658 1.397 . S
C3657 C3662 1.363 . S
C3658 H3635 0.950 . S
C3658 C3657 1.397 . S
C3658 C3659 1.334 . S
C3659 H3636 0.950 . S
C3659 C3658 1.334 . S
C3659 C3660 1.287 . S
C3660 C3659 1.287 . S
C3660 C3661 1.524 . S
C3660 H3679 0.913 . S
C3661 H3637 0.950 . S
C3661 C3660 1.524 . S
C3661 C3662 1.415 . S
C3662 H3638 0.950 . S
C3662 C3657 1.363 . S
C3662 C3661 1.415 . S
C3663 H3639 0.951 . S
C3663 C3664 1.366 . S
C3663 C3665 1.388 . S
C3664 C3663 1.366 . S
C3664 C3668 1.385 . S
C3665 H3640 0.951 . S
C3665 C3663 1.388 . S
C3665 C3666 1.366 . S
C3666 C3665 1.366 . S
C3666 C3667 1.414 . S
C3666 C3669 1.499 . S
C3667 H3641 0.950 . S
C3667 C3666 1.414 . S
C3667 C3668 1.374 . S
C3668 H3642 0.950 . S
C3668 C3664 1.385 . S
C3668 C3667 1.374 . S
C3669 C3666 1.499 . S
C3669 C3670 1.373 . S
C3669 C3671 1.389 . S
C3670 H3643 0.950 . S
C3670 C3656 1.377 . S
C3670 C3669 1.373 . S
C3671 C3655 1.377 . S
C3671 C3669 1.389 . S
C3671 C3672 1.524 . S
C3672 C3671 1.524 . S
C3672 C3673 1.397 . S
C3672 C3677 1.363 . S
C3673 H3644 0.950 . S
C3673 C3672 1.397 . S
C3673 C3674 1.334 . S
C3674 H3645 0.950 . S
C3674 C3673 1.334 . S
C3674 C3675 1.287 . S
C3675 C3674 1.287 . S
C3675 C3676 1.524 . S
C3675 H3678 0.999 . S
C3676 H3646 0.950 . S
C3676 C3675 1.524 . S
C3676 C3677 1.415 . S
C3677 H3647 0.950 . S
C3677 C3672 1.363 . S
C3677 C3676 1.415 . S
H3678 C3675 0.999 . S
H3679 C3660 0.913 . S
H3680 C3698 0.951 . S
H3681 C3700 0.951 . S
H3682 C3702 0.950 . S
H3683 C3703 0.950 . S
H3684 C3705 0.950 . S
H3685 C3708 0.950 . S
H3686 C3709 0.950 . S
H3687 C3711 0.950 . S
H3688 C3712 0.950 . S
H3689 C3713 0.951 . S
H3690 C3715 0.951 . S
H3691 C3717 0.950 1_556 S
H3692 C3718 0.950 1_556 S
H3693 C3720 0.950 . S
H3694 C3723 0.950 . S
H3695 C3724 0.950 . S
H3696 C3726 0.950 . S
H3697 C3727 0.950 . S
C3698 H3680 0.951 . S
C3698 C3699 1.366 . S
C3698 C3700 1.388 . S
C3699 C3698 1.366 . S
C3699 C3703 1.385 . S
C3700 H3681 0.951 . S
C3700 C3698 1.388 . S
C3700 C3701 1.366 . S
C3701 C3700 1.366 . S
C3701 C3702 1.414 . S
C3701 C3704 1.499 . S
C3702 H3682 0.950 . S
C3702 C3701 1.414 . S
C3702 C3703 1.374 . S
C3703 H3683 0.950 . S
C3703 C3699 1.385 . S
C3703 C3702 1.374 . S
C3704 C3701 1.499 . S
C3704 C3705 1.373 . S
C3704 C3706 1.389 . S
C3705 H3684 0.950 . S
C3705 C3704 1.373 . S
C3705 C3721 1.377 . S
C3706 C3704 1.389 . S
C3706 C3707 1.524 . S
C3706 C3720 1.377 . S
C3707 C3706 1.524 . S
C3707 C3708 1.397 . S
C3707 C3712 1.363 . S
C3708 H3685 0.950 . S
C3708 C3707 1.397 . S
C3708 C3709 1.334 . S
C3709 H3686 0.950 . S
C3709 C3708 1.334 . S
C3709 C3710 1.287 . S
C3710 C3709 1.287 . S
C3710 C3711 1.524 . S
C3710 H3729 0.913 . S
C3711 H3687 0.950 . S
C3711 C3710 1.524 . S
C3711 C3712 1.415 . S
C3712 H3688 0.950 . S
C3712 C3707 1.363 . S
C3712 C3711 1.415 . S
C3713 H3689 0.951 . S
C3713 C3714 1.366 . S
C3713 C3715 1.388 . S
C3714 C3713 1.366 . S
C3714 C3718 1.385 . S
C3715 H3690 0.951 . S
C3715 C3713 1.388 . S
C3715 C3716 1.366 . S
C3716 C3715 1.366 . S
C3716 C3717 1.414 . S
C3716 C3719 1.499 . S
C3717 H3691 0.950 1_554 S
C3717 C3716 1.414 . S
C3717 C3718 1.374 . S
C3718 H3692 0.950 1_554 S
C3718 C3714 1.385 . S
C3718 C3717 1.374 . S
C3719 C3716 1.499 . S
C3719 C3720 1.373 . S
C3719 C3721 1.389 . S
C3720 H3693 0.950 . S
C3720 C3706 1.377 . S
C3720 C3719 1.373 . S
C3721 C3705 1.377 . S
C3721 C3719 1.389 . S
C3721 C3722 1.524 . S
C3722 C3721 1.524 . S
C3722 C3723 1.397 1_554 S
C3722 C3727 1.363 . S
C3723 H3694 0.950 . S
C3723 C3722 1.397 1_556 S
C3723 C3724 1.334 . S
C3724 H3695 0.950 . S
C3724 C3723 1.334 . S
C3724 C3725 1.287 . S
C3725 C3724 1.287 . S
C3725 C3726 1.524 1_556 S
C3725 H3728 0.999 . S
C3726 H3696 0.950 . S
C3726 C3725 1.524 1_554 S
C3726 C3727 1.415 . S
C3727 H3697 0.950 . S
C3727 C3722 1.363 . S
C3727 C3726 1.415 . S
H3728 C3725 0.999 . S
H3729 C3710 0.913 . S
H3730 C3748 0.951 . S
H3731 C3750 0.951 . S
H3732 C3752 0.950 . S
H3733 C3753 0.950 . S
H3734 C3755 0.950 . S
H3735 C3758 0.950 . S
H3736 C3759 0.950 . S
H3737 C3761 0.950 . S
H3738 C3762 0.950 1_556 S
H3739 C3763 0.951 . S
H3740 C3765 0.951 . S
H3741 C3767 0.950 . S
H3742 C3768 0.950 . S
H3743 C3770 0.950 . S
H3744 C3773 0.950 . S
H3745 C3774 0.950 . S
H3746 C3776 0.950 . S
H3747 C3777 0.950 . S
C3748 H3730 0.951 . S
C3748 C3749 1.366 . S
C3748 C3750 1.388 . S
C3749 C3748 1.366 . S
C3749 C3753 1.385 . S
C3750 H3731 0.951 . S
C3750 C3748 1.388 . S
C3750 C3751 1.366 . S
C3751 C3750 1.366 . S
C3751 C3752 1.414 . S
C3751 C3754 1.499 . S
C3752 H3732 0.950 . S
C3752 C3751 1.414 . S
C3752 C3753 1.374 . S
C3753 H3733 0.950 . S
C3753 C3749 1.385 . S
C3753 C3752 1.374 . S
C3754 C3751 1.499 . S
C3754 C3755 1.373 . S
C3754 C3756 1.389 . S
C3755 H3734 0.950 . S
C3755 C3754 1.373 . S
C3755 C3771 1.377 . S
C3756 C3754 1.389 . S
C3756 C3757 1.524 . S
C3756 C3770 1.377 . S
C3757 C3756 1.524 . S
C3757 C3758 1.397 . S
C3757 C3762 1.363 . S
C3758 H3735 0.950 . S
C3758 C3757 1.397 . S
C3758 C3759 1.334 . S
C3759 H3736 0.950 . S
C3759 C3758 1.334 . S
C3759 C3760 1.287 . S
C3760 C3759 1.287 . S
C3760 C3761 1.524 1_554 S
C3760 H3779 0.913 . S
C3761 H3737 0.950 . S
C3761 C3760 1.524 1_556 S
C3761 C3762 1.415 1_556 S
C3762 H3738 0.950 1_554 S
C3762 C3757 1.363 . S
C3762 C3761 1.415 1_554 S
C3763 H3739 0.951 . S
C3763 C3764 1.366 . S
C3763 C3765 1.388 . S
C3764 C3763 1.366 . S
C3764 C3768 1.385 . S
C3765 H3740 0.951 . S
C3765 C3763 1.388 . S
C3765 C3766 1.366 . S
C3766 C3765 1.366 . S
C3766 C3767 1.414 . S
C3766 C3769 1.499 . S
C3767 H3741 0.950 . S
C3767 C3766 1.414 . S
C3767 C3768 1.374 . S
C3768 H3742 0.950 . S
C3768 C3764 1.385 . S
C3768 C3767 1.374 . S
C3769 C3766 1.499 . S
C3769 C3770 1.373 . S
C3769 C3771 1.389 . S
C3770 H3743 0.950 . S
C3770 C3756 1.377 . S
C3770 C3769 1.373 . S
C3771 C3755 1.377 . S
C3771 C3769 1.389 . S
C3771 C3772 1.524 . S
C3772 C3771 1.524 . S
C3772 C3773 1.397 . S
C3772 C3777 1.363 . S
C3773 H3744 0.950 . S
C3773 C3772 1.397 . S
C3773 C3774 1.334 . S
C3774 H3745 0.950 . S
C3774 C3773 1.334 . S
C3774 C3775 1.287 . S
C3775 C3774 1.287 . S
C3775 C3776 1.524 . S
C3775 H3778 0.999 . S
C3776 H3746 0.950 . S
C3776 C3775 1.524 . S
C3776 C3777 1.415 . S
C3777 H3747 0.950 . S
C3777 C3772 1.363 . S
C3777 C3776 1.415 . S
H3778 C3775 0.999 . S
H3779 C3760 0.913 . S
H3780 C3798 0.951 . S
H3781 C3800 0.951 . S
H3782 C3802 0.950 . S
H3783 C3803 0.950 . S
H3784 C3805 0.950 . S
H3785 C3808 0.950 . S
H3786 C3809 0.950 . S
H3787 C3811 0.950 . S
H3788 C3812 0.950 . S
H3789 C3813 0.951 . S
H3790 C3815 0.951 . S
H3791 C3817 0.950 . S
H3792 C3818 0.950 . S
H3793 C3820 0.950 . S
H3794 C3823 0.950 . S
H3795 C3824 0.950 . S
H3796 C3826 0.950 . S
H3797 C3827 0.950 . S
C3798 H3780 0.951 . S
C3798 C3799 1.366 . S
C3798 C3800 1.388 . S
C3799 C3798 1.366 . S
C3799 C3803 1.385 . S
C3800 H3781 0.951 . S
C3800 C3798 1.388 . S
C3800 C3801 1.366 . S
C3801 C3800 1.366 . S
C3801 C3802 1.414 . S
C3801 C3804 1.499 . S
C3802 H3782 0.950 . S
C3802 C3801 1.414 . S
C3802 C3803 1.374 . S
C3803 H3783 0.950 . S
C3803 C3799 1.385 . S
C3803 C3802 1.374 . S
C3804 C3801 1.499 . S
C3804 C3805 1.373 . S
C3804 C3806 1.389 . S
C3805 H3784 0.950 . S
C3805 C3804 1.373 . S
C3805 C3821 1.377 . S
C3806 C3804 1.389 . S
C3806 C3807 1.524 . S
C3806 C3820 1.377 . S
C3807 C3806 1.524 . S
C3807 C3808 1.397 . S
C3807 C3812 1.363 . S
C3808 H3785 0.950 . S
C3808 C3807 1.397 . S
C3808 C3809 1.334 . S
C3809 H3786 0.950 . S
C3809 C3808 1.334 . S
C3809 C3810 1.287 . S
C3810 C3809 1.287 . S
C3810 C3811 1.524 . S
C3810 H3829 0.913 . S
C3811 H3787 0.950 . S
C3811 C3810 1.524 . S
C3811 C3812 1.415 . S
C3812 H3788 0.950 . S
C3812 C3807 1.363 . S
C3812 C3811 1.415 . S
C3813 H3789 0.951 . S
C3813 C3814 1.366 . S
C3813 C3815 1.388 . S
C3814 C3813 1.366 . S
C3814 C3818 1.385 . S
C3815 H3790 0.951 . S
C3815 C3813 1.388 . S
C3815 C3816 1.366 . S
C3816 C3815 1.366 . S
C3816 C3817 1.414 . S
C3816 C3819 1.499 . S
C3817 H3791 0.950 . S
C3817 C3816 1.414 . S
C3817 C3818 1.374 . S
C3818 H3792 0.950 . S
C3818 C3814 1.385 . S
C3818 C3817 1.374 . S
C3819 C3816 1.499 . S
C3819 C3820 1.373 . S
C3819 C3821 1.389 . S
C3820 H3793 0.950 . S
C3820 C3806 1.377 . S
C3820 C3819 1.373 . S
C3821 C3805 1.377 . S
C3821 C3819 1.389 . S
C3821 C3822 1.524 . S
C3822 C3821 1.524 . S
C3822 C3823 1.397 . S
C3822 C3827 1.363 . S
C3823 H3794 0.950 . S
C3823 C3822 1.397 . S
C3823 C3824 1.334 . S
C3824 H3795 0.950 . S
C3824 C3823 1.334 . S
C3824 C3825 1.287 . S
C3825 C3824 1.287 . S
C3825 C3826 1.524 . S
C3825 H3828 0.999 . S
C3826 H3796 0.950 . S
C3826 C3825 1.524 . S
C3826 C3827 1.415 . S
C3827 H3797 0.950 . S
C3827 C3822 1.363 . S
C3827 C3826 1.415 . S
H3828 C3825 0.999 . S
H3829 C3810 0.913 . S
H3830 C3848 0.951 . S
H3831 C3850 0.951 . S
H3832 C3852 0.950 . S
H3833 C3853 0.950 . S
H3834 C3855 0.950 . S
H3835 C3858 0.950 . S
H3836 C3859 0.950 . S
H3837 C3861 0.950 . S
H3838 C3862 0.950 . S
H3839 C3863 0.951 . S
H3840 C3865 0.951 . S
H3841 C3867 0.950 . S
H3842 C3868 0.950 . S
H3843 C3870 0.950 . S
H3844 C3873 0.950 . S
H3845 C3874 0.950 . S
H3846 C3876 0.950 . S
H3847 C3877 0.950 . S
C3848 H3830 0.951 . S
C3848 C3849 1.366 . S
C3848 C3850 1.388 . S
C3849 C3848 1.366 . S
C3849 C3853 1.385 . S
C3850 H3831 0.951 . S
C3850 C3848 1.388 . S
C3850 C3851 1.366 . S
C3851 C3850 1.366 . S
C3851 C3852 1.414 . S
C3851 C3854 1.499 . S
C3852 H3832 0.950 . S
C3852 C3851 1.414 . S
C3852 C3853 1.374 . S
C3853 H3833 0.950 . S
C3853 C3849 1.385 . S
C3853 C3852 1.374 . S
C3854 C3851 1.499 . S
C3854 C3855 1.373 . S
C3854 C3856 1.389 . S
C3855 H3834 0.950 . S
C3855 C3854 1.373 . S
C3855 C3871 1.377 . S
C3856 C3854 1.389 . S
C3856 C3857 1.524 . S
C3856 C3870 1.377 . S
C3857 C3856 1.524 . S
C3857 C3858 1.397 . S
C3857 C3862 1.363 . S
C3858 H3835 0.950 . S
C3858 C3857 1.397 . S
C3858 C3859 1.334 . S
C3859 H3836 0.950 . S
C3859 C3858 1.334 . S
C3859 C3860 1.287 . S
C3860 C3859 1.287 . S
C3860 C3861 1.524 . S
C3860 H3879 0.913 . S
C3861 H3837 0.950 . S
C3861 C3860 1.524 . S
C3861 C3862 1.415 . S
C3862 H3838 0.950 . S
C3862 C3857 1.363 . S
C3862 C3861 1.415 . S
C3863 H3839 0.951 . S
C3863 C3864 1.366 . S
C3863 C3865 1.388 . S
C3864 C3863 1.366 . S
C3864 C3868 1.385 . S
C3865 H3840 0.951 . S
C3865 C3863 1.388 . S
C3865 C3866 1.366 . S
C3866 C3865 1.366 . S
C3866 C3867 1.414 . S
C3866 C3869 1.499 . S
C3867 H3841 0.950 . S
C3867 C3866 1.414 . S
C3867 C3868 1.374 . S
C3868 H3842 0.950 . S
C3868 C3864 1.385 . S
C3868 C3867 1.374 . S
C3869 C3866 1.499 . S
C3869 C3870 1.373 . S
C3869 C3871 1.389 . S
C3870 H3843 0.950 . S
C3870 C3856 1.377 . S
C3870 C3869 1.373 . S
C3871 C3855 1.377 . S
C3871 C3869 1.389 . S
C3871 C3872 1.524 . S
C3872 C3871 1.524 . S
C3872 C3873 1.397 . S
C3872 C3877 1.363 . S
C3873 H3844 0.950 . S
C3873 C3872 1.397 . S
C3873 C3874 1.334 . S
C3874 H3845 0.950 . S
C3874 C3873 1.334 . S
C3874 C3875 1.287 . S
C3875 C3874 1.287 . S
C3875 C3876 1.524 . S
C3875 H3878 0.999 . S
C3876 H3846 0.950 . S
C3876 C3875 1.524 . S
C3876 C3877 1.415 . S
C3877 H3847 0.950 . S
C3877 C3872 1.363 . S
C3877 C3876 1.415 . S
H3878 C3875 0.999 . S
H3879 C3860 0.913 . S
H3880 C3898 0.945 . S
H3881 C3900 0.951 . S
H3882 C3902 0.950 . S
H3883 C3903 0.950 . S
H3884 C3905 0.950 . S
H3885 C3908 0.950 . S
H3886 C3909 0.950 . S
H3887 C3911 0.950 . S
H3888 C3912 0.950 . S
H3889 C3913 0.951 . S
H3890 C3915 0.951 . S
H3891 C3917 0.950 . S
H3892 C3918 0.950 . S
H3893 C3920 0.950 . S
H3894 C3923 0.950 . S
H3895 C3924 0.950 . S
H3896 C3926 0.950 . S
H3897 C3927 0.950 . S
C3898 H3880 0.945 . S
C3898 C3899 1.365 1_545 S
C3898 C3900 1.394 1_545 S
C3899 C3898 1.365 1_565 S
C3899 C3903 1.385 . S
C3900 H3881 0.951 . S
C3900 C3898 1.394 1_565 S
C3900 C3901 1.366 . S
C3901 C3900 1.366 . S
C3901 C3902 1.414 . S
C3901 C3904 1.499 . S
C3902 H3882 0.950 . S
C3902 C3901 1.414 . S
C3902 C3903 1.374 . S
C3903 H3883 0.950 . S
C3903 C3899 1.385 . S
C3903 C3902 1.374 . S
C3904 C3901 1.499 . S
C3904 C3905 1.373 . S
C3904 C3906 1.389 . S
C3905 H3884 0.950 . S
C3905 C3904 1.373 . S
C3905 C3921 1.377 . S
C3906 C3904 1.389 . S
C3906 C3907 1.524 . S
C3906 C3920 1.377 . S
C3907 C3906 1.524 . S
C3907 C3908 1.397 . S
C3907 C3912 1.363 . S
C3908 H3885 0.950 . S
C3908 C3907 1.397 . S
C3908 C3909 1.334 . S
C3909 H3886 0.950 . S
C3909 C3908 1.334 . S
C3909 C3910 1.287 . S
C3910 C3909 1.287 . S
C3910 C3911 1.524 . S
C3910 H3929 0.913 . S
C3911 H3887 0.950 . S
C3911 C3910 1.524 . S
C3911 C3912 1.415 . S
C3912 H3888 0.950 . S
C3912 C3907 1.363 . S
C3912 C3911 1.415 . S
C3913 H3889 0.951 . S
C3913 C3914 1.366 . S
C3913 C3915 1.388 . S
C3914 C3913 1.366 . S
C3914 C3918 1.385 . S
C3915 H3890 0.951 . S
C3915 C3913 1.388 . S
C3915 C3916 1.366 . S
C3916 C3915 1.366 . S
C3916 C3917 1.414 . S
C3916 C3919 1.499 . S
C3917 H3891 0.950 . S
C3917 C3916 1.414 . S
C3917 C3918 1.374 . S
C3918 H3892 0.950 . S
C3918 C3914 1.385 . S
C3918 C3917 1.374 . S
C3919 C3916 1.499 . S
C3919 C3920 1.373 . S
C3919 C3921 1.389 . S
C3920 H3893 0.950 . S
C3920 C3906 1.377 . S
C3920 C3919 1.373 . S
C3921 C3905 1.377 . S
C3921 C3919 1.389 . S
C3921 C3922 1.524 . S
C3922 C3921 1.524 . S
C3922 C3923 1.397 . S
C3922 C3927 1.363 . S
C3923 H3894 0.950 . S
C3923 C3922 1.397 . S
C3923 C3924 1.334 . S
C3924 H3895 0.950 . S
C3924 C3923 1.334 . S
C3924 C3925 1.287 . S
C3925 C3924 1.287 . S
C3925 C3926 1.524 . S
C3925 H3928 0.999 . S
C3926 H3896 0.950 . S
C3926 C3925 1.524 . S
C3926 C3927 1.415 . S
C3927 H3897 0.950 . S
C3927 C3922 1.363 . S
C3927 C3926 1.415 . S
H3928 C3925 0.999 . S
H3929 C3910 0.913 . S
H3930 C3948 0.951 . S
H3931 C3950 0.951 . S
H3932 C3952 0.950 . S
H3933 C3953 0.950 . S
H3934 C3955 0.950 . S
H3935 C3958 0.950 . S
H3936 C3959 0.950 . S
H3937 C3961 0.899 1_545 S
H3938 C3962 0.950 . S
H3939 C3963 0.951 . S
H3940 C3965 0.951 . S
H3941 C3967 0.950 . S
H3942 C3968 0.950 1_545 S
H3943 C3970 0.950 . S
H3944 C3973 0.950 . S
H3945 C3974 0.950 . S
H3946 C3976 0.950 . S
H3947 C3977 0.950 . S
C3948 H3930 0.951 . S
C3948 C3949 1.366 . S
C3948 C3950 1.388 . S
C3949 C3948 1.366 . S
C3949 C3953 1.385 . S
C3950 H3931 0.951 . S
C3950 C3948 1.388 . S
C3950 C3951 1.366 . S
C3951 C3950 1.366 . S
C3951 C3952 1.414 . S
C3951 C3954 1.499 . S
C3952 H3932 0.950 . S
C3952 C3951 1.414 . S
C3952 C3953 1.374 . S
C3953 H3933 0.950 . S
C3953 C3949 1.385 . S
C3953 C3952 1.374 . S
C3954 C3951 1.499 . S
C3954 C3955 1.373 . S
C3954 C3956 1.389 . S
C3955 H3934 0.950 . S
C3955 C3954 1.373 . S
C3955 C3971 1.377 . S
C3956 C3954 1.389 . S
C3956 C3957 1.524 . S
C3956 C3970 1.377 . S
C3957 C3956 1.524 . S
C3957 C3958 1.397 . S
C3957 C3962 1.363 . S
C3958 H3935 0.950 . S
C3958 C3957 1.397 . S
C3958 C3959 1.334 . S
C3959 H3936 0.950 . S
C3959 C3958 1.334 . S
C3959 C3960 1.287 . S
C3960 C3959 1.287 . S
C3960 C3961 1.524 . S
C3960 H3979 0.913 . S
C3961 H3937 0.899 1_565 S
C3961 C3960 1.524 . S
C3961 C3962 1.415 . S
C3962 H3938 0.950 . S
C3962 C3957 1.363 . S
C3962 C3961 1.415 . S
C3963 H3939 0.951 . S
C3963 C3964 1.366 . S
C3963 C3965 1.388 . S
C3964 C3963 1.366 . S
C3964 C3968 1.385 . S
C3965 H3940 0.951 . S
C3965 C3963 1.388 . S
C3965 C3966 1.366 . S
C3966 C3965 1.366 . S
C3966 C3967 1.414 . S
C3966 C3969 1.499 . S
C3967 H3941 0.950 . S
C3967 C3966 1.414 . S
C3967 C3968 1.374 . S
C3968 H3942 0.950 1_565 S
C3968 C3964 1.385 . S
C3968 C3967 1.374 . S
C3969 C3966 1.499 . S
C3969 C3970 1.373 . S
C3969 C3971 1.389 . S
C3970 H3943 0.950 . S
C3970 C3956 1.377 . S
C3970 C3969 1.373 . S
C3971 C3955 1.377 . S
C3971 C3969 1.389 . S
C3971 C3972 1.524 . S
C3972 C3971 1.524 . S
C3972 C3973 1.397 . S
C3972 C3977 1.363 . S
C3973 H3944 0.950 . S
C3973 C3972 1.397 . S
C3973 C3974 1.334 . S
C3974 H3945 0.950 . S
C3974 C3973 1.334 . S
C3974 C3975 1.287 . S
C3975 C3974 1.287 . S
C3975 C3976 1.524 . S
C3975 H3978 0.999 . S
C3976 H3946 0.950 . S
C3976 C3975 1.524 . S
C3976 C3977 1.415 . S
C3977 H3947 0.950 . S
C3977 C3972 1.363 . S
C3977 C3976 1.415 . S
H3978 C3975 0.999 . S
H3979 C3960 0.913 . S
H3980 C3998 0.951 . S
H3981 C4000 0.951 . S
H3982 C4002 0.950 . S
H3983 C4003 0.950 . S
H3984 C4005 0.950 . S
H3985 C4008 0.950 . S
H3986 C4009 0.950 . S
H3987 C4011 0.950 . S
H3988 C4012 0.950 . S
H3989 C4013 0.951 . S
H3990 C4015 0.951 . S
H3991 C4017 0.950 . S
H3992 C4018 0.950 . S
H3993 C4020 0.950 . S
H3994 C4023 0.950 . S
H3995 C4024 0.950 . S
H3996 C4026 0.950 . S
H3997 C4027 0.950 . S
C3998 H3980 0.951 . S
C3998 C3999 1.366 . S
C3998 C4000 1.388 . S
C3999 C3998 1.366 . S
C3999 C4003 1.385 . S
C4000 H3981 0.951 . S
C4000 C3998 1.388 . S
C4000 C4001 1.366 . S
C4001 C4000 1.366 . S
C4001 C4002 1.414 . S
C4001 C4004 1.499 . S
C4002 H3982 0.950 . S
C4002 C4001 1.414 . S
C4002 C4003 1.374 . S
C4003 H3983 0.950 . S
C4003 C3999 1.385 . S
C4003 C4002 1.374 . S
C4004 C4001 1.499 . S
C4004 C4005 1.373 . S
C4004 C4006 1.389 . S
C4005 H3984 0.950 . S
C4005 C4004 1.373 . S
C4005 C4021 1.377 . S
C4006 C4004 1.389 . S
C4006 C4007 1.524 . S
C4006 C4020 1.377 . S
C4007 C4006 1.524 . S
C4007 C4008 1.397 . S
C4007 C4012 1.363 . S
C4008 H3985 0.950 . S
C4008 C4007 1.397 . S
C4008 C4009 1.334 . S
C4009 H3986 0.950 . S
C4009 C4008 1.334 . S
C4009 C4010 1.287 . S
C4010 C4009 1.287 . S
C4010 C4011 1.524 . S
C4010 H4029 0.913 . S
C4011 H3987 0.950 . S
C4011 C4010 1.524 . S
C4011 C4012 1.415 . S
C4012 H3988 0.950 . S
C4012 C4007 1.363 . S
C4012 C4011 1.415 . S
C4013 H3989 0.951 . S
C4013 C4014 1.366 . S
C4013 C4015 1.388 . S
C4014 C4013 1.366 . S
C4014 C4018 1.385 . S
C4015 H3990 0.951 . S
C4015 C4013 1.388 . S
C4015 C4016 1.366 . S
C4016 C4015 1.366 . S
C4016 C4017 1.414 . S
C4016 C4019 1.499 . S
C4017 H3991 0.950 . S
C4017 C4016 1.414 . S
C4017 C4018 1.374 . S
C4018 H3992 0.950 . S
C4018 C4014 1.385 . S
C4018 C4017 1.374 . S
C4019 C4016 1.499 . S
C4019 C4020 1.373 . S
C4019 C4021 1.389 . S
C4020 H3993 0.950 . S
C4020 C4006 1.377 . S
C4020 C4019 1.373 . S
C4021 C4005 1.377 . S
C4021 C4019 1.389 . S
C4021 C4022 1.524 . S
C4022 C4021 1.524 . S
C4022 C4023 1.397 . S
C4022 C4027 1.363 . S
C4023 H3994 0.950 . S
C4023 C4022 1.397 . S
C4023 C4024 1.334 . S
C4024 H3995 0.950 . S
C4024 C4023 1.334 . S
C4024 C4025 1.287 . S
C4025 C4024 1.287 . S
C4025 C4026 1.524 . S
C4025 H4028 0.999 . S
C4026 H3996 0.950 . S
C4026 C4025 1.524 . S
C4026 C4027 1.415 . S
C4027 H3997 0.950 . S
C4027 C4022 1.363 . S
C4027 C4026 1.415 . S
H4028 C4025 0.999 . S
H4029 C4010 0.913 . S
H4030 C4048 0.951 . S
H4031 C4050 0.951 . S
H4032 C4052 0.950 . S
H4033 C4053 0.950 . S
H4034 C4055 0.950 . S
H4035 C4058 0.950 . S
H4036 C4059 0.950 . S
H4037 C4061 0.950 . S
H4038 C4062 0.950 . S
H4039 C4063 0.951 . S
H4040 C4065 0.951 . S
H4041 C4067 0.950 . S
H4042 C4068 0.950 . S
H4043 C4070 0.950 . S
H4044 C4073 0.950 . S
H4045 C4074 0.950 . S
H4046 C4076 0.950 . S
H4047 C4077 0.950 . S
C4048 H4030 0.951 . S
C4048 C4049 1.366 . S
C4048 C4050 1.388 . S
C4049 C4048 1.366 . S
C4049 C4053 1.385 . S
C4050 H4031 0.951 . S
C4050 C4048 1.388 . S
C4050 C4051 1.366 . S
C4051 C4050 1.366 . S
C4051 C4052 1.414 . S
C4051 C4054 1.499 . S
C4052 H4032 0.950 . S
C4052 C4051 1.414 . S
C4052 C4053 1.374 . S
C4053 H4033 0.950 . S
C4053 C4049 1.385 . S
C4053 C4052 1.374 . S
C4054 C4051 1.499 . S
C4054 C4055 1.373 . S
C4054 C4056 1.389 . S
C4055 H4034 0.950 . S
C4055 C4054 1.373 . S
C4055 C4071 1.377 . S
C4056 C4054 1.389 . S
C4056 C4057 1.524 . S
C4056 C4070 1.377 . S
C4057 C4056 1.524 . S
C4057 C4058 1.397 . S
C4057 C4062 1.363 . S
C4058 H4035 0.950 . S
C4058 C4057 1.397 . S
C4058 C4059 1.334 . S
C4059 H4036 0.950 . S
C4059 C4058 1.334 . S
C4059 C4060 1.287 . S
C4060 C4059 1.287 . S
C4060 C4061 1.524 . S
C4060 H4079 0.913 . S
C4061 H4037 0.950 . S
C4061 C4060 1.524 . S
C4061 C4062 1.415 . S
C4062 H4038 0.950 . S
C4062 C4057 1.363 . S
C4062 C4061 1.415 . S
C4063 H4039 0.951 . S
C4063 C4064 1.366 . S
C4063 C4065 1.388 . S
C4064 C4063 1.366 . S
C4064 C4068 1.385 . S
C4065 H4040 0.951 . S
C4065 C4063 1.388 . S
C4065 C4066 1.366 . S
C4066 C4065 1.366 . S
C4066 C4067 1.414 . S
C4066 C4069 1.499 . S
C4067 H4041 0.950 . S
C4067 C4066 1.414 . S
C4067 C4068 1.374 . S
C4068 H4042 0.950 . S
C4068 C4064 1.385 . S
C4068 C4067 1.374 . S
C4069 C4066 1.499 . S
C4069 C4070 1.373 . S
C4069 C4071 1.389 . S
C4070 H4043 0.950 . S
C4070 C4056 1.377 . S
C4070 C4069 1.373 . S
C4071 C4055 1.377 . S
C4071 C4069 1.389 . S
C4071 C4072 1.524 . S
C4072 C4071 1.524 . S
C4072 C4073 1.397 . S
C4072 C4077 1.363 . S
C4073 H4044 0.950 . S
C4073 C4072 1.397 . S
C4073 C4074 1.334 . S
C4074 H4045 0.950 . S
C4074 C4073 1.334 . S
C4074 C4075 1.287 . S
C4075 C4074 1.287 . S
C4075 C4076 1.524 . S
C4075 H4078 0.999 . S
C4076 H4046 0.950 . S
C4076 C4075 1.524 . S
C4076 C4077 1.415 . S
C4077 H4047 0.950 . S
C4077 C4072 1.363 . S
C4077 C4076 1.415 . S
H4078 C4075 0.999 . S
H4079 C4060 0.913 . S
H4080 C4098 0.951 . S
H4081 C4100 0.951 . S
H4082 C4102 0.950 . S
H4083 C4103 0.950 . S
H4084 C4105 0.950 . S
H4085 C4108 0.950 . S
H4086 C4109 0.950 . S
H4087 C4111 0.950 . S
H4088 C4112 0.950 . S
H4089 C4113 0.951 . S
H4090 C4115 0.951 . S
H4091 C4117 0.950 . S
H4092 C4118 0.950 . S
H4093 C4120 0.950 . S
H4094 C4123 0.950 . S
H4095 C4124 0.950 . S
H4096 C4126 0.950 . S
H4097 C4127 0.950 . S
C4098 H4080 0.951 . S
C4098 C4099 1.366 . S
C4098 C4100 1.388 . S
C4099 C4098 1.366 . S
C4099 C4103 1.385 . S
C4100 H4081 0.951 . S
C4100 C4098 1.388 . S
C4100 C4101 1.366 . S
C4101 C4100 1.366 . S
C4101 C4102 1.414 . S
C4101 C4104 1.499 . S
C4102 H4082 0.950 . S
C4102 C4101 1.414 . S
C4102 C4103 1.374 . S
C4103 H4083 0.950 . S
C4103 C4099 1.385 . S
C4103 C4102 1.374 . S
C4104 C4101 1.499 . S
C4104 C4105 1.373 . S
C4104 C4106 1.389 . S
C4105 H4084 0.950 . S
C4105 C4104 1.373 . S
C4105 C4121 1.377 . S
C4106 C4104 1.389 . S
C4106 C4107 1.524 . S
C4106 C4120 1.377 . S
C4107 C4106 1.524 . S
C4107 C4108 1.397 . S
C4107 C4112 1.363 . S
C4108 H4085 0.950 . S
C4108 C4107 1.397 . S
C4108 C4109 1.334 . S
C4109 H4086 0.950 . S
C4109 C4108 1.334 . S
C4109 C4110 1.287 . S
C4110 C4109 1.287 . S
C4110 C4111 1.524 . S
C4110 H4129 0.913 . S
C4111 H4087 0.950 . S
C4111 C4110 1.524 . S
C4111 C4112 1.415 . S
C4112 H4088 0.950 . S
C4112 C4107 1.363 . S
C4112 C4111 1.415 . S
C4113 H4089 0.951 . S
C4113 C4114 1.366 . S
C4113 C4115 1.388 . S
C4114 C4113 1.366 . S
C4114 C4118 1.385 . S
C4115 H4090 0.951 . S
C4115 C4113 1.388 . S
C4115 C4116 1.366 . S
C4116 C4115 1.366 . S
C4116 C4117 1.414 . S
C4116 C4119 1.499 . S
C4117 H4091 0.950 . S
C4117 C4116 1.414 . S
C4117 C4118 1.374 . S
C4118 H4092 0.950 . S
C4118 C4114 1.385 . S
C4118 C4117 1.374 . S
C4119 C4116 1.499 . S
C4119 C4120 1.373 . S
C4119 C4121 1.389 . S
C4120 H4093 0.950 . S
C4120 C4106 1.377 . S
C4120 C4119 1.373 . S
C4121 C4105 1.377 . S
C4121 C4119 1.389 . S
C4121 C4122 1.524 . S
C4122 C4121 1.524 . S
C4122 C4123 1.397 . S
C4122 C4127 1.363 . S
C4123 H4094 0.950 . S
C4123 C4122 1.397 . S
C4123 C4124 1.334 . S
C4124 H4095 0.950 . S
C4124 C4123 1.334 . S
C4124 C4125 1.287 . S
C4125 C4124 1.287 . S
C4125 C4126 1.524 . S
C4125 H4128 0.999 . S
C4126 H4096 0.950 . S
C4126 C4125 1.524 . S
C4126 C4127 1.415 . S
C4127 H4097 0.950 . S
C4127 C4122 1.363 . S
C4127 C4126 1.415 . S
H4128 C4125 0.999 . S
H4129 C4110 0.913 . S
H4130 C4148 0.951 . S
H4131 C4150 0.951 . S
H4132 C4152 0.950 . S
H4133 C4153 0.950 . S
H4134 C4155 0.950 . S
H4135 C4158 0.950 . S
H4136 C4159 0.950 . S
H4137 C4161 0.950 . S
H4138 C4162 0.950 . S
H4139 C4163 0.951 . S
H4140 C4165 0.951 . S
H4141 C4167 0.950 . S
H4142 C4168 0.950 . S
H4143 C4170 0.950 . S
H4144 C4173 0.950 . S
H4145 C4174 0.950 . S
H4146 C4176 0.950 . S
H4147 C4177 0.950 . S
C4148 H4130 0.951 . S
C4148 C4149 1.366 . S
C4148 C4150 1.388 . S
C4149 C4148 1.366 . S
C4149 C4153 1.385 . S
C4150 H4131 0.951 . S
C4150 C4148 1.388 . S
C4150 C4151 1.366 . S
C4151 C4150 1.366 . S
C4151 C4152 1.414 . S
C4151 C4154 1.499 . S
C4152 H4132 0.950 . S
C4152 C4151 1.414 . S
C4152 C4153 1.374 . S
C4153 H4133 0.950 . S
C4153 C4149 1.385 . S
C4153 C4152 1.374 . S
C4154 C4151 1.499 . S
C4154 C4155 1.373 . S
C4154 C4156 1.389 . S
C4155 H4134 0.950 . S
C4155 C4154 1.373 . S
C4155 C4171 1.377 . S
C4156 C4154 1.389 . S
C4156 C4157 1.524 . S
C4156 C4170 1.377 . S
C4157 C4156 1.524 . S
C4157 C4158 1.397 . S
C4157 C4162 1.363 . S
C4158 H4135 0.950 . S
C4158 C4157 1.397 . S
C4158 C4159 1.334 . S
C4159 H4136 0.950 . S
C4159 C4158 1.334 . S
C4159 C4160 1.287 . S
C4160 C4159 1.287 . S
C4160 C4161 1.524 . S
C4160 H4179 0.913 . S
C4161 H4137 0.950 . S
C4161 C4160 1.524 . S
C4161 C4162 1.415 . S
C4162 H4138 0.950 . S
C4162 C4157 1.363 . S
C4162 C4161 1.415 . S
C4163 H4139 0.951 . S
C4163 C4164 1.366 . S
C4163 C4165 1.388 . S
C4164 C4163 1.366 . S
C4164 C4168 1.385 . S
C4165 H4140 0.951 . S
C4165 C4163 1.388 . S
C4165 C4166 1.366 . S
C4166 C4165 1.366 . S
C4166 C4167 1.414 . S
C4166 C4169 1.499 . S
C4167 H4141 0.950 . S
C4167 C4166 1.414 . S
C4167 C4168 1.374 . S
C4168 H4142 0.950 . S
C4168 C4164 1.385 . S
C4168 C4167 1.374 . S
C4169 C4166 1.499 . S
C4169 C4170 1.373 . S
C4169 C4171 1.389 . S
C4170 H4143 0.950 . S
C4170 C4156 1.377 . S
C4170 C4169 1.373 . S
C4171 C4155 1.377 . S
C4171 C4169 1.389 . S
C4171 C4172 1.524 . S
C4172 C4171 1.524 . S
C4172 C4173 1.397 . S
C4172 C4177 1.363 . S
C4173 H4144 0.950 . S
C4173 C4172 1.397 . S
C4173 C4174 1.334 . S
C4174 H4145 0.950 . S
C4174 C4173 1.334 . S
C4174 C4175 1.287 . S
C4175 C4174 1.287 . S
C4175 C4176 1.524 . S
C4175 H4178 0.999 . S
C4176 H4146 0.950 . S
C4176 C4175 1.524 . S
C4176 C4177 1.415 . S
C4177 H4147 0.950 . S
C4177 C4172 1.363 . S
C4177 C4176 1.415 . S
H4178 C4175 0.999 . S
H4179 C4160 0.913 . S
H4180 C4198 0.951 . S
H4181 C4200 0.951 . S
H4182 C4202 0.950 . S
H4183 C4203 0.950 . S
H4184 C4205 0.950 . S
H4185 C4208 0.900 1_556 S
H4186 C4209 0.950 1_655 S
H4187 C4211 0.950 . S
H4188 C4212 0.950 . S
H4189 C4213 0.951 . S
H4190 C4215 0.951 . S
H4191 C4217 0.950 . S
H4192 C4218 0.950 . S
H4193 C4220 0.950 . S
H4194 C4223 0.950 . S
H4195 C4224 0.950 . S
H4196 C4226 0.950 . S
H4197 C4227 0.950 . S
C4198 H4180 0.951 . S
C4198 C4199 1.366 . S
C4198 C4200 1.388 . S
C4199 C4198 1.366 . S
C4199 C4203 1.385 . S
C4200 H4181 0.951 . S
C4200 C4198 1.388 . S
C4200 C4201 1.366 . S
C4201 C4200 1.366 . S
C4201 C4202 1.414 . S
C4201 C4204 1.499 . S
C4202 H4182 0.950 . S
C4202 C4201 1.414 . S
C4202 C4203 1.374 . S
C4203 H4183 0.950 . S
C4203 C4199 1.385 . S
C4203 C4202 1.374 . S
C4204 C4201 1.499 . S
C4204 C4205 1.373 . S
C4204 C4206 1.428 . S
C4205 H4184 0.950 . S
C4205 C4204 1.373 . S
C4205 C4221 1.377 . S
C4206 C4204 1.428 . S
C4206 C4207 1.489 1_556 S
C4206 C4220 1.372 1_556 S
C4207 C4206 1.489 1_554 S
C4207 C4208 1.397 . S
C4207 C4212 1.363 . S
C4208 H4185 0.900 1_554 S
C4208 C4207 1.397 . S
C4208 C4209 1.334 . S
C4209 H4186 0.950 1_455 S
C4209 C4208 1.334 . S
C4209 C4210 1.287 . S
C4210 C4209 1.287 . S
C4210 C4211 1.524 . S
C4210 H4229 0.913 . S
C4211 H4187 0.950 . S
C4211 C4210 1.524 . S
C4211 C4212 1.415 . S
C4212 H4188 0.950 . S
C4212 C4207 1.363 . S
C4212 C4211 1.415 . S
C4213 H4189 0.951 . S
C4213 C4214 1.366 1_556 S
C4213 C4215 1.388 . S
C4214 C4213 1.366 1_554 S
C4214 C4218 1.385 . S
C4215 H4190 0.951 . S
C4215 C4213 1.388 . S
C4215 C4216 1.395 . S
C4216 C4215 1.395 . S
C4216 C4217 1.377 1_556 S
C4216 C4219 1.505 . S
C4217 H4191 0.950 . S
C4217 C4216 1.377 1_554 S
C4217 C4218 1.374 . S
C4218 H4192 0.950 . S
C4218 C4214 1.385 . S
C4218 C4217 1.374 . S
C4219 C4216 1.505 . S
C4219 C4220 1.373 1_556 S
C4219 C4221 1.389 . S
C4220 H4193 0.950 . S
C4220 C4206 1.372 1_554 S
C4220 C4219 1.373 1_554 S
C4221 C4205 1.377 . S
C4221 C4219 1.389 . S
C4221 C4222 1.524 . S
C4222 C4221 1.524 . S
C4222 C4223 1.397 . S
C4222 C4227 1.363 . S
C4223 H4194 0.950 . S
C4223 C4222 1.397 . S
C4223 C4224 1.334 . S
C4224 H4195 0.950 . S
C4224 C4223 1.334 . S
C4224 C4225 1.287 . S
C4225 C4224 1.287 . S
C4225 C4226 1.524 . S
C4225 H4228 0.999 . S
C4226 H4196 0.950 . S
C4226 C4225 1.524 . S
C4226 C4227 1.415 . S
C4227 H4197 0.950 . S
C4227 C4222 1.363 . S
C4227 C4226 1.415 . S
H4228 C4225 0.999 . S
H4229 C4210 0.913 . S
H4230 C4248 0.951 . S
H4231 C4250 0.951 . S
H4232 C4252 0.950 . S
H4233 C4253 0.950 . S
H4234 C4255 0.950 . S
H4235 C4258 0.950 1_455 S
H4236 C4259 0.903 1_455 S
H4237 C4261 0.950 . S
H4238 C4262 0.950 . S
H4239 C4263 0.951 . S
H4240 C4265 0.951 . S
H4241 C4267 0.950 . S
H4242 C4268 0.950 . S
H4243 C4270 0.950 . S
H4244 C4273 0.950 . S
H4245 C4274 0.950 . S
H4246 C4276 0.950 . S
H4247 C4277 0.950 . S
C4248 H4230 0.951 . S
C4248 C4249 1.366 . S
C4248 C4250 1.388 1_455 S
C4249 C4248 1.366 . S
C4249 C4253 1.385 . S
C4250 H4231 0.951 . S
C4250 C4248 1.388 1_655 S
C4250 C4251 1.366 . S
C4251 C4250 1.366 . S
C4251 C4252 1.414 1_655 S
C4251 C4254 1.499 . S
C4252 H4232 0.950 . S
C4252 C4251 1.414 1_455 S
C4252 C4253 1.374 . S
C4253 H4233 0.950 . S
C4253 C4249 1.385 . S
C4253 C4252 1.374 . S
C4254 C4251 1.499 . S
C4254 C4255 1.373 . S
C4254 C4256 1.389 . S
C4255 H4234 0.950 . S
C4255 C4254 1.373 . S
C4255 C4271 1.377 . S
C4256 C4254 1.389 . S
C4256 C4257 1.524 . S
C4256 C4270 1.377 . S
C4257 C4256 1.524 . S
C4257 C4258 1.397 . S
C4257 C4262 1.363 . S
C4258 H4235 0.950 1_655 S
C4258 C4257 1.397 . S
C4258 C4259 1.342 . S
C4259 H4236 0.903 1_655 S
C4259 C4258 1.342 . S
C4259 C4260 1.330 . S
C4260 C4259 1.330 . S
C4260 C4261 1.524 . S
C4260 H4279 0.913 . S
C4261 H4237 0.950 . S
C4261 C4260 1.524 . S
C4261 C4262 1.415 . S
C4262 H4238 0.950 . S
C4262 C4257 1.363 . S
C4262 C4261 1.415 . S
C4263 H4239 0.951 . S
C4263 C4264 1.366 . S
C4263 C4265 1.388 . S
C4264 C4263 1.366 . S
C4264 C4268 1.385 . S
C4265 H4240 0.951 . S
C4265 C4263 1.388 . S
C4265 C4266 1.366 . S
C4266 C4265 1.366 . S
C4266 C4267 1.414 . S
C4266 C4269 1.499 . S
C4267 H4241 0.950 . S
C4267 C4266 1.414 . S
C4267 C4268 1.374 . S
C4268 H4242 0.950 . S
C4268 C4264 1.385 . S
C4268 C4267 1.374 . S
C4269 C4266 1.499 . S
C4269 C4270 1.373 . S
C4269 C4271 1.389 . S
C4270 H4243 0.950 . S
C4270 C4256 1.377 . S
C4270 C4269 1.373 . S
C4271 C4255 1.377 . S
C4271 C4269 1.389 . S
C4271 C4272 1.524 . S
C4272 C4271 1.524 . S
C4272 C4273 1.397 . S
C4272 C4277 1.363 . S
C4273 H4244 0.950 . S
C4273 C4272 1.397 . S
C4273 C4274 1.334 . S
C4274 H4245 0.950 . S
C4274 C4273 1.334 . S
C4274 C4275 1.287 . S
C4275 C4274 1.287 . S
C4275 C4276 1.524 . S
C4275 H4278 0.999 . S
C4276 H4246 0.950 . S
C4276 C4275 1.524 . S
C4276 C4277 1.415 . S
C4277 H4247 0.950 . S
C4277 C4272 1.363 . S
C4277 C4276 1.415 . S
H4278 C4275 0.999 . S
H4279 C4260 0.913 . S
H4280 C4298 0.951 . S
H4281 C4300 0.951 . S
H4282 C4302 0.950 . S
H4283 C4303 0.950 . S
H4284 C4305 0.950 . S
H4285 C4308 0.950 . S
H4286 C4309 0.950 . S
H4287 C4311 0.950 . S
H4288 C4312 0.950 . S
H4289 C4313 0.951 . S
H4290 C4315 0.951 . S
H4291 C4317 0.950 . S
H4292 C4318 0.950 . S
H4293 C4320 0.950 . S
H4294 C4323 0.950 . S
H4295 C4324 0.950 . S
H4296 C4326 0.950 . S
H4297 C4327 0.950 . S
C4298 H4280 0.951 . S
C4298 C4299 1.366 . S
C4298 C4300 1.388 . S
C4299 C4298 1.366 . S
C4299 C4303 1.385 . S
C4300 H4281 0.951 . S
C4300 C4298 1.388 . S
C4300 C4301 1.366 . S
C4301 C4300 1.366 . S
C4301 C4302 1.414 . S
C4301 C4304 1.499 . S
C4302 H4282 0.950 . S
C4302 C4301 1.414 . S
C4302 C4303 1.374 . S
C4303 H4283 0.950 . S
C4303 C4299 1.385 . S
C4303 C4302 1.374 . S
C4304 C4301 1.499 . S
C4304 C4305 1.373 . S
C4304 C4306 1.389 . S
C4305 H4284 0.950 . S
C4305 C4304 1.373 . S
C4305 C4321 1.377 . S
C4306 C4304 1.389 . S
C4306 C4307 1.524 . S
C4306 C4320 1.377 . S
C4307 C4306 1.524 . S
C4307 C4308 1.397 . S
C4307 C4312 1.363 . S
C4308 H4285 0.950 . S
C4308 C4307 1.397 . S
C4308 C4309 1.334 . S
C4309 H4286 0.950 . S
C4309 C4308 1.334 . S
C4309 C4310 1.287 . S
C4310 C4309 1.287 . S
C4310 C4311 1.524 . S
C4310 H4329 0.913 . S
C4311 H4287 0.950 . S
C4311 C4310 1.524 . S
C4311 C4312 1.415 . S
C4312 H4288 0.950 . S
C4312 C4307 1.363 . S
C4312 C4311 1.415 . S
C4313 H4289 0.951 . S
C4313 C4314 1.366 . S
C4313 C4315 1.388 . S
C4314 C4313 1.366 . S
C4314 C4318 1.385 . S
C4315 H4290 0.951 . S
C4315 C4313 1.388 . S
C4315 C4316 1.366 . S
C4316 C4315 1.366 . S
C4316 C4317 1.414 . S
C4316 C4319 1.499 . S
C4317 H4291 0.950 . S
C4317 C4316 1.414 . S
C4317 C4318 1.374 . S
C4318 H4292 0.950 . S
C4318 C4314 1.385 . S
C4318 C4317 1.374 . S
C4319 C4316 1.499 . S
C4319 C4320 1.373 . S
C4319 C4321 1.389 . S
C4320 H4293 0.950 . S
C4320 C4306 1.377 . S
C4320 C4319 1.373 . S
C4321 C4305 1.377 . S
C4321 C4319 1.389 . S
C4321 C4322 1.524 . S
C4322 C4321 1.524 . S
C4322 C4323 1.397 . S
C4322 C4327 1.363 . S
C4323 H4294 0.950 . S
C4323 C4322 1.397 . S
C4323 C4324 1.334 . S
C4324 H4295 0.950 . S
C4324 C4323 1.334 . S
C4324 C4325 1.287 . S
C4325 C4324 1.287 . S
C4325 C4326 1.524 . S
C4325 H4328 0.999 . S
C4326 H4296 0.950 . S
C4326 C4325 1.524 . S
C4326 C4327 1.415 . S
C4327 H4297 0.950 . S
C4327 C4322 1.363 . S
C4327 C4326 1.415 . S
H4328 C4325 0.999 . S
H4329 C4310 0.913 . S
H4330 C4348 0.951 . S
H4331 C4350 0.951 . S
H4332 C4352 0.950 . S
H4333 C4353 0.950 . S
H4334 C4355 0.950 . S
H4335 C4358 0.950 . S
H4336 C4359 0.950 . S
H4337 C4361 0.950 . S
H4338 C4362 0.950 . S
H4339 C4363 0.951 . S
H4340 C4365 0.951 . S
H4341 C4367 0.950 . S
H4342 C4368 0.950 . S
H4343 C4370 0.950 . S
H4344 C4373 0.950 . S
H4345 C4374 0.950 . S
H4346 C4376 0.950 . S
H4347 C4377 0.950 . S
C4348 H4330 0.951 . S
C4348 C4349 1.366 . S
C4348 C4350 1.388 . S
C4349 C4348 1.366 . S
C4349 C4353 1.385 . S
C4350 H4331 0.951 . S
C4350 C4348 1.388 . S
C4350 C4351 1.366 . S
C4351 C4350 1.366 . S
C4351 C4352 1.414 . S
C4351 C4354 1.499 1_455 S
C4352 H4332 0.950 . S
C4352 C4351 1.414 . S
C4352 C4353 1.374 . S
C4353 H4333 0.950 . S
C4353 C4349 1.385 . S
C4353 C4352 1.374 . S
C4354 C4351 1.499 1_655 S
C4354 C4355 1.373 . S
C4354 C4356 1.389 . S
C4355 H4334 0.950 . S
C4355 C4354 1.373 . S
C4355 C4371 1.377 . S
C4356 C4354 1.389 . S
C4356 C4357 1.524 1_655 S
C4356 C4370 1.377 . S
C4357 C4356 1.524 1_455 S
C4357 C4358 1.397 . S
C4357 C4362 1.363 . S
C4358 H4335 0.950 . S
C4358 C4357 1.397 . S
C4358 C4359 1.334 . S
C4359 H4336 0.950 . S
C4359 C4358 1.334 . S
C4359 C4360 1.287 . S
C4360 C4359 1.287 . S
C4360 C4361 1.524 . S
C4360 H4379 0.913 . S
C4361 H4337 0.950 . S
C4361 C4360 1.524 . S
C4361 C4362 1.415 . S
C4362 H4338 0.950 . S
C4362 C4357 1.363 . S
C4362 C4361 1.415 . S
C4363 H4339 0.951 . S
C4363 C4364 1.366 . S
C4363 C4365 1.388 . S
C4364 C4363 1.366 . S
C4364 C4368 1.385 . S
C4365 H4340 0.951 . S
C4365 C4363 1.388 . S
C4365 C4366 1.366 . S
C4366 C4365 1.366 . S
C4366 C4367 1.414 . S
C4366 C4369 1.499 . S
C4367 H4341 0.950 . S
C4367 C4366 1.414 . S
C4367 C4368 1.374 . S
C4368 H4342 0.950 . S
C4368 C4364 1.385 . S
C4368 C4367 1.374 . S
C4369 C4366 1.499 . S
C4369 C4370 1.373 . S
C4369 C4371 1.389 . S
C4370 H4343 0.950 . S
C4370 C4356 1.377 . S
C4370 C4369 1.373 . S
C4371 C4355 1.377 . S
C4371 C4369 1.389 . S
C4371 C4372 1.524 . S
C4372 C4371 1.524 . S
C4372 C4373 1.397 . S
C4372 C4377 1.363 . S
C4373 H4344 0.950 . S
C4373 C4372 1.397 . S
C4373 C4374 1.334 . S
C4374 H4345 0.950 . S
C4374 C4373 1.334 . S
C4374 C4375 1.287 . S
C4375 C4374 1.287 . S
C4375 C4376 1.524 . S
C4375 H4378 0.999 . S
C4376 H4346 0.950 . S
C4376 C4375 1.524 . S
C4376 C4377 1.415 . S
C4377 H4347 0.950 . S
C4377 C4372 1.363 . S
C4377 C4376 1.415 . S
H4378 C4375 0.999 . S
H4379 C4360 0.913 . S
H4380 C4398 0.951 . S
H4381 C4400 0.951 . S
H4382 C4402 0.950 . S
H4383 C4403 0.950 . S
H4384 C4405 0.950 1_655 S
H4385 C4408 0.950 1_655 S
H4386 C4409 0.950 1_655 S
H4387 C4411 0.950 . S
H4388 C4412 0.950 . S
H4389 C4413 0.951 . S
H4390 C4415 0.925 1_655 S
H4391 C4417 0.950 . S
H4392 C4418 0.950 . S
H4393 C4420 0.950 . S
H4394 C4423 0.950 . S
H4395 C4424 0.950 . S
H4396 C4426 0.950 . S
H4397 C4427 0.950 . S
C4398 H4380 0.951 . S
C4398 C4399 1.366 1_455 S
C4398 C4400 1.388 . S
C4399 C4398 1.366 1_655 S
C4399 C4403 1.385 . S
C4400 H4381 0.951 . S
C4400 C4398 1.388 . S
C4400 C4401 1.366 . S
C4401 C4400 1.366 . S
C4401 C4402 1.414 1_455 S
C4401 C4404 1.499 . S
C4402 H4382 0.950 . S
C4402 C4401 1.414 1_655 S
C4402 C4403 1.374 . S
C4403 H4383 0.950 . S
C4403 C4399 1.385 . S
C4403 C4402 1.374 . S
C4404 C4401 1.499 . S
C4404 C4405 1.373 . S
C4404 C4406 1.389 . S
C4405 H4384 0.950 1_455 S
C4405 C4404 1.373 . S
C4405 C4421 1.377 . S
C4406 C4404 1.389 . S
C4406 C4407 1.524 . S
C4406 C4420 1.377 . S
C4407 C4406 1.524 . S
C4407 C4408 1.397 . S
C4407 C4412 1.363 . S
C4408 H4385 0.950 1_455 S
C4408 C4407 1.397 . S
C4408 C4409 1.334 . S
C4409 H4386 0.950 1_455 S
C4409 C4408 1.334 . S
C4409 C4410 1.287 . S
C4410 C4409 1.287 . S
C4410 C4411 1.524 . S
C4410 H4429 0.913 . S
C4411 H4387 0.950 . S
C4411 C4410 1.524 . S
C4411 C4412 1.415 . S
C4412 H4388 0.950 . S
C4412 C4407 1.363 . S
C4412 C4411 1.415 . S
C4413 H4389 0.951 . S
C4413 C4414 1.366 . S
C4413 C4415 1.388 . S
C4414 C4413 1.366 . S
C4414 C4418 1.385 . S
C4415 H4390 0.925 1_455 S
C4415 C4413 1.388 . S
C4415 C4416 1.366 . S
C4416 C4415 1.366 . S
C4416 C4417 1.414 . S
C4416 C4419 1.499 . S
C4417 H4391 0.950 . S
C4417 C4416 1.414 . S
C4417 C4418 1.374 . S
C4418 H4392 0.950 . S
C4418 C4414 1.385 . S
C4418 C4417 1.374 . S
C4419 C4416 1.499 . S
C4419 C4420 1.373 . S
C4419 C4421 1.389 . S
C4420 H4393 0.950 . S
C4420 C4406 1.377 . S
C4420 C4419 1.373 . S
C4421 C4405 1.377 . S
C4421 C4419 1.389 . S
C4421 C4422 1.524 . S
C4422 C4421 1.524 . S
C4422 C4423 1.397 . S
C4422 C4427 1.363 1_455 S
C4423 H4394 0.950 . S
C4423 C4422 1.397 . S
C4423 C4424 1.334 . S
C4424 H4395 0.950 . S
C4424 C4423 1.334 . S
C4424 C4425 1.287 . S
C4425 C4424 1.287 . S
C4425 C4426 1.524 1_455 S
C4425 H4428 0.999 . S
C4426 H4396 0.950 . S
C4426 C4425 1.524 1_655 S
C4426 C4427 1.415 . S
C4427 H4397 0.950 . S
C4427 C4422 1.363 1_655 S
C4427 C4426 1.415 . S
H4428 C4425 0.999 . S
H4429 C4410 0.913 . S
H4430 C4448 0.951 . S
H4431 C4450 0.951 . S
H4432 C4452 0.950 . S
H4433 C4453 0.950 . S
H4434 C4455 0.950 . S
H4435 C4458 0.950 . S
H4436 C4459 0.950 . S
H4437 C4461 0.950 . S
H4438 C4462 0.950 . S
H4439 C4463 0.951 . S
H4440 C4465 0.951 . S
H4441 C4467 0.950 . S
H4442 C4468 0.950 . S
H4443 C4470 0.950 . S
H4444 C4473 0.950 . S
H4445 C4474 0.950 . S
H4446 C4476 0.950 . S
H4447 C4477 0.950 . S
C4448 H4430 0.951 . S
C4448 C4449 1.366 . S
C4448 C4450 1.388 . S
C4449 C4448 1.366 . S
C4449 C4453 1.385 . S
C4450 H4431 0.951 . S
C4450 C4448 1.388 . S
C4450 C4451 1.366 . S
C4451 C4450 1.366 . S
C4451 C4452 1.414 . S
C4451 C4454 1.499 . S
C4452 H4432 0.950 . S
C4452 C4451 1.414 . S
C4452 C4453 1.374 . S
C4453 H4433 0.950 . S
C4453 C4449 1.385 . S
C4453 C4452 1.374 . S
C4454 C4451 1.499 . S
C4454 C4455 1.373 . S
C4454 C4456 1.389 . S
C4455 H4434 0.950 . S
C4455 C4454 1.373 . S
C4455 C4471 1.377 . S
C4456 C4454 1.389 . S
C4456 C4457 1.524 . S
C4456 C4470 1.377 . S
C4457 C4456 1.524 . S
C4457 C4458 1.397 . S
C4457 C4462 1.363 . S
C4458 H4435 0.950 . S
C4458 C4457 1.397 . S
C4458 C4459 1.334 . S
C4459 H4436 0.950 . S
C4459 C4458 1.334 . S
C4459 C4460 1.287 . S
C4460 C4459 1.287 . S
C4460 C4461 1.524 . S
C4460 H4479 0.913 . S
C4461 H4437 0.950 . S
C4461 C4460 1.524 . S
C4461 C4462 1.415 . S
C4462 H4438 0.950 . S
C4462 C4457 1.363 . S
C4462 C4461 1.415 . S
C4463 H4439 0.951 . S
C4463 C4464 1.366 . S
C4463 C4465 1.388 . S
C4464 C4463 1.366 . S
C4464 C4468 1.385 . S
C4465 H4440 0.951 . S
C4465 C4463 1.388 . S
C4465 C4466 1.366 . S
C4466 C4465 1.366 . S
C4466 C4467 1.414 . S
C4466 C4469 1.499 . S
C4467 H4441 0.950 . S
C4467 C4466 1.414 . S
C4467 C4468 1.374 . S
C4468 H4442 0.950 . S
C4468 C4464 1.385 . S
C4468 C4467 1.374 . S
C4469 C4466 1.499 . S
C4469 C4470 1.373 . S
C4469 C4471 1.389 . S
C4470 H4443 0.950 . S
C4470 C4456 1.377 . S
C4470 C4469 1.373 . S
C4471 C4455 1.377 . S
C4471 C4469 1.389 . S
C4471 C4472 1.524 . S
C4472 C4471 1.524 . S
C4472 C4473 1.397 . S
C4472 C4477 1.363 . S
C4473 H4444 0.950 . S
C4473 C4472 1.397 . S
C4473 C4474 1.334 . S
C4474 H4445 0.950 . S
C4474 C4473 1.334 . S
C4474 C4475 1.287 . S
C4475 C4474 1.287 . S
C4475 C4476 1.524 . S
C4475 H4478 0.999 . S
C4476 H4446 0.950 . S
C4476 C4475 1.524 . S
C4476 C4477 1.415 . S
C4477 H4447 0.950 . S
C4477 C4472 1.363 . S
C4477 C4476 1.415 . S
H4478 C4475 0.999 . S
H4479 C4460 0.913 . S
H4480 C4498 0.951 . S
H4481 C4500 0.951 . S
H4482 C4502 0.950 . S
H4483 C4503 0.950 . S
H4484 C4505 0.950 . S
H4485 C4508 0.950 . S
H4486 C4509 0.950 . S
H4487 C4511 0.950 . S
H4488 C4512 0.950 . S
H4489 C4513 0.951 . S
H4490 C4515 0.951 . S
H4491 C4517 0.950 . S
H4492 C4518 0.950 . S
H4493 C4520 0.950 . S
H4494 C4523 0.950 . S
H4495 C4524 0.950 . S
H4496 C4526 0.950 . S
H4497 C4527 0.950 . S
C4498 H4480 0.951 . S
C4498 C4499 1.366 . S
C4498 C4500 1.388 . S
C4499 C4498 1.366 . S
C4499 C4503 1.385 . S
C4500 H4481 0.951 . S
C4500 C4498 1.388 . S
C4500 C4501 1.366 . S
C4501 C4500 1.366 . S
C4501 C4502 1.414 . S
C4501 C4504 1.499 . S
C4502 H4482 0.950 . S
C4502 C4501 1.414 . S
C4502 C4503 1.374 . S
C4503 H4483 0.950 . S
C4503 C4499 1.385 . S
C4503 C4502 1.374 . S
C4504 C4501 1.499 . S
C4504 C4505 1.373 . S
C4504 C4506 1.389 . S
C4505 H4484 0.950 . S
C4505 C4504 1.373 . S
C4505 C4521 1.377 . S
C4506 C4504 1.389 . S
C4506 C4507 1.524 . S
C4506 C4520 1.377 . S
C4507 C4506 1.524 . S
C4507 C4508 1.397 . S
C4507 C4512 1.363 . S
C4508 H4485 0.950 . S
C4508 C4507 1.397 . S
C4508 C4509 1.334 . S
C4509 H4486 0.950 . S
C4509 C4508 1.334 . S
C4509 C4510 1.287 . S
C4510 C4509 1.287 . S
C4510 C4511 1.524 . S
C4510 H4529 0.913 . S
C4511 H4487 0.950 . S
C4511 C4510 1.524 . S
C4511 C4512 1.415 . S
C4512 H4488 0.950 . S
C4512 C4507 1.363 . S
C4512 C4511 1.415 . S
C4513 H4489 0.951 . S
C4513 C4514 1.366 . S
C4513 C4515 1.388 . S
C4514 C4513 1.366 . S
C4514 C4518 1.385 . S
C4515 H4490 0.951 . S
C4515 C4513 1.388 . S
C4515 C4516 1.366 . S
C4516 C4515 1.366 . S
C4516 C4517 1.414 . S
C4516 C4519 1.499 . S
C4517 H4491 0.950 . S
C4517 C4516 1.414 . S
C4517 C4518 1.374 . S
C4518 H4492 0.950 . S
C4518 C4514 1.385 . S
C4518 C4517 1.374 . S
C4519 C4516 1.499 . S
C4519 C4520 1.373 . S
C4519 C4521 1.389 . S
C4520 H4493 0.950 . S
C4520 C4506 1.377 . S
C4520 C4519 1.373 . S
C4521 C4505 1.377 . S
C4521 C4519 1.389 . S
C4521 C4522 1.524 . S
C4522 C4521 1.524 . S
C4522 C4523 1.397 . S
C4522 C4527 1.363 . S
C4523 H4494 0.950 . S
C4523 C4522 1.397 . S
C4523 C4524 1.334 . S
C4524 H4495 0.950 . S
C4524 C4523 1.334 . S
C4524 C4525 1.287 . S
C4525 C4524 1.287 . S
C4525 C4526 1.524 . S
C4525 H4528 0.999 . S
C4526 H4496 0.950 . S
C4526 C4525 1.524 . S
C4526 C4527 1.415 . S
C4527 H4497 0.950 . S
C4527 C4522 1.363 . S
C4527 C4526 1.415 . S
H4528 C4525 0.999 . S
H4529 C4510 0.913 . S
H4530 C4548 0.951 . S
H4531 C4550 0.951 . S
H4532 C4552 0.950 . S
H4533 C4553 0.950 . S
H4534 C4555 0.950 . S
H4535 C4558 0.950 . S
H4536 C4559 0.950 . S
H4537 C4561 0.950 . S
H4538 C4562 0.950 . S
H4539 C4563 0.951 . S
H4540 C4565 0.951 . S
H4541 C4567 0.950 . S
H4542 C4568 0.950 . S
H4543 C4570 0.950 . S
H4544 C4573 0.950 . S
H4545 C4574 0.950 . S
H4546 C4576 0.950 . S
H4547 C4577 0.950 . S
C4548 H4530 0.951 . S
C4548 C4549 1.366 . S
C4548 C4550 1.388 . S
C4549 C4548 1.366 . S
C4549 C4553 1.385 . S
C4550 H4531 0.951 . S
C4550 C4548 1.388 . S
C4550 C4551 1.366 . S
C4551 C4550 1.366 . S
C4551 C4552 1.414 . S
C4551 C4554 1.499 . S
C4552 H4532 0.950 . S
C4552 C4551 1.414 . S
C4552 C4553 1.374 . S
C4553 H4533 0.950 . S
C4553 C4549 1.385 . S
C4553 C4552 1.374 . S
C4554 C4551 1.499 . S
C4554 C4555 1.373 . S
C4554 C4556 1.389 . S
C4555 H4534 0.950 . S
C4555 C4554 1.373 . S
C4555 C4571 1.377 . S
C4556 C4554 1.389 . S
C4556 C4557 1.524 . S
C4556 C4570 1.377 . S
C4557 C4556 1.524 . S
C4557 C4558 1.397 . S
C4557 C4562 1.363 . S
C4558 H4535 0.950 . S
C4558 C4557 1.397 . S
C4558 C4559 1.334 . S
C4559 H4536 0.950 . S
C4559 C4558 1.334 . S
C4559 C4560 1.287 . S
C4560 C4559 1.287 . S
C4560 C4561 1.524 . S
C4560 H4579 0.913 . S
C4561 H4537 0.950 . S
C4561 C4560 1.524 . S
C4561 C4562 1.415 . S
C4562 H4538 0.950 . S
C4562 C4557 1.363 . S
C4562 C4561 1.415 . S
C4563 H4539 0.951 . S
C4563 C4564 1.366 . S
C4563 C4565 1.388 . S
C4564 C4563 1.366 . S
C4564 C4568 1.385 . S
C4565 H4540 0.951 . S
C4565 C4563 1.388 . S
C4565 C4566 1.366 . S
C4566 C4565 1.366 . S
C4566 C4567 1.414 . S
C4566 C4569 1.499 . S
C4567 H4541 0.950 . S
C4567 C4566 1.414 . S
C4567 C4568 1.374 . S
C4568 H4542 0.950 . S
C4568 C4564 1.385 . S
C4568 C4567 1.374 . S
C4569 C4566 1.499 . S
C4569 C4570 1.373 . S
C4569 C4571 1.389 . S
C4570 H4543 0.950 . S
C4570 C4556 1.377 . S
C4570 C4569 1.373 . S
C4571 C4555 1.377 . S
C4571 C4569 1.389 . S
C4571 C4572 1.524 . S
C4572 C4571 1.524 . S
C4572 C4573 1.397 . S
C4572 C4577 1.363 . S
C4573 H4544 0.950 . S
C4573 C4572 1.397 . S
C4573 C4574 1.334 . S
C4574 H4545 0.950 . S
C4574 C4573 1.334 . S
C4574 C4575 1.287 . S
C4575 C4574 1.287 . S
C4575 C4576 1.524 . S
C4575 H4578 0.999 . S
C4576 H4546 0.950 . S
C4576 C4575 1.524 . S
C4576 C4577 1.415 . S
C4577 H4547 0.950 . S
C4577 C4572 1.363 . S
C4577 C4576 1.415 . S
H4578 C4575 0.999 . S
H4579 C4560 0.913 . S
H4580 C4598 0.951 . S
H4581 C4600 0.951 . S
H4582 C4602 0.950 . S
H4583 C4603 0.950 . S
H4584 C4605 0.950 . S
H4585 C4608 0.950 . S
H4586 C4609 0.950 . S
H4587 C4611 0.950 . S
H4588 C4612 0.950 . S
H4589 C4613 0.951 . S
H4590 C4615 0.951 . S
H4591 C4617 0.950 . S
H4592 C4618 0.950 . S
H4593 C4620 0.950 . S
H4594 C4623 0.950 . S
H4595 C4624 0.950 . S
H4596 C4626 0.950 . S
H4597 C4627 0.950 . S
C4598 H4580 0.951 . S
C4598 C4599 1.366 . S
C4598 C4600 1.388 . S
C4599 C4598 1.366 . S
C4599 C4603 1.385 . S
C4600 H4581 0.951 . S
C4600 C4598 1.388 . S
C4600 C4601 1.366 . S
C4601 C4600 1.366 . S
C4601 C4602 1.414 . S
C4601 C4604 1.499 . S
C4602 H4582 0.950 . S
C4602 C4601 1.414 . S
C4602 C4603 1.374 . S
C4603 H4583 0.950 . S
C4603 C4599 1.385 . S
C4603 C4602 1.374 . S
C4604 C4601 1.499 . S
C4604 C4605 1.373 . S
C4604 C4606 1.389 . S
C4605 H4584 0.950 . S
C4605 C4604 1.373 . S
C4605 C4621 1.377 . S
C4606 C4604 1.389 . S
C4606 C4607 1.524 . S
C4606 C4620 1.377 . S
C4607 C4606 1.524 . S
C4607 C4608 1.397 . S
C4607 C4612 1.363 . S
C4608 H4585 0.950 . S
C4608 C4607 1.397 . S
C4608 C4609 1.334 . S
C4609 H4586 0.950 . S
C4609 C4608 1.334 . S
C4609 C4610 1.287 . S
C4610 C4609 1.287 . S
C4610 C4611 1.524 . S
C4610 H4629 0.913 . S
C4611 H4587 0.950 . S
C4611 C4610 1.524 . S
C4611 C4612 1.415 . S
C4612 H4588 0.950 . S
C4612 C4607 1.363 . S
C4612 C4611 1.415 . S
C4613 H4589 0.951 . S
C4613 C4614 1.366 . S
C4613 C4615 1.388 . S
C4614 C4613 1.366 . S
C4614 C4618 1.385 . S
C4615 H4590 0.951 . S
C4615 C4613 1.388 . S
C4615 C4616 1.366 . S
C4616 C4615 1.366 . S
C4616 C4617 1.414 . S
C4616 C4619 1.499 . S
C4617 H4591 0.950 . S
C4617 C4616 1.414 . S
C4617 C4618 1.374 . S
C4618 H4592 0.950 . S
C4618 C4614 1.385 . S
C4618 C4617 1.374 . S
C4619 C4616 1.499 . S
C4619 C4620 1.373 . S
C4619 C4621 1.389 . S
C4620 H4593 0.950 . S
C4620 C4606 1.377 . S
C4620 C4619 1.373 . S
C4621 C4605 1.377 . S
C4621 C4619 1.389 . S
C4621 C4622 1.524 . S
C4622 C4621 1.524 . S
C4622 C4623 1.397 . S
C4622 C4627 1.363 . S
C4623 H4594 0.950 . S
C4623 C4622 1.397 . S
C4623 C4624 1.334 . S
C4624 H4595 0.950 . S
C4624 C4623 1.334 . S
C4624 C4625 1.287 . S
C4625 C4624 1.287 . S
C4625 C4626 1.524 . S
C4625 H4628 0.999 . S
C4626 H4596 0.950 . S
C4626 C4625 1.524 . S
C4626 C4627 1.415 . S
C4627 H4597 0.950 . S
C4627 C4622 1.363 . S
C4627 C4626 1.415 . S
H4628 C4625 0.999 . S
H4629 C4610 0.913 . S
H4630 C4648 0.951 . S
H4631 C4650 0.951 . S
H4632 C4652 0.950 . S
H4633 C4653 0.950 . S
H4634 C4655 0.950 . S
H4635 C4658 0.950 . S
H4636 C4659 0.950 . S
H4637 C4661 0.950 . S
H4638 C4662 0.950 . S
H4639 C4663 0.951 . S
H4640 C4665 0.951 . S
H4641 C4667 0.950 . S
H4642 C4668 0.950 . S
H4643 C4670 0.950 . S
H4644 C4673 0.950 . S
H4645 C4674 0.950 . S
H4646 C4676 0.950 . S
H4647 C4677 0.950 . S
C4648 H4630 0.951 . S
C4648 C4649 1.366 . S
C4648 C4650 1.388 . S
C4649 C4648 1.366 . S
C4649 C4653 1.385 . S
C4650 H4631 0.951 . S
C4650 C4648 1.388 . S
C4650 C4651 1.366 . S
C4651 C4650 1.366 . S
C4651 C4652 1.414 . S
C4651 C4654 1.499 . S
C4652 H4632 0.950 . S
C4652 C4651 1.414 . S
C4652 C4653 1.374 . S
C4653 H4633 0.950 . S
C4653 C4649 1.385 . S
C4653 C4652 1.374 . S
C4654 C4651 1.499 . S
C4654 C4655 1.373 . S
C4654 C4656 1.389 . S
C4655 H4634 0.950 . S
C4655 C4654 1.373 . S
C4655 C4671 1.377 . S
C4656 C4654 1.389 . S
C4656 C4657 1.524 . S
C4656 C4670 1.377 . S
C4657 C4656 1.524 . S
C4657 C4658 1.397 . S
C4657 C4662 1.363 . S
C4658 H4635 0.950 . S
C4658 C4657 1.397 . S
C4658 C4659 1.334 . S
C4659 H4636 0.950 . S
C4659 C4658 1.334 . S
C4659 C4660 1.287 . S
C4660 C4659 1.287 . S
C4660 C4661 1.524 . S
C4660 H4679 0.913 . S
C4661 H4637 0.950 . S
C4661 C4660 1.524 . S
C4661 C4662 1.415 . S
C4662 H4638 0.950 . S
C4662 C4657 1.363 . S
C4662 C4661 1.415 . S
C4663 H4639 0.951 . S
C4663 C4664 1.366 . S
C4663 C4665 1.388 . S
C4664 C4663 1.366 . S
C4664 C4668 1.385 . S
C4665 H4640 0.951 . S
C4665 C4663 1.388 . S
C4665 C4666 1.366 . S
C4666 C4665 1.366 . S
C4666 C4667 1.414 . S
C4666 C4669 1.499 . S
C4667 H4641 0.950 . S
C4667 C4666 1.414 . S
C4667 C4668 1.374 . S
C4668 H4642 0.950 . S
C4668 C4664 1.385 . S
C4668 C4667 1.374 . S
C4669 C4666 1.499 . S
C4669 C4670 1.373 . S
C4669 C4671 1.389 . S
C4670 H4643 0.950 . S
C4670 C4656 1.377 . S
C4670 C4669 1.373 . S
C4671 C4655 1.377 . S
C4671 C4669 1.389 . S
C4671 C4672 1.524 . S
C4672 C4671 1.524 . S
C4672 C4673 1.397 . S
C4672 C4677 1.363 . S
C4673 H4644 0.950 . S
C4673 C4672 1.397 . S
C4673 C4674 1.334 . S
C4674 H4645 0.950 . S
C4674 C4673 1.334 . S
C4674 C4675 1.287 . S
C4675 C4674 1.287 . S
C4675 C4676 1.524 . S
C4675 H4678 0.999 . S
C4676 H4646 0.950 . S
C4676 C4675 1.524 . S
C4676 C4677 1.415 . S
C4677 H4647 0.950 . S
C4677 C4672 1.363 . S
C4677 C4676 1.415 . S
H4678 C4675 0.999 . S
H4679 C4660 0.913 . S
H4680 C4698 0.951 . S
H4681 C4700 0.951 . S
H4682 C4702 0.950 . S
H4683 C4703 0.950 . S
H4684 C4705 0.950 . S
H4685 C4708 0.950 . S
H4686 C4709 0.950 . S
H4687 C4711 0.950 . S
H4688 C4712 0.950 . S
H4689 C4713 0.951 . S
H4690 C4715 0.951 . S
H4691 C4717 0.950 . S
H4692 C4718 0.950 . S
H4693 C4720 0.950 . S
H4694 C4723 0.950 . S
H4695 C4724 0.950 . S
H4696 C4726 0.950 . S
H4697 C4727 0.950 . S
C4698 H4680 0.951 . S
C4698 C4699 1.366 . S
C4698 C4700 1.388 . S
C4699 C4698 1.366 . S
C4699 C4703 1.385 . S
C4700 H4681 0.951 . S
C4700 C4698 1.388 . S
C4700 C4701 1.366 . S
C4701 C4700 1.366 . S
C4701 C4702 1.414 . S
C4701 C4704 1.499 . S
C4702 H4682 0.950 . S
C4702 C4701 1.414 . S
C4702 C4703 1.374 . S
C4703 H4683 0.950 . S
C4703 C4699 1.385 . S
C4703 C4702 1.374 . S
C4704 C4701 1.499 . S
C4704 C4705 1.373 . S
C4704 C4706 1.389 . S
C4705 H4684 0.950 . S
C4705 C4704 1.373 . S
C4705 C4721 1.377 . S
C4706 C4704 1.389 . S
C4706 C4707 1.524 . S
C4706 C4720 1.377 . S
C4707 C4706 1.524 . S
C4707 C4708 1.397 . S
C4707 C4712 1.363 . S
C4708 H4685 0.950 . S
C4708 C4707 1.397 . S
C4708 C4709 1.334 . S
C4709 H4686 0.950 . S
C4709 C4708 1.334 . S
C4709 C4710 1.287 . S
C4710 C4709 1.287 . S
C4710 C4711 1.524 . S
C4710 H4729 0.913 . S
C4711 H4687 0.950 . S
C4711 C4710 1.524 . S
C4711 C4712 1.415 . S
C4712 H4688 0.950 . S
C4712 C4707 1.363 . S
C4712 C4711 1.415 . S
C4713 H4689 0.951 . S
C4713 C4714 1.366 . S
C4713 C4715 1.388 . S
C4714 C4713 1.366 . S
C4714 C4718 1.385 . S
C4715 H4690 0.951 . S
C4715 C4713 1.388 . S
C4715 C4716 1.366 . S
C4716 C4715 1.366 . S
C4716 C4717 1.414 . S
C4716 C4719 1.499 . S
C4717 H4691 0.950 . S
C4717 C4716 1.414 . S
C4717 C4718 1.374 . S
C4718 H4692 0.950 . S
C4718 C4714 1.385 . S
C4718 C4717 1.374 . S
C4719 C4716 1.499 . S
C4719 C4720 1.373 . S
C4719 C4721 1.389 . S
C4720 H4693 0.950 . S
C4720 C4706 1.377 . S
C4720 C4719 1.373 . S
C4721 C4705 1.377 . S
C4721 C4719 1.389 . S
C4721 C4722 1.524 . S
C4722 C4721 1.524 . S
C4722 C4723 1.397 . S
C4722 C4727 1.363 . S
C4723 H4694 0.950 . S
C4723 C4722 1.397 . S
C4723 C4724 1.334 . S
C4724 H4695 0.950 . S
C4724 C4723 1.334 . S
C4724 C4725 1.287 . S
C4725 C4724 1.287 . S
C4725 C4726 1.524 . S
C4725 H4728 0.999 . S
C4726 H4696 0.950 . S
C4726 C4725 1.524 . S
C4726 C4727 1.415 . S
C4727 H4697 0.950 . S
C4727 C4722 1.363 . S
C4727 C4726 1.415 . S
H4728 C4725 0.999 . S
H4729 C4710 0.913 . S
H4730 C4748 0.951 . S
H4731 C4750 0.951 . S
H4732 C4752 0.950 . S
H4733 C4753 0.950 . S
H4734 C4755 0.950 . S
H4735 C4758 0.950 . S
H4736 C4759 0.950 . S
H4737 C4761 0.950 . S
H4738 C4762 0.950 . S
H4739 C4763 0.951 . S
H4740 C4765 0.951 . S
H4741 C4767 0.950 . S
H4742 C4768 0.950 . S
H4743 C4770 0.950 . S
H4744 C4773 0.950 . S
H4745 C4774 0.950 . S
H4746 C4776 0.950 . S
H4747 C4777 0.950 . S
C4748 H4730 0.951 . S
C4748 C4749 1.366 . S
C4748 C4750 1.388 . S
C4749 C4748 1.366 . S
C4749 C4753 1.385 . S
C4750 H4731 0.951 . S
C4750 C4748 1.388 . S
C4750 C4751 1.366 . S
C4751 C4750 1.366 . S
C4751 C4752 1.414 . S
C4751 C4754 1.499 . S
C4752 H4732 0.950 . S
C4752 C4751 1.414 . S
C4752 C4753 1.374 . S
C4753 H4733 0.950 . S
C4753 C4749 1.385 . S
C4753 C4752 1.374 . S
C4754 C4751 1.499 . S
C4754 C4755 1.373 . S
C4754 C4756 1.389 . S
C4755 H4734 0.950 . S
C4755 C4754 1.373 . S
C4755 C4771 1.377 . S
C4756 C4754 1.389 . S
C4756 C4757 1.524 . S
C4756 C4770 1.377 . S
C4757 C4756 1.524 . S
C4757 C4758 1.397 . S
C4757 C4762 1.363 . S
C4758 H4735 0.950 . S
C4758 C4757 1.397 . S
C4758 C4759 1.334 . S
C4759 H4736 0.950 . S
C4759 C4758 1.334 . S
C4759 C4760 1.287 . S
C4760 C4759 1.287 . S
C4760 C4761 1.524 . S
C4760 H4779 0.913 . S
C4761 H4737 0.950 . S
C4761 C4760 1.524 . S
C4761 C4762 1.415 . S
C4762 H4738 0.950 . S
C4762 C4757 1.363 . S
C4762 C4761 1.415 . S
C4763 H4739 0.951 . S
C4763 C4764 1.366 . S
C4763 C4765 1.388 . S
C4764 C4763 1.366 . S
C4764 C4768 1.385 . S
C4765 H4740 0.951 . S
C4765 C4763 1.388 . S
C4765 C4766 1.366 . S
C4766 C4765 1.366 . S
C4766 C4767 1.414 . S
C4766 C4769 1.499 . S
C4767 H4741 0.950 . S
C4767 C4766 1.414 . S
C4767 C4768 1.374 . S
C4768 H4742 0.950 . S
C4768 C4764 1.385 . S
C4768 C4767 1.374 . S
C4769 C4766 1.499 . S
C4769 C4770 1.373 . S
C4769 C4771 1.389 . S
C4770 H4743 0.950 . S
C4770 C4756 1.377 . S
C4770 C4769 1.373 . S
C4771 C4755 1.377 . S
C4771 C4769 1.389 . S
C4771 C4772 1.524 . S
C4772 C4771 1.524 . S
C4772 C4773 1.397 . S
C4772 C4777 1.363 . S
C4773 H4744 0.950 . S
C4773 C4772 1.397 . S
C4773 C4774 1.334 . S
C4774 H4745 0.950 . S
C4774 C4773 1.334 . S
C4774 C4775 1.287 . S
C4775 C4774 1.287 . S
C4775 C4776 1.524 . S
C4775 H4778 0.999 . S
C4776 H4746 0.950 . S
C4776 C4775 1.524 . S
C4776 C4777 1.415 . S
C4777 H4747 0.950 . S
C4777 C4772 1.363 . S
C4777 C4776 1.415 . S
H4778 C4775 0.999 . S
H4779 C4760 0.913 . S
H4780 C4798 0.951 . S
H4781 C4800 0.951 . S
H4782 C4802 0.950 . S
H4783 C4803 0.950 . S
H4784 C4805 0.950 . S
H4785 C4808 0.950 . S
H4786 C4809 0.950 . S
H4787 C4811 0.950 . S
H4788 C4812 0.950 . S
H4789 C4813 0.951 . S
H4790 C4815 0.951 . S
H4791 C4817 0.950 . S
H4792 C4818 0.950 . S
H4793 C4820 0.950 . S
H4794 C4823 0.950 . S
H4795 C4824 0.950 . S
H4796 C4826 0.950 . S
H4797 C4827 0.950 . S
C4798 H4780 0.951 . S
C4798 C4799 1.366 . S
C4798 C4800 1.388 . S
C4799 C4798 1.366 . S
C4799 C4803 1.385 . S
C4800 H4781 0.951 . S
C4800 C4798 1.388 . S
C4800 C4801 1.366 . S
C4801 C4800 1.366 . S
C4801 C4802 1.414 . S
C4801 C4804 1.499 . S
C4802 H4782 0.950 . S
C4802 C4801 1.414 . S
C4802 C4803 1.374 . S
C4803 H4783 0.950 . S
C4803 C4799 1.385 . S
C4803 C4802 1.374 . S
C4804 C4801 1.499 . S
C4804 C4805 1.373 . S
C4804 C4806 1.389 . S
C4805 H4784 0.950 . S
C4805 C4804 1.373 . S
C4805 C4821 1.377 . S
C4806 C4804 1.389 . S
C4806 C4807 1.524 . S
C4806 C4820 1.377 . S
C4807 C4806 1.524 . S
C4807 C4808 1.397 . S
C4807 C4812 1.363 . S
C4808 H4785 0.950 . S
C4808 C4807 1.397 . S
C4808 C4809 1.334 . S
C4809 H4786 0.950 . S
C4809 C4808 1.334 . S
C4809 C4810 1.287 . S
C4810 C4809 1.287 . S
C4810 C4811 1.524 . S
C4810 H4829 0.913 . S
C4811 H4787 0.950 . S
C4811 C4810 1.524 . S
C4811 C4812 1.415 . S
C4812 H4788 0.950 . S
C4812 C4807 1.363 . S
C4812 C4811 1.415 . S
C4813 H4789 0.951 . S
C4813 C4814 1.366 . S
C4813 C4815 1.388 . S
C4814 C4813 1.366 . S
C4814 C4818 1.385 . S
C4815 H4790 0.951 . S
C4815 C4813 1.388 . S
C4815 C4816 1.366 . S
C4816 C4815 1.366 . S
C4816 C4817 1.414 . S
C4816 C4819 1.499 . S
C4817 H4791 0.950 . S
C4817 C4816 1.414 . S
C4817 C4818 1.374 . S
C4818 H4792 0.950 . S
C4818 C4814 1.385 . S
C4818 C4817 1.374 . S
C4819 C4816 1.499 . S
C4819 C4820 1.373 . S
C4819 C4821 1.389 . S
C4820 H4793 0.950 . S
C4820 C4806 1.377 . S
C4820 C4819 1.373 . S
C4821 C4805 1.377 . S
C4821 C4819 1.389 . S
C4821 C4822 1.524 . S
C4822 C4821 1.524 . S
C4822 C4823 1.397 . S
C4822 C4827 1.363 . S
C4823 H4794 0.950 . S
C4823 C4822 1.397 . S
C4823 C4824 1.334 . S
C4824 H4795 0.950 . S
C4824 C4823 1.334 . S
C4824 C4825 1.287 . S
C4825 C4824 1.287 . S
C4825 C4826 1.524 . S
C4825 H4828 0.999 . S
C4826 H4796 0.950 . S
C4826 C4825 1.524 . S
C4826 C4827 1.415 . S
C4827 H4797 0.950 . S
C4827 C4822 1.363 . S
C4827 C4826 1.415 . S
H4828 C4825 0.999 . S
H4829 C4810 0.913 . S
H4830 C4848 0.951 . S
H4831 C4850 0.951 . S
H4832 C4852 0.950 . S
H4833 C4853 0.950 . S
H4834 C4855 0.950 . S
H4835 C4858 0.950 . S
H4836 C4859 0.950 . S
H4837 C4861 0.950 . S
H4838 C4862 0.950 . S
H4839 C4863 0.951 . S
H4840 C4865 0.951 . S
H4841 C4867 0.950 . S
H4842 C4868 0.950 . S
H4843 C4870 0.950 . S
H4844 C4873 0.950 . S
H4845 C4874 0.950 . S
H4846 C4876 0.950 . S
H4847 C4877 0.950 . S
C4848 H4830 0.951 . S
C4848 C4849 1.366 . S
C4848 C4850 1.388 . S
C4849 C4848 1.366 . S
C4849 C4853 1.385 . S
C4850 H4831 0.951 . S
C4850 C4848 1.388 . S
C4850 C4851 1.366 . S
C4851 C4850 1.366 . S
C4851 C4852 1.414 . S
C4851 C4854 1.499 . S
C4852 H4832 0.950 . S
C4852 C4851 1.414 . S
C4852 C4853 1.374 . S
C4853 H4833 0.950 . S
C4853 C4849 1.385 . S
C4853 C4852 1.374 . S
C4854 C4851 1.499 . S
C4854 C4855 1.373 . S
C4854 C4856 1.389 . S
C4855 H4834 0.950 . S
C4855 C4854 1.373 . S
C4855 C4871 1.377 . S
C4856 C4854 1.389 . S
C4856 C4857 1.524 . S
C4856 C4870 1.377 . S
C4857 C4856 1.524 . S
C4857 C4858 1.397 . S
C4857 C4862 1.363 . S
C4858 H4835 0.950 . S
C4858 C4857 1.397 . S
C4858 C4859 1.334 . S
C4859 H4836 0.950 . S
C4859 C4858 1.334 . S
C4859 C4860 1.287 . S
C4860 C4859 1.287 . S
C4860 C4861 1.524 . S
C4860 H4879 0.913 . S
C4861 H4837 0.950 . S
C4861 C4860 1.524 . S
C4861 C4862 1.415 . S
C4862 H4838 0.950 . S
C4862 C4857 1.363 . S
C4862 C4861 1.415 . S
C4863 H4839 0.951 . S
C4863 C4864 1.366 . S
C4863 C4865 1.388 . S
C4864 C4863 1.366 . S
C4864 C4868 1.385 . S
C4865 H4840 0.951 . S
C4865 C4863 1.388 . S
C4865 C4866 1.366 . S
C4866 C4865 1.366 . S
C4866 C4867 1.414 . S
C4866 C4869 1.499 . S
C4867 H4841 0.950 . S
C4867 C4866 1.414 . S
C4867 C4868 1.374 . S
C4868 H4842 0.950 . S
C4868 C4864 1.385 . S
C4868 C4867 1.374 . S
C4869 C4866 1.499 . S
C4869 C4870 1.373 . S
C4869 C4871 1.389 . S
C4870 H4843 0.950 . S
C4870 C4856 1.377 . S
C4870 C4869 1.373 . S
C4871 C4855 1.377 . S
C4871 C4869 1.389 . S
C4871 C4872 1.524 . S
C4872 C4871 1.524 . S
C4872 C4873 1.397 . S
C4872 C4877 1.363 . S
C4873 H4844 0.950 . S
C4873 C4872 1.397 . S
C4873 C4874 1.334 . S
C4874 H4845 0.950 . S
C4874 C4873 1.334 . S
C4874 C4875 1.287 . S
C4875 C4874 1.287 . S
C4875 C4876 1.524 . S
C4875 H4878 0.999 . S
C4876 H4846 0.950 . S
C4876 C4875 1.524 . S
C4876 C4877 1.415 . S
C4877 H4847 0.950 . S
C4877 C4872 1.363 . S
C4877 C4876 1.415 . S
H4878 C4875 0.999 . S
H4879 C4860 0.913 . S
H4880 C4898 0.951 . S
H4881 C4900 0.951 . S
H4882 C4902 0.950 . S
H4883 C4903 0.950 . S
H4884 C4905 0.950 . S
H4885 C4908 0.950 . S
H4886 C4909 0.950 . S
H4887 C4911 0.950 . S
H4888 C4912 0.950 . S
H4889 C4913 0.951 . S
H4890 C4915 0.951 . S
H4891 C4917 0.950 . S
H4892 C4918 0.950 . S
H4893 C4920 0.950 . S
H4894 C4923 0.950 . S
H4895 C4924 0.950 . S
H4896 C4926 0.950 . S
H4897 C4927 0.950 . S
C4898 H4880 0.951 . S
C4898 C4899 1.366 . S
C4898 C4900 1.388 . S
C4899 C4898 1.366 . S
C4899 C4903 1.385 . S
C4900 H4881 0.951 . S
C4900 C4898 1.388 . S
C4900 C4901 1.366 . S
C4901 C4900 1.366 . S
C4901 C4902 1.414 . S
C4901 C4904 1.499 . S
C4902 H4882 0.950 . S
C4902 C4901 1.414 . S
C4902 C4903 1.374 . S
C4903 H4883 0.950 . S
C4903 C4899 1.385 . S
C4903 C4902 1.374 . S
C4904 C4901 1.499 . S
C4904 C4905 1.373 . S
C4904 C4906 1.389 . S
C4905 H4884 0.950 . S
C4905 C4904 1.373 . S
C4905 C4921 1.377 . S
C4906 C4904 1.389 . S
C4906 C4907 1.524 . S
C4906 C4920 1.377 . S
C4907 C4906 1.524 . S
C4907 C4908 1.397 . S
C4907 C4912 1.363 . S
C4908 H4885 0.950 . S
C4908 C4907 1.397 . S
C4908 C4909 1.334 . S
C4909 H4886 0.950 . S
C4909 C4908 1.334 . S
C4909 C4910 1.287 . S
C4910 C4909 1.287 . S
C4910 C4911 1.524 . S
C4910 H4929 0.913 . S
C4911 H4887 0.950 . S
C4911 C4910 1.524 . S
C4911 C4912 1.415 . S
C4912 H4888 0.950 . S
C4912 C4907 1.363 . S
C4912 C4911 1.415 . S
C4913 H4889 0.951 . S
C4913 C4914 1.366 . S
C4913 C4915 1.388 . S
C4914 C4913 1.366 . S
C4914 C4918 1.385 . S
C4915 H4890 0.951 . S
C4915 C4913 1.388 . S
C4915 C4916 1.366 . S
C4916 C4915 1.366 . S
C4916 C4917 1.414 . S
C4916 C4919 1.499 . S
C4917 H4891 0.950 . S
C4917 C4916 1.414 . S
C4917 C4918 1.374 . S
C4918 H4892 0.950 . S
C4918 C4914 1.385 . S
C4918 C4917 1.374 . S
C4919 C4916 1.499 . S
C4919 C4920 1.373 . S
C4919 C4921 1.389 . S
C4920 H4893 0.950 . S
C4920 C4906 1.377 . S
C4920 C4919 1.373 . S
C4921 C4905 1.377 . S
C4921 C4919 1.389 . S
C4921 C4922 1.524 . S
C4922 C4921 1.524 . S
C4922 C4923 1.397 . S
C4922 C4927 1.363 . S
C4923 H4894 0.950 . S
C4923 C4922 1.397 . S
C4923 C4924 1.334 . S
C4924 H4895 0.950 . S
C4924 C4923 1.334 . S
C4924 C4925 1.287 . S
C4925 C4924 1.287 . S
C4925 C4926 1.524 . S
C4925 H4928 0.999 . S
C4926 H4896 0.950 . S
C4926 C4925 1.524 . S
C4926 C4927 1.415 . S
C4927 H4897 0.950 . S
C4927 C4922 1.363 . S
C4927 C4926 1.415 . S
H4928 C4925 0.999 . S
H4929 C4910 0.913 . S
H4930 C4948 0.951 . S
H4931 C4950 0.951 . S
H4932 C4952 0.950 . S
H4933 C4953 0.950 . S
H4934 C4955 0.950 . S
H4935 C4958 0.950 . S
H4936 C4959 0.950 . S
H4937 C4961 0.950 . S
H4938 C4962 0.950 . S
H4939 C4963 0.951 . S
H4940 C4965 0.951 . S
H4941 C4967 0.950 . S
H4942 C4968 0.950 . S
H4943 C4970 0.950 . S
H4944 C4973 0.950 . S
H4945 C4974 0.950 . S
H4946 C4976 0.950 . S
H4947 C4977 0.950 . S
C4948 H4930 0.951 . S
C4948 C4949 1.366 . S
C4948 C4950 1.388 . S
C4949 C4948 1.366 . S
C4949 C4953 1.385 . S
C4950 H4931 0.951 . S
C4950 C4948 1.388 . S
C4950 C4951 1.366 . S
C4951 C4950 1.366 . S
C4951 C4952 1.414 . S
C4951 C4954 1.499 . S
C4952 H4932 0.950 . S
C4952 C4951 1.414 . S
C4952 C4953 1.374 . S
C4953 H4933 0.950 . S
C4953 C4949 1.385 . S
C4953 C4952 1.374 . S
C4954 C4951 1.499 . S
C4954 C4955 1.373 . S
C4954 C4956 1.389 . S
C4955 H4934 0.950 . S
C4955 C4954 1.373 . S
C4955 C4971 1.377 . S
C4956 C4954 1.389 . S
C4956 C4957 1.524 . S
C4956 C4970 1.377 . S
C4957 C4956 1.524 . S
C4957 C4958 1.397 . S
C4957 C4962 1.363 . S
C4958 H4935 0.950 . S
C4958 C4957 1.397 . S
C4958 C4959 1.334 . S
C4959 H4936 0.950 . S
C4959 C4958 1.334 . S
C4959 C4960 1.287 . S
C4960 C4959 1.287 . S
C4960 C4961 1.524 . S
C4960 H4979 0.913 . S
C4961 H4937 0.950 . S
C4961 C4960 1.524 . S
C4961 C4962 1.415 . S
C4962 H4938 0.950 . S
C4962 C4957 1.363 . S
C4962 C4961 1.415 . S
C4963 H4939 0.951 . S
C4963 C4964 1.366 . S
C4963 C4965 1.388 . S
C4964 C4963 1.366 . S
C4964 C4968 1.385 . S
C4965 H4940 0.951 . S
C4965 C4963 1.388 . S
C4965 C4966 1.366 . S
C4966 C4965 1.366 . S
C4966 C4967 1.414 . S
C4966 C4969 1.499 . S
C4967 H4941 0.950 . S
C4967 C4966 1.414 . S
C4967 C4968 1.374 . S
C4968 H4942 0.950 . S
C4968 C4964 1.385 . S
C4968 C4967 1.374 . S
C4969 C4966 1.499 . S
C4969 C4970 1.373 . S
C4969 C4971 1.389 . S
C4970 H4943 0.950 . S
C4970 C4956 1.377 . S
C4970 C4969 1.373 . S
C4971 C4955 1.377 . S
C4971 C4969 1.389 . S
C4971 C4972 1.524 . S
C4972 C4971 1.524 . S
C4972 C4973 1.397 . S
C4972 C4977 1.363 . S
C4973 H4944 0.950 . S
C4973 C4972 1.397 . S
C4973 C4974 1.334 . S
C4974 H4945 0.950 . S
C4974 C4973 1.334 . S
C4974 C4975 1.287 . S
C4975 C4974 1.287 . S
C4975 C4976 1.524 . S
C4975 H4978 0.999 . S
C4976 H4946 0.950 . S
C4976 C4975 1.524 . S
C4976 C4977 1.415 . S
C4977 H4947 0.950 . S
C4977 C4972 1.363 . S
C4977 C4976 1.415 . S
H4978 C4975 0.999 . S
H4979 C4960 0.913 . S
H4980 C4998 0.951 . S
H4981 C5000 0.951 . S
H4982 C5002 0.950 . S
H4983 C5003 0.950 . S
H4984 C5005 0.950 . S
H4985 C5008 0.950 . S
H4986 C5009 0.950 . S
H4987 C5011 0.950 . S
H4988 C5012 0.950 . S
H4989 C5013 0.951 . S
H4990 C5015 0.951 . S
H4991 C5017 0.950 . S
H4992 C5018 0.950 . S
H4993 C5020 0.950 . S
H4994 C5023 0.950 . S
H4995 C5024 0.950 . S
H4996 C5026 0.950 . S
H4997 C5027 0.950 . S
C4998 H4980 0.951 . S
C4998 C4999 1.366 . S
C4998 C5000 1.388 . S
C4999 C4998 1.366 . S
C4999 C5003 1.385 . S
C5000 H4981 0.951 . S
C5000 C4998 1.388 . S
C5000 C5001 1.366 . S
C5001 C5000 1.366 . S
C5001 C5002 1.414 . S
C5001 C5004 1.499 . S
C5002 H4982 0.950 . S
C5002 C5001 1.414 . S
C5002 C5003 1.374 . S
C5003 H4983 0.950 . S
C5003 C4999 1.385 . S
C5003 C5002 1.374 . S
C5004 C5001 1.499 . S
C5004 C5005 1.373 . S
C5004 C5006 1.389 . S
C5005 H4984 0.950 . S
C5005 C5004 1.373 . S
C5005 C5021 1.377 . S
C5006 C5004 1.389 . S
C5006 C5007 1.524 . S
C5006 C5020 1.377 . S
C5007 C5006 1.524 . S
C5007 C5008 1.397 . S
C5007 C5012 1.363 . S
C5008 H4985 0.950 . S
C5008 C5007 1.397 . S
C5008 C5009 1.334 . S
C5009 H4986 0.950 . S
C5009 C5008 1.334 . S
C5009 C5010 1.287 . S
C5010 C5009 1.287 . S
C5010 C5011 1.524 . S
C5010 H5029 0.913 . S
C5011 H4987 0.950 . S
C5011 C5010 1.524 . S
C5011 C5012 1.415 . S
C5012 H4988 0.950 . S
C5012 C5007 1.363 . S
C5012 C5011 1.415 . S
C5013 H4989 0.951 . S
C5013 C5014 1.366 . S
C5013 C5015 1.388 . S
C5014 C5013 1.366 . S
C5014 C5018 1.385 . S
C5015 H4990 0.951 . S
C5015 C5013 1.388 . S
C5015 C5016 1.366 . S
C5016 C5015 1.366 . S
C5016 C5017 1.414 . S
C5016 C5019 1.499 . S
C5017 H4991 0.950 . S
C5017 C5016 1.414 . S
C5017 C5018 1.374 . S
C5018 H4992 0.950 . S
C5018 C5014 1.385 . S
C5018 C5017 1.374 . S
C5019 C5016 1.499 . S
C5019 C5020 1.373 . S
C5019 C5021 1.389 . S
C5020 H4993 0.950 . S
C5020 C5006 1.377 . S
C5020 C5019 1.373 . S
C5021 C5005 1.377 . S
C5021 C5019 1.389 . S
C5021 C5022 1.524 . S
C5022 C5021 1.524 . S
C5022 C5023 1.397 . S
C5022 C5027 1.363 . S
C5023 H4994 0.950 . S
C5023 C5022 1.397 . S
C5023 C5024 1.334 . S
C5024 H4995 0.950 . S
C5024 C5023 1.334 . S
C5024 C5025 1.287 . S
C5025 C5024 1.287 . S
C5025 C5026 1.524 . S
C5025 H5028 0.999 . S
C5026 H4996 0.950 . S
C5026 C5025 1.524 . S
C5026 C5027 1.415 . S
C5027 H4997 0.950 . S
C5027 C5022 1.363 . S
C5027 C5026 1.415 . S
H5028 C5025 0.999 . S
H5029 C5010 0.913 . S
H5030 C5048 0.951 . S
H5031 C5050 0.951 . S
H5032 C5052 0.950 . S
H5033 C5053 0.950 . S
H5034 C5055 0.950 . S
H5035 C5058 0.950 . S
H5036 C5059 0.950 . S
H5037 C5061 0.950 . S
H5038 C5062 0.950 . S
H5039 C5063 0.951 . S
H5040 C5065 0.951 . S
H5041 C5067 0.950 . S
H5042 C5068 0.950 1_565 S
H5043 C5070 0.950 . S
H5044 C5073 0.978 . S
H5045 C5074 0.950 . S
H5046 C5076 0.950 . S
H5047 C5077 0.950 1_554 S
C5048 H5030 0.951 . S
C5048 C5049 1.366 . S
C5048 C5050 1.388 . S
C5049 C5048 1.366 . S
C5049 C5053 1.385 . S
C5050 H5031 0.951 . S
C5050 C5048 1.388 . S
C5050 C5051 1.366 . S
C5051 C5050 1.366 . S
C5051 C5052 1.414 . S
C5051 C5054 1.499 . S
C5052 H5032 0.950 . S
C5052 C5051 1.414 . S
C5052 C5053 1.374 . S
C5053 H5033 0.950 . S
C5053 C5049 1.385 . S
C5053 C5052 1.374 . S
C5054 C5051 1.499 . S
C5054 C5055 1.373 . S
C5054 C5056 1.389 . S
C5055 H5034 0.950 . S
C5055 C5054 1.373 . S
C5055 C5071 1.392 . S
C5056 C5054 1.389 . S
C5056 C5057 1.524 . S
C5056 C5070 1.377 . S
C5057 C5056 1.524 . S
C5057 C5058 1.397 . S
C5057 C5062 1.363 . S
C5058 H5035 0.950 . S
C5058 C5057 1.397 . S
C5058 C5059 1.334 . S
C5059 H5036 0.950 . S
C5059 C5058 1.334 . S
C5059 C5060 1.287 . S
C5060 C5059 1.287 . S
C5060 C5061 1.524 . S
C5060 H5079 0.913 . S
C5061 H5037 0.950 . S
C5061 C5060 1.524 . S
C5061 C5062 1.415 . S
C5062 H5038 0.950 . S
C5062 C5057 1.363 . S
C5062 C5061 1.415 . S
C5063 H5039 0.951 . S
C5063 C5064 1.366 . S
C5063 C5065 1.388 . S
C5064 C5063 1.366 . S
C5064 C5068 1.385 . S
C5065 H5040 0.951 . S
C5065 C5063 1.388 . S
C5065 C5066 1.366 . S
C5066 C5065 1.366 . S
C5066 C5067 1.414 1_545 S
C5066 C5069 1.499 1_545 S
C5067 H5041 0.950 . S
C5067 C5066 1.414 1_565 S
C5067 C5068 1.374 1_565 S
C5068 H5042 0.950 1_545 S
C5068 C5064 1.385 . S
C5068 C5067 1.374 1_545 S
C5069 C5066 1.499 1_565 S
C5069 C5070 1.373 . S
C5069 C5071 1.417 . S
C5070 H5043 0.950 . S
C5070 C5056 1.377 . S
C5070 C5069 1.373 . S
C5071 C5055 1.392 . S
C5071 C5069 1.417 . S
C5071 C5072 1.483 1_564 S
C5072 C5071 1.483 1_546 S
C5072 C5073 1.397 . S
C5072 C5077 1.363 . S
C5073 H5044 0.978 . S
C5073 C5072 1.397 . S
C5073 C5074 1.334 . S
C5074 H5045 0.950 . S
C5074 C5073 1.334 . S
C5074 C5075 1.287 . S
C5075 C5074 1.287 . S
C5075 C5076 1.524 . S
C5075 H5078 0.999 . S
C5076 H5046 0.950 . S
C5076 C5075 1.524 . S
C5076 C5077 1.415 . S
C5077 H5047 0.950 1_556 S
C5077 C5072 1.363 . S
C5077 C5076 1.415 . S
H5078 C5075 0.999 . S
H5079 C5060 0.913 . S
H5080 C5098 0.951 . S
H5081 C5100 0.951 . S
H5082 C5102 0.950 . S
H5083 C5103 0.950 . S
H5084 C5105 0.950 . S
H5085 C5108 0.950 . S
H5086 C5109 0.950 . S
H5087 C5111 0.950 . S
H5088 C5112 0.950 . S
H5089 C5113 0.951 . S
H5090 C5115 0.951 . S
H5091 C5117 0.950 . S
H5092 C5118 0.950 . S
H5093 C5120 0.950 . S
H5094 C5123 0.950 . S
H5095 C5124 0.950 . S
H5096 C5126 0.950 . S
H5097 C5127 0.950 . S
C5098 H5080 0.951 . S
C5098 C5099 1.366 . S
C5098 C5100 1.388 . S
C5099 C5098 1.366 . S
C5099 C5103 1.385 . S
C5100 H5081 0.951 . S
C5100 C5098 1.388 . S
C5100 C5101 1.366 . S
C5101 C5100 1.366 . S
C5101 C5102 1.414 . S
C5101 C5104 1.499 . S
C5102 H5082 0.950 . S
C5102 C5101 1.414 . S
C5102 C5103 1.374 . S
C5103 H5083 0.950 . S
C5103 C5099 1.385 . S
C5103 C5102 1.374 . S
C5104 C5101 1.499 . S
C5104 C5105 1.373 . S
C5104 C5106 1.389 . S
C5105 H5084 0.950 . S
C5105 C5104 1.373 . S
C5105 C5121 1.377 . S
C5106 C5104 1.389 . S
C5106 C5107 1.524 . S
C5106 C5120 1.377 . S
C5107 C5106 1.524 . S
C5107 C5108 1.397 . S
C5107 C5112 1.363 . S
C5108 H5085 0.950 . S
C5108 C5107 1.397 . S
C5108 C5109 1.334 . S
C5109 H5086 0.950 . S
C5109 C5108 1.334 . S
C5109 C5110 1.287 . S
C5110 C5109 1.287 . S
C5110 C5111 1.524 . S
C5110 H5129 0.913 . S
C5111 H5087 0.950 . S
C5111 C5110 1.524 . S
C5111 C5112 1.415 . S
C5112 H5088 0.950 . S
C5112 C5107 1.363 . S
C5112 C5111 1.415 . S
C5113 H5089 0.951 . S
C5113 C5114 1.366 . S
C5113 C5115 1.388 . S
C5114 C5113 1.366 . S
C5114 C5118 1.385 . S
C5115 H5090 0.951 . S
C5115 C5113 1.388 . S
C5115 C5116 1.366 . S
C5116 C5115 1.366 . S
C5116 C5117 1.414 . S
C5116 C5119 1.499 . S
C5117 H5091 0.950 . S
C5117 C5116 1.414 . S
C5117 C5118 1.374 . S
C5118 H5092 0.950 . S
C5118 C5114 1.385 . S
C5118 C5117 1.374 . S
C5119 C5116 1.499 . S
C5119 C5120 1.373 . S
C5119 C5121 1.389 . S
C5120 H5093 0.950 . S
C5120 C5106 1.377 . S
C5120 C5119 1.373 . S
C5121 C5105 1.377 . S
C5121 C5119 1.389 . S
C5121 C5122 1.524 . S
C5122 C5121 1.524 . S
C5122 C5123 1.397 . S
C5122 C5127 1.363 . S
C5123 H5094 0.950 . S
C5123 C5122 1.397 . S
C5123 C5124 1.334 . S
C5124 H5095 0.950 . S
C5124 C5123 1.334 . S
C5124 C5125 1.287 . S
C5125 C5124 1.287 . S
C5125 C5126 1.524 . S
C5125 H5128 0.999 . S
C5126 H5096 0.950 . S
C5126 C5125 1.524 . S
C5126 C5127 1.415 . S
C5127 H5097 0.950 . S
C5127 C5122 1.363 . S
C5127 C5126 1.415 . S
H5128 C5125 0.999 . S
H5129 C5110 0.913 . S
H5130 C5148 0.951 . S
H5131 C5150 0.951 . S
H5132 C5152 0.950 . S
H5133 C5153 0.950 . S
H5134 C5155 0.950 . S
H5135 C5158 0.950 1_556 S
H5136 C5159 0.950 1_556 S
H5137 C5161 0.950 . S
H5138 C5162 0.950 . S
H5139 C5163 0.951 . S
H5140 C5165 0.951 1_556 S
H5141 C5167 0.950 . S
H5142 C5168 0.950 . S
H5143 C5170 0.950 . S
H5144 C5173 0.950 . S
H5145 C5174 0.950 . S
H5146 C5176 0.950 . S
H5147 C5177 0.950 . S
C5148 H5130 0.951 . S
C5148 C5149 1.366 . S
C5148 C5150 1.388 . S
C5149 C5148 1.366 . S
C5149 C5153 1.385 1_554 S
C5150 H5131 0.951 . S
C5150 C5148 1.388 . S
C5150 C5151 1.366 . S
C5151 C5150 1.366 . S
C5151 C5152 1.414 1_554 S
C5151 C5154 1.499 . S
C5152 H5132 0.950 . S
C5152 C5151 1.414 1_556 S
C5152 C5153 1.374 . S
C5153 H5133 0.950 . S
C5153 C5149 1.385 1_556 S
C5153 C5152 1.374 . S
C5154 C5151 1.499 . S
C5154 C5155 1.373 . S
C5154 C5156 1.389 . S
C5155 H5134 0.950 . S
C5155 C5154 1.373 . S
C5155 C5171 1.377 . S
C5156 C5154 1.389 . S
C5156 C5157 1.524 . S
C5156 C5170 1.377 . S
C5157 C5156 1.524 . S
C5157 C5158 1.397 . S
C5157 C5162 1.363 . S
C5158 H5135 0.950 1_554 S
C5158 C5157 1.397 . S
C5158 C5159 1.334 . S
C5159 H5136 0.950 1_554 S
C5159 C5158 1.334 . S
C5159 C5160 1.287 . S
C5160 C5159 1.287 . S
C5160 C5161 1.524 . S
C5160 H5179 0.913 . S
C5161 H5137 0.950 . S
C5161 C5160 1.524 . S
C5161 C5162 1.415 . S
C5162 H5138 0.950 . S
C5162 C5157 1.363 . S
C5162 C5161 1.415 . S
C5163 H5139 0.951 . S
C5163 C5164 1.366 . S
C5163 C5165 1.388 . S
C5164 C5163 1.366 . S
C5164 C5168 1.385 . S
C5165 H5140 0.951 1_554 S
C5165 C5163 1.388 . S
C5165 C5166 1.366 . S
C5166 C5165 1.366 . S
C5166 C5167 1.414 . S
C5166 C5169 1.499 . S
C5167 H5141 0.950 . S
C5167 C5166 1.414 . S
C5167 C5168 1.374 . S
C5168 H5142 0.950 . S
C5168 C5164 1.385 . S
C5168 C5167 1.374 . S
C5169 C5166 1.499 . S
C5169 C5170 1.373 . S
C5169 C5171 1.389 . S
C5170 H5143 0.950 . S
C5170 C5156 1.377 . S
C5170 C5169 1.373 . S
C5171 C5155 1.377 . S
C5171 C5169 1.389 . S
C5171 C5172 1.524 . S
C5172 C5171 1.524 . S
C5172 C5173 1.397 . S
C5172 C5177 1.363 1_554 S
C5173 H5144 0.950 . S
C5173 C5172 1.397 . S
C5173 C5174 1.334 . S
C5174 H5145 0.950 . S
C5174 C5173 1.334 . S
C5174 C5175 1.287 . S
C5175 C5174 1.287 . S
C5175 C5176 1.524 1_554 S
C5175 H5178 0.999 . S
C5176 H5146 0.950 . S
C5176 C5175 1.524 1_556 S
C5176 C5177 1.415 . S
C5177 H5147 0.950 . S
C5177 C5172 1.363 1_556 S
C5177 C5176 1.415 . S
H5178 C5175 0.999 . S
H5179 C5160 0.913 . S
H5180 C5198 0.951 . S
H5181 C5200 0.951 . S
H5182 C5202 0.950 . S
H5183 C5203 0.950 . S
H5184 C5205 0.950 . S
H5185 C5208 0.950 . S
H5186 C5209 0.950 . S
H5187 C5211 0.950 . S
H5188 C5212 0.950 . S
H5189 C5213 0.951 . S
H5190 C5215 0.951 . S
H5191 C5217 0.950 . S
H5192 C5218 0.950 . S
H5193 C5220 0.950 . S
H5194 C5223 0.950 . S
H5195 C5224 0.950 . S
H5196 C5226 0.950 . S
H5197 C5227 0.950 . S
C5198 H5180 0.951 . S
C5198 C5199 1.366 . S
C5198 C5200 1.388 . S
C5199 C5198 1.366 . S
C5199 C5203 1.385 . S
C5200 H5181 0.951 . S
C5200 C5198 1.388 . S
C5200 C5201 1.366 . S
C5201 C5200 1.366 . S
C5201 C5202 1.414 . S
C5201 C5204 1.499 . S
C5202 H5182 0.950 . S
C5202 C5201 1.414 . S
C5202 C5203 1.374 . S
C5203 H5183 0.950 . S
C5203 C5199 1.385 . S
C5203 C5202 1.374 . S
C5204 C5201 1.499 . S
C5204 C5205 1.373 . S
C5204 C5206 1.389 . S
C5205 H5184 0.950 . S
C5205 C5204 1.373 . S
C5205 C5221 1.377 . S
C5206 C5204 1.389 . S
C5206 C5207 1.524 . S
C5206 C5220 1.377 . S
C5207 C5206 1.524 . S
C5207 C5208 1.397 . S
C5207 C5212 1.363 . S
C5208 H5185 0.950 . S
C5208 C5207 1.397 . S
C5208 C5209 1.334 . S
C5209 H5186 0.950 . S
C5209 C5208 1.334 . S
C5209 C5210 1.287 . S
C5210 C5209 1.287 . S
C5210 C5211 1.524 . S
C5210 H5229 0.913 . S
C5211 H5187 0.950 . S
C5211 C5210 1.524 . S
C5211 C5212 1.415 . S
C5212 H5188 0.950 . S
C5212 C5207 1.363 . S
C5212 C5211 1.415 . S
C5213 H5189 0.951 . S
C5213 C5214 1.366 . S
C5213 C5215 1.388 . S
C5214 C5213 1.366 . S
C5214 C5218 1.385 . S
C5215 H5190 0.951 . S
C5215 C5213 1.388 . S
C5215 C5216 1.366 . S
C5216 C5215 1.366 . S
C5216 C5217 1.414 . S
C5216 C5219 1.499 . S
C5217 H5191 0.950 . S
C5217 C5216 1.414 . S
C5217 C5218 1.374 . S
C5218 H5192 0.950 . S
C5218 C5214 1.385 . S
C5218 C5217 1.374 . S
C5219 C5216 1.499 . S
C5219 C5220 1.373 . S
C5219 C5221 1.389 . S
C5220 H5193 0.950 . S
C5220 C5206 1.377 . S
C5220 C5219 1.373 . S
C5221 C5205 1.377 . S
C5221 C5219 1.389 . S
C5221 C5222 1.524 . S
C5222 C5221 1.524 . S
C5222 C5223 1.397 . S
C5222 C5227 1.363 . S
C5223 H5194 0.950 . S
C5223 C5222 1.397 . S
C5223 C5224 1.334 . S
C5224 H5195 0.950 . S
C5224 C5223 1.334 . S
C5224 C5225 1.287 . S
C5225 C5224 1.287 . S
C5225 C5226 1.524 . S
C5225 H5228 0.999 . S
C5226 H5196 0.950 . S
C5226 C5225 1.524 . S
C5226 C5227 1.415 . S
C5227 H5197 0.950 . S
C5227 C5222 1.363 . S
C5227 C5226 1.415 . S
H5228 C5225 0.999 . S
H5229 C5210 0.913 . S
H5230 C5248 0.951 . S
H5231 C5250 0.951 . S
H5232 C5252 0.950 . S
H5233 C5253 0.950 . S
H5234 C5255 0.950 . S
H5235 C5258 0.950 . S
H5236 C5259 0.950 . S
H5237 C5261 0.950 . S
H5238 C5262 0.950 . S
H5239 C5263 0.951 . S
H5240 C5265 0.951 . S
H5241 C5267 0.950 . S
H5242 C5268 0.950 . S
H5243 C5270 0.950 . S
H5244 C5273 0.950 . S
H5245 C5274 0.950 . S
H5246 C5276 0.950 . S
H5247 C5277 0.950 . S
C5248 H5230 0.951 . S
C5248 C5249 1.366 . S
C5248 C5250 1.388 . S
C5249 C5248 1.366 . S
C5249 C5253 1.385 . S
C5250 H5231 0.951 . S
C5250 C5248 1.388 . S
C5250 C5251 1.366 . S
C5251 C5250 1.366 . S
C5251 C5252 1.414 . S
C5251 C5254 1.499 . S
C5252 H5232 0.950 . S
C5252 C5251 1.414 . S
C5252 C5253 1.374 . S
C5253 H5233 0.950 . S
C5253 C5249 1.385 . S
C5253 C5252 1.374 . S
C5254 C5251 1.499 . S
C5254 C5255 1.373 . S
C5254 C5256 1.389 . S
C5255 H5234 0.950 . S
C5255 C5254 1.373 . S
C5255 C5271 1.377 . S
C5256 C5254 1.389 . S
C5256 C5257 1.524 . S
C5256 C5270 1.377 . S
C5257 C5256 1.524 . S
C5257 C5258 1.397 . S
C5257 C5262 1.363 . S
C5258 H5235 0.950 . S
C5258 C5257 1.397 . S
C5258 C5259 1.334 . S
C5259 H5236 0.950 . S
C5259 C5258 1.334 . S
C5259 C5260 1.287 . S
C5260 C5259 1.287 . S
C5260 C5261 1.524 . S
C5260 H5279 0.913 . S
C5261 H5237 0.950 . S
C5261 C5260 1.524 . S
C5261 C5262 1.415 . S
C5262 H5238 0.950 . S
C5262 C5257 1.363 . S
C5262 C5261 1.415 . S
C5263 H5239 0.951 . S
C5263 C5264 1.366 . S
C5263 C5265 1.388 . S
C5264 C5263 1.366 . S
C5264 C5268 1.385 . S
C5265 H5240 0.951 . S
C5265 C5263 1.388 . S
C5265 C5266 1.366 . S
C5266 C5265 1.366 . S
C5266 C5267 1.414 . S
C5266 C5269 1.499 . S
C5267 H5241 0.950 . S
C5267 C5266 1.414 . S
C5267 C5268 1.374 . S
C5268 H5242 0.950 . S
C5268 C5264 1.385 . S
C5268 C5267 1.374 . S
C5269 C5266 1.499 . S
C5269 C5270 1.373 . S
C5269 C5271 1.389 . S
C5270 H5243 0.950 . S
C5270 C5256 1.377 . S
C5270 C5269 1.373 . S
C5271 C5255 1.377 . S
C5271 C5269 1.389 . S
C5271 C5272 1.524 . S
C5272 C5271 1.524 . S
C5272 C5273 1.397 . S
C5272 C5277 1.363 . S
C5273 H5244 0.950 . S
C5273 C5272 1.397 . S
C5273 C5274 1.334 . S
C5274 H5245 0.950 . S
C5274 C5273 1.334 . S
C5274 C5275 1.287 . S
C5275 C5274 1.287 . S
C5275 C5276 1.524 . S
C5275 H5278 0.999 . S
C5276 H5246 0.950 . S
C5276 C5275 1.524 . S
C5276 C5277 1.415 . S
C5277 H5247 0.950 . S
C5277 C5272 1.363 . S
C5277 C5276 1.415 . S
H5278 C5275 0.999 . S
H5279 C5260 0.913 . S
H5280 C5298 0.951 . S
H5281 C5300 0.951 . S
H5282 C5302 0.950 . S
H5283 C5303 0.950 . S
H5284 C5305 0.950 . S
H5285 C5308 0.950 . S
H5286 C5309 0.950 . S
H5287 C5311 0.950 . S
H5288 C5312 0.950 . S
H5289 C5313 0.951 . S
H5290 C5315 0.951 . S
H5291 C5317 0.950 . S
H5292 C5318 0.950 . S
H5293 C5320 0.950 . S
H5294 C5323 0.950 . S
H5295 C5324 0.950 . S
H5296 C5326 0.950 . S
H5297 C5327 0.950 . S
C5298 H5280 0.951 . S
C5298 C5299 1.366 . S
C5298 C5300 1.388 . S
C5299 C5298 1.366 . S
C5299 C5303 1.385 . S
C5300 H5281 0.951 . S
C5300 C5298 1.388 . S
C5300 C5301 1.366 . S
C5301 C5300 1.366 . S
C5301 C5302 1.414 . S
C5301 C5304 1.499 . S
C5302 H5282 0.950 . S
C5302 C5301 1.414 . S
C5302 C5303 1.374 . S
C5303 H5283 0.950 . S
C5303 C5299 1.385 . S
C5303 C5302 1.374 . S
C5304 C5301 1.499 . S
C5304 C5305 1.373 . S
C5304 C5306 1.389 . S
C5305 H5284 0.950 . S
C5305 C5304 1.373 . S
C5305 C5321 1.377 . S
C5306 C5304 1.389 . S
C5306 C5307 1.524 . S
C5306 C5320 1.377 . S
C5307 C5306 1.524 . S
C5307 C5308 1.397 . S
C5307 C5312 1.363 . S
C5308 H5285 0.950 . S
C5308 C5307 1.397 . S
C5308 C5309 1.334 . S
C5309 H5286 0.950 . S
C5309 C5308 1.334 . S
C5309 C5310 1.287 . S
C5310 C5309 1.287 . S
C5310 C5311 1.524 . S
C5310 H5329 0.913 . S
C5311 H5287 0.950 . S
C5311 C5310 1.524 . S
C5311 C5312 1.415 . S
C5312 H5288 0.950 . S
C5312 C5307 1.363 . S
C5312 C5311 1.415 . S
C5313 H5289 0.951 . S
C5313 C5314 1.366 . S
C5313 C5315 1.388 . S
C5314 C5313 1.366 . S
C5314 C5318 1.385 . S
C5315 H5290 0.951 . S
C5315 C5313 1.388 . S
C5315 C5316 1.366 . S
C5316 C5315 1.366 . S
C5316 C5317 1.414 . S
C5316 C5319 1.499 . S
C5317 H5291 0.950 . S
C5317 C5316 1.414 . S
C5317 C5318 1.374 . S
C5318 H5292 0.950 . S
C5318 C5314 1.385 . S
C5318 C5317 1.374 . S
C5319 C5316 1.499 . S
C5319 C5320 1.373 . S
C5319 C5321 1.389 . S
C5320 H5293 0.950 . S
C5320 C5306 1.377 . S
C5320 C5319 1.373 . S
C5321 C5305 1.377 . S
C5321 C5319 1.389 . S
C5321 C5322 1.524 . S
C5322 C5321 1.524 . S
C5322 C5323 1.397 . S
C5322 C5327 1.363 . S
C5323 H5294 0.950 . S
C5323 C5322 1.397 . S
C5323 C5324 1.334 . S
C5324 H5295 0.950 . S
C5324 C5323 1.334 . S
C5324 C5325 1.287 . S
C5325 C5324 1.287 . S
C5325 C5326 1.524 . S
C5325 H5328 0.999 . S
C5326 H5296 0.950 . S
C5326 C5325 1.524 . S
C5326 C5327 1.415 . S
C5327 H5297 0.950 . S
C5327 C5322 1.363 . S
C5327 C5326 1.415 . S
H5328 C5325 0.999 . S
H5329 C5310 0.913 . S
H5330 C5348 0.951 . S
H5331 C5350 0.951 . S
H5332 C5352 0.950 . S
H5333 C5353 0.950 . S
H5334 C5355 0.950 . S
H5335 C5358 0.950 . S
H5336 C5359 0.950 . S
H5337 C5361 0.950 . S
H5338 C5362 0.950 . S
H5339 C5363 0.951 . S
H5340 C5365 0.951 . S
H5341 C5367 0.950 . S
H5342 C5368 0.950 . S
H5343 C5370 0.950 . S
H5344 C5373 0.950 . S
H5345 C5374 0.950 . S
H5346 C5376 0.950 . S
H5347 C5377 0.950 . S
C5348 H5330 0.951 . S
C5348 C5349 1.366 . S
C5348 C5350 1.388 . S
C5349 C5348 1.366 . S
C5349 C5353 1.385 . S
C5350 H5331 0.951 . S
C5350 C5348 1.388 . S
C5350 C5351 1.366 . S
C5351 C5350 1.366 . S
C5351 C5352 1.414 . S
C5351 C5354 1.499 . S
C5352 H5332 0.950 . S
C5352 C5351 1.414 . S
C5352 C5353 1.374 . S
C5353 H5333 0.950 . S
C5353 C5349 1.385 . S
C5353 C5352 1.374 . S
C5354 C5351 1.499 . S
C5354 C5355 1.373 . S
C5354 C5356 1.389 . S
C5355 H5334 0.950 . S
C5355 C5354 1.373 . S
C5355 C5371 1.377 . S
C5356 C5354 1.389 . S
C5356 C5357 1.524 . S
C5356 C5370 1.377 . S
C5357 C5356 1.524 . S
C5357 C5358 1.397 . S
C5357 C5362 1.363 . S
C5358 H5335 0.950 . S
C5358 C5357 1.397 . S
C5358 C5359 1.334 . S
C5359 H5336 0.950 . S
C5359 C5358 1.334 . S
C5359 C5360 1.287 . S
C5360 C5359 1.287 . S
C5360 C5361 1.524 . S
C5360 H5379 0.913 . S
C5361 H5337 0.950 . S
C5361 C5360 1.524 . S
C5361 C5362 1.415 . S
C5362 H5338 0.950 . S
C5362 C5357 1.363 . S
C5362 C5361 1.415 . S
C5363 H5339 0.951 . S
C5363 C5364 1.366 . S
C5363 C5365 1.388 . S
C5364 C5363 1.366 . S
C5364 C5368 1.385 . S
C5365 H5340 0.951 . S
C5365 C5363 1.388 . S
C5365 C5366 1.366 . S
C5366 C5365 1.366 . S
C5366 C5367 1.414 . S
C5366 C5369 1.499 . S
C5367 H5341 0.950 . S
C5367 C5366 1.414 . S
C5367 C5368 1.374 . S
C5368 H5342 0.950 . S
C5368 C5364 1.385 . S
C5368 C5367 1.374 . S
C5369 C5366 1.499 . S
C5369 C5370 1.373 . S
C5369 C5371 1.389 . S
C5370 H5343 0.950 . S
C5370 C5356 1.377 . S
C5370 C5369 1.373 . S
C5371 C5355 1.377 . S
C5371 C5369 1.389 . S
C5371 C5372 1.524 . S
C5372 C5371 1.524 . S
C5372 C5373 1.397 . S
C5372 C5377 1.363 . S
C5373 H5344 0.950 . S
C5373 C5372 1.397 . S
C5373 C5374 1.334 . S
C5374 H5345 0.950 . S
C5374 C5373 1.334 . S
C5374 C5375 1.287 . S
C5375 C5374 1.287 . S
C5375 C5376 1.524 . S
C5375 H5378 0.999 . S
C5376 H5346 0.950 . S
C5376 C5375 1.524 . S
C5376 C5377 1.415 . S
C5377 H5347 0.950 . S
C5377 C5372 1.363 . S
C5377 C5376 1.415 . S
H5378 C5375 0.999 . S
H5379 C5360 0.913 . S
H5380 C5398 0.951 . S
H5381 C5400 0.951 . S
H5382 C5402 0.950 . S
H5383 C5403 0.950 . S
H5384 C5405 0.950 . S
H5385 C5408 0.950 . S
H5386 C5409 0.950 . S
H5387 C5411 0.950 . S
H5388 C5412 0.950 . S
H5389 C5413 0.951 . S
H5390 C5415 0.951 . S
H5391 C5417 0.950 . S
H5392 C5418 0.950 . S
H5393 C5420 0.950 . S
H5394 C5423 0.950 . S
H5395 C5424 0.950 . S
H5396 C5426 0.950 . S
H5397 C5427 0.950 . S
C5398 H5380 0.951 . S
C5398 C5399 1.366 . S
C5398 C5400 1.388 . S
C5399 C5398 1.366 . S
C5399 C5403 1.385 . S
C5400 H5381 0.951 . S
C5400 C5398 1.388 . S
C5400 C5401 1.366 . S
C5401 C5400 1.366 . S
C5401 C5402 1.414 . S
C5401 C5404 1.499 . S
C5402 H5382 0.950 . S
C5402 C5401 1.414 . S
C5402 C5403 1.374 . S
C5403 H5383 0.950 . S
C5403 C5399 1.385 . S
C5403 C5402 1.374 . S
C5404 C5401 1.499 . S
C5404 C5405 1.373 . S
C5404 C5406 1.389 . S
C5405 H5384 0.950 . S
C5405 C5404 1.373 . S
C5405 C5421 1.377 . S
C5406 C5404 1.389 . S
C5406 C5407 1.524 . S
C5406 C5420 1.377 . S
C5407 C5406 1.524 . S
C5407 C5408 1.397 . S
C5407 C5412 1.363 . S
C5408 H5385 0.950 . S
C5408 C5407 1.397 . S
C5408 C5409 1.334 . S
C5409 H5386 0.950 . S
C5409 C5408 1.334 . S
C5409 C5410 1.287 . S
C5410 C5409 1.287 . S
C5410 C5411 1.524 . S
C5410 H5429 0.913 1_455 S
C5411 H5387 0.950 . S
C5411 C5410 1.524 . S
C5411 C5412 1.415 . S
C5412 H5388 0.950 . S
C5412 C5407 1.363 . S
C5412 C5411 1.415 . S
C5413 H5389 0.951 . S
C5413 C5414 1.366 . S
C5413 C5415 1.388 . S
C5414 C5413 1.366 . S
C5414 C5418 1.385 . S
C5415 H5390 0.951 . S
C5415 C5413 1.388 . S
C5415 C5416 1.366 . S
C5416 C5415 1.366 . S
C5416 C5417 1.414 . S
C5416 C5419 1.499 . S
C5417 H5391 0.950 . S
C5417 C5416 1.414 . S
C5417 C5418 1.374 . S
C5418 H5392 0.950 . S
C5418 C5414 1.385 . S
C5418 C5417 1.374 . S
C5419 C5416 1.499 . S
C5419 C5420 1.373 . S
C5419 C5421 1.389 . S
C5420 H5393 0.950 . S
C5420 C5406 1.377 . S
C5420 C5419 1.373 . S
C5421 C5405 1.377 . S
C5421 C5419 1.389 . S
C5421 C5422 1.524 . S
C5422 C5421 1.524 . S
C5422 C5423 1.397 . S
C5422 C5427 1.363 . S
C5423 H5394 0.950 . S
C5423 C5422 1.397 . S
C5423 C5424 1.334 . S
C5424 H5395 0.950 . S
C5424 C5423 1.334 . S
C5424 C5425 1.287 . S
C5425 C5424 1.287 . S
C5425 C5426 1.524 . S
C5425 H5428 0.999 . S
C5426 H5396 0.950 . S
C5426 C5425 1.524 . S
C5426 C5427 1.415 . S
C5427 H5397 0.950 . S
C5427 C5422 1.363 . S
C5427 C5426 1.415 . S
H5428 C5425 0.999 . S
H5429 C5410 0.913 1_655 S
H5430 C5448 0.951 . S
H5431 C5450 0.951 . S
H5432 C5452 0.950 . S
H5433 C5453 0.950 . S
H5434 C5455 0.950 . S
H5435 C5458 0.950 . S
H5436 C5459 0.950 . S
H5437 C5461 0.950 . S
H5438 C5462 0.950 . S
H5439 C5463 0.951 . S
H5440 C5465 0.951 . S
H5441 C5467 0.950 . S
H5442 C5468 0.950 . S
H5443 C5470 0.950 . S
H5444 C5473 0.950 . S
H5445 C5474 0.950 . S
H5446 C5476 0.950 . S
H5447 C5477 0.950 . S
C5448 H5430 0.951 . S
C5448 C5449 1.366 . S
C5448 C5450 1.388 . S
C5449 C5448 1.366 . S
C5449 C5453 1.385 . S
C5450 H5431 0.951 . S
C5450 C5448 1.388 . S
C5450 C5451 1.366 . S
C5451 C5450 1.366 . S
C5451 C5452 1.414 . S
C5451 C5454 1.499 . S
C5452 H5432 0.950 . S
C5452 C5451 1.414 . S
C5452 C5453 1.374 . S
C5453 H5433 0.950 . S
C5453 C5449 1.385 . S
C5453 C5452 1.374 . S
C5454 C5451 1.499 . S
C5454 C5455 1.373 . S
C5454 C5456 1.389 . S
C5455 H5434 0.950 . S
C5455 C5454 1.373 . S
C5455 C5471 1.377 . S
C5456 C5454 1.389 . S
C5456 C5457 1.524 . S
C5456 C5470 1.377 . S
C5457 C5456 1.524 . S
C5457 C5458 1.397 . S
C5457 C5462 1.363 . S
C5458 H5435 0.950 . S
C5458 C5457 1.397 . S
C5458 C5459 1.334 . S
C5459 H5436 0.950 . S
C5459 C5458 1.334 . S
C5459 C5460 1.287 . S
C5460 C5459 1.287 . S
C5460 C5461 1.524 . S
C5460 H5479 0.913 . S
C5461 H5437 0.950 . S
C5461 C5460 1.524 . S
C5461 C5462 1.415 . S
C5462 H5438 0.950 . S
C5462 C5457 1.363 . S
C5462 C5461 1.415 . S
C5463 H5439 0.951 . S
C5463 C5464 1.366 . S
C5463 C5465 1.388 . S
C5464 C5463 1.366 . S
C5464 C5468 1.385 . S
C5465 H5440 0.951 . S
C5465 C5463 1.388 . S
C5465 C5466 1.366 . S
C5466 C5465 1.366 . S
C5466 C5467 1.414 . S
C5466 C5469 1.499 . S
C5467 H5441 0.950 . S
C5467 C5466 1.414 . S
C5467 C5468 1.374 . S
C5468 H5442 0.950 . S
C5468 C5464 1.385 . S
C5468 C5467 1.374 . S
C5469 C5466 1.499 . S
C5469 C5470 1.373 . S
C5469 C5471 1.389 . S
C5470 H5443 0.950 . S
C5470 C5456 1.377 . S
C5470 C5469 1.373 . S
C5471 C5455 1.377 . S
C5471 C5469 1.389 . S
C5471 C5472 1.524 . S
C5472 C5471 1.524 . S
C5472 C5473 1.397 . S
C5472 C5477 1.363 . S
C5473 H5444 0.950 . S
C5473 C5472 1.397 . S
C5473 C5474 1.334 . S
C5474 H5445 0.950 . S
C5474 C5473 1.334 . S
C5474 C5475 1.287 . S
C5475 C5474 1.287 . S
C5475 C5476 1.524 . S
C5475 H5478 0.999 . S
C5476 H5446 0.950 . S
C5476 C5475 1.524 . S
C5476 C5477 1.415 . S
C5477 H5447 0.950 . S
C5477 C5472 1.363 . S
C5477 C5476 1.415 . S
H5478 C5475 0.999 . S
H5479 C5460 0.913 . S
H5480 C5498 0.951 . S
H5481 C5500 0.951 . S
H5482 C5502 0.950 . S
H5483 C5503 0.950 . S
H5484 C5505 0.950 . S
H5485 C5508 0.950 . S
H5486 C5509 0.950 . S
H5487 C5511 0.950 . S
H5488 C5512 0.950 . S
H5489 C5513 0.951 . S
H5490 C5515 0.951 . S
H5491 C5517 0.950 . S
H5492 C5518 0.950 . S
H5493 C5520 0.950 . S
H5494 C5523 0.950 . S
H5495 C5524 0.950 . S
H5496 C5526 0.950 . S
H5497 C5527 0.950 . S
C5498 H5480 0.951 . S
C5498 C5499 1.366 . S
C5498 C5500 1.388 . S
C5499 C5498 1.366 . S
C5499 C5503 1.385 . S
C5500 H5481 0.951 . S
C5500 C5498 1.388 . S
C5500 C5501 1.366 . S
C5501 C5500 1.366 . S
C5501 C5502 1.414 . S
C5501 C5504 1.499 . S
C5502 H5482 0.950 . S
C5502 C5501 1.414 . S
C5502 C5503 1.374 . S
C5503 H5483 0.950 . S
C5503 C5499 1.385 . S
C5503 C5502 1.374 . S
C5504 C5501 1.499 . S
C5504 C5505 1.373 . S
C5504 C5506 1.389 . S
C5505 H5484 0.950 . S
C5505 C5504 1.373 . S
C5505 C5521 1.377 . S
C5506 C5504 1.389 . S
C5506 C5507 1.524 . S
C5506 C5520 1.377 . S
C5507 C5506 1.524 . S
C5507 C5508 1.397 . S
C5507 C5512 1.363 . S
C5508 H5485 0.950 . S
C5508 C5507 1.397 . S
C5508 C5509 1.334 . S
C5509 H5486 0.950 . S
C5509 C5508 1.334 . S
C5509 C5510 1.287 . S
C5510 C5509 1.287 . S
C5510 C5511 1.524 . S
C5510 H5529 0.913 . S
C5511 H5487 0.950 . S
C5511 C5510 1.524 . S
C5511 C5512 1.415 . S
C5512 H5488 0.950 . S
C5512 C5507 1.363 . S
C5512 C5511 1.415 . S
C5513 H5489 0.951 . S
C5513 C5514 1.366 . S
C5513 C5515 1.388 . S
C5514 C5513 1.366 . S
C5514 C5518 1.385 . S
C5515 H5490 0.951 . S
C5515 C5513 1.388 . S
C5515 C5516 1.366 . S
C5516 C5515 1.366 . S
C5516 C5517 1.414 . S
C5516 C5519 1.499 . S
C5517 H5491 0.950 . S
C5517 C5516 1.414 . S
C5517 C5518 1.374 . S
C5518 H5492 0.950 . S
C5518 C5514 1.385 . S
C5518 C5517 1.374 . S
C5519 C5516 1.499 . S
C5519 C5520 1.373 . S
C5519 C5521 1.389 . S
C5520 H5493 0.950 . S
C5520 C5506 1.377 . S
C5520 C5519 1.373 . S
C5521 C5505 1.377 . S
C5521 C5519 1.389 . S
C5521 C5522 1.524 . S
C5522 C5521 1.524 . S
C5522 C5523 1.397 . S
C5522 C5527 1.363 . S
C5523 H5494 0.950 . S
C5523 C5522 1.397 . S
C5523 C5524 1.334 1_556 S
C5524 H5495 0.950 . S
C5524 C5523 1.334 1_554 S
C5524 C5525 1.287 . S
C5525 C5524 1.287 . S
C5525 C5526 1.524 1_554 S
C5525 H5528 0.999 . S
C5526 H5496 0.950 . S
C5526 C5525 1.524 1_556 S
C5526 C5527 1.415 . S
C5527 H5497 0.950 . S
C5527 C5522 1.363 . S
C5527 C5526 1.415 . S
H5528 C5525 0.999 . S
H5529 C5510 0.913 . S
H5530 C5548 0.951 . S
H5531 C5550 0.951 . S
H5532 C5552 0.950 . S
H5533 C5553 0.950 . S
H5534 C5555 0.950 . S
H5535 C5558 0.950 . S
H5536 C5559 0.950 . S
H5537 C5561 0.950 . S
H5538 C5562 0.950 . S
H5539 C5563 0.951 . S
H5540 C5565 0.951 . S
H5541 C5567 0.950 . S
H5542 C5568 0.950 . S
H5543 C5570 0.950 . S
H5544 C5573 0.950 . S
H5545 C5574 0.950 . S
H5546 C5576 0.950 . S
H5547 C5577 0.950 . S
C5548 H5530 0.951 . S
C5548 C5549 1.366 . S
C5548 C5550 1.388 . S
C5549 C5548 1.366 . S
C5549 C5553 1.385 . S
C5550 H5531 0.951 . S
C5550 C5548 1.388 . S
C5550 C5551 1.366 . S
C5551 C5550 1.366 . S
C5551 C5552 1.414 . S
C5551 C5554 1.499 . S
C5552 H5532 0.950 . S
C5552 C5551 1.414 . S
C5552 C5553 1.374 . S
C5553 H5533 0.950 . S
C5553 C5549 1.385 . S
C5553 C5552 1.374 . S
C5554 C5551 1.499 . S
C5554 C5555 1.373 . S
C5554 C5556 1.389 . S
C5555 H5534 0.950 . S
C5555 C5554 1.373 . S
C5555 C5571 1.377 . S
C5556 C5554 1.389 . S
C5556 C5557 1.524 . S
C5556 C5570 1.377 . S
C5557 C5556 1.524 . S
C5557 C5558 1.397 . S
C5557 C5562 1.363 . S
C5558 H5535 0.950 . S
C5558 C5557 1.397 . S
C5558 C5559 1.334 . S
C5559 H5536 0.950 . S
C5559 C5558 1.334 . S
C5559 C5560 1.287 . S
C5560 C5559 1.287 . S
C5560 C5561 1.524 . S
C5560 H5579 0.913 . S
C5561 H5537 0.950 . S
C5561 C5560 1.524 . S
C5561 C5562 1.415 . S
C5562 H5538 0.950 . S
C5562 C5557 1.363 . S
C5562 C5561 1.415 . S
C5563 H5539 0.951 . S
C5563 C5564 1.366 . S
C5563 C5565 1.388 . S
C5564 C5563 1.366 . S
C5564 C5568 1.385 . S
C5565 H5540 0.951 . S
C5565 C5563 1.388 . S
C5565 C5566 1.366 . S
C5566 C5565 1.366 . S
C5566 C5567 1.414 . S
C5566 C5569 1.499 . S
C5567 H5541 0.950 . S
C5567 C5566 1.414 . S
C5567 C5568 1.374 . S
C5568 H5542 0.950 . S
C5568 C5564 1.385 . S
C5568 C5567 1.374 . S
C5569 C5566 1.499 . S
C5569 C5570 1.373 . S
C5569 C5571 1.389 . S
C5570 H5543 0.950 . S
C5570 C5556 1.377 . S
C5570 C5569 1.373 . S
C5571 C5555 1.377 . S
C5571 C5569 1.389 . S
C5571 C5572 1.524 . S
C5572 C5571 1.524 . S
C5572 C5573 1.397 . S
C5572 C5577 1.363 . S
C5573 H5544 0.950 . S
C5573 C5572 1.397 . S
C5573 C5574 1.334 . S
C5574 H5545 0.950 . S
C5574 C5573 1.334 . S
C5574 C5575 1.287 . S
C5575 C5574 1.287 . S
C5575 C5576 1.524 . S
C5575 H5578 0.999 . S
C5576 H5546 0.950 . S
C5576 C5575 1.524 . S
C5576 C5577 1.415 . S
C5577 H5547 0.950 . S
C5577 C5572 1.363 . S
C5577 C5576 1.415 . S
H5578 C5575 0.999 . S
H5579 C5560 0.913 . S
H5580 C5598 0.951 . S
H5581 C5600 0.951 . S
H5582 C5602 0.950 . S
H5583 C5603 0.950 . S
H5584 C5605 0.950 . S
H5585 C5608 0.950 . S
H5586 C5609 0.950 . S
H5587 C5611 0.950 . S
H5588 C5612 0.950 . S
H5589 C5613 0.951 . S
H5590 C5615 0.951 . S
H5591 C5617 0.950 . S
H5592 C5618 0.950 . S
H5593 C5620 0.950 . S
H5594 C5623 0.950 . S
H5595 C5624 0.950 . S
H5596 C5626 0.950 . S
H5597 C5627 0.950 . S
C5598 H5580 0.951 . S
C5598 C5599 1.366 . S
C5598 C5600 1.388 . S
C5599 C5598 1.366 . S
C5599 C5603 1.385 . S
C5600 H5581 0.951 . S
C5600 C5598 1.388 . S
C5600 C5601 1.366 . S
C5601 C5600 1.366 . S
C5601 C5602 1.414 . S
C5601 C5604 1.499 . S
C5602 H5582 0.950 . S
C5602 C5601 1.414 . S
C5602 C5603 1.374 . S
C5603 H5583 0.950 . S
C5603 C5599 1.385 . S
C5603 C5602 1.374 . S
C5604 C5601 1.499 . S
C5604 C5605 1.373 . S
C5604 C5606 1.389 . S
C5605 H5584 0.950 . S
C5605 C5604 1.373 . S
C5605 C5621 1.377 . S
C5606 C5604 1.389 . S
C5606 C5607 1.524 . S
C5606 C5620 1.377 . S
C5607 C5606 1.524 . S
C5607 C5608 1.397 . S
C5607 C5612 1.363 . S
C5608 H5585 0.950 . S
C5608 C5607 1.397 . S
C5608 C5609 1.334 . S
C5609 H5586 0.950 . S
C5609 C5608 1.334 . S
C5609 C5610 1.287 . S
C5610 C5609 1.287 . S
C5610 C5611 1.524 . S
C5610 H5629 0.913 . S
C5611 H5587 0.950 . S
C5611 C5610 1.524 . S
C5611 C5612 1.415 . S
C5612 H5588 0.950 . S
C5612 C5607 1.363 . S
C5612 C5611 1.415 . S
C5613 H5589 0.951 . S
C5613 C5614 1.366 . S
C5613 C5615 1.388 . S
C5614 C5613 1.366 . S
C5614 C5618 1.385 . S
C5615 H5590 0.951 . S
C5615 C5613 1.388 . S
C5615 C5616 1.366 . S
C5616 C5615 1.366 . S
C5616 C5617 1.414 . S
C5616 C5619 1.499 . S
C5617 H5591 0.950 . S
C5617 C5616 1.414 . S
C5617 C5618 1.374 . S
C5618 H5592 0.950 . S
C5618 C5614 1.385 . S
C5618 C5617 1.374 . S
C5619 C5616 1.499 . S
C5619 C5620 1.373 . S
C5619 C5621 1.389 . S
C5620 H5593 0.950 . S
C5620 C5606 1.377 . S
C5620 C5619 1.373 . S
C5621 C5605 1.377 . S
C5621 C5619 1.389 . S
C5621 C5622 1.524 . S
C5622 C5621 1.524 . S
C5622 C5623 1.397 . S
C5622 C5627 1.363 . S
C5623 H5594 0.950 . S
C5623 C5622 1.397 . S
C5623 C5624 1.334 . S
C5624 H5595 0.950 . S
C5624 C5623 1.334 . S
C5624 C5625 1.287 . S
C5625 C5624 1.287 . S
C5625 C5626 1.524 . S
C5625 H5628 0.999 . S
C5626 H5596 0.950 . S
C5626 C5625 1.524 . S
C5626 C5627 1.415 . S
C5627 H5597 0.950 . S
C5627 C5622 1.363 . S
C5627 C5626 1.415 . S
H5628 C5625 0.999 . S
H5629 C5610 0.913 . S
H5630 C5648 0.951 . S
H5631 C5650 0.951 . S
H5632 C5652 0.950 . S
H5633 C5653 0.950 . S
H5634 C5655 0.950 . S
H5635 C5658 0.950 . S
H5636 C5659 0.950 . S
H5637 C5661 0.950 . S
H5638 C5662 0.950 . S
H5639 C5663 0.951 . S
H5640 C5665 0.951 . S
H5641 C5667 0.950 . S
H5642 C5668 0.950 . S
H5643 C5670 0.950 . S
H5644 C5673 0.950 . S
H5645 C5674 0.950 . S
H5646 C5676 0.950 . S
H5647 C5677 0.950 . S
C5648 H5630 0.951 . S
C5648 C5649 1.366 . S
C5648 C5650 1.388 . S
C5649 C5648 1.366 . S
C5649 C5653 1.385 . S
C5650 H5631 0.951 . S
C5650 C5648 1.388 . S
C5650 C5651 1.366 . S
C5651 C5650 1.366 . S
C5651 C5652 1.414 . S
C5651 C5654 1.499 . S
C5652 H5632 0.950 . S
C5652 C5651 1.414 . S
C5652 C5653 1.374 . S
C5653 H5633 0.950 . S
C5653 C5649 1.385 . S
C5653 C5652 1.374 . S
C5654 C5651 1.499 . S
C5654 C5655 1.373 . S
C5654 C5656 1.389 . S
C5655 H5634 0.950 . S
C5655 C5654 1.373 . S
C5655 C5671 1.377 . S
C5656 C5654 1.389 . S
C5656 C5657 1.524 . S
C5656 C5670 1.377 . S
C5657 C5656 1.524 . S
C5657 C5658 1.397 . S
C5657 C5662 1.363 . S
C5658 H5635 0.950 . S
C5658 C5657 1.397 . S
C5658 C5659 1.334 . S
C5659 H5636 0.950 . S
C5659 C5658 1.334 . S
C5659 C5660 1.287 . S
C5660 C5659 1.287 . S
C5660 C5661 1.524 . S
C5660 H5679 0.913 . S
C5661 H5637 0.950 . S
C5661 C5660 1.524 . S
C5661 C5662 1.415 . S
C5662 H5638 0.950 . S
C5662 C5657 1.363 . S
C5662 C5661 1.415 . S
C5663 H5639 0.951 . S
C5663 C5664 1.366 . S
C5663 C5665 1.388 . S
C5664 C5663 1.366 . S
C5664 C5668 1.385 . S
C5665 H5640 0.951 . S
C5665 C5663 1.388 . S
C5665 C5666 1.366 . S
C5666 C5665 1.366 . S
C5666 C5667 1.414 . S
C5666 C5669 1.499 . S
C5667 H5641 0.950 . S
C5667 C5666 1.414 . S
C5667 C5668 1.374 . S
C5668 H5642 0.950 . S
C5668 C5664 1.385 . S
C5668 C5667 1.374 . S
C5669 C5666 1.499 . S
C5669 C5670 1.373 . S
C5669 C5671 1.389 . S
C5670 H5643 0.950 . S
C5670 C5656 1.377 . S
C5670 C5669 1.373 . S
C5671 C5655 1.377 . S
C5671 C5669 1.389 . S
C5671 C5672 1.524 . S
C5672 C5671 1.524 . S
C5672 C5673 1.397 . S
C5672 C5677 1.363 . S
C5673 H5644 0.950 . S
C5673 C5672 1.397 . S
C5673 C5674 1.334 . S
C5674 H5645 0.950 . S
C5674 C5673 1.334 . S
C5674 C5675 1.287 . S
C5675 C5674 1.287 . S
C5675 C5676 1.524 . S
C5675 H5678 0.999 . S
C5676 H5646 0.950 . S
C5676 C5675 1.524 . S
C5676 C5677 1.415 . S
C5677 H5647 0.950 . S
C5677 C5672 1.363 . S
C5677 C5676 1.415 . S
H5678 C5675 0.999 . S
H5679 C5660 0.913 . S
H5680 C5698 0.951 . S
H5681 C5700 0.951 . S
H5682 C5702 0.950 . S
H5683 C5703 0.950 . S
H5684 C5705 0.950 . S
H5685 C5708 0.950 . S
H5686 C5709 0.950 . S
H5687 C5711 0.950 . S
H5688 C5712 0.950 . S
H5689 C5713 0.951 . S
H5690 C5715 0.951 . S
H5691 C5717 0.950 . S
H5692 C5718 0.950 . S
H5693 C5720 0.950 . S
H5694 C5723 0.950 . S
H5695 C5724 0.950 . S
H5696 C5726 0.950 . S
H5697 C5727 0.950 . S
C5698 H5680 0.951 . S
C5698 C5699 1.366 . S
C5698 C5700 1.388 . S
C5699 C5698 1.366 . S
C5699 C5703 1.385 . S
C5700 H5681 0.951 . S
C5700 C5698 1.388 . S
C5700 C5701 1.366 . S
C5701 C5700 1.366 . S
C5701 C5702 1.414 . S
C5701 C5704 1.499 . S
C5702 H5682 0.950 . S
C5702 C5701 1.414 . S
C5702 C5703 1.374 . S
C5703 H5683 0.950 . S
C5703 C5699 1.385 . S
C5703 C5702 1.374 . S
C5704 C5701 1.499 . S
C5704 C5705 1.373 . S
C5704 C5706 1.389 . S
C5705 H5684 0.950 . S
C5705 C5704 1.373 . S
C5705 C5721 1.377 . S
C5706 C5704 1.389 . S
C5706 C5707 1.524 . S
C5706 C5720 1.377 . S
C5707 C5706 1.524 . S
C5707 C5708 1.397 . S
C5707 C5712 1.363 . S
C5708 H5685 0.950 . S
C5708 C5707 1.397 . S
C5708 C5709 1.334 . S
C5709 H5686 0.950 . S
C5709 C5708 1.334 . S
C5709 C5710 1.287 . S
C5710 C5709 1.287 . S
C5710 C5711 1.524 . S
C5710 H5729 0.913 . S
C5711 H5687 0.950 . S
C5711 C5710 1.524 . S
C5711 C5712 1.415 . S
C5712 H5688 0.950 . S
C5712 C5707 1.363 . S
C5712 C5711 1.415 . S
C5713 H5689 0.951 . S
C5713 C5714 1.366 . S
C5713 C5715 1.388 . S
C5714 C5713 1.366 . S
C5714 C5718 1.385 . S
C5715 H5690 0.951 . S
C5715 C5713 1.388 . S
C5715 C5716 1.366 . S
C5716 C5715 1.366 . S
C5716 C5717 1.414 . S
C5716 C5719 1.499 . S
C5717 H5691 0.950 . S
C5717 C5716 1.414 . S
C5717 C5718 1.374 . S
C5718 H5692 0.950 . S
C5718 C5714 1.385 . S
C5718 C5717 1.374 . S
C5719 C5716 1.499 . S
C5719 C5720 1.373 . S
C5719 C5721 1.389 . S
C5720 H5693 0.950 . S
C5720 C5706 1.377 . S
C5720 C5719 1.373 . S
C5721 C5705 1.377 . S
C5721 C5719 1.389 . S
C5721 C5722 1.524 . S
C5722 C5721 1.524 . S
C5722 C5723 1.397 . S
C5722 C5727 1.363 . S
C5723 H5694 0.950 . S
C5723 C5722 1.397 . S
C5723 C5724 1.334 . S
C5724 H5695 0.950 . S
C5724 C5723 1.334 . S
C5724 C5725 1.287 . S
C5725 C5724 1.287 . S
C5725 C5726 1.524 . S
C5725 H5728 0.999 . S
C5726 H5696 0.950 . S
C5726 C5725 1.524 . S
C5726 C5727 1.415 . S
C5727 H5697 0.950 . S
C5727 C5722 1.363 . S
C5727 C5726 1.415 . S
H5728 C5725 0.999 . S
H5729 C5710 0.913 . S
H5730 C5748 0.951 . S
H5731 C5750 0.951 . S
H5732 C5752 0.950 . S
H5733 C5753 0.950 . S
H5734 C5755 0.950 . S
H5735 C5758 0.950 . S
H5736 C5759 0.950 . S
H5737 C5761 0.950 . S
H5738 C5762 0.950 . S
H5739 C5763 0.951 . S
H5740 C5765 0.951 . S
H5741 C5767 0.950 . S
H5742 C5768 0.950 . S
H5743 C5770 0.950 . S
H5744 C5773 0.950 . S
H5745 C5774 0.950 . S
H5746 C5776 0.950 . S
H5747 C5777 0.950 . S
C5748 H5730 0.951 . S
C5748 C5749 1.366 . S
C5748 C5750 1.388 . S
C5749 C5748 1.366 . S
C5749 C5753 1.385 . S
C5750 H5731 0.951 . S
C5750 C5748 1.388 . S
C5750 C5751 1.366 . S
C5751 C5750 1.366 . S
C5751 C5752 1.414 . S
C5751 C5754 1.499 . S
C5752 H5732 0.950 . S
C5752 C5751 1.414 . S
C5752 C5753 1.374 . S
C5753 H5733 0.950 . S
C5753 C5749 1.385 . S
C5753 C5752 1.374 . S
C5754 C5751 1.499 . S
C5754 C5755 1.373 . S
C5754 C5756 1.389 . S
C5755 H5734 0.950 . S
C5755 C5754 1.373 . S
C5755 C5771 1.377 . S
C5756 C5754 1.389 . S
C5756 C5757 1.524 . S
C5756 C5770 1.377 . S
C5757 C5756 1.524 . S
C5757 C5758 1.397 . S
C5757 C5762 1.363 . S
C5758 H5735 0.950 . S
C5758 C5757 1.397 . S
C5758 C5759 1.334 . S
C5759 H5736 0.950 . S
C5759 C5758 1.334 . S
C5759 C5760 1.287 . S
C5760 C5759 1.287 . S
C5760 C5761 1.524 . S
C5760 H5779 0.913 . S
C5761 H5737 0.950 . S
C5761 C5760 1.524 . S
C5761 C5762 1.415 . S
C5762 H5738 0.950 . S
C5762 C5757 1.363 . S
C5762 C5761 1.415 . S
C5763 H5739 0.951 . S
C5763 C5764 1.366 . S
C5763 C5765 1.388 . S
C5764 C5763 1.366 . S
C5764 C5768 1.385 . S
C5765 H5740 0.951 . S
C5765 C5763 1.388 . S
C5765 C5766 1.366 . S
C5766 C5765 1.366 . S
C5766 C5767 1.414 . S
C5766 C5769 1.499 . S
C5767 H5741 0.950 . S
C5767 C5766 1.414 . S
C5767 C5768 1.374 . S
C5768 H5742 0.950 . S
C5768 C5764 1.385 . S
C5768 C5767 1.374 . S
C5769 C5766 1.499 . S
C5769 C5770 1.373 . S
C5769 C5771 1.389 . S
C5770 H5743 0.950 . S
C5770 C5756 1.377 . S
C5770 C5769 1.373 . S
C5771 C5755 1.377 . S
C5771 C5769 1.389 . S
C5771 C5772 1.524 . S
C5772 C5771 1.524 . S
C5772 C5773 1.397 . S
C5772 C5777 1.363 . S
C5773 H5744 0.950 . S
C5773 C5772 1.397 . S
C5773 C5774 1.334 . S
C5774 H5745 0.950 . S
C5774 C5773 1.334 . S
C5774 C5775 1.287 . S
C5775 C5774 1.287 . S
C5775 C5776 1.524 . S
C5775 H5778 0.999 . S
C5776 H5746 0.950 . S
C5776 C5775 1.524 . S
C5776 C5777 1.415 . S
C5777 H5747 0.950 . S
C5777 C5772 1.363 . S
C5777 C5776 1.415 . S
H5778 C5775 0.999 . S
H5779 C5760 0.913 . S
H5780 C5798 0.951 . S
H5781 C5800 0.951 . S
H5782 C5802 0.950 . S
H5783 C5803 0.950 . S
H5784 C5805 0.950 . S
H5785 C5808 0.950 . S
H5786 C5809 0.950 . S
H5787 C5811 0.950 . S
H5788 C5812 0.950 . S
H5789 C5813 0.951 . S
H5790 C5815 0.951 . S
H5791 C5817 0.950 . S
H5792 C5818 0.950 . S
H5793 C5820 0.950 . S
H5794 C5823 0.950 . S
H5795 C5824 0.950 . S
H5796 C5826 0.950 . S
H5797 C5827 0.950 . S
C5798 H5780 0.951 . S
C5798 C5799 1.366 . S
C5798 C5800 1.388 . S
C5799 C5798 1.366 . S
C5799 C5803 1.385 . S
C5800 H5781 0.951 . S
C5800 C5798 1.388 . S
C5800 C5801 1.366 . S
C5801 C5800 1.366 . S
C5801 C5802 1.414 . S
C5801 C5804 1.499 . S
C5802 H5782 0.950 . S
C5802 C5801 1.414 . S
C5802 C5803 1.374 . S
C5803 H5783 0.950 . S
C5803 C5799 1.385 . S
C5803 C5802 1.374 . S
C5804 C5801 1.499 . S
C5804 C5805 1.373 . S
C5804 C5806 1.389 . S
C5805 H5784 0.950 . S
C5805 C5804 1.373 . S
C5805 C5821 1.377 . S
C5806 C5804 1.389 . S
C5806 C5807 1.524 . S
C5806 C5820 1.377 . S
C5807 C5806 1.524 . S
C5807 C5808 1.397 . S
C5807 C5812 1.363 . S
C5808 H5785 0.950 . S
C5808 C5807 1.397 . S
C5808 C5809 1.334 . S
C5809 H5786 0.950 . S
C5809 C5808 1.334 . S
C5809 C5810 1.287 . S
C5810 C5809 1.287 . S
C5810 C5811 1.524 . S
C5810 H5829 0.913 . S
C5811 H5787 0.950 . S
C5811 C5810 1.524 . S
C5811 C5812 1.415 . S
C5812 H5788 0.950 . S
C5812 C5807 1.363 . S
C5812 C5811 1.415 . S
C5813 H5789 0.951 . S
C5813 C5814 1.366 . S
C5813 C5815 1.388 1_455 S
C5814 C5813 1.366 . S
C5814 C5818 1.385 . S
C5815 H5790 0.951 . S
C5815 C5813 1.388 1_655 S
C5815 C5816 1.366 1_655 S
C5816 C5815 1.366 1_455 S
C5816 C5817 1.414 . S
C5816 C5819 1.499 1_455 S
C5817 H5791 0.950 . S
C5817 C5816 1.414 . S
C5817 C5818 1.374 . S
C5818 H5792 0.950 . S
C5818 C5814 1.385 . S
C5818 C5817 1.374 . S
C5819 C5816 1.499 1_655 S
C5819 C5820 1.373 . S
C5819 C5821 1.389 . S
C5820 H5793 0.950 . S
C5820 C5806 1.377 . S
C5820 C5819 1.373 . S
C5821 C5805 1.377 . S
C5821 C5819 1.389 . S
C5821 C5822 1.524 . S
C5822 C5821 1.524 . S
C5822 C5823 1.397 1_655 S
C5822 C5827 1.363 . S
C5823 H5794 0.950 . S
C5823 C5822 1.397 1_455 S
C5823 C5824 1.334 . S
C5824 H5795 0.950 . S
C5824 C5823 1.334 . S
C5824 C5825 1.287 1_455 S
C5825 C5824 1.287 1_655 S
C5825 C5826 1.524 . S
C5825 H5828 0.999 1_655 S
C5826 H5796 0.950 . S
C5826 C5825 1.524 . S
C5826 C5827 1.415 . S
C5827 H5797 0.950 . S
C5827 C5822 1.363 . S
C5827 C5826 1.415 . S
H5828 C5825 0.999 1_455 S
H5829 C5810 0.913 . S
H5830 C5848 0.951 . S
H5831 C5850 0.951 . S
H5832 C5852 0.950 . S
H5833 C5853 0.950 . S
H5834 C5855 0.950 . S
H5835 C5858 0.950 . S
H5836 C5859 0.950 . S
H5837 C5861 0.950 . S
H5838 C5862 0.950 . S
H5839 C5863 0.951 . S
H5840 C5865 0.951 . S
H5841 C5867 0.950 . S
H5842 C5868 0.950 . S
H5843 C5870 0.950 . S
H5844 C5873 0.950 . S
H5845 C5874 0.950 . S
H5846 C5876 0.950 . S
H5847 C5877 0.950 . S
C5848 H5830 0.951 . S
C5848 C5849 1.366 . S
C5848 C5850 1.388 . S
C5849 C5848 1.366 . S
C5849 C5853 1.385 . S
C5850 H5831 0.951 . S
C5850 C5848 1.388 . S
C5850 C5851 1.366 . S
C5851 C5850 1.366 . S
C5851 C5852 1.414 . S
C5851 C5854 1.499 . S
C5852 H5832 0.950 . S
C5852 C5851 1.414 . S
C5852 C5853 1.374 . S
C5853 H5833 0.950 . S
C5853 C5849 1.385 . S
C5853 C5852 1.374 . S
C5854 C5851 1.499 . S
C5854 C5855 1.373 . S
C5854 C5856 1.389 . S
C5855 H5834 0.950 . S
C5855 C5854 1.373 . S
C5855 C5871 1.377 . S
C5856 C5854 1.389 . S
C5856 C5857 1.524 . S
C5856 C5870 1.377 . S
C5857 C5856 1.524 . S
C5857 C5858 1.397 . S
C5857 C5862 1.363 . S
C5858 H5835 0.950 . S
C5858 C5857 1.397 . S
C5858 C5859 1.334 . S
C5859 H5836 0.950 . S
C5859 C5858 1.334 . S
C5859 C5860 1.287 . S
C5860 C5859 1.287 . S
C5860 C5861 1.524 . S
C5860 H5879 0.913 . S
C5861 H5837 0.950 . S
C5861 C5860 1.524 . S
C5861 C5862 1.415 . S
C5862 H5838 0.950 . S
C5862 C5857 1.363 . S
C5862 C5861 1.415 . S
C5863 H5839 0.951 . S
C5863 C5864 1.366 . S
C5863 C5865 1.388 . S
C5864 C5863 1.366 . S
C5864 C5868 1.385 . S
C5865 H5840 0.951 . S
C5865 C5863 1.388 . S
C5865 C5866 1.366 . S
C5866 C5865 1.366 . S
C5866 C5867 1.414 . S
C5866 C5869 1.499 . S
C5867 H5841 0.950 . S
C5867 C5866 1.414 . S
C5867 C5868 1.374 . S
C5868 H5842 0.950 . S
C5868 C5864 1.385 . S
C5868 C5867 1.374 . S
C5869 C5866 1.499 . S
C5869 C5870 1.373 . S
C5869 C5871 1.389 . S
C5870 H5843 0.950 . S
C5870 C5856 1.377 . S
C5870 C5869 1.373 . S
C5871 C5855 1.377 . S
C5871 C5869 1.389 . S
C5871 C5872 1.524 . S
C5872 C5871 1.524 . S
C5872 C5873 1.397 . S
C5872 C5877 1.363 . S
C5873 H5844 0.950 . S
C5873 C5872 1.397 . S
C5873 C5874 1.334 . S
C5874 H5845 0.950 . S
C5874 C5873 1.334 . S
C5874 C5875 1.287 . S
C5875 C5874 1.287 . S
C5875 C5876 1.524 . S
C5875 H5878 0.999 . S
C5876 H5846 0.950 . S
C5876 C5875 1.524 . S
C5876 C5877 1.415 . S
C5877 H5847 0.950 . S
C5877 C5872 1.363 . S
C5877 C5876 1.415 . S
H5878 C5875 0.999 . S
H5879 C5860 0.913 . S
H5880 C5898 0.951 . S
H5881 C5900 0.951 . S
H5882 C5902 0.950 . S
H5883 C5903 0.950 . S
H5884 C5905 0.950 . S
H5885 C5908 0.950 . S
H5886 C5909 0.950 . S
H5887 C5911 0.950 . S
H5888 C5912 0.950 . S
H5889 C5913 0.951 . S
H5890 C5915 0.951 . S
H5891 C5917 0.950 . S
H5892 C5918 0.950 . S
H5893 C5920 0.950 . S
H5894 C5923 0.950 . S
H5895 C5924 0.950 . S
H5896 C5926 0.950 . S
H5897 C5927 0.950 . S
C5898 H5880 0.951 . S
C5898 C5899 1.366 . S
C5898 C5900 1.388 . S
C5899 C5898 1.366 . S
C5899 C5903 1.385 . S
C5900 H5881 0.951 . S
C5900 C5898 1.388 . S
C5900 C5901 1.366 . S
C5901 C5900 1.366 . S
C5901 C5902 1.414 . S
C5901 C5904 1.499 . S
C5902 H5882 0.950 . S
C5902 C5901 1.414 . S
C5902 C5903 1.374 . S
C5903 H5883 0.950 . S
C5903 C5899 1.385 . S
C5903 C5902 1.374 . S
C5904 C5901 1.499 . S
C5904 C5905 1.373 . S
C5904 C5906 1.389 . S
C5905 H5884 0.950 . S
C5905 C5904 1.373 . S
C5905 C5921 1.377 . S
C5906 C5904 1.389 . S
C5906 C5907 1.524 . S
C5906 C5920 1.377 . S
C5907 C5906 1.524 . S
C5907 C5908 1.397 . S
C5907 C5912 1.363 . S
C5908 H5885 0.950 . S
C5908 C5907 1.397 . S
C5908 C5909 1.334 . S
C5909 H5886 0.950 . S
C5909 C5908 1.334 . S
C5909 C5910 1.287 . S
C5910 C5909 1.287 . S
C5910 C5911 1.524 . S
C5910 H5929 0.913 . S
C5911 H5887 0.950 . S
C5911 C5910 1.524 . S
C5911 C5912 1.415 . S
C5912 H5888 0.950 . S
C5912 C5907 1.363 . S
C5912 C5911 1.415 . S
C5913 H5889 0.951 . S
C5913 C5914 1.366 . S
C5913 C5915 1.388 . S
C5914 C5913 1.366 . S
C5914 C5918 1.385 . S
C5915 H5890 0.951 . S
C5915 C5913 1.388 . S
C5915 C5916 1.366 . S
C5916 C5915 1.366 . S
C5916 C5917 1.414 . S
C5916 C5919 1.499 . S
C5917 H5891 0.950 . S
C5917 C5916 1.414 . S
C5917 C5918 1.374 . S
C5918 H5892 0.950 . S
C5918 C5914 1.385 . S
C5918 C5917 1.374 . S
C5919 C5916 1.499 . S
C5919 C5920 1.373 . S
C5919 C5921 1.389 . S
C5920 H5893 0.950 . S
C5920 C5906 1.377 . S
C5920 C5919 1.373 . S
C5921 C5905 1.377 . S
C5921 C5919 1.389 . S
C5921 C5922 1.524 . S
C5922 C5921 1.524 . S
C5922 C5923 1.397 . S
C5922 C5927 1.363 . S
C5923 H5894 0.950 . S
C5923 C5922 1.397 . S
C5923 C5924 1.334 . S
C5924 H5895 0.950 . S
C5924 C5923 1.334 . S
C5924 C5925 1.287 . S
C5925 C5924 1.287 . S
C5925 C5926 1.524 . S
C5925 H5928 0.999 . S
C5926 H5896 0.950 . S
C5926 C5925 1.524 . S
C5926 C5927 1.415 . S
C5927 H5897 0.950 . S
C5927 C5922 1.363 . S
C5927 C5926 1.415 . S
H5928 C5925 0.999 . S
H5929 C5910 0.913 . S
H5930 C5948 0.951 . S
H5931 C5950 0.951 . S
H5932 C5952 0.950 . S
H5933 C5953 0.950 . S
H5934 C5955 0.950 . S
H5935 C5958 0.950 . S
H5936 C5959 0.950 . S
H5937 C5961 0.950 . S
H5938 C5962 0.950 . S
H5939 C5963 0.951 . S
H5940 C5965 0.951 . S
H5941 C5967 0.950 . S
H5942 C5968 0.950 . S
H5943 C5970 0.950 . S
H5944 C5973 0.950 . S
H5945 C5974 0.950 . S
H5946 C5976 0.950 . S
H5947 C5977 0.950 . S
C5948 H5930 0.951 . S
C5948 C5949 1.366 . S
C5948 C5950 1.388 . S
C5949 C5948 1.366 . S
C5949 C5953 1.385 . S
C5950 H5931 0.951 . S
C5950 C5948 1.388 . S
C5950 C5951 1.366 . S
C5951 C5950 1.366 . S
C5951 C5952 1.414 . S
C5951 C5954 1.499 . S
C5952 H5932 0.950 . S
C5952 C5951 1.414 . S
C5952 C5953 1.374 . S
C5953 H5933 0.950 . S
C5953 C5949 1.385 . S
C5953 C5952 1.374 . S
C5954 C5951 1.499 . S
C5954 C5955 1.373 . S
C5954 C5956 1.389 . S
C5955 H5934 0.950 . S
C5955 C5954 1.373 . S
C5955 C5971 1.377 . S
C5956 C5954 1.389 . S
C5956 C5957 1.524 . S
C5956 C5970 1.377 . S
C5957 C5956 1.524 . S
C5957 C5958 1.397 . S
C5957 C5962 1.363 . S
C5958 H5935 0.950 . S
C5958 C5957 1.397 . S
C5958 C5959 1.334 . S
C5959 H5936 0.950 . S
C5959 C5958 1.334 . S
C5959 C5960 1.287 . S
C5960 C5959 1.287 . S
C5960 C5961 1.524 . S
C5960 H5979 0.913 . S
C5961 H5937 0.950 . S
C5961 C5960 1.524 . S
C5961 C5962 1.415 . S
C5962 H5938 0.950 . S
C5962 C5957 1.363 . S
C5962 C5961 1.415 . S
C5963 H5939 0.951 . S
C5963 C5964 1.366 . S
C5963 C5965 1.388 . S
C5964 C5963 1.366 . S
C5964 C5968 1.385 . S
C5965 H5940 0.951 . S
C5965 C5963 1.388 . S
C5965 C5966 1.366 . S
C5966 C5965 1.366 . S
C5966 C5967 1.414 . S
C5966 C5969 1.499 . S
C5967 H5941 0.950 . S
C5967 C5966 1.414 . S
C5967 C5968 1.374 . S
C5968 H5942 0.950 . S
C5968 C5964 1.385 . S
C5968 C5967 1.374 . S
C5969 C5966 1.499 . S
C5969 C5970 1.373 . S
C5969 C5971 1.389 . S
C5970 H5943 0.950 . S
C5970 C5956 1.377 . S
C5970 C5969 1.373 . S
C5971 C5955 1.377 . S
C5971 C5969 1.389 . S
C5971 C5972 1.524 . S
C5972 C5971 1.524 . S
C5972 C5973 1.397 . S
C5972 C5977 1.363 . S
C5973 H5944 0.950 . S
C5973 C5972 1.397 . S
C5973 C5974 1.334 . S
C5974 H5945 0.950 . S
C5974 C5973 1.334 . S
C5974 C5975 1.287 . S
C5975 C5974 1.287 . S
C5975 C5976 1.524 . S
C5975 H5978 0.999 . S
C5976 H5946 0.950 . S
C5976 C5975 1.524 . S
C5976 C5977 1.415 . S
C5977 H5947 0.950 . S
C5977 C5972 1.363 . S
C5977 C5976 1.415 . S
H5978 C5975 0.999 . S
H5979 C5960 0.913 . S
H5980 C5998 0.951 . S
H5981 C6000 0.951 . S
H5982 C6002 0.950 . S
H5983 C6003 0.950 . S
H5984 C6005 0.950 . S
H5985 C6008 0.950 . S
H5986 C6009 0.950 . S
H5987 C6011 0.950 . S
H5988 C6012 0.950 . S
H5989 C6013 0.951 . S
H5990 C6015 0.951 . S
H5991 C6017 0.950 . S
H5992 C6018 0.950 . S
H5993 C6020 0.950 . S
H5994 C6023 0.950 . S
H5995 C6024 0.950 . S
H5996 C6026 0.950 . S
H5997 C6027 0.950 . S
C5998 H5980 0.951 . S
C5998 C5999 1.366 . S
C5998 C6000 1.388 . S
C5999 C5998 1.366 . S
C5999 C6003 1.385 . S
C6000 H5981 0.951 . S
C6000 C5998 1.388 . S
C6000 C6001 1.366 . S
C6001 C6000 1.366 . S
C6001 C6002 1.414 . S
C6001 C6004 1.499 . S
C6002 H5982 0.950 . S
C6002 C6001 1.414 . S
C6002 C6003 1.374 . S
C6003 H5983 0.950 . S
C6003 C5999 1.385 . S
C6003 C6002 1.374 . S
C6004 C6001 1.499 . S
C6004 C6005 1.373 . S
C6004 C6006 1.389 . S
C6005 H5984 0.950 . S
C6005 C6004 1.373 . S
C6005 C6021 1.377 . S
C6006 C6004 1.389 . S
C6006 C6007 1.524 . S
C6006 C6020 1.377 . S
C6007 C6006 1.524 . S
C6007 C6008 1.397 . S
C6007 C6012 1.363 1_655 S
C6008 H5985 0.950 . S
C6008 C6007 1.397 . S
C6008 C6009 1.334 . S
C6009 H5986 0.950 . S
C6009 C6008 1.334 . S
C6009 C6010 1.287 . S
C6010 C6009 1.287 . S
C6010 C6011 1.524 1_655 S
C6010 H6029 0.913 1_655 S
C6011 H5987 0.950 . S
C6011 C6010 1.524 1_455 S
C6011 C6012 1.415 . S
C6012 H5988 0.950 . S
C6012 C6007 1.363 1_455 S
C6012 C6011 1.415 . S
C6013 H5989 0.951 . S
C6013 C6014 1.366 1_655 S
C6013 C6015 1.388 . S
C6014 C6013 1.366 1_455 S
C6014 C6018 1.385 . S
C6015 H5990 0.951 . S
C6015 C6013 1.388 . S
C6015 C6016 1.366 . S
C6016 C6015 1.366 . S
C6016 C6017 1.414 1_655 S
C6016 C6019 1.499 . S
C6017 H5991 0.950 . S
C6017 C6016 1.414 1_455 S
C6017 C6018 1.374 . S
C6018 H5992 0.950 . S
C6018 C6014 1.385 . S
C6018 C6017 1.374 . S
C6019 C6016 1.499 . S
C6019 C6020 1.373 . S
C6019 C6021 1.389 . S
C6020 H5993 0.950 . S
C6020 C6006 1.377 . S
C6020 C6019 1.373 . S
C6021 C6005 1.377 . S
C6021 C6019 1.389 . S
C6021 C6022 1.524 . S
C6022 C6021 1.524 . S
C6022 C6023 1.397 . S
C6022 C6027 1.363 . S
C6023 H5994 0.950 . S
C6023 C6022 1.397 . S
C6023 C6024 1.334 . S
C6024 H5995 0.950 . S
C6024 C6023 1.334 . S
C6024 C6025 1.287 . S
C6025 C6024 1.287 . S
C6025 C6026 1.524 . S
C6025 H6028 0.999 . S
C6026 H5996 0.950 . S
C6026 C6025 1.524 . S
C6026 C6027 1.415 . S
C6027 H5997 0.950 . S
C6027 C6022 1.363 . S
C6027 C6026 1.415 . S
H6028 C6025 0.999 . S
H6029 C6010 0.913 1_455 S
H6030 C6048 0.951 . S
H6031 C6050 0.951 . S
H6032 C6052 0.950 . S
H6033 C6053 0.950 . S
H6034 C6055 0.950 . S
H6035 C6058 0.950 . S
H6036 C6059 0.950 . S
H6037 C6061 0.950 . S
H6038 C6062 0.950 . S
H6039 C6063 0.951 . S
H6040 C6065 0.951 . S
H6041 C6067 0.950 . S
H6042 C6068 0.950 . S
H6043 C6070 0.950 . S
H6044 C6073 0.950 . S
H6045 C6074 0.950 . S
H6046 C6076 0.950 . S
H6047 C6077 0.950 . S
C6048 H6030 0.951 . S
C6048 C6049 1.366 . S
C6048 C6050 1.388 . S
C6049 C6048 1.366 . S
C6049 C6053 1.385 . S
C6050 H6031 0.951 . S
C6050 C6048 1.388 . S
C6050 C6051 1.366 . S
C6051 C6050 1.366 . S
C6051 C6052 1.414 . S
C6051 C6054 1.499 . S
C6052 H6032 0.950 . S
C6052 C6051 1.414 . S
C6052 C6053 1.374 . S
C6053 H6033 0.950 . S
C6053 C6049 1.385 . S
C6053 C6052 1.374 . S
C6054 C6051 1.499 . S
C6054 C6055 1.373 . S
C6054 C6056 1.389 . S
C6055 H6034 0.950 . S
C6055 C6054 1.373 . S
C6055 C6071 1.377 . S
C6056 C6054 1.389 . S
C6056 C6057 1.524 . S
C6056 C6070 1.377 . S
C6057 C6056 1.524 . S
C6057 C6058 1.397 . S
C6057 C6062 1.363 . S
C6058 H6035 0.950 . S
C6058 C6057 1.397 . S
C6058 C6059 1.334 . S
C6059 H6036 0.950 . S
C6059 C6058 1.334 . S
C6059 C6060 1.287 . S
C6060 C6059 1.287 . S
C6060 C6061 1.524 . S
C6060 H6079 0.913 . S
C6061 H6037 0.950 . S
C6061 C6060 1.524 . S
C6061 C6062 1.415 . S
C6062 H6038 0.950 . S
C6062 C6057 1.363 . S
C6062 C6061 1.415 . S
C6063 H6039 0.951 . S
C6063 C6064 1.366 . S
C6063 C6065 1.388 . S
C6064 C6063 1.366 . S
C6064 C6068 1.385 . S
C6065 H6040 0.951 . S
C6065 C6063 1.388 . S
C6065 C6066 1.366 . S
C6066 C6065 1.366 . S
C6066 C6067 1.414 . S
C6066 C6069 1.499 . S
C6067 H6041 0.950 . S
C6067 C6066 1.414 . S
C6067 C6068 1.374 . S
C6068 H6042 0.950 . S
C6068 C6064 1.385 . S
C6068 C6067 1.374 . S
C6069 C6066 1.499 . S
C6069 C6070 1.373 . S
C6069 C6071 1.389 . S
C6070 H6043 0.950 . S
C6070 C6056 1.377 . S
C6070 C6069 1.373 . S
C6071 C6055 1.377 . S
C6071 C6069 1.389 . S
C6071 C6072 1.524 . S
C6072 C6071 1.524 . S
C6072 C6073 1.397 . S
C6072 C6077 1.363 . S
C6073 H6044 0.950 . S
C6073 C6072 1.397 . S
C6073 C6074 1.334 . S
C6074 H6045 0.950 . S
C6074 C6073 1.334 . S
C6074 C6075 1.287 . S
C6075 C6074 1.287 . S
C6075 C6076 1.524 . S
C6075 H6078 0.999 . S
C6076 H6046 0.950 . S
C6076 C6075 1.524 . S
C6076 C6077 1.415 . S
C6077 H6047 0.950 . S
C6077 C6072 1.363 . S
C6077 C6076 1.415 . S
H6078 C6075 0.999 . S
H6079 C6060 0.913 . S
H6080 C6098 0.951 . S
H6081 C6100 0.951 . S
H6082 C6102 0.950 . S
H6083 C6103 0.950 . S
H6084 C6105 0.950 . S
H6085 C6108 0.950 . S
H6086 C6109 0.950 . S
H6087 C6111 0.950 . S
H6088 C6112 0.950 . S
H6089 C6113 0.951 . S
H6090 C6115 0.951 . S
H6091 C6117 0.950 . S
H6092 C6118 0.950 . S
H6093 C6120 0.950 . S
H6094 C6123 0.950 . S
H6095 C6124 0.950 . S
H6096 C6126 0.950 . S
H6097 C6127 0.950 . S
C6098 H6080 0.951 . S
C6098 C6099 1.366 . S
C6098 C6100 1.388 . S
C6099 C6098 1.366 . S
C6099 C6103 1.385 . S
C6100 H6081 0.951 . S
C6100 C6098 1.388 . S
C6100 C6101 1.366 . S
C6101 C6100 1.366 . S
C6101 C6102 1.414 . S
C6101 C6104 1.499 . S
C6102 H6082 0.950 . S
C6102 C6101 1.414 . S
C6102 C6103 1.374 . S
C6103 H6083 0.950 . S
C6103 C6099 1.385 . S
C6103 C6102 1.374 . S
C6104 C6101 1.499 . S
C6104 C6105 1.373 . S
C6104 C6106 1.389 . S
C6105 H6084 0.950 . S
C6105 C6104 1.373 . S
C6105 C6121 1.377 . S
C6106 C6104 1.389 . S
C6106 C6107 1.524 . S
C6106 C6120 1.377 . S
C6107 C6106 1.524 . S
C6107 C6108 1.397 . S
C6107 C6112 1.363 . S
C6108 H6085 0.950 . S
C6108 C6107 1.397 . S
C6108 C6109 1.334 . S
C6109 H6086 0.950 . S
C6109 C6108 1.334 . S
C6109 C6110 1.287 . S
C6110 C6109 1.287 . S
C6110 C6111 1.524 . S
C6110 H6129 0.913 . S
C6111 H6087 0.950 . S
C6111 C6110 1.524 . S
C6111 C6112 1.415 . S
C6112 H6088 0.950 . S
C6112 C6107 1.363 . S
C6112 C6111 1.415 . S
C6113 H6089 0.951 . S
C6113 C6114 1.366 . S
C6113 C6115 1.388 . S
C6114 C6113 1.366 . S
C6114 C6118 1.385 . S
C6115 H6090 0.951 . S
C6115 C6113 1.388 . S
C6115 C6116 1.366 . S
C6116 C6115 1.366 . S
C6116 C6117 1.414 . S
C6116 C6119 1.499 . S
C6117 H6091 0.950 . S
C6117 C6116 1.414 . S
C6117 C6118 1.374 . S
C6118 H6092 0.950 . S
C6118 C6114 1.385 . S
C6118 C6117 1.374 . S
C6119 C6116 1.499 . S
C6119 C6120 1.373 . S
C6119 C6121 1.389 . S
C6120 H6093 0.950 . S
C6120 C6106 1.377 . S
C6120 C6119 1.373 . S
C6121 C6105 1.377 . S
C6121 C6119 1.389 . S
C6121 C6122 1.524 . S
C6122 C6121 1.524 . S
C6122 C6123 1.397 . S
C6122 C6127 1.363 . S
C6123 H6094 0.950 . S
C6123 C6122 1.397 . S
C6123 C6124 1.334 . S
C6124 H6095 0.950 . S
C6124 C6123 1.334 . S
C6124 C6125 1.287 . S
C6125 C6124 1.287 . S
C6125 C6126 1.524 . S
C6125 H6128 0.999 . S
C6126 H6096 0.950 . S
C6126 C6125 1.524 . S
C6126 C6127 1.415 . S
C6127 H6097 0.950 . S
C6127 C6122 1.363 . S
C6127 C6126 1.415 . S
H6128 C6125 0.999 . S
H6129 C6110 0.913 . S
H6130 C6148 0.951 . S
H6131 C6150 0.951 . S
H6132 C6152 0.950 . S
H6133 C6153 0.950 . S
H6134 C6155 0.950 . S
H6135 C6158 0.950 . S
H6136 C6159 0.950 . S
H6137 C6161 0.950 . S
H6138 C6162 0.950 . S
H6139 C6163 0.951 1_455 S
H6140 C6165 0.951 . S
H6141 C6167 0.950 1_545 S
H6142 C6168 0.950 . S
H6143 C6170 0.950 . S
H6144 C6173 0.950 . S
H6145 C6174 0.950 1_545 S
H6146 C6176 0.950 . S
H6147 C6177 0.950 . S
C6148 H6130 0.951 . S
C6148 C6149 1.366 . S
C6148 C6150 1.388 . S
C6149 C6148 1.366 . S
C6149 C6153 1.385 . S
C6150 H6131 0.951 . S
C6150 C6148 1.388 . S
C6150 C6151 1.366 . S
C6151 C6150 1.366 . S
C6151 C6152 1.414 . S
C6151 C6154 1.499 . S
C6152 H6132 0.950 . S
C6152 C6151 1.414 . S
C6152 C6153 1.374 . S
C6153 H6133 0.950 . S
C6153 C6149 1.385 . S
C6153 C6152 1.374 . S
C6154 C6151 1.499 . S
C6154 C6155 1.373 . S
C6154 C6156 1.389 . S
C6155 H6134 0.950 . S
C6155 C6154 1.373 . S
C6155 C6171 1.377 . S
C6156 C6154 1.389 . S
C6156 C6157 1.524 . S
C6156 C6170 1.377 . S
C6157 C6156 1.524 . S
C6157 C6158 1.397 . S
C6157 C6162 1.363 . S
C6158 H6135 0.950 . S
C6158 C6157 1.397 . S
C6158 C6159 1.334 . S
C6159 H6136 0.950 . S
C6159 C6158 1.334 . S
C6159 C6160 1.287 . S
C6160 C6159 1.287 . S
C6160 C6161 1.524 . S
C6160 H6179 0.913 . S
C6161 H6137 0.950 . S
C6161 C6160 1.524 . S
C6161 C6162 1.415 . S
C6162 H6138 0.950 . S
C6162 C6157 1.363 . S
C6162 C6161 1.415 . S
C6163 H6139 0.951 1_655 S
C6163 C6164 1.366 1_565 S
C6163 C6165 1.388 . S
C6164 C6163 1.366 1_545 S
C6164 C6168 1.385 . S
C6165 H6140 0.951 . S
C6165 C6163 1.388 . S
C6165 C6166 1.366 . S
C6166 C6165 1.366 . S
C6166 C6167 1.414 . S
C6166 C6169 1.499 . S
C6167 H6141 0.950 1_565 S
C6167 C6166 1.414 . S
C6167 C6168 1.374 1_565 S
C6168 H6142 0.950 . S
C6168 C6164 1.385 . S
C6168 C6167 1.374 1_545 S
C6169 C6166 1.499 . S
C6169 C6170 1.373 . S
C6169 C6171 1.389 . S
C6170 H6143 0.950 . S
C6170 C6156 1.377 . S
C6170 C6169 1.373 . S
C6171 C6155 1.377 . S
C6171 C6169 1.389 . S
C6171 C6172 1.524 . S
C6172 C6171 1.524 . S
C6172 C6173 1.397 . S
C6172 C6177 1.363 . S
C6173 H6144 0.950 . S
C6173 C6172 1.397 . S
C6173 C6174 1.334 . S
C6174 H6145 0.950 1_565 S
C6174 C6173 1.334 . S
C6174 C6175 1.287 . S
C6175 C6174 1.287 . S
C6175 C6176 1.524 . S
C6175 H6178 0.999 . S
C6176 H6146 0.950 . S
C6176 C6175 1.524 . S
C6176 C6177 1.415 . S
C6177 H6147 0.950 . S
C6177 C6172 1.363 . S
C6177 C6176 1.415 . S
H6178 C6175 0.999 . S
H6179 C6160 0.913 . S
H6180 C6198 0.951 . S
H6181 C6200 0.951 . S
H6182 C6202 0.950 . S
H6183 C6203 0.950 . S
H6184 C6205 0.950 . S
H6185 C6208 0.950 . S
H6186 C6209 0.950 . S
H6187 C6211 0.950 . S
H6188 C6212 0.950 . S
H6189 C6213 0.951 . S
H6190 C6215 0.951 . S
H6191 C6217 0.950 . S
H6192 C6218 0.950 . S
H6193 C6220 0.950 . S
H6194 C6223 0.950 . S
H6195 C6224 0.950 . S
H6196 C6226 0.950 . S
H6197 C6227 0.950 . S
C6198 H6180 0.951 . S
C6198 C6199 1.366 . S
C6198 C6200 1.388 . S
C6199 C6198 1.366 . S
C6199 C6203 1.385 . S
C6200 H6181 0.951 . S
C6200 C6198 1.388 . S
C6200 C6201 1.366 . S
C6201 C6200 1.366 . S
C6201 C6202 1.414 . S
C6201 C6204 1.499 . S
C6202 H6182 0.950 . S
C6202 C6201 1.414 . S
C6202 C6203 1.374 . S
C6203 H6183 0.950 . S
C6203 C6199 1.385 . S
C6203 C6202 1.374 . S
C6204 C6201 1.499 . S
C6204 C6205 1.373 . S
C6204 C6206 1.389 . S
C6205 H6184 0.950 . S
C6205 C6204 1.373 . S
C6205 C6221 1.377 . S
C6206 C6204 1.389 . S
C6206 C6207 1.524 . S
C6206 C6220 1.377 . S
C6207 C6206 1.524 . S
C6207 C6208 1.397 . S
C6207 C6212 1.363 . S
C6208 H6185 0.950 . S
C6208 C6207 1.397 . S
C6208 C6209 1.334 . S
C6209 H6186 0.950 . S
C6209 C6208 1.334 . S
C6209 C6210 1.287 . S
C6210 C6209 1.287 . S
C6210 C6211 1.524 . S
C6210 H6229 0.913 . S
C6211 H6187 0.950 . S
C6211 C6210 1.524 . S
C6211 C6212 1.415 . S
C6212 H6188 0.950 . S
C6212 C6207 1.363 . S
C6212 C6211 1.415 . S
C6213 H6189 0.951 . S
C6213 C6214 1.366 . S
C6213 C6215 1.388 . S
C6214 C6213 1.366 . S
C6214 C6218 1.385 . S
C6215 H6190 0.951 . S
C6215 C6213 1.388 . S
C6215 C6216 1.366 . S
C6216 C6215 1.366 . S
C6216 C6217 1.414 . S
C6216 C6219 1.499 . S
C6217 H6191 0.950 . S
C6217 C6216 1.414 . S
C6217 C6218 1.374 . S
C6218 H6192 0.950 . S
C6218 C6214 1.385 . S
C6218 C6217 1.374 . S
C6219 C6216 1.499 . S
C6219 C6220 1.373 . S
C6219 C6221 1.389 . S
C6220 H6193 0.950 . S
C6220 C6206 1.377 . S
C6220 C6219 1.373 . S
C6221 C6205 1.377 . S
C6221 C6219 1.389 . S
C6221 C6222 1.524 . S
C6222 C6221 1.524 . S
C6222 C6223 1.397 . S
C6222 C6227 1.363 . S
C6223 H6194 0.950 . S
C6223 C6222 1.397 . S
C6223 C6224 1.334 . S
C6224 H6195 0.950 . S
C6224 C6223 1.334 . S
C6224 C6225 1.287 . S
C6225 C6224 1.287 . S
C6225 C6226 1.524 . S
C6225 H6228 0.999 . S
C6226 H6196 0.950 . S
C6226 C6225 1.524 . S
C6226 C6227 1.415 . S
C6227 H6197 0.950 . S
C6227 C6222 1.363 . S
C6227 C6226 1.415 . S
H6228 C6225 0.999 . S
H6229 C6210 0.913 . S
H6230 C6248 0.951 . S
H6231 C6250 0.951 . S
H6232 C6252 0.950 . S
H6233 C6253 0.950 . S
H6234 C6255 0.950 . S
H6235 C6258 0.950 . S
H6236 C6259 0.950 . S
H6237 C6261 0.950 . S
H6238 C6262 0.950 . S
H6239 C6263 0.951 . S
H6240 C6265 0.951 . S
H6241 C6267 0.950 . S
H6242 C6268 0.950 . S
H6243 C6270 0.950 . S
H6244 C6273 0.950 . S
H6245 C6274 0.950 . S
H6246 C6276 0.929 1_554 S
H6247 C6277 0.950 . S
C6248 H6230 0.951 . S
C6248 C6249 1.366 . S
C6248 C6250 1.388 . S
C6249 C6248 1.366 . S
C6249 C6253 1.385 . S
C6250 H6231 0.951 . S
C6250 C6248 1.388 . S
C6250 C6251 1.366 . S
C6251 C6250 1.366 . S
C6251 C6252 1.414 . S
C6251 C6254 1.499 . S
C6252 H6232 0.950 . S
C6252 C6251 1.414 . S
C6252 C6253 1.374 . S
C6253 H6233 0.950 . S
C6253 C6249 1.385 . S
C6253 C6252 1.374 . S
C6254 C6251 1.499 . S
C6254 C6255 1.373 . S
C6254 C6256 1.389 . S
C6255 H6234 0.950 . S
C6255 C6254 1.373 . S
C6255 C6271 1.377 . S
C6256 C6254 1.389 . S
C6256 C6257 1.524 . S
C6256 C6270 1.377 . S
C6257 C6256 1.524 . S
C6257 C6258 1.397 . S
C6257 C6262 1.363 . S
C6258 H6235 0.950 . S
C6258 C6257 1.397 . S
C6258 C6259 1.334 . S
C6259 H6236 0.950 . S
C6259 C6258 1.334 . S
C6259 C6260 1.287 . S
C6260 C6259 1.287 . S
C6260 C6261 1.524 . S
C6260 H6279 0.913 . S
C6261 H6237 0.950 . S
C6261 C6260 1.524 . S
C6261 C6262 1.415 . S
C6262 H6238 0.950 . S
C6262 C6257 1.363 . S
C6262 C6261 1.415 . S
C6263 H6239 0.951 . S
C6263 C6264 1.366 . S
C6263 C6265 1.388 . S
C6264 C6263 1.366 . S
C6264 C6268 1.385 . S
C6265 H6240 0.951 . S
C6265 C6263 1.388 . S
C6265 C6266 1.366 . S
C6266 C6265 1.366 . S
C6266 C6267 1.414 . S
C6266 C6269 1.499 . S
C6267 H6241 0.950 . S
C6267 C6266 1.414 . S
C6267 C6268 1.374 . S
C6268 H6242 0.950 . S
C6268 C6264 1.385 . S
C6268 C6267 1.374 . S
C6269 C6266 1.499 . S
C6269 C6270 1.373 . S
C6269 C6271 1.389 . S
C6270 H6243 0.950 . S
C6270 C6256 1.377 . S
C6270 C6269 1.373 . S
C6271 C6255 1.377 . S
C6271 C6269 1.389 . S
C6271 C6272 1.524 . S
C6272 C6271 1.524 . S
C6272 C6273 1.397 1_554 S
C6272 C6277 1.363 . S
C6273 H6244 0.950 . S
C6273 C6272 1.397 1_556 S
C6273 C6274 1.334 . S
C6274 H6245 0.950 . S
C6274 C6273 1.334 . S
C6274 C6275 1.287 . S
C6275 C6274 1.287 . S
C6275 C6276 1.564 . S
C6275 H6278 0.999 1_545 S
C6276 H6246 0.929 1_556 S
C6276 C6275 1.564 . S
C6276 C6277 1.401 1_556 S
C6277 H6247 0.950 . S
C6277 C6272 1.363 . S
C6277 C6276 1.401 1_554 S
H6278 C6275 0.999 1_565 S
H6279 C6260 0.913 . S
H6280 C6298 0.951 . S
H6281 C6300 0.951 . S
H6282 C6302 0.950 . S
H6283 C6303 0.950 . S
H6284 C6305 0.950 . S
H6285 C6308 0.950 . S
H6286 C6309 0.950 . S
H6287 C6311 0.950 . S
H6288 C6312 0.950 . S
H6289 C6313 0.951 . S
H6290 C6315 0.951 . S
H6291 C6317 0.950 . S
H6292 C6318 0.950 . S
H6293 C6320 0.950 . S
H6294 C6323 0.950 . S
H6295 C6324 0.950 . S
H6296 C6326 0.950 . S
H6297 C6327 0.950 . S
C6298 H6280 0.951 . S
C6298 C6299 1.366 . S
C6298 C6300 1.388 . S
C6299 C6298 1.366 . S
C6299 C6303 1.385 . S
C6300 H6281 0.951 . S
C6300 C6298 1.388 . S
C6300 C6301 1.366 . S
C6301 C6300 1.366 . S
C6301 C6302 1.414 . S
C6301 C6304 1.499 . S
C6302 H6282 0.950 . S
C6302 C6301 1.414 . S
C6302 C6303 1.374 . S
C6303 H6283 0.950 . S
C6303 C6299 1.385 . S
C6303 C6302 1.374 . S
C6304 C6301 1.499 . S
C6304 C6305 1.373 . S
C6304 C6306 1.389 . S
C6305 H6284 0.950 . S
C6305 C6304 1.373 . S
C6305 C6321 1.377 . S
C6306 C6304 1.389 . S
C6306 C6307 1.524 . S
C6306 C6320 1.377 . S
C6307 C6306 1.524 . S
C6307 C6308 1.397 . S
C6307 C6312 1.363 . S
C6308 H6285 0.950 . S
C6308 C6307 1.397 . S
C6308 C6309 1.334 . S
C6309 H6286 0.950 . S
C6309 C6308 1.334 . S
C6309 C6310 1.287 . S
C6310 C6309 1.287 . S
C6310 C6311 1.524 . S
C6310 H6329 0.913 . S
C6311 H6287 0.950 . S
C6311 C6310 1.524 . S
C6311 C6312 1.415 . S
C6312 H6288 0.950 . S
C6312 C6307 1.363 . S
C6312 C6311 1.415 . S
C6313 H6289 0.951 . S
C6313 C6314 1.366 . S
C6313 C6315 1.388 . S
C6314 C6313 1.366 . S
C6314 C6318 1.385 . S
C6315 H6290 0.951 . S
C6315 C6313 1.388 . S
C6315 C6316 1.366 . S
C6316 C6315 1.366 . S
C6316 C6317 1.414 . S
C6316 C6319 1.499 . S
C6317 H6291 0.950 . S
C6317 C6316 1.414 . S
C6317 C6318 1.374 . S
C6318 H6292 0.950 . S
C6318 C6314 1.385 . S
C6318 C6317 1.374 . S
C6319 C6316 1.499 . S
C6319 C6320 1.373 . S
C6319 C6321 1.389 . S
C6320 H6293 0.950 . S
C6320 C6306 1.377 . S
C6320 C6319 1.373 . S
C6321 C6305 1.377 . S
C6321 C6319 1.389 . S
C6321 C6322 1.524 . S
C6322 C6321 1.524 . S
C6322 C6323 1.397 . S
C6322 C6327 1.363 . S
C6323 H6294 0.950 . S
C6323 C6322 1.397 . S
C6323 C6324 1.334 . S
C6324 H6295 0.950 . S
C6324 C6323 1.334 . S
C6324 C6325 1.287 . S
C6325 C6324 1.287 . S
C6325 C6326 1.524 . S
C6325 H6328 0.999 . S
C6326 H6296 0.950 . S
C6326 C6325 1.524 . S
C6326 C6327 1.415 . S
C6327 H6297 0.950 . S
C6327 C6322 1.363 . S
C6327 C6326 1.415 . S
H6328 C6325 0.999 . S
H6329 C6310 0.913 . S
H6330 C6348 0.951 . S
H6331 C6350 0.951 . S
H6332 C6352 0.950 . S
H6333 C6353 0.950 . S
H6334 C6355 0.950 . S
H6335 C6358 0.950 1_554 S
H6336 C6359 0.950 . S
H6337 C6361 0.950 . S
H6338 C6362 0.950 . S
H6339 C6363 0.951 . S
H6340 C6365 0.951 . S
H6341 C6367 0.950 1_556 S
H6342 C6368 0.950 1_556 S
H6343 C6370 0.950 1_556 S
H6344 C6373 0.950 . S
H6345 C6374 0.950 . S
H6346 C6376 0.950 . S
H6347 C6377 0.950 . S
C6348 H6330 0.951 . S
C6348 C6349 1.366 . S
C6348 C6350 1.388 . S
C6349 C6348 1.366 . S
C6349 C6353 1.385 . S
C6350 H6331 0.951 . S
C6350 C6348 1.388 . S
C6350 C6351 1.366 . S
C6351 C6350 1.366 . S
C6351 C6352 1.414 . S
C6351 C6354 1.499 . S
C6352 H6332 0.950 . S
C6352 C6351 1.414 . S
C6352 C6353 1.374 . S
C6353 H6333 0.950 . S
C6353 C6349 1.385 . S
C6353 C6352 1.374 . S
C6354 C6351 1.499 . S
C6354 C6355 1.373 . S
C6354 C6356 1.389 . S
C6355 H6334 0.950 . S
C6355 C6354 1.373 . S
C6355 C6371 1.377 . S
C6356 C6354 1.389 . S
C6356 C6357 1.524 1_554 S
C6356 C6370 1.377 . S
C6357 C6356 1.524 1_556 S
C6357 C6358 1.397 . S
C6357 C6362 1.363 . S
C6358 H6335 0.950 1_556 S
C6358 C6357 1.397 . S
C6358 C6359 1.334 . S
C6359 H6336 0.950 . S
C6359 C6358 1.334 . S
C6359 C6360 1.287 . S
C6360 C6359 1.287 . S
C6360 C6361 1.524 . S
C6360 H6379 0.913 . S
C6361 H6337 0.950 . S
C6361 C6360 1.524 . S
C6361 C6362 1.415 . S
C6362 H6338 0.950 . S
C6362 C6357 1.363 . S
C6362 C6361 1.415 . S
C6363 H6339 0.951 . S
C6363 C6364 1.366 . S
C6363 C6365 1.388 . S
C6364 C6363 1.366 . S
C6364 C6368 1.385 . S
C6365 H6340 0.951 . S
C6365 C6363 1.388 . S
C6365 C6366 1.366 . S
C6366 C6365 1.366 . S
C6366 C6367 1.414 . S
C6366 C6369 1.499 . S
C6367 H6341 0.950 1_554 S
C6367 C6366 1.414 . S
C6367 C6368 1.374 . S
C6368 H6342 0.950 1_554 S
C6368 C6364 1.385 . S
C6368 C6367 1.374 . S
C6369 C6366 1.499 . S
C6369 C6370 1.373 . S
C6369 C6371 1.389 . S
C6370 H6343 0.950 1_554 S
C6370 C6356 1.377 . S
C6370 C6369 1.373 . S
C6371 C6355 1.377 . S
C6371 C6369 1.389 . S
C6371 C6372 1.524 . S
C6372 C6371 1.524 . S
C6372 C6373 1.397 . S
C6372 C6377 1.363 . S
C6373 H6344 0.950 . S
C6373 C6372 1.397 . S
C6373 C6374 1.334 . S
C6374 H6345 0.950 . S
C6374 C6373 1.334 . S
C6374 C6375 1.287 . S
C6375 C6374 1.287 . S
C6375 C6376 1.524 . S
C6375 H6378 0.999 . S
C6376 H6346 0.950 . S
C6376 C6375 1.524 . S
C6376 C6377 1.415 . S
C6377 H6347 0.950 . S
C6377 C6372 1.363 . S
C6377 C6376 1.415 . S
H6378 C6375 0.999 . S
H6379 C6360 0.913 . S
H6380 C6398 0.951 1_545 S
H6381 C6400 0.951 . S
H6382 C6402 0.950 . S
H6383 C6403 0.950 . S
H6384 C6405 0.950 . S
H6385 C6408 0.950 . S
H6386 C6409 0.950 . S
H6387 C6411 0.950 . S
H6388 C6412 0.950 . S
H6389 C6413 0.951 . S
H6390 C6415 0.951 . S
H6391 C6417 0.950 . S
H6392 C6418 0.950 . S
H6393 C6420 0.950 . S
H6394 C6423 0.950 . S
H6395 C6424 0.950 . S
H6396 C6426 0.950 . S
H6397 C6427 0.950 . S
C6398 H6380 0.951 1_565 S
C6398 C6399 1.366 . S
C6398 C6400 1.388 . S
C6399 C6398 1.366 . S
C6399 C6403 1.385 . S
C6400 H6381 0.951 . S
C6400 C6398 1.388 . S
C6400 C6401 1.366 . S
C6401 C6400 1.366 . S
C6401 C6402 1.414 . S
C6401 C6404 1.499 . S
C6402 H6382 0.950 . S
C6402 C6401 1.414 . S
C6402 C6403 1.374 . S
C6403 H6383 0.950 . S
C6403 C6399 1.385 . S
C6403 C6402 1.374 . S
C6404 C6401 1.499 . S
C6404 C6405 1.373 . S
C6404 C6406 1.389 . S
C6405 H6384 0.950 . S
C6405 C6404 1.373 . S
C6405 C6421 1.377 . S
C6406 C6404 1.389 . S
C6406 C6407 1.524 . S
C6406 C6420 1.377 . S
C6407 C6406 1.524 . S
C6407 C6408 1.397 . S
C6407 C6412 1.363 . S
C6408 H6385 0.950 . S
C6408 C6407 1.397 . S
C6408 C6409 1.334 . S
C6409 H6386 0.950 . S
C6409 C6408 1.334 . S
C6409 C6410 1.287 . S
C6410 C6409 1.287 . S
C6410 C6411 1.524 . S
C6410 H6429 0.913 . S
C6411 H6387 0.950 . S
C6411 C6410 1.524 . S
C6411 C6412 1.415 . S
C6412 H6388 0.950 . S
C6412 C6407 1.363 . S
C6412 C6411 1.415 . S
C6413 H6389 0.951 . S
C6413 C6414 1.366 . S
C6413 C6415 1.388 . S
C6414 C6413 1.366 . S
C6414 C6418 1.385 . S
C6415 H6390 0.951 . S
C6415 C6413 1.388 . S
C6415 C6416 1.366 . S
C6416 C6415 1.366 . S
C6416 C6417 1.414 . S
C6416 C6419 1.499 . S
C6417 H6391 0.950 . S
C6417 C6416 1.414 . S
C6417 C6418 1.374 . S
C6418 H6392 0.950 . S
C6418 C6414 1.385 . S
C6418 C6417 1.374 . S
C6419 C6416 1.499 . S
C6419 C6420 1.373 . S
C6419 C6421 1.389 . S
C6420 H6393 0.950 . S
C6420 C6406 1.377 . S
C6420 C6419 1.373 . S
C6421 C6405 1.377 . S
C6421 C6419 1.389 . S
C6421 C6422 1.524 . S
C6422 C6421 1.524 . S
C6422 C6423 1.397 . S
C6422 C6427 1.363 . S
C6423 H6394 0.950 . S
C6423 C6422 1.397 . S
C6423 C6424 1.334 . S
C6424 H6395 0.950 . S
C6424 C6423 1.334 . S
C6424 C6425 1.287 . S
C6425 C6424 1.287 . S
C6425 C6426 1.524 . S
C6425 H6428 0.999 . S
C6426 H6396 0.950 . S
C6426 C6425 1.524 . S
C6426 C6427 1.415 . S
C6427 H6397 0.950 . S
C6427 C6422 1.363 . S
C6427 C6426 1.415 . S
H6428 C6425 0.999 . S
H6429 C6410 0.913 . S
H6430 C6448 0.951 . S
H6431 C6450 0.951 . S
H6432 C6452 0.950 . S
H6433 C6453 0.950 . S
H6434 C6455 0.950 . S
H6435 C6458 0.950 . S
H6436 C6459 0.950 . S
H6437 C6461 0.950 . S
H6438 C6462 0.950 . S
H6439 C6463 0.951 . S
H6440 C6465 0.951 . S
H6441 C6467 0.950 . S
H6442 C6468 0.950 . S
H6443 C6470 0.950 . S
H6444 C6473 0.950 . S
H6445 C6474 0.950 . S
H6446 C6476 0.950 . S
H6447 C6477 0.950 . S
C6448 H6430 0.951 . S
C6448 C6449 1.366 . S
C6448 C6450 1.388 . S
C6449 C6448 1.366 . S
C6449 C6453 1.385 . S
C6450 H6431 0.951 . S
C6450 C6448 1.388 . S
C6450 C6451 1.366 . S
C6451 C6450 1.366 . S
C6451 C6452 1.414 . S
C6451 C6454 1.499 . S
C6452 H6432 0.950 . S
C6452 C6451 1.414 . S
C6452 C6453 1.374 . S
C6453 H6433 0.950 . S
C6453 C6449 1.385 . S
C6453 C6452 1.374 . S
C6454 C6451 1.499 . S
C6454 C6455 1.373 . S
C6454 C6456 1.389 . S
C6455 H6434 0.950 . S
C6455 C6454 1.373 . S
C6455 C6471 1.377 . S
C6456 C6454 1.389 . S
C6456 C6457 1.524 . S
C6456 C6470 1.377 . S
C6457 C6456 1.524 . S
C6457 C6458 1.397 . S
C6457 C6462 1.363 . S
C6458 H6435 0.950 . S
C6458 C6457 1.397 . S
C6458 C6459 1.334 . S
C6459 H6436 0.950 . S
C6459 C6458 1.334 . S
C6459 C6460 1.287 . S
C6460 C6459 1.287 . S
C6460 C6461 1.524 . S
C6460 H6479 0.913 . S
C6461 H6437 0.950 . S
C6461 C6460 1.524 . S
C6461 C6462 1.415 . S
C6462 H6438 0.950 . S
C6462 C6457 1.363 . S
C6462 C6461 1.415 . S
C6463 H6439 0.951 . S
C6463 C6464 1.366 . S
C6463 C6465 1.388 . S
C6464 C6463 1.366 . S
C6464 C6468 1.385 . S
C6465 H6440 0.951 . S
C6465 C6463 1.388 . S
C6465 C6466 1.366 . S
C6466 C6465 1.366 . S
C6466 C6467 1.414 . S
C6466 C6469 1.499 . S
C6467 H6441 0.950 . S
C6467 C6466 1.414 . S
C6467 C6468 1.374 . S
C6468 H6442 0.950 . S
C6468 C6464 1.385 . S
C6468 C6467 1.374 . S
C6469 C6466 1.499 . S
C6469 C6470 1.373 . S
C6469 C6471 1.389 . S
C6470 H6443 0.950 . S
C6470 C6456 1.377 . S
C6470 C6469 1.373 . S
C6471 C6455 1.377 . S
C6471 C6469 1.389 . S
C6471 C6472 1.524 . S
C6472 C6471 1.524 . S
C6472 C6473 1.397 . S
C6472 C6477 1.363 . S
C6473 H6444 0.950 . S
C6473 C6472 1.397 . S
C6473 C6474 1.334 . S
C6474 H6445 0.950 . S
C6474 C6473 1.334 . S
C6474 C6475 1.287 . S
C6475 C6474 1.287 . S
C6475 C6476 1.524 . S
C6475 H6478 0.999 . S
C6476 H6446 0.950 . S
C6476 C6475 1.524 . S
C6476 C6477 1.415 . S
C6477 H6447 0.950 . S
C6477 C6472 1.363 . S
C6477 C6476 1.415 . S
H6478 C6475 0.999 . S
H6479 C6460 0.913 . S
C1699 C109 1.574 . S
C1714 C403 1.453 . S
C1749 C65 2.215 . S
C1764 C486 2.146 . S
C1799 C75 1.454 . S
C1814 C571 1.364 . S
C1864 C651 1.597 . S
C1849 C84 1.731 . S
C1899 C25 1.577 . S
C1914 C735 1.519 . S
C1964 C828 0.870 . S
C1949 C28 0.912 . S
C2014 C906 0.688 . S
C1999 C47 0.687 . S
C2049 C9 1.281 . S
C2064 C991 1.158 . S
C2114 C402 2.007 . S
C2099 C233 2.111 . S
C2149 C249 0.541 . S
C2164 C483 0.602 . S
C2214 C570 1.215 . S
C2199 C275 1.266 . S
C2264 C655 1.476 . S
C2249 C173 1.533 1_556 S
C2299 C224 2.067 . S
C2314 C739 1.939 . S
C2364 C831 1.061 . S
C2349 C243 1.138 . S
C2414 C903 0.735 . S
C2399 C266 0.729 . S
C2464 C990 1.278 . S
C2449 C179 1.375 . S
C2514 C399 1.469 . S
C2499 C163 1.576 . S
C2549 C289 2.013 . S
C2564 C1074 1.925 . S
C2614 C1148 2.099 . S
C2599 C333 2.263 . S
C2664 C1243 0.496 . S
C2649 C308 0.283 . S
C2699 C123 0.706 . S
C2714 C987 0.705 . S
C2749 C126 1.462 . S
C2764 C567 1.413 . S
C2799 C327 2.375 . S
C2814 C1326 2.282 . S
C2864 C1411 0.756 . S
C2849 C299 0.757 . S
C2914 C392 1.477 1_565 S
C2899 C67 1.604 . S
C2964 C1419 2.176 . S
C2949 C98 2.193 . S
C2999 C89 1.493 . S
C3014 C560 1.405 . S
C3049 C79 1.799 . S
C3064 C1332 1.644 . S
C3114 C744 1.527 . S
C3099 C11 1.598 . S
C3149 C51 0.956 . S
C3164 C1155 0.900 . S
C3214 C915 0.757 1_566 S
C3199 C33 0.759 . S
C3264 C1484 1.171 . S
C3249 C14 1.291 . S
C3314 C411 2.003 . S
C3299 C140 2.101 . S
C3364 C1416 0.616 . S
C3349 C319 0.556 . S
C3399 C112 1.258 . S
C3414 C579 1.229 . S
C3449 C285 1.610 . S
C3464 C1316 1.496 . S
C3499 C149 2.135 . S
C3514 C728 1.970 . S
C3564 C1158 1.104 . S
C3549 C313 1.182 . S
C3599 C121 0.798 . S
C3614 C912 0.782 . S
C3649 C291 1.427 . S
C3664 C1503 1.336 . S
C3699 C182 1.578 . S
C3714 C408 1.463 . S
C3749 C168 2.011 . S
C3764 C1083 1.952 . S
C3799 C263 2.321 . S
C3814 C823 2.161 . S
C3849 C247 0.326 . S
C3864 C1232 0.501 . S
C3914 C1500 0.690 . S
C3899 C277 0.681 1_565 S
C3949 C219 1.516 . S
C3964 C576 1.431 . S
C4014 C663 2.328 . S
C3999 C257 2.423 . S
C4064 C476 0.763 . S
C4049 C201 0.768 . S
C4099 C81 1.574 . S
C4114 C1579 1.454 . S
C4164 C1410 2.146 . S
C4149 C93 2.215 . S
C4199 C103 1.454 . S
C4214 C1663 1.365 . S
C4249 C56 1.730 . S
C4264 C1323 1.598 . S
C4299 C53 1.577 . S
C4314 C1071 1.519 . S
C4364 C1164 0.868 . S
C4349 C0 0.913 . S
C4414 C1242 0.688 . S
C4399 C19 0.688 . S
C4464 C1495 1.159 . S
C4449 C37 1.281 . S
C4514 C1578 2.007 . S
C4499 C261 2.111 . S
C4549 C193 0.542 . S
C4564 C1407 0.599 . S
C4614 C1662 1.216 . S
C4599 C205 1.265 . S
C4664 C1327 1.474 . S
C4649 C215 1.582 . S
C4714 C1075 1.938 . S
C4699 C252 2.066 . S
C4749 C187 1.139 . S
C4764 C1167 1.063 . S
C4814 C1239 0.734 . S
C4799 C196 0.730 . S
C4849 C221 1.375 . S
C4864 C1494 1.279 . S
C4914 C1575 1.468 . S
C4899 C317 1.576 . S
C4949 C135 2.013 . S
C4964 C738 1.929 . S
C5014 C812 2.100 . S
C4999 C151 2.270 . S
C5064 C907 0.493 . S
C5049 C154 0.280 . S
C5114 C1491 0.706 . S
C5099 C305 0.705 . S
C5149 C280 1.461 . S
C5164 C1659 1.410 . S
C5214 C654 2.281 . S
C5199 C145 2.368 . S
C5264 C487 0.755 . S
C5249 C117 0.757 . S
C5299 C95 1.604 . S
C5314 C1568 1.478 . S
C5364 C495 2.177 . S
C5349 C70 2.192 . S
C5399 C61 1.493 . S
C5414 C1652 1.403 . S
C5449 C107 1.799 . S
C5464 C660 1.645 . S
C5499 C39 1.598 . S
C5514 C1080 1.530 . S
C5564 C819 0.901 . S
C5549 C23 0.955 . S
C5599 C5 0.758 . S
C5614 C1251 0.759 . S
C5649 C42 1.290 . S
C5664 C980 1.171 . S
C5714 C1587 2.002 . S
C5699 C322 2.101 . S
C5749 C165 0.556 . S
C5764 C492 0.617 . S
C5814 C1671 1.228 . S
C5799 C294 1.258 . S
C5849 C131 1.612 . S
C5864 C644 1.505 . S
C5899 C331 2.135 . S
C5914 C1064 1.972 . S
C5964 C822 1.102 . S
C5949 C159 1.181 . S
C5999 C303 0.798 . S
C6014 C1248 0.784 . S
C6064 C999 1.331 . S
C6049 C137 1.426 . S
C6114 C1584 1.463 . S
C6099 C238 1.578 . S
C6164 C747 1.951 1_655 S
C6149 C210 2.012 . S
C6199 C235 2.321 . S
C6214 C1159 2.162 . S
C6264 C896 0.501 . S
C6249 C191 0.327 . S
C6299 C207 0.681 . S
C6314 C996 0.690 . S
C6349 C177 1.516 . S
C6364 C1668 1.430 . S
C6414 C1335 2.327 . S
C6399 C229 2.423 1_565 S
C6464 C1400 0.764 . S
C6449 C271 0.769 . S
