# Generated by pormake.
# Topology zzz, (3,6)-cn, num edge types: 1
# Building blocks:
#     Node 0, Type 0, BuildingBlock: WUSLED_clean_sbu_0, # of connection points: 3
#     Node 1, Type 0, BuildingBlock: WUSLED_clean_sbu_0, # of connection points: 3
#     Node 2, Type 0, BuildingBlock: WUSLED_clean_sbu_0, # of connection points: 3
#     Node 3, Type 0, BuildingBlock: WUSLED_clean_sbu_0, # of connection points: 3
#     Node 4, Type 0, BuildingBlock: WUSLED_clean_sbu_0, # of connection points: 3
#     Node 5, Type 0, BuildingBlock: WUSLED_clean_sbu_0, # of connection points: 3
#     Node 6, Type 0, BuildingBlock: WUSLED_clean_sbu_0, # of connection points: 3
#     Node 7, Type 0, BuildingBlock: WUSLED_clean_sbu_0, # of connection points: 3
#     Node 8, Type 1, BuildingBlock: BETDEL_clean_sbu_0, # of connection points: 6
#     Node 9, Type 1, BuildingBlock: BETDEL_clean_sbu_0, # of connection points: 6
#     Node 10, Type 1, BuildingBlock: BETDEL_clean_sbu_0, # of connection points: 6
#     Node 11, Type 1, BuildingBlock: BETDEL_clean_sbu_0, # of connection points: 6
#     Edge 12, Type (0, 1), BuildingBlock: AJUNOK_clean_linker_0, # of connection points: 2
#     Edge 13, Type (0, 1), BuildingBlock: AJUNOK_clean_linker_0, # of connection points: 2
#     Edge 14, Type (0, 1), BuildingBlock: AJUNOK_clean_linker_0, # of connection points: 2
#     Edge 15, Type (0, 1), BuildingBlock: AJUNOK_clean_linker_0, # of connection points: 2
#     Edge 16, Type (0, 1), BuildingBlock: AJUNOK_clean_linker_0, # of connection points: 2
#     Edge 17, Type (0, 1), BuildingBlock: AJUNOK_clean_linker_0, # of connection points: 2
#     Edge 18, Type (0, 1), BuildingBlock: AJUNOK_clean_linker_0, # of connection points: 2
#     Edge 19, Type (0, 1), BuildingBlock: AJUNOK_clean_linker_0, # of connection points: 2
#     Edge 20, Type (0, 1), BuildingBlock: AJUNOK_clean_linker_0, # of connection points: 2
#     Edge 21, Type (0, 1), BuildingBlock: AJUNOK_clean_linker_0, # of connection points: 2
#     Edge 22, Type (0, 1), BuildingBlock: AJUNOK_clean_linker_0, # of connection points: 2
#     Edge 23, Type (0, 1), BuildingBlock: AJUNOK_clean_linker_0, # of connection points: 2
#     Edge 24, Type (0, 1), BuildingBlock: AJUNOK_clean_linker_0, # of connection points: 2
#     Edge 25, Type (0, 1), BuildingBlock: AJUNOK_clean_linker_0, # of connection points: 2
#     Edge 26, Type (0, 1), BuildingBlock: AJUNOK_clean_linker_0, # of connection points: 2
#     Edge 27, Type (0, 1), BuildingBlock: AJUNOK_clean_linker_0, # of connection points: 2
#     Edge 28, Type (0, 1), BuildingBlock: AJUNOK_clean_linker_0, # of connection points: 2
#     Edge 29, Type (0, 1), BuildingBlock: AJUNOK_clean_linker_0, # of connection points: 2
#     Edge 30, Type (0, 1), BuildingBlock: AJUNOK_clean_linker_0, # of connection points: 2
#     Edge 31, Type (0, 1), BuildingBlock: AJUNOK_clean_linker_0, # of connection points: 2
#     Edge 32, Type (0, 1), BuildingBlock: AJUNOK_clean_linker_0, # of connection points: 2
#     Edge 33, Type (0, 1), BuildingBlock: AJUNOK_clean_linker_0, # of connection points: 2
#     Edge 34, Type (0, 1), BuildingBlock: AJUNOK_clean_linker_0, # of connection points: 2
#     Edge 35, Type (0, 1), BuildingBlock: AJUNOK_clean_linker_0, # of connection points: 2
# Relax obj value: 0.325
# Max RMSD: 0.220
# Mean RMSD: 0.205
data_MOF--net-zzz--node1-WUSLED_clean_sbu_0--node2-BETDEL_clean_sbu_0--edge1-AJUNOK_clean_linker_0
_symmetry_space_group_name_H-M    P1
_symmetry_Int_Tables_number       1
_symmetry_cell_setting            triclinic
loop_
_symmetry_equiv_pos_as_xyz
'x, y, z'
_cell_length_a     48.18089
_cell_length_b     47.858396
_cell_length_c     16.662235
_cell_angle_alpha  90.762102
_cell_angle_beta   89.404636
_cell_angle_gamma 94.541704
loop_
_atom_site_label
_atom_site_type_symbol
_atom_site_fract_x
_atom_site_fract_y
_atom_site_fract_z
_atom_type_partial_charge
C0 C 0.80562 0.51306 0.26083 0.0
C1 C 0.82975 0.51609 0.21272 0.0
C2 C 0.85887 0.51453 0.33133 0.0
C3 C 0.85613 0.51644 0.24753 0.0
C4 C 0.83457 0.51159 0.37904 0.0
C5 C 0.80827 0.51075 0.34409 0.0
U6 U 0.75019 0.49627 0.09683 0.0
O7 O 0.70563 0.48241 0.11026 0.0
O8 O 0.71826 0.52383 0.06135 0.0
C9 C 0.69761 0.5049 0.07555 0.0
C10 C 0.77749 0.51315 0.2267 0.0
C11 C 0.67791 0.50001 1.00905 0.0
C12 C 0.63208 0.50482 0.95395 0.0
C13 C 0.65037 0.507 0.01881 0.0
C14 C 0.66856 0.48805 0.86916 0.0
C15 C 0.64104 0.49555 0.87824 0.0
C16 C 0.68684 0.49022 0.93409 0.0
C17 C 0.8056 0.46443 0.96492 0.0
C18 C 0.84034 0.45304 0.86619 0.0
C19 C 0.8543 0.46582 1.00204 0.0
C20 C 0.82642 0.46844 0.02309 0.0
C21 C 0.86151 0.45855 0.92296 0.0
C22 C 0.81261 0.45606 0.88701 0.0
C23 C 0.77704 0.47149 0.9817 0.0
O24 O 0.77494 0.5291 0.16398 0.0
O25 O 0.76316 0.48867 0.22068 0.0
O26 O 0.76372 0.45773 0.04006 0.0
O27 O 0.7737 0.49848 0.9833 0.0
H28 H 0.82825 0.51835 0.1484 0.0
H29 H 0.87432 0.51803 0.20868 0.0
H30 H 0.83587 0.51029 0.44372 0.0
H31 H 0.78992 0.50863 0.38237 0.0
H32 H 0.61097 0.51065 0.96274 0.0
H33 H 0.64317 0.51471 0.07619 0.0
H34 H 0.67623 0.48137 0.81126 0.0
H35 H 0.70813 0.48496 0.92535 0.0
H36 H 0.84539 0.44793 0.80448 0.0
H37 H 0.87028 0.47024 0.04673 0.0
H38 H 0.82116 0.47447 0.08379 0.0
H39 H 0.79677 0.45298 0.84135 0.0
C40 C 0.97141 0.79519 0.27753 0.0
C41 C 0.99109 0.81527 0.245 0.0
C42 C 0.97754 0.85004 0.34317 0.0
C43 C 0.99414 0.84246 0.27764 0.0
C44 C 0.95705 0.83018 0.37304 0.0
C45 C 0.95414 0.80299 0.34079 0.0
U46 U 0.97958 0.74013 0.11238 0.0
O47 O 0.99536 0.69835 0.12004 0.0
O48 O 0.95238 0.70235 0.08265 0.0
C49 C 0.9725 0.68559 0.09031 0.0
C50 C 0.9691 0.76592 0.24804 0.0
C51 C 0.97662 0.66687 0.02117 0.0
C52 C 0.97255 0.62022 0.96081 0.0
C53 C 0.96863 0.63814 0.02639 0.0
C54 C 0.99253 0.65964 0.8841 0.0
C55 C 0.98444 0.63079 0.8888 0.0
C56 C 0.98856 0.67753 0.9496 0.0
C57 C 1.00342 0.80248 0.97923 0.0
C58 C 0.98992 0.8452 0.9183 0.0
C59 C 0.03481 0.84496 0.98224 0.0
C60 C 0.02882 0.8168 1.00208 0.0
C61 C 0.01547 0.85932 0.93968 0.0
C62 C 0.984 0.81708 0.93762 0.0
C63 C 0.99766 0.77209 0.99335 0.0
O64 O 0.95005 0.75974 0.19335 0.0
O65 O 0.99279 0.75498 0.23236 0.0
O66 O 0.01438 0.76031 0.04233 0.0
O67 O 0.97132 0.76329 1.00348 0.0
H68 H 1.00445 0.80977 0.19549 0.0
H69 H 1.01005 0.85731 0.25315 0.0
H70 H 0.94341 0.83559 0.42193 0.0
H71 H 0.93861 0.7879 0.36605 0.0
H72 H 0.96613 0.59811 0.96619 0.0
H73 H 0.95938 0.62956 0.08121 0.0
H74 H 1.00234 0.66832 0.83021 0.0
H75 H 0.99496 0.69966 0.94462 0.0
H76 H 0.97496 0.85557 0.88356 0.0
H77 H 0.05476 0.85538 0.99871 0.0
H78 H 0.04436 0.80613 0.03358 0.0
H79 H 0.96446 0.80656 0.91802 0.0
C80 C 0.72415 1.0055 0.24984 0.0
C81 C 0.70418 0.02284 0.22215 0.0
C82 C 0.67133 1.0054 0.32665 0.0
C83 C 0.67795 0.02277 0.26024 0.0
C84 C 0.69157 0.98826 0.35393 0.0
C85 C 0.71761 0.98834 0.31603 0.0
U86 U 0.78248 0.01986 0.0855 0.0
O87 O 0.81131 0.98896 0.04594 0.0
O88 O 0.82777 0.02808 0.10364 0.0
C89 C 0.8336 1.0054 0.06356 0.0
C90 C 0.75189 1.0043 0.21167 0.0
C91 C 0.85424 1.00954 0.9976 0.0
C92 C 0.902 1.0092 0.94822 0.0
C93 C 0.88246 1.00612 1.01116 0.0
C94 C 0.86529 0.01907 0.85717 0.0
C95 C 0.89368 0.01582 0.87042 0.0
C96 C 0.84584 0.01615 0.92013 0.0
C97 C 0.73721 0.06177 0.94449 0.0
C98 C 0.71656 0.08953 0.84364 0.0
C99 C 0.687 0.05977 0.93127 0.0
C100 C 0.71056 0.05159 0.97036 0.0
C101 C 0.68994 0.07803 0.86571 0.0
C102 C 0.74002 0.08153 0.88303 0.0
C103 C 0.76233 0.0494 0.97143 0.0
O104 O 0.75308 0.9891 0.14562 0.0
O105 O 0.76817 0.02768 0.20939 0.0
O106 O 0.7751 0.06091 0.03441 0.0
O107 O 0.76126 0.02187 0.97037 0.0
H108 H 0.70877 0.03621 0.17102 0.0
H109 H 0.66269 0.03587 0.23678 0.0
H110 H 0.68729 0.97477 0.40502 0.0
H111 H 0.73272 0.97483 0.33848 0.0
H112 H 0.92366 1.00658 0.96053 0.0
H113 H 0.88938 1.00094 0.07041 0.0
H114 H 0.85799 0.02343 0.79774 0.0
H115 H 0.82414 0.01873 0.90811 0.0
H116 H 0.71929 0.10352 0.79306 0.0
H117 H 0.66669 0.05027 0.94843 0.0
H118 H 0.70805 0.03613 0.01731 0.0
H119 H 0.76048 0.08948 0.86217 0.0
C120 C 0.57911 0.73015 0.28883 0.0
C121 C 0.55727 0.71162 0.26023 0.0
C122 C 0.57285 0.67437 0.34267 0.0
C123 C 0.55417 0.68396 0.28692 0.0
C124 C 0.59491 0.69289 0.37026 0.0
C125 C 0.59804 0.72053 0.34334 0.0
U126 U 0.56823 0.78738 0.13768 0.0
O127 O 0.55459 0.82974 0.15834 0.0
O128 O 0.5959 0.82444 0.10635 0.0
C129 C 0.57684 0.84188 0.12314 0.0
C130 C 0.58198 0.75966 0.26414 0.0
C131 C 0.57127 0.86119 0.05845 0.0
C132 C 0.56858 0.90864 1.01122 0.0
C133 C 0.57369 0.89017 0.07276 0.0
C134 C 0.55834 0.86924 0.92055 0.0
C135 C 0.56113 0.89837 0.93423 0.0
C136 C 0.56337 0.85079 0.98217 0.0
C137 C 0.53671 0.72868 1.00014 0.0
C138 C 0.51073 0.69427 0.91644 0.0
C139 C 0.54347 0.67918 1.01329 0.0
C140 C 0.54975 0.70708 0.03718 0.0
C141 C 0.52414 0.67254 0.95188 0.0
C142 C 0.51689 0.72207 0.94069 0.0
C143 C 0.54454 0.75826 0.01909 0.0
O144 O 0.59923 0.76548 0.20392 0.0
O145 O 0.55859 0.77192 0.25906 0.0
O146 O 0.53032 0.76939 0.07739 0.0
O147 O 0.57143 0.76534 0.02209 0.0
H148 H 0.54231 0.71868 0.21847 0.0
H149 H 0.53664 0.67035 0.26588 0.0
H150 H 0.60959 0.68604 0.4132 0.0
H151 H 0.61503 0.73453 0.36602 0.0
H152 H 0.57024 0.93096 0.02403 0.0
H153 H 0.57951 0.89852 0.13151 0.0
H154 H 0.55263 0.86075 0.8619 0.0
H155 H 0.56124 0.82841 0.97025 0.0
H156 H 0.49637 0.68996 0.86743 0.0
H157 H 0.55418 0.66288 0.04141 0.0
H158 H 0.5653 0.71187 0.08282 0.0
H159 H 0.5068 0.73852 0.91111 0.0
C160 C 0.22689 0.50145 0.89075 0.0
C161 C 0.20419 0.48254 0.91189 0.0
C162 C 0.17452 0.50397 0.81655 0.0
C163 C 0.17828 0.48387 0.87539 0.0
C164 C 0.19691 0.52349 0.7976 0.0
C165 C 0.22282 0.52211 0.8338 0.0
U166 U 0.28408 0.51063 0.05253 0.0
O167 O 0.31416 0.4805 0.0849 0.0
O168 O 0.32908 0.52175 0.03867 0.0
C169 C 0.33576 0.4984 0.07163 0.0
C170 C 0.25525 0.49836 0.922 0.0
C171 C 0.35581 0.50172 0.13773 0.0
C172 C 0.3995 0.49055 0.19613 0.0
C173 C 0.38037 0.48792 0.1334 0.0
C174 C 0.36955 0.52064 0.26887 0.0
C175 C 0.39444 0.50718 0.26419 0.0
C176 C 0.35038 0.51794 0.20609 0.0
C177 C 0.23017 0.54321 0.18448 0.0
C178 C 0.19496 0.55644 0.27923 0.0
C179 C 0.1821 0.54362 0.14251 0.0
C180 C 0.20991 0.53945 0.12454 0.0
C181 C 0.17427 0.55134 0.22077 0.0
C182 C 0.22269 0.55236 0.26118 0.0
C183 C 0.25848 0.53507 0.1704 0.0
O184 O 0.27164 0.52151 0.93076 0.0
O185 O 0.25735 0.48064 0.98091 0.0
O186 O 0.26047 0.50788 0.16574 0.0
O187 O 0.27308 0.54911 0.11495 0.0
H188 H 0.20655 0.46622 0.95513 0.0
H189 H 0.16142 0.46856 0.89129 0.0
H190 H 0.19449 0.53966 0.75392 0.0
H191 H 0.23986 0.53691 0.81587 0.0
H192 H 0.41819 0.47944 0.19161 0.0
H193 H 0.38473 0.47503 0.08153 0.0
H194 H 0.36512 0.53359 0.32052 0.0
H195 H 0.33136 0.52855 0.21075 0.0
H196 H 0.1895 0.56215 0.34019 0.0
H197 H 0.16663 0.53993 0.09608 0.0
H198 H 0.21544 0.53233 0.06489 0.0
H199 H 0.23811 0.55522 0.30809 0.0
C200 C 0.05385 0.23069 0.84544 0.0
C201 C 0.06326 0.20864 0.89013 0.0
C202 C 0.05084 0.17557 0.78122 0.0
C203 C 0.06177 0.1813 0.85824 0.0
C204 C 0.04069 0.19761 0.73799 0.0
C205 C 0.04234 0.22488 0.76961 0.0
U206 U 0.05244 0.28474 0.01682 0.0
O207 O 0.07856 0.32412 0.03605 0.0
O208 O 0.03356 0.32509 0.01959 0.0
C209 C 0.057 0.33931 0.03941 0.0
C210 C 0.05577 0.25983 0.87617 0.0
C211 C 0.05535 0.35744 0.11113 0.0
C212 C 0.06001 0.40379 0.1733 0.0
C213 C 0.0625 0.38632 0.10591 0.0
C214 C 0.04349 0.36355 0.25212 0.0
C215 C 0.05039 0.39261 0.24715 0.0
C216 C 0.04607 0.34612 0.18483 0.0
C217 C 0.04063 0.22194 0.15583 0.0
C218 C 0.04721 0.18352 0.24492 0.0
C219 C 0.02514 0.17418 0.11614 0.0
C220 C 0.02832 0.20286 0.09923 0.0
C221 C 0.03451 0.16435 0.18934 0.0
C222 C 0.05017 0.21205 0.22834 0.0
C223 C 0.04391 0.2522 0.1412 0.0
O224 O 0.03252 0.26869 0.9052 0.0
O225 O 0.07767 0.26764 0.91993 0.0
O226 O 0.06886 0.26194 0.11735 0.0
O227 O 0.02365 0.26274 0.10221 0.0
H228 H 0.07192 0.21257 0.94933 0.0
H229 H 0.06957 0.16475 0.89325 0.0
H230 H 0.0313 0.19377 0.67971 0.0
H231 H 0.03463 0.24151 0.73463 0.0
H232 H 0.06548 0.42606 0.16759 0.0
H233 H 0.06973 0.39542 0.04951 0.0
H234 H 0.03537 0.35436 0.30744 0.0
H235 H 0.04037 0.32384 0.18992 0.0
H236 H 0.05438 0.17645 0.30207 0.0
H237 H 0.01547 0.15972 0.07223 0.0
H238 H 0.02108 0.21012 0.04241 0.0
H239 H 0.05978 0.22647 0.27251 0.0
C240 C 0.33095 0.02571 0.90888 0.0
C241 C 0.34983 0.04965 0.90906 0.0
C242 C 0.38498 0.02408 0.83955 0.0
C243 C 0.37641 0.04885 0.875 0.0
C244 C 0.36609 1.00009 0.83862 0.0
C245 C 0.33936 1.00087 0.87303 0.0
U246 U 0.26893 0.01297 0.06077 0.0
O247 O 0.24127 0.04493 0.10052 0.0
O248 O 0.22365 1.00678 0.03986 0.0
C249 C 0.21851 0.02944 0.08137 0.0
C250 C 0.30206 0.02819 0.93951 0.0
C251 C 0.1966 0.02654 0.14525 0.0
C252 C 0.15794 0.99987 0.21223 0.0
C253 C 0.17865 1.00201 0.15232 0.0
C254 C 0.17252 0.0467 0.25932 0.0
C255 C 0.15459 0.02223 0.26628 0.0
C256 C 0.19311 0.04891 0.19926 0.0
C257 C 0.31467 0.97051 0.19285 0.0
C258 C 0.33915 0.94021 0.27829 0.0
C259 C 0.36508 0.97549 0.19833 0.0
C260 C 0.34023 0.98339 0.16639 0.0
C261 C 0.36473 0.95436 0.2564 0.0
C262 C 0.3143 0.94829 0.24683 0.0
C263 C 0.28839 0.98217 0.17294 0.0
O264 O 0.28446 1.0057 0.93765 0.0
O265 O 0.29955 0.04349 1.00494 0.0
O266 O 0.28887 1.00964 0.17729 0.0
O267 O 0.27514 0.97134 0.10988 0.0
H268 H 0.34385 0.06929 0.93434 0.0
H269 H 0.39014 0.06791 0.87498 0.0
H270 H 0.37203 0.98073 0.81153 0.0
H271 H 0.32523 0.98212 0.87062 0.0
H272 H 0.14473 0.98056 0.21682 0.0
H273 H 0.18056 0.98439 0.11172 0.0
H274 H 0.17036 0.06433 0.29974 0.0
H275 H 0.20632 0.06824 0.19504 0.0
H276 H 0.3383 0.92382 0.32267 0.0
H277 H 0.38435 0.98724 0.18149 0.0
H278 H 0.34089 1.00061 0.12467 0.0
H279 H 0.2947 0.93813 0.26775 0.0
C280 C 0.47928 0.29993 0.83048 0.0
C281 C 0.50344 0.31759 0.84578 0.0
C282 C 0.48325 0.35633 0.78061 0.0
C283 C 0.50538 0.34547 0.8211 0.0
C284 C 0.45905 0.3387 0.76567 0.0
C285 C 0.45708 0.31079 0.79053 0.0
U286 U 0.48451 0.24368 0.98818 0.0
O287 O 0.50298 0.20326 0.97793 0.0
O288 O 0.4587 0.20429 1.00913 0.0
C289 C 0.48028 0.18912 1.00452 0.0
C290 C 0.47715 0.27015 0.85425 0.0
C291 C 0.48375 0.17022 0.07288 0.0
C292 C 0.46372 0.1352 0.16601 0.0
C293 C 0.46088 0.15297 0.10107 0.0
C294 C 0.51247 0.15139 0.17545 0.0
C295 C 0.48963 0.13402 0.20346 0.0
C296 C 0.50959 0.1693 0.11099 0.0
C297 C 0.50011 0.30531 0.13348 0.0
C298 C 0.49336 0.3429 0.22864 0.0
C299 C 0.51447 0.35357 0.09877 0.0
C300 C 0.51179 0.325 0.07836 0.0
C301 C 0.50536 0.36269 0.17434 0.0
C302 C 0.49081 0.31449 0.20839 0.0
C303 C 0.49688 0.27517 0.11454 0.0
O304 O 0.50066 0.25966 0.87257 0.0
O305 O 0.45655 0.26241 0.90355 0.0
O306 O 0.51586 0.26528 0.06703 0.0
O307 O 0.47138 0.26527 0.0977 0.0
H308 H 0.52105 0.30981 0.87572 0.0
H309 H 0.52457 0.35831 0.83171 0.0
H310 H 0.4417 0.3465 0.73439 0.0
H311 H 0.43829 0.29757 0.77787 0.0
H312 H 0.44557 0.12252 0.18723 0.0
H313 H 0.44072 0.15332 0.07305 0.0
H314 H 0.53273 0.15083 0.2027 0.0
H315 H 0.52768 0.18234 0.09108 0.0
H316 H 0.48644 0.34938 0.28761 0.0
H317 H 0.52359 0.36847 0.05572 0.0
H318 H 0.51895 0.31831 0.02 0.0
H319 H 0.48166 0.29962 0.25153 0.0
Dy320 Dy 0.033 0.99671 0.63821 0.0
C321 C 0.01923 0.05953 0.34966 0.0
C322 C 0.03582 0.96193 0.76559 0.0
Dy323 Dy 1.01168 0.02777 0.48318 0.0
O324 O 0.05215 0.96229 0.703 0.0
O325 O 0.01849 0.98124 0.75947 0.0
O326 O 0.07705 1.00975 0.59856 0.0
O327 O 0.04552 1.00231 0.51335 0.0
C328 C 0.07079 1.01055 0.52268 0.0
C329 C 0.973 0.02448 0.60218 0.0
O330 O 1.00304 0.98316 0.44261 0.0
O331 O 1.00971 0.96225 0.56646 0.0
O332 O 0.0382 0.05551 0.40214 0.0
O333 O 0.99582 0.04556 0.36929 0.0
O334 O 0.96898 0.03648 0.5339 0.0
O335 O 0.99679 0.01556 0.59922 0.0
O336 O 0.03593 0.04086 0.68461 0.0
O337 O 0.03219 0.06231 0.56036 0.0
C338 C 1.00201 0.96085 0.48982 0.0
C339 C 0.03727 0.06341 0.63868 0.0
Dy340 Dy 0.50696 0.99276 0.52305 0.0
C341 C 0.59351 0.0662 0.66684 0.0
C342 C 0.46456 0.9638 0.44303 0.0
Dy343 Dy 0.54531 0.03975 0.61238 0.0
O344 O 0.48857 0.97211 0.4121 0.0
O345 O 0.46399 0.97072 0.51874 0.0
O346 O 0.54569 0.97318 0.4822 0.0
O347 O 0.54655 0.01677 0.49846 0.0
C348 C 0.5612 0.99674 0.48124 0.0
C349 C 0.4948 0.03317 0.68531 0.0
O350 O 0.53167 0.06497 0.50993 0.0
O351 O 0.49601 0.03269 0.46588 0.0
O352 O 0.56923 0.07623 0.67347 0.0
O353 O 0.59138 0.0423 0.62872 0.0
O354 O 0.51464 0.05135 0.70887 0.0
O355 O 0.50357 0.02057 0.62441 0.0
O356 O 0.51645 0.96915 0.63258 0.0
O357 O 0.55366 0.9998 0.67404 0.0
C358 C 0.51018 0.05763 0.46258 0.0
C359 C 0.53813 0.97571 0.67959 0.0
Dy360 Dy 0.51308 0.5337 0.63819 0.0
C361 C 0.52188 0.46629 0.34787 0.0
C362 C 0.51314 0.56971 0.76667 0.0
Dy363 Dy 0.53091 0.49802 0.48281 0.0
O364 O 0.49151 0.56205 0.72336 0.0
O365 O 0.5345 0.55738 0.74019 0.0
O366 O 0.46832 0.52502 0.59927 0.0
O367 O 0.5006 0.52771 0.51401 0.0
C368 C 0.47483 0.52242 0.52358 0.0
C369 C 0.56854 0.49766 0.6014 0.0
O370 O 0.54406 0.54145 0.4412 0.0
O371 O 0.53609 0.56632 0.56053 0.0
O372 O 0.5458 0.47923 0.36706 0.0
O373 O 0.50316 0.47116 0.40192 0.0
O374 O 0.57138 0.48424 0.53356 0.0
O375 O 0.5465 0.50987 0.59808 0.0
O376 O 0.50815 0.49025 0.68625 0.0
O377 O 0.50655 0.46692 0.5621 0.0
C378 C 0.5452 0.56505 0.48477 0.0
C379 C 0.50351 0.46717 0.64161 0.0
Dy380 Dy 1.00262 0.49349 0.6387 0.0
C381 C 0.06763 0.54127 0.37855 0.0
C382 C 0.96683 0.4771 0.76043 0.0
Dy383 Dy 0.03211 0.52748 0.50288 0.0
O384 O 0.9769 0.4604 0.70745 0.0
O385 O 0.97683 0.50267 0.74763 0.0
O386 O 0.0227 0.45513 0.59505 0.0
O387 O 1.01215 0.48551 0.51334 0.0
C388 C 0.02411 0.46322 0.52071 0.0
C389 C 1.01053 0.55804 0.6198 0.0
O390 O 0.9899 0.5233 0.44873 0.0
O391 O 0.96685 0.50574 0.56314 0.0
O392 O 0.06111 0.55838 0.43575 0.0
O393 O 0.05424 0.51699 0.38889 0.0
O394 O 1.01249 0.56609 0.54539 0.0
O395 O 0.02238 0.53569 0.62814 0.0
O396 O 0.04468 0.49933 0.69413 0.0
O397 O 0.0676 0.5138 0.57674 0.0
C398 C 0.96672 0.51555 0.4888 0.0
C399 C 0.06793 0.5055 0.65253 0.0
C400 C 0.13943 0.02668 0.41068 0.0
C401 C 0.13263 0.02002 0.33027 0.0
C402 C 0.11926 0.02392 0.47232 0.0
C403 C 0.09143 0.01462 0.45594 0.0
H404 H 0.16068 0.03356 0.42636 0.0
H405 H 0.12561 0.02889 0.53334 0.0
S406 S 0.06244 0.99615 0.25463 0.0
N407 N 0.09574 1.00506 0.23721 0.0
N408 N 0.05801 0.9995 0.35255 0.0
C409 C 0.08424 1.00842 0.37552 0.0
C410 C 0.10478 1.01118 0.3129 0.0
C411 C 0.50783 0.12395 0.34 0.0
C412 C 0.49313 0.11453 0.27089 0.0
C413 C 0.51269 0.10563 0.40251 0.0
C414 C 0.50291 0.07714 0.39868 0.0
H415 H 0.51578 0.1457 0.3457 0.0
H416 H 0.52439 0.11386 0.45392 0.0
S417 S 0.46403 0.0417 0.22905 0.0
N418 N 0.46948 0.07467 0.20127 0.0
N419 N 0.47802 0.04033 0.31875 0.0
C420 C 0.48784 0.06752 0.33014 0.0
C421 C 0.48309 0.08616 0.26634 0.0
C422 C 0.40701 0.50723 0.41038 0.0
C423 C 0.41528 0.51081 0.32959 0.0
C424 C 0.42641 0.51074 0.47285 0.0
C425 C 0.45476 0.51808 0.45682 0.0
H426 H 0.3854 0.50143 0.42539 0.0
H427 H 0.41914 0.50771 0.53407 0.0
S428 S 0.48675 0.53166 0.25582 0.0
N429 N 0.45353 0.52321 0.23736 0.0
N430 N 0.48987 0.52991 0.35411 0.0
C431 C 0.46321 0.522 0.3763 0.0
C432 C 0.44352 0.51832 0.31288 0.0
C433 C 0.03177 0.43571 0.30756 0.0
C434 C 0.04595 0.41139 0.31742 0.0
C435 C 0.02537 0.45264 0.37347 0.0
C436 C 0.03287 0.44595 0.4519 0.0
H437 H 0.02478 0.44127 0.24873 0.0
H438 H 0.01379 0.47074 0.36293 0.0
S439 S 0.07305 0.38646 0.50923 0.0
N440 N 0.06941 0.38287 0.41109 0.0
N441 N 0.05706 0.41455 0.53505 0.0
C442 C 0.0479 0.4223 0.46241 0.0
C443 C 0.0545 0.40506 0.39521 0.0
C444 C 0.93422 0.999 0.79123 0.0
C445 C 0.91443 0.01889 0.80305 0.0
C446 C 0.9533 1.00101 0.72663 0.0
C447 C 0.95333 0.02296 0.67139 0.0
H448 H 0.93457 0.98135 0.83116 0.0
H449 H 0.96753 0.9848 0.71854 0.0
S450 S 0.9075 0.08168 0.67838 0.0
N451 N 0.89743 0.06228 0.7562 0.0
N452 N 0.9328 0.06563 0.63443 0.0
C453 C 0.93399 0.04316 0.68295 0.0
C454 C 0.9147 0.04126 0.74886 0.0
C455 C 0.53198 0.91372 0.82148 0.0
C456 C 0.55611 0.91795 0.86832 0.0
C457 C 0.52654 0.93222 0.75998 0.0
C458 C 0.54506 0.95569 0.74265 0.0
H459 H 0.51689 0.89623 0.83341 0.0
H460 H 0.50743 0.92825 0.72668 0.0
S461 S 0.61247 0.97475 0.84427 0.0
N462 N 0.5995 0.94628 0.8905 0.0
N463 N 0.58942 0.98119 0.77571 0.0
C464 C 0.56963 0.95978 0.78822 0.0
C465 C 0.5751 0.94092 0.85082 0.0
C466 C 0.60761 0.51888 0.79188 0.0
C467 C 0.62213 0.4952 0.80812 0.0
C468 C 0.59032 0.51951 0.7248 0.0
C469 C 0.58678 0.49651 0.67178 0.0
H470 H 0.61011 0.53732 0.83033 0.0
H471 H 0.58037 0.53846 0.71302 0.0
S472 S 0.6188 0.42894 0.68921 0.0
N473 N 0.63091 0.44775 0.76691 0.0
N474 N 0.59853 0.44912 0.64064 0.0
C475 C 0.601 0.47267 0.6873 0.0
C476 C 0.6186 0.47196 0.75561 0.0
C477 C 1.00215 0.58669 0.83165 0.0
C478 C 0.98924 0.61167 0.81965 0.0
C479 C 1.00837 0.56914 0.76687 0.0
C480 C 1.00194 0.57588 0.68759 0.0
H481 H 1.00818 0.58104 0.89135 0.0
H482 H 0.0189 0.55047 0.77897 0.0
S483 S 0.96533 0.6372 0.62474 0.0
N484 N 0.96818 0.641 0.72303 0.0
N485 N 0.98015 0.60819 0.60132 0.0
C486 C 0.9882 0.60026 0.67499 0.0
C487 C 0.98181 0.61812 0.74095 0.0
C488 C 0.05341 0.12092 0.23865 0.0
C489 C 0.03057 0.1344 0.21084 0.0
C490 C 0.0496 0.09511 0.27714 0.0
C491 C 0.02279 0.08195 0.28968 0.0
H492 H 0.07424 0.13119 0.23469 0.0
H493 H 0.06768 0.08634 0.30184 0.0
S494 S 0.95651 0.10683 0.21838 0.0
N495 N 0.98055 0.13141 0.19047 0.0
N496 N 0.97332 0.08268 0.26307 0.0
C497 C 0.99999 0.09396 0.2559 0.0
C498 C 1.0039 0.12032 0.21641 0.0
C499 C 0.38905 0.95119 0.38701 0.0
C500 C 0.39024 0.95033 0.30254 0.0
C501 C 0.41336 0.95334 0.43266 0.0
C502 C 0.43971 0.95478 0.39548 0.0
H503 H 0.36928 0.95211 0.4181 0.0
H504 H 0.41144 0.95566 0.49721 0.0
S505 S 0.45407 0.9484 0.17703 0.0
N506 N 0.41979 0.94719 0.18416 0.0
N507 N 0.46561 0.95162 0.26995 0.0
C508 C 0.4412 0.95165 0.31152 0.0
C509 C 0.41641 0.9494 0.26502 0.0
C510 C 0.48659 0.40523 0.23489 0.0
C511 C 0.50913 0.39249 0.19982 0.0
C512 C 0.49068 0.4307 0.27683 0.0
C513 C 0.51749 0.44421 0.28565 0.0
H514 H 0.46587 0.39463 0.23378 0.0
H515 H 0.47293 0.43887 0.30689 0.0
S516 S 0.58271 0.42171 0.19423 0.0
N517 N 0.55863 0.39685 0.16814 0.0
N518 N 0.56635 0.44494 0.24703 0.0
C519 C 0.5398 0.43307 0.24454 0.0
C520 C 0.53561 0.40708 0.20156 0.0
C521 C 0.13555 0.57315 0.29336 0.0
C522 C 0.14457 0.5512 0.24515 0.0
C523 C 0.10943 0.57075 0.33154 0.0
C524 C 0.09154 0.54626 0.3231 0.0
H525 H 0.14935 0.59173 0.30483 0.0
H526 H 0.10401 0.58749 0.37173 0.0
S527 S 0.10399 0.48405 0.19645 0.0
N528 N 0.13256 0.50515 0.18584 0.0
N529 N 0.08334 0.50084 0.25659 0.0
C530 C 0.09939 0.52507 0.27023 0.0
C531 C 0.12597 0.52749 0.23143 0.0
C532 C 0.04719 0.89304 0.86258 0.0
C533 C 0.02292 0.88791 0.90937 0.0
C534 C 0.05216 0.91805 0.82026 0.0
C535 C 0.03314 0.93886 0.82373 0.0
H536 H 0.06159 0.87692 0.85464 0.0
H537 H 0.07033 0.92045 0.78138 0.0
S538 S 0.9685 0.93722 0.94721 0.0
N539 N 0.98122 0.90679 0.96386 0.0
N540 N 0.99059 0.95395 0.88457 0.0
C541 C 1.00984 0.93487 0.87506 0.0
C542 C 1.00469 0.9093 0.91771 0.0
C543 C 0.66809 0.07198 0.7317 0.0
C544 C 0.66612 0.08098 0.81212 0.0
C545 C 0.64461 0.06927 0.68274 0.0
C546 C 0.61852 0.07601 0.712 0.0
H547 H 0.68753 0.06523 0.70799 0.0
H548 H 0.64661 0.06051 0.62281 0.0
S549 S 0.60301 0.10339 0.91541 0.0
N550 N 0.6366 0.09862 0.9171 0.0
N551 N 0.59239 0.0942 0.82414 0.0
C552 C 0.61664 0.08698 0.79037 0.0
C553 C 0.64048 0.08921 0.84085 0.0
C554 C 0.5437 0.62939 0.89661 0.0
C555 C 0.52023 0.64366 0.91808 0.0
C556 C 0.54099 0.60441 0.85165 0.0
C557 C 0.51475 0.59289 0.82618 0.0
H558 H 0.56445 0.63839 0.91061 0.0
H559 H 0.55975 0.59492 0.83318 0.0
S560 S 0.44654 0.61944 0.87853 0.0
N561 N 0.46968 0.6424 0.91992 0.0
N562 N 0.46463 0.59567 0.83388 0.0
C563 C 0.49099 0.60582 0.852 0.0
C564 C 0.49373 0.63118 0.89826 0.0
C565 C 0.90747 0.48561 0.90599 0.0
C566 C 0.89096 0.46026 0.89602 0.0
C567 C 0.93309 0.4902 0.86589 0.0
C568 C 0.94315 0.46953 0.815 0.0
H569 H 0.8997 0.5027 0.94065 0.0
H570 H 0.94435 0.51064 0.87149 0.0
S571 S 0.90978 0.39795 0.7794 0.0
N572 N 0.88782 0.41311 0.83946 0.0
N573 N 0.93617 0.42156 0.76453 0.0
C574 C 0.92792 0.44327 0.80985 0.0
C575 C 0.90171 0.4387 0.85017 0.0
C576 C 0.03942 0.12345 0.79134 0.0
C577 C 0.04971 0.1467 0.74591 0.0
C578 C 0.03639 0.09636 0.75719 0.0
C579 C 0.04342 0.09153 0.67622 0.0
H580 H 0.03282 0.12632 0.85304 0.0
H581 H 0.02753 0.07929 0.79378 0.0
S582 S 0.07475 0.14467 0.53454 0.0
N583 N 0.06961 0.16253 0.6181 0.0
N584 N 0.06347 0.11195 0.55366 0.0
C585 C 0.0548 0.11442 0.63117 0.0
C586 C 0.05804 0.14189 0.66602 0.0
C587 C 0.41731 0.01373 0.72397 0.0
C588 C 0.41345 0.02379 0.80299 0.0
C589 C 0.44378 0.01598 0.68638 0.0
C590 C 0.46729 0.0284 0.72648 0.0
H591 H 0.39959 1.00495 0.68995 0.0
H592 H 0.44563 1.00886 0.6248 0.0
S593 S 0.46906 0.05448 0.93753 0.0
N594 N 0.43606 0.04394 0.92238 0.0
N595 N 0.48534 0.04855 0.85206 0.0
C596 C 0.46386 0.0374 0.80654 0.0
C597 C 0.4371 0.03499 0.8447 0.0
C598 C 0.48025 0.39013 0.66842 0.0
C599 C 0.48619 0.38537 0.74928 0.0
C600 C 0.48515 0.4168 0.63506 0.0
C601 C 0.49604 0.43992 0.68129 0.0
H602 H 0.47261 0.37289 0.62973 0.0
H603 H 0.48079 0.41914 0.57198 0.0
S604 S 0.51325 0.43883 0.89809 0.0
N605 N 0.50198 0.40616 0.87629 0.0
N606 N 0.51147 0.45632 0.81377 0.0
C607 C 0.50117 0.43562 0.76317 0.0
C608 C 0.49625 0.40836 0.79703 0.0
C609 C 0.1222 0.50236 0.81648 0.0
C610 C 0.14756 0.50404 0.77348 0.0
C611 C 0.0966 0.5025 0.77695 0.0
C612 C 0.09529 0.5043 0.6927 0.0
H613 H 0.12215 0.50134 0.88143 0.0
H614 H 0.07774 0.50159 0.81301 0.0
S615 S 0.15578 0.50672 0.55186 0.0
N616 N 0.16973 0.50578 0.64174 0.0
N617 N 0.12187 0.50633 0.56742 0.0
C618 C 0.12055 0.50545 0.64892 0.0
C619 C 0.14658 0.50527 0.68923 0.0
C620 C 0.98512 0.90258 0.33527 0.0
C621 C 0.9823 0.87823 0.38203 0.0
C622 C 0.99064 0.92923 0.37072 0.0
C623 C 0.99376 0.93263 0.45442 0.0
H624 H 0.98311 0.90104 0.27068 0.0
H625 H 0.99303 0.94721 0.3317 0.0
S626 S 0.98846 0.87521 0.60363 0.0
N627 N 0.98331 0.85911 0.51626 0.0
N628 N 0.99311 0.9089 0.58317 0.0
C629 C 0.9906 0.90835 0.50194 0.0
C630 C 0.98501 0.88128 0.46573 0.0
C631 C 0.62908 0.97793 0.38317 0.0
C632 C 0.64326 1.00414 0.36643 0.0
C633 C 0.60286 0.97587 0.42124 0.0
C634 C 0.5896 0.9999 0.4445 0.0
H635 H 0.6382 0.95876 0.36582 0.0
H636 H 0.59281 0.95518 0.43195 0.0
S637 S 0.61818 0.07359 0.41779 0.0
N638 N 0.64237 0.05472 0.37893 0.0
N639 N 0.59293 0.05087 0.4491 0.0
C640 C 0.60359 0.02628 0.42884 0.0
C641 C 0.63037 0.02838 0.39002 0.0
C642 C 0.5677 0.64234 0.46006 0.0
C643 C 0.56819 0.64578 0.37641 0.0
C644 C 0.56112 0.61603 0.49417 0.0
C645 C 0.55491 0.59195 0.44605 0.0
H646 H 0.57156 0.66033 0.49975 0.0
H647 H 0.56044 0.61474 0.559 0.0
S648 S 0.55552 0.58949 0.22293 0.0
N649 N 0.5636 0.6228 0.24582 0.0
N650 N 0.55113 0.57324 0.30948 0.0
C651 C 0.55634 0.59495 0.36198 0.0
C652 C 0.56291 0.62187 0.32731 0.0
C653 C 0.89143 0.49651 0.43164 0.0
C654 C 0.8868 0.51527 0.36962 0.0
C655 C 0.91718 0.49704 0.47024 0.0
C656 C 0.93956 0.51611 0.44786 0.0
H657 H 0.87507 0.48106 0.4502 0.0
H658 H 0.91966 0.48201 0.51717 0.0
S659 S 0.93807 0.57078 0.29245 0.0
N660 N 0.90655 0.55451 0.29057 0.0
N661 N 0.95522 0.55485 0.36142 0.0
C662 C 0.93532 0.53502 0.38608 0.0
C663 C 0.90893 0.53474 0.34736 0.0
loop_
_geom_bond_atom_site_label_1
_geom_bond_atom_site_label_2
_geom_bond_distance
_geom_bond_site_symmetry_2
_ccdc_geom_bond_type
C0 C1 1.264 . S
C0 C5 1.479 . S
C0 C10 1.465 . S
C1 C0 1.264 . S
C1 C3 1.339 . S
C1 H28 0.931 . S
C2 C3 1.395 . S
C2 C4 1.320 . S
C3 C1 1.339 . S
C3 C2 1.395 . S
C3 H29 0.929 . S
C4 C2 1.320 . S
C4 C5 1.405 . S
C4 H30 0.930 . S
C5 C0 1.479 . S
C5 C4 1.405 . S
C5 H31 0.931 . S
U6 O7 2.454 . S
U6 O8 2.458 1_554 S
U6 C9 2.984 1_554 S
U6 C10 2.847 . S
U6 C23 2.882 1_554 S
U6 O24 2.441 . S
U6 O25 2.420 . S
U6 O26 2.455 1_554 S
U6 O27 2.449 1_554 S
O7 U6 2.454 . S
O7 C9 1.353 1_554 S
O8 U6 2.458 1_556 S
O8 C9 1.286 . S
C9 U6 2.984 1_556 S
C9 O7 1.353 1_556 S
C9 O8 1.286 . S
C9 C11 1.363 . S
C10 C0 1.465 . S
C10 U6 2.847 . S
C10 O24 1.249 . S
C10 O25 1.202 . S
C11 C9 1.363 . S
C11 C13 1.408 1_556 S
C11 C16 1.342 . S
C12 C13 1.310 . S
C12 C15 1.461 1_554 S
C12 H32 0.932 . S
C13 C11 1.408 1_554 S
C13 C12 1.310 . S
C13 H33 0.930 . S
C14 C15 1.474 . S
C14 C16 1.285 . S
C14 H34 0.929 . S
C15 C12 1.461 1_556 S
C15 C14 1.474 . S
C16 C11 1.342 . S
C16 C14 1.285 . S
C16 H35 0.930 . S
C17 C20 1.424 . S
C17 C22 1.245 . S
C17 C23 1.428 . S
C18 C21 1.260 . S
C18 C22 1.477 . S
C18 H36 0.932 . S
C19 C20 1.384 . S
C19 C21 1.479 . S
C19 H37 0.929 . S
C20 C17 1.424 . S
C20 C19 1.384 . S
C20 H38 0.928 . S
C21 C18 1.260 . S
C21 C19 1.479 . S
C22 C17 1.245 . S
C22 C18 1.477 . S
C22 H39 0.932 . S
C23 U6 2.882 1_556 S
C23 C17 1.428 . S
C23 O26 1.301 . S
C23 O27 1.282 . S
O24 U6 2.441 . S
O24 C10 1.249 . S
O25 U6 2.420 . S
O25 C10 1.202 . S
O26 U6 2.455 1_556 S
O26 C23 1.301 . S
O27 U6 2.449 1_556 S
O27 C23 1.282 . S
H28 C1 0.931 . S
H29 C3 0.929 . S
H30 C4 0.930 . S
H31 C5 0.931 . S
H32 C12 0.932 . S
H33 C13 0.930 . S
H34 C14 0.929 . S
H35 C16 0.930 . S
H36 C18 0.932 . S
H37 C19 0.929 . S
H38 C20 0.928 . S
H39 C22 0.932 . S
C40 C41 1.264 . S
C40 C45 1.479 . S
C40 C50 1.465 . S
C41 C40 1.264 . S
C41 C43 1.339 . S
C41 H68 0.931 . S
C42 C43 1.395 . S
C42 C44 1.320 . S
C43 C41 1.339 . S
C43 C42 1.395 . S
C43 H69 0.929 . S
C44 C42 1.320 . S
C44 C45 1.405 . S
C44 H70 0.930 . S
C45 C40 1.479 . S
C45 C44 1.405 . S
C45 H71 0.931 . S
U46 O47 2.454 . S
U46 O48 2.458 1_554 S
U46 C49 2.984 1_554 S
U46 C50 2.847 . S
U46 C63 2.882 1_554 S
U46 O64 2.441 . S
U46 O65 2.420 . S
U46 O66 2.455 1_554 S
U46 O67 2.449 1_554 S
O47 U46 2.454 . S
O47 C49 1.353 1_554 S
O48 U46 2.458 1_556 S
O48 C49 1.286 . S
C49 U46 2.984 1_556 S
C49 O47 1.353 1_556 S
C49 O48 1.286 . S
C49 C51 1.363 . S
C50 C40 1.465 . S
C50 U46 2.847 . S
C50 O64 1.249 . S
C50 O65 1.202 . S
C51 C49 1.363 . S
C51 C53 1.408 1_556 S
C51 C56 1.342 . S
C52 C53 1.310 1_556 S
C52 C55 1.461 . S
C52 H72 0.932 1_556 S
C53 C51 1.408 1_554 S
C53 C52 1.310 1_554 S
C53 H73 0.930 . S
C54 C55 1.474 . S
C54 C56 1.285 . S
C54 H74 0.929 . S
C55 C52 1.461 . S
C55 C54 1.474 . S
C56 C51 1.342 . S
C56 C54 1.285 . S
C56 H75 0.930 . S
C57 C60 1.424 . S
C57 C62 1.245 . S
C57 C63 1.428 . S
C58 C61 1.260 . S
C58 C62 1.477 . S
C58 H76 0.932 . S
C59 C60 1.384 . S
C59 C61 1.479 . S
C59 H77 0.929 . S
C60 C57 1.424 . S
C60 C59 1.384 . S
C60 H78 0.928 . S
C61 C58 1.260 . S
C61 C59 1.479 . S
C62 C57 1.245 . S
C62 C58 1.477 . S
C62 H79 0.932 . S
C63 U46 2.882 1_556 S
C63 C57 1.428 . S
C63 O66 1.301 . S
C63 O67 1.282 . S
O64 U46 2.441 . S
O64 C50 1.249 . S
O65 U46 2.420 . S
O65 C50 1.202 . S
O66 U46 2.455 1_556 S
O66 C63 1.301 . S
O67 U46 2.449 1_556 S
O67 C63 1.282 . S
H68 C41 0.931 . S
H69 C43 0.929 . S
H70 C44 0.930 . S
H71 C45 0.931 . S
H72 C52 0.932 1_554 S
H73 C53 0.930 . S
H74 C54 0.929 . S
H75 C56 0.930 . S
H76 C58 0.932 . S
H77 C59 0.929 . S
H78 C60 0.928 . S
H79 C62 0.932 . S
C80 C81 1.264 . S
C80 C85 1.479 . S
C80 C90 1.465 . S
C81 C80 1.264 . S
C81 C83 1.339 . S
C81 H108 0.931 . S
C82 C83 1.395 . S
C82 C84 1.320 . S
C83 C81 1.339 . S
C83 C82 1.395 . S
C83 H109 0.929 . S
C84 C82 1.320 . S
C84 C85 1.405 . S
C84 H110 0.930 1_545 S
C85 C80 1.479 . S
C85 C84 1.405 . S
C85 H111 0.931 . S
U86 O87 2.454 . S
U86 O88 2.458 1_554 S
U86 C89 2.984 1_554 S
U86 C90 2.847 . S
U86 C103 2.882 1_554 S
U86 O104 2.441 . S
U86 O105 2.420 . S
U86 O106 2.455 1_554 S
U86 O107 2.449 1_554 S
O87 U86 2.454 . S
O87 C89 1.353 1_554 S
O88 U86 2.458 1_556 S
O88 C89 1.286 . S
C89 U86 2.984 1_556 S
C89 O87 1.353 1_556 S
C89 O88 1.286 . S
C89 C91 1.363 . S
C90 C80 1.465 . S
C90 U86 2.847 . S
C90 O104 1.249 . S
C90 O105 1.202 . S
C91 C89 1.363 . S
C91 C93 1.408 1_556 S
C91 C96 1.342 . S
C92 C93 1.310 . S
C92 C95 1.461 1_554 S
C92 H112 0.932 . S
C93 C91 1.408 1_554 S
C93 C92 1.310 . S
C93 H113 0.930 . S
C94 C95 1.475 1_565 S
C94 C96 1.284 1_565 S
C94 H114 0.930 . S
C95 C92 1.461 1_556 S
C95 C94 1.475 1_545 S
C96 C91 1.342 . S
C96 C94 1.284 1_545 S
C96 H115 0.929 . S
C97 C100 1.424 . S
C97 C102 1.245 . S
C97 C103 1.428 . S
C98 C101 1.260 . S
C98 C102 1.477 . S
C98 H116 0.932 . S
C99 C100 1.384 . S
C99 C101 1.479 . S
C99 H117 0.929 . S
C100 C97 1.424 . S
C100 C99 1.384 . S
C100 H118 0.928 . S
C101 C98 1.260 . S
C101 C99 1.479 . S
C102 C97 1.245 . S
C102 C98 1.477 . S
C102 H119 0.932 . S
C103 U86 2.882 1_556 S
C103 C97 1.428 . S
C103 O106 1.301 . S
C103 O107 1.282 . S
O104 U86 2.441 . S
O104 C90 1.249 . S
O105 U86 2.420 . S
O105 C90 1.202 . S
O106 U86 2.455 1_556 S
O106 C103 1.301 . S
O107 U86 2.449 1_556 S
O107 C103 1.282 . S
H108 C81 0.931 . S
H109 C83 0.929 . S
H110 C84 0.930 1_565 S
H111 C85 0.931 . S
H112 C92 0.932 . S
H113 C93 0.930 . S
H114 C94 0.930 . S
H115 C96 0.929 . S
H116 C98 0.932 . S
H117 C99 0.929 . S
H118 C100 0.928 . S
H119 C102 0.932 . S
C120 C121 1.264 . S
C120 C125 1.479 . S
C120 C130 1.465 . S
C121 C120 1.264 . S
C121 C123 1.339 . S
C121 H148 0.931 . S
C122 C123 1.395 . S
C122 C124 1.320 . S
C123 C121 1.339 . S
C123 C122 1.395 . S
C123 H149 0.929 . S
C124 C122 1.320 . S
C124 C125 1.405 . S
C124 H150 0.930 . S
C125 C120 1.479 . S
C125 C124 1.405 . S
C125 H151 0.931 . S
U126 O127 2.454 . S
U126 O128 2.458 1_554 S
U126 C129 2.984 . S
U126 C130 2.847 . S
U126 C143 2.882 1_554 S
U126 O144 2.441 . S
U126 O145 2.420 . S
U126 O146 2.455 1_554 S
U126 O147 2.449 . S
O127 U126 2.454 . S
O127 C129 1.353 . S
O128 U126 2.458 1_556 S
O128 C129 1.286 1_556 S
C129 U126 2.984 . S
C129 O127 1.353 . S
C129 O128 1.286 1_554 S
C129 C131 1.363 . S
C130 C120 1.465 . S
C130 U126 2.847 . S
C130 O144 1.249 . S
C130 O145 1.202 . S
C131 C129 1.363 . S
C131 C133 1.408 . S
C131 C136 1.342 1_554 S
C132 C133 1.310 . S
C132 C135 1.461 1_554 S
C132 H152 0.932 . S
C133 C131 1.408 . S
C133 C132 1.310 . S
C133 H153 0.930 . S
C134 C135 1.474 . S
C134 C136 1.285 . S
C134 H154 0.929 . S
C135 C132 1.461 1_556 S
C135 C134 1.474 . S
C136 C131 1.342 1_556 S
C136 C134 1.285 . S
C136 H155 0.930 . S
C137 C140 1.424 . S
C137 C142 1.245 . S
C137 C143 1.428 . S
C138 C141 1.260 . S
C138 C142 1.477 . S
C138 H156 0.932 . S
C139 C140 1.384 . S
C139 C141 1.479 . S
C139 H157 0.929 . S
C140 C137 1.424 . S
C140 C139 1.384 . S
C140 H158 0.928 . S
C141 C138 1.260 . S
C141 C139 1.479 . S
C142 C137 1.245 . S
C142 C138 1.477 . S
C142 H159 0.932 . S
C143 U126 2.882 1_556 S
C143 C137 1.428 . S
C143 O146 1.301 . S
C143 O147 1.282 1_556 S
O144 U126 2.441 . S
O144 C130 1.249 . S
O145 U126 2.420 . S
O145 C130 1.202 . S
O146 U126 2.455 1_556 S
O146 C143 1.301 . S
O147 U126 2.449 . S
O147 C143 1.282 1_554 S
H148 C121 0.931 . S
H149 C123 0.929 . S
H150 C124 0.930 . S
H151 C125 0.931 . S
H152 C132 0.932 . S
H153 C133 0.930 . S
H154 C134 0.929 . S
H155 C136 0.930 . S
H156 C138 0.932 . S
H157 C139 0.929 . S
H158 C140 0.928 . S
H159 C142 0.932 . S
C160 C161 1.264 . S
C160 C165 1.479 . S
C160 C170 1.465 . S
C161 C160 1.264 . S
C161 C163 1.339 . S
C161 H188 0.931 . S
C162 C163 1.395 . S
C162 C164 1.320 . S
C163 C161 1.339 . S
C163 C162 1.395 . S
C163 H189 0.929 . S
C164 C162 1.320 . S
C164 C165 1.405 . S
C164 H190 0.930 . S
C165 C160 1.479 . S
C165 C164 1.405 . S
C165 H191 0.931 . S
U166 O167 2.454 . S
U166 O168 2.458 . S
U166 C169 2.984 . S
U166 C170 2.847 1_554 S
U166 C183 2.882 . S
U166 O184 2.441 1_554 S
U166 O185 2.420 1_554 S
U166 O186 2.455 . S
U166 O187 2.449 . S
O167 U166 2.454 . S
O167 C169 1.353 . S
O168 U166 2.458 . S
O168 C169 1.286 . S
C169 U166 2.984 . S
C169 O167 1.353 . S
C169 O168 1.286 . S
C169 C171 1.363 . S
C170 C160 1.465 . S
C170 U166 2.847 1_556 S
C170 O184 1.249 . S
C170 O185 1.202 . S
C171 C169 1.363 . S
C171 C173 1.408 . S
C171 C176 1.342 . S
C172 C173 1.310 . S
C172 C175 1.461 . S
C172 H192 0.932 . S
C173 C171 1.408 . S
C173 C172 1.310 . S
C173 H193 0.930 . S
C174 C175 1.474 . S
C174 C176 1.285 . S
C174 H194 0.929 . S
C175 C172 1.461 . S
C175 C174 1.474 . S
C176 C171 1.342 . S
C176 C174 1.285 . S
C176 H195 0.930 . S
C177 C180 1.424 . S
C177 C182 1.245 . S
C177 C183 1.428 . S
C178 C181 1.260 . S
C178 C182 1.477 . S
C178 H196 0.932 . S
C179 C180 1.384 . S
C179 C181 1.479 . S
C179 H197 0.929 . S
C180 C177 1.424 . S
C180 C179 1.384 . S
C180 H198 0.928 . S
C181 C178 1.260 . S
C181 C179 1.479 . S
C182 C177 1.245 . S
C182 C178 1.477 . S
C182 H199 0.932 . S
C183 U166 2.882 . S
C183 C177 1.428 . S
C183 O186 1.301 . S
C183 O187 1.282 . S
O184 U166 2.441 1_556 S
O184 C170 1.249 . S
O185 U166 2.420 1_556 S
O185 C170 1.202 . S
O186 U166 2.455 . S
O186 C183 1.301 . S
O187 U166 2.449 . S
O187 C183 1.282 . S
H188 C161 0.931 . S
H189 C163 0.929 . S
H190 C164 0.930 . S
H191 C165 0.931 . S
H192 C172 0.932 . S
H193 C173 0.930 . S
H194 C174 0.929 . S
H195 C176 0.930 . S
H196 C178 0.932 . S
H197 C179 0.929 . S
H198 C180 0.928 . S
H199 C182 0.932 . S
C200 C201 1.264 . S
C200 C205 1.479 . S
C200 C210 1.465 . S
C201 C200 1.264 . S
C201 C203 1.339 . S
C201 H228 0.931 . S
C202 C203 1.395 . S
C202 C204 1.320 . S
C203 C201 1.339 . S
C203 C202 1.395 . S
C203 H229 0.929 . S
C204 C202 1.320 . S
C204 C205 1.405 . S
C204 H230 0.930 . S
C205 C200 1.479 . S
C205 C204 1.405 . S
C205 H231 0.931 . S
U206 O207 2.454 . S
U206 O208 2.458 . S
U206 C209 2.984 . S
U206 C210 2.847 1_554 S
U206 C223 2.882 . S
U206 O224 2.441 1_554 S
U206 O225 2.420 1_554 S
U206 O226 2.455 . S
U206 O227 2.449 . S
O207 U206 2.454 . S
O207 C209 1.353 . S
O208 U206 2.458 . S
O208 C209 1.286 . S
C209 U206 2.984 . S
C209 O207 1.353 . S
C209 O208 1.286 . S
C209 C211 1.363 . S
C210 C200 1.465 . S
C210 U206 2.847 1_556 S
C210 O224 1.249 . S
C210 O225 1.202 . S
C211 C209 1.363 . S
C211 C213 1.408 . S
C211 C216 1.342 . S
C212 C213 1.310 . S
C212 C215 1.461 . S
C212 H232 0.932 . S
C213 C211 1.408 . S
C213 C212 1.310 . S
C213 H233 0.930 . S
C214 C215 1.474 . S
C214 C216 1.285 . S
C214 H234 0.929 . S
C215 C212 1.461 . S
C215 C214 1.474 . S
C216 C211 1.342 . S
C216 C214 1.285 . S
C216 H235 0.930 . S
C217 C220 1.424 . S
C217 C222 1.245 . S
C217 C223 1.428 . S
C218 C221 1.260 . S
C218 C222 1.477 . S
C218 H236 0.932 . S
C219 C220 1.384 . S
C219 C221 1.479 . S
C219 H237 0.929 . S
C220 C217 1.424 . S
C220 C219 1.384 . S
C220 H238 0.928 . S
C221 C218 1.260 . S
C221 C219 1.479 . S
C222 C217 1.245 . S
C222 C218 1.477 . S
C222 H239 0.932 . S
C223 U206 2.882 . S
C223 C217 1.428 . S
C223 O226 1.301 . S
C223 O227 1.282 . S
O224 U206 2.441 1_556 S
O224 C210 1.249 . S
O225 U206 2.420 1_556 S
O225 C210 1.202 . S
O226 U206 2.455 . S
O226 C223 1.301 . S
O227 U206 2.449 . S
O227 C223 1.282 . S
H228 C201 0.931 . S
H229 C203 0.929 . S
H230 C204 0.930 . S
H231 C205 0.931 . S
H232 C212 0.932 . S
H233 C213 0.930 . S
H234 C214 0.929 . S
H235 C216 0.930 . S
H236 C218 0.932 . S
H237 C219 0.929 . S
H238 C220 0.928 . S
H239 C222 0.932 . S
C240 C241 1.264 . S
C240 C245 1.479 . S
C240 C250 1.465 . S
C241 C240 1.264 . S
C241 C243 1.339 . S
C241 H268 0.931 . S
C242 C243 1.395 . S
C242 C244 1.320 . S
C243 C241 1.339 . S
C243 C242 1.395 . S
C243 H269 0.929 . S
C244 C242 1.320 . S
C244 C245 1.405 . S
C244 H270 0.926 1_545 S
C245 C240 1.479 . S
C245 C244 1.405 . S
C245 H271 0.931 . S
U246 O247 2.454 . S
U246 O248 2.458 . S
U246 C249 2.984 . S
U246 C250 2.847 1_554 S
U246 C263 2.882 . S
U246 O264 2.441 1_554 S
U246 O265 2.420 1_554 S
U246 O266 2.455 . S
U246 O267 2.449 . S
O247 U246 2.454 . S
O247 C249 1.353 . S
O248 U246 2.458 . S
O248 C249 1.286 . S
C249 U246 2.984 . S
C249 O247 1.353 . S
C249 O248 1.286 . S
C249 C251 1.363 . S
C250 C240 1.465 . S
C250 U246 2.847 1_556 S
C250 O264 1.249 . S
C250 O265 1.202 . S
C251 C249 1.363 . S
C251 C253 1.408 . S
C251 C256 1.342 . S
C252 C253 1.310 . S
C252 C255 1.462 . S
C252 H272 0.932 . S
C253 C251 1.408 . S
C253 C252 1.310 . S
C253 H273 0.930 . S
C254 C255 1.472 1_565 S
C254 C256 1.285 1_565 S
C254 H274 0.929 . S
C255 C252 1.462 . S
C255 C254 1.472 1_545 S
C256 C251 1.342 . S
C256 C254 1.285 1_545 S
C256 H275 0.930 . S
C257 C260 1.424 . S
C257 C262 1.245 . S
C257 C263 1.428 . S
C258 C261 1.260 . S
C258 C262 1.477 . S
C258 H276 0.932 . S
C259 C260 1.384 . S
C259 C261 1.479 . S
C259 H277 0.929 . S
C260 C257 1.424 . S
C260 C259 1.384 . S
C260 H278 0.928 . S
C261 C258 1.260 . S
C261 C259 1.479 . S
C262 C257 1.245 . S
C262 C258 1.477 . S
C262 H279 0.932 . S
C263 U246 2.882 . S
C263 C257 1.428 . S
C263 O266 1.301 . S
C263 O267 1.282 . S
O264 U246 2.441 1_556 S
O264 C250 1.249 . S
O265 U246 2.420 1_556 S
O265 C250 1.202 . S
O266 U246 2.455 . S
O266 C263 1.301 . S
O267 U246 2.449 . S
O267 C263 1.282 . S
H268 C241 0.931 . S
H269 C243 0.929 . S
H270 C244 0.926 1_565 S
H271 C245 0.931 . S
H272 C252 0.932 . S
H273 C253 0.930 . S
H274 C254 0.929 . S
H275 C256 0.930 . S
H276 C258 0.932 . S
H277 C259 0.929 . S
H278 C260 0.928 . S
H279 C262 0.932 . S
C280 C281 1.264 . S
C280 C285 1.479 . S
C280 C290 1.465 . S
C281 C280 1.264 . S
C281 C283 1.339 . S
C281 H308 0.931 . S
C282 C283 1.395 . S
C282 C284 1.320 . S
C283 C281 1.339 . S
C283 C282 1.395 . S
C283 H309 0.929 . S
C284 C282 1.320 . S
C284 C285 1.405 . S
C284 H310 0.930 . S
C285 C280 1.479 . S
C285 C284 1.405 . S
C285 H311 0.931 . S
U286 O287 2.454 . S
U286 O288 2.458 . S
U286 C289 2.984 . S
U286 C290 2.847 1_554 S
U286 C303 2.882 . S
U286 O304 2.441 1_554 S
U286 O305 2.420 1_554 S
U286 O306 2.455 . S
U286 O307 2.449 . S
O287 U286 2.454 . S
O287 C289 1.353 . S
O288 U286 2.458 . S
O288 C289 1.286 . S
C289 U286 2.984 . S
C289 O287 1.353 . S
C289 O288 1.286 . S
C289 C291 1.363 . S
C290 C280 1.465 . S
C290 U286 2.847 1_556 S
C290 O304 1.249 . S
C290 O305 1.202 . S
C291 C289 1.363 . S
C291 C293 1.408 . S
C291 C296 1.342 . S
C292 C293 1.310 . S
C292 C295 1.461 . S
C292 H312 0.932 . S
C293 C291 1.408 . S
C293 C292 1.310 . S
C293 H313 0.930 1_554 S
C294 C295 1.474 . S
C294 C296 1.285 . S
C294 H314 0.929 . S
C295 C292 1.461 . S
C295 C294 1.474 . S
C296 C291 1.342 . S
C296 C294 1.285 . S
C296 H315 0.930 . S
C297 C300 1.424 . S
C297 C302 1.245 . S
C297 C303 1.428 . S
C298 C301 1.260 . S
C298 C302 1.477 . S
C298 H316 0.932 . S
C299 C300 1.384 . S
C299 C301 1.479 . S
C299 H317 0.929 . S
C300 C297 1.424 . S
C300 C299 1.384 . S
C300 H318 0.928 . S
C301 C298 1.260 . S
C301 C299 1.479 . S
C302 C297 1.245 . S
C302 C298 1.477 . S
C302 H319 0.932 . S
C303 U286 2.882 . S
C303 C297 1.428 . S
C303 O306 1.301 . S
C303 O307 1.282 . S
O304 U286 2.441 1_556 S
O304 C290 1.249 . S
O305 U286 2.420 1_556 S
O305 C290 1.202 . S
O306 U286 2.455 . S
O306 C303 1.301 . S
O307 U286 2.449 . S
O307 C303 1.282 . S
H308 C281 0.931 . S
H309 C283 0.929 . S
H310 C284 0.930 . S
H311 C285 0.931 . S
H312 C292 0.932 . S
H313 C293 0.930 1_556 S
H314 C294 0.929 . S
H315 C296 0.930 . S
H316 C298 0.932 . S
H317 C299 0.929 . S
H318 C300 0.928 . S
H319 C302 0.932 . S
Dy320 O324 2.398 . S
Dy320 O325 2.491 1_455 S
Dy320 O326 2.403 . S
Dy320 O327 2.664 1_565 S
Dy320 O331 2.326 . S
Dy320 O335 2.310 1_455 S
Dy320 O336 2.351 1_565 S
C321 O332 1.185 1_455 S
C321 O333 1.355 . S
C322 O324 1.185 . S
C322 O325 1.355 1_455 S
Dy323 O327 2.310 1_655 S
Dy323 O330 2.351 1_545 S
Dy323 O332 2.398 . S
Dy323 O333 2.491 1_655 S
Dy323 O334 2.403 . S
Dy323 O335 2.664 1_545 S
Dy323 O337 2.326 1_655 S
O324 Dy320 2.398 . S
O324 C322 1.185 . S
O325 Dy320 2.491 1_655 S
O325 C322 1.355 1_655 S
O326 Dy320 2.403 . S
O326 C328 1.254 . S
O327 Dy320 2.664 1_545 S
O327 Dy323 2.310 1_455 S
O327 C328 1.268 1_545 S
C328 O326 1.254 . S
C328 O327 1.268 1_565 S
C329 O334 1.254 . S
C329 O335 1.268 1_545 S
O330 Dy323 2.351 1_565 S
O330 C338 1.249 . S
O331 Dy320 2.326 . S
O331 C338 1.267 1_455 S
O332 C321 1.185 1_655 S
O332 Dy323 2.398 . S
O333 C321 1.355 . S
O333 Dy323 2.491 1_455 S
O334 Dy323 2.403 . S
O334 C329 1.254 . S
O335 Dy320 2.310 1_655 S
O335 Dy323 2.664 1_565 S
O335 C329 1.268 1_565 S
O336 Dy320 2.351 1_545 S
O336 C339 1.249 . S
O337 Dy323 2.326 1_455 S
O337 C339 1.267 . S
C338 O330 1.249 . S
C338 O331 1.267 1_655 S
C339 O336 1.249 . S
C339 O337 1.267 . S
Dy340 O344 2.398 . S
Dy340 O345 2.491 . S
Dy340 O346 2.403 . S
Dy340 O347 2.664 . S
Dy340 O351 2.326 1_565 S
Dy340 O355 2.310 1_565 S
Dy340 O356 2.351 . S
C341 O352 1.185 . S
C341 O353 1.355 . S
C342 O344 1.185 . S
C342 O345 1.355 . S
Dy343 O347 2.310 1_545 S
Dy343 O350 2.351 . S
Dy343 O352 2.398 . S
Dy343 O353 2.491 . S
Dy343 O354 2.403 . S
Dy343 O355 2.664 . S
Dy343 O357 2.326 1_545 S
O344 Dy340 2.398 . S
O344 C342 1.185 . S
O345 Dy340 2.491 . S
O345 C342 1.355 . S
O346 Dy340 2.403 . S
O346 C348 1.254 . S
O347 Dy340 2.664 . S
O347 Dy343 2.310 1_565 S
O347 C348 1.268 . S
C348 O346 1.254 . S
C348 O347 1.268 . S
C349 O354 1.254 . S
C349 O355 1.268 . S
O350 Dy343 2.351 . S
O350 C358 1.249 . S
O351 Dy340 2.326 1_545 S
O351 C358 1.267 . S
O352 C341 1.185 . S
O352 Dy343 2.398 . S
O353 C341 1.355 . S
O353 Dy343 2.491 . S
O354 Dy343 2.403 . S
O354 C349 1.254 . S
O355 Dy340 2.310 1_545 S
O355 Dy343 2.664 . S
O355 C349 1.268 . S
O356 Dy340 2.351 . S
O356 C359 1.249 . S
O357 Dy343 2.326 1_565 S
O357 C359 1.267 . S
C358 O350 1.249 . S
C358 O351 1.267 . S
C359 O356 1.249 . S
C359 O357 1.267 . S
Dy360 O364 2.398 . S
Dy360 O365 2.491 . S
Dy360 O366 2.403 . S
Dy360 O367 2.664 . S
Dy360 O371 2.326 . S
Dy360 O375 2.310 . S
Dy360 O376 2.351 . S
C361 O372 1.185 . S
C361 O373 1.355 . S
C362 O364 1.185 . S
C362 O365 1.355 . S
Dy363 O367 2.310 . S
Dy363 O370 2.351 . S
Dy363 O372 2.398 . S
Dy363 O373 2.491 . S
Dy363 O374 2.403 . S
Dy363 O375 2.664 . S
Dy363 O377 2.326 . S
O364 Dy360 2.398 . S
O364 C362 1.185 . S
O365 Dy360 2.491 . S
O365 C362 1.355 . S
O366 Dy360 2.403 . S
O366 C368 1.254 . S
O367 Dy360 2.664 . S
O367 Dy363 2.310 . S
O367 C368 1.268 . S
C368 O366 1.254 . S
C368 O367 1.268 . S
C369 O374 1.254 . S
C369 O375 1.268 . S
O370 Dy363 2.351 . S
O370 C378 1.249 . S
O371 Dy360 2.326 . S
O371 C378 1.267 . S
O372 C361 1.185 . S
O372 Dy363 2.398 . S
O373 C361 1.355 . S
O373 Dy363 2.491 . S
O374 Dy363 2.403 . S
O374 C369 1.254 . S
O375 Dy360 2.310 . S
O375 Dy363 2.664 . S
O375 C369 1.268 . S
O376 Dy360 2.351 . S
O376 C379 1.249 . S
O377 Dy363 2.326 . S
O377 C379 1.267 . S
C378 O370 1.249 . S
C378 O371 1.267 . S
C379 O376 1.249 . S
C379 O377 1.267 . S
Dy380 O384 2.398 . S
Dy380 O385 2.491 . S
Dy380 O386 2.403 1_655 S
Dy380 O387 2.664 1_655 S
Dy380 O391 2.326 . S
Dy380 O395 2.310 . S
Dy380 O396 2.351 1_655 S
C381 O392 1.185 . S
C381 O393 1.355 . S
C382 O384 1.185 . S
C382 O385 1.355 . S
Dy383 O387 2.310 . S
Dy383 O390 2.351 1_455 S
Dy383 O392 2.398 . S
Dy383 O393 2.491 . S
Dy383 O394 2.403 . S
Dy383 O395 2.664 1_455 S
Dy383 O397 2.326 . S
O384 Dy380 2.398 . S
O384 C382 1.185 . S
O385 Dy380 2.491 . S
O385 C382 1.355 . S
O386 Dy380 2.403 1_455 S
O386 C388 1.254 . S
O387 Dy380 2.664 1_455 S
O387 Dy383 2.310 . S
O387 C388 1.268 . S
C388 O386 1.254 . S
C388 O387 1.268 . S
C389 O394 1.254 1_655 S
C389 O395 1.268 . S
O390 Dy383 2.351 1_655 S
O390 C398 1.249 . S
O391 Dy380 2.326 . S
O391 C398 1.267 . S
O392 C381 1.185 . S
O392 Dy383 2.398 . S
O393 C381 1.355 . S
O393 Dy383 2.491 . S
O394 Dy383 2.403 . S
O394 C389 1.254 1_455 S
O395 Dy380 2.310 . S
O395 Dy383 2.664 1_655 S
O395 C389 1.268 . S
O396 Dy380 2.351 1_455 S
O396 C399 1.249 . S
O397 Dy383 2.326 . S
O397 C399 1.267 . S
C398 O390 1.249 . S
C398 O391 1.267 . S
C399 O396 1.249 . S
C399 O397 1.267 . S
C400 C401 1.388 . S
C400 C402 1.419 . S
C400 H404 0.930 . S
C401 C400 1.388 . S
C401 C410 1.410 1_565 S
C402 C400 1.419 . S
C402 C403 1.363 . S
C402 H405 0.929 . S
C403 C402 1.363 . S
C403 C409 1.428 1_565 S
H404 C400 0.930 . S
H405 C402 0.929 . S
S406 N407 1.613 . S
S406 N408 1.610 . S
N407 S406 1.613 . S
N407 C410 1.350 . S
N408 S406 1.610 . S
N408 C409 1.351 . S
C409 C403 1.428 1_545 S
C409 N408 1.351 . S
C409 C410 1.434 . S
C410 C401 1.410 1_545 S
C410 N407 1.350 . S
C410 C409 1.434 . S
C411 C412 1.369 . S
C411 C413 1.419 . S
C411 H415 0.930 . S
C412 C411 1.369 . S
C412 C421 1.429 . S
C413 C411 1.419 . S
C413 C414 1.363 . S
C413 H416 0.929 . S
C414 C413 1.363 . S
C414 C420 1.428 . S
H415 C411 0.930 . S
H416 C413 0.929 . S
S417 N418 1.613 . S
S417 N419 1.610 . S
N418 S417 1.613 . S
N418 C421 1.350 . S
N419 S417 1.610 . S
N419 C420 1.351 . S
C420 C414 1.428 . S
C420 N419 1.351 . S
C420 C421 1.434 . S
C421 C412 1.429 . S
C421 N418 1.350 . S
C421 C420 1.434 . S
C422 C423 1.369 . S
C422 C424 1.419 . S
C422 H426 0.930 . S
C423 C422 1.369 . S
C423 C432 1.429 . S
C424 C422 1.419 . S
C424 C425 1.363 . S
C424 H427 0.929 . S
C425 C424 1.363 . S
C425 C431 1.428 . S
H426 C422 0.930 . S
H427 C424 0.929 . S
S428 N429 1.613 . S
S428 N430 1.610 . S
N429 S428 1.613 . S
N429 C432 1.350 . S
N430 S428 1.610 . S
N430 C431 1.351 . S
C431 C425 1.428 . S
C431 N430 1.351 . S
C431 C432 1.434 . S
C432 C423 1.429 . S
C432 N429 1.350 . S
C432 C431 1.434 . S
C433 C434 1.369 . S
C433 C435 1.419 . S
C433 H437 0.930 . S
C434 C433 1.369 . S
C434 C443 1.429 . S
C435 C433 1.419 . S
C435 C436 1.363 . S
C435 H438 0.929 . S
C436 C435 1.363 . S
C436 C442 1.428 . S
H437 C433 0.930 . S
H438 C435 0.929 . S
S439 N440 1.613 . S
S439 N441 1.610 . S
N440 S439 1.613 . S
N440 C443 1.350 . S
N441 S439 1.610 . S
N441 C442 1.351 . S
C442 C436 1.428 . S
C442 N441 1.351 . S
C442 C443 1.434 . S
C443 C434 1.429 . S
C443 N440 1.350 . S
C443 C442 1.434 . S
C444 C445 1.369 1_565 S
C444 C446 1.419 . S
C444 H448 0.930 . S
C445 C444 1.369 1_545 S
C445 C454 1.429 . S
C446 C444 1.419 . S
C446 C447 1.363 1_565 S
C446 H449 0.929 . S
C447 C446 1.363 1_545 S
C447 C453 1.428 . S
H448 C444 0.930 . S
H449 C446 0.929 . S
S450 N451 1.613 . S
S450 N452 1.610 . S
N451 S450 1.613 . S
N451 C454 1.350 . S
N452 S450 1.610 . S
N452 C453 1.351 . S
C453 C447 1.428 . S
C453 N452 1.351 . S
C453 C454 1.434 . S
C454 C445 1.429 . S
C454 N451 1.350 . S
C454 C453 1.434 . S
C455 C456 1.369 . S
C455 C457 1.419 . S
C455 H459 0.930 . S
C456 C455 1.369 . S
C456 C465 1.429 . S
C457 C455 1.419 . S
C457 C458 1.363 . S
C457 H460 0.929 . S
C458 C457 1.363 . S
C458 C464 1.428 . S
H459 C455 0.930 . S
H460 C457 0.929 . S
S461 N462 1.613 . S
S461 N463 1.610 . S
N462 S461 1.613 . S
N462 C465 1.350 . S
N463 S461 1.610 . S
N463 C464 1.351 . S
C464 C458 1.428 . S
C464 N463 1.351 . S
C464 C465 1.434 . S
C465 C456 1.429 . S
C465 N462 1.350 . S
C465 C464 1.434 . S
C466 C467 1.369 . S
C466 C468 1.419 . S
C466 H470 0.930 . S
C467 C466 1.369 . S
C467 C476 1.429 . S
C468 C466 1.419 . S
C468 C469 1.363 . S
C468 H471 0.929 . S
C469 C468 1.363 . S
C469 C475 1.428 . S
H470 C466 0.930 . S
H471 C468 0.929 . S
S472 N473 1.613 . S
S472 N474 1.610 . S
N473 S472 1.613 . S
N473 C476 1.350 . S
N474 S472 1.610 . S
N474 C475 1.351 . S
C475 C469 1.428 . S
C475 N474 1.351 . S
C475 C476 1.434 . S
C476 C467 1.429 . S
C476 N473 1.350 . S
C476 C475 1.434 . S
C477 C478 1.369 . S
C477 C479 1.419 . S
C477 H481 0.930 . S
C478 C477 1.369 . S
C478 C487 1.429 . S
C479 C477 1.419 . S
C479 C480 1.363 . S
C479 H482 0.929 1_655 S
C480 C479 1.363 . S
C480 C486 1.428 . S
H481 C477 0.930 . S
H482 C479 0.929 1_455 S
S483 N484 1.613 . S
S483 N485 1.610 . S
N484 S483 1.613 . S
N484 C487 1.350 . S
N485 S483 1.610 . S
N485 C486 1.351 . S
C486 C480 1.428 . S
C486 N485 1.351 . S
C486 C487 1.434 . S
C487 C478 1.429 . S
C487 N484 1.350 . S
C487 C486 1.434 . S
C488 C489 1.369 . S
C488 C490 1.419 . S
C488 H492 0.930 . S
C489 C488 1.369 . S
C489 C498 1.429 . S
C490 C488 1.419 . S
C490 C491 1.363 . S
C490 H493 0.929 . S
C491 C490 1.363 . S
C491 C497 1.428 . S
H492 C488 0.930 . S
H493 C490 0.929 . S
S494 N495 1.613 . S
S494 N496 1.610 . S
N495 S494 1.613 . S
N495 C498 1.350 . S
N496 S494 1.610 . S
N496 C497 1.351 . S
C497 C491 1.428 . S
C497 N496 1.351 . S
C497 C498 1.434 . S
C498 C489 1.429 . S
C498 N495 1.350 . S
C498 C497 1.434 . S
C499 C500 1.367 1_545 S
C499 C501 1.419 . S
C499 H503 0.930 . S
C500 C499 1.367 1_565 S
C500 C509 1.431 . S
C501 C499 1.419 . S
C501 C502 1.363 1_545 S
C501 H504 0.929 . S
C502 C501 1.363 1_565 S
C502 C508 1.428 . S
H503 C499 0.930 . S
H504 C501 0.929 . S
S505 N506 1.613 . S
S505 N507 1.610 . S
N506 S505 1.613 . S
N506 C509 1.350 . S
N507 S505 1.610 . S
N507 C508 1.351 . S
C508 C502 1.428 . S
C508 N507 1.351 . S
C508 C509 1.434 . S
C509 C500 1.431 . S
C509 N506 1.350 . S
C509 C508 1.434 . S
C510 C511 1.369 . S
C510 C512 1.419 . S
C510 H514 0.930 . S
C511 C510 1.369 . S
C511 C520 1.429 . S
C512 C510 1.419 . S
C512 C513 1.363 . S
C512 H515 0.929 . S
C513 C512 1.363 . S
C513 C519 1.428 . S
H514 C510 0.930 . S
H515 C512 0.929 . S
S516 N517 1.613 . S
S516 N518 1.610 . S
N517 S516 1.613 . S
N517 C520 1.350 . S
N518 S516 1.610 . S
N518 C519 1.351 . S
C519 C513 1.428 . S
C519 N518 1.351 . S
C519 C520 1.434 . S
C520 C511 1.429 . S
C520 N517 1.350 . S
C520 C519 1.434 . S
C521 C522 1.369 . S
C521 C523 1.419 . S
C521 H525 0.930 . S
C522 C521 1.369 . S
C522 C531 1.429 . S
C523 C521 1.419 . S
C523 C524 1.363 . S
C523 H526 0.929 . S
C524 C523 1.363 . S
C524 C530 1.428 . S
H525 C521 0.930 . S
H526 C523 0.929 . S
S527 N528 1.613 . S
S527 N529 1.610 . S
N528 S527 1.613 . S
N528 C531 1.350 . S
N529 S527 1.610 . S
N529 C530 1.351 . S
C530 C524 1.428 . S
C530 N529 1.351 . S
C530 C531 1.434 . S
C531 C522 1.429 . S
C531 N528 1.350 . S
C531 C530 1.434 . S
C532 C533 1.369 . S
C532 C534 1.419 . S
C532 H536 0.930 . S
C533 C532 1.369 . S
C533 C542 1.429 . S
C534 C532 1.419 . S
C534 C535 1.363 . S
C534 H537 0.929 1_655 S
C535 C534 1.363 . S
C535 C541 1.428 . S
H536 C532 0.930 . S
H537 C534 0.929 1_455 S
S538 N539 1.613 . S
S538 N540 1.610 . S
N539 S538 1.613 . S
N539 C542 1.350 . S
N540 S538 1.610 . S
N540 C541 1.351 . S
C541 C535 1.428 . S
C541 N540 1.351 . S
C541 C542 1.434 . S
C542 C533 1.429 . S
C542 N539 1.350 . S
C542 C541 1.434 . S
C543 C544 1.370 1_565 S
C543 C545 1.422 . S
C543 H547 0.930 . S
C544 C543 1.370 1_545 S
C544 C553 1.427 . S
C545 C543 1.422 . S
C545 C546 1.358 1_565 S
C545 H548 0.931 . S
C546 C545 1.358 1_545 S
C546 C552 1.428 . S
H547 C543 0.930 . S
H548 C545 0.931 . S
S549 N550 1.613 . S
S549 N551 1.610 . S
N550 S549 1.613 . S
N550 C553 1.350 . S
N551 S549 1.610 . S
N551 C552 1.351 . S
C552 C546 1.428 . S
C552 N551 1.351 . S
C552 C553 1.434 . S
C553 C544 1.427 . S
C553 N550 1.350 . S
C553 C552 1.434 . S
C554 C555 1.369 . S
C554 C556 1.419 . S
C554 H558 0.930 . S
C555 C554 1.369 . S
C555 C564 1.429 . S
C556 C554 1.419 . S
C556 C557 1.363 . S
C556 H559 0.929 . S
C557 C556 1.363 . S
C557 C563 1.428 . S
H558 C554 0.930 . S
H559 C556 0.929 . S
S560 N561 1.613 . S
S560 N562 1.610 . S
N561 S560 1.613 . S
N561 C564 1.350 . S
N562 S560 1.610 . S
N562 C563 1.351 . S
C563 C557 1.428 . S
C563 N562 1.351 . S
C563 C564 1.434 . S
C564 C555 1.429 . S
C564 N561 1.350 . S
C564 C563 1.434 . S
C565 C566 1.369 . S
C565 C567 1.419 . S
C565 H569 0.930 . S
C566 C565 1.369 . S
C566 C575 1.429 . S
C567 C565 1.419 . S
C567 C568 1.363 . S
C567 H570 0.929 . S
C568 C567 1.363 . S
C568 C574 1.428 . S
H569 C565 0.930 . S
H570 C567 0.929 . S
S571 N572 1.613 . S
S571 N573 1.610 . S
N572 S571 1.613 . S
N572 C575 1.350 . S
N573 S571 1.610 . S
N573 C574 1.351 . S
C574 C568 1.428 . S
C574 N573 1.351 . S
C574 C575 1.434 . S
C575 C566 1.429 . S
C575 N572 1.350 . S
C575 C574 1.434 . S
C576 C577 1.369 . S
C576 C578 1.419 . S
C576 H580 0.930 . S
C577 C576 1.369 . S
C577 C586 1.429 . S
C578 C576 1.419 . S
C578 C579 1.363 . S
C578 H581 0.929 . S
C579 C578 1.363 . S
C579 C585 1.428 . S
H580 C576 0.930 . S
H581 C578 0.929 . S
S582 N583 1.613 . S
S582 N584 1.610 . S
N583 S582 1.613 . S
N583 C586 1.350 . S
N584 S582 1.610 . S
N584 C585 1.351 . S
C585 C579 1.428 . S
C585 N584 1.351 . S
C585 C586 1.434 . S
C586 C577 1.429 . S
C586 N583 1.350 . S
C586 C585 1.434 . S
C587 C588 1.369 . S
C587 C589 1.419 . S
C587 H591 0.930 . S
C588 C587 1.369 . S
C588 C597 1.424 1_545 S
C589 C587 1.419 . S
C589 C590 1.363 . S
C589 H592 0.929 . S
C590 C589 1.363 . S
C590 C596 1.429 . S
H591 C587 0.930 . S
H592 C589 0.929 . S
S593 N594 1.613 . S
S593 N595 1.610 . S
N594 S593 1.613 . S
N594 C597 1.352 . S
N595 S593 1.610 . S
N595 C596 1.350 1_565 S
C596 C590 1.429 . S
C596 N595 1.350 1_545 S
C596 C597 1.437 1_545 S
C597 C588 1.424 1_565 S
C597 N594 1.352 . S
C597 C596 1.437 1_565 S
C598 C599 1.369 . S
C598 C600 1.419 . S
C598 H602 0.930 . S
C599 C598 1.369 . S
C599 C608 1.429 . S
C600 C598 1.419 . S
C600 C601 1.363 . S
C600 H603 0.929 . S
C601 C600 1.363 . S
C601 C607 1.428 . S
H602 C598 0.930 . S
H603 C600 0.929 . S
S604 N605 1.613 . S
S604 N606 1.610 . S
N605 S604 1.613 . S
N605 C608 1.350 . S
N606 S604 1.610 . S
N606 C607 1.351 . S
C607 C601 1.428 . S
C607 N606 1.351 . S
C607 C608 1.434 . S
C608 C599 1.429 . S
C608 N605 1.350 . S
C608 C607 1.434 . S
C609 C610 1.369 . S
C609 C611 1.419 . S
C609 H613 0.930 . S
C610 C609 1.369 . S
C610 C619 1.429 . S
C611 C609 1.419 . S
C611 C612 1.363 . S
C611 H614 0.929 . S
C612 C611 1.363 . S
C612 C618 1.428 . S
H613 C609 0.930 . S
H614 C611 0.929 . S
S615 N616 1.613 . S
S615 N617 1.610 . S
N616 S615 1.613 . S
N616 C619 1.350 . S
N617 S615 1.610 . S
N617 C618 1.351 . S
C618 C612 1.428 . S
C618 N617 1.351 . S
C618 C619 1.434 . S
C619 C610 1.429 . S
C619 N616 1.350 . S
C619 C618 1.434 . S
C620 C621 1.369 . S
C620 C622 1.419 . S
C620 H624 0.930 . S
C621 C620 1.369 . S
C621 C630 1.429 . S
C622 C620 1.419 . S
C622 C623 1.363 . S
C622 H625 0.929 . S
C623 C622 1.363 . S
C623 C629 1.428 . S
H624 C620 0.930 . S
H625 C622 0.929 . S
S626 N627 1.613 . S
S626 N628 1.610 . S
N627 S626 1.613 . S
N627 C630 1.350 . S
N628 S626 1.610 . S
N628 C629 1.351 . S
C629 C623 1.428 . S
C629 N628 1.351 . S
C629 C630 1.434 . S
C630 C621 1.429 . S
C630 N627 1.350 . S
C630 C629 1.434 . S
C631 C632 1.369 . S
C631 C633 1.419 . S
C631 H635 0.930 . S
C632 C631 1.369 . S
C632 C641 1.429 1_565 S
C633 C631 1.419 . S
C633 C634 1.363 . S
C633 H636 0.929 . S
C634 C633 1.363 . S
C634 C640 1.428 1_565 S
H635 C631 0.930 . S
H636 C633 0.929 . S
S637 N638 1.613 . S
S637 N639 1.610 . S
N638 S637 1.613 . S
N638 C641 1.350 . S
N639 S637 1.610 . S
N639 C640 1.351 . S
C640 C634 1.428 1_545 S
C640 N639 1.351 . S
C640 C641 1.434 . S
C641 C632 1.429 1_545 S
C641 N638 1.350 . S
C641 C640 1.434 . S
C642 C643 1.369 . S
C642 C644 1.419 . S
C642 H646 0.930 . S
C643 C642 1.369 . S
C643 C652 1.429 . S
C644 C642 1.419 . S
C644 C645 1.363 . S
C644 H647 0.929 . S
C645 C644 1.363 . S
C645 C651 1.428 . S
H646 C642 0.930 . S
H647 C644 0.929 . S
S648 N649 1.613 . S
S648 N650 1.610 . S
N649 S648 1.613 . S
N649 C652 1.350 . S
N650 S648 1.610 . S
N650 C651 1.351 . S
C651 C645 1.428 . S
C651 N650 1.351 . S
C651 C652 1.434 . S
C652 C643 1.429 . S
C652 N649 1.350 . S
C652 C651 1.434 . S
C653 C654 1.369 . S
C653 C655 1.419 . S
C653 H657 0.930 . S
C654 C653 1.369 . S
C654 C663 1.429 . S
C655 C653 1.419 . S
C655 C656 1.363 . S
C655 H658 0.929 . S
C656 C655 1.363 . S
C656 C662 1.428 . S
H657 C653 0.930 . S
H658 C655 0.929 . S
S659 N660 1.613 . S
S659 N661 1.610 . S
N660 S659 1.613 . S
N660 C663 1.350 . S
N661 S659 1.610 . S
N661 C662 1.351 . S
C662 C656 1.428 . S
C662 N661 1.351 . S
C662 C663 1.434 . S
C663 C654 1.429 . S
C663 N660 1.350 . S
C663 C662 1.434 . S
C401 C255 1.934 1_565 S
C403 C328 2.093 . S
C414 C358 2.699 . S
C412 C295 2.534 . S
C425 C368 2.233 . S
C423 C175 2.071 . S
C436 C388 2.192 . S
C434 C215 1.949 . S
C447 C329 2.093 . S
C445 C95 1.926 . S
C456 C135 2.522 . S
C458 C359 2.701 . S
C467 C15 2.077 . S
C469 C369 2.233 . S
C478 C55 1.943 . S
C480 C389 2.190 . S
C491 C321 1.309 . S
C489 C221 1.238 . S
C502 C342 0.739 . S
C500 C261 0.740 1_565 S
C513 C361 1.560 . S
C511 C301 1.479 . S
C522 C181 0.821 . S
C524 C381 0.885 . S
C533 C61 1.092 . S
C535 C322 1.304 1_655 S
C546 C341 0.748 . S
C544 C101 0.725 . S
C557 C362 1.563 . S
C555 C141 1.273 . S
C566 C21 0.853 . S
C568 C382 0.882 . S
C577 C202 2.699 . S
C579 C339 2.934 . S
C588 C242 2.314 . S
C590 C349 2.646 . S
C601 C379 3.219 . S
C599 C282 2.941 . S
C612 C399 3.028 . S
C610 C162 2.706 . S
C621 C42 2.605 . S
C623 C338 2.943 . S
C634 C348 2.645 . S
C632 C82 2.329 1_565 S
C645 C378 3.220 . S
C643 C122 2.818 . S
C654 C2 2.813 . S
C656 C398 3.030 . S
