# Generated by pormake.
# Topology pts, (4,4)-cn, num edge types: 1
# Building blocks:
#     Node 0, Type 0, BuildingBlock: KOZSID_clean_sbu_0, # of connection points: 4
#     Node 1, Type 0, BuildingBlock: KOZSID_clean_sbu_0, # of connection points: 4
#     Node 2, Type 1, BuildingBlock: QUQFOY_clean_sbu_1, # of connection points: 4
#     Node 3, Type 1, BuildingBlock: QUQFOY_clean_sbu_1, # of connection points: 4
#     Edge 4, Type (0, 1), BuildingBlock: EZIPEK_clean_linker_0, # of connection points: 2
#     Edge 5, Type (0, 1), BuildingBlock: EZIPEK_clean_linker_0, # of connection points: 2
#     Edge 6, Type (0, 1), BuildingBlock: EZIPEK_clean_linker_0, # of connection points: 2
#     Edge 7, Type (0, 1), BuildingBlock: EZIPEK_clean_linker_0, # of connection points: 2
#     Edge 8, Type (0, 1), BuildingBlock: EZIPEK_clean_linker_0, # of connection points: 2
#     Edge 9, Type (0, 1), BuildingBlock: EZIPEK_clean_linker_0, # of connection points: 2
#     Edge 10, Type (0, 1), BuildingBlock: EZIPEK_clean_linker_0, # of connection points: 2
#     Edge 11, Type (0, 1), BuildingBlock: EZIPEK_clean_linker_0, # of connection points: 2
# Relax obj value: 0.093
# Max RMSD: 0.255
# Mean RMSD: 0.145
data_MOF--net-pts--node1-KOZSID_clean_sbu_0--node2-QUQFOY_clean_sbu_1--edge1-EZIPEK_clean_linker_0
_symmetry_space_group_name_H-M    P1
_symmetry_Int_Tables_number       1
_symmetry_cell_setting            triclinic
loop_
_symmetry_equiv_pos_as_xyz
'x, y, z'
_cell_length_a     19.180735
_cell_length_b     21.806054
_cell_length_c     31.949116
_cell_angle_alpha  85.010176
_cell_angle_beta   95.591749
_cell_angle_gamma 90.089742
loop_
_atom_site_label
_atom_site_type_symbol
_atom_site_fract_x
_atom_site_fract_y
_atom_site_fract_z
_atom_type_partial_charge
C0 C 0.6854 0.14183 0.05912 0.0
C1 C 0.70541 0.19912 0.07178 0.0
C2 C 0.65617 0.24041 0.05276 0.0
C3 C 0.60925 0.20619 0.02954 0.0
N4 N 0.62606 0.14588 0.03227 0.0
Co5 Co 0.57126 0.08051 0.00421 0.0
N6 N 0.51426 0.14276 0.96584 0.0
C7 C 0.51077 0.20358 0.97013 0.0
C8 C 0.46614 0.23504 0.93955 0.0
C9 C 0.4388 0.19128 0.91461 0.0
C10 C 0.46842 0.13537 0.93151 0.0
N11 N 0.51526 0.01514 0.97684 0.0
C12 C 0.46991 0.01873 0.94139 0.0
C13 C 0.44266 0.96139 0.93348 0.0
C14 C 0.47072 0.92064 0.9656 0.0
C15 C 0.51365 0.95515 0.99107 0.0
N16 N 0.62949 0.01817 0.04173 0.0
C17 C 0.61522 0.95782 0.04857 0.0
C18 C 0.66401 0.92629 0.07658 0.0
C19 C 0.71175 0.96955 0.08872 0.0
C20 C 0.68916 0.02521 0.06733 0.0
N21 N 0.50352 0.08206 0.04666 0.0
C22 C 0.40673 0.07986 0.10696 0.0
C23 C 0.47756 0.06807 0.11924 0.0
C24 C 0.52504 0.07051 0.08875 0.0
C25 C 0.38523 0.09396 0.06418 0.0
C26 C 0.43417 0.09416 0.03465 0.0
N27 N 0.63891 0.07888 0.96214 0.0
C28 C 0.71244 0.02148 0.92234 0.0
C29 C 0.73859 0.07616 0.90399 0.0
C30 C 0.71344 0.13225 0.9147 0.0
C31 C 0.66357 0.13262 0.94382 0.0
C32 C 0.66264 0.02383 0.95129 0.0
H33 H 0.64561 0.17646 0.95174 0.0
H34 H 0.64406 0.98095 0.96518 0.0
H35 H 0.57888 0.06221 0.09958 0.0
H36 H 0.41523 0.10409 0.00223 0.0
C37 C 0.55446 0.23011 1.00094 0.0
C38 C 0.72064 0.08442 0.07638 0.0
C39 C 0.44444 0.07598 0.91748 0.0
C40 C 0.55978 0.93149 0.02505 0.0
H41 H 0.75023 0.20972 0.09316 0.0
H42 H 0.65553 0.28968 0.05487 0.0
H43 H 0.45508 0.28397 0.93569 0.0
H44 H 0.39982 0.19933 0.88783 0.0
H45 H 0.40491 0.95054 0.90778 0.0
H46 H 0.46197 0.87151 0.96942 0.0
H47 H 0.66516 0.87758 0.08665 0.0
H48 H 0.7569 0.96142 0.11163 0.0
H49 H 0.49603 0.05706 0.15218 0.0
H50 H 0.33062 0.10346 0.05356 0.0
H51 H 0.73114 0.97731 0.91476 0.0
H52 H 0.73295 0.1754 0.90109 0.0
C53 C 0.13606 0.47919 0.57024 0.0
C54 C 0.20044 0.45297 0.58571 0.0
C55 C 0.25026 0.48717 0.56703 0.0
C56 C 0.21368 0.53162 0.54094 0.0
N57 N 0.1435 0.52871 0.54228 0.0
Co58 Co 0.07082 0.57809 0.50426 0.0
N59 N 0.14418 0.62662 0.47541 0.0
C60 C 0.2143 0.62234 0.48517 0.0
C61 C 0.25138 0.66631 0.4637 0.0
C62 C 0.20197 0.70167 0.43922 0.0
C63 C 0.13732 0.67657 0.44685 0.0
N64 N 0.99822 0.62444 0.46441 0.0
C65 C 0.00541 0.67057 0.43388 0.0
C66 C 0.9413 0.68825 0.4123 0.0
C67 C 0.89169 0.65303 0.43057 0.0
C68 C 0.92821 0.61562 0.46187 0.0
N69 N 0.99747 0.53275 0.53503 0.0
C70 C 0.92744 0.54208 0.5285 0.0
C71 C 0.8903 0.5056 0.55543 0.0
C72 C 0.93952 0.47049 0.58041 0.0
C73 C 0.00405 0.48722 0.56689 0.0
N74 N 0.07029 0.64285 0.54434 0.0
C75 C 0.07102 0.74042 0.5966 0.0
C76 C 0.00989 0.7249 0.5727 0.0
C77 C 0.01047 0.67596 0.54732 0.0
C78 C 0.13157 0.70579 0.59468 0.0
C79 C 0.13015 0.65759 0.56841 0.0
N80 N 0.0712 0.51328 0.46411 0.0
C81 C 0.0121 0.43118 0.42876 0.0
C82 C 0.07316 0.41624 0.41146 0.0
C83 C 0.13304 0.45109 0.42026 0.0
C84 C 0.13106 0.49891 0.44665 0.0
C85 C 0.01201 0.4799 0.45436 0.0
H86 H 0.17874 0.52323 0.45269 0.0
H87 H 0.96338 0.48927 0.46609 0.0
H88 H 0.9619 0.66622 0.53011 0.0
H89 H 0.17823 0.63329 0.56778 0.0
C90 C 0.24362 0.57665 0.51481 0.0
C91 C 0.06934 0.45525 0.58295 0.0
C92 C 0.07089 0.70201 0.42639 0.0
C93 C 0.89804 0.57887 0.49322 0.0
H94 H 0.21055 0.41287 0.60788 0.0
H95 H 0.3064 0.47986 0.57141 0.0
H96 H 0.30758 0.6726 0.46614 0.0
H97 H 0.2125 0.74179 0.41848 0.0
H98 H 0.93122 0.72447 0.38705 0.0
H99 H 0.83545 0.65644 0.42328 0.0
H100 H 0.83398 0.50284 0.55561 0.0
H101 H 0.92894 0.43491 0.60471 0.0
H102 H 0.96178 0.75049 0.57367 0.0
H103 H 0.17989 0.7163 0.61309 0.0
H104 H 0.96445 0.40545 0.42233 0.0
H105 H 0.18129 0.44106 0.40709 0.0
O106 O 0.97848 0.03011 0.22204 0.0
Cd107 Cd 0.06917 0.01037 0.26132 0.0
Cd108 Cd 0.07336 0.14203 0.25364 0.0
O109 O 0.98248 0.13205 0.21523 0.0
O110 O 0.06189 0.91895 0.27159 0.0
O111 O 0.07384 0.97981 0.32331 0.0
C112 C 0.06807 0.92474 0.3115 0.0
C113 C 0.0748 0.2173 0.30174 0.0
C114 C 0.95355 0.08185 0.20617 0.0
C115 C 0.18891 0.07284 0.22027 0.0
O116 O 0.16318 0.12463 0.22631 0.0
O117 O 0.16095 0.02275 0.23326 0.0
O118 O 0.07814 0.23171 0.26203 0.0
O119 O 0.07133 0.15962 0.31457 0.0
O120 O 0.98316 0.12805 0.78028 0.0
Cd121 Cd 0.07179 0.14909 0.74997 0.0
Cd122 Cd 0.07685 0.01668 0.75302 0.0
O123 O 0.98929 0.0262 0.78512 0.0
O124 O 0.06372 0.24052 0.73894 0.0
O125 O 0.07226 0.17927 0.68828 0.0
C126 C 0.06754 0.23448 0.69951 0.0
C127 C 0.07329 0.94107 0.705 0.0
C128 C 0.95991 0.0757 0.79279 0.0
C129 C 0.19913 0.08345 0.79574 0.0
O130 O 0.17291 0.03283 0.78523 0.0
O131 O 0.16694 0.13426 0.78553 0.0
O132 O 0.08112 0.92688 0.74515 0.0
O133 O 0.0672 0.99866 0.6917 0.0
C134 C 0.30011 0.03125 0.13453 0.0
C135 C 0.35438 0.07516 0.13838 0.0
C136 C 0.30772 0.10811 0.20159 0.0
C137 C 0.24775 0.07113 0.19359 0.0
N138 N 0.17979 0.00902 0.14525 0.0
N139 N 0.40332 0.16314 0.1716 0.0
C140 C 0.24197 0.0355 0.15822 0.0
C141 C 0.35669 0.11571 0.17094 0.0
N142 N 0.30448 0.98478 0.1088 0.0
N143 N 0.31893 0.13463 0.23884 0.0
H144 H 0.43877 0.17147 0.14905 0.0
H145 H 0.40225 0.19761 0.19216 0.0
H146 H 0.28528 0.12846 0.2626 0.0
H147 H 0.36512 0.15727 0.24788 0.0
H148 H 0.26916 0.94842 0.10802 0.0
H149 H 0.34735 0.97896 0.09176 0.0
H150 H 0.17177 0.98791 0.11715 0.0
H151 H 0.13385 0.01418 0.15956 0.0
C152 C 0.09688 0.39922 0.6551 0.0
C153 C 0.06801 0.39826 0.61267 0.0
C154 C 0.03116 0.2916 0.62799 0.0
C155 C 0.06879 0.28998 0.66873 0.0
N156 N 0.15511 0.33896 0.71518 0.0
N157 N 0.02007 0.33932 0.55624 0.0
C158 C 0.10656 0.34293 0.68076 0.0
C159 C 0.03906 0.34306 0.59828 0.0
N160 N 0.11485 0.45381 0.67106 0.0
N161 N 0.98482 0.24617 0.61822 0.0
H162 H 0.02545 0.37592 0.53351 0.0
H163 H 0.00514 0.29821 0.54367 0.0
H164 H 0.97348 0.20978 0.63977 0.0
H165 H 0.95165 0.24849 0.59027 0.0
H166 H 0.13013 0.45722 0.70299 0.0
H167 H 0.10805 0.49617 0.65323 0.0
H168 H 0.18791 0.37531 0.72288 0.0
H169 H 0.16911 0.29755 0.73276 0.0
C170 C 0.85014 0.0816 0.09852 0.0
C171 C 0.78077 0.08601 0.10978 0.0
C172 C 0.82472 0.08359 0.18473 0.0
C173 C 0.89402 0.08335 0.17319 0.0
N174 N 0.97467 0.08954 0.11958 0.0
N175 N 0.70195 0.10233 0.16241 0.0
C176 C 0.90733 0.08454 0.13016 0.0
C177 C 0.76797 0.09013 0.15259 0.0
N178 N 0.8611 0.07343 0.05769 0.0
N179 N 0.81317 0.07639 0.22644 0.0
H180 H 0.6592 0.10846 0.13983 0.0
H181 H 0.69046 0.11224 0.19228 0.0
H182 H 0.85368 0.07334 0.25084 0.0
H183 H 0.7639 0.06878 0.23691 0.0
H184 H 0.9097 0.06292 0.04813 0.0
H185 H 0.82051 0.07339 0.03345 0.0
H186 H 0.9876 0.09749 0.0887 0.0
H187 H 0.01807 0.08982 0.14195 0.0
C188 C 0.03181 0.78838 0.6593 0.0
C189 C 0.07113 0.79258 0.6238 0.0
C190 C 0.11517 0.8934 0.64245 0.0
C191 C 0.0704 0.89179 0.67545 0.0
N192 N 0.97344 0.84389 0.70832 0.0
N193 N 0.13853 0.85467 0.57632 0.0
C194 C 0.02506 0.84098 0.68191 0.0
C195 C 0.10937 0.84681 0.61377 0.0
N196 N 0.00276 0.73359 0.67235 0.0
N197 N 0.16574 0.93739 0.63966 0.0
H198 H 0.13475 0.82196 0.55426 0.0
H199 H 0.16065 0.89597 0.56543 0.0
H200 H 0.1735 0.97123 0.66072 0.0
H201 H 0.20445 0.93666 0.61898 0.0
H202 H 0.97986 0.72635 0.70062 0.0
H203 H 0.0075 0.6936 0.65712 0.0
H204 H 0.93469 0.81063 0.71098 0.0
H205 H 0.96456 0.88266 0.72406 0.0
C206 C 0.39032 0.08112 0.8419 0.0
C207 C 0.38165 0.07464 0.8857 0.0
C208 C 0.25395 0.07966 0.86976 0.0
C209 C 0.26246 0.0819 0.82611 0.0
N210 N 0.3368 0.07734 0.76995 0.0
N211 N 0.30521 0.05446 0.94117 0.0
C212 C 0.33019 0.08039 0.81193 0.0
C213 C 0.31346 0.07015 0.89961 0.0
N214 N 0.45596 0.08899 0.82909 0.0
N215 N 0.18887 0.08748 0.88277 0.0
H216 H 0.34691 0.04522 0.96407 0.0
H217 H 0.25705 0.04395 0.95239 0.0
H218 H 0.14332 0.09235 0.86207 0.0
H219 H 0.18046 0.09416 0.91377 0.0
H220 H 0.46557 0.10068 0.79791 0.0
H221 H 0.50118 0.08728 0.85016 0.0
H222 H 0.38419 0.06962 0.75789 0.0
H223 H 0.29378 0.0787 0.74721 0.0
C224 C 0.11438 0.3109 0.39707 0.0
C225 C 0.07374 0.36471 0.38374 0.0
C226 C 0.0255 0.31666 0.32077 0.0
C227 C 0.07292 0.26642 0.33119 0.0
N228 N 0.17223 0.22172 0.37577 0.0
N229 N 0.0011 0.42363 0.32861 0.0
C230 C 0.11997 0.26496 0.3685 0.0
C231 C 0.03228 0.369 0.34432 0.0
N232 N 0.14594 0.30269 0.43741 0.0
N233 N 0.97184 0.31339 0.28959 0.0
H234 H 0.00598 0.46353 0.34443 0.0
H235 H 0.97631 0.43089 0.29808 0.0
H236 H 0.96268 0.27465 0.27292 0.0
H237 H 0.93188 0.34622 0.28357 0.0
H238 H 0.17007 0.26154 0.45012 0.0
H239 H 0.14226 0.33479 0.45949 0.0
H240 H 0.21226 0.22265 0.40021 0.0
H241 H 0.17981 0.18847 0.35508 0.0
C242 C 0.77784 0.08504 0.83078 0.0
C243 C 0.79472 0.0746 0.87509 0.0
C244 C 0.91811 0.05765 0.86469 0.0
C245 C 0.90223 0.07282 0.82062 0.0
N246 N 0.81938 0.10674 0.76159 0.0
N247 N 0.88125 0.05946 0.93511 0.0
C248 C 0.8327 0.08829 0.80362 0.0
C249 C 0.86495 0.06292 0.89229 0.0
N250 N 0.70915 0.09001 0.81469 0.0
N251 N 0.98411 0.03812 0.8802 0.0
H252 H 0.84377 0.06261 0.95639 0.0
H253 H 0.93226 0.05827 0.94963 0.0
H254 H 0.02569 0.03677 0.86158 0.0
H255 H 0.99693 0.01927 0.91105 0.0
H256 H 0.69255 0.09117 0.78264 0.0
H257 H 0.6678 0.08846 0.83369 0.0
H258 H 0.77177 0.1255 0.74799 0.0
H259 H 0.85753 0.10663 0.74045 0.0
C260 C 0.09839 0.75922 0.35798 0.0
C261 C 0.07003 0.75972 0.39723 0.0
C262 C 0.0338 0.8673 0.37903 0.0
C263 C 0.07046 0.86904 0.34229 0.0
N264 N 0.15532 0.81973 0.30458 0.0
N265 N 0.02334 0.81798 0.44909 0.0
C266 C 0.10772 0.81581 0.33386 0.0
C267 C 0.04175 0.81501 0.40906 0.0
N268 N 0.11596 0.70476 0.34347 0.0
N269 N 0.98821 0.91345 0.38428 0.0
H270 H 0.0286 0.78068 0.47198 0.0
H271 H 0.00902 0.85896 0.46058 0.0
H272 H 0.97699 0.95068 0.36194 0.0
H273 H 0.95556 0.91117 0.40859 0.0
H274 H 0.13069 0.70174 0.31316 0.0
H275 H 0.10944 0.66219 0.36019 0.0
H276 H 0.18789 0.78315 0.30006 0.0
H277 H 0.16876 0.86123 0.28873 0.0
loop_
_geom_bond_atom_site_label_1
_geom_bond_atom_site_label_2
_geom_bond_distance
_geom_bond_site_symmetry_2
_ccdc_geom_bond_type
C0 C1 1.443 . S
C0 N4 1.376 . S
C0 C38 1.389 . S
C1 C0 1.443 . S
C1 C2 1.340 . S
C1 H41 0.951 . S
C2 C1 1.340 . S
C2 C3 1.439 . S
C2 H42 0.950 . S
C3 C2 1.439 . S
C3 N4 1.374 . S
C3 C37 1.395 1_554 S
N4 C0 1.376 . S
N4 C3 1.374 . S
N4 Co5 2.008 . S
Co5 N4 2.008 . S
Co5 N6 1.995 1_554 S
Co5 N11 2.008 1_554 S
Co5 N16 1.995 . S
Co5 N21 2.282 . S
Co5 N27 2.282 1_554 S
N6 Co5 1.995 1_556 S
N6 C7 1.376 . S
N6 C10 1.383 . S
C7 N6 1.376 . S
C7 C8 1.446 . S
C7 C37 1.391 . S
C8 C7 1.446 . S
C8 C9 1.339 . S
C8 H43 0.949 . S
C9 C8 1.339 . S
C9 C10 1.439 . S
C9 H44 0.950 . S
C10 N6 1.383 . S
C10 C9 1.439 . S
C10 C39 1.392 . S
N11 Co5 2.008 1_556 S
N11 C12 1.376 . S
N11 C15 1.374 1_545 S
C12 N11 1.376 . S
C12 C13 1.443 1_545 S
C12 C39 1.389 . S
C13 C12 1.443 1_565 S
C13 C14 1.340 . S
C13 H45 0.951 . S
C14 C13 1.340 . S
C14 C15 1.439 . S
C14 H46 0.950 . S
C15 N11 1.374 1_565 S
C15 C14 1.439 . S
C15 C40 1.395 1_556 S
N16 Co5 1.995 . S
N16 C17 1.376 1_545 S
N16 C20 1.383 . S
C17 N16 1.376 1_565 S
C17 C18 1.446 . S
C17 C40 1.391 . S
C18 C17 1.446 . S
C18 C19 1.339 . S
C18 H47 0.949 . S
C19 C18 1.339 . S
C19 C20 1.439 1_565 S
C19 H48 0.950 . S
C20 N16 1.383 . S
C20 C19 1.439 1_545 S
C20 C38 1.392 . S
N21 Co5 2.282 . S
N21 C24 1.332 . S
N21 C26 1.332 . S
C22 C23 1.386 . S
C22 C25 1.388 . S
C23 C22 1.386 . S
C23 C24 1.382 . S
C23 H49 0.950 1_545 S
C24 N21 1.332 . S
C24 C23 1.382 . S
C24 H35 0.952 . S
C25 C22 1.388 . S
C25 C26 1.382 . S
C25 H50 0.950 . S
C26 N21 1.332 . S
C26 C25 1.382 . S
C26 H36 0.948 . S
N27 Co5 2.282 1_556 S
N27 C31 1.332 . S
N27 C32 1.332 . S
C28 C29 1.388 . S
C28 C32 1.382 . S
C28 H51 0.950 . S
C29 C28 1.388 . S
C29 C30 1.386 . S
C30 C29 1.386 . S
C30 C31 1.382 . S
C30 H52 0.950 . S
C31 N27 1.332 . S
C31 C30 1.382 . S
C31 H33 0.952 . S
C32 N27 1.332 . S
C32 C28 1.382 . S
C32 H34 0.941 1_545 S
H33 C31 0.952 . S
H34 C32 0.941 1_565 S
H35 C24 0.952 . S
H36 C26 0.948 . S
C37 C3 1.395 1_556 S
C37 C7 1.391 . S
C38 C0 1.389 . S
C38 C20 1.392 . S
C39 C10 1.392 . S
C39 C12 1.389 . S
C40 C15 1.395 1_554 S
C40 C17 1.391 . S
H41 C1 0.951 . S
H42 C2 0.950 . S
H43 C8 0.949 . S
H44 C9 0.950 . S
H45 C13 0.951 . S
H46 C14 0.950 . S
H47 C18 0.949 . S
H48 C19 0.950 . S
H49 C23 0.950 1_565 S
H50 C25 0.950 . S
H51 C28 0.950 . S
H52 C30 0.950 . S
C53 C54 1.443 . S
C53 N57 1.376 . S
C53 C91 1.389 . S
C54 C53 1.443 . S
C54 C55 1.340 . S
C54 H94 0.951 . S
C55 C54 1.340 . S
C55 C56 1.439 . S
C55 H95 0.950 . S
C56 C55 1.439 . S
C56 N57 1.374 . S
C56 C90 1.395 . S
N57 C53 1.376 . S
N57 C56 1.374 . S
N57 Co58 2.008 . S
Co58 N57 2.008 . S
Co58 N59 1.995 . S
Co58 N64 2.008 . S
Co58 N69 1.995 . S
Co58 N74 2.282 . S
Co58 N80 2.282 . S
N59 Co58 1.995 . S
N59 C60 1.376 . S
N59 C63 1.383 . S
C60 N59 1.376 . S
C60 C61 1.446 . S
C60 C90 1.391 . S
C61 C60 1.446 . S
C61 C62 1.339 . S
C61 H96 0.949 . S
C62 C61 1.339 . S
C62 C63 1.439 . S
C62 H97 0.950 . S
C63 N59 1.383 . S
C63 C62 1.439 . S
C63 C92 1.392 . S
N64 Co58 2.008 . S
N64 C65 1.376 . S
N64 C68 1.374 1_455 S
C65 N64 1.376 . S
C65 C66 1.443 1_455 S
C65 C92 1.389 . S
C66 C65 1.443 1_655 S
C66 C67 1.340 . S
C66 H98 0.951 . S
C67 C66 1.340 . S
C67 C68 1.439 . S
C67 H99 0.950 . S
C68 N64 1.374 1_655 S
C68 C67 1.439 . S
C68 C93 1.395 . S
N69 Co58 1.995 . S
N69 C70 1.376 1_455 S
N69 C73 1.383 . S
C70 N69 1.376 1_655 S
C70 C71 1.446 . S
C70 C93 1.391 . S
C71 C70 1.446 . S
C71 C72 1.339 . S
C71 H100 0.949 . S
C72 C71 1.339 . S
C72 C73 1.439 1_655 S
C72 H101 0.950 . S
C73 N69 1.383 . S
C73 C72 1.439 1_455 S
C73 C91 1.392 . S
N74 Co58 2.282 . S
N74 C77 1.332 . S
N74 C79 1.332 . S
C75 C76 1.386 . S
C75 C78 1.388 . S
C76 C75 1.386 . S
C76 C77 1.382 . S
C76 H102 0.950 1_455 S
C77 N74 1.332 . S
C77 C76 1.382 . S
C77 H88 0.952 1_455 S
C78 C75 1.388 . S
C78 C79 1.382 . S
C78 H103 0.950 . S
C79 N74 1.332 . S
C79 C78 1.382 . S
C79 H89 0.948 . S
N80 Co58 2.282 . S
N80 C84 1.332 . S
N80 C85 1.332 . S
C81 C82 1.388 . S
C81 C85 1.382 . S
C81 H104 0.950 1_455 S
C82 C81 1.388 . S
C82 C83 1.386 . S
C83 C82 1.386 . S
C83 C84 1.382 . S
C83 H105 0.950 . S
C84 N80 1.332 . S
C84 C83 1.382 . S
C84 H86 0.952 . S
C85 N80 1.332 . S
C85 C81 1.382 . S
C85 H87 0.948 1_455 S
H86 C84 0.952 . S
H87 C85 0.948 1_655 S
H88 C77 0.952 1_655 S
H89 C79 0.948 . S
C90 C56 1.395 . S
C90 C60 1.391 . S
C91 C53 1.389 . S
C91 C73 1.392 . S
C92 C63 1.392 . S
C92 C65 1.389 . S
C93 C68 1.395 . S
C93 C70 1.391 . S
H94 C54 0.951 . S
H95 C55 0.950 . S
H96 C61 0.949 . S
H97 C62 0.950 . S
H98 C66 0.951 . S
H99 C67 0.950 . S
H100 C71 0.949 . S
H101 C72 0.950 . S
H102 C76 0.950 1_655 S
H103 C78 0.950 . S
H104 C81 0.950 1_655 S
H105 C83 0.950 . S
O106 Cd107 2.223 . S
O106 C114 1.315 1_465 S
Cd107 O106 2.223 . S
Cd107 O110 2.297 . S
Cd107 O111 2.439 . S
Cd107 O117 2.240 1_565 S
Cd108 O109 2.240 1_455 S
Cd108 O116 2.223 . S
Cd108 O118 2.297 . S
Cd108 O119 2.439 . S
O109 Cd108 2.240 1_655 S
O109 C114 1.279 . S
O110 Cd107 2.297 . S
O110 C112 1.247 . S
O111 Cd107 2.439 . S
O111 C112 1.208 . S
C112 O110 1.247 . S
C112 O111 1.208 . S
C113 O118 1.247 . S
C113 O119 1.208 . S
C114 O106 1.315 1_645 S
C114 O109 1.279 . S
C115 O116 1.315 . S
C115 O117 1.279 . S
O116 Cd108 2.223 . S
O116 C115 1.315 . S
O117 Cd107 2.240 1_545 S
O117 C115 1.279 . S
O118 Cd108 2.297 . S
O118 C113 1.247 . S
O119 Cd108 2.439 . S
O119 C113 1.208 . S
O120 Cd121 2.223 . S
O120 C128 1.315 . S
Cd121 O120 2.223 . S
Cd121 O124 2.297 . S
Cd121 O125 2.439 . S
Cd121 O131 2.240 . S
Cd122 O123 2.226 1_565 S
Cd122 O130 2.220 1_565 S
Cd122 O132 2.309 . S
Cd122 O133 2.439 1_565 S
O123 Cd122 2.226 1_545 S
O123 C128 1.279 . S
O124 Cd121 2.297 . S
O124 C126 1.247 . S
O125 Cd121 2.439 . S
O125 C126 1.208 . S
C126 O124 1.247 . S
C126 O125 1.208 . S
C127 O132 1.247 . S
C127 O133 1.208 1_565 S
C128 O120 1.315 . S
C128 O123 1.279 . S
C129 O130 1.327 . S
C129 O131 1.279 . S
O130 Cd122 2.220 1_545 S
O130 C129 1.327 . S
O131 Cd121 2.240 . S
O131 C129 1.279 . S
O132 Cd122 2.309 . S
O132 C127 1.247 . S
O133 Cd122 2.439 1_545 S
O133 C127 1.208 1_545 S
C134 C135 1.363 . S
C134 C140 1.379 . S
C134 N142 1.356 1_545 S
C135 C134 1.363 . S
C135 C141 1.363 . S
C136 C137 1.363 . S
C136 C141 1.379 . S
C136 N143 1.356 . S
C137 C136 1.363 . S
C137 C140 1.363 . S
N138 C140 1.361 . S
N138 H150 0.977 1_545 S
N138 H151 0.988 . S
N139 C141 1.356 . S
N139 H144 0.984 . S
N139 H145 0.985 . S
C140 C134 1.379 . S
C140 C137 1.363 . S
C140 N138 1.361 . S
C141 C135 1.363 . S
C141 C136 1.379 . S
C141 N139 1.356 . S
N142 C134 1.356 1_565 S
N142 H148 0.984 . S
N142 H149 0.984 1_565 S
N143 C136 1.356 . S
N143 H146 0.984 . S
N143 H147 0.985 . S
H144 N139 0.984 . S
H145 N139 0.985 . S
H146 N143 0.984 . S
H147 N143 0.985 . S
H148 N142 0.984 . S
H149 N142 0.984 1_545 S
H150 N138 0.977 1_565 S
H151 N138 0.988 . S
C152 C153 1.363 . S
C152 C158 1.379 . S
C152 N160 1.356 . S
C153 C152 1.363 . S
C153 C159 1.363 . S
C154 C155 1.363 1_655 S
C154 C159 1.379 1_655 S
C154 N161 1.356 . S
C155 C154 1.363 1_455 S
C155 C158 1.363 . S
N156 C158 1.356 . S
N156 H168 0.984 . S
N156 H169 0.985 . S
N157 C159 1.356 1_655 S
N157 H162 0.984 1_655 S
N157 H163 0.985 . S
C158 C152 1.379 . S
C158 C155 1.363 . S
C158 N156 1.356 . S
C159 C153 1.363 . S
C159 C154 1.379 1_455 S
C159 N157 1.356 1_455 S
N160 C152 1.356 . S
N160 H166 0.984 . S
N160 H167 0.984 . S
N161 C154 1.356 . S
N161 H164 0.984 . S
N161 H165 0.985 . S
H162 N157 0.984 1_455 S
H163 N157 0.985 . S
H164 N161 0.984 . S
H165 N161 0.985 . S
H166 N160 0.984 . S
H167 N160 0.984 . S
H168 N156 0.984 . S
H169 N156 0.985 . S
C170 C171 1.363 . S
C170 C176 1.379 . S
C170 N178 1.356 . S
C171 C170 1.363 . S
C171 C177 1.363 . S
C172 C173 1.367 . S
C172 C177 1.380 . S
C172 N179 1.351 1_545 S
C173 C172 1.367 . S
C173 C176 1.363 . S
N174 C176 1.356 . S
N174 H186 0.984 . S
N174 H187 0.985 . S
N175 C177 1.356 1_565 S
N175 H180 0.984 1_565 S
N175 H181 0.985 . S
C176 C170 1.379 . S
C176 C173 1.363 . S
C176 N174 1.356 . S
C177 C171 1.363 . S
C177 C172 1.380 . S
C177 N175 1.356 1_545 S
N178 C170 1.356 . S
N178 H184 0.984 . S
N178 H185 0.984 . S
N179 C172 1.351 1_565 S
N179 H182 0.984 . S
N179 H183 0.985 . S
H180 N175 0.984 1_545 S
H181 N175 0.985 . S
H182 N179 0.984 . S
H183 N179 0.985 . S
H184 N178 0.984 . S
H185 N178 0.984 . S
H186 N174 0.984 . S
H187 N174 0.985 . S
C188 C189 1.363 . S
C188 C194 1.379 . S
C188 N196 1.356 . S
C189 C188 1.363 . S
C189 C195 1.363 . S
C190 C191 1.363 . S
C190 C195 1.379 . S
C190 N197 1.356 . S
C191 C190 1.363 . S
C191 C194 1.363 . S
N192 C194 1.356 . S
N192 H204 0.984 . S
N192 H205 0.985 . S
N193 C195 1.356 . S
N193 H198 0.984 . S
N193 H199 0.985 . S
C194 C188 1.379 . S
C194 C191 1.363 . S
C194 N192 1.356 . S
C195 C189 1.363 . S
C195 C190 1.379 . S
C195 N193 1.356 . S
N196 C188 1.356 . S
N196 H202 0.984 1_455 S
N196 H203 0.984 . S
N197 C190 1.356 . S
N197 H200 0.984 . S
N197 H201 0.985 . S
H198 N193 0.984 . S
H199 N193 0.985 . S
H200 N197 0.984 . S
H201 N197 0.985 . S
H202 N196 0.984 1_655 S
H203 N196 0.984 . S
H204 N192 0.984 . S
H205 N192 0.985 . S
C206 C207 1.363 . S
C206 C212 1.379 . S
C206 N214 1.356 . S
C207 C206 1.363 . S
C207 C213 1.363 . S
C208 C209 1.363 . S
C208 C213 1.379 . S
C208 N215 1.356 . S
C209 C208 1.363 . S
C209 C212 1.363 . S
N210 C212 1.356 1_565 S
N210 H222 0.984 . S
N210 H223 0.985 . S
N211 C213 1.356 . S
N211 H216 0.984 . S
N211 H217 0.985 . S
C212 C206 1.379 . S
C212 C209 1.363 . S
C212 N210 1.356 1_545 S
C213 C207 1.363 . S
C213 C208 1.379 . S
C213 N211 1.356 . S
N214 C206 1.356 . S
N214 H220 0.984 1_545 S
N214 H221 0.984 . S
N215 C208 1.356 . S
N215 H218 0.984 . S
N215 H219 0.985 . S
H216 N211 0.984 . S
H217 N211 0.985 . S
H218 N215 0.984 . S
H219 N215 0.985 . S
H220 N214 0.984 1_565 S
H221 N214 0.984 . S
H222 N210 0.984 . S
H223 N210 0.985 . S
C224 C225 1.363 . S
C224 C230 1.379 . S
C224 N232 1.356 . S
C225 C224 1.363 . S
C225 C231 1.363 . S
C226 C227 1.363 . S
C226 C231 1.379 . S
C226 N233 1.356 . S
C227 C226 1.363 . S
C227 C230 1.363 . S
N228 C230 1.356 . S
N228 H240 0.984 . S
N228 H241 0.985 . S
N229 C231 1.356 . S
N229 H234 0.984 . S
N229 H235 0.985 1_455 S
C230 C224 1.379 . S
C230 C227 1.363 . S
C230 N228 1.356 . S
C231 C225 1.363 . S
C231 C226 1.379 . S
C231 N229 1.356 . S
N232 C224 1.356 . S
N232 H238 0.984 . S
N232 H239 0.984 . S
N233 C226 1.356 . S
N233 H236 0.984 . S
N233 H237 0.985 1_455 S
H234 N229 0.984 . S
H235 N229 0.985 1_655 S
H236 N233 0.984 . S
H237 N233 0.985 1_655 S
H238 N232 0.984 . S
H239 N232 0.984 . S
H240 N228 0.984 . S
H241 N228 0.985 . S
C242 C243 1.363 . S
C242 C248 1.379 . S
C242 N250 1.356 . S
C243 C242 1.363 . S
C243 C249 1.363 . S
C244 C245 1.363 . S
C244 C249 1.379 . S
C244 N251 1.356 1_655 S
C245 C244 1.363 . S
C245 C248 1.363 . S
N246 C248 1.356 . S
N246 H258 0.984 . S
N246 H259 0.985 . S
N247 C249 1.356 . S
N247 H252 0.984 . S
N247 H253 0.985 1_545 S
C248 C242 1.379 . S
C248 C245 1.363 . S
C248 N246 1.356 . S
C249 C243 1.363 . S
C249 C244 1.379 . S
C249 N247 1.356 . S
N250 C242 1.356 . S
N250 H256 0.984 . S
N250 H257 0.984 . S
N251 C244 1.356 1_455 S
N251 H254 0.984 . S
N251 H255 0.985 1_545 S
H252 N247 0.984 . S
H253 N247 0.985 1_565 S
H254 N251 0.984 . S
H255 N251 0.985 1_565 S
H256 N250 0.984 . S
H257 N250 0.984 . S
H258 N246 0.984 . S
H259 N246 0.985 . S
C260 C261 1.363 . S
C260 C266 1.379 . S
C260 N268 1.356 . S
C261 C260 1.363 . S
C261 C267 1.363 . S
C262 C263 1.363 . S
C262 C267 1.379 . S
C262 N269 1.356 1_455 S
C263 C262 1.363 . S
C263 C266 1.363 . S
N264 C266 1.356 . S
N264 H276 0.984 . S
N264 H277 0.985 . S
N265 C267 1.356 . S
N265 H270 0.984 . S
N265 H271 0.985 1_455 S
C266 C260 1.379 . S
C266 C263 1.363 . S
C266 N264 1.356 . S
C267 C261 1.363 . S
C267 C262 1.379 . S
C267 N265 1.356 . S
N268 C260 1.356 . S
N268 H274 0.984 . S
N268 H275 0.984 . S
N269 C262 1.356 1_655 S
N269 H272 0.984 . S
N269 H273 0.985 . S
H270 N265 0.984 . S
H271 N265 0.985 1_655 S
H272 N269 0.984 . S
H273 N269 0.985 . S
H274 N268 0.984 . S
H275 N268 0.984 . S
H276 N264 0.984 . S
H277 N264 0.985 . S
C137 C115 1.589 . S
C135 C22 1.588 . S
C155 C126 1.537 . S
C153 C91 1.639 . S
C173 C114 1.643 . S
C171 C38 1.636 . S
C191 C127 1.514 . S
C189 C75 1.580 . S
C209 C129 1.642 . S
C207 C39 1.632 . S
C227 C113 1.510 . S
C225 C82 1.587 . S
C245 C128 1.586 1_655 S
C243 C29 1.584 . S
C261 C92 1.630 . S
C263 C112 1.544 . S
