# Generated by pormake.
# Topology gar, (4,6)-cn, num edge types: 1
# Building blocks:
#     Node 0, Type 0, BuildingBlock: GALJAG_clean_sbu_0, # of connection points: 4
#     Node 1, Type 0, BuildingBlock: GALJAG_clean_sbu_0, # of connection points: 4
#     Node 2, Type 0, BuildingBlock: GALJAG_clean_sbu_0, # of connection points: 4
#     Node 3, Type 0, BuildingBlock: GALJAG_clean_sbu_0, # of connection points: 4
#     Node 4, Type 0, BuildingBlock: GALJAG_clean_sbu_0, # of connection points: 4
#     Node 5, Type 0, BuildingBlock: GALJAG_clean_sbu_0, # of connection points: 4
#     Node 6, Type 0, BuildingBlock: GALJAG_clean_sbu_0, # of connection points: 4
#     Node 7, Type 0, BuildingBlock: GALJAG_clean_sbu_0, # of connection points: 4
#     Node 8, Type 0, BuildingBlock: GALJAG_clean_sbu_0, # of connection points: 4
#     Node 9, Type 0, BuildingBlock: GALJAG_clean_sbu_0, # of connection points: 4
#     Node 10, Type 0, BuildingBlock: GALJAG_clean_sbu_0, # of connection points: 4
#     Node 11, Type 0, BuildingBlock: GALJAG_clean_sbu_0, # of connection points: 4
#     Node 12, Type 0, BuildingBlock: GALJAG_clean_sbu_0, # of connection points: 4
#     Node 13, Type 0, BuildingBlock: GALJAG_clean_sbu_0, # of connection points: 4
#     Node 14, Type 0, BuildingBlock: GALJAG_clean_sbu_0, # of connection points: 4
#     Node 15, Type 0, BuildingBlock: GALJAG_clean_sbu_0, # of connection points: 4
#     Node 16, Type 0, BuildingBlock: GALJAG_clean_sbu_0, # of connection points: 4
#     Node 17, Type 0, BuildingBlock: GALJAG_clean_sbu_0, # of connection points: 4
#     Node 18, Type 0, BuildingBlock: GALJAG_clean_sbu_0, # of connection points: 4
#     Node 19, Type 0, BuildingBlock: GALJAG_clean_sbu_0, # of connection points: 4
#     Node 20, Type 0, BuildingBlock: GALJAG_clean_sbu_0, # of connection points: 4
#     Node 21, Type 0, BuildingBlock: GALJAG_clean_sbu_0, # of connection points: 4
#     Node 22, Type 0, BuildingBlock: GALJAG_clean_sbu_0, # of connection points: 4
#     Node 23, Type 0, BuildingBlock: GALJAG_clean_sbu_0, # of connection points: 4
#     Node 24, Type 1, BuildingBlock: BETDEL_clean_sbu_0, # of connection points: 6
#     Node 25, Type 1, BuildingBlock: BETDEL_clean_sbu_0, # of connection points: 6
#     Node 26, Type 1, BuildingBlock: BETDEL_clean_sbu_0, # of connection points: 6
#     Node 27, Type 1, BuildingBlock: BETDEL_clean_sbu_0, # of connection points: 6
#     Node 28, Type 1, BuildingBlock: BETDEL_clean_sbu_0, # of connection points: 6
#     Node 29, Type 1, BuildingBlock: BETDEL_clean_sbu_0, # of connection points: 6
#     Node 30, Type 1, BuildingBlock: BETDEL_clean_sbu_0, # of connection points: 6
#     Node 31, Type 1, BuildingBlock: BETDEL_clean_sbu_0, # of connection points: 6
#     Node 32, Type 1, BuildingBlock: BETDEL_clean_sbu_0, # of connection points: 6
#     Node 33, Type 1, BuildingBlock: BETDEL_clean_sbu_0, # of connection points: 6
#     Node 34, Type 1, BuildingBlock: BETDEL_clean_sbu_0, # of connection points: 6
#     Node 35, Type 1, BuildingBlock: BETDEL_clean_sbu_0, # of connection points: 6
#     Node 36, Type 1, BuildingBlock: BETDEL_clean_sbu_0, # of connection points: 6
#     Node 37, Type 1, BuildingBlock: BETDEL_clean_sbu_0, # of connection points: 6
#     Node 38, Type 1, BuildingBlock: BETDEL_clean_sbu_0, # of connection points: 6
#     Node 39, Type 1, BuildingBlock: BETDEL_clean_sbu_0, # of connection points: 6
#     Edge 40, Type (0, 1), BuildingBlock: KIFKEQ_clean_linker_1, # of connection points: 2
#     Edge 41, Type (0, 1), BuildingBlock: KIFKEQ_clean_linker_1, # of connection points: 2
#     Edge 42, Type (0, 1), BuildingBlock: KIFKEQ_clean_linker_1, # of connection points: 2
#     Edge 43, Type (0, 1), BuildingBlock: KIFKEQ_clean_linker_1, # of connection points: 2
#     Edge 44, Type (0, 1), BuildingBlock: KIFKEQ_clean_linker_1, # of connection points: 2
#     Edge 45, Type (0, 1), BuildingBlock: KIFKEQ_clean_linker_1, # of connection points: 2
#     Edge 46, Type (0, 1), BuildingBlock: KIFKEQ_clean_linker_1, # of connection points: 2
#     Edge 47, Type (0, 1), BuildingBlock: KIFKEQ_clean_linker_1, # of connection points: 2
#     Edge 48, Type (0, 1), BuildingBlock: KIFKEQ_clean_linker_1, # of connection points: 2
#     Edge 49, Type (0, 1), BuildingBlock: KIFKEQ_clean_linker_1, # of connection points: 2
#     Edge 50, Type (0, 1), BuildingBlock: KIFKEQ_clean_linker_1, # of connection points: 2
#     Edge 51, Type (0, 1), BuildingBlock: KIFKEQ_clean_linker_1, # of connection points: 2
#     Edge 52, Type (0, 1), BuildingBlock: KIFKEQ_clean_linker_1, # of connection points: 2
#     Edge 53, Type (0, 1), BuildingBlock: KIFKEQ_clean_linker_1, # of connection points: 2
#     Edge 54, Type (0, 1), BuildingBlock: KIFKEQ_clean_linker_1, # of connection points: 2
#     Edge 55, Type (0, 1), BuildingBlock: KIFKEQ_clean_linker_1, # of connection points: 2
#     Edge 56, Type (0, 1), BuildingBlock: KIFKEQ_clean_linker_1, # of connection points: 2
#     Edge 57, Type (0, 1), BuildingBlock: KIFKEQ_clean_linker_1, # of connection points: 2
#     Edge 58, Type (0, 1), BuildingBlock: KIFKEQ_clean_linker_1, # of connection points: 2
#     Edge 59, Type (0, 1), BuildingBlock: KIFKEQ_clean_linker_1, # of connection points: 2
#     Edge 60, Type (0, 1), BuildingBlock: KIFKEQ_clean_linker_1, # of connection points: 2
#     Edge 61, Type (0, 1), BuildingBlock: KIFKEQ_clean_linker_1, # of connection points: 2
#     Edge 62, Type (0, 1), BuildingBlock: KIFKEQ_clean_linker_1, # of connection points: 2
#     Edge 63, Type (0, 1), BuildingBlock: KIFKEQ_clean_linker_1, # of connection points: 2
#     Edge 64, Type (0, 1), BuildingBlock: KIFKEQ_clean_linker_1, # of connection points: 2
#     Edge 65, Type (0, 1), BuildingBlock: KIFKEQ_clean_linker_1, # of connection points: 2
#     Edge 66, Type (0, 1), BuildingBlock: KIFKEQ_clean_linker_1, # of connection points: 2
#     Edge 67, Type (0, 1), BuildingBlock: KIFKEQ_clean_linker_1, # of connection points: 2
#     Edge 68, Type (0, 1), BuildingBlock: KIFKEQ_clean_linker_1, # of connection points: 2
#     Edge 69, Type (0, 1), BuildingBlock: KIFKEQ_clean_linker_1, # of connection points: 2
#     Edge 70, Type (0, 1), BuildingBlock: KIFKEQ_clean_linker_1, # of connection points: 2
#     Edge 71, Type (0, 1), BuildingBlock: KIFKEQ_clean_linker_1, # of connection points: 2
#     Edge 72, Type (0, 1), BuildingBlock: KIFKEQ_clean_linker_1, # of connection points: 2
#     Edge 73, Type (0, 1), BuildingBlock: KIFKEQ_clean_linker_1, # of connection points: 2
#     Edge 74, Type (0, 1), BuildingBlock: KIFKEQ_clean_linker_1, # of connection points: 2
#     Edge 75, Type (0, 1), BuildingBlock: KIFKEQ_clean_linker_1, # of connection points: 2
#     Edge 76, Type (0, 1), BuildingBlock: KIFKEQ_clean_linker_1, # of connection points: 2
#     Edge 77, Type (0, 1), BuildingBlock: KIFKEQ_clean_linker_1, # of connection points: 2
#     Edge 78, Type (0, 1), BuildingBlock: KIFKEQ_clean_linker_1, # of connection points: 2
#     Edge 79, Type (0, 1), BuildingBlock: KIFKEQ_clean_linker_1, # of connection points: 2
#     Edge 80, Type (0, 1), BuildingBlock: KIFKEQ_clean_linker_1, # of connection points: 2
#     Edge 81, Type (0, 1), BuildingBlock: KIFKEQ_clean_linker_1, # of connection points: 2
#     Edge 82, Type (0, 1), BuildingBlock: KIFKEQ_clean_linker_1, # of connection points: 2
#     Edge 83, Type (0, 1), BuildingBlock: KIFKEQ_clean_linker_1, # of connection points: 2
#     Edge 84, Type (0, 1), BuildingBlock: KIFKEQ_clean_linker_1, # of connection points: 2
#     Edge 85, Type (0, 1), BuildingBlock: KIFKEQ_clean_linker_1, # of connection points: 2
#     Edge 86, Type (0, 1), BuildingBlock: KIFKEQ_clean_linker_1, # of connection points: 2
#     Edge 87, Type (0, 1), BuildingBlock: KIFKEQ_clean_linker_1, # of connection points: 2
#     Edge 88, Type (0, 1), BuildingBlock: KIFKEQ_clean_linker_1, # of connection points: 2
#     Edge 89, Type (0, 1), BuildingBlock: KIFKEQ_clean_linker_1, # of connection points: 2
#     Edge 90, Type (0, 1), BuildingBlock: KIFKEQ_clean_linker_1, # of connection points: 2
#     Edge 91, Type (0, 1), BuildingBlock: KIFKEQ_clean_linker_1, # of connection points: 2
#     Edge 92, Type (0, 1), BuildingBlock: KIFKEQ_clean_linker_1, # of connection points: 2
#     Edge 93, Type (0, 1), BuildingBlock: KIFKEQ_clean_linker_1, # of connection points: 2
#     Edge 94, Type (0, 1), BuildingBlock: KIFKEQ_clean_linker_1, # of connection points: 2
#     Edge 95, Type (0, 1), BuildingBlock: KIFKEQ_clean_linker_1, # of connection points: 2
#     Edge 96, Type (0, 1), BuildingBlock: KIFKEQ_clean_linker_1, # of connection points: 2
#     Edge 97, Type (0, 1), BuildingBlock: KIFKEQ_clean_linker_1, # of connection points: 2
#     Edge 98, Type (0, 1), BuildingBlock: KIFKEQ_clean_linker_1, # of connection points: 2
#     Edge 99, Type (0, 1), BuildingBlock: KIFKEQ_clean_linker_1, # of connection points: 2
#     Edge 100, Type (0, 1), BuildingBlock: KIFKEQ_clean_linker_1, # of connection points: 2
#     Edge 101, Type (0, 1), BuildingBlock: KIFKEQ_clean_linker_1, # of connection points: 2
#     Edge 102, Type (0, 1), BuildingBlock: KIFKEQ_clean_linker_1, # of connection points: 2
#     Edge 103, Type (0, 1), BuildingBlock: KIFKEQ_clean_linker_1, # of connection points: 2
#     Edge 104, Type (0, 1), BuildingBlock: KIFKEQ_clean_linker_1, # of connection points: 2
#     Edge 105, Type (0, 1), BuildingBlock: KIFKEQ_clean_linker_1, # of connection points: 2
#     Edge 106, Type (0, 1), BuildingBlock: KIFKEQ_clean_linker_1, # of connection points: 2
#     Edge 107, Type (0, 1), BuildingBlock: KIFKEQ_clean_linker_1, # of connection points: 2
#     Edge 108, Type (0, 1), BuildingBlock: KIFKEQ_clean_linker_1, # of connection points: 2
#     Edge 109, Type (0, 1), BuildingBlock: KIFKEQ_clean_linker_1, # of connection points: 2
#     Edge 110, Type (0, 1), BuildingBlock: KIFKEQ_clean_linker_1, # of connection points: 2
#     Edge 111, Type (0, 1), BuildingBlock: KIFKEQ_clean_linker_1, # of connection points: 2
#     Edge 112, Type (0, 1), BuildingBlock: KIFKEQ_clean_linker_1, # of connection points: 2
#     Edge 113, Type (0, 1), BuildingBlock: KIFKEQ_clean_linker_1, # of connection points: 2
#     Edge 114, Type (0, 1), BuildingBlock: KIFKEQ_clean_linker_1, # of connection points: 2
#     Edge 115, Type (0, 1), BuildingBlock: KIFKEQ_clean_linker_1, # of connection points: 2
#     Edge 116, Type (0, 1), BuildingBlock: KIFKEQ_clean_linker_1, # of connection points: 2
#     Edge 117, Type (0, 1), BuildingBlock: KIFKEQ_clean_linker_1, # of connection points: 2
#     Edge 118, Type (0, 1), BuildingBlock: KIFKEQ_clean_linker_1, # of connection points: 2
#     Edge 119, Type (0, 1), BuildingBlock: KIFKEQ_clean_linker_1, # of connection points: 2
#     Edge 120, Type (0, 1), BuildingBlock: KIFKEQ_clean_linker_1, # of connection points: 2
#     Edge 121, Type (0, 1), BuildingBlock: KIFKEQ_clean_linker_1, # of connection points: 2
#     Edge 122, Type (0, 1), BuildingBlock: KIFKEQ_clean_linker_1, # of connection points: 2
#     Edge 123, Type (0, 1), BuildingBlock: KIFKEQ_clean_linker_1, # of connection points: 2
#     Edge 124, Type (0, 1), BuildingBlock: KIFKEQ_clean_linker_1, # of connection points: 2
#     Edge 125, Type (0, 1), BuildingBlock: KIFKEQ_clean_linker_1, # of connection points: 2
#     Edge 126, Type (0, 1), BuildingBlock: KIFKEQ_clean_linker_1, # of connection points: 2
#     Edge 127, Type (0, 1), BuildingBlock: KIFKEQ_clean_linker_1, # of connection points: 2
#     Edge 128, Type (0, 1), BuildingBlock: KIFKEQ_clean_linker_1, # of connection points: 2
#     Edge 129, Type (0, 1), BuildingBlock: KIFKEQ_clean_linker_1, # of connection points: 2
#     Edge 130, Type (0, 1), BuildingBlock: KIFKEQ_clean_linker_1, # of connection points: 2
#     Edge 131, Type (0, 1), BuildingBlock: KIFKEQ_clean_linker_1, # of connection points: 2
#     Edge 132, Type (0, 1), BuildingBlock: KIFKEQ_clean_linker_1, # of connection points: 2
#     Edge 133, Type (0, 1), BuildingBlock: KIFKEQ_clean_linker_1, # of connection points: 2
#     Edge 134, Type (0, 1), BuildingBlock: KIFKEQ_clean_linker_1, # of connection points: 2
#     Edge 135, Type (0, 1), BuildingBlock: KIFKEQ_clean_linker_1, # of connection points: 2
# Relax obj value: 0.162
# Max RMSD: 0.265
# Mean RMSD: 0.166
data_MOF--net-gar--node1-GALJAG_clean_sbu_0--node2-BETDEL_clean_sbu_0--edge1-KIFKEQ_clean_linker_1
_symmetry_space_group_name_H-M    P1
_symmetry_Int_Tables_number       1
_symmetry_cell_setting            triclinic
loop_
_symmetry_equiv_pos_as_xyz
'x, y, z'
_cell_length_a     56.956615
_cell_length_b     54.241883
_cell_length_c     55.694198
_cell_angle_alpha  95.122339
_cell_angle_beta   92.205654
_cell_angle_gamma 99.941066
loop_
_atom_site_label
_atom_site_type_symbol
_atom_site_fract_x
_atom_site_fract_y
_atom_site_fract_z
_atom_type_partial_charge
In0 In 0.03937 0.26879 0.39875 0.0
O1 O 0.05487 0.2559 0.36319 0.0
O2 O 0.07916 0.27054 0.39286 0.0
C3 C 0.99761 0.27356 0.37637 0.0
C4 C 0.03342 0.22739 0.42316 0.0
C5 C 0.04508 0.31382 0.4256 0.0
O6 O 0.01766 0.28201 0.36863 0.0
O7 O 0.99858 0.26197 0.39496 0.0
O8 O 0.04009 0.29322 0.43467 0.0
O9 O 0.04802 0.3117 0.40329 0.0
C10 C 0.07635 0.26154 0.37109 0.0
O11 O 0.04914 0.24653 0.42954 0.0
O12 O 0.02101 0.22894 0.40423 0.0
In13 In 0.99921 0.76725 0.63135 0.0
O14 O 0.99695 0.78726 0.59711 0.0
O15 O 0.00944 0.80979 0.62973 0.0
C16 C 0.9955 0.7257 0.59987 0.0
C17 C 0.03961 0.76188 0.6559 0.0
C18 C 0.96223 0.7698 0.66039 0.0
O19 O 0.01331 0.74324 0.60185 0.0
O20 O 0.97876 0.72941 0.61322 0.0
O21 O 0.98253 0.7669 0.6682 0.0
O22 O 0.9605 0.77138 0.63797 0.0
C23 C 0.00474 0.809 0.6073 0.0
O24 O 0.03735 0.78194 0.64686 0.0
O25 O 0.02116 0.74507 0.6535 0.0
In26 In 0.53545 0.76905 0.89875 0.0
O27 O 0.55079 0.75953 0.86237 0.0
O28 O 0.575 0.76819 0.89308 0.0
C29 C 0.49227 0.7734 0.87886 0.0
C30 C 0.53058 0.72732 0.92264 0.0
C31 C 0.54505 0.815 0.92403 0.0
O32 O 0.51161 0.77967 0.86892 0.0
O33 O 0.4945 0.76416 0.89863 0.0
O34 O 0.53813 0.7951 0.93374 0.0
O35 O 0.5478 0.81169 0.90172 0.0
C36 C 0.57212 0.76238 0.87058 0.0
O37 O 0.53996 0.74885 0.93236 0.0
O38 O 0.52383 0.7267 0.90067 0.0
In39 In 0.50242 0.26878 0.13184 0.0
O40 O 0.50501 0.24616 0.09554 0.0
O41 O 0.48719 0.22708 0.12306 0.0
C42 C 0.50743 0.30872 0.10508 0.0
C43 C 0.4673 0.27432 0.16255 0.0
C44 C 0.54314 0.2648 0.15673 0.0
O45 O 0.52501 0.30118 0.11462 0.0
O46 O 0.48741 0.29622 0.10908 0.0
O47 O 0.5374 0.28585 0.15364 0.0
O48 O 0.52817 0.24603 0.14775 0.0
C49 C 0.4943 0.22566 0.10192 0.0
O50 O 0.48874 0.2757 0.16992 0.0
O51 O 0.46374 0.27041 0.14 0.0
In52 In 0.03956 0.7912 0.15014 0.0
O53 O 0.02215 0.75736 0.12417 0.0
O54 O 0.05727 0.75761 0.1385 0.0
C55 C 0.03529 0.82745 0.12033 0.0
C56 C 0.00114 0.78674 0.17757 0.0
C57 C 0.07999 0.8014 0.17908 0.0
O58 O 0.04532 0.80905 0.11434 0.0
O59 O 0.02782 0.82773 0.14129 0.0
O60 O 0.06086 0.78861 0.18511 0.0
O61 O 0.07871 0.80936 0.15855 0.0
C62 C 0.03979 0.74616 0.12498 0.0
O63 O 0.01817 0.80517 0.18083 0.0
O64 O 0.00368 0.77036 0.16076 0.0
In65 In 0.50107 0.75778 0.38428 0.0
O66 O 0.5206 0.74265 0.35244 0.0
O67 O 0.53961 0.77288 0.37619 0.0
C68 C 0.45901 0.75312 0.35855 0.0
C69 C 0.50391 0.71984 0.41235 0.0
C70 C 0.50115 0.80332 0.4084 0.0
O71 O 0.47851 0.75233 0.34876 0.0
O72 O 0.46062 0.75566 0.38133 0.0
O73 O 0.4989 0.7833 0.41865 0.0
O74 O 0.50361 0.80047 0.38595 0.0
C75 C 0.53994 0.75773 0.35772 0.0
O76 O 0.48788 0.71829 0.39574 0.0
O77 O 0.51837 0.74035 0.41471 0.0
In78 In 0.53866 0.28945 0.65185 0.0
O79 O 0.52182 0.2532 0.6291 0.0
O80 O 0.55948 0.26364 0.6297 0.0
C81 C 0.53498 0.32562 0.62196 0.0
C82 C 0.50156 0.28946 0.68106 0.0
C83 C 0.57767 0.2935 0.68225 0.0
O84 O 0.52299 0.30369 0.6182 0.0
O85 O 0.54877 0.32926 0.64068 0.0
O86 O 0.5585 0.27857 0.68468 0.0
O87 O 0.57706 0.30662 0.66472 0.0
C88 C 0.54126 0.24776 0.62212 0.0
O89 O 0.51483 0.30943 0.67648 0.0
O90 O 0.50718 0.26964 0.67119 0.0
In91 In 0.005 0.2586 0.88218 0.0
O92 O 0.9898 0.2317 0.90953 0.0
O93 O 0.02562 0.23204 0.90003 0.0
C94 C 0.00656 0.30236 0.91026 0.0
C95 C 0.04234 0.25847 0.85361 0.0
C96 C 0.96394 0.25401 0.85434 0.0
O97 O 0.00196 0.28125 0.91852 0.0
O98 O 0.01099 0.30134 0.88825 0.0
O99 O 0.97787 0.27447 0.86016 0.0
O100 O 0.97076 0.23517 0.86222 0.0
C101 C 0.00873 0.22285 0.91234 0.0
O102 O 0.02287 0.2433 0.84916 0.0
O103 O 0.04284 0.27357 0.87229 0.0
In104 In 0.41812 0.04302 0.28814 0.0
O105 O 0.43587 0.0601 0.25625 0.0
O106 O 0.43778 0.0219 0.2607 0.0
C107 C 0.4478 0.06093 0.32711 0.0
C108 C 0.38525 0.07229 0.28268 0.0
C109 C 0.39172 0.99703 0.28915 0.0
O110 O 0.45463 0.05063 0.30815 0.0
O111 O 0.42597 0.06236 0.32643 0.0
O112 O 0.38877 0.01134 0.2731 0.0
O113 O 0.40865 0.00556 0.3046 0.0
C114 C 0.44312 0.04034 0.24843 0.0
O115 O 0.3824 0.05429 0.29572 0.0
O116 O 0.40513 0.07617 0.27313 0.0
In117 In 0.27225 0.15162 0.49873 0.0
O118 O 0.27461 0.18638 0.52637 0.0
O119 O 0.2706 0.15064 0.53972 0.0
C120 C 0.27458 0.17662 0.45812 0.0
C121 C 0.31133 0.12885 0.49723 0.0
C122 C 0.22762 0.12408 0.49681 0.0
O123 O 0.28191 0.18712 0.47881 0.0
O124 O 0.26603 0.15355 0.45784 0.0
O125 O 0.24623 0.11441 0.4967 0.0
O126 O 0.23142 0.1478 0.49747 0.0
C127 C 0.27251 0.17406 0.54458 0.0
O128 O 0.29045 0.11737 0.49147 0.0
O129 O 0.31269 0.15198 0.50357 0.0
In130 In 0.14884 0.00723 0.7887 0.0
O131 O 0.11722 0.01621 0.76646 0.0
O132 O 0.14143 0.99712 0.74776 0.0
C133 C 0.12329 0.00144 0.82856 0.0
C134 C 0.17297 0.96799 0.78445 0.0
C135 C 0.17536 0.05435 0.79425 0.0
O136 O 0.11516 0.99197 0.80771 0.0
O137 O 0.14448 0.01335 0.82939 0.0
O138 O 0.18423 0.03516 0.79788 0.0
O139 O 0.15339 0.04974 0.78841 0.0
C140 C 0.12318 0.00727 0.74642 0.0
O141 O 0.1786 0.98757 0.7738 0.0
O142 O 0.15513 0.96808 0.7972 0.0
In143 In 0.25518 0.89589 0.00298 0.0
O144 O 0.23741 0.86358 0.02357 0.0
O145 O 0.26491 0.89107 0.04184 0.0
C146 C 0.25178 0.86842 0.95993 0.0
C147 C 0.22201 0.92555 0.00818 0.0
C148 C 0.30001 0.92051 0.00036 0.0
O149 O 0.25532 0.85935 0.97955 0.0
O150 O 0.24939 0.89121 0.96207 0.0
O151 O 0.28214 0.93124 0.99906 0.0
O152 O 0.29528 0.89736 0.00289 0.0
C153 C 0.25003 0.87116 0.04278 0.0
O154 O 0.24213 0.93052 0.0194 0.0
O155 O 0.21832 0.90525 0.9945 0.0
In156 In 0.26624 0.38578 0.03266 0.0
O157 O 0.25877 0.34875 0.05087 0.0
O158 O 0.26485 0.38302 0.07345 0.0
C159 C 0.26507 0.35779 0.9893 0.0
C160 C 0.23049 0.41334 0.03462 0.0
C161 C 0.31054 0.41453 0.03379 0.0
O162 O 0.28063 0.3577 0.00602 0.0
O163 O 0.24967 0.37116 0.99475 0.0
O164 O 0.29456 0.41512 0.01766 0.0
O165 O 0.30407 0.39987 0.04959 0.0
C166 C 0.26035 0.35933 0.07216 0.0
O167 O 0.25228 0.42327 0.03531 0.0
O168 O 0.22675 0.38962 0.03302 0.0
In169 In 0.78643 0.14975 0.02801 0.0
O170 O 0.80565 0.11996 0.0419 0.0
O171 O 0.80988 0.12766 0.00547 0.0
C172 C 0.74102 0.12518 0.02554 0.0
C173 C 0.79827 0.17879 0.07004 0.0
C174 C 0.78933 0.1815 0.99364 0.0
O175 O 0.75679 0.11778 0.01287 0.0
O176 O 0.74805 0.14521 0.03903 0.0
O177 O 0.80763 0.17544 0.00342 0.0
O178 O 0.76965 0.17133 0.00107 0.0
C179 C 0.81456 0.11472 0.02214 0.0
O180 O 0.80142 0.18722 0.04986 0.0
O181 O 0.79006 0.1556 0.06899 0.0
In182 In 0.1356 0.49948 0.24027 0.0
O183 O 0.16362 0.47895 0.22413 0.0
O184 O 0.15808 0.47727 0.26152 0.0
C185 C 0.16017 0.5468 0.24336 0.0
C186 C 0.10874 0.4817 0.19951 0.0
C187 C 0.10581 0.49918 0.27633 0.0
O188 O 0.16631 0.53 0.25515 0.0
O189 O 0.1412 0.53995 0.23024 0.0
O190 O 0.11533 0.48045 0.26984 0.0
O191 O 0.11111 0.51791 0.26439 0.0
C192 C 0.16984 0.4715 0.24379 0.0
O193 O 0.10127 0.47817 0.22014 0.0
O194 O 0.12969 0.49382 0.19954 0.0
In195 In 0.76884 0.8873 0.5325 0.0
O196 O 0.75875 0.8512 0.55162 0.0
O197 O 0.77213 0.88494 0.57353 0.0
C198 C 0.76901 0.86563 0.48641 0.0
C199 C 0.73116 0.91212 0.53375 0.0
C200 C 0.81405 0.9136 0.53525 0.0
O201 O 0.76626 0.85293 0.50433 0.0
O202 O 0.77111 0.88901 0.49165 0.0
O203 O 0.79578 0.92377 0.5347 0.0
O204 O 0.80966 0.88993 0.53504 0.0
C205 C 0.76423 0.86168 0.5727 0.0
O206 O 0.75225 0.92242 0.54018 0.0
O207 O 0.72879 0.88899 0.5268 0.0
In208 In 0.89033 0.03437 0.24333 0.0
O209 O 0.92003 0.05427 0.22105 0.0
O210 O 0.89694 0.02214 0.20408 0.0
C211 C 0.91483 0.03084 0.28544 0.0
C212 C 0.8671 0.0743 0.24581 0.0
C213 C 0.86234 0.98835 0.2416 0.0
O214 O 0.92322 0.0273 0.26507 0.0
O215 O 0.89455 0.03711 0.28467 0.0
O216 O 0.85416 0.00848 0.24537 0.0
O217 O 0.88438 0.99151 0.23825 0.0
C218 C 0.91476 0.03909 0.20235 0.0
O219 O 0.85782 0.05295 0.23551 0.0
O220 O 0.88818 0.07562 0.25438 0.0
In221 In 0.28891 0.65096 0.53398 0.0
O222 O 0.30466 0.61742 0.54494 0.0
O223 O 0.32155 0.63834 0.51793 0.0
C224 C 0.24702 0.6196 0.53586 0.0
C225 C 0.29786 0.68822 0.57063 0.0
C226 C 0.28574 0.67507 0.4942 0.0
O227 O 0.26017 0.61855 0.51822 0.0
O228 O 0.25515 0.63631 0.55279 0.0
O229 O 0.30561 0.6735 0.50427 0.0
O230 O 0.26773 0.66414 0.50395 0.0
C231 C 0.32092 0.61975 0.53013 0.0
O232 O 0.28362 0.68826 0.55286 0.0
O233 O 0.30795 0.66924 0.57011 0.0
In234 In 0.38722 0.53148 0.74059 0.0
O235 O 0.35249 0.5474 0.73562 0.0
O236 O 0.38418 0.57319 0.74646 0.0
C237 C 0.35874 0.48586 0.73982 0.0
C238 C 0.41459 0.53757 0.70178 0.0
C239 C 0.41313 0.52779 0.78175 0.0
O240 O 0.35992 0.50279 0.7571 0.0
O241 O 0.37138 0.49214 0.7225 0.0
O242 O 0.41495 0.51489 0.76212 0.0
O243 O 0.399 0.5432 0.78037 0.0
C244 C 0.36203 0.57001 0.74143 0.0
O245 O 0.42246 0.54536 0.72311 0.0
O246 O 0.39298 0.52698 0.70004 0.0
In247 In 0.63648 0.00492 0.74218 0.0
O248 O 0.66895 0.98809 0.73149 0.0
O249 O 0.65064 0.97501 0.7617 0.0
C250 C 0.66193 0.0517 0.74304 0.0
C251 C 0.60739 0.99021 0.70219 0.0
C252 C 0.6087 0.00548 0.77982 0.0
O253 O 0.64411 0.04388 0.72851 0.0
O254 O 0.66672 0.03601 0.75701 0.0
O255 O 0.61056 0.98536 0.76731 0.0
O256 O 0.62102 0.02521 0.7734 0.0
C257 C 0.66798 0.9741 0.74845 0.0
O258 O 0.62923 0.98869 0.70269 0.0
O259 O 0.60036 -0.00102 0.72175 0.0
In260 In 0.76936 0.6496 -3e-05 0.0
O261 O 0.78651 0.61459 0.00289 0.0
O262 O 0.8097 0.64879 0.99933 0.0
C263 C 0.72396 0.62323 0.99672 0.0
C264 C 0.77087 0.67372 0.04521 0.0
C265 C 0.77197 0.67481 0.95941 0.0
O266 O 0.74075 0.61541 0.98598 0.0
O267 O 0.72983 0.64459 0.00832 0.0
O268 O 0.77687 0.68577 0.98041 0.0
O269 O 0.76555 0.65134 0.95889 0.0
C270 C 0.80769 0.62557 0.00139 0.0
O271 O 0.77196 0.68527 0.02643 0.0
O272 O 0.76963 0.65025 0.04118 0.0
In273 In 0.91922 0.54926 0.78629 0.0
O274 O 0.90106 0.58279 0.79594 0.0
O275 O 0.89252 0.56224 0.76141 0.0
C276 C 0.89167 0.50379 0.78837 0.0
C277 C 0.94879 0.55001 0.74984 0.0
C278 C 0.94398 0.56271 0.82901 0.0
O279 O 0.88376 0.52255 0.78192 0.0
O280 O 0.9138 0.50774 0.79381 0.0
O281 O 0.95386 0.56259 0.80916 0.0
O282 O 0.92156 0.55651 0.82728 0.0
C283 C 0.88869 0.57987 0.77623 0.0
O284 O 0.94343 0.56976 0.76022 0.0
O285 O 0.93934 0.52987 0.75798 0.0
In286 In 0.7588 0.40241 0.50547 0.0
O287 O 0.74133 0.37361 0.52991 0.0
O288 O 0.77509 0.39563 0.5415 0.0
C289 C 0.75023 0.37105 0.4647 0.0
C290 C 0.72656 0.43337 0.51085 0.0
C291 C 0.80356 0.42561 0.49896 0.0
O292 O 0.74984 0.36319 0.48536 0.0
O293 O 0.75439 0.39468 0.46471 0.0
O294 O 0.78667 0.43754 0.50249 0.0
O295 O 0.79783 0.40208 0.49856 0.0
C296 C 0.75828 0.37852 0.54583 0.0
O297 O 0.74458 0.43508 0.52513 0.0
O298 O 0.72457 0.41579 0.4941 0.0
In299 In 0.65097 0.51078 0.28922 0.0
O300 O 0.68578 0.49472 0.28741 0.0
O301 O 0.6533 0.46873 0.28465 0.0
C302 C 0.67379 0.5593 0.29428 0.0
C303 C 0.63031 0.51152 0.24459 0.0
C304 C 0.62441 0.50545 0.32883 0.0
O305 O 0.68179 0.54235 0.30449 0.0
O306 O 0.65423 0.55192 0.28235 0.0
O307 O 0.61627 0.49696 0.30777 0.0
O308 O 0.64585 0.51647 0.32992 0.0
C309 C 0.67578 0.47197 0.2849 0.0
O310 O 0.61881 0.51209 0.26354 0.0
O311 O 0.65194 0.5096 0.24809 0.0
Dy312 Dy 0.99156 0.01503 0.00786 0.0
C313 C 0.09309 0.02828 0.01913 0.0
C314 C 0.94432 0.01662 0.01084 0.0
Dy315 Dy 0.04565 0.02985 0.02103 0.0
O316 O 0.95354 0.00672 0.99207 0.0
O317 O 0.96082 0.02527 0.02758 0.0
O318 O 0.99888 0.99298 0.97352 0.0
O319 O 0.02316 0.02506 0.98804 0.0
C320 C 0.01981 0.00679 0.9719 0.0
C321 C 0.0173 0.03751 0.05721 0.0
O322 O 0.04044 0.06629 0.00774 0.0
O323 O 0.9989 0.05681 0.00451 0.0
O324 O 0.08235 0.0326 0.03886 0.0
O325 O 0.07802 0.02568 0.00066 0.0
O326 O 0.03818 0.05146 0.05564 0.0
O327 O 0.01406 0.0195 0.0408 0.0
O328 O 0.99696 0.97956 0.02285 0.0
O329 O 0.03833 0.98758 0.02192 0.0
C330 C 0.01932 0.07276 0.00359 0.0
C331 C 0.01795 0.97228 0.02484 0.0
Dy332 Dy 0.26925 0.77703 0.24005 0.0
C333 C 0.26799 0.76036 0.34338 0.0
C334 C 0.25684 0.79005 0.19615 0.0
Dy335 Dy 0.26531 0.77379 0.29772 0.0
O336 O 0.26644 0.77036 0.19947 0.0
O337 O 0.25426 0.8024 0.21667 0.0
O338 O 0.30797 0.77092 0.23878 0.0
O339 O 0.29012 0.77059 0.27033 0.0
C340 C 0.3097 0.76826 0.26182 0.0
C341 C 0.22981 0.78976 0.2739 0.0
O342 O 0.28832 0.81142 0.2973 0.0
O343 O 0.28098 0.81662 0.25658 0.0
O344 O 0.24921 0.75454 0.32863 0.0
O345 O 0.28527 0.77398 0.33334 0.0
O346 O 0.23544 0.7964 0.29675 0.0
O347 O 0.24179 0.77362 0.26624 0.0
O348 O 0.25008 0.73774 0.24092 0.0
O349 O 0.25896 0.73355 0.28163 0.0
C350 C 0.28994 0.82524 0.27872 0.0
C351 C 0.25064 0.72399 0.25947 0.0
Dy352 Dy 0.55285 0.02497 0.51685 0.0
C353 C 0.45567 0.04396 0.50444 0.0
C354 C 0.59393 0.00748 0.52751 0.0
Dy355 Dy 0.49774 0.02787 0.51407 0.0
O356 O 0.59237 0.02532 0.51366 0.0
O357 O 0.57327 -0.00019 0.53589 0.0
O358 O 0.55826 0.04611 0.4838 0.0
O359 O 0.52522 0.02376 0.48893 0.0
C360 C 0.53593 0.03965 0.47626 0.0
C361 C 0.51533 0.01383 0.5549 0.0
O362 O 0.49623 0.99026 0.4933 0.0
O363 O 0.53431 0.9849 0.50621 0.0
O364 O 0.45807 0.0259 0.51774 0.0
O365 O 0.47609 0.05277 0.49614 0.0
O366 O 0.49308 0.00672 0.54739 0.0
O367 O 0.52553 0.0296 0.54189 0.0
O368 O 0.55441 0.06329 0.53651 0.0
O369 O 0.51617 0.06803 0.52335 0.0
C370 C 0.51274 0.97594 0.49577 0.0
C371 C 0.53778 0.07741 0.53347 0.0
Dy372 Dy 0.24375 0.26748 0.76412 0.0
C373 C 0.34555 0.28022 0.76103 0.0
C374 C 0.19583 0.26 0.77089 0.0
Dy375 Dy 0.29792 0.26923 0.7688 0.0
O376 O 0.20808 0.27992 0.7632 0.0
O377 O 0.20968 0.24383 0.77441 0.0
O378 O 0.2501 0.30067 0.74231 0.0
O379 O 0.27499 0.29731 0.77015 0.0
C380 C 0.27071 0.31008 0.7532 0.0
C381 C 0.27134 0.22642 0.77967 0.0
O382 O 0.29334 0.28746 0.80568 0.0
O383 O 0.25217 0.27478 0.80436 0.0
O384 O 0.33544 0.26127 0.77192 0.0
O385 O 0.3297 0.29338 0.75486 0.0
O386 O 0.29246 0.23527 0.78974 0.0
O387 O 0.26678 0.23948 0.76305 0.0
O388 O 0.24775 0.24845 0.72758 0.0
O389 O 0.28909 0.25987 0.72857 0.0
C390 C 0.27275 0.28451 0.81643 0.0
C391 C 0.26826 0.25043 0.71675 0.0
Dy392 Dy 0.01435 0.00704 0.48811 0.0
C393 C 0.05091 0.03735 0.58539 0.0
C394 C 0.99129 0.99781 0.44332 0.0
Dy395 Dy 0.02789 0.02825 0.54057 0.0
O396 O 0.014 0.99868 0.44769 0.0
O397 O 0.98106 0.00096 0.46353 0.0
O398 O 0.05274 0.00415 0.48249 0.0
O399 O 0.04451 0.033 0.5065 0.0
C400 C 0.06129 0.02291 0.4984 0.0
C401 C 0.98093 0.01249 0.53036 0.0
O402 O 0.02794 0.065 0.52491 0.0
O403 O 0.00667 0.04652 0.48961 0.0
O404 O 0.02848 0.03798 0.58083 0.0
O405 O 0.06094 0.03282 0.56531 0.0
O406 O 0.98957 0.0312 0.54629 0.0
O407 O 0.99769 0.00237 0.52227 0.0
O408 O 0.01404 0.97031 0.50354 0.0
O409 O 0.03504 0.98839 0.53916 0.0
C410 C 0.01595 0.06675 0.50436 0.0
C411 C 0.02582 0.96834 0.52412 0.0
Dy412 Dy 0.29062 0.78008 0.77506 0.0
C413 C 0.201 0.74025 0.72032 0.0
C414 C 0.33418 0.78888 0.79956 0.0
Dy415 Dy 0.24083 0.75629 0.75004 0.0
O416 O 0.33004 0.78124 0.77684 0.0
O417 O 0.31436 0.7924 0.80917 0.0
O418 O 0.30008 0.79956 0.7418 0.0
O419 O 0.27702 0.76502 0.73859 0.0
C420 C 0.28618 0.78287 0.7271 0.0
C421 C 0.24075 0.7688 0.79763 0.0
O422 O 0.25757 0.72151 0.74875 0.0
O423 O 0.29103 0.73871 0.77418 0.0
O424 O 0.20526 0.73117 0.74061 0.0
O425 O 0.21904 0.75712 0.71591 0.0
O426 O 0.22245 0.768 0.78286 0.0
O427 O 0.25704 0.7604 0.78659 0.0
O428 O 0.27105 0.81233 0.78094 0.0
O429 O 0.24346 0.79814 0.7487 0.0
C430 C 0.27747 0.71938 0.76113 0.0
C431 C 0.25381 0.81595 0.76563 0.0
Dy432 Dy 0.51941 0.0204 0.03795 0.0
C433 C 0.52969 0.01412 0.93597 0.0
C434 C 0.51034 0.02422 0.08559 0.0
Dy435 Dy 0.52056 0.02259 0.98318 0.0
O436 O 0.50609 0.00355 0.07129 0.0
O437 O 0.51961 0.04286 0.07391 0.0
O438 O 0.53968 0.98834 0.03508 0.0
O439 O 0.51567 0.9926 0.00675 0.0
C440 C 0.53119 0.98024 0.01328 0.0
C441 C 0.50931 0.06328 0.00757 0.0
O442 O 0.4838 0.00179 0.98553 0.0
O443 O 0.4807 0.01615 0.02553 0.0
O444 O 0.51894 0.0319 0.94471 0.0
O445 O 0.53546 0.00109 0.95298 0.0
O446 O 0.50144 0.05563 0.98547 0.0
O447 O 0.52432 0.05041 0.01432 0.0
O448 O 0.55747 0.03846 0.03667 0.0
O449 O 0.55943 0.03259 0.99492 0.0
C450 C 0.47089 0.00534 0.00435 0.0
C451 C 0.56967 0.03928 0.01689 0.0
Dy452 Dy 0.27334 0.29633 0.26963 0.0
C453 C 0.27313 0.18792 0.25425 0.0
C454 C 0.26774 0.34281 0.25985 0.0
Dy455 Dy 0.26791 0.23689 0.25644 0.0
O456 O 0.28323 0.33848 0.27611 0.0
O457 O 0.25533 0.32196 0.24955 0.0
O458 O 0.27969 0.29675 0.3103 0.0
O459 O 0.27539 0.26369 0.28768 0.0
C460 C 0.27871 0.27245 0.30947 0.0
C461 C 0.25637 0.26428 0.22115 0.0
O462 O 0.23372 0.239 0.27421 0.0
O463 O 0.23417 0.28207 0.2731 0.0
O464 O 0.2773 0.20227 0.23688 0.0
O465 O 0.26561 0.20024 0.2726 0.0
O466 O 0.24608 0.24106 0.22254 0.0
O467 O 0.27272 0.27035 0.2375 0.0
O468 O 0.30971 0.29387 0.25714 0.0
O469 O 0.3078 0.2504 0.25719 0.0
C470 C 0.22347 0.25917 0.27727 0.0
C471 C 0.31972 0.27343 0.25496 0.0
Dy472 Dy 0.50938 0.50803 0.98808 0.0
C473 C 0.55701 0.53912 0.08313 0.0
C474 C 0.48567 0.50007 0.94354 0.0
Dy475 Dy 0.52695 0.52984 0.04276 0.0
O476 O 0.50784 0.49814 0.94775 0.0
O477 O 0.47623 0.50542 0.9638 0.0
O478 O 0.54777 0.50458 0.98153 0.0
O479 O 0.54025 0.53243 0.00683 0.0
C480 C 0.55681 0.52262 0.99802 0.0
C481 C 0.47985 0.51007 0.03904 0.0
O482 O 0.52484 0.56616 0.02689 0.0
O483 O 0.50496 0.54869 0.98996 0.0
O484 O 0.53761 0.54858 0.08037 0.0
O485 O 0.56039 0.52573 0.06342 0.0
O486 O 0.49083 0.5211 0.05909 0.0
O487 O 0.49483 0.51131 0.02303 0.0
O488 O 0.50662 0.47207 0.0054 0.0
O489 O 0.53183 0.48934 0.03898 0.0
C490 C 0.5136 0.56829 0.0059 0.0
C491 C 0.51963 0.46969 0.02513 0.0
Dy492 Dy 0.79748 0.28668 0.276 0.0
C493 C 0.70371 0.24998 0.23115 0.0
C494 C 0.84028 0.29832 0.30191 0.0
Dy495 Dy 0.74589 0.26037 0.25821 0.0
O496 O 0.83677 0.30268 0.2796 0.0
O497 O 0.8202 0.28843 0.3103 0.0
O498 O 0.80524 0.29641 0.23831 0.0
O499 O 0.78095 0.26409 0.24381 0.0
C500 C 0.78951 0.27777 0.22809 0.0
C501 C 0.75378 0.27013 0.3062 0.0
O502 O 0.76384 0.22649 0.25524 0.0
O503 O 0.79751 0.2453 0.27945 0.0
O504 O 0.70737 0.24131 0.25177 0.0
O505 O 0.72331 0.26341 0.22505 0.0
O506 O 0.73765 0.25168 0.2963 0.0
O507 O 0.76239 0.28317 0.29012 0.0
O508 O 0.78008 0.32099 0.27781 0.0
O509 O 0.74581 0.30161 0.25476 0.0
C510 C 0.78386 0.22505 0.26776 0.0
C511 C 0.75979 0.3221 0.26559 0.0
Dy512 Dy 0.02399 0.52175 0.54242 0.0
C513 C 0.03647 0.51714 0.43735 0.0
C514 C 0.0177 0.53634 0.58915 0.0
Dy515 Dy 0.02706 0.52301 0.48463 0.0
O516 O 0.03301 0.52235 0.58203 0.0
O517 O 0.00586 0.5423 0.57074 0.0
O518 O 0.0255 0.47988 0.54265 0.0
O519 O 0.02855 0.49774 0.51155 0.0
C520 C 0.02852 0.47697 0.51956 0.0
C521 C 0.01359 0.56227 0.50956 0.0
O522 O 0.99015 0.50199 0.48734 0.0
O523 O 0.98575 0.51323 0.52831 0.0
O524 O 0.04181 0.53814 0.45119 0.0
O525 O 0.02594 0.49924 0.44933 0.0
O526 O 0.00651 0.55506 0.48714 0.0
O527 O 0.02874 0.54968 0.51641 0.0
O528 O 0.06236 0.53816 0.53959 0.0
O529 O 0.06552 0.52891 0.49802 0.0
C530 C 0.97694 0.50345 0.50639 0.0
C531 C 0.0751 0.53664 0.52018 0.0
Dy532 Dy 0.74005 0.77112 0.26387 0.0
C533 C 0.84428 0.77762 0.25645 0.0
C534 C 0.69414 0.75717 0.27606 0.0
Dy535 Dy 0.79712 0.77257 0.26598 0.0
O536 O 0.70024 0.76708 0.2562 0.0
O537 O 0.71304 0.75442 0.28862 0.0
O538 O 0.74142 0.81169 0.25526 0.0
O539 O 0.77206 0.79729 0.26133 0.0
C540 C 0.76466 0.81684 0.25656 0.0
C541 C 0.76943 0.73177 0.28017 0.0
O542 O 0.79368 0.79332 0.30191 0.0
O543 O 0.7523 0.78103 0.3031 0.0
O544 O 0.83018 0.7565 0.25853 0.0
O545 O 0.8327 0.7962 0.25994 0.0
O546 O 0.79123 0.73994 0.28881 0.0
O547 O 0.76457 0.74449 0.26341 0.0
O548 O 0.74441 0.75238 0.22701 0.0
O549 O 0.78591 0.76467 0.22628 0.0
C550 C 0.77355 0.79145 0.31352 0.0
C551 C 0.76465 0.75476 0.21546 0.0
Dy552 Dy 0.77391 0.28141 0.74301 0.0
C553 C 0.78277 0.26953 0.84556 0.0
C554 C 0.77048 0.29206 0.69643 0.0
Dy555 Dy 0.77031 0.27965 0.80061 0.0
O556 O 0.79025 0.29556 0.70973 0.0
O557 O 0.75264 0.28242 0.70847 0.0
O558 O 0.80283 0.25764 0.74453 0.0
O559 O 0.79767 0.28202 0.7744 0.0
C560 C 0.80903 0.26516 0.76711 0.0
C561 C 0.72961 0.28827 0.77926 0.0
O562 O 0.7902 0.31857 0.79886 0.0
O563 O 0.78262 0.3221 0.75776 0.0
O564 O 0.7713 0.28755 0.84097 0.0
O565 O 0.78723 0.25717 0.82568 0.0
O566 O 0.7319 0.28618 0.80234 0.0
O567 O 0.74896 0.28559 0.77027 0.0
O568 O 0.75127 0.24389 0.74433 0.0
O569 O 0.75833 0.23954 0.7853 0.0
C570 C 0.79076 0.33189 0.77993 0.0
C571 C 0.74975 0.23042 0.76313 0.0
Dy572 Dy 0.77068 0.79464 0.77225 0.0
C573 C 0.76846 0.68907 0.75641 0.0
C574 C 0.76573 0.84318 0.76928 0.0
Dy575 Dy 0.76333 0.73808 0.75737 0.0
O576 O 0.77264 0.83449 0.78891 0.0
O577 O 0.76171 0.82546 0.75168 0.0
O578 O 0.79031 0.78988 0.80703 0.0
O579 O 0.76313 0.76123 0.79124 0.0
C580 C 0.77914 0.76689 0.80808 0.0
C581 C 0.75519 0.76639 0.72187 0.0
O582 O 0.72713 0.73915 0.77083 0.0
O583 O 0.73067 0.78272 0.77407 0.0
O584 O 0.76596 0.70082 0.73739 0.0
O585 O 0.76748 0.70397 0.77573 0.0
O586 O 0.74333 0.74373 0.72299 0.0
O587 O 0.7713 0.77149 0.73859 0.0
O588 O 0.80674 0.79305 0.75861 0.0
O589 O 0.80352 0.74977 0.75815 0.0
C590 C 0.71792 0.75986 0.77501 0.0
C591 C 0.81622 0.77237 0.75601 0.0
Dy592 Dy 0.49294 0.51377 0.50861 0.0
C593 C 0.59477 0.5315 0.52399 0.0
C594 C 0.44479 0.51246 0.50664 0.0
Dy595 Dy 0.54671 0.53043 0.5233 0.0
O596 O 0.45841 0.51606 0.48864 0.0
O597 O 0.45741 0.50841 0.52529 0.0
O598 O 0.50202 0.49037 0.47575 0.0
O599 O 0.52519 0.52336 0.4896 0.0
C600 C 0.52278 0.50453 0.47417 0.0
C601 C 0.51731 0.54137 0.55742 0.0
O602 O 0.54053 0.56538 0.50781 0.0
O603 O 0.49912 0.55599 0.50818 0.0
O604 O 0.58233 0.53222 0.54304 0.0
O605 O 0.58101 0.53101 0.50479 0.0
O606 O 0.53878 0.55413 0.55623 0.0
O607 O 0.51428 0.52201 0.54248 0.0
O608 O 0.49891 0.47861 0.52387 0.0
O609 O 0.54037 0.48848 0.52538 0.0
C610 C 0.51918 0.57173 0.5051 0.0
C611 C 0.52023 0.47256 0.52761 0.0
Dy612 Dy 0.0492 0.52232 0.02 0.0
C613 C 0.95073 0.53813 0.00852 0.0
C614 C 0.0918 0.50717 0.0298 0.0
Dy615 Dy 0.99368 0.52355 0.01763 0.0
O616 O 0.08835 0.52271 0.01406 0.0
O617 O 0.07217 0.50049 0.04048 0.0
O618 O 0.05321 0.54424 0.98731 0.0
O619 O 0.02111 0.52015 0.99228 0.0
C620 C 0.03106 0.53651 0.97963 0.0
C621 C 0.01202 0.50925 0.05784 0.0
O622 O 0.99285 0.4856 0.99777 0.0
O623 O 0.03162 0.48182 0.01015 0.0
O624 O 0.95489 0.52347 0.02484 0.0
O625 O 0.96985 0.54425 0.99685 0.0
O626 O 0.98996 0.50112 0.05007 0.0
O627 O 0.02172 0.52575 0.04522 0.0
O628 O 0.04996 0.56019 0.04003 0.0
O629 O 0.0113 0.56407 0.02739 0.0
C630 C 0.01001 0.47204 0.00021 0.0
C631 C 0.03286 0.5738 0.03751 0.0
H632 H 0.04436 0.19539 0.9147 0.0
H633 H 0.97826 0.20558 0.94631 0.0
H634 H 0.04737 0.16131 0.93961 0.0
H635 H 0.9817 0.17215 0.97211 0.0
H636 H 0.97958 0.09044 0.98884 0.0
H637 H 0.97772 0.12809 0.96907 0.0
H638 H 0.05443 0.14964 0.9788 0.0
H639 H 0.05639 0.11119 0.99782 0.0
C640 C 0.03062 0.19054 0.92725 0.0
C641 C 0.01098 0.20302 0.92843 0.0
C642 C 0.03244 0.17112 0.94172 0.0
C643 C 0.01479 0.16387 0.95796 0.0
C644 C 0.99544 0.17687 0.95955 0.0
C645 C 0.99349 0.19612 0.94484 0.0
C646 C 0.99609 0.10328 0.98704 0.0
C647 C 0.01818 0.09758 0.99476 0.0
C648 C 0.99499 0.12507 0.97578 0.0
C649 C 0.01593 0.14195 0.9721 0.0
C650 C 0.03796 0.13685 0.98086 0.0
C651 C 0.03908 0.11488 0.99198 0.0
H652 H 0.08557 0.79354 0.22649 0.0
H653 H 0.12521 0.81689 0.16539 0.0
H654 H 0.12303 0.79502 0.25003 0.0
H655 H 0.16266 0.818 0.18887 0.0
H656 H 0.21475 0.77302 0.22758 0.0
H657 H 0.17966 0.78077 0.20511 0.0
H658 H 0.16187 0.82612 0.26716 0.0
H659 H 0.1978 0.81915 0.28953 0.0
C660 C 0.10229 0.7993 0.21821 0.0
C661 C 0.1025 0.80497 0.19408 0.0
C662 C 0.12369 0.80028 0.23172 0.0
C663 C 0.14569 0.80656 0.22121 0.0
C664 C 0.14591 0.81301 0.19733 0.0
C665 C 0.12451 0.81244 0.18395 0.0
C666 C 0.20375 0.78521 0.23625 0.0
C667 C 0.20919 0.7958 0.26018 0.0
C668 C 0.18362 0.78959 0.22339 0.0
C669 C 0.16815 0.80414 0.23438 0.0
C670 C 0.17357 0.81485 0.25831 0.0
C671 C 0.19408 0.8109 0.27105 0.0
H672 H 0.49967 0.84792 0.38967 0.0
H673 H 0.50186 0.8146 0.45714 0.0
H674 H 0.49998 0.88901 0.41181 0.0
H675 H 0.50222 0.85566 0.47923 0.0
H676 H 0.53652 0.93835 0.50592 0.0
H677 H 0.5318 0.89614 0.48526 0.0
H678 H 0.47433 0.91173 0.43943 0.0
H679 H 0.479 0.95418 0.46017 0.0
C680 C 0.50014 0.84937 0.40921 0.0
C681 C 0.50087 0.8281 0.42169 0.0
C682 C 0.50014 0.87284 0.42186 0.0
C683 C 0.50112 0.87552 0.44724 0.0
C684 C 0.50163 0.85418 0.45968 0.0
C685 C 0.50137 0.83068 0.44704 0.0
C686 C 0.52272 0.93275 0.49158 0.0
C687 C 0.50818 0.94964 0.48462 0.0
C688 C 0.51995 0.90851 0.47984 0.0
C689 C 0.50276 0.90068 0.46069 0.0
C690 C 0.48786 0.91736 0.45401 0.0
C691 C 0.49042 0.94157 0.466 0.0
H692 H 0.47033 0.2486 0.6921 0.0
H693 H 0.48522 0.3297 0.70346 0.0
H694 H 0.43426 0.24797 0.71428 0.0
H695 H 0.44929 0.3291 0.7262 0.0
H696 H 0.36725 0.31676 0.73476 0.0
H697 H 0.40646 0.32003 0.71793 0.0
H698 H 0.4192 0.25567 0.75366 0.0
H699 H 0.37969 0.25212 0.77002 0.0
C700 C 0.46604 0.2663 0.6996 0.0
C701 C 0.48056 0.2892 0.69594 0.0
C702 C 0.44542 0.26594 0.71249 0.0
C703 C 0.43883 0.28849 0.72207 0.0
C704 C 0.45368 0.3114 0.71883 0.0
C705 C 0.47433 0.31175 0.70591 0.0
C706 C 0.37859 0.30353 0.73927 0.0
C707 C 0.37041 0.2841 0.75357 0.0
C708 C 0.40111 0.30547 0.72971 0.0
C709 C 0.41596 0.288 0.73428 0.0
C710 C 0.40808 0.26918 0.74945 0.0
C711 C 0.38553 0.26724 0.75897 0.0
H712 H 0.00029 0.81114 0.55852 0.0
H713 H 0.01796 0.85797 0.62581 0.0
H714 H 0.00756 0.84836 0.53639 0.0
H715 H 0.02448 0.89523 0.60387 0.0
H716 H 0.05515 0.95618 0.55933 0.0
H717 H 0.05127 0.91693 0.57802 0.0
H718 H 0.9915 0.88486 0.5282 0.0
H719 H 0.99592 0.92398 0.50899 0.0
C720 C 0.00559 0.82942 0.56859 0.0
C721 C 0.00858 0.83163 0.59391 0.0
C722 C 0.00967 0.85078 0.55591 0.0
C723 C 0.01675 0.87487 0.56827 0.0
C724 C 0.01955 0.87699 0.59366 0.0
C725 C 0.01561 0.85564 0.6063 0.0
C726 C 0.04142 0.94062 0.5521 0.0
C727 C 0.02579 0.94326 0.53272 0.0
C728 C 0.03903 0.91816 0.56299 0.0
C729 C 0.02079 0.8978 0.55496 0.0
C730 C 0.00586 0.90004 0.53481 0.0
C731 C 0.00839 0.9225 0.52375 0.0
H732 H 0.44762 0.7586 0.89494 0.0
H733 H 0.48469 0.79771 0.83942 0.0
H734 H 0.40947 0.76489 0.87698 0.0
H735 H 0.44686 0.80467 0.82195 0.0
H736 H 0.37526 0.78221 0.77951 0.0
H737 H 0.41315 0.77978 0.79968 0.0
H738 H 0.38433 0.79589 0.86886 0.0
H739 H 0.34578 0.79769 0.84836 0.0
C740 C 0.44761 0.76865 0.87899 0.0
C741 C 0.4691 0.77739 0.86842 0.0
C742 C 0.42579 0.77248 0.86883 0.0
C743 C 0.42506 0.78519 0.84794 0.0
C744 C 0.44669 0.7944 0.83777 0.0
C745 C 0.46841 0.79046 0.84782 0.0
C746 C 0.37703 0.7855 0.79902 0.0
C747 C 0.3576 0.79019 0.81238 0.0
C748 C 0.39885 0.78424 0.81062 0.0
C749 C 0.40188 0.78771 0.83592 0.0
C750 C 0.38252 0.79289 0.84935 0.0
C751 C 0.36054 0.79415 0.83765 0.0
H752 H 0.50241 0.21809 0.05401 0.0
H753 H 0.48254 0.17866 0.11625 0.0
H754 H 0.50354 0.17791 0.03056 0.0
H755 H 0.48407 0.13867 0.09293 0.0
H756 H 0.52776 0.08338 0.05222 0.0
H757 H 0.52073 0.12194 0.07465 0.0
H758 H 0.47489 0.13507 0.01534 0.0
H759 H 0.48125 0.09583 0.99316 0.0
C760 C 0.49801 0.20084 0.06256 0.0
C761 C 0.49246 0.20147 0.08694 0.0
C762 C 0.49859 0.1779 0.04915 0.0
C763 C 0.49402 0.1553 0.06004 0.0
C764 C 0.48781 0.15589 0.0842 0.0
C765 C 0.48684 0.17874 0.09748 0.0
C766 C 0.5158 0.09419 0.04418 0.0
C767 C 0.50479 0.08645 0.02112 0.0
C768 C 0.51184 0.11628 0.05697 0.0
C769 C 0.49718 0.13135 0.04673 0.0
C770 C 0.48628 0.12375 0.02358 0.0
C771 C 0.48989 0.10134 0.01096 0.0
H772 H 0.07679 0.25751 0.32183 0.0
H773 H 0.12186 0.25925 0.38632 0.0
H774 H 0.11122 0.25506 0.29708 0.0
H775 H 0.156 0.25612 0.36156 0.0
H776 H 0.20415 0.22384 0.30619 0.0
H777 H 0.16743 0.22251 0.3278 0.0
H778 H 0.15267 0.2873 0.2943 0.0
H779 H 0.1897 0.28906 0.27302 0.0
C780 C 0.09398 0.25708 0.33067 0.0
C781 C 0.09669 0.25861 0.35599 0.0
C782 C 0.11363 0.25578 0.31653 0.0
C783 C 0.13619 0.25534 0.32744 0.0
C784 C 0.13875 0.25624 0.35271 0.0
C785 C 0.11926 0.25813 0.36685 0.0
C786 C 0.1929 0.23756 0.30312 0.0
C787 C 0.19981 0.25656 0.28789 0.0
C788 C 0.17198 0.23688 0.31561 0.0
C789 C 0.15729 0.25483 0.31272 0.0
C790 C 0.16364 0.27317 0.29672 0.0
C791 C 0.18484 0.27421 0.28463 0.0
H792 H 0.91917 2e-05 0.1699 0.0
H793 H 0.94322 0.07977 0.18635 0.0
H794 H 0.94425 5e-05 0.13575 0.0
H795 H 0.96703 0.08054 0.15082 0.0
H796 H 0.02468 0.07111 0.09774 0.0
H797 H 0.0003 0.07187 0.13276 0.0
H798 H 0.95002 0.00869 0.09766 0.0
H799 H 0.97579 0.00642 0.06435 0.0
C800 C 0.92952 0.01772 0.16584 0.0
C801 C 0.92917 0.03989 0.18075 0.0
C802 C 0.94386 0.01786 0.14602 0.0
C803 C 0.95777 0.04037 0.13998 0.0
C804 C 0.95707 0.06268 0.15487 0.0
C805 C 0.94321 0.06236 0.17518 0.0
C806 C 0.00843 0.05737 0.09768 0.0
C807 C 0.002 0.03895 0.07809 0.0
C808 C 0.99421 0.05792 0.1177 0.0
C809 C 0.9729 0.04034 0.11842 0.0
C810 C 0.96642 0.02225 0.09842 0.0
C811 C 0.981 0.02125 0.07886 0.0
H812 H 0.24573 0.68935 0.47635 0.0
H813 H 0.32066 0.69257 0.46457 0.0
H814 H 0.24151 0.71248 0.44148 0.0
H815 H 0.31629 0.71479 0.42887 0.0
H816 H 0.30518 0.77232 0.3771 0.0
H817 H 0.30961 0.75341 0.41488 0.0
H818 H 0.24059 0.7058 0.39912 0.0
H819 H 0.23587 0.72548 0.36215 0.0
C820 C 0.26127 0.69486 0.46614 0.0
C821 C 0.28349 0.68907 0.47303 0.0
C822 C 0.25884 0.70802 0.44608 0.0
C823 C 0.27851 0.71536 0.43223 0.0
C824 C 0.30084 0.70974 0.43931 0.0
C825 C 0.30332 0.69684 0.45962 0.0
C826 C 0.29088 0.75804 0.38199 0.0
C827 C 0.27015 0.75039 0.36687 0.0
C828 C 0.29349 0.74704 0.40347 0.0
C829 C 0.27548 0.72802 0.41004 0.0
C830 C 0.25463 0.72069 0.39491 0.0
C831 C 0.25195 0.73187 0.37363 0.0
H832 H 0.62014 0.97884 0.65639 0.0
H833 H 0.55962 0.99008 0.69786 0.0
H834 H 0.59599 0.97846 0.61908 0.0
H835 H 0.53558 0.98976 0.66057 0.0
H836 H 0.56063 0.03082 0.57219 0.0
H837 H 0.5815 0.01756 0.60616 0.0
H838 H 0.51806 0.96548 0.61958 0.0
H839 H 0.49706 0.97842 0.58466 0.0
C840 C 0.60155 0.98061 0.65752 0.0
C841 C 0.59184 0.98496 0.67995 0.0
C842 C 0.58777 0.98041 0.63622 0.0
C843 C 0.56406 0.98437 0.63706 0.0
C844 C 0.55377 0.98655 0.65946 0.0
C845 C 0.56759 0.98692 0.68077 0.0
C846 C 0.55119 0.01623 0.58208 0.0
C847 C 0.52733 0.00542 0.57569 0.0
C848 C 0.5632 0.00854 0.60145 0.0
C849 C 0.55149 0.99022 0.6152 0.0
C850 C 0.52749 0.9795 0.60906 0.0
C851 C 0.51551 0.98693 0.58924 0.0
H852 H 0.23312 0.35527 0.95099 0.0
H853 H 0.29884 0.33146 0.9719 0.0
H854 H 0.23546 0.33664 0.90988 0.0
H855 H 0.30104 0.31241 0.93071 0.0
H856 H 0.31002 0.30837 0.84779 0.0
H857 H 0.30812 0.32463 0.88993 0.0
H858 H 0.23223 0.29656 0.88623 0.0
H859 H 0.234 0.28074 0.84425 0.0
C860 C 0.24795 0.3458 0.94687 0.0
C861 C 0.26575 0.34481 0.96475 0.0
C862 C 0.24926 0.33501 0.92328 0.0
C863 C 0.26845 0.32297 0.9169 0.0
C864 C 0.28616 0.32176 0.93489 0.0
C865 C 0.28479 0.3325 0.95855 0.0
C866 C 0.29295 0.30556 0.856 0.0
C867 C 0.27216 0.29335 0.84247 0.0
C868 C 0.29188 0.31478 0.88023 0.0
C869 C 0.26998 0.31207 0.8915 0.0
C870 C 0.24933 0.2994 0.87807 0.0
C871 C 0.25039 0.29018 0.85395 0.0
H872 H 0.95301 0.00709 0.29069 0.0
H873 H 0.90352 0.04344 0.33156 0.0
H874 H 0.97083 0.99636 0.32799 0.0
H875 H 0.92195 0.03382 0.36898 0.0
H876 H 0.94387 0.99421 0.43143 0.0
H877 H 0.92549 0.00102 0.39285 0.0
H878 H 0.995 0.01235 0.3628 0.0
H879 H 0.01302 0.00434 0.40106 0.0
C880 C 0.94618 0.01312 0.30771 0.0
C881 C 0.92687 0.02612 0.3082 0.0
C882 C 0.95644 0.00703 0.32916 0.0
C883 C 0.94782 0.01405 0.35167 0.0
C884 C 0.92877 0.02753 0.35206 0.0
C885 C 0.91833 0.03333 0.3306 0.0
C886 C 0.9551 0.99771 0.4164 0.0
C887 C 0.97984 0.99868 0.41921 0.0
C888 C 0.94464 0.00195 0.39434 0.0
C889 C 0.95873 0.00763 0.37464 0.0
C890 C 0.98345 0.00779 0.37735 0.0
C891 C 0.99385 0.00323 0.39934 0.0
H892 H 0.27698 0.7297 0.57473 0.0
H893 H 0.3252 0.69128 0.61268 0.0
H894 H 0.27735 0.75943 0.61029 0.0
H895 H 0.32544 0.72105 0.6484 0.0
H896 H 0.32901 0.78467 0.70686 0.0
H897 H 0.33562 0.76659 0.66623 0.0
H898 H 0.25946 0.75156 0.64971 0.0
H899 H 0.25311 0.76964 0.69004 0.0
C900 C 0.28794 0.72783 0.59056 0.0
C901 C 0.30082 0.70797 0.59108 0.0
C902 C 0.28813 0.74486 0.6109 0.0
C903 C 0.30128 0.74245 0.63213 0.0
C904 C 0.31531 0.7235 0.63219 0.0
C905 C 0.31505 0.70635 0.61183 0.0
C906 C 0.31382 0.77826 0.69417 0.0
C907 C 0.2905 0.77839 0.70142 0.0
C908 C 0.31757 0.7677 0.67109 0.0
C909 C 0.29805 0.7575 0.65491 0.0
C910 C 0.27488 0.75941 0.6617 0.0
C911 C 0.27116 0.76961 0.68482 0.0
H912 H 0.5802 0.96577 0.79671 0.0
H913 H 0.6032 0.04623 0.80975 0.0
H914 H 0.55671 0.96643 0.83248 0.0
H915 H 0.58015 0.04683 0.84564 0.0
H916 H 0.52371 0.04344 0.89983 0.0
H917 H 0.53925 0.04013 0.85956 0.0
H918 H 0.56708 0.97394 0.87608 0.0
H919 H 0.55124 0.97706 0.91605 0.0
C920 C 0.58014 0.98358 0.80717 0.0
C921 C 0.59362 0.00592 0.80062 0.0
C922 C 0.56676 0.98395 0.82762 0.0
C923 C 0.56663 0.00667 0.84181 0.0
C924 C 0.57962 0.02909 0.83484 0.0
C925 C 0.59298 0.02872 0.81442 0.0
C926 C 0.53283 0.02799 0.89463 0.0
C927 C 0.53652 0.01062 0.91096 0.0
C928 C 0.5418 0.02617 0.8717 0.0
C929 C 0.5545 0.00689 0.86479 0.0
C930 C 0.55717 0.98886 0.88082 0.0
C931 C 0.54827 0.99073 0.90373 0.0
H932 H 0.25163 0.3082 0.07444 0.0
H933 H 0.26286 0.37876 0.11933 0.0
H934 H 0.24882 0.28549 0.11056 0.0
H935 H 0.25961 0.35618 0.15533 0.0
H936 H 0.22569 0.25196 0.18086 0.0
H937 H 0.22483 0.27491 0.14491 0.0
H938 H 0.28268 0.33169 0.17743 0.0
H939 H 0.2834 0.30894 0.21306 0.0
C940 C 0.25332 0.31886 0.09201 0.0
C941 C 0.25762 0.34531 0.09397 0.0
C942 C 0.25155 0.30584 0.11274 0.0
C943 C 0.25408 0.31894 0.13597 0.0
C944 C 0.25794 0.34541 0.13782 0.0
C945 C 0.25969 0.35839 0.11713 0.0
C946 C 0.23804 0.26947 0.18034 0.0
C947 C 0.25446 0.27871 0.1999 0.0
C948 C 0.23768 0.28255 0.15968 0.0
C949 C 0.25368 0.30523 0.15818 0.0
C950 C 0.26983 0.31455 0.17799 0.0
C951 C 0.27027 0.30145 0.19848 0.0
H952 H 0.17938 0.92123 0.98281 0.0
H953 H 0.22557 0.96878 0.03811 0.0
H954 H 0.15115 0.95031 0.98555 0.0
H955 H 0.19736 0.99801 0.0407 0.0
H956 H 0.12263 0.02118 0.05668 0.0
H957 H 0.15601 0.99828 0.05407 0.0
H958 H 0.14895 0.99379 0.97622 0.0
H959 H 0.11553 0.01639 0.97883 0.0
C960 C 0.18349 0.9379 0.99553 0.0
C961 C 0.20462 0.94274 0.01025 0.0
C962 C 0.16745 0.95467 0.99694 0.0
C963 C 0.1722 0.97655 0.01318 0.0
C964 C 0.19324 0.98127 0.02807 0.0
C965 C 0.20936 0.96456 0.02656 0.0
C966 C 0.12868 0.0159 0.03907 0.0
C967 C 0.11644 0.02031 0.01797 0.0
C968 C 0.14773 0.00276 0.03756 0.0
C969 C 0.15473 0.99385 0.01492 0.0
C970 C 0.14358 -2e-05 0.99388 0.0
C971 C 0.12462 0.01311 0.99539 0.0
H972 H 0.69109 0.62769 0.03015 0.0
H973 H 0.70251 0.58404 0.96441 0.0
H974 H 0.65208 0.60184 0.03222 0.0
H975 H 0.66261 0.55906 0.96532 0.0
H976 H 0.59629 0.505 0.98177 0.0
H977 H 0.63717 0.52826 0.9824 0.0
H978 H 0.61385 0.59405 0.01655 0.0
H979 H 0.5739 0.57032 0.01735 0.0
C980 C 0.68502 0.61277 0.01588 0.0
C981 C 0.69977 0.608 0.99704 0.0
C982 C 0.6625 0.59794 0.01694 0.0
C983 C 0.65377 0.57828 0.99882 0.0
C984 C 0.66866 0.57363 0.97988 0.0
C985 C 0.69148 0.58814 0.97916 0.0
C986 C 0.60015 0.52433 0.98971 0.0
C987 C 0.58194 0.53578 -0.0004 0.0
C988 C 0.62353 0.53783 0.98985 0.0
C989 C 0.62912 0.56326 0.99947 0.0
C990 C 0.6107 0.57446 0.00947 0.0
C991 C 0.58758 0.56084 0.00979 0.0
H992 H 0.65772 0.42173 0.27779 0.0
H993 H 0.72429 0.4744 0.28559 0.0
H994 H 0.67958 0.38694 0.27246 0.0
H995 H 0.74627 0.43951 0.2799 0.0
H996 H 0.7224 0.33223 0.2384 0.0
H997 H 0.70338 0.36903 0.24274 0.0
H998 H 0.75602 0.40313 0.29929 0.0
H999 H 0.77541 0.36618 0.29474 0.0
C1000 C 0.67704 0.42589 0.27832 0.0
C1001 C 0.68924 0.45084 0.28205 0.0
C1002 C 0.68961 0.40594 0.2751 0.0
C1003 C 0.71473 0.41038 0.27554 0.0
C1004 C 0.72696 0.43537 0.2796 0.0
C1005 C 0.71435 0.45537 0.28275 0.0
C1006 C 0.73014 0.34763 0.25164 0.0
C1007 C 0.7504 0.3461 0.26633 0.0
C1008 C 0.71908 0.36871 0.25424 0.0
C1009 C 0.72789 0.38892 0.27164 0.0
C1010 C 0.74878 0.38794 0.28565 0.0
C1011 C 0.75992 0.36675 0.28303 0.0
H1012 H 0.84145 0.40366 0.48659 0.0
H1013 H 0.8216 0.47578 0.50662 0.0
H1014 H 0.88314 0.42392 0.4862 0.0
H1015 H 0.86338 0.49605 0.5062 0.0
H1016 H 0.94238 0.51195 0.5371 0.0
H1017 H 0.89994 0.49431 0.53268 0.0
H1018 H 0.91041 0.45504 0.46409 0.0
H1019 H 0.953 0.47259 0.46845 0.0
C1020 C 0.84598 0.42387 0.49067 0.0
C1021 C 0.82836 0.43815 0.49678 0.0
C1022 C 0.8698 0.43547 0.4903 0.0
C1023 C 0.87644 0.46152 0.49625 0.0
C1024 C 0.85873 0.47589 0.50176 0.0
C1025 C 0.83485 0.46432 0.50189 0.0
C1026 C 0.93566 0.49962 0.52102 0.0
C1027 C 0.95108 0.49355 0.50318 0.0
C1028 C 0.91132 0.48971 0.51841 0.0
C1029 C 0.90194 0.47335 0.49804 0.0
C1030 C 0.91725 0.4675 0.48004 0.0
C1031 C 0.94159 0.47763 0.48252 0.0
H1032 H 0.38727 0.11146 0.25515 0.0
H1033 H 0.34011 0.06486 0.2985 0.0
H1034 H 0.35546 0.13441 0.24593 0.0
H1035 H 0.30801 0.08754 0.28884 0.0
H1036 H 0.27473 0.16145 0.29322 0.0
H1037 H 0.29939 0.12971 0.29871 0.0
H1038 H 0.31683 0.12963 0.22385 0.0
H1039 H 0.29259 0.16192 0.21857 0.0
C1040 C 0.37006 0.10608 0.26262 0.0
C1041 C 0.36618 0.08654 0.27766 0.0
C1042 C 0.35174 0.11899 0.2571 0.0
C1043 C 0.32915 0.11256 0.26645 0.0
C1044 C 0.32526 0.09294 0.28145 0.0
C1045 C 0.34363 0.08002 0.287 0.0
C1046 C 0.28327 0.15409 0.27777 0.0
C1047 C 0.28213 0.16431 0.25558 0.0
C1048 C 0.29737 0.13589 0.2809 0.0
C1049 C 0.31044 0.12761 0.26182 0.0
C1050 C 0.3074 0.13614 0.239 0.0
C1051 C 0.29337 0.15442 0.23592 0.0
H1052 H 0.31163 0.07856 0.48863 0.0
H1053 H 0.35844 0.15014 0.50548 0.0
H1054 H 0.34606 0.05722 0.48903 0.0
H1055 H 0.39288 0.12879 0.50598 0.0
H1056 H 0.45047 0.08459 0.48077 0.0
H1057 H 0.4154 0.10474 0.478 0.0
H1058 H 0.37652 0.04837 0.51863 0.0
H1059 H 0.41167 0.02817 0.5213 0.0
C1060 C 0.32928 0.08974 0.49238 0.0
C1061 C 0.33232 0.11605 0.49702 0.0
C1062 C 0.34899 0.0775 0.49273 0.0
C1063 C 0.37222 0.09129 0.49753 0.0
C1064 C 0.37525 0.11763 0.50195 0.0
C1065 C 0.35552 0.12986 0.50179 0.0
C1066 C 0.43437 0.0764 0.48895 0.0
C1067 C 0.43379 0.05484 0.50129 0.0
C1068 C 0.41434 0.08805 0.48751 0.0
C1069 C 0.3932 0.07827 0.49822 0.0
C1070 C 0.39246 0.05628 0.51003 0.0
C1071 C 0.41258 0.04473 0.51162 0.0
H1072 H 0.67014 0.59139 0.26047 0.0
H1073 H 0.70725 0.58559 0.32814 0.0
H1074 H 0.69287 0.6331 0.25859 0.0
H1075 H 0.72897 0.62851 0.32749 0.0
H1076 H 0.7823 0.69531 0.30605 0.0
H1077 H 0.75892 0.65415 0.31079 0.0
H1078 H 0.69884 0.6743 0.27184 0.0
H1079 H 0.72317 0.71408 0.26508 0.0
C1080 C 0.68289 0.59936 0.27526 0.0
C1081 C 0.68692 0.5853 0.29446 0.0
C1082 C 0.69585 0.62351 0.27434 0.0
C1083 C 0.71279 0.63467 0.29301 0.0
C1084 C 0.71646 0.6206 0.31253 0.0
C1085 C 0.70389 0.59605 0.31307 0.0
C1086 C 0.76405 0.69084 0.2986 0.0
C1087 C 0.75451 0.70792 0.28528 0.0
C1088 C 0.75049 0.66727 0.30147 0.0
C1089 C 0.72685 0.66047 0.29156 0.0
C1090 C 0.71711 0.67825 0.27917 0.0
C1091 C 0.73092 0.70141 0.27566 0.0
H1092 H 0.90358 0.46059 0.80318 0.0
H1093 H 0.84445 0.49169 0.77502 0.0
H1094 H 0.87749 0.41965 0.8028 0.0
H1095 H 0.81847 0.45099 0.77483 0.0
H1096 H 0.79171 0.36716 0.7477 0.0
H1097 H 0.81549 0.4093 0.75131 0.0
H1098 H 0.84159 0.39873 0.82283 0.0
H1099 H 0.81798 0.35643 0.81926 0.0
C1100 C 0.88501 0.45869 0.79706 0.0
C1101 C 0.87606 0.47923 0.78901 0.0
C1102 C 0.87007 0.43536 0.79698 0.0
C1103 C 0.84599 0.43219 0.78873 0.0
C1104 C 0.83701 0.45285 0.78102 0.0
C1105 C 0.85188 0.47615 0.78122 0.0
C1106 C 0.80232 0.37387 0.7643 0.0
C1107 C 0.80301 0.35838 0.78314 0.0
C1108 C 0.81586 0.39805 0.76639 0.0
C1109 C 0.83048 0.40719 0.78729 0.0
C1110 C 0.83069 0.39201 0.8064 0.0
C1111 C 0.817 0.36787 0.8044 0.0
H1112 H 0.05307 0.83334 0.0758 0.0
H1113 H 0.01018 0.86544 0.12829 0.0
H1114 H 0.04765 0.86588 0.04932 0.0
H1115 H 0.00486 0.89784 0.102 0.0
H1116 H 0.98174 0.93951 0.0418 0.0
H1117 H 0.98512 0.90246 0.06253 0.0
H1118 H 0.06033 0.91247 0.04988 0.0
H1119 H 0.05702 0.94943 0.02894 0.0
C1120 C 0.04248 0.84731 0.08165 0.0
C1121 C 0.0321 0.8469 0.10413 0.0
C1122 C 0.03941 0.86593 0.06652 0.0
C1123 C 0.02571 0.88431 0.07351 0.0
C1124 C 0.01519 0.8837 0.09592 0.0
C1125 C 0.01841 0.86527 0.11108 0.0
C1126 C 0.99893 0.93359 0.04301 0.0
C1127 C 0.01916 0.94762 0.03389 0.0
C1128 C 0.00088 0.91245 0.05507 0.0
C1129 C 0.02305 0.90476 0.05811 0.0
C1130 C 0.04299 0.91789 0.04776 0.0
C1131 C 0.04109 0.93914 0.03584 0.0
H1132 H 0.93049 0.21243 0.83741 0.0
H1133 H 0.9456 0.29351 0.84012 0.0
H1134 H 0.89165 0.21218 0.81632 0.0
H1135 H 0.90723 0.29319 0.81942 0.0
H1136 H 0.8279 0.28729 0.81073 0.0
H1137 H 0.86454 0.28172 0.83177 0.0
H1138 H 0.87469 0.22529 0.77527 0.0
H1139 H 0.83752 0.23074 0.75406 0.0
C1140 C 0.92559 0.23011 0.83341 0.0
C1141 C 0.94103 0.25299 0.84052 0.0
C1142 C 0.90345 0.22995 0.82133 0.0
C1143 C 0.89637 0.25268 0.81652 0.0
C1144 C 0.91206 0.27541 0.82324 0.0
C1145 C 0.93411 0.27556 0.835 0.0
C1146 C 0.8377 0.2734 0.80291 0.0
C1147 C 0.82994 0.25953 0.78067 0.0
C1148 C 0.85876 0.27031 0.81492 0.0
C1149 C 0.87259 0.2533 0.805 0.0
C1150 C 0.86431 0.2385 0.78331 0.0
C1151 C 0.84316 0.24169 0.77116 0.0
H1152 H 0.50415 0.21203 0.60314 0.0
H1153 H 0.58117 0.23 0.60759 0.0
H1154 H 0.5058 0.17217 0.58012 0.0
H1155 H 0.58285 0.19 0.58409 0.0
H1156 H 0.57156 0.1016 0.56832 0.0
H1157 H 0.57413 0.14417 0.5883 0.0
H1158 H 0.51624 0.15598 0.54073 0.0
H1159 H 0.5134 0.11365 0.52121 0.0
C1160 C 0.52145 0.20755 0.59899 0.0
C1161 C 0.54252 0.22417 0.60712 0.0
C1162 C 0.52241 0.18474 0.58567 0.0
C1163 C 0.54447 0.17795 0.58014 0.0
C1164 C 0.5656 0.19462 0.58819 0.0
C1165 C 0.56462 0.21756 0.6015 0.0
C1166 C 0.55967 0.11347 0.56193 0.0
C1167 C 0.54205 0.10412 0.54344 0.0
C1168 C 0.56115 0.13785 0.57334 0.0
C1169 C 0.54509 0.1533 0.56637 0.0
C1170 C 0.52846 0.14436 0.54694 0.0
C1171 C 0.52692 0.12009 0.53568 0.0
H1172 H 0.5853 0.781 0.37129 0.0
H1173 H 0.54346 0.73311 0.31321 0.0
H1174 H 0.62148 0.77873 0.34973 0.0
H1175 H 0.57986 0.73117 0.2914 0.0
H1176 H 0.65216 0.76413 0.25388 0.0
H1177 H 0.61351 0.76314 0.27234 0.0
H1178 H 0.64363 0.74174 0.33799 0.0
H1179 H 0.68185 0.74237 0.31965 0.0
C1180 C 0.58381 0.77012 0.35384 0.0
C1181 C 0.56158 0.75715 0.34397 0.0
C1182 C 0.60453 0.76874 0.34156 0.0
C1183 C 0.60344 0.75465 0.31899 0.0
C1184 C 0.58114 0.74219 0.30876 0.0
C1185 C 0.56039 0.74324 0.32126 0.0
C1186 C 0.65032 0.75879 0.27209 0.0
C1187 C 0.66999 0.75346 0.28538 0.0
C1188 C 0.62827 0.75822 0.28262 0.0
C1189 C 0.62575 0.75267 0.30667 0.0
C1190 C 0.6452 0.74641 0.31954 0.0
C1191 C 0.66703 0.74665 0.30897 0.0
H1192 H 0.06361 0.21431 0.45726 0.0
H1193 H 0.99417 0.19047 0.42061 0.0
H1194 H 0.05758 0.17676 0.47895 0.0
H1195 H 0.98745 0.15373 0.44316 0.0
H1196 H 0.99587 0.07596 0.46167 0.0
H1197 H 0.99938 0.11524 0.4439 0.0
H1198 H 0.03772 0.15408 0.50875 0.0
H1199 H 0.03523 0.11398 0.52628 0.0
C1200 C 0.04693 0.20115 0.45406 0.0
C1201 C 0.02949 0.20513 0.43701 0.0
C1202 C 0.04335 0.17971 0.46669 0.0
C1203 C 0.02206 0.16194 0.4628 0.0
C1204 C 0.00432 0.16654 0.44627 0.0
C1205 C 0.0081 0.1877 0.43337 0.0
C1206 C 0.00489 0.09283 0.47238 0.0
C1207 C 0.01538 0.09167 0.49545 0.0
C1208 C 0.00675 0.11557 0.46216 0.0
C1209 C 0.01886 0.13806 0.47477 0.0
C1210 C 0.0286 0.13713 0.49828 0.0
C1211 C 0.02696 0.11416 0.50847 0.0
H1212 H 0.58145 0.30171 0.17108 0.0
H1213 H 0.55671 0.22164 0.16925 0.0
H1214 H 0.62014 0.29661 0.18864 0.0
H1215 H 0.59537 0.21657 0.18677 0.0
H1216 H 0.66038 0.22483 0.24278 0.0
H1217 H 0.62099 0.22796 0.22523 0.0
H1218 H 0.65456 0.27705 0.17474 0.0
H1219 H 0.69376 0.2739 0.1922 0.0
C1220 C 0.58423 0.28306 0.17457 0.0
C1221 C 0.56606 0.26209 0.16876 0.0
C1222 C 0.60642 0.28011 0.18445 0.0
C1223 C 0.61085 0.25615 0.18894 0.0
C1224 C 0.59247 0.23527 0.18365 0.0
C1225 C 0.57036 0.23819 0.17355 0.0
C1226 C 0.65929 0.23596 0.2277 0.0
C1227 C 0.68009 0.24909 0.21883 0.0
C1228 C 0.63677 0.23778 0.21768 0.0
C1229 C 0.63468 0.25299 0.19878 0.0
C1230 C 0.65558 0.26553 0.18953 0.0
C1231 C 0.67803 0.26352 0.19938 0.0
H1232 H 0.54378 0.82657 0.97257 0.0
H1233 H 0.55136 0.86026 0.90524 0.0
H1234 H 0.5432 0.86781 0.99386 0.0
H1235 H 0.55075 0.90152 0.92657 0.0
H1236 H 0.51135 0.95877 0.96946 0.0
H1237 H 0.51829 0.91991 0.94754 0.0
H1238 H 0.56857 0.91069 0.00468 0.0
H1239 H 0.56184 0.94985 0.02651 0.0
C1240 C 0.54566 0.84284 0.96239 0.0
C1241 C 0.54751 0.84021 0.93725 0.0
C1242 C 0.54543 0.86645 0.97458 0.0
C1243 C 0.5468 0.88782 0.96183 0.0
C1244 C 0.54942 0.8853 0.93679 0.0
C1245 C 0.54991 0.86173 0.92463 0.0
C1246 C 0.52415 0.94864 0.97716 0.0
C1247 C 0.53613 0.95732 -0.00038 0.0
C1248 C 0.52816 0.92644 0.96459 0.0
C1249 C 0.544 0.91231 0.9744 0.0
C1250 C 0.55616 0.92114 0.99678 0.0
C1251 C 0.55235 0.94353 0.00923 0.0
H1252 H 0.92029 0.78524 0.64965 0.0
H1253 H 0.9587 0.75753 0.70685 0.0
H1254 H 0.88691 0.78738 0.67558 0.0
H1255 H 0.92509 0.7594 0.73273 0.0
H1256 H 0.84451 0.73618 0.75355 0.0
H1257 H 0.88125 0.73667 0.73211 0.0
H1258 H 0.87887 0.8122 0.7148 0.0
H1259 H 0.84235 0.81192 0.7363 0.0
C1260 C 0.9216 0.77962 0.66777 0.0
C1261 C 0.9421 0.77122 0.67621 0.0
C1262 C 0.90256 0.781 0.68266 0.0
C1263 C 0.90345 0.77365 0.70622 0.0
C1264 C 0.9239 0.76511 0.71464 0.0
C1265 C 0.94313 0.76412 0.69986 0.0
C1266 C 0.85206 0.75307 0.74557 0.0
C1267 C 0.84041 0.77398 0.74661 0.0
C1268 C 0.87312 0.75334 0.73332 0.0
C1269 C 0.88276 0.77438 0.72157 0.0
C1270 C 0.87167 0.79563 0.72345 0.0
C1271 C 0.85085 0.79551 0.73597 0.0
H1272 H 0.13765 0.01821 0.87544 0.0
H1273 H 0.07606 0.98105 0.83042 0.0
H1274 H 0.11335 0.01762 0.91057 0.0
H1275 H 0.05152 0.9811 0.86538 0.0
H1276 H 0.01737 0.96735 0.93709 0.0
H1277 H 0.04306 0.96407 0.90312 0.0
H1278 H 0.08276 0.03821 0.92654 0.0
H1279 H 0.0574 0.04118 0.96047 0.0
C1280 C 0.11891 0.00987 0.87306 0.0
C1281 C 0.10878 -0.00025 0.85012 0.0
C1282 C 0.10491 0.00968 0.89318 0.0
C1283 C 0.08036 -0.00051 0.89087 0.0
C1284 C 0.07038 0.98885 0.86797 0.0
C1285 C 0.08443 0.98895 0.84786 0.0
C1286 C 0.03167 0.98285 0.93496 0.0
C1287 C 0.03548 0.00443 0.95152 0.0
C1288 C 0.04634 0.98105 0.91544 0.0
C1289 C 0.0651 0.00085 0.91203 0.0
C1290 C 0.06884 0.02238 0.92876 0.0
C1291 C 0.05423 0.02413 0.94821 0.0
H1292 H 0.72825 0.33614 0.55587 0.0
H1293 H 0.79023 0.38989 0.58429 0.0
H1294 H 0.73114 0.31238 0.59084 0.0
H1295 H 0.79269 0.3668 0.61945 0.0
H1296 H 0.80631 0.30923 0.66817 0.0
H1297 H 0.80286 0.32823 0.63043 0.0
H1298 H 0.72602 0.31502 0.63369 0.0
H1299 H 0.72956 0.29518 0.671 0.0
C1300 C 0.74234 0.34297 0.5697 0.0
C1301 C 0.75905 0.36479 0.56739 0.0
C1302 C 0.74397 0.32942 0.58973 0.0
C1303 C 0.76228 0.33757 0.60783 0.0
C1304 C 0.77871 0.35966 0.60558 0.0
C1305 C 0.77718 0.37304 0.58554 0.0
C1306 C 0.7887 0.31008 0.66058 0.0
C1307 C 0.76822 0.3009 0.67243 0.0
C1308 C 0.7867 0.32114 0.63911 0.0
C1309 C 0.76417 0.32348 0.62924 0.0
C1310 C 0.74362 0.31335 0.64069 0.0
C1311 C 0.74563 0.30207 0.66208 0.0
H1312 H 0.43528 0.07682 0.3718 0.0
H1313 H 0.49533 0.05985 0.33232 0.0
H1314 H 0.45877 0.0787 0.40973 0.0
H1315 H 0.51873 0.06169 0.37028 0.0
H1316 H 0.55606 0.07381 0.44629 0.0
H1317 H 0.53646 0.0872 0.41078 0.0
H1318 H 0.47071 0.03896 0.42458 0.0
H1319 H 0.49022 0.02518 0.45914 0.0
C1320 C 0.45368 0.07417 0.3712 0.0
C1321 C 0.46337 0.06765 0.34923 0.0
C1322 C 0.46708 0.07526 0.39287 0.0
C1323 C 0.49038 0.07001 0.39282 0.0
C1324 C 0.50083 0.0659 0.37075 0.0
C1325 C 0.48737 0.06466 0.34907 0.0
C1326 C 0.53739 0.06629 0.4417 0.0
C1327 C 0.52455 0.04863 0.45546 0.0
C1328 C 0.52622 0.07399 0.42156 0.0
C1329 C 0.50202 0.06441 0.41529 0.0
C1330 C 0.48922 0.04711 0.42937 0.0
C1331 C 0.50043 0.03913 0.44909 0.0
H1332 H 0.75896 0.65178 0.08634 0.0
H1333 H 0.78012 0.72425 0.05977 0.0
H1334 H 0.75615 0.67237 0.12674 0.0
H1335 H 0.77755 0.74487 0.10033 0.0
H1336 H 0.79843 0.76644 0.18274 0.0
H1337 H 0.7993 0.74764 0.14138 0.0
H1338 H 0.73093 0.70091 0.14829 0.0
H1339 H 0.72991 0.71986 0.18975 0.0
C1340 C 0.7631 0.67211 0.08914 0.0
C1341 C 0.76984 0.68637 0.06985 0.0
C1342 C 0.7613 0.68391 0.11226 0.0
C1343 C 0.76654 0.71026 0.11675 0.0
C1344 C 0.7735 0.72453 0.09749 0.0
C1345 C 0.77494 0.71273 0.07426 0.0
C1346 C 0.78346 0.7523 0.17543 0.0
C1347 C 0.7641 0.74465 0.18965 0.0
C1348 C 0.78393 0.74161 0.15165 0.0
C1349 C 0.76524 0.7227 0.14156 0.0
C1350 C 0.7457 0.71528 0.15562 0.0
C1351 C 0.74504 0.72628 0.17932 0.0
H1352 H 0.13126 0.98779 0.7011 0.0
H1353 H 0.08863 0.03537 0.73916 0.0
H1354 H 0.11383 0.99635 0.66269 0.0
H1355 H 0.07184 0.04475 0.70085 0.0
H1356 H 0.02908 0.03604 0.62806 0.0
H1357 H 0.04581 0.02819 0.66702 0.0
H1358 H 0.11452 0.02859 0.6365 0.0
H1359 H 0.0974 0.03549 0.59733 0.0
C1360 C 0.11811 3e-05 0.70125 0.0
C1361 C 0.11127 0.01082 0.72317 0.0
C1362 C 0.10829 0.0052 0.67921 0.0
C1363 C 0.09154 0.02147 0.67853 0.0
C1364 C 0.08445 0.03192 0.70056 0.0
C1365 C 0.09413 0.02658 0.72258 0.0
C1366 C 0.04783 0.03478 0.6298 0.0
C1367 C 0.06194 0.03638 0.60968 0.0
C1368 C 0.05747 0.0303 0.65217 0.0
C1369 C 0.08152 0.02749 0.65498 0.0
C1370 C 0.09581 0.03006 0.63496 0.0
C1371 C 0.0861 0.03434 0.61255 0.0
H1372 H 0.74465 0.31966 0.45991 0.0
H1373 H 0.75111 0.38419 0.41881 0.0
H1374 H 0.74569 0.29228 0.42262 0.0
H1375 H 0.7519 0.35696 0.38182 0.0
H1376 H 0.78449 0.31042 0.32719 0.0
H1377 H 0.78255 0.33272 0.36659 0.0
H1378 H 0.72271 0.27683 0.38194 0.0
H1379 H 0.72494 0.25399 0.34219 0.0
C1380 C 0.74597 0.32792 0.4429 0.0
C1381 C 0.74804 0.35407 0.44224 0.0
C1382 C 0.74652 0.31226 0.42162 0.0
C1383 C 0.74929 0.32258 0.39945 0.0
C1384 C 0.75028 0.34858 0.39876 0.0
C1385 C 0.74968 0.36415 0.41991 0.0
C1386 C 0.77122 0.30254 0.33911 0.0
C1387 C 0.75476 0.28057 0.3316 0.0
C1388 C 0.76996 0.31547 0.36159 0.0
C1389 C 0.75214 0.3068 0.37705 0.0
C1390 C 0.73657 0.28394 0.37027 0.0
C1391 C 0.73785 0.27089 0.34761 0.0
H1392 H 0.46425 0.0017 0.23055 0.0
H1393 H 0.45121 0.07528 0.2162 0.0
H1394 H 0.48399 0.99815 0.19262 0.0
H1395 H 0.47014 0.07143 0.17795 0.0
H1396 H 0.52013 0.06572 0.118 0.0
H1397 H 0.50709 0.06997 0.15921 0.0
H1398 H 0.47212 0.99208 0.15055 0.0
H1399 H 0.48591 0.98772 0.10982 0.0
C1400 C 0.46564 0.01711 0.21928 0.0
C1401 C 0.45612 0.0387 0.2262 0.0
C1402 C 0.47684 0.01504 0.19752 0.0
C1403 C 0.47853 0.03445 0.1822 0.0
C1404 C 0.46946 0.05629 0.18947 0.0
C1405 C 0.45845 0.05843 0.2113 0.0
C1406 C 0.50989 0.04949 0.12511 0.0
C1407 C 0.50392 0.02643 0.11085 0.0
C1408 C 0.50231 0.05194 0.1486 0.0
C1409 C 0.48846 0.0314 0.15813 0.0
C1410 C 0.48305 0.00817 0.14393 0.0
C1411 C 0.49079 0.0057 0.12054 0.0
H1412 H 0.76446 0.65441 0.91249 0.0
H1413 H 0.78387 0.72554 0.95595 0.0
H1414 H 0.7677 0.67607 0.87593 0.0
H1415 H 0.78652 0.7474 0.91937 0.0
H1416 H 0.80997 0.77771 0.8482 0.0
H1417 H 0.80923 0.75533 0.88452 0.0
H1418 H 0.74785 0.70233 0.85336 0.0
H1419 H 0.74896 0.72436 0.81712 0.0
C1420 C 0.76931 0.67472 0.91425 0.0
C1421 C 0.77384 0.68822 0.93718 0.0
C1422 C 0.77106 0.6872 0.89324 0.0
C1423 C 0.77731 0.7136 0.89454 0.0
C1424 C 0.78197 0.72708 0.91754 0.0
C1425 C 0.78028 0.71455 0.93858 0.0
C1426 C 0.79646 0.76116 0.8491 0.0
C1427 C 0.77962 0.75275 0.82971 0.0
C1428 C 0.79589 0.74841 0.87 0.0
C1429 C 0.77845 0.72694 0.87204 0.0
C1430 C 0.7618 0.71848 0.85243 0.0
C1431 C 0.76239 0.73118 0.83159 0.0
H1432 H 0.84173 0.10546 0.98428 0.0
H1433 H 0.82003 0.07916 0.05235 0.0
H1434 H 0.86845 0.07493 0.98043 0.0
H1435 H 0.846 0.04791 0.04811 0.0
H1436 H 0.92374 0.03282 0.05053 0.0
H1437 H 0.88812 0.05153 0.05193 0.0
H1438 H 0.87417 0.0317 0.97511 0.0
H1439 H 0.91064 0.01346 0.97372 0.0
C1440 C 0.8424 0.09285 0.99821 0.0
C1441 C 0.82921 0.09495 0.01882 0.0
C1442 C 0.85749 0.07514 0.99588 0.0
C1443 C 0.85946 0.05904 0.01404 0.0
C1444 C 0.84521 0.06032 0.03401 0.0
C1445 C 0.83035 0.07821 0.03646 0.0
C1446 C 0.91276 0.03192 0.03403 0.0
C1447 C 0.92 0.02204 0.01196 0.0
C1448 C 0.89221 0.04251 0.03484 0.0
C1449 C 0.8784 0.04338 0.01357 0.0
C1450 C 0.88468 0.03168 0.99173 0.0
C1451 C 0.90537 0.02104 0.99094 0.0
H1452 H 0.34636 0.41909 0.0687 0.0
H1453 H 0.33025 0.44293 0.99893 0.0
H1454 H 0.38693 0.44262 0.06875 0.0
H1455 H 0.37098 0.46664 0.99901 0.0
H1456 H 0.45495 0.48208 0.99951 0.0
H1457 H 0.41355 0.45949 0.99741 0.0
H1458 H 0.40671 0.48701 0.07155 0.0
H1459 H 0.44774 0.50942 0.07354 0.0
C1460 C 0.35146 0.42944 0.0534 0.0
C1461 C 0.33505 0.42924 0.03387 0.0
C1462 C 0.3747 0.443 0.05346 0.0
C1463 C 0.38218 0.45659 0.03391 0.0
C1464 C 0.36583 0.45622 0.01425 0.0
C1465 C 0.34247 0.44279 0.01429 0.0
C1466 C 0.44443 0.48354 0.01517 0.0
C1467 C 0.45452 0.49758 0.03663 0.0
C1468 C 0.42076 0.47061 0.01401 0.0
C1469 C 0.40688 0.4713 0.03439 0.0
C1470 C 0.41699 0.48575 0.05565 0.0
C1471 C 0.44047 0.49872 0.05674 0.0
H1472 H 0.31377 0.56776 0.73347 0.0
H1473 H 0.37936 0.61981 0.75339 0.0
H1474 H 0.29131 0.60237 0.73856 0.0
H1475 H 0.35714 0.65429 0.75803 0.0
H1476 H 0.31101 0.70567 0.79086 0.0
H1477 H 0.32991 0.66891 0.78568 0.0
H1478 H 0.28405 0.64128 0.72196 0.0
H1479 H 0.26465 0.67824 0.7274 0.0
C1480 C 0.32341 0.5866 0.73876 0.0
C1481 C 0.34835 0.59101 0.74317 0.0
C1482 C 0.31054 0.60645 0.74159 0.0
C1483 C 0.32234 0.63112 0.74898 0.0
C1484 C 0.34736 0.63549 0.75283 0.0
C1485 C 0.36016 0.61572 0.75 0.0
C1486 C 0.30471 0.69171 0.77582 0.0
C1487 C 0.28639 0.69509 0.75943 0.0
C1488 C 0.31573 0.67065 0.77275 0.0
C1489 C 0.30888 0.65232 0.75312 0.0
C1490 C 0.28977 0.65502 0.7373 0.0
C1491 C 0.27863 0.67619 0.74042 0.0
H1492 H 0.21218 0.62447 0.5672 0.0
H1493 H 0.22814 0.57932 0.5041 0.0
H1494 H 0.17128 0.60158 0.56417 0.0
H1495 H 0.18747 0.55573 0.50152 0.0
H1496 H 0.10655 0.54642 0.48498 0.0
H1497 H 0.14891 0.56367 0.49021 0.0
H1498 H 0.14537 0.56262 0.56752 0.0
H1499 H 0.10274 0.54611 0.56235 0.0
C1500 C 0.20704 0.60931 0.55296 0.0
C1501 C 0.22322 0.60381 0.53576 0.0
C1502 C 0.18364 0.59608 0.55128 0.0
C1503 C 0.17602 0.57691 0.53248 0.0
C1504 C 0.19261 0.5707 0.51593 0.0
C1505 C 0.21594 0.5841 0.51749 0.0
C1506 C 0.11482 0.54965 0.50309 0.0
C1507 C 0.10121 0.5451 0.52325 0.0
C1508 C 0.13919 0.5594 0.50609 0.0
C1509 C 0.15056 0.56461 0.52931 0.0
C1510 C 0.13709 0.55924 0.54942 0.0
C1511 C 0.11266 0.54967 0.54643 0.0
H1512 H 0.66896 0.94226 0.7834 0.0
H1513 H 0.70807 0.97117 0.72395 0.0
H1514 H 0.69825 0.91543 0.79017 0.0
H1515 H 0.73772 0.94468 0.73105 0.0
H1516 H 0.75951 0.87779 0.80618 0.0
H1517 H 0.73991 0.91423 0.80267 0.0
H1518 H 0.73636 0.8995 0.72491 0.0
H1519 H 0.75614 0.86366 0.72847 0.0
C1520 C 0.68396 0.94303 0.77193 0.0
C1521 C 0.6861 0.9585 0.75295 0.0
C1522 C 0.7009 0.92792 0.776 0.0
C1523 C 0.72033 0.92803 0.76119 0.0
C1524 C 0.72283 0.94408 0.74264 0.0
C1525 C 0.70585 0.95917 0.73854 0.0
C1526 C 0.75513 0.88289 0.78839 0.0
C1527 C 0.75902 0.8679 0.7676 0.0
C1528 C 0.74377 0.90355 0.78637 0.0
C1529 C 0.73633 0.90949 0.76352 0.0
C1530 C 0.742 0.89555 0.74275 0.0
C1531 C 0.75321 0.87493 0.74478 0.0
H1532 H 0.73377 0.96278 0.54271 0.0
H1533 H 0.68338 0.89371 0.52514 0.0
H1534 H 0.70113 0.98661 0.54251 0.0
H1535 H 0.65065 0.91762 0.52492 0.0
H1536 H 0.59676 0.96647 0.55147 0.0
H1537 H 0.63004 0.9436 0.55376 0.0
H1538 H 0.67168 0.99753 0.51262 0.0
H1539 H 0.63828 0.0204 0.51031 0.0
C1540 C 0.7157 0.95267 0.53885 0.0
C1541 C 0.71114 0.92634 0.53394 0.0
C1542 C 0.69702 0.96636 0.53861 0.0
C1543 C 0.6733 0.95403 0.5337 0.0
C1544 C 0.66871 0.92765 0.52901 0.0
C1545 C 0.68745 0.91397 0.52901 0.0
C1546 C 0.6131 0.97355 0.54309 0.0
C1547 C 0.61495 0.9952 0.53069 0.0
C1548 C 0.63208 0.96035 0.54425 0.0
C1549 C 0.65344 0.96863 0.53323 0.0
C1550 C 0.65551 0.99074 0.52142 0.0
C1551 C 0.63641 0.00383 0.52006 0.0
H1552 H 0.34893 0.44789 0.70313 0.0
H1553 H 0.33772 0.46584 0.77847 0.0
H1554 H 0.32799 0.40479 0.70539 0.0
H1555 H 0.31703 0.42284 0.78073 0.0
H1556 H 0.30783 0.33713 0.78185 0.0
H1557 H 0.32896 0.37965 0.77775 0.0
H1558 H 0.28594 0.38193 0.7127 0.0
H1559 H 0.26465 0.33938 0.71691 0.0
C1560 C 0.34188 0.44267 0.72011 0.0
C1561 C 0.34494 0.46023 0.74062 0.0
C1562 C 0.32988 0.41804 0.72138 0.0
C1563 C 0.32104 0.41044 0.74327 0.0
C1564 C 0.32391 0.4281 0.76369 0.0
C1565 C 0.3356 0.45276 0.76234 0.0
C1566 C 0.30298 0.34667 0.76661 0.0
C1567 C 0.28452 0.33506 0.74976 0.0
C1568 C 0.31497 0.37103 0.76434 0.0
C1569 C 0.30896 0.38416 0.745 0.0
C1570 C 0.29099 0.37223 0.72773 0.0
C1571 C 0.27878 0.34795 0.73018 0.0
H1572 H 0.14946 0.5872 0.22206 0.0
H1573 H 0.20315 0.56365 0.26734 0.0
H1574 H 0.1731 0.62954 0.22486 0.0
H1575 H 0.22703 0.60567 0.26962 0.0
H1576 H 0.23105 0.69676 0.21751 0.0
H1577 H 0.21042 0.65321 0.21249 0.0
H1578 H 0.22472 0.64707 0.28829 0.0
H1579 H 0.24577 0.69023 0.29326 0.0
C1580 C 0.16637 0.59106 0.23247 0.0
C1581 C 0.17441 0.57227 0.24463 0.0
C1582 C 0.17999 0.61521 0.23392 0.0
C1583 C 0.20191 0.62091 0.24748 0.0
C1584 C 0.21006 0.60194 0.25932 0.0
C1585 C 0.19642 0.57787 0.25796 0.0
C1586 C 0.23003 0.68604 0.23305 0.0
C1587 C 0.23999 0.69703 0.25581 0.0
C1588 C 0.21806 0.66115 0.23019 0.0
C1589 C 0.21582 0.64679 0.25002 0.0
C1590 C 0.22636 0.65756 0.2726 0.0
C1591 C 0.23835 0.68239 0.27546 0.0
H1592 H 0.53722 0.71946 0.44879 0.0
H1593 H 0.47488 0.67394 0.41074 0.0
H1594 H 0.54074 0.68554 0.47395 0.0
H1595 H 0.47863 0.63983 0.4356 0.0
H1596 H 0.47871 0.5914 0.4973 0.0
H1597 H 0.47483 0.62837 0.47674 0.0
H1598 H 0.55115 0.64374 0.47003 0.0
H1599 H 0.55515 0.60699 0.49095 0.0
C1600 C 0.52427 0.70219 0.4458 0.0
C1601 C 0.50578 0.69934 0.42776 0.0
C1602 C 0.52635 0.68272 0.46016 0.0
C1603 C 0.50997 0.65997 0.45683 0.0
C1604 C 0.49135 0.65724 0.4389 0.0
C1605 C 0.48929 0.67671 0.42452 0.0
C1606 C 0.49474 0.60282 0.49176 0.0
C1607 C 0.51725 0.59608 0.49569 0.0
C1608 C 0.49247 0.62393 0.47978 0.0
C1609 C 0.51263 0.63885 0.47146 0.0
C1610 C 0.53525 0.63276 0.47633 0.0
C1611 C 0.53754 0.61163 0.48831 0.0
H1612 H 0.58485 0.26298 0.71719 0.0
H1613 H 0.61978 0.32638 0.68247 0.0
H1614 H 0.62156 0.26303 0.74116 0.0
H1615 H 0.65633 0.32705 0.70702 0.0
H1616 H 0.72465 0.30182 0.73369 0.0
H1617 H 0.68771 0.30361 0.71078 0.0
H1618 H 0.64781 0.28539 0.77326 0.0
H1619 H 0.68478 0.2822 0.79548 0.0
C1620 C 0.60031 0.27714 0.71492 0.0
C1621 C 0.59947 0.29462 0.69791 0.0
C1622 C 0.62134 0.27728 0.72876 0.0
C1623 C 0.64199 0.29502 0.72603 0.0
C1624 C 0.64093 0.31284 0.70932 0.0
C1625 C 0.61993 0.31259 0.69537 0.0
C1626 C 0.70793 0.29771 0.74225 0.0
C1627 C 0.70748 0.29115 0.76601 0.0
C1628 C 0.68676 0.2992 0.72934 0.0
C1629 C 0.66466 0.29446 0.74009 0.0
C1630 C 0.6644 0.28866 0.76422 0.0
C1631 C 0.68559 0.28703 0.77704 0.0
H1632 H 0.00614 0.34791 0.89366 0.0
H1633 H 0.00464 0.31097 0.95929 0.0
H1634 H 0.00406 0.38765 0.917 0.0
H1635 H 0.0028 0.35099 0.98275 0.0
H1636 H 0.03421 0.43529 0.01199 0.0
H1637 H 0.03137 0.39318 0.99138 0.0
H1638 H 0.97473 0.40692 0.94338 0.0
H1639 H 0.97743 0.44916 0.9641 0.0
C1640 C 0.0054 0.3483 0.91309 0.0
C1641 C 0.00567 0.32638 0.92468 0.0
C1642 C 0.00398 0.37101 0.92642 0.0
C1643 C 0.00312 0.37236 0.95165 0.0
C1644 C 0.00348 0.35046 0.9633 0.0
C1645 C 0.00453 0.3276 0.94991 0.0
C1646 C 0.02093 0.42924 0.99723 0.0
C1647 C 0.00613 0.44559 0.98956 0.0
C1648 C 0.01924 0.40507 0.98554 0.0
C1649 C 0.00294 0.39687 0.96571 0.0
C1650 C 0.98759 0.41289 0.95851 0.0
C1651 C 0.98903 0.43697 0.97046 0.0
H1652 H 0.9618 0.74974 0.17242 0.0
H1653 H 0.99139 0.82 0.21408 0.0
H1654 H 0.92507 0.74799 0.19368 0.0
H1655 H 0.95474 0.81801 0.23581 0.0
H1656 H 0.87415 0.81971 0.2455 0.0
H1657 H 0.9132 0.82186 0.22822 0.0
H1658 H 0.9089 0.74205 0.23255 0.0
H1659 H 0.86973 0.73991 0.24923 0.0
C1660 C 0.96054 0.76468 0.18632 0.0
C1661 C 0.97946 0.78502 0.19156 0.0
C1662 C 0.93953 0.76362 0.19863 0.0
C1663 C 0.93694 0.78285 0.2165 0.0
C1664 C 0.95604 0.80304 0.22197 0.0
C1665 C 0.97708 0.8041 0.20963 0.0
C1666 C 0.88173 0.80273 0.24298 0.0
C1667 C 0.86891 0.77963 0.24855 0.0
C1668 C 0.90413 0.80394 0.23318 0.0
C1669 C 0.91411 0.78207 0.2288 0.0
C1670 C 0.90155 0.75916 0.23525 0.0
C1671 C 0.87919 0.75796 0.24497 0.0
H1672 H 0.54865 0.338 0.09343 0.0
H1673 H 0.47193 0.32894 0.08414 0.0
H1674 H 0.55278 0.37501 0.07097 0.0
H1675 H 0.47599 0.36626 0.06216 0.0
H1676 H 0.49093 0.42472 0.00851 0.0
H1677 H 0.48886 0.38427 0.02531 0.0
H1678 H 0.54593 0.41749 0.0778 0.0
H1679 H 0.54838 0.45741 0.06083 0.0
C1680 C 0.53267 0.3439 0.08656 0.0
C1681 C 0.50997 0.33064 0.09069 0.0
C1682 C 0.53502 0.36517 0.07375 0.0
C1683 C 0.51472 0.37373 0.06481 0.0
C1684 C 0.49202 0.36007 0.06849 0.0
C1685 C 0.48968 0.33877 0.08127 0.0
C1686 C 0.50328 0.42325 0.02337 0.0
C1687 C 0.51976 0.44439 0.03332 0.0
C1688 C 0.50196 0.40012 0.03315 0.0
C1689 C 0.51716 0.39761 0.053 0.0
C1690 C 0.53413 0.41857 0.06236 0.0
C1691 C 0.53541 0.4416 0.05267 0.0
H1692 H 0.99155 0.30684 0.34374 0.0
H1693 H 0.95242 0.25089 0.38454 0.0
H1694 H 0.95414 0.31606 0.32723 0.0
H1695 H 0.91494 0.25911 0.36721 0.0
H1696 H 0.88347 0.30569 0.28193 0.0
H1697 H 0.92164 0.30036 0.3 0.0
H1698 H 0.88873 0.28804 0.36764 0.0
H1699 H 0.8503 0.29215 0.349 0.0
C1700 C 0.97491 0.29628 0.34893 0.0
C1701 C 0.97489 0.27811 0.36538 0.0
C1702 C 0.95341 0.30149 0.33941 0.0
C1703 C 0.93136 0.28841 0.34587 0.0
C1704 C 0.93147 0.27 0.36217 0.0
C1705 C 0.95297 0.26506 0.37194 0.0
C1706 C 0.88451 0.3022 0.30076 0.0
C1707 C 0.86395 0.29926 0.31407 0.0
C1708 C 0.90644 0.29919 0.31119 0.0
C1709 C 0.90837 0.29348 0.33529 0.0
C1710 C 0.88789 0.29178 0.34889 0.0
C1711 C 0.8659 0.29445 0.33833 0.0
H1712 H 0.95836 0.68624 0.5883 0.0
H1713 H 0.0333 0.71106 0.57825 0.0
H1714 H 0.96046 0.6453 0.56639 0.0
H1715 H 0.03536 0.67035 0.55699 0.0
H1716 H 0.03587 0.5857 0.55148 0.0
H1717 H 0.02926 0.62495 0.57297 0.0
H1718 H 0.97195 0.62852 0.52112 0.0
H1719 H 0.97877 0.5892 0.49926 0.0
C1720 C 0.97516 0.68303 0.58127 0.0
C1721 C 0.99566 0.7018 0.58499 0.0
C1722 C 0.97634 0.6597 0.56878 0.0
C1723 C 0.99813 0.65473 0.56031 0.0
C1724 C 0.01842 0.67368 0.56361 0.0
C1725 C 0.01717 0.69701 0.57565 0.0
C1726 C 0.02171 0.59471 0.54478 0.0
C1727 C 0.00795 0.5846 0.52362 0.0
C1728 C 0.01799 0.61716 0.55703 0.0
C1729 C 0.00023 0.62974 0.54854 0.0
C1730 C 0.98571 0.61908 0.52799 0.0
C1731 C 0.98968 0.59673 0.51549 0.0
H1732 H 0.57296 0.76505 0.82191 0.0
H1733 H 0.61664 0.75467 0.88404 0.0
H1734 H 0.60682 0.76307 0.79633 0.0
H1735 H 0.65022 0.75201 0.85831 0.0
H1736 H 0.6947 0.72152 0.79834 0.0
H1737 H 0.65829 0.72079 0.82025 0.0
H1738 H 0.65059 0.79269 0.79656 0.0
H1739 H 0.68744 0.79382 0.77499 0.0
C1740 C 0.58971 0.76209 0.83004 0.0
C1741 C 0.5922 0.76001 0.85496 0.0
C1742 C 0.60905 0.76106 0.81542 0.0
C1743 C 0.63104 0.75732 0.82538 0.0
C1744 C 0.63338 0.75473 0.85019 0.0
C1745 C 0.61422 0.75634 0.8649 0.0
C1746 C 0.68504 0.73698 0.79738 0.0
C1747 C 0.69395 0.75774 0.78489 0.0
C1748 C 0.66431 0.73661 0.8101 0.0
C1749 C 0.65177 0.75673 0.81017 0.0
C1750 C 0.65994 0.77691 0.79671 0.0
C1751 C 0.681 0.77755 0.7844 0.0
H1752 H 0.40306 0.51661 0.65553 0.0
H1753 H 0.45997 0.56395 0.70007 0.0
H1754 H 0.42795 0.51906 0.62095 0.0
H1755 H 0.48468 0.56732 0.66526 0.0
H1756 H 0.53176 0.54445 0.60483 0.0
H1757 H 0.507 0.54459 0.63969 0.0
H1758 H 0.44515 0.54486 0.59221 0.0
H1759 H 0.47011 0.54423 0.55756 0.0
C1760 C 0.42083 0.52779 0.65786 0.0
C1761 C 0.42955 0.54002 0.68057 0.0
C1762 C 0.43511 0.52936 0.63795 0.0
C1763 C 0.45845 0.54343 0.64013 0.0
C1764 C 0.467 0.55596 0.66286 0.0
C1765 C 0.45277 0.55418 0.68284 0.0
C1766 C 0.51288 0.5447 0.60199 0.0
C1767 C 0.50266 0.54375 0.57853 0.0
C1768 C 0.49865 0.54488 0.62195 0.0
C1769 C 0.47389 0.54447 0.61892 0.0
C1770 C 0.46395 0.54445 0.59534 0.0
C1771 C 0.47819 0.54401 0.5754 0.0
H1772 H 0.75278 0.19981 0.97286 0.0
H1773 H 0.82899 0.20237 0.97176 0.0
H1774 H 0.75443 0.22607 0.93949 0.0
H1775 H 0.83065 0.22889 0.93838 0.0
H1776 H 0.766 0.28581 0.88826 0.0
H1777 H 0.77032 0.26875 0.92715 0.0
H1778 H 0.81523 0.21944 0.89549 0.0
H1779 H 0.81103 0.23653 0.85689 0.0
C1780 C 0.76992 0.20623 0.96565 0.0
C1781 C 0.79072 0.19886 0.97468 0.0
C1782 C 0.7709 0.22147 0.94671 0.0
C1783 C 0.79267 0.2295 0.93637 0.0
C1784 C 0.81361 0.2228 0.94594 0.0
C1785 C 0.81266 0.20766 0.96501 0.0
C1786 C 0.77714 0.27168 0.88984 0.0
C1787 C 0.78798 0.26222 0.86966 0.0
C1788 C 0.77953 0.26187 0.91199 0.0
C1789 C 0.79298 0.24268 0.91425 0.0
C1790 C 0.80493 0.23436 0.89434 0.0
C1791 C 0.80238 0.244 0.87221 0.0
H1792 H 0.12274 0.47951 0.15352 0.0
H1793 H 0.06008 0.47041 0.19541 0.0
H1794 H 0.0977 0.47966 0.11708 0.0
H1795 H 0.03502 0.47126 0.15895 0.0
H1796 H 0.99717 0.46857 0.08297 0.0
H1797 H 0.01987 0.45401 0.11579 0.0
H1798 H 0.07771 0.5159 0.11013 0.0
H1799 H 0.05529 0.53032 0.07804 0.0
C1800 C 0.10356 0.47696 0.15481 0.0
C1801 C 0.09334 0.47551 0.17726 0.0
C1802 C 0.08925 0.47709 0.13401 0.0
C1803 C 0.06453 0.47609 0.13538 0.0
C1804 C 0.05403 0.47206 0.15742 0.0
C1805 C 0.06838 0.47168 0.17827 0.0
C1806 C 0.01475 0.47892 0.08887 0.0
C1807 C 0.02464 0.50038 0.07792 0.0
C1808 C 0.0277 0.47058 0.10749 0.0
C1809 C 0.05072 0.48352 0.11509 0.0
C1810 C 0.06031 0.50511 0.10419 0.0
C1811 C 0.04738 0.51349 0.08593 0.0
H1812 H 0.78248 0.88974 0.44683 0.0
H1813 H 0.75884 0.81579 0.46936 0.0
H1814 H 0.785 0.87119 0.40558 0.0
H1815 H 0.76125 0.79723 0.42801 0.0
H1816 H 0.73972 0.77995 0.34609 0.0
H1817 H 0.73959 0.79733 0.38792 0.0
H1818 H 0.80866 0.84299 0.38167 0.0
H1819 H 0.8089 0.8255 0.33956 0.0
C1820 C 0.7778 0.86951 0.44297 0.0
C1821 C 0.77036 0.85424 0.46136 0.0
C1822 C 0.77944 0.85888 0.41936 0.0
C1823 C 0.77337 0.83274 0.4135 0.0
C1824 C 0.7659 0.81746 0.4319 0.0
C1825 C 0.76457 0.82807 0.45559 0.0
C1826 C 0.75498 0.79363 0.35358 0.0
C1827 C 0.77432 0.80136 0.33938 0.0
C1828 C 0.75493 0.80346 0.37766 0.0
C1829 C 0.77409 0.82155 0.38814 0.0
C1830 C 0.79355 0.82921 0.37405 0.0
C1831 C 0.79375 0.81908 0.34998 0.0
H1832 H 0.44153 0.49315 0.78987 0.0
H1833 H 0.41117 0.55301 0.82609 0.0
H1834 H 0.45842 0.48444 0.82856 0.0
H1835 H 0.42842 0.54472 0.86465 0.0
H1836 H 0.44053 0.50756 0.9326 0.0
H1837 H 0.42329 0.51354 0.89317 0.0
H1838 H 0.48844 0.50136 0.86046 0.0
H1839 H 0.5054 0.49486 0.89988 0.0
C1840 C 0.43869 0.50463 0.80606 0.0
C1841 C 0.425 0.52377 0.8049 0.0
C1842 C 0.44841 0.49968 0.82826 0.0
C1843 C 0.44465 0.51372 0.84982 0.0
C1844 C 0.43131 0.53317 0.84851 0.0
C1845 C 0.4216 0.53811 0.82635 0.0
C1846 C 0.45102 0.50582 0.91691 0.0
C1847 C 0.47429 0.50073 0.91931 0.0
C1848 C 0.44125 0.5095 0.89434 0.0
C1849 C 0.45455 0.50824 0.8736 0.0
C1850 C 0.47759 0.5023 0.87595 0.0
C1851 C 0.48734 0.49861 0.89855 0.0
H1852 H 0.79371 0.16434 0.11528 0.0
H1853 H 0.80813 0.23015 0.07617 0.0
H1854 H 0.79179 0.19106 0.15237 0.0
H1855 H 0.80576 0.257 0.11341 0.0
H1856 H 0.82076 0.29364 0.19414 0.0
H1857 H 0.82491 0.27095 0.15488 0.0
H1858 H 0.76223 0.21666 0.16603 0.0
H1859 H 0.75843 0.23886 0.20516 0.0
C1860 C 0.79672 0.18454 0.11468 0.0
C1861 C 0.80085 0.19517 0.09286 0.0
C1862 C 0.79541 0.19983 0.13586 0.0
C1863 C 0.79809 0.22606 0.13562 0.0
C1864 C 0.80356 0.23683 0.11406 0.0
C1865 C 0.80492 0.22148 0.0928 0.0
C1866 C 0.80764 0.27715 0.18789 0.0
C1867 C 0.78943 0.26779 0.20269 0.0
C1868 C 0.81003 0.26416 0.1655 0.0
C1869 C 0.79423 0.24173 0.15774 0.0
C1870 C 0.77506 0.23351 0.17188 0.0
C1871 C 0.77273 0.24637 0.19415 0.0
H1872 H 0.0972 0.46412 0.3085 0.0
H1873 H 0.08109 0.53581 0.29162 0.0
H1874 H 0.07688 0.46774 0.34602 0.0
H1875 H 0.06011 0.53912 0.32879 0.0
H1876 H 0.06021 0.55266 0.41164 0.0
H1877 H 0.07331 0.54704 0.37077 0.0
H1878 H 0.03944 0.46884 0.36494 0.0
H1879 H 0.02687 0.47443 0.4063 0.0
C1880 C 0.08891 0.48041 0.31261 0.0
C1881 C 0.09095 0.49983 0.29734 0.0
C1882 C 0.07713 0.48243 0.33402 0.0
C1883 C 0.06708 0.50384 0.34048 0.0
C1884 C 0.06808 0.52262 0.32453 0.0
C1885 C 0.07998 0.52067 0.3032 0.0
C1886 C 0.05541 0.53433 0.40153 0.0
C1887 C 0.04268 0.51394 0.41206 0.0
C1888 C 0.06273 0.53114 0.37805 0.0
C1889 C 0.05738 0.50749 0.36459 0.0
C1890 C 0.04405 0.48722 0.37496 0.0
C1891 C 0.03677 0.49042 0.39854 0.0
H1892 H 0.75007 0.81108 0.57527 0.0
H1893 H 0.77243 0.88112 0.61987 0.0
H1894 H 0.74678 0.78846 0.61136 0.0
H1895 H 0.76853 0.85871 0.65596 0.0
H1896 H 0.78643 0.80816 0.71299 0.0
H1897 H 0.78767 0.83104 0.67733 0.0
H1898 H 0.72448 0.78059 0.64649 0.0
H1899 H 0.7236 0.75732 0.68227 0.0
C1900 C 0.75413 0.82168 0.5928 0.0
C1901 C 0.76164 0.8479 0.59466 0.0
C1902 C 0.75207 0.80872 0.61355 0.0
C1903 C 0.75743 0.82166 0.63672 0.0
C1904 C 0.76463 0.84798 0.63849 0.0
C1905 C 0.76676 0.86089 0.61777 0.0
C1906 C 0.77264 0.80207 0.69872 0.0
C1907 C 0.75484 0.78096 0.70053 0.0
C1908 C 0.7733 0.81528 0.67822 0.0
C1909 C 0.75616 0.8078 0.65888 0.0
C1910 C 0.73818 0.78677 0.66083 0.0
C1911 C 0.73754 0.7735 0.6814 0.0
H1912 H 0.68761 0.43401 0.48125 0.0
H1913 H 0.72707 0.47234 0.54563 0.0
H1914 H 0.65919 0.46269 0.485 0.0
H1915 H 0.6987 0.50141 0.54921 0.0
H1916 H 0.62181 0.52027 0.56158 0.0
H1917 H 0.65649 0.49946 0.55858 0.0
H1918 H 0.65616 0.50675 0.48194 0.0
H1919 H 0.62125 0.52707 0.4849 0.0
C1920 C 0.69027 0.44867 0.49613 0.0
C1921 C 0.70948 0.45089 0.51319 0.0
C1922 C 0.67413 0.46528 0.49816 0.0
C1923 C 0.67684 0.48448 0.51729 0.0
C1924 C 0.69612 0.48675 0.53434 0.0
C1925 C 0.71234 0.47014 0.53226 0.0
C1926 C 0.62959 0.51803 0.54424 0.0
C1927 C 0.61877 0.52499 0.52343 0.0
C1928 C 0.64944 0.50612 0.54251 0.0
C1929 C 0.65875 0.50105 0.51993 0.0
C1930 C 0.64904 0.50991 0.49948 0.0
C1931 C 0.6292 0.52175 0.50121 0.0
H1932 H 0.18483 0.14047 0.49806 0.0
H1933 H 0.21576 0.07308 0.49613 0.0
H1934 H 0.1451 0.11517 0.49926 0.0
H1935 H 0.17614 0.04781 0.4978 0.0
H1936 H 0.0987 0.00958 0.47409 0.0
H1937 H 0.13906 0.03377 0.47372 0.0
H1938 H 0.12084 0.09007 0.52619 0.0
H1939 H 0.08045 0.0661 0.52615 0.0
C1940 C 0.18314 0.12025 0.49792 0.0
C1941 C 0.20342 0.10878 0.49697 0.0
C1942 C 0.16039 0.10575 0.49879 0.0
C1943 C 0.1574 0.07942 0.49874 0.0
C1944 C 0.17773 0.06798 0.49762 0.0
C1945 C 0.20047 0.08248 0.49676 0.0
C1946 C 0.10343 0.027 0.48569 0.0
C1947 C 0.08641 0.03601 0.50005 0.0
C1948 C 0.12656 0.04086 0.48554 0.0
C1949 C 0.13316 0.06402 0.49976 0.0
C1950 C 0.11626 0.07258 0.51466 0.0
C1951 C 0.09316 0.05873 0.51481 0.0
H1952 H 0.20483 0.95865 0.7508 0.0
H1953 H 0.17089 0.92902 0.81271 0.0
H1954 H 0.22595 0.92297 0.74636 0.0
H1955 H 0.19233 0.89356 0.80849 0.0
H1956 H 0.25457 0.84827 0.80642 0.0
H1957 H 0.23597 0.88578 0.81138 0.0
H1958 H 0.21322 0.87511 0.73579 0.0
H1959 H 0.23145 0.83745 0.73087 0.0
C1960 C 0.20197 0.94459 0.76353 0.0
C1961 C 0.18614 0.94661 0.78207 0.0
C1962 C 0.21402 0.92413 0.76094 0.0
C1963 C 0.21084 0.90549 0.7771 0.0
C1964 C 0.1953 0.90774 0.79589 0.0
C1965 C 0.18293 0.92796 0.79821 0.0
C1966 C 0.24588 0.85413 0.7908 0.0
C1967 C 0.24458 0.83996 0.76822 0.0
C1968 C 0.23506 0.87547 0.79369 0.0
C1969 C 0.22313 0.88338 0.77397 0.0
C1970 C 0.22243 0.8696 0.75127 0.0
C1971 C 0.23281 0.848 0.74848 0.0
H1972 H 0.31531 0.97121 0.00514 0.0
H1973 H 0.33997 0.90028 0.99366 0.0
H1974 H 0.35647 0.99362 0.00488 0.0
H1975 H 0.38097 0.9227 0.99317 0.0
H1976 H 0.44658 0.9727 0.96818 0.0
H1977 H 0.40453 0.95338 0.96596 0.0
H1978 H 0.39476 0.99587 0.03303 0.0
H1979 H 0.43696 0.01525 0.03546 0.0
C1980 C 0.32951 0.96046 0.00241 0.0
C1981 C 0.32457 0.93406 0.99945 0.0
C1982 C 0.35297 0.97326 0.00237 0.0
C1983 C 0.37172 0.95981 0.99895 0.0
C1984 C 0.36672 0.93344 0.99561 0.0
C1985 C 0.34334 0.92065 0.99602 0.0
C1986 C 0.43546 0.97815 0.98235 0.0
C1987 C 0.44509 0.99537 0.00209 0.0
C1988 C 0.41145 0.967 0.9811 0.0
C1989 C 0.39659 0.9731 0.99938 0.0
C1990 C 0.40593 0.991 0.01866 0.0
C1991 C 0.43005 0.00195 0.02009 0.0
H1992 H 0.8569 0.57296 0.73741 0.0
H1993 H 0.87691 0.61853 0.80515 0.0
H1994 H 0.82304 0.59428 0.73146 0.0
H1995 H 0.84349 0.64026 0.79895 0.0
H1996 H 0.77317 0.66236 0.79455 0.0
H1997 H 0.80015 0.63243 0.79837 0.0
H1998 H 0.81528 0.63553 0.72312 0.0
H1999 H 0.78771 0.66489 0.7192 0.0
C2000 C 0.85418 0.58771 0.7509 0.0
C2001 C 0.86951 0.59416 0.77174 0.0
C2002 C 0.83479 0.59986 0.7475 0.0
C2003 C 0.83041 0.61868 0.76488 0.0
C2004 C 0.84603 0.62537 0.78552 0.0
C2005 C 0.86536 0.61319 0.78894 0.0
C2006 C 0.78166 0.65595 0.77866 0.0
C2007 C 0.77866 0.66606 0.75667 0.0
C2008 C 0.79731 0.63908 0.7809 0.0
C2009 C 0.81032 0.63223 0.76122 0.0
C2010 C 0.80554 0.64051 0.73862 0.0
C2011 C 0.78971 0.65727 0.73634 0.0
H2012 H 0.80717 0.57581 0.00633 0.0
H2013 H 0.85486 0.64499 0.99728 0.0
H2014 H 0.84095 0.55359 0.00669 0.0
H2015 H 0.88874 0.62288 0.99803 0.0
H2016 H 0.94134 0.57118 0.97686 0.0
H2017 H 0.90646 0.59168 0.97433 0.0
H2018 H 0.87586 0.55049 0.03189 0.0
H2019 H 0.91062 0.52976 0.03409 0.0
C2020 C 0.82489 0.5863 0.00449 0.0
C2021 C 0.82832 0.61219 0.00179 0.0
C2022 C 0.84429 0.57357 0.00481 0.0
C2023 C 0.86762 0.58639 0.00237 0.0
C2024 C 0.87101 0.6123 -0.00039 0.0
C2025 C 0.85161 0.62504 0.99935 0.0
C2026 C 0.92704 0.56635 0.9888 0.0
C2027 C 0.92869 0.54888 0.00568 0.0
C2028 C 0.90713 0.57825 0.9875 0.0
C2029 C 0.88837 0.57291 0.00302 0.0
C2030 C 0.88983 0.55491 0.0195 0.0
C2031 C 0.90978 0.54306 0.02082 0.0
H2032 H 0.15865 0.09777 0.78942 0.0
H2033 H 0.22389 0.06905 0.80102 0.0
H2034 H 0.18156 0.13979 0.7879 0.0
H2035 H 0.247 0.11117 0.79894 0.0
H2036 H 0.23039 0.20252 0.75491 0.0
H2037 H 0.20736 0.16136 0.76031 0.0
H2038 H 0.25664 0.15376 0.81904 0.0
H2039 H 0.27993 0.19493 0.81328 0.0
C2040 C 0.17793 0.10046 0.79173 0.0
C2041 C 0.18948 0.08007 0.79523 0.0
C2042 C 0.19108 0.12454 0.7907 0.0
C2043 C 0.21615 0.12886 0.79304 0.0
C2044 C 0.22771 0.10857 0.79726 0.0
C2045 C 0.2145 0.08441 0.79836 0.0
C2046 C 0.2362 0.19213 0.76908 0.0
C2047 C 0.25692 0.20191 0.78369 0.0
C2048 C 0.22296 0.16856 0.77226 0.0
C2049 C 0.2301 0.15422 0.79016 0.0
C2050 C 0.25078 0.16416 0.80491 0.0
C2051 C 0.26404 0.18778 0.80172 0.0
H2052 H 0.39874 0.95818 0.31523 0.0
H2053 H 0.34884 0.98121 0.26514 0.0
H2054 H 0.37285 0.91705 0.31454 0.0
H2055 H 0.32266 0.94085 0.26519 0.0
H2056 H 0.29961 0.85761 0.24433 0.0
H2057 H 0.32361 0.89919 0.24879 0.0
H2058 H 0.33454 0.8943 0.32533 0.0
H2059 H 0.3109 0.85183 0.32075 0.0
C2060 C 0.38214 0.9545 0.30429 0.0
C2061 C 0.37594 0.97264 0.28993 0.0
C2062 C 0.36723 0.93108 0.30404 0.0
C2063 C 0.34581 0.92559 0.2896 0.0
C2064 C 0.3393 0.94423 0.27604 0.0
C2065 C 0.35427 0.96739 0.27605 0.0
C2066 C 0.30694 0.86532 0.26221 0.0
C2067 C 0.30328 0.85132 0.2822 0.0
C2068 C 0.32063 0.88933 0.26478 0.0
C2069 C 0.33088 0.90016 0.28744 0.0
C2070 C 0.32705 0.88636 0.30758 0.0
C2071 C 0.31338 0.86212 0.30498 0.0
H2072 H 0.56146 0.37276 0.62502 0.0
H2073 H 0.50376 0.32371 0.58291 0.0
H2074 H 0.55769 0.40621 0.59948 0.0
H2075 H 0.50008 0.35728 0.55711 0.0
H2076 H 0.48388 0.43616 0.53952 0.0
H2077 H 0.48753 0.39916 0.56038 0.0
H2078 H 0.56423 0.41669 0.55794 0.0
H2079 H 0.56072 0.4537 0.53738 0.0
C2080 C 0.54805 0.36908 0.61021 0.0
C2081 C 0.53291 0.34561 0.60598 0.0
C2082 C 0.54599 0.3882 0.59545 0.0
C2083 C 0.52866 0.38437 0.57617 0.0
C2084 C 0.51351 0.36086 0.57191 0.0
C2085 C 0.51568 0.34162 0.58661 0.0
C2086 C 0.50151 0.43193 0.54309 0.0
C2087 C 0.522 0.44812 0.53697 0.0
C2088 C 0.50358 0.41067 0.55501 0.0
C2089 C 0.52619 0.40519 0.56111 0.0
C2090 C 0.54658 0.42067 0.55392 0.0
C2091 C 0.54452 0.44184 0.54198 0.0
H2092 H 0.44984 0.74151 0.31004 0.0
H2093 H 0.41726 0.76408 0.37523 0.0
H2094 H 0.41326 0.7431 0.28647 0.0
H2095 H 0.38103 0.76679 0.35168 0.0
H2096 H 0.31182 0.74992 0.30553 0.0
H2097 H 0.34728 0.74409 0.32882 0.0
H2098 H 0.39135 0.7724 0.27227 0.0
H2099 H 0.35567 0.77734 0.24884 0.0
C2100 C 0.43483 0.74682 0.31932 0.0
C2101 C 0.43639 0.75268 0.34446 0.0
C2102 C 0.4139 0.74795 0.3058 0.0
C2103 C 0.39415 0.75527 0.31708 0.0
C2104 C 0.39568 0.76072 0.34235 0.0
C2105 C 0.41651 0.7593 0.35588 0.0
C2106 C 0.32914 0.75501 0.29825 0.0
C2107 C 0.33111 0.76434 0.2756 0.0
C2108 C 0.34949 0.7517 0.31156 0.0
C2109 C 0.37231 0.75787 0.30254 0.0
C2110 C 0.37412 0.76703 0.27968 0.0
C2111 C 0.35371 0.77005 0.26628 0.0
H2112 H 0.00197 0.71415 0.10178 0.0
H2113 H 0.07792 0.72262 0.11736 0.0
H2114 H 0.00186 0.67324 0.07995 0.0
H2115 H 0.07816 0.68213 0.09453 0.0
H2116 H 0.06422 0.59623 0.07482 0.0
H2117 H 0.06671 0.6383 0.09545 0.0
H2118 H 0.01306 0.65326 0.04432 0.0
H2119 H 0.00988 0.61094 0.02454 0.0
C2120 C 0.0187 0.70735 0.1003 0.0
C2121 C 0.03993 0.72156 0.11129 0.0
C2122 C 0.01872 0.68394 0.0876 0.0
C2123 C 0.04005 0.6743 0.08526 0.0
C2124 C 0.06134 0.6887 0.09619 0.0
C2125 C 0.06125 0.71199 0.10917 0.0
C2126 C 0.05318 0.60866 0.06788 0.0
C2127 C 0.03672 0.60023 0.04821 0.0
C2128 C 0.05463 0.63283 0.07966 0.0
C2129 C 0.03986 0.64921 0.0718 0.0
C2130 C 0.02423 0.64103 0.05136 0.0
C2131 C 0.02254 0.6168 0.03986 0.0
H2132 H 0.08255 0.29397 0.85559 0.0
H2133 H 0.04943 0.2225 0.81819 0.0
H2134 H 0.1179 0.29328 0.83238 0.0
H2135 H 0.08508 0.22176 0.79496 0.0
H2136 H 0.16786 0.21964 0.78757 0.0
H2137 H 0.12889 0.21864 0.80504 0.0
H2138 H 0.12944 0.29518 0.78907 0.0
H2139 H 0.1682 0.29613 0.77156 0.0
C2140 C 0.08278 0.27817 0.8423 0.0
C2141 C 0.06324 0.25829 0.8387 0.0
C2142 C 0.10297 0.27785 0.82892 0.0
C2143 C 0.1042 0.25751 0.81181 0.0
C2144 C 0.08462 0.23762 0.8081 0.0
C2145 C 0.06423 0.23811 0.8213 0.0
C2146 C 0.15941 0.23606 0.78743 0.0
C2147 C 0.17105 0.258 0.77835 0.0
C2148 C 0.13711 0.23547 0.79735 0.0
C2149 C 0.12626 0.25692 0.79859 0.0
C2150 C 0.13752 0.27848 0.78859 0.0
C2151 C 0.15963 0.27897 0.77847 0.0
H2152 H 0.51492 0.67844 0.90487 0.0
H2153 H 0.53894 0.72531 0.971 0.0
H2154 H 0.50963 0.64135 0.92708 0.0
H2155 H 0.53287 0.68831 0.99347 0.0
H2156 H 0.54496 0.6121 0.01937 0.0
H2157 H 0.54851 0.65127 0.00021 0.0
H2158 H 0.48499 0.62047 0.95497 0.0
H2159 H 0.48201 0.58121 0.97352 0.0
C2160 C 0.51891 0.68082 0.9242 0.0
C2161 C 0.52736 0.70478 0.93616 0.0
C2162 C 0.51569 0.65957 0.93702 0.0
C2163 C 0.52063 0.66177 0.96219 0.0
C2164 C 0.52912 0.68582 0.97412 0.0
C2165 C 0.5325 0.70705 0.96124 0.0
C2166 C 0.5315 0.61394 0.00569 0.0
C2167 C 0.51329 0.59353 0.99787 0.0
C2168 C 0.53353 0.63639 0.99464 0.0
C2169 C 0.51726 0.63895 0.97569 0.0
C2170 C 0.49825 0.61898 0.96898 0.0
C2171 C 0.49638 0.59653 0.9798 0.0
H2172 H 0.04944 0.71872 0.67258 0.0
H2173 H 0.08187 0.79479 0.66215 0.0
H2174 H 0.08825 0.71013 0.68613 0.0
H2175 H 0.12052 0.78643 0.67619 0.0
H2176 H 0.19006 0.75901 0.67856 0.0
H2177 H 0.15047 0.76258 0.66255 0.0
H2178 H 0.11862 0.72054 0.71904 0.0
H2179 H 0.15832 0.71651 0.73467 0.0
C2180 C 0.06482 0.7337 0.67347 0.0
C2181 C 0.06262 0.75744 0.66629 0.0
C2182 C 0.08705 0.72877 0.68124 0.0
C2183 C 0.10757 0.74748 0.68198 0.0
C2184 C 0.10519 0.7714 0.67532 0.0
C2185 C 0.08299 0.77631 0.66753 0.0
C2186 C 0.17456 0.75004 0.6872 0.0
C2187 C 0.17723 0.73757 0.70789 0.0
C2188 C 0.15189 0.75234 0.67823 0.0
C2189 C 0.13138 0.74233 0.68982 0.0
C2190 C 0.13402 0.72846 0.70964 0.0
C2191 C 0.15675 0.72608 0.71858 0.0
H2192 H 0.04098 0.358 0.40779 0.0
H2193 H 0.04895 0.32475 0.47452 0.0
H2194 H 0.03698 0.39743 0.43029 0.0
H2195 H 0.04644 0.36466 0.49728 0.0
H2196 H 0.01436 0.42939 0.53122 0.0
H2197 H 0.01926 0.3903 0.50842 0.0
H2198 H 0.0556 0.43294 0.45444 0.0
H2199 H 0.04941 0.4718 0.47681 0.0
C2200 C 0.04238 0.35934 0.42733 0.0
C2201 C 0.04522 0.33834 0.43944 0.0
C2202 C 0.0402 0.38201 0.44029 0.0
C2203 C 0.04125 0.38437 0.46571 0.0
C2204 C 0.04493 0.36348 0.47776 0.0
C2205 C 0.04664 0.34064 0.46476 0.0
C2206 C 0.02323 0.43026 0.51438 0.0
C2207 C 0.03125 0.45345 0.50555 0.0
C2208 C 0.0263 0.40789 0.50139 0.0
C2209 C 0.03795 0.40828 0.47953 0.0
C2210 C 0.04612 0.43172 0.47089 0.0
C2211 C 0.04263 0.45404 0.48368 0.0
H2212 H 0.46612 0.26739 0.21068 0.0
H2213 H 0.4241 0.28594 0.15089 0.0
H2214 H 0.43226 0.26871 0.23658 0.0
H2215 H 0.39071 0.28783 0.17679 0.0
H2216 H 0.34518 0.31367 0.23578 0.0
H2217 H 0.38274 0.31561 0.21593 0.0
H2218 H 0.38782 0.24122 0.23478 0.0
H2219 H 0.34988 0.23894 0.25448 0.0
C2220 C 0.44978 0.27203 0.20318 0.0
C2221 C 0.44769 0.27654 0.17879 0.0
C2222 C 0.43044 0.27267 0.21794 0.0
C2223 C 0.40897 0.27847 0.20867 0.0
C2224 C 0.40715 0.28354 0.18444 0.0
C2225 C 0.42621 0.28235 0.16961 0.0
C2226 C 0.35444 0.29786 0.23617 0.0
C2227 C 0.34438 0.27605 0.24661 0.0
C2228 C 0.37591 0.29898 0.22467 0.0
C2229 C 0.38804 0.27851 0.2237 0.0
C2230 C 0.37883 0.25729 0.23537 0.0
C2231 C 0.35709 0.25598 0.24657 0.0
H2232 H 0.63902 0.52092 0.37586 0.0
H2233 H 0.57708 0.48504 0.3307 0.0
H2234 H 0.61519 0.51872 0.41128 0.0
H2235 H 0.55298 0.48337 0.36609 0.0
H2236 H 0.5205 0.46595 0.43827 0.0
H2237 H 0.54554 0.4644 0.40351 0.0
H2238 H 0.58448 0.53843 0.42851 0.0
H2239 H 0.55977 0.53975 0.46305 0.0
C2240 C 0.62029 0.51256 0.37349 0.0
C2241 C 0.60994 0.50326 0.35043 0.0
C2242 C 0.60655 0.51141 0.39381 0.0
C2243 C 0.58205 0.50101 0.39162 0.0
C2244 C 0.57182 0.49126 0.36856 0.0
C2245 C 0.5856 0.49236 0.34822 0.0
C2246 C 0.53454 0.48176 0.43634 0.0
C2247 C 0.53831 0.50284 0.45353 0.0
C2248 C 0.54881 0.48097 0.41637 0.0
C2249 C 0.56715 0.50126 0.41316 0.0
C2250 C 0.5709 0.52224 0.43053 0.0
C2251 C 0.55667 0.52302 0.45039 0.0
H2252 H 0.26802 0.88935 0.0878 0.0
H2253 H 0.22783 0.8229 0.04705 0.0
H2254 H 0.26619 0.8674 0.12412 0.0
H2255 H 0.22624 0.8007 0.0837 0.0
H2256 H 0.26385 0.76894 0.15105 0.0
H2257 H 0.25891 0.78706 0.11269 0.0
H2258 H 0.23259 0.84887 0.15052 0.0
H2259 H 0.23737 0.83088 0.18857 0.0
C2260 C 0.25872 0.87006 0.08665 0.0
C2261 C 0.24803 0.85781 0.06468 0.0
C2262 C 0.25758 0.85755 0.10744 0.0
C2263 C 0.24597 0.83245 0.10664 0.0
C2264 C 0.2353 0.82007 0.08468 0.0
C2265 C 0.23613 0.83277 0.06384 0.0
C2266 C 0.25665 0.78617 0.151 0.0
C2267 C 0.25131 0.79874 0.17269 0.0
C2268 C 0.25373 0.79644 0.12913 0.0
C2269 C 0.24562 0.81945 0.12882 0.0
C2270 C 0.23915 0.83126 0.15039 0.0
C2271 C 0.24189 0.82095 0.17211 0.0
H2272 H 0.99231 0.56951 0.83694 0.0
H2273 H 0.92655 0.56475 0.87383 0.0
H2274 H 0.0142 0.56795 0.87515 0.0
H2275 H 0.94851 0.56376 0.91209 0.0
H2276 H 0.98722 0.51644 0.95973 0.0
H2277 H 0.96673 0.52895 0.92511 0.0
H2278 H 0.02726 0.58718 0.91701 0.0
H2279 H 0.04796 0.57451 0.95216 0.0
C2280 C 0.98264 0.56879 0.85331 0.0
C2281 C 0.95769 0.56678 0.85242 0.0
C2282 C 0.9952 0.56804 0.8752 0.0
C2283 C 0.98299 0.56532 0.8965 0.0
C2284 C 0.95829 0.56536 0.89583 0.0
C2285 C 0.94575 0.56601 0.87397 0.0
C2286 C 0.99608 0.53212 0.95078 0.0
C2287 C 0.01908 0.54464 0.95866 0.0
C2288 C 0.98426 0.53941 0.93102 0.0
C2289 C 0.99526 0.55927 0.91854 0.0
C2290 C 0.01837 0.57182 0.92635 0.0
C2291 C 0.03019 0.56459 0.94637 0.0
H2292 H 0.25887 0.15088 0.58458 0.0
H2293 H 0.28444 0.22399 0.56107 0.0
H2294 H 0.25722 0.17017 0.62571 0.0
H2295 H 0.28305 0.24327 0.60239 0.0
H2296 H 0.30381 0.26025 0.68538 0.0
H2297 H 0.30448 0.24253 0.64353 0.0
H2298 H 0.23362 0.20007 0.64799 0.0
H2299 H 0.23279 0.21792 0.68977 0.0
C2300 C 0.26419 0.17107 0.58821 0.0
C2301 C 0.27181 0.18591 0.56956 0.0
C2302 C 0.26311 0.18213 0.61174 0.0
C2303 C 0.26996 0.20825 0.6173 0.0
C2304 C 0.27778 0.22308 0.5987 0.0
C2305 C 0.2785 0.21206 0.57504 0.0
C2306 C 0.28831 0.24723 0.67742 0.0
C2307 C 0.26825 0.24049 0.69099 0.0
C2308 C 0.28867 0.23718 0.6534 0.0
C2309 C 0.26914 0.21984 0.64247 0.0
C2310 C 0.24902 0.21323 0.65596 0.0
C2311 C 0.2485 0.22358 0.67987 0.0
H2312 H 0.65338 0.51736 0.20286 0.0
H2313 H 0.5841 0.51504 0.23227 0.0
H2314 H 0.6373 0.52673 0.1642 0.0
H2315 H 0.56772 0.52361 0.19335 0.0
H2316 H 0.54928 0.56148 0.12751 0.0
H2317 H 0.56772 0.55571 0.16653 0.0
H2318 H 0.61192 0.50843 0.13028 0.0
H2319 H 0.59405 0.51492 0.09148 0.0
C2320 C 0.63462 0.51853 0.20097 0.0
C2321 C 0.62 0.51535 0.22062 0.0
C2322 C 0.62535 0.52387 0.17875 0.0
C2323 C 0.60117 0.52604 0.17554 0.0
C2324 C 0.58651 0.52256 0.1952 0.0
C2325 C 0.59583 0.51736 0.21747 0.0
C2326 C 0.56326 0.55027 0.12793 0.0
C2327 C 0.57026 0.53872 0.10645 0.0
C2328 C 0.57365 0.54667 0.1503 0.0
C2329 C 0.5912 0.53136 0.15169 0.0
C2330 C 0.59869 0.52055 0.13003 0.0
C2331 C 0.5884 0.52424 0.10772 0.0
H2332 H 0.25965 0.82032 0.95078 0.0
H2333 H 0.24278 0.88351 0.9157 0.0
H2334 H 0.25835 0.79599 0.91146 0.0
H2335 H 0.24172 0.8593 0.87649 0.0
H2336 H 0.211 0.79805 0.81655 0.0
H2337 H 0.21479 0.82215 0.85585 0.0
H2338 H 0.28004 0.79523 0.87268 0.0
H2339 H 0.276 0.77062 0.83304 0.0
C2340 C 0.25571 0.82901 0.93467 0.0
C2341 C 0.25111 0.85372 0.93627 0.0
C2342 C 0.25518 0.81516 0.9122 0.0
C2343 C 0.24988 0.82575 0.89097 0.0
C2344 C 0.24557 0.85057 0.8926 0.0
C2345 C 0.24622 0.86444 0.91502 0.0
C2346 C 0.22611 0.79715 0.82866 0.0
C2347 C 0.24326 0.78254 0.82183 0.0
C2348 C 0.22838 0.81114 0.85107 0.0
C2349 C 0.24779 0.8107 0.86723 0.0
C2350 C 0.26485 0.7958 0.86056 0.0
C2351 C 0.26264 0.78188 0.83792 0.0
H2352 H 0.96392 0.51021 0.72581 0.0
H2353 H 0.96726 0.59048 0.72654 0.0
H2354 H 0.98504 0.50995 0.68858 0.0
H2355 H 0.98862 0.59024 0.68933 0.0
H2356 H 0.03595 0.51912 0.62899 0.0
H2357 H 0.02358 0.52508 0.67039 0.0
H2358 H 0.9753 0.57272 0.64724 0.0
H2359 H 0.9878 0.56691 0.60603 0.0
C2360 C 0.9695 0.52784 0.71819 0.0
C2361 C 0.96377 0.55032 0.72889 0.0
C2362 C 0.98174 0.52773 0.69699 0.0
C2363 C 0.98839 0.55008 0.68605 0.0
C2364 C 0.98349 0.57272 0.69729 0.0
C2365 C 0.97135 0.57285 0.71858 0.0
C2366 C 0.02299 0.53118 0.63291 0.0
C2367 C 0.01262 0.54238 0.61441 0.0
C2368 C 0.01586 0.5345 0.65651 0.0
C2369 C 0.9984 0.54923 0.66196 0.0
C2370 C 0.98896 0.56145 0.64361 0.0
C2371 C 0.99598 0.55801 0.62001 0.0
H2372 H 0.2944 0.22563 0.45425 0.0
H2373 H 0.25766 0.15849 0.41206 0.0
H2374 H 0.29636 0.2482 0.41824 0.0
H2375 H 0.25898 0.18122 0.37606 0.0
H2376 H 0.28534 0.22373 0.31149 0.0
H2377 H 0.28473 0.20016 0.34701 0.0
H2378 H 0.27175 0.26549 0.39134 0.0
H2379 H 0.27267 0.28883 0.35589 0.0
C2380 C 0.28664 0.2157 0.43728 0.0
C2381 C 0.27583 0.19027 0.43607 0.0
C2382 C 0.28762 0.2287 0.4166 0.0
C2383 C 0.27772 0.21665 0.39411 0.0
C2384 C 0.26706 0.19109 0.39292 0.0
C2385 C 0.26615 0.17808 0.41362 0.0
C2386 C 0.28207 0.23285 0.32878 0.0
C2387 C 0.27876 0.25798 0.33084 0.0
C2388 C 0.28176 0.2194 0.34921 0.0
C2389 C 0.27816 0.23084 0.3722 0.0
C2390 C 0.27496 0.25609 0.37411 0.0
C2391 C 0.27535 0.26948 0.35373 0.0
H2392 H 0.3579 0.62197 0.50043 0.0
H2393 H 0.32008 0.57587 0.55091 0.0
H2394 H 0.38407 0.59135 0.49332 0.0
H2395 H 0.34594 0.54478 0.54334 0.0
H2396 H 0.41947 0.51723 0.54663 0.0
H2397 H 0.38696 0.54076 0.55156 0.0
H2398 H 0.38496 0.54948 0.47515 0.0
H2399 H 0.41805 0.52653 0.47042 0.0
C2400 C 0.35513 0.60521 0.50993 0.0
C2401 C 0.33706 0.60138 0.52633 0.0
C2402 C 0.36994 0.58749 0.50565 0.0
C2403 C 0.36695 0.56546 0.51757 0.0
C2404 C 0.34881 0.56161 0.53397 0.0
C2405 C 0.33402 0.57941 0.53831 0.0
C2406 C 0.41161 0.52356 0.53077 0.0
C2407 C 0.42137 0.52029 0.50818 0.0
C2408 C 0.39297 0.53707 0.53359 0.0
C2409 C 0.38368 0.54744 0.51383 0.0
C2410 C 0.39214 0.54226 0.49084 0.0
C2411 C 0.41088 0.52887 0.48806 0.0
H2412 H 0.82676 0.96429 0.53463 0.0
H2413 H 0.85646 0.89624 0.53479 0.0
H2414 H 0.86657 0.98867 0.53213 0.0
H2415 H 0.89649 0.92074 0.5328 0.0
H2416 H 0.96156 0.96827 0.50415 0.0
H2417 H 0.92111 0.94457 0.50513 0.0
H2418 H 0.90357 0.00287 0.5558 0.0
H2419 H 0.94387 0.02675 0.55438 0.0
C2420 C 0.84184 0.95455 0.53433 0.0
C2421 C 0.83847 0.92833 0.53494 0.0
C2422 C 0.86469 0.96856 0.53299 0.0
C2423 C 0.88477 0.9567 0.53221 0.0
C2424 C 0.8814 0.93045 0.533 0.0
C2425 C 0.85849 0.91642 0.53435 0.0
C2426 C 0.94896 0.97612 0.5153 0.0
C2427 C 0.95586 -0.00066 0.52923 0.0
C2428 C 0.92585 0.96243 0.51604 0.0
C2429 C 0.90912 0.97168 0.53071 0.0
C2430 C 0.91591 0.99526 0.54415 0.0
C2431 C 0.93902 0.00894 0.54339 0.0
H2432 H 0.88511 0.12305 0.26239 0.0
H2433 H 0.81963 0.07422 0.23548 0.0
H2434 H 0.86386 0.15823 0.26792 0.0
H2435 H 0.798 0.10921 0.24188 0.0
H2436 H 0.77179 0.18427 0.23394 0.0
H2437 H 0.79131 0.14765 0.22831 0.0
H2438 H 0.83679 0.17492 0.29246 0.0
H2439 H 0.81791 0.21184 0.29747 0.0
C2440 C 0.86611 0.1198 0.25775 0.0
C2441 C 0.85409 0.09582 0.24849 0.0
C2442 C 0.85381 0.13997 0.26113 0.0
C2443 C 0.82903 0.13669 0.25562 0.0
C2444 C 0.81706 0.11265 0.24613 0.0
C2445 C 0.82945 0.09251 0.24254 0.0
C2446 C 0.78574 0.18225 0.24702 0.0
C2447 C 0.79331 0.20107 0.26612 0.0
C2448 C 0.79698 0.16119 0.24381 0.0
C2449 C 0.81594 0.1583 0.25974 0.0
C2450 C 0.82275 0.17669 0.27941 0.0
C2451 C 0.81172 0.19782 0.28245 0.0
H2452 H 0.72243 0.08071 0.99948 0.0
H2453 H 0.70416 0.13838 0.05038 0.0
H2454 H 0.68156 0.05773 0.99863 0.0
H2455 H 0.66321 0.11572 0.04914 0.0
H2456 H 0.59734 0.05786 0.05798 0.0
H2457 H 0.63949 0.07698 0.06087 0.0
H2458 H 0.64229 0.06328 0.9835 0.0
H2459 H 0.60047 0.04374 0.98057 0.0
C2460 C 0.70965 0.08849 0.01041 0.0
C2461 C 0.71638 0.11135 0.02491 0.0
C2462 C 0.68627 0.07538 0.00989 0.0
C2463 C 0.66921 0.08493 0.02383 0.0
C2464 C 0.67605 0.10771 0.03848 0.0
C2465 C 0.69943 0.12079 0.03903 0.0
C2466 C 0.607 0.05872 0.04161 0.0
C2467 C 0.5955 0.04942 0.01903 0.0
C2468 C 0.63109 0.0698 0.04327 0.0
C2469 C 0.64413 0.07174 0.0224 0.0
C2470 C 0.63278 0.06183 -7e-05 0.0
C2471 C 0.60874 0.05077 0.99826 0.0
H2472 H 0.18508 0.45188 0.28364 0.0
H2473 H 0.19976 0.46059 0.20902 0.0
H2474 H 0.21631 0.4266 0.28648 0.0
H2475 H 0.23143 0.43576 0.21201 0.0
H2476 H 0.27711 0.38653 0.28971 0.0
H2477 H 0.25919 0.42398 0.28518 0.0
H2478 H 0.22786 0.39083 0.21522 0.0
H2479 H 0.24582 0.35398 0.21971 0.0
C2480 C 0.19523 0.44867 0.26796 0.0
C2481 C 0.18973 0.4577 0.24598 0.0
C2482 C 0.21334 0.43451 0.26968 0.0
C2483 C 0.22629 0.42921 0.24945 0.0
C2484 C 0.22157 0.43938 0.22782 0.0
C2485 C 0.2034 0.45346 0.22608 0.0
C2486 C 0.26702 0.38777 0.2731 0.0
C2487 C 0.26241 0.36742 0.25522 0.0
C2488 C 0.25668 0.40904 0.27056 0.0
C2489 C 0.24189 0.41014 0.25 0.0
C2490 C 0.23927 0.39066 0.2312 0.0
C2491 C 0.24939 0.36945 0.23384 0.0
H2492 H 0.18271 0.39593 0.03642 0.0
H2493 H 0.23385 0.46434 0.03433 0.0
H2494 H 0.15028 0.42002 0.03677 0.0
H2495 H 0.20135 0.48856 0.03488 0.0
H2496 H 0.13326 0.51653 0.00627 0.0
H2497 H 0.16743 0.4948 0.00861 0.0
H2498 H 0.13349 0.45072 0.06267 0.0
H2499 H 0.09934 0.47228 0.06014 0.0
C2500 C 0.18704 0.41615 0.03615 0.0
C2501 C 0.21087 0.4282 0.03533 0.0
C2502 C 0.16845 0.43 0.03651 0.0
C2503 C 0.17317 0.45628 0.03592 0.0
C2504 C 0.19704 0.46834 0.03513 0.0
C2505 C 0.21568 0.45448 0.03494 0.0
C2506 C 0.13327 0.5024 0.01884 0.0
C2507 C 0.1136 0.49603 0.03294 0.0
C2508 C 0.15287 0.48998 0.02024 0.0
C2509 C 0.15316 0.47083 0.03568 0.0
C2510 C 0.13372 0.46506 0.05029 0.0
C2511 C 0.11421 0.47754 0.04897 0.0
H2512 H 0.87627 0.9429 0.2327 0.0
H2513 H 0.81535 0.97664 0.25177 0.0
H2514 H 0.85274 0.90121 0.23501 0.0
H2515 H 0.79192 0.93496 0.25468 0.0
H2516 H 0.75 0.85562 0.2362 0.0
H2517 H 0.77342 0.89679 0.23111 0.0
H2518 H 0.83535 0.87488 0.26467 0.0
H2519 H 0.81179 0.83367 0.26946 0.0
C2520 C 0.85782 0.9414 0.23737 0.0
C2521 C 0.84766 0.96306 0.24205 0.0
C2522 C 0.84438 0.9175 0.23887 0.0
C2523 C 0.82044 0.91466 0.24513 0.0
C2524 C 0.8102 0.93638 0.24951 0.0
C2525 C 0.82365 0.9603 0.24796 0.0
C2526 C 0.76867 0.8596 0.24233 0.0
C2527 C 0.77924 0.84135 0.25287 0.0
C2528 C 0.78206 0.88324 0.23956 0.0
C2529 C 0.80632 0.88922 0.24744 0.0
C2530 C 0.81686 0.87081 0.25796 0.0
C2531 C 0.80343 0.84714 0.26065 0.0
H2532 H 0.65233 0.09069 0.71873 0.0
H2533 H 0.7027 0.07057 0.77028 0.0
H2534 H 0.6742 0.13389 0.72289 0.0
H2535 H 0.72486 0.11343 0.77396 0.0
H2536 H 0.73972 0.1975 0.79724 0.0
H2537 H 0.71897 0.15421 0.79122 0.0
H2538 H 0.7119 0.15964 0.71443 0.0
H2539 H 0.73221 0.20328 0.72044 0.0
C2540 C 0.6682 0.09546 0.73074 0.0
C2541 C 0.67575 0.07739 0.74431 0.0
C2542 C 0.68079 0.12013 0.73303 0.0
C2543 C 0.70116 0.12709 0.74887 0.0
C2544 C 0.70898 0.10877 0.76195 0.0
C2545 C 0.69636 0.08419 0.75974 0.0
C2546 C 0.73383 0.18951 0.77904 0.0
C2547 C 0.73764 0.2039 0.75933 0.0
C2548 C 0.72203 0.16462 0.77558 0.0
C2549 C 0.71387 0.15348 0.75234 0.0
C2550 C 0.71775 0.1678 0.73259 0.0
C2551 C 0.7295 0.19276 0.73605 0.0
loop_
_geom_bond_atom_site_label_1
_geom_bond_atom_site_label_2
_geom_bond_distance
_geom_bond_site_symmetry_2
_ccdc_geom_bond_type
In0 O1 2.294 . S
In0 O2 2.326 . S
In0 O6 2.266 . S
In0 O7 2.326 1_455 S
In0 O8 2.266 . S
In0 O9 2.326 . S
In0 O11 2.294 . S
In0 O12 2.326 . S
O1 In0 2.294 . S
O1 C10 1.240 . S
O2 In0 2.326 . S
O2 C10 1.252 . S
C3 O6 1.252 1_655 S
C3 O7 1.260 . S
C4 O11 1.240 . S
C4 O12 1.252 . S
C5 O8 1.252 . S
C5 O9 1.260 . S
O6 In0 2.266 . S
O6 C3 1.252 1_455 S
O7 In0 2.326 1_655 S
O7 C3 1.260 . S
O8 In0 2.266 . S
O8 C5 1.252 . S
O9 In0 2.326 . S
O9 C5 1.260 . S
C10 O1 1.240 . S
C10 O2 1.252 . S
O11 In0 2.294 . S
O11 C4 1.240 . S
O12 In0 2.326 . S
O12 C4 1.252 . S
In13 O14 2.294 . S
In13 O15 2.326 . S
In13 O19 2.266 . S
In13 O20 2.326 . S
In13 O21 2.266 1_455 S
In13 O22 2.326 1_455 S
In13 O24 2.294 . S
In13 O25 2.326 . S
O14 In13 2.294 . S
O14 C23 1.240 . S
O15 In13 2.326 . S
O15 C23 1.252 . S
C16 O19 1.252 . S
C16 O20 1.260 . S
C17 O24 1.240 . S
C17 O25 1.252 . S
C18 O21 1.252 . S
C18 O22 1.260 . S
O19 In13 2.266 . S
O19 C16 1.252 . S
O20 In13 2.326 . S
O20 C16 1.260 . S
O21 In13 2.266 1_655 S
O21 C18 1.252 . S
O22 In13 2.326 1_655 S
O22 C18 1.260 . S
C23 O14 1.240 . S
C23 O15 1.252 . S
O24 In13 2.294 . S
O24 C17 1.240 . S
O25 In13 2.326 . S
O25 C17 1.252 . S
In26 O27 2.294 . S
In26 O28 2.326 . S
In26 O32 2.266 . S
In26 O33 2.326 . S
In26 O34 2.266 . S
In26 O35 2.326 . S
In26 O37 2.294 . S
In26 O38 2.326 . S
O27 In26 2.294 . S
O27 C36 1.240 . S
O28 In26 2.326 . S
O28 C36 1.252 . S
C29 O32 1.252 . S
C29 O33 1.260 . S
C30 O37 1.240 . S
C30 O38 1.252 . S
C31 O34 1.252 . S
C31 O35 1.260 . S
O32 In26 2.266 . S
O32 C29 1.252 . S
O33 In26 2.326 . S
O33 C29 1.260 . S
O34 In26 2.266 . S
O34 C31 1.252 . S
O35 In26 2.326 . S
O35 C31 1.260 . S
C36 O27 1.240 . S
C36 O28 1.252 . S
O37 In26 2.294 . S
O37 C30 1.240 . S
O38 In26 2.326 . S
O38 C30 1.252 . S
In39 O40 2.294 . S
In39 O41 2.326 . S
In39 O45 2.266 . S
In39 O46 2.326 . S
In39 O47 2.266 . S
In39 O48 2.326 . S
In39 O50 2.294 . S
In39 O51 2.326 . S
O40 In39 2.294 . S
O40 C49 1.240 . S
O41 In39 2.326 . S
O41 C49 1.252 . S
C42 O45 1.252 . S
C42 O46 1.260 . S
C43 O50 1.240 . S
C43 O51 1.252 . S
C44 O47 1.252 . S
C44 O48 1.260 . S
O45 In39 2.266 . S
O45 C42 1.252 . S
O46 In39 2.326 . S
O46 C42 1.260 . S
O47 In39 2.266 . S
O47 C44 1.252 . S
O48 In39 2.326 . S
O48 C44 1.260 . S
C49 O40 1.240 . S
C49 O41 1.252 . S
O50 In39 2.294 . S
O50 C43 1.240 . S
O51 In39 2.326 . S
O51 C43 1.252 . S
In52 O53 2.294 . S
In52 O54 2.326 . S
In52 O58 2.266 . S
In52 O59 2.326 . S
In52 O60 2.266 . S
In52 O61 2.326 . S
In52 O63 2.294 . S
In52 O64 2.326 1_455 S
O53 In52 2.294 . S
O53 C62 1.240 . S
O54 In52 2.326 . S
O54 C62 1.252 . S
C55 O58 1.252 . S
C55 O59 1.260 . S
C56 O63 1.240 1_655 S
C56 O64 1.252 . S
C57 O60 1.252 . S
C57 O61 1.260 . S
O58 In52 2.266 . S
O58 C55 1.252 . S
O59 In52 2.326 . S
O59 C55 1.260 . S
O60 In52 2.266 . S
O60 C57 1.252 . S
O61 In52 2.326 . S
O61 C57 1.260 . S
C62 O53 1.240 . S
C62 O54 1.252 . S
O63 In52 2.294 . S
O63 C56 1.240 1_455 S
O64 In52 2.326 1_655 S
O64 C56 1.252 . S
In65 O66 2.294 . S
In65 O67 2.326 . S
In65 O71 2.266 . S
In65 O72 2.326 . S
In65 O73 2.266 . S
In65 O74 2.326 . S
In65 O76 2.294 . S
In65 O77 2.326 . S
O66 In65 2.294 . S
O66 C75 1.240 . S
O67 In65 2.326 . S
O67 C75 1.252 . S
C68 O71 1.252 . S
C68 O72 1.260 . S
C69 O76 1.240 . S
C69 O77 1.252 . S
C70 O73 1.252 . S
C70 O74 1.260 . S
O71 In65 2.266 . S
O71 C68 1.252 . S
O72 In65 2.326 . S
O72 C68 1.260 . S
O73 In65 2.266 . S
O73 C70 1.252 . S
O74 In65 2.326 . S
O74 C70 1.260 . S
C75 O66 1.240 . S
C75 O67 1.252 . S
O76 In65 2.294 . S
O76 C69 1.240 . S
O77 In65 2.326 . S
O77 C69 1.252 . S
In78 O79 2.294 . S
In78 O80 2.326 . S
In78 O84 2.266 . S
In78 O85 2.326 . S
In78 O86 2.266 . S
In78 O87 2.326 . S
In78 O89 2.294 . S
In78 O90 2.326 . S
O79 In78 2.294 . S
O79 C88 1.240 . S
O80 In78 2.326 . S
O80 C88 1.252 . S
C81 O84 1.252 . S
C81 O85 1.260 . S
C82 O89 1.240 . S
C82 O90 1.252 . S
C83 O86 1.252 . S
C83 O87 1.260 . S
O84 In78 2.266 . S
O84 C81 1.252 . S
O85 In78 2.326 . S
O85 C81 1.260 . S
O86 In78 2.266 . S
O86 C83 1.252 . S
O87 In78 2.326 . S
O87 C83 1.260 . S
C88 O79 1.240 . S
C88 O80 1.252 . S
O89 In78 2.294 . S
O89 C82 1.240 . S
O90 In78 2.326 . S
O90 C82 1.252 . S
In91 O92 2.294 . S
In91 O93 2.326 . S
In91 O97 2.266 . S
In91 O98 2.326 . S
In91 O99 2.266 1_455 S
In91 O100 2.326 1_455 S
In91 O102 2.294 . S
In91 O103 2.326 . S
O92 In91 2.294 . S
O92 C101 1.240 . S
O93 In91 2.326 . S
O93 C101 1.252 . S
C94 O97 1.252 . S
C94 O98 1.260 . S
C95 O102 1.240 . S
C95 O103 1.252 . S
C96 O99 1.252 . S
C96 O100 1.260 . S
O97 In91 2.266 . S
O97 C94 1.252 . S
O98 In91 2.326 . S
O98 C94 1.260 . S
O99 In91 2.266 1_655 S
O99 C96 1.252 . S
O100 In91 2.326 1_655 S
O100 C96 1.260 . S
C101 O92 1.240 . S
C101 O93 1.252 . S
O102 In91 2.294 . S
O102 C95 1.240 . S
O103 In91 2.326 . S
O103 C95 1.252 . S
In104 O105 2.294 . S
In104 O106 2.326 . S
In104 O110 2.266 . S
In104 O111 2.326 . S
In104 O112 2.266 1_545 S
In104 O113 2.326 1_545 S
In104 O115 2.294 . S
In104 O116 2.326 . S
O105 In104 2.294 . S
O105 C114 1.240 . S
O106 In104 2.326 . S
O106 C114 1.252 . S
C107 O110 1.252 . S
C107 O111 1.260 . S
C108 O115 1.240 . S
C108 O116 1.252 . S
C109 O112 1.252 . S
C109 O113 1.260 . S
O110 In104 2.266 . S
O110 C107 1.252 . S
O111 In104 2.326 . S
O111 C107 1.260 . S
O112 In104 2.266 1_565 S
O112 C109 1.252 . S
O113 In104 2.326 1_565 S
O113 C109 1.260 . S
C114 O105 1.240 . S
C114 O106 1.252 . S
O115 In104 2.294 . S
O115 C108 1.240 . S
O116 In104 2.326 . S
O116 C108 1.252 . S
In117 O118 2.294 . S
In117 O119 2.326 . S
In117 O123 2.266 . S
In117 O124 2.326 . S
In117 O125 2.266 . S
In117 O126 2.326 . S
In117 O128 2.294 . S
In117 O129 2.326 . S
O118 In117 2.294 . S
O118 C127 1.240 . S
O119 In117 2.326 . S
O119 C127 1.252 . S
C120 O123 1.252 . S
C120 O124 1.260 . S
C121 O128 1.240 . S
C121 O129 1.252 . S
C122 O125 1.252 . S
C122 O126 1.260 . S
O123 In117 2.266 . S
O123 C120 1.252 . S
O124 In117 2.326 . S
O124 C120 1.260 . S
O125 In117 2.266 . S
O125 C122 1.252 . S
O126 In117 2.326 . S
O126 C122 1.260 . S
C127 O118 1.240 . S
C127 O119 1.252 . S
O128 In117 2.294 . S
O128 C121 1.240 . S
O129 In117 2.326 . S
O129 C121 1.252 . S
In130 O131 2.294 1_545 S
In130 O132 2.326 1_545 S
In130 O136 2.266 . S
In130 O137 2.326 . S
In130 O138 2.264 . S
In130 O139 2.322 . S
In130 O141 2.296 1_545 S
In130 O142 2.330 1_545 S
O131 In130 2.294 1_565 S
O131 C140 1.240 . S
O132 In130 2.326 1_565 S
O132 C140 1.252 . S
C133 O136 1.252 . S
C133 O137 1.260 . S
C134 O141 1.240 . S
C134 O142 1.252 . S
C135 O138 1.252 . S
C135 O139 1.260 . S
O136 In130 2.266 . S
O136 C133 1.252 . S
O137 In130 2.326 . S
O137 C133 1.260 . S
O138 In130 2.264 . S
O138 C135 1.252 . S
O139 In130 2.322 . S
O139 C135 1.260 . S
C140 O131 1.240 . S
C140 O132 1.252 . S
O141 In130 2.296 1_565 S
O141 C134 1.240 . S
O142 In130 2.330 1_565 S
O142 C134 1.252 . S
In143 O144 2.294 . S
In143 O145 2.326 . S
In143 O149 2.266 1_554 S
In143 O150 2.326 1_554 S
In143 O151 2.266 . S
In143 O152 2.326 . S
In143 O154 2.294 . S
In143 O155 2.326 . S
O144 In143 2.294 . S
O144 C153 1.240 . S
O145 In143 2.326 . S
O145 C153 1.252 . S
C146 O149 1.252 . S
C146 O150 1.260 . S
C147 O154 1.240 . S
C147 O155 1.252 . S
C148 O151 1.252 . S
C148 O152 1.260 . S
O149 In143 2.266 1_556 S
O149 C146 1.252 . S
O150 In143 2.326 1_556 S
O150 C146 1.260 . S
O151 In143 2.266 . S
O151 C148 1.252 . S
O152 In143 2.326 . S
O152 C148 1.260 . S
C153 O144 1.240 . S
C153 O145 1.252 . S
O154 In143 2.294 . S
O154 C147 1.240 . S
O155 In143 2.326 . S
O155 C147 1.252 . S
In156 O157 2.294 . S
In156 O158 2.326 . S
In156 O162 2.266 1_554 S
In156 O163 2.326 1_554 S
In156 O164 2.266 . S
In156 O165 2.326 . S
In156 O167 2.294 . S
In156 O168 2.326 . S
O157 In156 2.294 . S
O157 C166 1.240 . S
O158 In156 2.326 . S
O158 C166 1.252 . S
C159 O162 1.252 . S
C159 O163 1.260 . S
C160 O167 1.240 . S
C160 O168 1.252 . S
C161 O164 1.252 . S
C161 O165 1.260 . S
O162 In156 2.266 1_556 S
O162 C159 1.252 . S
O163 In156 2.326 1_556 S
O163 C159 1.260 . S
O164 In156 2.266 . S
O164 C161 1.252 . S
O165 In156 2.326 . S
O165 C161 1.260 . S
C166 O157 1.240 . S
C166 O158 1.252 . S
O167 In156 2.294 . S
O167 C160 1.240 . S
O168 In156 2.326 . S
O168 C160 1.252 . S
In169 O170 2.294 . S
In169 O171 2.326 . S
In169 O175 2.266 1_554 S
In169 O176 2.326 . S
In169 O177 2.266 1_554 S
In169 O178 2.326 1_554 S
In169 O180 2.294 . S
In169 O181 2.326 . S
O170 In169 2.294 . S
O170 C179 1.240 . S
O171 In169 2.326 . S
O171 C179 1.252 . S
C172 O175 1.252 . S
C172 O176 1.260 1_556 S
C173 O180 1.240 . S
C173 O181 1.252 . S
C174 O177 1.252 . S
C174 O178 1.260 . S
O175 In169 2.266 1_556 S
O175 C172 1.252 . S
O176 In169 2.326 . S
O176 C172 1.260 1_554 S
O177 In169 2.266 1_556 S
O177 C174 1.252 . S
O178 In169 2.326 1_556 S
O178 C174 1.260 . S
C179 O170 1.240 . S
C179 O171 1.252 . S
O180 In169 2.294 . S
O180 C173 1.240 . S
O181 In169 2.326 . S
O181 C173 1.252 . S
In182 O183 2.294 . S
In182 O184 2.326 . S
In182 O188 2.266 . S
In182 O189 2.326 . S
In182 O190 2.266 . S
In182 O191 2.326 . S
In182 O193 2.294 . S
In182 O194 2.326 . S
O183 In182 2.294 . S
O183 C192 1.240 . S
O184 In182 2.326 . S
O184 C192 1.252 . S
C185 O188 1.252 . S
C185 O189 1.260 . S
C186 O193 1.240 . S
C186 O194 1.252 . S
C187 O190 1.252 . S
C187 O191 1.260 . S
O188 In182 2.266 . S
O188 C185 1.252 . S
O189 In182 2.326 . S
O189 C185 1.260 . S
O190 In182 2.266 . S
O190 C187 1.252 . S
O191 In182 2.326 . S
O191 C187 1.260 . S
C192 O183 1.240 . S
C192 O184 1.252 . S
O193 In182 2.294 . S
O193 C186 1.240 . S
O194 In182 2.326 . S
O194 C186 1.252 . S
In195 O196 2.294 . S
In195 O197 2.326 . S
In195 O201 2.266 . S
In195 O202 2.326 . S
In195 O203 2.266 . S
In195 O204 2.326 . S
In195 O206 2.294 . S
In195 O207 2.326 . S
O196 In195 2.294 . S
O196 C205 1.240 . S
O197 In195 2.326 . S
O197 C205 1.252 . S
C198 O201 1.252 . S
C198 O202 1.260 . S
C199 O206 1.240 . S
C199 O207 1.252 . S
C200 O203 1.252 . S
C200 O204 1.260 . S
O201 In195 2.266 . S
O201 C198 1.252 . S
O202 In195 2.326 . S
O202 C198 1.260 . S
O203 In195 2.266 . S
O203 C200 1.252 . S
O204 In195 2.326 . S
O204 C200 1.260 . S
C205 O196 1.240 . S
C205 O197 1.252 . S
O206 In195 2.294 . S
O206 C199 1.240 . S
O207 In195 2.326 . S
O207 C199 1.252 . S
In208 O209 2.294 . S
In208 O210 2.326 . S
In208 O214 2.266 . S
In208 O215 2.326 . S
In208 O216 2.266 . S
In208 O217 2.326 . S
In208 O219 2.294 . S
In208 O220 2.326 . S
O209 In208 2.294 . S
O209 C218 1.240 . S
O210 In208 2.326 . S
O210 C218 1.252 . S
C211 O214 1.252 . S
C211 O215 1.260 . S
C212 O219 1.240 . S
C212 O220 1.252 . S
C213 O216 1.252 1_565 S
C213 O217 1.260 1_565 S
O214 In208 2.266 . S
O214 C211 1.252 . S
O215 In208 2.326 . S
O215 C211 1.260 . S
O216 In208 2.266 . S
O216 C213 1.252 1_545 S
O217 In208 2.326 . S
O217 C213 1.260 1_545 S
C218 O209 1.240 . S
C218 O210 1.252 . S
O219 In208 2.294 . S
O219 C212 1.240 . S
O220 In208 2.326 . S
O220 C212 1.252 . S
In221 O222 2.294 . S
In221 O223 2.326 . S
In221 O227 2.266 . S
In221 O228 2.326 . S
In221 O229 2.266 . S
In221 O230 2.326 . S
In221 O232 2.294 . S
In221 O233 2.326 . S
O222 In221 2.294 . S
O222 C231 1.240 . S
O223 In221 2.326 . S
O223 C231 1.252 . S
C224 O227 1.252 . S
C224 O228 1.260 . S
C225 O232 1.240 . S
C225 O233 1.252 . S
C226 O229 1.252 . S
C226 O230 1.260 . S
O227 In221 2.266 . S
O227 C224 1.252 . S
O228 In221 2.326 . S
O228 C224 1.260 . S
O229 In221 2.266 . S
O229 C226 1.252 . S
O230 In221 2.326 . S
O230 C226 1.260 . S
C231 O222 1.240 . S
C231 O223 1.252 . S
O232 In221 2.294 . S
O232 C225 1.240 . S
O233 In221 2.326 . S
O233 C225 1.252 . S
In234 O235 2.294 . S
In234 O236 2.326 . S
In234 O240 2.266 . S
In234 O241 2.326 . S
In234 O242 2.266 . S
In234 O243 2.326 . S
In234 O245 2.294 . S
In234 O246 2.326 . S
O235 In234 2.294 . S
O235 C244 1.240 . S
O236 In234 2.326 . S
O236 C244 1.252 . S
C237 O240 1.252 . S
C237 O241 1.260 . S
C238 O245 1.240 . S
C238 O246 1.252 . S
C239 O242 1.252 . S
C239 O243 1.260 . S
O240 In234 2.266 . S
O240 C237 1.252 . S
O241 In234 2.326 . S
O241 C237 1.260 . S
O242 In234 2.266 . S
O242 C239 1.252 . S
O243 In234 2.326 . S
O243 C239 1.260 . S
C244 O235 1.240 . S
C244 O236 1.252 . S
O245 In234 2.294 . S
O245 C238 1.240 . S
O246 In234 2.326 . S
O246 C238 1.252 . S
In247 O248 2.294 . S
In247 O249 2.326 1_545 S
In247 O253 2.266 . S
In247 O254 2.326 . S
In247 O255 2.266 . S
In247 O256 2.326 . S
In247 O258 2.294 . S
In247 O259 2.326 . S
O248 In247 2.294 . S
O248 C257 1.240 1_545 S
O249 In247 2.326 1_565 S
O249 C257 1.252 . S
C250 O253 1.252 . S
C250 O254 1.260 . S
C251 O258 1.240 . S
C251 O259 1.252 . S
C252 O255 1.252 . S
C252 O256 1.260 . S
O253 In247 2.266 . S
O253 C250 1.252 . S
O254 In247 2.326 . S
O254 C250 1.260 . S
O255 In247 2.266 . S
O255 C252 1.252 . S
O256 In247 2.326 . S
O256 C252 1.260 . S
C257 O248 1.240 1_565 S
C257 O249 1.252 . S
O258 In247 2.294 . S
O258 C251 1.240 . S
O259 In247 2.326 . S
O259 C251 1.252 . S
In260 O261 2.294 . S
In260 O262 2.326 . S
In260 O266 2.266 . S
In260 O267 2.326 . S
In260 O268 2.266 1_554 S
In260 O269 2.326 1_554 S
In260 O271 2.294 . S
In260 O272 2.326 . S
O261 In260 2.294 . S
O261 C270 1.240 . S
O262 In260 2.326 . S
O262 C270 1.252 . S
C263 O266 1.252 . S
C263 O267 1.260 . S
C264 O271 1.240 . S
C264 O272 1.252 . S
C265 O268 1.252 . S
C265 O269 1.260 . S
O266 In260 2.266 . S
O266 C263 1.252 . S
O267 In260 2.326 . S
O267 C263 1.260 . S
O268 In260 2.266 1_556 S
O268 C265 1.252 . S
O269 In260 2.326 1_556 S
O269 C265 1.260 . S
C270 O261 1.240 . S
C270 O262 1.252 . S
O271 In260 2.294 . S
O271 C264 1.240 . S
O272 In260 2.326 . S
O272 C264 1.252 . S
In273 O274 2.294 . S
In273 O275 2.326 . S
In273 O279 2.266 . S
In273 O280 2.326 . S
In273 O281 2.266 . S
In273 O282 2.326 . S
In273 O284 2.294 . S
In273 O285 2.326 . S
O274 In273 2.294 . S
O274 C283 1.240 . S
O275 In273 2.326 . S
O275 C283 1.252 . S
C276 O279 1.252 . S
C276 O280 1.260 . S
C277 O284 1.240 . S
C277 O285 1.252 . S
C278 O281 1.252 . S
C278 O282 1.260 . S
O279 In273 2.266 . S
O279 C276 1.252 . S
O280 In273 2.326 . S
O280 C276 1.260 . S
O281 In273 2.266 . S
O281 C278 1.252 . S
O282 In273 2.326 . S
O282 C278 1.260 . S
C283 O274 1.240 . S
C283 O275 1.252 . S
O284 In273 2.294 . S
O284 C277 1.240 . S
O285 In273 2.326 . S
O285 C277 1.252 . S
In286 O287 2.294 . S
In286 O288 2.326 . S
In286 O292 2.266 . S
In286 O293 2.326 . S
In286 O294 2.266 . S
In286 O295 2.326 . S
In286 O297 2.294 . S
In286 O298 2.326 . S
O287 In286 2.294 . S
O287 C296 1.240 . S
O288 In286 2.326 . S
O288 C296 1.252 . S
C289 O292 1.252 . S
C289 O293 1.260 . S
C290 O297 1.240 . S
C290 O298 1.252 . S
C291 O294 1.252 . S
C291 O295 1.260 . S
O292 In286 2.266 . S
O292 C289 1.252 . S
O293 In286 2.326 . S
O293 C289 1.260 . S
O294 In286 2.266 . S
O294 C291 1.252 . S
O295 In286 2.326 . S
O295 C291 1.260 . S
C296 O287 1.240 . S
C296 O288 1.252 . S
O297 In286 2.294 . S
O297 C290 1.240 . S
O298 In286 2.326 . S
O298 C290 1.252 . S
In299 O300 2.294 . S
In299 O301 2.326 . S
In299 O305 2.266 . S
In299 O306 2.326 . S
In299 O307 2.266 . S
In299 O308 2.326 . S
In299 O310 2.294 . S
In299 O311 2.326 . S
O300 In299 2.294 . S
O300 C309 1.240 . S
O301 In299 2.326 . S
O301 C309 1.252 . S
C302 O305 1.252 . S
C302 O306 1.260 . S
C303 O310 1.240 . S
C303 O311 1.252 . S
C304 O307 1.252 . S
C304 O308 1.260 . S
O305 In299 2.266 . S
O305 C302 1.252 . S
O306 In299 2.326 . S
O306 C302 1.260 . S
O307 In299 2.266 . S
O307 C304 1.252 . S
O308 In299 2.326 . S
O308 C304 1.260 . S
C309 O300 1.240 . S
C309 O301 1.252 . S
O310 In299 2.294 . S
O310 C303 1.240 . S
O311 In299 2.326 . S
O311 C303 1.252 . S
Dy312 O316 2.398 1_554 S
Dy312 O317 2.491 . S
Dy312 O318 2.403 1_654 S
Dy312 O319 2.664 1_655 S
Dy312 O323 2.326 1_655 S
Dy312 O327 2.310 1_655 S
Dy312 O328 2.351 1_645 S
C313 O324 1.185 . S
C313 O325 1.355 . S
C314 O316 1.185 1_554 S
C314 O317 1.355 . S
Dy315 O319 2.310 . S
Dy315 O322 2.351 . S
Dy315 O324 2.398 . S
Dy315 O325 2.491 . S
Dy315 O326 2.403 . S
Dy315 O327 2.664 . S
Dy315 O329 2.326 . S
O316 Dy312 2.398 1_556 S
O316 C314 1.185 1_556 S
O317 Dy312 2.491 . S
O317 C314 1.355 . S
O318 Dy312 2.403 1_456 S
O318 C320 1.254 . S
O319 Dy312 2.664 1_455 S
O319 Dy315 2.310 . S
O319 C320 1.268 1_554 S
C320 O318 1.254 . S
C320 O319 1.268 1_556 S
C321 O326 1.254 . S
C321 O327 1.268 . S
O322 Dy315 2.351 . S
O322 C330 1.249 . S
O323 Dy312 2.326 1_455 S
O323 C330 1.267 . S
O324 C313 1.185 . S
O324 Dy315 2.398 . S
O325 C313 1.355 . S
O325 Dy315 2.491 . S
O326 Dy315 2.403 . S
O326 C321 1.254 . S
O327 Dy312 2.310 1_455 S
O327 Dy315 2.664 . S
O327 C321 1.268 . S
O328 Dy312 2.351 1_465 S
O328 C331 1.249 . S
O329 Dy315 2.326 . S
O329 C331 1.267 1_545 S
C330 O322 1.249 . S
C330 O323 1.267 . S
C331 O328 1.249 . S
C331 O329 1.267 1_565 S
Dy332 O336 2.398 . S
Dy332 O337 2.491 . S
Dy332 O338 2.403 . S
Dy332 O339 2.664 . S
Dy332 O343 2.326 . S
Dy332 O347 2.310 . S
Dy332 O348 2.351 . S
C333 O344 1.185 . S
C333 O345 1.355 . S
C334 O336 1.185 . S
C334 O337 1.355 . S
Dy335 O339 2.310 . S
Dy335 O342 2.351 . S
Dy335 O344 2.398 . S
Dy335 O345 2.491 . S
Dy335 O346 2.403 . S
Dy335 O347 2.664 . S
Dy335 O349 2.326 . S
O336 Dy332 2.398 . S
O336 C334 1.185 . S
O337 Dy332 2.491 . S
O337 C334 1.355 . S
O338 Dy332 2.403 . S
O338 C340 1.254 . S
O339 Dy332 2.664 . S
O339 Dy335 2.310 . S
O339 C340 1.268 . S
C340 O338 1.254 . S
C340 O339 1.268 . S
C341 O346 1.254 . S
C341 O347 1.268 . S
O342 Dy335 2.351 . S
O342 C350 1.249 . S
O343 Dy332 2.326 . S
O343 C350 1.267 . S
O344 C333 1.185 . S
O344 Dy335 2.398 . S
O345 C333 1.355 . S
O345 Dy335 2.491 . S
O346 Dy335 2.403 . S
O346 C341 1.254 . S
O347 Dy332 2.310 . S
O347 Dy335 2.664 . S
O347 C341 1.268 . S
O348 Dy332 2.351 . S
O348 C351 1.249 . S
O349 Dy335 2.326 . S
O349 C351 1.267 . S
C350 O342 1.249 . S
C350 O343 1.267 . S
C351 O348 1.249 . S
C351 O349 1.267 . S
Dy352 O356 2.398 1_545 S
Dy352 O357 2.491 1_545 S
Dy352 O358 2.403 . S
Dy352 O359 2.664 . S
Dy352 O363 2.326 1_545 S
Dy352 O367 2.310 . S
Dy352 O368 2.351 . S
C353 O364 1.185 . S
C353 O365 1.355 . S
C354 O356 1.185 . S
C354 O357 1.355 . S
Dy355 O359 2.310 . S
Dy355 O362 2.351 1_545 S
Dy355 O364 2.398 . S
Dy355 O365 2.491 . S
Dy355 O366 2.403 . S
Dy355 O367 2.664 . S
Dy355 O369 2.326 . S
O356 Dy352 2.398 1_565 S
O356 C354 1.185 . S
O357 Dy352 2.491 1_565 S
O357 C354 1.355 . S
O358 Dy352 2.403 . S
O358 C360 1.254 . S
O359 Dy352 2.664 . S
O359 Dy355 2.310 . S
O359 C360 1.268 . S
C360 O358 1.254 . S
C360 O359 1.268 . S
C361 O366 1.254 . S
C361 O367 1.268 . S
O362 Dy355 2.351 1_565 S
O362 C370 1.249 . S
O363 Dy352 2.326 1_565 S
O363 C370 1.267 . S
O364 C353 1.185 . S
O364 Dy355 2.398 . S
O365 C353 1.355 . S
O365 Dy355 2.491 . S
O366 Dy355 2.403 . S
O366 C361 1.254 . S
O367 Dy352 2.310 . S
O367 Dy355 2.664 . S
O367 C361 1.268 . S
O368 Dy352 2.351 . S
O368 C371 1.249 . S
O369 Dy355 2.326 . S
O369 C371 1.267 . S
C370 O362 1.249 . S
C370 O363 1.267 . S
C371 O368 1.249 . S
C371 O369 1.267 . S
Dy372 O376 2.398 . S
Dy372 O377 2.491 . S
Dy372 O378 2.403 . S
Dy372 O379 2.664 . S
Dy372 O383 2.326 . S
Dy372 O387 2.310 . S
Dy372 O388 2.351 . S
C373 O384 1.185 . S
C373 O385 1.355 . S
C374 O376 1.185 . S
C374 O377 1.355 . S
Dy375 O379 2.310 . S
Dy375 O382 2.351 . S
Dy375 O384 2.398 . S
Dy375 O385 2.491 . S
Dy375 O386 2.403 . S
Dy375 O387 2.664 . S
Dy375 O389 2.326 . S
O376 Dy372 2.398 . S
O376 C374 1.185 . S
O377 Dy372 2.491 . S
O377 C374 1.355 . S
O378 Dy372 2.403 . S
O378 C380 1.254 . S
O379 Dy372 2.664 . S
O379 Dy375 2.310 . S
O379 C380 1.268 . S
C380 O378 1.254 . S
C380 O379 1.268 . S
C381 O386 1.254 . S
C381 O387 1.268 . S
O382 Dy375 2.351 . S
O382 C390 1.249 . S
O383 Dy372 2.326 . S
O383 C390 1.267 . S
O384 C373 1.185 . S
O384 Dy375 2.398 . S
O385 C373 1.355 . S
O385 Dy375 2.491 . S
O386 Dy375 2.403 . S
O386 C381 1.254 . S
O387 Dy372 2.310 . S
O387 Dy375 2.664 . S
O387 C381 1.268 . S
O388 Dy372 2.351 . S
O388 C391 1.249 . S
O389 Dy375 2.326 . S
O389 C391 1.267 . S
C390 O382 1.249 . S
C390 O383 1.267 . S
C391 O388 1.249 . S
C391 O389 1.267 . S
Dy392 O396 2.398 1_565 S
Dy392 O397 2.491 1_465 S
Dy392 O398 2.403 1_565 S
Dy392 O399 2.664 1_565 S
Dy392 O403 2.326 1_565 S
Dy392 O407 2.310 1_565 S
Dy392 O408 2.351 . S
C393 O404 1.185 . S
C393 O405 1.355 . S
C394 O396 1.185 . S
C394 O397 1.355 1_455 S
Dy395 O399 2.310 . S
Dy395 O402 2.351 . S
Dy395 O404 2.398 . S
Dy395 O405 2.491 . S
Dy395 O406 2.403 1_455 S
Dy395 O407 2.664 . S
Dy395 O409 2.326 1_545 S
O396 Dy392 2.398 1_545 S
O396 C394 1.185 . S
O397 Dy392 2.491 1_645 S
O397 C394 1.355 1_655 S
O398 Dy392 2.403 1_545 S
O398 C400 1.254 . S
O399 Dy392 2.664 1_545 S
O399 Dy395 2.310 . S
O399 C400 1.268 . S
C400 O398 1.254 . S
C400 O399 1.268 . S
C401 O406 1.258 . S
C401 O407 1.269 1_655 S
O402 Dy395 2.351 . S
O402 C410 1.249 . S
O403 Dy392 2.326 1_545 S
O403 C410 1.267 . S
O404 C393 1.185 . S
O404 Dy395 2.398 . S
O405 C393 1.355 . S
O405 Dy395 2.491 . S
O406 Dy395 2.403 1_655 S
O406 C401 1.258 . S
O407 Dy392 2.310 1_545 S
O407 Dy395 2.664 . S
O407 C401 1.269 1_455 S
O408 Dy392 2.351 . S
O408 C411 1.249 . S
O409 Dy395 2.326 1_565 S
O409 C411 1.267 . S
C410 O402 1.249 . S
C410 O403 1.267 . S
C411 O408 1.249 . S
C411 O409 1.267 . S
Dy412 O416 2.398 . S
Dy412 O417 2.491 . S
Dy412 O418 2.403 . S
Dy412 O419 2.664 . S
Dy412 O423 2.326 . S
Dy412 O427 2.310 . S
Dy412 O428 2.351 . S
C413 O424 1.185 . S
C413 O425 1.355 . S
C414 O416 1.185 . S
C414 O417 1.355 . S
Dy415 O419 2.310 . S
Dy415 O422 2.351 . S
Dy415 O424 2.398 . S
Dy415 O425 2.491 . S
Dy415 O426 2.403 . S
Dy415 O427 2.664 . S
Dy415 O429 2.326 . S
O416 Dy412 2.398 . S
O416 C414 1.185 . S
O417 Dy412 2.491 . S
O417 C414 1.355 . S
O418 Dy412 2.403 . S
O418 C420 1.254 . S
O419 Dy412 2.664 . S
O419 Dy415 2.310 . S
O419 C420 1.268 . S
C420 O418 1.254 . S
C420 O419 1.268 . S
C421 O426 1.254 . S
C421 O427 1.268 . S
O422 Dy415 2.351 . S
O422 C430 1.249 . S
O423 Dy412 2.326 . S
O423 C430 1.267 . S
O424 C413 1.185 . S
O424 Dy415 2.398 . S
O425 C413 1.355 . S
O425 Dy415 2.491 . S
O426 Dy415 2.403 . S
O426 C421 1.254 . S
O427 Dy412 2.310 . S
O427 Dy415 2.664 . S
O427 C421 1.268 . S
O428 Dy412 2.351 . S
O428 C431 1.249 . S
O429 Dy415 2.326 . S
O429 C431 1.267 . S
C430 O422 1.249 . S
C430 O423 1.267 . S
C431 O428 1.249 . S
C431 O429 1.267 . S
Dy432 O436 2.398 1_545 S
Dy432 O437 2.491 . S
Dy432 O438 2.403 1_545 S
Dy432 O439 2.664 1_554 S
Dy432 O443 2.326 . S
Dy432 O447 2.310 . S
Dy432 O448 2.351 . S
C433 O444 1.185 . S
C433 O445 1.355 . S
C434 O436 1.185 1_545 S
C434 O437 1.355 . S
Dy435 O439 2.310 . S
Dy435 O442 2.351 . S
Dy435 O444 2.398 . S
Dy435 O445 2.491 . S
Dy435 O446 2.403 . S
Dy435 O447 2.664 1_556 S
Dy435 O449 2.326 . S
O436 Dy432 2.398 1_565 S
O436 C434 1.185 1_565 S
O437 Dy432 2.491 . S
O437 C434 1.355 . S
O438 Dy432 2.403 1_565 S
O438 C440 1.254 1_554 S
O439 Dy432 2.664 1_556 S
O439 Dy435 2.310 . S
O439 C440 1.268 1_545 S
C440 O438 1.254 1_556 S
C440 O439 1.268 1_565 S
C441 O446 1.254 1_554 S
C441 O447 1.268 . S
O442 Dy435 2.351 . S
O442 C450 1.249 1_556 S
O443 Dy432 2.326 . S
O443 C450 1.267 . S
O444 C433 1.185 . S
O444 Dy435 2.398 . S
O445 C433 1.355 . S
O445 Dy435 2.491 . S
O446 Dy435 2.403 . S
O446 C441 1.254 1_556 S
O447 Dy432 2.310 . S
O447 Dy435 2.664 1_554 S
O447 C441 1.268 . S
O448 Dy432 2.351 . S
O448 C451 1.249 . S
O449 Dy435 2.326 . S
O449 C451 1.267 1_556 S
C450 O442 1.249 1_554 S
C450 O443 1.267 . S
C451 O448 1.249 . S
C451 O449 1.267 1_554 S
Dy452 O456 2.398 . S
Dy452 O457 2.491 . S
Dy452 O458 2.403 . S
Dy452 O459 2.664 . S
Dy452 O463 2.326 . S
Dy452 O467 2.310 . S
Dy452 O468 2.351 . S
C453 O464 1.185 . S
C453 O465 1.355 . S
C454 O456 1.185 . S
C454 O457 1.355 . S
Dy455 O459 2.310 . S
Dy455 O462 2.351 . S
Dy455 O464 2.398 . S
Dy455 O465 2.491 . S
Dy455 O466 2.403 . S
Dy455 O467 2.664 . S
Dy455 O469 2.326 . S
O456 Dy452 2.398 . S
O456 C454 1.185 . S
O457 Dy452 2.491 . S
O457 C454 1.355 . S
O458 Dy452 2.403 . S
O458 C460 1.254 . S
O459 Dy452 2.664 . S
O459 Dy455 2.310 . S
O459 C460 1.268 . S
C460 O458 1.254 . S
C460 O459 1.268 . S
C461 O466 1.254 . S
C461 O467 1.268 . S
O462 Dy455 2.351 . S
O462 C470 1.249 . S
O463 Dy452 2.326 . S
O463 C470 1.267 . S
O464 C453 1.185 . S
O464 Dy455 2.398 . S
O465 C453 1.355 . S
O465 Dy455 2.491 . S
O466 Dy455 2.403 . S
O466 C461 1.254 . S
O467 Dy452 2.310 . S
O467 Dy455 2.664 . S
O467 C461 1.268 . S
O468 Dy452 2.351 . S
O468 C471 1.249 . S
O469 Dy455 2.326 . S
O469 C471 1.267 . S
C470 O462 1.249 . S
C470 O463 1.267 . S
C471 O468 1.249 . S
C471 O469 1.267 . S
Dy472 O476 2.398 . S
Dy472 O477 2.491 . S
Dy472 O478 2.403 . S
Dy472 O479 2.664 1_556 S
Dy472 O483 2.326 . S
Dy472 O487 2.306 . S
Dy472 O488 2.351 . S
C473 O484 1.185 . S
C473 O485 1.355 . S
C474 O476 1.185 . S
C474 O477 1.355 . S
Dy475 O479 2.310 . S
Dy475 O482 2.351 . S
Dy475 O484 2.398 . S
Dy475 O485 2.491 . S
Dy475 O486 2.403 . S
Dy475 O487 2.668 1_554 S
Dy475 O489 2.326 . S
O476 Dy472 2.398 . S
O476 C474 1.185 . S
O477 Dy472 2.491 . S
O477 C474 1.355 . S
O478 Dy472 2.403 . S
O478 C480 1.254 . S
O479 Dy472 2.664 1_554 S
O479 Dy475 2.310 . S
O479 C480 1.268 1_554 S
C480 O478 1.254 . S
C480 O479 1.268 1_556 S
C481 O486 1.254 . S
C481 O487 1.271 1_554 S
O482 Dy475 2.351 . S
O482 C490 1.249 1_554 S
O483 Dy472 2.326 . S
O483 C490 1.267 . S
O484 C473 1.185 . S
O484 Dy475 2.398 . S
O485 C473 1.355 . S
O485 Dy475 2.491 . S
O486 Dy475 2.403 . S
O486 C481 1.254 . S
O487 Dy472 2.306 . S
O487 Dy475 2.668 1_556 S
O487 C481 1.271 1_556 S
O488 Dy472 2.351 . S
O488 C491 1.249 1_556 S
O489 Dy475 2.326 . S
O489 C491 1.267 . S
C490 O482 1.249 1_556 S
C490 O483 1.267 . S
C491 O488 1.249 1_554 S
C491 O489 1.267 . S
Dy492 O496 2.398 . S
Dy492 O497 2.491 . S
Dy492 O498 2.403 . S
Dy492 O499 2.664 . S
Dy492 O503 2.326 . S
Dy492 O507 2.310 . S
Dy492 O508 2.351 . S
C493 O504 1.185 . S
C493 O505 1.355 . S
C494 O496 1.185 . S
C494 O497 1.355 . S
Dy495 O499 2.310 . S
Dy495 O502 2.351 . S
Dy495 O504 2.398 . S
Dy495 O505 2.491 . S
Dy495 O506 2.403 . S
Dy495 O507 2.664 . S
Dy495 O509 2.326 . S
O496 Dy492 2.398 . S
O496 C494 1.185 . S
O497 Dy492 2.491 . S
O497 C494 1.355 . S
O498 Dy492 2.403 . S
O498 C500 1.254 . S
O499 Dy492 2.664 . S
O499 Dy495 2.310 . S
O499 C500 1.268 . S
C500 O498 1.254 . S
C500 O499 1.268 . S
C501 O506 1.254 . S
C501 O507 1.268 . S
O502 Dy495 2.351 . S
O502 C510 1.249 . S
O503 Dy492 2.326 . S
O503 C510 1.267 . S
O504 C493 1.185 . S
O504 Dy495 2.398 . S
O505 C493 1.355 . S
O505 Dy495 2.491 . S
O506 Dy495 2.403 . S
O506 C501 1.254 . S
O507 Dy492 2.310 . S
O507 Dy495 2.664 . S
O507 C501 1.268 . S
O508 Dy492 2.351 . S
O508 C511 1.249 . S
O509 Dy495 2.326 . S
O509 C511 1.267 . S
C510 O502 1.249 . S
C510 O503 1.267 . S
C511 O508 1.249 . S
C511 O509 1.267 . S
Dy512 O516 2.398 1_455 S
Dy512 O517 2.491 1_455 S
Dy512 O518 2.403 . S
Dy512 O519 2.664 . S
Dy512 O523 2.326 1_455 S
Dy512 O527 2.310 . S
Dy512 O528 2.351 . S
C513 O524 1.185 . S
C513 O525 1.355 . S
C514 O516 1.185 . S
C514 O517 1.355 . S
Dy515 O519 2.310 . S
Dy515 O522 2.351 1_455 S
Dy515 O524 2.398 . S
Dy515 O525 2.491 . S
Dy515 O526 2.403 . S
Dy515 O527 2.664 . S
Dy515 O529 2.326 . S
O516 Dy512 2.398 1_655 S
O516 C514 1.185 . S
O517 Dy512 2.491 1_655 S
O517 C514 1.355 . S
O518 Dy512 2.403 . S
O518 C520 1.254 . S
O519 Dy512 2.664 . S
O519 Dy515 2.310 . S
O519 C520 1.268 . S
C520 O518 1.254 . S
C520 O519 1.268 . S
C521 O526 1.254 . S
C521 O527 1.268 . S
O522 Dy515 2.351 1_655 S
O522 C530 1.249 . S
O523 Dy512 2.326 1_655 S
O523 C530 1.267 . S
O524 C513 1.185 . S
O524 Dy515 2.398 . S
O525 C513 1.355 . S
O525 Dy515 2.491 . S
O526 Dy515 2.403 . S
O526 C521 1.254 . S
O527 Dy512 2.310 . S
O527 Dy515 2.664 . S
O527 C521 1.268 . S
O528 Dy512 2.351 . S
O528 C531 1.249 . S
O529 Dy515 2.326 . S
O529 C531 1.267 . S
C530 O522 1.249 . S
C530 O523 1.267 . S
C531 O528 1.249 . S
C531 O529 1.267 . S
Dy532 O536 2.398 . S
Dy532 O537 2.491 . S
Dy532 O538 2.403 . S
Dy532 O539 2.664 . S
Dy532 O543 2.326 . S
Dy532 O547 2.310 . S
Dy532 O548 2.351 . S
C533 O544 1.185 . S
C533 O545 1.355 . S
C534 O536 1.185 . S
C534 O537 1.355 . S
Dy535 O539 2.310 . S
Dy535 O542 2.351 . S
Dy535 O544 2.398 . S
Dy535 O545 2.491 . S
Dy535 O546 2.403 . S
Dy535 O547 2.664 . S
Dy535 O549 2.326 . S
O536 Dy532 2.398 . S
O536 C534 1.185 . S
O537 Dy532 2.491 . S
O537 C534 1.355 . S
O538 Dy532 2.403 . S
O538 C540 1.254 . S
O539 Dy532 2.664 . S
O539 Dy535 2.310 . S
O539 C540 1.268 . S
C540 O538 1.254 . S
C540 O539 1.268 . S
C541 O546 1.254 . S
C541 O547 1.268 . S
O542 Dy535 2.351 . S
O542 C550 1.249 . S
O543 Dy532 2.326 . S
O543 C550 1.267 . S
O544 C533 1.185 . S
O544 Dy535 2.398 . S
O545 C533 1.355 . S
O545 Dy535 2.491 . S
O546 Dy535 2.403 . S
O546 C541 1.254 . S
O547 Dy532 2.310 . S
O547 Dy535 2.664 . S
O547 C541 1.268 . S
O548 Dy532 2.351 . S
O548 C551 1.249 . S
O549 Dy535 2.326 . S
O549 C551 1.267 . S
C550 O542 1.249 . S
C550 O543 1.267 . S
C551 O548 1.249 . S
C551 O549 1.267 . S
Dy552 O556 2.398 . S
Dy552 O557 2.491 . S
Dy552 O558 2.403 . S
Dy552 O559 2.664 . S
Dy552 O563 2.326 . S
Dy552 O567 2.310 . S
Dy552 O568 2.351 . S
C553 O564 1.185 . S
C553 O565 1.355 . S
C554 O556 1.185 . S
C554 O557 1.355 . S
Dy555 O559 2.310 . S
Dy555 O562 2.351 . S
Dy555 O564 2.398 . S
Dy555 O565 2.491 . S
Dy555 O566 2.403 . S
Dy555 O567 2.664 . S
Dy555 O569 2.326 . S
O556 Dy552 2.398 . S
O556 C554 1.185 . S
O557 Dy552 2.491 . S
O557 C554 1.355 . S
O558 Dy552 2.403 . S
O558 C560 1.254 . S
O559 Dy552 2.664 . S
O559 Dy555 2.310 . S
O559 C560 1.268 . S
C560 O558 1.254 . S
C560 O559 1.268 . S
C561 O566 1.254 . S
C561 O567 1.268 . S
O562 Dy555 2.351 . S
O562 C570 1.249 . S
O563 Dy552 2.326 . S
O563 C570 1.267 . S
O564 C553 1.185 . S
O564 Dy555 2.398 . S
O565 C553 1.355 . S
O565 Dy555 2.491 . S
O566 Dy555 2.403 . S
O566 C561 1.254 . S
O567 Dy552 2.310 . S
O567 Dy555 2.664 . S
O567 C561 1.268 . S
O568 Dy552 2.351 . S
O568 C571 1.249 . S
O569 Dy555 2.326 . S
O569 C571 1.267 . S
C570 O562 1.249 . S
C570 O563 1.267 . S
C571 O568 1.249 . S
C571 O569 1.267 . S
Dy572 O576 2.398 . S
Dy572 O577 2.491 . S
Dy572 O578 2.403 . S
Dy572 O579 2.664 . S
Dy572 O583 2.326 . S
Dy572 O587 2.310 . S
Dy572 O588 2.351 . S
C573 O584 1.185 . S
C573 O585 1.355 . S
C574 O576 1.185 . S
C574 O577 1.355 . S
Dy575 O579 2.310 . S
Dy575 O582 2.351 . S
Dy575 O584 2.398 . S
Dy575 O585 2.491 . S
Dy575 O586 2.403 . S
Dy575 O587 2.664 . S
Dy575 O589 2.326 . S
O576 Dy572 2.398 . S
O576 C574 1.185 . S
O577 Dy572 2.491 . S
O577 C574 1.355 . S
O578 Dy572 2.403 . S
O578 C580 1.254 . S
O579 Dy572 2.664 . S
O579 Dy575 2.310 . S
O579 C580 1.268 . S
C580 O578 1.254 . S
C580 O579 1.268 . S
C581 O586 1.254 . S
C581 O587 1.268 . S
O582 Dy575 2.351 . S
O582 C590 1.249 . S
O583 Dy572 2.326 . S
O583 C590 1.267 . S
O584 C573 1.185 . S
O584 Dy575 2.398 . S
O585 C573 1.355 . S
O585 Dy575 2.491 . S
O586 Dy575 2.403 . S
O586 C581 1.254 . S
O587 Dy572 2.310 . S
O587 Dy575 2.664 . S
O587 C581 1.268 . S
O588 Dy572 2.351 . S
O588 C591 1.249 . S
O589 Dy575 2.326 . S
O589 C591 1.267 . S
C590 O582 1.249 . S
C590 O583 1.267 . S
C591 O588 1.249 . S
C591 O589 1.267 . S
Dy592 O596 2.398 . S
Dy592 O597 2.491 . S
Dy592 O598 2.403 . S
Dy592 O599 2.664 . S
Dy592 O603 2.326 . S
Dy592 O607 2.310 . S
Dy592 O608 2.351 . S
C593 O604 1.185 . S
C593 O605 1.355 . S
C594 O596 1.185 . S
C594 O597 1.355 . S
Dy595 O599 2.310 . S
Dy595 O602 2.351 . S
Dy595 O604 2.398 . S
Dy595 O605 2.491 . S
Dy595 O606 2.403 . S
Dy595 O607 2.664 . S
Dy595 O609 2.326 . S
O596 Dy592 2.398 . S
O596 C594 1.185 . S
O597 Dy592 2.491 . S
O597 C594 1.355 . S
O598 Dy592 2.403 . S
O598 C600 1.254 . S
O599 Dy592 2.664 . S
O599 Dy595 2.310 . S
O599 C600 1.268 . S
C600 O598 1.254 . S
C600 O599 1.268 . S
C601 O606 1.254 . S
C601 O607 1.268 . S
O602 Dy595 2.351 . S
O602 C610 1.249 . S
O603 Dy592 2.326 . S
O603 C610 1.267 . S
O604 C593 1.185 . S
O604 Dy595 2.398 . S
O605 C593 1.355 . S
O605 Dy595 2.491 . S
O606 Dy595 2.403 . S
O606 C601 1.254 . S
O607 Dy592 2.310 . S
O607 Dy595 2.664 . S
O607 C601 1.268 . S
O608 Dy592 2.351 . S
O608 C611 1.249 . S
O609 Dy595 2.326 . S
O609 C611 1.267 . S
C610 O602 1.249 . S
C610 O603 1.267 . S
C611 O608 1.249 . S
C611 O609 1.267 . S
Dy612 O616 2.398 1_554 S
Dy612 O617 2.491 . S
Dy612 O618 2.403 1_554 S
Dy612 O619 2.664 1_455 S
Dy612 O623 2.326 . S
Dy612 O627 2.310 . S
Dy612 O628 2.351 . S
C613 O624 1.185 . S
C613 O625 1.355 . S
C614 O616 1.185 1_554 S
C614 O617 1.355 . S
Dy615 O619 2.310 . S
Dy615 O622 2.351 . S
Dy615 O624 2.398 . S
Dy615 O625 2.491 . S
Dy615 O626 2.403 . S
Dy615 O627 2.664 1_655 S
Dy615 O629 2.326 . S
O616 Dy612 2.398 1_556 S
O616 C614 1.185 1_556 S
O617 Dy612 2.491 . S
O617 C614 1.355 . S
O618 Dy612 2.403 1_556 S
O618 C620 1.254 . S
O619 Dy612 2.664 1_655 S
O619 Dy615 2.310 . S
O619 C620 1.268 1_654 S
C620 O618 1.254 . S
C620 O619 1.268 1_456 S
C621 O626 1.254 1_455 S
C621 O627 1.268 . S
O622 Dy615 2.351 . S
O622 C630 1.249 1_655 S
O623 Dy612 2.326 . S
O623 C630 1.267 . S
O624 C613 1.185 . S
O624 Dy615 2.398 . S
O625 C613 1.355 . S
O625 Dy615 2.491 . S
O626 Dy615 2.403 . S
O626 C621 1.254 1_655 S
O627 Dy612 2.310 . S
O627 Dy615 2.664 1_455 S
O627 C621 1.268 . S
O628 Dy612 2.351 . S
O628 C631 1.249 . S
O629 Dy615 2.326 . S
O629 C631 1.267 1_655 S
C630 O622 1.249 1_455 S
C630 O623 1.267 . S
C631 O628 1.249 . S
C631 O629 1.267 1_455 S
H632 C640 0.950 . S
H633 C645 0.950 . S
H634 C642 0.950 . S
H635 C644 0.950 . S
H636 C646 0.950 . S
H637 C648 0.950 . S
H638 C650 0.950 . S
H639 C651 0.950 . S
C640 H632 0.950 . S
C640 C641 1.386 . S
C640 C642 1.391 . S
C641 C640 1.386 . S
C641 C645 1.393 . S
C642 H634 0.950 . S
C642 C640 1.391 . S
C642 C643 1.400 . S
C643 C642 1.400 . S
C643 C644 1.398 . S
C643 C649 1.491 . S
C644 H635 0.950 . S
C644 C643 1.398 . S
C644 C645 1.391 . S
C645 H633 0.950 . S
C645 C641 1.393 . S
C645 C644 1.391 . S
C646 H636 0.950 . S
C646 C647 1.386 . S
C646 C648 1.391 . S
C647 C646 1.386 . S
C647 C651 1.393 1_554 S
C648 H637 0.950 . S
C648 C646 1.391 . S
C648 C649 1.400 1_554 S
C649 C643 1.491 . S
C649 C648 1.400 1_556 S
C649 C650 1.398 . S
C650 H638 0.950 . S
C650 C649 1.398 . S
C650 C651 1.391 . S
C651 H639 0.950 . S
C651 C647 1.393 1_556 S
C651 C650 1.391 . S
H652 C660 0.950 . S
H653 C665 0.950 . S
H654 C662 0.950 . S
H655 C664 0.950 . S
H656 C666 0.950 . S
H657 C668 0.950 . S
H658 C670 0.950 . S
H659 C671 0.950 . S
C660 H652 0.950 . S
C660 C661 1.386 . S
C660 C662 1.391 . S
C661 C660 1.386 . S
C661 C665 1.393 . S
C662 H654 0.950 . S
C662 C660 1.391 . S
C662 C663 1.400 . S
C663 C662 1.400 . S
C663 C664 1.398 . S
C663 C669 1.491 . S
C664 H655 0.950 . S
C664 C663 1.398 . S
C664 C665 1.391 . S
C665 H653 0.950 . S
C665 C661 1.393 . S
C665 C664 1.391 . S
C666 H656 0.950 . S
C666 C667 1.386 . S
C666 C668 1.391 . S
C667 C666 1.386 . S
C667 C671 1.393 . S
C668 H657 0.950 . S
C668 C666 1.391 . S
C668 C669 1.400 . S
C669 C663 1.491 . S
C669 C668 1.400 . S
C669 C670 1.398 . S
C670 H658 0.950 . S
C670 C669 1.398 . S
C670 C671 1.391 . S
C671 H659 0.950 . S
C671 C667 1.393 . S
C671 C670 1.391 . S
H672 C680 0.950 . S
H673 C685 0.950 . S
H674 C682 0.950 . S
H675 C684 0.950 . S
H676 C686 0.950 . S
H677 C688 0.950 . S
H678 C690 0.950 . S
H679 C691 0.950 . S
C680 H672 0.950 . S
C680 C681 1.386 . S
C680 C682 1.391 . S
C681 C680 1.386 . S
C681 C685 1.393 . S
C682 H674 0.950 . S
C682 C680 1.391 . S
C682 C683 1.400 . S
C683 C682 1.400 . S
C683 C684 1.398 . S
C683 C689 1.491 . S
C684 H675 0.950 . S
C684 C683 1.398 . S
C684 C685 1.391 . S
C685 H673 0.950 . S
C685 C681 1.393 . S
C685 C684 1.391 . S
C686 H676 0.950 . S
C686 C687 1.386 . S
C686 C688 1.391 . S
C687 C686 1.386 . S
C687 C691 1.393 . S
C688 H677 0.950 . S
C688 C686 1.391 . S
C688 C689 1.400 . S
C689 C683 1.491 . S
C689 C688 1.400 . S
C689 C690 1.398 . S
C690 H678 0.950 . S
C690 C689 1.398 . S
C690 C691 1.391 . S
C691 H679 0.950 . S
C691 C687 1.393 . S
C691 C690 1.391 . S
H692 C700 0.950 . S
H693 C705 0.950 . S
H694 C702 0.950 . S
H695 C704 0.950 . S
H696 C706 0.950 . S
H697 C708 0.950 . S
H698 C710 0.950 . S
H699 C711 0.950 . S
C700 H692 0.950 . S
C700 C701 1.386 . S
C700 C702 1.391 . S
C701 C700 1.386 . S
C701 C705 1.393 . S
C702 H694 0.950 . S
C702 C700 1.391 . S
C702 C703 1.400 . S
C703 C702 1.400 . S
C703 C704 1.398 . S
C703 C709 1.491 . S
C704 H695 0.950 . S
C704 C703 1.398 . S
C704 C705 1.391 . S
C705 H693 0.950 . S
C705 C701 1.393 . S
C705 C704 1.391 . S
C706 H696 0.950 . S
C706 C707 1.386 . S
C706 C708 1.391 . S
C707 C706 1.386 . S
C707 C711 1.393 . S
C708 H697 0.950 . S
C708 C706 1.391 . S
C708 C709 1.400 . S
C709 C703 1.491 . S
C709 C708 1.400 . S
C709 C710 1.398 . S
C710 H698 0.950 . S
C710 C709 1.398 . S
C710 C711 1.391 . S
C711 H699 0.950 . S
C711 C707 1.393 . S
C711 C710 1.391 . S
H712 C720 0.950 . S
H713 C725 0.950 . S
H714 C722 0.950 . S
H715 C724 0.950 . S
H716 C726 0.950 . S
H717 C728 0.950 . S
H718 C730 0.950 . S
H719 C731 0.950 . S
C720 H712 0.950 . S
C720 C721 1.386 . S
C720 C722 1.391 . S
C721 C720 1.386 . S
C721 C725 1.393 . S
C722 H714 0.950 . S
C722 C720 1.391 . S
C722 C723 1.400 . S
C723 C722 1.400 . S
C723 C724 1.398 . S
C723 C729 1.491 . S
C724 H715 0.950 . S
C724 C723 1.398 . S
C724 C725 1.391 . S
C725 H713 0.950 . S
C725 C721 1.393 . S
C725 C724 1.391 . S
C726 H716 0.950 . S
C726 C727 1.386 . S
C726 C728 1.391 . S
C727 C726 1.386 . S
C727 C731 1.393 . S
C728 H717 0.950 . S
C728 C726 1.391 . S
C728 C729 1.400 . S
C729 C723 1.491 . S
C729 C728 1.400 . S
C729 C730 1.398 . S
C730 H718 0.950 . S
C730 C729 1.398 . S
C730 C731 1.391 . S
C731 H719 0.950 . S
C731 C727 1.393 . S
C731 C730 1.391 . S
H732 C740 0.950 . S
H733 C745 0.950 . S
H734 C742 0.950 . S
H735 C744 0.950 . S
H736 C746 0.950 . S
H737 C748 0.950 . S
H738 C750 0.950 . S
H739 C751 0.950 . S
C740 H732 0.950 . S
C740 C741 1.386 . S
C740 C742 1.391 . S
C741 C740 1.386 . S
C741 C745 1.393 . S
C742 H734 0.950 . S
C742 C740 1.391 . S
C742 C743 1.400 . S
C743 C742 1.400 . S
C743 C744 1.398 . S
C743 C749 1.491 . S
C744 H735 0.950 . S
C744 C743 1.398 . S
C744 C745 1.391 . S
C745 H733 0.950 . S
C745 C741 1.393 . S
C745 C744 1.391 . S
C746 H736 0.950 . S
C746 C747 1.386 . S
C746 C748 1.391 . S
C747 C746 1.386 . S
C747 C751 1.393 . S
C748 H737 0.950 . S
C748 C746 1.391 . S
C748 C749 1.400 . S
C749 C743 1.491 . S
C749 C748 1.400 . S
C749 C750 1.398 . S
C750 H738 0.950 . S
C750 C749 1.398 . S
C750 C751 1.391 . S
C751 H739 0.950 . S
C751 C747 1.393 . S
C751 C750 1.391 . S
H752 C760 0.950 . S
H753 C765 0.950 . S
H754 C762 0.950 . S
H755 C764 0.950 . S
H756 C766 0.950 . S
H757 C768 0.950 . S
H758 C770 0.950 . S
H759 C771 0.950 . S
C760 H752 0.950 . S
C760 C761 1.386 . S
C760 C762 1.391 . S
C761 C760 1.386 . S
C761 C765 1.393 . S
C762 H754 0.950 . S
C762 C760 1.391 . S
C762 C763 1.400 . S
C763 C762 1.400 . S
C763 C764 1.398 . S
C763 C769 1.491 . S
C764 H755 0.950 . S
C764 C763 1.398 . S
C764 C765 1.391 . S
C765 H753 0.950 . S
C765 C761 1.393 . S
C765 C764 1.391 . S
C766 H756 0.950 . S
C766 C767 1.386 . S
C766 C768 1.391 . S
C767 C766 1.386 . S
C767 C771 1.393 . S
C768 H757 0.950 . S
C768 C766 1.391 . S
C768 C769 1.400 . S
C769 C763 1.491 . S
C769 C768 1.400 . S
C769 C770 1.398 . S
C770 H758 0.950 . S
C770 C769 1.398 . S
C770 C771 1.391 . S
C771 H759 0.950 . S
C771 C767 1.393 . S
C771 C770 1.391 . S
H772 C780 0.950 . S
H773 C785 0.950 . S
H774 C782 0.950 . S
H775 C784 0.950 . S
H776 C786 0.950 . S
H777 C788 0.950 . S
H778 C790 0.950 . S
H779 C791 0.950 . S
C780 H772 0.950 . S
C780 C781 1.386 . S
C780 C782 1.391 . S
C781 C780 1.386 . S
C781 C785 1.393 . S
C782 H774 0.950 . S
C782 C780 1.391 . S
C782 C783 1.400 . S
C783 C782 1.400 . S
C783 C784 1.398 . S
C783 C789 1.491 . S
C784 H775 0.950 . S
C784 C783 1.398 . S
C784 C785 1.391 . S
C785 H773 0.950 . S
C785 C781 1.393 . S
C785 C784 1.391 . S
C786 H776 0.950 . S
C786 C787 1.386 . S
C786 C788 1.391 . S
C787 C786 1.386 . S
C787 C791 1.393 . S
C788 H777 0.950 . S
C788 C786 1.391 . S
C788 C789 1.400 . S
C789 C783 1.491 . S
C789 C788 1.400 . S
C789 C790 1.398 . S
C790 H778 0.950 . S
C790 C789 1.398 . S
C790 C791 1.391 . S
C791 H779 0.950 . S
C791 C787 1.393 . S
C791 C790 1.391 . S
H792 C800 0.950 . S
H793 C805 0.950 . S
H794 C802 0.950 . S
H795 C804 0.950 . S
H796 C806 0.950 . S
H797 C808 0.950 . S
H798 C810 0.950 . S
H799 C811 0.950 . S
C800 H792 0.950 . S
C800 C801 1.386 . S
C800 C802 1.391 . S
C801 C800 1.386 . S
C801 C805 1.393 . S
C802 H794 0.950 . S
C802 C800 1.391 . S
C802 C803 1.400 . S
C803 C802 1.400 . S
C803 C804 1.398 . S
C803 C809 1.491 . S
C804 H795 0.950 . S
C804 C803 1.398 . S
C804 C805 1.391 . S
C805 H793 0.950 . S
C805 C801 1.393 . S
C805 C804 1.391 . S
C806 H796 0.950 . S
C806 C807 1.386 . S
C806 C808 1.391 1_455 S
C807 C806 1.386 . S
C807 C811 1.393 . S
C808 H797 0.950 . S
C808 C806 1.391 1_655 S
C808 C809 1.400 . S
C809 C803 1.491 . S
C809 C808 1.400 . S
C809 C810 1.398 . S
C810 H798 0.950 . S
C810 C809 1.398 . S
C810 C811 1.391 1_655 S
C811 H799 0.950 . S
C811 C807 1.393 . S
C811 C810 1.391 1_455 S
H812 C820 0.950 . S
H813 C825 0.950 . S
H814 C822 0.950 . S
H815 C824 0.950 . S
H816 C826 0.950 . S
H817 C828 0.950 . S
H818 C830 0.950 . S
H819 C831 0.950 . S
C820 H812 0.950 . S
C820 C821 1.386 . S
C820 C822 1.391 . S
C821 C820 1.386 . S
C821 C825 1.393 . S
C822 H814 0.950 . S
C822 C820 1.391 . S
C822 C823 1.400 . S
C823 C822 1.400 . S
C823 C824 1.398 . S
C823 C829 1.491 . S
C824 H815 0.950 . S
C824 C823 1.398 . S
C824 C825 1.391 . S
C825 H813 0.950 . S
C825 C821 1.393 . S
C825 C824 1.391 . S
C826 H816 0.950 . S
C826 C827 1.386 . S
C826 C828 1.391 . S
C827 C826 1.386 . S
C827 C831 1.393 . S
C828 H817 0.950 . S
C828 C826 1.391 . S
C828 C829 1.400 . S
C829 C823 1.491 . S
C829 C828 1.400 . S
C829 C830 1.398 . S
C830 H818 0.950 . S
C830 C829 1.398 . S
C830 C831 1.391 . S
C831 H819 0.950 . S
C831 C827 1.393 . S
C831 C830 1.391 . S
H832 C840 0.950 . S
H833 C845 0.950 . S
H834 C842 0.950 . S
H835 C844 0.950 . S
H836 C846 0.950 . S
H837 C848 0.950 . S
H838 C850 0.950 . S
H839 C851 0.950 . S
C840 H832 0.950 . S
C840 C841 1.386 1_565 S
C840 C842 1.391 . S
C841 C840 1.386 1_545 S
C841 C845 1.393 . S
C842 H834 0.950 . S
C842 C840 1.391 . S
C842 C843 1.400 1_565 S
C843 C842 1.400 1_545 S
C843 C844 1.398 . S
C843 C849 1.491 . S
C844 H835 0.950 . S
C844 C843 1.398 . S
C844 C845 1.391 . S
C845 H833 0.950 . S
C845 C841 1.393 . S
C845 C844 1.391 . S
C846 H836 0.950 . S
C846 C847 1.386 . S
C846 C848 1.391 . S
C847 C846 1.386 . S
C847 C851 1.393 1_545 S
C848 H837 0.950 . S
C848 C846 1.391 . S
C848 C849 1.400 . S
C849 C843 1.491 . S
C849 C848 1.400 . S
C849 C850 1.398 1_545 S
C850 H838 0.950 . S
C850 C849 1.398 1_565 S
C850 C851 1.391 . S
C851 H839 0.950 . S
C851 C847 1.393 1_565 S
C851 C850 1.391 . S
H852 C860 0.950 . S
H853 C865 0.950 . S
H854 C862 0.950 . S
H855 C864 0.950 . S
H856 C866 0.950 . S
H857 C868 0.950 . S
H858 C870 0.950 . S
H859 C871 0.950 . S
C860 H852 0.950 . S
C860 C861 1.386 . S
C860 C862 1.391 . S
C861 C860 1.386 . S
C861 C865 1.393 . S
C862 H854 0.950 . S
C862 C860 1.391 . S
C862 C863 1.400 . S
C863 C862 1.400 . S
C863 C864 1.398 . S
C863 C869 1.491 . S
C864 H855 0.950 . S
C864 C863 1.398 . S
C864 C865 1.391 . S
C865 H853 0.950 . S
C865 C861 1.393 . S
C865 C864 1.391 . S
C866 H856 0.950 . S
C866 C867 1.386 . S
C866 C868 1.391 . S
C867 C866 1.386 . S
C867 C871 1.393 . S
C868 H857 0.950 . S
C868 C866 1.391 . S
C868 C869 1.400 . S
C869 C863 1.491 . S
C869 C868 1.400 . S
C869 C870 1.398 . S
C870 H858 0.950 . S
C870 C869 1.398 . S
C870 C871 1.391 . S
C871 H859 0.950 . S
C871 C867 1.393 . S
C871 C870 1.391 . S
H872 C880 0.950 . S
H873 C885 0.950 . S
H874 C882 0.950 . S
H875 C884 0.950 . S
H876 C886 0.950 . S
H877 C888 0.950 . S
H878 C890 0.950 1_565 S
H879 C891 1.000 . S
C880 H872 0.950 . S
C880 C881 1.386 . S
C880 C882 1.391 . S
C881 C880 1.386 . S
C881 C885 1.393 . S
C882 H874 0.950 . S
C882 C880 1.391 . S
C882 C883 1.400 . S
C883 C882 1.400 . S
C883 C884 1.398 . S
C883 C889 1.491 . S
C884 H875 0.950 . S
C884 C883 1.398 . S
C884 C885 1.391 . S
C885 H873 0.950 . S
C885 C881 1.393 . S
C885 C884 1.391 . S
C886 H876 0.950 . S
C886 C887 1.386 1_655 S
C886 C888 1.391 . S
C887 C886 1.386 1_455 S
C887 C891 1.375 1_545 S
C888 H877 0.950 . S
C888 C886 1.391 . S
C888 C889 1.400 . S
C889 C883 1.491 . S
C889 C888 1.400 . S
C889 C890 1.398 . S
C890 H878 0.950 1_545 S
C890 C889 1.398 . S
C890 C891 1.359 1_645 S
C891 H879 1.000 . S
C891 C887 1.375 1_565 S
C891 C890 1.359 1_465 S
H892 C900 0.950 . S
H893 C905 0.950 . S
H894 C902 0.950 . S
H895 C904 0.950 . S
H896 C906 0.950 . S
H897 C908 0.950 . S
H898 C910 0.950 . S
H899 C911 0.950 . S
C900 H892 0.950 . S
C900 C901 1.386 . S
C900 C902 1.391 . S
C901 C900 1.386 . S
C901 C905 1.393 . S
C902 H894 0.950 . S
C902 C900 1.391 . S
C902 C903 1.400 . S
C903 C902 1.400 . S
C903 C904 1.398 . S
C903 C909 1.491 . S
C904 H895 0.950 . S
C904 C903 1.398 . S
C904 C905 1.391 . S
C905 H893 0.950 . S
C905 C901 1.393 . S
C905 C904 1.391 . S
C906 H896 0.950 . S
C906 C907 1.386 . S
C906 C908 1.391 . S
C907 C906 1.386 . S
C907 C911 1.393 . S
C908 H897 0.950 . S
C908 C906 1.391 . S
C908 C909 1.400 . S
C909 C903 1.491 . S
C909 C908 1.400 . S
C909 C910 1.398 . S
C910 H898 0.950 . S
C910 C909 1.398 . S
C910 C911 1.391 . S
C911 H899 0.950 . S
C911 C907 1.393 . S
C911 C910 1.391 . S
H912 C920 0.950 . S
H913 C925 0.950 . S
H914 C922 0.950 . S
H915 C924 0.950 . S
H916 C926 0.950 . S
H917 C928 0.950 . S
H918 C930 0.950 . S
H919 C931 0.950 . S
C920 H912 0.950 . S
C920 C921 1.386 . S
C920 C922 1.391 . S
C921 C920 1.386 . S
C921 C925 1.393 . S
C922 H914 0.950 . S
C922 C920 1.391 . S
C922 C923 1.400 . S
C923 C922 1.400 . S
C923 C924 1.398 . S
C923 C929 1.491 . S
C924 H915 0.950 . S
C924 C923 1.398 . S
C924 C925 1.391 . S
C925 H913 0.950 . S
C925 C921 1.393 . S
C925 C924 1.391 . S
C926 H916 0.950 . S
C926 C927 1.386 . S
C926 C928 1.391 . S
C927 C926 1.386 . S
C927 C931 1.393 . S
C928 H917 0.950 . S
C928 C926 1.391 . S
C928 C929 1.400 . S
C929 C923 1.491 . S
C929 C928 1.400 . S
C929 C930 1.398 . S
C930 H918 0.950 . S
C930 C929 1.398 . S
C930 C931 1.391 . S
C931 H919 0.950 . S
C931 C927 1.393 . S
C931 C930 1.391 . S
H932 C940 0.950 . S
H933 C945 0.950 . S
H934 C942 0.950 . S
H935 C944 0.950 . S
H936 C946 0.950 . S
H937 C948 0.950 . S
H938 C950 0.950 . S
H939 C951 0.950 . S
C940 H932 0.950 . S
C940 C941 1.386 . S
C940 C942 1.391 . S
C941 C940 1.386 . S
C941 C945 1.393 . S
C942 H934 0.950 . S
C942 C940 1.391 . S
C942 C943 1.400 . S
C943 C942 1.400 . S
C943 C944 1.398 . S
C943 C949 1.491 . S
C944 H935 0.950 . S
C944 C943 1.398 . S
C944 C945 1.391 . S
C945 H933 0.950 . S
C945 C941 1.393 . S
C945 C944 1.391 . S
C946 H936 0.950 . S
C946 C947 1.386 . S
C946 C948 1.391 . S
C947 C946 1.386 . S
C947 C951 1.393 . S
C948 H937 0.950 . S
C948 C946 1.391 . S
C948 C949 1.400 . S
C949 C943 1.491 . S
C949 C948 1.400 . S
C949 C950 1.398 . S
C950 H938 0.950 . S
C950 C949 1.398 . S
C950 C951 1.391 . S
C951 H939 0.950 . S
C951 C947 1.393 . S
C951 C950 1.391 . S
H952 C960 0.950 . S
H953 C965 0.950 . S
H954 C962 0.950 . S
H955 C964 0.950 . S
H956 C966 0.950 . S
H957 C968 0.951 1_545 S
H958 C970 0.950 . S
H959 C971 0.950 . S
C960 H952 0.950 . S
C960 C961 1.386 . S
C960 C962 1.391 . S
C961 C960 1.386 . S
C961 C965 1.393 . S
C962 H954 0.950 . S
C962 C960 1.391 . S
C962 C963 1.400 . S
C963 C962 1.400 . S
C963 C964 1.398 . S
C963 C969 1.491 . S
C964 H955 0.950 . S
C964 C963 1.398 . S
C964 C965 1.391 . S
C965 H953 0.950 . S
C965 C961 1.393 . S
C965 C964 1.391 . S
C966 H956 0.950 . S
C966 C967 1.386 . S
C966 C968 1.394 1_545 S
C967 C966 1.386 . S
C967 C971 1.393 1_545 S
C968 H957 0.951 1_565 S
C968 C966 1.394 1_565 S
C968 C969 1.395 . S
C969 C963 1.491 . S
C969 C968 1.395 . S
C969 C970 1.398 . S
C970 H958 0.950 . S
C970 C969 1.398 . S
C970 C971 1.391 . S
C971 H959 0.950 . S
C971 C967 1.393 1_565 S
C971 C970 1.391 . S
H972 C980 0.950 . S
H973 C985 0.950 . S
H974 C982 0.950 . S
H975 C984 0.950 . S
H976 C986 0.950 . S
H977 C988 0.950 . S
H978 C990 0.950 . S
H979 C991 0.950 . S
C980 H972 0.950 . S
C980 C981 1.386 1_556 S
C980 C982 1.391 . S
C981 C980 1.386 1_554 S
C981 C985 1.393 . S
C982 H974 0.950 . S
C982 C980 1.391 . S
C982 C983 1.400 1_556 S
C983 C982 1.400 1_554 S
C983 C984 1.398 . S
C983 C989 1.491 . S
C984 H975 0.950 . S
C984 C983 1.398 . S
C984 C985 1.391 . S
C985 H973 0.950 . S
C985 C981 1.393 . S
C985 C984 1.391 . S
C986 H976 0.950 . S
C986 C987 1.394 . S
C986 C988 1.391 . S
C987 C986 1.394 . S
C987 C991 1.384 1_554 S
C988 H977 0.950 . S
C988 C986 1.391 . S
C988 C989 1.400 . S
C989 C983 1.491 . S
C989 C988 1.400 . S
C989 C990 1.398 1_554 S
C990 H978 0.950 . S
C990 C989 1.398 1_556 S
C990 C991 1.391 . S
C991 H979 0.950 . S
C991 C987 1.384 1_556 S
C991 C990 1.391 . S
H992 C1000 0.950 . S
H993 C1005 0.950 . S
H994 C1002 0.950 . S
H995 C1004 0.950 . S
H996 C1006 0.950 . S
H997 C1008 0.950 . S
H998 C1010 0.950 . S
H999 C1011 0.950 . S
C1000 H992 0.950 . S
C1000 C1001 1.386 . S
C1000 C1002 1.391 . S
C1001 C1000 1.386 . S
C1001 C1005 1.393 . S
C1002 H994 0.950 . S
C1002 C1000 1.391 . S
C1002 C1003 1.400 . S
C1003 C1002 1.400 . S
C1003 C1004 1.398 . S
C1003 C1009 1.491 . S
C1004 H995 0.950 . S
C1004 C1003 1.398 . S
C1004 C1005 1.391 . S
C1005 H993 0.950 . S
C1005 C1001 1.393 . S
C1005 C1004 1.391 . S
C1006 H996 0.950 . S
C1006 C1007 1.386 . S
C1006 C1008 1.391 . S
C1007 C1006 1.386 . S
C1007 C1011 1.393 . S
C1008 H997 0.950 . S
C1008 C1006 1.391 . S
C1008 C1009 1.400 . S
C1009 C1003 1.491 . S
C1009 C1008 1.400 . S
C1009 C1010 1.398 . S
C1010 H998 0.950 . S
C1010 C1009 1.398 . S
C1010 C1011 1.391 . S
C1011 H999 0.950 . S
C1011 C1007 1.393 . S
C1011 C1010 1.391 . S
H1012 C1020 0.950 . S
H1013 C1025 0.950 . S
H1014 C1022 0.950 . S
H1015 C1024 0.950 . S
H1016 C1026 0.950 . S
H1017 C1028 0.950 . S
H1018 C1030 0.950 . S
H1019 C1031 0.950 . S
C1020 H1012 0.950 . S
C1020 C1021 1.386 . S
C1020 C1022 1.391 . S
C1021 C1020 1.386 . S
C1021 C1025 1.393 . S
C1022 H1014 0.950 . S
C1022 C1020 1.391 . S
C1022 C1023 1.400 . S
C1023 C1022 1.400 . S
C1023 C1024 1.398 . S
C1023 C1029 1.491 . S
C1024 H1015 0.950 . S
C1024 C1023 1.398 . S
C1024 C1025 1.391 . S
C1025 H1013 0.950 . S
C1025 C1021 1.393 . S
C1025 C1024 1.391 . S
C1026 H1016 0.950 . S
C1026 C1027 1.386 . S
C1026 C1028 1.391 . S
C1027 C1026 1.386 . S
C1027 C1031 1.393 . S
C1028 H1017 0.950 . S
C1028 C1026 1.391 . S
C1028 C1029 1.400 . S
C1029 C1023 1.491 . S
C1029 C1028 1.400 . S
C1029 C1030 1.398 . S
C1030 H1018 0.950 . S
C1030 C1029 1.398 . S
C1030 C1031 1.391 . S
C1031 H1019 0.950 . S
C1031 C1027 1.393 . S
C1031 C1030 1.391 . S
H1032 C1040 0.950 . S
H1033 C1045 0.950 . S
H1034 C1042 0.950 . S
H1035 C1044 0.950 . S
H1036 C1046 0.950 . S
H1037 C1048 0.950 . S
H1038 C1050 0.950 . S
H1039 C1051 0.950 . S
C1040 H1032 0.950 . S
C1040 C1041 1.386 . S
C1040 C1042 1.391 . S
C1041 C1040 1.386 . S
C1041 C1045 1.393 . S
C1042 H1034 0.950 . S
C1042 C1040 1.391 . S
C1042 C1043 1.400 . S
C1043 C1042 1.400 . S
C1043 C1044 1.398 . S
C1043 C1049 1.491 . S
C1044 H1035 0.950 . S
C1044 C1043 1.398 . S
C1044 C1045 1.391 . S
C1045 H1033 0.950 . S
C1045 C1041 1.393 . S
C1045 C1044 1.391 . S
C1046 H1036 0.950 . S
C1046 C1047 1.386 . S
C1046 C1048 1.391 . S
C1047 C1046 1.386 . S
C1047 C1051 1.393 . S
C1048 H1037 0.950 . S
C1048 C1046 1.391 . S
C1048 C1049 1.400 . S
C1049 C1043 1.491 . S
C1049 C1048 1.400 . S
C1049 C1050 1.398 . S
C1050 H1038 0.950 . S
C1050 C1049 1.398 . S
C1050 C1051 1.391 . S
C1051 H1039 0.950 . S
C1051 C1047 1.393 . S
C1051 C1050 1.391 . S
H1052 C1060 0.950 . S
H1053 C1065 0.950 . S
H1054 C1062 0.950 . S
H1055 C1064 0.950 . S
H1056 C1066 0.950 . S
H1057 C1068 0.950 . S
H1058 C1070 0.950 . S
H1059 C1071 0.950 . S
C1060 H1052 0.950 . S
C1060 C1061 1.386 . S
C1060 C1062 1.391 . S
C1061 C1060 1.386 . S
C1061 C1065 1.393 . S
C1062 H1054 0.950 . S
C1062 C1060 1.391 . S
C1062 C1063 1.400 . S
C1063 C1062 1.400 . S
C1063 C1064 1.398 . S
C1063 C1069 1.491 . S
C1064 H1055 0.950 . S
C1064 C1063 1.398 . S
C1064 C1065 1.391 . S
C1065 H1053 0.950 . S
C1065 C1061 1.393 . S
C1065 C1064 1.391 . S
C1066 H1056 0.950 . S
C1066 C1067 1.386 . S
C1066 C1068 1.391 . S
C1067 C1066 1.386 . S
C1067 C1071 1.393 . S
C1068 H1057 0.950 . S
C1068 C1066 1.391 . S
C1068 C1069 1.400 . S
C1069 C1063 1.491 . S
C1069 C1068 1.400 . S
C1069 C1070 1.398 . S
C1070 H1058 0.950 . S
C1070 C1069 1.398 . S
C1070 C1071 1.391 . S
C1071 H1059 0.950 . S
C1071 C1067 1.393 . S
C1071 C1070 1.391 . S
H1072 C1080 0.950 . S
H1073 C1085 0.950 . S
H1074 C1082 0.950 . S
H1075 C1084 0.950 . S
H1076 C1086 0.950 . S
H1077 C1088 0.950 . S
H1078 C1090 0.950 . S
H1079 C1091 0.950 . S
C1080 H1072 0.950 . S
C1080 C1081 1.386 . S
C1080 C1082 1.391 . S
C1081 C1080 1.386 . S
C1081 C1085 1.393 . S
C1082 H1074 0.950 . S
C1082 C1080 1.391 . S
C1082 C1083 1.400 . S
C1083 C1082 1.400 . S
C1083 C1084 1.398 . S
C1083 C1089 1.491 . S
C1084 H1075 0.950 . S
C1084 C1083 1.398 . S
C1084 C1085 1.391 . S
C1085 H1073 0.950 . S
C1085 C1081 1.393 . S
C1085 C1084 1.391 . S
C1086 H1076 0.950 . S
C1086 C1087 1.386 . S
C1086 C1088 1.391 . S
C1087 C1086 1.386 . S
C1087 C1091 1.393 . S
C1088 H1077 0.950 . S
C1088 C1086 1.391 . S
C1088 C1089 1.400 . S
C1089 C1083 1.491 . S
C1089 C1088 1.400 . S
C1089 C1090 1.398 . S
C1090 H1078 0.950 . S
C1090 C1089 1.398 . S
C1090 C1091 1.391 . S
C1091 H1079 0.950 . S
C1091 C1087 1.393 . S
C1091 C1090 1.391 . S
H1092 C1100 0.950 . S
H1093 C1105 0.950 . S
H1094 C1102 0.950 . S
H1095 C1104 0.950 . S
H1096 C1106 0.950 . S
H1097 C1108 0.950 . S
H1098 C1110 0.950 . S
H1099 C1111 0.950 . S
C1100 H1092 0.950 . S
C1100 C1101 1.386 . S
C1100 C1102 1.391 . S
C1101 C1100 1.386 . S
C1101 C1105 1.393 . S
C1102 H1094 0.950 . S
C1102 C1100 1.391 . S
C1102 C1103 1.400 . S
C1103 C1102 1.400 . S
C1103 C1104 1.398 . S
C1103 C1109 1.491 . S
C1104 H1095 0.950 . S
C1104 C1103 1.398 . S
C1104 C1105 1.391 . S
C1105 H1093 0.950 . S
C1105 C1101 1.393 . S
C1105 C1104 1.391 . S
C1106 H1096 0.950 . S
C1106 C1107 1.386 . S
C1106 C1108 1.391 . S
C1107 C1106 1.386 . S
C1107 C1111 1.393 . S
C1108 H1097 0.950 . S
C1108 C1106 1.391 . S
C1108 C1109 1.400 . S
C1109 C1103 1.491 . S
C1109 C1108 1.400 . S
C1109 C1110 1.398 . S
C1110 H1098 0.950 . S
C1110 C1109 1.398 . S
C1110 C1111 1.391 . S
C1111 H1099 0.950 . S
C1111 C1107 1.393 . S
C1111 C1110 1.391 . S
H1112 C1120 0.950 . S
H1113 C1125 0.950 . S
H1114 C1122 0.950 . S
H1115 C1124 0.950 . S
H1116 C1126 0.950 . S
H1117 C1128 0.950 . S
H1118 C1130 0.950 . S
H1119 C1131 0.950 . S
C1120 H1112 0.950 . S
C1120 C1121 1.386 . S
C1120 C1122 1.391 . S
C1121 C1120 1.386 . S
C1121 C1125 1.393 . S
C1122 H1114 0.950 . S
C1122 C1120 1.391 . S
C1122 C1123 1.400 . S
C1123 C1122 1.400 . S
C1123 C1124 1.398 . S
C1123 C1129 1.491 . S
C1124 H1115 0.950 . S
C1124 C1123 1.398 . S
C1124 C1125 1.391 . S
C1125 H1113 0.950 . S
C1125 C1121 1.393 . S
C1125 C1124 1.391 . S
C1126 H1116 0.950 . S
C1126 C1127 1.386 . S
C1126 C1128 1.391 . S
C1127 C1126 1.386 . S
C1127 C1131 1.393 . S
C1128 H1117 0.950 . S
C1128 C1126 1.391 . S
C1128 C1129 1.400 . S
C1129 C1123 1.491 . S
C1129 C1128 1.400 . S
C1129 C1130 1.398 . S
C1130 H1118 0.950 . S
C1130 C1129 1.398 . S
C1130 C1131 1.391 . S
C1131 H1119 0.950 . S
C1131 C1127 1.393 . S
C1131 C1130 1.391 . S
H1132 C1140 0.950 . S
H1133 C1145 0.950 . S
H1134 C1142 0.950 . S
H1135 C1144 0.950 . S
H1136 C1146 0.950 . S
H1137 C1148 0.950 . S
H1138 C1150 0.950 . S
H1139 C1151 0.950 . S
C1140 H1132 0.950 . S
C1140 C1141 1.386 . S
C1140 C1142 1.391 . S
C1141 C1140 1.386 . S
C1141 C1145 1.393 . S
C1142 H1134 0.950 . S
C1142 C1140 1.391 . S
C1142 C1143 1.400 . S
C1143 C1142 1.400 . S
C1143 C1144 1.398 . S
C1143 C1149 1.491 . S
C1144 H1135 0.950 . S
C1144 C1143 1.398 . S
C1144 C1145 1.391 . S
C1145 H1133 0.950 . S
C1145 C1141 1.393 . S
C1145 C1144 1.391 . S
C1146 H1136 0.950 . S
C1146 C1147 1.386 . S
C1146 C1148 1.391 . S
C1147 C1146 1.386 . S
C1147 C1151 1.393 . S
C1148 H1137 0.950 . S
C1148 C1146 1.391 . S
C1148 C1149 1.400 . S
C1149 C1143 1.491 . S
C1149 C1148 1.400 . S
C1149 C1150 1.398 . S
C1150 H1138 0.950 . S
C1150 C1149 1.398 . S
C1150 C1151 1.391 . S
C1151 H1139 0.950 . S
C1151 C1147 1.393 . S
C1151 C1150 1.391 . S
H1152 C1160 0.950 . S
H1153 C1165 0.950 . S
H1154 C1162 0.950 . S
H1155 C1164 0.950 . S
H1156 C1166 0.950 . S
H1157 C1168 0.950 . S
H1158 C1170 0.950 . S
H1159 C1171 0.950 . S
C1160 H1152 0.950 . S
C1160 C1161 1.386 . S
C1160 C1162 1.391 . S
C1161 C1160 1.386 . S
C1161 C1165 1.393 . S
C1162 H1154 0.950 . S
C1162 C1160 1.391 . S
C1162 C1163 1.400 . S
C1163 C1162 1.400 . S
C1163 C1164 1.398 . S
C1163 C1169 1.491 . S
C1164 H1155 0.950 . S
C1164 C1163 1.398 . S
C1164 C1165 1.391 . S
C1165 H1153 0.950 . S
C1165 C1161 1.393 . S
C1165 C1164 1.391 . S
C1166 H1156 0.950 . S
C1166 C1167 1.386 . S
C1166 C1168 1.391 . S
C1167 C1166 1.386 . S
C1167 C1171 1.393 . S
C1168 H1157 0.950 . S
C1168 C1166 1.391 . S
C1168 C1169 1.400 . S
C1169 C1163 1.491 . S
C1169 C1168 1.400 . S
C1169 C1170 1.398 . S
C1170 H1158 0.950 . S
C1170 C1169 1.398 . S
C1170 C1171 1.391 . S
C1171 H1159 0.950 . S
C1171 C1167 1.393 . S
C1171 C1170 1.391 . S
H1172 C1180 0.950 . S
H1173 C1185 0.950 . S
H1174 C1182 0.950 . S
H1175 C1184 0.950 . S
H1176 C1186 0.950 . S
H1177 C1188 0.950 . S
H1178 C1190 0.950 . S
H1179 C1191 0.950 . S
C1180 H1172 0.950 . S
C1180 C1181 1.386 . S
C1180 C1182 1.391 . S
C1181 C1180 1.386 . S
C1181 C1185 1.393 . S
C1182 H1174 0.950 . S
C1182 C1180 1.391 . S
C1182 C1183 1.400 . S
C1183 C1182 1.400 . S
C1183 C1184 1.398 . S
C1183 C1189 1.491 . S
C1184 H1175 0.950 . S
C1184 C1183 1.398 . S
C1184 C1185 1.391 . S
C1185 H1173 0.950 . S
C1185 C1181 1.393 . S
C1185 C1184 1.391 . S
C1186 H1176 0.950 . S
C1186 C1187 1.386 . S
C1186 C1188 1.391 . S
C1187 C1186 1.386 . S
C1187 C1191 1.393 . S
C1188 H1177 0.950 . S
C1188 C1186 1.391 . S
C1188 C1189 1.400 . S
C1189 C1183 1.491 . S
C1189 C1188 1.400 . S
C1189 C1190 1.398 . S
C1190 H1178 0.950 . S
C1190 C1189 1.398 . S
C1190 C1191 1.391 . S
C1191 H1179 0.950 . S
C1191 C1187 1.393 . S
C1191 C1190 1.391 . S
H1192 C1200 0.950 . S
H1193 C1205 0.950 . S
H1194 C1202 0.950 . S
H1195 C1204 0.950 . S
H1196 C1206 0.950 . S
H1197 C1208 0.950 . S
H1198 C1210 0.950 . S
H1199 C1211 0.950 . S
C1200 H1192 0.950 . S
C1200 C1201 1.386 . S
C1200 C1202 1.391 . S
C1201 C1200 1.386 . S
C1201 C1205 1.393 . S
C1202 H1194 0.950 . S
C1202 C1200 1.391 . S
C1202 C1203 1.400 . S
C1203 C1202 1.400 . S
C1203 C1204 1.398 . S
C1203 C1209 1.491 . S
C1204 H1195 0.950 . S
C1204 C1203 1.398 . S
C1204 C1205 1.391 . S
C1205 H1193 0.950 . S
C1205 C1201 1.393 . S
C1205 C1204 1.391 . S
C1206 H1196 0.950 . S
C1206 C1207 1.386 . S
C1206 C1208 1.391 . S
C1207 C1206 1.386 . S
C1207 C1211 1.393 . S
C1208 H1197 0.950 . S
C1208 C1206 1.391 . S
C1208 C1209 1.400 . S
C1209 C1203 1.491 . S
C1209 C1208 1.400 . S
C1209 C1210 1.398 . S
C1210 H1198 0.950 . S
C1210 C1209 1.398 . S
C1210 C1211 1.391 . S
C1211 H1199 0.950 . S
C1211 C1207 1.393 . S
C1211 C1210 1.391 . S
H1212 C1220 0.950 . S
H1213 C1225 0.950 . S
H1214 C1222 0.950 . S
H1215 C1224 0.950 . S
H1216 C1226 0.950 . S
H1217 C1228 0.950 . S
H1218 C1230 0.950 . S
H1219 C1231 0.950 . S
C1220 H1212 0.950 . S
C1220 C1221 1.386 . S
C1220 C1222 1.391 . S
C1221 C1220 1.386 . S
C1221 C1225 1.393 . S
C1222 H1214 0.950 . S
C1222 C1220 1.391 . S
C1222 C1223 1.400 . S
C1223 C1222 1.400 . S
C1223 C1224 1.398 . S
C1223 C1229 1.491 . S
C1224 H1215 0.950 . S
C1224 C1223 1.398 . S
C1224 C1225 1.391 . S
C1225 H1213 0.950 . S
C1225 C1221 1.393 . S
C1225 C1224 1.391 . S
C1226 H1216 0.950 . S
C1226 C1227 1.386 . S
C1226 C1228 1.391 . S
C1227 C1226 1.386 . S
C1227 C1231 1.393 . S
C1228 H1217 0.950 . S
C1228 C1226 1.391 . S
C1228 C1229 1.400 . S
C1229 C1223 1.491 . S
C1229 C1228 1.400 . S
C1229 C1230 1.398 . S
C1230 H1218 0.950 . S
C1230 C1229 1.398 . S
C1230 C1231 1.391 . S
C1231 H1219 0.950 . S
C1231 C1227 1.393 . S
C1231 C1230 1.391 . S
H1232 C1240 0.950 . S
H1233 C1245 0.950 . S
H1234 C1242 0.950 . S
H1235 C1244 0.950 . S
H1236 C1246 0.950 . S
H1237 C1248 0.950 . S
H1238 C1250 0.950 . S
H1239 C1251 0.935 1_554 S
C1240 H1232 0.950 . S
C1240 C1241 1.386 . S
C1240 C1242 1.391 . S
C1241 C1240 1.386 . S
C1241 C1245 1.393 . S
C1242 H1234 0.950 . S
C1242 C1240 1.391 . S
C1242 C1243 1.400 . S
C1243 C1242 1.400 . S
C1243 C1244 1.398 . S
C1243 C1249 1.491 . S
C1244 H1235 0.950 . S
C1244 C1243 1.398 . S
C1244 C1245 1.391 . S
C1245 H1233 0.950 . S
C1245 C1241 1.393 . S
C1245 C1244 1.391 . S
C1246 H1236 0.950 . S
C1246 C1247 1.386 . S
C1246 C1248 1.391 . S
C1247 C1246 1.386 . S
C1247 C1251 1.393 . S
C1248 H1237 0.950 . S
C1248 C1246 1.391 . S
C1248 C1249 1.400 . S
C1249 C1243 1.491 . S
C1249 C1248 1.400 . S
C1249 C1250 1.398 . S
C1250 H1238 0.950 . S
C1250 C1249 1.398 . S
C1250 C1251 1.391 . S
C1251 H1239 0.935 1_556 S
C1251 C1247 1.393 . S
C1251 C1250 1.391 . S
H1252 C1260 0.950 . S
H1253 C1265 0.950 . S
H1254 C1262 0.950 . S
H1255 C1264 0.950 . S
H1256 C1266 0.950 . S
H1257 C1268 0.950 . S
H1258 C1270 0.950 . S
H1259 C1271 0.950 . S
C1260 H1252 0.950 . S
C1260 C1261 1.386 . S
C1260 C1262 1.391 . S
C1261 C1260 1.386 . S
C1261 C1265 1.393 . S
C1262 H1254 0.950 . S
C1262 C1260 1.391 . S
C1262 C1263 1.400 . S
C1263 C1262 1.400 . S
C1263 C1264 1.398 . S
C1263 C1269 1.491 . S
C1264 H1255 0.950 . S
C1264 C1263 1.398 . S
C1264 C1265 1.391 . S
C1265 H1253 0.950 . S
C1265 C1261 1.393 . S
C1265 C1264 1.391 . S
C1266 H1256 0.950 . S
C1266 C1267 1.386 . S
C1266 C1268 1.391 . S
C1267 C1266 1.386 . S
C1267 C1271 1.393 . S
C1268 H1257 0.950 . S
C1268 C1266 1.391 . S
C1268 C1269 1.400 . S
C1269 C1263 1.491 . S
C1269 C1268 1.400 . S
C1269 C1270 1.398 . S
C1270 H1258 0.950 . S
C1270 C1269 1.398 . S
C1270 C1271 1.391 . S
C1271 H1259 0.950 . S
C1271 C1267 1.393 . S
C1271 C1270 1.391 . S
H1272 C1280 0.950 . S
H1273 C1285 0.950 . S
H1274 C1282 0.950 . S
H1275 C1284 0.950 . S
H1276 C1286 0.957 . S
H1277 C1288 0.950 . S
H1278 C1290 0.950 . S
H1279 C1291 0.950 . S
C1280 H1272 0.950 . S
C1280 C1281 1.386 . S
C1280 C1282 1.391 . S
C1281 C1280 1.386 . S
C1281 C1285 1.393 1_545 S
C1282 H1274 0.950 . S
C1282 C1280 1.391 . S
C1282 C1283 1.400 . S
C1283 C1282 1.400 . S
C1283 C1284 1.398 1_545 S
C1283 C1289 1.491 . S
C1284 H1275 0.950 . S
C1284 C1283 1.398 1_565 S
C1284 C1285 1.391 . S
C1285 H1273 0.950 . S
C1285 C1281 1.393 1_565 S
C1285 C1284 1.391 . S
C1286 H1276 0.957 . S
C1286 C1287 1.377 1_565 S
C1286 C1288 1.393 . S
C1287 C1286 1.377 1_545 S
C1287 C1291 1.393 . S
C1288 H1277 0.950 . S
C1288 C1286 1.393 . S
C1288 C1289 1.400 1_565 S
C1289 C1283 1.491 . S
C1289 C1288 1.400 1_545 S
C1289 C1290 1.398 . S
C1290 H1278 0.950 . S
C1290 C1289 1.398 . S
C1290 C1291 1.391 . S
C1291 H1279 0.950 . S
C1291 C1287 1.393 . S
C1291 C1290 1.391 . S
H1292 C1300 0.950 . S
H1293 C1305 0.950 . S
H1294 C1302 0.950 . S
H1295 C1304 0.950 . S
H1296 C1306 0.950 . S
H1297 C1308 0.950 . S
H1298 C1310 0.950 . S
H1299 C1311 0.950 . S
C1300 H1292 0.950 . S
C1300 C1301 1.386 . S
C1300 C1302 1.391 . S
C1301 C1300 1.386 . S
C1301 C1305 1.393 . S
C1302 H1294 0.950 . S
C1302 C1300 1.391 . S
C1302 C1303 1.400 . S
C1303 C1302 1.400 . S
C1303 C1304 1.398 . S
C1303 C1309 1.491 . S
C1304 H1295 0.950 . S
C1304 C1303 1.398 . S
C1304 C1305 1.391 . S
C1305 H1293 0.950 . S
C1305 C1301 1.393 . S
C1305 C1304 1.391 . S
C1306 H1296 0.950 . S
C1306 C1307 1.386 . S
C1306 C1308 1.391 . S
C1307 C1306 1.386 . S
C1307 C1311 1.393 . S
C1308 H1297 0.950 . S
C1308 C1306 1.391 . S
C1308 C1309 1.400 . S
C1309 C1303 1.491 . S
C1309 C1308 1.400 . S
C1309 C1310 1.398 . S
C1310 H1298 0.950 . S
C1310 C1309 1.398 . S
C1310 C1311 1.391 . S
C1311 H1299 0.950 . S
C1311 C1307 1.393 . S
C1311 C1310 1.391 . S
H1312 C1320 0.950 1_565 S
H1313 C1325 0.950 . S
H1314 C1322 0.950 1_565 S
H1315 C1324 0.950 . S
H1316 C1326 0.950 . S
H1317 C1328 0.950 . S
H1318 C1330 0.950 1_565 S
H1319 C1331 0.950 1_565 S
C1320 H1312 0.950 1_545 S
C1320 C1321 1.386 . S
C1320 C1322 1.391 . S
C1321 C1320 1.386 . S
C1321 C1325 1.393 . S
C1322 H1314 0.950 1_545 S
C1322 C1320 1.391 . S
C1322 C1323 1.400 . S
C1323 C1322 1.400 . S
C1323 C1324 1.398 . S
C1323 C1329 1.491 . S
C1324 H1315 0.950 . S
C1324 C1323 1.398 . S
C1324 C1325 1.391 . S
C1325 H1313 0.950 . S
C1325 C1321 1.393 . S
C1325 C1324 1.391 . S
C1326 H1316 0.950 . S
C1326 C1327 1.386 . S
C1326 C1328 1.391 . S
C1327 C1326 1.386 . S
C1327 C1331 1.393 . S
C1328 H1317 0.950 . S
C1328 C1326 1.391 . S
C1328 C1329 1.400 . S
C1329 C1323 1.491 . S
C1329 C1328 1.400 . S
C1329 C1330 1.398 . S
C1330 H1318 0.950 1_545 S
C1330 C1329 1.398 . S
C1330 C1331 1.391 . S
C1331 H1319 0.950 1_545 S
C1331 C1327 1.393 . S
C1331 C1330 1.391 . S
H1332 C1340 0.950 . S
H1333 C1345 0.950 . S
H1334 C1342 0.950 . S
H1335 C1344 0.950 . S
H1336 C1346 0.950 . S
H1337 C1348 0.950 . S
H1338 C1350 0.950 . S
H1339 C1351 0.950 . S
C1340 H1332 0.950 . S
C1340 C1341 1.386 . S
C1340 C1342 1.391 . S
C1341 C1340 1.386 . S
C1341 C1345 1.393 . S
C1342 H1334 0.950 . S
C1342 C1340 1.391 . S
C1342 C1343 1.400 . S
C1343 C1342 1.400 . S
C1343 C1344 1.398 . S
C1343 C1349 1.491 . S
C1344 H1335 0.950 . S
C1344 C1343 1.398 . S
C1344 C1345 1.391 . S
C1345 H1333 0.950 . S
C1345 C1341 1.393 . S
C1345 C1344 1.391 . S
C1346 H1336 0.950 . S
C1346 C1347 1.386 . S
C1346 C1348 1.391 . S
C1347 C1346 1.386 . S
C1347 C1351 1.393 . S
C1348 H1337 0.950 . S
C1348 C1346 1.391 . S
C1348 C1349 1.400 . S
C1349 C1343 1.491 . S
C1349 C1348 1.400 . S
C1349 C1350 1.398 . S
C1350 H1338 0.950 . S
C1350 C1349 1.398 . S
C1350 C1351 1.391 . S
C1351 H1339 0.950 . S
C1351 C1347 1.393 . S
C1351 C1350 1.391 . S
H1352 C1360 0.949 . S
H1353 C1365 0.950 . S
H1354 C1362 0.950 . S
H1355 C1364 0.950 . S
H1356 C1366 0.950 . S
H1357 C1368 0.950 . S
H1358 C1370 0.950 . S
H1359 C1371 0.950 . S
C1360 H1352 0.949 . S
C1360 C1361 1.388 1_545 S
C1360 C1362 1.390 . S
C1361 C1360 1.388 1_565 S
C1361 C1365 1.393 . S
C1362 H1354 0.950 . S
C1362 C1360 1.390 . S
C1362 C1363 1.400 1_545 S
C1363 C1362 1.400 1_565 S
C1363 C1364 1.398 . S
C1363 C1369 1.491 1_565 S
C1364 H1355 0.950 . S
C1364 C1363 1.398 . S
C1364 C1365 1.391 . S
C1365 H1353 0.950 . S
C1365 C1361 1.393 . S
C1365 C1364 1.391 . S
C1366 H1356 0.950 . S
C1366 C1367 1.386 1_565 S
C1366 C1368 1.391 . S
C1367 C1366 1.386 1_545 S
C1367 C1371 1.393 . S
C1368 H1357 0.950 . S
C1368 C1366 1.391 . S
C1368 C1369 1.400 1_565 S
C1369 C1363 1.491 1_545 S
C1369 C1368 1.400 1_545 S
C1369 C1370 1.398 . S
C1370 H1358 0.950 . S
C1370 C1369 1.398 . S
C1370 C1371 1.391 . S
C1371 H1359 0.950 . S
C1371 C1367 1.393 . S
C1371 C1370 1.391 . S
H1372 C1380 0.950 . S
H1373 C1385 0.950 . S
H1374 C1382 0.950 . S
H1375 C1384 0.950 . S
H1376 C1386 0.950 . S
H1377 C1388 0.950 . S
H1378 C1390 0.950 . S
H1379 C1391 0.950 . S
C1380 H1372 0.950 . S
C1380 C1381 1.386 . S
C1380 C1382 1.391 . S
C1381 C1380 1.386 . S
C1381 C1385 1.393 . S
C1382 H1374 0.950 . S
C1382 C1380 1.391 . S
C1382 C1383 1.400 . S
C1383 C1382 1.400 . S
C1383 C1384 1.398 . S
C1383 C1389 1.491 . S
C1384 H1375 0.950 . S
C1384 C1383 1.398 . S
C1384 C1385 1.391 . S
C1385 H1373 0.950 . S
C1385 C1381 1.393 . S
C1385 C1384 1.391 . S
C1386 H1376 0.950 . S
C1386 C1387 1.386 . S
C1386 C1388 1.391 . S
C1387 C1386 1.386 . S
C1387 C1391 1.393 . S
C1388 H1377 0.950 . S
C1388 C1386 1.391 . S
C1388 C1389 1.400 . S
C1389 C1383 1.491 . S
C1389 C1388 1.400 . S
C1389 C1390 1.398 . S
C1390 H1378 0.950 . S
C1390 C1389 1.398 . S
C1390 C1391 1.391 . S
C1391 H1379 0.950 . S
C1391 C1387 1.393 . S
C1391 C1390 1.391 . S
H1392 C1400 0.950 1_565 S
H1393 C1405 0.950 . S
H1394 C1402 0.953 . S
H1395 C1404 0.950 . S
H1396 C1406 0.950 . S
H1397 C1408 0.950 . S
H1398 C1410 0.950 . S
H1399 C1411 0.950 . S
C1400 H1392 0.950 1_545 S
C1400 C1401 1.386 . S
C1400 C1402 1.391 1_545 S
C1401 C1400 1.386 . S
C1401 C1405 1.393 . S
C1402 H1394 0.953 . S
C1402 C1400 1.391 1_565 S
C1402 C1403 1.397 1_565 S
C1403 C1402 1.397 1_545 S
C1403 C1404 1.398 . S
C1403 C1409 1.491 . S
C1404 H1395 0.950 . S
C1404 C1403 1.398 . S
C1404 C1405 1.391 . S
C1405 H1393 0.950 . S
C1405 C1401 1.393 . S
C1405 C1404 1.391 . S
C1406 H1396 0.950 . S
C1406 C1407 1.386 . S
C1406 C1408 1.391 . S
C1407 C1406 1.386 . S
C1407 C1411 1.393 1_545 S
C1408 H1397 0.950 . S
C1408 C1406 1.391 . S
C1408 C1409 1.400 . S
C1409 C1403 1.491 . S
C1409 C1408 1.400 . S
C1409 C1410 1.398 1_545 S
C1410 H1398 0.950 . S
C1410 C1409 1.398 1_565 S
C1410 C1411 1.391 . S
C1411 H1399 0.950 . S
C1411 C1407 1.393 1_565 S
C1411 C1410 1.391 . S
H1412 C1420 0.950 . S
H1413 C1425 0.950 . S
H1414 C1422 0.950 . S
H1415 C1424 0.950 . S
H1416 C1426 0.950 . S
H1417 C1428 0.950 . S
H1418 C1430 0.950 . S
H1419 C1431 0.950 . S
C1420 H1412 0.950 . S
C1420 C1421 1.386 . S
C1420 C1422 1.391 . S
C1421 C1420 1.386 . S
C1421 C1425 1.393 . S
C1422 H1414 0.950 . S
C1422 C1420 1.391 . S
C1422 C1423 1.400 . S
C1423 C1422 1.400 . S
C1423 C1424 1.398 . S
C1423 C1429 1.491 . S
C1424 H1415 0.950 . S
C1424 C1423 1.398 . S
C1424 C1425 1.391 . S
C1425 H1413 0.950 . S
C1425 C1421 1.393 . S
C1425 C1424 1.391 . S
C1426 H1416 0.950 . S
C1426 C1427 1.386 . S
C1426 C1428 1.391 . S
C1427 C1426 1.386 . S
C1427 C1431 1.393 . S
C1428 H1417 0.950 . S
C1428 C1426 1.391 . S
C1428 C1429 1.400 . S
C1429 C1423 1.491 . S
C1429 C1428 1.400 . S
C1429 C1430 1.398 . S
C1430 H1418 0.950 . S
C1430 C1429 1.398 . S
C1430 C1431 1.391 . S
C1431 H1419 0.950 . S
C1431 C1427 1.393 . S
C1431 C1430 1.391 . S
H1432 C1440 0.950 . S
H1433 C1445 0.950 . S
H1434 C1442 0.950 . S
H1435 C1444 0.950 . S
H1436 C1446 0.950 . S
H1437 C1448 0.950 . S
H1438 C1450 0.950 . S
H1439 C1451 0.950 . S
C1440 H1432 0.950 . S
C1440 C1441 1.386 1_556 S
C1440 C1442 1.391 . S
C1441 C1440 1.386 1_554 S
C1441 C1445 1.393 . S
C1442 H1434 0.950 . S
C1442 C1440 1.391 . S
C1442 C1443 1.400 1_556 S
C1443 C1442 1.400 1_554 S
C1443 C1444 1.398 . S
C1443 C1449 1.491 . S
C1444 H1435 0.950 . S
C1444 C1443 1.398 . S
C1444 C1445 1.391 . S
C1445 H1433 0.950 . S
C1445 C1441 1.393 . S
C1445 C1444 1.391 . S
C1446 H1436 0.950 . S
C1446 C1447 1.386 . S
C1446 C1448 1.391 . S
C1447 C1446 1.386 . S
C1447 C1451 1.393 1_554 S
C1448 H1437 0.950 . S
C1448 C1446 1.391 . S
C1448 C1449 1.400 . S
C1449 C1443 1.491 . S
C1449 C1448 1.400 . S
C1449 C1450 1.398 1_554 S
C1450 H1438 0.950 . S
C1450 C1449 1.398 1_556 S
C1450 C1451 1.391 . S
C1451 H1439 0.950 . S
C1451 C1447 1.393 1_556 S
C1451 C1450 1.391 . S
H1452 C1460 0.950 . S
H1453 C1465 0.950 . S
H1454 C1462 0.950 . S
H1455 C1464 0.950 . S
H1456 C1466 0.950 . S
H1457 C1468 0.950 . S
H1458 C1470 0.950 . S
H1459 C1471 0.950 . S
C1460 H1452 0.950 . S
C1460 C1461 1.386 . S
C1460 C1462 1.391 . S
C1461 C1460 1.386 . S
C1461 C1465 1.393 1_554 S
C1462 H1454 0.950 . S
C1462 C1460 1.391 . S
C1462 C1463 1.400 . S
C1463 C1462 1.400 . S
C1463 C1464 1.398 1_554 S
C1463 C1469 1.491 . S
C1464 H1455 0.950 . S
C1464 C1463 1.398 1_556 S
C1464 C1465 1.391 . S
C1465 H1453 0.950 . S
C1465 C1461 1.393 1_556 S
C1465 C1464 1.391 . S
C1466 H1456 0.950 . S
C1466 C1467 1.386 1_556 S
C1466 C1468 1.391 . S
C1467 C1466 1.386 1_554 S
C1467 C1471 1.393 . S
C1468 H1457 0.950 . S
C1468 C1466 1.391 . S
C1468 C1469 1.400 1_556 S
C1469 C1463 1.491 . S
C1469 C1468 1.400 1_554 S
C1469 C1470 1.398 . S
C1470 H1458 0.950 . S
C1470 C1469 1.398 . S
C1470 C1471 1.391 . S
C1471 H1459 0.950 . S
C1471 C1467 1.393 . S
C1471 C1470 1.391 . S
H1472 C1480 0.950 . S
H1473 C1485 0.950 . S
H1474 C1482 0.950 . S
H1475 C1484 0.950 . S
H1476 C1486 0.950 . S
H1477 C1488 0.950 . S
H1478 C1490 0.950 . S
H1479 C1491 0.950 . S
C1480 H1472 0.950 . S
C1480 C1481 1.386 . S
C1480 C1482 1.391 . S
C1481 C1480 1.386 . S
C1481 C1485 1.393 . S
C1482 H1474 0.950 . S
C1482 C1480 1.391 . S
C1482 C1483 1.400 . S
C1483 C1482 1.400 . S
C1483 C1484 1.398 . S
C1483 C1489 1.491 . S
C1484 H1475 0.950 . S
C1484 C1483 1.398 . S
C1484 C1485 1.391 . S
C1485 H1473 0.950 . S
C1485 C1481 1.393 . S
C1485 C1484 1.391 . S
C1486 H1476 0.950 . S
C1486 C1487 1.386 . S
C1486 C1488 1.391 . S
C1487 C1486 1.386 . S
C1487 C1491 1.393 . S
C1488 H1477 0.950 . S
C1488 C1486 1.391 . S
C1488 C1489 1.400 . S
C1489 C1483 1.491 . S
C1489 C1488 1.400 . S
C1489 C1490 1.398 . S
C1490 H1478 0.950 . S
C1490 C1489 1.398 . S
C1490 C1491 1.391 . S
C1491 H1479 0.950 . S
C1491 C1487 1.393 . S
C1491 C1490 1.391 . S
H1492 C1500 0.950 . S
H1493 C1505 0.950 . S
H1494 C1502 0.950 . S
H1495 C1504 0.950 . S
H1496 C1506 0.950 . S
H1497 C1508 0.950 . S
H1498 C1510 0.950 . S
H1499 C1511 0.950 . S
C1500 H1492 0.950 . S
C1500 C1501 1.386 . S
C1500 C1502 1.391 . S
C1501 C1500 1.386 . S
C1501 C1505 1.393 . S
C1502 H1494 0.950 . S
C1502 C1500 1.391 . S
C1502 C1503 1.400 . S
C1503 C1502 1.400 . S
C1503 C1504 1.398 . S
C1503 C1509 1.491 . S
C1504 H1495 0.950 . S
C1504 C1503 1.398 . S
C1504 C1505 1.391 . S
C1505 H1493 0.950 . S
C1505 C1501 1.393 . S
C1505 C1504 1.391 . S
C1506 H1496 0.950 . S
C1506 C1507 1.386 . S
C1506 C1508 1.391 . S
C1507 C1506 1.386 . S
C1507 C1511 1.393 . S
C1508 H1497 0.950 . S
C1508 C1506 1.391 . S
C1508 C1509 1.400 . S
C1509 C1503 1.491 . S
C1509 C1508 1.400 . S
C1509 C1510 1.398 . S
C1510 H1498 0.950 . S
C1510 C1509 1.398 . S
C1510 C1511 1.391 . S
C1511 H1499 0.950 . S
C1511 C1507 1.393 . S
C1511 C1510 1.391 . S
H1512 C1520 0.950 . S
H1513 C1525 0.950 . S
H1514 C1522 0.950 . S
H1515 C1524 0.950 . S
H1516 C1526 0.950 . S
H1517 C1528 0.950 . S
H1518 C1530 0.950 . S
H1519 C1531 0.950 . S
C1520 H1512 0.950 . S
C1520 C1521 1.386 . S
C1520 C1522 1.391 . S
C1521 C1520 1.386 . S
C1521 C1525 1.393 . S
C1522 H1514 0.950 . S
C1522 C1520 1.391 . S
C1522 C1523 1.400 . S
C1523 C1522 1.400 . S
C1523 C1524 1.398 . S
C1523 C1529 1.491 . S
C1524 H1515 0.950 . S
C1524 C1523 1.398 . S
C1524 C1525 1.391 . S
C1525 H1513 0.950 . S
C1525 C1521 1.393 . S
C1525 C1524 1.391 . S
C1526 H1516 0.950 . S
C1526 C1527 1.386 . S
C1526 C1528 1.391 . S
C1527 C1526 1.386 . S
C1527 C1531 1.393 . S
C1528 H1517 0.950 . S
C1528 C1526 1.391 . S
C1528 C1529 1.400 . S
C1529 C1523 1.491 . S
C1529 C1528 1.400 . S
C1529 C1530 1.398 . S
C1530 H1518 0.950 . S
C1530 C1529 1.398 . S
C1530 C1531 1.391 . S
C1531 H1519 0.950 . S
C1531 C1527 1.393 . S
C1531 C1530 1.391 . S
H1532 C1540 0.950 . S
H1533 C1545 0.950 . S
H1534 C1542 0.950 . S
H1535 C1544 0.950 . S
H1536 C1546 0.950 . S
H1537 C1548 0.950 . S
H1538 C1550 0.950 . S
H1539 C1551 0.950 . S
C1540 H1532 0.950 . S
C1540 C1541 1.386 . S
C1540 C1542 1.391 . S
C1541 C1540 1.386 . S
C1541 C1545 1.393 . S
C1542 H1534 0.950 . S
C1542 C1540 1.391 . S
C1542 C1543 1.400 . S
C1543 C1542 1.400 . S
C1543 C1544 1.398 . S
C1543 C1549 1.491 . S
C1544 H1535 0.950 . S
C1544 C1543 1.398 . S
C1544 C1545 1.391 . S
C1545 H1533 0.950 . S
C1545 C1541 1.393 . S
C1545 C1544 1.391 . S
C1546 H1536 0.950 . S
C1546 C1547 1.386 . S
C1546 C1548 1.391 . S
C1547 C1546 1.386 . S
C1547 C1551 1.393 . S
C1548 H1537 0.950 . S
C1548 C1546 1.391 . S
C1548 C1549 1.400 . S
C1549 C1543 1.491 . S
C1549 C1548 1.400 . S
C1549 C1550 1.398 . S
C1550 H1538 0.950 . S
C1550 C1549 1.398 . S
C1550 C1551 1.391 . S
C1551 H1539 0.950 . S
C1551 C1547 1.393 . S
C1551 C1550 1.391 . S
H1552 C1560 0.950 . S
H1553 C1565 0.950 . S
H1554 C1562 0.950 . S
H1555 C1564 0.950 . S
H1556 C1566 0.950 . S
H1557 C1568 0.950 . S
H1558 C1570 0.950 . S
H1559 C1571 0.950 . S
C1560 H1552 0.950 . S
C1560 C1561 1.386 . S
C1560 C1562 1.391 . S
C1561 C1560 1.386 . S
C1561 C1565 1.393 . S
C1562 H1554 0.950 . S
C1562 C1560 1.391 . S
C1562 C1563 1.400 . S
C1563 C1562 1.400 . S
C1563 C1564 1.398 . S
C1563 C1569 1.491 . S
C1564 H1555 0.950 . S
C1564 C1563 1.398 . S
C1564 C1565 1.391 . S
C1565 H1553 0.950 . S
C1565 C1561 1.393 . S
C1565 C1564 1.391 . S
C1566 H1556 0.950 . S
C1566 C1567 1.386 . S
C1566 C1568 1.391 . S
C1567 C1566 1.386 . S
C1567 C1571 1.393 . S
C1568 H1557 0.950 . S
C1568 C1566 1.391 . S
C1568 C1569 1.400 . S
C1569 C1563 1.491 . S
C1569 C1568 1.400 . S
C1569 C1570 1.398 . S
C1570 H1558 0.950 . S
C1570 C1569 1.398 . S
C1570 C1571 1.391 . S
C1571 H1559 0.950 . S
C1571 C1567 1.393 . S
C1571 C1570 1.391 . S
H1572 C1580 0.950 . S
H1573 C1585 0.950 . S
H1574 C1582 0.950 . S
H1575 C1584 0.950 . S
H1576 C1586 0.950 . S
H1577 C1588 0.950 . S
H1578 C1590 0.950 . S
H1579 C1591 0.950 . S
C1580 H1572 0.950 . S
C1580 C1581 1.386 . S
C1580 C1582 1.391 . S
C1581 C1580 1.386 . S
C1581 C1585 1.393 . S
C1582 H1574 0.950 . S
C1582 C1580 1.391 . S
C1582 C1583 1.400 . S
C1583 C1582 1.400 . S
C1583 C1584 1.398 . S
C1583 C1589 1.491 . S
C1584 H1575 0.950 . S
C1584 C1583 1.398 . S
C1584 C1585 1.391 . S
C1585 H1573 0.950 . S
C1585 C1581 1.393 . S
C1585 C1584 1.391 . S
C1586 H1576 0.950 . S
C1586 C1587 1.386 . S
C1586 C1588 1.391 . S
C1587 C1586 1.386 . S
C1587 C1591 1.393 . S
C1588 H1577 0.950 . S
C1588 C1586 1.391 . S
C1588 C1589 1.400 . S
C1589 C1583 1.491 . S
C1589 C1588 1.400 . S
C1589 C1590 1.398 . S
C1590 H1578 0.950 . S
C1590 C1589 1.398 . S
C1590 C1591 1.391 . S
C1591 H1579 0.950 . S
C1591 C1587 1.393 . S
C1591 C1590 1.391 . S
H1592 C1600 0.950 . S
H1593 C1605 0.950 . S
H1594 C1602 0.950 . S
H1595 C1604 0.950 . S
H1596 C1606 0.950 . S
H1597 C1608 0.950 . S
H1598 C1610 0.950 . S
H1599 C1611 0.950 . S
C1600 H1592 0.950 . S
C1600 C1601 1.386 . S
C1600 C1602 1.391 . S
C1601 C1600 1.386 . S
C1601 C1605 1.393 . S
C1602 H1594 0.950 . S
C1602 C1600 1.391 . S
C1602 C1603 1.400 . S
C1603 C1602 1.400 . S
C1603 C1604 1.398 . S
C1603 C1609 1.491 . S
C1604 H1595 0.950 . S
C1604 C1603 1.398 . S
C1604 C1605 1.391 . S
C1605 H1593 0.950 . S
C1605 C1601 1.393 . S
C1605 C1604 1.391 . S
C1606 H1596 0.950 . S
C1606 C1607 1.386 . S
C1606 C1608 1.391 . S
C1607 C1606 1.386 . S
C1607 C1611 1.393 . S
C1608 H1597 0.950 . S
C1608 C1606 1.391 . S
C1608 C1609 1.400 . S
C1609 C1603 1.491 . S
C1609 C1608 1.400 . S
C1609 C1610 1.398 . S
C1610 H1598 0.950 . S
C1610 C1609 1.398 . S
C1610 C1611 1.391 . S
C1611 H1599 0.950 . S
C1611 C1607 1.393 . S
C1611 C1610 1.391 . S
H1612 C1620 0.950 . S
H1613 C1625 0.950 . S
H1614 C1622 0.950 . S
H1615 C1624 0.950 . S
H1616 C1626 0.950 . S
H1617 C1628 0.950 . S
H1618 C1630 0.950 . S
H1619 C1631 0.950 . S
C1620 H1612 0.950 . S
C1620 C1621 1.386 . S
C1620 C1622 1.391 . S
C1621 C1620 1.386 . S
C1621 C1625 1.393 . S
C1622 H1614 0.950 . S
C1622 C1620 1.391 . S
C1622 C1623 1.400 . S
C1623 C1622 1.400 . S
C1623 C1624 1.398 . S
C1623 C1629 1.491 . S
C1624 H1615 0.950 . S
C1624 C1623 1.398 . S
C1624 C1625 1.391 . S
C1625 H1613 0.950 . S
C1625 C1621 1.393 . S
C1625 C1624 1.391 . S
C1626 H1616 0.950 . S
C1626 C1627 1.386 . S
C1626 C1628 1.391 . S
C1627 C1626 1.386 . S
C1627 C1631 1.393 . S
C1628 H1617 0.950 . S
C1628 C1626 1.391 . S
C1628 C1629 1.400 . S
C1629 C1623 1.491 . S
C1629 C1628 1.400 . S
C1629 C1630 1.398 . S
C1630 H1618 0.950 . S
C1630 C1629 1.398 . S
C1630 C1631 1.391 . S
C1631 H1619 0.950 . S
C1631 C1627 1.393 . S
C1631 C1630 1.391 . S
H1632 C1640 0.950 . S
H1633 C1645 0.950 . S
H1634 C1642 0.950 . S
H1635 C1644 0.950 . S
H1636 C1646 0.950 . S
H1637 C1648 0.950 . S
H1638 C1650 0.950 . S
H1639 C1651 0.950 . S
C1640 H1632 0.950 . S
C1640 C1641 1.386 1_655 S
C1640 C1642 1.391 . S
C1641 C1640 1.386 1_455 S
C1641 C1645 1.393 . S
C1642 H1634 0.950 . S
C1642 C1640 1.391 . S
C1642 C1643 1.400 1_655 S
C1643 C1642 1.400 1_455 S
C1643 C1644 1.398 . S
C1643 C1649 1.491 . S
C1644 H1635 0.950 . S
C1644 C1643 1.398 . S
C1644 C1645 1.391 . S
C1645 H1633 0.950 . S
C1645 C1641 1.393 . S
C1645 C1644 1.391 . S
C1646 H1636 0.950 . S
C1646 C1647 1.386 . S
C1646 C1648 1.391 . S
C1647 C1646 1.386 . S
C1647 C1651 1.393 1_454 S
C1648 H1637 0.950 . S
C1648 C1646 1.391 . S
C1648 C1649 1.400 1_554 S
C1649 C1643 1.491 . S
C1649 C1648 1.400 1_556 S
C1649 C1650 1.398 1_455 S
C1650 H1638 0.950 . S
C1650 C1649 1.398 1_655 S
C1650 C1651 1.391 . S
C1651 H1639 0.950 . S
C1651 C1647 1.393 1_656 S
C1651 C1650 1.391 . S
H1652 C1660 0.950 . S
H1653 C1665 0.950 . S
H1654 C1662 0.950 . S
H1655 C1664 0.950 . S
H1656 C1666 0.950 . S
H1657 C1668 0.950 . S
H1658 C1670 0.950 . S
H1659 C1671 0.950 . S
C1660 H1652 0.950 . S
C1660 C1661 1.386 . S
C1660 C1662 1.391 . S
C1661 C1660 1.386 . S
C1661 C1665 1.393 . S
C1662 H1654 0.950 . S
C1662 C1660 1.391 . S
C1662 C1663 1.400 . S
C1663 C1662 1.400 . S
C1663 C1664 1.398 . S
C1663 C1669 1.491 . S
C1664 H1655 0.950 . S
C1664 C1663 1.398 . S
C1664 C1665 1.391 . S
C1665 H1653 0.950 . S
C1665 C1661 1.393 . S
C1665 C1664 1.391 . S
C1666 H1656 0.950 . S
C1666 C1667 1.386 . S
C1666 C1668 1.391 . S
C1667 C1666 1.386 . S
C1667 C1671 1.393 . S
C1668 H1657 0.950 . S
C1668 C1666 1.391 . S
C1668 C1669 1.400 . S
C1669 C1663 1.491 . S
C1669 C1668 1.400 . S
C1669 C1670 1.398 . S
C1670 H1658 0.950 . S
C1670 C1669 1.398 . S
C1670 C1671 1.391 . S
C1671 H1659 0.950 . S
C1671 C1667 1.393 . S
C1671 C1670 1.391 . S
H1672 C1680 0.950 . S
H1673 C1685 0.950 . S
H1674 C1682 0.950 . S
H1675 C1684 0.950 . S
H1676 C1686 0.950 . S
H1677 C1688 0.950 . S
H1678 C1690 0.950 . S
H1679 C1691 0.950 . S
C1680 H1672 0.950 . S
C1680 C1681 1.386 . S
C1680 C1682 1.391 . S
C1681 C1680 1.386 . S
C1681 C1685 1.393 . S
C1682 H1674 0.950 . S
C1682 C1680 1.391 . S
C1682 C1683 1.400 . S
C1683 C1682 1.400 . S
C1683 C1684 1.398 . S
C1683 C1689 1.491 . S
C1684 H1675 0.950 . S
C1684 C1683 1.398 . S
C1684 C1685 1.391 . S
C1685 H1673 0.950 . S
C1685 C1681 1.393 . S
C1685 C1684 1.391 . S
C1686 H1676 0.950 . S
C1686 C1687 1.386 . S
C1686 C1688 1.391 . S
C1687 C1686 1.386 . S
C1687 C1691 1.393 . S
C1688 H1677 0.950 . S
C1688 C1686 1.391 . S
C1688 C1689 1.400 . S
C1689 C1683 1.491 . S
C1689 C1688 1.400 . S
C1689 C1690 1.398 . S
C1690 H1678 0.950 . S
C1690 C1689 1.398 . S
C1690 C1691 1.391 . S
C1691 H1679 0.950 . S
C1691 C1687 1.393 . S
C1691 C1690 1.391 . S
H1692 C1700 0.950 . S
H1693 C1705 0.950 . S
H1694 C1702 0.950 . S
H1695 C1704 0.950 . S
H1696 C1706 0.950 . S
H1697 C1708 0.950 . S
H1698 C1710 0.950 . S
H1699 C1711 0.950 . S
C1700 H1692 0.950 . S
C1700 C1701 1.386 . S
C1700 C1702 1.391 . S
C1701 C1700 1.386 . S
C1701 C1705 1.393 . S
C1702 H1694 0.950 . S
C1702 C1700 1.391 . S
C1702 C1703 1.400 . S
C1703 C1702 1.400 . S
C1703 C1704 1.398 . S
C1703 C1709 1.491 . S
C1704 H1695 0.950 . S
C1704 C1703 1.398 . S
C1704 C1705 1.391 . S
C1705 H1693 0.950 . S
C1705 C1701 1.393 . S
C1705 C1704 1.391 . S
C1706 H1696 0.950 . S
C1706 C1707 1.386 . S
C1706 C1708 1.391 . S
C1707 C1706 1.386 . S
C1707 C1711 1.393 . S
C1708 H1697 0.950 . S
C1708 C1706 1.391 . S
C1708 C1709 1.400 . S
C1709 C1703 1.491 . S
C1709 C1708 1.400 . S
C1709 C1710 1.398 . S
C1710 H1698 0.950 . S
C1710 C1709 1.398 . S
C1710 C1711 1.391 . S
C1711 H1699 0.950 . S
C1711 C1707 1.393 . S
C1711 C1710 1.391 . S
H1712 C1720 0.950 . S
H1713 C1725 0.950 . S
H1714 C1722 0.950 . S
H1715 C1724 0.950 . S
H1716 C1726 0.950 . S
H1717 C1728 0.950 . S
H1718 C1730 0.950 . S
H1719 C1731 0.950 . S
C1720 H1712 0.950 . S
C1720 C1721 1.386 1_655 S
C1720 C1722 1.391 . S
C1721 C1720 1.386 1_455 S
C1721 C1725 1.393 . S
C1722 H1714 0.950 . S
C1722 C1720 1.391 . S
C1722 C1723 1.400 1_655 S
C1723 C1722 1.400 1_455 S
C1723 C1724 1.398 . S
C1723 C1729 1.491 . S
C1724 H1715 0.950 . S
C1724 C1723 1.398 . S
C1724 C1725 1.391 . S
C1725 H1713 0.950 . S
C1725 C1721 1.393 . S
C1725 C1724 1.391 . S
C1726 H1716 0.950 . S
C1726 C1727 1.386 . S
C1726 C1728 1.391 . S
C1727 C1726 1.386 . S
C1727 C1731 1.393 1_455 S
C1728 H1717 0.950 . S
C1728 C1726 1.391 . S
C1728 C1729 1.400 . S
C1729 C1723 1.491 . S
C1729 C1728 1.400 . S
C1729 C1730 1.398 1_455 S
C1730 H1718 0.950 . S
C1730 C1729 1.398 1_655 S
C1730 C1731 1.391 . S
C1731 H1719 0.950 . S
C1731 C1727 1.393 1_655 S
C1731 C1730 1.391 . S
H1732 C1740 0.950 . S
H1733 C1745 0.950 . S
H1734 C1742 0.950 . S
H1735 C1744 0.950 . S
H1736 C1746 0.950 . S
H1737 C1748 0.950 . S
H1738 C1750 0.950 . S
H1739 C1751 0.950 . S
C1740 H1732 0.950 . S
C1740 C1741 1.386 . S
C1740 C1742 1.391 . S
C1741 C1740 1.386 . S
C1741 C1745 1.393 . S
C1742 H1734 0.950 . S
C1742 C1740 1.391 . S
C1742 C1743 1.400 . S
C1743 C1742 1.400 . S
C1743 C1744 1.398 . S
C1743 C1749 1.491 . S
C1744 H1735 0.950 . S
C1744 C1743 1.398 . S
C1744 C1745 1.391 . S
C1745 H1733 0.950 . S
C1745 C1741 1.393 . S
C1745 C1744 1.391 . S
C1746 H1736 0.950 . S
C1746 C1747 1.386 . S
C1746 C1748 1.391 . S
C1747 C1746 1.386 . S
C1747 C1751 1.393 . S
C1748 H1737 0.950 . S
C1748 C1746 1.391 . S
C1748 C1749 1.400 . S
C1749 C1743 1.491 . S
C1749 C1748 1.400 . S
C1749 C1750 1.398 . S
C1750 H1738 0.950 . S
C1750 C1749 1.398 . S
C1750 C1751 1.391 . S
C1751 H1739 0.950 . S
C1751 C1747 1.393 . S
C1751 C1750 1.391 . S
H1752 C1760 0.950 . S
H1753 C1765 0.950 . S
H1754 C1762 0.950 . S
H1755 C1764 0.950 . S
H1756 C1766 0.950 . S
H1757 C1768 0.950 . S
H1758 C1770 0.950 . S
H1759 C1771 0.950 . S
C1760 H1752 0.950 . S
C1760 C1761 1.386 . S
C1760 C1762 1.391 . S
C1761 C1760 1.386 . S
C1761 C1765 1.393 . S
C1762 H1754 0.950 . S
C1762 C1760 1.391 . S
C1762 C1763 1.400 . S
C1763 C1762 1.400 . S
C1763 C1764 1.398 . S
C1763 C1769 1.491 . S
C1764 H1755 0.950 . S
C1764 C1763 1.398 . S
C1764 C1765 1.391 . S
C1765 H1753 0.950 . S
C1765 C1761 1.393 . S
C1765 C1764 1.391 . S
C1766 H1756 0.950 . S
C1766 C1767 1.386 . S
C1766 C1768 1.391 . S
C1767 C1766 1.386 . S
C1767 C1771 1.393 . S
C1768 H1757 0.950 . S
C1768 C1766 1.391 . S
C1768 C1769 1.400 . S
C1769 C1763 1.491 . S
C1769 C1768 1.400 . S
C1769 C1770 1.398 . S
C1770 H1758 0.950 . S
C1770 C1769 1.398 . S
C1770 C1771 1.391 . S
C1771 H1759 0.950 . S
C1771 C1767 1.393 . S
C1771 C1770 1.391 . S
H1772 C1780 0.950 . S
H1773 C1785 0.950 . S
H1774 C1782 0.950 . S
H1775 C1784 0.950 . S
H1776 C1786 0.950 . S
H1777 C1788 0.950 . S
H1778 C1790 0.950 . S
H1779 C1791 0.950 . S
C1780 H1772 0.950 . S
C1780 C1781 1.386 . S
C1780 C1782 1.391 . S
C1781 C1780 1.386 . S
C1781 C1785 1.393 . S
C1782 H1774 0.950 . S
C1782 C1780 1.391 . S
C1782 C1783 1.400 . S
C1783 C1782 1.400 . S
C1783 C1784 1.398 . S
C1783 C1789 1.491 . S
C1784 H1775 0.950 . S
C1784 C1783 1.398 . S
C1784 C1785 1.391 . S
C1785 H1773 0.950 . S
C1785 C1781 1.393 . S
C1785 C1784 1.391 . S
C1786 H1776 0.950 . S
C1786 C1787 1.386 . S
C1786 C1788 1.391 . S
C1787 C1786 1.386 . S
C1787 C1791 1.393 . S
C1788 H1777 0.950 . S
C1788 C1786 1.391 . S
C1788 C1789 1.400 . S
C1789 C1783 1.491 . S
C1789 C1788 1.400 . S
C1789 C1790 1.398 . S
C1790 H1778 0.950 . S
C1790 C1789 1.398 . S
C1790 C1791 1.391 . S
C1791 H1779 0.950 . S
C1791 C1787 1.393 . S
C1791 C1790 1.391 . S
H1792 C1800 0.950 . S
H1793 C1805 0.950 . S
H1794 C1802 0.950 . S
H1795 C1804 0.950 . S
H1796 C1806 0.950 . S
H1797 C1808 0.950 . S
H1798 C1810 0.950 . S
H1799 C1811 0.950 . S
C1800 H1792 0.950 . S
C1800 C1801 1.386 . S
C1800 C1802 1.391 . S
C1801 C1800 1.386 . S
C1801 C1805 1.393 . S
C1802 H1794 0.950 . S
C1802 C1800 1.391 . S
C1802 C1803 1.400 . S
C1803 C1802 1.400 . S
C1803 C1804 1.398 . S
C1803 C1809 1.491 . S
C1804 H1795 0.950 . S
C1804 C1803 1.398 . S
C1804 C1805 1.391 . S
C1805 H1793 0.950 . S
C1805 C1801 1.393 . S
C1805 C1804 1.391 . S
C1806 H1796 0.950 . S
C1806 C1807 1.386 . S
C1806 C1808 1.391 . S
C1807 C1806 1.386 . S
C1807 C1811 1.393 . S
C1808 H1797 0.950 . S
C1808 C1806 1.391 . S
C1808 C1809 1.400 . S
C1809 C1803 1.491 . S
C1809 C1808 1.400 . S
C1809 C1810 1.398 . S
C1810 H1798 0.950 . S
C1810 C1809 1.398 . S
C1810 C1811 1.391 . S
C1811 H1799 0.950 . S
C1811 C1807 1.393 . S
C1811 C1810 1.391 . S
H1812 C1820 0.950 . S
H1813 C1825 0.950 . S
H1814 C1822 0.950 . S
H1815 C1824 0.950 . S
H1816 C1826 0.950 . S
H1817 C1828 0.950 . S
H1818 C1830 0.950 . S
H1819 C1831 0.950 . S
C1820 H1812 0.950 . S
C1820 C1821 1.386 . S
C1820 C1822 1.391 . S
C1821 C1820 1.386 . S
C1821 C1825 1.393 . S
C1822 H1814 0.950 . S
C1822 C1820 1.391 . S
C1822 C1823 1.400 . S
C1823 C1822 1.400 . S
C1823 C1824 1.398 . S
C1823 C1829 1.491 . S
C1824 H1815 0.950 . S
C1824 C1823 1.398 . S
C1824 C1825 1.391 . S
C1825 H1813 0.950 . S
C1825 C1821 1.393 . S
C1825 C1824 1.391 . S
C1826 H1816 0.950 . S
C1826 C1827 1.386 . S
C1826 C1828 1.391 . S
C1827 C1826 1.386 . S
C1827 C1831 1.393 . S
C1828 H1817 0.950 . S
C1828 C1826 1.391 . S
C1828 C1829 1.400 . S
C1829 C1823 1.491 . S
C1829 C1828 1.400 . S
C1829 C1830 1.398 . S
C1830 H1818 0.950 . S
C1830 C1829 1.398 . S
C1830 C1831 1.391 . S
C1831 H1819 0.950 . S
C1831 C1827 1.393 . S
C1831 C1830 1.391 . S
H1832 C1840 0.950 . S
H1833 C1845 0.950 . S
H1834 C1842 0.950 . S
H1835 C1844 0.950 . S
H1836 C1846 0.950 . S
H1837 C1848 0.950 . S
H1838 C1850 0.950 . S
H1839 C1851 0.950 . S
C1840 H1832 0.950 . S
C1840 C1841 1.386 . S
C1840 C1842 1.391 . S
C1841 C1840 1.386 . S
C1841 C1845 1.393 . S
C1842 H1834 0.950 . S
C1842 C1840 1.391 . S
C1842 C1843 1.400 . S
C1843 C1842 1.400 . S
C1843 C1844 1.398 . S
C1843 C1849 1.491 . S
C1844 H1835 0.950 . S
C1844 C1843 1.398 . S
C1844 C1845 1.391 . S
C1845 H1833 0.950 . S
C1845 C1841 1.393 . S
C1845 C1844 1.391 . S
C1846 H1836 0.950 . S
C1846 C1847 1.386 . S
C1846 C1848 1.391 . S
C1847 C1846 1.386 . S
C1847 C1851 1.393 . S
C1848 H1837 0.950 . S
C1848 C1846 1.391 . S
C1848 C1849 1.400 . S
C1849 C1843 1.491 . S
C1849 C1848 1.400 . S
C1849 C1850 1.398 . S
C1850 H1838 0.950 . S
C1850 C1849 1.398 . S
C1850 C1851 1.391 . S
C1851 H1839 0.950 . S
C1851 C1847 1.393 . S
C1851 C1850 1.391 . S
H1852 C1860 0.950 . S
H1853 C1865 0.950 . S
H1854 C1862 0.950 . S
H1855 C1864 0.950 . S
H1856 C1866 0.950 . S
H1857 C1868 0.950 . S
H1858 C1870 0.950 . S
H1859 C1871 0.950 . S
C1860 H1852 0.950 . S
C1860 C1861 1.386 . S
C1860 C1862 1.391 . S
C1861 C1860 1.386 . S
C1861 C1865 1.393 . S
C1862 H1854 0.950 . S
C1862 C1860 1.391 . S
C1862 C1863 1.400 . S
C1863 C1862 1.400 . S
C1863 C1864 1.398 . S
C1863 C1869 1.491 . S
C1864 H1855 0.950 . S
C1864 C1863 1.398 . S
C1864 C1865 1.391 . S
C1865 H1853 0.950 . S
C1865 C1861 1.393 . S
C1865 C1864 1.391 . S
C1866 H1856 0.950 . S
C1866 C1867 1.386 . S
C1866 C1868 1.391 . S
C1867 C1866 1.386 . S
C1867 C1871 1.393 . S
C1868 H1857 0.950 . S
C1868 C1866 1.391 . S
C1868 C1869 1.400 . S
C1869 C1863 1.491 . S
C1869 C1868 1.400 . S
C1869 C1870 1.398 . S
C1870 H1858 0.950 . S
C1870 C1869 1.398 . S
C1870 C1871 1.391 . S
C1871 H1859 0.950 . S
C1871 C1867 1.393 . S
C1871 C1870 1.391 . S
H1872 C1880 0.950 . S
H1873 C1885 0.950 . S
H1874 C1882 0.950 . S
H1875 C1884 0.950 . S
H1876 C1886 0.950 . S
H1877 C1888 0.950 . S
H1878 C1890 0.950 . S
H1879 C1891 0.950 . S
C1880 H1872 0.950 . S
C1880 C1881 1.386 . S
C1880 C1882 1.391 . S
C1881 C1880 1.386 . S
C1881 C1885 1.393 . S
C1882 H1874 0.950 . S
C1882 C1880 1.391 . S
C1882 C1883 1.400 . S
C1883 C1882 1.400 . S
C1883 C1884 1.398 . S
C1883 C1889 1.491 . S
C1884 H1875 0.950 . S
C1884 C1883 1.398 . S
C1884 C1885 1.391 . S
C1885 H1873 0.950 . S
C1885 C1881 1.393 . S
C1885 C1884 1.391 . S
C1886 H1876 0.950 . S
C1886 C1887 1.386 . S
C1886 C1888 1.391 . S
C1887 C1886 1.386 . S
C1887 C1891 1.393 . S
C1888 H1877 0.950 . S
C1888 C1886 1.391 . S
C1888 C1889 1.400 . S
C1889 C1883 1.491 . S
C1889 C1888 1.400 . S
C1889 C1890 1.398 . S
C1890 H1878 0.950 . S
C1890 C1889 1.398 . S
C1890 C1891 1.391 . S
C1891 H1879 0.950 . S
C1891 C1887 1.393 . S
C1891 C1890 1.391 . S
H1892 C1900 0.950 . S
H1893 C1905 0.950 . S
H1894 C1902 0.950 . S
H1895 C1904 0.950 . S
H1896 C1906 0.950 . S
H1897 C1908 0.950 . S
H1898 C1910 0.950 . S
H1899 C1911 0.950 . S
C1900 H1892 0.950 . S
C1900 C1901 1.386 . S
C1900 C1902 1.391 . S
C1901 C1900 1.386 . S
C1901 C1905 1.393 . S
C1902 H1894 0.950 . S
C1902 C1900 1.391 . S
C1902 C1903 1.400 . S
C1903 C1902 1.400 . S
C1903 C1904 1.398 . S
C1903 C1909 1.491 . S
C1904 H1895 0.950 . S
C1904 C1903 1.398 . S
C1904 C1905 1.391 . S
C1905 H1893 0.950 . S
C1905 C1901 1.393 . S
C1905 C1904 1.391 . S
C1906 H1896 0.950 . S
C1906 C1907 1.386 . S
C1906 C1908 1.391 . S
C1907 C1906 1.386 . S
C1907 C1911 1.393 . S
C1908 H1897 0.950 . S
C1908 C1906 1.391 . S
C1908 C1909 1.400 . S
C1909 C1903 1.491 . S
C1909 C1908 1.400 . S
C1909 C1910 1.398 . S
C1910 H1898 0.950 . S
C1910 C1909 1.398 . S
C1910 C1911 1.391 . S
C1911 H1899 0.950 . S
C1911 C1907 1.393 . S
C1911 C1910 1.391 . S
H1912 C1920 0.950 . S
H1913 C1925 0.950 . S
H1914 C1922 0.950 . S
H1915 C1924 0.950 . S
H1916 C1926 0.950 . S
H1917 C1928 0.950 . S
H1918 C1930 0.950 . S
H1919 C1931 0.950 . S
C1920 H1912 0.950 . S
C1920 C1921 1.386 . S
C1920 C1922 1.391 . S
C1921 C1920 1.386 . S
C1921 C1925 1.393 . S
C1922 H1914 0.950 . S
C1922 C1920 1.391 . S
C1922 C1923 1.400 . S
C1923 C1922 1.400 . S
C1923 C1924 1.398 . S
C1923 C1929 1.491 . S
C1924 H1915 0.950 . S
C1924 C1923 1.398 . S
C1924 C1925 1.391 . S
C1925 H1913 0.950 . S
C1925 C1921 1.393 . S
C1925 C1924 1.391 . S
C1926 H1916 0.950 . S
C1926 C1927 1.386 . S
C1926 C1928 1.391 . S
C1927 C1926 1.386 . S
C1927 C1931 1.393 . S
C1928 H1917 0.950 . S
C1928 C1926 1.391 . S
C1928 C1929 1.400 . S
C1929 C1923 1.491 . S
C1929 C1928 1.400 . S
C1929 C1930 1.398 . S
C1930 H1918 0.950 . S
C1930 C1929 1.398 . S
C1930 C1931 1.391 . S
C1931 H1919 0.950 . S
C1931 C1927 1.393 . S
C1931 C1930 1.391 . S
H1932 C1940 0.950 . S
H1933 C1945 0.950 . S
H1934 C1942 0.950 . S
H1935 C1944 0.950 . S
H1936 C1946 0.950 . S
H1937 C1948 0.950 . S
H1938 C1950 0.950 . S
H1939 C1951 0.950 . S
C1940 H1932 0.950 . S
C1940 C1941 1.386 . S
C1940 C1942 1.391 . S
C1941 C1940 1.386 . S
C1941 C1945 1.393 . S
C1942 H1934 0.950 . S
C1942 C1940 1.391 . S
C1942 C1943 1.400 . S
C1943 C1942 1.400 . S
C1943 C1944 1.398 . S
C1943 C1949 1.491 . S
C1944 H1935 0.950 . S
C1944 C1943 1.398 . S
C1944 C1945 1.391 . S
C1945 H1933 0.950 . S
C1945 C1941 1.393 . S
C1945 C1944 1.391 . S
C1946 H1936 0.950 . S
C1946 C1947 1.386 . S
C1946 C1948 1.391 . S
C1947 C1946 1.386 . S
C1947 C1951 1.393 . S
C1948 H1937 0.950 . S
C1948 C1946 1.391 . S
C1948 C1949 1.400 . S
C1949 C1943 1.491 . S
C1949 C1948 1.400 . S
C1949 C1950 1.398 . S
C1950 H1938 0.950 . S
C1950 C1949 1.398 . S
C1950 C1951 1.391 . S
C1951 H1939 0.950 . S
C1951 C1947 1.393 . S
C1951 C1950 1.391 . S
H1952 C1960 0.950 . S
H1953 C1965 0.950 . S
H1954 C1962 0.950 . S
H1955 C1964 0.950 . S
H1956 C1966 0.950 . S
H1957 C1968 0.950 . S
H1958 C1970 0.950 . S
H1959 C1971 0.950 . S
C1960 H1952 0.950 . S
C1960 C1961 1.386 . S
C1960 C1962 1.391 . S
C1961 C1960 1.386 . S
C1961 C1965 1.393 . S
C1962 H1954 0.950 . S
C1962 C1960 1.391 . S
C1962 C1963 1.400 . S
C1963 C1962 1.400 . S
C1963 C1964 1.398 . S
C1963 C1969 1.491 . S
C1964 H1955 0.950 . S
C1964 C1963 1.398 . S
C1964 C1965 1.391 . S
C1965 H1953 0.950 . S
C1965 C1961 1.393 . S
C1965 C1964 1.391 . S
C1966 H1956 0.950 . S
C1966 C1967 1.386 . S
C1966 C1968 1.391 . S
C1967 C1966 1.386 . S
C1967 C1971 1.393 . S
C1968 H1957 0.950 . S
C1968 C1966 1.391 . S
C1968 C1969 1.400 . S
C1969 C1963 1.491 . S
C1969 C1968 1.400 . S
C1969 C1970 1.398 . S
C1970 H1958 0.950 . S
C1970 C1969 1.398 . S
C1970 C1971 1.391 . S
C1971 H1959 0.950 . S
C1971 C1967 1.393 . S
C1971 C1970 1.391 . S
H1972 C1980 0.950 . S
H1973 C1985 0.950 . S
H1974 C1982 0.950 . S
H1975 C1984 0.943 1_556 S
H1976 C1986 0.950 . S
H1977 C1988 0.949 1_556 S
H1978 C1990 0.950 . S
H1979 C1991 0.950 . S
C1980 H1972 0.950 . S
C1980 C1981 1.386 . S
C1980 C1982 1.391 . S
C1981 C1980 1.386 . S
C1981 C1985 1.393 . S
C1982 H1974 0.950 . S
C1982 C1980 1.391 . S
C1982 C1983 1.400 . S
C1983 C1982 1.400 . S
C1983 C1984 1.398 . S
C1983 C1989 1.491 . S
C1984 H1975 0.943 1_554 S
C1984 C1983 1.398 . S
C1984 C1985 1.391 . S
C1985 H1973 0.950 . S
C1985 C1981 1.393 . S
C1985 C1984 1.391 . S
C1986 H1976 0.950 . S
C1986 C1987 1.386 1_566 S
C1986 C1988 1.391 1_556 S
C1987 C1986 1.386 1_544 S
C1987 C1991 1.393 . S
C1988 H1977 0.949 1_554 S
C1988 C1986 1.391 1_554 S
C1988 C1989 1.402 . S
C1989 C1983 1.491 . S
C1989 C1988 1.402 . S
C1989 C1990 1.398 1_565 S
C1990 H1978 0.950 . S
C1990 C1989 1.398 1_545 S
C1990 C1991 1.391 . S
C1991 H1979 0.950 . S
C1991 C1987 1.393 . S
C1991 C1990 1.391 . S
H1992 C2000 0.950 . S
H1993 C2005 0.950 . S
H1994 C2002 0.950 . S
H1995 C2004 0.950 . S
H1996 C2006 0.950 . S
H1997 C2008 0.950 . S
H1998 C2010 0.950 . S
H1999 C2011 0.950 . S
C2000 H1992 0.950 . S
C2000 C2001 1.386 . S
C2000 C2002 1.391 . S
C2001 C2000 1.386 . S
C2001 C2005 1.393 . S
C2002 H1994 0.950 . S
C2002 C2000 1.391 . S
C2002 C2003 1.400 . S
C2003 C2002 1.400 . S
C2003 C2004 1.398 . S
C2003 C2009 1.491 . S
C2004 H1995 0.950 . S
C2004 C2003 1.398 . S
C2004 C2005 1.391 . S
C2005 H1993 0.950 . S
C2005 C2001 1.393 . S
C2005 C2004 1.391 . S
C2006 H1996 0.950 . S
C2006 C2007 1.386 . S
C2006 C2008 1.391 . S
C2007 C2006 1.386 . S
C2007 C2011 1.393 . S
C2008 H1997 0.950 . S
C2008 C2006 1.391 . S
C2008 C2009 1.400 . S
C2009 C2003 1.491 . S
C2009 C2008 1.400 . S
C2009 C2010 1.398 . S
C2010 H1998 0.950 . S
C2010 C2009 1.398 . S
C2010 C2011 1.391 . S
C2011 H1999 0.950 . S
C2011 C2007 1.393 . S
C2011 C2010 1.391 . S
H2012 C2020 0.950 . S
H2013 C2025 0.950 . S
H2014 C2022 0.950 . S
H2015 C2024 0.950 . S
H2016 C2026 0.950 . S
H2017 C2028 0.950 . S
H2018 C2030 0.950 . S
H2019 C2031 0.950 . S
C2020 H2012 0.950 . S
C2020 C2021 1.386 . S
C2020 C2022 1.391 . S
C2021 C2020 1.386 . S
C2021 C2025 1.393 . S
C2022 H2014 0.950 . S
C2022 C2020 1.391 . S
C2022 C2023 1.400 . S
C2023 C2022 1.400 . S
C2023 C2024 1.398 . S
C2023 C2029 1.491 . S
C2024 H2015 0.950 . S
C2024 C2023 1.398 . S
C2024 C2025 1.391 . S
C2025 H2013 0.950 . S
C2025 C2021 1.393 . S
C2025 C2024 1.391 . S
C2026 H2016 0.950 . S
C2026 C2027 1.386 . S
C2026 C2028 1.391 . S
C2027 C2026 1.386 . S
C2027 C2031 1.393 . S
C2028 H2017 0.950 . S
C2028 C2026 1.391 . S
C2028 C2029 1.400 . S
C2029 C2023 1.491 . S
C2029 C2028 1.400 . S
C2029 C2030 1.398 . S
C2030 H2018 0.950 . S
C2030 C2029 1.398 . S
C2030 C2031 1.391 . S
C2031 H2019 0.950 . S
C2031 C2027 1.393 . S
C2031 C2030 1.391 . S
H2032 C2040 0.950 . S
H2033 C2045 0.950 . S
H2034 C2042 0.950 . S
H2035 C2044 0.950 . S
H2036 C2046 0.950 . S
H2037 C2048 0.950 . S
H2038 C2050 0.950 . S
H2039 C2051 0.950 . S
C2040 H2032 0.950 . S
C2040 C2041 1.386 . S
C2040 C2042 1.391 . S
C2041 C2040 1.386 . S
C2041 C2045 1.393 . S
C2042 H2034 0.950 . S
C2042 C2040 1.391 . S
C2042 C2043 1.400 . S
C2043 C2042 1.400 . S
C2043 C2044 1.398 . S
C2043 C2049 1.491 . S
C2044 H2035 0.950 . S
C2044 C2043 1.398 . S
C2044 C2045 1.391 . S
C2045 H2033 0.950 . S
C2045 C2041 1.393 . S
C2045 C2044 1.391 . S
C2046 H2036 0.950 . S
C2046 C2047 1.386 . S
C2046 C2048 1.391 . S
C2047 C2046 1.386 . S
C2047 C2051 1.393 . S
C2048 H2037 0.950 . S
C2048 C2046 1.391 . S
C2048 C2049 1.400 . S
C2049 C2043 1.491 . S
C2049 C2048 1.400 . S
C2049 C2050 1.398 . S
C2050 H2038 0.950 . S
C2050 C2049 1.398 . S
C2050 C2051 1.391 . S
C2051 H2039 0.950 . S
C2051 C2047 1.393 . S
C2051 C2050 1.391 . S
H2052 C2060 0.950 . S
H2053 C2065 0.950 . S
H2054 C2062 0.950 . S
H2055 C2064 0.950 . S
H2056 C2066 0.950 . S
H2057 C2068 0.950 . S
H2058 C2070 0.950 . S
H2059 C2071 0.950 . S
C2060 H2052 0.950 . S
C2060 C2061 1.386 . S
C2060 C2062 1.391 . S
C2061 C2060 1.386 . S
C2061 C2065 1.393 . S
C2062 H2054 0.950 . S
C2062 C2060 1.391 . S
C2062 C2063 1.400 . S
C2063 C2062 1.400 . S
C2063 C2064 1.398 . S
C2063 C2069 1.491 . S
C2064 H2055 0.950 . S
C2064 C2063 1.398 . S
C2064 C2065 1.391 . S
C2065 H2053 0.950 . S
C2065 C2061 1.393 . S
C2065 C2064 1.391 . S
C2066 H2056 0.950 . S
C2066 C2067 1.386 . S
C2066 C2068 1.391 . S
C2067 C2066 1.386 . S
C2067 C2071 1.393 . S
C2068 H2057 0.950 . S
C2068 C2066 1.391 . S
C2068 C2069 1.400 . S
C2069 C2063 1.491 . S
C2069 C2068 1.400 . S
C2069 C2070 1.398 . S
C2070 H2058 0.950 . S
C2070 C2069 1.398 . S
C2070 C2071 1.391 . S
C2071 H2059 0.950 . S
C2071 C2067 1.393 . S
C2071 C2070 1.391 . S
H2072 C2080 0.950 . S
H2073 C2085 0.950 . S
H2074 C2082 0.950 . S
H2075 C2084 0.950 . S
H2076 C2086 0.950 . S
H2077 C2088 0.950 . S
H2078 C2090 0.950 . S
H2079 C2091 0.950 . S
C2080 H2072 0.950 . S
C2080 C2081 1.386 . S
C2080 C2082 1.391 . S
C2081 C2080 1.386 . S
C2081 C2085 1.393 . S
C2082 H2074 0.950 . S
C2082 C2080 1.391 . S
C2082 C2083 1.400 . S
C2083 C2082 1.400 . S
C2083 C2084 1.398 . S
C2083 C2089 1.491 . S
C2084 H2075 0.950 . S
C2084 C2083 1.398 . S
C2084 C2085 1.391 . S
C2085 H2073 0.950 . S
C2085 C2081 1.393 . S
C2085 C2084 1.391 . S
C2086 H2076 0.950 . S
C2086 C2087 1.386 . S
C2086 C2088 1.391 . S
C2087 C2086 1.386 . S
C2087 C2091 1.393 . S
C2088 H2077 0.950 . S
C2088 C2086 1.391 . S
C2088 C2089 1.400 . S
C2089 C2083 1.491 . S
C2089 C2088 1.400 . S
C2089 C2090 1.398 . S
C2090 H2078 0.950 . S
C2090 C2089 1.398 . S
C2090 C2091 1.391 . S
C2091 H2079 0.950 . S
C2091 C2087 1.393 . S
C2091 C2090 1.391 . S
H2092 C2100 0.950 . S
H2093 C2105 0.950 . S
H2094 C2102 0.950 . S
H2095 C2104 0.950 . S
H2096 C2106 0.950 . S
H2097 C2108 0.950 . S
H2098 C2110 0.950 . S
H2099 C2111 0.950 . S
C2100 H2092 0.950 . S
C2100 C2101 1.386 . S
C2100 C2102 1.391 . S
C2101 C2100 1.386 . S
C2101 C2105 1.393 . S
C2102 H2094 0.950 . S
C2102 C2100 1.391 . S
C2102 C2103 1.400 . S
C2103 C2102 1.400 . S
C2103 C2104 1.398 . S
C2103 C2109 1.491 . S
C2104 H2095 0.950 . S
C2104 C2103 1.398 . S
C2104 C2105 1.391 . S
C2105 H2093 0.950 . S
C2105 C2101 1.393 . S
C2105 C2104 1.391 . S
C2106 H2096 0.950 . S
C2106 C2107 1.386 . S
C2106 C2108 1.391 . S
C2107 C2106 1.386 . S
C2107 C2111 1.393 . S
C2108 H2097 0.950 . S
C2108 C2106 1.391 . S
C2108 C2109 1.400 . S
C2109 C2103 1.491 . S
C2109 C2108 1.400 . S
C2109 C2110 1.398 . S
C2110 H2098 0.950 . S
C2110 C2109 1.398 . S
C2110 C2111 1.391 . S
C2111 H2099 0.950 . S
C2111 C2107 1.393 . S
C2111 C2110 1.391 . S
H2112 C2120 0.950 . S
H2113 C2125 0.950 . S
H2114 C2122 0.950 . S
H2115 C2124 0.950 . S
H2116 C2126 0.950 . S
H2117 C2128 0.950 . S
H2118 C2130 0.950 . S
H2119 C2131 0.950 . S
C2120 H2112 0.950 . S
C2120 C2121 1.386 1_655 S
C2120 C2122 1.391 . S
C2121 C2120 1.386 1_455 S
C2121 C2125 1.393 . S
C2122 H2114 0.950 . S
C2122 C2120 1.391 . S
C2122 C2123 1.400 1_655 S
C2123 C2122 1.400 1_455 S
C2123 C2124 1.398 . S
C2123 C2129 1.491 . S
C2124 H2115 0.950 . S
C2124 C2123 1.398 . S
C2124 C2125 1.391 . S
C2125 H2113 0.950 . S
C2125 C2121 1.393 . S
C2125 C2124 1.391 . S
C2126 H2116 0.950 . S
C2126 C2127 1.386 . S
C2126 C2128 1.391 . S
C2127 C2126 1.386 . S
C2127 C2131 1.393 1_455 S
C2128 H2117 0.950 . S
C2128 C2126 1.391 . S
C2128 C2129 1.400 . S
C2129 C2123 1.491 . S
C2129 C2128 1.400 . S
C2129 C2130 1.398 1_455 S
C2130 H2118 0.950 . S
C2130 C2129 1.398 1_655 S
C2130 C2131 1.391 . S
C2131 H2119 0.950 . S
C2131 C2127 1.393 1_655 S
C2131 C2130 1.391 . S
H2132 C2140 0.950 . S
H2133 C2145 0.950 . S
H2134 C2142 0.950 . S
H2135 C2144 0.950 . S
H2136 C2146 0.950 . S
H2137 C2148 0.950 . S
H2138 C2150 0.950 . S
H2139 C2151 0.950 . S
C2140 H2132 0.950 . S
C2140 C2141 1.386 . S
C2140 C2142 1.391 . S
C2141 C2140 1.386 . S
C2141 C2145 1.393 . S
C2142 H2134 0.950 . S
C2142 C2140 1.391 . S
C2142 C2143 1.400 . S
C2143 C2142 1.400 . S
C2143 C2144 1.398 . S
C2143 C2149 1.491 . S
C2144 H2135 0.950 . S
C2144 C2143 1.398 . S
C2144 C2145 1.391 . S
C2145 H2133 0.950 . S
C2145 C2141 1.393 . S
C2145 C2144 1.391 . S
C2146 H2136 0.950 . S
C2146 C2147 1.386 . S
C2146 C2148 1.391 . S
C2147 C2146 1.386 . S
C2147 C2151 1.393 . S
C2148 H2137 0.950 . S
C2148 C2146 1.391 . S
C2148 C2149 1.400 . S
C2149 C2143 1.491 . S
C2149 C2148 1.400 . S
C2149 C2150 1.398 . S
C2150 H2138 0.950 . S
C2150 C2149 1.398 . S
C2150 C2151 1.391 . S
C2151 H2139 0.950 . S
C2151 C2147 1.393 . S
C2151 C2150 1.391 . S
H2152 C2160 0.950 . S
H2153 C2165 0.950 . S
H2154 C2162 0.950 . S
H2155 C2164 0.950 . S
H2156 C2166 0.919 1_554 S
H2157 C2168 0.950 . S
H2158 C2170 0.950 . S
H2159 C2171 0.950 . S
C2160 H2152 0.950 . S
C2160 C2161 1.386 . S
C2160 C2162 1.391 . S
C2161 C2160 1.386 . S
C2161 C2165 1.393 . S
C2162 H2154 0.950 . S
C2162 C2160 1.391 . S
C2162 C2163 1.400 . S
C2163 C2162 1.400 . S
C2163 C2164 1.398 . S
C2163 C2169 1.491 . S
C2164 H2155 0.950 . S
C2164 C2163 1.398 . S
C2164 C2165 1.391 . S
C2165 H2153 0.950 . S
C2165 C2161 1.393 . S
C2165 C2164 1.391 . S
C2166 H2156 0.919 1_556 S
C2166 C2167 1.386 . S
C2166 C2168 1.391 . S
C2167 C2166 1.386 . S
C2167 C2171 1.393 . S
C2168 H2157 0.950 . S
C2168 C2166 1.391 . S
C2168 C2169 1.400 . S
C2169 C2163 1.491 . S
C2169 C2168 1.400 . S
C2169 C2170 1.398 . S
C2170 H2158 0.950 . S
C2170 C2169 1.398 . S
C2170 C2171 1.391 . S
C2171 H2159 0.950 . S
C2171 C2167 1.393 . S
C2171 C2170 1.391 . S
H2172 C2180 0.950 . S
H2173 C2185 0.950 . S
H2174 C2182 0.950 . S
H2175 C2184 0.950 . S
H2176 C2186 0.950 . S
H2177 C2188 0.950 . S
H2178 C2190 0.950 . S
H2179 C2191 0.950 . S
C2180 H2172 0.950 . S
C2180 C2181 1.386 . S
C2180 C2182 1.391 . S
C2181 C2180 1.386 . S
C2181 C2185 1.393 . S
C2182 H2174 0.950 . S
C2182 C2180 1.391 . S
C2182 C2183 1.400 . S
C2183 C2182 1.400 . S
C2183 C2184 1.398 . S
C2183 C2189 1.491 . S
C2184 H2175 0.950 . S
C2184 C2183 1.398 . S
C2184 C2185 1.391 . S
C2185 H2173 0.950 . S
C2185 C2181 1.393 . S
C2185 C2184 1.391 . S
C2186 H2176 0.950 . S
C2186 C2187 1.386 . S
C2186 C2188 1.391 . S
C2187 C2186 1.386 . S
C2187 C2191 1.393 . S
C2188 H2177 0.950 . S
C2188 C2186 1.391 . S
C2188 C2189 1.400 . S
C2189 C2183 1.491 . S
C2189 C2188 1.400 . S
C2189 C2190 1.398 . S
C2190 H2178 0.950 . S
C2190 C2189 1.398 . S
C2190 C2191 1.391 . S
C2191 H2179 0.950 . S
C2191 C2187 1.393 . S
C2191 C2190 1.391 . S
H2192 C2200 0.950 . S
H2193 C2205 0.950 . S
H2194 C2202 0.950 . S
H2195 C2204 0.950 . S
H2196 C2206 0.950 . S
H2197 C2208 0.950 . S
H2198 C2210 0.950 . S
H2199 C2211 0.950 . S
C2200 H2192 0.950 . S
C2200 C2201 1.386 . S
C2200 C2202 1.391 . S
C2201 C2200 1.386 . S
C2201 C2205 1.393 . S
C2202 H2194 0.950 . S
C2202 C2200 1.391 . S
C2202 C2203 1.400 . S
C2203 C2202 1.400 . S
C2203 C2204 1.398 . S
C2203 C2209 1.491 . S
C2204 H2195 0.950 . S
C2204 C2203 1.398 . S
C2204 C2205 1.391 . S
C2205 H2193 0.950 . S
C2205 C2201 1.393 . S
C2205 C2204 1.391 . S
C2206 H2196 0.950 . S
C2206 C2207 1.386 . S
C2206 C2208 1.391 . S
C2207 C2206 1.386 . S
C2207 C2211 1.393 . S
C2208 H2197 0.950 . S
C2208 C2206 1.391 . S
C2208 C2209 1.400 . S
C2209 C2203 1.491 . S
C2209 C2208 1.400 . S
C2209 C2210 1.398 . S
C2210 H2198 0.950 . S
C2210 C2209 1.398 . S
C2210 C2211 1.391 . S
C2211 H2199 0.950 . S
C2211 C2207 1.393 . S
C2211 C2210 1.391 . S
H2212 C2220 0.950 . S
H2213 C2225 0.950 . S
H2214 C2222 0.950 . S
H2215 C2224 0.950 . S
H2216 C2226 0.950 . S
H2217 C2228 0.950 . S
H2218 C2230 0.950 . S
H2219 C2231 0.950 . S
C2220 H2212 0.950 . S
C2220 C2221 1.386 . S
C2220 C2222 1.391 . S
C2221 C2220 1.386 . S
C2221 C2225 1.393 . S
C2222 H2214 0.950 . S
C2222 C2220 1.391 . S
C2222 C2223 1.400 . S
C2223 C2222 1.400 . S
C2223 C2224 1.398 . S
C2223 C2229 1.491 . S
C2224 H2215 0.950 . S
C2224 C2223 1.398 . S
C2224 C2225 1.391 . S
C2225 H2213 0.950 . S
C2225 C2221 1.393 . S
C2225 C2224 1.391 . S
C2226 H2216 0.950 . S
C2226 C2227 1.386 . S
C2226 C2228 1.391 . S
C2227 C2226 1.386 . S
C2227 C2231 1.393 . S
C2228 H2217 0.950 . S
C2228 C2226 1.391 . S
C2228 C2229 1.400 . S
C2229 C2223 1.491 . S
C2229 C2228 1.400 . S
C2229 C2230 1.398 . S
C2230 H2218 0.950 . S
C2230 C2229 1.398 . S
C2230 C2231 1.391 . S
C2231 H2219 0.950 . S
C2231 C2227 1.393 . S
C2231 C2230 1.391 . S
H2232 C2240 0.950 . S
H2233 C2245 0.950 . S
H2234 C2242 0.950 . S
H2235 C2244 0.950 . S
H2236 C2246 0.950 . S
H2237 C2248 0.950 . S
H2238 C2250 0.950 . S
H2239 C2251 0.950 . S
C2240 H2232 0.950 . S
C2240 C2241 1.386 . S
C2240 C2242 1.391 . S
C2241 C2240 1.386 . S
C2241 C2245 1.393 . S
C2242 H2234 0.950 . S
C2242 C2240 1.391 . S
C2242 C2243 1.400 . S
C2243 C2242 1.400 . S
C2243 C2244 1.398 . S
C2243 C2249 1.491 . S
C2244 H2235 0.950 . S
C2244 C2243 1.398 . S
C2244 C2245 1.391 . S
C2245 H2233 0.950 . S
C2245 C2241 1.393 . S
C2245 C2244 1.391 . S
C2246 H2236 0.950 . S
C2246 C2247 1.386 . S
C2246 C2248 1.391 . S
C2247 C2246 1.386 . S
C2247 C2251 1.393 . S
C2248 H2237 0.950 . S
C2248 C2246 1.391 . S
C2248 C2249 1.400 . S
C2249 C2243 1.491 . S
C2249 C2248 1.400 . S
C2249 C2250 1.398 . S
C2250 H2238 0.950 . S
C2250 C2249 1.398 . S
C2250 C2251 1.391 . S
C2251 H2239 0.950 . S
C2251 C2247 1.393 . S
C2251 C2250 1.391 . S
H2252 C2260 0.950 . S
H2253 C2265 0.950 . S
H2254 C2262 0.950 . S
H2255 C2264 0.950 . S
H2256 C2266 0.950 . S
H2257 C2268 0.950 . S
H2258 C2270 0.950 . S
H2259 C2271 0.950 . S
C2260 H2252 0.950 . S
C2260 C2261 1.386 . S
C2260 C2262 1.391 . S
C2261 C2260 1.386 . S
C2261 C2265 1.393 . S
C2262 H2254 0.950 . S
C2262 C2260 1.391 . S
C2262 C2263 1.400 . S
C2263 C2262 1.400 . S
C2263 C2264 1.398 . S
C2263 C2269 1.491 . S
C2264 H2255 0.950 . S
C2264 C2263 1.398 . S
C2264 C2265 1.391 . S
C2265 H2253 0.950 . S
C2265 C2261 1.393 . S
C2265 C2264 1.391 . S
C2266 H2256 0.950 . S
C2266 C2267 1.386 . S
C2266 C2268 1.391 . S
C2267 C2266 1.386 . S
C2267 C2271 1.393 . S
C2268 H2257 0.950 . S
C2268 C2266 1.391 . S
C2268 C2269 1.400 . S
C2269 C2263 1.491 . S
C2269 C2268 1.400 . S
C2269 C2270 1.398 . S
C2270 H2258 0.950 . S
C2270 C2269 1.398 . S
C2270 C2271 1.391 . S
C2271 H2259 0.950 . S
C2271 C2267 1.393 . S
C2271 C2270 1.391 . S
H2272 C2280 0.950 . S
H2273 C2285 0.950 . S
H2274 C2282 0.950 . S
H2275 C2284 0.950 . S
H2276 C2286 0.950 . S
H2277 C2288 0.950 . S
H2278 C2290 0.927 1_455 S
H2279 C2291 0.950 . S
C2280 H2272 0.950 . S
C2280 C2281 1.386 . S
C2280 C2282 1.391 . S
C2281 C2280 1.386 . S
C2281 C2285 1.393 . S
C2282 H2274 0.950 . S
C2282 C2280 1.391 . S
C2282 C2283 1.400 . S
C2283 C2282 1.400 . S
C2283 C2284 1.398 . S
C2283 C2289 1.491 . S
C2284 H2275 0.950 . S
C2284 C2283 1.398 . S
C2284 C2285 1.391 . S
C2285 H2273 0.950 . S
C2285 C2281 1.393 . S
C2285 C2284 1.391 . S
C2286 H2276 0.950 . S
C2286 C2287 1.386 . S
C2286 C2288 1.391 . S
C2287 C2286 1.386 . S
C2287 C2291 1.393 1_655 S
C2288 H2277 0.950 . S
C2288 C2286 1.391 . S
C2288 C2289 1.400 . S
C2289 C2283 1.491 . S
C2289 C2288 1.400 . S
C2289 C2290 1.398 . S
C2290 H2278 0.927 1_655 S
C2290 C2289 1.398 . S
C2290 C2291 1.391 1_655 S
C2291 H2279 0.950 . S
C2291 C2287 1.393 1_455 S
C2291 C2290 1.391 1_455 S
H2292 C2300 0.950 . S
H2293 C2305 0.950 . S
H2294 C2302 0.950 . S
H2295 C2304 0.950 . S
H2296 C2306 0.950 . S
H2297 C2308 0.950 . S
H2298 C2310 0.950 . S
H2299 C2311 0.950 . S
C2300 H2292 0.950 . S
C2300 C2301 1.386 . S
C2300 C2302 1.391 . S
C2301 C2300 1.386 . S
C2301 C2305 1.393 . S
C2302 H2294 0.950 . S
C2302 C2300 1.391 . S
C2302 C2303 1.400 . S
C2303 C2302 1.400 . S
C2303 C2304 1.398 . S
C2303 C2309 1.491 . S
C2304 H2295 0.950 . S
C2304 C2303 1.398 . S
C2304 C2305 1.391 . S
C2305 H2293 0.950 . S
C2305 C2301 1.393 . S
C2305 C2304 1.391 . S
C2306 H2296 0.950 . S
C2306 C2307 1.386 . S
C2306 C2308 1.391 . S
C2307 C2306 1.386 . S
C2307 C2311 1.393 . S
C2308 H2297 0.950 . S
C2308 C2306 1.391 . S
C2308 C2309 1.400 . S
C2309 C2303 1.491 . S
C2309 C2308 1.400 . S
C2309 C2310 1.398 . S
C2310 H2298 0.950 . S
C2310 C2309 1.398 . S
C2310 C2311 1.391 . S
C2311 H2299 0.950 . S
C2311 C2307 1.393 . S
C2311 C2310 1.391 . S
H2312 C2320 0.950 . S
H2313 C2325 0.950 . S
H2314 C2322 0.950 . S
H2315 C2324 0.950 . S
H2316 C2326 0.950 . S
H2317 C2328 0.950 . S
H2318 C2330 0.950 . S
H2319 C2331 0.950 . S
C2320 H2312 0.950 . S
C2320 C2321 1.386 . S
C2320 C2322 1.391 . S
C2321 C2320 1.386 . S
C2321 C2325 1.393 . S
C2322 H2314 0.950 . S
C2322 C2320 1.391 . S
C2322 C2323 1.400 . S
C2323 C2322 1.400 . S
C2323 C2324 1.398 . S
C2323 C2329 1.491 . S
C2324 H2315 0.950 . S
C2324 C2323 1.398 . S
C2324 C2325 1.391 . S
C2325 H2313 0.950 . S
C2325 C2321 1.393 . S
C2325 C2324 1.391 . S
C2326 H2316 0.950 . S
C2326 C2327 1.386 . S
C2326 C2328 1.391 . S
C2327 C2326 1.386 . S
C2327 C2331 1.393 . S
C2328 H2317 0.950 . S
C2328 C2326 1.391 . S
C2328 C2329 1.400 . S
C2329 C2323 1.491 . S
C2329 C2328 1.400 . S
C2329 C2330 1.398 . S
C2330 H2318 0.950 . S
C2330 C2329 1.398 . S
C2330 C2331 1.391 . S
C2331 H2319 0.950 . S
C2331 C2327 1.393 . S
C2331 C2330 1.391 . S
H2332 C2340 0.950 . S
H2333 C2345 0.950 . S
H2334 C2342 0.950 . S
H2335 C2344 0.950 . S
H2336 C2346 0.950 . S
H2337 C2348 0.950 . S
H2338 C2350 0.950 . S
H2339 C2351 0.950 . S
C2340 H2332 0.950 . S
C2340 C2341 1.386 . S
C2340 C2342 1.391 . S
C2341 C2340 1.386 . S
C2341 C2345 1.393 . S
C2342 H2334 0.950 . S
C2342 C2340 1.391 . S
C2342 C2343 1.400 . S
C2343 C2342 1.400 . S
C2343 C2344 1.398 . S
C2343 C2349 1.491 . S
C2344 H2335 0.950 . S
C2344 C2343 1.398 . S
C2344 C2345 1.391 . S
C2345 H2333 0.950 . S
C2345 C2341 1.393 . S
C2345 C2344 1.391 . S
C2346 H2336 0.950 . S
C2346 C2347 1.386 . S
C2346 C2348 1.391 . S
C2347 C2346 1.386 . S
C2347 C2351 1.393 . S
C2348 H2337 0.950 . S
C2348 C2346 1.391 . S
C2348 C2349 1.400 . S
C2349 C2343 1.491 . S
C2349 C2348 1.400 . S
C2349 C2350 1.398 . S
C2350 H2338 0.950 . S
C2350 C2349 1.398 . S
C2350 C2351 1.391 . S
C2351 H2339 0.950 . S
C2351 C2347 1.393 . S
C2351 C2350 1.391 . S
H2352 C2360 0.950 . S
H2353 C2365 0.950 . S
H2354 C2362 0.950 . S
H2355 C2364 0.950 . S
H2356 C2366 0.947 . S
H2357 C2368 0.950 . S
H2358 C2370 0.950 . S
H2359 C2371 0.950 . S
C2360 H2352 0.950 . S
C2360 C2361 1.386 . S
C2360 C2362 1.391 . S
C2361 C2360 1.386 . S
C2361 C2365 1.393 . S
C2362 H2354 0.950 . S
C2362 C2360 1.391 . S
C2362 C2363 1.400 . S
C2363 C2362 1.400 . S
C2363 C2364 1.398 . S
C2363 C2369 1.491 . S
C2364 H2355 0.950 . S
C2364 C2363 1.398 . S
C2364 C2365 1.391 . S
C2365 H2353 0.950 . S
C2365 C2361 1.393 . S
C2365 C2364 1.391 . S
C2366 H2356 0.947 . S
C2366 C2367 1.386 . S
C2366 C2368 1.391 . S
C2367 C2366 1.386 . S
C2367 C2371 1.393 . S
C2368 H2357 0.950 . S
C2368 C2366 1.391 . S
C2368 C2369 1.400 . S
C2369 C2363 1.491 . S
C2369 C2368 1.400 . S
C2369 C2370 1.398 . S
C2370 H2358 0.950 . S
C2370 C2369 1.398 . S
C2370 C2371 1.391 . S
C2371 H2359 0.950 . S
C2371 C2367 1.393 . S
C2371 C2370 1.391 . S
H2372 C2380 0.950 . S
H2373 C2385 0.950 . S
H2374 C2382 0.950 . S
H2375 C2384 0.950 . S
H2376 C2386 0.950 . S
H2377 C2388 0.950 . S
H2378 C2390 0.950 . S
H2379 C2391 0.950 . S
C2380 H2372 0.950 . S
C2380 C2381 1.386 . S
C2380 C2382 1.391 . S
C2381 C2380 1.386 . S
C2381 C2385 1.393 . S
C2382 H2374 0.950 . S
C2382 C2380 1.391 . S
C2382 C2383 1.400 . S
C2383 C2382 1.400 . S
C2383 C2384 1.398 . S
C2383 C2389 1.491 . S
C2384 H2375 0.950 . S
C2384 C2383 1.398 . S
C2384 C2385 1.391 . S
C2385 H2373 0.950 . S
C2385 C2381 1.393 . S
C2385 C2384 1.391 . S
C2386 H2376 0.950 . S
C2386 C2387 1.386 . S
C2386 C2388 1.391 . S
C2387 C2386 1.386 . S
C2387 C2391 1.393 . S
C2388 H2377 0.950 . S
C2388 C2386 1.391 . S
C2388 C2389 1.400 . S
C2389 C2383 1.491 . S
C2389 C2388 1.400 . S
C2389 C2390 1.398 . S
C2390 H2378 0.950 . S
C2390 C2389 1.398 . S
C2390 C2391 1.391 . S
C2391 H2379 0.950 . S
C2391 C2387 1.393 . S
C2391 C2390 1.391 . S
H2392 C2400 0.950 . S
H2393 C2405 0.950 . S
H2394 C2402 0.950 . S
H2395 C2404 0.950 . S
H2396 C2406 0.950 . S
H2397 C2408 0.950 . S
H2398 C2410 0.950 . S
H2399 C2411 0.950 . S
C2400 H2392 0.950 . S
C2400 C2401 1.386 . S
C2400 C2402 1.391 . S
C2401 C2400 1.386 . S
C2401 C2405 1.393 . S
C2402 H2394 0.950 . S
C2402 C2400 1.391 . S
C2402 C2403 1.400 . S
C2403 C2402 1.400 . S
C2403 C2404 1.398 . S
C2403 C2409 1.491 . S
C2404 H2395 0.950 . S
C2404 C2403 1.398 . S
C2404 C2405 1.391 . S
C2405 H2393 0.950 . S
C2405 C2401 1.393 . S
C2405 C2404 1.391 . S
C2406 H2396 0.950 . S
C2406 C2407 1.386 . S
C2406 C2408 1.391 . S
C2407 C2406 1.386 . S
C2407 C2411 1.393 . S
C2408 H2397 0.950 . S
C2408 C2406 1.391 . S
C2408 C2409 1.400 . S
C2409 C2403 1.491 . S
C2409 C2408 1.400 . S
C2409 C2410 1.398 . S
C2410 H2398 0.950 . S
C2410 C2409 1.398 . S
C2410 C2411 1.391 . S
C2411 H2399 0.950 . S
C2411 C2407 1.393 . S
C2411 C2410 1.391 . S
H2412 C2420 0.950 . S
H2413 C2425 0.950 . S
H2414 C2422 0.950 . S
H2415 C2424 0.950 . S
H2416 C2426 0.950 . S
H2417 C2428 0.950 . S
H2418 C2430 0.950 . S
H2419 C2431 0.950 1_545 S
C2420 H2412 0.950 . S
C2420 C2421 1.386 . S
C2420 C2422 1.391 . S
C2421 C2420 1.386 . S
C2421 C2425 1.393 . S
C2422 H2414 0.950 . S
C2422 C2420 1.391 . S
C2422 C2423 1.400 . S
C2423 C2422 1.400 . S
C2423 C2424 1.398 . S
C2423 C2429 1.491 . S
C2424 H2415 0.950 . S
C2424 C2423 1.398 . S
C2424 C2425 1.391 . S
C2425 H2413 0.950 . S
C2425 C2421 1.393 . S
C2425 C2424 1.391 . S
C2426 H2416 0.950 . S
C2426 C2427 1.386 . S
C2426 C2428 1.391 . S
C2427 C2426 1.386 . S
C2427 C2431 1.393 . S
C2428 H2417 0.950 . S
C2428 C2426 1.391 . S
C2428 C2429 1.400 . S
C2429 C2423 1.491 . S
C2429 C2428 1.400 . S
C2429 C2430 1.398 . S
C2430 H2418 0.950 . S
C2430 C2429 1.398 . S
C2430 C2431 1.391 . S
C2431 H2419 0.950 1_565 S
C2431 C2427 1.393 . S
C2431 C2430 1.391 . S
H2432 C2440 0.950 . S
H2433 C2445 0.950 . S
H2434 C2442 0.950 . S
H2435 C2444 0.950 . S
H2436 C2446 0.950 . S
H2437 C2448 0.950 . S
H2438 C2450 0.950 . S
H2439 C2451 0.950 . S
C2440 H2432 0.950 . S
C2440 C2441 1.386 . S
C2440 C2442 1.391 . S
C2441 C2440 1.386 . S
C2441 C2445 1.393 . S
C2442 H2434 0.950 . S
C2442 C2440 1.391 . S
C2442 C2443 1.400 . S
C2443 C2442 1.400 . S
C2443 C2444 1.398 . S
C2443 C2449 1.491 . S
C2444 H2435 0.950 . S
C2444 C2443 1.398 . S
C2444 C2445 1.391 . S
C2445 H2433 0.950 . S
C2445 C2441 1.393 . S
C2445 C2444 1.391 . S
C2446 H2436 0.950 . S
C2446 C2447 1.386 . S
C2446 C2448 1.391 . S
C2447 C2446 1.386 . S
C2447 C2451 1.393 . S
C2448 H2437 0.950 . S
C2448 C2446 1.391 . S
C2448 C2449 1.400 . S
C2449 C2443 1.491 . S
C2449 C2448 1.400 . S
C2449 C2450 1.398 . S
C2450 H2438 0.950 . S
C2450 C2449 1.398 . S
C2450 C2451 1.391 . S
C2451 H2439 0.950 . S
C2451 C2447 1.393 . S
C2451 C2450 1.391 . S
H2452 C2460 0.950 . S
H2453 C2465 0.950 . S
H2454 C2462 0.950 . S
H2455 C2464 0.950 . S
H2456 C2466 0.950 . S
H2457 C2468 0.950 . S
H2458 C2470 0.950 . S
H2459 C2471 0.950 . S
C2460 H2452 0.950 . S
C2460 C2461 1.386 . S
C2460 C2462 1.391 . S
C2461 C2460 1.386 . S
C2461 C2465 1.393 1_556 S
C2462 H2454 0.950 . S
C2462 C2460 1.391 . S
C2462 C2463 1.416 . S
C2463 C2462 1.416 . S
C2463 C2464 1.386 1_556 S
C2463 C2469 1.491 . S
C2464 H2455 0.950 . S
C2464 C2463 1.386 1_554 S
C2464 C2465 1.391 . S
C2465 H2453 0.950 . S
C2465 C2461 1.393 1_554 S
C2465 C2464 1.391 . S
C2466 H2456 0.950 . S
C2466 C2467 1.390 . S
C2466 C2468 1.391 . S
C2467 C2466 1.390 . S
C2467 C2471 1.387 1_554 S
C2468 H2457 0.950 . S
C2468 C2466 1.391 . S
C2468 C2469 1.384 1_554 S
C2469 C2463 1.491 . S
C2469 C2468 1.384 1_556 S
C2469 C2470 1.413 . S
C2470 H2458 0.950 . S
C2470 C2469 1.413 . S
C2470 C2471 1.391 . S
C2471 H2459 0.950 . S
C2471 C2467 1.387 1_556 S
C2471 C2470 1.391 . S
H2472 C2480 0.950 . S
H2473 C2485 0.950 . S
H2474 C2482 0.950 . S
H2475 C2484 0.950 . S
H2476 C2486 0.950 . S
H2477 C2488 0.950 . S
H2478 C2490 0.950 . S
H2479 C2491 0.950 . S
C2480 H2472 0.950 . S
C2480 C2481 1.386 . S
C2480 C2482 1.391 . S
C2481 C2480 1.386 . S
C2481 C2485 1.393 . S
C2482 H2474 0.950 . S
C2482 C2480 1.391 . S
C2482 C2483 1.400 . S
C2483 C2482 1.400 . S
C2483 C2484 1.398 . S
C2483 C2489 1.491 . S
C2484 H2475 0.950 . S
C2484 C2483 1.398 . S
C2484 C2485 1.391 . S
C2485 H2473 0.950 . S
C2485 C2481 1.393 . S
C2485 C2484 1.391 . S
C2486 H2476 0.950 . S
C2486 C2487 1.386 . S
C2486 C2488 1.391 . S
C2487 C2486 1.386 . S
C2487 C2491 1.393 . S
C2488 H2477 0.950 . S
C2488 C2486 1.391 . S
C2488 C2489 1.400 . S
C2489 C2483 1.491 . S
C2489 C2488 1.400 . S
C2489 C2490 1.398 . S
C2490 H2478 0.950 . S
C2490 C2489 1.398 . S
C2490 C2491 1.391 . S
C2491 H2479 0.950 . S
C2491 C2487 1.393 . S
C2491 C2490 1.391 . S
H2492 C2500 0.950 . S
H2493 C2505 0.950 . S
H2494 C2502 0.950 . S
H2495 C2504 0.950 . S
H2496 C2506 0.950 . S
H2497 C2508 0.950 . S
H2498 C2510 0.950 . S
H2499 C2511 0.950 . S
C2500 H2492 0.950 . S
C2500 C2501 1.386 . S
C2500 C2502 1.391 . S
C2501 C2500 1.386 . S
C2501 C2505 1.393 . S
C2502 H2494 0.950 . S
C2502 C2500 1.391 . S
C2502 C2503 1.400 . S
C2503 C2502 1.400 . S
C2503 C2504 1.398 . S
C2503 C2509 1.491 . S
C2504 H2495 0.950 . S
C2504 C2503 1.398 . S
C2504 C2505 1.391 . S
C2505 H2493 0.950 . S
C2505 C2501 1.393 . S
C2505 C2504 1.391 . S
C2506 H2496 0.950 . S
C2506 C2507 1.386 . S
C2506 C2508 1.391 . S
C2507 C2506 1.386 . S
C2507 C2511 1.393 . S
C2508 H2497 0.950 . S
C2508 C2506 1.391 . S
C2508 C2509 1.400 . S
C2509 C2503 1.491 . S
C2509 C2508 1.400 . S
C2509 C2510 1.398 . S
C2510 H2498 0.950 . S
C2510 C2509 1.398 . S
C2510 C2511 1.391 . S
C2511 H2499 0.950 . S
C2511 C2507 1.393 . S
C2511 C2510 1.391 . S
H2512 C2520 0.950 . S
H2513 C2525 0.950 . S
H2514 C2522 0.950 . S
H2515 C2524 0.950 . S
H2516 C2526 0.950 . S
H2517 C2528 0.950 . S
H2518 C2530 0.950 . S
H2519 C2531 0.950 . S
C2520 H2512 0.950 . S
C2520 C2521 1.386 . S
C2520 C2522 1.391 . S
C2521 C2520 1.386 . S
C2521 C2525 1.393 . S
C2522 H2514 0.950 . S
C2522 C2520 1.391 . S
C2522 C2523 1.400 . S
C2523 C2522 1.400 . S
C2523 C2524 1.398 . S
C2523 C2529 1.491 . S
C2524 H2515 0.950 . S
C2524 C2523 1.398 . S
C2524 C2525 1.391 . S
C2525 H2513 0.950 . S
C2525 C2521 1.393 . S
C2525 C2524 1.391 . S
C2526 H2516 0.950 . S
C2526 C2527 1.386 . S
C2526 C2528 1.391 . S
C2527 C2526 1.386 . S
C2527 C2531 1.393 . S
C2528 H2517 0.950 . S
C2528 C2526 1.391 . S
C2528 C2529 1.400 . S
C2529 C2523 1.491 . S
C2529 C2528 1.400 . S
C2529 C2530 1.398 . S
C2530 H2518 0.950 . S
C2530 C2529 1.398 . S
C2530 C2531 1.391 . S
C2531 H2519 0.950 . S
C2531 C2527 1.393 . S
C2531 C2530 1.391 . S
H2532 C2540 0.950 . S
H2533 C2545 0.950 . S
H2534 C2542 0.950 . S
H2535 C2544 0.950 . S
H2536 C2546 0.950 . S
H2537 C2548 0.950 . S
H2538 C2550 0.950 . S
H2539 C2551 0.950 . S
C2540 H2532 0.950 . S
C2540 C2541 1.386 . S
C2540 C2542 1.391 . S
C2541 C2540 1.386 . S
C2541 C2545 1.393 . S
C2542 H2534 0.950 . S
C2542 C2540 1.391 . S
C2542 C2543 1.400 . S
C2543 C2542 1.400 . S
C2543 C2544 1.398 . S
C2543 C2549 1.491 . S
C2544 H2535 0.950 . S
C2544 C2543 1.398 . S
C2544 C2545 1.391 . S
C2545 H2533 0.950 . S
C2545 C2541 1.393 . S
C2545 C2544 1.391 . S
C2546 H2536 0.950 . S
C2546 C2547 1.386 . S
C2546 C2548 1.391 . S
C2547 C2546 1.386 . S
C2547 C2551 1.393 . S
C2548 H2537 0.950 . S
C2548 C2546 1.391 . S
C2548 C2549 1.400 . S
C2549 C2543 1.491 . S
C2549 C2548 1.400 . S
C2549 C2550 1.398 . S
C2550 H2538 0.950 . S
C2550 C2549 1.398 . S
C2550 C2551 1.391 . S
C2551 H2539 0.950 . S
C2551 C2547 1.393 . S
C2551 C2550 1.391 . S
C641 C101 1.500 . S
C647 C330 1.445 . S
C661 C57 1.600 . S
C667 C341 1.623 . S
C681 C70 0.906 . S
C687 C370 0.890 . S
C707 C373 1.442 . S
C701 C82 1.440 . S
C721 C23 1.610 . S
C727 C411 1.563 . S
C747 C414 0.925 . S
C741 C29 0.918 . S
C767 C441 1.420 . S
C761 C49 1.398 . S
C781 C10 1.640 . S
C787 C470 1.560 . S
C807 C321 1.528 . S
C801 C218 1.523 . S
C821 C226 0.878 . S
C827 C333 0.884 . S
C847 C361 1.568 . S
C841 C251 1.553 . S
C867 C390 0.997 . S
C861 C159 1.002 . S
C881 C211 0.983 . S
C887 C394 0.979 . S
C907 C420 1.600 . S
C901 C225 1.617 . S
C927 C433 0.753 . S
C921 C252 0.737 . S
C947 C461 1.553 . S
C941 C166 1.560 . S
C967 C313 1.510 . S
C961 C147 1.527 . S
C981 C263 1.703 . S
C987 C480 1.690 1_554 S
C1007 C511 1.541 . S
C1001 C309 1.615 . S
C1027 C530 0.801 . S
C1021 C291 0.826 . S
C1041 C108 1.378 . S
C1047 C453 1.385 . S
C1061 C121 1.507 . S
C1067 C353 1.515 . S
C1081 C302 1.525 . S
C1087 C541 1.530 . S
C1107 C570 0.844 . S
C1101 C276 0.862 . S
C1127 C331 1.682 . S
C1121 C55 1.714 . S
C1147 C560 1.775 . S
C1141 C96 1.788 . S
C1161 C88 1.203 . S
C1167 C371 1.166 . S
C1181 C75 1.620 . S
C1187 C534 1.613 . S
C1207 C410 1.728 . S
C1201 C4 1.794 . S
C1221 C44 1.124 . S
C1227 C493 1.127 . S
C1247 C440 1.646 . S
C1241 C31 1.665 . S
C1267 C591 1.755 . S
C1261 C18 1.813 . S
C1287 C320 1.700 . S
C1281 C133 1.703 . S
C1307 C554 1.052 . S
C1301 C296 1.059 . S
C1321 C107 1.743 . S
C1327 C360 1.732 . S
C1341 C264 1.353 . S
C1347 C551 1.343 . S
C1361 C140 1.195 . S
C1367 C393 1.190 . S
C1387 C501 1.749 . S
C1381 C289 1.771 . S
C1401 C114 0.971 . S
C1407 C434 0.953 . S
C1421 C265 1.780 . S
C1427 C580 1.766 . S
C1441 C179 1.650 . S
C1447 C314 1.626 . S
C1461 C161 1.876 . S
C1467 C481 1.844 . S
C1481 C244 1.758 . S
C1487 C430 1.692 . S
C1501 C224 1.189 . S
C1507 C531 1.169 . S
C1527 C574 1.485 . S
C1521 C257 1.493 . S
C1541 C199 1.622 . S
C1547 C354 1.607 . S
C1567 C380 1.728 . S
C1561 C237 1.753 . S
C1587 C351 1.092 . S
C1581 C185 1.131 . S
C1601 C69 1.500 . S
C1607 C610 1.433 . S
C1627 C561 1.623 . S
C1621 C83 1.598 . S
C1641 C94 0.901 . S
C1647 C630 0.872 . S
C1661 C56 1.439 . S
C1667 C533 1.445 . S
C1681 C42 1.616 . S
C1687 C491 1.565 . S
C1707 C494 0.919 . S
C1701 C3 0.924 . S
C1727 C521 1.431 . S
C1721 C16 1.408 . S
C1747 C590 1.567 . S
C1741 C36 1.643 . S
C1767 C601 1.529 . S
C1761 C238 1.514 . S
C1781 C174 0.874 . S
C1787 C553 0.874 . S
C1807 C621 1.564 . S
C1801 C186 1.557 . S
C1827 C550 0.973 . S
C1821 C198 0.996 . S
C1847 C474 0.997 . S
C1841 C239 0.998 . S
C1861 C173 1.615 . S
C1867 C500 1.606 . S
C1887 C513 0.752 . S
C1881 C187 0.748 . S
C1901 C205 1.559 . S
C1907 C581 1.556 . S
C1927 C593 1.507 . S
C1921 C290 1.528 . S
C1941 C122 1.704 . S
C1947 C400 1.694 . S
C1967 C431 1.549 . S
C1961 C134 1.612 . S
C1987 C450 0.837 . S
C1981 C148 0.844 . S
C2007 C573 1.373 . S
C2001 C283 1.376 . S
C2021 C270 1.508 . S
C2027 C613 1.513 . S
C2047 C381 1.530 . S
C2041 C135 1.516 . S
C2067 C350 0.836 . S
C2061 C109 0.858 . S
C2081 C81 1.723 . S
C2087 C611 1.677 . S
C2107 C340 1.781 . S
C2101 C68 1.786 . S
C2121 C62 1.204 . S
C2127 C631 1.164 . S
C2141 C95 1.622 . S
C2147 C374 1.601 . S
C2161 C30 1.793 . S
C2167 C490 1.745 . S
C2187 C413 1.128 . S
C2181 C17 1.122 . S
C2201 C5 1.661 . S
C2207 C520 1.648 . S
C2221 C43 1.801 . S
C2227 C471 1.745 . S
C2247 C600 1.700 . S
C2241 C304 1.704 . S
C2261 C153 1.067 . S
C2267 C334 1.058 . S
C2287 C620 1.726 1_655 S
C2281 C278 1.745 . S
C2301 C127 1.352 . S
C2307 C391 1.343 . S
C2321 C303 1.188 . S
C2327 C473 1.185 . S
C2347 C421 1.747 . S
C2341 C146 1.769 . S
C2361 C277 0.968 . S
C2367 C514 0.954 . S
C2387 C460 1.760 . S
C2381 C120 1.778 . S
C2407 C594 1.619 . S
C2401 C231 1.649 . S
C2427 C401 1.843 1_565 S
C2421 C200 1.874 . S
C2441 C212 1.762 . S
C2447 C510 1.711 . S
C2467 C451 1.169 . S
C2461 C172 1.179 . S
C2481 C192 1.496 . S
C2487 C454 1.481 . S
C2501 C160 1.627 . S
C2507 C614 1.621 . S
C2527 C540 1.734 . S
C2521 C213 1.754 . S
C2547 C571 1.121 . S
C2541 C250 1.131 . S
