# Generated by pormake.
# Topology anh, (6,3)-cn, num edge types: 1
# Building blocks:
#     Node 0, Type 0, BuildingBlock: VOLQOD_clean_sbu_1, # of connection points: 6
#     Node 1, Type 0, BuildingBlock: VOLQOD_clean_sbu_1, # of connection points: 6
#     Node 2, Type 0, BuildingBlock: VOLQOD_clean_sbu_1, # of connection points: 6
#     Node 3, Type 1, BuildingBlock: OLANEW_clean_sbu_2, # of connection points: 3
#     Node 4, Type 1, BuildingBlock: OLANEW_clean_sbu_2, # of connection points: 3
#     Node 5, Type 1, BuildingBlock: OLANEW_clean_sbu_2, # of connection points: 3
#     Node 6, Type 1, BuildingBlock: OLANEW_clean_sbu_2, # of connection points: 3
#     Node 7, Type 1, BuildingBlock: OLANEW_clean_sbu_2, # of connection points: 3
#     Node 8, Type 1, BuildingBlock: OLANEW_clean_sbu_2, # of connection points: 3
#     Edge 9, Type (0, 1), BuildingBlock: MIFKUJ_clean_linker_0, # of connection points: 2
#     Edge 10, Type (0, 1), BuildingBlock: MIFKUJ_clean_linker_0, # of connection points: 2
#     Edge 11, Type (0, 1), BuildingBlock: MIFKUJ_clean_linker_0, # of connection points: 2
#     Edge 12, Type (0, 1), BuildingBlock: MIFKUJ_clean_linker_0, # of connection points: 2
#     Edge 13, Type (0, 1), BuildingBlock: MIFKUJ_clean_linker_0, # of connection points: 2
#     Edge 14, Type (0, 1), BuildingBlock: MIFKUJ_clean_linker_0, # of connection points: 2
#     Edge 15, Type (0, 1), BuildingBlock: MIFKUJ_clean_linker_0, # of connection points: 2
#     Edge 16, Type (0, 1), BuildingBlock: MIFKUJ_clean_linker_0, # of connection points: 2
#     Edge 17, Type (0, 1), BuildingBlock: MIFKUJ_clean_linker_0, # of connection points: 2
#     Edge 18, Type (0, 1), BuildingBlock: MIFKUJ_clean_linker_0, # of connection points: 2
#     Edge 19, Type (0, 1), BuildingBlock: MIFKUJ_clean_linker_0, # of connection points: 2
#     Edge 20, Type (0, 1), BuildingBlock: MIFKUJ_clean_linker_0, # of connection points: 2
#     Edge 21, Type (0, 1), BuildingBlock: MIFKUJ_clean_linker_0, # of connection points: 2
#     Edge 22, Type (0, 1), BuildingBlock: MIFKUJ_clean_linker_0, # of connection points: 2
#     Edge 23, Type (0, 1), BuildingBlock: MIFKUJ_clean_linker_0, # of connection points: 2
#     Edge 24, Type (0, 1), BuildingBlock: MIFKUJ_clean_linker_0, # of connection points: 2
#     Edge 25, Type (0, 1), BuildingBlock: MIFKUJ_clean_linker_0, # of connection points: 2
#     Edge 26, Type (0, 1), BuildingBlock: MIFKUJ_clean_linker_0, # of connection points: 2
# Relax obj value: 0.154
# Max RMSD: 0.206
# Mean RMSD: 0.142
data_MOF--net-anh--node1-VOLQOD_clean_sbu_1--node2-OLANEW_clean_sbu_2--edge1-MIFKUJ_clean_linker_0
_symmetry_space_group_name_H-M    P1
_symmetry_Int_Tables_number       1
_symmetry_cell_setting            triclinic
loop_
_symmetry_equiv_pos_as_xyz
'x, y, z'
_cell_length_a     39.89734
_cell_length_b     39.881191
_cell_length_c     75.452222
_cell_angle_alpha  89.976085
_cell_angle_beta   89.826698
_cell_angle_gamma 120.13455
loop_
_atom_site_label
_atom_site_type_symbol
_atom_site_fract_x
_atom_site_fract_y
_atom_site_fract_z
_atom_type_partial_charge
O0 O 0.01254 0.54552 0.20057 0.0
Zn1 Zn 0.01488 0.55683 0.17439 0.0
O2 O 0.01359 0.51463 0.16042 0.0
Zn3 Zn 0.96833 0.49224 0.14513 0.0
Zn4 Zn 0.01163 0.4747 0.17635 0.0
Zn5 Zn 0.05931 0.53458 0.14536 0.0
O6 O 0.98183 0.49157 0.11942 0.0
O7 O 0.046 0.52685 0.11946 0.0
O8 O 0.96977 0.56479 0.16848 0.0
O9 O 0.94125 0.52276 0.14656 0.0
O10 O 0.92967 0.43833 0.15322 0.0
O11 O 0.96031 0.42479 0.1741 0.0
O12 O 0.05567 0.46436 0.17174 0.0
O13 O 0.06534 0.60674 0.17018 0.0
O14 O 0.08771 0.50612 0.15004 0.0
O15 O 0.09604 0.59106 0.15015 0.0
C16 C 0.01422 0.51921 0.20943 0.0
C17 C 0.01411 0.50789 0.1112 0.0
C18 C 0.93039 0.41522 0.16467 0.0
C19 C 0.94379 0.54957 0.15658 0.0
C20 C 0.08353 0.47946 0.16064 0.0
C21 C 0.09475 0.61584 0.16035 0.0
O22 O 0.01535 0.49135 0.20176 0.0
O23 O 0.47119 0.02939 0.46878 0.0
Zn24 Zn 0.45006 0.02393 0.49353 0.0
O25 O 0.48425 0.01867 0.51058 0.0
Zn26 Zn 0.50582 0.06189 0.52715 0.0
Zn27 Zn 0.52648 0.01658 0.49808 0.0
Zn28 Zn 0.4542 0.97164 0.52417 0.0
O29 O 0.49492 0.04471 0.55281 0.0
O30 O 0.45298 0.9819 0.55005 0.0
O31 O 0.4455 0.07129 0.49885 0.0
O32 O 0.48261 0.09524 0.52269 0.0
O33 O 0.56322 0.09586 0.52332 0.0
O34 O 0.57815 0.06352 0.5039 0.0
O35 O 0.52821 0.96789 0.50407 0.0
O36 O 0.39647 0.97596 0.49341 0.0
O37 O 0.47788 0.93827 0.52232 0.0
O38 O 0.39998 0.94043 0.51516 0.0
C39 C 0.49823 0.0253 0.46202 0.0
C40 C 0.47178 0.0118 0.55967 0.0
C41 C 0.58802 0.09285 0.51382 0.0
C42 C 0.46004 0.09645 0.51115 0.0
C43 C 0.50642 0.93953 0.51417 0.0
C44 C 0.3811 0.94523 0.50283 0.0
O45 O 0.52039 0.01859 0.47166 0.0
O46 O 0.49753 0.49551 0.79453 0.0
Zn47 Zn 0.48788 0.48223 0.82045 0.0
O48 O 0.53317 0.5177 0.83442 0.0
Zn49 Zn 0.5194 0.54565 0.85117 0.0
Zn50 Zn 0.57447 0.55462 0.81864 0.0
Zn51 Zn 0.55085 0.48824 0.84798 0.0
O52 O 0.53066 0.53849 0.87643 0.0
O53 O 0.54267 0.49003 0.87427 0.0
O54 O 0.43982 0.48347 0.82803 0.0
O55 O 0.46268 0.52701 0.84964 0.0
O56 O 0.54562 0.60197 0.84506 0.0
O57 O 0.58167 0.60836 0.82145 0.0
O58 O 0.62517 0.55626 0.82344 0.0
O59 O 0.47856 0.4278 0.82197 0.0
O60 O 0.60779 0.51114 0.84436 0.0
O61 O 0.52501 0.43285 0.8398 0.0
C62 C 0.52794 0.51727 0.78554 0.0
C63 C 0.53722 0.51347 0.88361 0.0
C64 C 0.56843 0.62267 0.8327 0.0
C65 C 0.43478 0.50312 0.83997 0.0
C66 C 0.63344 0.53713 0.83437 0.0
C67 C 0.49641 0.41286 0.8296 0.0
O68 O 0.56004 0.53991 0.79309 0.0
O69 O 0.50727 0.02846 0.26295 0.0
Cd70 Cd 0.50318 0.02185 0.23069 0.0
O71 O 0.53837 0.99629 0.266 0.0
Cd72 Cd 0.52308 0.97432 0.23903 0.0
O73 O 0.47751 0.9393 0.22009 0.0
C74 C 0.44364 0.9309 0.22498 0.0
O75 O 0.43945 0.9443 0.24023 0.0
C76 C 0.52506 0.0165 0.27274 0.0
C77 C 0.57138 0.08043 0.21553 0.0
O78 O 0.54192 0.08475 0.21782 0.0
O79 O 0.56834 0.04808 0.22013 0.0
O80 O 0.5306 0.52669 0.58629 0.0
Cd81 Cd 0.53168 0.53723 0.55411 0.0
O82 O 0.46763 0.48775 0.58903 0.0
Cd83 Cd 0.45944 0.5039 0.56266 0.0
O84 O 0.46969 0.5534 0.54663 0.0
C85 C 0.46029 0.5755 0.5546 0.0
O86 O 0.44373 0.56492 0.57027 0.0
C87 C 0.50128 0.50459 0.59583 0.0
C88 C 0.51396 0.46948 0.53584 0.0
O89 O 0.54877 0.49332 0.54066 0.0
O90 O 0.48781 0.47818 0.53924 0.0
O91 O 0.02338 0.51939 0.91191 0.0
Cd92 Cd 0.02743 0.52812 0.87965 0.0
O93 O 0.00941 0.45849 0.91269 0.0
Cd94 Cd 0.99364 0.45328 0.88484 0.0
O95 O 0.95836 0.46734 0.86786 0.0
C96 C 0.93574 0.4741 0.87708 0.0
O97 O 0.93568 0.47022 0.89439 0.0
C98 C 0.01805 0.48986 0.92072 0.0
C99 C 0.09059 0.52386 0.86654 0.0
O100 O 0.09494 0.5554 0.87314 0.0
O101 O 0.05625 0.4946 0.8657 0.0
O102 O 0.02161 0.50148 0.40864 0.0
Cd103 Cd 0.02226 0.50097 0.44101 0.0
O104 O 0.98119 0.52377 0.40777 0.0
Cd105 Cd 0.96341 0.50625 0.43517 0.0
O106 O 0.92692 0.46286 0.45482 0.0
C107 C 0.928 0.43157 0.45572 0.0
O108 O 0.9527 0.42764 0.44562 0.0
C109 C 0.0039 0.51501 0.39983 0.0
C110 C 0.07249 0.57617 0.45282 0.0
O111 O 0.08464 0.55247 0.44971 0.0
O112 O 0.03633 0.56405 0.4507 0.0
O113 O 0.35565 0.87297 0.74181 0.0
Cd114 Cd 0.33915 0.84548 0.77153 0.0
O115 O 0.40231 0.92323 0.75526 0.0
Cd116 Cd 0.44765 0.98392 0.75663 0.0
O117 O 0.4684 0.04409 0.76358 0.0
C118 C 0.44984 0.05957 0.75731 0.0
O119 O 0.42124 0.03952 0.74626 0.0
C120 C 0.38508 0.9068 0.74099 0.0
C121 C 0.39397 0.82596 0.78205 0.0
O122 O 0.36202 0.80089 0.77487 0.0
O123 O 0.39973 0.86022 0.78459 0.0
O124 O 0.50494 0.46412 0.08145 0.0
Cd125 Cd 0.49451 0.45454 0.11348 0.0
O126 O 0.52811 0.52709 0.08245 0.0
Cd127 Cd 0.50795 0.52253 0.10967 0.0
O128 O 0.45699 0.5036 0.12641 0.0
C129 C 0.42581 0.48777 0.11752 0.0
O130 O 0.42799 0.48419 0.1003 0.0
C131 C 0.52037 0.49686 0.07366 0.0
C132 C 0.56549 0.47606 0.12932 0.0
O133 O 0.54363 0.44157 0.12352 0.0
O134 O 0.55328 0.50017 0.12811 0.0
H135 H 0.1225 0.47688 0.13175 0.0
H136 H 0.17508 0.46239 0.13072 0.0
H137 H 0.16381 0.44055 0.18702 0.0
H138 H 0.11004 0.45412 0.18808 0.0
H139 H 0.24168 0.49859 0.17291 0.0
H140 H 0.14272 0.36711 0.16532 0.0
H141 H 0.08262 0.31342 0.15286 0.0
H142 H 0.13336 0.33964 0.10082 0.0
H143 H 0.19357 0.39387 0.1129 0.0
H144 H 0.40823 0.48224 0.15304 0.0
H145 H 0.34578 0.46608 0.16643 0.0
H146 H 0.29639 0.45218 0.11426 0.0
H147 H 0.35775 0.46669 0.10094 0.0
H148 H 0.24535 0.39927 0.13472 0.0
H149 H 0.33307 0.53866 0.13981 0.0
H150 H 0.39215 0.59733 0.14994 0.0
H151 H 0.36196 0.56097 0.20406 0.0
H152 H 0.30288 0.50187 0.19421 0.0
C153 C 0.13079 0.46841 0.14387 0.0
C154 C 0.11236 0.46671 0.16 0.0
C155 C 0.16067 0.45998 0.14325 0.0
C156 C 0.1731 0.45027 0.15878 0.0
C157 C 0.15434 0.44777 0.1749 0.0
C158 C 0.12369 0.4554 0.17547 0.0
C159 C 0.2079 0.44624 0.15799 0.0
C160 C 0.24246 0.47623 0.16504 0.0
C161 C 0.20874 0.4175 0.14739 0.0
C162 C 0.17267 0.38467 0.14003 0.0
C163 C 0.141 0.3616 0.1512 0.0
C164 C 0.10691 0.33103 0.1442 0.0
C165 C 0.10417 0.32313 0.12606 0.0
C166 C 0.13554 0.34576 0.11487 0.0
C167 C 0.16969 0.37638 0.1218 0.0
C168 C 0.38388 0.47536 0.14447 0.0
C169 C 0.38798 0.47602 0.12593 0.0
C170 C 0.34826 0.46622 0.15213 0.0
C171 C 0.31645 0.45837 0.14136 0.0
C172 C 0.32037 0.45795 0.12288 0.0
C173 C 0.35563 0.46649 0.11526 0.0
C174 C 0.27955 0.45273 0.14893 0.0
C175 C 0.24458 0.42092 0.14314 0.0
C176 C 0.27838 0.4803 0.16037 0.0
C177 C 0.31393 0.51565 0.16628 0.0
C178 C 0.33923 0.54306 0.15386 0.0
C179 C 0.37266 0.5764 0.15955 0.0
C180 C 0.38088 0.5828 0.17763 0.0
C181 C 0.35562 0.55592 0.19006 0.0
C182 C 0.32217 0.52251 0.18444 0.0
H183 H 0.40676 0.60864 0.18201 0.0
H184 H 0.07775 0.29946 0.12067 0.0
H185 H 0.61373 0.16747 0.52393 0.0
H186 H 0.6767 0.22427 0.51748 0.0
H187 H 0.71613 0.15102 0.49466 0.0
H188 H 0.65268 0.09374 0.50071 0.0
H189 H 0.77336 0.21917 0.51734 0.0
H190 H 0.69019 0.18398 0.46683 0.0
H191 H 0.62942 0.16496 0.45091 0.0
H192 H 0.6361 0.27205 0.46585 0.0
H193 H 0.69637 0.29117 0.48234 0.0
H194 H 0.92222 0.36084 0.46037 0.0
H195 H 0.86909 0.3033 0.47437 0.0
H196 H 0.81401 0.36899 0.48852 0.0
H197 H 0.86689 0.42664 0.47449 0.0
H198 H 0.76574 0.30281 0.47065 0.0
H199 H 0.85291 0.33892 0.52007 0.0
H200 H 0.91445 0.35645 0.53499 0.0
H201 H 0.90229 0.24685 0.52038 0.0
H202 H 0.84091 0.22885 0.50515 0.0
C203 C 0.63598 0.16322 0.51788 0.0
C204 C 0.62808 0.12609 0.51269 0.0
C205 C 0.67193 0.19575 0.5142 0.0
C206 C 0.70082 0.19172 0.50553 0.0
C207 C 0.6941 0.15457 0.50141 0.0
C208 C 0.65783 0.12197 0.5048 0.0
C209 C 0.73617 0.2266 0.49913 0.0
C210 C 0.77195 0.23734 0.50701 0.0
C211 C 0.73398 0.25027 0.48577 0.0
C212 C 0.69747 0.23873 0.47606 0.0
C213 C 0.67838 0.2032 0.46697 0.0
C214 C 0.64407 0.19243 0.4578 0.0
C215 C 0.6288 0.21719 0.45743 0.0
C216 C 0.64785 0.2528 0.46622 0.0
C217 C 0.68206 0.26359 0.47551 0.0
C218 C 0.89912 0.36324 0.4667 0.0
C219 C 0.89864 0.39826 0.46619 0.0
C220 C 0.86885 0.33033 0.47477 0.0
C221 C 0.83764 0.3319 0.4825 0.0
C222 C 0.83783 0.36719 0.48261 0.0
C223 C 0.86813 0.40012 0.47461 0.0
C224 C 0.80319 0.29608 0.48904 0.0
C225 C 0.76738 0.28493 0.48107 0.0
C226 C 0.80561 0.27195 0.50215 0.0
C227 C 0.84249 0.2827 0.51132 0.0
C228 C 0.86352 0.31869 0.5199 0.0
C229 C 0.89835 0.32868 0.52845 0.0
C230 C 0.91233 0.30282 0.5286 0.0
C231 C 0.89145 0.26687 0.52024 0.0
C232 C 0.85662 0.25674 0.51166 0.0
H233 H 0.93929 0.31062 0.53522 0.0
H234 H 0.60231 0.20883 0.45027 0.0
H235 H 0.60893 0.67419 0.80591 0.0
H236 H 0.60285 0.72983 0.79699 0.0
H237 H 0.53158 0.71328 0.84302 0.0
H238 H 0.53896 0.65932 0.85236 0.0
H239 H 0.54011 0.72237 0.78645 0.0
H240 H 0.52114 0.78647 0.85354 0.0
H241 H 0.55493 0.80825 0.88214 0.0
H242 H 0.66 0.82512 0.85812 0.0
H243 H 0.62706 0.80403 0.82929 0.0
H244 H 0.38559 0.75388 0.78318 0.0
H245 H 0.43439 0.73667 0.7907 0.0
H246 H 0.51847 0.85739 0.79903 0.0
H247 H 0.46916 0.87478 0.79202 0.0
H248 H 0.5255 0.81642 0.82391 0.0
H249 H 0.52314 0.80969 0.76169 0.0
H250 H 0.49548 0.79299 0.73165 0.0
H251 H 0.44572 0.67185 0.74348 0.0
H252 H 0.47251 0.68774 0.77369 0.0
C253 C 0.5932 0.68335 0.81447 0.0
C254 C 0.57384 0.66181 0.82968 0.0
C255 C 0.58964 0.71513 0.80932 0.0
C256 C 0.56659 0.72581 0.81925 0.0
C257 C 0.55012 0.70633 0.83523 0.0
C258 C 0.55406 0.675 0.84049 0.0
C259 C 0.55377 0.7519 0.81162 0.0
C260 C 0.53757 0.74342 0.79457 0.0
C261 C 0.55141 0.78036 0.8219 0.0
C262 C 0.57152 0.79353 0.83921 0.0
C263 C 0.55153 0.79512 0.85429 0.0
C264 C 0.57053 0.80727 0.87057 0.0
C265 C 0.60957 0.81802 0.87195 0.0
C266 C 0.62973 0.8167 0.85704 0.0
C267 C 0.61088 0.80458 0.84073 0.0
C268 C 0.41445 0.77682 0.78659 0.0
C269 C 0.42356 0.8157 0.78694 0.0
C270 C 0.44245 0.76698 0.79077 0.0
C271 C 0.48039 0.79583 0.79504 0.0
C272 C 0.48948 0.83468 0.79566 0.0
C273 C 0.46128 0.84455 0.79165 0.0
C274 C 0.50985 0.78477 0.79935 0.0
C275 C 0.5291 0.79616 0.81568 0.0
C276 C 0.51603 0.75982 0.78821 0.0
C277 C 0.49978 0.74996 0.77001 0.0
C278 C 0.5061 0.77947 0.75794 0.0
C279 C 0.49058 0.77015 0.74087 0.0
C280 C 0.46884 0.73139 0.73567 0.0
C281 C 0.46259 0.70187 0.74752 0.0
C282 C 0.47799 0.71102 0.76462 0.0
H283 H 0.45686 0.72423 0.72244 0.0
H284 H 0.62421 0.82739 0.88456 0.0
H285 H 0.91144 0.56961 0.18349 0.0
H286 H 0.85031 0.57025 0.1822 0.0
H287 H 0.84551 0.5522 0.12571 0.0
H288 H 0.90593 0.55062 0.12695 0.0
H289 H 0.81499 0.60205 0.13828 0.0
H290 H 0.7997 0.4737 0.14419 0.0
H291 H 0.81837 0.42933 0.15783 0.0
H292 H 0.7867 0.45131 0.20916 0.0
H293 H 0.76783 0.49596 0.19571 0.0
H294 H 0.6043 0.43612 0.12776 0.0
H295 H 0.67138 0.45901 0.13597 0.0
H296 H 0.68228 0.56608 0.15503 0.0
H297 H 0.61534 0.5438 0.14622 0.0
H298 H 0.71204 0.4786 0.16451 0.0
H299 H 0.77432 0.6401 0.14692 0.0
H300 H 0.75926 0.68107 0.12783 0.0
H301 H 0.69794 0.58596 0.09194 0.0
H302 H 0.71304 0.54462 0.1107 0.0
C303 C 0.89801 0.56714 0.17073 0.0
C304 C 0.91309 0.55972 0.15534 0.0
C305 C 0.86316 0.5675 0.17002 0.0
C306 C 0.84351 0.56119 0.15386 0.0
C307 C 0.86044 0.55739 0.13826 0.0
C308 C 0.89478 0.55625 0.13901 0.0
C309 C 0.80261 0.55155 0.15355 0.0
C310 C 0.7924 0.57553 0.14429 0.0
C311 C 0.7733 0.5163 0.16088 0.0
C312 C 0.78264 0.48822 0.169 0.0
C313 C 0.7967 0.46899 0.15838 0.0
C314 C 0.80733 0.44384 0.16607 0.0
C315 C 0.80391 0.43761 0.18436 0.0
C316 C 0.78937 0.45619 0.19498 0.0
C317 C 0.7786 0.48135 0.18734 0.0
C318 C 0.62082 0.4644 0.13384 0.0
C319 C 0.60464 0.48831 0.13618 0.0
C320 C 0.65918 0.47743 0.1386 0.0
C321 C 0.68211 0.5145 0.14591 0.0
C322 C 0.66541 0.53767 0.1491 0.0
C323 C 0.62711 0.52484 0.14412 0.0
C324 C 0.72387 0.52922 0.14925 0.0
C325 C 0.73439 0.50593 0.15901 0.0
C326 C 0.75334 0.56453 0.1418 0.0
C327 C 0.74438 0.58919 0.13034 0.0
C328 C 0.75769 0.62799 0.13494 0.0
C329 C 0.74915 0.65127 0.12418 0.0
C330 C 0.72752 0.63608 0.10872 0.0
C331 C 0.71454 0.59764 0.10395 0.0
C332 C 0.72305 0.57427 0.11465 0.0
H333 H 0.72091 0.65413 0.10042 0.0
H334 H 0.81259 0.41842 0.19025 0.0
H335 H 0.33509 0.93886 0.47452 0.0
H336 H 0.27428 0.88155 0.46567 0.0
H337 H 0.27854 0.82067 0.51211 0.0
H338 H 0.33856 0.87765 0.52118 0.0
H339 H 0.26485 0.81345 0.4568 0.0
H340 H 0.18995 0.75285 0.52519 0.0
H341 H 0.18135 0.77792 0.55368 0.0
H342 H 0.199 0.88149 0.52779 0.0
H343 H 0.20716 0.85684 0.4991 0.0
H344 H 0.15096 0.61101 0.45665 0.0
H345 H 0.1962 0.67841 0.46438 0.0
H346 H 0.10127 0.70065 0.46866 0.0
H347 H 0.0556 0.63299 0.46105 0.0
H348 H 0.1519 0.73332 0.49579 0.0
H349 H 0.15816 0.73246 0.43293 0.0
H350 H 0.16437 0.70928 0.40348 0.0
H351 H 0.27901 0.73314 0.41643 0.0
H352 H 0.27328 0.75595 0.44606 0.0
C353 C 0.32265 0.91354 0.48304 0.0
C354 C 0.34185 0.91284 0.49853 0.0
C355 C 0.28797 0.88076 0.47792 0.0
C356 C 0.27171 0.84686 0.48826 0.0
C357 C 0.29011 0.84664 0.50405 0.0
C358 C 0.32466 0.87928 0.50916 0.0
C359 C 0.23762 0.81053 0.48192 0.0
C360 C 0.23999 0.79614 0.46527 0.0
C361 C 0.20479 0.7882 0.49281 0.0
C362 C 0.19942 0.80305 0.50999 0.0
C363 C 0.19177 0.78087 0.52554 0.0
C364 C 0.18703 0.79504 0.54174 0.0
C365 C 0.18971 0.83131 0.54255 0.0
C366 C 0.19705 0.85345 0.52716 0.0
C367 C 0.2018 0.83942 0.51093 0.0
C368 C 0.13962 0.63015 0.45929 0.0
C369 C 0.09968 0.61666 0.45818 0.0
C370 C 0.16555 0.66873 0.46361 0.0
C371 C 0.15214 0.69466 0.46685 0.0
C372 C 0.11222 0.68114 0.46614 0.0
C373 C 0.0862 0.6425 0.46177 0.0
C374 C 0.18004 0.7358 0.47103 0.0
C375 C 0.1765 0.75098 0.48725 0.0
C376 C 0.21147 0.75919 0.45962 0.0
C377 C 0.21518 0.74569 0.44177 0.0
C378 C 0.1846 0.73252 0.42955 0.0
C379 C 0.18804 0.71948 0.41281 0.0
C380 C 0.22203 0.71968 0.4081 0.0
C381 C 0.25269 0.733 0.4201 0.0
C382 C 0.24937 0.74603 0.43686 0.0
H383 H 0.22465 0.70957 0.39514 0.0
H384 H 0.18605 0.84223 0.5551 0.0
H385 H 0.52991 0.37202 0.84198 0.0
H386 H 0.52058 0.31048 0.83078 0.0
H387 H 0.43267 0.30221 0.79498 0.0
H388 H 0.44132 0.36342 0.80625 0.0
H389 H 0.41328 0.23221 0.80896 0.0
H390 H 0.52459 0.33762 0.78064 0.0
H391 H 0.5881 0.39784 0.77979 0.0
H392 H 0.63954 0.34115 0.80769 0.0
H393 H 0.57616 0.2807 0.80892 0.0
H394 H 0.41397 0.09956 0.74726 0.0
H395 H 0.42163 0.1591 0.76028 0.0
H396 H 0.5093 0.16478 0.79549 0.0
H397 H 0.50219 0.10548 0.78242 0.0
H398 H 0.52896 0.23559 0.78242 0.0
H399 H 0.41754 0.1296 0.81017 0.0
H400 H 0.3539 0.06954 0.81089 0.0
H401 H 0.30259 0.1274 0.78387 0.0
H402 H 0.36608 0.18771 0.78276 0.0
C403 C 0.50813 0.35685 0.83193 0.0
C404 C 0.48667 0.37292 0.82488 0.0
C405 C 0.50299 0.32176 0.82548 0.0
C406 C 0.47652 0.30224 0.81179 0.0
C407 C 0.45343 0.31696 0.80548 0.0
C408 C 0.45846 0.352 0.81194 0.0
C409 C 0.4743 0.26759 0.80341 0.0
C410 C 0.43847 0.23303 0.80299 0.0
C411 C 0.50735 0.26855 0.7959 0.0
C412 C 0.54555 0.30476 0.79503 0.0
C413 C 0.54938 0.33808 0.7867 0.0
C414 C 0.58536 0.37224 0.78614 0.0
C415 C 0.61781 0.37335 0.79372 0.0
C416 C 0.61437 0.34026 0.80184 0.0
C417 C 0.57843 0.30603 0.80247 0.0
C418 C 0.43513 0.11363 0.75767 0.0
C419 C 0.45722 0.09758 0.76392 0.0
C420 C 0.43934 0.14756 0.76515 0.0
C421 C 0.46551 0.16592 0.77907 0.0
C422 C 0.48878 0.15092 0.78482 0.0
C423 C 0.48464 0.11701 0.77734 0.0
C424 C 0.46792 0.2002 0.78795 0.0
C425 C 0.50379 0.23472 0.78844 0.0
C426 C 0.4349 0.19921 0.7955 0.0
C427 C 0.39664 0.16306 0.79624 0.0
C428 C 0.39275 0.12944 0.80426 0.0
C429 C 0.35669 0.09536 0.80476 0.0
C430 C 0.32424 0.09463 0.79739 0.0
C431 C 0.32776 0.128 0.78955 0.0
C432 C 0.36377 0.16215 0.789 0.0
H433 H 0.29635 0.06822 0.79779 0.0
H434 H 0.64564 0.39983 0.79327 0.0
H435 H 0.47576 0.88408 0.53965 0.0
H436 H 0.48368 0.82805 0.54326 0.0
H437 H 0.56082 0.86397 0.49816 0.0
H438 H 0.55281 0.92085 0.49429 0.0
H439 H 0.50235 0.78533 0.49743 0.0
H440 H 0.59983 0.87036 0.53732 0.0
H441 H 0.62834 0.91973 0.56081 0.0
H442 H 0.54242 0.84156 0.59773 0.0
H443 H 0.51306 0.79188 0.57442 0.0
H444 H 0.5049 0.61198 0.52529 0.0
H445 H 0.52677 0.67837 0.51525 0.0
H446 H 0.46189 0.69213 0.55767 0.0
H447 H 0.44044 0.62649 0.56784 0.0
H448 H 0.53496 0.75264 0.55594 0.0
H449 H 0.4296 0.67599 0.51476 0.0
H450 H 0.39728 0.62694 0.49138 0.0
H451 H 0.49598 0.68961 0.45724 0.0
H452 H 0.52907 0.7388 0.48053 0.0
C453 C 0.49464 0.8804 0.5305 0.0
C454 C 0.51361 0.90692 0.51664 0.0
C455 C 0.49933 0.84841 0.53267 0.0
C456 C 0.52323 0.84218 0.52112 0.0
C457 C 0.54248 0.86854 0.50728 0.0
C458 C 0.53796 0.90097 0.50513 0.0
C459 C 0.52581 0.80673 0.52336 0.0
C460 C 0.51058 0.77847 0.51002 0.0
C461 C 0.53622 0.79782 0.53986 0.0
C462 C 0.55422 0.82736 0.55407 0.0
C463 C 0.58692 0.86373 0.55043 0.0
C464 C 0.60324 0.89178 0.56372 0.0
C465 C 0.58721 0.88379 0.58075 0.0
C466 C 0.55486 0.84769 0.58454 0.0
C467 C 0.53843 0.81952 0.5713 0.0
C468 C 0.49507 0.6291 0.53236 0.0
C469 C 0.47103 0.61406 0.5474 0.0
C470 C 0.50762 0.66699 0.52663 0.0
C471 C 0.49608 0.69018 0.53578 0.0
C472 C 0.47145 0.67484 0.55052 0.0
C473 C 0.45904 0.63721 0.55627 0.0
C474 C 0.50954 0.73066 0.53037 0.0
C475 C 0.52796 0.75986 0.54313 0.0
C476 C 0.50187 0.74031 0.5134 0.0
C477 C 0.482 0.71074 0.49945 0.0
C478 C 0.44453 0.6791 0.50232 0.0
C479 C 0.42605 0.65133 0.48908 0.0
C480 C 0.44463 0.65507 0.47286 0.0
C481 C 0.48167 0.68668 0.46983 0.0
C482 C 0.5003 0.71452 0.48304 0.0
H483 H 0.43027 0.63355 0.46262 0.0
H484 H 0.59985 0.90557 0.59101 0.0
H485 H 0.66744 0.52585 0.86294 0.0
H486 H 0.73081 0.53102 0.86448 0.0
H487 H 0.75298 0.5683 0.80989 0.0
H488 H 0.68913 0.56364 0.8083 0.0
H489 H 0.76379 0.504 0.81878 0.0
H490 H 0.8076 0.63258 0.83795 0.0
H491 H 0.80518 0.68436 0.85472 0.0
H492 H 0.81119 0.6328 0.90369 0.0
H493 H 0.81307 0.58037 0.88725 0.0
H494 H 0.93473 0.49455 0.84234 0.0
H495 H 0.89472 0.51924 0.82959 0.0
H496 H 0.84131 0.5087 0.88068 0.0
H497 H 0.88128 0.4849 0.89347 0.0
H498 H 0.86018 0.57637 0.86571 0.0
H499 H 0.79714 0.44063 0.84731 0.0
H500 H 0.79433 0.38493 0.83169 0.0
H501 H 0.82085 0.44734 0.78245 0.0
H502 H 0.82423 0.50358 0.79784 0.0
C503 C 0.68594 0.53563 0.85131 0.0
C504 C 0.67337 0.54422 0.83548 0.0
C505 C 0.72223 0.53879 0.85224 0.0
C506 C 0.74659 0.5503 0.83733 0.0
C507 C 0.73457 0.55961 0.82154 0.0
C508 C 0.69828 0.55707 0.82068 0.0
C509 C 0.78304 0.54929 0.8383 0.0
C510 C 0.78566 0.52066 0.82863 0.0
C511 C 0.81112 0.57073 0.85132 0.0
C512 C 0.81044 0.60247 0.86133 0.0
C513 C 0.80821 0.63215 0.8523 0.0
C514 C 0.80696 0.66165 0.86175 0.0
C515 C 0.80803 0.66187 0.88026 0.0
C516 C 0.81042 0.63263 0.88935 0.0
C517 C 0.81168 0.60305 0.87997 0.0
C518 C 0.91437 0.49747 0.85081 0.0
C519 C 0.91111 0.48774 0.86891 0.0
C520 C 0.8916 0.51159 0.84351 0.0
C521 C 0.86507 0.51584 0.85419 0.0
C522 C 0.86185 0.50602 0.87222 0.0
C523 C 0.88459 0.49217 0.87949 0.0
C524 C 0.83966 0.5296 0.8469 0.0
C525 C 0.83922 0.56071 0.85538 0.0
C526 C 0.81333 0.51013 0.83294 0.0
C527 C 0.8115 0.47645 0.82375 0.0
C528 C 0.80271 0.44257 0.83318 0.0
C529 C 0.80094 0.4109 0.82436 0.0
C530 C 0.80756 0.41266 0.8061 0.0
C531 C 0.81585 0.44606 0.7966 0.0
C532 C 0.8177 0.47784 0.80536 0.0
H533 H 0.80616 0.38809 0.7993 0.0
H534 H 0.80702 0.68471 0.88755 0.0
H535 H 0.10685 0.67346 0.18367 0.0
H536 H 0.16742 0.73348 0.18921 0.0
H537 H 0.22233 0.70684 0.14649 0.0
H538 H 0.162 0.64632 0.14104 0.0
H539 H 0.26382 0.72324 0.17564 0.0
H540 H 0.20558 0.78365 0.14363 0.0
H541 H 0.15454 0.79851 0.13566 0.0
H542 H 0.16048 0.84499 0.18762 0.0
H543 H 0.21119 0.82992 0.196 0.0
H544 H 0.44111 0.8964 0.19314 0.0
H545 H 0.3833 0.84938 0.17698 0.0
H546 H 0.31064 0.85855 0.21687 0.0
H547 H 0.36799 0.90591 0.23287 0.0
H548 H 0.28139 0.85435 0.18451 0.0
H549 H 0.3315 0.78495 0.2176 0.0
H550 H 0.38112 0.76857 0.2263 0.0
H551 H 0.38892 0.73782 0.17253 0.0
H552 H 0.33967 0.75452 0.16348 0.0
C553 C 0.13156 0.68063 0.17522 0.0
C554 C 0.12958 0.65485 0.16199 0.0
C555 C 0.16619 0.71514 0.17835 0.0
C556 C 0.19942 0.72479 0.16821 0.0
C557 C 0.19707 0.69996 0.15449 0.0
C558 C 0.1625 0.66537 0.15138 0.0
C559 C 0.23736 0.75867 0.1731 0.0
C560 C 0.26792 0.75212 0.17717 0.0
C561 C 0.24248 0.79616 0.17548 0.0
C562 C 0.21204 0.80541 0.17048 0.0
C563 C 0.19582 0.79678 0.1534 0.0
C564 C 0.16697 0.80529 0.1488 0.0
C565 C 0.15423 0.82262 0.16113 0.0
C566 C 0.17037 0.83156 0.17808 0.0
C567 C 0.19921 0.82309 0.18276 0.0
C568 C 0.41281 0.88867 0.19837 0.0
C569 C 0.40915 0.90461 0.21438 0.0
C570 C 0.37982 0.86175 0.18914 0.0
C571 C 0.34265 0.85009 0.19584 0.0
C572 C 0.339 0.86711 0.21145 0.0
C573 C 0.37189 0.89406 0.22063 0.0
C574 C 0.30743 0.81863 0.18729 0.0
C575 C 0.27742 0.82561 0.18261 0.0
C576 C 0.30267 0.78143 0.1844 0.0
C577 C 0.33229 0.77144 0.18983 0.0
C578 C 0.34404 0.77501 0.20761 0.0
C579 C 0.37205 0.76561 0.21261 0.0
C580 C 0.38827 0.75229 0.19996 0.0
C581 C 0.37641 0.74823 0.1823 0.0
C582 C 0.34845 0.75765 0.17723 0.0
H583 H 0.40993 0.74501 0.20386 0.0
H584 H 0.13189 0.82918 0.15755 0.0
H585 H 0.43211 0.12289 0.48461 0.0
H586 H 0.42964 0.18317 0.48459 0.0
H587 H 0.47051 0.2049 0.53856 0.0
H588 H 0.4727 0.14507 0.53876 0.0
H589 H 0.41638 0.22517 0.53343 0.0
H590 H 0.53252 0.24208 0.50422 0.0
H591 H 0.56764 0.22788 0.48124 0.0
H592 H 0.51466 0.26116 0.44069 0.0
H593 H 0.47845 0.27465 0.46346 0.0
H594 H 0.56171 0.44023 0.52923 0.0
H595 H 0.54265 0.3743 0.52009 0.0
H596 H 0.42403 0.34743 0.51506 0.0
H597 H 0.44272 0.41319 0.52444 0.0
H598 H 0.5078 0.32711 0.49199 0.0
H599 H 0.36675 0.25661 0.53263 0.0
H600 H 0.33709 0.27157 0.55793 0.0
H601 H 0.45001 0.34833 0.5792 0.0
H602 H 0.48024 0.33342 0.55416 0.0
C603 C 0.43981 0.14017 0.49657 0.0
C604 C 0.45304 0.12948 0.51162 0.0
C605 C 0.4385 0.1746 0.49651 0.0
C606 C 0.45029 0.19864 0.51152 0.0
C607 C 0.46127 0.18678 0.52685 0.0
C608 C 0.46274 0.15264 0.52689 0.0
C609 C 0.45463 0.23773 0.51108 0.0
C610 C 0.43581 0.24729 0.52416 0.0
C611 C 0.48045 0.26671 0.49916 0.0
C612 C 0.5024 0.25886 0.48551 0.0
C613 C 0.5281 0.24604 0.49039 0.0
C614 C 0.54824 0.23816 0.4774 0.0
C615 C 0.54337 0.24359 0.4595 0.0
C616 C 0.51834 0.2569 0.45455 0.0
C617 C 0.49795 0.2646 0.46749 0.0
C618 C 0.53167 0.42051 0.52591 0.0
C619 C 0.50363 0.43174 0.5278 0.0
C620 C 0.52086 0.38289 0.5206 0.0
C621 C 0.48186 0.35588 0.51713 0.0
C622 C 0.4542 0.36773 0.51789 0.0
C623 C 0.46497 0.40532 0.52325 0.0
C624 C 0.46992 0.31459 0.51449 0.0
C625 C 0.48737 0.30469 0.50088 0.0
C626 C 0.44354 0.28543 0.52619 0.0
C627 C 0.4257 0.29429 0.54141 0.0
C628 C 0.3852 0.27661 0.54273 0.0
C629 C 0.3683 0.28508 0.55702 0.0
C630 C 0.39166 0.31101 0.57012 0.0
C631 C 0.43196 0.32839 0.569 0.0
C632 C 0.44898 0.31996 0.55476 0.0
H633 H 0.37853 0.31755 0.58116 0.0
H634 H 0.55903 0.23758 0.44945 0.0
H635 H 0.367 0.4554 0.8223 0.0
H636 H 0.30487 0.45344 0.82533 0.0
H637 H 0.35423 0.54251 0.86531 0.0
H638 H 0.41572 0.54407 0.86271 0.0
H639 H 0.28473 0.48877 0.87506 0.0
H640 H 0.34273 0.56263 0.82192 0.0
H641 H 0.37164 0.5745 0.79202 0.0
H642 H 0.26707 0.47817 0.77181 0.0
H643 H 0.2377 0.46544 0.80167 0.0
H644 H 0.16654 0.57321 0.87434 0.0
H645 H 0.22165 0.56421 0.86795 0.0
H646 H 0.14646 0.4584 0.84001 0.0
H647 H 0.09085 0.46677 0.8466 0.0
H648 H 0.22348 0.51288 0.82318 0.0
H649 H 0.16482 0.44385 0.8774 0.0
H650 H 0.13767 0.43712 0.90746 0.0
H651 H 0.2467 0.53024 0.92574 0.0
H652 H 0.27432 0.53794 0.8957 0.0
C653 C 0.36451 0.47436 0.83182 0.0
C654 C 0.39641 0.49996 0.84223 0.0
C655 C 0.32906 0.47335 0.83346 0.0
C656 C 0.32505 0.49815 0.8454 0.0
C657 C 0.35661 0.52308 0.85603 0.0
C658 C 0.39185 0.52397 0.85448 0.0
C659 C 0.28832 0.49881 0.84686 0.0
C660 C 0.27151 0.49422 0.86371 0.0
C661 C 0.2706 0.50523 0.83201 0.0
C662 C 0.28821 0.51279 0.81406 0.0
C663 C 0.32603 0.54378 0.81113 0.0
C664 C 0.34247 0.5507 0.79418 0.0
C665 C 0.32125 0.52702 0.78003 0.0
C666 C 0.2835 0.49643 0.78279 0.0
C667 C 0.26693 0.48936 0.79972 0.0
C668 C 0.16176 0.54828 0.86664 0.0
C669 C 0.12437 0.52057 0.86105 0.0
C670 C 0.19323 0.54317 0.86304 0.0
C671 C 0.1879 0.51055 0.85362 0.0
C672 C 0.15099 0.48373 0.8473 0.0
C673 C 0.11933 0.48851 0.85113 0.0
C674 C 0.22065 0.50354 0.85136 0.0
C675 C 0.23656 0.50691 0.83443 0.0
C676 C 0.23792 0.49653 0.86615 0.0
C677 C 0.22152 0.49169 0.88427 0.0
C678 C 0.1829 0.46311 0.8878 0.0
C679 C 0.16745 0.45908 0.90483 0.0
C680 C 0.19042 0.4833 0.91849 0.0
C681 C 0.22893 0.51153 0.91514 0.0
C682 C 0.24451 0.51571 0.89812 0.0
H683 H 0.1784 0.48014 0.93167 0.0
H684 H 0.33403 0.53243 0.76692 0.0
H685 H 0.85638 0.39649 0.15706 0.0
H686 H 0.79651 0.3375 0.1653 0.0
H687 H 0.86301 0.29028 0.1881 0.0
H688 H 0.92331 0.34997 0.18041 0.0
H689 H 0.7965 0.23802 0.16471 0.0
H690 H 0.83064 0.32176 0.21499 0.0
H691 H 0.84817 0.38138 0.23164 0.0
H692 H 0.74047 0.37331 0.217 0.0
H693 H 0.7229 0.31442 0.19964 0.0
H694 H 0.6413 0.08354 0.21295 0.0
H695 H 0.70303 0.13816 0.20301 0.0
H696 H 0.64649 0.2039 0.19182 0.0
H697 H 0.58489 0.14978 0.20214 0.0
H698 H 0.71024 0.24621 0.20985 0.0
H699 H 0.67686 0.1649 0.15847 0.0
H700 H 0.658 0.10468 0.14196 0.0
H701 H 0.76211 0.1075 0.15876 0.0
H702 H 0.78136 0.1675 0.17558 0.0
C703 C 0.85832 0.37347 0.1637 0.0
C704 C 0.89455 0.37791 0.16814 0.0
C705 C 0.8241 0.33986 0.16843 0.0
C706 C 0.82548 0.30975 0.17736 0.0
C707 C 0.86151 0.31333 0.18121 0.0
C708 C 0.89583 0.34739 0.17684 0.0
C709 C 0.78911 0.27508 0.18308 0.0
C710 C 0.77779 0.23957 0.17474 0.0
C711 C 0.76451 0.27757 0.19589 0.0
C712 C 0.77569 0.31389 0.20578 0.0
C713 C 0.81099 0.33306 0.21502 0.0
C714 C 0.82088 0.36668 0.22466 0.0
C715 C 0.79545 0.38112 0.22541 0.0
C716 C 0.76014 0.36207 0.21643 0.0
C717 C 0.7503 0.32868 0.20661 0.0
C718 C 0.64194 0.1095 0.20823 0.0
C719 C 0.60821 0.11236 0.20837 0.0
C720 C 0.67724 0.14065 0.20247 0.0
C721 C 0.67936 0.17505 0.19653 0.0
C722 C 0.64557 0.17768 0.19638 0.0
C723 C 0.61035 0.14667 0.20224 0.0
C724 C 0.71706 0.20903 0.19129 0.0
C725 C 0.72879 0.24452 0.19977 0.0
C726 C 0.74185 0.20654 0.17854 0.0
C727 C 0.73035 0.17047 0.16843 0.0
C728 C 0.69557 0.15251 0.15877 0.0
C729 C 0.68485 0.11845 0.14933 0.0
C730 C 0.70879 0.10221 0.14935 0.0
C731 C 0.74357 0.12007 0.15878 0.0
C732 C 0.75442 0.15412 0.16825 0.0
H733 H 0.70043 0.07585 0.14203 0.0
H734 H 0.80311 0.40708 0.23293 0.0
H735 H 0.07585 0.5231 0.09003 0.0
H736 H 0.07702 0.51861 0.0578 0.0
H737 H 0.95535 0.4823 0.05588 0.0
H738 H 0.95366 0.48543 0.0882 0.0
H739 H 0.96909 0.44142 0.03355 0.0
H740 H 0.02757 0.57687 0.04578 0.0
H741 H 0.07344 0.63914 0.05978 0.0
H742 H 0.16905 0.63477 0.03596 0.0
H743 H 0.12375 0.57218 0.02201 0.0
H744 H 0.02011 0.54612 0.94194 0.0
H745 H 0.01966 0.54787 0.9742 0.0
H746 H 0.02152 0.44066 0.97621 0.0
H747 H 0.02056 0.43799 0.94379 0.0
H748 H 0.06683 0.55355 0.99851 0.0
H749 H 0.97297 0.38878 0.01253 0.0
H750 H 0.92105 0.32991 0.99829 0.0
H751 H 0.88543 0.39904 0.96904 0.0
H752 H 0.9368 0.45823 0.98327 0.0
C753 C 0.04932 0.51414 0.08275 0.0
C754 C 0.0147 0.50484 0.09167 0.0
C755 C 0.05006 0.5117 0.06431 0.0
C756 C 0.01642 0.50071 0.05437 0.0
C757 C 0.98168 0.49086 0.06326 0.0
C758 C 0.98078 0.49277 0.08174 0.0
C759 C 0.0175 0.49979 0.03471 0.0
C760 C 0.9905 0.46593 0.02589 0.0
C761 C 0.04496 0.53199 0.02466 0.0
C762 C 0.07229 0.56966 0.033 0.0
C763 C 0.0584 0.58905 0.04364 0.0
C764 C 0.08429 0.62442 0.05155 0.0
C765 C 0.12414 0.64085 0.0488 0.0
C766 C 0.13818 0.62198 0.0381 0.0
C767 C 0.11241 0.58657 0.03018 0.0
C768 C 0.02054 0.52292 0.94921 0.0
C769 C 0.02015 0.49178 0.94029 0.0
C770 C 0.02036 0.52402 0.96769 0.0
C771 C 0.02008 0.49418 0.97767 0.0
C772 C 0.02092 0.46362 0.9688 0.0
C773 C 0.02056 0.46222 0.95028 0.0
C774 C 0.01851 0.49512 0.99733 0.0
C775 C 0.04551 0.52896 0.00616 0.0
C776 C 0.99021 0.46339 0.00734 0.0
C777 C 0.95901 0.42794 0.99882 0.0
C778 C 0.95398 0.39138 0.0031 0.0
C779 C 0.92466 0.35797 0.99502 0.0
C780 C 0.90005 0.36075 0.98272 0.0
C781 C 0.90461 0.39694 0.97851 0.0
C782 C 0.93385 0.43043 0.98657 0.0
H783 H 0.87739 0.33486 0.97647 0.0
H784 H 0.14414 0.66824 0.05493 0.0
H785 H 0.54978 0.01407 0.4425 0.0
H786 H 0.55793 0.01771 0.41034 0.0
H787 H 0.46835 0.04755 0.40529 0.0
H788 H 0.45946 0.04329 0.4374 0.0
H789 H 0.45767 0.99335 0.38217 0.0
H790 H 0.56401 0.11588 0.39937 0.0
H791 H 0.62246 0.16048 0.41624 0.0
H792 H 0.68287 0.10609 0.39448 0.0
H793 H 0.6246 0.06087 0.3776 0.0
H794 H 0.49008 0.04835 0.29209 0.0
H795 H 0.48988 0.05488 0.32428 0.0
H796 H 0.56629 0.00828 0.32937 0.0
H797 H 0.56659 0.00142 0.29712 0.0
H798 H 0.58473 0.07287 0.35224 0.0
H799 H 0.47562 0.94917 0.33562 0.0
H800 H 0.41651 0.90619 0.31876 0.0
H801 H 0.36071 0.96592 0.33972 0.0
H802 H 0.41974 0.00965 0.35651 0.0
C803 C 0.53187 0.02155 0.43457 0.0
C804 C 0.50391 0.02833 0.44255 0.0
C805 C 0.53674 0.02383 0.41618 0.0
C806 C 0.51404 0.03331 0.40542 0.0
C807 C 0.4862 0.04021 0.41334 0.0
C808 C 0.4812 0.0378 0.43171 0.0
C809 C 0.51829 0.03463 0.38586 0.0
C810 C 0.48536 0.01123 0.37564 0.0
C811 C 0.55457 0.05738 0.37735 0.0
C812 C 0.58981 0.08474 0.38735 0.0
C813 C 0.58967 0.11324 0.39827 0.0
C814 C 0.62278 0.13867 0.40783 0.0
C815 C 0.65631 0.13603 0.40649 0.0
C816 C 0.65685 0.10806 0.39553 0.0
C817 C 0.62381 0.08257 0.38594 0.0
C818 C 0.50724 0.03989 0.30001 0.0
C819 C 0.52809 0.02403 0.29204 0.0
C820 C 0.50703 0.04361 0.3184 0.0
C821 C 0.52778 0.03172 0.32916 0.0
C822 C 0.55008 0.01759 0.32125 0.0
C823 C 0.55007 0.01354 0.30284 0.0
C824 C 0.52411 0.03171 0.34868 0.0
C825 C 0.5571 0.05521 0.35885 0.0
C826 C 0.48782 0.00935 0.35718 0.0
C827 C 0.45223 0.98293 0.34717 0.0
C828 C 0.45086 0.95335 0.33652 0.0
C829 C 0.41735 0.92881 0.32699 0.0
C830 C 0.38491 0.93339 0.32812 0.0
C831 C 0.38588 0.96245 0.33883 0.0
C832 C 0.41934 0.9871 0.34836 0.0
H833 H 0.35899 0.91436 0.32074 0.0
H834 H 0.6819 0.15571 0.41392 0.0
H835 H 0.58704 0.55714 0.7618 0.0
H836 H 0.5839 0.55287 0.7295 0.0
H837 H 0.46168 0.46939 0.73254 0.0
H838 H 0.46457 0.47298 0.76485 0.0
H839 H 0.49736 0.44706 0.70908 0.0
H840 H 0.49282 0.56279 0.7211 0.0
H841 H 0.51479 0.62724 0.7341 0.0
H842 H 0.62262 0.67339 0.70582 0.0
H843 H 0.60146 0.60906 0.69282 0.0
H844 H 0.4452 0.46016 0.62011 0.0
H845 H 0.4521 0.45986 0.65225 0.0
H846 H 0.57466 0.54074 0.64733 0.0
H847 H 0.56805 0.5415 0.61517 0.0
H848 H 0.54058 0.56414 0.67168 0.0
H849 H 0.54264 0.44752 0.65859 0.0
H850 H 0.51883 0.38288 0.64545 0.0
H851 H 0.41348 0.33808 0.67561 0.0
H852 H 0.43643 0.40262 0.68875 0.0
C853 C 0.55944 0.53793 0.75562 0.0
C854 C 0.52602 0.5155 0.76594 0.0
C855 C 0.55769 0.53561 0.73714 0.0
C856 C 0.52248 0.51106 0.72862 0.0
C857 C 0.48915 0.48849 0.73886 0.0
C858 C 0.49086 0.49073 0.75733 0.0
C859 C 0.52039 0.50884 0.70901 0.0
C860 C 0.50639 0.47258 0.70089 0.0
C861 C 0.53293 0.54227 0.69835 0.0
C862 C 0.54571 0.58101 0.70613 0.0
C863 C 0.52134 0.58661 0.71776 0.0
C864 C 0.53362 0.62313 0.72511 0.0
C865 C 0.57012 0.65436 0.72083 0.0
C866 C 0.59437 0.64916 0.70915 0.0
C867 C 0.58224 0.61268 0.70177 0.0
C868 C 0.47373 0.47751 0.62582 0.0
C869 C 0.50605 0.50097 0.61506 0.0
C870 C 0.47763 0.47721 0.64421 0.0
C871 C 0.51392 0.5002 0.65216 0.0
C872 C 0.5464 0.52284 0.64144 0.0
C873 C 0.54256 0.52311 0.62306 0.0
C874 C 0.51755 0.50235 0.67172 0.0
C875 C 0.53176 0.53863 0.67985 0.0
C876 C 0.50495 0.4689 0.68237 0.0
C877 C 0.49112 0.43002 0.67453 0.0
C878 C 0.51426 0.42397 0.66231 0.0
C879 C 0.50094 0.38733 0.65489 0.0
C880 C 0.46462 0.35642 0.65966 0.0
C881 C 0.44159 0.36206 0.67191 0.0
C882 C 0.45475 0.39866 0.67936 0.0
H883 H 0.45436 0.32807 0.6539 0.0
H884 H 0.57957 0.68261 0.72653 0.0
H885 H 0.50283 0.06899 0.58498 0.0
H886 H 0.49594 0.06077 0.61726 0.0
H887 H 0.42328 0.93725 0.61062 0.0
H888 H 0.42999 0.94497 0.57858 0.0
H889 H 0.43053 0.02894 0.63905 0.0
H890 H 0.44618 0.89196 0.64197 0.0
H891 H 0.47998 0.86392 0.62568 0.0
H892 H 0.56731 0.97764 0.60881 0.0
H893 H 0.53437 0.00643 0.62521 0.0
H894 H 0.34127 0.90293 0.71265 0.0
H895 H 0.36427 0.93224 0.68332 0.0
H896 H 0.48259 0.98265 0.70091 0.0
H897 H 0.45974 0.95368 0.7303 0.0
H898 H 0.46545 0.93968 0.66882 0.0
H899 H 0.45454 0.04257 0.69438 0.0
H900 H 0.42314 0.07264 0.71098 0.0
H901 H 0.33303 0.03254 0.67198 0.0
H902 H 0.36361 0.00175 0.65525 0.0
C903 C 0.48536 0.04009 0.5904 0.0
C904 C 0.46711 0.00763 0.57918 0.0
C905 C 0.48138 0.03549 0.60883 0.0
C906 C 0.45949 0.99838 0.61629 0.0
C907 C 0.44076 0.96609 0.60512 0.0
C908 C 0.44455 0.97063 0.58678 0.0
C909 C 0.45604 0.99283 0.63576 0.0
C910 C 0.43841 0.00967 0.64561 0.0
C911 C 0.4671 0.96831 0.64433 0.0
C912 C 0.48761 0.95132 0.63474 0.0
C913 C 0.47272 0.91101 0.63488 0.0
C914 C 0.49171 0.89498 0.62561 0.0
C915 C 0.52571 0.91898 0.61618 0.0
C916 C 0.5409 0.95908 0.61607 0.0
C917 C 0.52205 0.97526 0.62534 0.0
C918 C 0.37215 0.92068 0.71029 0.0
C919 C 0.39875 0.92653 0.72376 0.0
C920 C 0.38523 0.93749 0.69361 0.0
C921 C 0.42509 0.9598 0.69005 0.0
C922 C 0.45172 0.96577 0.70348 0.0
C923 C 0.43864 0.94951 0.72027 0.0
C924 C 0.4387 0.97466 0.67193 0.0
C925 C 0.45812 0.95942 0.66233 0.0
C926 C 0.42972 0.00099 0.66367 0.0
C927 C 0.41124 0.01958 0.67363 0.0
C928 C 0.42785 0.03987 0.68941 0.0
C929 C 0.41023 0.0571 0.69884 0.0
C930 C 0.37606 0.05441 0.69256 0.0
C931 C 0.35949 0.03457 0.67683 0.0
C932 C 0.377 0.01727 0.66735 0.0
H933 H 0.36246 0.06777 0.69988 0.0
H934 H 0.54033 0.90651 0.60899 0.0
H935 H 0.54245 0.56732 0.90755 0.0
H936 H 0.54401 0.56401 0.93987 0.0
H937 H 0.53605 0.45232 0.93635 0.0
H938 H 0.53477 0.45544 0.90397 0.0
H939 H 0.48366 0.45528 0.96072 0.0
H940 H 0.61938 0.52587 0.94666 0.0
H941 H 0.67855 0.57792 0.93255 0.0
H942 H 0.66492 0.66356 0.96101 0.0
H943 H 0.60531 0.61202 0.97511 0.0
H944 H 0.51523 0.44009 0.0516 0.0
H945 H 0.52245 0.44289 0.01939 0.0
H946 H 0.5475 0.56147 0.01962 0.0
H947 H 0.54135 0.55924 0.05189 0.0
H948 H 0.59301 0.55349 0.99661 0.0
H949 H 0.45663 0.48557 0.00925 0.0
H950 H 0.39584 0.43517 0.02296 0.0
H951 H 0.40858 0.34657 0.99681 0.0
H952 H 0.46977 0.39646 0.98313 0.0
C953 C 0.54109 0.54205 0.91363 0.0
C954 C 0.5385 0.51163 0.90318 0.0
C955 C 0.54216 0.54031 0.93209 0.0
C956 C 0.5404 0.50804 0.94045 0.0
C957 C 0.53754 0.4775 0.93011 0.0
C958 C 0.53692 0.47941 0.91162 0.0
C959 C 0.54061 0.50586 0.96002 0.0
C960 C 0.50781 0.47633 0.96859 0.0
C961 C 0.57172 0.53402 0.97021 0.0
C962 C 0.60766 0.56508 0.96182 0.0
C963 C 0.62881 0.55581 0.9498 0.0
C964 C 0.66247 0.58522 0.94183 0.0
C965 C 0.67544 0.62403 0.94585 0.0
C966 C 0.65482 0.63349 0.95789 0.0
C967 C 0.62111 0.60419 0.96589 0.0
C968 C 0.52255 0.46687 0.04482 0.0
C969 C 0.52741 0.49935 0.0543 0.0
C970 C 0.52652 0.46837 0.02639 0.0
C971 C 0.5348 0.50216 0.01706 0.0
C972 C 0.54097 0.53504 0.02654 0.0
C973 C 0.53736 0.53369 0.04499 0.0
C974 C 0.53594 0.50291 0.99739 0.0
C975 C 0.56894 0.53224 0.98877 0.0
C976 C 0.50479 0.47479 0.98713 0.0
C977 C 0.46799 0.44473 0.99532 0.0
C978 C 0.44663 0.45532 0.00654 0.0
C979 C 0.41207 0.42686 0.01428 0.0
C980 C 0.39842 0.38769 0.0108 0.0
C981 C 0.41924 0.37692 -0.00048 0.0
C982 C 0.45384 0.40528 0.99176 0.0
H983 H 0.37165 0.36569 0.01681 0.0
H984 H 0.70151 0.64676 0.93966 0.0
H985 H 0.03122 0.47703 0.23247 0.0
H986 H 0.03125 0.47903 0.26476 0.0
H987 H 0.99748 0.56621 0.26319 0.0
H988 H 0.99851 0.56522 0.23078 0.0
H989 H 0.05027 0.58408 0.28768 0.0
H990 H 0.93115 0.47042 0.27321 0.0
H991 H 0.88839 0.4079 0.25869 0.0
H992 H 0.94809 0.35725 0.28462 0.0
H993 H 0.99146 0.41965 0.29923 0.0
H994 H 0.98158 0.5545 0.37767 0.0
H995 H 0.98605 0.55808 0.34529 0.0
H996 H 0.03993 0.48759 0.34552 0.0
H997 H 0.03598 0.48414 0.3779 0.0
H998 H 0.97614 0.46203 0.32198 0.0
H999 H 0.09446 0.57904 0.33712 0.0
H1000 H 0.13313 0.64199 0.35207 0.0
H1001 H 0.0692 0.6867 0.32504 0.0
H1002 H 0.02974 0.62379 0.31012 0.0
C1003 C 0.02377 0.49665 0.23897 0.0
C1004 C 0.01463 0.52081 0.22903 0.0
C1005 C 0.02367 0.49765 0.25745 0.0
C1006 C 0.01371 0.52229 0.26642 0.0
C1007 C 0.00517 0.5469 0.25656 0.0
C1008 C 0.00568 0.54623 0.23803 0.0
C1009 C 0.01217 0.52221 0.28608 0.0
C1010 C 0.03363 0.55745 0.29516 0.0
C1011 C 0.99082 0.48743 0.29589 0.0
C1012 C 0.96479 0.44981 0.28717 0.0
C1013 C 0.93534 0.44602 0.27572 0.0
C1014 C 0.91096 0.41059 0.26749 0.0
C1015 C 0.9156 0.37865 0.27066 0.0
C1016 C 0.94456 0.38204 0.28215 0.0
C1017 C 0.96901 0.41742 0.29044 0.0
C1018 C 0.99463 0.53998 0.37084 0.0
C1019 C 0.0084 0.519 0.38034 0.0
C1020 C 0.99725 0.54216 0.35236 0.0
C1021 C 0.01339 0.52316 0.34307 0.0
C1022 C 0.02739 0.50243 0.3525 0.0
C1023 C 0.02523 0.50063 0.37098 0.0
C1024 C 0.01445 0.52375 0.32348 0.0
C1025 C 0.99278 0.4886 0.31444 0.0
C1026 C 0.03503 0.55866 0.31375 0.0
C1027 C 0.05889 0.59657 0.32264 0.0
C1028 C 0.08842 0.60218 0.33448 0.0
C1029 C 0.11053 0.63788 0.34293 0.0
C1030 C 0.10356 0.66829 0.33955 0.0
C1031 C 0.07453 0.6631 0.32767 0.0
C1032 C 0.05231 0.62744 0.3192 0.0
H1033 H 0.1207 0.69591 0.3461 0.0
H1034 H 0.8967 0.35124 0.26426 0.0
loop_
_geom_bond_atom_site_label_1
_geom_bond_atom_site_label_2
_geom_bond_distance
_geom_bond_site_symmetry_2
_ccdc_geom_bond_type
O0 Zn1 1.953 . S
O0 C16 1.225 1_655 S
Zn1 O0 1.953 . S
Zn1 O2 1.949 1_655 S
Zn1 O8 1.919 . S
Zn1 O13 1.924 1_655 S
O2 Zn1 1.949 1_455 S
O2 Zn3 1.923 1_455 S
O2 Zn4 1.950 . S
O2 Zn5 1.945 . S
Zn3 O2 1.923 1_655 S
Zn3 O6 1.933 . S
Zn3 O9 1.941 . S
Zn3 O10 1.965 . S
Zn4 O2 1.950 . S
Zn4 O11 1.938 1_455 S
Zn4 O12 1.906 . S
Zn4 O22 1.953 . S
Zn5 O2 1.945 . S
Zn5 O7 1.932 . S
Zn5 O14 1.977 . S
Zn5 O15 1.910 . S
O6 Zn3 1.933 . S
O6 C17 1.226 1_655 S
O7 Zn5 1.932 . S
O7 C17 1.307 . S
O8 Zn1 1.919 . S
O8 C19 1.253 . S
O9 Zn3 1.941 . S
O9 C19 1.283 . S
O10 Zn3 1.965 . S
O10 C18 1.303 . S
O11 Zn4 1.938 1_655 S
O11 C18 1.247 . S
O12 Zn4 1.906 . S
O12 C20 1.304 . S
O13 Zn1 1.924 1_455 S
O13 C21 1.311 . S
O14 Zn5 1.977 . S
O14 C20 1.272 . S
O15 Zn5 1.910 . S
O15 C21 1.231 . S
C16 O0 1.225 1_455 S
C16 O22 1.298 . S
C17 O6 1.226 1_455 S
C17 O7 1.307 . S
C18 O10 1.303 . S
C18 O11 1.247 . S
C19 O8 1.253 . S
C19 O9 1.283 . S
C20 O12 1.304 . S
C20 O14 1.272 . S
C21 O13 1.311 . S
C21 O15 1.231 . S
O22 Zn4 1.953 . S
O22 C16 1.298 . S
O23 Zn24 1.953 . S
O23 C39 1.225 . S
Zn24 O23 1.953 . S
Zn24 O25 1.949 . S
Zn24 O31 1.919 . S
Zn24 O36 1.924 1_545 S
O25 Zn24 1.949 . S
O25 Zn26 1.923 . S
O25 Zn27 1.935 1_545 S
O25 Zn28 1.945 1_545 S
Zn26 O25 1.923 . S
Zn26 O29 1.933 . S
Zn26 O32 1.941 . S
Zn26 O33 1.965 . S
Zn27 O25 1.935 1_565 S
Zn27 O34 1.926 1_565 S
Zn27 O35 1.933 . S
Zn27 O45 1.950 . S
Zn28 O25 1.945 1_565 S
Zn28 O30 1.932 . S
Zn28 O37 1.977 . S
Zn28 O38 1.910 . S
O29 Zn26 1.933 . S
O29 C40 1.226 . S
O30 Zn28 1.932 . S
O30 C40 1.307 1_565 S
O31 Zn24 1.919 . S
O31 C42 1.253 . S
O32 Zn26 1.941 . S
O32 C42 1.283 . S
O33 Zn26 1.965 . S
O33 C41 1.303 . S
O34 Zn27 1.926 1_545 S
O34 C41 1.247 . S
O35 Zn27 1.933 . S
O35 C43 1.304 . S
O36 Zn24 1.924 1_565 S
O36 C44 1.311 . S
O37 Zn28 1.977 . S
O37 C43 1.272 . S
O38 Zn28 1.910 . S
O38 C44 1.231 . S
C39 O23 1.225 . S
C39 O45 1.298 1_545 S
C40 O29 1.226 . S
C40 O30 1.307 1_545 S
C41 O33 1.303 . S
C41 O34 1.247 . S
C42 O31 1.253 . S
C42 O32 1.283 . S
C43 O35 1.304 . S
C43 O37 1.272 . S
C44 O36 1.311 . S
C44 O38 1.231 . S
O45 Zn27 1.950 . S
O45 C39 1.298 1_565 S
O46 Zn47 1.953 . S
O46 C62 1.225 . S
Zn47 O46 1.953 . S
Zn47 O48 1.949 . S
Zn47 O54 1.919 . S
Zn47 O59 1.924 . S
O48 Zn47 1.949 . S
O48 Zn49 1.923 . S
O48 Zn50 1.950 . S
O48 Zn51 1.945 . S
Zn49 O48 1.923 . S
Zn49 O52 1.933 . S
Zn49 O55 1.941 . S
Zn49 O56 1.965 . S
Zn50 O48 1.950 . S
Zn50 O57 1.938 . S
Zn50 O58 1.906 . S
Zn50 O68 1.953 . S
Zn51 O48 1.945 . S
Zn51 O53 1.932 . S
Zn51 O60 1.977 . S
Zn51 O61 1.910 . S
O52 Zn49 1.933 . S
O52 C63 1.226 . S
O53 Zn51 1.932 . S
O53 C63 1.307 . S
O54 Zn47 1.919 . S
O54 C65 1.253 . S
O55 Zn49 1.941 . S
O55 C65 1.283 . S
O56 Zn49 1.965 . S
O56 C64 1.303 . S
O57 Zn50 1.938 . S
O57 C64 1.247 . S
O58 Zn50 1.906 . S
O58 C66 1.304 . S
O59 Zn47 1.924 . S
O59 C67 1.311 . S
O60 Zn51 1.977 . S
O60 C66 1.272 . S
O61 Zn51 1.910 . S
O61 C67 1.231 . S
C62 O46 1.225 . S
C62 O68 1.298 . S
C63 O52 1.226 . S
C63 O53 1.307 . S
C64 O56 1.303 . S
C64 O57 1.247 . S
C65 O54 1.253 . S
C65 O55 1.283 . S
C66 O58 1.304 . S
C66 O60 1.272 . S
C67 O59 1.311 . S
C67 O61 1.231 . S
O68 Zn50 1.953 . S
O68 C62 1.298 . S
O69 Cd70 2.300 . S
O69 C76 1.275 . S
Cd70 O69 2.300 . S
Cd70 O78 2.381 . S
Cd70 O79 2.378 . S
O71 Cd72 2.385 . S
O71 C76 1.255 1_565 S
Cd72 O71 2.385 . S
Cd72 O73 2.317 . S
O73 Cd72 2.317 . S
O73 C74 1.232 . S
C74 O73 1.232 . S
C74 O75 1.218 . S
O75 C74 1.218 . S
C76 O69 1.275 . S
C76 O71 1.255 1_545 S
C77 O78 1.258 . S
C77 O79 1.256 . S
O78 Cd70 2.381 . S
O78 C77 1.258 . S
O79 Cd70 2.378 . S
O79 C77 1.256 . S
O80 Cd81 2.300 . S
O80 C87 1.275 . S
Cd81 O80 2.300 . S
Cd81 O89 2.381 . S
Cd81 O90 2.378 . S
O82 Cd83 2.385 . S
O82 C87 1.255 . S
Cd83 O82 2.385 . S
Cd83 O84 2.317 . S
O84 Cd83 2.317 . S
O84 C85 1.232 . S
C85 O84 1.232 . S
C85 O86 1.218 . S
O86 C85 1.218 . S
C87 O80 1.275 . S
C87 O82 1.255 . S
C88 O89 1.258 . S
C88 O90 1.256 . S
O89 Cd81 2.381 . S
O89 C88 1.258 . S
O90 Cd81 2.378 . S
O90 C88 1.256 . S
O91 Cd92 2.300 . S
O91 C98 1.275 . S
Cd92 O91 2.300 . S
Cd92 O100 2.381 . S
Cd92 O101 2.378 . S
O93 Cd94 2.385 . S
O93 C98 1.255 1_655 S
Cd94 O93 2.385 . S
Cd94 O95 2.317 . S
O95 Cd94 2.317 . S
O95 C96 1.232 . S
C96 O95 1.232 . S
C96 O97 1.218 . S
O97 C96 1.218 . S
C98 O91 1.275 . S
C98 O93 1.255 1_455 S
C99 O100 1.258 . S
C99 O101 1.256 . S
O100 Cd92 2.381 . S
O100 C99 1.258 . S
O101 Cd92 2.378 . S
O101 C99 1.256 . S
O102 Cd103 2.300 . S
O102 C109 1.275 1_455 S
Cd103 O102 2.300 . S
Cd103 O111 2.381 . S
Cd103 O112 2.378 . S
O104 Cd105 2.385 . S
O104 C109 1.255 . S
Cd105 O104 2.385 . S
Cd105 O106 2.317 . S
O106 Cd105 2.317 . S
O106 C107 1.232 . S
C107 O106 1.232 . S
C107 O108 1.218 . S
O108 C107 1.218 . S
C109 O102 1.275 1_655 S
C109 O104 1.255 . S
C110 O111 1.258 . S
C110 O112 1.256 . S
O111 Cd103 2.381 . S
O111 C110 1.258 . S
O112 Cd103 2.378 . S
O112 C110 1.256 . S
O113 Cd114 2.300 . S
O113 C120 1.275 1_565 S
Cd114 O113 2.300 . S
Cd114 O122 2.381 . S
Cd114 O123 2.378 . S
O115 Cd116 2.385 . S
O115 C120 1.255 . S
Cd116 O115 2.385 . S
Cd116 O117 2.317 . S
O117 Cd116 2.317 . S
O117 C118 1.232 . S
C118 O117 1.232 . S
C118 O119 1.218 . S
O119 C118 1.218 . S
C120 O113 1.275 1_545 S
C120 O115 1.255 . S
C121 O122 1.258 . S
C121 O123 1.256 . S
O122 Cd114 2.381 . S
O122 C121 1.258 . S
O123 Cd114 2.378 . S
O123 C121 1.256 . S
O124 Cd125 2.300 . S
O124 C131 1.275 . S
Cd125 O124 2.300 . S
Cd125 O133 2.381 . S
Cd125 O134 2.378 . S
O126 Cd127 2.385 . S
O126 C131 1.255 . S
Cd127 O126 2.385 . S
Cd127 O128 2.317 . S
O128 Cd127 2.317 . S
O128 C129 1.232 . S
C129 O128 1.232 . S
C129 O130 1.218 . S
O130 C129 1.218 . S
C131 O124 1.275 . S
C131 O126 1.255 . S
C132 O133 1.258 . S
C132 O134 1.256 . S
O133 Cd125 2.381 . S
O133 C132 1.258 . S
O134 Cd125 2.378 . S
O134 C132 1.256 . S
H135 C153 0.951 . S
H136 C155 0.951 . S
H137 C157 0.950 . S
H138 C158 0.950 . S
H139 C160 0.950 . S
H140 C163 0.950 . S
H141 C164 0.950 . S
H142 C166 0.950 . S
H143 C167 0.950 . S
H144 C168 0.951 . S
H145 C170 0.951 . S
H146 C172 0.950 . S
H147 C173 0.950 . S
H148 C175 0.950 . S
H149 C178 0.950 . S
H150 C179 0.950 . S
H151 C181 0.950 . S
H152 C182 0.950 . S
C153 H135 0.951 . S
C153 C154 1.366 . S
C153 C155 1.388 . S
C154 C153 1.366 . S
C154 C158 1.385 . S
C155 H136 0.951 . S
C155 C153 1.388 . S
C155 C156 1.366 . S
C156 C155 1.366 . S
C156 C157 1.414 . S
C156 C159 1.499 . S
C157 H137 0.950 . S
C157 C156 1.414 . S
C157 C158 1.374 . S
C158 H138 0.950 . S
C158 C154 1.385 . S
C158 C157 1.374 . S
C159 C156 1.499 . S
C159 C160 1.373 . S
C159 C161 1.389 . S
C160 H139 0.950 . S
C160 C159 1.373 . S
C160 C176 1.377 . S
C161 C159 1.389 . S
C161 C162 1.524 . S
C161 C175 1.377 . S
C162 C161 1.524 . S
C162 C163 1.397 . S
C162 C167 1.363 . S
C163 H140 0.950 . S
C163 C162 1.397 . S
C163 C164 1.334 . S
C164 H141 0.950 . S
C164 C163 1.334 . S
C164 C165 1.287 . S
C165 C164 1.287 . S
C165 C166 1.524 . S
C165 H184 0.913 . S
C166 H142 0.950 . S
C166 C165 1.524 . S
C166 C167 1.415 . S
C167 H143 0.950 . S
C167 C162 1.363 . S
C167 C166 1.415 . S
C168 H144 0.951 . S
C168 C169 1.366 . S
C168 C170 1.388 . S
C169 C168 1.366 . S
C169 C173 1.385 . S
C170 H145 0.951 . S
C170 C168 1.388 . S
C170 C171 1.366 . S
C171 C170 1.366 . S
C171 C172 1.414 . S
C171 C174 1.499 . S
C172 H146 0.950 . S
C172 C171 1.414 . S
C172 C173 1.374 . S
C173 H147 0.950 . S
C173 C169 1.385 . S
C173 C172 1.374 . S
C174 C171 1.499 . S
C174 C175 1.373 . S
C174 C176 1.389 . S
C175 H148 0.950 . S
C175 C161 1.377 . S
C175 C174 1.373 . S
C176 C160 1.377 . S
C176 C174 1.389 . S
C176 C177 1.524 . S
C177 C176 1.524 . S
C177 C178 1.397 . S
C177 C182 1.363 . S
C178 H149 0.950 . S
C178 C177 1.397 . S
C178 C179 1.334 . S
C179 H150 0.950 . S
C179 C178 1.334 . S
C179 C180 1.287 . S
C180 C179 1.287 . S
C180 C181 1.524 . S
C180 H183 0.999 . S
C181 H151 0.950 . S
C181 C180 1.524 . S
C181 C182 1.415 . S
C182 H152 0.950 . S
C182 C177 1.363 . S
C182 C181 1.415 . S
H183 C180 0.999 . S
H184 C165 0.913 . S
H185 C203 0.951 . S
H186 C205 0.951 . S
H187 C207 0.950 . S
H188 C208 0.950 . S
H189 C210 0.950 . S
H190 C213 0.950 . S
H191 C214 0.950 . S
H192 C216 0.950 . S
H193 C217 0.950 . S
H194 C218 0.951 . S
H195 C220 0.951 . S
H196 C222 0.950 . S
H197 C223 0.950 . S
H198 C225 0.950 . S
H199 C228 0.950 . S
H200 C229 0.950 . S
H201 C231 0.950 . S
H202 C232 0.950 . S
C203 H185 0.951 . S
C203 C204 1.366 . S
C203 C205 1.388 . S
C204 C203 1.366 . S
C204 C208 1.385 . S
C205 H186 0.951 . S
C205 C203 1.388 . S
C205 C206 1.366 . S
C206 C205 1.366 . S
C206 C207 1.414 . S
C206 C209 1.499 . S
C207 H187 0.950 . S
C207 C206 1.414 . S
C207 C208 1.374 . S
C208 H188 0.950 . S
C208 C204 1.385 . S
C208 C207 1.374 . S
C209 C206 1.499 . S
C209 C210 1.373 . S
C209 C211 1.389 . S
C210 H189 0.950 . S
C210 C209 1.373 . S
C210 C226 1.377 . S
C211 C209 1.389 . S
C211 C212 1.524 . S
C211 C225 1.377 . S
C212 C211 1.524 . S
C212 C213 1.397 . S
C212 C217 1.363 . S
C213 H190 0.950 . S
C213 C212 1.397 . S
C213 C214 1.334 . S
C214 H191 0.950 . S
C214 C213 1.334 . S
C214 C215 1.287 . S
C215 C214 1.287 . S
C215 C216 1.524 . S
C215 H234 0.913 . S
C216 H192 0.950 . S
C216 C215 1.524 . S
C216 C217 1.415 . S
C217 H193 0.950 . S
C217 C212 1.363 . S
C217 C216 1.415 . S
C218 H194 0.951 . S
C218 C219 1.366 . S
C218 C220 1.388 . S
C219 C218 1.366 . S
C219 C223 1.385 . S
C220 H195 0.951 . S
C220 C218 1.388 . S
C220 C221 1.366 . S
C221 C220 1.366 . S
C221 C222 1.414 . S
C221 C224 1.499 . S
C222 H196 0.950 . S
C222 C221 1.414 . S
C222 C223 1.374 . S
C223 H197 0.950 . S
C223 C219 1.385 . S
C223 C222 1.374 . S
C224 C221 1.499 . S
C224 C225 1.373 . S
C224 C226 1.389 . S
C225 H198 0.950 . S
C225 C211 1.377 . S
C225 C224 1.373 . S
C226 C210 1.377 . S
C226 C224 1.389 . S
C226 C227 1.524 . S
C227 C226 1.524 . S
C227 C228 1.397 . S
C227 C232 1.363 . S
C228 H199 0.950 . S
C228 C227 1.397 . S
C228 C229 1.334 . S
C229 H200 0.950 . S
C229 C228 1.334 . S
C229 C230 1.287 . S
C230 C229 1.287 . S
C230 C231 1.524 . S
C230 H233 0.999 . S
C231 H201 0.950 . S
C231 C230 1.524 . S
C231 C232 1.415 . S
C232 H202 0.950 . S
C232 C227 1.363 . S
C232 C231 1.415 . S
H233 C230 0.999 . S
H234 C215 0.913 . S
H235 C253 0.951 . S
H236 C255 0.951 . S
H237 C257 0.950 . S
H238 C258 0.950 . S
H239 C260 0.950 . S
H240 C263 0.950 . S
H241 C264 0.950 . S
H242 C266 0.950 . S
H243 C267 0.950 . S
H244 C268 0.951 . S
H245 C270 0.951 . S
H246 C272 0.950 . S
H247 C273 0.950 . S
H248 C275 0.950 . S
H249 C278 0.950 . S
H250 C279 0.950 . S
H251 C281 0.950 . S
H252 C282 0.950 . S
C253 H235 0.951 . S
C253 C254 1.366 . S
C253 C255 1.388 . S
C254 C253 1.366 . S
C254 C258 1.385 . S
C255 H236 0.951 . S
C255 C253 1.388 . S
C255 C256 1.366 . S
C256 C255 1.366 . S
C256 C257 1.414 . S
C256 C259 1.499 . S
C257 H237 0.950 . S
C257 C256 1.414 . S
C257 C258 1.374 . S
C258 H238 0.950 . S
C258 C254 1.385 . S
C258 C257 1.374 . S
C259 C256 1.499 . S
C259 C260 1.373 . S
C259 C261 1.389 . S
C260 H239 0.950 . S
C260 C259 1.373 . S
C260 C276 1.377 . S
C261 C259 1.389 . S
C261 C262 1.524 . S
C261 C275 1.377 . S
C262 C261 1.524 . S
C262 C263 1.397 . S
C262 C267 1.363 . S
C263 H240 0.950 . S
C263 C262 1.397 . S
C263 C264 1.334 . S
C264 H241 0.950 . S
C264 C263 1.334 . S
C264 C265 1.287 . S
C265 C264 1.287 . S
C265 C266 1.524 . S
C265 H284 0.913 . S
C266 H242 0.950 . S
C266 C265 1.524 . S
C266 C267 1.415 . S
C267 H243 0.950 . S
C267 C262 1.363 . S
C267 C266 1.415 . S
C268 H244 0.951 . S
C268 C269 1.366 . S
C268 C270 1.388 . S
C269 C268 1.366 . S
C269 C273 1.385 . S
C270 H245 0.951 . S
C270 C268 1.388 . S
C270 C271 1.366 . S
C271 C270 1.366 . S
C271 C272 1.414 . S
C271 C274 1.499 . S
C272 H246 0.950 . S
C272 C271 1.414 . S
C272 C273 1.374 . S
C273 H247 0.950 . S
C273 C269 1.385 . S
C273 C272 1.374 . S
C274 C271 1.499 . S
C274 C275 1.373 . S
C274 C276 1.389 . S
C275 H248 0.950 . S
C275 C261 1.377 . S
C275 C274 1.373 . S
C276 C260 1.377 . S
C276 C274 1.389 . S
C276 C277 1.524 . S
C277 C276 1.524 . S
C277 C278 1.397 . S
C277 C282 1.363 . S
C278 H249 0.950 . S
C278 C277 1.397 . S
C278 C279 1.334 . S
C279 H250 0.950 . S
C279 C278 1.334 . S
C279 C280 1.287 . S
C280 C279 1.287 . S
C280 C281 1.524 . S
C280 H283 0.999 . S
C281 H251 0.950 . S
C281 C280 1.524 . S
C281 C282 1.415 . S
C282 H252 0.950 . S
C282 C277 1.363 . S
C282 C281 1.415 . S
H283 C280 0.999 . S
H284 C265 0.913 . S
H285 C303 0.951 . S
H286 C305 0.951 . S
H287 C307 0.950 . S
H288 C308 0.950 . S
H289 C310 0.950 . S
H290 C313 0.950 . S
H291 C314 0.950 . S
H292 C316 0.950 . S
H293 C317 0.950 . S
H294 C318 0.951 . S
H295 C320 0.951 . S
H296 C322 0.950 . S
H297 C323 0.950 . S
H298 C325 0.950 . S
H299 C328 0.950 . S
H300 C329 0.950 . S
H301 C331 0.950 . S
H302 C332 0.950 . S
C303 H285 0.951 . S
C303 C304 1.366 . S
C303 C305 1.388 . S
C304 C303 1.366 . S
C304 C308 1.385 . S
C305 H286 0.951 . S
C305 C303 1.388 . S
C305 C306 1.366 . S
C306 C305 1.366 . S
C306 C307 1.414 . S
C306 C309 1.499 . S
C307 H287 0.950 . S
C307 C306 1.414 . S
C307 C308 1.374 . S
C308 H288 0.950 . S
C308 C304 1.385 . S
C308 C307 1.374 . S
C309 C306 1.499 . S
C309 C310 1.373 . S
C309 C311 1.389 . S
C310 H289 0.950 . S
C310 C309 1.373 . S
C310 C326 1.377 . S
C311 C309 1.389 . S
C311 C312 1.524 . S
C311 C325 1.377 . S
C312 C311 1.524 . S
C312 C313 1.397 . S
C312 C317 1.363 . S
C313 H290 0.950 . S
C313 C312 1.397 . S
C313 C314 1.334 . S
C314 H291 0.950 . S
C314 C313 1.334 . S
C314 C315 1.287 . S
C315 C314 1.287 . S
C315 C316 1.524 . S
C315 H334 0.913 . S
C316 H292 0.950 . S
C316 C315 1.524 . S
C316 C317 1.415 . S
C317 H293 0.950 . S
C317 C312 1.363 . S
C317 C316 1.415 . S
C318 H294 0.951 . S
C318 C319 1.366 . S
C318 C320 1.388 . S
C319 C318 1.366 . S
C319 C323 1.385 . S
C320 H295 0.951 . S
C320 C318 1.388 . S
C320 C321 1.366 . S
C321 C320 1.366 . S
C321 C322 1.414 . S
C321 C324 1.499 . S
C322 H296 0.950 . S
C322 C321 1.414 . S
C322 C323 1.374 . S
C323 H297 0.950 . S
C323 C319 1.385 . S
C323 C322 1.374 . S
C324 C321 1.499 . S
C324 C325 1.373 . S
C324 C326 1.389 . S
C325 H298 0.950 . S
C325 C311 1.377 . S
C325 C324 1.373 . S
C326 C310 1.377 . S
C326 C324 1.389 . S
C326 C327 1.524 . S
C327 C326 1.524 . S
C327 C328 1.397 . S
C327 C332 1.363 . S
C328 H299 0.950 . S
C328 C327 1.397 . S
C328 C329 1.334 . S
C329 H300 0.950 . S
C329 C328 1.334 . S
C329 C330 1.287 . S
C330 C329 1.287 . S
C330 C331 1.524 . S
C330 H333 0.999 . S
C331 H301 0.950 . S
C331 C330 1.524 . S
C331 C332 1.415 . S
C332 H302 0.950 . S
C332 C327 1.363 . S
C332 C331 1.415 . S
H333 C330 0.999 . S
H334 C315 0.913 . S
H335 C353 0.951 . S
H336 C355 0.951 . S
H337 C357 0.950 . S
H338 C358 0.950 . S
H339 C360 0.950 . S
H340 C363 0.950 . S
H341 C364 0.950 . S
H342 C366 0.950 . S
H343 C367 0.950 . S
H344 C368 0.951 . S
H345 C370 0.951 . S
H346 C372 0.950 . S
H347 C373 0.950 . S
H348 C375 0.950 . S
H349 C378 0.950 . S
H350 C379 0.950 . S
H351 C381 0.950 . S
H352 C382 0.950 . S
C353 H335 0.951 . S
C353 C354 1.366 . S
C353 C355 1.388 . S
C354 C353 1.366 . S
C354 C358 1.385 . S
C355 H336 0.951 . S
C355 C353 1.388 . S
C355 C356 1.366 . S
C356 C355 1.366 . S
C356 C357 1.414 . S
C356 C359 1.499 . S
C357 H337 0.950 . S
C357 C356 1.414 . S
C357 C358 1.374 . S
C358 H338 0.950 . S
C358 C354 1.385 . S
C358 C357 1.374 . S
C359 C356 1.499 . S
C359 C360 1.373 . S
C359 C361 1.389 . S
C360 H339 0.950 . S
C360 C359 1.373 . S
C360 C376 1.377 . S
C361 C359 1.389 . S
C361 C362 1.524 . S
C361 C375 1.377 . S
C362 C361 1.524 . S
C362 C363 1.397 . S
C362 C367 1.363 . S
C363 H340 0.950 . S
C363 C362 1.397 . S
C363 C364 1.334 . S
C364 H341 0.950 . S
C364 C363 1.334 . S
C364 C365 1.287 . S
C365 C364 1.287 . S
C365 C366 1.524 . S
C365 H384 0.913 . S
C366 H342 0.950 . S
C366 C365 1.524 . S
C366 C367 1.415 . S
C367 H343 0.950 . S
C367 C362 1.363 . S
C367 C366 1.415 . S
C368 H344 0.951 . S
C368 C369 1.366 . S
C368 C370 1.388 . S
C369 C368 1.366 . S
C369 C373 1.385 . S
C370 H345 0.951 . S
C370 C368 1.388 . S
C370 C371 1.366 . S
C371 C370 1.366 . S
C371 C372 1.414 . S
C371 C374 1.499 . S
C372 H346 0.950 . S
C372 C371 1.414 . S
C372 C373 1.374 . S
C373 H347 0.950 . S
C373 C369 1.385 . S
C373 C372 1.374 . S
C374 C371 1.499 . S
C374 C375 1.373 . S
C374 C376 1.389 . S
C375 H348 0.950 . S
C375 C361 1.377 . S
C375 C374 1.373 . S
C376 C360 1.377 . S
C376 C374 1.389 . S
C376 C377 1.524 . S
C377 C376 1.524 . S
C377 C378 1.397 . S
C377 C382 1.363 . S
C378 H349 0.950 . S
C378 C377 1.397 . S
C378 C379 1.334 . S
C379 H350 0.950 . S
C379 C378 1.334 . S
C379 C380 1.287 . S
C380 C379 1.287 . S
C380 C381 1.524 . S
C380 H383 0.999 . S
C381 H351 0.950 . S
C381 C380 1.524 . S
C381 C382 1.415 . S
C382 H352 0.950 . S
C382 C377 1.363 . S
C382 C381 1.415 . S
H383 C380 0.999 . S
H384 C365 0.913 . S
H385 C403 0.951 . S
H386 C405 0.951 . S
H387 C407 0.950 . S
H388 C408 0.950 . S
H389 C410 0.950 . S
H390 C413 0.950 . S
H391 C414 0.950 . S
H392 C416 0.950 . S
H393 C417 0.950 . S
H394 C418 0.951 . S
H395 C420 0.951 . S
H396 C422 0.950 . S
H397 C423 0.950 . S
H398 C425 0.950 . S
H399 C428 0.950 . S
H400 C429 0.950 . S
H401 C431 0.950 . S
H402 C432 0.950 . S
C403 H385 0.951 . S
C403 C404 1.366 . S
C403 C405 1.388 . S
C404 C403 1.366 . S
C404 C408 1.385 . S
C405 H386 0.951 . S
C405 C403 1.388 . S
C405 C406 1.366 . S
C406 C405 1.366 . S
C406 C407 1.414 . S
C406 C409 1.499 . S
C407 H387 0.950 . S
C407 C406 1.414 . S
C407 C408 1.374 . S
C408 H388 0.950 . S
C408 C404 1.385 . S
C408 C407 1.374 . S
C409 C406 1.499 . S
C409 C410 1.373 . S
C409 C411 1.389 . S
C410 H389 0.950 . S
C410 C409 1.373 . S
C410 C426 1.377 . S
C411 C409 1.389 . S
C411 C412 1.524 . S
C411 C425 1.377 . S
C412 C411 1.524 . S
C412 C413 1.397 . S
C412 C417 1.363 . S
C413 H390 0.950 . S
C413 C412 1.397 . S
C413 C414 1.334 . S
C414 H391 0.950 . S
C414 C413 1.334 . S
C414 C415 1.287 . S
C415 C414 1.287 . S
C415 C416 1.524 . S
C415 H434 0.913 . S
C416 H392 0.950 . S
C416 C415 1.524 . S
C416 C417 1.415 . S
C417 H393 0.950 . S
C417 C412 1.363 . S
C417 C416 1.415 . S
C418 H394 0.951 . S
C418 C419 1.366 . S
C418 C420 1.388 . S
C419 C418 1.366 . S
C419 C423 1.385 . S
C420 H395 0.951 . S
C420 C418 1.388 . S
C420 C421 1.366 . S
C421 C420 1.366 . S
C421 C422 1.414 . S
C421 C424 1.499 . S
C422 H396 0.950 . S
C422 C421 1.414 . S
C422 C423 1.374 . S
C423 H397 0.950 . S
C423 C419 1.385 . S
C423 C422 1.374 . S
C424 C421 1.499 . S
C424 C425 1.373 . S
C424 C426 1.389 . S
C425 H398 0.950 . S
C425 C411 1.377 . S
C425 C424 1.373 . S
C426 C410 1.377 . S
C426 C424 1.389 . S
C426 C427 1.524 . S
C427 C426 1.524 . S
C427 C428 1.397 . S
C427 C432 1.363 . S
C428 H399 0.950 . S
C428 C427 1.397 . S
C428 C429 1.334 . S
C429 H400 0.950 . S
C429 C428 1.334 . S
C429 C430 1.287 . S
C430 C429 1.287 . S
C430 C431 1.524 . S
C430 H433 0.999 . S
C431 H401 0.950 . S
C431 C430 1.524 . S
C431 C432 1.415 . S
C432 H402 0.950 . S
C432 C427 1.363 . S
C432 C431 1.415 . S
H433 C430 0.999 . S
H434 C415 0.913 . S
H435 C453 0.951 . S
H436 C455 0.951 . S
H437 C457 0.950 . S
H438 C458 0.950 . S
H439 C460 0.950 . S
H440 C463 0.950 . S
H441 C464 0.950 . S
H442 C466 0.950 . S
H443 C467 0.950 . S
H444 C468 0.951 . S
H445 C470 0.951 . S
H446 C472 0.950 . S
H447 C473 0.950 . S
H448 C475 0.950 . S
H449 C478 0.950 . S
H450 C479 0.950 . S
H451 C481 0.950 . S
H452 C482 0.950 . S
C453 H435 0.951 . S
C453 C454 1.366 . S
C453 C455 1.388 . S
C454 C453 1.366 . S
C454 C458 1.385 . S
C455 H436 0.951 . S
C455 C453 1.388 . S
C455 C456 1.366 . S
C456 C455 1.366 . S
C456 C457 1.414 . S
C456 C459 1.499 . S
C457 H437 0.950 . S
C457 C456 1.414 . S
C457 C458 1.374 . S
C458 H438 0.950 . S
C458 C454 1.385 . S
C458 C457 1.374 . S
C459 C456 1.499 . S
C459 C460 1.373 . S
C459 C461 1.389 . S
C460 H439 0.950 . S
C460 C459 1.373 . S
C460 C476 1.377 . S
C461 C459 1.389 . S
C461 C462 1.524 . S
C461 C475 1.377 . S
C462 C461 1.524 . S
C462 C463 1.397 . S
C462 C467 1.363 . S
C463 H440 0.950 . S
C463 C462 1.397 . S
C463 C464 1.334 . S
C464 H441 0.950 . S
C464 C463 1.334 . S
C464 C465 1.287 . S
C465 C464 1.287 . S
C465 C466 1.524 . S
C465 H484 0.913 . S
C466 H442 0.950 . S
C466 C465 1.524 . S
C466 C467 1.415 . S
C467 H443 0.950 . S
C467 C462 1.363 . S
C467 C466 1.415 . S
C468 H444 0.951 . S
C468 C469 1.366 . S
C468 C470 1.388 . S
C469 C468 1.366 . S
C469 C473 1.385 . S
C470 H445 0.951 . S
C470 C468 1.388 . S
C470 C471 1.366 . S
C471 C470 1.366 . S
C471 C472 1.414 . S
C471 C474 1.499 . S
C472 H446 0.950 . S
C472 C471 1.414 . S
C472 C473 1.374 . S
C473 H447 0.950 . S
C473 C469 1.385 . S
C473 C472 1.374 . S
C474 C471 1.499 . S
C474 C475 1.373 . S
C474 C476 1.389 . S
C475 H448 0.950 . S
C475 C461 1.377 . S
C475 C474 1.373 . S
C476 C460 1.377 . S
C476 C474 1.389 . S
C476 C477 1.524 . S
C477 C476 1.524 . S
C477 C478 1.397 . S
C477 C482 1.363 . S
C478 H449 0.950 . S
C478 C477 1.397 . S
C478 C479 1.334 . S
C479 H450 0.950 . S
C479 C478 1.334 . S
C479 C480 1.287 . S
C480 C479 1.287 . S
C480 C481 1.524 . S
C480 H483 0.999 . S
C481 H451 0.950 . S
C481 C480 1.524 . S
C481 C482 1.415 . S
C482 H452 0.950 . S
C482 C477 1.363 . S
C482 C481 1.415 . S
H483 C480 0.999 . S
H484 C465 0.913 . S
H485 C503 0.951 . S
H486 C505 0.951 . S
H487 C507 0.950 . S
H488 C508 0.950 . S
H489 C510 0.950 . S
H490 C513 0.950 . S
H491 C514 0.950 . S
H492 C516 0.950 . S
H493 C517 0.950 . S
H494 C518 0.951 . S
H495 C520 0.951 . S
H496 C522 0.950 . S
H497 C523 0.950 . S
H498 C525 0.950 . S
H499 C528 0.950 . S
H500 C529 0.950 . S
H501 C531 0.950 . S
H502 C532 0.950 . S
C503 H485 0.951 . S
C503 C504 1.366 . S
C503 C505 1.388 . S
C504 C503 1.366 . S
C504 C508 1.385 . S
C505 H486 0.951 . S
C505 C503 1.388 . S
C505 C506 1.366 . S
C506 C505 1.366 . S
C506 C507 1.414 . S
C506 C509 1.499 . S
C507 H487 0.950 . S
C507 C506 1.414 . S
C507 C508 1.374 . S
C508 H488 0.950 . S
C508 C504 1.385 . S
C508 C507 1.374 . S
C509 C506 1.499 . S
C509 C510 1.373 . S
C509 C511 1.389 . S
C510 H489 0.950 . S
C510 C509 1.373 . S
C510 C526 1.377 . S
C511 C509 1.389 . S
C511 C512 1.524 . S
C511 C525 1.377 . S
C512 C511 1.524 . S
C512 C513 1.397 . S
C512 C517 1.363 . S
C513 H490 0.950 . S
C513 C512 1.397 . S
C513 C514 1.334 . S
C514 H491 0.950 . S
C514 C513 1.334 . S
C514 C515 1.287 . S
C515 C514 1.287 . S
C515 C516 1.524 . S
C515 H534 0.913 . S
C516 H492 0.950 . S
C516 C515 1.524 . S
C516 C517 1.415 . S
C517 H493 0.950 . S
C517 C512 1.363 . S
C517 C516 1.415 . S
C518 H494 0.951 . S
C518 C519 1.366 . S
C518 C520 1.388 . S
C519 C518 1.366 . S
C519 C523 1.385 . S
C520 H495 0.951 . S
C520 C518 1.388 . S
C520 C521 1.366 . S
C521 C520 1.366 . S
C521 C522 1.414 . S
C521 C524 1.499 . S
C522 H496 0.950 . S
C522 C521 1.414 . S
C522 C523 1.374 . S
C523 H497 0.950 . S
C523 C519 1.385 . S
C523 C522 1.374 . S
C524 C521 1.499 . S
C524 C525 1.373 . S
C524 C526 1.389 . S
C525 H498 0.950 . S
C525 C511 1.377 . S
C525 C524 1.373 . S
C526 C510 1.377 . S
C526 C524 1.389 . S
C526 C527 1.524 . S
C527 C526 1.524 . S
C527 C528 1.397 . S
C527 C532 1.363 . S
C528 H499 0.950 . S
C528 C527 1.397 . S
C528 C529 1.334 . S
C529 H500 0.950 . S
C529 C528 1.334 . S
C529 C530 1.287 . S
C530 C529 1.287 . S
C530 C531 1.524 . S
C530 H533 0.999 . S
C531 H501 0.950 . S
C531 C530 1.524 . S
C531 C532 1.415 . S
C532 H502 0.950 . S
C532 C527 1.363 . S
C532 C531 1.415 . S
H533 C530 0.999 . S
H534 C515 0.913 . S
H535 C553 0.951 . S
H536 C555 0.951 . S
H537 C557 0.950 . S
H538 C558 0.950 . S
H539 C560 0.950 . S
H540 C563 0.950 . S
H541 C564 0.950 . S
H542 C566 0.950 . S
H543 C567 0.950 . S
H544 C568 0.951 . S
H545 C570 0.951 . S
H546 C572 0.950 . S
H547 C573 0.950 . S
H548 C575 0.950 . S
H549 C578 0.950 . S
H550 C579 0.950 . S
H551 C581 0.950 . S
H552 C582 0.950 . S
C553 H535 0.951 . S
C553 C554 1.366 . S
C553 C555 1.388 . S
C554 C553 1.366 . S
C554 C558 1.385 . S
C555 H536 0.951 . S
C555 C553 1.388 . S
C555 C556 1.366 . S
C556 C555 1.366 . S
C556 C557 1.414 . S
C556 C559 1.499 . S
C557 H537 0.950 . S
C557 C556 1.414 . S
C557 C558 1.374 . S
C558 H538 0.950 . S
C558 C554 1.385 . S
C558 C557 1.374 . S
C559 C556 1.499 . S
C559 C560 1.373 . S
C559 C561 1.389 . S
C560 H539 0.950 . S
C560 C559 1.373 . S
C560 C576 1.377 . S
C561 C559 1.389 . S
C561 C562 1.524 . S
C561 C575 1.377 . S
C562 C561 1.524 . S
C562 C563 1.397 . S
C562 C567 1.363 . S
C563 H540 0.950 . S
C563 C562 1.397 . S
C563 C564 1.334 . S
C564 H541 0.950 . S
C564 C563 1.334 . S
C564 C565 1.287 . S
C565 C564 1.287 . S
C565 C566 1.524 . S
C565 H584 0.913 . S
C566 H542 0.950 . S
C566 C565 1.524 . S
C566 C567 1.415 . S
C567 H543 0.950 . S
C567 C562 1.363 . S
C567 C566 1.415 . S
C568 H544 0.951 . S
C568 C569 1.366 . S
C568 C570 1.388 . S
C569 C568 1.366 . S
C569 C573 1.385 . S
C570 H545 0.951 . S
C570 C568 1.388 . S
C570 C571 1.366 . S
C571 C570 1.366 . S
C571 C572 1.414 . S
C571 C574 1.499 . S
C572 H546 0.950 . S
C572 C571 1.414 . S
C572 C573 1.374 . S
C573 H547 0.950 . S
C573 C569 1.385 . S
C573 C572 1.374 . S
C574 C571 1.499 . S
C574 C575 1.373 . S
C574 C576 1.389 . S
C575 H548 0.950 . S
C575 C561 1.377 . S
C575 C574 1.373 . S
C576 C560 1.377 . S
C576 C574 1.389 . S
C576 C577 1.524 . S
C577 C576 1.524 . S
C577 C578 1.397 . S
C577 C582 1.363 . S
C578 H549 0.950 . S
C578 C577 1.397 . S
C578 C579 1.334 . S
C579 H550 0.950 . S
C579 C578 1.334 . S
C579 C580 1.287 . S
C580 C579 1.287 . S
C580 C581 1.524 . S
C580 H583 0.999 . S
C581 H551 0.950 . S
C581 C580 1.524 . S
C581 C582 1.415 . S
C582 H552 0.950 . S
C582 C577 1.363 . S
C582 C581 1.415 . S
H583 C580 0.999 . S
H584 C565 0.913 . S
H585 C603 0.951 . S
H586 C605 0.951 . S
H587 C607 0.950 . S
H588 C608 0.950 . S
H589 C610 0.950 . S
H590 C613 0.950 . S
H591 C614 0.950 . S
H592 C616 0.950 . S
H593 C617 0.950 . S
H594 C618 0.951 . S
H595 C620 0.951 . S
H596 C622 0.950 . S
H597 C623 0.950 . S
H598 C625 0.950 . S
H599 C628 0.950 . S
H600 C629 0.950 . S
H601 C631 0.950 . S
H602 C632 0.950 . S
C603 H585 0.951 . S
C603 C604 1.366 . S
C603 C605 1.388 . S
C604 C603 1.366 . S
C604 C608 1.385 . S
C605 H586 0.951 . S
C605 C603 1.388 . S
C605 C606 1.366 . S
C606 C605 1.366 . S
C606 C607 1.414 . S
C606 C609 1.499 . S
C607 H587 0.950 . S
C607 C606 1.414 . S
C607 C608 1.374 . S
C608 H588 0.950 . S
C608 C604 1.385 . S
C608 C607 1.374 . S
C609 C606 1.499 . S
C609 C610 1.373 . S
C609 C611 1.389 . S
C610 H589 0.950 . S
C610 C609 1.373 . S
C610 C626 1.377 . S
C611 C609 1.389 . S
C611 C612 1.524 . S
C611 C625 1.377 . S
C612 C611 1.524 . S
C612 C613 1.397 . S
C612 C617 1.363 . S
C613 H590 0.950 . S
C613 C612 1.397 . S
C613 C614 1.334 . S
C614 H591 0.950 . S
C614 C613 1.334 . S
C614 C615 1.287 . S
C615 C614 1.287 . S
C615 C616 1.524 . S
C615 H634 0.913 . S
C616 H592 0.950 . S
C616 C615 1.524 . S
C616 C617 1.415 . S
C617 H593 0.950 . S
C617 C612 1.363 . S
C617 C616 1.415 . S
C618 H594 0.951 . S
C618 C619 1.366 . S
C618 C620 1.388 . S
C619 C618 1.366 . S
C619 C623 1.385 . S
C620 H595 0.951 . S
C620 C618 1.388 . S
C620 C621 1.366 . S
C621 C620 1.366 . S
C621 C622 1.414 . S
C621 C624 1.499 . S
C622 H596 0.950 . S
C622 C621 1.414 . S
C622 C623 1.374 . S
C623 H597 0.950 . S
C623 C619 1.385 . S
C623 C622 1.374 . S
C624 C621 1.499 . S
C624 C625 1.373 . S
C624 C626 1.389 . S
C625 H598 0.950 . S
C625 C611 1.377 . S
C625 C624 1.373 . S
C626 C610 1.377 . S
C626 C624 1.389 . S
C626 C627 1.524 . S
C627 C626 1.524 . S
C627 C628 1.397 . S
C627 C632 1.363 . S
C628 H599 0.950 . S
C628 C627 1.397 . S
C628 C629 1.334 . S
C629 H600 0.950 . S
C629 C628 1.334 . S
C629 C630 1.287 . S
C630 C629 1.287 . S
C630 C631 1.524 . S
C630 H633 0.999 . S
C631 H601 0.950 . S
C631 C630 1.524 . S
C631 C632 1.415 . S
C632 H602 0.950 . S
C632 C627 1.363 . S
C632 C631 1.415 . S
H633 C630 0.999 . S
H634 C615 0.913 . S
H635 C653 0.951 . S
H636 C655 0.951 . S
H637 C657 0.950 . S
H638 C658 0.950 . S
H639 C660 0.950 . S
H640 C663 0.950 . S
H641 C664 0.950 . S
H642 C666 0.950 . S
H643 C667 0.950 . S
H644 C668 0.951 . S
H645 C670 0.951 . S
H646 C672 0.950 . S
H647 C673 0.950 . S
H648 C675 0.950 . S
H649 C678 0.950 . S
H650 C679 0.950 . S
H651 C681 0.950 . S
H652 C682 0.950 . S
C653 H635 0.951 . S
C653 C654 1.366 . S
C653 C655 1.388 . S
C654 C653 1.366 . S
C654 C658 1.385 . S
C655 H636 0.951 . S
C655 C653 1.388 . S
C655 C656 1.366 . S
C656 C655 1.366 . S
C656 C657 1.414 . S
C656 C659 1.499 . S
C657 H637 0.950 . S
C657 C656 1.414 . S
C657 C658 1.374 . S
C658 H638 0.950 . S
C658 C654 1.385 . S
C658 C657 1.374 . S
C659 C656 1.499 . S
C659 C660 1.373 . S
C659 C661 1.389 . S
C660 H639 0.950 . S
C660 C659 1.373 . S
C660 C676 1.377 . S
C661 C659 1.389 . S
C661 C662 1.524 . S
C661 C675 1.377 . S
C662 C661 1.524 . S
C662 C663 1.397 . S
C662 C667 1.363 . S
C663 H640 0.950 . S
C663 C662 1.397 . S
C663 C664 1.334 . S
C664 H641 0.950 . S
C664 C663 1.334 . S
C664 C665 1.287 . S
C665 C664 1.287 . S
C665 C666 1.524 . S
C665 H684 0.913 . S
C666 H642 0.950 . S
C666 C665 1.524 . S
C666 C667 1.415 . S
C667 H643 0.950 . S
C667 C662 1.363 . S
C667 C666 1.415 . S
C668 H644 0.951 . S
C668 C669 1.366 . S
C668 C670 1.388 . S
C669 C668 1.366 . S
C669 C673 1.385 . S
C670 H645 0.951 . S
C670 C668 1.388 . S
C670 C671 1.366 . S
C671 C670 1.366 . S
C671 C672 1.414 . S
C671 C674 1.499 . S
C672 H646 0.950 . S
C672 C671 1.414 . S
C672 C673 1.374 . S
C673 H647 0.950 . S
C673 C669 1.385 . S
C673 C672 1.374 . S
C674 C671 1.499 . S
C674 C675 1.373 . S
C674 C676 1.389 . S
C675 H648 0.950 . S
C675 C661 1.377 . S
C675 C674 1.373 . S
C676 C660 1.377 . S
C676 C674 1.389 . S
C676 C677 1.524 . S
C677 C676 1.524 . S
C677 C678 1.397 . S
C677 C682 1.363 . S
C678 H649 0.950 . S
C678 C677 1.397 . S
C678 C679 1.334 . S
C679 H650 0.950 . S
C679 C678 1.334 . S
C679 C680 1.287 . S
C680 C679 1.287 . S
C680 C681 1.524 . S
C680 H683 0.999 . S
C681 H651 0.950 . S
C681 C680 1.524 . S
C681 C682 1.415 . S
C682 H652 0.950 . S
C682 C677 1.363 . S
C682 C681 1.415 . S
H683 C680 0.999 . S
H684 C665 0.913 . S
H685 C703 0.951 . S
H686 C705 0.951 . S
H687 C707 0.950 . S
H688 C708 0.950 . S
H689 C710 0.950 . S
H690 C713 0.950 . S
H691 C714 0.950 . S
H692 C716 0.950 . S
H693 C717 0.950 . S
H694 C718 0.951 . S
H695 C720 0.951 . S
H696 C722 0.950 . S
H697 C723 0.950 . S
H698 C725 0.950 . S
H699 C728 0.950 . S
H700 C729 0.950 . S
H701 C731 0.950 . S
H702 C732 0.950 . S
C703 H685 0.951 . S
C703 C704 1.366 . S
C703 C705 1.388 . S
C704 C703 1.366 . S
C704 C708 1.385 . S
C705 H686 0.951 . S
C705 C703 1.388 . S
C705 C706 1.366 . S
C706 C705 1.366 . S
C706 C707 1.414 . S
C706 C709 1.499 . S
C707 H687 0.950 . S
C707 C706 1.414 . S
C707 C708 1.374 . S
C708 H688 0.950 . S
C708 C704 1.385 . S
C708 C707 1.374 . S
C709 C706 1.499 . S
C709 C710 1.373 . S
C709 C711 1.389 . S
C710 H689 0.950 . S
C710 C709 1.373 . S
C710 C726 1.377 . S
C711 C709 1.389 . S
C711 C712 1.524 . S
C711 C725 1.377 . S
C712 C711 1.524 . S
C712 C713 1.397 . S
C712 C717 1.363 . S
C713 H690 0.950 . S
C713 C712 1.397 . S
C713 C714 1.334 . S
C714 H691 0.950 . S
C714 C713 1.334 . S
C714 C715 1.287 . S
C715 C714 1.287 . S
C715 C716 1.524 . S
C715 H734 0.913 . S
C716 H692 0.950 . S
C716 C715 1.524 . S
C716 C717 1.415 . S
C717 H693 0.950 . S
C717 C712 1.363 . S
C717 C716 1.415 . S
C718 H694 0.951 . S
C718 C719 1.366 . S
C718 C720 1.388 . S
C719 C718 1.366 . S
C719 C723 1.385 . S
C720 H695 0.951 . S
C720 C718 1.388 . S
C720 C721 1.366 . S
C721 C720 1.366 . S
C721 C722 1.414 . S
C721 C724 1.499 . S
C722 H696 0.950 . S
C722 C721 1.414 . S
C722 C723 1.374 . S
C723 H697 0.950 . S
C723 C719 1.385 . S
C723 C722 1.374 . S
C724 C721 1.499 . S
C724 C725 1.373 . S
C724 C726 1.389 . S
C725 H698 0.950 . S
C725 C711 1.377 . S
C725 C724 1.373 . S
C726 C710 1.377 . S
C726 C724 1.389 . S
C726 C727 1.524 . S
C727 C726 1.524 . S
C727 C728 1.397 . S
C727 C732 1.363 . S
C728 H699 0.950 . S
C728 C727 1.397 . S
C728 C729 1.334 . S
C729 H700 0.950 . S
C729 C728 1.334 . S
C729 C730 1.287 . S
C730 C729 1.287 . S
C730 C731 1.524 . S
C730 H733 0.999 . S
C731 H701 0.950 . S
C731 C730 1.524 . S
C731 C732 1.415 . S
C732 H702 0.950 . S
C732 C727 1.363 . S
C732 C731 1.415 . S
H733 C730 0.999 . S
H734 C715 0.913 . S
H735 C753 0.951 . S
H736 C755 0.951 . S
H737 C757 0.950 . S
H738 C758 0.950 . S
H739 C760 0.950 . S
H740 C763 0.950 . S
H741 C764 0.950 . S
H742 C766 0.950 . S
H743 C767 0.950 . S
H744 C768 0.951 . S
H745 C770 0.951 . S
H746 C772 0.950 . S
H747 C773 0.950 . S
H748 C775 0.950 . S
H749 C778 0.950 . S
H750 C779 0.950 . S
H751 C781 0.950 . S
H752 C782 0.950 . S
C753 H735 0.951 . S
C753 C754 1.366 . S
C753 C755 1.388 . S
C754 C753 1.366 . S
C754 C758 1.385 1_455 S
C755 H736 0.951 . S
C755 C753 1.388 . S
C755 C756 1.366 . S
C756 C755 1.366 . S
C756 C757 1.414 1_455 S
C756 C759 1.499 . S
C757 H737 0.950 . S
C757 C756 1.414 1_655 S
C757 C758 1.374 . S
C758 H738 0.950 . S
C758 C754 1.385 1_655 S
C758 C757 1.374 . S
C759 C756 1.499 . S
C759 C760 1.373 1_455 S
C759 C761 1.389 . S
C760 H739 0.950 . S
C760 C759 1.373 1_655 S
C760 C776 1.377 . S
C761 C759 1.389 . S
C761 C762 1.524 . S
C761 C775 1.377 . S
C762 C761 1.524 . S
C762 C763 1.397 . S
C762 C767 1.363 . S
C763 H740 0.950 . S
C763 C762 1.397 . S
C763 C764 1.334 . S
C764 H741 0.950 . S
C764 C763 1.334 . S
C764 C765 1.287 . S
C765 C764 1.287 . S
C765 C766 1.524 . S
C765 H784 0.913 . S
C766 H742 0.950 . S
C766 C765 1.524 . S
C766 C767 1.415 . S
C767 H743 0.950 . S
C767 C762 1.363 . S
C767 C766 1.415 . S
C768 H744 0.951 . S
C768 C769 1.366 1_655 S
C768 C770 1.388 . S
C769 C768 1.366 1_455 S
C769 C773 1.385 . S
C770 H745 0.951 . S
C770 C768 1.388 . S
C770 C771 1.366 1_655 S
C771 C770 1.366 1_455 S
C771 C772 1.414 . S
C771 C774 1.499 1_556 S
C772 H746 0.950 . S
C772 C771 1.414 . S
C772 C773 1.374 . S
C773 H747 0.950 . S
C773 C769 1.385 . S
C773 C772 1.374 . S
C774 C771 1.499 1_554 S
C774 C775 1.373 . S
C774 C776 1.389 1_455 S
C775 H748 0.950 . S
C775 C761 1.377 . S
C775 C774 1.373 . S
C776 C760 1.377 . S
C776 C774 1.389 1_655 S
C776 C777 1.524 . S
C777 C776 1.524 . S
C777 C778 1.397 1_554 S
C777 C782 1.363 . S
C778 H749 0.950 . S
C778 C777 1.397 1_556 S
C778 C779 1.334 . S
C779 H750 0.950 . S
C779 C778 1.334 . S
C779 C780 1.287 . S
C780 C779 1.287 . S
C780 C781 1.524 1_556 S
C780 H783 0.999 . S
C781 H751 0.950 . S
C781 C780 1.524 1_554 S
C781 C782 1.415 . S
C782 H752 0.950 . S
C782 C777 1.363 . S
C782 C781 1.415 . S
H783 C780 0.999 . S
H784 C765 0.913 . S
H785 C803 0.951 . S
H786 C805 0.951 . S
H787 C807 0.950 . S
H788 C808 0.950 . S
H789 C810 0.950 . S
H790 C813 0.950 . S
H791 C814 0.950 . S
H792 C816 0.950 . S
H793 C817 0.950 . S
H794 C818 0.951 . S
H795 C820 0.951 . S
H796 C822 0.950 . S
H797 C823 0.950 . S
H798 C825 0.950 1_565 S
H799 C828 0.950 . S
H800 C829 0.950 . S
H801 C831 0.950 . S
H802 C832 0.950 . S
C803 H785 0.951 . S
C803 C804 1.366 1_565 S
C803 C805 1.388 . S
C804 C803 1.366 1_545 S
C804 C808 1.385 . S
C805 H786 0.951 . S
C805 C803 1.388 . S
C805 C806 1.366 1_565 S
C806 C805 1.366 1_545 S
C806 C807 1.414 . S
C806 C809 1.499 . S
C807 H787 0.950 . S
C807 C806 1.414 . S
C807 C808 1.374 . S
C808 H788 0.950 . S
C808 C804 1.385 . S
C808 C807 1.374 . S
C809 C806 1.499 . S
C809 C810 1.373 . S
C809 C811 1.389 . S
C810 H789 0.950 . S
C810 C809 1.373 . S
C810 C826 1.377 . S
C811 C809 1.389 . S
C811 C812 1.524 . S
C811 C825 1.377 . S
C812 C811 1.524 . S
C812 C813 1.397 . S
C812 C817 1.363 1_545 S
C813 H790 0.950 . S
C813 C812 1.397 . S
C813 C814 1.334 . S
C814 H791 0.950 . S
C814 C813 1.334 . S
C814 C815 1.287 . S
C815 C814 1.287 . S
C815 C816 1.524 1_545 S
C815 H834 0.913 . S
C816 H792 0.950 . S
C816 C815 1.524 1_565 S
C816 C817 1.415 . S
C817 H793 0.950 . S
C817 C812 1.363 1_565 S
C817 C816 1.415 . S
C818 H794 0.951 . S
C818 C819 1.366 . S
C818 C820 1.388 . S
C819 C818 1.366 . S
C819 C823 1.385 1_545 S
C820 H795 0.951 . S
C820 C818 1.388 . S
C820 C821 1.366 . S
C821 C820 1.366 . S
C821 C822 1.414 1_545 S
C821 C824 1.499 . S
C822 H796 0.950 . S
C822 C821 1.414 1_565 S
C822 C823 1.374 . S
C823 H797 0.950 . S
C823 C819 1.385 1_565 S
C823 C822 1.374 . S
C824 C821 1.499 . S
C824 C825 1.373 . S
C824 C826 1.389 . S
C825 H798 0.950 1_545 S
C825 C811 1.377 . S
C825 C824 1.373 . S
C826 C810 1.377 . S
C826 C824 1.389 . S
C826 C827 1.524 . S
C827 C826 1.524 . S
C827 C828 1.397 1_545 S
C827 C832 1.363 . S
C828 H799 0.950 . S
C828 C827 1.397 1_565 S
C828 C829 1.334 . S
C829 H800 0.950 . S
C829 C828 1.334 . S
C829 C830 1.287 1_565 S
C830 C829 1.287 1_545 S
C830 C831 1.524 . S
C830 H833 0.999 . S
C831 H801 0.950 . S
C831 C830 1.524 . S
C831 C832 1.415 . S
C832 H802 0.950 . S
C832 C827 1.363 . S
C832 C831 1.415 . S
H833 C830 0.999 . S
H834 C815 0.913 . S
H835 C853 0.951 . S
H836 C855 0.951 . S
H837 C857 0.950 . S
H838 C858 0.950 . S
H839 C860 0.950 . S
H840 C863 0.950 . S
H841 C864 0.950 . S
H842 C866 0.950 . S
H843 C867 0.950 . S
H844 C868 0.951 . S
H845 C870 0.951 . S
H846 C872 0.950 . S
H847 C873 0.950 . S
H848 C875 0.950 . S
H849 C878 0.950 . S
H850 C879 0.950 . S
H851 C881 0.950 . S
H852 C882 0.950 . S
C853 H835 0.951 . S
C853 C854 1.366 . S
C853 C855 1.388 . S
C854 C853 1.366 . S
C854 C858 1.385 . S
C855 H836 0.951 . S
C855 C853 1.388 . S
C855 C856 1.366 . S
C856 C855 1.366 . S
C856 C857 1.414 . S
C856 C859 1.499 . S
C857 H837 0.950 . S
C857 C856 1.414 . S
C857 C858 1.374 . S
C858 H838 0.950 . S
C858 C854 1.385 . S
C858 C857 1.374 . S
C859 C856 1.499 . S
C859 C860 1.373 . S
C859 C861 1.389 . S
C860 H839 0.950 . S
C860 C859 1.373 . S
C860 C876 1.377 . S
C861 C859 1.389 . S
C861 C862 1.524 . S
C861 C875 1.377 . S
C862 C861 1.524 . S
C862 C863 1.397 . S
C862 C867 1.363 . S
C863 H840 0.950 . S
C863 C862 1.397 . S
C863 C864 1.334 . S
C864 H841 0.950 . S
C864 C863 1.334 . S
C864 C865 1.287 . S
C865 C864 1.287 . S
C865 C866 1.524 . S
C865 H884 0.913 . S
C866 H842 0.950 . S
C866 C865 1.524 . S
C866 C867 1.415 . S
C867 H843 0.950 . S
C867 C862 1.363 . S
C867 C866 1.415 . S
C868 H844 0.951 . S
C868 C869 1.366 . S
C868 C870 1.388 . S
C869 C868 1.366 . S
C869 C873 1.385 . S
C870 H845 0.951 . S
C870 C868 1.388 . S
C870 C871 1.366 . S
C871 C870 1.366 . S
C871 C872 1.414 . S
C871 C874 1.499 . S
C872 H846 0.950 . S
C872 C871 1.414 . S
C872 C873 1.374 . S
C873 H847 0.950 . S
C873 C869 1.385 . S
C873 C872 1.374 . S
C874 C871 1.499 . S
C874 C875 1.373 . S
C874 C876 1.389 . S
C875 H848 0.950 . S
C875 C861 1.377 . S
C875 C874 1.373 . S
C876 C860 1.377 . S
C876 C874 1.389 . S
C876 C877 1.524 . S
C877 C876 1.524 . S
C877 C878 1.397 . S
C877 C882 1.363 . S
C878 H849 0.950 . S
C878 C877 1.397 . S
C878 C879 1.334 . S
C879 H850 0.950 . S
C879 C878 1.334 . S
C879 C880 1.287 . S
C880 C879 1.287 . S
C880 C881 1.524 . S
C880 H883 0.999 . S
C881 H851 0.950 . S
C881 C880 1.524 . S
C881 C882 1.415 . S
C882 H852 0.950 . S
C882 C877 1.363 . S
C882 C881 1.415 . S
H883 C880 0.999 . S
H884 C865 0.913 . S
H885 C903 0.951 . S
H886 C905 0.951 . S
H887 C907 0.950 . S
H888 C908 0.950 . S
H889 C910 0.950 . S
H890 C913 0.950 . S
H891 C914 0.950 . S
H892 C916 0.950 . S
H893 C917 0.950 . S
H894 C918 0.951 . S
H895 C920 0.951 . S
H896 C922 0.950 . S
H897 C923 0.950 . S
H898 C925 0.950 . S
H899 C928 0.950 . S
H900 C929 0.950 . S
H901 C931 0.950 . S
H902 C932 0.950 . S
C903 H885 0.951 . S
C903 C904 1.366 1_565 S
C903 C905 1.388 . S
C904 C903 1.366 1_545 S
C904 C908 1.385 . S
C905 H886 0.951 . S
C905 C903 1.388 . S
C905 C906 1.366 1_565 S
C906 C905 1.366 1_545 S
C906 C907 1.414 . S
C906 C909 1.499 . S
C907 H887 0.950 . S
C907 C906 1.414 . S
C907 C908 1.374 . S
C908 H888 0.950 . S
C908 C904 1.385 . S
C908 C907 1.374 . S
C909 C906 1.499 . S
C909 C910 1.373 . S
C909 C911 1.389 1_545 S
C910 H889 0.950 . S
C910 C909 1.373 . S
C910 C926 1.377 . S
C911 C909 1.389 1_565 S
C911 C912 1.524 . S
C911 C925 1.377 . S
C912 C911 1.524 . S
C912 C913 1.397 . S
C912 C917 1.363 . S
C913 H890 0.950 . S
C913 C912 1.397 . S
C913 C914 1.334 . S
C914 H891 0.950 . S
C914 C913 1.334 . S
C914 C915 1.287 . S
C915 C914 1.287 . S
C915 C916 1.524 . S
C915 H934 0.913 . S
C916 H892 0.950 . S
C916 C915 1.524 . S
C916 C917 1.415 . S
C917 H893 0.950 . S
C917 C912 1.363 . S
C917 C916 1.415 . S
C918 H894 0.951 . S
C918 C919 1.366 . S
C918 C920 1.388 . S
C919 C918 1.366 . S
C919 C923 1.385 1_545 S
C920 H895 0.951 . S
C920 C918 1.388 . S
C920 C921 1.366 . S
C921 C920 1.366 . S
C921 C922 1.414 1_545 S
C921 C924 1.499 . S
C922 H896 0.950 . S
C922 C921 1.414 1_565 S
C922 C923 1.374 . S
C923 H897 0.950 . S
C923 C919 1.385 1_565 S
C923 C922 1.374 . S
C924 C921 1.499 . S
C924 C925 1.373 1_545 S
C924 C926 1.389 . S
C925 H898 0.950 . S
C925 C911 1.377 . S
C925 C924 1.373 1_565 S
C926 C910 1.377 . S
C926 C924 1.389 . S
C926 C927 1.524 . S
C927 C926 1.524 . S
C927 C928 1.397 . S
C927 C932 1.363 . S
C928 H899 0.950 . S
C928 C927 1.397 . S
C928 C929 1.334 . S
C929 H900 0.950 . S
C929 C928 1.334 . S
C929 C930 1.287 . S
C930 C929 1.287 . S
C930 C931 1.524 . S
C930 H933 0.999 . S
C931 H901 0.950 . S
C931 C930 1.524 . S
C931 C932 1.415 . S
C932 H902 0.950 . S
C932 C927 1.363 . S
C932 C931 1.415 . S
H933 C930 0.999 . S
H934 C915 0.913 . S
H935 C953 0.951 . S
H936 C955 0.951 . S
H937 C957 0.950 . S
H938 C958 0.950 . S
H939 C960 0.950 . S
H940 C963 0.950 . S
H941 C964 0.950 . S
H942 C966 0.950 . S
H943 C967 0.950 . S
H944 C968 0.951 . S
H945 C970 0.951 . S
H946 C972 0.950 . S
H947 C973 0.950 . S
H948 C975 0.950 . S
H949 C978 0.950 . S
H950 C979 0.950 . S
H951 C981 0.950 . S
H952 C982 0.950 . S
C953 H935 0.951 . S
C953 C954 1.366 . S
C953 C955 1.388 . S
C954 C953 1.366 . S
C954 C958 1.385 . S
C955 H936 0.951 . S
C955 C953 1.388 . S
C955 C956 1.366 . S
C956 C955 1.366 . S
C956 C957 1.414 . S
C956 C959 1.499 . S
C957 H937 0.950 . S
C957 C956 1.414 . S
C957 C958 1.374 . S
C958 H938 0.950 . S
C958 C954 1.385 . S
C958 C957 1.374 . S
C959 C956 1.499 . S
C959 C960 1.373 . S
C959 C961 1.389 . S
C960 H939 0.950 . S
C960 C959 1.373 . S
C960 C976 1.377 . S
C961 C959 1.389 . S
C961 C962 1.524 . S
C961 C975 1.377 . S
C962 C961 1.524 . S
C962 C963 1.397 . S
C962 C967 1.363 . S
C963 H940 0.950 . S
C963 C962 1.397 . S
C963 C964 1.334 . S
C964 H941 0.950 . S
C964 C963 1.334 . S
C964 C965 1.287 . S
C965 C964 1.287 . S
C965 C966 1.524 . S
C965 H984 0.913 . S
C966 H942 0.950 . S
C966 C965 1.524 . S
C966 C967 1.415 . S
C967 H943 0.950 . S
C967 C962 1.363 . S
C967 C966 1.415 . S
C968 H944 0.951 . S
C968 C969 1.366 . S
C968 C970 1.388 . S
C969 C968 1.366 . S
C969 C973 1.385 . S
C970 H945 0.951 . S
C970 C968 1.388 . S
C970 C971 1.366 . S
C971 C970 1.366 . S
C971 C972 1.414 . S
C971 C974 1.499 1_554 S
C972 H946 0.950 . S
C972 C971 1.414 . S
C972 C973 1.374 . S
C973 H947 0.950 . S
C973 C969 1.385 . S
C973 C972 1.374 . S
C974 C971 1.499 1_556 S
C974 C975 1.373 . S
C974 C976 1.389 . S
C975 H948 0.950 . S
C975 C961 1.377 . S
C975 C974 1.373 . S
C976 C960 1.377 . S
C976 C974 1.389 . S
C976 C977 1.524 . S
C977 C976 1.524 . S
C977 C978 1.397 1_556 S
C977 C982 1.363 . S
C978 H949 0.950 . S
C978 C977 1.397 1_554 S
C978 C979 1.334 . S
C979 H950 0.950 . S
C979 C978 1.334 . S
C979 C980 1.287 . S
C980 C979 1.287 . S
C980 C981 1.524 1_554 S
C980 H983 0.999 . S
C981 H951 0.950 . S
C981 C980 1.524 1_556 S
C981 C982 1.415 . S
C982 H952 0.950 . S
C982 C977 1.363 . S
C982 C981 1.415 . S
H983 C980 0.999 . S
H984 C965 0.913 . S
H985 C1003 0.951 . S
H986 C1005 0.951 . S
H987 C1007 0.950 . S
H988 C1008 0.950 . S
H989 C1010 0.950 . S
H990 C1013 0.950 . S
H991 C1014 0.950 . S
H992 C1016 0.950 . S
H993 C1017 0.950 . S
H994 C1018 0.951 . S
H995 C1020 0.951 . S
H996 C1022 0.950 . S
H997 C1023 0.950 . S
H998 C1025 0.950 . S
H999 C1028 0.950 . S
H1000 C1029 0.950 . S
H1001 C1031 0.950 . S
H1002 C1032 0.950 . S
C1003 H985 0.951 . S
C1003 C1004 1.366 . S
C1003 C1005 1.388 . S
C1004 C1003 1.366 . S
C1004 C1008 1.385 1_455 S
C1005 H986 0.951 . S
C1005 C1003 1.388 . S
C1005 C1006 1.366 . S
C1006 C1005 1.366 . S
C1006 C1007 1.414 1_455 S
C1006 C1009 1.499 1_455 S
C1007 H987 0.950 . S
C1007 C1006 1.414 1_655 S
C1007 C1008 1.374 . S
C1008 H988 0.950 . S
C1008 C1004 1.385 1_655 S
C1008 C1007 1.374 . S
C1009 C1006 1.499 1_655 S
C1009 C1010 1.372 . S
C1009 C1011 1.391 1_655 S
C1010 H989 0.950 . S
C1010 C1009 1.372 . S
C1010 C1026 1.377 . S
C1011 C1009 1.391 1_455 S
C1011 C1012 1.524 . S
C1011 C1025 1.377 . S
C1012 C1011 1.524 . S
C1012 C1013 1.397 . S
C1012 C1017 1.363 . S
C1013 H990 0.950 . S
C1013 C1012 1.397 . S
C1013 C1014 1.334 . S
C1014 H991 0.950 . S
C1014 C1013 1.334 . S
C1014 C1015 1.287 . S
C1015 C1014 1.287 . S
C1015 C1016 1.524 . S
C1015 H1034 0.913 . S
C1016 H992 0.950 . S
C1016 C1015 1.524 . S
C1016 C1017 1.415 . S
C1017 H993 0.950 . S
C1017 C1012 1.363 . S
C1017 C1016 1.415 . S
C1018 H994 0.951 . S
C1018 C1019 1.366 . S
C1018 C1020 1.388 . S
C1019 C1018 1.366 . S
C1019 C1023 1.385 1_655 S
C1020 H995 0.951 . S
C1020 C1018 1.388 . S
C1020 C1021 1.366 . S
C1021 C1020 1.366 . S
C1021 C1022 1.414 1_655 S
C1021 C1024 1.499 . S
C1022 H996 0.950 . S
C1022 C1021 1.414 1_455 S
C1022 C1023 1.374 . S
C1023 H997 0.950 . S
C1023 C1019 1.385 1_455 S
C1023 C1022 1.374 . S
C1024 C1021 1.499 . S
C1024 C1025 1.373 1_655 S
C1024 C1026 1.389 . S
C1025 H998 0.950 . S
C1025 C1011 1.377 . S
C1025 C1024 1.373 1_455 S
C1026 C1010 1.377 . S
C1026 C1024 1.389 . S
C1026 C1027 1.524 . S
C1027 C1026 1.524 . S
C1027 C1028 1.397 . S
C1027 C1032 1.363 . S
C1028 H999 0.950 . S
C1028 C1027 1.397 . S
C1028 C1029 1.334 . S
C1029 H1000 0.950 . S
C1029 C1028 1.334 . S
C1029 C1030 1.287 . S
C1030 C1029 1.287 . S
C1030 C1031 1.524 . S
C1030 H1033 0.999 . S
C1031 H1001 0.950 . S
C1031 C1030 1.524 . S
C1031 C1032 1.415 . S
C1032 H1002 0.950 . S
C1032 C1027 1.363 . S
C1032 C1031 1.415 . S
H1033 C1030 0.999 . S
H1034 C1015 0.913 . S
C154 C20 1.343 . S
C169 C129 1.212 . S
C204 C41 1.406 . S
C219 C107 1.244 . S
C254 C64 0.997 . S
C269 C121 0.982 . S
C304 C19 0.973 . S
C319 C132 0.985 . S
C369 C110 0.967 . S
C354 C44 0.974 . S
C419 C118 1.229 . S
C404 C67 1.393 . S
C454 C43 1.340 . S
C469 C85 1.214 . S
C504 C66 1.343 . S
C519 C96 1.212 . S
C554 C21 1.400 . S
C569 C74 1.242 . S
C619 C88 0.978 . S
C604 C42 0.967 . S
C669 C99 0.985 . S
C654 C65 0.973 . S
C704 C18 0.980 . S
C719 C77 0.968 . S
C769 C98 1.427 . S
C754 C17 1.495 . S
C804 C39 1.491 . S
C819 C76 1.426 . S
C854 C62 1.511 . S
C869 C87 1.443 . S
C919 C120 1.410 . S
C904 C40 1.474 . S
C969 C131 1.425 . S
C954 C63 1.495 . S
C1004 C16 1.492 . S
C1019 C109 1.428 . S
