# Generated by pormake.
# Topology pth, (4,4)-cn, num edge types: 1
# Building blocks:
#     Node 0, Type 0, BuildingBlock: GALJAG_clean_sbu_0, # of connection points: 4
#     Node 1, Type 0, BuildingBlock: GALJAG_clean_sbu_0, # of connection points: 4
#     Node 2, Type 0, BuildingBlock: GALJAG_clean_sbu_0, # of connection points: 4
#     Node 3, Type 1, BuildingBlock: MUDLON_clean_sbu_0, # of connection points: 4
#     Node 4, Type 1, BuildingBlock: MUDLON_clean_sbu_0, # of connection points: 4
#     Node 5, Type 1, BuildingBlock: MUDLON_clean_sbu_0, # of connection points: 4
#     Edge 6, Type (0, 1), BuildingBlock: EZIPEK_clean_linker_0, # of connection points: 2
#     Edge 7, Type (0, 1), BuildingBlock: EZIPEK_clean_linker_0, # of connection points: 2
#     Edge 8, Type (0, 1), BuildingBlock: EZIPEK_clean_linker_0, # of connection points: 2
#     Edge 9, Type (0, 1), BuildingBlock: EZIPEK_clean_linker_0, # of connection points: 2
#     Edge 10, Type (0, 1), BuildingBlock: EZIPEK_clean_linker_0, # of connection points: 2
#     Edge 11, Type (0, 1), BuildingBlock: EZIPEK_clean_linker_0, # of connection points: 2
#     Edge 12, Type (0, 1), BuildingBlock: EZIPEK_clean_linker_0, # of connection points: 2
#     Edge 13, Type (0, 1), BuildingBlock: EZIPEK_clean_linker_0, # of connection points: 2
#     Edge 14, Type (0, 1), BuildingBlock: EZIPEK_clean_linker_0, # of connection points: 2
#     Edge 15, Type (0, 1), BuildingBlock: EZIPEK_clean_linker_0, # of connection points: 2
#     Edge 16, Type (0, 1), BuildingBlock: EZIPEK_clean_linker_0, # of connection points: 2
#     Edge 17, Type (0, 1), BuildingBlock: EZIPEK_clean_linker_0, # of connection points: 2
# Relax obj value: 0.043
# Max RMSD: 0.088
# Mean RMSD: 0.080
data_MOF--net-pth--node1-GALJAG_clean_sbu_0--node2-MUDLON_clean_sbu_0--edge1-EZIPEK_clean_linker_0
_symmetry_space_group_name_H-M    P1
_symmetry_Int_Tables_number       1
_symmetry_cell_setting            triclinic
loop_
_symmetry_equiv_pos_as_xyz
'x, y, z'
_cell_length_a     16.931497
_cell_length_b     17.066102
_cell_length_c     43.150124
_cell_angle_alpha  90.157204
_cell_angle_beta   90.137406
_cell_angle_gamma 119.89275
loop_
_atom_site_label
_atom_site_type_symbol
_atom_site_fract_x
_atom_site_fract_y
_atom_site_fract_z
_atom_type_partial_charge
In0 In 0.03362 0.0227 0.09716 0.0
O1 O 0.99131 0.12889 0.10711 0.0
O2 O 0.04732 0.0897 0.14402 0.0
C3 C 0.89199 0.91848 0.05883 0.0
C4 C 0.18041 0.12832 0.06166 0.0
C5 C 0.05487 0.91229 0.13675 0.0
O6 O 0.88372 0.95898 0.08196 0.0
O7 O 0.97114 0.93103 0.0549 0.0
O8 O 0.12167 0.98199 0.12558 0.0
O9 O 0.97759 0.89811 0.12802 0.0
C10 C 0.01519 0.13855 0.13523 0.0
O11 O 0.12884 0.15484 0.07264 0.0
O12 O 0.1579 0.04793 0.06818 0.0
In13 In 1.01229 0.0178 0.43536 0.0
O14 O 0.10688 0.14032 0.40604 0.0
O15 O 0.96956 0.11007 0.41151 0.0
C16 C 0.16151 0.06139 0.47007 0.0
C17 C 0.87175 0.97527 0.47463 0.0
C18 C 0.98798 0.8846 0.39544 0.0
O19 O 0.14016 0.11938 0.46195 0.0
O20 O 0.10891 0.98221 0.46033 0.0
O21 O 0.99324 0.87764 0.42434 0.0
O22 O 0.99254 0.95714 0.38678 0.0
C23 C 0.04661 0.16067 0.39959 0.0
O24 O 0.95354 0.02934 0.48154 0.0
O25 O 0.8596 0.94245 0.44771 0.0
In26 In 1.01099 0.00778 0.76587 0.0
O27 O 0.95495 0.86157 0.78211 0.0
O28 O 0.90043 0.93782 0.80239 0.0
C29 C 0.11354 0.97751 0.72469 0.0
C30 C 0.91656 0.05945 0.7287 0.0
C31 C 0.11359 0.13576 0.80813 0.0
O32 O 0.02801 0.9385 0.72286 0.0
O33 O 0.14754 0.03121 0.74728 0.0
O34 O 0.06052 0.14453 0.78974 0.0
O35 O 0.114 0.06228 0.80558 0.0
C36 C 0.89926 0.86345 0.80101 0.0
O37 O 1.00019 0.11029 0.7344 0.0
O38 O 0.88058 0.98394 0.74209 0.0
Mg39 Mg 0.03111 0.5239 0.26734 0.0
C40 C 0.04374 0.4224 0.31779 0.0
O41 O 0.95827 0.40252 0.31618 0.0
C42 C 0.04382 0.6458 0.21997 0.0
O43 O 0.95985 0.57763 0.2197 0.0
C44 C 0.02388 0.41816 0.21376 0.0
O45 O 0.0986 0.49654 0.21059 0.0
O46 O 0.96972 0.40843 0.23577 0.0
O47 O 0.10143 0.48122 0.29938 0.0
O48 O 0.95616 0.56767 0.29684 0.0
C49 C 1.01323 0.62668 0.3156 0.0
O50 O 0.09736 0.64198 0.31579 0.0
O51 O 0.10121 0.64385 0.23864 0.0
Mg52 Mg 0.51804 0.01959 0.59988 0.0
C53 C 0.42501 0.05249 0.54863 0.0
O54 O 0.40992 0.97021 0.54363 0.0
C55 C 0.64956 0.05718 0.64977 0.0
O56 O 0.58035 0.97738 0.65648 0.0
C57 C 0.33034 0.93617 0.62952 0.0
O58 O 0.3047 0.93898 0.60106 0.0
O59 O 0.41155 0.95385 0.63466 0.0
O60 O 0.47614 0.09776 0.5712 0.0
O61 O 0.54684 0.94073 0.5665 0.0
C62 C 0.615 0.92946 0.57024 0.0
O63 O 0.65138 0.94049 0.59788 0.0
O64 O 0.64335 0.09921 0.62642 0.0
Mg65 Mg 0.52779 0.50788 0.93379 0.0
C66 C 0.38181 0.37988 0.89385 0.0
O67 O 0.43266 0.34343 0.89967 0.0
C68 C 0.64324 0.65375 0.97504 0.0
O69 O 0.68953 0.61395 0.96706 0.0
C70 C 0.48599 0.39378 0.9915 0.0
O71 O 0.52193 0.47303 1.00506 0.0
O72 O 0.49418 0.38984 0.96232 0.0
O73 O 0.40456 0.457 0.90553 0.0
O74 O 0.64546 0.56521 0.90293 0.0
C75 C 0.63713 0.55961 0.87361 0.0
O76 O 0.55872 0.5009 0.86119 0.0
O77 O 0.56284 0.62282 0.96439 0.0
C78 C 0.09469 0.26853 0.17197 0.0
C79 C 0.01403 0.20776 0.15578 0.0
C80 C 0.93659 0.28471 0.1776 0.0
C81 C 0.01507 0.3398 0.19583 0.0
N82 N 0.15886 0.36535 0.21665 0.0
N83 N 0.85258 0.14628 0.14774 0.0
C84 C 0.091 0.32583 0.19496 0.0
C85 C 0.93315 0.2124 0.15986 0.0
N86 N 0.17632 0.27556 0.16429 0.0
N87 N 0.86713 0.30351 0.17617 0.0
H88 H 0.84709 0.09155 0.13512 0.0
H89 H 0.78998 0.14123 0.15259 0.0
H90 H 0.8673 0.35577 0.1888 0.0
H91 H 0.81285 0.27193 0.16065 0.0
H92 H 0.23835 0.32555 0.17334 0.0
H93 H 0.18376 0.23873 0.14635 0.0
H94 H 0.21071 0.34962 0.21886 0.0
H95 H 0.15805 0.40599 0.23458 0.0
C96 C 0.78517 0.03333 0.50442 0.0
C97 C 0.79622 0.95904 0.49579 0.0
C98 C 0.68101 0.86218 0.53381 0.0
C99 C 0.6716 0.93698 0.54301 0.0
N100 N 0.70842 0.09222 0.53633 0.0
N101 N 0.74763 0.80032 0.49828 0.0
C102 C 0.72145 0.02201 0.52791 0.0
C103 C 0.7414 0.87242 0.50914 0.0
N104 N 0.83732 0.11526 0.4904 0.0
N105 N 0.63408 0.78228 0.54942 0.0
H106 H 0.79376 0.8061 0.48124 0.0
H107 H 0.70414 0.73367 0.50471 0.0
H108 H 0.5867 0.77181 0.56665 0.0
H109 H 0.64405 0.72735 0.54645 0.0
H110 H 0.84213 0.17558 0.49769 0.0
H111 H 0.87834 0.12404 0.47124 0.0
H112 H 0.73393 0.15262 0.52429 0.0
H113 H 0.66916 0.09019 0.55518 0.0
C114 C 0.73911 0.75566 0.81704 0.0
C115 C 0.83299 0.78301 0.81875 0.0
C116 C 0.79724 0.65601 0.85364 0.0
C117 C 0.70513 0.63549 0.85453 0.0
N118 N 0.59465 0.6824 0.84342 0.0
N119 N 0.95405 0.76837 0.84268 0.0
C120 C 0.67764 0.68979 0.83796 0.0
C121 C 0.86297 0.73546 0.83805 0.0
N122 N 0.7077 0.79007 0.79468 0.0
N123 N 0.82151 0.59865 0.86708 0.0
H124 H 1.00422 0.82724 0.83225 0.0
H125 H 0.97981 0.74197 0.85899 0.0
H126 H 0.7751 0.5402 0.87873 0.0
H127 H 0.88553 0.60488 0.86445 0.0
H128 H 0.63857 0.76537 0.79056 0.0
H129 H 0.74974 0.83603 0.77804 0.0
H130 H 0.57551 0.72685 0.83417 0.0
H131 H 0.54911 0.63904 0.85993 0.0
C132 C 0.11161 0.80665 0.15226 0.0
C133 C 0.06559 0.85449 0.15999 0.0
C134 C 0.01893 0.77578 0.20971 0.0
C135 C 0.06441 0.72746 0.20197 0.0
N136 N 0.17078 0.71048 0.16973 0.0
N137 N 0.99789 0.90352 0.19904 0.0
C138 C 0.11692 0.74798 0.17456 0.0
C139 C 0.02608 0.84481 0.18967 0.0
N140 N 0.14528 0.81299 0.12303 0.0
N141 N 0.96668 0.75388 0.23585 0.0
H142 H 1.00338 0.95586 0.18514 0.0
H143 H 0.97736 0.90617 0.22156 0.0
H144 H 0.96368 0.70738 0.2521 0.0
H145 H 0.92249 0.77815 0.24068 0.0
H146 H 0.17024 0.77217 0.1148 0.0
H147 H 0.14235 0.85477 0.10603 0.0
H148 H 0.21732 0.72903 0.15168 0.0
H149 H 0.1748 0.66627 0.18544 0.0
C150 C 0.24382 0.1058 0.52115 0.0
C151 C 0.24251 0.08361 0.48935 0.0
C152 C 0.38541 0.08205 0.49623 0.0
C153 C 0.3769 0.08642 0.52874 0.0
N154 N 0.30159 0.10753 0.57276 0.0
N155 N 0.3138 0.05646 0.44557 0.0
C156 C 0.30857 0.10221 0.54138 0.0
C157 C 0.31456 0.07453 0.4765 0.0
N158 N 0.18215 0.12857 0.5321 0.0
N159 N 0.46216 0.08595 0.48444 0.0
H160 H 0.26627 0.05649 0.43013 0.0
H161 H 0.35783 0.03813 0.43531 0.0
H162 H 0.51559 0.09344 0.49862 0.0
H163 H 0.47695 0.0903 0.4609 0.0
H164 H 0.18542 0.15479 0.55417 0.0
H165 H 0.13099 0.12772 0.51839 0.0
H166 H 0.24581 0.10516 0.58376 0.0
H167 H 0.35052 0.11118 0.58822 0.0
C168 C 0.23789 0.29368 0.82145 0.0
C169 C 0.17116 0.20581 0.83121 0.0
C170 C 0.23131 0.2409 0.88422 0.0
C171 C 0.29904 0.32826 0.87439 0.0
N172 N 0.35143 0.44647 0.83623 0.0
N173 N 0.08802 0.10478 0.8729 0.0
C174 C 0.29667 0.35776 0.84389 0.0
C175 C 0.16275 0.18228 0.86299 0.0
N176 N 0.24956 0.31401 0.79057 0.0
N177 N 0.23414 0.21313 0.91368 0.0
H178 H 0.03579 0.06125 0.85797 0.0
H179 H 0.07325 0.08786 0.89616 0.0
H180 H 0.27987 0.25606 0.9304 0.0
H181 H 0.1943 0.14677 0.92118 0.0
H182 H 0.304 0.37289 0.78177 0.0
H183 H 0.20909 0.26897 0.77328 0.0
H184 H 0.3467 0.47384 0.81524 0.0
H185 H 0.39553 0.49492 0.852 0.0
C186 C 0.88126 0.10015 0.67643 0.0
C187 C 0.86257 0.08603 0.70866 0.0
C188 C 0.72421 0.09609 0.7014 0.0
C189 C 0.73349 0.0922 0.66894 0.0
N190 N 0.82451 0.10135 0.62474 0.0
N191 N 0.77306 0.08036 0.75282 0.0
C192 C 0.81438 0.09996 0.65618 0.0
C193 C 0.78654 0.08816 0.72148 0.0
N194 N 0.96178 0.11166 0.66514 0.0
N195 N 0.65564 0.10813 0.71274 0.0
H196 H 0.82108 0.0817 0.76835 0.0
H197 H 0.71371 0.07017 0.76353 0.0
H198 H 0.6108 0.11608 0.69817 0.0
H199 H 0.64774 0.11827 0.73604 0.0
H200 H 0.98402 0.13125 0.64256 0.0
H201 H 1.01011 0.10731 0.67887 0.0
H202 H 0.87455 0.09354 0.61358 0.0
H203 H 0.78116 0.10868 0.60938 0.0
C204 C 0.73411 0.78697 0.04839 0.0
C205 C 0.81594 0.86179 0.03729 0.0
C206 C 0.7687 0.81189 0.98373 0.0
C207 C 0.68892 0.73549 0.99492 0.0
N208 N 0.58096 0.66663 0.03617 0.0
N209 N 0.89712 0.9606 0.99483 0.0
C210 C 0.66645 0.72892 0.02672 0.0
C211 C 0.82874 0.87909 1.00501 0.0
N212 N 0.72359 0.76723 0.07931 0.0
N213 N 0.78813 0.81859 0.95279 0.0
H214 H 0.94014 0.01222 1.00997 0.0
H215 H 0.90555 0.98049 0.97172 0.0
H216 H 0.74225 0.77373 0.93642 0.0
H217 H 0.85057 0.8661 0.94354 0.0
H218 H 0.67018 0.70777 0.08822 0.0
H219 H 0.77185 0.80648 0.09601 0.0
H220 H 0.5579 0.66324 0.05875 0.0
H221 H 0.52992 0.62515 0.02057 0.0
C222 C 0.91991 0.72465 0.3755 0.0
C223 C 0.98688 0.81761 0.37319 0.0
C224 C 0.05079 0.7841 0.32761 0.0
C225 C 0.99347 0.69022 0.33282 0.0
N226 N 0.87791 0.56959 0.36329 0.0
N227 N 0.12725 0.93328 0.3504 0.0
C228 C 0.92841 0.65982 0.35702 0.0
C229 C 0.05487 0.84695 0.34996 0.0
N230 N 0.84712 0.69865 0.39474 0.0
N231 N 0.10111 0.81342 0.30108 0.0
H232 H 0.1365 0.98098 0.36726 0.0
H233 H 0.18354 0.95483 0.33598 0.0
H234 H 0.0999 0.76944 0.28402 0.0
H235 H 0.13645 0.88112 0.29454 0.0
H236 H 0.79163 0.63322 0.39521 0.0
H237 H 0.83817 0.74444 0.40824 0.0
H238 H 0.83708 0.54401 0.38284 0.0
H239 H 0.88156 0.52039 0.34999 0.0
C240 C 0.15584 0.87825 0.69387 0.0
C241 C 0.17016 0.9658 0.70099 0.0
C242 C 0.29805 0.03302 0.66475 0.0
C243 C 0.27783 0.94511 0.65531 0.0
N244 N 0.18175 0.78358 0.6579 0.0
N245 N 0.24199 0.12444 0.6884 0.0
C246 C 0.20486 0.86745 0.66898 0.0
C247 C 0.23812 0.04278 0.68526 0.0
N248 N 0.09832 0.80613 0.71169 0.0
N249 N 0.37492 0.10751 0.65427 0.0
H250 H 0.19726 0.13425 0.70225 0.0
H251 H 0.2833 0.1804 0.6748 0.0
H252 H 0.41968 0.1042 0.63849 0.0
H253 H 0.39848 0.17222 0.66321 0.0
H254 H 0.09192 0.74241 0.70966 0.0
H255 H 0.06266 0.81169 0.73045 0.0
H256 H 0.123 0.7248 0.66447 0.0
H257 H 0.21847 0.77347 0.6405 0.0
C258 C 0.24329 0.22758 0.01539 0.0
C259 C 0.25868 0.18676 0.04149 0.0
C260 C 0.42273 0.26743 0.03024 0.0
C261 C 0.40789 0.31724 1.00701 0.0
N262 N 0.30517 0.3565 0.98136 0.0
N263 N 0.3641 0.17398 0.07607 0.0
C264 C 0.31843 0.30027 1.0005 0.0
C265 C 0.34867 0.20739 0.0494 0.0
N266 N 0.15683 0.19521 1.00422 0.0
N267 N 0.50748 0.27747 0.03386 0.0
H268 H 0.31213 0.13089 0.09092 0.0
H269 H 0.42894 0.19444 0.08479 0.0
H270 H 0.56292 0.3219 0.02039 0.0
H271 H 0.52107 0.23674 0.04828 0.0
H272 H 0.14276 0.21637 0.98333 0.0
H273 H 0.10007 0.14031 0.01405 0.0
H274 H 0.24235 0.35314 0.97875 0.0
H275 H 0.35793 0.41124 0.96993 0.0
C276 C 0.05397 0.30964 0.39151 0.0
C277 C 0.06394 0.23763 0.37934 0.0
C278 C 0.07877 0.29786 0.32677 0.0
C279 C 0.06746 0.36902 0.3389 0.0
N280 N 0.06348 0.45478 0.38251 0.0
N281 N 0.10468 0.1727 0.33672 0.0
C282 C 0.06129 0.3787 0.37128 0.0
C283 C 0.08358 0.23551 0.34744 0.0
N284 N 0.03599 0.31098 0.42234 0.0
N285 N 0.07789 0.28579 0.2954 0.0
H286 H 0.10301 0.12184 0.35046 0.0
H287 H 0.13014 0.17457 0.31463 0.0
H288 H 0.07441 0.32989 0.27954 0.0
H289 H 0.07424 0.22904 0.28494 0.0
H290 H 0.01667 0.35466 0.4321 0.0
H291 H 0.03701 0.26557 0.43825 0.0
H292 H 0.06692 0.47057 0.40596 0.0
H293 H 0.06953 0.5065 0.36809 0.0
loop_
_geom_bond_atom_site_label_1
_geom_bond_atom_site_label_2
_geom_bond_distance
_geom_bond_site_symmetry_2
_ccdc_geom_bond_type
In0 O1 2.294 1_455 S
In0 O2 2.326 . S
In0 O6 2.266 1_445 S
In0 O7 2.326 1_445 S
In0 O8 2.266 1_545 S
In0 O9 2.326 1_445 S
In0 O11 2.294 . S
In0 O12 2.326 . S
O1 In0 2.294 1_655 S
O1 C10 1.240 1_655 S
O2 In0 2.326 . S
O2 C10 1.252 . S
C3 O6 1.252 . S
C3 O7 1.260 . S
C4 O11 1.240 . S
C4 O12 1.252 . S
C5 O8 1.252 . S
C5 O9 1.260 1_455 S
O6 In0 2.266 1_665 S
O6 C3 1.252 . S
O7 In0 2.326 1_665 S
O7 C3 1.260 . S
O8 In0 2.266 1_565 S
O8 C5 1.252 . S
O9 In0 2.326 1_665 S
O9 C5 1.260 1_655 S
C10 O1 1.240 1_455 S
C10 O2 1.252 . S
O11 In0 2.294 . S
O11 C4 1.240 . S
O12 In0 2.326 . S
O12 C4 1.252 . S
In13 O14 2.294 . S
In13 O15 2.326 1_455 S
In13 O19 2.266 . S
In13 O20 2.326 1_545 S
In13 O21 2.266 1_445 S
In13 O22 2.326 1_545 S
In13 O24 2.294 1_445 S
In13 O25 2.326 1_455 S
O14 In13 2.294 . S
O14 C23 1.240 . S
O15 In13 2.326 1_655 S
O15 C23 1.252 1_655 S
C16 O19 1.252 . S
C16 O20 1.260 1_545 S
C17 O24 1.240 1_545 S
C17 O25 1.252 . S
C18 O21 1.252 1_455 S
C18 O22 1.260 . S
O19 In13 2.266 . S
O19 C16 1.252 . S
O20 In13 2.326 1_565 S
O20 C16 1.260 1_565 S
O21 In13 2.266 1_665 S
O21 C18 1.252 1_655 S
O22 In13 2.326 1_565 S
O22 C18 1.260 . S
C23 O14 1.240 . S
C23 O15 1.252 1_455 S
O24 In13 2.294 1_665 S
O24 C17 1.240 1_565 S
O25 In13 2.326 1_655 S
O25 C17 1.252 . S
In26 O27 2.294 1_445 S
In26 O28 2.326 1_445 S
In26 O32 2.266 1_545 S
In26 O33 2.326 . S
In26 O34 2.266 . S
In26 O35 2.326 . S
In26 O37 2.294 1_455 S
In26 O38 2.326 1_445 S
O27 In26 2.294 1_665 S
O27 C36 1.240 . S
O28 In26 2.326 1_665 S
O28 C36 1.252 . S
C29 O32 1.252 1_545 S
C29 O33 1.260 . S
C30 O37 1.240 . S
C30 O38 1.252 1_545 S
C31 O34 1.252 . S
C31 O35 1.260 . S
O32 In26 2.266 1_565 S
O32 C29 1.252 1_565 S
O33 In26 2.326 . S
O33 C29 1.260 . S
O34 In26 2.266 . S
O34 C31 1.252 . S
O35 In26 2.326 . S
O35 C31 1.260 . S
C36 O27 1.240 . S
C36 O28 1.252 . S
O37 In26 2.294 1_655 S
O37 C30 1.240 . S
O38 In26 2.326 1_665 S
O38 C30 1.252 1_565 S
Mg39 O46 2.141 . S
Mg39 O47 2.048 . S
Mg39 O48 2.048 . S
Mg39 O51 2.141 . S
C40 O41 1.313 1_455 S
C40 O47 1.195 . S
O41 C40 1.313 1_655 S
C42 O43 1.242 1_455 S
C42 O51 1.293 . S
O43 C42 1.242 1_655 S
C44 O45 1.241 1_455 S
C44 O46 1.291 . S
O45 C44 1.241 1_655 S
O46 Mg39 2.141 . S
O46 C44 1.291 . S
O47 Mg39 2.048 . S
O47 C40 1.195 . S
O48 Mg39 2.048 . S
O48 C49 1.195 . S
C49 O48 1.195 . S
C49 O50 1.313 1_455 S
O50 C49 1.313 1_655 S
O51 Mg39 2.141 . S
O51 C42 1.293 . S
Mg52 O59 2.141 . S
Mg52 O60 2.048 . S
Mg52 O61 2.048 . S
Mg52 O64 2.141 . S
C53 O54 1.313 1_545 S
C53 O60 1.195 . S
O54 C53 1.313 1_565 S
C55 O56 1.237 1_545 S
C55 O64 1.298 . S
O56 C55 1.237 1_565 S
C57 O58 1.236 1_545 S
C57 O59 1.293 . S
O58 C57 1.236 1_565 S
O59 Mg52 2.141 . S
O59 C57 1.293 . S
O60 Mg52 2.048 . S
O60 C53 1.195 . S
O61 Mg52 2.048 . S
O61 C62 1.195 . S
C62 O61 1.195 . S
C62 O63 1.313 1_545 S
O63 C62 1.313 1_565 S
O64 Mg52 2.141 . S
O64 C55 1.298 . S
Mg65 O72 2.141 . S
Mg65 O73 2.048 . S
Mg65 O74 2.048 . S
Mg65 O77 2.141 . S
C66 O67 1.313 . S
C66 O73 1.195 . S
O67 C66 1.313 . S
C68 O69 1.245 . S
C68 O77 1.289 . S
O69 C68 1.245 . S
C70 O71 1.245 . S
C70 O72 1.289 . S
O71 C70 1.245 . S
O72 Mg65 2.141 . S
O72 C70 1.289 . S
O73 Mg65 2.048 . S
O73 C66 1.195 . S
O74 Mg65 2.048 . S
O74 C75 1.195 . S
C75 O74 1.195 . S
C75 O76 1.313 . S
O76 C75 1.313 . S
O77 Mg65 2.141 . S
O77 C68 1.289 . S
C78 C79 1.363 . S
C78 C84 1.379 . S
C78 N86 1.356 . S
C79 C78 1.363 . S
C79 C85 1.363 1_455 S
C80 C81 1.363 1_655 S
C80 C85 1.379 . S
C80 N87 1.356 . S
C81 C80 1.363 1_455 S
C81 C84 1.363 . S
N82 C84 1.356 . S
N82 H94 0.984 . S
N82 H95 0.985 . S
N83 C85 1.356 . S
N83 H88 0.984 . S
N83 H89 0.985 . S
C84 C78 1.379 . S
C84 C81 1.363 . S
C84 N82 1.356 . S
C85 C79 1.363 1_655 S
C85 C80 1.379 . S
C85 N83 1.356 . S
N86 C78 1.356 . S
N86 H92 0.984 . S
N86 H93 0.984 . S
N87 C80 1.356 . S
N87 H90 0.984 . S
N87 H91 0.985 . S
H88 N83 0.984 . S
H89 N83 0.985 . S
H90 N87 0.984 . S
H91 N87 0.985 . S
H92 N86 0.984 . S
H93 N86 0.984 . S
H94 N82 0.984 . S
H95 N82 0.985 . S
C96 C97 1.363 . S
C96 C102 1.379 . S
C96 N104 1.356 . S
C97 C96 1.363 . S
C97 C103 1.363 1_545 S
C98 C99 1.363 1_565 S
C98 C103 1.379 . S
C98 N105 1.356 . S
C99 C98 1.363 1_545 S
C99 C102 1.363 . S
N100 C102 1.356 . S
N100 H112 0.984 . S
N100 H113 0.985 . S
N101 C103 1.356 . S
N101 H106 0.984 . S
N101 H107 0.985 . S
C102 C96 1.379 . S
C102 C99 1.363 . S
C102 N100 1.356 . S
C103 C97 1.363 1_565 S
C103 C98 1.379 . S
C103 N101 1.356 . S
N104 C96 1.356 . S
N104 H110 0.984 . S
N104 H111 0.984 . S
N105 C98 1.356 . S
N105 H108 0.984 . S
N105 H109 0.985 . S
H106 N101 0.984 . S
H107 N101 0.985 . S
H108 N105 0.984 . S
H109 N105 0.985 . S
H110 N104 0.984 . S
H111 N104 0.984 . S
H112 N100 0.984 . S
H113 N100 0.985 . S
C114 C115 1.363 . S
C114 C120 1.379 . S
C114 N122 1.356 . S
C115 C114 1.363 . S
C115 C121 1.363 . S
C116 C117 1.363 . S
C116 C121 1.379 . S
C116 N123 1.356 . S
C117 C116 1.363 . S
C117 C120 1.363 . S
N118 C120 1.356 . S
N118 H130 0.984 . S
N118 H131 0.985 . S
N119 C121 1.356 . S
N119 H124 0.984 . S
N119 H125 0.985 . S
C120 C114 1.379 . S
C120 C117 1.363 . S
C120 N118 1.356 . S
C121 C115 1.363 . S
C121 C116 1.379 . S
C121 N119 1.356 . S
N122 C114 1.356 . S
N122 H128 0.984 . S
N122 H129 0.984 . S
N123 C116 1.356 . S
N123 H126 0.984 . S
N123 H127 0.985 . S
H124 N119 0.984 . S
H125 N119 0.985 . S
H126 N123 0.984 . S
H127 N123 0.985 . S
H128 N122 0.984 . S
H129 N122 0.984 . S
H130 N118 0.984 . S
H131 N118 0.985 . S
C132 C133 1.363 . S
C132 C138 1.379 . S
C132 N140 1.356 . S
C133 C132 1.363 . S
C133 C139 1.363 1_455 S
C134 C135 1.363 1_655 S
C134 C139 1.379 . S
C134 N141 1.356 . S
C135 C134 1.363 1_455 S
C135 C138 1.363 . S
N136 C138 1.356 . S
N136 H148 0.984 . S
N136 H149 0.985 . S
N137 C139 1.356 . S
N137 H142 0.984 . S
N137 H143 0.985 . S
C138 C132 1.379 . S
C138 C135 1.363 . S
C138 N136 1.356 . S
C139 C133 1.363 1_655 S
C139 C134 1.379 . S
C139 N137 1.356 . S
N140 C132 1.356 . S
N140 H146 0.984 . S
N140 H147 0.984 . S
N141 C134 1.356 . S
N141 H144 0.984 . S
N141 H145 0.985 . S
H142 N137 0.984 . S
H143 N137 0.985 . S
H144 N141 0.984 . S
H145 N141 0.985 . S
H146 N140 0.984 . S
H147 N140 0.984 . S
H148 N136 0.984 . S
H149 N136 0.985 . S
C150 C151 1.363 1_565 S
C150 C156 1.379 . S
C150 N158 1.356 . S
C151 C150 1.363 1_545 S
C151 C157 1.363 . S
C152 C153 1.363 . S
C152 C157 1.379 . S
C152 N159 1.356 . S
C153 C152 1.363 . S
C153 C156 1.363 1_545 S
N154 C156 1.356 . S
N154 H166 0.984 . S
N154 H167 0.985 . S
N155 C157 1.356 . S
N155 H160 0.984 . S
N155 H161 0.985 . S
C156 C150 1.379 . S
C156 C153 1.363 1_565 S
C156 N154 1.356 . S
C157 C151 1.363 . S
C157 C152 1.379 . S
C157 N155 1.356 . S
N158 C150 1.356 . S
N158 H164 0.984 . S
N158 H165 0.984 . S
N159 C152 1.356 . S
N159 H162 0.984 . S
N159 H163 0.985 . S
H160 N155 0.984 . S
H161 N155 0.985 . S
H162 N159 0.984 . S
H163 N159 0.985 . S
H164 N158 0.984 . S
H165 N158 0.984 . S
H166 N154 0.984 . S
H167 N154 0.985 . S
C168 C169 1.363 . S
C168 C174 1.379 . S
C168 N176 1.356 . S
C169 C168 1.363 . S
C169 C175 1.363 . S
C170 C171 1.363 . S
C170 C175 1.379 . S
C170 N177 1.356 . S
C171 C170 1.363 . S
C171 C174 1.363 . S
N172 C174 1.356 . S
N172 H184 0.984 . S
N172 H185 0.985 . S
N173 C175 1.356 . S
N173 H178 0.984 . S
N173 H179 0.985 . S
C174 C168 1.379 . S
C174 C171 1.363 . S
C174 N172 1.356 . S
C175 C169 1.363 . S
C175 C170 1.379 . S
C175 N173 1.356 . S
N176 C168 1.356 . S
N176 H182 0.984 . S
N176 H183 0.984 . S
N177 C170 1.356 . S
N177 H180 0.984 . S
N177 H181 0.985 . S
H178 N173 0.984 . S
H179 N173 0.985 . S
H180 N177 0.984 . S
H181 N177 0.985 . S
H182 N176 0.984 . S
H183 N176 0.984 . S
H184 N172 0.984 . S
H185 N172 0.985 . S
C186 C187 1.363 1_565 S
C186 C192 1.379 . S
C186 N194 1.356 . S
C187 C186 1.363 1_545 S
C187 C193 1.363 . S
C188 C189 1.363 . S
C188 C193 1.379 . S
C188 N195 1.356 . S
C189 C188 1.363 . S
C189 C192 1.363 1_545 S
N190 C192 1.356 . S
N190 H202 0.984 . S
N190 H203 0.985 . S
N191 C193 1.356 . S
N191 H196 0.984 . S
N191 H197 0.985 . S
C192 C186 1.379 . S
C192 C189 1.363 1_565 S
C192 N190 1.356 . S
C193 C187 1.363 . S
C193 C188 1.379 . S
C193 N191 1.356 . S
N194 C186 1.356 . S
N194 H200 0.984 . S
N194 H201 0.984 . S
N195 C188 1.356 . S
N195 H198 0.984 . S
N195 H199 0.985 . S
H196 N191 0.984 . S
H197 N191 0.985 . S
H198 N195 0.984 . S
H199 N195 0.985 . S
H200 N194 0.984 . S
H201 N194 0.984 . S
H202 N190 0.984 . S
H203 N190 0.985 . S
C204 C205 1.363 . S
C204 C210 1.379 . S
C204 N212 1.356 . S
C205 C204 1.363 . S
C205 C211 1.363 . S
C206 C207 1.363 . S
C206 C211 1.379 1_556 S
C206 N213 1.356 . S
C207 C206 1.363 . S
C207 C210 1.363 1_556 S
N208 C210 1.356 . S
N208 H220 0.984 . S
N208 H221 0.985 1_554 S
N209 C211 1.356 . S
N209 H214 0.984 . S
N209 H215 0.985 . S
C210 C204 1.379 . S
C210 C207 1.363 1_554 S
C210 N208 1.356 . S
C211 C205 1.363 . S
C211 C206 1.379 1_554 S
C211 N209 1.356 . S
N212 C204 1.356 . S
N212 H218 0.984 . S
N212 H219 0.984 . S
N213 C206 1.356 . S
N213 H216 0.984 . S
N213 H217 0.985 . S
H214 N209 0.984 . S
H215 N209 0.985 . S
H216 N213 0.984 . S
H217 N213 0.985 . S
H218 N212 0.984 . S
H219 N212 0.984 . S
H220 N208 0.984 . S
H221 N208 0.985 1_556 S
C222 C223 1.363 1_655 S
C222 C228 1.379 . S
C222 N230 1.356 . S
C223 C222 1.363 1_455 S
C223 C229 1.363 . S
C224 C225 1.363 . S
C224 C229 1.379 . S
C224 N231 1.356 . S
C225 C224 1.363 . S
C225 C228 1.363 1_455 S
N226 C228 1.356 . S
N226 H238 0.984 . S
N226 H239 0.985 . S
N227 C229 1.356 . S
N227 H232 0.984 . S
N227 H233 0.985 . S
C228 C222 1.379 . S
C228 C225 1.363 1_655 S
C228 N226 1.356 . S
C229 C223 1.363 . S
C229 C224 1.379 . S
C229 N227 1.356 . S
N230 C222 1.356 . S
N230 H236 0.984 . S
N230 H237 0.984 . S
N231 C224 1.356 . S
N231 H234 0.984 . S
N231 H235 0.985 . S
H232 N227 0.984 . S
H233 N227 0.985 . S
H234 N231 0.984 . S
H235 N231 0.985 . S
H236 N230 0.984 . S
H237 N230 0.984 . S
H238 N226 0.984 . S
H239 N226 0.985 . S
C240 C241 1.363 1_565 S
C240 C246 1.379 . S
C240 N248 1.356 . S
C241 C240 1.363 1_545 S
C241 C247 1.363 . S
C242 C243 1.363 . S
C242 C247 1.379 . S
C242 N249 1.356 . S
C243 C242 1.363 . S
C243 C246 1.363 1_545 S
N244 C246 1.356 . S
N244 H256 0.984 . S
N244 H257 0.985 . S
N245 C247 1.356 . S
N245 H250 0.984 . S
N245 H251 0.985 . S
C246 C240 1.379 . S
C246 C243 1.363 1_565 S
C246 N244 1.356 . S
C247 C241 1.363 . S
C247 C242 1.379 . S
C247 N245 1.356 . S
N248 C240 1.356 . S
N248 H254 0.984 . S
N248 H255 0.984 . S
N249 C242 1.356 . S
N249 H252 0.984 . S
N249 H253 0.985 . S
H250 N245 0.984 . S
H251 N245 0.985 . S
H252 N249 0.984 . S
H253 N249 0.985 . S
H254 N248 0.984 . S
H255 N248 0.984 . S
H256 N244 0.984 . S
H257 N244 0.985 . S
C258 C259 1.363 . S
C258 C264 1.379 . S
C258 N266 1.356 . S
C259 C258 1.363 . S
C259 C265 1.363 . S
C260 C261 1.363 . S
C260 C265 1.379 1_556 S
C260 N267 1.356 . S
C261 C260 1.363 . S
C261 C264 1.363 1_556 S
N262 C264 1.356 1_556 S
N262 H274 0.984 1_556 S
N262 H275 0.985 . S
N263 C265 1.356 . S
N263 H268 0.984 . S
N263 H269 0.985 . S
C264 C258 1.379 . S
C264 C261 1.363 1_554 S
C264 N262 1.356 1_554 S
C265 C259 1.363 . S
C265 C260 1.379 1_554 S
C265 N263 1.356 . S
N266 C258 1.356 . S
N266 H272 0.984 . S
N266 H273 0.984 . S
N267 C260 1.356 . S
N267 H270 0.984 . S
N267 H271 0.985 . S
H268 N263 0.984 . S
H269 N263 0.985 . S
H270 N267 0.984 . S
H271 N267 0.985 . S
H272 N266 0.984 . S
H273 N266 0.984 . S
H274 N262 0.984 1_554 S
H275 N262 0.985 . S
C276 C277 1.363 1_655 S
C276 C282 1.379 . S
C276 N284 1.356 . S
C277 C276 1.363 1_455 S
C277 C283 1.363 . S
C278 C279 1.363 . S
C278 C283 1.379 . S
C278 N285 1.356 . S
C279 C278 1.363 . S
C279 C282 1.363 1_455 S
N280 C282 1.356 . S
N280 H292 0.984 . S
N280 H293 0.985 . S
N281 C283 1.356 . S
N281 H286 0.984 . S
N281 H287 0.985 . S
C282 C276 1.379 . S
C282 C279 1.363 1_655 S
C282 N280 1.356 . S
C283 C277 1.363 . S
C283 C278 1.379 . S
C283 N281 1.356 . S
N284 C276 1.356 . S
N284 H290 0.984 . S
N284 H291 0.984 . S
N285 C278 1.356 . S
N285 H288 0.984 . S
N285 H289 0.985 . S
H286 N281 0.984 . S
H287 N281 0.985 . S
H288 N285 0.984 . S
H289 N285 0.985 . S
H290 N284 0.984 . S
H291 N284 0.984 . S
H292 N280 0.984 . S
H293 N280 0.985 . S
C81 C44 1.459 . S
C79 C10 1.464 . S
C97 C17 1.521 . S
C99 C62 1.517 . S
C115 C36 1.527 . S
C117 C75 1.523 . S
C133 C5 1.465 . S
C135 C42 1.453 . S
C153 C53 1.516 . S
C151 C16 1.523 . S
C169 C31 1.528 . S
C171 C66 1.521 . S
C189 C55 1.445 . S
C187 C30 1.461 . S
C205 C3 1.466 . S
C207 C68 1.456 . S
C225 C49 1.522 . S
C223 C18 1.525 . S
C243 C57 1.461 . S
C241 C29 1.462 . S
C261 C70 1.459 . S
C259 C4 1.466 . S
C277 C23 1.523 . S
C279 C40 1.515 . S
