# Generated by pormake.
# Topology ssb, (4,4)-cn, num edge types: 1
# Building blocks:
#     Node 0, Type 0, BuildingBlock: ESEHIV_clean_sbu_0, # of connection points: 4
#     Node 1, Type 0, BuildingBlock: ESEHIV_clean_sbu_0, # of connection points: 4
#     Node 2, Type 0, BuildingBlock: ESEHIV_clean_sbu_0, # of connection points: 4
#     Node 3, Type 0, BuildingBlock: ESEHIV_clean_sbu_0, # of connection points: 4
#     Node 4, Type 0, BuildingBlock: ESEHIV_clean_sbu_0, # of connection points: 4
#     Node 5, Type 0, BuildingBlock: ESEHIV_clean_sbu_0, # of connection points: 4
#     Node 6, Type 0, BuildingBlock: ESEHIV_clean_sbu_0, # of connection points: 4
#     Node 7, Type 0, BuildingBlock: ESEHIV_clean_sbu_0, # of connection points: 4
#     Node 8, Type 1, BuildingBlock: KOZSID_clean_sbu_0, # of connection points: 4
#     Node 9, Type 1, BuildingBlock: KOZSID_clean_sbu_0, # of connection points: 4
#     Node 10, Type 1, BuildingBlock: KOZSID_clean_sbu_0, # of connection points: 4
#     Node 11, Type 1, BuildingBlock: KOZSID_clean_sbu_0, # of connection points: 4
#     Node 12, Type 1, BuildingBlock: KOZSID_clean_sbu_0, # of connection points: 4
#     Node 13, Type 1, BuildingBlock: KOZSID_clean_sbu_0, # of connection points: 4
#     Node 14, Type 1, BuildingBlock: KOZSID_clean_sbu_0, # of connection points: 4
#     Node 15, Type 1, BuildingBlock: KOZSID_clean_sbu_0, # of connection points: 4
#     Edge 16, Type (0, 1), BuildingBlock: XUDNAN_clean_linker_2, # of connection points: 2
#     Edge 17, Type (0, 1), BuildingBlock: XUDNAN_clean_linker_2, # of connection points: 2
#     Edge 18, Type (0, 1), BuildingBlock: XUDNAN_clean_linker_2, # of connection points: 2
#     Edge 19, Type (0, 1), BuildingBlock: XUDNAN_clean_linker_2, # of connection points: 2
#     Edge 20, Type (0, 1), BuildingBlock: XUDNAN_clean_linker_2, # of connection points: 2
#     Edge 21, Type (0, 1), BuildingBlock: XUDNAN_clean_linker_2, # of connection points: 2
#     Edge 22, Type (0, 1), BuildingBlock: XUDNAN_clean_linker_2, # of connection points: 2
#     Edge 23, Type (0, 1), BuildingBlock: XUDNAN_clean_linker_2, # of connection points: 2
#     Edge 24, Type (0, 1), BuildingBlock: XUDNAN_clean_linker_2, # of connection points: 2
#     Edge 25, Type (0, 1), BuildingBlock: XUDNAN_clean_linker_2, # of connection points: 2
#     Edge 26, Type (0, 1), BuildingBlock: XUDNAN_clean_linker_2, # of connection points: 2
#     Edge 27, Type (0, 1), BuildingBlock: XUDNAN_clean_linker_2, # of connection points: 2
#     Edge 28, Type (0, 1), BuildingBlock: XUDNAN_clean_linker_2, # of connection points: 2
#     Edge 29, Type (0, 1), BuildingBlock: XUDNAN_clean_linker_2, # of connection points: 2
#     Edge 30, Type (0, 1), BuildingBlock: XUDNAN_clean_linker_2, # of connection points: 2
#     Edge 31, Type (0, 1), BuildingBlock: XUDNAN_clean_linker_2, # of connection points: 2
#     Edge 32, Type (0, 1), BuildingBlock: XUDNAN_clean_linker_2, # of connection points: 2
#     Edge 33, Type (0, 1), BuildingBlock: XUDNAN_clean_linker_2, # of connection points: 2
#     Edge 34, Type (0, 1), BuildingBlock: XUDNAN_clean_linker_2, # of connection points: 2
#     Edge 35, Type (0, 1), BuildingBlock: XUDNAN_clean_linker_2, # of connection points: 2
#     Edge 36, Type (0, 1), BuildingBlock: XUDNAN_clean_linker_2, # of connection points: 2
#     Edge 37, Type (0, 1), BuildingBlock: XUDNAN_clean_linker_2, # of connection points: 2
#     Edge 38, Type (0, 1), BuildingBlock: XUDNAN_clean_linker_2, # of connection points: 2
#     Edge 39, Type (0, 1), BuildingBlock: XUDNAN_clean_linker_2, # of connection points: 2
#     Edge 40, Type (0, 1), BuildingBlock: XUDNAN_clean_linker_2, # of connection points: 2
#     Edge 41, Type (0, 1), BuildingBlock: XUDNAN_clean_linker_2, # of connection points: 2
#     Edge 42, Type (0, 1), BuildingBlock: XUDNAN_clean_linker_2, # of connection points: 2
#     Edge 43, Type (0, 1), BuildingBlock: XUDNAN_clean_linker_2, # of connection points: 2
#     Edge 44, Type (0, 1), BuildingBlock: XUDNAN_clean_linker_2, # of connection points: 2
#     Edge 45, Type (0, 1), BuildingBlock: XUDNAN_clean_linker_2, # of connection points: 2
#     Edge 46, Type (0, 1), BuildingBlock: XUDNAN_clean_linker_2, # of connection points: 2
#     Edge 47, Type (0, 1), BuildingBlock: XUDNAN_clean_linker_2, # of connection points: 2
# Relax obj value: 0.004
# Max RMSD: 0.112
# Mean RMSD: 0.054
data_MOF--net-ssb--node1-ESEHIV_clean_sbu_0--node2-KOZSID_clean_sbu_0--edge1-XUDNAN_clean_linker_2
_symmetry_space_group_name_H-M    P1
_symmetry_Int_Tables_number       1
_symmetry_cell_setting            triclinic
loop_
_symmetry_equiv_pos_as_xyz
'x, y, z'
_cell_length_a     55.399744
_cell_length_b     55.339789
_cell_length_c     40.650214
_cell_angle_alpha  92.335218
_cell_angle_beta   94.763269
_cell_angle_gamma 90.012504
loop_
_atom_site_label
_atom_site_type_symbol
_atom_site_fract_x
_atom_site_fract_y
_atom_site_fract_z
_atom_type_partial_charge
Cu0 Cu 0.28204 0.2697 0.27821 0.0
N1 N 0.27639 0.2356 0.27965 0.0
N2 N 0.27564 0.19956 0.30459 0.0
C3 C 0.28083 0.22362 0.30799 0.0
C4 C 0.26749 0.19641 0.27233 0.0
C5 C 0.26797 0.21849 0.25714 0.0
O6 O 0.26667 0.2818 0.3177 0.0
C7 C 0.32433 0.2672 0.24844 0.0
O8 O 0.30806 0.25932 0.22511 0.0
H9 H 0.2876 0.23279 0.33088 0.0
H10 H 0.26256 0.22175 0.23153 0.0
N11 N 0.26946 0.28855 0.24185 0.0
N12 N 0.26719 0.32066 0.20834 0.0
C13 C 0.2781 0.31084 0.23598 0.0
C14 C 0.25235 0.28397 0.21692 0.0
C15 C 0.25091 0.30354 0.19642 0.0
C16 C 0.24438 0.27547 0.31717 0.0
O17 O 0.23442 0.26435 0.29022 0.0
H18 H 0.29258 0.31942 0.25173 0.0
H19 H 0.24174 0.2675 0.21364 0.0
O20 O 0.31736 0.27292 0.27698 0.0
H21 H 0.26169 0.17938 0.26024 0.0
H22 H 0.23864 0.30492 0.17446 0.0
Cu23 Cu 0.7991 0.29598 0.2736 0.0
N24 N 0.78241 0.282 0.23534 0.0
N25 N 0.74901 0.27253 0.20207 0.0
C26 C 0.75816 0.27916 0.23298 0.0
C27 C 0.76846 0.27123 0.18408 0.0
C28 C 0.78905 0.27716 0.20465 0.0
O29 O 0.79347 0.33058 0.26833 0.0
C30 C 0.78551 0.25793 0.30858 0.0
O31 O 0.79277 0.24721 0.28173 0.0
H32 H 0.74733 0.28327 0.25343 0.0
H33 H 0.8073 0.27883 0.19742 0.0
N34 N 0.83256 0.28974 0.28048 0.0
N35 N 0.86803 0.28526 0.31088 0.0
C36 C 0.84373 0.28759 0.311 0.0
C37 C 0.85044 0.28879 0.25998 0.0
C38 C 0.87233 0.28602 0.27866 0.0
C39 C 0.8098 0.34687 0.27275 0.0
O40 O 0.83089 0.34161 0.2879 0.0
H41 H 0.83409 0.28871 0.33309 0.0
H42 H 0.84786 0.29058 0.23353 0.0
O43 O 0.78565 0.28103 0.31093 0.0
H44 H 0.76788 0.2668 0.15785 0.0
H45 H 0.88999 0.28479 0.26918 0.0
Cu46 Cu 0.77863 0.78898 0.26892 0.0
N47 N 0.78841 0.76919 0.23201 0.0
N48 N 0.7901 0.73602 0.19707 0.0
C49 C 0.7813 0.74584 0.225 0.0
C50 C 0.80334 0.75415 0.18619 0.0
C51 C 0.80231 0.77432 0.20754 0.0
O52 O 0.74306 0.78595 0.26339 0.0
C53 C 0.81982 0.78028 0.30825 0.0
O54 O 0.82784 0.79089 0.28296 0.0
H55 H 0.76951 0.73636 0.24007 0.0
H56 H 0.81117 0.79151 0.20526 0.0
N57 N 0.78521 0.82324 0.27137 0.0
N58 N 0.78844 0.8624 0.29094 0.0
C59 C 0.78341 0.83907 0.29779 0.0
C60 C 0.79144 0.83711 0.24706 0.0
C61 C 0.79336 0.86086 0.25881 0.0
C62 C 0.73451 0.79409 0.23576 0.0
O63 O 0.7498 0.80374 0.21698 0.0
H64 H 0.77857 0.83352 0.3216 0.0
H65 H 0.79398 0.83053 0.22219 0.0
O66 O 0.79701 0.77662 0.30834 0.0
H67 H 0.81344 0.75295 0.16452 0.0
H68 H 0.79763 0.87592 0.24416 0.0
Cu69 Cu 0.264 0.76306 0.26107 0.0
N70 N 0.28326 0.78152 0.23517 0.0
N71 N 0.31354 0.78929 0.20354 0.0
C72 C 0.29956 0.77211 0.21532 0.0
C73 C 0.30567 0.81042 0.21651 0.0
C74 C 0.28705 0.80559 0.23597 0.0
O75 O 0.26173 0.73049 0.23967 0.0
C76 C 0.29388 0.78127 0.31638 0.0
O77 O 0.31201 0.78444 0.29813 0.0
H78 H 0.30197 0.75286 0.21108 0.0
H79 H 0.27789 0.81862 0.25104 0.0
N80 N 0.23256 0.77536 0.26509 0.0
N81 N 0.1975 0.77946 0.28891 0.0
C82 C 0.21541 0.76422 0.28091 0.0
C83 C 0.22508 0.79844 0.26285 0.0
C84 C 0.20352 0.80101 0.2775 0.0
C85 C 0.25098 0.73019 0.21064 0.0
O86 O 0.24161 0.75056 0.20006 0.0
H87 H 0.21709 0.74582 0.28886 0.0
H88 H 0.23536 0.81283 0.25343 0.0
O89 O 0.27779 0.76544 0.30678 0.0
H90 H 0.31312 0.82808 0.21278 0.0
H91 H 0.19352 0.81764 0.2806 0.0
Cu92 Cu 0.27641 0.79499 0.76727 0.0
N93 N 0.29636 0.8076 0.80394 0.0
N94 N 0.33052 0.81147 0.83777 0.0
C95 C 0.31831 0.79825 0.81305 0.0
C96 C 0.31562 0.82996 0.84459 0.0
C97 C 0.29471 0.8277 0.82348 0.0
O98 O 0.28035 0.75923 0.77307 0.0
C99 C 0.27568 0.82188 0.70489 0.0
O100 O 0.25323 0.81457 0.69822 0.0
H101 H 0.32545 0.78229 0.80104 0.0
H102 H 0.28006 0.84055 0.82154 0.0
N103 N 0.24299 0.80207 0.76875 0.0
N104 N 0.20306 0.80403 0.75317 0.0
C105 C 0.2247 0.79435 0.7466 0.0
C106 C 0.23238 0.81668 0.7905 0.0
C107 C 0.20795 0.81796 0.78099 0.0
C108 C 0.27229 0.75148 0.7996 0.0
O109 O 0.26094 0.76701 0.81813 0.0
H110 H 0.22731 0.78207 0.7258 0.0
H111 H 0.24165 0.82607 0.81163 0.0
O112 O 0.28837 0.8131 0.72958 0.0
H113 H 0.32004 0.84476 0.86229 0.0
H114 H 0.19497 0.82898 0.79322 0.0
Cu115 Cu 0.29584 0.2699 0.78436 0.0
N116 N 0.28955 0.3013 0.80163 0.0
N117 N 0.29185 0.33744 0.82878 0.0
C118 C 0.30357 0.32104 0.81012 0.0
C119 C 0.26987 0.32779 0.83173 0.0
C120 C 0.26865 0.30568 0.8155 0.0
O121 O 0.3189 0.25394 0.81619 0.0
C122 C 0.24862 0.26749 0.75483 0.0
O123 O 0.25528 0.28915 0.74701 0.0
H124 H 0.32234 0.32258 0.80493 0.0
H125 H 0.25388 0.29292 0.81553 0.0
N126 N 0.31101 0.26678 0.74461 0.0
N127 N 0.31732 0.23782 0.70559 0.0
C128 C 0.30092 0.25167 0.72036 0.0
C129 C 0.33504 0.26351 0.74345 0.0
C130 C 0.33897 0.24576 0.71945 0.0
C131 C 0.32602 0.26247 0.84509 0.0
O132 O 0.31382 0.28015 0.85836 0.0
H133 H 0.28184 0.24763 0.7176 0.0
H134 H 0.34849 0.27003 0.76258 0.0
O135 O 0.26362 0.25478 0.77257 0.0
H136 H 0.25593 0.33584 0.84576 0.0
H137 H 0.35605 0.2368 0.71636 0.0
Cu138 Cu 0.78024 0.27738 0.7813 0.0
N139 N 0.8137 0.27089 0.78048 0.0
N140 N 0.85039 0.27044 0.76031 0.0
C141 C 0.82925 0.28255 0.76258 0.0
C142 C 0.84816 0.25069 0.77833 0.0
C143 C 0.82561 0.25098 0.79058 0.0
O144 O 0.76478 0.25947 0.74028 0.0
C145 C 0.76129 0.32562 0.80535 0.0
O146 O 0.74026 0.31523 0.80786 0.0
H147 H 0.82415 0.29841 0.74895 0.0
H148 H 0.81786 0.23688 0.80412 0.0
N149 N 0.76688 0.26091 0.81564 0.0
N150 N 0.74108 0.25311 0.85401 0.0
C151 C 0.75532 0.26987 0.84157 0.0
C152 C 0.76048 0.23741 0.81266 0.0
C153 C 0.74472 0.23256 0.83609 0.0
C154 C 0.77619 0.25038 0.71628 0.0
O155 O 0.79807 0.2583 0.71258 0.0
H156 H 0.75607 0.28862 0.84992 0.0
H157 H 0.76537 0.22509 0.79297 0.0
O158 O 0.77788 0.31365 0.79137 0.0
H159 H 0.86144 0.23646 0.78146 0.0
H160 H 0.73568 0.21547 0.83847 0.0
Cu161 Cu 0.76504 0.78533 0.76162 0.0
N162 N 0.76102 0.75159 0.76006 0.0
N163 N 0.75717 0.71479 0.7801 0.0
C164 C 0.75568 0.73887 0.7861 0.0
C165 C 0.76389 0.71213 0.74901 0.0
C166 C 0.76624 0.7349 0.73667 0.0
O167 O 0.75039 0.79691 0.80202 0.0
C168 C 0.80693 0.78967 0.72847 0.0
O169 O 0.79093 0.78369 0.70387 0.0
H170 H 0.75197 0.74717 0.8097 0.0
H171 H 0.77216 0.73895 0.71282 0.0
N172 N 0.7481 0.80071 0.72645 0.0
N173 N 0.73787 0.83127 0.69385 0.0
C174 C 0.74733 0.8249 0.72387 0.0
C175 C 0.73839 0.79143 0.69715 0.0
C176 C 0.73227 0.81032 0.67681 0.0
C177 C 0.72769 0.79234 0.80162 0.0
O178 O 0.7169 0.78184 0.77475 0.0
H179 H 0.75499 0.83755 0.74295 0.0
H180 H 0.73722 0.77233 0.69039 0.0
O181 O 0.7999 0.79168 0.75773 0.0
H182 H 0.76716 0.69503 0.73629 0.0
H183 H 0.7249 0.8088 0.6513 0.0
C184 C 0.09233 0.29071 0.59771 0.0
C185 C 0.10415 0.31176 0.60995 0.0
C186 C 0.09171 0.33065 0.59622 0.0
C187 C 0.07332 0.32023 0.57589 0.0
N188 N 0.073 0.2958 0.57611 0.0
Co189 Co 0.05196 0.27369 0.54533 0.0
N190 N 0.03522 0.30147 0.52277 0.0
C191 C 0.03826 0.32516 0.5315 0.0
C192 C 0.02309 0.3401 0.51336 0.0
C193 C 0.00919 0.32502 0.4921 0.0
C194 C 0.0168 0.30166 0.4984 0.0
N195 N 0.03226 0.25148 0.51331 0.0
C196 C 0.01531 0.25636 0.4884 0.0
C197 C 0.00675 0.23538 0.47148 0.0
C198 C 0.01827 0.21655 0.48665 0.0
C199 C 0.03331 0.22707 0.51167 0.0
N200 N 0.06756 0.24593 0.5689 0.0
C201 C 0.06148 0.22236 0.56383 0.0
C202 C 0.07363 0.20743 0.58553 0.0
C203 C 0.08864 0.22233 0.60543 0.0
C204 C 0.08514 0.24556 0.59422 0.0
N205 N 0.02575 0.27403 0.57666 0.0
C206 C 0.98634 0.27713 0.6174 0.0
C207 C 0.9901 0.25631 0.59768 0.0
C208 C 0.00977 0.25511 0.57776 0.0
C209 C 1.00336 0.2958 0.61727 0.0
C210 C 0.02255 0.29395 0.59702 0.0
N211 N 0.07814 0.27373 0.51432 0.0
C212 C 0.10935 0.25319 0.48522 0.0
C213 C 0.1189 0.2753 0.47658 0.0
C214 C 0.10698 0.29639 0.48592 0.0
C215 C 0.08674 0.2952 0.50417 0.0
C216 C 0.08916 0.25281 0.50416 0.0
H217 H 0.07864 0.31204 0.51028 0.0
H218 H 0.08297 0.23548 0.51091 0.0
H219 H 0.01142 0.23882 0.5631 0.0
H220 H 0.03434 0.30917 0.59814 0.0
C221 C 0.05637 0.33278 0.55571 0.0
C222 C 0.10017 0.26629 0.60683 0.0
C223 C 1.00548 0.28025 0.48127 0.0
C224 C 0.04631 0.2146 0.53639 0.0
H225 H 0.12039 0.31353 0.62652 0.0
H226 H 0.09598 0.3497 0.59994 0.0
H227 H 0.02223 0.35964 0.51535 0.0
H228 H 0.99494 0.33054 0.47415 0.0
H229 H 0.993 0.23382 0.45096 0.0
H230 H 0.01533 0.19745 0.48096 0.0
H231 H 0.07231 0.18794 0.58613 0.0
H232 H 0.10127 0.21658 0.62531 0.0
H233 H 0.97758 0.24123 0.59683 0.0
H234 H 1.00193 0.31206 0.63272 0.0
H235 H 0.11787 0.23633 0.47832 0.0
H236 H 0.11328 0.31391 0.47919 0.0
C237 C 0.73971 0.08941 0.55127 0.0
C238 C 0.71685 0.09974 0.55094 0.0
C239 C 0.70204 0.08639 0.5286 0.0
C240 C 0.7166 0.0689 0.51608 0.0
N241 N 0.73977 0.06993 0.5294 0.0
Co242 Co 0.76725 0.04993 0.51356 0.0
N243 N 0.74572 0.03129 0.47899 0.0
C244 C 0.72139 0.03335 0.47448 0.0
C245 C 0.71086 0.01754 0.45066 0.0
C246 C 0.72953 1.00424 0.43958 0.0
C247 C 0.75054 0.01265 0.45733 0.0
N248 N 0.79504 0.03122 0.49624 0.0
C249 C 0.7957 0.01342 0.47199 0.0
C250 C 0.81921 1.00536 0.4692 0.0
C251 C 0.83379 0.01839 0.49216 0.0
C252 C 0.81854 0.03365 0.50781 0.0
N253 N 0.78856 0.06744 0.54942 0.0
C254 C 0.81222 0.06276 0.5572 0.0
C255 C 0.82241 0.07694 0.58313 0.0
C256 C 0.80423 0.09176 0.59234 0.0
C257 C 0.7839 0.08603 0.57115 0.0
N258 N 0.7615 0.02396 0.5448 0.0
C259 C 0.75238 0.98492 0.58485 0.0
C260 C 0.77557 0.98918 0.57535 0.0
C261 C 0.77979 0.00884 0.55594 0.0
C262 C 0.73393 1.0008 0.57467 0.0
C263 C 0.73878 0.0199 0.55462 0.0
N264 N 0.77274 0.07597 0.48265 0.0
C265 C 0.79584 0.11107 0.47013 0.0
C266 C 0.77656 0.1193 0.4492 0.0
C267 C 0.75609 0.1045 0.44331 0.0
C268 C 0.75456 0.08305 0.46015 0.0
C269 C 0.79375 0.08928 0.486 0.0
H270 H 0.73814 0.07295 0.45542 0.0
H271 H 0.80907 0.08392 0.5017 0.0
H272 H 0.79804 0.01125 0.55022 0.0
H273 H 0.7237 0.03092 0.54715 0.0
C274 C 0.70921 0.05127 0.49173 0.0
C275 C 0.76083 0.09915 0.57228 0.0
C276 C 0.77461 1.00255 0.45219 0.0
C277 C 0.82506 0.04767 0.53655 0.0
H278 H 0.7114 0.11559 0.56488 0.0
H279 H 0.68301 0.08942 0.52179 0.0
H280 H 0.69186 0.016 0.44217 0.0
H281 H 0.72784 0.98998 0.4205 0.0
H282 H 0.82516 0.99092 0.45308 0.0
H283 H 0.85307 0.01614 0.49789 0.0
H284 H 0.84111 0.07719 0.59325 0.0
H285 H 0.80596 0.10559 0.61199 0.0
H286 H 0.79051 0.97756 0.58322 0.0
H287 H 0.71566 0.99819 0.58155 0.0
H288 H 0.8124 0.12154 0.47456 0.0
H289 H 0.74083 0.10995 0.42689 0.0
C290 C 0.05033 0.80943 0.57304 0.0
C291 C 0.05784 0.83303 0.58093 0.0
C292 C 0.04334 0.84757 0.56151 0.0
C293 C 0.02782 0.83211 0.54294 0.0
N294 N 0.03159 0.80854 0.54914 0.0
Co295 Co 0.01241 0.78031 0.5282 0.0
N296 N 0.99115 0.80173 0.49934 0.0
C297 C 0.99347 0.82594 0.49734 0.0
C298 C 0.97717 0.83582 0.47456 0.0
C299 C 0.96348 0.81682 0.4612 0.0
C300 C 0.97202 0.79633 0.47698 0.0
N301 N 0.99267 0.75214 0.50818 0.0
C302 C 0.97242 0.75144 0.48672 0.0
C303 C 0.96308 0.72812 0.48228 0.0
C304 C 0.97809 0.71358 0.5009 0.0
C305 C 0.99552 0.72874 0.51605 0.0
N306 N 0.03419 0.75878 0.5562 0.0
C307 C 0.03321 0.73436 0.55629 0.0
C308 C 0.05069 0.72436 0.57735 0.0
C309 C 0.06371 0.74351 0.59161 0.0
C310 C 0.05335 0.7642 0.5784 0.0
N311 N 0.98954 0.7836 0.56378 0.0
C312 C 0.95548 0.78746 0.61217 0.0
C313 C 0.96883 0.76633 0.60773 0.0
C314 C 0.98542 0.76472 0.58349 0.0
C315 C 0.95979 0.8068 0.59231 0.0
C316 C 0.97697 0.80463 0.56884 0.0
N317 N 0.03531 0.777 0.4926 0.0
C318 C 0.05995 0.75187 0.45832 0.0
C319 C 0.06898 0.77202 0.44335 0.0
C320 C 0.06064 0.79477 0.45375 0.0
C321 C 0.04414 0.79683 0.4782 0.0
C322 C 0.04318 0.75471 0.48221 0.0
H323 H 0.0388 0.81471 0.48501 0.0
H324 H 0.03694 0.73853 0.49208 0.0
H325 H 0.99451 0.74787 0.58101 0.0
H326 H 0.97968 0.82022 0.55498 0.0
C327 C 0.01027 0.83904 0.51855 0.0
C328 C 0.06184 0.78855 0.58873 0.0
C329 C 0.96128 0.77223 0.46998 0.0
C330 C 0.01469 0.72153 0.53788 0.0
H331 H 0.07244 0.83907 0.59872 0.0
H332 H 0.04416 0.86708 0.56077 0.0
H333 H 0.97527 0.85465 0.46862 0.0
H334 H 0.9488 0.81806 0.44209 0.0
H335 H 0.94693 0.72216 0.46737 0.0
H336 H 0.97634 0.69428 0.50341 0.0
H337 H 0.05335 0.70542 0.58221 0.0
H338 H 0.0789 0.7424 0.61002 0.0
H339 H 0.96605 0.75079 0.62236 0.0
H340 H 0.95011 0.82367 0.5951 0.0
H341 H 0.06592 0.73376 0.45208 0.0
H342 H 0.0665 0.81108 0.44289 0.0
C343 C 0.31403 0.97502 0.55401 0.0
C344 C 0.33678 0.96493 0.56075 0.0
C345 C 0.35234 0.97672 0.54259 0.0
C346 C 0.33836 0.9931 0.52536 0.0
N347 N 0.3148 0.99283 0.53172 0.0
Co348 Co 0.28806 0.01121 0.50736 0.0
N349 N 0.3109 0.02751 0.47915 0.0
C350 C 0.33512 0.02433 0.48034 0.0
C351 C 0.34651 0.03879 0.45978 0.0
C352 C 0.32854 0.05252 0.44507 0.0
C353 C 0.30714 0.04567 0.4576 0.0
N354 N 0.26118 0.02894 0.48215 0.0
C355 C 0.26184 0.04654 0.45959 0.0
C356 C 0.23873 0.05433 0.44942 0.0
C357 C 0.22301 0.04152 0.46626 0.0
C358 C 0.23727 0.02664 0.48578 0.0
N359 N 0.26526 0.99571 0.53654 0.0
C360 C 0.24116 0.99978 0.53611 0.0
C361 C 0.22998 0.98695 0.55868 0.0
C362 C 0.2479 0.97358 0.57421 0.0
C363 C 0.2691 0.97873 0.55987 0.0
N364 N 0.2925 0.03922 0.5398 0.0
C365 C 0.29792 0.08077 0.58288 0.0
C366 C 0.27504 0.07176 0.57148 0.0
C367 C 0.27277 0.05128 0.55028 0.0
C368 C 0.31817 0.06858 0.57221 0.0
C369 C 0.31508 0.04783 0.55104 0.0
N370 N 0.28363 0.98303 0.47494 0.0
C371 C 0.25985 0.94812 0.45396 0.0
C372 C 0.27895 0.93863 0.43693 0.0
C373 C 0.30016 0.95268 0.43825 0.0
C374 C 0.30216 0.97444 0.45738 0.0
C375 C 0.26232 0.97026 0.47169 0.0
H376 H 0.31902 0.98377 0.45786 0.0
H377 H 0.24675 0.97628 0.48323 0.0
H378 H 0.25477 0.04569 0.54246 0.0
H379 H 0.33115 0.03904 0.54399 0.0
C380 C 0.3466 0.00803 0.50175 0.0
C381 C 0.29218 0.96635 0.56849 0.0
C382 C 0.28388 0.05746 0.44872 0.0
C383 C 0.22922 0.01344 0.51147 0.0
H384 H 0.34166 0.95005 0.57636 0.0
H385 H 0.37145 0.97316 0.5412 0.0
H386 H 0.36567 0.03963 0.45643 0.0
H387 H 0.33096 0.06632 0.42749 0.0
H388 H 0.23376 0.06843 0.4325 0.0
H389 H 0.20357 0.0438 0.46572 0.0
H390 H 0.21088 0.98664 0.56254 0.0
H391 H 0.24543 0.96101 0.59334 0.0
H392 H 0.25875 0.08066 0.57866 0.0
H393 H 0.33629 0.07471 0.58063 0.0
H394 H 0.24299 0.93842 0.45465 0.0
H395 H 0.31538 0.94705 0.42481 0.0
C396 C 0.56798 0.81445 0.09017 0.0
C397 C 0.57415 0.83595 0.10762 0.0
C398 C 0.56162 0.85387 0.09168 0.0
C399 C 0.54839 0.84235 0.06566 0.0
N400 N 0.55162 0.81813 0.06402 0.0
Co401 Co 0.53532 0.79462 0.03027 0.0
N402 N 0.51774 0.82115 1.00607 0.0
C403 C 0.52059 0.84518 0.01252 0.0
C404 C 0.50594 0.85909 0.99211 0.0
C405 C 0.49268 0.84298 0.97166 0.0
C406 C 0.49988 0.82006 0.98098 0.0
N407 N 0.51818 0.77103 0.99737 0.0
C408 C 0.49957 0.77448 0.97404 0.0
C409 C 0.49121 0.75266 0.95917 0.0
C410 C 0.50493 0.73489 0.97349 0.0
C411 C 0.52066 0.7467 0.99647 0.0
N412 N 0.5535 0.76812 0.05389 0.0
C413 C 0.55295 0.74432 0.04484 0.0
C414 C 0.5683 0.73049 0.06433 0.0
C415 C 0.57961 0.7464 0.08708 0.0
C416 C 0.57031 0.76913 0.08029 0.0
N417 N 0.50778 0.79157 0.05853 0.0
C418 C 0.46445 0.78636 0.09022 0.0
C419 C 0.4787 0.76633 0.08252 0.0
C420 C 0.50005 0.7693 0.06692 0.0
C421 C 0.4732 0.80923 0.08349 0.0
C422 C 0.49478 0.81142 0.06799 0.0
N423 N 0.56293 0.79766 1.00162 0.0
C424 C 0.59084 0.77958 0.96465 0.0
C425 C 0.60359 0.80133 0.96361 0.0
C426 C 0.59527 0.82131 0.98159 0.0
C427 C 0.57508 0.81916 1.00001 0.0
C428 C 0.57087 0.77814 0.98361 0.0
H429 H 0.56976 0.83519 0.01283 0.0
H430 H 0.56232 0.76091 0.98347 0.0
H431 H 0.50972 0.75322 0.06118 0.0
H432 H 0.50027 0.82932 0.06307 0.0
C433 C 0.53443 0.85391 0.0408 0.0
C434 C 0.57861 0.79115 0.09904 0.0
C435 C 0.48865 0.79787 0.96603 0.0
C436 C 0.53723 0.73542 0.01855 0.0
H437 H 0.58671 0.83848 0.12934 0.0
H438 H 0.56249 0.87308 0.09787 0.0
H439 H 0.50427 0.87859 0.99302 0.0
H440 H 0.47878 0.84759 0.95268 0.0
H441 H 0.47631 0.74972 0.94051 0.0
H442 H 0.50313 0.71558 0.96849 0.0
H443 H 0.57103 0.71114 0.06218 0.0
H444 H 0.59334 0.74175 0.10625 0.0
H445 H 0.47332 0.74824 0.08814 0.0
H446 H 0.46306 0.8254 0.08901 0.0
H447 H 0.59653 0.76346 0.95142 0.0
H448 H 0.60415 0.83873 0.98124 0.0
C449 C 0.24994 0.56639 0.05404 0.0
C450 C 0.22549 0.571 0.05649 0.0
C451 C 0.21325 0.56021 0.02921 0.0
C452 C 0.23076 0.54935 0.01186 0.0
N453 N 0.25331 0.55212 0.02678 0.0
Co454 Co 0.28353 0.53851 0.01004 0.0
N455 N 0.26504 0.51774 0.97549 0.0
C456 C 0.24145 0.52001 0.96523 0.0
C457 C 0.23364 0.50326 0.94085 0.0
C458 C 0.25356 0.48954 0.93532 0.0
C459 C 0.27244 0.49868 0.95687 0.0
N460 N 0.31373 0.52482 0.99333 0.0
C461 C 0.31697 0.50494 0.97352 0.0
C462 C 0.34133 0.5014 0.96918 0.0
C463 C 0.35369 0.51995 0.98631 0.0
C464 C 0.33631 0.53359 1.00035 0.0
N465 N 0.30216 0.55952 0.04453 0.0
C466 C 0.32614 0.56411 0.04583 0.0
C467 C 0.33416 0.58009 0.07097 0.0
C468 C 0.31396 0.5865 0.08627 0.0
C469 C 0.2946 0.57397 0.06957 0.0
N470 N 0.2829 0.51164 0.04142 0.0
C471 C 0.28284 0.47138 0.08341 0.0
C472 C 0.30375 0.48556 0.08114 0.0
C473 C 0.30342 0.50533 0.06023 0.0
C474 C 0.26195 0.47808 0.06389 0.0
C475 C 0.26231 0.49815 0.04344 0.0
N476 N 0.28411 0.56507 0.9781 0.0
C477 C 0.28966 0.57832 0.9229 0.0
C478 C 0.28515 0.60267 0.93189 0.0
C479 C 0.27992 0.60746 0.96485 0.0
C480 C 0.2795 0.58864 0.98727 0.0
C481 C 0.28912 0.56006 0.94606 0.0
H482 H 0.27553 0.59337 0.01213 0.0
H483 H 0.29275 0.54177 0.9378 0.0
H484 H 0.31999 0.51533 0.0591 0.0
H485 H 0.2458 0.50257 0.02911 0.0
C486 C 0.22653 0.5351 0.98283 0.0
C487 C 0.26919 0.57911 0.07519 0.0
C488 C 0.29738 0.48975 0.9574 0.0
C489 C 0.34082 0.55209 0.02431 0.0
H490 H 0.21746 0.58196 0.07535 0.0
H491 H 0.1939 0.56029 0.02279 0.0
H492 H 0.21543 0.5007 0.92939 0.0
H493 H 0.25411 0.47455 0.91746 0.0
H494 H 0.34942 0.48688 0.95531 0.0
H495 H 0.37313 0.52253 0.98936 0.0
H496 H 0.35249 0.58648 0.07728 0.0
H497 H 0.31358 0.59965 0.10661 0.0
H498 H 0.32058 0.48126 0.09512 0.0
H499 H 0.24518 0.46816 0.06474 0.0
H500 H 0.29336 0.57314 0.89787 0.0
H501 H 0.27657 0.62577 0.97369 0.0
C502 C 0.49191 0.28063 0.99235 0.0
C503 C 0.48131 0.30242 0.9834 0.0
C504 C 0.49027 0.31967 1.00626 0.0
C505 C 0.50601 0.30765 0.02764 0.0
N506 N 0.50798 0.28394 0.01933 0.0
Co507 Co 0.52856 0.26031 0.04458 0.0
N508 N 0.54713 0.28643 0.07056 0.0
C509 C 0.54043 0.3097 0.07377 0.0
C510 C 0.55719 0.32365 0.09277 0.0
C511 C 0.57561 0.30816 0.1021 0.0
C512 C 0.56903 0.28557 0.08814 0.0
N513 N 0.54888 0.23686 0.07018 0.0
C514 C 0.57057 0.24011 0.08786 0.0
C515 C 0.57888 0.21857 0.10098 0.0
C516 C 0.56166 0.20137 0.09137 0.0
C517 C 0.54392 0.21326 0.07286 0.0
N518 N 0.51014 0.23397 0.01854 0.0
C519 C 0.50978 0.21058 0.02657 0.0
C520 C 0.4945 0.1965 1.00559 0.0
C521 C 0.48418 0.21198 0.98317 0.0
C522 C 0.49382 0.2348 0.99167 0.0
N523 N 0.55273 0.2607 0.01167 0.0
C524 C 0.59468 0.26285 0.97702 0.0
C525 C 0.58501 0.24055 0.98493 0.0
C526 C 0.56402 0.23987 1.00211 0.0
C527 C 0.58168 0.28381 0.98465 0.0
C528 C 0.56084 0.28235 1.00172 0.0
N529 N 0.50475 0.26018 0.07818 0.0
C530 C 0.49566 0.26392 0.13533 0.0
C531 C 0.47062 0.26207 0.12638 0.0
C532 C 0.46331 0.25885 0.09252 0.0
C533 C 0.48047 0.25823 0.06905 0.0
C534 C 0.51229 0.26267 0.11108 0.0
H535 H 0.47388 0.25625 0.04346 0.0
H536 H 0.53132 0.26403 0.11904 0.0
H537 H 0.55769 0.22255 0.00914 0.0
H538 H 0.55204 0.29898 0.00835 0.0
C539 C 0.5209 0.31841 0.0537 0.0
C540 C 0.48433 0.25705 0.97667 0.0
C541 C 0.58316 0.26345 0.09384 0.0
C542 C 0.52522 0.2022 0.05254 0.0
H543 H 0.46804 0.30547 0.96294 0.0
H544 H 0.486 0.33876 1.00696 0.0
H545 H 0.55666 0.34297 0.09796 0.0
H546 H 0.59201 0.31292 0.11732 0.0
H547 H 0.59571 0.21551 0.11567 0.0
H548 H 0.56261 0.18223 0.09587 0.0
H549 H 0.49116 0.17728 1.00656 0.0
H550 H 0.47036 0.20708 0.96367 0.0
H551 H 0.59423 0.2238 0.97943 0.0
H552 H 0.58791 0.30143 0.97826 0.0
H553 H 0.50257 0.26674 0.16088 0.0
H554 H 0.44442 0.25664 0.08387 0.0
C555 C 0.75417 0.56512 0.05655 0.0
C556 C 0.73229 0.5715 0.06881 0.0
C557 C 0.71656 0.55272 0.06066 0.0
C558 C 0.72947 0.53597 0.04362 0.0
N559 N 0.75233 0.54305 0.04006 0.0
Co560 Co 0.77644 0.52371 0.01603 0.0
N561 N 0.75142 0.50036 0.99503 0.0
C562 C 0.72863 0.49853 1.00392 0.0
C563 C 0.71485 0.4818 0.98492 0.0
C564 C 0.72993 0.47208 0.9629 0.0
C565 C 0.75237 0.48313 0.96998 0.0
N566 N 0.8006 0.50437 0.99213 0.0
C567 C 0.79776 0.48622 0.96821 0.0
C568 C 0.8201 0.47678 0.96124 0.0
C569 C 0.83734 0.48934 0.98107 0.0
C570 C 0.82475 0.50561 0.9993 0.0
N571 N 0.80148 0.547 0.03703 0.0
C572 C 0.82554 0.54328 0.03847 0.0
C573 C 0.83878 0.56165 0.05491 0.0
C574 C 0.82205 0.578 0.06487 0.0
C575 C 0.79939 0.56872 0.05389 0.0
N576 N 0.7817 0.50282 0.05412 0.0
C577 C 0.78922 0.47337 0.10902 0.0
C578 C 0.78787 0.4986 0.11309 0.0
C579 C 0.78409 0.51288 0.08554 0.0
C580 C 0.78646 0.4632 0.07674 0.0
C581 C 0.78281 0.47818 0.04975 0.0
N582 N 0.77106 0.54475 0.97842 0.0
C583 C 0.78638 0.57331 0.94184 0.0
C584 C 0.76274 0.58066 0.93193 0.0
C585 C 0.74344 0.56844 0.94415 0.0
C586 C 0.74796 0.55065 0.96721 0.0
C587 C 0.79013 0.55529 0.96503 0.0
H588 H 0.73263 0.54237 0.97683 0.0
H589 H 0.80849 0.55058 0.97305 0.0
H590 H 0.78311 0.53214 0.08988 0.0
H591 H 0.781 0.46971 0.02536 0.0
C592 C 0.71991 0.51508 0.02695 0.0
C593 C 0.77657 0.57977 0.06346 0.0
C594 C 0.77443 0.47563 0.95393 0.0
C595 C 0.835 0.52358 0.02128 0.0
H596 H 0.72814 0.58795 0.08247 0.0
H597 H 0.69772 0.55172 0.06575 0.0
H598 H 0.69585 0.47773 0.98615 0.0
H599 H 0.72477 0.45844 0.94385 0.0
H600 H 0.82365 0.46186 0.94432 0.0
H601 H 0.85676 0.48692 0.98199 0.0
H602 H 0.85829 0.56315 0.05885 0.0
H603 H 0.82611 0.59458 0.07931 0.0
H604 H 0.78952 0.50735 0.1375 0.0
H605 H 0.7876 0.44383 0.07224 0.0
H606 H 0.80189 0.58216 0.93301 0.0
H607 H 0.72485 0.573 0.9366 0.0
H608 H 0.20201 0.25249 0.32639 0.0
H609 H 0.25348 0.30454 0.37415 0.0
H610 H 0.22772 0.30914 0.42124 0.0
H611 H 0.14823 0.28097 0.34961 0.0
H612 H 0.13286 0.25303 0.35591 0.0
H613 H 0.15559 0.25372 0.32678 0.0
H614 H 0.1791 0.21962 0.3572 0.0
H615 H 0.15645 0.21883 0.38649 0.0
H616 H 0.18784 0.22353 0.40081 0.0
H617 H 0.19454 0.30935 0.46179 0.0
H618 H 0.15846 0.30422 0.49287 0.0
H619 H 0.12979 0.25059 0.4192 0.0
C620 C 0.20799 0.26491 0.3467 0.0
C621 C 0.22979 0.27834 0.34637 0.0
C622 C 0.23691 0.29411 0.37375 0.0
C623 C 0.22235 0.29681 0.40058 0.0
C624 C 0.20088 0.28337 0.39988 0.0
C625 C 0.1939 0.26756 0.37369 0.0
C626 C 0.17011 0.25511 0.37867 0.0
C627 C 0.15055 0.26107 0.35111 0.0
C628 C 0.17359 0.22764 0.38093 0.0
C629 C 0.16444 0.2666 0.41162 0.0
C630 C 0.18238 0.2829 0.42345 0.0
C631 C 0.18058 0.29648 0.4528 0.0
C632 C 0.15996 0.29348 0.47025 0.0
C633 C 0.14133 0.2769 0.45861 0.0
C634 C 0.14386 0.26311 0.42903 0.0
H635 H 0.76811 0.21203 0.30368 0.0
H636 H 0.79247 0.26873 0.37549 0.0
H637 H 0.79101 0.23974 0.42034 0.0
H638 H 0.7272 0.18125 0.35663 0.0
H639 H 0.73472 0.15181 0.33988 0.0
H640 H 0.73521 0.17779 0.31461 0.0
H641 H 0.7796 0.1681 0.30334 0.0
H642 H 0.77941 0.14236 0.32895 0.0
H643 H 0.80211 0.1656 0.33769 0.0
H644 H 0.79179 0.20273 0.45607 0.0
H645 H 0.79063 0.16246 0.48032 0.0
H646 H 0.76468 0.13062 0.3847 0.0
C647 C 0.77256 0.21853 0.32896 0.0
C648 C 0.78027 0.24265 0.33621 0.0
C649 C 0.78615 0.25043 0.3695 0.0
C650 C 0.78553 0.23402 0.39504 0.0
C651 C 0.77863 0.21008 0.38683 0.0
C652 C 0.77178 0.20253 0.35459 0.0
C653 C 0.76598 0.17572 0.35185 0.0
C654 C 0.73918 0.1714 0.34005 0.0
C655 C 0.78278 0.16216 0.32912 0.0
C656 C 0.77128 0.16909 0.38745 0.0
C657 C 0.77858 0.1891 0.40731 0.0
C658 C 0.78576 0.18706 0.44078 0.0
C659 C 0.78524 0.16409 0.45428 0.0
C660 C 0.77749 0.14343 0.43441 0.0
C661 C 0.77035 0.14611 0.40059 0.0
H662 H 0.83073 0.79612 0.37331 0.0
H663 H 0.85191 0.74507 0.29748 0.0
H664 H 0.88924 0.7358 0.33207 0.0
H665 H 0.88807 0.82033 0.39446 0.0
H666 H 0.88569 0.82387 0.43834 0.0
H667 H 0.8588 0.82426 0.41027 0.0
H668 H 0.84029 0.78932 0.44047 0.0
H669 H 0.86696 0.78911 0.46907 0.0
H670 H 0.85718 0.76175 0.44624 0.0
H671 H 0.92692 0.73664 0.37034 0.0
H672 H 0.96064 0.74387 0.41336 0.0
H673 H 0.91528 0.79254 0.46716 0.0
C674 C 0.84272 0.78219 0.36481 0.0
C675 C 0.83807 0.77069 0.33311 0.0
C676 C 0.85481 0.75352 0.32202 0.0
C677 C 0.87617 0.74829 0.34141 0.0
C678 C 0.88069 0.76041 0.37203 0.0
C679 C 0.86428 0.77669 0.38407 0.0
C680 C 0.87446 0.78822 0.417 0.0
C681 C 0.87689 0.8158 0.41487 0.0
C682 C 0.85879 0.7817 0.44485 0.0
C683 C 0.89923 0.77627 0.42112 0.0
C684 C 0.90242 0.7604 0.39474 0.0
C685 C 0.92439 0.74857 0.39153 0.0
C686 C 0.94348 0.75279 0.41606 0.0
C687 C 0.94053 0.76841 0.4439 0.0
C688 C 0.918 0.78027 0.44636 0.0
H689 H 0.32426 0.81512 0.34984 0.0
H690 H 0.24861 0.79403 0.33328 0.0
H691 H 0.23682 0.83171 0.36194 0.0
H692 H 0.31851 0.84303 0.43373 0.0
H693 H 0.34022 0.86647 0.42815 0.0
H694 H 0.34275 0.83725 0.40753 0.0
H695 H 0.34222 0.85788 0.35141 0.0
H696 H 0.33922 0.8871 0.37177 0.0
H697 H 0.31723 0.87721 0.33879 0.0
H698 H 0.23298 0.87417 0.38501 0.0
H699 H 0.2371 0.91491 0.41034 0.0
H700 H 0.31553 0.90658 0.42005 0.0
C701 C 0.30526 0.8182 0.35288 0.0
C702 C 0.28738 0.80159 0.33905 0.0
C703 C 0.26269 0.80635 0.34357 0.0
C704 C 0.25577 0.82783 0.35972 0.0
C705 C 0.27377 0.84416 0.37207 0.0
C706 C 0.29805 0.83931 0.36979 0.0
C707 C 0.3137 0.85986 0.38572 0.0
C708 C 0.32974 0.85113 0.41556 0.0
C709 C 0.32899 0.87117 0.36041 0.0
C710 C 0.29438 0.87726 0.39649 0.0
C711 C 0.27152 0.86793 0.38795 0.0
C712 C 0.2508 0.88132 0.39291 0.0
C713 C 0.25344 0.90459 0.40779 0.0
C714 C 0.27667 0.91432 0.41867 0.0
C715 C 0.29739 0.90022 0.41244 0.0
H716 H 0.19437 0.79208 0.68687 0.0
H717 H 0.15849 0.81014 0.77558 0.0
H718 H 0.11898 0.80848 0.74308 0.0
H719 H 0.15556 0.82625 0.63149 0.0
H720 H 0.15534 0.8043 0.59748 0.0
H721 H 0.18106 0.80641 0.62763 0.0
H722 H 0.17668 0.76098 0.63899 0.0
H723 H 0.15103 0.7587 0.60872 0.0
H724 H 0.14812 0.7497 0.65033 0.0
H725 H 0.08309 0.80599 0.70092 0.0
H726 H 0.05336 0.80113 0.65203 0.0
H727 H 0.11158 0.78374 0.5904 0.0
C728 C 0.17822 0.79538 0.69959 0.0
C729 C 0.17979 0.80142 0.734 0.0
C730 C 0.15803 0.80588 0.74933 0.0
C731 C 0.13538 0.80486 0.73105 0.0
C732 C 0.13452 0.79924 0.69725 0.0
C733 C 0.15532 0.7944 0.68164 0.0
C734 C 0.14921 0.78893 0.64489 0.0
C735 C 0.161 0.80759 0.62416 0.0
C736 C 0.1567 0.76304 0.63517 0.0
C737 C 0.12179 0.79154 0.64235 0.0
C738 C 0.11373 0.79755 0.6729 0.0
C739 C 0.0892 0.8012 0.67692 0.0
C740 C 0.07245 0.79848 0.64909 0.0
C741 C 0.08022 0.79211 0.61765 0.0
C742 C 0.10523 0.78864 0.61425 0.0
H743 H 0.33827 0.21472 0.65405 0.0
H744 H 0.28557 0.20573 0.72588 0.0
H745 H 0.27662 0.16463 0.70337 0.0
H746 H 0.30416 0.1818 0.5865 0.0
H747 H 0.33027 0.16774 0.57027 0.0
H748 H 0.33325 0.19667 0.59224 0.0
H749 H 0.36687 0.17929 0.63257 0.0
H750 H 0.36388 0.15027 0.6108 0.0
H751 H 0.36073 0.15264 0.6546 0.0
H752 H 0.2728 0.12489 0.67404 0.0
H753 H 0.27289 0.0886 0.63705 0.0
H754 H 0.32749 0.12146 0.58234 0.0
C755 C 0.32488 0.20401 0.66488 0.0
C756 C 0.31231 0.21373 0.69138 0.0
C757 C 0.29497 0.19908 0.70506 0.0
C758 C 0.28992 0.17553 0.69266 0.0
C759 C 0.30236 0.16656 0.66648 0.0
C760 C 0.31941 0.18024 0.65252 0.0
C761 C 0.32955 0.166 0.6239 0.0
C762 C 0.32397 0.17882 0.5913 0.0
C763 C 0.35688 0.1618 0.6309 0.0
C764 C 0.31542 0.14238 0.62407 0.0
C765 C 0.29999 0.14322 0.64908 0.0
C766 C 0.28474 0.124 0.65428 0.0
C767 C 0.28487 0.10347 0.63302 0.0
C768 C 0.30003 0.10216 0.6066 0.0
C769 C 0.31583 0.12181 0.60245 0.0
H770 H 0.88411 0.2392 0.73632 0.0
H771 H 0.86095 0.31418 0.73657 0.0
H772 H 0.89231 0.3234 0.69936 0.0
H773 H 0.94845 0.25169 0.73674 0.0
H774 H 0.95417 0.2259 0.70999 0.0
H775 H 0.92974 0.22502 0.73654 0.0
H776 H 0.89962 0.2146 0.6858 0.0
H777 H 0.92392 0.21561 0.65905 0.0
H778 H 0.89754 0.23426 0.6514 0.0
H779 H 0.92569 0.32461 0.6613 0.0
H780 H 0.95983 0.31827 0.627 0.0
H781 H 0.96315 0.24281 0.65247 0.0
C782 C 0.8857 0.25764 0.72894 0.0
C783 C 0.8697 0.27593 0.73956 0.0
C784 C 0.87253 0.29971 0.72865 0.0
C785 C 0.89043 0.30518 0.70752 0.0
C786 C 0.90562 0.28674 0.69737 0.0
C787 C 0.90358 0.26346 0.70783 0.0
C788 C 0.9224 0.24705 0.69329 0.0
C789 C 0.93971 0.23681 0.72078 0.0
C790 C 0.91013 0.22667 0.67106 0.0
C791 C 0.93537 0.26477 0.67308 0.0
C792 C 0.92527 0.28752 0.67577 0.0
C793 C 0.93388 0.30691 0.65931 0.0
C794 C 0.95349 0.30312 0.63998 0.0
C795 C 0.96468 0.28011 0.6372 0.0
C796 C 0.95514 0.26062 0.65384 0.0
H797 H 0.75259 0.84641 0.63601 0.0
H798 H 0.72095 0.87067 0.72539 0.0
H799 H 0.72005 0.91272 0.70648 0.0
H800 H 0.79194 0.89757 0.63355 0.0
H801 H 0.78926 0.89864 0.58913 0.0
H802 H 0.78572 0.87029 0.60849 0.0
H803 H 0.74353 0.86433 0.57663 0.0
H804 H 0.74698 0.89262 0.55708 0.0
H805 H 0.72094 0.88757 0.57973 0.0
H806 H 0.72228 0.95197 0.67744 0.0
H807 H 0.73022 0.9862 0.64242 0.0
H808 H 0.76332 0.937 0.57376 0.0
C809 C 0.74514 0.86059 0.65123 0.0
C810 C 0.73647 0.85541 0.68192 0.0
C811 C 0.7275 0.87441 0.70175 0.0
C812 C 0.7269 0.89826 0.69116 0.0
C813 C 0.73574 0.90286 0.66089 0.0
C814 C 0.74493 0.88461 0.64134 0.0
C815 C 0.75466 0.89466 0.61085 0.0
C816 C 0.78202 0.89001 0.6105 0.0
C817 C 0.74069 0.88417 0.5792 0.0
C818 C 0.74941 0.92137 0.61622 0.0
C819 C 0.73823 0.92566 0.64504 0.0
C820 C 0.73113 0.94884 0.65491 0.0
C821 C 0.73565 0.96814 0.63487 0.0
C822 C 0.74748 0.96424 0.60557 0.0
C823 C 0.75447 0.94052 0.59624 0.0
H824 H 0.82249 0.80477 0.67116 0.0
H825 H 0.84908 0.78045 0.76747 0.0
H826 H 0.89089 0.77929 0.74941 0.0
H827 H 0.85859 0.76832 0.62412 0.0
H828 H 0.86351 0.79052 0.59411 0.0
H829 H 0.83648 0.79166 0.61577 0.0
H830 H 0.84639 0.83579 0.63611 0.0
H831 H 0.87337 0.8349 0.6142 0.0
H832 H 0.87542 0.84275 0.65782 0.0
H833 H 0.92914 0.77606 0.71739 0.0
H834 H 0.96038 0.77487 0.67708 0.0
H835 H 0.90841 0.80303 0.60282 0.0
C836 C 0.83717 0.79966 0.68877 0.0
C837 C 0.83253 0.79274 0.72081 0.0
C838 C 0.85224 0.7861 0.74299 0.0
C839 C 0.87601 0.78526 0.7328 0.0
C840 C 0.87978 0.79151 0.70058 0.0
C841 C 0.86087 0.79904 0.67916 0.0
C842 C 0.8693 0.80415 0.64555 0.0
C843 C 0.85619 0.78768 0.6183 0.0
C844 C 0.86592 0.83099 0.63799 0.0
C845 C 0.89587 0.79776 0.65092 0.0
C846 C 0.90164 0.79044 0.68276 0.0
C847 C 0.92482 0.78216 0.69264 0.0
C848 C 0.94243 0.78142 0.66952 0.0
C849 C 0.93694 0.7891 0.63689 0.0
C850 C 0.91333 0.79753 0.62774 0.0
H851 H 0.25756 0.83879 0.64447 0.0
H852 H 0.31273 0.85403 0.72468 0.0
H853 H 0.32291 0.89211 0.69888 0.0
H854 H 0.29192 0.8629 0.57898 0.0
H855 H 0.26526 0.87473 0.55682 0.0
H856 H 0.26297 0.84841 0.58108 0.0
H857 H 0.23024 0.86988 0.61343 0.0
H858 H 0.23264 0.89636 0.58955 0.0
H859 H 0.23695 0.89888 0.634 0.0
H860 H 0.32421 0.93113 0.66653 0.0
H861 H 0.3203 0.96436 0.62746 0.0
H862 H 0.26683 0.92256 0.56544 0.0
C863 C 0.27209 0.8499 0.6564 0.0
C864 C 0.28439 0.84309 0.68679 0.0
C865 C 0.30317 0.85845 0.70138 0.0
C866 C 0.30896 0.88031 0.68694 0.0
C867 C 0.29614 0.88667 0.65744 0.0
C868 C 0.2784 0.87162 0.64198 0.0
C869 C 0.26745 0.88252 0.61024 0.0
C870 C 0.27218 0.86617 0.57999 0.0
C871 C 0.2402 0.88718 0.61192 0.0
C872 C 0.28149 0.90622 0.6104 0.0
C873 C 0.29778 0.90838 0.63806 0.0
C874 C 0.31186 0.92927 0.64451 0.0
C875 C 0.30955 0.94811 0.62207 0.0
C876 C 0.29367 0.94607 0.59283 0.0
C877 C 0.27936 0.92472 0.58726 0.0
H878 H 0.20329 0.28622 0.75643 0.0
H879 H 0.24345 0.22821 0.71177 0.0
H880 H 0.20922 0.22086 0.66946 0.0
H881 H 0.14203 0.25498 0.74022 0.0
H882 H 0.12695 0.28345 0.73359 0.0
H883 H 0.15358 0.28211 0.7621 0.0
H884 H 0.17358 0.31518 0.7301 0.0
H885 H 0.14738 0.31611 0.70088 0.0
H886 H 0.17682 0.31016 0.68658 0.0
H887 H 0.17436 0.22624 0.62559 0.0
H888 H 0.1372 0.23649 0.59107 0.0
H889 H 0.11612 0.2859 0.66906 0.0
C890 C 0.20437 0.27123 0.73865 0.0
C891 C 0.22593 0.2576 0.73758 0.0
C892 C 0.22701 0.23859 0.71342 0.0
C893 C 0.2077 0.23446 0.68907 0.0
C894 C 0.18712 0.24899 0.68988 0.0
C895 C 0.1849 0.2663 0.71491 0.0
C896 C 0.16093 0.27958 0.70999 0.0
C897 C 0.14492 0.27473 0.73815 0.0
C898 C 0.16494 0.30687 0.7067 0.0
C899 C 0.15047 0.26779 0.67755 0.0
C900 C 0.16606 0.25048 0.66609 0.0
C901 C 0.16164 0.23912 0.63492 0.0
C902 C 0.14052 0.24514 0.61542 0.0
C903 C 0.12356 0.26187 0.62732 0.0
C904 C 0.12869 0.27317 0.65902 0.0
H905 H 0.79423 0.2306 0.65966 0.0
H906 H 0.73873 0.21892 0.72657 0.0
H907 H 0.72831 0.17975 0.69693 0.0
H908 H 0.76088 0.20345 0.58514 0.0
H909 H 0.78776 0.19054 0.56957 0.0
H910 H 0.78984 0.21802 0.59501 0.0
H911 H 0.82181 0.19807 0.63524 0.0
H912 H 0.81967 0.17047 0.6101 0.0
H913 H 0.81461 0.17001 0.6533 0.0
H914 H 0.72639 0.1394 0.66186 0.0
H915 H 0.73075 0.10438 0.62286 0.0
H916 H 0.78617 0.14297 0.57692 0.0
C917 C 0.77955 0.22007 0.66786 0.0
C918 C 0.76719 0.22828 0.69561 0.0
C919 C 0.74831 0.21351 0.70533 0.0
C920 C 0.74239 0.19103 0.68867 0.0
C921 C 0.75529 0.18335 0.66191 0.0
C922 C 0.77328 0.19768 0.65131 0.0
C923 C 0.78466 0.18527 0.62215 0.0
C924 C 0.78054 0.20021 0.59113 0.0
C925 C 0.8118 0.18069 0.63072 0.0
C926 C 0.77052 0.16156 0.61808 0.0
C927 C 0.75372 0.16073 0.64138 0.0
C928 C 0.73924 0.1402 0.64329 0.0
C929 C 0.7418 0.12032 0.62089 0.0
C930 C 0.75847 0.12084 0.59622 0.0
C931 C 0.77306 0.14192 0.59513 0.0
H932 H 0.91683 0.29591 0.31619 0.0
H933 H 0.85897 0.26951 0.37122 0.0
H934 H 0.8874 0.26738 0.42071 0.0
H935 H 0.9637 0.25774 0.35379 0.0
H936 H 0.98708 0.28045 0.35442 0.0
H937 H 0.96207 0.28046 0.32313 0.0
H938 H 0.9525 0.32475 0.34042 0.0
H939 H 0.97737 0.32481 0.37194 0.0
H940 H 0.94731 0.33229 0.38281 0.0
H941 H 0.92193 0.26774 0.46469 0.0
H942 H 0.96093 0.26899 0.49926 0.0
H943 H 0.99719 0.2943 0.41673 0.0
C944 C 0.91011 0.28954 0.33853 0.0
C945 C 0.88534 0.28318 0.33954 0.0
C946 C 0.87755 0.27503 0.36961 0.0
C947 C 0.89366 0.27361 0.39799 0.0
C948 C 0.91774 0.28029 0.39624 0.0
C949 C 0.92605 0.28795 0.36727 0.0
C950 C 0.95302 0.29366 0.37214 0.0
C951 C 0.96731 0.27709 0.34953 0.0
C952 C 0.95782 0.32047 0.36649 0.0
C953 C 0.95852 0.28794 0.40828 0.0
C954 C 0.93782 0.28035 0.42168 0.0
C955 C 0.93823 0.27373 0.45448 0.0
C956 C 0.96039 0.27457 0.47397 0.0
C957 C 0.98188 0.28198 0.46074 0.0
C958 C 0.9809 0.28889 0.4275 0.0
H959 H 0.76716 0.87157 0.35028 0.0
H960 H 0.81172 0.90459 0.28124 0.0
H961 H 0.81172 0.94275 0.3137 0.0
H962 H 0.73101 0.92473 0.3675 0.0
H963 H 0.73029 0.91993 0.411 0.0
H964 H 0.73322 0.89451 0.38245 0.0
H965 H 0.7724 0.88146 0.41604 0.0
H966 H 0.76951 0.90677 0.44477 0.0
H967 H 0.79697 0.90279 0.42433 0.0
H968 H 0.80665 0.97851 0.35247 0.0
H969 H 0.79857 0.00838 0.39706 0.0
H970 H 0.75878 0.95404 0.44438 0.0
C971 C 0.77702 0.88675 0.34202 0.0
C972 C 0.78907 0.8846 0.31225 0.0
C973 C 0.80173 0.9053 0.30298 0.0
C974 C 0.80202 0.92732 0.32157 0.0
C975 C 0.78975 0.92893 0.35012 0.0
C976 C 0.77763 0.9092 0.36064 0.0
C977 C 0.76626 0.9162 0.39281 0.0
C978 C 0.73855 0.91369 0.38815 0.0
C979 C 0.77692 0.90089 0.42117 0.0
C980 C 0.77385 0.94279 0.39844 0.0
C981 C 0.78732 0.94966 0.37326 0.0
C982 C 0.79623 0.97323 0.3724 0.0
C983 C 0.79155 0.99017 0.3979 0.0
C984 C 0.77818 0.98377 0.42451 0.0
C985 C 0.76909 0.95963 0.4245 0.0
H986 H 0.17922 0.80868 0.3366 0.0
H987 H 0.17082 0.73838 0.28599 0.0
H988 H 0.13662 0.72917 0.31907 0.0
H989 H 0.16712 0.78813 0.41693 0.0
H990 H 0.15134 0.81523 0.4286 0.0
H991 H 0.1745 0.8166 0.40013 0.0
H992 H 0.14398 0.83599 0.35731 0.0
H993 H 0.1207 0.83461 0.38562 0.0
H994 H 0.11575 0.82075 0.34471 0.0
H995 H 0.10238 0.72824 0.35646 0.0
H996 H 0.07281 0.73396 0.39785 0.0
H997 H 0.10537 0.80372 0.42807 0.0
C998 C 0.17 0.79145 0.33231 0.0
C999 C 0.17753 0.77429 0.30841 0.0
C1000 C 0.16537 0.75173 0.3041 0.0
C1001 C 0.14587 0.74641 0.32271 0.0
C1002 C 0.13888 0.7637 0.34601 0.0
C1003 C 0.15075 0.78566 0.35116 0.0
C1004 C 0.14024 0.80062 0.37874 0.0
C1005 C 0.15944 0.80542 0.40782 0.0
C1006 C 0.12953 0.8244 0.36581 0.0
C1007 C 0.12046 0.78375 0.38808 0.0
C1008 C 0.1199 0.76265 0.36869 0.0
C1009 C 0.10291 0.74456 0.3721 0.0
C1010 C 0.08623 0.74795 0.3961 0.0
C1011 C 0.08665 0.76916 0.4171 0.0
C1012 C 0.10413 0.78731 0.41262 0.0
H1013 H 0.26009 0.15158 0.30103 0.0
H1014 H 0.29811 0.20527 0.36721 0.0
H1015 H 0.30295 0.17553 0.41019 0.0
H1016 H 0.22849 0.12244 0.36356 0.0
H1017 H 0.23162 0.09232 0.34586 0.0
H1018 H 0.2305 0.11789 0.3197 0.0
H1019 H 0.27136 0.1051 0.29789 0.0
H1020 H 0.27255 0.07945 0.32389 0.0
H1021 H 0.29731 0.10078 0.32683 0.0
H1022 H 0.30443 0.1397 0.4471 0.0
H1023 H 0.30271 0.10043 0.47391 0.0
H1024 H 0.26459 0.06873 0.38518 0.0
C1025 C 0.26949 0.15725 0.32443 0.0
C1026 C 0.2785 0.1814 0.33005 0.0
C1027 C 0.29062 0.18743 0.36157 0.0
C1028 C 0.2936 0.17045 0.38648 0.0
C1029 C 0.2845 0.14708 0.3801 0.0
C1030 C 0.27272 0.14039 0.34982 0.0
C1031 C 0.26496 0.11385 0.34949 0.0
C1032 C 0.23724 0.11149 0.34434 0.0
C1033 C 0.27728 0.09892 0.32295 0.0
C1034 C 0.27428 0.10674 0.38418 0.0
C1035 C 0.28545 0.12629 0.4014 0.0
C1036 C 0.29566 0.12433 0.43378 0.0
C1037 C 0.29459 0.10192 0.4489 0.0
C1038 C 0.28337 0.08147 0.43194 0.0
C1039 C 0.27305 0.08405 0.39902 0.0
H1040 H 0.68206 0.77603 0.80913 0.0
H1041 H 0.74046 0.81861 0.86022 0.0
H1042 H 0.71526 0.8258 0.90747 0.0
H1043 H 0.63283 0.8118 0.83476 0.0
H1044 H 0.61347 0.78611 0.83888 0.0
H1045 H 0.63618 0.78459 0.80965 0.0
H1046 H 0.65426 0.74633 0.83682 0.0
H1047 H 0.6316 0.74771 0.86615 0.0
H1048 H 0.66327 0.74737 0.8805 0.0
H1049 H 0.6823 0.82872 0.94899 0.0
H1050 H 0.64637 0.82592 0.98096 0.0
H1051 H 0.61033 0.78079 0.90196 0.0
C1052 C 0.68968 0.78695 0.83015 0.0
C1053 C 0.71331 0.79689 0.83075 0.0
C1054 C 0.72246 0.81084 0.85906 0.0
C1055 C 0.70822 0.81501 0.886 0.0
C1056 C 0.68493 0.80497 0.88439 0.0
C1057 C 0.67586 0.7911 0.85715 0.0
C1058 C 0.6505 0.782 0.8613 0.0
C1059 C 0.63217 0.79171 0.83456 0.0
C1060 C 0.64989 0.7542 0.86119 0.0
C1061 C 0.64646 0.79301 0.89512 0.0
C1062 C 0.66645 0.80627 0.90809 0.0
C1063 C 0.66664 0.81834 0.93894 0.0
C1064 C 0.64603 0.81676 0.95688 0.0
C1065 C 0.62537 0.80311 0.94414 0.0
C1066 C 0.62582 0.79112 0.91275 0.0
H1067 H 0.25129 0.73061 0.85049 0.0
H1068 H 0.30322 0.71525 0.77833 0.0
H1069 H 0.3119 0.6756 0.80346 0.0
H1070 H 0.28436 0.70517 0.91919 0.0
H1071 H 0.25807 0.69321 0.93629 0.0
H1072 H 0.25535 0.71957 0.91172 0.0
H1073 H 0.22199 0.69828 0.87252 0.0
H1074 H 0.22447 0.67191 0.89712 0.0
H1075 H 0.22805 0.66917 0.85346 0.0
H1076 H 0.31602 0.63761 0.83953 0.0
H1077 H 0.31432 0.60569 0.87985 0.0
H1078 H 0.25873 0.64585 0.92766 0.0
C1079 C 0.2644 0.71891 0.83959 0.0
C1080 C 0.27651 0.72632 0.81208 0.0
C1081 C 0.2935 0.71016 0.79904 0.0
C1082 C 0.29861 0.68757 0.81336 0.0
C1083 C 0.28654 0.68112 0.84075 0.0
C1084 C 0.2696 0.69636 0.85348 0.0
C1085 C 0.25915 0.68552 0.88315 0.0
C1086 C 0.26456 0.70184 0.91443 0.0
C1087 C 0.23179 0.68095 0.87613 0.0
C1088 C 0.27299 0.66183 0.88563 0.0
C1089 C 0.28869 0.65956 0.86094 0.0
C1090 C 0.30356 0.63928 0.85863 0.0
C1091 C 0.30231 0.621 0.88175 0.0
C1092 C 0.28622 0.62267 0.90732 0.0
C1093 C 0.27144 0.64368 0.90895 0.0
H1094 H 0.34532 0.27425 0.90847 0.0
H1095 H 0.36231 0.23681 0.81741 0.0
H1096 H 0.4044 0.23113 0.84102 0.0
H1097 H 0.40054 0.30595 0.9245 0.0
H1098 H 0.40254 0.30297 0.96863 0.0
H1099 H 0.37336 0.30292 0.94553 0.0
H1100 H 0.36305 0.2616 0.96873 0.0
H1101 H 0.39207 0.2617 0.9923 0.0
H1102 H 0.38344 0.23652 0.96425 0.0
H1103 H 0.44598 0.23261 0.87327 0.0
H1104 H 0.4821 0.23758 0.91341 0.0
H1105 H 0.43757 0.27206 0.98428 0.0
C1106 C 0.35774 0.26447 0.89364 0.0
C1107 C 0.35031 0.2559 0.86101 0.0
C1108 C 0.36734 0.24335 0.84252 0.0
C1109 C 0.3914 0.24016 0.85568 0.0
C1110 C 0.39825 0.24936 0.88759 0.0
C1111 C 0.38177 0.26089 0.90654 0.0
C1112 C 0.39375 0.26924 0.94006 0.0
C1113 C 0.39246 0.29691 0.94495 0.0
C1114 C 0.3824 0.2565 0.96799 0.0
C1115 C 0.41959 0.26094 0.93688 0.0
C1116 C 0.42189 0.24965 0.90635 0.0
C1117 C 0.44428 0.24123 0.89733 0.0
C1118 C 0.46472 0.2442 0.92018 0.0
C1119 C 0.46269 0.25534 0.9518 0.0
C1120 C 0.43973 0.2637 0.96016 0.0
H1121 H 0.74607 0.34288 0.86492 0.0
H1122 H 0.78816 0.36397 0.78555 0.0
H1123 H 0.79499 0.40446 0.81355 0.0
H1124 H 0.71805 0.40024 0.88239 0.0
H1125 H 0.72082 0.39754 0.92657 0.0
H1126 H 0.71842 0.37076 0.89974 0.0
H1127 H 0.75835 0.35451 0.92801 0.0
H1128 H 0.76078 0.38113 0.95513 0.0
H1129 H 0.78531 0.37297 0.93041 0.0
H1130 H 0.79515 0.44435 0.85004 0.0
H1131 H 0.79314 0.47689 0.89342 0.0
H1132 H 0.75561 0.42816 0.95275 0.0
C1133 C 0.75664 0.35607 0.85327 0.0
C1134 C 0.76625 0.35015 0.8225 0.0
C1135 C 0.78046 0.36789 0.8088 0.0
C1136 C 0.78436 0.39105 0.82461 0.0
C1137 C 0.77449 0.3963 0.85476 0.0
C1138 C 0.76132 0.37903 0.86926 0.0
C1139 C 0.75388 0.38863 0.9027 0.0
C1140 C 0.72614 0.38933 0.90285 0.0
C1141 C 0.76526 0.3734 0.93072 0.0
C1142 C 0.76454 0.41414 0.9047 0.0
C1143 C 0.77604 0.41835 0.87655 0.0
C1144 C 0.78639 0.44095 0.87223 0.0
C1145 C 0.78515 0.45945 0.89713 0.0
C1146 C 0.77407 0.45554 0.92675 0.0
C1147 C 0.76381 0.43226 0.93036 0.0
H1148 H 0.72694 0.27685 0.13935 0.0
H1149 H 0.71291 0.26051 0.23962 0.0
H1150 H 0.66935 0.2575 0.22275 0.0
H1151 H 0.67384 0.3127 0.12128 0.0
H1152 H 0.66829 0.30127 0.07917 0.0
H1153 H 0.69871 0.30215 0.09866 0.0
H1154 H 0.70325 0.25626 0.08551 0.0
H1155 H 0.67289 0.25535 0.06577 0.0
H1156 H 0.68133 0.23546 0.09881 0.0
H1157 H 0.62718 0.25736 0.19613 0.0
H1158 H 0.58899 0.25747 0.15992 0.0
H1159 H 0.62927 0.27233 0.07606 0.0
C1160 C 0.71478 0.27238 0.15769 0.0
C1161 C 0.72358 0.26924 0.19106 0.0
C1162 C 0.7068 0.26355 0.21416 0.0
C1163 C 0.68193 0.26166 0.20477 0.0
C1164 C 0.67386 0.2653 0.17201 0.0
C1165 C 0.68972 0.27032 0.14867 0.0
C1166 C 0.67605 0.27324 0.11501 0.0
C1167 C 0.67943 0.29887 0.10282 0.0
C1168 C 0.68384 0.25392 0.08979 0.0
C1169 C 0.65011 0.26912 0.12321 0.0
C1170 C 0.64935 0.26469 0.15634 0.0
C1171 C 0.62756 0.26064 0.17012 0.0
C1172 C 0.60599 0.26076 0.14946 0.0
C1173 C 0.60633 0.26468 0.11535 0.0
C1174 C 0.62864 0.26917 0.1021 0.0
H1175 H 0.79668 0.71927 0.13306 0.0
H1176 H 0.77566 0.69577 0.22723 0.0
H1177 H 0.77005 0.65428 0.20348 0.0
H1178 H 0.75452 0.68098 0.08143 0.0
H1179 H 0.77524 0.67455 0.0503 0.0
H1180 H 0.77772 0.7026 0.07448 0.0
H1181 H 0.82249 0.69313 0.09246 0.0
H1182 H 0.82013 0.66505 0.06834 0.0
H1183 H 0.82996 0.66502 0.11173 0.0
H1184 H 0.76745 0.61425 0.16967 0.0
H1185 H 0.76681 0.58004 0.12846 0.0
H1186 H 0.78877 0.62833 0.05512 0.0
C1187 C 0.791 0.70547 0.14888 0.0
C1188 C 0.78661 0.71137 0.18244 0.0
C1189 C 0.77894 0.69234 0.20161 0.0
C1190 C 0.77581 0.66845 0.18827 0.0
C1191 C 0.78028 0.66336 0.15537 0.0
C1192 C 0.78765 0.68137 0.13584 0.0
C1193 C 0.79103 0.67096 0.10105 0.0
C1194 C 0.77359 0.68299 0.07529 0.0
C1195 C 0.81747 0.67371 0.09292 0.0
C1196 C 0.78445 0.64434 0.10405 0.0
C1197 C 0.77839 0.6404 0.13573 0.0
C1198 C 0.77198 0.61731 0.14479 0.0
C1199 C 0.77158 0.5979 0.1211 0.0
C1200 C 0.77728 0.60132 0.08821 0.0
C1201 C 0.78402 0.62501 0.07984 0.0
H1202 H 0.35401 0.81758 0.20184 0.0
H1203 H 0.31881 0.75227 0.15891 0.0
H1204 H 0.3533 0.74478 0.1252 0.0
H1205 H 0.37999 0.83595 0.1274 0.0
H1206 H 0.40776 0.84695 0.14916 0.0
H1207 H 0.38007 0.84754 0.16951 0.0
H1208 H 0.40061 0.8228 0.21673 0.0
H1209 H 0.42834 0.8221 0.1965 0.0
H1210 H 0.41452 0.79424 0.20693 0.0
H1211 H 0.3916 0.7442 0.09613 0.0
H1212 H 0.43114 0.75019 0.07416 0.0
H1213 H 0.44252 0.81546 0.13658 0.0
C1214 C 0.35341 0.80185 0.18509 0.0
C1215 C 0.33356 0.78549 0.18313 0.0
C1216 C 0.33381 0.76492 0.1612 0.0
C1217 C 0.3533 0.76058 0.14179 0.0
C1218 C 0.37259 0.77692 0.14451 0.0
C1219 C 0.37284 0.79715 0.1656 0.0
C1220 C 0.3961 0.81155 0.16426 0.0
C1221 C 0.39065 0.83701 0.15184 0.0
C1222 C 0.41076 0.81273 0.19812 0.0
C1223 C 0.40887 0.79624 0.13914 0.0
C1224 C 0.39491 0.7764 0.12804 0.0
C1225 C 0.40274 0.75961 0.10482 0.0
C1226 C 0.42542 0.76309 0.09267 0.0
C1227 C 0.44032 0.78316 0.10378 0.0
C1228 C 0.43169 0.79999 0.12731 0.0
H1229 H 0.25017 0.3385 0.14761 0.0
H1230 H 0.29518 0.35779 0.23756 0.0
H1231 H 0.30371 0.39716 0.2154 0.0
H1232 H 0.28706 0.36805 0.09134 0.0
H1233 H 0.26167 0.37844 0.06508 0.0
H1234 H 0.25898 0.35131 0.0876 0.0
H1235 H 0.22171 0.36918 0.11415 0.0
H1236 H 0.22429 0.39636 0.09172 0.0
H1237 H 0.22425 0.39817 0.13609 0.0
H1238 H 0.30781 0.43527 0.18364 0.0
H1239 H 0.30668 0.46867 0.14535 0.0
H1240 H 0.25886 0.42631 0.07517 0.0
C1241 C 0.26177 0.35089 0.16289 0.0
C1242 C 0.272 0.34428 0.19474 0.0
C1243 C 0.28716 0.3616 0.2132 0.0
C1244 C 0.29212 0.38434 0.20078 0.0
C1245 C 0.28184 0.39012 0.16957 0.0
C1246 C 0.26693 0.37392 0.15083 0.0
C1247 C 0.25819 0.38488 0.11799 0.0
C1248 C 0.267 0.36977 0.08877 0.0
C1249 C 0.23046 0.38729 0.1148 0.0
C1250 C 0.27045 0.40973 0.12129 0.0
C1251 C 0.28407 0.41224 0.15128 0.0
C1252 C 0.29723 0.43337 0.16007 0.0
C1253 C 0.29659 0.45233 0.13785 0.0
C1254 C 0.28286 0.4505 0.10672 0.0
C1255 C 0.26947 0.42869 0.09866 0.0
H1256 H 0.33893 0.28137 0.19032 0.0
H1257 H 0.36683 0.25742 0.28621 0.0
H1258 H 0.40818 0.25508 0.26659 0.0
H1259 H 0.37332 0.24418 0.14199 0.0
H1260 H 0.37821 0.26621 0.11175 0.0
H1261 H 0.35165 0.26801 0.13434 0.0
H1262 H 0.36281 0.31192 0.1545 0.0
H1263 H 0.38925 0.31041 0.1315 0.0
H1264 H 0.39234 0.31825 0.17513 0.0
H1265 H 0.44562 0.25062 0.23291 0.0
H1266 H 0.47579 0.24839 0.19165 0.0
H1267 H 0.42323 0.27874 0.11947 0.0
C1268 C 0.35384 0.27609 0.20746 0.0
C1269 C 0.34974 0.2696 0.23983 0.0
C1270 C 0.36965 0.26274 0.26147 0.0
C1271 C 0.39314 0.26122 0.2504 0.0
C1272 C 0.3964 0.2671 0.21787 0.0
C1273 C 0.37728 0.27491 0.19702 0.0
C1274 C 0.38517 0.27978 0.16307 0.0
C1275 C 0.37126 0.26358 0.13622 0.0
C1276 C 0.38222 0.30669 0.15562 0.0
C1277 C 0.41163 0.27281 0.16755 0.0
C1278 C 0.41784 0.26548 0.19923 0.0
C1279 C 0.44099 0.25685 0.20829 0.0
C1280 C 0.45815 0.2558 0.18454 0.0
C1281 C 0.45232 0.26353 0.15188 0.0
C1282 C 0.42861 0.27233 0.14376 0.0
H1283 H 0.779 0.35656 0.21821 0.0
H1284 H 0.83497 0.389 0.28708 0.0
H1285 H 0.83426 0.4256 0.25415 0.0
H1286 H 0.80236 0.37685 0.14653 0.0
H1287 H 0.77342 0.38233 0.1245 0.0
H1288 H 0.77606 0.35984 0.15535 0.0
H1289 H 0.74255 0.38108 0.1865 0.0
H1290 H 0.73958 0.40352 0.15553 0.0
H1291 H 0.74566 0.41273 0.19846 0.0
H1292 H 0.8295 0.45751 0.21181 0.0
H1293 H 0.82103 0.48253 0.1634 0.0
H1294 H 0.76876 0.42918 0.12083 0.0
C1295 C 0.79063 0.37163 0.22687 0.0
C1296 C 0.80683 0.37003 0.25557 0.0
C1297 C 0.82228 0.38988 0.26542 0.0
C1298 C 0.82201 0.41074 0.24682 0.0
C1299 C 0.80629 0.41149 0.21824 0.0
C1300 C 0.79082 0.3925 0.20833 0.0
C1301 C 0.77689 0.39724 0.17544 0.0
C1302 C 0.78253 0.37792 0.14889 0.0
C1303 C 0.74955 0.39874 0.17922 0.0
C1304 C 0.78718 0.42172 0.16821 0.0
C1305 C 0.80394 0.42968 0.19339 0.0
C1306 C 0.81623 0.45155 0.19211 0.0
C1307 C 0.81121 0.46571 0.1645 0.0
C1308 C 0.79411 0.458 0.13826 0.0
C1309 C 0.78201 0.4356 0.14031 0.0
H1310 H 0.71423 0.81047 0.17759 0.0
H1311 H 0.69588 0.77299 0.2639 0.0
H1312 H 0.65337 0.76889 0.23926 0.0
H1313 H 0.65853 0.84352 0.16389 0.0
H1314 H 0.6584 0.84051 0.11956 0.0
H1315 H 0.68671 0.84107 0.14481 0.0
H1316 H 0.69855 0.80007 0.11759 0.0
H1317 H 0.67028 0.79937 0.09229 0.0
H1318 H 0.67848 0.77447 0.11815 0.0
H1319 H 0.61247 0.76832 0.20304 0.0
H1320 H 0.57825 0.77114 0.15975 0.0
H1321 H 0.62474 0.8085 0.0979 0.0
C1322 C 0.70136 0.80149 0.19165 0.0
C1323 C 0.70851 0.7921 0.22289 0.0
C1324 C 0.6909 0.78043 0.24007 0.0
C1325 C 0.66671 0.77802 0.22619 0.0
C1326 C 0.66044 0.78737 0.19513 0.0
C1327 C 0.67739 0.79891 0.17821 0.0
C1328 C 0.6666 0.80697 0.14497 0.0
C1329 C 0.66762 0.83466 0.14322 0.0
C1330 C 0.67923 0.79447 0.11659 0.0
C1331 C 0.64082 0.79812 0.14548 0.0
C1332 C 0.63747 0.78691 0.17461 0.0
C1333 C 0.61502 0.77711 0.18028 0.0
C1334 C 0.5957 0.77877 0.15562 0.0
C1335 C 0.59894 0.79003 0.12562 0.0
C1336 C 0.62179 0.79988 0.12069 0.0
H1337 H 0.26836 0.68321 0.2211 0.0
H1338 H 0.23253 0.72818 0.14671 0.0
H1339 H 0.2327 0.69452 0.10581 0.0
H1340 H 0.3068 0.65133 0.16695 0.0
H1341 H 0.30416 0.6224 0.18516 0.0
H1342 H 0.30106 0.64984 0.20984 0.0
H1343 H 0.25902 0.63556 0.22499 0.0
H1344 H 0.26204 0.60803 0.20043 0.0
H1345 H 0.23606 0.62716 0.19249 0.0
H1346 H 0.2387 0.6577 0.07146 0.0
H1347 H 0.24806 0.618 0.04615 0.0
H1348 H 0.27761 0.59417 0.14154 0.0
C1349 C 0.26039 0.68586 0.19628 0.0
C1350 C 0.25044 0.70856 0.18735 0.0
C1351 C 0.24026 0.71117 0.15448 0.0
C1352 C 0.24027 0.69208 0.13086 0.0
C1353 C 0.25032 0.67016 0.14024 0.0
C1354 C 0.26001 0.66671 0.17213 0.0
C1355 C 0.26962 0.64101 0.1751 0.0
C1356 C 0.29704 0.64117 0.18484 0.0
C1357 C 0.25586 0.62712 0.19972 0.0
C1358 C 0.26396 0.63084 0.13988 0.0
C1359 C 0.25296 0.64817 0.1203 0.0
C1360 C 0.24697 0.64383 0.08662 0.0
C1361 C 0.2523 0.62118 0.07246 0.0
C1362 C 0.2632 0.60283 0.09189 0.0
C1363 C 0.26901 0.60776 0.12617 0.0
H1364 H 0.34981 0.82206 0.90087 0.0
H1365 H 0.36759 0.79316 0.80514 0.0
H1366 H 0.40995 0.78746 0.82725 0.0
H1367 H 0.40634 0.85406 0.92288 0.0
H1368 H 0.40777 0.84677 0.96581 0.0
H1369 H 0.37882 0.84913 0.94246 0.0
H1370 H 0.36774 0.80579 0.95792 0.0
H1371 H 0.39662 0.80335 0.98139 0.0
H1372 H 0.38773 0.7811 0.94903 0.0
H1373 H 0.45076 0.7857 0.85924 0.0
H1374 H 0.48648 0.78535 0.90015 0.0
H1375 H 0.44252 0.81363 0.97609 0.0
C1376 C 0.36267 0.81465 0.88458 0.0
C1377 C 0.35528 0.80803 0.85119 0.0
C1378 C 0.37265 0.7981 0.83081 0.0
C1379 C 0.39684 0.79496 0.84311 0.0
C1380 C 0.40352 0.80162 0.87605 0.0
C1381 C 0.38693 0.81107 0.89663 0.0
C1382 C 0.39878 0.81602 0.93136 0.0
C1383 C 0.39787 0.8431 0.9412 0.0
C1384 C 0.38701 0.80064 0.9564 0.0
C1385 C 0.42458 0.80792 0.92702 0.0
C1386 C 0.42693 0.79988 0.89481 0.0
C1387 C 0.44907 0.79178 0.88458 0.0
C1388 C 0.46924 0.79161 0.90792 0.0
C1389 C 0.46714 0.79914 0.94125 0.0
C1390 C 0.44454 0.80763 0.95078 0.0
H1391 H 0.28331 0.35313 0.89042 0.0
H1392 H 0.31935 0.37223 0.80456 0.0
H1393 H 0.32797 0.41323 0.83025 0.0
H1394 H 0.2534 0.40733 0.90147 0.0
H1395 H 0.25632 0.40785 0.94598 0.0
H1396 H 0.25606 0.37942 0.92287 0.0
H1397 H 0.29731 0.36812 0.95308 0.0
H1398 H 0.29758 0.39646 0.97658 0.0
H1399 H 0.32271 0.38848 0.95288 0.0
H1400 H 0.32731 0.45383 0.86263 0.0
H1401 H 0.32035 0.48913 0.9002 0.0
H1402 H 0.28527 0.44263 0.96498 0.0
C1403 C 0.29341 0.36581 0.87726 0.0
C1404 C 0.30064 0.35962 0.84545 0.0
C1405 C 0.3139 0.3766 0.82906 0.0
C1406 C 0.31872 0.39991 0.84343 0.0
C1407 C 0.31043 0.4057 0.87437 0.0
C1408 C 0.29838 0.38892 0.89126 0.0
C1409 C 0.29008 0.39978 0.92322 0.0
C1410 C 0.26233 0.39852 0.92336 0.0
C1411 C 0.30268 0.38748 0.95322 0.0
C1412 C 0.29873 0.42557 0.92142 0.0
C1413 C 0.31053 0.42868 0.89316 0.0
C1414 C 0.31862 0.45141 0.88516 0.0
C1415 C 0.31465 0.47133 0.90661 0.0
C1416 C 0.30289 0.46836 0.93582 0.0
C1417 C 0.29483 0.4452 0.94319 0.0
H1418 H 0.69919 0.22732 0.85793 0.0
H1419 H 0.74035 0.28888 0.90208 0.0
H1420 H 0.70778 0.29757 0.93881 0.0
H1421 H 0.64113 0.25443 0.85811 0.0
H1422 H 0.62576 0.22725 0.86785 0.0
H1423 H 0.65268 0.22524 0.84596 0.0
H1424 H 0.67274 0.19794 0.89065 0.0
H1425 H 0.64582 0.19977 0.91262 0.0
H1426 H 0.67474 0.20836 0.9334 0.0
H1427 H 0.67009 0.30007 0.9701 0.0
H1428 H 0.63063 0.29631 0.99338 0.0
H1429 H 0.61366 0.23316 0.92873 0.0
C1430 C 0.70171 0.24238 0.87568 0.0
C1431 C 0.72265 0.25733 0.87703 0.0
C1432 C 0.72459 0.2772 0.90027 0.0
C1433 C 0.70617 0.28223 0.92138 0.0
C1434 C 0.68577 0.26725 0.91912 0.0
C1435 C 0.68346 0.24769 0.8969 0.0
C1436 C 0.6594 0.23479 0.8988 0.0
C1437 C 0.64383 0.23548 0.86571 0.0
C1438 C 0.66342 0.20867 0.90951 0.0
C1439 C 0.64844 0.2502 0.92548 0.0
C1440 C 0.66399 0.26881 0.93689 0.0
C1441 C 0.65779 0.28559 0.96123 0.0
C1442 C 0.63517 0.2834 0.97414 0.0
C1443 C 0.61874 0.26459 0.96276 0.0
C1444 C 0.62573 0.24768 0.93818 0.0
H1445 H 0.78122 0.67189 0.78659 0.0
H1446 H 0.72491 0.71595 0.82635 0.0
H1447 H 0.71977 0.68587 0.86842 0.0
H1448 H 0.75415 0.61301 0.79983 0.0
H1449 H 0.78283 0.59907 0.81146 0.0
H1450 H 0.78131 0.62343 0.78326 0.0
H1451 H 0.81346 0.64726 0.82158 0.0
H1452 H 0.81497 0.62305 0.84996 0.0
H1453 H 0.80817 0.65334 0.86429 0.0
H1454 H 0.72142 0.65208 0.90702 0.0
H1455 H 0.72976 0.61649 0.94045 0.0
H1456 H 0.78532 0.5936 0.87666 0.0
C1457 C 0.76757 0.67496 0.80384 0.0
C1458 C 0.75341 0.69627 0.80318 0.0
C1459 C 0.73605 0.69988 0.82658 0.0
C1460 C 0.73294 0.68284 0.85047 0.0
C1461 C 0.74739 0.66225 0.85081 0.0
C1462 C 0.76437 0.65817 0.82817 0.0
C1463 C 0.77812 0.63488 0.83493 0.0
C1464 C 0.77384 0.61651 0.80562 0.0
C1465 C 0.80529 0.63995 0.84318 0.0
C1466 C 0.76627 0.62663 0.86497 0.0
C1467 C 0.74851 0.64268 0.87349 0.0
C1468 C 0.73514 0.63926 0.90044 0.0
C1469 C 0.73994 0.61887 0.91918 0.0
C1470 C 0.75801 0.602 0.91105 0.0
C1471 C 0.77141 0.60611 0.88358 0.0
loop_
_geom_bond_atom_site_label_1
_geom_bond_atom_site_label_2
_geom_bond_distance
_geom_bond_site_symmetry_2
_ccdc_geom_bond_type
Cu0 N1 1.999 . S
Cu0 O6 1.974 . S
Cu0 N11 1.985 . S
Cu0 O20 1.959 . S
N1 Cu0 1.999 . S
N1 C3 1.263 . S
N1 C5 1.389 . S
N2 C3 1.358 . S
N2 C4 1.400 . S
C3 N1 1.263 . S
C3 N2 1.358 . S
C3 H9 0.930 . S
C4 N2 1.400 . S
C4 C5 1.351 . S
C4 H21 0.930 . S
C5 N1 1.389 . S
C5 C4 1.351 . S
C5 H10 0.930 . S
O6 Cu0 1.974 . S
O6 C16 1.282 . S
C7 O8 1.261 . S
C7 O20 1.251 . S
O8 C7 1.261 . S
H9 C3 0.930 . S
H10 C5 0.930 . S
N11 Cu0 1.985 . S
N11 C13 1.335 . S
N11 C14 1.390 . S
N12 C13 1.345 . S
N12 C15 1.336 . S
C13 N11 1.335 . S
C13 N12 1.345 . S
C13 H18 0.930 . S
C14 N11 1.390 . S
C14 C15 1.346 . S
C14 H19 0.930 . S
C15 N12 1.336 . S
C15 C14 1.346 . S
C15 H22 0.929 . S
C16 O6 1.282 . S
C16 O17 1.216 . S
O17 C16 1.216 . S
H18 C13 0.930 . S
H19 C14 0.930 . S
O20 Cu0 1.959 . S
O20 C7 1.251 . S
H21 C4 0.930 . S
H22 C15 0.929 . S
Cu23 N24 1.999 . S
Cu23 O29 1.974 . S
Cu23 N34 1.985 . S
Cu23 O43 1.959 . S
N24 Cu23 1.999 . S
N24 C26 1.263 . S
N24 C28 1.389 . S
N25 C26 1.358 . S
N25 C27 1.400 . S
C26 N24 1.263 . S
C26 N25 1.358 . S
C26 H32 0.930 . S
C27 N25 1.400 . S
C27 C28 1.351 . S
C27 H44 0.930 . S
C28 N24 1.389 . S
C28 C27 1.351 . S
C28 H33 0.930 . S
O29 Cu23 1.974 . S
O29 C39 1.282 . S
C30 O31 1.261 . S
C30 O43 1.251 . S
O31 C30 1.261 . S
H32 C26 0.930 . S
H33 C28 0.930 . S
N34 Cu23 1.985 . S
N34 C36 1.335 . S
N34 C37 1.390 . S
N35 C36 1.345 . S
N35 C38 1.336 . S
C36 N34 1.335 . S
C36 N35 1.345 . S
C36 H41 0.930 . S
C37 N34 1.390 . S
C37 C38 1.346 . S
C37 H42 0.930 . S
C38 N35 1.336 . S
C38 C37 1.346 . S
C38 H45 0.929 . S
C39 O29 1.282 . S
C39 O40 1.216 . S
O40 C39 1.216 . S
H41 C36 0.930 . S
H42 C37 0.930 . S
O43 Cu23 1.959 . S
O43 C30 1.251 . S
H44 C27 0.930 . S
H45 C38 0.929 . S
Cu46 N47 1.999 . S
Cu46 O52 1.974 . S
Cu46 N57 1.985 . S
Cu46 O66 1.959 . S
N47 Cu46 1.999 . S
N47 C49 1.263 . S
N47 C51 1.389 . S
N48 C49 1.358 . S
N48 C50 1.400 . S
C49 N47 1.263 . S
C49 N48 1.358 . S
C49 H55 0.930 . S
C50 N48 1.400 . S
C50 C51 1.351 . S
C50 H67 0.930 . S
C51 N47 1.389 . S
C51 C50 1.351 . S
C51 H56 0.930 . S
O52 Cu46 1.974 . S
O52 C62 1.282 . S
C53 O54 1.261 . S
C53 O66 1.251 . S
O54 C53 1.261 . S
H55 C49 0.930 . S
H56 C51 0.930 . S
N57 Cu46 1.985 . S
N57 C59 1.335 . S
N57 C60 1.390 . S
N58 C59 1.345 . S
N58 C61 1.336 . S
C59 N57 1.335 . S
C59 N58 1.345 . S
C59 H64 0.930 . S
C60 N57 1.390 . S
C60 C61 1.346 . S
C60 H65 0.930 . S
C61 N58 1.336 . S
C61 C60 1.346 . S
C61 H68 0.929 . S
C62 O52 1.282 . S
C62 O63 1.216 . S
O63 C62 1.216 . S
H64 C59 0.930 . S
H65 C60 0.930 . S
O66 Cu46 1.959 . S
O66 C53 1.251 . S
H67 C50 0.930 . S
H68 C61 0.929 . S
Cu69 N70 1.999 . S
Cu69 O75 1.974 . S
Cu69 N80 1.985 . S
Cu69 O89 1.959 . S
N70 Cu69 1.999 . S
N70 C72 1.263 . S
N70 C74 1.389 . S
N71 C72 1.358 . S
N71 C73 1.400 . S
C72 N70 1.263 . S
C72 N71 1.358 . S
C72 H78 0.930 . S
C73 N71 1.400 . S
C73 C74 1.351 . S
C73 H90 0.930 . S
C74 N70 1.389 . S
C74 C73 1.351 . S
C74 H79 0.930 . S
O75 Cu69 1.974 . S
O75 C85 1.282 . S
C76 O77 1.261 . S
C76 O89 1.251 . S
O77 C76 1.261 . S
H78 C72 0.930 . S
H79 C74 0.930 . S
N80 Cu69 1.985 . S
N80 C82 1.335 . S
N80 C83 1.390 . S
N81 C82 1.345 . S
N81 C84 1.336 . S
C82 N80 1.335 . S
C82 N81 1.345 . S
C82 H87 0.930 . S
C83 N80 1.390 . S
C83 C84 1.346 . S
C83 H88 0.930 . S
C84 N81 1.336 . S
C84 C83 1.346 . S
C84 H91 0.929 . S
C85 O75 1.282 . S
C85 O86 1.216 . S
O86 C85 1.216 . S
H87 C82 0.930 . S
H88 C83 0.930 . S
O89 Cu69 1.959 . S
O89 C76 1.251 . S
H90 C73 0.930 . S
H91 C84 0.929 . S
Cu92 N93 1.999 . S
Cu92 O98 1.974 . S
Cu92 N103 1.985 . S
Cu92 O112 1.959 . S
N93 Cu92 1.999 . S
N93 C95 1.263 . S
N93 C97 1.389 . S
N94 C95 1.358 . S
N94 C96 1.400 . S
C95 N93 1.263 . S
C95 N94 1.358 . S
C95 H101 0.930 . S
C96 N94 1.400 . S
C96 C97 1.351 . S
C96 H113 0.930 . S
C97 N93 1.389 . S
C97 C96 1.351 . S
C97 H102 0.930 . S
O98 Cu92 1.974 . S
O98 C108 1.282 . S
C99 O100 1.261 . S
C99 O112 1.251 . S
O100 C99 1.261 . S
H101 C95 0.930 . S
H102 C97 0.930 . S
N103 Cu92 1.985 . S
N103 C105 1.335 . S
N103 C106 1.390 . S
N104 C105 1.345 . S
N104 C107 1.336 . S
C105 N103 1.335 . S
C105 N104 1.345 . S
C105 H110 0.930 . S
C106 N103 1.390 . S
C106 C107 1.346 . S
C106 H111 0.930 . S
C107 N104 1.336 . S
C107 C106 1.346 . S
C107 H114 0.929 . S
C108 O98 1.282 . S
C108 O109 1.216 . S
O109 C108 1.216 . S
H110 C105 0.930 . S
H111 C106 0.930 . S
O112 Cu92 1.959 . S
O112 C99 1.251 . S
H113 C96 0.930 . S
H114 C107 0.929 . S
Cu115 N116 1.999 . S
Cu115 O121 1.974 . S
Cu115 N126 1.985 . S
Cu115 O135 1.959 . S
N116 Cu115 1.999 . S
N116 C118 1.263 . S
N116 C120 1.389 . S
N117 C118 1.358 . S
N117 C119 1.400 . S
C118 N116 1.263 . S
C118 N117 1.358 . S
C118 H124 0.930 . S
C119 N117 1.400 . S
C119 C120 1.351 . S
C119 H136 0.930 . S
C120 N116 1.389 . S
C120 C119 1.351 . S
C120 H125 0.930 . S
O121 Cu115 1.974 . S
O121 C131 1.282 . S
C122 O123 1.261 . S
C122 O135 1.251 . S
O123 C122 1.261 . S
H124 C118 0.930 . S
H125 C120 0.930 . S
N126 Cu115 1.985 . S
N126 C128 1.335 . S
N126 C129 1.390 . S
N127 C128 1.345 . S
N127 C130 1.336 . S
C128 N126 1.335 . S
C128 N127 1.345 . S
C128 H133 0.930 . S
C129 N126 1.390 . S
C129 C130 1.346 . S
C129 H134 0.930 . S
C130 N127 1.336 . S
C130 C129 1.346 . S
C130 H137 0.929 . S
C131 O121 1.282 . S
C131 O132 1.216 . S
O132 C131 1.216 . S
H133 C128 0.930 . S
H134 C129 0.930 . S
O135 Cu115 1.959 . S
O135 C122 1.251 . S
H136 C119 0.930 . S
H137 C130 0.929 . S
Cu138 N139 1.999 . S
Cu138 O144 1.974 . S
Cu138 N149 1.985 . S
Cu138 O158 1.959 . S
N139 Cu138 1.999 . S
N139 C141 1.263 . S
N139 C143 1.389 . S
N140 C141 1.358 . S
N140 C142 1.400 . S
C141 N139 1.263 . S
C141 N140 1.358 . S
C141 H147 0.930 . S
C142 N140 1.400 . S
C142 C143 1.351 . S
C142 H159 0.930 . S
C143 N139 1.389 . S
C143 C142 1.351 . S
C143 H148 0.930 . S
O144 Cu138 1.974 . S
O144 C154 1.282 . S
C145 O146 1.261 . S
C145 O158 1.251 . S
O146 C145 1.261 . S
H147 C141 0.930 . S
H148 C143 0.930 . S
N149 Cu138 1.985 . S
N149 C151 1.335 . S
N149 C152 1.390 . S
N150 C151 1.345 . S
N150 C153 1.336 . S
C151 N149 1.335 . S
C151 N150 1.345 . S
C151 H156 0.930 . S
C152 N149 1.390 . S
C152 C153 1.346 . S
C152 H157 0.930 . S
C153 N150 1.336 . S
C153 C152 1.346 . S
C153 H160 0.929 . S
C154 O144 1.282 . S
C154 O155 1.216 . S
O155 C154 1.216 . S
H156 C151 0.930 . S
H157 C152 0.930 . S
O158 Cu138 1.959 . S
O158 C145 1.251 . S
H159 C142 0.930 . S
H160 C153 0.929 . S
Cu161 N162 1.999 . S
Cu161 O167 1.974 . S
Cu161 N172 1.985 . S
Cu161 O181 1.959 . S
N162 Cu161 1.999 . S
N162 C164 1.263 . S
N162 C166 1.389 . S
N163 C164 1.358 . S
N163 C165 1.400 . S
C164 N162 1.263 . S
C164 N163 1.358 . S
C164 H170 0.930 . S
C165 N163 1.400 . S
C165 C166 1.351 . S
C165 H182 0.930 . S
C166 N162 1.389 . S
C166 C165 1.351 . S
C166 H171 0.930 . S
O167 Cu161 1.974 . S
O167 C177 1.282 . S
C168 O169 1.261 . S
C168 O181 1.251 . S
O169 C168 1.261 . S
H170 C164 0.930 . S
H171 C166 0.930 . S
N172 Cu161 1.985 . S
N172 C174 1.335 . S
N172 C175 1.390 . S
N173 C174 1.345 . S
N173 C176 1.336 . S
C174 N172 1.335 . S
C174 N173 1.345 . S
C174 H179 0.930 . S
C175 N172 1.390 . S
C175 C176 1.346 . S
C175 H180 0.930 . S
C176 N173 1.336 . S
C176 C175 1.346 . S
C176 H183 0.929 . S
C177 O167 1.282 . S
C177 O178 1.216 . S
O178 C177 1.216 . S
H179 C174 0.930 . S
H180 C175 0.930 . S
O181 Cu161 1.959 . S
O181 C168 1.251 . S
H182 C165 0.930 . S
H183 C176 0.929 . S
C184 C185 1.443 . S
C184 N188 1.376 . S
C184 C222 1.389 . S
C185 C184 1.443 . S
C185 C186 1.340 . S
C185 H225 0.951 . S
C186 C185 1.340 . S
C186 C187 1.439 . S
C186 H226 0.950 . S
C187 C186 1.439 . S
C187 N188 1.374 . S
C187 C221 1.395 . S
N188 C184 1.376 . S
N188 C187 1.374 . S
N188 Co189 2.008 . S
Co189 N188 2.008 . S
Co189 N190 1.995 . S
Co189 N195 2.008 . S
Co189 N200 1.995 . S
Co189 N205 2.282 . S
Co189 N211 2.282 . S
N190 Co189 1.995 . S
N190 C191 1.376 . S
N190 C194 1.383 . S
C191 N190 1.376 . S
C191 C192 1.446 . S
C191 C221 1.391 . S
C192 C191 1.446 . S
C192 C193 1.339 1_455 S
C192 H227 0.949 . S
C193 C192 1.339 1_655 S
C193 C194 1.439 1_655 S
C193 H228 0.950 . S
C194 N190 1.383 . S
C194 C193 1.439 1_455 S
C194 C223 1.392 1_455 S
N195 Co189 2.008 . S
N195 C196 1.376 1_455 S
N195 C199 1.374 . S
C196 N195 1.376 1_655 S
C196 C197 1.443 . S
C196 C223 1.389 . S
C197 C196 1.443 . S
C197 C198 1.340 . S
C197 H229 0.951 . S
C198 C197 1.340 . S
C198 C199 1.439 1_655 S
C198 H230 0.950 . S
C199 N195 1.374 . S
C199 C198 1.439 1_455 S
C199 C224 1.395 . S
N200 Co189 1.995 . S
N200 C201 1.376 . S
N200 C204 1.383 . S
C201 N200 1.376 . S
C201 C202 1.446 . S
C201 C224 1.391 . S
C202 C201 1.446 . S
C202 C203 1.339 . S
C202 H231 0.949 . S
C203 C202 1.339 . S
C203 C204 1.439 . S
C203 H232 0.950 . S
C204 N200 1.383 . S
C204 C203 1.439 . S
C204 C222 1.392 . S
N205 Co189 2.282 . S
N205 C208 1.332 . S
N205 C210 1.332 1_455 S
C206 C207 1.386 . S
C206 C209 1.388 . S
C207 C206 1.386 . S
C207 C208 1.382 1_655 S
C207 H233 0.950 . S
C208 N205 1.332 . S
C208 C207 1.382 1_455 S
C208 H219 0.952 . S
C209 C206 1.388 . S
C209 C210 1.382 . S
C209 H234 0.950 . S
C210 N205 1.332 1_655 S
C210 C209 1.382 . S
C210 H220 0.948 1_655 S
N211 Co189 2.282 . S
N211 C215 1.332 . S
N211 C216 1.332 . S
C212 C213 1.388 . S
C212 C216 1.382 . S
C212 H235 0.950 . S
C213 C212 1.388 . S
C213 C214 1.386 . S
C214 C213 1.386 . S
C214 C215 1.382 . S
C214 H236 0.950 . S
C215 N211 1.332 . S
C215 C214 1.382 . S
C215 H217 0.952 . S
C216 N211 1.332 . S
C216 C212 1.382 . S
C216 H218 0.948 . S
H217 C215 0.952 . S
H218 C216 0.948 . S
H219 C208 0.952 . S
H220 C210 0.948 1_455 S
C221 C187 1.395 . S
C221 C191 1.391 . S
C222 C184 1.389 . S
C222 C204 1.392 . S
C223 C194 1.392 1_655 S
C223 C196 1.389 . S
C224 C199 1.395 . S
C224 C201 1.391 . S
H225 C185 0.951 . S
H226 C186 0.950 . S
H227 C192 0.949 . S
H228 C193 0.950 . S
H229 C197 0.951 . S
H230 C198 0.950 . S
H231 C202 0.949 . S
H232 C203 0.950 . S
H233 C207 0.950 . S
H234 C209 0.950 . S
H235 C212 0.950 . S
H236 C214 0.950 . S
C237 C238 1.443 . S
C237 N241 1.376 . S
C237 C275 1.389 . S
C238 C237 1.443 . S
C238 C239 1.340 . S
C238 H278 0.951 . S
C239 C238 1.340 . S
C239 C240 1.439 . S
C239 H279 0.950 . S
C240 C239 1.439 . S
C240 N241 1.374 . S
C240 C274 1.395 . S
N241 C237 1.376 . S
N241 C240 1.374 . S
N241 Co242 2.008 . S
Co242 N241 2.008 . S
Co242 N243 1.995 . S
Co242 N248 2.008 . S
Co242 N253 1.995 . S
Co242 N258 2.282 . S
Co242 N264 2.282 . S
N243 Co242 1.995 . S
N243 C244 1.376 . S
N243 C247 1.383 . S
C244 N243 1.376 . S
C244 C245 1.446 . S
C244 C274 1.391 . S
C245 C244 1.446 . S
C245 C246 1.339 1_545 S
C245 H280 0.949 . S
C246 C245 1.339 1_565 S
C246 C247 1.439 1_565 S
C246 H281 0.950 . S
C247 N243 1.383 . S
C247 C246 1.439 1_545 S
C247 C276 1.392 1_545 S
N248 Co242 2.008 . S
N248 C249 1.354 1_545 S
N248 C252 1.374 . S
C249 N248 1.354 1_565 S
C249 C250 1.457 . S
C249 C276 1.398 . S
C250 C249 1.457 . S
C250 C251 1.340 . S
C250 H282 0.951 . S
C251 C250 1.340 . S
C251 C252 1.439 1_565 S
C251 H283 0.950 . S
C252 N248 1.374 . S
C252 C251 1.439 1_545 S
C252 C277 1.395 . S
N253 Co242 1.995 . S
N253 C254 1.376 . S
N253 C257 1.383 . S
C254 N253 1.376 . S
C254 C255 1.446 . S
C254 C277 1.391 . S
C255 C254 1.446 . S
C255 C256 1.339 . S
C255 H284 0.949 . S
C256 C255 1.339 . S
C256 C257 1.439 . S
C256 H285 0.950 . S
C257 N253 1.383 . S
C257 C256 1.439 . S
C257 C275 1.392 . S
N258 Co242 2.282 . S
N258 C261 1.332 . S
N258 C263 1.332 1_545 S
C259 C260 1.386 . S
C259 C262 1.388 . S
C260 C259 1.386 . S
C260 C261 1.382 1_565 S
C260 H286 0.950 . S
C261 N258 1.332 . S
C261 C260 1.382 1_545 S
C261 H272 0.952 . S
C262 C259 1.388 . S
C262 C263 1.382 . S
C262 H287 0.950 . S
C263 N258 1.332 1_565 S
C263 C262 1.382 . S
C263 H273 0.948 1_565 S
N264 Co242 2.282 . S
N264 C268 1.332 . S
N264 C269 1.332 . S
C265 C266 1.388 . S
C265 C269 1.382 . S
C265 H288 0.950 . S
C266 C265 1.388 . S
C266 C267 1.386 . S
C267 C266 1.386 . S
C267 C268 1.382 . S
C267 H289 0.950 . S
C268 N264 1.332 . S
C268 C267 1.382 . S
C268 H270 0.952 . S
C269 N264 1.332 . S
C269 C265 1.382 . S
C269 H271 0.948 . S
H270 C268 0.952 . S
H271 C269 0.948 . S
H272 C261 0.952 . S
H273 C263 0.948 1_545 S
C274 C240 1.395 . S
C274 C244 1.391 . S
C275 C237 1.389 . S
C275 C257 1.392 . S
C276 C247 1.392 1_565 S
C276 C249 1.398 . S
C277 C252 1.395 . S
C277 C254 1.391 . S
H278 C238 0.951 . S
H279 C239 0.950 . S
H280 C245 0.949 . S
H281 C246 0.950 . S
H282 C250 0.951 . S
H283 C251 0.950 . S
H284 C255 0.949 . S
H285 C256 0.950 . S
H286 C260 0.950 . S
H287 C262 0.950 . S
H288 C265 0.950 . S
H289 C267 0.950 . S
C290 C291 1.443 . S
C290 N294 1.376 . S
C290 C328 1.389 . S
C291 C290 1.443 . S
C291 C292 1.340 . S
C291 H331 0.951 . S
C292 C291 1.340 . S
C292 C293 1.439 . S
C292 H332 0.950 . S
C293 C292 1.439 . S
C293 N294 1.374 . S
C293 C327 1.395 . S
N294 C290 1.376 . S
N294 C293 1.374 . S
N294 Co295 2.008 . S
Co295 N294 2.008 . S
Co295 N296 1.995 1_455 S
Co295 N301 2.008 1_455 S
Co295 N306 1.995 . S
Co295 N311 2.282 1_455 S
Co295 N317 2.282 . S
N296 Co295 1.995 1_655 S
N296 C297 1.376 . S
N296 C300 1.383 . S
C297 N296 1.376 . S
C297 C298 1.446 . S
C297 C327 1.391 1_655 S
C298 C297 1.446 . S
C298 C299 1.339 . S
C298 H333 0.949 . S
C299 C298 1.339 . S
C299 C300 1.439 . S
C299 H334 0.950 . S
C300 N296 1.383 . S
C300 C299 1.439 . S
C300 C329 1.392 . S
N301 Co295 2.008 1_655 S
N301 C302 1.376 . S
N301 C305 1.374 . S
C302 N301 1.376 . S
C302 C303 1.443 . S
C302 C329 1.389 . S
C303 C302 1.443 . S
C303 C304 1.340 . S
C303 H335 0.951 . S
C304 C303 1.340 . S
C304 C305 1.439 . S
C304 H336 0.950 . S
C305 N301 1.374 . S
C305 C304 1.439 . S
C305 C330 1.395 1_655 S
N306 Co295 1.995 . S
N306 C307 1.376 . S
N306 C310 1.383 . S
C307 N306 1.376 . S
C307 C308 1.446 . S
C307 C330 1.391 . S
C308 C307 1.446 . S
C308 C309 1.339 . S
C308 H337 0.949 . S
C309 C308 1.339 . S
C309 C310 1.439 . S
C309 H338 0.950 . S
C310 N306 1.383 . S
C310 C309 1.439 . S
C310 C328 1.392 . S
N311 Co295 2.282 1_655 S
N311 C314 1.332 . S
N311 C316 1.332 . S
C312 C313 1.386 . S
C312 C315 1.388 . S
C313 C312 1.386 . S
C313 C314 1.382 . S
C313 H339 0.950 . S
C314 N311 1.332 . S
C314 C313 1.382 . S
C314 H325 0.952 . S
C315 C312 1.388 . S
C315 C316 1.382 . S
C315 H340 0.950 . S
C316 N311 1.332 . S
C316 C315 1.382 . S
C316 H326 0.948 . S
N317 Co295 2.282 . S
N317 C321 1.332 . S
N317 C322 1.332 . S
C318 C319 1.388 . S
C318 C322 1.382 . S
C318 H341 0.950 . S
C319 C318 1.388 . S
C319 C320 1.386 . S
C320 C319 1.386 . S
C320 C321 1.382 . S
C320 H342 0.950 . S
C321 N317 1.332 . S
C321 C320 1.382 . S
C321 H323 0.952 . S
C322 N317 1.332 . S
C322 C318 1.382 . S
C322 H324 0.948 . S
H323 C321 0.952 . S
H324 C322 0.948 . S
H325 C314 0.952 . S
H326 C316 0.948 . S
C327 C293 1.395 . S
C327 C297 1.391 1_455 S
C328 C290 1.389 . S
C328 C310 1.392 . S
C329 C300 1.392 . S
C329 C302 1.389 . S
C330 C305 1.395 1_455 S
C330 C307 1.391 . S
H331 C291 0.951 . S
H332 C292 0.950 . S
H333 C298 0.949 . S
H334 C299 0.950 . S
H335 C303 0.951 . S
H336 C304 0.950 . S
H337 C308 0.949 . S
H338 C309 0.950 . S
H339 C313 0.950 . S
H340 C315 0.950 . S
H341 C318 0.950 . S
H342 C320 0.950 . S
C343 C344 1.443 . S
C343 N347 1.376 . S
C343 C381 1.389 . S
C344 C343 1.443 . S
C344 C345 1.340 . S
C344 H384 0.951 . S
C345 C344 1.340 . S
C345 C346 1.439 . S
C345 H385 0.950 . S
C346 C345 1.439 . S
C346 N347 1.374 . S
C346 C380 1.395 1_565 S
N347 C343 1.376 . S
N347 C346 1.374 . S
N347 Co348 2.008 1_565 S
Co348 N347 2.008 1_545 S
Co348 N349 1.995 . S
Co348 N354 2.008 . S
Co348 N359 1.995 1_545 S
Co348 N364 2.282 . S
Co348 N370 2.282 1_545 S
N349 Co348 1.995 . S
N349 C350 1.376 . S
N349 C353 1.383 . S
C350 N349 1.376 . S
C350 C351 1.446 . S
C350 C380 1.391 . S
C351 C350 1.446 . S
C351 C352 1.339 . S
C351 H386 0.949 . S
C352 C351 1.339 . S
C352 C353 1.439 . S
C352 H387 0.950 . S
C353 N349 1.383 . S
C353 C352 1.439 . S
C353 C382 1.392 . S
N354 Co348 2.008 . S
N354 C355 1.376 . S
N354 C358 1.374 . S
C355 N354 1.376 . S
C355 C356 1.443 . S
C355 C382 1.389 . S
C356 C355 1.443 . S
C356 C357 1.340 . S
C356 H388 0.951 . S
C357 C356 1.340 . S
C357 C358 1.439 . S
C357 H389 0.950 . S
C358 N354 1.374 . S
C358 C357 1.439 . S
C358 C383 1.395 . S
N359 Co348 1.995 1_565 S
N359 C360 1.376 . S
N359 C363 1.383 . S
C360 N359 1.376 . S
C360 C361 1.446 . S
C360 C383 1.391 1_565 S
C361 C360 1.446 . S
C361 C362 1.339 . S
C361 H390 0.949 . S
C362 C361 1.339 . S
C362 C363 1.439 . S
C362 H391 0.950 . S
C363 N359 1.383 . S
C363 C362 1.439 . S
C363 C381 1.392 . S
N364 Co348 2.282 . S
N364 C367 1.332 . S
N364 C369 1.332 . S
C365 C366 1.386 . S
C365 C368 1.388 . S
C366 C365 1.386 . S
C366 C367 1.382 . S
C366 H392 0.950 . S
C367 N364 1.332 . S
C367 C366 1.382 . S
C367 H378 0.952 . S
C368 C365 1.388 . S
C368 C369 1.382 . S
C368 H393 0.950 . S
C369 N364 1.332 . S
C369 C368 1.382 . S
C369 H379 0.948 . S
N370 Co348 2.282 1_565 S
N370 C374 1.332 . S
N370 C375 1.332 . S
C371 C372 1.388 . S
C371 C375 1.382 . S
C371 H394 0.950 . S
C372 C371 1.388 . S
C372 C373 1.386 . S
C373 C372 1.386 . S
C373 C374 1.382 . S
C373 H395 0.950 . S
C374 N370 1.332 . S
C374 C373 1.382 . S
C374 H376 0.952 . S
C375 N370 1.332 . S
C375 C371 1.382 . S
C375 H377 0.948 . S
H376 C374 0.952 . S
H377 C375 0.948 . S
H378 C367 0.952 . S
H379 C369 0.948 . S
C380 C346 1.395 1_545 S
C380 C350 1.391 . S
C381 C343 1.389 . S
C381 C363 1.392 . S
C382 C353 1.392 . S
C382 C355 1.389 . S
C383 C358 1.395 . S
C383 C360 1.391 1_545 S
H384 C344 0.951 . S
H385 C345 0.950 . S
H386 C351 0.949 . S
H387 C352 0.950 . S
H388 C356 0.951 . S
H389 C357 0.950 . S
H390 C361 0.949 . S
H391 C362 0.950 . S
H392 C366 0.950 . S
H393 C368 0.950 . S
H394 C371 0.950 . S
H395 C373 0.950 . S
C396 C397 1.443 . S
C396 N400 1.376 . S
C396 C434 1.389 . S
C397 C396 1.443 . S
C397 C398 1.340 . S
C397 H437 0.951 . S
C398 C397 1.340 . S
C398 C399 1.439 . S
C398 H438 0.950 . S
C399 C398 1.439 . S
C399 N400 1.374 . S
C399 C433 1.395 1_554 S
N400 C396 1.376 . S
N400 C399 1.374 . S
N400 Co401 2.008 . S
Co401 N400 2.008 . S
Co401 N402 1.995 1_554 S
Co401 N407 2.008 1_554 S
Co401 N412 1.995 . S
Co401 N417 2.282 . S
Co401 N423 2.282 1_554 S
N402 Co401 1.995 1_556 S
N402 C403 1.376 . S
N402 C406 1.383 . S
C403 N402 1.376 . S
C403 C404 1.446 . S
C403 C433 1.391 . S
C404 C403 1.446 . S
C404 C405 1.339 . S
C404 H439 0.949 . S
C405 C404 1.339 . S
C405 C406 1.439 . S
C405 H440 0.950 . S
C406 N402 1.383 . S
C406 C405 1.439 . S
C406 C435 1.392 . S
N407 Co401 2.008 1_556 S
N407 C408 1.376 . S
N407 C411 1.374 . S
C408 N407 1.376 . S
C408 C409 1.443 . S
C408 C435 1.389 . S
C409 C408 1.443 . S
C409 C410 1.340 . S
C409 H441 0.951 . S
C410 C409 1.340 . S
C410 C411 1.439 . S
C410 H442 0.950 . S
C411 N407 1.374 . S
C411 C410 1.439 . S
C411 C436 1.395 1_556 S
N412 Co401 1.995 . S
N412 C413 1.376 . S
N412 C416 1.383 . S
C413 N412 1.376 . S
C413 C414 1.446 . S
C413 C436 1.391 . S
C414 C413 1.446 . S
C414 C415 1.339 . S
C414 H443 0.949 . S
C415 C414 1.339 . S
C415 C416 1.439 . S
C415 H444 0.950 . S
C416 N412 1.383 . S
C416 C415 1.439 . S
C416 C434 1.392 . S
N417 Co401 2.282 . S
N417 C420 1.332 . S
N417 C422 1.332 . S
C418 C419 1.386 . S
C418 C421 1.388 . S
C419 C418 1.386 . S
C419 C420 1.382 . S
C419 H445 0.950 . S
C420 N417 1.332 . S
C420 C419 1.382 . S
C420 H431 0.952 . S
C421 C418 1.388 . S
C421 C422 1.382 . S
C421 H446 0.950 . S
C422 N417 1.332 . S
C422 C421 1.382 . S
C422 H432 0.948 . S
N423 Co401 2.282 1_556 S
N423 C427 1.332 . S
N423 C428 1.332 . S
C424 C425 1.388 . S
C424 C428 1.382 . S
C424 H447 0.950 . S
C425 C424 1.388 . S
C425 C426 1.386 . S
C426 C425 1.386 . S
C426 C427 1.382 . S
C426 H448 0.950 . S
C427 N423 1.332 . S
C427 C426 1.382 . S
C427 H429 0.952 . S
C428 N423 1.332 . S
C428 C424 1.382 . S
C428 H430 0.948 . S
H429 C427 0.952 . S
H430 C428 0.948 . S
H431 C420 0.952 . S
H432 C422 0.948 . S
C433 C399 1.395 1_556 S
C433 C403 1.391 . S
C434 C396 1.389 . S
C434 C416 1.392 . S
C435 C406 1.392 . S
C435 C408 1.389 . S
C436 C411 1.395 1_554 S
C436 C413 1.391 . S
H437 C397 0.951 . S
H438 C398 0.950 . S
H439 C404 0.949 . S
H440 C405 0.950 . S
H441 C409 0.951 . S
H442 C410 0.950 . S
H443 C414 0.949 . S
H444 C415 0.950 . S
H445 C419 0.950 . S
H446 C421 0.950 . S
H447 C424 0.950 . S
H448 C426 0.950 . S
C449 C450 1.443 . S
C449 N453 1.376 . S
C449 C487 1.389 . S
C450 C449 1.443 . S
C450 C451 1.340 . S
C450 H490 0.951 . S
C451 C450 1.340 . S
C451 C452 1.439 . S
C451 H491 0.950 . S
C452 C451 1.439 . S
C452 N453 1.374 . S
C452 C486 1.398 1_554 S
N453 C449 1.376 . S
N453 C452 1.374 . S
N453 Co454 2.008 . S
Co454 N453 2.008 . S
Co454 N455 1.995 1_554 S
Co454 N460 2.008 1_554 S
Co454 N465 1.995 . S
Co454 N470 2.282 . S
Co454 N476 2.282 1_554 S
N455 Co454 1.995 1_556 S
N455 C456 1.376 . S
N455 C459 1.383 . S
C456 N455 1.376 . S
C456 C457 1.446 . S
C456 C486 1.389 . S
C457 C456 1.446 . S
C457 C458 1.339 . S
C457 H492 0.949 . S
C458 C457 1.339 . S
C458 C459 1.439 . S
C458 H493 0.950 . S
C459 N455 1.383 . S
C459 C458 1.439 . S
C459 C488 1.392 . S
N460 Co454 2.008 1_556 S
N460 C461 1.376 . S
N460 C464 1.374 1_556 S
C461 N460 1.376 . S
C461 C462 1.443 . S
C461 C488 1.389 . S
C462 C461 1.443 . S
C462 C463 1.340 . S
C462 H494 0.951 . S
C463 C462 1.340 . S
C463 C464 1.439 1_556 S
C463 H495 0.950 . S
C464 N460 1.374 1_554 S
C464 C463 1.439 1_554 S
C464 C489 1.395 . S
N465 Co454 1.995 . S
N465 C466 1.376 . S
N465 C469 1.383 . S
C466 N465 1.376 . S
C466 C467 1.446 . S
C466 C489 1.391 . S
C467 C466 1.446 . S
C467 C468 1.339 . S
C467 H496 0.949 . S
C468 C467 1.339 . S
C468 C469 1.439 . S
C468 H497 0.950 . S
C469 N465 1.383 . S
C469 C468 1.439 . S
C469 C487 1.392 . S
N470 Co454 2.282 . S
N470 C473 1.332 . S
N470 C475 1.332 . S
C471 C472 1.386 . S
C471 C474 1.388 . S
C472 C471 1.386 . S
C472 C473 1.382 . S
C472 H498 0.950 . S
C473 N470 1.332 . S
C473 C472 1.382 . S
C473 H484 0.952 . S
C474 C471 1.388 . S
C474 C475 1.382 . S
C474 H499 0.950 . S
C475 N470 1.332 . S
C475 C474 1.382 . S
C475 H485 0.948 . S
N476 Co454 2.282 1_556 S
N476 C480 1.332 . S
N476 C481 1.332 . S
C477 C478 1.388 . S
C477 C481 1.382 . S
C477 H500 0.950 . S
C478 C477 1.388 . S
C478 C479 1.386 . S
C479 C478 1.386 . S
C479 C480 1.382 . S
C479 H501 0.950 . S
C480 N476 1.332 . S
C480 C479 1.382 . S
C480 H482 0.952 . S
C481 N476 1.332 . S
C481 C477 1.382 . S
C481 H483 0.948 . S
H482 C480 0.952 . S
H483 C481 0.948 . S
H484 C473 0.952 . S
H485 C475 0.948 . S
C486 C452 1.398 1_556 S
C486 C456 1.389 . S
C487 C449 1.389 . S
C487 C469 1.392 . S
C488 C459 1.392 . S
C488 C461 1.389 . S
C489 C464 1.395 . S
C489 C466 1.391 . S
H490 C450 0.951 . S
H491 C451 0.950 . S
H492 C457 0.949 . S
H493 C458 0.950 . S
H494 C462 0.951 . S
H495 C463 0.950 . S
H496 C467 0.949 . S
H497 C468 0.950 . S
H498 C472 0.950 . S
H499 C474 0.950 . S
H500 C477 0.950 . S
H501 C479 0.950 . S
C502 C503 1.443 . S
C502 N506 1.376 1_556 S
C502 C540 1.389 . S
C503 C502 1.443 . S
C503 C504 1.340 1_556 S
C503 H543 0.951 . S
C504 C503 1.340 1_554 S
C504 C505 1.439 . S
C504 H544 0.950 . S
C505 C504 1.439 . S
C505 N506 1.374 . S
C505 C539 1.395 . S
N506 C502 1.376 1_554 S
N506 C505 1.374 . S
N506 Co507 2.008 . S
Co507 N506 2.008 . S
Co507 N508 1.995 . S
Co507 N513 2.008 . S
Co507 N518 1.995 . S
Co507 N523 2.282 1_554 S
Co507 N529 2.282 . S
N508 Co507 1.995 . S
N508 C509 1.376 . S
N508 C512 1.383 . S
C509 N508 1.376 . S
C509 C510 1.446 . S
C509 C539 1.391 . S
C510 C509 1.446 . S
C510 C511 1.339 . S
C510 H545 0.949 . S
C511 C510 1.339 . S
C511 C512 1.439 . S
C511 H546 0.950 . S
C512 N508 1.383 . S
C512 C511 1.439 . S
C512 C541 1.392 . S
N513 Co507 2.008 . S
N513 C514 1.376 . S
N513 C517 1.374 . S
C514 N513 1.376 . S
C514 C515 1.443 . S
C514 C541 1.389 . S
C515 C514 1.443 . S
C515 C516 1.340 . S
C515 H547 0.951 . S
C516 C515 1.340 . S
C516 C517 1.439 . S
C516 H548 0.950 . S
C517 N513 1.374 . S
C517 C516 1.439 . S
C517 C542 1.395 . S
N518 Co507 1.995 . S
N518 C519 1.376 . S
N518 C522 1.383 1_554 S
C519 N518 1.376 . S
C519 C520 1.446 1_554 S
C519 C542 1.391 . S
C520 C519 1.446 1_556 S
C520 C521 1.339 . S
C520 H549 0.949 . S
C521 C520 1.339 . S
C521 C522 1.439 . S
C521 H550 0.950 . S
C522 N518 1.383 1_556 S
C522 C521 1.439 . S
C522 C540 1.392 . S
N523 Co507 2.282 1_556 S
N523 C526 1.332 . S
N523 C528 1.332 . S
C524 C525 1.386 . S
C524 C527 1.388 . S
C525 C524 1.386 . S
C525 C526 1.382 . S
C525 H551 0.950 . S
C526 N523 1.332 . S
C526 C525 1.382 . S
C526 H537 0.952 . S
C527 C524 1.388 . S
C527 C528 1.382 . S
C527 H552 0.950 . S
C528 N523 1.332 . S
C528 C527 1.382 . S
C528 H538 0.948 1_556 S
N529 Co507 2.282 . S
N529 C533 1.332 . S
N529 C534 1.332 . S
C530 C531 1.388 . S
C530 C534 1.382 . S
C530 H553 0.950 . S
C531 C530 1.388 . S
C531 C532 1.386 . S
C532 C531 1.386 . S
C532 C533 1.382 . S
C532 H554 0.950 . S
C533 N529 1.332 . S
C533 C532 1.382 . S
C533 H535 0.952 . S
C534 N529 1.332 . S
C534 C530 1.382 . S
C534 H536 0.948 . S
H535 C533 0.952 . S
H536 C534 0.948 . S
H537 C526 0.952 . S
H538 C528 0.948 1_554 S
C539 C505 1.395 . S
C539 C509 1.391 . S
C540 C502 1.389 . S
C540 C522 1.392 . S
C541 C512 1.392 . S
C541 C514 1.389 . S
C542 C517 1.395 . S
C542 C519 1.391 . S
H543 C503 0.951 . S
H544 C504 0.950 . S
H545 C510 0.949 . S
H546 C511 0.950 . S
H547 C515 0.951 . S
H548 C516 0.950 . S
H549 C520 0.949 . S
H550 C521 0.950 . S
H551 C525 0.950 . S
H552 C527 0.950 . S
H553 C530 0.950 . S
H554 C532 0.950 . S
C555 C556 1.443 . S
C555 N559 1.376 . S
C555 C593 1.389 . S
C556 C555 1.443 . S
C556 C557 1.340 . S
C556 H596 0.951 . S
C557 C556 1.340 . S
C557 C558 1.439 . S
C557 H597 0.950 . S
C558 C557 1.439 . S
C558 N559 1.374 . S
C558 C592 1.395 1_554 S
N559 C555 1.376 . S
N559 C558 1.374 . S
N559 Co560 2.008 . S
Co560 N559 2.008 . S
Co560 N561 1.995 1_554 S
Co560 N566 2.008 1_554 S
Co560 N571 1.995 . S
Co560 N576 2.282 . S
Co560 N582 2.282 1_554 S
N561 Co560 1.995 1_556 S
N561 C562 1.376 . S
N561 C565 1.383 . S
C562 N561 1.376 . S
C562 C563 1.446 . S
C562 C592 1.391 . S
C563 C562 1.446 . S
C563 C564 1.339 . S
C563 H598 0.949 . S
C564 C563 1.339 . S
C564 C565 1.439 . S
C564 H599 0.950 . S
C565 N561 1.383 . S
C565 C564 1.439 . S
C565 C594 1.392 . S
N566 Co560 2.008 1_556 S
N566 C567 1.376 . S
N566 C570 1.374 1_556 S
C567 N566 1.376 . S
C567 C568 1.443 . S
C567 C594 1.389 . S
C568 C567 1.443 . S
C568 C569 1.340 . S
C568 H600 0.951 . S
C569 C568 1.340 . S
C569 C570 1.439 1_556 S
C569 H601 0.950 . S
C570 N566 1.374 1_554 S
C570 C569 1.439 1_554 S
C570 C595 1.395 . S
N571 Co560 1.995 . S
N571 C572 1.376 . S
N571 C575 1.383 . S
C572 N571 1.376 . S
C572 C573 1.446 . S
C572 C595 1.391 . S
C573 C572 1.446 . S
C573 C574 1.339 . S
C573 H602 0.949 . S
C574 C573 1.339 . S
C574 C575 1.439 . S
C574 H603 0.950 . S
C575 N571 1.383 . S
C575 C574 1.439 . S
C575 C593 1.392 . S
N576 Co560 2.282 . S
N576 C579 1.332 . S
N576 C581 1.332 . S
C577 C578 1.386 . S
C577 C580 1.388 . S
C578 C577 1.386 . S
C578 C579 1.382 . S
C578 H604 0.950 . S
C579 N576 1.332 . S
C579 C578 1.382 . S
C579 H590 0.952 . S
C580 C577 1.388 . S
C580 C581 1.382 . S
C580 H605 0.950 . S
C581 N576 1.332 . S
C581 C580 1.382 . S
C581 H591 0.948 . S
N582 Co560 2.282 1_556 S
N582 C586 1.332 . S
N582 C587 1.332 . S
C583 C584 1.388 . S
C583 C587 1.382 . S
C583 H606 0.950 . S
C584 C583 1.388 . S
C584 C585 1.386 . S
C585 C584 1.386 . S
C585 C586 1.382 . S
C585 H607 0.950 . S
C586 N582 1.332 . S
C586 C585 1.382 . S
C586 H588 0.952 . S
C587 N582 1.332 . S
C587 C583 1.382 . S
C587 H589 0.948 . S
H588 C586 0.952 . S
H589 C587 0.948 . S
H590 C579 0.952 . S
H591 C581 0.948 . S
C592 C558 1.395 1_556 S
C592 C562 1.391 . S
C593 C555 1.389 . S
C593 C575 1.392 . S
C594 C565 1.392 . S
C594 C567 1.389 . S
C595 C570 1.395 . S
C595 C572 1.391 . S
H596 C556 0.951 . S
H597 C557 0.950 . S
H598 C563 0.949 . S
H599 C564 0.950 . S
H600 C568 0.951 . S
H601 C569 0.950 . S
H602 C573 0.949 . S
H603 C574 0.950 . S
H604 C578 0.950 . S
H605 C580 0.950 . S
H606 C583 0.950 . S
H607 C585 0.950 . S
H608 C620 0.930 . S
H609 C622 0.930 . S
H610 C623 0.930 . S
H611 C627 0.959 . S
H612 C627 0.959 . S
H613 C627 0.961 . S
H614 C628 0.960 . S
H615 C628 0.961 . S
H616 C628 0.959 . S
H617 C631 0.929 . S
H618 C632 0.931 . S
H619 C634 0.930 . S
C620 H608 0.930 . S
C620 C621 1.399 . S
C620 C625 1.399 . S
C621 C620 1.399 . S
C621 C622 1.376 . S
C622 H609 0.930 . S
C622 C621 1.376 . S
C622 C623 1.388 . S
C623 H610 0.930 . S
C623 C622 1.388 . S
C623 C624 1.390 . S
C624 C623 1.390 . S
C624 C625 1.394 . S
C624 C630 1.465 . S
C625 C620 1.399 . S
C625 C624 1.394 . S
C625 C626 1.516 . S
C626 C625 1.516 . S
C626 C627 1.502 . S
C626 C628 1.561 . S
C626 C629 1.526 . S
C627 H611 0.959 . S
C627 H612 0.959 . S
C627 H613 0.961 . S
C627 C626 1.502 . S
C628 H614 0.960 . S
C628 H615 0.961 . S
C628 H616 0.959 . S
C628 C626 1.561 . S
C629 C626 1.526 . S
C629 C630 1.396 . S
C629 C634 1.390 . S
C630 C624 1.465 . S
C630 C629 1.396 . S
C630 C631 1.399 . S
C631 H617 0.929 . S
C631 C630 1.399 . S
C631 C632 1.385 . S
C632 H618 0.931 . S
C632 C631 1.385 . S
C632 C633 1.389 . S
C633 C632 1.389 . S
C633 C634 1.387 . S
C634 H619 0.930 . S
C634 C629 1.390 . S
C634 C633 1.387 . S
H635 C647 0.930 . S
H636 C649 0.930 . S
H637 C650 0.930 . S
H638 C654 0.959 . S
H639 C654 0.959 . S
H640 C654 0.961 . S
H641 C655 0.960 . S
H642 C655 0.961 . S
H643 C655 0.959 . S
H644 C658 0.929 . S
H645 C659 0.931 . S
H646 C661 0.930 . S
C647 H635 0.930 . S
C647 C648 1.399 . S
C647 C652 1.399 . S
C648 C647 1.399 . S
C648 C649 1.376 . S
C649 H636 0.930 . S
C649 C648 1.376 . S
C649 C650 1.388 . S
C650 H637 0.930 . S
C650 C649 1.388 . S
C650 C651 1.390 . S
C651 C650 1.390 . S
C651 C652 1.394 . S
C651 C657 1.465 . S
C652 C647 1.399 . S
C652 C651 1.394 . S
C652 C653 1.516 . S
C653 C652 1.516 . S
C653 C654 1.502 . S
C653 C655 1.561 . S
C653 C656 1.526 . S
C654 H638 0.959 . S
C654 H639 0.959 . S
C654 H640 0.961 . S
C654 C653 1.502 . S
C655 H641 0.960 . S
C655 H642 0.961 . S
C655 H643 0.959 . S
C655 C653 1.561 . S
C656 C653 1.526 . S
C656 C657 1.396 . S
C656 C661 1.390 . S
C657 C651 1.465 . S
C657 C656 1.396 . S
C657 C658 1.399 . S
C658 H644 0.929 . S
C658 C657 1.399 . S
C658 C659 1.385 . S
C659 H645 0.931 . S
C659 C658 1.385 . S
C659 C660 1.389 . S
C660 C659 1.389 . S
C660 C661 1.387 . S
C661 H646 0.930 . S
C661 C656 1.390 . S
C661 C660 1.387 . S
H662 C674 0.930 . S
H663 C676 0.930 . S
H664 C677 0.930 . S
H665 C681 0.959 . S
H666 C681 0.959 . S
H667 C681 0.961 . S
H668 C682 0.960 . S
H669 C682 0.961 . S
H670 C682 0.959 . S
H671 C685 0.929 . S
H672 C686 0.931 . S
H673 C688 0.930 . S
C674 H662 0.930 . S
C674 C675 1.399 . S
C674 C679 1.399 . S
C675 C674 1.399 . S
C675 C676 1.376 . S
C676 H663 0.930 . S
C676 C675 1.376 . S
C676 C677 1.388 . S
C677 H664 0.930 . S
C677 C676 1.388 . S
C677 C678 1.390 . S
C678 C677 1.390 . S
C678 C679 1.394 . S
C678 C684 1.465 . S
C679 C674 1.399 . S
C679 C678 1.394 . S
C679 C680 1.516 . S
C680 C679 1.516 . S
C680 C681 1.502 . S
C680 C682 1.561 . S
C680 C683 1.526 . S
C681 H665 0.959 . S
C681 H666 0.959 . S
C681 H667 0.961 . S
C681 C680 1.502 . S
C682 H668 0.960 . S
C682 H669 0.961 . S
C682 H670 0.959 . S
C682 C680 1.561 . S
C683 C680 1.526 . S
C683 C684 1.396 . S
C683 C688 1.390 . S
C684 C678 1.465 . S
C684 C683 1.396 . S
C684 C685 1.399 . S
C685 H671 0.929 . S
C685 C684 1.399 . S
C685 C686 1.385 . S
C686 H672 0.931 . S
C686 C685 1.385 . S
C686 C687 1.389 . S
C687 C686 1.389 . S
C687 C688 1.387 . S
C688 H673 0.930 . S
C688 C683 1.390 . S
C688 C687 1.387 . S
H689 C701 0.930 . S
H690 C703 0.930 . S
H691 C704 0.930 . S
H692 C708 0.959 . S
H693 C708 0.959 . S
H694 C708 0.961 . S
H695 C709 0.960 . S
H696 C709 0.961 . S
H697 C709 0.959 . S
H698 C712 0.929 . S
H699 C713 0.931 . S
H700 C715 0.930 . S
C701 H689 0.930 . S
C701 C702 1.399 . S
C701 C706 1.399 . S
C702 C701 1.399 . S
C702 C703 1.376 . S
C703 H690 0.930 . S
C703 C702 1.376 . S
C703 C704 1.388 . S
C704 H691 0.930 . S
C704 C703 1.388 . S
C704 C705 1.390 . S
C705 C704 1.390 . S
C705 C706 1.394 . S
C705 C711 1.465 . S
C706 C701 1.399 . S
C706 C705 1.394 . S
C706 C707 1.516 . S
C707 C706 1.516 . S
C707 C708 1.502 . S
C707 C709 1.561 . S
C707 C710 1.526 . S
C708 H692 0.959 . S
C708 H693 0.959 . S
C708 H694 0.961 . S
C708 C707 1.502 . S
C709 H695 0.960 . S
C709 H696 0.961 . S
C709 H697 0.959 . S
C709 C707 1.561 . S
C710 C707 1.526 . S
C710 C711 1.396 . S
C710 C715 1.390 . S
C711 C705 1.465 . S
C711 C710 1.396 . S
C711 C712 1.399 . S
C712 H698 0.929 . S
C712 C711 1.399 . S
C712 C713 1.385 . S
C713 H699 0.931 . S
C713 C712 1.385 . S
C713 C714 1.389 . S
C714 C713 1.389 . S
C714 C715 1.387 . S
C715 H700 0.930 . S
C715 C710 1.390 . S
C715 C714 1.387 . S
H716 C728 0.930 . S
H717 C730 0.930 . S
H718 C731 0.930 . S
H719 C735 0.959 . S
H720 C735 0.959 . S
H721 C735 0.961 . S
H722 C736 0.960 . S
H723 C736 0.961 . S
H724 C736 0.959 . S
H725 C739 0.929 . S
H726 C740 0.931 . S
H727 C742 0.930 . S
C728 H716 0.930 . S
C728 C729 1.399 . S
C728 C733 1.399 . S
C729 C728 1.399 . S
C729 C730 1.376 . S
C730 H717 0.930 . S
C730 C729 1.376 . S
C730 C731 1.388 . S
C731 H718 0.930 . S
C731 C730 1.388 . S
C731 C732 1.390 . S
C732 C731 1.390 . S
C732 C733 1.394 . S
C732 C738 1.465 . S
C733 C728 1.399 . S
C733 C732 1.394 . S
C733 C734 1.516 . S
C734 C733 1.516 . S
C734 C735 1.502 . S
C734 C736 1.561 . S
C734 C737 1.526 . S
C735 H719 0.959 . S
C735 H720 0.959 . S
C735 H721 0.961 . S
C735 C734 1.502 . S
C736 H722 0.960 . S
C736 H723 0.961 . S
C736 H724 0.959 . S
C736 C734 1.561 . S
C737 C734 1.526 . S
C737 C738 1.396 . S
C737 C742 1.390 . S
C738 C732 1.465 . S
C738 C737 1.396 . S
C738 C739 1.399 . S
C739 H725 0.929 . S
C739 C738 1.399 . S
C739 C740 1.385 . S
C740 H726 0.931 . S
C740 C739 1.385 . S
C740 C741 1.389 . S
C741 C740 1.389 . S
C741 C742 1.387 . S
C742 H727 0.930 . S
C742 C737 1.390 . S
C742 C741 1.387 . S
H743 C755 0.930 . S
H744 C757 0.930 . S
H745 C758 0.930 . S
H746 C762 0.959 . S
H747 C762 0.959 . S
H748 C762 0.961 . S
H749 C763 0.960 . S
H750 C763 0.961 . S
H751 C763 0.959 . S
H752 C766 0.929 . S
H753 C767 0.931 . S
H754 C769 0.930 . S
C755 H743 0.930 . S
C755 C756 1.399 . S
C755 C760 1.399 . S
C756 C755 1.399 . S
C756 C757 1.376 . S
C757 H744 0.930 . S
C757 C756 1.376 . S
C757 C758 1.388 . S
C758 H745 0.930 . S
C758 C757 1.388 . S
C758 C759 1.390 . S
C759 C758 1.390 . S
C759 C760 1.394 . S
C759 C765 1.465 . S
C760 C755 1.399 . S
C760 C759 1.394 . S
C760 C761 1.516 . S
C761 C760 1.516 . S
C761 C762 1.502 . S
C761 C763 1.561 . S
C761 C764 1.526 . S
C762 H746 0.959 . S
C762 H747 0.959 . S
C762 H748 0.961 . S
C762 C761 1.502 . S
C763 H749 0.960 . S
C763 H750 0.961 . S
C763 H751 0.959 . S
C763 C761 1.561 . S
C764 C761 1.526 . S
C764 C765 1.396 . S
C764 C769 1.390 . S
C765 C759 1.465 . S
C765 C764 1.396 . S
C765 C766 1.399 . S
C766 H752 0.929 . S
C766 C765 1.399 . S
C766 C767 1.385 . S
C767 H753 0.931 . S
C767 C766 1.385 . S
C767 C768 1.389 . S
C768 C767 1.389 . S
C768 C769 1.387 . S
C769 H754 0.930 . S
C769 C764 1.390 . S
C769 C768 1.387 . S
H770 C782 0.930 . S
H771 C784 0.930 . S
H772 C785 0.930 . S
H773 C789 0.959 . S
H774 C789 0.959 . S
H775 C789 0.961 . S
H776 C790 0.960 . S
H777 C790 0.961 . S
H778 C790 0.959 . S
H779 C793 0.929 . S
H780 C794 0.931 . S
H781 C796 0.930 . S
C782 H770 0.930 . S
C782 C783 1.399 . S
C782 C787 1.399 . S
C783 C782 1.399 . S
C783 C784 1.376 . S
C784 H771 0.930 . S
C784 C783 1.376 . S
C784 C785 1.388 . S
C785 H772 0.930 . S
C785 C784 1.388 . S
C785 C786 1.390 . S
C786 C785 1.390 . S
C786 C787 1.394 . S
C786 C792 1.465 . S
C787 C782 1.399 . S
C787 C786 1.394 . S
C787 C788 1.516 . S
C788 C787 1.516 . S
C788 C789 1.502 . S
C788 C790 1.561 . S
C788 C791 1.526 . S
C789 H773 0.959 . S
C789 H774 0.959 . S
C789 H775 0.961 . S
C789 C788 1.502 . S
C790 H776 0.960 . S
C790 H777 0.961 . S
C790 H778 0.959 . S
C790 C788 1.561 . S
C791 C788 1.526 . S
C791 C792 1.396 . S
C791 C796 1.390 . S
C792 C786 1.465 . S
C792 C791 1.396 . S
C792 C793 1.399 . S
C793 H779 0.929 . S
C793 C792 1.399 . S
C793 C794 1.385 . S
C794 H780 0.931 . S
C794 C793 1.385 . S
C794 C795 1.389 . S
C795 C794 1.389 . S
C795 C796 1.387 . S
C796 H781 0.930 . S
C796 C791 1.390 . S
C796 C795 1.387 . S
H797 C809 0.930 . S
H798 C811 0.930 . S
H799 C812 0.930 . S
H800 C816 0.959 . S
H801 C816 0.959 . S
H802 C816 0.961 . S
H803 C817 0.960 . S
H804 C817 0.961 . S
H805 C817 0.959 . S
H806 C820 0.929 . S
H807 C821 0.931 . S
H808 C823 0.930 . S
C809 H797 0.930 . S
C809 C810 1.399 . S
C809 C814 1.399 . S
C810 C809 1.399 . S
C810 C811 1.376 . S
C811 H798 0.930 . S
C811 C810 1.376 . S
C811 C812 1.388 . S
C812 H799 0.930 . S
C812 C811 1.388 . S
C812 C813 1.390 . S
C813 C812 1.390 . S
C813 C814 1.394 . S
C813 C819 1.465 . S
C814 C809 1.399 . S
C814 C813 1.394 . S
C814 C815 1.516 . S
C815 C814 1.516 . S
C815 C816 1.502 . S
C815 C817 1.561 . S
C815 C818 1.526 . S
C816 H800 0.959 . S
C816 H801 0.959 . S
C816 H802 0.961 . S
C816 C815 1.502 . S
C817 H803 0.960 . S
C817 H804 0.961 . S
C817 H805 0.959 . S
C817 C815 1.561 . S
C818 C815 1.526 . S
C818 C819 1.396 . S
C818 C823 1.390 . S
C819 C813 1.465 . S
C819 C818 1.396 . S
C819 C820 1.399 . S
C820 H806 0.929 . S
C820 C819 1.399 . S
C820 C821 1.385 . S
C821 H807 0.931 . S
C821 C820 1.385 . S
C821 C822 1.389 . S
C822 C821 1.389 . S
C822 C823 1.387 . S
C823 H808 0.930 . S
C823 C818 1.390 . S
C823 C822 1.387 . S
H824 C836 0.930 . S
H825 C838 0.930 . S
H826 C839 0.930 . S
H827 C843 0.959 . S
H828 C843 0.959 . S
H829 C843 0.961 . S
H830 C844 0.960 . S
H831 C844 0.961 . S
H832 C844 0.959 . S
H833 C847 0.929 . S
H834 C848 0.931 . S
H835 C850 0.930 . S
C836 H824 0.930 . S
C836 C837 1.399 . S
C836 C841 1.399 . S
C837 C836 1.399 . S
C837 C838 1.376 . S
C838 H825 0.930 . S
C838 C837 1.376 . S
C838 C839 1.388 . S
C839 H826 0.930 . S
C839 C838 1.388 . S
C839 C840 1.390 . S
C840 C839 1.390 . S
C840 C841 1.394 . S
C840 C846 1.465 . S
C841 C836 1.399 . S
C841 C840 1.394 . S
C841 C842 1.516 . S
C842 C841 1.516 . S
C842 C843 1.502 . S
C842 C844 1.561 . S
C842 C845 1.526 . S
C843 H827 0.959 . S
C843 H828 0.959 . S
C843 H829 0.961 . S
C843 C842 1.502 . S
C844 H830 0.960 . S
C844 H831 0.961 . S
C844 H832 0.959 . S
C844 C842 1.561 . S
C845 C842 1.526 . S
C845 C846 1.396 . S
C845 C850 1.390 . S
C846 C840 1.465 . S
C846 C845 1.396 . S
C846 C847 1.399 . S
C847 H833 0.929 . S
C847 C846 1.399 . S
C847 C848 1.385 . S
C848 H834 0.931 . S
C848 C847 1.385 . S
C848 C849 1.389 . S
C849 C848 1.389 . S
C849 C850 1.387 . S
C850 H835 0.930 . S
C850 C845 1.390 . S
C850 C849 1.387 . S
H851 C863 0.930 . S
H852 C865 0.930 . S
H853 C866 0.930 . S
H854 C870 0.959 . S
H855 C870 0.959 . S
H856 C870 0.961 . S
H857 C871 0.960 . S
H858 C871 0.961 . S
H859 C871 0.959 . S
H860 C874 0.929 . S
H861 C875 0.931 . S
H862 C877 0.930 . S
C863 H851 0.930 . S
C863 C864 1.399 . S
C863 C868 1.399 . S
C864 C863 1.399 . S
C864 C865 1.376 . S
C865 H852 0.930 . S
C865 C864 1.376 . S
C865 C866 1.388 . S
C866 H853 0.930 . S
C866 C865 1.388 . S
C866 C867 1.390 . S
C867 C866 1.390 . S
C867 C868 1.394 . S
C867 C873 1.465 . S
C868 C863 1.399 . S
C868 C867 1.394 . S
C868 C869 1.516 . S
C869 C868 1.516 . S
C869 C870 1.502 . S
C869 C871 1.561 . S
C869 C872 1.526 . S
C870 H854 0.959 . S
C870 H855 0.959 . S
C870 H856 0.961 . S
C870 C869 1.502 . S
C871 H857 0.960 . S
C871 H858 0.961 . S
C871 H859 0.959 . S
C871 C869 1.561 . S
C872 C869 1.526 . S
C872 C873 1.396 . S
C872 C877 1.390 . S
C873 C867 1.465 . S
C873 C872 1.396 . S
C873 C874 1.399 . S
C874 H860 0.929 . S
C874 C873 1.399 . S
C874 C875 1.385 . S
C875 H861 0.931 . S
C875 C874 1.385 . S
C875 C876 1.389 . S
C876 C875 1.389 . S
C876 C877 1.387 . S
C877 H862 0.930 . S
C877 C872 1.390 . S
C877 C876 1.387 . S
H878 C890 0.930 . S
H879 C892 0.930 . S
H880 C893 0.930 . S
H881 C897 0.959 . S
H882 C897 0.959 . S
H883 C897 0.961 . S
H884 C898 0.960 . S
H885 C898 0.961 . S
H886 C898 0.959 . S
H887 C901 0.929 . S
H888 C902 0.931 . S
H889 C904 0.930 . S
C890 H878 0.930 . S
C890 C891 1.399 . S
C890 C895 1.399 . S
C891 C890 1.399 . S
C891 C892 1.376 . S
C892 H879 0.930 . S
C892 C891 1.376 . S
C892 C893 1.388 . S
C893 H880 0.930 . S
C893 C892 1.388 . S
C893 C894 1.390 . S
C894 C893 1.390 . S
C894 C895 1.394 . S
C894 C900 1.465 . S
C895 C890 1.399 . S
C895 C894 1.394 . S
C895 C896 1.516 . S
C896 C895 1.516 . S
C896 C897 1.502 . S
C896 C898 1.561 . S
C896 C899 1.526 . S
C897 H881 0.959 . S
C897 H882 0.959 . S
C897 H883 0.961 . S
C897 C896 1.502 . S
C898 H884 0.960 . S
C898 H885 0.961 . S
C898 H886 0.959 . S
C898 C896 1.561 . S
C899 C896 1.526 . S
C899 C900 1.396 . S
C899 C904 1.390 . S
C900 C894 1.465 . S
C900 C899 1.396 . S
C900 C901 1.399 . S
C901 H887 0.929 . S
C901 C900 1.399 . S
C901 C902 1.385 . S
C902 H888 0.931 . S
C902 C901 1.385 . S
C902 C903 1.389 . S
C903 C902 1.389 . S
C903 C904 1.387 . S
C904 H889 0.930 . S
C904 C899 1.390 . S
C904 C903 1.387 . S
H905 C917 0.930 . S
H906 C919 0.930 . S
H907 C920 0.930 . S
H908 C924 0.959 . S
H909 C924 0.959 . S
H910 C924 0.961 . S
H911 C925 0.960 . S
H912 C925 0.961 . S
H913 C925 0.959 . S
H914 C928 0.929 . S
H915 C929 0.931 . S
H916 C931 0.930 . S
C917 H905 0.930 . S
C917 C918 1.399 . S
C917 C922 1.399 . S
C918 C917 1.399 . S
C918 C919 1.376 . S
C919 H906 0.930 . S
C919 C918 1.376 . S
C919 C920 1.388 . S
C920 H907 0.930 . S
C920 C919 1.388 . S
C920 C921 1.390 . S
C921 C920 1.390 . S
C921 C922 1.394 . S
C921 C927 1.465 . S
C922 C917 1.399 . S
C922 C921 1.394 . S
C922 C923 1.516 . S
C923 C922 1.516 . S
C923 C924 1.502 . S
C923 C925 1.561 . S
C923 C926 1.526 . S
C924 H908 0.959 . S
C924 H909 0.959 . S
C924 H910 0.961 . S
C924 C923 1.502 . S
C925 H911 0.960 . S
C925 H912 0.961 . S
C925 H913 0.959 . S
C925 C923 1.561 . S
C926 C923 1.526 . S
C926 C927 1.396 . S
C926 C931 1.390 . S
C927 C921 1.465 . S
C927 C926 1.396 . S
C927 C928 1.399 . S
C928 H914 0.929 . S
C928 C927 1.399 . S
C928 C929 1.385 . S
C929 H915 0.931 . S
C929 C928 1.385 . S
C929 C930 1.389 . S
C930 C929 1.389 . S
C930 C931 1.387 . S
C931 H916 0.930 . S
C931 C926 1.390 . S
C931 C930 1.387 . S
H932 C944 0.930 . S
H933 C946 0.930 . S
H934 C947 0.930 . S
H935 C951 0.959 . S
H936 C951 0.959 . S
H937 C951 0.961 . S
H938 C952 0.960 . S
H939 C952 0.961 . S
H940 C952 0.959 . S
H941 C955 0.929 . S
H942 C956 0.931 . S
H943 C958 0.930 . S
C944 H932 0.930 . S
C944 C945 1.399 . S
C944 C949 1.399 . S
C945 C944 1.399 . S
C945 C946 1.376 . S
C946 H933 0.930 . S
C946 C945 1.376 . S
C946 C947 1.388 . S
C947 H934 0.930 . S
C947 C946 1.388 . S
C947 C948 1.390 . S
C948 C947 1.390 . S
C948 C949 1.394 . S
C948 C954 1.465 . S
C949 C944 1.399 . S
C949 C948 1.394 . S
C949 C950 1.516 . S
C950 C949 1.516 . S
C950 C951 1.502 . S
C950 C952 1.561 . S
C950 C953 1.526 . S
C951 H935 0.959 . S
C951 H936 0.959 . S
C951 H937 0.961 . S
C951 C950 1.502 . S
C952 H938 0.960 . S
C952 H939 0.961 . S
C952 H940 0.959 . S
C952 C950 1.561 . S
C953 C950 1.526 . S
C953 C954 1.396 . S
C953 C958 1.390 . S
C954 C948 1.465 . S
C954 C953 1.396 . S
C954 C955 1.399 . S
C955 H941 0.929 . S
C955 C954 1.399 . S
C955 C956 1.385 . S
C956 H942 0.931 . S
C956 C955 1.385 . S
C956 C957 1.389 . S
C957 C956 1.389 . S
C957 C958 1.387 . S
C958 H943 0.930 . S
C958 C953 1.390 . S
C958 C957 1.387 . S
H959 C971 0.930 . S
H960 C973 0.930 . S
H961 C974 0.930 . S
H962 C978 0.959 . S
H963 C978 0.959 . S
H964 C978 0.961 . S
H965 C979 0.960 . S
H966 C979 0.961 . S
H967 C979 0.959 . S
H968 C982 0.929 . S
H969 C983 0.931 . S
H970 C985 0.930 . S
C971 H959 0.930 . S
C971 C972 1.399 . S
C971 C976 1.399 . S
C972 C971 1.399 . S
C972 C973 1.376 . S
C973 H960 0.930 . S
C973 C972 1.376 . S
C973 C974 1.388 . S
C974 H961 0.930 . S
C974 C973 1.388 . S
C974 C975 1.390 . S
C975 C974 1.390 . S
C975 C976 1.394 . S
C975 C981 1.465 . S
C976 C971 1.399 . S
C976 C975 1.394 . S
C976 C977 1.516 . S
C977 C976 1.516 . S
C977 C978 1.502 . S
C977 C979 1.561 . S
C977 C980 1.526 . S
C978 H962 0.959 . S
C978 H963 0.959 . S
C978 H964 0.961 . S
C978 C977 1.502 . S
C979 H965 0.960 . S
C979 H966 0.961 . S
C979 H967 0.959 . S
C979 C977 1.561 . S
C980 C977 1.526 . S
C980 C981 1.396 . S
C980 C985 1.390 . S
C981 C975 1.465 . S
C981 C980 1.396 . S
C981 C982 1.399 . S
C982 H968 0.929 . S
C982 C981 1.399 . S
C982 C983 1.385 . S
C983 H969 0.931 . S
C983 C982 1.385 . S
C983 C984 1.389 . S
C984 C983 1.389 . S
C984 C985 1.387 . S
C985 H970 0.930 . S
C985 C980 1.390 . S
C985 C984 1.387 . S
H986 C998 0.930 . S
H987 C1000 0.930 . S
H988 C1001 0.930 . S
H989 C1005 0.959 . S
H990 C1005 0.959 . S
H991 C1005 0.961 . S
H992 C1006 0.960 . S
H993 C1006 0.961 . S
H994 C1006 0.959 . S
H995 C1009 0.929 . S
H996 C1010 0.931 . S
H997 C1012 0.930 . S
C998 H986 0.930 . S
C998 C999 1.399 . S
C998 C1003 1.399 . S
C999 C998 1.399 . S
C999 C1000 1.376 . S
C1000 H987 0.930 . S
C1000 C999 1.376 . S
C1000 C1001 1.388 . S
C1001 H988 0.930 . S
C1001 C1000 1.388 . S
C1001 C1002 1.390 . S
C1002 C1001 1.390 . S
C1002 C1003 1.394 . S
C1002 C1008 1.465 . S
C1003 C998 1.399 . S
C1003 C1002 1.394 . S
C1003 C1004 1.516 . S
C1004 C1003 1.516 . S
C1004 C1005 1.502 . S
C1004 C1006 1.561 . S
C1004 C1007 1.526 . S
C1005 H989 0.959 . S
C1005 H990 0.959 . S
C1005 H991 0.961 . S
C1005 C1004 1.502 . S
C1006 H992 0.960 . S
C1006 H993 0.961 . S
C1006 H994 0.959 . S
C1006 C1004 1.561 . S
C1007 C1004 1.526 . S
C1007 C1008 1.396 . S
C1007 C1012 1.390 . S
C1008 C1002 1.465 . S
C1008 C1007 1.396 . S
C1008 C1009 1.399 . S
C1009 H995 0.929 . S
C1009 C1008 1.399 . S
C1009 C1010 1.385 . S
C1010 H996 0.931 . S
C1010 C1009 1.385 . S
C1010 C1011 1.389 . S
C1011 C1010 1.389 . S
C1011 C1012 1.387 . S
C1012 H997 0.930 . S
C1012 C1007 1.390 . S
C1012 C1011 1.387 . S
H1013 C1025 0.930 . S
H1014 C1027 0.930 . S
H1015 C1028 0.930 . S
H1016 C1032 0.959 . S
H1017 C1032 0.959 . S
H1018 C1032 0.961 . S
H1019 C1033 0.960 . S
H1020 C1033 0.961 . S
H1021 C1033 0.959 . S
H1022 C1036 0.929 . S
H1023 C1037 0.931 . S
H1024 C1039 0.930 . S
C1025 H1013 0.930 . S
C1025 C1026 1.399 . S
C1025 C1030 1.399 . S
C1026 C1025 1.399 . S
C1026 C1027 1.376 . S
C1027 H1014 0.930 . S
C1027 C1026 1.376 . S
C1027 C1028 1.388 . S
C1028 H1015 0.930 . S
C1028 C1027 1.388 . S
C1028 C1029 1.390 . S
C1029 C1028 1.390 . S
C1029 C1030 1.394 . S
C1029 C1035 1.465 . S
C1030 C1025 1.399 . S
C1030 C1029 1.394 . S
C1030 C1031 1.516 . S
C1031 C1030 1.516 . S
C1031 C1032 1.502 . S
C1031 C1033 1.561 . S
C1031 C1034 1.526 . S
C1032 H1016 0.959 . S
C1032 H1017 0.959 . S
C1032 H1018 0.961 . S
C1032 C1031 1.502 . S
C1033 H1019 0.960 . S
C1033 H1020 0.961 . S
C1033 H1021 0.959 . S
C1033 C1031 1.561 . S
C1034 C1031 1.526 . S
C1034 C1035 1.396 . S
C1034 C1039 1.390 . S
C1035 C1029 1.465 . S
C1035 C1034 1.396 . S
C1035 C1036 1.399 . S
C1036 H1022 0.929 . S
C1036 C1035 1.399 . S
C1036 C1037 1.385 . S
C1037 H1023 0.931 . S
C1037 C1036 1.385 . S
C1037 C1038 1.389 . S
C1038 C1037 1.389 . S
C1038 C1039 1.387 . S
C1039 H1024 0.930 . S
C1039 C1034 1.390 . S
C1039 C1038 1.387 . S
H1040 C1052 0.930 . S
H1041 C1054 0.930 . S
H1042 C1055 0.930 . S
H1043 C1059 0.959 . S
H1044 C1059 0.959 . S
H1045 C1059 0.961 . S
H1046 C1060 0.960 . S
H1047 C1060 0.961 . S
H1048 C1060 0.959 . S
H1049 C1063 0.929 . S
H1050 C1064 0.931 . S
H1051 C1066 0.930 . S
C1052 H1040 0.930 . S
C1052 C1053 1.399 . S
C1052 C1057 1.399 . S
C1053 C1052 1.399 . S
C1053 C1054 1.376 . S
C1054 H1041 0.930 . S
C1054 C1053 1.376 . S
C1054 C1055 1.388 . S
C1055 H1042 0.930 . S
C1055 C1054 1.388 . S
C1055 C1056 1.390 . S
C1056 C1055 1.390 . S
C1056 C1057 1.394 . S
C1056 C1062 1.465 . S
C1057 C1052 1.399 . S
C1057 C1056 1.394 . S
C1057 C1058 1.516 . S
C1058 C1057 1.516 . S
C1058 C1059 1.502 . S
C1058 C1060 1.561 . S
C1058 C1061 1.526 . S
C1059 H1043 0.959 . S
C1059 H1044 0.959 . S
C1059 H1045 0.961 . S
C1059 C1058 1.502 . S
C1060 H1046 0.960 . S
C1060 H1047 0.961 . S
C1060 H1048 0.959 . S
C1060 C1058 1.561 . S
C1061 C1058 1.526 . S
C1061 C1062 1.396 . S
C1061 C1066 1.390 . S
C1062 C1056 1.465 . S
C1062 C1061 1.396 . S
C1062 C1063 1.399 . S
C1063 H1049 0.929 . S
C1063 C1062 1.399 . S
C1063 C1064 1.385 . S
C1064 H1050 0.931 . S
C1064 C1063 1.385 . S
C1064 C1065 1.389 . S
C1065 C1064 1.389 . S
C1065 C1066 1.387 . S
C1066 H1051 0.930 . S
C1066 C1061 1.390 . S
C1066 C1065 1.387 . S
H1067 C1079 0.930 . S
H1068 C1081 0.930 . S
H1069 C1082 0.930 . S
H1070 C1086 0.959 . S
H1071 C1086 0.959 . S
H1072 C1086 0.961 . S
H1073 C1087 0.960 . S
H1074 C1087 0.961 . S
H1075 C1087 0.959 . S
H1076 C1090 0.929 . S
H1077 C1091 0.931 . S
H1078 C1093 0.930 . S
C1079 H1067 0.930 . S
C1079 C1080 1.399 . S
C1079 C1084 1.399 . S
C1080 C1079 1.399 . S
C1080 C1081 1.376 . S
C1081 H1068 0.930 . S
C1081 C1080 1.376 . S
C1081 C1082 1.388 . S
C1082 H1069 0.930 . S
C1082 C1081 1.388 . S
C1082 C1083 1.390 . S
C1083 C1082 1.390 . S
C1083 C1084 1.394 . S
C1083 C1089 1.465 . S
C1084 C1079 1.399 . S
C1084 C1083 1.394 . S
C1084 C1085 1.516 . S
C1085 C1084 1.516 . S
C1085 C1086 1.502 . S
C1085 C1087 1.561 . S
C1085 C1088 1.526 . S
C1086 H1070 0.959 . S
C1086 H1071 0.959 . S
C1086 H1072 0.961 . S
C1086 C1085 1.502 . S
C1087 H1073 0.960 . S
C1087 H1074 0.961 . S
C1087 H1075 0.959 . S
C1087 C1085 1.561 . S
C1088 C1085 1.526 . S
C1088 C1089 1.396 . S
C1088 C1093 1.390 . S
C1089 C1083 1.465 . S
C1089 C1088 1.396 . S
C1089 C1090 1.399 . S
C1090 H1076 0.929 . S
C1090 C1089 1.399 . S
C1090 C1091 1.385 . S
C1091 H1077 0.931 . S
C1091 C1090 1.385 . S
C1091 C1092 1.389 . S
C1092 C1091 1.389 . S
C1092 C1093 1.387 . S
C1093 H1078 0.930 . S
C1093 C1088 1.390 . S
C1093 C1092 1.387 . S
H1094 C1106 0.930 . S
H1095 C1108 0.930 . S
H1096 C1109 0.930 . S
H1097 C1113 0.959 . S
H1098 C1113 0.959 . S
H1099 C1113 0.961 . S
H1100 C1114 0.960 . S
H1101 C1114 0.961 . S
H1102 C1114 0.959 . S
H1103 C1117 0.929 . S
H1104 C1118 0.931 . S
H1105 C1120 0.930 . S
C1106 H1094 0.930 . S
C1106 C1107 1.399 . S
C1106 C1111 1.399 . S
C1107 C1106 1.399 . S
C1107 C1108 1.376 . S
C1108 H1095 0.930 . S
C1108 C1107 1.376 . S
C1108 C1109 1.388 . S
C1109 H1096 0.930 . S
C1109 C1108 1.388 . S
C1109 C1110 1.390 . S
C1110 C1109 1.390 . S
C1110 C1111 1.394 . S
C1110 C1116 1.465 . S
C1111 C1106 1.399 . S
C1111 C1110 1.394 . S
C1111 C1112 1.516 . S
C1112 C1111 1.516 . S
C1112 C1113 1.502 . S
C1112 C1114 1.561 . S
C1112 C1115 1.526 . S
C1113 H1097 0.959 . S
C1113 H1098 0.959 . S
C1113 H1099 0.961 . S
C1113 C1112 1.502 . S
C1114 H1100 0.960 . S
C1114 H1101 0.961 . S
C1114 H1102 0.959 . S
C1114 C1112 1.561 . S
C1115 C1112 1.526 . S
C1115 C1116 1.396 . S
C1115 C1120 1.390 . S
C1116 C1110 1.465 . S
C1116 C1115 1.396 . S
C1116 C1117 1.399 . S
C1117 H1103 0.929 . S
C1117 C1116 1.399 . S
C1117 C1118 1.385 . S
C1118 H1104 0.931 . S
C1118 C1117 1.385 . S
C1118 C1119 1.389 . S
C1119 C1118 1.389 . S
C1119 C1120 1.387 . S
C1120 H1105 0.930 . S
C1120 C1115 1.390 . S
C1120 C1119 1.387 . S
H1121 C1133 0.930 . S
H1122 C1135 0.930 . S
H1123 C1136 0.930 . S
H1124 C1140 0.959 . S
H1125 C1140 0.959 . S
H1126 C1140 0.961 . S
H1127 C1141 0.960 . S
H1128 C1141 0.961 . S
H1129 C1141 0.959 . S
H1130 C1144 0.929 . S
H1131 C1145 0.931 . S
H1132 C1147 0.930 . S
C1133 H1121 0.930 . S
C1133 C1134 1.399 . S
C1133 C1138 1.399 . S
C1134 C1133 1.399 . S
C1134 C1135 1.376 . S
C1135 H1122 0.930 . S
C1135 C1134 1.376 . S
C1135 C1136 1.388 . S
C1136 H1123 0.930 . S
C1136 C1135 1.388 . S
C1136 C1137 1.390 . S
C1137 C1136 1.390 . S
C1137 C1138 1.394 . S
C1137 C1143 1.465 . S
C1138 C1133 1.399 . S
C1138 C1137 1.394 . S
C1138 C1139 1.516 . S
C1139 C1138 1.516 . S
C1139 C1140 1.502 . S
C1139 C1141 1.561 . S
C1139 C1142 1.526 . S
C1140 H1124 0.959 . S
C1140 H1125 0.959 . S
C1140 H1126 0.961 . S
C1140 C1139 1.502 . S
C1141 H1127 0.960 . S
C1141 H1128 0.961 . S
C1141 H1129 0.959 . S
C1141 C1139 1.561 . S
C1142 C1139 1.526 . S
C1142 C1143 1.396 . S
C1142 C1147 1.390 . S
C1143 C1137 1.465 . S
C1143 C1142 1.396 . S
C1143 C1144 1.399 . S
C1144 H1130 0.929 . S
C1144 C1143 1.399 . S
C1144 C1145 1.385 . S
C1145 H1131 0.931 . S
C1145 C1144 1.385 . S
C1145 C1146 1.389 . S
C1146 C1145 1.389 . S
C1146 C1147 1.387 . S
C1147 H1132 0.930 . S
C1147 C1142 1.390 . S
C1147 C1146 1.387 . S
H1148 C1160 0.930 . S
H1149 C1162 0.930 . S
H1150 C1163 0.930 . S
H1151 C1167 0.959 . S
H1152 C1167 0.959 . S
H1153 C1167 0.961 . S
H1154 C1168 0.960 . S
H1155 C1168 0.961 . S
H1156 C1168 0.959 . S
H1157 C1171 0.929 . S
H1158 C1172 0.931 . S
H1159 C1174 0.930 . S
C1160 H1148 0.930 . S
C1160 C1161 1.399 . S
C1160 C1165 1.399 . S
C1161 C1160 1.399 . S
C1161 C1162 1.376 . S
C1162 H1149 0.930 . S
C1162 C1161 1.376 . S
C1162 C1163 1.388 . S
C1163 H1150 0.930 . S
C1163 C1162 1.388 . S
C1163 C1164 1.390 . S
C1164 C1163 1.390 . S
C1164 C1165 1.394 . S
C1164 C1170 1.465 . S
C1165 C1160 1.399 . S
C1165 C1164 1.394 . S
C1165 C1166 1.516 . S
C1166 C1165 1.516 . S
C1166 C1167 1.502 . S
C1166 C1168 1.561 . S
C1166 C1169 1.526 . S
C1167 H1151 0.959 . S
C1167 H1152 0.959 . S
C1167 H1153 0.961 . S
C1167 C1166 1.502 . S
C1168 H1154 0.960 . S
C1168 H1155 0.961 . S
C1168 H1156 0.959 . S
C1168 C1166 1.561 . S
C1169 C1166 1.526 . S
C1169 C1170 1.396 . S
C1169 C1174 1.390 . S
C1170 C1164 1.465 . S
C1170 C1169 1.396 . S
C1170 C1171 1.399 . S
C1171 H1157 0.929 . S
C1171 C1170 1.399 . S
C1171 C1172 1.385 . S
C1172 H1158 0.931 . S
C1172 C1171 1.385 . S
C1172 C1173 1.389 . S
C1173 C1172 1.389 . S
C1173 C1174 1.387 . S
C1174 H1159 0.930 . S
C1174 C1169 1.390 . S
C1174 C1173 1.387 . S
H1175 C1187 0.930 . S
H1176 C1189 0.930 . S
H1177 C1190 0.930 . S
H1178 C1194 0.959 . S
H1179 C1194 0.959 . S
H1180 C1194 0.961 . S
H1181 C1195 0.960 . S
H1182 C1195 0.961 . S
H1183 C1195 0.959 . S
H1184 C1198 0.929 . S
H1185 C1199 0.931 . S
H1186 C1201 0.930 . S
C1187 H1175 0.930 . S
C1187 C1188 1.399 . S
C1187 C1192 1.399 . S
C1188 C1187 1.399 . S
C1188 C1189 1.376 . S
C1189 H1176 0.930 . S
C1189 C1188 1.376 . S
C1189 C1190 1.388 . S
C1190 H1177 0.930 . S
C1190 C1189 1.388 . S
C1190 C1191 1.390 . S
C1191 C1190 1.390 . S
C1191 C1192 1.394 . S
C1191 C1197 1.465 . S
C1192 C1187 1.399 . S
C1192 C1191 1.394 . S
C1192 C1193 1.516 . S
C1193 C1192 1.516 . S
C1193 C1194 1.502 . S
C1193 C1195 1.561 . S
C1193 C1196 1.526 . S
C1194 H1178 0.959 . S
C1194 H1179 0.959 . S
C1194 H1180 0.961 . S
C1194 C1193 1.502 . S
C1195 H1181 0.960 . S
C1195 H1182 0.961 . S
C1195 H1183 0.959 . S
C1195 C1193 1.561 . S
C1196 C1193 1.526 . S
C1196 C1197 1.396 . S
C1196 C1201 1.390 . S
C1197 C1191 1.465 . S
C1197 C1196 1.396 . S
C1197 C1198 1.399 . S
C1198 H1184 0.929 . S
C1198 C1197 1.399 . S
C1198 C1199 1.385 . S
C1199 H1185 0.931 . S
C1199 C1198 1.385 . S
C1199 C1200 1.389 . S
C1200 C1199 1.389 . S
C1200 C1201 1.387 . S
C1201 H1186 0.930 . S
C1201 C1196 1.390 . S
C1201 C1200 1.387 . S
H1202 C1214 0.930 . S
H1203 C1216 0.930 . S
H1204 C1217 0.930 . S
H1205 C1221 0.959 . S
H1206 C1221 0.959 . S
H1207 C1221 0.961 . S
H1208 C1222 0.960 . S
H1209 C1222 0.961 . S
H1210 C1222 0.959 . S
H1211 C1225 0.929 . S
H1212 C1226 0.931 . S
H1213 C1228 0.930 . S
C1214 H1202 0.930 . S
C1214 C1215 1.399 . S
C1214 C1219 1.399 . S
C1215 C1214 1.399 . S
C1215 C1216 1.376 . S
C1216 H1203 0.930 . S
C1216 C1215 1.376 . S
C1216 C1217 1.388 . S
C1217 H1204 0.930 . S
C1217 C1216 1.388 . S
C1217 C1218 1.390 . S
C1218 C1217 1.390 . S
C1218 C1219 1.394 . S
C1218 C1224 1.465 . S
C1219 C1214 1.399 . S
C1219 C1218 1.394 . S
C1219 C1220 1.516 . S
C1220 C1219 1.516 . S
C1220 C1221 1.502 . S
C1220 C1222 1.561 . S
C1220 C1223 1.526 . S
C1221 H1205 0.959 . S
C1221 H1206 0.959 . S
C1221 H1207 0.961 . S
C1221 C1220 1.502 . S
C1222 H1208 0.960 . S
C1222 H1209 0.961 . S
C1222 H1210 0.959 . S
C1222 C1220 1.561 . S
C1223 C1220 1.526 . S
C1223 C1224 1.396 . S
C1223 C1228 1.390 . S
C1224 C1218 1.465 . S
C1224 C1223 1.396 . S
C1224 C1225 1.399 . S
C1225 H1211 0.929 . S
C1225 C1224 1.399 . S
C1225 C1226 1.385 . S
C1226 H1212 0.931 . S
C1226 C1225 1.385 . S
C1226 C1227 1.389 . S
C1227 C1226 1.389 . S
C1227 C1228 1.387 . S
C1228 H1213 0.930 . S
C1228 C1223 1.390 . S
C1228 C1227 1.387 . S
H1229 C1241 0.930 . S
H1230 C1243 0.930 . S
H1231 C1244 0.930 . S
H1232 C1248 0.959 . S
H1233 C1248 0.959 . S
H1234 C1248 0.961 . S
H1235 C1249 0.960 . S
H1236 C1249 0.961 . S
H1237 C1249 0.959 . S
H1238 C1252 0.929 . S
H1239 C1253 0.931 . S
H1240 C1255 0.930 . S
C1241 H1229 0.930 . S
C1241 C1242 1.399 . S
C1241 C1246 1.399 . S
C1242 C1241 1.399 . S
C1242 C1243 1.376 . S
C1243 H1230 0.930 . S
C1243 C1242 1.376 . S
C1243 C1244 1.388 . S
C1244 H1231 0.930 . S
C1244 C1243 1.388 . S
C1244 C1245 1.390 . S
C1245 C1244 1.390 . S
C1245 C1246 1.394 . S
C1245 C1251 1.465 . S
C1246 C1241 1.399 . S
C1246 C1245 1.394 . S
C1246 C1247 1.516 . S
C1247 C1246 1.516 . S
C1247 C1248 1.502 . S
C1247 C1249 1.561 . S
C1247 C1250 1.526 . S
C1248 H1232 0.959 . S
C1248 H1233 0.959 . S
C1248 H1234 0.961 . S
C1248 C1247 1.502 . S
C1249 H1235 0.960 . S
C1249 H1236 0.961 . S
C1249 H1237 0.959 . S
C1249 C1247 1.561 . S
C1250 C1247 1.526 . S
C1250 C1251 1.396 . S
C1250 C1255 1.390 . S
C1251 C1245 1.465 . S
C1251 C1250 1.396 . S
C1251 C1252 1.399 . S
C1252 H1238 0.929 . S
C1252 C1251 1.399 . S
C1252 C1253 1.385 . S
C1253 H1239 0.931 . S
C1253 C1252 1.385 . S
C1253 C1254 1.389 . S
C1254 C1253 1.389 . S
C1254 C1255 1.387 . S
C1255 H1240 0.930 . S
C1255 C1250 1.390 . S
C1255 C1254 1.387 . S
H1256 C1268 0.930 . S
H1257 C1270 0.930 . S
H1258 C1271 0.930 . S
H1259 C1275 0.959 . S
H1260 C1275 0.959 . S
H1261 C1275 0.961 . S
H1262 C1276 0.960 . S
H1263 C1276 0.961 . S
H1264 C1276 0.959 . S
H1265 C1279 0.929 . S
H1266 C1280 0.931 . S
H1267 C1282 0.930 . S
C1268 H1256 0.930 . S
C1268 C1269 1.399 . S
C1268 C1273 1.399 . S
C1269 C1268 1.399 . S
C1269 C1270 1.376 . S
C1270 H1257 0.930 . S
C1270 C1269 1.376 . S
C1270 C1271 1.388 . S
C1271 H1258 0.930 . S
C1271 C1270 1.388 . S
C1271 C1272 1.390 . S
C1272 C1271 1.390 . S
C1272 C1273 1.394 . S
C1272 C1278 1.465 . S
C1273 C1268 1.399 . S
C1273 C1272 1.394 . S
C1273 C1274 1.516 . S
C1274 C1273 1.516 . S
C1274 C1275 1.502 . S
C1274 C1276 1.561 . S
C1274 C1277 1.526 . S
C1275 H1259 0.959 . S
C1275 H1260 0.959 . S
C1275 H1261 0.961 . S
C1275 C1274 1.502 . S
C1276 H1262 0.960 . S
C1276 H1263 0.961 . S
C1276 H1264 0.959 . S
C1276 C1274 1.561 . S
C1277 C1274 1.526 . S
C1277 C1278 1.396 . S
C1277 C1282 1.390 . S
C1278 C1272 1.465 . S
C1278 C1277 1.396 . S
C1278 C1279 1.399 . S
C1279 H1265 0.929 . S
C1279 C1278 1.399 . S
C1279 C1280 1.385 . S
C1280 H1266 0.931 . S
C1280 C1279 1.385 . S
C1280 C1281 1.389 . S
C1281 C1280 1.389 . S
C1281 C1282 1.387 . S
C1282 H1267 0.930 . S
C1282 C1277 1.390 . S
C1282 C1281 1.387 . S
H1283 C1295 0.930 . S
H1284 C1297 0.930 . S
H1285 C1298 0.930 . S
H1286 C1302 0.959 . S
H1287 C1302 0.959 . S
H1288 C1302 0.961 . S
H1289 C1303 0.960 . S
H1290 C1303 0.961 . S
H1291 C1303 0.959 . S
H1292 C1306 0.929 . S
H1293 C1307 0.931 . S
H1294 C1309 0.930 . S
C1295 H1283 0.930 . S
C1295 C1296 1.399 . S
C1295 C1300 1.399 . S
C1296 C1295 1.399 . S
C1296 C1297 1.376 . S
C1297 H1284 0.930 . S
C1297 C1296 1.376 . S
C1297 C1298 1.388 . S
C1298 H1285 0.930 . S
C1298 C1297 1.388 . S
C1298 C1299 1.390 . S
C1299 C1298 1.390 . S
C1299 C1300 1.394 . S
C1299 C1305 1.465 . S
C1300 C1295 1.399 . S
C1300 C1299 1.394 . S
C1300 C1301 1.516 . S
C1301 C1300 1.516 . S
C1301 C1302 1.502 . S
C1301 C1303 1.561 . S
C1301 C1304 1.526 . S
C1302 H1286 0.959 . S
C1302 H1287 0.959 . S
C1302 H1288 0.961 . S
C1302 C1301 1.502 . S
C1303 H1289 0.960 . S
C1303 H1290 0.961 . S
C1303 H1291 0.959 . S
C1303 C1301 1.561 . S
C1304 C1301 1.526 . S
C1304 C1305 1.396 . S
C1304 C1309 1.390 . S
C1305 C1299 1.465 . S
C1305 C1304 1.396 . S
C1305 C1306 1.399 . S
C1306 H1292 0.929 . S
C1306 C1305 1.399 . S
C1306 C1307 1.385 . S
C1307 H1293 0.931 . S
C1307 C1306 1.385 . S
C1307 C1308 1.389 . S
C1308 C1307 1.389 . S
C1308 C1309 1.387 . S
C1309 H1294 0.930 . S
C1309 C1304 1.390 . S
C1309 C1308 1.387 . S
H1310 C1322 0.930 . S
H1311 C1324 0.930 . S
H1312 C1325 0.930 . S
H1313 C1329 0.959 . S
H1314 C1329 0.959 . S
H1315 C1329 0.961 . S
H1316 C1330 0.960 . S
H1317 C1330 0.961 . S
H1318 C1330 0.959 . S
H1319 C1333 0.929 . S
H1320 C1334 0.931 . S
H1321 C1336 0.930 . S
C1322 H1310 0.930 . S
C1322 C1323 1.399 . S
C1322 C1327 1.399 . S
C1323 C1322 1.399 . S
C1323 C1324 1.376 . S
C1324 H1311 0.930 . S
C1324 C1323 1.376 . S
C1324 C1325 1.388 . S
C1325 H1312 0.930 . S
C1325 C1324 1.388 . S
C1325 C1326 1.390 . S
C1326 C1325 1.390 . S
C1326 C1327 1.394 . S
C1326 C1332 1.465 . S
C1327 C1322 1.399 . S
C1327 C1326 1.394 . S
C1327 C1328 1.516 . S
C1328 C1327 1.516 . S
C1328 C1329 1.502 . S
C1328 C1330 1.561 . S
C1328 C1331 1.526 . S
C1329 H1313 0.959 . S
C1329 H1314 0.959 . S
C1329 H1315 0.961 . S
C1329 C1328 1.502 . S
C1330 H1316 0.960 . S
C1330 H1317 0.961 . S
C1330 H1318 0.959 . S
C1330 C1328 1.561 . S
C1331 C1328 1.526 . S
C1331 C1332 1.396 . S
C1331 C1336 1.390 . S
C1332 C1326 1.465 . S
C1332 C1331 1.396 . S
C1332 C1333 1.399 . S
C1333 H1319 0.929 . S
C1333 C1332 1.399 . S
C1333 C1334 1.385 . S
C1334 H1320 0.931 . S
C1334 C1333 1.385 . S
C1334 C1335 1.389 . S
C1335 C1334 1.389 . S
C1335 C1336 1.387 . S
C1336 H1321 0.930 . S
C1336 C1331 1.390 . S
C1336 C1335 1.387 . S
H1337 C1349 0.930 . S
H1338 C1351 0.930 . S
H1339 C1352 0.930 . S
H1340 C1356 0.959 . S
H1341 C1356 0.959 . S
H1342 C1356 0.961 . S
H1343 C1357 0.960 . S
H1344 C1357 0.961 . S
H1345 C1357 0.959 . S
H1346 C1360 0.929 . S
H1347 C1361 0.931 . S
H1348 C1363 0.930 . S
C1349 H1337 0.930 . S
C1349 C1350 1.399 . S
C1349 C1354 1.399 . S
C1350 C1349 1.399 . S
C1350 C1351 1.376 . S
C1351 H1338 0.930 . S
C1351 C1350 1.376 . S
C1351 C1352 1.388 . S
C1352 H1339 0.930 . S
C1352 C1351 1.388 . S
C1352 C1353 1.390 . S
C1353 C1352 1.390 . S
C1353 C1354 1.394 . S
C1353 C1359 1.465 . S
C1354 C1349 1.399 . S
C1354 C1353 1.394 . S
C1354 C1355 1.516 . S
C1355 C1354 1.516 . S
C1355 C1356 1.502 . S
C1355 C1357 1.561 . S
C1355 C1358 1.526 . S
C1356 H1340 0.959 . S
C1356 H1341 0.959 . S
C1356 H1342 0.961 . S
C1356 C1355 1.502 . S
C1357 H1343 0.960 . S
C1357 H1344 0.961 . S
C1357 H1345 0.959 . S
C1357 C1355 1.561 . S
C1358 C1355 1.526 . S
C1358 C1359 1.396 . S
C1358 C1363 1.390 . S
C1359 C1353 1.465 . S
C1359 C1358 1.396 . S
C1359 C1360 1.399 . S
C1360 H1346 0.929 . S
C1360 C1359 1.399 . S
C1360 C1361 1.385 . S
C1361 H1347 0.931 . S
C1361 C1360 1.385 . S
C1361 C1362 1.389 . S
C1362 C1361 1.389 . S
C1362 C1363 1.387 . S
C1363 H1348 0.930 . S
C1363 C1358 1.390 . S
C1363 C1362 1.387 . S
H1364 C1376 0.930 . S
H1365 C1378 0.930 . S
H1366 C1379 0.930 . S
H1367 C1383 0.959 . S
H1368 C1383 0.959 . S
H1369 C1383 0.961 . S
H1370 C1384 0.960 . S
H1371 C1384 0.961 . S
H1372 C1384 0.959 . S
H1373 C1387 0.929 . S
H1374 C1388 0.931 . S
H1375 C1390 0.930 . S
C1376 H1364 0.930 . S
C1376 C1377 1.399 . S
C1376 C1381 1.399 . S
C1377 C1376 1.399 . S
C1377 C1378 1.376 . S
C1378 H1365 0.930 . S
C1378 C1377 1.376 . S
C1378 C1379 1.388 . S
C1379 H1366 0.930 . S
C1379 C1378 1.388 . S
C1379 C1380 1.390 . S
C1380 C1379 1.390 . S
C1380 C1381 1.394 . S
C1380 C1386 1.465 . S
C1381 C1376 1.399 . S
C1381 C1380 1.394 . S
C1381 C1382 1.516 . S
C1382 C1381 1.516 . S
C1382 C1383 1.502 . S
C1382 C1384 1.561 . S
C1382 C1385 1.526 . S
C1383 H1367 0.959 . S
C1383 H1368 0.959 . S
C1383 H1369 0.961 . S
C1383 C1382 1.502 . S
C1384 H1370 0.960 . S
C1384 H1371 0.961 . S
C1384 H1372 0.959 . S
C1384 C1382 1.561 . S
C1385 C1382 1.526 . S
C1385 C1386 1.396 . S
C1385 C1390 1.390 . S
C1386 C1380 1.465 . S
C1386 C1385 1.396 . S
C1386 C1387 1.399 . S
C1387 H1373 0.929 . S
C1387 C1386 1.399 . S
C1387 C1388 1.385 . S
C1388 H1374 0.931 . S
C1388 C1387 1.385 . S
C1388 C1389 1.389 . S
C1389 C1388 1.389 . S
C1389 C1390 1.387 . S
C1390 H1375 0.930 . S
C1390 C1385 1.390 . S
C1390 C1389 1.387 . S
H1391 C1403 0.930 . S
H1392 C1405 0.930 . S
H1393 C1406 0.930 . S
H1394 C1410 0.959 . S
H1395 C1410 0.959 . S
H1396 C1410 0.961 . S
H1397 C1411 0.960 . S
H1398 C1411 0.961 . S
H1399 C1411 0.959 . S
H1400 C1414 0.929 . S
H1401 C1415 0.931 . S
H1402 C1417 0.930 . S
C1403 H1391 0.930 . S
C1403 C1404 1.399 . S
C1403 C1408 1.399 . S
C1404 C1403 1.399 . S
C1404 C1405 1.376 . S
C1405 H1392 0.930 . S
C1405 C1404 1.376 . S
C1405 C1406 1.388 . S
C1406 H1393 0.930 . S
C1406 C1405 1.388 . S
C1406 C1407 1.390 . S
C1407 C1406 1.390 . S
C1407 C1408 1.394 . S
C1407 C1413 1.465 . S
C1408 C1403 1.399 . S
C1408 C1407 1.394 . S
C1408 C1409 1.516 . S
C1409 C1408 1.516 . S
C1409 C1410 1.502 . S
C1409 C1411 1.561 . S
C1409 C1412 1.526 . S
C1410 H1394 0.959 . S
C1410 H1395 0.959 . S
C1410 H1396 0.961 . S
C1410 C1409 1.502 . S
C1411 H1397 0.960 . S
C1411 H1398 0.961 . S
C1411 H1399 0.959 . S
C1411 C1409 1.561 . S
C1412 C1409 1.526 . S
C1412 C1413 1.396 . S
C1412 C1417 1.390 . S
C1413 C1407 1.465 . S
C1413 C1412 1.396 . S
C1413 C1414 1.399 . S
C1414 H1400 0.929 . S
C1414 C1413 1.399 . S
C1414 C1415 1.385 . S
C1415 H1401 0.931 . S
C1415 C1414 1.385 . S
C1415 C1416 1.389 . S
C1416 C1415 1.389 . S
C1416 C1417 1.387 . S
C1417 H1402 0.930 . S
C1417 C1412 1.390 . S
C1417 C1416 1.387 . S
H1418 C1430 0.930 . S
H1419 C1432 0.930 . S
H1420 C1433 0.930 . S
H1421 C1437 0.959 . S
H1422 C1437 0.959 . S
H1423 C1437 0.961 . S
H1424 C1438 0.960 . S
H1425 C1438 0.961 . S
H1426 C1438 0.959 . S
H1427 C1441 0.929 . S
H1428 C1442 0.931 . S
H1429 C1444 0.930 . S
C1430 H1418 0.930 . S
C1430 C1431 1.399 . S
C1430 C1435 1.399 . S
C1431 C1430 1.399 . S
C1431 C1432 1.376 . S
C1432 H1419 0.930 . S
C1432 C1431 1.376 . S
C1432 C1433 1.388 . S
C1433 H1420 0.930 . S
C1433 C1432 1.388 . S
C1433 C1434 1.390 . S
C1434 C1433 1.390 . S
C1434 C1435 1.394 . S
C1434 C1440 1.465 . S
C1435 C1430 1.399 . S
C1435 C1434 1.394 . S
C1435 C1436 1.516 . S
C1436 C1435 1.516 . S
C1436 C1437 1.502 . S
C1436 C1438 1.561 . S
C1436 C1439 1.526 . S
C1437 H1421 0.959 . S
C1437 H1422 0.959 . S
C1437 H1423 0.961 . S
C1437 C1436 1.502 . S
C1438 H1424 0.960 . S
C1438 H1425 0.961 . S
C1438 H1426 0.959 . S
C1438 C1436 1.561 . S
C1439 C1436 1.526 . S
C1439 C1440 1.396 . S
C1439 C1444 1.390 . S
C1440 C1434 1.465 . S
C1440 C1439 1.396 . S
C1440 C1441 1.399 . S
C1441 H1427 0.929 . S
C1441 C1440 1.399 . S
C1441 C1442 1.385 . S
C1442 H1428 0.931 . S
C1442 C1441 1.385 . S
C1442 C1443 1.389 . S
C1443 C1442 1.389 . S
C1443 C1444 1.387 . S
C1444 H1429 0.930 . S
C1444 C1439 1.390 . S
C1444 C1443 1.387 . S
H1445 C1457 0.930 . S
H1446 C1459 0.930 . S
H1447 C1460 0.930 . S
H1448 C1464 0.959 . S
H1449 C1464 0.959 . S
H1450 C1464 0.961 . S
H1451 C1465 0.960 . S
H1452 C1465 0.961 . S
H1453 C1465 0.959 . S
H1454 C1468 0.929 . S
H1455 C1469 0.931 . S
H1456 C1471 0.930 . S
C1457 H1445 0.930 . S
C1457 C1458 1.399 . S
C1457 C1462 1.399 . S
C1458 C1457 1.399 . S
C1458 C1459 1.376 . S
C1459 H1446 0.930 . S
C1459 C1458 1.376 . S
C1459 C1460 1.388 . S
C1460 H1447 0.930 . S
C1460 C1459 1.388 . S
C1460 C1461 1.390 . S
C1461 C1460 1.390 . S
C1461 C1462 1.394 . S
C1461 C1467 1.465 . S
C1462 C1457 1.399 . S
C1462 C1461 1.394 . S
C1462 C1463 1.516 . S
C1463 C1462 1.516 . S
C1463 C1464 1.502 . S
C1463 C1465 1.561 . S
C1463 C1466 1.526 . S
C1464 H1448 0.959 . S
C1464 H1449 0.959 . S
C1464 H1450 0.961 . S
C1464 C1463 1.502 . S
C1465 H1451 0.960 . S
C1465 H1452 0.961 . S
C1465 H1453 0.959 . S
C1465 C1463 1.561 . S
C1466 C1463 1.526 . S
C1466 C1467 1.396 . S
C1466 C1471 1.390 . S
C1467 C1461 1.465 . S
C1467 C1466 1.396 . S
C1467 C1468 1.399 . S
C1468 H1454 0.929 . S
C1468 C1467 1.399 . S
C1468 C1469 1.385 . S
C1469 H1455 0.931 . S
C1469 C1468 1.385 . S
C1469 C1470 1.389 . S
C1470 C1469 1.389 . S
C1470 C1471 1.387 . S
C1471 H1456 0.930 . S
C1471 C1466 1.390 . S
C1471 C1470 1.387 . S
C633 C213 1.525 . S
C621 C16 1.514 . S
C660 C266 1.332 . S
C648 C30 1.343 . S
C687 C329 1.603 . S
C675 C53 1.583 . S
C714 C372 1.310 . S
C702 C76 1.345 . S
C729 N104 1.468 . S
C741 C328 1.492 . S
C768 C365 1.317 . S
C756 N127 1.263 . S
C795 C206 1.423 . S
C783 N140 1.420 . S
C822 C259 1.183 . S
C810 N173 1.119 . S
C849 C312 1.505 . S
C837 C168 1.507 . S
C876 C381 1.858 . S
C864 C99 1.862 . S
C903 C222 1.591 . S
C891 C122 1.598 . S
C930 C275 1.736 . S
C918 C154 1.745 . S
C957 C223 1.503 . S
C945 N35 1.503 . S
C984 C276 1.728 . S
C972 N58 1.702 . S
C1011 C319 1.437 . S
C999 N81 1.373 . S
C1038 C382 1.693 . S
C1026 N2 1.637 . S
C1065 C425 1.479 . S
C1053 C177 1.473 . S
C1080 C108 1.733 . S
C1092 C478 1.722 . S
C1107 C131 1.617 . S
C1119 C540 1.633 . S
C1134 C145 1.720 . S
C1146 C594 1.728 . S
C1161 N25 1.437 . S
C1173 C541 1.484 . S
C1188 N48 1.646 . S
C1200 C593 1.721 . S
C1215 N71 1.415 . S
C1227 C418 1.448 . S
C1254 C471 1.559 . S
C1242 N12 1.544 . S
C1281 C531 1.479 . S
C1269 C7 1.476 . S
C1296 C39 1.358 . S
C1308 C577 1.393 . S
C1323 C62 1.615 . S
C1335 C434 1.625 . S
C1350 C85 1.332 . S
C1362 C487 1.338 . S
C1389 C435 1.476 . S
C1377 N94 1.428 . S
C1416 C488 1.362 . S
C1404 N117 1.358 . S
C1431 N150 1.456 . S
C1443 C524 1.455 . S
C1470 C584 1.240 . S
C1458 N163 1.200 . S
