# Generated by pormake.
# Topology cor, (4,6)-cn, num edge types: 1
# Building blocks:
#     Node 0, Type 0, BuildingBlock: NAHDIM_clean_sbu_0, # of connection points: 4
#     Node 1, Type 0, BuildingBlock: NAHDIM_clean_sbu_0, # of connection points: 4
#     Node 2, Type 0, BuildingBlock: NAHDIM_clean_sbu_0, # of connection points: 4
#     Node 3, Type 0, BuildingBlock: NAHDIM_clean_sbu_0, # of connection points: 4
#     Node 4, Type 0, BuildingBlock: NAHDIM_clean_sbu_0, # of connection points: 4
#     Node 5, Type 0, BuildingBlock: NAHDIM_clean_sbu_0, # of connection points: 4
#     Node 6, Type 0, BuildingBlock: NAHDIM_clean_sbu_0, # of connection points: 4
#     Node 7, Type 0, BuildingBlock: NAHDIM_clean_sbu_0, # of connection points: 4
#     Node 8, Type 0, BuildingBlock: NAHDIM_clean_sbu_0, # of connection points: 4
#     Node 9, Type 0, BuildingBlock: NAHDIM_clean_sbu_0, # of connection points: 4
#     Node 10, Type 0, BuildingBlock: NAHDIM_clean_sbu_0, # of connection points: 4
#     Node 11, Type 0, BuildingBlock: NAHDIM_clean_sbu_0, # of connection points: 4
#     Node 12, Type 0, BuildingBlock: NAHDIM_clean_sbu_0, # of connection points: 4
#     Node 13, Type 0, BuildingBlock: NAHDIM_clean_sbu_0, # of connection points: 4
#     Node 14, Type 0, BuildingBlock: NAHDIM_clean_sbu_0, # of connection points: 4
#     Node 15, Type 0, BuildingBlock: NAHDIM_clean_sbu_0, # of connection points: 4
#     Node 16, Type 0, BuildingBlock: NAHDIM_clean_sbu_0, # of connection points: 4
#     Node 17, Type 0, BuildingBlock: NAHDIM_clean_sbu_0, # of connection points: 4
#     Node 18, Type 1, BuildingBlock: MIDCAF_clean_sbu_0, # of connection points: 6
#     Node 19, Type 1, BuildingBlock: MIDCAF_clean_sbu_0, # of connection points: 6
#     Node 20, Type 1, BuildingBlock: MIDCAF_clean_sbu_0, # of connection points: 6
#     Node 21, Type 1, BuildingBlock: MIDCAF_clean_sbu_0, # of connection points: 6
#     Node 22, Type 1, BuildingBlock: MIDCAF_clean_sbu_0, # of connection points: 6
#     Node 23, Type 1, BuildingBlock: MIDCAF_clean_sbu_0, # of connection points: 6
#     Node 24, Type 1, BuildingBlock: MIDCAF_clean_sbu_0, # of connection points: 6
#     Node 25, Type 1, BuildingBlock: MIDCAF_clean_sbu_0, # of connection points: 6
#     Node 26, Type 1, BuildingBlock: MIDCAF_clean_sbu_0, # of connection points: 6
#     Node 27, Type 1, BuildingBlock: MIDCAF_clean_sbu_0, # of connection points: 6
#     Node 28, Type 1, BuildingBlock: MIDCAF_clean_sbu_0, # of connection points: 6
#     Node 29, Type 1, BuildingBlock: MIDCAF_clean_sbu_0, # of connection points: 6
#     Edge 30, Type (0, 1), BuildingBlock: ZUJKAS_clean_linker_0, # of connection points: 2
#     Edge 31, Type (0, 1), BuildingBlock: ZUJKAS_clean_linker_0, # of connection points: 2
#     Edge 32, Type (0, 1), BuildingBlock: ZUJKAS_clean_linker_0, # of connection points: 2
#     Edge 33, Type (0, 1), BuildingBlock: ZUJKAS_clean_linker_0, # of connection points: 2
#     Edge 34, Type (0, 1), BuildingBlock: ZUJKAS_clean_linker_0, # of connection points: 2
#     Edge 35, Type (0, 1), BuildingBlock: ZUJKAS_clean_linker_0, # of connection points: 2
#     Edge 36, Type (0, 1), BuildingBlock: ZUJKAS_clean_linker_0, # of connection points: 2
#     Edge 37, Type (0, 1), BuildingBlock: ZUJKAS_clean_linker_0, # of connection points: 2
#     Edge 38, Type (0, 1), BuildingBlock: ZUJKAS_clean_linker_0, # of connection points: 2
#     Edge 39, Type (0, 1), BuildingBlock: ZUJKAS_clean_linker_0, # of connection points: 2
#     Edge 40, Type (0, 1), BuildingBlock: ZUJKAS_clean_linker_0, # of connection points: 2
#     Edge 41, Type (0, 1), BuildingBlock: ZUJKAS_clean_linker_0, # of connection points: 2
#     Edge 42, Type (0, 1), BuildingBlock: ZUJKAS_clean_linker_0, # of connection points: 2
#     Edge 43, Type (0, 1), BuildingBlock: ZUJKAS_clean_linker_0, # of connection points: 2
#     Edge 44, Type (0, 1), BuildingBlock: ZUJKAS_clean_linker_0, # of connection points: 2
#     Edge 45, Type (0, 1), BuildingBlock: ZUJKAS_clean_linker_0, # of connection points: 2
#     Edge 46, Type (0, 1), BuildingBlock: ZUJKAS_clean_linker_0, # of connection points: 2
#     Edge 47, Type (0, 1), BuildingBlock: ZUJKAS_clean_linker_0, # of connection points: 2
#     Edge 48, Type (0, 1), BuildingBlock: ZUJKAS_clean_linker_0, # of connection points: 2
#     Edge 49, Type (0, 1), BuildingBlock: ZUJKAS_clean_linker_0, # of connection points: 2
#     Edge 50, Type (0, 1), BuildingBlock: ZUJKAS_clean_linker_0, # of connection points: 2
#     Edge 51, Type (0, 1), BuildingBlock: ZUJKAS_clean_linker_0, # of connection points: 2
#     Edge 52, Type (0, 1), BuildingBlock: ZUJKAS_clean_linker_0, # of connection points: 2
#     Edge 53, Type (0, 1), BuildingBlock: ZUJKAS_clean_linker_0, # of connection points: 2
#     Edge 54, Type (0, 1), BuildingBlock: ZUJKAS_clean_linker_0, # of connection points: 2
#     Edge 55, Type (0, 1), BuildingBlock: ZUJKAS_clean_linker_0, # of connection points: 2
#     Edge 56, Type (0, 1), BuildingBlock: ZUJKAS_clean_linker_0, # of connection points: 2
#     Edge 57, Type (0, 1), BuildingBlock: ZUJKAS_clean_linker_0, # of connection points: 2
#     Edge 58, Type (0, 1), BuildingBlock: ZUJKAS_clean_linker_0, # of connection points: 2
#     Edge 59, Type (0, 1), BuildingBlock: ZUJKAS_clean_linker_0, # of connection points: 2
#     Edge 60, Type (0, 1), BuildingBlock: ZUJKAS_clean_linker_0, # of connection points: 2
#     Edge 61, Type (0, 1), BuildingBlock: ZUJKAS_clean_linker_0, # of connection points: 2
#     Edge 62, Type (0, 1), BuildingBlock: ZUJKAS_clean_linker_0, # of connection points: 2
#     Edge 63, Type (0, 1), BuildingBlock: ZUJKAS_clean_linker_0, # of connection points: 2
#     Edge 64, Type (0, 1), BuildingBlock: ZUJKAS_clean_linker_0, # of connection points: 2
#     Edge 65, Type (0, 1), BuildingBlock: ZUJKAS_clean_linker_0, # of connection points: 2
#     Edge 66, Type (0, 1), BuildingBlock: ZUJKAS_clean_linker_0, # of connection points: 2
#     Edge 67, Type (0, 1), BuildingBlock: ZUJKAS_clean_linker_0, # of connection points: 2
#     Edge 68, Type (0, 1), BuildingBlock: ZUJKAS_clean_linker_0, # of connection points: 2
#     Edge 69, Type (0, 1), BuildingBlock: ZUJKAS_clean_linker_0, # of connection points: 2
#     Edge 70, Type (0, 1), BuildingBlock: ZUJKAS_clean_linker_0, # of connection points: 2
#     Edge 71, Type (0, 1), BuildingBlock: ZUJKAS_clean_linker_0, # of connection points: 2
#     Edge 72, Type (0, 1), BuildingBlock: ZUJKAS_clean_linker_0, # of connection points: 2
#     Edge 73, Type (0, 1), BuildingBlock: ZUJKAS_clean_linker_0, # of connection points: 2
#     Edge 74, Type (0, 1), BuildingBlock: ZUJKAS_clean_linker_0, # of connection points: 2
#     Edge 75, Type (0, 1), BuildingBlock: ZUJKAS_clean_linker_0, # of connection points: 2
#     Edge 76, Type (0, 1), BuildingBlock: ZUJKAS_clean_linker_0, # of connection points: 2
#     Edge 77, Type (0, 1), BuildingBlock: ZUJKAS_clean_linker_0, # of connection points: 2
#     Edge 78, Type (0, 1), BuildingBlock: ZUJKAS_clean_linker_0, # of connection points: 2
#     Edge 79, Type (0, 1), BuildingBlock: ZUJKAS_clean_linker_0, # of connection points: 2
#     Edge 80, Type (0, 1), BuildingBlock: ZUJKAS_clean_linker_0, # of connection points: 2
#     Edge 81, Type (0, 1), BuildingBlock: ZUJKAS_clean_linker_0, # of connection points: 2
#     Edge 82, Type (0, 1), BuildingBlock: ZUJKAS_clean_linker_0, # of connection points: 2
#     Edge 83, Type (0, 1), BuildingBlock: ZUJKAS_clean_linker_0, # of connection points: 2
#     Edge 84, Type (0, 1), BuildingBlock: ZUJKAS_clean_linker_0, # of connection points: 2
#     Edge 85, Type (0, 1), BuildingBlock: ZUJKAS_clean_linker_0, # of connection points: 2
#     Edge 86, Type (0, 1), BuildingBlock: ZUJKAS_clean_linker_0, # of connection points: 2
#     Edge 87, Type (0, 1), BuildingBlock: ZUJKAS_clean_linker_0, # of connection points: 2
#     Edge 88, Type (0, 1), BuildingBlock: ZUJKAS_clean_linker_0, # of connection points: 2
#     Edge 89, Type (0, 1), BuildingBlock: ZUJKAS_clean_linker_0, # of connection points: 2
#     Edge 90, Type (0, 1), BuildingBlock: ZUJKAS_clean_linker_0, # of connection points: 2
#     Edge 91, Type (0, 1), BuildingBlock: ZUJKAS_clean_linker_0, # of connection points: 2
#     Edge 92, Type (0, 1), BuildingBlock: ZUJKAS_clean_linker_0, # of connection points: 2
#     Edge 93, Type (0, 1), BuildingBlock: ZUJKAS_clean_linker_0, # of connection points: 2
#     Edge 94, Type (0, 1), BuildingBlock: ZUJKAS_clean_linker_0, # of connection points: 2
#     Edge 95, Type (0, 1), BuildingBlock: ZUJKAS_clean_linker_0, # of connection points: 2
#     Edge 96, Type (0, 1), BuildingBlock: ZUJKAS_clean_linker_0, # of connection points: 2
#     Edge 97, Type (0, 1), BuildingBlock: ZUJKAS_clean_linker_0, # of connection points: 2
#     Edge 98, Type (0, 1), BuildingBlock: ZUJKAS_clean_linker_0, # of connection points: 2
#     Edge 99, Type (0, 1), BuildingBlock: ZUJKAS_clean_linker_0, # of connection points: 2
#     Edge 100, Type (0, 1), BuildingBlock: ZUJKAS_clean_linker_0, # of connection points: 2
#     Edge 101, Type (0, 1), BuildingBlock: ZUJKAS_clean_linker_0, # of connection points: 2
# Relax obj value: 0.160
# Max RMSD: 0.188
# Mean RMSD: 0.174
data_MOF--net-cor--node1-NAHDIM_clean_sbu_0--node2-MIDCAF_clean_sbu_0--edge1-ZUJKAS_clean_linker_0
_symmetry_space_group_name_H-M    P1
_symmetry_Int_Tables_number       1
_symmetry_cell_setting            triclinic
loop_
_symmetry_equiv_pos_as_xyz
'x, y, z'
_cell_length_a     49.973624
_cell_length_b     49.547343
_cell_length_c     127.50951
_cell_angle_alpha  91.280008
_cell_angle_beta   89.377983
_cell_angle_gamma 121.03543
loop_
_atom_site_label
_atom_site_type_symbol
_atom_site_fract_x
_atom_site_fract_y
_atom_site_fract_z
_atom_type_partial_charge
C0 C 0.72896 0.06403 0.24046 0.0
O1 O 0.71438 0.03649 0.23558 0.0
O2 O 0.70093 0.99251 0.25612 0.0
Zn3 Zn 0.74427 0.02751 0.25228 0.0
O4 O 0.76139 0.01927 0.23899 0.0
C5 C 0.76584 0.00793 0.26917 0.0
O6 O 0.74457 0.98088 0.26497 0.0
O7 O 0.74341 0.06669 0.24895 0.0
C8 C 0.76674 0.99785 0.23603 0.0
O9 O 0.76046 0.97469 0.24233 0.0
C10 C 0.68478 0.96571 0.25162 0.0
O11 O 0.69484 0.95973 0.24282 0.0
O12 O 0.77166 0.03331 0.26482 0.0
C13 C 0.07103 0.73969 0.26129 0.0
O14 O 0.04533 0.72702 0.26692 0.0
O15 O 0.99649 0.7103 0.24574 0.0
Zn16 Zn 0.03271 0.75328 0.24945 0.0
O17 O 0.02334 0.76957 0.26275 0.0
C18 C 0.03581 0.76832 0.22794 0.0
O19 O 0.0327 0.74036 0.22704 0.0
O20 O 0.07143 0.75198 0.25259 0.0
C21 C 0.03161 0.79827 0.26421 0.0
O22 O 0.04448 0.81801 0.25646 0.0
C23 C 0.97081 0.70871 0.24379 0.0
O24 O 0.96898 0.73408 0.24514 0.0
O25 O 0.03831 0.78038 0.23706 0.0
C26 C 0.35759 0.31008 0.25496 0.0
O27 O 0.3624 0.33809 0.25749 0.0
O28 O 0.29888 0.33167 0.25986 0.0
Zn29 Zn 0.29066 0.28821 0.25633 0.0
O30 O 0.26876 0.2733 0.24238 0.0
C31 C 0.27533 0.27268 0.2775 0.0
O32 O 0.30167 0.29986 0.27835 0.0
O33 O 0.32984 0.28666 0.25454 0.0
C34 C 0.24194 0.24905 0.24086 0.0
O35 O 0.22546 0.23281 0.24896 0.0
C36 C 0.27462 0.33291 0.262 0.0
O37 O 0.24708 0.30711 0.26097 0.0
O38 O 0.26532 0.26096 0.26838 0.0
C39 C 0.29463 0.98368 0.76793 0.0
O40 O 0.30438 0.00795 0.77441 0.0
O41 O 0.33107 0.06006 0.75145 0.0
Zn42 Zn 0.28708 0.02563 0.75501 0.0
O43 O 0.27024 0.03768 0.76772 0.0
C44 C 0.26725 0.04328 0.73685 0.0
O45 O 0.28827 0.0712 0.74055 0.0
O46 O 0.28632 0.98561 0.75871 0.0
C47 C 0.25867 0.05531 0.76809 0.0
O48 O 0.25661 0.06809 0.75946 0.0
C49 C 0.34415 0.08778 0.75539 0.0
O50 O 0.33006 0.09402 0.76298 0.0
O51 O 0.2614 0.01892 0.74189 0.0
C52 C 0.955 0.28967 0.74535 0.0
O53 O 0.98105 0.30355 0.73991 0.0
O54 O 0.0275 0.31405 0.76201 0.0
Zn55 Zn 0.99187 0.27228 0.75659 0.0
O56 O 0.00303 0.26071 0.74262 0.0
C57 C 0.99075 0.24492 0.77662 0.0
O58 O 0.00606 0.27457 0.77976 0.0
O59 O 0.95391 0.2752 0.75361 0.0
C60 C 0.00684 0.23747 0.74115 0.0
O61 O 0.00592 0.22103 0.74923 0.0
C62 C 0.05444 0.31781 0.76328 0.0
O63 O 0.05891 0.29463 0.76065 0.0
O64 O 0.98156 0.23815 0.76715 0.0
C65 C 0.68261 0.73759 0.76244 0.0
O66 O 0.69868 0.72942 0.76829 0.0
O67 O 0.73187 0.71207 0.74678 0.0
Zn68 Zn 0.73453 0.75365 0.74939 0.0
O69 O 0.76355 0.77648 0.76155 0.0
C70 C 0.74185 0.76383 0.72732 0.0
O71 O 0.71842 0.73452 0.72721 0.0
O72 O 0.69266 0.74793 0.75331 0.0
C73 C 0.76507 0.80115 0.76538 0.0
O74 O 0.74906 0.81206 0.76092 0.0
C75 C 0.75705 0.7136 0.74388 0.0
O76 O 0.78277 0.74138 0.74344 0.0
O77 O 0.75194 0.77817 0.73611 0.0
C78 C 0.38982 0.39624 0.57698 0.0
O79 O 0.37698 0.36973 0.57148 0.0
O80 O 0.3604 0.32242 0.59228 0.0
Zn81 Zn 0.40363 0.35835 0.58879 0.0
O82 O 0.42153 0.35106 0.5755 0.0
C83 C 0.4251 0.33962 0.6061 0.0
O84 O 0.40371 0.31212 0.60222 0.0
O85 O 0.40231 0.39747 0.58576 0.0
C86 C 0.43183 0.33293 0.57332 0.0
O87 O 0.43098 0.3138 0.58047 0.0
C88 C 0.34668 0.29517 0.58797 0.0
O89 O 0.35947 0.28973 0.57977 0.0
O90 O 0.4308 0.36447 0.60141 0.0
C91 C 0.73443 0.07308 0.59691 0.0
O92 O 0.709 0.06376 0.6025 0.0
O93 O 0.66185 0.04792 0.5805 0.0
Zn94 Zn 0.69982 0.0897 0.58443 0.0
O95 O 0.69412 0.11063 0.59738 0.0
C96 C 0.68387 0.11714 0.56882 0.0
O97 O 0.65903 0.10425 0.57486 0.0
O98 O 0.73618 0.08449 0.58791 0.0
C99 C 0.66982 0.10844 0.6015 0.0
O100 O 0.64265 0.09124 0.59685 0.0
C101 C 0.63913 0.02751 0.58587 0.0
O102 O 0.63887 0.03141 0.59609 0.0
O103 O 0.70762 0.11596 0.57158 0.0
C104 C 0.00867 0.63565 0.57498 0.0
O105 O 0.99566 0.6486 0.56982 0.0
O106 O 0.95637 0.65661 0.58947 0.0
Zn107 Zn 0.9535 0.61502 0.58676 0.0
O108 O 0.92607 0.59147 0.5743 0.0
C109 C 0.9462 0.60406 0.60875 0.0
O110 O 0.96992 0.63322 0.60892 0.0
O111 O 0.99562 0.62084 0.58331 0.0
C112 C 0.92147 0.60467 0.56666 0.0
O113 O 0.93249 0.63514 0.56716 0.0
C114 C 0.93179 0.65588 0.59264 0.0
O115 O 0.90552 0.62859 0.59309 0.0
O116 O 0.93563 0.59014 0.59994 0.0
C117 C 0.97256 0.30746 0.09655 0.0
O118 O 0.98181 0.33201 0.10286 0.0
O119 O 0.00136 0.38408 0.0821 0.0
Zn120 Zn 0.95871 0.34581 0.0847 0.0
O121 O 0.93675 0.34939 0.09765 0.0
C122 C 0.93569 0.36332 0.06747 0.0
O123 O 0.9528 0.39077 0.07223 0.0
O124 O 0.96256 0.30801 0.08746 0.0
C125 C 0.92328 0.36487 0.09942 0.0
O126 O 0.92334 0.38334 0.09218 0.0
C127 C 0.01145 0.41157 0.08594 0.0
O128 O 0.99469 0.41597 0.09301 0.0
O129 O 0.93346 0.33898 0.07151 0.0
C130 C 0.63697 0.63383 0.0744 0.0
O131 O 0.66235 0.64815 0.06864 0.0
O132 O 0.71253 0.66205 0.09006 0.0
Zn133 Zn 0.67699 0.61983 0.08517 0.0
O134 O 0.68715 0.60754 0.07119 0.0
C135 C 0.67223 0.59734 0.10587 0.0
O136 O 0.67444 0.62446 0.10807 0.0
O137 O 0.63756 0.62053 0.08274 0.0
C138 C 0.69336 0.58593 0.0697 0.0
O139 O 0.69542 0.57119 0.07781 0.0
C140 C 0.73758 0.66298 0.09253 0.0
O141 O 0.73925 0.63755 0.09108 0.0
O142 O 0.6711 0.58891 0.09631 0.0
C143 C 0.3564 0.06185 0.09769 0.0
O144 O 0.37275 0.05391 0.10349 0.0
O145 O 0.40463 0.03596 0.08115 0.0
Zn146 Zn 0.4078 0.07748 0.08461 0.0
O147 O 0.43552 0.10017 0.0971 0.0
C148 C 0.41726 0.08913 0.06274 0.0
O149 O 0.39591 0.05899 0.06242 0.0
O150 O 0.36591 0.07161 0.08847 0.0
C151 C 0.4613 0.10317 0.09983 0.0
O152 O 0.47413 0.09087 0.0939 0.0
C153 C 0.41147 0.01929 0.08664 0.0
O154 O 0.42038 0.02763 0.09643 0.0
O155 O 0.42543 0.10345 0.0716 0.0
C156 C 0.04349 0.70492 0.91691 0.0
O157 O 0.03372 0.67863 0.91147 0.0
O158 O 0.04111 0.63865 0.92952 0.0
Zn159 Zn 0.07761 0.68118 0.926 0.0
O160 O 0.09859 0.68247 0.91225 0.0
C161 C 0.09429 0.69062 0.94734 0.0
O162 O 0.06515 0.68369 0.94785 0.0
O163 O 0.06264 0.71143 0.92438 0.0
C164 C 0.11103 0.66686 0.90921 0.0
O165 O 0.11098 0.64612 0.91546 0.0
C166 C 0.02883 0.6122 0.92472 0.0
O167 O 0.03927 0.61006 0.91543 0.0
O168 O 0.10664 0.69315 0.93835 0.0
C169 C 0.41649 0.41466 0.92609 0.0
O170 O 0.38969 0.39884 0.93104 0.0
O171 O 0.34511 0.37582 0.91107 0.0
Zn172 Zn 0.37506 0.42183 0.91441 0.0
O173 O 0.36477 0.43692 0.92788 0.0
C174 C 0.34791 0.43607 0.89771 0.0
O175 O 0.32345 0.4116 0.90182 0.0
O176 O 0.41721 0.42741 0.91745 0.0
C177 C 0.3451 0.4451 0.9301 0.0
O178 O 0.32584 0.44346 0.92284 0.0
C179 C 0.31881 0.35877 0.91545 0.0
O180 O 0.31054 0.37062 0.92327 0.0
O181 O 0.37454 0.44648 0.90194 0.0
C182 C 0.67511 0.97636 0.90532 0.0
O183 O 0.65614 0.98284 0.90043 0.0
O184 O 0.62619 0.99459 0.9229 0.0
Zn185 Zn 0.62458 0.95429 0.91901 0.0
O186 O 0.59619 0.93203 0.90666 0.0
C187 C 0.58198 0.92284 0.93496 0.0
O188 O 0.5671 0.93178 0.92884 0.0
O189 O 0.66737 0.9641 0.91434 0.0
C190 C 0.59593 0.90771 0.90313 0.0
O191 O 0.61135 0.89723 0.90824 0.0
C192 C 0.60748 0.00281 0.91972 0.0
O193 O 0.58642 0.98548 0.91259 0.0
O194 O 0.60872 0.92814 0.9321 0.0
C195 C 0.62822 0.62972 0.428 0.0
O196 O 0.64135 0.65549 0.43388 0.0
O197 O 0.66125 0.70563 0.41372 0.0
Zn198 Zn 0.61729 0.67048 0.41668 0.0
O199 O 0.59908 0.67711 0.43005 0.0
C200 C 0.59752 0.69337 0.40021 0.0
O201 O 0.61676 0.71954 0.40533 0.0
O202 O 0.61671 0.63015 0.41919 0.0
C203 C 0.5885 0.6949 0.43241 0.0
O204 O 0.58905 0.71425 0.42543 0.0
C205 C 0.67464 0.73301 0.41792 0.0
O206 O 0.66092 0.73889 0.42573 0.0
O207 O 0.59221 0.66727 0.40379 0.0
C208 C 0.29458 0.96337 0.41206 0.0
O209 O 0.31967 0.97397 0.40619 0.0
O210 O 0.37012 0.98911 0.42668 0.0
Zn211 Zn 0.33113 0.94708 0.4239 0.0
O212 O 0.33684 0.92671 0.41088 0.0
C213 C 0.32877 0.93491 0.44569 0.0
O214 O 0.33411 0.9638 0.44609 0.0
O215 O 0.2941 0.95166 0.42089 0.0
C216 C 0.31291 0.9021 0.40722 0.0
O217 O 0.28669 0.88965 0.41257 0.0
C218 C 0.39426 0.98834 0.42922 0.0
O219 O 0.39276 0.96107 0.42914 0.0
O220 O 0.32462 0.92119 0.43677 0.0
C221 C 0.00914 0.39809 0.42849 0.0
O222 O 0.02074 0.38535 0.43448 0.0
O223 O 0.05387 0.36603 0.41518 0.0
Zn224 Zn 0.06277 0.41028 0.41765 0.0
O225 O 0.087 0.43046 0.43096 0.0
C226 C 0.10504 0.4281 0.40049 0.0
O227 O 0.10866 0.40615 0.40462 0.0
O228 O 0.02261 0.40987 0.41984 0.0
C229 C 0.11589 0.44251 0.43284 0.0
O230 O 0.13427 0.44188 0.42552 0.0
C231 C 0.0671 0.35395 0.42006 0.0
O232 O 0.08544 0.36944 0.42804 0.0
O233 O 0.0865 0.43532 0.40489 0.0
Zn234 Zn 0.01944 0.01485 0.12557 0.0
Zn235 Zn 0.01513 0.01698 0.16658 0.0
Zn236 Zn 0.01725 0.01613 0.14648 0.0
C237 C 0.99027 0.95468 0.1612 0.0
C238 C 0.0774 0.05362 0.16184 0.0
O239 O 0.99217 0.03875 0.14049 0.0
O240 O 0.99564 0.0361 0.12323 0.0
C241 C 0.98849 0.95243 0.13205 0.0
O242 O -0.00193 0.96727 0.15208 0.0
O243 O 0.99334 0.9715 0.16919 0.0
O244 O 0.06001 0.04143 0.16969 0.0
O245 O 0.06563 0.04734 0.15252 0.0
O246 O -0.00233 0.96843 0.12381 0.0
O247 O 0.99421 0.96632 0.14112 0.0
O248 O 0.06695 0.04241 0.14164 0.0
O249 O 0.06554 0.03958 0.1243 0.0
C250 C 0.08109 0.04852 0.13272 0.0
O251 O 0.98643 0.03432 0.15136 0.0
O252 O 0.99148 0.03834 0.16862 0.0
C253 C 0.98663 0.04469 0.13124 0.0
C254 C 0.97988 0.04173 0.16038 0.0
Zn255 Zn 0.01236 0.01874 0.34461 0.0
Zn256 Zn 0.00905 0.01324 0.38235 0.0
Zn257 Zn 0.01063 0.01581 0.36213 0.0
C258 C 0.04479 0.0769 0.37743 0.0
C259 C 0.9472 0.98607 0.37549 0.0
O260 O 0.02173 0.98065 0.35568 0.0
O261 O 0.99365 0.97306 0.34159 0.0
C262 C 0.06595 0.0684 0.34979 0.0
O263 O 0.03906 0.06497 0.36805 0.0
O264 O 0.03459 0.05919 0.38526 0.0
O265 O 0.96307 0.9921 0.38378 0.0
O266 O 0.96089 0.99398 0.36651 0.0
O267 O 0.05818 0.04647 0.3431 0.0
O268 O 0.04741 0.06412 0.35751 0.0
O269 O 0.9642 0.00468 0.35607 0.0
O270 O 0.98571 0.03737 0.34304 0.0
C271 C 0.96212 0.02086 0.34868 0.0
O272 O 0.03098 0.98688 0.36633 0.0
O273 O 0.02913 0.98788 0.38368 0.0
C274 C 0.00739 0.96388 0.34748 0.0
C275 C 0.03693 0.97962 0.37531 0.0
Zn276 Zn 0.0086 0.01282 0.88339 0.0
Zn277 Zn 0.02471 0.98476 0.85117 0.0
Zn278 Zn 0.01721 0.00717 0.8653 0.0
C279 C 0.00669 0.02714 0.84446 0.0
C280 C 0.96265 0.95394 0.85311 0.0
O281 O 0.01301 0.96535 0.87135 0.0
O282 O 0.00294 0.97131 0.88774 0.0
C283 C 0.0667 0.06621 0.87784 0.0
O284 O 0.99218 0.01679 0.85325 0.0
O285 O 0.02624 0.01927 0.84172 0.0
O286 O 0.98206 0.94472 0.85249 0.0
O287 O 0.97234 0.98221 0.85656 0.0
O288 O 0.04942 0.05279 0.88566 0.0
O289 O 0.05878 0.05283 0.86875 0.0
O290 O 0.97506 0.01046 0.86369 0.0
O291 O 0.9718 0.01742 0.88075 0.0
C292 C 0.9617 0.0156 0.87155 0.0
O293 O 0.06483 0.03578 0.85918 0.0
O294 O 0.06657 0.993 0.85599 0.0
C295 C 0.00686 0.95527 0.88069 0.0
C296 C 0.08063 0.02283 0.85653 0.0
Zn297 Zn 0.01488 0.00897 0.66609 0.0
Zn298 Zn 0.01215 0.01102 0.62509 0.0
Zn299 Zn 0.01365 0.0107 0.646 0.0
C300 C 0.97771 0.94824 0.63091 0.0
C301 C 0.07485 0.03984 0.631 0.0
O302 O 0.99632 0.04102 0.65239 0.0
O303 O 0.99461 0.03316 0.66944 0.0
C304 C 0.97626 0.94747 0.65998 0.0
O305 O 0.98597 0.96141 0.64008 0.0
O306 O 0.98549 0.96486 0.62282 0.0
O307 O 0.05782 0.03143 0.62291 0.0
O308 O 0.06236 0.03372 0.6402 0.0
O309 O 0.98987 0.96324 0.66815 0.0
O310 O 0.98218 0.96122 0.65106 0.0
O311 O 0.0628 0.02905 0.65104 0.0
O312 O 0.06015 0.03024 0.66836 0.0
C313 C 0.07607 0.03533 0.66011 0.0
O314 O 0.99178 0.03788 0.64144 0.0
O315 O 0.99275 0.03708 0.62409 0.0
C316 C 0.99014 0.04614 0.66181 0.0
C317 C 0.98546 0.04534 0.63257 0.0
Zn318 Zn 0.67223 0.34378 0.49953 0.0
Zn319 Zn 0.67241 0.34296 0.45859 0.0
Zn320 Zn 0.67277 0.34418 0.47945 0.0
C321 C 0.7345 0.3814 0.46493 0.0
C322 C 0.64718 0.28108 0.46472 0.0
O323 O 0.64124 0.36075 0.48511 0.0
O324 O 0.6484 0.36467 0.50229 0.0
C325 C 0.73402 0.38228 0.49421 0.0
O326 O 0.72165 0.3733 0.47404 0.0
O327 O 0.71789 0.37214 0.45674 0.0
O328 O 0.65521 0.29717 0.4565 0.0
O329 O 0.65201 0.29474 0.47381 0.0
O330 O 0.7175 0.36872 0.50212 0.0
O331 O 0.72136 0.37662 0.48505 0.0
O332 O 0.65611 0.2955 0.48475 0.0
O333 O 0.65102 0.29818 0.50191 0.0
C334 C 0.64859 0.28221 0.49375 0.0
O335 O 0.64466 0.36427 0.47415 0.0
O336 O 0.64421 0.35955 0.45685 0.0
C337 C 0.63567 0.36793 0.49433 0.0
C338 C 0.6362 0.36823 0.46508 0.0
Zn339 Zn 0.6832 0.35988 0.7163 0.0
Zn340 Zn 0.68108 0.35831 0.6783 0.0
Zn341 Zn 0.68164 0.35815 0.69595 0.0
C342 C 0.63233 0.36285 0.68285 0.0
C343 C 0.73641 0.4075 0.68249 0.0
O344 O 0.70021 0.32806 0.70046 0.0
O345 O 0.70155 0.33292 0.71777 0.0
C346 C 0.62047 0.33303 0.7103 0.0
O347 O 0.63499 0.3477 0.69047 0.0
O348 O 0.65516 0.37774 0.67675 0.0
O349 O 0.7268 0.38473 0.67603 0.0
O350 O 0.7192 0.405 0.69044 0.0
O351 O 0.63755 0.34054 0.71835 0.0
O352 O 0.63274 0.3386 0.70108 0.0
O353 O 0.71208 0.40815 0.70092 0.0
O354 O 0.71039 0.40617 0.71826 0.0
C355 C 0.71959 0.42207 0.71 0.0
O356 O 0.6906 0.32112 0.68984 0.0
O357 O 0.66091 0.31207 0.67606 0.0
C358 C 0.7069 0.32197 0.7095 0.0
C359 C 0.67501 0.30334 0.68196 0.0
Zn360 Zn 0.6916 0.3511 0.21383 0.0
Zn361 Zn 0.66018 0.33807 0.16281 0.0
Zn362 Zn 0.67946 0.3503 0.19449 0.0
C363 C 0.69284 0.39704 0.17924 0.0
C364 C 0.62432 0.31989 0.18243 0.0
O365 O 0.70559 0.32641 0.19441 0.0
O366 O 0.71573 0.32973 0.21136 0.0
C367 C 0.7184 0.41401 0.20837 0.0
O368 O 0.69761 0.39878 0.18909 0.0
O369 O 0.67869 0.36932 0.17535 0.0
O370 O 0.64668 0.34123 0.17736 0.0
O371 O 0.62902 0.32013 0.19222 0.0
O372 O 0.7147 0.39732 0.21621 0.0
O373 O 0.70694 0.40083 0.19939 0.0
O374 O 0.63385 0.32496 0.20288 0.0
O375 O 0.64814 0.32713 0.21934 0.0
C376 C 0.62673 0.31906 0.21265 0.0
O377 O 0.69944 0.32962 0.18284 0.0
O378 O 0.68703 0.31897 0.16545 0.0
C379 C 0.71802 0.32087 0.20219 0.0
C380 C 0.70175 0.31896 0.17364 0.0
Zn381 Zn 0.68152 0.34286 0.99847 0.0
Zn382 Zn 0.68371 0.34587 0.95712 0.0
Zn383 Zn 0.6833 0.34498 0.97807 0.0
C384 C 0.64414 0.28355 0.96276 0.0
C385 C 0.74509 0.36835 0.96377 0.0
O386 O 0.66936 0.37837 0.98404 0.0
O387 O 0.66448 0.37041 1.00113 0.0
C388 C 0.6407 0.28224 0.99178 0.0
O389 O 0.65285 0.29639 0.97196 0.0
O390 O 0.65348 0.30032 0.9547 0.0
O391 O 0.72888 0.36161 0.95553 0.0
O392 O 0.732 0.3636 0.97285 0.0
O393 O 0.6532 0.29724 1.00017 0.0
O394 O 0.64865 0.29623 0.9829 0.0
O395 O 0.7308 0.35933 0.98379 0.0
O396 O 0.72636 0.36062 1.00105 0.0
C397 C 0.74286 0.36447 0.99303 0.0
O398 O 0.66603 0.37586 0.97303 0.0
O399 O 0.66913 0.37597 0.95571 0.0
C400 C 0.66281 0.38449 0.99327 0.0
C401 C 0.66211 0.38497 0.96409 0.0
Zn402 Zn 0.33753 0.68462 0.83202 0.0
Zn403 Zn 0.33584 0.68083 0.79125 0.0
Zn404 Zn 0.3368 0.68253 0.81215 0.0
C405 C 0.39852 0.71089 0.79735 0.0
C406 C 0.30263 0.61831 0.79795 0.0
O407 O 0.30889 0.70362 0.8178 0.0
O408 O 0.31799 0.70959 0.83487 0.0
C409 C 0.39919 0.71665 0.82657 0.0
O410 O 0.38581 0.70616 0.80651 0.0
O411 O 0.38172 0.70234 0.78921 0.0
O412 O 0.31082 0.63426 0.78969 0.0
O413 O 0.31072 0.63228 0.80701 0.0
O414 O 0.38252 0.70532 0.83462 0.0
O415 O 0.38636 0.71135 0.81745 0.0
O416 O 0.31596 0.63351 0.81793 0.0
O417 O 0.31257 0.63948 0.83502 0.0
C418 C 0.30808 0.62175 0.82716 0.0
O419 O 0.31357 0.70795 0.80685 0.0
O420 O 0.31501 0.7054 0.78953 0.0
C421 C 0.30513 0.71284 0.82695 0.0
C422 C 0.30794 0.71494 0.79777 0.0
Zn423 Zn 0.35303 0.68326 0.04769 0.0
Zn424 Zn 0.34763 0.68268 0.00708 0.0
Zn425 Zn 0.35065 0.6832 0.02708 0.0
C426 C 0.28717 0.65834 0.01351 0.0
C427 C 0.38702 0.74486 0.01251 0.0
O428 O 0.3713 0.65479 0.03163 0.0
O429 O 0.3693 0.65459 0.04896 0.0
C430 C 0.29067 0.65804 0.04262 0.0
O431 O 0.30139 0.66576 0.02243 0.0
O432 O 0.30221 0.66144 0.00517 0.0
O433 O 0.37226 0.72821 0.00461 0.0
O434 O 0.38246 0.73218 0.02158 0.0
O435 O 0.30826 0.66648 0.05056 0.0
O436 O 0.30237 0.66235 0.03332 0.0
O437 O 0.38013 0.73282 0.03263 0.0
O438 O 0.38228 0.72898 0.0498 0.0
C439 C 0.38973 0.74581 0.04177 0.0
O440 O 0.36643 0.65144 0.02072 0.0
O441 O 0.36759 0.65829 0.0036 0.0
C442 C 0.37652 0.64628 0.04049 0.0
C443 C 0.3721 0.64564 0.01131 0.0
Zn444 Zn 0.3502 0.68947 0.54712 0.0
Zn445 Zn 0.3552 0.69365 0.50608 0.0
Zn446 Zn 0.35277 0.6915 0.52634 0.0
C447 C 0.37839 0.7549 0.5126 0.0
C448 C 0.29294 0.65492 0.51089 0.0
O449 O 0.37758 0.66769 0.53162 0.0
O450 O 0.37288 0.66692 0.5489 0.0
C451 C 0.38231 0.75303 0.54177 0.0
O452 O 0.37151 0.74119 0.52154 0.0
O453 O 0.37505 0.73923 0.50428 0.0
O454 O 0.31026 0.66757 0.50306 0.0
O455 O 0.30458 0.66089 0.52021 0.0
O456 O 0.37307 0.73555 0.54967 0.0
O457 O 0.37619 0.74073 0.53244 0.0
O458 O 0.303 0.66485 0.53112 0.0
O459 O 0.30416 0.66562 0.54847 0.0
C460 C 0.28873 0.65784 0.54003 0.0
O461 O 0.3832 0.67341 0.52084 0.0
O462 O 0.38073 0.67459 0.50355 0.0
C463 C 0.38234 0.65979 0.54067 0.0
C464 C 0.39089 0.66855 0.51162 0.0
Zn465 Zn 0.35239 0.6863 0.29251 0.0
Zn466 Zn 0.35804 0.6927 0.33313 0.0
Zn467 Zn 0.35431 0.68918 0.31326 0.0
C468 C 0.41838 0.71966 0.32702 0.0
C469 C 0.32306 0.62933 0.3285 0.0
O470 O 0.33159 0.71492 0.308 0.0
O471 O 0.33384 0.71283 0.29068 0.0
C472 C 0.41502 0.7164 0.29798 0.0
O473 O 0.40383 0.7094 0.3182 0.0
O474 O 0.40347 0.71833 0.33523 0.0
O475 O 0.33778 0.64747 0.33613 0.0
O476 O 0.32554 0.64065 0.3193 0.0
O477 O 0.39773 0.70567 0.28997 0.0
O478 O 0.4028 0.71234 0.3072 0.0
O479 O 0.3271 0.63894 0.30827 0.0
O480 O 0.32516 0.64001 0.29097 0.0
C481 C 0.31817 0.62451 0.29931 0.0
O482 O 0.33453 0.71818 0.31895 0.0
O483 O 0.33333 0.71252 0.33612 0.0
C484 C 0.326 0.72174 0.29889 0.0
C485 C 0.32732 0.72331 0.32821 0.0
H486 H 0.27448 0.2716 0.22256 0.0
H487 H 0.25792 0.2496 0.20481 0.0
H488 H 0.16869 0.17824 0.21687 0.0
H489 H 0.18495 0.19998 0.23462 0.0
H490 H 0.23958 0.18732 0.19827 0.0
H491 H 0.14579 0.21297 0.19157 0.0
H492 H 0.17542 0.23325 0.20153 0.0
H493 H 0.14199 0.1949 0.20398 0.0
C494 C 0.25115 0.25148 0.22142 0.0
C495 C 0.23099 0.23753 0.23002 0.0
C496 C 0.2418 0.23893 0.21127 0.0
C497 C 0.212 0.21254 0.20952 0.0
C498 C 0.19162 0.19898 0.21804 0.0
H499 H 0.11643 0.05166 0.17582 0.0
H500 H 0.16006 0.09741 0.18431 0.0
C501 C 0.201 0.21134 0.22819 0.0
C502 C 0.20262 0.19763 0.19895 0.0
H503 H 0.14271 0.16971 0.18143 0.0
C504 C 0.21882 0.18406 0.19443 0.0
C505 C 0.17606 0.19406 0.1938 0.0
C506 C 0.15899 0.20986 0.19791 0.0
C507 C 0.20739 0.16456 0.18543 0.0
C508 C 0.17894 0.15828 0.18093 0.0
C509 C 0.16445 0.1743 0.18489 0.0
C510 C 0.16061 0.13114 0.17366 0.0
C511 C 0.22514 0.14976 0.18109 0.0
C512 C 0.14735 0.13456 0.16448 0.0
C513 C 0.12235 0.10814 0.15954 0.0
C514 C 0.11007 0.07823 0.16389 0.0
C515 C 0.12561 0.07452 0.17233 0.0
C516 C 0.15069 0.10074 0.17716 0.0
H517 H 0.25066 0.16561 0.18235 0.0
H518 H 0.21781 0.12761 0.18528 0.0
H519 H 0.22065 0.14417 0.17257 0.0
H520 H 0.15455 0.15782 0.16167 0.0
H521 H 0.11054 0.11157 0.15309 0.0
H522 H 0.78844 0.04644 0.22241 0.0
H523 H 0.81679 0.05318 0.20611 0.0
H524 H 0.80642 0.96185 0.20961 0.0
H525 H 0.77872 0.9553 0.2262 0.0
H526 H 0.86488 0.00501 0.20624 0.0
H527 H 0.79362 0.0197 0.17666 0.0
H528 H 0.80281 0.04659 0.18754 0.0
H529 H 0.77897 0.00481 0.18957 0.0
C530 C 0.79177 0.02753 0.21967 0.0
C531 C 0.78147 0.00037 0.22566 0.0
C532 C 0.80771 0.0313 0.21025 0.0
C533 C 0.81327 0.0078 0.2065 0.0
C534 C 0.80219 0.98022 0.21231 0.0
H535 H 0.92075 0.00649 0.15298 0.0
H536 H 0.87539 0.00046 0.16266 0.0
C537 C 0.78645 0.97653 0.2218 0.0
C538 C 0.83393 0.01379 0.19729 0.0
H539 H 0.84757 0.0392 0.17196 0.0
C540 C 0.86076 0.01203 0.19872 0.0
C541 C 0.82859 0.02285 0.18742 0.0
C542 C 0.79924 0.02327 0.18517 0.0
C543 C 0.88286 0.02003 0.19072 0.0
C544 C 0.87847 0.03087 0.18109 0.0
C545 C 0.85114 0.03155 0.17945 0.0
C546 C 0.90249 0.0412 0.17278 0.0
C547 C 0.91098 0.01706 0.1927 0.0
C548 C 0.93221 0.06764 0.17467 0.0
C549 C 0.95807 0.0709 0.16924 0.0
C550 C 0.95437 0.04804 0.16175 0.0
C551 C 0.92411 0.02456 0.15867 0.0
C552 C 0.8982 0.02097 0.16424 0.0
H553 H 0.90738 0.00191 0.1995 0.0
H554 H 0.91647 0.00707 0.1857 0.0
H555 H 0.93154 0.04077 0.19441 0.0
H556 H 0.93588 0.08363 0.18118 0.0
H557 H 0.98121 0.08911 0.17177 0.0
H558 H 0.03931 0.82519 0.227 0.0
H559 H 0.02899 0.8478 0.21183 0.0
H560 H 0.01426 0.76866 0.19255 0.0
H561 H 0.02437 0.7457 0.2077 0.0
H562 H 0.0591 0.86345 0.19171 0.0
H563 H 0.93288 0.7713 0.18911 0.0
H564 H 0.95596 0.77702 0.20066 0.0
H565 H 0.96041 0.75817 0.18916 0.0
C566 C 0.03413 0.81268 0.21953 0.0
C567 C 0.03252 0.78356 0.21858 0.0
C568 C 0.02822 0.82562 0.21086 0.0
C569 C 0.02043 0.80965 0.20112 0.0
C570 C 0.01974 0.78109 0.20005 0.0
H571 H 0.01191 0.92164 0.15023 0.0
H572 H 0.01582 0.8781 0.15727 0.0
C573 C 0.02573 0.76813 0.20871 0.0
C574 C 0.01263 0.82298 0.19219 0.0
H575 H 0.95137 0.81365 0.17759 0.0
C576 C 0.03572 0.85236 0.18846 0.0
C577 C 0.98203 0.80837 0.18803 0.0
C578 C 0.95622 0.77706 0.19195 0.0
C579 C 0.02874 0.86831 0.18103 0.0
C580 C -0.00213 0.85419 0.17711 0.0
C581 C 0.97507 0.82415 0.1805 0.0
C582 C 0.98795 0.87274 0.17105 0.0
C583 C 0.05398 0.90106 0.17799 0.0
C584 C 0.96876 0.88211 0.17599 0.0
C585 C 0.96634 0.9067 0.17197 0.0
C586 C 0.98301 0.92224 0.16293 0.0
C587 C -0.00115 0.9101 0.15722 0.0
C588 C 0.00136 0.88544 0.16129 0.0
H589 H 0.07536 0.91014 0.18285 0.0
H590 H 0.06049 0.90074 0.16967 0.0
H591 H 0.04543 0.91772 0.17881 0.0
H592 H 0.95799 0.87245 0.18348 0.0
H593 H 0.95373 0.91542 0.17646 0.0
H594 H 0.22124 0.21532 0.27883 0.0
H595 H 0.1901 0.19109 0.29452 0.0
H596 H 0.25571 0.27149 0.31325 0.0
H597 H 0.28736 0.29557 0.29766 0.0
H598 H 0.23994 0.21745 0.32271 0.0
H599 H 0.13277 0.21346 0.30986 0.0
H600 H 0.14491 0.19471 0.30035 0.0
H601 H 0.16965 0.23625 0.30318 0.0
C602 C 0.22904 0.22785 0.28628 0.0
C603 C 0.25673 0.25739 0.28698 0.0
C604 C 0.21107 0.21412 0.29523 0.0
C605 C 0.2202 0.22983 0.30502 0.0
C606 C 0.24807 0.25909 0.30577 0.0
H607 H 0.07581 0.12795 0.35229 0.0
H608 H 0.11843 0.17572 0.34428 0.0
C609 C 0.26615 0.27277 0.29684 0.0
C610 C 0.20121 0.215 0.31451 0.0
H611 H 0.12627 0.17747 0.32352 0.0
C612 C 0.21519 0.20922 0.32298 0.0
C613 C 0.16916 0.20514 0.31505 0.0
C614 C 0.15335 0.21305 0.30667 0.0
C615 C 0.19741 0.19159 0.33156 0.0
C616 C 0.16474 0.17889 0.33155 0.0
C617 C 0.15127 0.1869 0.32351 0.0
C618 C 0.14353 0.15333 0.33869 0.0
C619 C 0.21368 0.18598 0.34039 0.0
C620 C 0.14409 0.12531 0.33854 0.0
C621 C 0.12 0.09832 0.34311 0.0
C622 C 0.09477 0.0987 0.3479 0.0
C623 C 0.09529 0.12725 0.34881 0.0
C624 C 0.11948 0.15442 0.34416 0.0
H625 H 0.23777 0.20643 0.3415 0.0
H626 H 0.20074 0.1817 0.3479 0.0
H627 H 0.2156 0.16512 0.33841 0.0
H628 H 0.16184 0.12353 0.33417 0.0
H629 H 0.12002 0.07651 0.34226 0.0
H630 H 0.81426 0.05866 0.27957 0.0
H631 H 0.8401 0.05787 0.29574 0.0
H632 H 0.77787 0.95732 0.29733 0.0
H633 H 0.75246 0.95773 0.28119 0.0
H634 H 0.81607 0.03648 0.31613 0.0
H635 H 0.86399 0.96708 0.29808 0.0
H636 H 0.84799 0.98552 0.29036 0.0
H637 H 0.82246 0.94911 0.29683 0.0
C638 C 0.80616 0.0364 0.28336 0.0
C639 C 0.78156 0.00823 0.27901 0.0
C640 C 0.82084 0.03599 0.29261 0.0
C641 C 0.81118 0.00745 0.29764 0.0
C642 C 0.78612 0.9795 0.29347 0.0
H643 H 0.90417 0.96769 0.34735 0.0
H644 H 0.86032 0.96193 0.33698 0.0
C645 C 0.77159 0.97983 0.28422 0.0
C646 C 0.82775 0.00669 0.30712 0.0
H647 H 0.87192 0.97782 0.31621 0.0
C648 C 0.8282 0.02358 0.31618 0.0
C649 C 0.84335 0.98962 0.30719 0.0
C650 C 0.84474 0.97201 0.29758 0.0
C651 C 0.84417 0.02413 0.32527 0.0
C652 C 0.86039 0.00768 0.32524 0.0
C653 C 0.85915 0.99009 0.31628 0.0
C654 C 0.88224 0.01164 0.33375 0.0
C655 C 0.84369 0.04246 0.3348 0.0
C656 C 0.90847 0.04156 0.33574 0.0
C657 C 0.93333 0.0448 0.34163 0.0
C658 C 0.93247 0.01821 0.34567 0.0
C659 C 0.90514 0.98859 0.3445 0.0
C660 C 0.88024 0.98528 0.33849 0.0
H661 H 0.82235 0.04412 0.33495 0.0
H662 H 0.84481 0.03152 0.34216 0.0
H663 H 0.8642 0.06678 0.33455 0.0
H664 H 0.91091 0.06215 0.33201 0.0
H665 H 0.95428 0.06787 0.34236 0.0
H666 H 0.03559 0.85389 0.26952 0.0
H667 H 0.03496 0.87408 0.28711 0.0
H668 H 0.02426 0.78984 0.3005 0.0
H669 H 0.02361 0.76894 0.28288 0.0
H670 H 0.98769 0.80497 0.31024 0.0
H671 H 0.1039 0.91244 0.30811 0.0
H672 H 0.08052 0.91119 0.29735 0.0
H673 H 0.09049 0.88114 0.29837 0.0
C674 C 0.03307 0.83966 0.27621 0.0
C675 C 0.02976 0.8099 0.27481 0.0
C676 C 0.03306 0.85136 0.28628 0.0
C677 C 0.03054 0.83392 0.29517 0.0
C678 C 0.02659 0.80389 0.29378 0.0
H679 H 0.05458 0.95178 0.35044 0.0
H680 H 0.0616 0.91263 0.34065 0.0
C681 C 0.02611 0.79194 0.2837 0.0
C682 C 0.03073 0.84666 0.30584 0.0
H683 H 0.06762 0.91455 0.32052 0.0
C684 C 0.00553 0.8287 0.31259 0.0
C685 C 0.05456 0.87711 0.30917 0.0
C686 C 0.08405 0.89636 0.30291 0.0
C687 C 0.00208 0.8415 0.32208 0.0
C688 C 0.02384 0.87339 0.32472 0.0
C689 C 0.05054 0.89027 0.31846 0.0
C690 C 0.01691 0.89124 0.33271 0.0
C691 C 0.97466 0.82091 0.32903 0.0
C692 C 0.98907 0.89148 0.33185 0.0
C693 C 0.98499 0.91344 0.3375 0.0
C694 C 0.00881 0.93601 0.34405 0.0
C695 C 0.03571 0.93439 0.34557 0.0
C696 C 0.0398 0.91218 0.33991 0.0
H697 H 0.9695 0.79624 0.32873 0.0
H698 H 0.97893 0.82947 0.33731 0.0
H699 H 0.95362 0.82055 0.32612 0.0
H700 H 0.97138 0.87634 0.32618 0.0
H701 H 0.96397 0.91413 0.33618 0.0
H702 H 0.79481 0.78054 0.7779 0.0
H703 H 0.8226 0.80447 0.79433 0.0
H704 H 0.80395 0.87978 0.79129 0.0
H705 H 0.77555 0.85568 0.77498 0.0
H706 H 0.87427 0.86193 0.79759 0.0
H707 H 0.7762 0.853 0.82119 0.0
H708 H 0.77026 0.83198 0.80887 0.0
H709 H 0.7822 0.87301 0.80905 0.0
C710 C 0.79655 0.80216 0.78074 0.0
C711 C 0.78288 0.81616 0.77514 0.0
C712 C 0.81237 0.81576 0.79014 0.0
C713 C 0.81481 0.84357 0.79416 0.0
C714 C 0.80162 0.85787 0.78851 0.0
H715 H 0.93235 0.97674 0.84205 0.0
H716 H 0.89209 0.94807 0.82869 0.0
C717 C 0.78565 0.8442 0.77912 0.0
C718 C 0.83252 0.85837 0.80397 0.0
H719 H 0.82722 0.88432 0.82856 0.0
C720 C 0.86388 0.86658 0.80438 0.0
C721 C 0.81894 0.8645 0.81283 0.0
C722 C 0.78497 0.85491 0.81303 0.0
C723 C 0.88218 0.88117 0.81333 0.0
C724 C 0.86869 0.88749 0.82214 0.0
C725 C 0.83737 0.87936 0.82178 0.0
C726 C 0.88738 0.90303 0.83167 0.0
C727 C 0.91603 0.89024 0.81327 0.0
C728 C 0.89687 0.88681 0.83806 0.0
C729 C 0.9196 0.90306 0.84577 0.0
C730 C 0.93308 0.93575 0.84723 0.0
C731 C 0.92183 0.95146 0.84132 0.0
C732 C 0.89903 0.93517 0.83361 0.0
H733 H 0.92414 0.88826 0.8053 0.0
H734 H 0.93111 0.91479 0.81626 0.0
H735 H 0.91909 0.87449 0.81853 0.0
H736 H 0.88805 0.86197 0.83666 0.0
H737 H 0.92801 0.89042 0.85016 0.0
H738 H 0.23551 0.09405 0.77203 0.0
H739 H 0.21504 0.10177 0.78862 0.0
H740 H 0.23506 0.03682 0.80353 0.0
H741 H 0.2561 0.02947 0.78708 0.0
H742 H 0.16549 0.0572 0.7991 0.0
H743 H 0.26871 0.10765 0.82511 0.0
H744 H 0.2717 0.10582 0.81101 0.0
H745 H 0.26133 0.0718 0.81874 0.0
C746 C 0.2359 0.08169 0.77887 0.0
C747 C 0.24742 0.06111 0.77821 0.0
C748 C 0.22427 0.0862 0.78836 0.0
C749 C 0.22404 0.07035 0.79738 0.0
C750 C 0.2358 0.05002 0.79676 0.0
H751 H 0.12466 0.00653 0.8539 0.0
H752 H 0.1648 0.02596 0.84029 0.0
C753 C 0.24754 0.04559 0.7873 0.0
C754 C 0.20878 0.07256 0.80716 0.0
H755 H 0.21854 0.08433 0.8337 0.0
C756 C 0.17726 0.06376 0.80664 0.0
C757 C 0.22416 0.08108 0.817 0.0
C758 C 0.25844 0.09243 0.818 0.0
C759 C 0.16023 0.06157 0.81572 0.0
C760 C 0.17529 0.06894 0.82561 0.0
C761 C 0.2071 0.07881 0.82612 0.0
C762 C 0.1573 0.06314 0.83547 0.0
C763 C 0.12579 0.04968 0.8147 0.0
C764 C 0.14126 0.07895 0.83774 0.0
C765 C 0.11822 0.06783 0.84551 0.0
C766 C 0.11112 0.0409 0.85118 0.0
C767 C 0.12961 0.02731 0.84965 0.0
C768 C 0.15254 0.03838 0.84187 0.0
H769 H 0.11668 0.03966 0.80675 0.0
H770 H 0.11212 0.0313 0.82057 0.0
H771 H 0.12177 0.06948 0.81617 0.0
H772 H 0.14492 0.0984 0.83297 0.0
H773 H 0.10411 0.07855 0.84638 0.0
H774 H 0.02303 0.25231 0.79457 0.0
H775 H 0.01894 0.21133 0.80589 0.0
H776 H 0.94388 0.14042 0.7867 0.0
H777 H 0.94901 0.18139 0.775 0.0
H778 H 0.97528 0.16975 0.8179 0.0
H779 H 5e-05 0.10578 0.78669 0.0
H780 H 0.00396 0.14347 0.78456 0.0
H781 H 0.96606 0.10802 0.78411 0.0
C782 C 0.00561 0.22799 0.79275 0.0
C783 C 0.98653 0.22004 0.78383 0.0
C784 C 0.00326 0.20455 0.79925 0.0
C785 C 0.98152 0.17265 0.79706 0.0
C786 C 0.9615 0.16473 0.78839 0.0
H787 H 0.95651 0.03556 0.84512 0.0
H788 H 0.94608 0.06777 0.83348 0.0
C789 C 0.96428 0.18818 0.78175 0.0
C790 C 0.98044 0.14801 0.80382 0.0
H791 H 0.98786 0.08323 0.80344 0.0
C792 C 0.97797 0.15078 0.81473 0.0
C793 C 0.98422 0.12339 0.79971 0.0
C794 C 0.98903 0.12009 0.78814 0.0
C795 C 0.98009 0.13028 0.82165 0.0
C796 C 0.98354 0.10546 0.81753 0.0
C797 C 0.98503 0.10212 0.8066 0.0
C798 C 0.98838 0.08436 0.82435 0.0
C799 C 0.98019 0.1365 0.8333 0.0
C800 C 0.01487 0.08181 0.82284 0.0
C801 C 0.02037 0.06274 0.82927 0.0
C802 C -0.00033 0.04603 0.83744 0.0
C803 C 0.97296 0.04828 0.83892 0.0
C804 C 0.96713 0.06693 0.83232 0.0
H805 H 0.98583 0.16096 0.83506 0.0
H806 H 0.95665 0.12019 0.83654 0.0
H807 H 0.99737 0.13265 0.83742 0.0
H808 H 0.03165 0.09498 0.81676 0.0
H809 H 0.04125 0.06164 0.82796 0.0
H810 H 0.72888 0.73799 0.70746 0.0
H811 H 0.76049 0.75974 0.69165 0.0
H812 H 0.82542 0.84343 0.70918 0.0
H813 H 0.79387 0.82217 0.72497 0.0
H814 H 0.8107 0.85547 0.68931 0.0
H815 H 0.84463 0.76462 0.68727 0.0
H816 H 0.80353 0.75071 0.68735 0.0
H817 H 0.82668 0.77047 0.69877 0.0
C818 C 0.74972 0.76119 0.70793 0.0
C819 C 0.75897 0.77827 0.71751 0.0
C820 C 0.76785 0.77345 0.69889 0.0
C821 C 0.79556 0.80293 0.69929 0.0
C822 C 0.80416 0.82055 0.70872 0.0
H823 H 0.97046 0.90641 0.67478 0.0
H824 H 0.92129 0.86333 0.68135 0.0
C825 C 0.78608 0.80836 0.71775 0.0
C826 C 0.81641 0.81545 0.69005 0.0
H827 H 0.869 0.80616 0.67547 0.0
C828 C 0.82304 0.84445 0.68611 0.0
C829 C 0.83245 0.80092 0.68594 0.0
C830 C 0.82674 0.77006 0.69006 0.0
C831 C 0.84659 0.86032 0.67863 0.0
C832 C 0.86358 0.84643 0.67481 0.0
C833 C 0.85569 0.81653 0.67831 0.0
C834 C 0.89314 0.86521 0.66893 0.0
C835 C 0.85466 0.8929 0.6755 0.0
C836 C 0.894 0.87885 0.65929 0.0
C837 C 0.9223 0.90369 0.6555 0.0
C838 C 0.9499 0.91497 0.66133 0.0
C839 C 0.94946 0.8984 0.67019 0.0
C840 C 0.92132 0.87373 0.67396 0.0
H841 H 0.84209 0.90187 0.68031 0.0
H842 H 0.88015 0.9098 0.67632 0.0
H843 H 0.84823 0.89234 0.66717 0.0
H844 H 0.87254 0.87209 0.65516 0.0
H845 H 0.92196 0.91599 0.64863 0.0
H846 H 0.26113 0.08873 0.72767 0.0
H847 H 0.23637 0.08577 0.71097 0.0
H848 H 0.2151 0.99019 0.70617 0.0
H849 H 0.23867 0.99258 0.72321 0.0
H850 H 0.24897 0.07746 0.69139 0.0
H851 H 0.13091 0.9782 0.70171 0.0
H852 H 0.16161 0.99787 0.7113 0.0
H853 H 0.16119 0.96904 0.70236 0.0
C854 C 0.25097 0.06697 0.7231 0.0
C855 C 0.25152 0.04076 0.7268 0.0
C856 C 0.23697 0.06536 0.71352 0.0
C857 C 0.22349 0.03764 0.70733 0.0
C858 C 0.22459 0.01158 0.71091 0.0
H859 H 0.10267 0.00233 0.65339 0.0
H860 H 0.14666 0.00355 0.66225 0.0
C861 C 0.23812 0.01298 0.72063 0.0
C862 C 0.2079 0.03633 0.6973 0.0
H863 H 0.13703 -0.00068 0.68501 0.0
C864 C 0.22456 0.06013 0.68995 0.0
C865 C 0.17606 0.01368 0.69536 0.0
C866 C 0.15627 0.98842 0.70313 0.0
C867 C 0.20991 0.06267 0.68099 0.0
C868 C 0.17792 0.04073 0.6793 0.0
C869 C 0.16172 0.01591 0.68629 0.0
C870 C 0.15928 0.04567 0.67146 0.0
C871 C 0.22837 0.08936 0.67358 0.0
C872 C 0.15297 0.06987 0.67329 0.0
C873 C 0.12771 0.06894 0.66835 0.0
C874 C 0.10874 0.04406 0.6614 0.0
C875 C 0.11737 0.02204 0.65858 0.0
C876 C 0.14232 0.02259 0.6637 0.0
H877 H 0.25387 0.09898 0.67432 0.0
H878 H 0.22116 0.08152 0.66533 0.0
H879 H 0.22384 0.10864 0.67544 0.0
H880 H 0.16545 0.08761 0.67936 0.0
H881 H 0.12115 0.08587 0.67075 0.0
H882 H 0.00235 0.262 0.72263 0.0
H883 H -0.00033 0.24083 0.70487 0.0
H884 H 0.01145 0.16753 0.71744 0.0
H885 H 0.01442 0.18856 0.73517 0.0
H886 H 0.04795 0.19718 0.69913 0.0
H887 H 0.92212 0.15736 0.6942 0.0
H888 H 0.94875 0.19803 0.69771 0.0
H889 H 0.94083 0.16788 0.70689 0.0
C890 C 0.00471 0.24156 0.72161 0.0
C891 C 0.00839 0.22681 0.73034 0.0
C892 C 0.00299 0.22942 0.71145 0.0
C893 C 0.00492 0.20239 0.70987 0.0
C894 C 0.00981 0.18839 0.71852 0.0
H895 H 0.94996 0.043 0.67671 0.0
H896 H 0.95134 0.088 0.68534 0.0
C897 C 0.01147 0.20042 0.72865 0.0
C898 C 0.00085 0.18761 0.69932 0.0
H899 H 0.94454 0.13989 0.68159 0.0
C900 C 0.0256 0.18526 0.69511 0.0
C901 C 0.97161 0.1722 0.69415 0.0
C902 C 0.94415 0.17372 0.69844 0.0
C903 C 0.02134 0.16602 0.68629 0.0
C904 C 0.99155 0.14903 0.68146 0.0
C905 C 0.9674 0.1532 0.68524 0.0
C906 C 0.98351 0.122 0.67425 0.0
C907 C 0.04804 0.16195 0.68278 0.0
C908 C -0.00083 0.12581 0.66467 0.0
C909 C -0.00173 0.09985 0.65967 0.0
C910 C 0.9818 0.07007 0.66427 0.0
C911 C 0.96304 0.06581 0.67307 0.0
C912 C 0.96381 0.09155 0.67801 0.0
H913 H 0.06854 0.17432 0.6881 0.0
H914 H 0.04048 0.13657 0.68242 0.0
H915 H 0.05562 0.17156 0.67481 0.0
H916 H 0.01406 0.14909 0.66154 0.0
H917 H 0.01292 0.10368 0.65287 0.0
H918 H 0.90075 0.54259 0.56257 0.0
H919 H 0.88005 0.51332 0.5461 0.0
H920 H 0.88964 0.59605 0.53191 0.0
H921 H 0.91027 0.62565 0.54845 0.0
H922 H 0.83208 0.54203 0.52835 0.0
H923 H 0.92677 0.51898 0.51891 0.0
H924 H 0.91257 0.50806 0.53205 0.0
H925 H 0.93139 0.54875 0.5284 0.0
C926 C 0.89849 0.55465 0.55597 0.0
C927 C 0.90723 0.58651 0.55683 0.0
C928 C 0.88699 0.53795 0.54651 0.0
C929 C 0.8841 0.55275 0.5377 0.0
C930 C 0.89215 0.58434 0.53858 0.0
H931 H 0.76701 0.43885 0.48436 0.0
H932 H 0.812 0.48646 0.49198 0.0
C933 C 0.90376 0.60115 0.54805 0.0
C934 C 0.87066 0.53432 0.52785 0.0
H935 H 0.87659 0.48343 0.51085 0.0
C936 C 0.84215 0.52983 0.52432 0.0
C937 C 0.88404 0.51867 0.52258 0.0
C938 C 0.91556 0.52411 0.52561 0.0
C939 C 0.82528 0.50797 0.51625 0.0
C940 C 0.83763 0.49062 0.51146 0.0
C941 C 0.86721 0.4968 0.5145 0.0
C942 C 0.81765 0.46219 0.5049 0.0
C943 C 0.79324 0.50181 0.51353 0.0
C944 C 0.80783 0.43262 0.50912 0.0
C945 C 0.78245 0.4056 0.50477 0.0
C946 C 0.76657 0.40768 0.4961 0.0
C947 C 0.77887 0.43665 0.49105 0.0
C948 C 0.80433 0.46387 0.49546 0.0
H949 H 0.78564 0.51457 0.51889 0.0
H950 H 0.79347 0.50961 0.50542 0.0
H951 H 0.77569 0.47622 0.51385 0.0
H952 H 0.81792 0.43073 0.51634 0.0
H953 H 0.77355 0.38347 0.50875 0.0
H954 H 0.45618 0.29798 0.56553 0.0
H955 H 0.48537 0.30623 0.54917 0.0
H956 H 0.4715 0.38255 0.5416 0.0
H957 H 0.44173 0.37406 0.55774 0.0
H958 H 0.46671 0.3459 0.52406 0.0
H959 H 0.57412 0.38134 0.54694 0.0
H960 H 0.54237 0.34256 0.54983 0.0
H961 H 0.53903 0.3763 0.55295 0.0
C962 C 0.45906 0.3163 0.56033 0.0
C963 C 0.447 0.33563 0.56303 0.0
C964 C 0.47582 0.32105 0.55101 0.0
C965 C 0.48112 0.34543 0.54428 0.0
C966 C 0.46781 0.36371 0.5467 0.0
H967 H 0.64114 0.41963 0.50399 0.0
H968 H 0.59961 0.41938 0.51436 0.0
C969 C 0.4509 0.35887 0.55597 0.0
C970 C 0.50228 0.35332 0.53513 0.0
H971 H 0.5771 0.3757 0.52859 0.0
C972 C 0.49092 0.35258 0.52502 0.0
C973 C 0.53401 0.36276 0.53643 0.0
C974 C 0.54825 0.36613 0.54712 0.0
C975 C 0.51032 0.36017 0.51614 0.0
C976 C 0.54171 0.36831 0.51742 0.0
C977 C 0.55308 0.36962 0.52757 0.0
C978 C 0.56318 0.37381 0.50848 0.0
C979 C 0.4971 0.35967 0.50551 0.0
C980 C 0.55602 0.34962 0.50105 0.0
C981 C 0.57969 0.35032 0.49487 0.0
C982 C 0.61077 0.3748 0.49625 0.0
C983 C 0.61724 0.4007 0.50273 0.0
C984 C 0.59355 0.40037 0.50873 0.0
H985 H 0.47725 0.36371 0.5062 0.0
H986 H 0.51516 0.37778 0.50034 0.0
H987 H 0.48824 0.33618 0.50173 0.0
H988 H 0.53298 0.32866 0.50081 0.0
H989 H 0.57431 0.32981 0.49006 0.0
H990 H 0.72353 0.13166 0.55197 0.0
H991 H 0.71781 0.14863 0.53461 0.0
H992 H 0.63533 0.14809 0.54528 0.0
H993 H 0.64041 0.13054 0.56243 0.0
H994 H 0.62703 0.11899 0.52583 0.0
H995 H 0.73724 0.23618 0.52709 0.0
H996 H 0.74089 0.20231 0.52875 0.0
H997 H 0.72146 0.21249 0.53861 0.0
C998 C 0.70438 0.13547 0.55062 0.0
C999 C 0.6825 0.1299 0.55858 0.0
C1000 C 0.70112 0.14513 0.5407 0.0
C1001 C 0.6762 0.14976 0.53866 0.0
C1002 C 0.65461 0.14447 0.54665 0.0
H1003 H 0.60655 0.23826 0.50684 0.0
H1004 H 0.61119 0.19618 0.51442 0.0
C1005 C 0.65768 0.13462 0.55648 0.0
C1006 C 0.67233 0.16058 0.52833 0.0
H1007 H 0.70325 0.22569 0.51312 0.0
C1008 C 0.64397 0.1421 0.52293 0.0
C1009 C 0.69457 0.19055 0.52447 0.0
C1010 C 0.72519 0.21172 0.53003 0.0
C1011 C 0.63639 0.15367 0.5142 0.0
C1012 C 0.65763 0.18452 0.51084 0.0
C1013 C 0.68702 0.20195 0.51569 0.0
C1014 C 0.64794 0.20163 0.50393 0.0
C1015 C 0.60514 0.13334 0.50894 0.0
C1016 C 0.66583 0.21755 0.49511 0.0
C1017 C 0.66283 0.24145 0.49065 0.0
C1018 C 0.6425 0.25012 0.49516 0.0
C1019 C 0.6223 0.23189 0.50322 0.0
C1020 C 0.62492 0.20776 0.50754 0.0
H1021 H 0.59696 0.10793 0.50969 0.0
H1022 H 0.58765 0.13763 0.51282 0.0
H1023 H 0.60617 0.13884 0.5005 0.0
H1024 H 0.68384 0.2133 0.49225 0.0
H1025 H 0.67885 0.25539 0.4845 0.0
H1026 H 0.89439 0.54556 0.6111 0.0
H1027 H 0.86511 0.52263 0.62719 0.0
H1028 H 0.9312 0.60554 0.64481 0.0
H1029 H 0.96091 0.62867 0.62874 0.0
H1030 H 0.91428 0.54868 0.65478 0.0
H1031 H 0.81029 0.55147 0.64203 0.0
H1032 H 0.82213 0.53248 0.6325 0.0
H1033 H 0.84774 0.57364 0.63563 0.0
C1034 C 0.90285 0.55889 0.61839 0.0
C1035 C 0.92988 0.58904 0.61862 0.0
C1036 C 0.88596 0.54584 0.62757 0.0
C1037 C 0.89563 0.5627 0.63714 0.0
C1038 C 0.92319 0.59231 0.63748 0.0
H1039 H 0.75078 0.46871 0.68481 0.0
H1040 H 0.79526 0.51483 0.67675 0.0
C1041 C 0.94013 0.60543 0.62829 0.0
C1042 C 0.8768 0.54908 0.64674 0.0
H1043 H 0.80226 0.51585 0.65589 0.0
C1044 C 0.88993 0.542 0.65513 0.0
C1045 C 0.84533 0.54127 0.64735 0.0
C1046 C 0.83062 0.55042 0.63894 0.0
C1047 C 0.87162 0.5249 0.66372 0.0
C1048 C 0.83934 0.51428 0.6638 0.0
C1049 C 0.82693 0.52372 0.65582 0.0
C1050 C 0.8171 0.48937 0.67094 0.0
C1051 C 0.88683 0.51755 0.67246 0.0
C1052 C 0.81514 0.46009 0.67065 0.0
C1053 C 0.78996 0.434 0.67525 0.0
C1054 C 0.76616 0.43658 0.68022 0.0
C1055 C 0.76914 0.46628 0.68121 0.0
C1056 C 0.7944 0.49253 0.67653 0.0
H1057 H 0.91158 0.53669 0.67349 0.0
H1058 H 0.87432 0.51423 0.68001 0.0
H1059 H 0.88672 0.4956 0.67042 0.0
H1060 H 0.8318 0.45675 0.66618 0.0
H1061 H 0.78811 0.41129 0.67435 0.0
H1062 H 0.41313 0.29084 0.61865 0.0
H1063 H 0.43946 0.29256 0.63485 0.0
H1064 H 0.5002 0.39307 0.63213 0.0
H1065 H 0.47345 0.39167 0.61594 0.0
H1066 H 0.49989 0.31059 0.637 0.0
H1067 H 0.47383 0.38577 0.66267 0.0
H1068 H 0.45319 0.36826 0.65053 0.0
H1069 H 0.49104 0.40372 0.6504 0.0
C1070 C 0.43195 0.31341 0.62151 0.0
C1071 C 0.44123 0.34115 0.61598 0.0
C1072 C 0.44691 0.31433 0.63081 0.0
C1073 C 0.47144 0.34298 0.63481 0.0
C1074 C 0.48078 0.37079 0.62934 0.0
H1075 H 0.62523 0.4083 0.67448 0.0
H1076 H 0.57978 0.40061 0.66491 0.0
C1077 C 0.46569 0.36992 0.62003 0.0
C1078 C 0.48879 0.34328 0.64424 0.0
H1079 H 0.51535 0.3784 0.6683 0.0
C1080 C 0.50281 0.32497 0.64393 0.0
C1081 C 0.49246 0.36197 0.65328 0.0
C1082 C 0.47657 0.3808 0.65431 0.0
C1083 C 0.52178 0.3261 0.65216 0.0
C1084 C 0.52643 0.34571 0.66104 0.0
C1085 C 0.51152 0.36319 0.66153 0.0
C1086 C 0.55027 0.35172 0.66905 0.0
C1087 C 0.53815 0.30772 0.65099 0.0
C1088 C 0.5481 0.32731 0.67513 0.0
C1089 C 0.57421 0.33172 0.68066 0.0
C1090 C 0.60262 0.36055 0.68014 0.0
C1091 C 0.60361 0.38577 0.67495 0.0
C1092 C 0.57764 0.38142 0.66948 0.0
H1093 H 0.5359 0.29774 0.64293 0.0
H1094 H 0.56337 0.32293 0.65288 0.0
H1095 H 0.52782 0.28791 0.65654 0.0
H1096 H 0.52697 0.30431 0.675 0.0
H1097 H 0.57292 0.31186 0.68453 0.0
H1098 H 0.72198 0.14232 0.61364 0.0
H1099 H 0.72646 0.16856 0.63053 0.0
H1100 H 0.6284 0.13717 0.62947 0.0
H1101 H 0.62354 0.11039 0.61262 0.0
H1102 H 0.71524 0.21604 0.63432 0.0
H1103 H 0.63809 0.11471 0.65918 0.0
H1104 H 0.6523 0.11014 0.64658 0.0
H1105 H 0.61928 0.11539 0.64737 0.0
C1106 C 0.70126 0.14079 0.61701 0.0
C1107 C 0.67236 0.12427 0.61176 0.0
C1108 C 0.70389 0.15573 0.62669 0.0
C1109 C 0.67768 0.15434 0.63136 0.0
C1110 C 0.64878 0.13785 0.62615 0.0
H1111 H 0.62748 0.25004 0.67343 0.0
H1112 H 0.63169 0.21018 0.66327 0.0
C1113 C 0.6461 0.12283 0.61646 0.0
C1114 C 0.68107 0.17228 0.64123 0.0
H1115 H 0.65014 0.16579 0.6657 0.0
C1116 C 0.70151 0.20503 0.64127 0.0
C1117 C 0.66325 0.15779 0.65029 0.0
C1118 C 0.64223 0.12252 0.65092 0.0
C1119 C 0.70308 0.22397 0.64987 0.0
C1120 C 0.6841 0.20964 0.65876 0.0
C1121 C 0.6648 0.1767 0.65892 0.0
C1122 C 0.6803 0.22881 0.66707 0.0
C1123 C 0.72346 0.25931 0.64905 0.0
C1124 C 0.70571 0.25135 0.67314 0.0
C1125 C 0.70331 0.2743 0.679 0.0
C1126 C 0.67546 0.27477 0.67884 0.0
C1127 C 0.64926 0.25026 0.67364 0.0
C1128 C 0.65163 0.22743 0.66783 0.0
H1129 H 0.73288 0.26666 0.64102 0.0
H1130 H 0.71014 0.27087 0.65128 0.0
H1131 H 0.7435 0.26806 0.65452 0.0
H1132 H 0.72793 0.25248 0.67277 0.0
H1133 H 0.7239 0.29312 0.68284 0.0
H1134 H 0.51143 0.10696 0.10993 0.0
H1135 H 0.53537 0.13497 0.12646 0.0
H1136 H 0.46911 0.16599 0.12856 0.0
H1137 H 0.44462 0.13748 0.11232 0.0
H1138 H 0.56402 0.19574 0.13061 0.0
H1139 H 0.46465 0.13729 0.15793 0.0
H1140 H 0.46403 0.12119 0.14503 0.0
H1141 H 0.45416 0.15124 0.14677 0.0
C1142 C 0.50181 0.11953 0.11397 0.0
C1143 C 0.47609 0.11993 0.10981 0.0
C1144 C 0.51544 0.13542 0.12344 0.0
C1145 C 0.50359 0.15199 0.1289 0.0
C1146 C 0.47803 0.15252 0.12471 0.0
H1147 H 0.59861 0.32045 0.16411 0.0
H1148 H 0.56727 0.27569 0.15232 0.0
C1149 C 0.46426 0.13647 0.11533 0.0
C1150 C 0.51952 0.17114 0.13846 0.0
H1151 H 0.50588 0.19013 0.1631 0.0
C1152 C 0.55138 0.19403 0.13777 0.0
C1153 C 0.50327 0.16868 0.14791 0.0
C1154 C 0.46972 0.14301 0.14949 0.0
C1155 C 0.56688 0.21576 0.14599 0.0
C1156 C 0.54992 0.21504 0.15504 0.0
C1157 C 0.51864 0.19095 0.15606 0.0
C1158 C 0.56396 0.24082 0.16301 0.0
C1159 C 0.60116 0.23993 0.14479 0.0
C1160 C 0.57074 0.23575 0.17319 0.0
C1161 C 0.58841 0.26144 0.18005 0.0
C1162 C 0.59947 0.29229 0.17671 0.0
C1163 C 0.59051 0.29689 0.16683 0.0
C1164 C 0.57279 0.27139 0.16007 0.0
H1165 H 0.61256 0.23193 0.13901 0.0
H1166 H 0.60376 0.26215 0.14193 0.0
H1167 H 0.6136 0.24509 0.15241 0.0
H1168 H 0.56388 0.21222 0.17561 0.0
H1169 H 0.59518 0.25735 0.18761 0.0
H1170 H 0.91172 0.32208 0.11463 0.0
H1171 H 0.87744 0.30956 0.12985 0.0
H1172 H 0.86046 0.38361 0.12192 0.0
H1173 H 0.89408 0.3958 0.10651 0.0
H1174 H 0.87561 0.34234 0.14745 0.0
H1175 H 0.77329 0.30587 0.12178 0.0
H1176 H 0.81035 0.31351 0.11673 0.0
H1177 H 0.8042 0.34563 0.11965 0.0
C1178 C 0.90088 0.3359 0.11615 0.0
C1179 C 0.90525 0.35965 0.10925 0.0
C1180 C 0.88136 0.32874 0.12488 0.0
C1181 C 0.8659 0.34521 0.1269 0.0
C1182 C 0.8716 0.3701 0.12037 0.0
H1183 H 0.76283 0.35586 0.17873 0.0
H1184 H 0.80539 0.35693 0.16882 0.0
C1185 C 0.89091 0.37712 0.11158 0.0
C1186 C 0.84245 0.33521 0.13545 0.0
H1187 H 0.76612 0.31119 0.13996 0.0
C1188 C 0.85157 0.33526 0.14584 0.0
C1189 C 0.81092 0.32515 0.1333 0.0
C1190 C 0.79898 0.32218 0.12225 0.0
C1191 C 0.8302 0.32669 0.15419 0.0
C1192 C 0.79909 0.31842 0.15209 0.0
C1193 C 0.7899 0.31745 0.14164 0.0
C1194 C 0.77586 0.3128 0.16046 0.0
C1195 C 0.84116 0.32644 0.16514 0.0
C1196 C 0.74523 0.28689 0.15952 0.0
C1197 C 0.7208 0.28672 0.165 0.0
C1198 C 0.72673 0.3121 0.17168 0.0
C1199 C 0.75776 0.3358 0.17373 0.0
C1200 C 0.78217 0.33641 0.16804 0.0
H1201 H 0.86051 0.32155 0.165 0.0
H1202 H 0.85019 0.34999 0.1689 0.0
H1203 H 0.8219 0.30857 0.17004 0.0
H1204 H 0.73976 0.26827 0.15379 0.0
H1205 H 0.697 0.26827 0.16327 0.0
H1206 H 0.67192 0.54202 0.10404 0.0
H1207 H 0.67987 0.51368 0.11797 0.0
H1208 H 0.68715 0.58282 0.14075 0.0
H1209 H 0.6788 0.61108 0.12691 0.0
H1210 H 0.73245 0.53778 0.13122 0.0
H1211 H 0.62349 0.49905 0.15408 0.0
H1212 H 0.62824 0.51287 0.14082 0.0
H1213 H 0.64644 0.54048 0.15153 0.0
C1214 C 0.67482 0.551 0.11203 0.0
C1215 C 0.6746 0.57875 0.11436 0.0
C1216 C 0.67948 0.53485 0.11997 0.0
C1217 C 0.68385 0.54602 0.1304 0.0
C1218 C 0.68331 0.57351 0.13278 0.0
H1219 H 0.70552 0.45568 0.1858 0.0
H1220 H 0.70871 0.49721 0.17468 0.0
C1221 C 0.67862 0.58967 0.12485 0.0
C1222 C 0.69 0.52937 0.13868 0.0
H1223 H 0.65944 0.48662 0.16086 0.0
C1224 C 0.71658 0.52674 0.13774 0.0
C1225 C 0.66946 0.51532 0.14723 0.0
C1226 C 0.64016 0.51678 0.14849 0.0
C1227 C 0.72278 0.50976 0.14499 0.0
C1228 C 0.70162 0.4947 0.15331 0.0
C1229 C 0.6757 0.49836 0.1545 0.0
C1230 C 0.70378 0.47196 0.16007 0.0
C1231 C 0.75172 0.50774 0.14362 0.0
C1232 C 0.70031 0.44432 0.15552 0.0
C1233 C 0.69834 0.42072 0.1618 0.0
C1234 C 0.69977 0.42424 0.17278 0.0
C1235 C 0.70456 0.45247 0.17736 0.0
C1236 C 0.70626 0.4761 0.17103 0.0
H1237 H 0.76999 0.52797 0.13914 0.0
H1238 H 0.76153 0.50709 0.15131 0.0
H1239 H 0.74564 0.48583 0.13915 0.0
H1240 H 0.69778 0.44038 0.1471 0.0
H1241 H 0.69465 0.39922 0.15806 0.0
H1242 H 0.41781 0.06137 0.04407 0.0
H1243 H 0.45188 0.08642 0.02903 0.0
H1244 H 0.48928 0.1773 0.04438 0.0
H1245 H 0.45614 0.15227 0.05964 0.0
H1246 H 0.46144 0.13041 0.01507 0.0
H1247 H 0.56693 0.17357 0.0396 0.0
H1248 H 0.5283 0.14619 0.04438 0.0
H1249 H 0.54258 0.18783 0.04444 0.0
C1250 C 0.43308 0.08674 0.04421 0.0
C1251 C 0.43465 0.10483 0.05311 0.0
C1252 C 0.45253 0.10101 0.0356 0.0
C1253 C 0.47371 0.13361 0.03569 0.0
C1254 C 0.47379 0.15196 0.04428 0.0
H1255 H 0.58047 0.26382 0.98864 0.0
H1256 H 0.53657 0.21986 0.99743 0.0
C1257 C 0.45471 0.13767 0.05296 0.0
C1258 C 0.49681 0.14827 0.0271 0.0
H1259 H 0.57474 0.19598 0.02269 0.0
C1260 C 0.48628 0.1445 0.01669 0.0
C1261 C 0.52926 0.16574 0.02916 0.0
C1262 C 0.54246 0.16828 0.03998 0.0
C1263 C 0.5073 0.15906 0.00836 0.0
C1264 C 0.53959 0.17859 0.01056 0.0
C1265 C 0.55005 0.18114 0.02093 0.0
C1266 C 0.56294 0.19894 1.0026 0.0
C1267 C 0.49462 0.15319 0.99734 0.0
C1268 C 0.59227 0.2014 1.00216 0.0
C1269 C 0.6176 0.22717 0.99741 0.0
C1270 C 0.61372 0.25025 0.99273 0.0
C1271 C 0.58374 0.24583 0.99201 0.0
C1272 C 0.55857 0.22058 0.99704 0.0
H1273 H 0.47352 0.12929 0.99649 0.0
H1274 H 0.48757 0.17049 0.99557 0.0
H1275 H 0.51223 0.1555 0.99147 0.0
H1276 H 0.59626 0.18498 0.00633 0.0
H1277 H 0.64068 0.23045 0.99816 0.0
H1278 H 0.92479 0.40722 0.05956 0.0
H1279 H 0.9002 0.4053 0.04295 0.0
H1280 H 0.88867 0.31442 0.03567 0.0
H1281 H 0.91232 0.31567 0.05258 0.0
H1282 H 0.91623 0.40247 0.02299 0.0
H1283 H 0.80124 0.2956 0.03157 0.0
H1284 H 0.83091 0.31561 0.04148 0.0
H1285 H 0.8341 0.29024 0.03189 0.0
C1286 C 0.91688 0.38671 0.05447 0.0
C1287 C 0.92021 0.36145 0.05743 0.0
C1288 C 0.90296 0.38572 0.04493 0.0
C1289 C 0.89227 0.3596 0.03808 0.0
C1290 C 0.89609 0.33453 0.04092 0.0
H1291 H 0.76902 0.33176 0.9853 0.0
H1292 H 0.81306 0.331 0.99339 0.0
C1293 C 0.90965 0.33529 0.05057 0.0
C1294 C 0.87658 0.35885 0.02816 0.0
H1295 H 0.80577 0.32094 0.01583 0.0
C1296 C 0.89221 0.38436 0.02134 0.0
C1297 C 0.84528 0.33512 0.02595 0.0
C1298 C 0.82674 0.30771 0.03313 0.0
C1299 C 0.87686 0.38769 0.01275 0.0
C1300 C 0.84518 0.36489 0.01091 0.0
C1301 C 0.8302 0.33827 0.01724 0.0
C1302 C 0.82542 0.37071 0.00385 0.0
C1303 C 0.89419 0.41621 0.00596 0.0
C1304 C 0.81874 0.39409 0.00676 0.0
C1305 C 0.79346 0.39421 1.00229 0.0
C1306 C 0.77478 0.37125 0.99474 0.0
C1307 C 0.78343 0.34995 0.99101 0.0
C1308 C 0.80843 0.34941 0.99566 0.0
H1309 H 0.91982 0.42617 0.00631 0.0
H1310 H 0.88635 0.41033 0.99767 0.0
H1311 H 0.88942 0.43465 0.00881 0.0
H1312 H 0.8312 0.41042 0.01318 0.0
H1313 H 0.78696 0.41063 0.00534 0.0
H1314 H 0.70577 0.54029 0.06356 0.0
H1315 H 0.7023 0.5188 0.04588 0.0
H1316 H 0.67989 0.58523 0.03363 0.0
H1317 H 0.68306 0.60679 0.05133 0.0
H1318 H 0.63845 0.52417 0.02718 0.0
H1319 H 0.75933 0.55228 0.02039 0.0
H1320 H 0.74517 0.53411 0.03284 0.0
H1321 H 0.74945 0.57187 0.03048 0.0
C1322 C 0.7006 0.5507 0.0571 0.0
C1323 C 0.69467 0.57522 0.05887 0.0
C1324 C 0.69883 0.53854 0.04698 0.0
C1325 C 0.69128 0.55073 0.03842 0.0
C1326 C 0.68599 0.57566 0.04011 0.0
H1327 H 0.69113 0.44185 0.98393 0.0
H1328 H 0.69503 0.48969 0.99157 0.0
C1329 C 0.68786 0.58795 0.05024 0.0
C1330 C 0.68619 0.5353 0.02794 0.0
H1331 H 0.71873 0.50605 0.01105 0.0
C1332 C 0.65622 0.52086 0.02348 0.0
C1333 C 0.70954 0.5317 0.02292 0.0
C1334 C 0.74277 0.54864 0.02685 0.0
C1335 C 0.64819 0.50028 0.01477 0.0
C1336 C 0.67056 0.4937 0.01055 0.0
C1337 C 0.70138 0.51075 0.01433 0.0
C1338 C 0.66146 0.46531 0.00391 0.0
C1339 C 0.6154 0.4846 0.0105 0.0
C1340 C 0.64019 0.43566 0.00798 0.0
C1341 C 0.6381 0.40855 0.00368 0.0
C1342 C 0.65721 0.41057 0.99523 0.0
C1343 C 0.67601 0.43971 0.99041 0.0
C1344 C 0.67834 0.46703 0.9948 0.0
H1345 H 0.60603 0.50059 0.01126 0.0
H1346 H 0.61435 0.47742 1.00213 0.0
H1347 H 0.60002 0.46332 0.01513 0.0
H1348 H 0.62737 0.43365 0.01511 0.0
H1349 H 0.62344 0.38632 0.00753 0.0
H1350 H 0.5839 0.85129 0.89492 0.0
H1351 H 0.56142 0.82796 0.87784 0.0
H1352 H 0.55367 0.90848 0.87087 0.0
H1353 H 0.57531 0.93157 0.88815 0.0
H1354 H 0.50183 0.85616 0.86613 0.0
H1355 H 0.59837 0.84639 0.84908 0.0
H1356 H 0.58743 0.82773 0.86155 0.0
H1357 H 0.60319 0.86958 0.8608 0.0
C1358 C 0.5775 0.8641 0.88975 0.0
C1359 C 0.58134 0.89325 0.89289 0.0
C1360 C 0.56504 0.85092 0.87991 0.0
C1361 C 0.55672 0.86688 0.87291 0.0
C1362 C 0.5603 0.89592 0.87607 0.0
H1363 H 0.43455 0.77515 0.81838 0.0
H1364 H 0.48149 0.81855 0.82685 0.0
C1365 C 0.57247 0.90899 0.88598 0.0
C1366 C 0.54173 0.85178 0.86273 0.0
H1367 H 0.54658 0.80999 0.84186 0.0
C1368 C 0.51199 0.84685 0.86067 0.0
C1369 C 0.55509 0.83983 0.85553 0.0
C1370 C 0.58794 0.84649 0.8568 0.0
C1371 C 0.49425 0.82818 0.8521 0.0
C1372 C 0.50669 0.81425 0.84537 0.0
C1373 C 0.53715 0.82075 0.84703 0.0
C1374 C 0.48617 0.78871 0.8379 0.0
C1375 C 0.46139 0.82157 0.85076 0.0
C1376 C 0.47493 0.75754 0.8408 0.0
C1377 C 0.44822 0.73296 0.83604 0.0
C1378 C 0.43265 0.7392 0.82824 0.0
C1379 C 0.44632 0.76981 0.82435 0.0
C1380 C 0.47296 0.79459 0.82922 0.0
H1381 H 0.45437 0.83205 0.85722 0.0
H1382 H 0.45965 0.83148 0.84325 0.0
H1383 H 0.44455 0.79577 0.85043 0.0
H1384 H 0.48485 0.75253 0.84746 0.0
H1385 H 0.43805 0.70949 0.83915 0.0
H1386 H 0.13909 0.63752 0.89974 0.0
H1387 H 0.16753 0.65082 0.88309 0.0
H1388 H 0.14714 0.72439 0.87861 0.0
H1389 H 0.11818 0.71093 0.89511 0.0
H1390 H 0.14189 0.69066 0.86005 0.0
H1391 H 0.25387 0.72997 0.88047 0.0
H1392 H 0.22427 0.69018 0.88333 0.0
H1393 H 0.21897 0.72214 0.88738 0.0
C1394 C 0.14049 0.6564 0.89519 0.0
C1395 C 0.12668 0.67339 0.89884 0.0
C1396 C 0.15681 0.66403 0.88569 0.0
C1397 C 0.1599 0.68897 0.87971 0.0
C1398 C 0.14515 0.70516 0.88312 0.0
H1399 H 0.31315 0.76601 0.83638 0.0
H1400 H 0.27363 0.76688 0.84758 0.0
C1401 C 0.12871 0.69748 0.89259 0.0
C1402 C 0.17981 0.69914 0.87019 0.0
H1403 H 0.254 0.72461 0.86195 0.0
C1404 C 0.16649 0.69836 0.86044 0.0
C1405 C 0.21203 0.70995 0.87075 0.0
C1406 C 0.22825 0.71346 0.88105 0.0
C1407 C 0.18437 0.70689 0.85118 0.0
C1408 C 0.21623 0.71599 0.85168 0.0
C1409 C 0.22962 0.71775 0.8615 0.0
C1410 C 0.23594 0.7213 0.84222 0.0
C1411 C 0.16897 0.70608 0.84098 0.0
C1412 C 0.2273 0.69686 0.83475 0.0
C1413 C 0.24977 0.69696 0.82807 0.0
C1414 C 0.28119 0.72102 0.82901 0.0
C1415 C 0.28898 0.74736 0.83546 0.0
C1416 C 0.26643 0.74765 0.84195 0.0
H1417 H 0.1494 0.71031 0.84232 0.0
H1418 H 0.18587 0.72391 0.83547 0.0
H1419 H 0.15911 0.6824 0.83723 0.0
H1420 H 0.20417 0.67604 0.83487 0.0
H1421 H 0.24335 0.67614 0.82329 0.0
H1422 H 0.39214 0.48898 0.88748 0.0
H1423 H 0.38376 0.51416 0.87253 0.0
H1424 H 0.28621 0.44191 0.87198 0.0
H1425 H 0.29431 0.41651 0.88675 0.0
H1426 H 0.31402 0.45892 0.85161 0.0
H1427 H 0.33703 0.56223 0.87662 0.0
H1428 H 0.36758 0.55325 0.87632 0.0
H1429 H 0.33052 0.52603 0.88207 0.0
C1430 C 0.36897 0.47837 0.88413 0.0
C1431 C 0.34384 0.45095 0.88839 0.0
C1432 C 0.36422 0.49277 0.87559 0.0
C1433 C 0.33429 0.48002 0.87122 0.0
C1434 C 0.30947 0.4521 0.87523 0.0
H1435 H 0.2642 0.58164 0.84069 0.0
H1436 H 0.26653 0.54009 0.84979 0.0
C1437 C 0.31416 0.43775 0.88373 0.0
C1438 C 0.32808 0.49673 0.86297 0.0
H1439 H 0.32563 0.56317 0.85887 0.0
C1440 C 0.31668 0.48179 0.85315 0.0
C1441 C 0.33117 0.52633 0.86507 0.0
C1442 C 0.34199 0.54289 0.87561 0.0
C1443 C 0.30827 0.49581 0.84537 0.0
C1444 C 0.31142 0.5254 0.8475 0.0
C1445 C 0.32309 0.54036 0.85727 0.0
C1446 C 0.30273 0.54177 0.83988 0.0
C1447 C 0.29543 0.47867 0.83504 0.0
C1448 C 0.32059 0.55474 0.83078 0.0
C1449 C 0.31881 0.57817 0.82542 0.0
C1450 C 0.29963 0.58919 0.82926 0.0
C1451 C 0.27912 0.57348 0.83757 0.0
C1452 C 0.2806 0.5499 0.84282 0.0
H1453 H 0.28881 0.45358 0.83537 0.0
H1454 H 0.27468 0.47978 0.83271 0.0
H1455 H 0.31344 0.49023 0.82887 0.0
H1456 H 0.33802 0.54904 0.82843 0.0
H1457 H 0.33511 0.59019 0.8191 0.0
H1458 H 0.52551 0.90898 0.94275 0.0
H1459 H 0.50407 0.88991 0.96007 0.0
H1460 H 0.58663 0.88818 0.9683 0.0
H1461 H 0.60839 0.90715 0.95078 0.0
H1462 H 0.53228 0.83416 0.97361 0.0
H1463 H 0.52709 0.93713 0.98805 0.0
H1464 H 0.50902 0.92406 0.97541 0.0
H1465 H 0.55018 0.93884 0.9768 0.0
C1466 C 0.53927 0.90465 0.94822 0.0
C1467 C 0.56875 0.9097 0.94537 0.0
C1468 C 0.52708 0.89407 0.95819 0.0
C1469 C 0.54412 0.8885 0.9656 0.0
C1470 C 0.57331 0.89283 0.96275 0.0
H1471 H 0.44594 0.77511 0.02075 0.0
H1472 H 0.49209 0.81817 0.01217 0.0
C1473 C 0.58561 0.90349 0.95273 0.0
C1474 C 0.53002 0.87603 0.97601 0.0
H1475 H 0.49006 0.88697 0.99592 0.0
C1476 C 0.52383 0.84604 0.97868 0.0
C1477 C 0.51924 0.89171 0.98266 0.0
C1478 C 0.52704 0.92487 0.98064 0.0
C1479 C 0.50469 0.8301 0.98726 0.0
C1480 C 0.49178 0.84479 0.99341 0.0
C1481 C 0.49994 0.87574 0.99121 0.0
C1482 C 0.46548 0.82624 1.00069 0.0
C1483 C 0.49634 0.79666 0.98915 0.0
C1484 C 0.43542 0.81843 0.99763 0.0
C1485 C 0.40924 0.79406 1.0025 0.0
C1486 C 0.4127 0.77727 0.01058 0.0
C1487 C 0.44268 0.78779 0.01456 0.0
C1488 C 0.46904 0.81213 0.00959 0.0
H1489 H 0.50582 0.78767 0.98299 0.0
H1490 H 0.50593 0.79555 0.99683 0.0
H1491 H 0.47058 0.78078 0.98942 0.0
H1492 H 0.43214 0.82915 0.99083 0.0
H1493 H 0.38635 0.78641 0.99931 0.0
H1494 H 0.15245 0.69839 0.94899 0.0
H1495 H 0.17648 0.69235 0.96466 0.0
H1496 H 0.09747 0.67742 0.98321 0.0
H1497 H 0.07301 0.68306 0.96755 0.0
H1498 H 0.19243 0.72462 0.98427 0.0
H1499 H 0.10173 0.59771 0.98809 0.0
H1500 H 0.10593 0.61924 0.97635 0.0
H1501 H 0.08838 0.62515 0.98785 0.0
C1502 C 0.14029 0.69416 0.95641 0.0
C1503 C 0.11068 0.69093 0.95699 0.0
C1504 C 0.15406 0.6907 0.96537 0.0
C1505 C 0.13849 0.6839 0.97505 0.0
C1506 C 0.10959 0.68207 0.97577 0.0
H1507 H 0.25752 0.68244 0.02508 0.0
H1508 H 0.21315 0.68602 0.01882 0.0
C1509 C 0.09577 0.6855 0.96681 0.0
C1510 C 0.15234 0.67768 0.98423 0.0
H1511 H 0.14479 0.61821 0.99943 0.0
C1512 C 0.18181 0.70156 0.98775 0.0
C1513 C 0.13831 0.6475 0.98872 0.0
C1514 C 0.10694 0.62077 0.98506 0.0
C1515 C 0.1985 0.69565 0.99522 0.0
C1516 C 0.18506 0.66508 0.9994 0.0
C1517 C 0.15481 0.64168 0.99631 0.0
C1518 C 0.20442 0.65565 0.00521 0.0
C1519 C 0.23135 0.72153 0.99794 0.0
C1520 C 0.2122 0.63516 1.00018 0.0
C1521 C 0.2372 0.63292 0.00377 0.0
C1522 C 0.25475 0.65105 0.01247 0.0
C1523 C 0.24437 0.66825 0.01834 0.0
C1524 C 0.21926 0.67058 0.01471 0.0
H1525 H 0.23959 0.74252 0.99298 0.0
H1526 H 0.23218 0.72906 0.00625 0.0
H1527 H 0.24782 0.7129 0.997 0.0
H1528 H 0.2009 0.62319 0.9929 0.0
H1529 H 0.2446 0.61928 0.99916 0.0
H1530 H 0.30813 0.46699 0.93784 0.0
H1531 H 0.31448 0.49532 0.95449 0.0
H1532 H 0.39172 0.48417 0.96262 0.0
H1533 H 0.38515 0.45527 0.94618 0.0
H1534 H 0.35416 0.47757 0.97984 0.0
H1535 H 0.38711 0.58582 0.95785 0.0
H1536 H 0.34923 0.55308 0.95447 0.0
H1537 H 0.38351 0.55108 0.95162 0.0
C1538 C 0.32621 0.47023 0.94323 0.0
C1539 C 0.34641 0.45927 0.94059 0.0
C1540 C 0.32988 0.48651 0.95272 0.0
C1541 C 0.35399 0.4924 0.9597 0.0
C1542 C 0.37307 0.48003 0.95734 0.0
H1543 H 0.42346 0.65248 1.00158 0.0
H1544 H 0.42405 0.61146 0.99076 0.0
C1545 C 0.36933 0.46362 0.9479 0.0
C1546 C 0.36086 0.51337 0.96904 0.0
H1547 H 0.38099 0.58818 0.97617 0.0
C1548 C 0.36016 0.50182 0.97907 0.0
C1549 C 0.36942 0.54519 0.96799 0.0
C1550 C 0.3727 0.55969 0.9574 0.0
C1551 C 0.367 0.52111 0.98812 0.0
C1552 C 0.37432 0.55257 0.98708 0.0
C1553 C 0.37553 0.56412 0.97701 0.0
C1554 C 0.37919 0.57391 0.99618 0.0
C1555 C 0.36664 0.50773 0.99866 0.0
C1556 C 0.35507 0.56598 0.00348 0.0
C1557 C 0.35528 0.58935 0.00992 0.0
C1558 C 0.37923 0.62091 0.00895 0.0
C1559 C 0.40497 0.6282 1.00254 0.0
C1560 C 0.40512 0.60479 0.99628 0.0
H1561 H 0.37122 0.48808 0.99788 0.0
H1562 H 0.38427 0.52605 0.00405 0.0
H1563 H 0.34322 0.49823 1.00225 0.0
H1564 H 0.33456 0.54254 0.00345 0.0
H1565 H 0.33488 0.58337 0.01465 0.0
H1566 H 0.08478 0.45306 0.44863 0.0
H1567 H 0.10683 0.48515 0.46455 0.0
H1568 H 0.19768 0.50117 0.45619 0.0
H1569 H 0.17598 0.46968 0.44007 0.0
H1570 H 0.1393 0.48326 0.4818 0.0
H1571 H 0.21207 0.58985 0.45832 0.0
H1572 H 0.18137 0.55349 0.45258 0.0
H1573 H 0.21894 0.55841 0.45525 0.0
C1574 C 0.10945 0.46322 0.45019 0.0
C1575 C 0.12876 0.45923 0.44299 0.0
C1576 C 0.12195 0.48146 0.45933 0.0
C1577 C 0.15396 0.49601 0.46145 0.0
C1578 C 0.173 0.49067 0.45458 0.0
H1579 H 0.26677 0.59298 0.51468 0.0
H1580 H 0.22474 0.55118 0.50412 0.0
C1581 C 0.16056 0.4726 0.44539 0.0
C1582 C 0.16775 0.51832 0.47048 0.0
H1583 H 0.22246 0.59448 0.47656 0.0
C1584 C 0.15734 0.50767 0.48069 0.0
C1585 C 0.19066 0.55032 0.46899 0.0
C1586 C 0.20121 0.56383 0.45819 0.0
C1587 C 0.17013 0.52802 0.48948 0.0
C1588 C 0.19426 0.55961 0.488 0.0
C1589 C 0.20391 0.57031 0.47775 0.0
C1590 C 0.21174 0.58184 0.4968 0.0
C1591 C 0.15755 0.51549 0.50022 0.0
C1592 C 0.21748 0.61275 0.49665 0.0
C1593 C 0.24201 0.63672 0.50249 0.0
C1594 C 0.26059 0.62998 0.50877 0.0
C1595 C 0.25228 0.59854 0.51003 0.0
C1596 C 0.22821 0.57461 0.50397 0.0
H1597 H 0.13283 0.49586 0.49978 0.0
H1598 H 0.17139 0.50612 0.50364 0.0
H1599 H 0.15904 0.53421 0.50557 0.0
H1600 H 0.20501 0.6189 0.49122 0.0
H1601 H 0.24831 0.6609 0.50133 0.0
H1602 H 0.5797 0.65372 0.44787 0.0
H1603 H 0.55029 0.64463 0.46415 0.0
H1604 H 0.5344 0.71983 0.45687 0.0
H1605 H 0.56329 0.72874 0.44043 0.0
H1606 H 0.55541 0.68213 0.48179 0.0
H1607 H 0.44629 0.64282 0.45948 0.0
H1608 H 0.48138 0.64822 0.45334 0.0
H1609 H 0.47724 0.68162 0.45619 0.0
C1610 C 0.57016 0.66853 0.44975 0.0
C1611 C 0.57344 0.69168 0.44276 0.0
C1612 C 0.55345 0.66334 0.45909 0.0
C1613 C 0.53973 0.68117 0.46162 0.0
C1614 C 0.54433 0.70539 0.45495 0.0
H1615 H 0.45263 0.70565 0.51518 0.0
H1616 H 0.49222 0.70314 0.50455 0.0
C1617 C 0.56091 0.71051 0.44557 0.0
C1618 C 0.51896 0.67316 0.47088 0.0
H1619 H 0.44448 0.65098 0.47779 0.0
C1620 C 0.53106 0.67506 0.48095 0.0
C1621 C 0.48705 0.66314 0.46974 0.0
C1622 C 0.47209 0.65849 0.4591 0.0
C1623 C 0.51229 0.66846 0.48995 0.0
C1624 C 0.48079 0.66015 0.48883 0.0
C1625 C 0.46858 0.65724 0.47871 0.0
C1626 C 0.46034 0.65689 0.49786 0.0
C1627 C 0.52635 0.6704 0.50055 0.0
C1628 C 0.42958 0.63103 0.49815 0.0
C1629 C 0.40686 0.63278 0.50408 0.0
C1630 C 0.41475 0.66011 0.50998 0.0
C1631 C 0.44621 0.68407 0.51086 0.0
C1632 C 0.46888 0.68264 0.50474 0.0
H1633 H 0.54563 0.66547 0.4999 0.0
H1634 H 0.53631 0.69462 0.50385 0.0
H1635 H 0.50859 0.65361 0.5061 0.0
H1636 H 0.42244 0.61087 0.49294 0.0
H1637 H 0.38262 0.61426 0.50319 0.0
H1638 H 0.32077 0.87624 0.44771 0.0
H1639 H 0.33025 0.85449 0.4633 0.0
H1640 H 0.35302 0.93881 0.48102 0.0
H1641 H 0.34377 0.96089 0.46546 0.0
H1642 H 0.39745 0.92118 0.483 0.0
H1643 H 0.27857 0.8201 0.49011 0.0
H1644 H 0.29088 0.82112 0.47678 0.0
H1645 H 0.28589 0.85241 0.48187 0.0
C1646 C 0.32734 0.89 0.45496 0.0
C1647 C 0.33144 0.92028 0.45533 0.0
C1648 C 0.33263 0.87747 0.46388 0.0
C1649 C 0.34199 0.89489 0.47336 0.0
C1650 C 0.34565 0.92492 0.47381 0.0
H1651 H 0.35245 0.78378 0.52353 0.0
H1652 H 0.34733 0.82699 0.51686 0.0
C1653 C 0.34026 0.93743 0.4649 0.0
C1654 C 0.3498 0.8824 0.48255 0.0
H1655 H 0.32101 0.81723 0.49763 0.0
C1656 C 0.38061 0.89874 0.48635 0.0
C1657 C 0.3277 0.85352 0.4871 0.0
C1658 C 0.29383 0.83592 0.48384 0.0
C1659 C 0.39042 0.88574 0.49402 0.0
C1660 C 0.36895 0.85552 0.49788 0.0
C1661 C 0.33759 0.84035 0.49465 0.0
C1662 C 0.37909 0.83693 0.50385 0.0
C1663 C 0.42391 0.90406 0.49767 0.0
C1664 C 0.39997 0.8294 0.49912 0.0
C1665 C 0.40287 0.80484 0.5029 0.0
C1666 C 0.38488 0.78729 0.51147 0.0
C1667 C 0.36676 0.79711 0.51696 0.0
C1668 C 0.36364 0.82163 0.5131 0.0
H1669 H 0.43342 0.92984 0.49732 0.0
H1670 H 0.42631 0.89805 0.5058 0.0
H1671 H 0.43829 0.89848 0.49239 0.0
H1672 H 0.41176 0.84039 0.49189 0.0
H1673 H 0.41693 0.79765 0.49852 0.0
H1674 H 0.14508 0.41645 0.38942 0.0
H1675 H 0.17632 0.44404 0.37416 0.0
H1676 H 0.13573 0.50258 0.37429 0.0
H1677 H 0.10449 0.47527 0.38973 0.0
H1678 H 0.16108 0.45499 0.3537 0.0
H1679 H 0.23034 0.56489 0.37763 0.0
H1680 H 0.20453 0.5273 0.38348 0.0
H1681 H 0.18886 0.54876 0.37754 0.0
C1682 C 0.14262 0.4351 0.38621 0.0
C1683 C 0.12259 0.44397 0.39089 0.0
C1684 C 0.16036 0.45068 0.37742 0.0
C1685 C 0.15851 0.47548 0.37315 0.0
C1686 C 0.13771 0.48368 0.37755 0.0
H1687 H 0.26374 0.59412 0.32083 0.0
H1688 H 0.22037 0.55006 0.33006 0.0
C1689 C 0.11992 0.4681 0.38637 0.0
C1690 C 0.18032 0.49423 0.36468 0.0
H1691 H 0.24392 0.56653 0.3599 0.0
C1692 C 0.17908 0.47946 0.35499 0.0
C1693 C 0.20397 0.526 0.36647 0.0
C1694 C 0.20732 0.54272 0.37685 0.0
C1695 C 0.20112 0.49572 0.34706 0.0
C1696 C 0.22481 0.52734 0.34892 0.0
C1697 C 0.22568 0.54217 0.35853 0.0
C1698 C 0.25001 0.54579 0.34132 0.0
C1699 C 0.19966 0.47895 0.33688 0.0
C1700 C 0.28095 0.55662 0.34423 0.0
C1701 C 0.30556 0.5818 0.33906 0.0
C1702 C 0.29958 0.59643 0.33087 0.0
C1703 C 0.26892 0.58305 0.32708 0.0
C1704 C 0.24413 0.55795 0.33236 0.0
H1705 H 0.18197 0.45337 0.3371 0.0
H1706 H 0.19361 0.48949 0.33041 0.0
H1707 H 0.22284 0.48203 0.33506 0.0
H1708 H 0.28592 0.54749 0.35111 0.0
H1709 H 0.32903 0.5917 0.34209 0.0
H1710 H 0.56805 0.64707 0.38501 0.0
H1711 H 0.54805 0.65168 0.36805 0.0
H1712 H 0.57577 0.74775 0.37598 0.0
H1713 H 0.59649 0.74365 0.39265 0.0
H1714 H 0.50283 0.6621 0.36401 0.0
H1715 H 0.61009 0.75967 0.34696 0.0
H1716 H 0.61085 0.73901 0.35833 0.0
H1717 H 0.60365 0.77104 0.35973 0.0
C1718 C 0.56998 0.66919 0.38309 0.0
C1719 C 0.58398 0.69503 0.39015 0.0
C1720 C 0.55873 0.67186 0.37338 0.0
C1721 C 0.56127 0.70039 0.37058 0.0
C1722 C 0.57465 0.72591 0.37774 0.0
H1723 H 0.4625 0.76336 0.34013 0.0
H1724 H 0.50493 0.75944 0.34776 0.0
C1725 C 0.58613 0.72337 0.38736 0.0
C1726 C 0.54755 0.70299 0.36064 0.0
H1727 H 0.56103 0.75339 0.34066 0.0
C1728 C 0.51578 0.68151 0.35872 0.0
C1729 C 0.5645 0.7282 0.35367 0.0
C1730 C 0.59925 0.75054 0.35473 0.0
C1731 C 0.49994 0.68603 0.35058 0.0
C1732 C 0.51636 0.71267 0.34415 0.0
C1733 C 0.54853 0.73304 0.34562 0.0
C1734 C 0.49917 0.72205 0.3372 0.0
C1735 C 0.46522 0.66352 0.34936 0.0
C1736 C 0.48367 0.70408 0.3282 0.0
C1737 C 0.45963 0.70664 0.32371 0.0
C1738 C 0.45066 0.72681 0.32833 0.0
C1739 C 0.46893 0.74757 0.33646 0.0
C1740 C 0.49313 0.7453 0.34084 0.0
H1741 H 0.45559 0.64527 0.35549 0.0
H1742 H 0.45271 0.67664 0.34976 0.0
H1743 H 0.46036 0.65149 0.34157 0.0
H1744 H 0.48818 0.68611 0.32526 0.0
H1745 H 0.4458 0.69028 0.31747 0.0
H1746 H 0.35813 0.92933 0.39213 0.0
H1747 H 0.35789 0.90854 0.37451 0.0
H1748 H 0.26944 0.82479 0.38105 0.0
H1749 H 0.26905 0.84581 0.39849 0.0
H1750 H 0.35935 0.85825 0.36905 0.0
H1751 H 0.25106 0.84397 0.3527 0.0
H1752 H 0.2686 0.86648 0.3646 0.0
H1753 H 0.24318 0.82427 0.36496 0.0
C1754 C 0.33856 0.90654 0.38979 0.0
C1755 C 0.31359 0.88921 0.39671 0.0
C1756 C 0.33837 0.89478 0.37969 0.0
C1757 C 0.31325 0.86546 0.37633 0.0
C1758 C 0.28854 0.84797 0.38329 0.0
H1759 H 0.27966 0.71311 0.3409 0.0
H1760 H 0.2742 0.75424 0.3497 0.0
C1761 C 0.28855 0.85984 0.39333 0.0
C1762 C 0.31409 0.85167 0.36594 0.0
H1763 H 0.26845 0.81013 0.34489 0.0
C1764 C 0.33987 0.84853 0.36362 0.0
C1765 C 0.28877 0.83919 0.35879 0.0
C1766 C 0.26154 0.84399 0.36034 0.0
C1767 C 0.33994 0.83108 0.35482 0.0
C1768 C 0.31359 0.81656 0.34811 0.0
C1769 C 0.28863 0.82133 0.35004 0.0
C1770 C 0.30956 0.792 0.34038 0.0
C1771 C 0.36724 0.82633 0.3532 0.0
C1772 C 0.32949 0.79935 0.33168 0.0
C1773 C 0.33232 0.77565 0.32653 0.0
C1774 C 0.31549 0.74465 0.33016 0.0
C1775 C 0.29286 0.7369 0.33799 0.0
C1776 C 0.28977 0.76039 0.34302 0.0
H1777 H 0.38457 0.83696 0.35967 0.0
H1778 H 0.35894 0.8008 0.35259 0.0
H1779 H 0.37924 0.8373 0.34575 0.0
H1780 H 0.3448 0.82365 0.3295 0.0
H1781 H 0.35006 0.78215 0.32054 0.0
H1782 H 0.33283 0.0454 0.11746 0.0
H1783 H 0.29009 0.04892 0.12544 0.0
H1784 H 0.27575 0.08287 0.09644 0.0
H1785 H 0.31893 0.07987 0.08839 0.0
H1786 H 0.27714 0.1181 0.11459 0.0
H1787 H 0.19682 0.98941 0.11956 0.0
H1788 H 0.23506 0.00506 0.12508 0.0
H1789 H 0.23059 0.00519 0.11112 0.0
C1790 C 0.32048 0.0534 0.11273 0.0
C1791 C 0.32919 0.06219 0.10226 0.0
C1792 C 0.296 0.05534 0.11731 0.0
C1793 C 0.27958 0.06585 0.1115 0.0
C1794 C 0.28815 0.07465 0.10105 0.0
H1795 H 0.11945 0.08226 0.11677 0.0
H1796 H 0.17174 0.09199 0.11333 0.0
C1797 C 0.3127 0.07276 0.09645 0.0
C1798 C 0.25353 0.06781 0.11635 0.0
H1799 H 0.18066 0.02294 0.12674 0.0
C1800 C 0.25605 0.09733 0.11727 0.0
C1801 C 0.22619 0.04071 0.11992 0.0
C1802 C 0.22175 0.00824 0.11881 0.0
C1803 C 0.23177 0.10042 0.12161 0.0
C1804 C 0.20415 0.07321 0.12495 0.0
C1805 C 0.20199 0.04383 0.12426 0.0
C1806 C 0.17584 0.07383 0.12813 0.0
C1807 C 0.23589 0.13275 0.12256 0.0
C1808 C 0.16096 0.06103 0.1377 0.0
C1809 C 0.13089 0.05533 0.13968 0.0
C1810 C 0.11519 0.06209 0.13206 0.0
C1811 C 0.13103 0.07691 0.12281 0.0
C1812 C 0.16104 0.08267 0.12085 0.0
H1813 H 0.26099 0.15142 0.12301 0.0
H1814 H 0.22586 0.13703 0.11551 0.0
H1815 H 0.22374 0.13484 0.12959 0.0
H1816 H 0.1719 0.0538 0.14339 0.0
H1817 H 0.11909 0.0433 0.14677 0.0
H1818 H 0.95269 0.25143 0.08596 0.0
H1819 H 0.94845 0.20352 0.09279 0.0
H1820 H 0.9852 0.25078 0.12256 0.0
H1821 H 0.98932 0.29856 0.11588 0.0
H1822 H 0.99682 0.19673 0.10082 0.0
H1823 H 0.90545 0.1688 0.13091 0.0
H1824 H 0.91329 0.19586 0.12043 0.0
H1825 H 0.93843 0.20831 0.13172 0.0
C1826 C 0.95987 0.25163 0.09396 0.0
C1827 C 0.97128 0.27881 0.10038 0.0
C1828 C 0.95733 0.22422 0.09786 0.0
C1829 C 0.9659 0.22343 0.10825 0.0
C1830 C 0.97774 0.25064 0.11461 0.0
H1831 H 0.99233 0.09255 0.14402 0.0
H1832 H 0.98294 0.13442 0.13893 0.0
C1833 C 0.98035 0.27804 0.11072 0.0
C1834 C 0.96395 0.19465 0.11228 0.0
H1835 H 0.93081 0.13922 0.13132 0.0
C1836 C 0.98219 0.184 0.10743 0.0
C1837 C 0.94502 0.17828 0.12097 0.0
C1838 C 0.92421 0.18817 0.12627 0.0
C1839 C 0.98252 0.15774 0.11113 0.0
C1840 C 0.9635 0.14124 0.11978 0.0
C1841 C 0.94523 0.15186 0.12466 0.0
C1842 C 0.96287 0.11313 0.12383 0.0
C1843 C 0.00387 0.14837 0.10589 0.0
C1844 C 0.95292 0.08648 0.11731 0.0
C1845 C 0.95833 0.06269 0.12018 0.0
C1846 C 0.97337 0.06493 0.12969 0.0
C1847 C 0.98047 0.09007 0.13669 0.0
C1848 C 0.9753 0.1141 0.13376 0.0
H1849 H 0.02228 0.16775 0.10116 0.0
H1850 H 0.01532 0.14146 0.11179 0.0
H1851 H 0.98996 0.12787 0.10054 0.0
H1852 H 0.94268 0.085 0.10972 0.0
H1853 H 0.95236 0.04343 0.11467 0.0
H1854 H 0.79515 0.67336 0.09756 0.0
H1855 H 0.83793 0.71965 0.10633 0.0
H1856 H 0.78173 0.76262 0.10816 0.0
H1857 H 0.73898 0.71663 0.09918 0.0
H1858 H 0.83935 0.8025 0.10095 0.0
H1859 H 0.84827 0.74698 0.13693 0.0
H1860 H 0.85086 0.72805 0.12512 0.0
H1861 H 0.81527 0.72739 0.12813 0.0
C1862 C 0.79183 0.69262 0.09985 0.0
C1863 C 0.76366 0.69133 0.09766 0.0
C1864 C 0.81622 0.71893 0.10496 0.0
C1865 C 0.81279 0.7443 0.10811 0.0
C1866 C 0.78476 0.74317 0.10589 0.0
H1867 H 0.93958 0.91292 0.1446 0.0
H1868 H 0.89738 0.85957 0.1398 0.0
C1869 C 0.7604 0.71693 0.10071 0.0
C1870 C 0.83916 0.77289 0.11309 0.0
H1871 H 0.8909 0.79907 0.13353 0.0
C1872 C 0.85044 0.80174 0.10811 0.0
C1873 C 0.8534 0.77195 0.12251 0.0
C1874 C 0.84114 0.74198 0.12855 0.0
C1875 C 0.87603 0.82952 0.11213 0.0
C1876 C 0.89124 0.82834 0.12125 0.0
C1877 C 0.87949 0.79973 0.12644 0.0
C1878 C 0.91932 0.85692 0.12541 0.0
C1879 C 0.88647 0.86002 0.10659 0.0
C1880 C 0.94633 0.87215 0.11923 0.0
C1881 C 0.97029 0.90252 0.12192 0.0
C1882 C 0.96782 0.91798 0.13092 0.0
C1883 C 0.94221 0.90147 0.13767 0.0
C1884 C 0.91802 0.87108 0.13491 0.0
H1885 H 0.86789 0.85828 0.10141 0.0
H1886 H 0.89327 0.87972 0.11232 0.0
H1887 H 0.9071 0.86582 0.10164 0.0
H1888 H 0.94796 0.86133 0.11196 0.0
H1889 H 0.9899 0.91463 0.11662 0.0
H1890 H 0.09323 0.322 0.4281 0.0
H1891 H 0.0956 0.27817 0.41983 0.0
H1892 H 0.04168 0.27831 0.39369 0.0
H1893 H 0.03914 0.32202 0.40185 0.0
H1894 H 0.0436 0.2175 0.41325 0.0
H1895 H 0.12097 0.28451 0.38008 0.0
H1896 H 0.11741 0.30353 0.39182 0.0
H1897 H 0.08731 0.28824 0.38201 0.0
C1898 C 0.08171 0.31259 0.42062 0.0
C1899 C 0.06606 0.32556 0.41563 0.0
C1900 C 0.08321 0.28767 0.41589 0.0
C1901 C 0.06938 0.27554 0.40606 0.0
C1902 C 0.05306 0.28784 0.40118 0.0
H1903 H 0.03619 0.11823 0.36638 0.0
H1904 H 0.04706 0.16997 0.37279 0.0
C1905 C 0.05139 0.31261 0.40592 0.0
C1906 C 0.07111 0.24928 0.40105 0.0
H1907 H 0.09891 0.22903 0.37955 0.0
C1908 C 0.05589 0.22004 0.40593 0.0
C1909 C 0.08698 0.25275 0.39146 0.0
C1910 C 0.10434 0.28399 0.38604 0.0
C1911 C 0.0555 0.19384 0.40138 0.0
C1912 C 0.07156 0.19727 0.39181 0.0
C1913 C 0.08687 0.22658 0.38692 0.0
C1914 C 0.0716 0.17016 0.38671 0.0
C1915 C 0.03701 0.16247 0.40669 0.0
C1916 C 0.08363 0.15425 0.39204 0.0
C1917 C 0.0773 0.12474 0.38844 0.0
C1918 C 0.05946 0.11105 0.37931 0.0
C1919 C 0.05036 0.12849 0.37336 0.0
C1920 C 0.05635 0.15791 0.37706 0.0
H1921 H 0.0199 0.16218 0.4124 0.0
H1922 H 0.0242 0.14306 0.40085 0.0
H1923 H 0.05323 0.15775 0.41105 0.0
H1924 H 0.09607 0.16368 0.39938 0.0
H1925 H 0.08464 0.11174 0.39314 0.0
H1926 H 0.70107 0.73081 0.39931 0.0
H1927 H 0.74323 0.77469 0.38991 0.0
H1928 H 0.75327 0.83822 0.4153 0.0
H1929 H 0.71034 0.79444 0.42469 0.0
H1930 H 0.75226 0.8614 0.39601 0.0
H1931 H 0.83572 0.81904 0.39568 0.0
H1932 H 0.79831 0.79119 0.39017 0.0
H1933 H 0.80139 0.80195 0.40387 0.0
C1934 C 0.71248 0.75401 0.40298 0.0
C1935 C 0.70245 0.75907 0.4128 0.0
C1936 C 0.73665 0.77909 0.39759 0.0
C1937 C 0.75166 0.80966 0.40195 0.0
C1938 C 0.742 0.81478 0.4118 0.0
H1939 H 0.91072 0.98786 0.39101 0.0
H1940 H 0.85818 0.94556 0.39545 0.0
C1941 C 0.71761 0.78972 0.41718 0.0
C1942 C 0.77702 0.8364 0.39616 0.0
H1943 H 0.84945 0.86389 0.38566 0.0
C1944 C 0.77351 0.86194 0.39373 0.0
C1945 C 0.80463 0.83697 0.39313 0.0
C1946 C 0.81046 0.81098 0.39592 0.0
C1947 C 0.79704 0.88818 0.38844 0.0
C1948 C 0.82477 0.8889 0.38556 0.0
C1949 C 0.82794 0.86305 0.38775 0.0
C1950 C 0.85242 0.91752 0.38146 0.0
C1951 C 0.79218 0.91501 0.38603 0.0
C1952 C 0.86621 0.91632 0.37193 0.0
C1953 C 0.89626 0.94069 0.36934 0.0
C1954 C 0.91299 0.96622 0.37634 0.0
C1955 C 0.89818 0.96849 0.38546 0.0
C1956 C 0.86811 0.94437 0.38798 0.0
H1957 H 0.76697 0.90719 0.38586 0.0
H1958 H 0.80351 0.93357 0.39222 0.0
H1959 H 0.80282 0.92559 0.37837 0.0
H1960 H 0.85455 0.89563 0.36685 0.0
H1961 H 0.9074 0.9381 0.36238 0.0
H1962 H 0.23693 0.93856 0.42128 0.0
H1963 H 0.18991 0.93428 0.4138 0.0
H1964 H 0.24154 0.98131 0.38603 0.0
H1965 H 0.28844 0.98538 0.39336 0.0
H1966 H 0.18108 0.98242 0.4076 0.0
H1967 H 0.16487 0.90298 0.37379 0.0
H1968 H 0.19028 0.90892 0.38468 0.0
H1969 H 0.20311 0.93766 0.37454 0.0
C1970 C 0.23829 0.94802 0.41359 0.0
C1971 C 0.26644 0.96225 0.40791 0.0
C1972 C 0.21138 0.94544 0.40931 0.0
C1973 C 0.21207 0.95685 0.39926 0.0
C1974 C 0.24026 0.97159 0.39367 0.0
H1975 H 0.08822 0.99275 0.3637 0.0
H1976 H 0.12925 0.98238 0.3688 0.0
C1977 C 0.26714 0.97417 0.39793 0.0
C1978 C 0.18374 0.95478 0.39483 0.0
H1979 H 0.13389 0.92693 0.37385 0.0
C1980 C 0.17058 0.97003 0.40028 0.0
C1981 C 0.17021 0.93873 0.38524 0.0
C1982 C 0.18263 0.92088 0.37925 0.0
C1983 C 0.14471 0.97033 0.39629 0.0
C1984 C 0.13122 0.9544 0.38668 0.0
C1985 C 0.14424 0.939 0.38123 0.0
C1986 C 0.10401 0.95436 0.38218 0.0
C1987 C 0.13252 0.98845 0.40226 0.0
C1988 C 0.07561 0.94046 0.38764 0.0
C1989 C 0.05223 0.94629 0.38474 0.0
C1990 C 0.05671 0.96573 0.37623 0.0
C1991 C 0.08394 0.97718 0.37016 0.0
C1992 C 0.10748 0.97149 0.37312 0.0
H1993 H 0.14959 0.00503 0.40817 0.0
H1994 H 0.12684 0.00203 0.39684 0.0
H1995 H 0.11081 0.97165 0.40645 0.0
H1996 H 0.07234 0.92679 0.39456 0.0
H1997 H 0.03147 0.93727 0.38956 0.0
H1998 H 0.72279 0.97138 0.91359 0.0
H1999 H 0.76994 0.97969 0.90459 0.0
H2000 H 0.73895 0.00025 0.87604 0.0
H2001 H 0.69232 0.99285 0.88502 0.0
H2002 H 0.77557 0.94868 0.88754 0.0
H2003 H 0.82674 0.0753 0.87877 0.0
H2004 H 0.79466 0.05475 0.88778 0.0
H2005 H 0.78784 0.04998 0.87386 0.0
C2006 C 0.72614 0.9779 0.90542 0.0
C2007 C 0.70395 0.98173 0.90005 0.0
C2008 C 0.75303 0.98256 0.90028 0.0
C2009 C 0.75819 0.99105 0.88968 0.0
C2010 C 0.73586 0.99446 0.88428 0.0
H2011 H 0.91133 0.9804 0.85863 0.0
H2012 H 0.85992 0.9754 0.86024 0.0
C2013 C 0.70913 0.99008 0.88942 0.0
C2014 C 0.78671 0.99579 0.88429 0.0
H2015 H 0.85343 0.05085 0.87211 0.0
C2016 C 0.79253 0.97094 0.8841 0.0
C2017 C 0.80874 0.02487 0.8798 0.0
C2018 C 0.80442 0.05287 0.88012 0.0
C2019 C 0.82026 0.97466 0.87988 0.0
C2020 C 0.84248 0.00386 0.87548 0.0
C2021 C 0.83616 0.02837 0.87535 0.0
C2022 C 0.87426 0.01094 0.87259 0.0
C2023 C 0.82626 0.94787 0.88071 0.0
C2024 C 0.89974 0.03403 0.87843 0.0
C2025 C 0.92898 0.03721 0.87736 0.0
C2026 C 0.9334 0.01748 0.8704 0.0
C2027 C 0.90864 0.9962 0.8639 0.0
C2028 C 0.87918 0.99301 0.86496 0.0
H2029 H 0.80926 0.92915 0.88597 0.0
H2030 H 0.82427 0.9371 0.87282 0.0
H2031 H 0.85018 0.95655 0.88371 0.0
H2032 H 0.89658 0.04824 0.88432 0.0
H2033 H 0.94776 0.0539 0.88245 0.0
H2034 H 0.06378 0.76379 0.92521 0.0
H2035 H 0.05313 0.80337 0.91865 0.0
H2036 H 0.99414 0.73815 0.89444 0.0
H2037 H 0.00435 0.69833 0.90098 0.0
H2038 H 0.06717 0.82763 0.89821 0.0
H2039 H 0.94063 0.77198 0.9071 0.0
H2040 H 0.96516 0.75989 0.91319 0.0
H2041 H 0.95142 0.74728 0.9 0.0
C2042 C 0.04818 0.75769 0.91859 0.0
C2043 C 0.03491 0.72792 0.91362 0.0
C2044 C 0.0422 0.78035 0.91483 0.0
C2045 C 0.02268 0.77356 0.90612 0.0
C2046 C 0.00887 0.74367 0.90128 0.0
H2047 H 0.02026 0.91777 0.86827 0.0
H2048 H 0.02243 0.87172 0.87367 0.0
C2049 C 0.01486 0.721 0.90501 0.0
C2050 C 0.01823 0.79837 0.90173 0.0
H2051 H 0.96341 0.81804 0.8969 0.0
C2052 C 0.0445 0.82557 0.89791 0.0
C2053 C 0.98862 0.79553 0.90139 0.0
C2054 C 0.95983 0.76724 0.90571 0.0
C2055 C 0.04199 0.85017 0.89378 0.0
C2056 C 0.01234 0.84722 0.89334 0.0
C2057 C 0.98603 0.81999 0.89714 0.0
C2058 C 0.00861 0.87324 0.88971 0.0
C2059 C 0.07121 0.8795 0.89021 0.0
C2060 C -0.00088 0.88857 0.89685 0.0
C2061 C -0.00222 0.91469 0.89381 0.0
C2062 C 0.00578 0.92595 0.88353 0.0
C2063 C 0.01412 0.90979 0.87626 0.0
C2064 C 0.01551 0.88359 0.87933 0.0
H2065 H 0.09273 0.88054 0.89298 0.0
H2066 H 0.07174 0.87977 0.88151 0.0
H2067 H 0.0715 0.90097 0.89308 0.0
H2068 H 0.9936 0.88084 0.90489 0.0
H2069 H 0.99106 0.92645 0.8996 0.0
H2070 H 0.32772 0.32893 0.89864 0.0
H2071 H 0.28857 0.28034 0.88972 0.0
H2072 H 0.2197 0.26967 0.91257 0.0
H2073 H 0.25851 0.31835 0.92149 0.0
H2074 H 0.25087 0.21822 0.89701 0.0
H2075 H 0.17973 0.26799 0.8843 0.0
H2076 H 0.21927 0.2923 0.88905 0.0
H2077 H 0.18743 0.27267 0.89814 0.0
C2078 C 0.30429 0.31615 0.90182 0.0
C2079 C 0.29615 0.32768 0.91074 0.0
C2080 C 0.28198 0.28842 0.8967 0.0
C2081 C 0.25114 0.27185 0.90036 0.0
C2082 C 0.24325 0.28256 0.90949 0.0
H2083 H 0.08196 0.1038 0.89521 0.0
H2084 H 0.1292 0.1543 0.89859 0.0
C2085 C 0.26552 0.31025 0.91463 0.0
C2086 C 0.227 0.24343 0.89465 0.0
H2087 H 0.15486 0.21163 0.88352 0.0
C2088 C 0.23014 0.21689 0.89387 0.0
C2089 C 0.20021 0.24199 0.89042 0.0
C2090 C 0.19653 0.27036 0.89041 0.0
C2091 C 0.20611 0.18824 0.88961 0.0
C2092 C 0.17853 0.18633 0.88604 0.0
C2093 C 0.17613 0.21329 0.88628 0.0
C2094 C 0.15023 0.15571 0.88357 0.0
C2095 C 0.20942 0.15966 0.8895 0.0
C2096 C 0.14642 0.13993 0.87392 0.0
C2097 C 0.11912 0.11083 0.8719 0.0
C2098 C 0.09554 0.0972 0.87954 0.0
C2099 C 0.09966 0.11341 0.88915 0.0
C2100 C 0.12663 0.14235 0.89112 0.0
H2101 H 0.23246 0.16508 0.89254 0.0
H2102 H 0.19073 0.141 0.89436 0.0
H2103 H 0.20652 0.15007 0.88137 0.0
H2104 H 0.16448 0.15008 0.86799 0.0
H2105 H 0.11663 0.09894 0.86445 0.0
H2106 H 0.98388 0.71357 0.59642 0.0
H2107 H 0.9864 0.76013 0.60439 0.0
H2108 H 0.88583 0.71037 0.6061 0.0
H2109 H 0.88313 0.66338 0.59839 0.0
H2110 H 0.96408 0.79512 0.59753 0.0
H2111 H 0.90931 0.74459 0.63578 0.0
H2112 H 0.92187 0.72487 0.62669 0.0
H2113 H 0.88529 0.72289 0.62473 0.0
C2114 C 0.96228 0.71252 0.59848 0.0
C2115 C 0.9333 0.68475 0.5968 0.0
C2116 C 0.96376 0.73912 0.60307 0.0
C2117 C 0.93633 0.73854 0.60605 0.0
C2118 C 0.90733 0.71109 0.60415 0.0
H2119 H 0.93609 0.91184 0.61579 0.0
H2120 H 0.92123 0.85804 0.61065 0.0
C2121 C 0.90583 0.68436 0.59964 0.0
C2122 C 0.93823 0.76716 0.61073 0.0
H2123 H 0.91791 0.79546 0.63215 0.0
C2124 C 0.95402 0.79517 0.60511 0.0
C2125 C 0.92543 0.76729 0.62069 0.0
C2126 C 0.90979 0.73839 0.62738 0.0
C2127 C 0.95725 0.82326 0.60911 0.0
C2128 C 0.94346 0.82317 0.61888 0.0
C2129 C 0.92796 0.79529 0.62459 0.0
C2130 C 0.94613 0.85232 0.62335 0.0
C2131 C 0.97615 0.85297 0.60292 0.0
C2132 C 0.96287 0.86588 0.63268 0.0
C2133 C 0.97088 0.89645 0.63576 0.0
C2134 C 0.96236 0.91379 0.62949 0.0
C2135 C 0.94321 0.89906 0.62069 0.0
C2136 C 0.93487 0.86843 0.61772 0.0
H2137 H 0.99175 0.85072 0.59715 0.0
H2138 H 0.96008 0.85778 0.59852 0.0
H2139 H 0.99068 0.87351 0.6082 0.0
H2140 H 0.97156 0.8537 0.63719 0.0
H2141 H 0.98581 0.90733 0.64254 0.0
H2142 H 0.30983 0.2343 0.5808 0.0
H2143 H 0.26708 0.19017 0.59012 0.0
H2144 H 0.28016 0.25199 0.61644 0.0
H2145 H 0.3222 0.29625 0.60712 0.0
H2146 H 0.26848 0.16485 0.60894 0.0
H2147 H 0.18743 0.21008 0.61138 0.0
H2148 H 0.22126 0.22719 0.60296 0.0
H2149 H 0.22539 0.23675 0.61676 0.0
C2150 C 0.30331 0.23858 0.58851 0.0
C2151 C 0.31925 0.26887 0.59317 0.0
C2152 C 0.279 0.21331 0.59385 0.0
C2153 C 0.27019 0.21785 0.60393 0.0
C2154 C 0.28607 0.24805 0.60859 0.0
H2155 H 0.11625 0.0878 0.64393 0.0
H2156 H 0.1686 0.13036 0.63908 0.0
C2157 C 0.31017 0.27334 0.60324 0.0
C2158 C 0.24477 0.19089 0.60964 0.0
H2159 H 0.17315 0.16397 0.62075 0.0
C2160 C 0.24765 0.16466 0.61154 0.0
C2161 C 0.21769 0.19076 0.61308 0.0
C2162 C 0.21253 0.21755 0.61087 0.0
C2163 C 0.22401 0.1382 0.61671 0.0
C2164 C 0.1968 0.13793 0.62 0.0
C2165 C 0.19426 0.16443 0.61833 0.0
C2166 C 0.16906 0.10931 0.62408 0.0
C2167 C 0.22824 0.11067 0.61857 0.0
C2168 C 0.15254 0.0829 0.61743 0.0
C2169 C 0.12272 0.05868 0.62016 0.0
C2170 C 0.10891 0.06041 0.62962 0.0
C2171 C 0.12647 0.08559 0.63667 0.0
C2172 C 0.15628 0.11004 0.63388 0.0
H2173 H 0.2533 0.11789 0.61845 0.0
H2174 H 0.21795 0.0996 0.6262 0.0
H2175 H 0.21617 0.09266 0.61225 0.0
H2176 H 0.16172 0.08208 0.60977 0.0
H2177 H 0.10966 0.03958 0.61457 0.0
H2178 H 0.79169 0.09234 0.58802 0.0
H2179 H 0.83632 0.09294 0.5961 0.0
H2180 H 0.78278 0.05445 0.62433 0.0
H2181 H 0.7381 0.05327 0.61632 0.0
H2182 H 0.86886 0.12404 0.61491 0.0
H2183 H 0.81355 0.9941 0.61712 0.0
H2184 H 0.79798 0.01237 0.60909 0.0
H2185 H 0.79124 0.00951 0.62301 0.0
C2186 C 0.78935 0.08376 0.59591 0.0
C2187 C 0.76124 0.07251 0.60149 0.0
C2188 C 0.8149 0.08428 0.60054 0.0
C2189 C 0.81271 0.07343 0.61077 0.0
C2190 C 0.78478 0.06242 0.61636 0.0
H2191 H 0.94018 0.03937 0.64622 0.0
H2192 H 0.89999 0.05228 0.64272 0.0
C2193 C 0.75927 0.06182 0.61176 0.0
C2194 C 0.83957 0.07355 0.61562 0.0
H2195 H 0.86268 0.02505 0.62525 0.0
C2196 C 0.86755 0.10243 0.61719 0.0
C2197 C 0.83768 0.04534 0.61866 0.0
C2198 C 0.80862 0.01352 0.61682 0.0
C2199 C 0.89378 0.1038 0.62169 0.0
C2200 C 0.89204 0.07552 0.62454 0.0
C2201 C 0.86386 0.04675 0.62317 0.0
C2202 C 0.9198 0.07453 0.62791 0.0
C2203 C 0.9231 0.13546 0.62334 0.0
C2204 C 0.94483 0.08378 0.62095 0.0
C2205 C 0.96783 0.0766 0.62296 0.0
C2206 C 0.96621 0.05997 0.63197 0.0
C2207 C 0.94241 0.05274 0.63932 0.0
C2208 C 0.91927 0.05985 0.63728 0.0
H2209 H 0.91782 0.15464 0.62402 0.0
H2210 H 0.93576 0.13585 0.6305 0.0
H2211 H 0.93879 0.14044 0.6165 0.0
H2212 H 0.94544 0.09456 0.61358 0.0
H2213 H 0.98586 0.08236 0.61714 0.0
H2214 H 0.97619 0.37533 0.4466 0.0
H2215 H 0.93382 0.38172 0.45333 0.0
H2216 H 0.94019 0.43454 0.42603 0.0
H2217 H 0.98249 0.42796 0.41913 0.0
H2218 H 0.93345 0.43787 0.45797 0.0
H2219 H 0.84775 0.36428 0.42691 0.0
H2220 H 0.88318 0.3639 0.42906 0.0
H2221 H 0.88447 0.39592 0.42226 0.0
C2222 C 0.9685 0.38816 0.44197 0.0
C2223 C 0.98257 0.40094 0.43228 0.0
C2224 C 0.9444 0.39193 0.44587 0.0
C2225 C 0.93377 0.40842 0.44015 0.0
C2226 C 0.94781 0.42137 0.4305 0.0
H2227 H 0.76928 0.4216 0.44957 0.0
H2228 H 0.82218 0.43593 0.44446 0.0
C2229 C 0.97195 0.41758 0.42657 0.0
C2230 C 0.90759 0.41145 0.44426 0.0
H2231 H 0.83178 0.38861 0.43943 0.0
C2232 C 0.91123 0.42728 0.45391 0.0
C2233 C 0.87868 0.39756 0.43894 0.0
C2234 C 0.87303 0.37922 0.42876 0.0
C2235 C 0.88662 0.42955 0.45838 0.0
C2236 C 0.85756 0.41522 0.45313 0.0
C2237 C 0.85417 0.39984 0.44341 0.0
C2238 C 0.82954 0.41397 0.45771 0.0
C2239 C 0.89197 0.44736 0.46864 0.0
C2240 C 0.81671 0.39827 0.46715 0.0
C2241 C 0.78655 0.39038 0.47015 0.0
C2242 C 0.7687 0.39769 0.46367 0.0
C2243 C 0.78255 0.41563 0.4547 0.0
C2244 C 0.81273 0.42378 0.45176 0.0
H2245 H 0.91715 0.46487 0.46991 0.0
H2246 H 0.87875 0.45976 0.46897 0.0
H2247 H 0.88391 0.4305 0.47518 0.0
H2248 H 0.82896 0.38991 0.47177 0.0
H2249 H 0.77626 0.37609 0.47701 0.0
H2250 H 0.60088 0.57136 0.41835 0.0
H2251 H 0.59326 0.52252 0.42566 0.0
H2252 H 0.63955 0.57269 0.45417 0.0
H2253 H 0.6471 0.62137 0.447 0.0
H2254 H 0.64022 0.51186 0.43262 0.0
H2255 H 0.5585 0.49627 0.46495 0.0
H2256 H 0.56584 0.52207 0.45411 0.0
H2257 H 0.59334 0.53455 0.46472 0.0
C2258 C 0.6094 0.57198 0.42617 0.0
C2259 C 0.62457 0.60026 0.43209 0.0
C2260 C 0.60492 0.54405 0.43036 0.0
C2261 C 0.61524 0.54389 0.44054 0.0
C2262 C 0.63069 0.57213 0.4464 0.0
H2263 H 0.64439 0.41803 0.47726 0.0
H2264 H 0.6336 0.45865 0.47184 0.0
C2265 C 0.63527 0.60002 0.44223 0.0
C2266 C 0.61167 0.51467 0.44483 0.0
H2267 H 0.58122 0.46408 0.46531 0.0
C2268 C 0.62701 0.50117 0.43969 0.0
C2269 C 0.59464 0.50101 0.45412 0.0
C2270 C 0.5769 0.51402 0.45976 0.0
C2271 C 0.62656 0.47487 0.44374 0.0
C2272 C 0.60962 0.4612 0.45305 0.0
C2273 C 0.59402 0.47451 0.45816 0.0
C2274 C 0.60905 0.43374 0.45766 0.0
C2275 C 0.64519 0.46264 0.43819 0.0
C2276 C 0.59692 0.40545 0.45187 0.0
C2277 C 0.60322 0.38241 0.4549 0.0
C2278 C 0.62129 0.38707 0.46388 0.0
C2279 C 0.63026 0.41374 0.47034 0.0
C2280 C 0.62426 0.43704 0.46722 0.0
H2281 H 0.66262 0.48013 0.43271 0.0
H2282 H 0.65765 0.45643 0.44392 0.0
H2283 H 0.62911 0.44109 0.43357 0.0
H2284 H 0.58453 0.40219 0.44459 0.0
H2285 H 0.59581 0.36192 0.44983 0.0
H2286 H 0.40281 0.04694 0.43288 0.0
H2287 H 0.44934 0.09364 0.43995 0.0
H2288 H 0.49671 0.04162 0.44133 0.0
H2289 H 0.45009 0.99461 0.43444 0.0
H2290 H 0.5048 0.07715 0.45942 0.0
H2291 H 0.52975 0.14914 0.42396 0.0
H2292 H 0.49091 0.13399 0.42889 0.0
H2293 H 0.5024 0.10721 0.42389 0.0
C2294 C 0.42319 0.04547 0.43461 0.0
C2295 C 0.42282 0.01712 0.43302 0.0
C2296 C 0.44978 0.0722 0.43864 0.0
C2297 C 0.47661 0.07119 0.44104 0.0
C2298 C 0.47627 0.04291 0.43951 0.0
H2299 H 0.65302 0.24519 0.44956 0.0
H2300 H 0.61453 0.19058 0.44486 0.0
C2301 C 0.44965 0.01612 0.43553 0.0
C2302 C 0.50501 0.09967 0.44513 0.0
H2303 H 0.55775 0.17611 0.43942 0.0
C2304 C 0.51659 0.09876 0.45503 0.0
C2305 C 0.52062 0.12764 0.43932 0.0
C2306 C 0.51051 0.12956 0.42838 0.0
C2307 C 0.54293 0.12544 0.4594 0.0
C2308 C 0.55767 0.1538 0.45376 0.0
C2309 C 0.54644 0.15439 0.44377 0.0
C2310 C 0.58418 0.18367 0.45806 0.0
C2311 C 0.55482 0.12289 0.46993 0.0
C2312 C 0.58071 0.19745 0.46734 0.0
C2313 C 0.60303 0.22857 0.47013 0.0
C2314 C 0.62877 0.24646 0.46357 0.0
C2315 C 0.63333 0.23191 0.45473 0.0
C2316 C 0.61131 0.20075 0.45203 0.0
H2317 H 0.54772 0.09814 0.47157 0.0
H2318 H 0.58067 0.13776 0.47039 0.0
H2319 H 0.54474 0.13099 0.47616 0.0
H2320 H 0.55972 0.18502 0.47201 0.0
H2321 H 0.59869 0.23938 0.47689 0.0
H2322 H 0.70703 0.65357 0.74147 0.0
H2323 H 0.70741 0.60707 0.73484 0.0
H2324 H 0.80757 0.6624 0.73157 0.0
H2325 H 0.80739 0.70915 0.73801 0.0
H2326 H 0.77886 0.6243 0.71422 0.0
H2327 H 0.73586 0.55604 0.75073 0.0
H2328 H 0.71066 0.56899 0.74606 0.0
H2329 H 0.7496 0.59758 0.75035 0.0
C2330 C 0.72917 0.65581 0.73942 0.0
C2331 C 0.7572 0.68503 0.74034 0.0
C2332 C 0.72936 0.6292 0.73565 0.0
C2333 C 0.75758 0.63119 0.73285 0.0
C2334 C 0.78556 0.66033 0.73372 0.0
H2335 H 0.76222 0.45956 0.72471 0.0
H2336 H 0.77792 0.51398 0.72927 0.0
C2337 C 0.78539 0.68699 0.73744 0.0
C2338 C 0.75783 0.60293 0.72894 0.0
H2339 H 0.73573 0.52782 0.73536 0.0
C2340 C 0.76968 0.60325 0.71886 0.0
C2341 C 0.74638 0.57573 0.73507 0.0
C2342 C 0.7352 0.57458 0.74619 0.0
C2343 C 0.76947 0.57668 0.71464 0.0
C2344 C 0.75657 0.54896 0.72059 0.0
C2345 C 0.74553 0.54902 0.73077 0.0
C2346 C 0.75302 0.51907 0.71641 0.0
C2347 C 0.78323 0.57866 0.7039 0.0
C2348 C 0.73491 0.50428 0.70741 0.0
C2349 C 0.72637 0.47333 0.7047 0.0
C2350 C 0.73545 0.45662 0.71104 0.0
C2351 C 0.7551 0.47206 0.71966 0.0
C2352 C 0.76396 0.50307 0.72229 0.0
H2353 H 0.80082 0.60339 0.70194 0.0
H2354 H 0.79445 0.5643 0.70332 0.0
H2355 H 0.76435 0.56964 0.69795 0.0
H2356 H 0.72555 0.5158 0.70289 0.0
H2357 H 0.71056 0.46167 0.69817 0.0
H2358 H 0.37399 0.08468 0.73767 0.0
H2359 H 0.41826 0.12835 0.72874 0.0
H2360 H 0.42199 0.1931 0.75265 0.0
H2361 H 0.37787 0.14966 0.76168 0.0
H2362 H 0.4223 0.18532 0.72108 0.0
H2363 H 0.51207 0.20916 0.75111 0.0
H2364 H 0.47494 0.17264 0.75044 0.0
H2365 H 0.47745 0.20741 0.75609 0.0
C2366 C 0.38443 0.10815 0.7411 0.0
C2367 C 0.3725 0.11365 0.75043 0.0
C2368 C 0.40958 0.13308 0.73594 0.0
C2369 C 0.42342 0.16386 0.74006 0.0
C2370 C 0.41179 0.16942 0.74941 0.0
H2371 H 0.58678 0.34111 0.72546 0.0
H2372 H 0.53475 0.30128 0.73143 0.0
C2373 C 0.38659 0.14455 0.75455 0.0
C2374 C 0.45004 0.19025 0.73461 0.0
H2375 H 0.52718 0.24573 0.73749 0.0
C2376 C 0.44529 0.19856 0.72463 0.0
C2377 C 0.47993 0.20734 0.73927 0.0
C2378 C 0.48663 0.19861 0.74977 0.0
C2379 C 0.46963 0.2241 0.71928 0.0
C2380 C 0.49949 0.24134 0.724 0.0
C2381 C 0.50418 0.23273 0.73393 0.0
C2382 C 0.52674 0.268 0.71881 0.0
C2383 C 0.46306 0.23279 0.70876 0.0
C2384 C 0.53881 0.26323 0.70941 0.0
C2385 C 0.56842 0.28628 0.70588 0.0
C2386 C 0.58642 0.31412 0.71181 0.0
C2387 C 0.57326 0.31987 0.72073 0.0
C2388 C 0.54362 0.29708 0.72417 0.0
H2389 H 0.4377 0.2233 0.70762 0.0
H2390 H 0.47582 0.25875 0.70788 0.0
H2391 H 0.47098 0.22269 0.70247 0.0
H2392 H 0.5265 0.24078 0.70524 0.0
H2393 H 0.57835 0.28103 0.69911 0.0
H2394 H 0.94998 0.3169 0.72769 0.0
H2395 H 0.90338 0.31449 0.72079 0.0
H2396 H 0.8496 0.25783 0.74685 0.0
H2397 H 0.89624 0.26034 0.75391 0.0
H2398 H 0.84457 0.26066 0.71503 0.0
H2399 H 0.83428 0.332 0.74736 0.0
H2400 H 0.86933 0.3307 0.74516 0.0
H2401 H 0.83619 0.29856 0.75143 0.0
C2402 C 0.9283 0.30405 0.73201 0.0
C2403 C 0.92689 0.28901 0.74141 0.0
C2404 C 0.90166 0.30256 0.72801 0.0
C2405 C 0.87314 0.28618 0.73334 0.0
C2406 C 0.87152 0.27095 0.74269 0.0
H2407 H 0.69912 0.28037 0.72437 0.0
H2408 H 0.73657 0.26494 0.72913 0.0
C2409 C 0.89819 0.27241 0.74671 0.0
C2410 C 0.84527 0.28558 0.72919 0.0
H2411 H 0.7946 0.31073 0.73459 0.0
C2412 C 0.8335 0.27148 0.7193 0.0
C2413 C 0.831 0.29978 0.73478 0.0
C2414 C 0.84342 0.31637 0.74523 0.0
C2415 C 0.80762 0.27105 0.71489 0.0
C2416 C 0.79355 0.28553 0.72045 0.0
C2417 C 0.80523 0.29937 0.73037 0.0
C2418 C 0.76759 0.28814 0.71608 0.0
C2419 C 0.79541 0.25487 0.70438 0.0
C2420 C 0.77184 0.30506 0.70689 0.0
C2421 C 0.75016 0.31352 0.70408 0.0
C2422 C 0.72421 0.30548 0.7105 0.0
C2423 C 0.71889 0.28669 0.71927 0.0
C2424 C 0.74031 0.27797 0.722 0.0
H2425 H 0.80223 0.23712 0.70271 0.0
H2426 H 0.76957 0.24305 0.704 0.0
H2427 H 0.80547 0.27269 0.69814 0.0
H2428 H 0.79302 0.31377 0.70232 0.0
H2429 H 0.75519 0.3287 0.69745 0.0
H2430 H 0.35391 0.25809 0.24564 0.0
H2431 H 0.39642 0.25315 0.23825 0.0
H2432 H 0.46289 0.34783 0.24883 0.0
H2433 H 0.42028 0.35335 0.25599 0.0
H2434 H 0.47213 0.33828 0.22869 0.0
H2435 H 0.46049 0.23984 0.25212 0.0
H2436 H 0.42517 0.23048 0.24548 0.0
H2437 H 0.44074 0.26067 0.25558 0.0
C2438 C 0.3776 0.27777 0.24653 0.0
C2439 C 0.38372 0.30615 0.25142 0.0
C2440 C 0.40192 0.2748 0.24234 0.0
C2441 C 0.43289 0.29993 0.24311 0.0
C2442 C 0.43914 0.32808 0.24817 0.0
H2443 H 0.60587 0.30853 0.23284 0.0
H2444 H 0.55612 0.29965 0.23937 0.0
C2445 C 0.41479 0.33119 0.25228 0.0
C2446 C 0.4586 0.29764 0.23809 0.0
H2447 H 0.49504 0.25525 0.23755 0.0
C2448 C 0.47717 0.32014 0.23063 0.0
C2449 C 0.46515 0.27398 0.24065 0.0
C2450 C 0.44704 0.25005 0.24897 0.0
C2451 C 0.50239 0.31997 0.22577 0.0
C2452 C 0.50866 0.29601 0.2282 0.0
C2453 C 0.48988 0.27328 0.23558 0.0
C2454 C 0.53656 0.29622 0.224 0.0
C2455 C 0.52281 0.34624 0.21841 0.0
C2456 C 0.54157 0.29566 0.21315 0.0
C2457 C 0.5703 0.3011 0.20935 0.0
C2458 C 0.59431 0.30681 0.21636 0.0
C2459 C 0.58809 0.30457 0.2272 0.0
C2460 C 0.55957 0.29943 0.23097 0.0
H2461 H 0.51911 0.36645 0.21929 0.0
H2462 H 0.5479 0.35494 0.21979 0.0
H2463 H 0.51712 0.3373 0.21019 0.0
H2464 H 0.52375 0.2923 0.20763 0.0
H2465 H 0.57405 0.30223 0.20096 0.0
H2466 H 0.70077 0.06495 0.2224 0.0
H2467 H 0.70541 0.11055 0.21371 0.0
H2468 H 0.76619 0.17151 0.23841 0.0
H2469 H 0.76141 0.1258 0.24727 0.0
H2470 H 0.71901 0.18257 0.23346 0.0
H2471 H 0.77934 0.17829 0.19723 0.0
H2472 H 0.74401 0.14193 0.20002 0.0
H2473 H 0.77671 0.15675 0.20882 0.0
C2474 C 0.71517 0.08803 0.22601 0.0
C2475 C 0.73077 0.09173 0.23554 0.0
C2476 C 0.71804 0.11413 0.22095 0.0
C2477 C 0.73674 0.14449 0.22528 0.0
C2478 C 0.75193 0.14827 0.23488 0.0
H2479 H 0.76913 0.32806 0.21191 0.0
H2480 H 0.77836 0.28546 0.2158 0.0
C2481 C 0.74906 0.12214 0.23996 0.0
C2482 C 0.73893 0.17206 0.22008 0.0
H2483 H 0.75984 0.21331 0.19729 0.0
C2484 C 0.72817 0.18942 0.22559 0.0
C2485 C 0.75071 0.18081 0.20977 0.0
C2486 C 0.76362 0.16367 0.20363 0.0
C2487 C 0.72837 0.21498 0.22102 0.0
C2488 C 0.74015 0.22378 0.21072 0.0
C2489 C 0.75091 0.20648 0.20518 0.0
C2490 C 0.74119 0.25107 0.2058 0.0
C2491 C 0.71549 0.23214 0.2272 0.0
C2492 C 0.7189 0.24638 0.19822 0.0
C2493 C 0.7139 0.27093 0.19586 0.0
C2494 C 0.73097 0.30015 0.20114 0.0
C2495 C 0.75566 0.3057 0.20776 0.0
C2496 C 0.76085 0.28136 0.21002 0.0
H2497 H 0.7016 0.21857 0.23407 0.0
H2498 H 0.73513 0.25508 0.23011 0.0
H2499 H 0.7005 0.23698 0.22216 0.0
H2500 H 0.70356 0.22311 0.19487 0.0
H2501 H 0.69455 0.26601 0.1908 0.0
H2502 H 0.97096 0.65728 0.23566 0.0
H2503 H 0.92752 0.61043 0.22731 0.0
H2504 H 0.86719 0.6474 0.23333 0.0
H2505 H 0.91075 0.69475 0.24138 0.0
H2506 H 0.87447 0.56743 0.23559 0.0
H2507 H 0.84771 0.62162 0.20297 0.0
H2508 H 0.88294 0.64302 0.21068 0.0
H2509 H 0.84682 0.63844 0.21547 0.0
C2510 C 0.94846 0.65547 0.23518 0.0
C2511 C 0.94427 0.67971 0.23917 0.0
C2512 C 0.92369 0.62876 0.23037 0.0
C2513 C 0.89425 0.6257 0.22949 0.0
C2514 C 0.88991 0.64966 0.23362 0.0
H2515 H 0.72267 0.44913 0.2255 0.0
H2516 H 0.76428 0.50307 0.22949 0.0
C2517 C 0.91475 0.67655 0.23833 0.0
C2518 C 0.86762 0.59645 0.22492 0.0
H2519 H 0.80857 0.56818 0.20689 0.0
C2520 C 0.8603 0.56765 0.22925 0.0
C2521 C 0.84934 0.59664 0.21653 0.0
C2522 C 0.85729 0.62657 0.21107 0.0
C2523 C 0.83473 0.53917 0.22565 0.0
C2524 C 0.81535 0.53952 0.21771 0.0
C2525 C 0.82317 0.56811 0.2131 0.0
C2526 C 0.78666 0.51019 0.21435 0.0
C2527 C 0.82875 0.50888 0.2304 0.0
C2528 C 0.78417 0.49732 0.20422 0.0
C2529 C 0.75995 0.46656 0.20185 0.0
C2530 C 0.7383 0.44846 0.20962 0.0
C2531 C 0.73932 0.46252 0.21941 0.0
C2532 C 0.76312 0.49324 0.22171 0.0
H2533 H 0.85011 0.51178 0.23412 0.0
H2534 H 0.81057 0.5016 0.23655 0.0
H2535 H 0.82033 0.48967 0.22438 0.0
H2536 H 0.80204 0.51022 0.19841 0.0
H2537 H 0.75965 0.45619 0.19425 0.0
H2538 H 0.5769 0.03258 0.91357 0.0
H2539 H 0.57675 0.07689 0.92249 0.0
H2540 H 0.63634 0.07691 0.94671 0.0
H2541 H 0.63746 0.03358 0.93774 0.0
H2542 H 0.55763 0.08315 0.94225 0.0
H2543 H 0.68463 0.16716 0.93759 0.0
H2544 H 0.66448 0.12978 0.93065 0.0
H2545 H 0.67631 0.13192 0.94408 0.0
C2546 C 0.59017 0.04223 0.92076 0.0
C2547 C 0.60757 0.0299 0.92486 0.0
C2548 C 0.58993 0.0674 0.92586 0.0
C2549 C 0.60697 0.08052 0.93517 0.0
C2550 C 0.62369 0.0677 0.9394 0.0
H2551 H 0.64752 0.24085 0.97491 0.0
H2552 H 0.63168 0.1868 0.96972 0.0
C2553 C 0.62426 0.04287 0.93426 0.0
C2554 C 0.60766 0.10783 0.94043 0.0
H2555 H 0.65741 0.18329 0.94897 0.0
C2556 C 0.57942 0.10509 0.9437 0.0
C2557 C 0.63612 0.13646 0.94228 0.0
C2558 C 0.66706 0.14169 0.93837 0.0
C2559 C 0.579 0.13021 0.94888 0.0
C2560 C 0.60748 0.15854 0.95083 0.0
C2561 C 0.63565 0.16123 0.94761 0.0
C2562 C 0.60896 0.18692 0.9554 0.0
C2563 C 0.54828 0.12643 0.95228 0.0
C2564 C 0.60029 0.20428 0.94925 0.0
C2565 C 0.60938 0.23516 0.95218 0.0
C2566 C 0.62712 0.24902 0.96132 0.0
C2567 C 0.63335 0.23061 0.96794 0.0
C2568 C 0.62451 0.1998 0.96495 0.0
H2569 H 0.52903 0.10139 0.95199 0.0
H2570 H 0.5501 0.13599 0.96037 0.0
H2571 H 0.54222 0.13999 0.94699 0.0
H2572 H 0.58869 0.19488 0.94179 0.0
H2573 H 0.60434 0.24889 0.94694 0.0
H2574 H 0.00844 0.60836 0.94482 0.0
H2575 H 0.96596 0.56284 0.95345 0.0
H2576 H 0.94887 0.50682 0.92518 0.0
H2577 H 0.99198 0.55238 0.91646 0.0
H2578 H 0.90525 0.53269 0.94714 0.0
H2579 H 0.94713 0.44856 0.94779 0.0
H2580 H 0.97279 0.49001 0.94534 0.0
H2581 H 0.94814 0.46386 0.93505 0.0
C2582 C 0.99586 0.58633 0.94042 0.0
C2583 C 0.0035 0.58404 0.92991 0.0
C2584 C 0.97166 0.56029 0.9454 0.0
C2585 C 0.95454 0.53136 0.94001 0.0
C2586 C 0.96227 0.52877 0.92956 0.0
H2587 H 0.77828 0.36494 0.94733 0.0
H2588 H 0.83271 0.40296 0.94318 0.0
C2589 C 0.9867 0.55488 0.92456 0.0
C2590 C 0.92686 0.50496 0.94508 0.0
H2591 H 0.8934 0.428 0.95205 0.0
C2592 C 0.90282 0.50992 0.94835 0.0
C2593 C 0.9238 0.4753 0.9466 0.0
C2594 C 0.94945 0.46909 0.9436 0.0
C2595 C 0.8753 0.48575 0.95278 0.0
C2596 C 0.87198 0.45592 0.95419 0.0
C2597 C 0.8962 0.45101 0.95107 0.0
C2598 C 0.84214 0.42894 0.95788 0.0
C2599 C 0.84945 0.49201 0.95548 0.0
C2600 C 0.82999 0.4299 0.96777 0.0
C2601 C 0.79872 0.40832 0.97013 0.0
C2602 C 0.7794 0.38532 0.96267 0.0
C2603 C 0.79259 0.38257 0.9532 0.0
C2604 C 0.82372 0.40419 0.95084 0.0
H2605 H 0.85339 0.51412 0.95199 0.0
H2606 H 0.82653 0.47224 0.95271 0.0
H2607 H 0.84822 0.49427 0.96412 0.0
H2608 H 0.84403 0.44865 0.97337 0.0
H2609 H 0.78916 0.41141 0.9774 0.0
H2610 H 0.47501 0.43903 0.9174 0.0
H2611 H 0.52107 0.44244 0.92554 0.0
H2612 H 0.46837 0.40282 0.95384 0.0
H2613 H 0.42248 0.39877 0.94579 0.0
H2614 H 0.55436 0.47252 0.94474 0.0
H2615 H 0.49824 0.34235 0.94533 0.0
H2616 H 0.48316 0.36171 0.93764 0.0
H2617 H 0.47553 0.35687 0.95149 0.0
C2618 C 0.47332 0.43109 0.92535 0.0
C2619 C 0.44497 0.41816 0.93088 0.0
C2620 C 0.49963 0.43317 0.93 0.0
C2621 C 0.49791 0.42242 0.94023 0.0
C2622 C 0.47 0.41068 0.94588 0.0
H2623 H 0.61684 0.38193 0.97706 0.0
H2624 H 0.57976 0.39835 0.97287 0.0
C2625 C 0.44377 0.40837 0.94124 0.0
C2626 C 0.52465 0.42201 0.94493 0.0
H2627 H 0.54598 0.37203 0.95445 0.0
C2628 C 0.55264 0.4506 0.94686 0.0
C2629 C 0.52224 0.39335 0.94769 0.0
C2630 C 0.4933 0.3618 0.94535 0.0
C2631 C 0.57825 0.45123 0.9516 0.0
C2632 C 0.57572 0.42254 0.95437 0.0
C2633 C 0.54768 0.39405 0.95247 0.0
C2634 C 0.60246 0.42074 0.95837 0.0
C2635 C 0.60765 0.48251 0.95368 0.0
C2636 C 0.62824 0.4291 0.95184 0.0
C2637 C 0.64954 0.41992 0.95426 0.0
C2638 C 0.64537 0.40216 0.96323 0.0
C2639 C 0.62105 0.39612 0.97021 0.0
C2640 C 0.59968 0.40527 0.96778 0.0
H2641 H 0.60297 0.50213 0.95397 0.0
H2642 H 0.61866 0.48237 0.96119 0.0
H2643 H 0.62457 0.48714 0.94726 0.0
H2644 H 0.63055 0.4405 0.94446 0.0
H2645 H 0.66805 0.42482 0.94873 0.0
H2646 H 0.64577 0.7563 0.75308 0.0
H2647 H 0.60083 0.75682 0.76069 0.0
H2648 H 0.61175 0.71866 0.7893 0.0
H2649 H 0.65637 0.71768 0.78174 0.0
H2650 H 0.55079 0.68802 0.78207 0.0
H2651 H 0.60144 0.81742 0.78325 0.0
H2652 H 0.60325 0.80188 0.77058 0.0
H2653 H 0.62497 0.7997 0.78134 0.0
C2654 C 0.6386 0.74799 0.76099 0.0
C2655 C 0.6547 0.73698 0.7668 0.0
C2656 C 0.6131 0.74859 0.76536 0.0
C2657 C 0.60335 0.73835 0.77564 0.0
C2658 C 0.61906 0.72692 0.78139 0.0
H2659 H 0.43769 0.70535 0.81084 0.0
H2660 H 0.49044 0.71621 0.80702 0.0
C2661 C 0.64453 0.72632 0.77704 0.0
C2662 C 0.57594 0.73829 0.78025 0.0
H2663 H 0.54672 0.78559 0.78648 0.0
C2664 C 0.55 0.70938 0.78315 0.0
C2665 C 0.57504 0.76623 0.78166 0.0
C2666 C 0.60276 0.79812 0.77914 0.0
C2667 C 0.52271 0.70743 0.78705 0.0
C2668 C 0.52157 0.73529 0.78829 0.0
C2669 C 0.54773 0.76432 0.78558 0.0
C2670 C 0.49247 0.73423 0.79154 0.0
C2671 C 0.49487 0.67539 0.7894 0.0
C2672 C 0.47699 0.74258 0.78438 0.0
C2673 C 0.44715 0.73695 0.78662 0.0
C2674 C 0.4323 0.72304 0.7961 0.0
C2675 C 0.44872 0.7167 0.80357 0.0
C2676 C 0.47867 0.72241 0.80133 0.0
H2677 H 0.49744 0.65602 0.78599 0.0
H2678 H 0.49232 0.67242 0.79802 0.0
H2679 H 0.47308 0.67305 0.78629 0.0
H2680 H 0.48728 0.75186 0.7768 0.0
H2681 H 0.4351 0.74214 0.78072 0.0
H2682 H 0.27498 0.92853 0.75679 0.0
H2683 H 0.27138 0.88025 0.76293 0.0
H2684 H 0.30629 0.92433 0.79324 0.0
H2685 H 0.30964 0.97242 0.78724 0.0
H2686 H 0.31972 0.87358 0.77029 0.0
H2687 H 0.22905 0.84045 0.80101 0.0
H2688 H 0.23625 0.86888 0.79108 0.0
H2689 H 0.26159 0.88008 0.80229 0.0
C2690 C 0.28175 0.9279 0.76478 0.0
C2691 C 0.29254 0.95436 0.77152 0.0
C2692 C 0.27962 0.90028 0.76828 0.0
C2693 C 0.28802 0.89847 0.77861 0.0
C2694 C 0.29896 0.92488 0.78533 0.0
H2695 H 0.31683 0.76301 0.81118 0.0
H2696 H 0.30864 0.80641 0.80711 0.0
C2697 C 0.30111 0.95249 0.78184 0.0
C2698 C 0.28703 0.86962 0.78217 0.0
H2699 H 0.25553 0.81193 0.80053 0.0
C2700 C 0.3055 0.85998 0.77685 0.0
C2701 C 0.26866 0.85205 0.7908 0.0
C2702 C 0.24753 0.86066 0.79658 0.0
C2703 C 0.30649 0.83356 0.78 0.0
C2704 C 0.288 0.81585 0.78858 0.0
C2705 C 0.2696 0.8255 0.79395 0.0
C2706 C 0.28763 0.78719 0.79194 0.0
C2707 C 0.32785 0.82517 0.77423 0.0
C2708 C 0.277 0.76128 0.78502 0.0
C2709 C 0.28157 0.73653 0.78733 0.0
C2710 C 0.29655 0.73702 0.79667 0.0
C2711 C 0.30485 0.76173 0.804 0.0
C2712 C 0.30041 0.78667 0.80164 0.0
H2713 H 0.3459 0.84522 0.76963 0.0
H2714 H 0.33973 0.81775 0.77978 0.0
H2715 H 0.31385 0.80524 0.76869 0.0
H2716 H 0.26654 0.76094 0.77759 0.0
H2717 H 0.27472 0.71771 0.78156 0.0
H2718 H 0.11511 0.33413 0.76639 0.0
H2719 H 0.15719 0.38265 0.77442 0.0
H2720 H 0.09369 0.4162 0.77949 0.0
H2721 H 0.05158 0.368 0.77128 0.0
H2722 H 0.14748 0.46 0.77065 0.0
H2723 H 0.17427 0.41124 0.80494 0.0
H2724 H 0.17554 0.39319 0.79274 0.0
H2725 H 0.13917 0.38856 0.79723 0.0
C2726 C 0.11003 0.35175 0.76926 0.0
C2727 C 0.07996 0.34718 0.76818 0.0
C2728 C 0.13407 0.37936 0.77395 0.0
C2729 C 0.12847 0.40281 0.77775 0.0
C2730 C 0.09849 0.39831 0.77669 0.0
H2731 H 0.25685 0.57847 0.81154 0.0
H2732 H 0.21492 0.5241 0.80766 0.0
C2733 C 0.07446 0.37077 0.77196 0.0
C2734 C 0.15436 0.43298 0.78215 0.0
H2735 H 0.21194 0.46476 0.80078 0.0
C2736 C 0.16136 0.461 0.77729 0.0
C2737 C 0.17229 0.43436 0.79091 0.0
C2738 C 0.16478 0.40526 0.79683 0.0
C2739 C 0.18631 0.49022 0.78072 0.0
C2740 C 0.20518 0.49146 0.78913 0.0
C2741 C 0.19767 0.46364 0.79424 0.0
C2742 C 0.23315 0.52161 0.79244 0.0
C2743 C 0.1923 0.51961 0.77529 0.0
C2744 C 0.25798 0.53747 0.7854 0.0
C2745 C 0.28181 0.56832 0.78759 0.0
C2746 C 0.28147 0.58382 0.79691 0.0
C2747 C 0.25794 0.56703 0.80435 0.0
C2748 C 0.23388 0.53606 0.80212 0.0
H2749 H 0.17147 0.51561 0.77088 0.0
H2750 H 0.19909 0.53928 0.78103 0.0
H2751 H 0.21175 0.52691 0.76963 0.0
H2752 H 0.25807 0.52651 0.77796 0.0
H2753 H 0.29978 0.58058 0.78174 0.0
H2754 H 0.39166 0.99463 0.06693 0.0
H2755 H 0.3944 0.95164 0.05829 0.0
H2756 H 0.43628 0.94069 0.08602 0.0
H2757 H 0.43309 0.98335 0.09483 0.0
H2758 H 0.44551 0.94578 0.05371 0.0
H2759 H 0.36338 0.85191 0.08044 0.0
H2760 H 0.36741 0.89024 0.08026 0.0
H2761 H 0.39558 0.88478 0.08706 0.0
C2762 C 0.40124 0.98294 0.07124 0.0
C2763 C 0.41192 0.99226 0.08162 0.0
C2764 C 0.40293 0.95848 0.06626 0.0
C2765 C 0.41526 0.94277 0.07154 0.0
C2766 C 0.42615 0.95212 0.08187 0.0
H2767 H 0.4303 0.78084 0.05729 0.0
H2768 H 0.44258 0.83306 0.06337 0.0
C2769 C 0.42434 0.97653 0.08689 0.0
C2770 C 0.41648 0.91647 0.06624 0.0
H2771 H 0.39026 0.83815 0.06812 0.0
C2772 C 0.43343 0.92221 0.05684 0.0
C2773 C 0.40049 0.88573 0.0703 0.0
C2774 C 0.38043 0.87762 0.08001 0.0
C2775 C 0.43526 0.89805 0.05151 0.0
C2776 C 0.41958 0.86747 0.05566 0.0
C2777 C 0.40257 0.86176 0.06502 0.0
C2778 C 0.41957 0.84044 0.05044 0.0
C2779 C 0.45421 0.90542 0.04157 0.0
C2780 C 0.40402 0.82803 0.04084 0.0
C2781 C 0.39715 0.79816 0.03729 0.0
C2782 C 0.40543 0.78027 0.04338 0.0
C2783 C 0.42352 0.79406 0.05246 0.0
C2784 C 0.43051 0.82387 0.05596 0.0
H2785 H 0.47039 0.93117 0.04069 0.0
H2786 H 0.46797 0.89357 0.04142 0.0
H2787 H 0.43819 0.89652 0.03473 0.0
H2788 H 0.39501 0.84026 0.03653 0.0
H2789 H 0.38286 0.78797 0.03034 0.0
H2790 H 0.04568 0.41145 0.06907 0.0
H2791 H 0.08979 0.45685 0.06078 0.0
H2792 H 0.08458 0.51884 0.08387 0.0
H2793 H 0.04032 0.47356 0.09225 0.0
H2794 H 0.09092 0.51397 0.05284 0.0
H2795 H 0.17723 0.53816 0.08433 0.0
H2796 H 0.14165 0.50042 0.08274 0.0
H2797 H 0.14041 0.53322 0.08842 0.0
C2798 C 0.05402 0.43469 0.07246 0.0
C2799 C 0.03955 0.43885 0.08137 0.0
C2800 C 0.07909 0.4606 0.06766 0.0
C2801 C 0.09038 0.4911 0.07172 0.0
C2802 C 0.07624 0.49541 0.08066 0.0
H2803 H 0.25853 0.66694 0.05819 0.0
H2804 H 0.20593 0.62873 0.06416 0.0
C2805 C 0.05101 0.46951 0.08544 0.0
C2806 C 0.11727 0.51837 0.06669 0.0
H2807 H 0.19426 0.5732 0.07033 0.0
C2808 C 0.11355 0.52708 0.05665 0.0
C2809 C 0.14663 0.5353 0.0717 0.0
C2810 C 0.152 0.52631 0.08236 0.0
C2811 C 0.13852 0.55264 0.05151 0.0
C2812 C 0.16806 0.56937 0.05647 0.0
C2813 C 0.17158 0.56058 0.06654 0.0
C2814 C 0.19619 0.59539 0.05138 0.0
C2815 C 0.13288 0.56172 0.04091 0.0
C2816 C 0.20762 0.5902 0.0419 0.0
C2817 C 0.23756 0.61242 0.03835 0.0
C2818 C 0.25664 0.63976 0.04438 0.0
C2819 C 0.24426 0.64599 0.05341 0.0
C2820 C 0.21427 0.62411 0.05685 0.0
H2821 H 0.10784 0.55377 0.03978 0.0
H2822 H 0.14703 0.58761 0.03987 0.0
H2823 H 0.13952 0.55023 0.0347 0.0
H2824 H 0.19444 0.56802 0.03763 0.0
H2825 H 0.24672 0.60686 0.03144 0.0
H2826 H 0.6285 0.65854 0.05671 0.0
H2827 H 0.57989 0.65226 0.05008 0.0
H2828 H 0.53026 0.59568 0.07669 0.0
H2829 H 0.57893 0.6021 0.08347 0.0
H2830 H 0.52269 0.59595 0.04484 0.0
H2831 H 0.50866 0.66542 0.07697 0.0
H2832 H 0.54494 0.66666 0.07462 0.0
H2833 H 0.51336 0.63374 0.08117 0.0
C2834 C 0.60731 0.6449 0.06121 0.0
C2835 C 0.60765 0.63102 0.07067 0.0
C2836 C 0.57952 0.6412 0.05736 0.0
C2837 C 0.55156 0.62368 0.06292 0.0
C2838 C 0.5517 0.60963 0.07235 0.0
H2839 H 0.37157 0.60521 0.05517 0.0
H2840 H 0.41126 0.59252 0.0595 0.0
C2841 C 0.57953 0.61334 0.07621 0.0
C2842 C 0.52241 0.62068 0.05891 0.0
H2843 H 0.46828 0.64116 0.0645 0.0
C2844 C 0.51065 0.6057 0.04914 0.0
C2845 C 0.50688 0.63351 0.06453 0.0
C2846 C 0.51916 0.65098 0.07486 0.0
C2847 C 0.48355 0.60303 0.04486 0.0
C2848 C 0.46819 0.61612 0.05045 0.0
C2849 C 0.47989 0.63085 0.06026 0.0
C2850 C 0.4408 0.6164 0.04622 0.0
C2851 C 0.47147 0.58602 0.03446 0.0
C2852 C 0.44336 0.63255 0.03698 0.0
C2853 C 0.42038 0.63944 0.0344 0.0
C2854 C 0.39488 0.63073 0.04113 0.0
C2855 C 0.39107 0.61227 0.04986 0.0
C2856 C 0.41377 0.60508 0.05236 0.0
H2857 H 0.47976 0.56942 0.03281 0.0
H2858 H 0.44554 0.57273 0.03424 0.0
H2859 H 0.48019 0.60352 0.02811 0.0
H2860 H 0.46424 0.64201 0.03221 0.0
H2861 H 0.42412 0.65408 0.02771 0.0
H2862 H 0.03811 0.66071 0.55649 0.0
H2863 H 0.08132 0.65806 0.54851 0.0
H2864 H 0.08493 0.60835 0.57528 0.0
H2865 H 0.04118 0.61033 0.58327 0.0
H2866 H 0.14035 0.68214 0.55582 0.0
H2867 H 0.08259 0.55247 0.55098 0.0
H2868 H 0.06115 0.57194 0.55395 0.0
H2869 H 0.08133 0.56511 0.56419 0.0
C2870 C 0.04805 0.64919 0.5607 0.0
C2871 C 0.03612 0.63564 0.57051 0.0
C2872 C 0.0727 0.64762 0.5561 0.0
C2873 C 0.0859 0.63242 0.56119 0.0
C2874 C 0.07452 0.61944 0.57109 0.0
H2875 H 0.25011 0.62313 0.5558 0.0
H2876 H 0.19757 0.61298 0.55925 0.0
C2877 C 0.04974 0.62089 0.57569 0.0
C2878 C 0.11255 0.63155 0.55634 0.0
H2879 H 0.13796 0.58212 0.54852 0.0
C2880 C 0.1397 0.66027 0.55409 0.0
C2881 C 0.11157 0.60296 0.55407 0.0
C2882 C 0.08249 0.57135 0.55582 0.0
C2883 C 0.16635 0.66127 0.55001 0.0
C2884 C 0.16564 0.63271 0.54798 0.0
C2885 C 0.13831 0.60393 0.55002 0.0
C2886 C 0.19415 0.6327 0.54471 0.0
C2887 C 0.19551 0.69293 0.54835 0.0
C2888 C 0.20889 0.64561 0.53514 0.0
C2889 C 0.23901 0.65148 0.53314 0.0
C2890 C 0.25465 0.6444 0.5407 0.0
C2891 C 0.23867 0.62898 0.54986 0.0
C2892 C 0.20864 0.62311 0.55183 0.0
H2893 H 0.19382 0.7125 0.55206 0.0
H2894 H 0.21627 0.69336 0.55159 0.0
H2895 H 0.19931 0.69732 0.53981 0.0
H2896 H 0.19787 0.65285 0.5295 0.0
H2897 H 0.25085 0.6638 0.5261 0.0
H2898 H 0.36913 0.40112 0.55783 0.0
H2899 H 0.3749 0.4481 0.54985 0.0
H2900 H 0.42091 0.5026 0.57778 0.0
H2901 H 0.41579 0.45565 0.58579 0.0
H2902 H 0.35154 0.48417 0.55643 0.0
H2903 H 0.48077 0.55678 0.55487 0.0
H2904 H 0.46009 0.5151 0.55743 0.0
H2905 H 0.46579 0.54291 0.56775 0.0
C2906 C 0.38053 0.42307 0.5623 0.0
C2907 C 0.39206 0.42463 0.57246 0.0
C2908 C 0.38388 0.44995 0.5577 0.0
C2909 C 0.39888 0.479 0.56313 0.0
C2910 C 0.40998 0.4806 0.57334 0.0
H2911 H 0.41404 0.65643 0.55723 0.0
H2912 H 0.42233 0.61323 0.56109 0.0
C2913 C 0.40674 0.45368 0.57795 0.0
C2914 C 0.40139 0.50714 0.55825 0.0
H2915 H 0.45309 0.58314 0.55141 0.0
C2916 C 0.37377 0.50568 0.55521 0.0
C2917 C 0.43044 0.53514 0.55664 0.0
C2918 C 0.46099 0.53758 0.55925 0.0
C2919 C 0.37426 0.53179 0.55097 0.0
C2920 C 0.40324 0.56003 0.54956 0.0
C2921 C 0.43095 0.56137 0.55242 0.0
C2922 C 0.40464 0.58912 0.54616 0.0
C2923 C 0.34363 0.52937 0.54844 0.0
C2924 C 0.39357 0.59076 0.53625 0.0
C2925 C 0.38882 0.61552 0.53402 0.0
C2926 C 0.39514 0.63893 0.54167 0.0
C2927 C 0.40882 0.63862 0.55121 0.0
C2928 C 0.41361 0.61398 0.55342 0.0
H2929 H 0.32333 0.50789 0.55172 0.0
H2930 H 0.34331 0.55031 0.55155 0.0
H2931 H 0.34073 0.52845 0.5398 0.0
H2932 H 0.38686 0.57192 0.5305 0.0
H2933 H 0.37787 0.61488 0.52667 0.0
H2934 H 0.63477 0.01109 0.56512 0.0
H2935 H 0.58948 0.96933 0.55573 0.0
H2936 H 0.53688 0.94229 0.58454 0.0
H2937 H 0.58216 0.98423 0.59407 0.0
H2938 H 0.55729 0.90378 0.5598 0.0
H2939 H 0.48001 0.95324 0.5636 0.0
H2940 H 0.52172 0.97671 0.56566 0.0
H2941 H 0.49676 0.95085 0.5757 0.0
C2942 C 0.6136 0.99629 0.5695 0.0
C2943 C 0.61207 0.00104 0.58036 0.0
C2944 C 0.58773 0.97249 0.56409 0.0
C2945 C 0.55973 0.95314 0.56941 0.0
C2946 C 0.55815 0.95744 0.58027 0.0
H2947 H 0.38551 0.78701 0.55919 0.0
H2948 H 0.42827 0.83929 0.56423 0.0
C2949 C 0.58411 0.9812 0.58571 0.0
C2950 C 0.5326 0.92763 0.56363 0.0
H2951 H 0.45657 0.90032 0.5572 0.0
C2952 C 0.53535 0.90313 0.55911 0.0
C2953 C 0.50414 0.92706 0.56273 0.0
C2954 C 0.50041 0.95349 0.56709 0.0
C2955 C 0.5099 0.87721 0.55412 0.0
C2956 C 0.48114 0.87623 0.55341 0.0
C2957 C 0.47869 0.90124 0.55768 0.0
C2958 C 0.45256 0.84775 0.54941 0.0
C2959 C 0.51363 0.85038 0.55016 0.0
C2960 C 0.45108 0.83588 0.53918 0.0
C2961 C 0.42665 0.80574 0.53629 0.0
C2962 C 0.40328 0.78728 0.54357 0.0
C2963 C 0.40336 0.80055 0.55344 0.0
C2964 C 0.42775 0.83048 0.55633 0.0
H2965 H 0.53521 0.85208 0.5532 0.0
H2966 H 0.4933 0.82734 0.55245 0.0
H2967 H 0.51503 0.85083 0.54147 0.0
H2968 H 0.46971 0.84915 0.53364 0.0
H2969 H 0.42742 0.79612 0.52866 0.0
H2970 H 0.22709 0.34309 0.26667 0.0
H2971 H 0.23086 0.39037 0.27453 0.0
H2972 H 0.33116 0.43525 0.27563 0.0
H2973 H 0.32769 0.38817 0.26761 0.0
H2974 H 0.25693 0.42125 0.29383 0.0
H2975 H 0.31706 0.49806 0.25992 0.0
H2976 H 0.29838 0.45573 0.25904 0.0
H2977 H 0.33621 0.47889 0.26504 0.0
C2978 C 0.25 0.36307 0.26853 0.0
C2979 C 0.27713 0.36199 0.26643 0.0
C2980 C 0.25207 0.38999 0.27307 0.0
C2981 C 0.28127 0.41636 0.27558 0.0
C2982 C 0.30841 0.41529 0.2736 0.0
H2983 H 0.32714 0.58541 0.31165 0.0
H2984 H 0.31352 0.53153 0.30707 0.0
C2985 C 0.30638 0.38839 0.26902 0.0
C2986 C 0.28327 0.44515 0.28009 0.0
H2987 H 0.31166 0.52266 0.27521 0.0
C2988 C 0.26884 0.44346 0.28978 0.0
C2989 C 0.29852 0.47393 0.2747 0.0
C2990 C 0.3132 0.47684 0.26406 0.0
C2991 C 0.26955 0.47 0.29427 0.0
C2992 C 0.28529 0.49886 0.28896 0.0
C2993 C 0.29958 0.50044 0.27926 0.0
C2994 C 0.28741 0.52802 0.29315 0.0
C2995 C 0.25308 0.46688 0.30456 0.0
C2996 C 0.27637 0.54348 0.28705 0.0
C2997 C 0.2842 0.57418 0.28963 0.0
C2998 C 0.30314 0.58997 0.29837 0.0
C2999 C 0.31204 0.57361 0.30498 0.0
C3000 C 0.30434 0.54283 0.30235 0.0
H3001 H 0.23611 0.44186 0.30637 0.0
H3002 H 0.2706 0.47706 0.31097 0.0
H3003 H 0.24055 0.47999 0.30445 0.0
H3004 H 0.26323 0.53244 0.27993 0.0
H3005 H 0.27699 0.58625 0.28441 0.0
H3006 H 0.6459 0.90458 0.24497 0.0
H3007 H 0.60355 0.86176 0.25486 0.0
H3008 H 0.62072 0.92597 0.28082 0.0
H3009 H 0.66252 0.96892 0.27098 0.0
H3010 H 0.60718 0.83835 0.27425 0.0
H3011 H 0.52712 0.88491 0.2763 0.0
H3012 H 0.55989 0.9002 0.26742 0.0
H3013 H 0.56586 0.91189 0.28105 0.0
C3014 C 0.64038 0.90969 0.25273 0.0
C3015 C 0.65747 0.94024 0.25714 0.0
C3016 C 0.6163 0.88516 0.25839 0.0
C3017 C 0.60882 0.89076 0.26853 0.0
C3018 C 0.62571 0.92124 0.27294 0.0
H3019 H 0.45646 0.76695 0.31006 0.0
H3020 H 0.50852 0.8088 0.30468 0.0
C3021 C 0.64966 0.94577 0.26728 0.0
C3022 C 0.58371 0.86462 0.27459 0.0
H3023 H 0.51293 0.83957 0.28608 0.0
C3024 C 0.58658 0.83861 0.27686 0.0
C3025 C 0.557 0.86515 0.27805 0.0
C3026 C 0.55204 0.89188 0.27552 0.0
C3027 C 0.56326 0.81294 0.28243 0.0
C3028 C 0.5363 0.81323 0.2857 0.0
C3029 C 0.53381 0.83957 0.28366 0.0
C3030 C 0.50878 0.78527 0.29021 0.0
C3031 C 0.5676 0.78572 0.28473 0.0
C3032 C 0.49224 0.75772 0.28405 0.0
C3033 C 0.46262 0.73384 0.28711 0.0
C3034 C 0.44897 0.73709 0.29638 0.0
C3035 C 0.46655 0.76354 0.30296 0.0
C3036 C 0.49619 0.78759 0.29985 0.0
H3037 H 0.59271 0.79309 0.28473 0.0
H3038 H 0.5573 0.77531 0.29243 0.0
H3039 H 0.55573 0.76717 0.27856 0.0
H3040 H 0.50122 0.75563 0.27649 0.0
H3041 H 0.44956 0.71372 0.28187 0.0
H3042 H 0.12953 0.76829 0.25256 0.0
H3043 H 0.17676 0.77292 0.25999 0.0
H3044 H 0.12422 0.72043 0.28689 0.0
H3045 H 0.07706 0.716 0.27963 0.0
H3046 H 0.18237 0.77498 0.29203 0.0
H3047 H 0.19382 0.70036 0.26123 0.0
H3048 H 0.19145 0.73282 0.25638 0.0
H3049 H 0.15853 0.70148 0.26302 0.0
C3050 C 0.12799 0.75758 0.26003 0.0
C3051 C 0.09948 0.74157 0.26546 0.0
C3052 C 0.15498 0.76025 0.26426 0.0
C3053 C 0.15388 0.74678 0.27395 0.0
C3054 C 0.12554 0.731 0.27941 0.0
H3055 H 0.27711 0.71385 0.31099 0.0
H3056 H 0.23746 0.72603 0.30589 0.0
C3057 C 0.09858 0.72835 0.27521 0.0
C3058 C 0.1821 0.7486 0.27833 0.0
H3059 H 0.23424 0.72485 0.27372 0.0
C3060 C 0.19383 0.76412 0.28803 0.0
C3061 C 0.19683 0.73426 0.27311 0.0
C3062 C 0.18443 0.71604 0.26291 0.0
C3063 C 0.22022 0.76597 0.29261 0.0
C3064 C 0.23488 0.75157 0.28739 0.0
C3065 C 0.22314 0.73617 0.27767 0.0
C3066 C 0.26176 0.75089 0.29188 0.0
C3067 C 0.23237 0.78358 0.30291 0.0
C3068 C 0.28902 0.76168 0.2859 0.0
C3069 C 0.31148 0.75452 0.28876 0.0
C3070 C 0.30718 0.7366 0.29769 0.0
C3071 C 0.28126 0.72817 0.30418 0.0
C3072 C 0.25855 0.73509 0.30126 0.0
H3073 H 0.22438 0.80052 0.30436 0.0
H3074 H 0.22347 0.76649 0.30939 0.0
H3075 H 0.25829 0.79659 0.30315 0.0
H3076 H 0.29198 0.77393 0.27865 0.0
H3077 H 0.33129 0.76133 0.28363 0.0
loop_
_geom_bond_atom_site_label_1
_geom_bond_atom_site_label_2
_geom_bond_distance
_geom_bond_site_symmetry_2
_ccdc_geom_bond_type
C0 O1 1.160 . S
C0 O7 1.185 . S
O1 C0 1.160 . S
O2 Zn3 1.899 1_565 S
O2 C10 1.284 . S
Zn3 O2 1.899 1_545 S
Zn3 O4 2.032 . S
Zn3 O7 2.086 . S
Zn3 O12 1.977 . S
O4 Zn3 2.032 . S
O4 C8 1.278 . S
C5 O6 1.203 1_545 S
C5 O12 1.267 . S
O6 C5 1.203 1_565 S
O7 C0 1.185 . S
O7 Zn3 2.086 . S
C8 O4 1.278 . S
C8 O9 1.211 1_545 S
O9 C8 1.211 1_565 S
C10 O2 1.284 . S
C10 O11 1.273 . S
O11 C10 1.273 . S
O12 Zn3 1.977 . S
O12 C5 1.267 . S
C13 O14 1.160 . S
C13 O20 1.185 . S
O14 C13 1.160 . S
O15 Zn16 1.899 1_655 S
O15 C23 1.284 . S
Zn16 O15 1.899 1_455 S
Zn16 O17 2.032 . S
Zn16 O20 2.086 . S
Zn16 O25 1.977 . S
O17 Zn16 2.032 . S
O17 C21 1.278 . S
C18 O19 1.203 1_455 S
C18 O25 1.267 . S
O19 C18 1.203 1_655 S
O20 C13 1.185 . S
O20 Zn16 2.086 . S
C21 O17 1.278 . S
C21 O22 1.211 1_455 S
O22 C21 1.211 1_655 S
C23 O15 1.284 . S
C23 O24 1.273 . S
O24 C23 1.273 . S
O25 Zn16 1.977 . S
O25 C18 1.267 . S
C26 O27 1.160 . S
C26 O33 1.185 . S
O27 C26 1.160 . S
O28 Zn29 1.899 . S
O28 C36 1.284 . S
Zn29 O28 1.899 . S
Zn29 O30 2.032 . S
Zn29 O33 2.086 . S
Zn29 O38 1.977 . S
O30 Zn29 2.032 . S
O30 C34 1.278 . S
C31 O32 1.203 . S
C31 O38 1.267 . S
O32 C31 1.203 . S
O33 C26 1.185 . S
O33 Zn29 2.086 . S
C34 O30 1.278 . S
C34 O35 1.211 . S
O35 C34 1.211 . S
C36 O28 1.284 . S
C36 O37 1.273 . S
O37 C36 1.273 . S
O38 Zn29 1.977 . S
O38 C31 1.267 . S
C39 O40 1.160 . S
C39 O46 1.185 . S
O40 C39 1.160 . S
O41 Zn42 1.899 . S
O41 C49 1.284 . S
Zn42 O41 1.899 . S
Zn42 O43 2.032 . S
Zn42 O46 2.086 1_545 S
Zn42 O51 1.977 1_545 S
O43 Zn42 2.032 . S
O43 C47 1.278 . S
C44 O45 1.203 . S
C44 O51 1.267 1_545 S
O45 C44 1.203 . S
O46 C39 1.185 . S
O46 Zn42 2.086 1_565 S
C47 O43 1.278 . S
C47 O48 1.211 . S
O48 C47 1.211 . S
C49 O41 1.284 . S
C49 O50 1.273 . S
O50 C49 1.273 . S
O51 Zn42 1.977 1_565 S
O51 C44 1.267 1_565 S
C52 O53 1.160 . S
C52 O59 1.185 . S
O53 C52 1.160 . S
O54 Zn55 1.899 . S
O54 C62 1.284 . S
Zn55 O54 1.899 . S
Zn55 O56 2.032 . S
Zn55 O59 2.086 1_455 S
Zn55 O64 1.977 1_455 S
O56 Zn55 2.032 . S
O56 C60 1.278 . S
C57 O58 1.203 . S
C57 O64 1.267 1_455 S
O58 C57 1.203 . S
O59 C52 1.185 . S
O59 Zn55 2.086 1_655 S
C60 O56 1.278 . S
C60 O61 1.211 . S
O61 C60 1.211 . S
C62 O54 1.284 . S
C62 O63 1.273 . S
O63 C62 1.273 . S
O64 Zn55 1.977 1_655 S
O64 C57 1.267 1_655 S
C65 O66 1.160 . S
C65 O72 1.185 . S
O66 C65 1.160 . S
O67 Zn68 1.899 . S
O67 C75 1.284 . S
Zn68 O67 1.899 . S
Zn68 O69 2.032 . S
Zn68 O72 2.086 . S
Zn68 O77 1.977 . S
O69 Zn68 2.032 . S
O69 C73 1.278 . S
C70 O71 1.203 . S
C70 O77 1.267 . S
O71 C70 1.203 . S
O72 C65 1.185 . S
O72 Zn68 2.086 . S
C73 O69 1.278 . S
C73 O74 1.211 . S
O74 C73 1.211 . S
C75 O67 1.284 . S
C75 O76 1.273 . S
O76 C75 1.273 . S
O77 Zn68 1.977 . S
O77 C70 1.267 . S
C78 O79 1.160 . S
C78 O85 1.185 . S
O79 C78 1.160 . S
O80 Zn81 1.899 . S
O80 C88 1.284 . S
Zn81 O80 1.899 . S
Zn81 O82 2.032 . S
Zn81 O85 2.086 . S
Zn81 O90 1.977 . S
O82 Zn81 2.032 . S
O82 C86 1.278 . S
C83 O84 1.203 . S
C83 O90 1.267 . S
O84 C83 1.203 . S
O85 C78 1.185 . S
O85 Zn81 2.086 . S
C86 O82 1.278 . S
C86 O87 1.211 . S
O87 C86 1.211 . S
C88 O80 1.284 . S
C88 O89 1.273 . S
O89 C88 1.273 . S
O90 Zn81 1.977 . S
O90 C83 1.267 . S
C91 O92 1.160 . S
C91 O98 1.185 . S
O92 C91 1.160 . S
O93 Zn94 1.899 . S
O93 C101 1.284 . S
Zn94 O93 1.899 . S
Zn94 O95 2.032 . S
Zn94 O98 2.086 . S
Zn94 O103 1.977 . S
O95 Zn94 2.032 . S
O95 C99 1.278 . S
C96 O97 1.203 . S
C96 O103 1.267 . S
O97 C96 1.203 . S
O98 C91 1.185 . S
O98 Zn94 2.086 . S
C99 O95 1.278 . S
C99 O100 1.211 . S
O100 C99 1.211 . S
C101 O93 1.284 . S
C101 O102 1.273 . S
O102 C101 1.273 . S
O103 Zn94 1.977 . S
O103 C96 1.267 . S
C104 O105 1.160 . S
C104 O111 1.185 . S
O105 C104 1.160 . S
O106 Zn107 1.899 . S
O106 C114 1.284 . S
Zn107 O106 1.899 . S
Zn107 O108 2.032 . S
Zn107 O111 2.086 1_655 S
Zn107 O116 1.977 . S
O108 Zn107 2.032 . S
O108 C112 1.278 . S
C109 O110 1.203 . S
C109 O116 1.267 . S
O110 C109 1.203 . S
O111 C104 1.185 . S
O111 Zn107 2.086 1_455 S
C112 O108 1.278 . S
C112 O113 1.211 . S
O113 C112 1.211 . S
C114 O106 1.284 . S
C114 O115 1.273 . S
O115 C114 1.273 . S
O116 Zn107 1.977 . S
O116 C109 1.267 . S
C117 O118 1.172 . S
C117 O124 1.185 . S
O118 C117 1.172 . S
O119 Zn120 1.899 1_455 S
O119 C127 1.284 . S
Zn120 O119 1.899 1_655 S
Zn120 O121 2.032 . S
Zn120 O124 2.086 . S
Zn120 O129 1.977 . S
O121 Zn120 2.032 . S
O121 C125 1.278 . S
C122 O123 1.203 . S
C122 O129 1.267 . S
O123 C122 1.203 . S
O124 C117 1.185 . S
O124 Zn120 2.086 . S
C125 O121 1.278 . S
C125 O126 1.211 . S
O126 C125 1.211 . S
C127 O119 1.284 . S
C127 O128 1.274 1_455 S
O128 C127 1.274 1_655 S
O129 Zn120 1.977 . S
O129 C122 1.267 . S
C130 O131 1.160 . S
C130 O137 1.185 . S
O131 C130 1.160 . S
O132 Zn133 1.899 . S
O132 C140 1.284 . S
Zn133 O132 1.899 . S
Zn133 O134 2.032 . S
Zn133 O137 2.086 . S
Zn133 O142 1.977 . S
O134 Zn133 2.032 . S
O134 C138 1.278 . S
C135 O136 1.203 . S
C135 O142 1.267 . S
O136 C135 1.203 . S
O137 C130 1.185 . S
O137 Zn133 2.086 . S
C138 O134 1.278 . S
C138 O139 1.211 . S
O139 C138 1.211 . S
C140 O132 1.284 . S
C140 O141 1.273 . S
O141 C140 1.273 . S
O142 Zn133 1.977 . S
O142 C135 1.267 . S
C143 O144 1.160 . S
C143 O150 1.185 . S
O144 C143 1.160 . S
O145 Zn146 1.899 . S
O145 C153 1.284 . S
Zn146 O145 1.899 . S
Zn146 O147 2.032 . S
Zn146 O150 2.086 . S
Zn146 O155 1.977 . S
O147 Zn146 2.032 . S
O147 C151 1.278 . S
C148 O149 1.203 . S
C148 O155 1.267 . S
O149 C148 1.203 . S
O150 C143 1.185 . S
O150 Zn146 2.086 . S
C151 O147 1.278 . S
C151 O152 1.211 . S
O152 C151 1.211 . S
C153 O145 1.284 . S
C153 O154 1.273 . S
O154 C153 1.273 . S
O155 Zn146 1.977 . S
O155 C148 1.267 . S
C156 O157 1.160 . S
C156 O163 1.185 . S
O157 C156 1.160 . S
O158 Zn159 1.899 . S
O158 C166 1.284 . S
Zn159 O158 1.899 . S
Zn159 O160 2.032 . S
Zn159 O163 2.086 . S
Zn159 O168 1.977 . S
O160 Zn159 2.032 . S
O160 C164 1.278 . S
C161 O162 1.203 . S
C161 O168 1.267 . S
O162 C161 1.203 . S
O163 C156 1.185 . S
O163 Zn159 2.086 . S
C164 O160 1.278 . S
C164 O165 1.211 . S
O165 C164 1.211 . S
C166 O158 1.284 . S
C166 O167 1.273 . S
O167 C166 1.273 . S
O168 Zn159 1.977 . S
O168 C161 1.267 . S
C169 O170 1.160 . S
C169 O176 1.185 . S
O170 C169 1.160 . S
O171 Zn172 1.899 . S
O171 C179 1.284 . S
Zn172 O171 1.899 . S
Zn172 O173 2.032 . S
Zn172 O176 2.086 . S
Zn172 O181 1.977 . S
O173 Zn172 2.032 . S
O173 C177 1.278 . S
C174 O175 1.203 . S
C174 O181 1.267 . S
O175 C174 1.203 . S
O176 C169 1.185 . S
O176 Zn172 2.086 . S
C177 O173 1.278 . S
C177 O178 1.211 . S
O178 C177 1.211 . S
C179 O171 1.284 . S
C179 O180 1.273 . S
O180 C179 1.273 . S
O181 Zn172 1.977 . S
O181 C174 1.267 . S
C182 O183 1.160 1_565 S
C182 O189 1.185 . S
O183 C182 1.160 1_545 S
O184 Zn185 1.899 1_545 S
O184 C192 1.284 . S
Zn185 O184 1.899 1_565 S
Zn185 O186 2.032 . S
Zn185 O189 2.086 . S
Zn185 O194 1.977 . S
O186 Zn185 2.032 . S
O186 C190 1.278 . S
C187 O188 1.203 . S
C187 O194 1.267 . S
O188 C187 1.203 . S
O189 C182 1.185 . S
O189 Zn185 2.086 . S
C190 O186 1.278 . S
C190 O191 1.211 . S
O191 C190 1.211 . S
C192 O184 1.284 . S
C192 O193 1.273 . S
O193 C192 1.273 . S
O194 Zn185 1.977 . S
O194 C187 1.267 . S
C195 O196 1.160 . S
C195 O202 1.185 . S
O196 C195 1.160 . S
O197 Zn198 1.899 . S
O197 C205 1.284 . S
Zn198 O197 1.899 . S
Zn198 O199 2.032 . S
Zn198 O202 2.086 . S
Zn198 O207 1.977 . S
O199 Zn198 2.032 . S
O199 C203 1.278 . S
C200 O201 1.203 . S
C200 O207 1.267 . S
O201 C200 1.203 . S
O202 C195 1.185 . S
O202 Zn198 2.086 . S
C203 O199 1.278 . S
C203 O204 1.211 . S
O204 C203 1.211 . S
C205 O197 1.284 . S
C205 O206 1.273 . S
O206 C205 1.273 . S
O207 Zn198 1.977 . S
O207 C200 1.267 . S
C208 O209 1.160 1_565 S
C208 O215 1.185 . S
O209 C208 1.160 1_545 S
O210 Zn211 1.899 1_545 S
O210 C218 1.284 . S
Zn211 O210 1.899 1_565 S
Zn211 O212 2.032 . S
Zn211 O215 2.086 . S
Zn211 O220 1.977 . S
O212 Zn211 2.032 . S
O212 C216 1.278 . S
C213 O214 1.203 . S
C213 O220 1.267 . S
O214 C213 1.203 . S
O215 C208 1.185 . S
O215 Zn211 2.086 . S
C216 O212 1.278 . S
C216 O217 1.211 . S
O217 C216 1.211 . S
C218 O210 1.284 . S
C218 O219 1.273 . S
O219 C218 1.273 . S
O220 Zn211 1.977 . S
O220 C213 1.267 . S
C221 O222 1.141 . S
C221 O228 1.185 . S
O222 C221 1.141 . S
O223 Zn224 1.899 . S
O223 C231 1.284 . S
Zn224 O223 1.899 . S
Zn224 O225 2.032 . S
Zn224 O228 2.086 . S
Zn224 O233 1.977 . S
O225 Zn224 2.032 . S
O225 C229 1.278 . S
C226 O227 1.203 . S
C226 O233 1.267 . S
O227 C226 1.203 . S
O228 C221 1.185 . S
O228 Zn224 2.086 . S
C229 O225 1.278 . S
C229 O230 1.211 . S
O230 C229 1.211 . S
C231 O223 1.284 . S
C231 O232 1.273 . S
O232 C231 1.273 . S
O233 Zn224 1.977 . S
O233 C226 1.267 . S
Zn234 O240 1.920 1_455 S
Zn234 O246 1.898 1_445 S
Zn234 O249 1.905 . S
Zn235 O243 1.901 1_545 S
Zn235 O244 1.898 . S
Zn235 O252 1.920 1_455 S
Zn236 O239 2.080 . S
Zn236 O242 2.114 1_545 S
Zn236 O245 2.120 . S
Zn236 O247 2.120 1_445 S
Zn236 O248 2.114 . S
Zn236 O251 2.080 1_455 S
C237 O242 1.166 . S
C237 O243 1.187 . S
C238 O244 1.167 . S
C238 O245 1.299 . S
O239 Zn236 2.080 . S
O239 C253 1.305 1_455 S
O240 Zn234 1.920 1_655 S
O240 C253 1.234 . S
C241 O246 1.167 . S
C241 O247 1.299 . S
O242 Zn236 2.114 1_565 S
O242 C237 1.166 . S
O243 Zn235 1.901 1_565 S
O243 C237 1.187 . S
O244 Zn235 1.898 . S
O244 C238 1.167 . S
O245 Zn236 2.120 . S
O245 C238 1.299 . S
O246 Zn234 1.898 1_665 S
O246 C241 1.167 . S
O247 Zn236 2.120 1_665 S
O247 C241 1.299 . S
O248 Zn236 2.114 . S
O248 C250 1.166 . S
O249 Zn234 1.905 . S
O249 C250 1.182 . S
C250 O248 1.166 . S
C250 O249 1.182 . S
O251 Zn236 2.080 1_655 S
O251 C254 1.305 . S
O252 Zn235 1.920 1_655 S
O252 C254 1.234 . S
C253 O239 1.305 1_655 S
C253 O240 1.234 . S
C254 O251 1.305 . S
C254 O252 1.234 . S
Zn255 O261 1.920 1_545 S
Zn255 O267 1.898 . S
Zn255 O270 1.905 1_455 S
Zn256 O264 1.905 . S
Zn256 O265 1.898 1_445 S
Zn256 O273 1.934 . S
Zn257 O260 2.080 1_545 S
Zn257 O263 2.114 . S
Zn257 O266 2.120 1_445 S
Zn257 O268 2.120 . S
Zn257 O269 2.114 1_455 S
Zn257 O272 2.080 . S
C258 O263 1.166 . S
C258 O264 1.182 . S
C259 O265 1.167 . S
C259 O266 1.299 . S
O260 Zn257 2.080 1_565 S
O260 C274 1.305 . S
O261 Zn255 1.920 1_565 S
O261 C274 1.234 . S
C262 O267 1.167 . S
C262 O268 1.299 . S
O263 Zn257 2.114 . S
O263 C258 1.166 . S
O264 Zn256 1.905 . S
O264 C258 1.182 . S
O265 Zn256 1.898 1_665 S
O265 C259 1.167 . S
O266 Zn257 2.120 1_665 S
O266 C259 1.299 . S
O267 Zn255 1.898 . S
O267 C262 1.167 . S
O268 Zn257 2.120 . S
O268 C262 1.299 . S
O269 Zn257 2.114 1_655 S
O269 C271 1.166 . S
O270 Zn255 1.905 1_655 S
O270 C271 1.182 . S
C271 O269 1.166 . S
C271 O270 1.182 . S
O272 Zn257 2.080 . S
O272 C275 1.305 . S
O273 Zn256 1.934 . S
O273 C275 1.233 . S
C274 O260 1.305 . S
C274 O261 1.234 . S
C275 O272 1.305 . S
C275 O273 1.233 . S
Zn276 O282 1.920 1_545 S
Zn276 O288 1.898 . S
Zn276 O291 1.905 1_455 S
Zn277 O285 1.905 . S
Zn277 O286 1.898 1_445 S
Zn277 O294 1.920 . S
Zn278 O281 2.080 1_545 S
Zn278 O284 2.114 . S
Zn278 O287 2.120 1_445 S
Zn278 O289 2.120 . S
Zn278 O290 2.114 1_455 S
Zn278 O293 2.080 . S
C279 O284 1.166 . S
C279 O285 1.182 . S
C280 O286 1.167 . S
C280 O287 1.299 . S
O281 Zn278 2.080 1_565 S
O281 C295 1.305 . S
O282 Zn276 1.920 1_565 S
O282 C295 1.234 . S
C283 O288 1.167 . S
C283 O289 1.299 . S
O284 Zn278 2.114 . S
O284 C279 1.166 . S
O285 Zn277 1.905 . S
O285 C279 1.182 . S
O286 Zn277 1.898 1_665 S
O286 C280 1.167 . S
O287 Zn278 2.120 1_665 S
O287 C280 1.299 . S
O288 Zn276 1.898 . S
O288 C283 1.167 . S
O289 Zn278 2.120 . S
O289 C283 1.299 . S
O290 Zn278 2.114 1_655 S
O290 C292 1.166 . S
O291 Zn276 1.905 1_655 S
O291 C292 1.182 . S
C292 O290 1.166 . S
C292 O291 1.182 . S
O293 Zn278 2.080 . S
O293 C296 1.305 . S
O294 Zn277 1.920 . S
O294 C296 1.234 . S
C295 O281 1.305 . S
C295 O282 1.234 . S
C296 O293 1.305 . S
C296 O294 1.234 . S
Zn297 O303 1.920 . S
Zn297 O309 1.898 1_445 S
Zn297 O312 1.905 . S
Zn298 O306 1.905 1_545 S
Zn298 O307 1.898 . S
Zn298 O315 1.920 1_455 S
Zn299 O302 2.080 . S
Zn299 O305 2.114 1_545 S
Zn299 O308 2.120 . S
Zn299 O310 2.120 1_445 S
Zn299 O311 2.114 . S
Zn299 O314 2.080 1_455 S
C300 O305 1.166 . S
C300 O306 1.182 . S
C301 O307 1.167 . S
C301 O308 1.299 . S
O302 Zn299 2.080 . S
O302 C316 1.305 . S
O303 Zn297 1.920 . S
O303 C316 1.234 . S
C304 O309 1.167 . S
C304 O310 1.299 . S
O305 Zn299 2.114 1_565 S
O305 C300 1.166 . S
O306 Zn298 1.905 1_565 S
O306 C300 1.182 . S
O307 Zn298 1.898 . S
O307 C301 1.167 . S
O308 Zn299 2.120 . S
O308 C301 1.299 . S
O309 Zn297 1.898 1_665 S
O309 C304 1.167 . S
O310 Zn299 2.120 1_665 S
O310 C304 1.299 . S
O311 Zn299 2.114 . S
O311 C313 1.166 . S
O312 Zn297 1.905 . S
O312 C313 1.182 . S
C313 O311 1.166 . S
C313 O312 1.182 . S
O314 Zn299 2.080 1_655 S
O314 C317 1.305 . S
O315 Zn298 1.920 1_655 S
O315 C317 1.234 . S
C316 O302 1.305 . S
C316 O303 1.234 . S
C317 O314 1.305 . S
C317 O315 1.234 . S
Zn318 O324 1.920 . S
Zn318 O330 1.898 . S
Zn318 O333 1.905 . S
Zn319 O327 1.905 . S
Zn319 O328 1.898 . S
Zn319 O336 1.920 . S
Zn320 O323 2.080 . S
Zn320 O326 2.114 . S
Zn320 O329 2.120 . S
Zn320 O331 2.120 . S
Zn320 O332 2.114 . S
Zn320 O335 2.080 . S
C321 O326 1.166 . S
C321 O327 1.182 . S
C322 O328 1.167 . S
C322 O329 1.299 . S
O323 Zn320 2.080 . S
O323 C337 1.305 . S
O324 Zn318 1.920 . S
O324 C337 1.234 . S
C325 O330 1.167 . S
C325 O331 1.299 . S
O326 Zn320 2.114 . S
O326 C321 1.166 . S
O327 Zn319 1.905 . S
O327 C321 1.182 . S
O328 Zn319 1.898 . S
O328 C322 1.167 . S
O329 Zn320 2.120 . S
O329 C322 1.299 . S
O330 Zn318 1.898 . S
O330 C325 1.167 . S
O331 Zn320 2.120 . S
O331 C325 1.299 . S
O332 Zn320 2.114 . S
O332 C334 1.166 . S
O333 Zn318 1.905 . S
O333 C334 1.182 . S
C334 O332 1.166 . S
C334 O333 1.182 . S
O335 Zn320 2.080 . S
O335 C338 1.305 . S
O336 Zn319 1.920 . S
O336 C338 1.234 . S
C337 O323 1.305 . S
C337 O324 1.234 . S
C338 O335 1.305 . S
C338 O336 1.234 . S
Zn339 O345 1.920 . S
Zn339 O351 1.898 . S
Zn339 O354 1.905 . S
Zn340 O348 1.905 . S
Zn340 O349 1.898 . S
Zn340 O357 1.920 . S
Zn341 O344 2.080 . S
Zn341 O347 2.114 . S
Zn341 O350 2.120 . S
Zn341 O352 2.120 . S
Zn341 O353 2.114 . S
Zn341 O356 2.080 . S
C342 O347 1.166 . S
C342 O348 1.182 . S
C343 O349 1.167 . S
C343 O350 1.299 . S
O344 Zn341 2.080 . S
O344 C358 1.305 . S
O345 Zn339 1.920 . S
O345 C358 1.234 . S
C346 O351 1.167 . S
C346 O352 1.299 . S
O347 Zn341 2.114 . S
O347 C342 1.166 . S
O348 Zn340 1.905 . S
O348 C342 1.182 . S
O349 Zn340 1.898 . S
O349 C343 1.167 . S
O350 Zn341 2.120 . S
O350 C343 1.299 . S
O351 Zn339 1.898 . S
O351 C346 1.167 . S
O352 Zn341 2.120 . S
O352 C346 1.299 . S
O353 Zn341 2.114 . S
O353 C355 1.166 . S
O354 Zn339 1.905 . S
O354 C355 1.182 . S
C355 O353 1.166 . S
C355 O354 1.182 . S
O356 Zn341 2.080 . S
O356 C359 1.305 . S
O357 Zn340 1.920 . S
O357 C359 1.234 . S
C358 O344 1.305 . S
C358 O345 1.234 . S
C359 O356 1.305 . S
C359 O357 1.234 . S
Zn360 O366 1.920 . S
Zn360 O372 1.898 . S
Zn360 O375 1.905 . S
Zn361 O369 1.905 . S
Zn361 O370 1.898 . S
Zn361 O378 1.920 . S
Zn362 O365 2.080 . S
Zn362 O368 2.114 . S
Zn362 O371 2.120 . S
Zn362 O373 2.120 . S
Zn362 O374 2.114 . S
Zn362 O377 2.080 . S
C363 O368 1.166 . S
C363 O369 1.182 . S
C364 O370 1.167 . S
C364 O371 1.299 . S
O365 Zn362 2.080 . S
O365 C379 1.305 . S
O366 Zn360 1.920 . S
O366 C379 1.234 . S
C367 O372 1.167 . S
C367 O373 1.299 . S
O368 Zn362 2.114 . S
O368 C363 1.166 . S
O369 Zn361 1.905 . S
O369 C363 1.182 . S
O370 Zn361 1.898 . S
O370 C364 1.167 . S
O371 Zn362 2.120 . S
O371 C364 1.299 . S
O372 Zn360 1.898 . S
O372 C367 1.167 . S
O373 Zn362 2.120 . S
O373 C367 1.299 . S
O374 Zn362 2.114 . S
O374 C376 1.166 . S
O375 Zn360 1.905 . S
O375 C376 1.182 . S
C376 O374 1.166 . S
C376 O375 1.182 . S
O377 Zn362 2.080 . S
O377 C380 1.305 . S
O378 Zn361 1.920 . S
O378 C380 1.234 . S
C379 O365 1.305 . S
C379 O366 1.234 . S
C380 O377 1.305 . S
C380 O378 1.234 . S
Zn381 O387 1.920 . S
Zn381 O393 1.898 . S
Zn381 O396 1.905 . S
Zn382 O390 1.905 . S
Zn382 O391 1.898 . S
Zn382 O399 1.920 . S
Zn383 O386 2.080 . S
Zn383 O389 2.114 . S
Zn383 O392 2.120 . S
Zn383 O394 2.120 . S
Zn383 O395 2.114 . S
Zn383 O398 2.080 . S
C384 O389 1.166 . S
C384 O390 1.182 . S
C385 O391 1.167 . S
C385 O392 1.299 . S
O386 Zn383 2.080 . S
O386 C400 1.305 . S
O387 Zn381 1.920 . S
O387 C400 1.234 1_554 S
C388 O393 1.167 1_556 S
C388 O394 1.299 . S
O389 Zn383 2.114 . S
O389 C384 1.166 . S
O390 Zn382 1.905 . S
O390 C384 1.182 . S
O391 Zn382 1.898 . S
O391 C385 1.167 . S
O392 Zn383 2.120 . S
O392 C385 1.299 . S
O393 Zn381 1.898 . S
O393 C388 1.167 1_554 S
O394 Zn383 2.120 . S
O394 C388 1.299 . S
O395 Zn383 2.114 . S
O395 C397 1.166 . S
O396 Zn381 1.905 . S
O396 C397 1.182 1_554 S
C397 O395 1.166 . S
C397 O396 1.182 1_556 S
O398 Zn383 2.080 . S
O398 C401 1.305 . S
O399 Zn382 1.920 . S
O399 C401 1.234 . S
C400 O386 1.305 . S
C400 O387 1.234 1_556 S
C401 O398 1.305 . S
C401 O399 1.234 . S
Zn402 O408 1.920 . S
Zn402 O414 1.898 . S
Zn402 O417 1.905 . S
Zn403 O411 1.905 . S
Zn403 O412 1.898 . S
Zn403 O420 1.920 . S
Zn404 O407 2.080 . S
Zn404 O410 2.114 . S
Zn404 O413 2.120 . S
Zn404 O415 2.120 . S
Zn404 O416 2.114 . S
Zn404 O419 2.080 . S
C405 O410 1.166 . S
C405 O411 1.182 . S
C406 O412 1.167 . S
C406 O413 1.299 . S
O407 Zn404 2.080 . S
O407 C421 1.305 . S
O408 Zn402 1.920 . S
O408 C421 1.234 . S
C409 O414 1.167 . S
C409 O415 1.299 . S
O410 Zn404 2.114 . S
O410 C405 1.166 . S
O411 Zn403 1.905 . S
O411 C405 1.182 . S
O412 Zn403 1.898 . S
O412 C406 1.167 . S
O413 Zn404 2.120 . S
O413 C406 1.299 . S
O414 Zn402 1.898 . S
O414 C409 1.167 . S
O415 Zn404 2.120 . S
O415 C409 1.299 . S
O416 Zn404 2.114 . S
O416 C418 1.166 . S
O417 Zn402 1.905 . S
O417 C418 1.182 . S
C418 O416 1.166 . S
C418 O417 1.182 . S
O419 Zn404 2.080 . S
O419 C422 1.305 . S
O420 Zn403 1.920 . S
O420 C422 1.234 . S
C421 O407 1.305 . S
C421 O408 1.234 . S
C422 O419 1.305 . S
C422 O420 1.234 . S
Zn423 O429 1.920 . S
Zn423 O435 1.898 . S
Zn423 O438 1.905 . S
Zn424 O432 1.905 . S
Zn424 O433 1.898 . S
Zn424 O441 1.920 . S
Zn425 O428 2.080 . S
Zn425 O431 2.114 . S
Zn425 O434 2.120 . S
Zn425 O436 2.120 . S
Zn425 O437 2.114 . S
Zn425 O440 2.080 . S
C426 O431 1.166 . S
C426 O432 1.182 1_554 S
C427 O433 1.167 1_554 S
C427 O434 1.299 . S
O428 Zn425 2.080 . S
O428 C442 1.305 . S
O429 Zn423 1.920 . S
O429 C442 1.234 . S
C430 O435 1.167 . S
C430 O436 1.299 . S
O431 Zn425 2.114 . S
O431 C426 1.166 . S
O432 Zn424 1.905 . S
O432 C426 1.182 1_556 S
O433 Zn424 1.898 . S
O433 C427 1.167 1_556 S
O434 Zn425 2.120 . S
O434 C427 1.299 . S
O435 Zn423 1.898 . S
O435 C430 1.167 . S
O436 Zn425 2.120 . S
O436 C430 1.299 . S
O437 Zn425 2.114 . S
O437 C439 1.166 . S
O438 Zn423 1.905 . S
O438 C439 1.182 . S
C439 O437 1.166 . S
C439 O438 1.182 . S
O440 Zn425 2.080 . S
O440 C443 1.305 . S
O441 Zn424 1.920 . S
O441 C443 1.234 1_556 S
C442 O428 1.305 . S
C442 O429 1.234 . S
C443 O440 1.305 . S
C443 O441 1.234 1_554 S
Zn444 O450 1.920 . S
Zn444 O456 1.898 . S
Zn444 O459 1.905 . S
Zn445 O453 1.905 . S
Zn445 O454 1.898 . S
Zn445 O462 1.920 . S
Zn446 O449 2.080 . S
Zn446 O452 2.114 . S
Zn446 O455 2.120 . S
Zn446 O457 2.120 . S
Zn446 O458 2.114 . S
Zn446 O461 2.080 . S
C447 O452 1.166 . S
C447 O453 1.182 . S
C448 O454 1.167 . S
C448 O455 1.299 . S
O449 Zn446 2.080 . S
O449 C463 1.305 . S
O450 Zn444 1.920 . S
O450 C463 1.234 . S
C451 O456 1.167 . S
C451 O457 1.299 . S
O452 Zn446 2.114 . S
O452 C447 1.166 . S
O453 Zn445 1.905 . S
O453 C447 1.182 . S
O454 Zn445 1.898 . S
O454 C448 1.167 . S
O455 Zn446 2.120 . S
O455 C448 1.299 . S
O456 Zn444 1.898 . S
O456 C451 1.167 . S
O457 Zn446 2.120 . S
O457 C451 1.299 . S
O458 Zn446 2.114 . S
O458 C460 1.166 . S
O459 Zn444 1.905 . S
O459 C460 1.182 . S
C460 O458 1.166 . S
C460 O459 1.182 . S
O461 Zn446 2.080 . S
O461 C464 1.305 . S
O462 Zn445 1.920 . S
O462 C464 1.234 . S
C463 O449 1.305 . S
C463 O450 1.234 . S
C464 O461 1.305 . S
C464 O462 1.234 . S
Zn465 O471 1.920 . S
Zn465 O477 1.898 . S
Zn465 O480 1.905 . S
Zn466 O474 1.905 . S
Zn466 O475 1.898 . S
Zn466 O483 1.920 . S
Zn467 O470 2.080 . S
Zn467 O473 2.114 . S
Zn467 O476 2.120 . S
Zn467 O478 2.120 . S
Zn467 O479 2.114 . S
Zn467 O482 2.080 . S
C468 O473 1.166 . S
C468 O474 1.182 . S
C469 O475 1.167 . S
C469 O476 1.299 . S
O470 Zn467 2.080 . S
O470 C484 1.305 . S
O471 Zn465 1.920 . S
O471 C484 1.234 . S
C472 O477 1.167 . S
C472 O478 1.299 . S
O473 Zn467 2.114 . S
O473 C468 1.166 . S
O474 Zn466 1.905 . S
O474 C468 1.182 . S
O475 Zn466 1.898 . S
O475 C469 1.167 . S
O476 Zn467 2.120 . S
O476 C469 1.299 . S
O477 Zn465 1.898 . S
O477 C472 1.167 . S
O478 Zn467 2.120 . S
O478 C472 1.299 . S
O479 Zn467 2.114 . S
O479 C481 1.166 . S
O480 Zn465 1.905 . S
O480 C481 1.182 . S
C481 O479 1.166 . S
C481 O480 1.182 . S
O482 Zn467 2.080 . S
O482 C485 1.305 . S
O483 Zn466 1.920 . S
O483 C485 1.234 . S
C484 O470 1.305 . S
C484 O471 1.234 . S
C485 O482 1.305 . S
C485 O483 1.234 . S
H486 C494 0.929 . S
H487 C496 0.930 . S
H488 C498 0.930 . S
H489 C501 0.929 . S
H490 C504 0.930 . S
H491 C506 0.960 . S
H492 C506 0.960 . S
H493 C506 0.960 . S
C494 H486 0.929 . S
C494 C495 1.377 . S
C494 C496 1.384 . S
C495 C494 1.377 . S
C495 C501 1.390 . S
C496 H487 0.930 . S
C496 C494 1.384 . S
C496 C497 1.372 . S
C497 C496 1.372 . S
C497 C498 1.400 . S
C497 C502 1.490 . S
C498 H488 0.930 . S
C498 C497 1.400 . S
C498 C501 1.386 . S
H499 C515 0.930 . S
H500 C516 0.931 . S
C501 H489 0.929 . S
C501 C495 1.390 . S
C501 C498 1.386 . S
C502 C497 1.490 . S
C502 C504 1.395 . S
C502 C505 1.403 . S
H503 C509 0.930 . S
C504 H490 0.930 . S
C504 C502 1.395 . S
C504 C507 1.403 . S
C505 C502 1.403 . S
C505 C506 1.524 . S
C505 C509 1.400 . S
C506 H491 0.960 . S
C506 H492 0.960 . S
C506 H493 0.960 . S
C506 C505 1.524 . S
C507 C504 1.403 . S
C507 C508 1.392 . S
C507 C511 1.495 . S
C508 C507 1.392 . S
C508 C509 1.385 . S
C508 C510 1.478 . S
C509 H503 0.930 . S
C509 C505 1.400 . S
C509 C508 1.385 . S
C510 C508 1.478 . S
C510 C512 1.381 . S
C510 C516 1.383 . S
C511 C507 1.495 . S
C511 H517 0.959 . S
C511 H518 0.961 . S
C511 H519 0.960 . S
C512 C510 1.381 . S
C512 C513 1.394 . S
C512 H520 0.930 . S
C513 C512 1.394 . S
C513 C514 1.383 . S
C513 H521 0.929 . S
C514 C513 1.383 . S
C514 C515 1.377 . S
C515 H499 0.930 . S
C515 C514 1.377 . S
C515 C516 1.379 . S
C516 H500 0.931 . S
C516 C510 1.383 . S
C516 C515 1.379 . S
H517 C511 0.959 . S
H518 C511 0.961 . S
H519 C511 0.960 . S
H520 C512 0.930 . S
H521 C513 0.929 . S
H522 C530 0.929 . S
H523 C532 0.930 . S
H524 C534 0.930 . S
H525 C537 0.929 . S
H526 C540 0.930 . S
H527 C542 0.960 . S
H528 C542 0.960 . S
H529 C542 0.960 . S
C530 H522 0.929 . S
C530 C531 1.377 . S
C530 C532 1.384 . S
C531 C530 1.377 . S
C531 C537 1.390 1_545 S
C532 H523 0.930 . S
C532 C530 1.384 . S
C532 C533 1.372 . S
C533 C532 1.372 . S
C533 C534 1.400 1_545 S
C533 C538 1.490 . S
C534 H524 0.930 . S
C534 C533 1.400 1_565 S
C534 C537 1.386 . S
H535 C551 0.930 1_565 S
H536 C552 0.931 1_565 S
C537 H525 0.929 . S
C537 C531 1.390 1_565 S
C537 C534 1.386 . S
C538 C533 1.490 . S
C538 C540 1.395 . S
C538 C541 1.403 1_545 S
H539 C545 0.930 1_565 S
C540 H526 0.930 . S
C540 C538 1.395 . S
C540 C543 1.403 . S
C541 C538 1.403 1_565 S
C541 C542 1.524 . S
C541 C545 1.400 1_565 S
C542 H527 0.960 . S
C542 H528 0.960 . S
C542 H529 0.960 . S
C542 C541 1.524 . S
C543 C540 1.403 . S
C543 C544 1.392 . S
C543 C547 1.495 . S
C544 C543 1.392 . S
C544 C545 1.385 . S
C544 C546 1.478 . S
C545 H539 0.930 1_545 S
C545 C541 1.400 1_545 S
C545 C544 1.385 . S
C546 C544 1.478 . S
C546 C548 1.381 . S
C546 C552 1.383 . S
C547 C543 1.495 . S
C547 H553 0.959 . S
C547 H554 0.961 . S
C547 H555 0.960 . S
C548 C546 1.381 . S
C548 C549 1.394 . S
C548 H556 0.930 . S
C549 C548 1.394 . S
C549 C550 1.383 . S
C549 H557 0.929 . S
C550 C549 1.383 . S
C550 C551 1.377 . S
C551 H535 0.930 1_545 S
C551 C550 1.377 . S
C551 C552 1.379 . S
C552 H536 0.931 1_545 S
C552 C546 1.383 . S
C552 C551 1.379 . S
H553 C547 0.959 . S
H554 C547 0.961 . S
H555 C547 0.960 . S
H556 C548 0.930 . S
H557 C549 0.929 . S
H558 C566 0.929 . S
H559 C568 0.930 . S
H560 C570 0.930 1_655 S
H561 C573 0.929 1_655 S
H562 C576 0.930 . S
H563 C578 0.960 . S
H564 C578 0.960 . S
H565 C578 0.960 . S
C566 H558 0.929 . S
C566 C567 1.377 . S
C566 C568 1.384 . S
C567 C566 1.377 . S
C567 C573 1.390 . S
C568 H559 0.930 . S
C568 C566 1.384 . S
C568 C569 1.372 . S
C569 C568 1.372 . S
C569 C570 1.400 . S
C569 C574 1.490 . S
C570 H560 0.930 1_455 S
C570 C569 1.400 . S
C570 C573 1.386 . S
H571 C587 0.930 . S
H572 C588 0.931 . S
C573 H561 0.929 1_455 S
C573 C567 1.390 . S
C573 C570 1.386 . S
C574 C569 1.490 . S
C574 C576 1.395 . S
C574 C577 1.403 1_455 S
H575 C581 0.930 . S
C576 H562 0.930 . S
C576 C574 1.395 . S
C576 C579 1.403 . S
C577 C574 1.403 1_655 S
C577 C578 1.524 . S
C577 C581 1.400 . S
C578 H563 0.960 . S
C578 H564 0.960 . S
C578 H565 0.960 . S
C578 C577 1.524 . S
C579 C576 1.403 . S
C579 C580 1.392 . S
C579 C583 1.495 . S
C580 C579 1.392 . S
C580 C581 1.385 1_455 S
C580 C582 1.478 . S
C581 H575 0.930 . S
C581 C577 1.400 . S
C581 C580 1.385 1_655 S
C582 C580 1.478 . S
C582 C584 1.381 . S
C582 C588 1.383 1_455 S
C583 C579 1.495 . S
C583 H589 0.959 . S
C583 H590 0.961 . S
C583 H591 0.960 . S
C584 C582 1.381 . S
C584 C585 1.394 . S
C584 H592 0.930 . S
C585 C584 1.394 . S
C585 C586 1.383 . S
C585 H593 0.929 . S
C586 C585 1.383 . S
C586 C587 1.377 1_455 S
C587 H571 0.930 . S
C587 C586 1.377 1_655 S
C587 C588 1.379 . S
C588 H572 0.931 . S
C588 C582 1.383 1_655 S
C588 C587 1.379 . S
H589 C583 0.959 . S
H590 C583 0.961 . S
H591 C583 0.960 . S
H592 C584 0.930 . S
H593 C585 0.929 . S
H594 C602 0.929 . S
H595 C604 0.930 . S
H596 C606 0.930 . S
H597 C609 0.929 . S
H598 C612 0.930 . S
H599 C614 0.960 . S
H600 C614 0.960 . S
H601 C614 0.960 . S
C602 H594 0.929 . S
C602 C603 1.377 . S
C602 C604 1.384 . S
C603 C602 1.377 . S
C603 C609 1.390 . S
C604 H595 0.930 . S
C604 C602 1.384 . S
C604 C605 1.372 . S
C605 C604 1.372 . S
C605 C606 1.400 . S
C605 C610 1.490 . S
C606 H596 0.930 . S
C606 C605 1.400 . S
C606 C609 1.386 . S
H607 C623 0.930 . S
H608 C624 0.931 . S
C609 H597 0.929 . S
C609 C603 1.390 . S
C609 C606 1.386 . S
C610 C605 1.490 . S
C610 C612 1.395 . S
C610 C613 1.403 . S
H611 C617 0.930 . S
C612 H598 0.930 . S
C612 C610 1.395 . S
C612 C615 1.403 . S
C613 C610 1.403 . S
C613 C614 1.524 . S
C613 C617 1.400 . S
C614 H599 0.960 . S
C614 H600 0.960 . S
C614 H601 0.960 . S
C614 C613 1.524 . S
C615 C612 1.403 . S
C615 C616 1.392 . S
C615 C619 1.495 . S
C616 C615 1.392 . S
C616 C617 1.385 . S
C616 C618 1.478 . S
C617 H611 0.930 . S
C617 C613 1.400 . S
C617 C616 1.385 . S
C618 C616 1.478 . S
C618 C620 1.381 . S
C618 C624 1.383 . S
C619 C615 1.495 . S
C619 H625 0.959 . S
C619 H626 0.961 . S
C619 H627 0.960 . S
C620 C618 1.381 . S
C620 C621 1.394 . S
C620 H628 0.930 . S
C621 C620 1.394 . S
C621 C622 1.383 . S
C621 H629 0.929 . S
C622 C621 1.383 . S
C622 C623 1.377 . S
C623 H607 0.930 . S
C623 C622 1.377 . S
C623 C624 1.379 . S
C624 H608 0.931 . S
C624 C618 1.383 . S
C624 C623 1.379 . S
H625 C619 0.959 . S
H626 C619 0.961 . S
H627 C619 0.960 . S
H628 C620 0.930 . S
H629 C621 0.929 . S
H630 C638 0.929 . S
H631 C640 0.930 . S
H632 C642 0.961 . S
H633 C645 0.929 1_565 S
H634 C648 0.930 . S
H635 C650 0.960 . S
H636 C650 0.960 1_545 S
H637 C650 0.960 . S
C638 H630 0.929 . S
C638 C639 1.377 . S
C638 C640 1.384 . S
C639 C638 1.377 . S
C639 C645 1.390 . S
C640 H631 0.930 . S
C640 C638 1.384 . S
C640 C641 1.372 . S
C641 C640 1.372 . S
C641 C642 1.385 1_545 S
C641 C646 1.490 . S
C642 H632 0.961 . S
C642 C641 1.385 1_565 S
C642 C645 1.371 1_565 S
H643 C659 0.930 . S
H644 C660 0.931 . S
C645 H633 0.929 1_545 S
C645 C639 1.390 . S
C645 C642 1.371 1_545 S
C646 C641 1.490 . S
C646 C648 1.395 . S
C646 C649 1.403 . S
H647 C653 0.930 1_565 S
C648 H634 0.930 . S
C648 C646 1.395 . S
C648 C651 1.403 . S
C649 C646 1.403 . S
C649 C650 1.524 1_545 S
C649 C653 1.400 . S
C650 H635 0.960 . S
C650 H636 0.960 1_565 S
C650 H637 0.960 . S
C650 C649 1.524 1_565 S
C651 C648 1.403 . S
C651 C652 1.392 . S
C651 C655 1.495 . S
C652 C651 1.392 . S
C652 C653 1.385 . S
C652 C654 1.478 . S
C653 H647 0.930 1_545 S
C653 C649 1.400 . S
C653 C652 1.385 . S
C654 C652 1.478 . S
C654 C656 1.381 . S
C654 C660 1.383 1_545 S
C655 C651 1.495 . S
C655 H661 0.959 . S
C655 H662 0.961 . S
C655 H663 0.960 . S
C656 C654 1.381 . S
C656 C657 1.394 . S
C656 H664 0.930 . S
C657 C656 1.394 . S
C657 C658 1.383 . S
C657 H665 0.929 . S
C658 C657 1.383 . S
C658 C659 1.377 1_545 S
C659 H643 0.930 . S
C659 C658 1.377 1_565 S
C659 C660 1.379 . S
C660 H644 0.931 . S
C660 C654 1.383 1_565 S
C660 C659 1.379 . S
H661 C655 0.959 . S
H662 C655 0.961 . S
H663 C655 0.960 . S
H664 C656 0.930 . S
H665 C657 0.929 . S
H666 C674 0.929 . S
H667 C676 0.930 . S
H668 C678 0.930 . S
H669 C681 0.929 . S
H670 C684 0.930 1_655 S
H671 C686 0.960 . S
H672 C686 0.960 . S
H673 C686 0.960 . S
C674 H666 0.929 . S
C674 C675 1.377 1_655 S
C674 C676 1.384 . S
C675 C674 1.377 1_455 S
C675 C681 1.390 . S
C676 H667 0.930 . S
C676 C674 1.384 . S
C676 C677 1.372 1_655 S
C677 C676 1.372 1_455 S
C677 C678 1.400 . S
C677 C682 1.490 . S
C678 H668 0.930 . S
C678 C677 1.400 . S
C678 C681 1.386 . S
H679 C695 0.930 . S
H680 C696 0.931 . S
C681 H669 0.929 . S
C681 C675 1.390 . S
C681 C678 1.386 . S
C682 C677 1.490 . S
C682 C684 1.395 . S
C682 C685 1.403 . S
H683 C689 0.930 . S
C684 H670 0.930 1_455 S
C684 C682 1.395 . S
C684 C687 1.403 . S
C685 C682 1.403 . S
C685 C686 1.524 . S
C685 C689 1.400 . S
C686 H671 0.960 . S
C686 H672 0.960 . S
C686 H673 0.960 . S
C686 C685 1.524 . S
C687 C684 1.403 . S
C687 C688 1.392 . S
C687 C691 1.495 1_455 S
C688 C687 1.392 . S
C688 C689 1.385 . S
C688 C690 1.478 . S
C689 H683 0.930 . S
C689 C685 1.400 . S
C689 C688 1.385 . S
C690 C688 1.478 . S
C690 C692 1.381 1_455 S
C690 C696 1.383 . S
C691 C687 1.495 1_655 S
C691 H697 0.959 . S
C691 H698 0.961 1_655 S
C691 H699 0.960 . S
C692 C690 1.381 1_655 S
C692 C693 1.394 . S
C692 H700 0.930 . S
C693 C692 1.394 . S
C693 C694 1.383 1_655 S
C693 H701 0.929 . S
C694 C693 1.383 1_455 S
C694 C695 1.377 . S
C695 H679 0.930 . S
C695 C694 1.377 . S
C695 C696 1.379 . S
C696 H680 0.931 . S
C696 C690 1.383 . S
C696 C695 1.379 . S
H697 C691 0.959 . S
H698 C691 0.961 1_455 S
H699 C691 0.960 . S
H700 C692 0.930 . S
H701 C693 0.929 . S
H702 C710 0.929 . S
H703 C712 0.930 . S
H704 C714 0.930 . S
H705 C717 0.929 . S
H706 C720 0.930 . S
H707 C722 0.960 . S
H708 C722 0.960 . S
H709 C722 0.960 . S
C710 H702 0.929 . S
C710 C711 1.377 . S
C710 C712 1.384 . S
C711 C710 1.377 . S
C711 C717 1.390 . S
C712 H703 0.930 . S
C712 C710 1.384 . S
C712 C713 1.372 . S
C713 C712 1.372 . S
C713 C714 1.400 . S
C713 C718 1.490 . S
C714 H704 0.930 . S
C714 C713 1.400 . S
C714 C717 1.386 . S
H715 C731 0.930 . S
H716 C732 0.931 . S
C717 H705 0.929 . S
C717 C711 1.390 . S
C717 C714 1.386 . S
C718 C713 1.490 . S
C718 C720 1.395 . S
C718 C721 1.403 . S
H719 C725 0.930 . S
C720 H706 0.930 . S
C720 C718 1.395 . S
C720 C723 1.403 . S
C721 C718 1.403 . S
C721 C722 1.524 . S
C721 C725 1.400 . S
C722 H707 0.960 . S
C722 H708 0.960 . S
C722 H709 0.960 . S
C722 C721 1.524 . S
C723 C720 1.403 . S
C723 C724 1.392 . S
C723 C727 1.495 . S
C724 C723 1.392 . S
C724 C725 1.385 . S
C724 C726 1.478 . S
C725 H719 0.930 . S
C725 C721 1.400 . S
C725 C724 1.385 . S
C726 C724 1.478 . S
C726 C728 1.381 . S
C726 C732 1.383 . S
C727 C723 1.495 . S
C727 H733 0.959 . S
C727 H734 0.961 . S
C727 H735 0.960 . S
C728 C726 1.381 . S
C728 C729 1.394 . S
C728 H736 0.930 . S
C729 C728 1.394 . S
C729 C730 1.383 . S
C729 H737 0.929 . S
C730 C729 1.383 . S
C730 C731 1.377 . S
C731 H715 0.930 . S
C731 C730 1.377 . S
C731 C732 1.379 . S
C732 H716 0.931 . S
C732 C726 1.383 . S
C732 C731 1.379 . S
H733 C727 0.959 . S
H734 C727 0.961 . S
H735 C727 0.960 . S
H736 C728 0.930 . S
H737 C729 0.929 . S
H738 C746 0.929 . S
H739 C748 0.930 . S
H740 C750 0.930 1_565 S
H741 C753 0.929 1_565 S
H742 C756 0.930 . S
H743 C758 0.960 . S
H744 C758 0.960 . S
H745 C758 0.960 . S
C746 H738 0.929 . S
C746 C747 1.377 . S
C746 C748 1.384 . S
C747 C746 1.377 . S
C747 C753 1.390 . S
C748 H739 0.930 . S
C748 C746 1.384 . S
C748 C749 1.372 . S
C749 C748 1.372 . S
C749 C750 1.400 . S
C749 C754 1.490 . S
C750 H740 0.930 1_545 S
C750 C749 1.400 . S
C750 C753 1.386 . S
H751 C767 0.930 . S
H752 C768 0.931 . S
C753 H741 0.929 1_545 S
C753 C747 1.390 . S
C753 C750 1.386 . S
C754 C749 1.490 . S
C754 C756 1.395 . S
C754 C757 1.403 . S
H755 C761 0.930 . S
C756 H742 0.930 . S
C756 C754 1.395 . S
C756 C759 1.403 . S
C757 C754 1.403 . S
C757 C758 1.524 . S
C757 C761 1.400 . S
C758 H743 0.960 . S
C758 H744 0.960 . S
C758 H745 0.960 . S
C758 C757 1.524 . S
C759 C756 1.403 . S
C759 C760 1.392 . S
C759 C763 1.487 . S
C760 C759 1.392 . S
C760 C761 1.385 . S
C760 C762 1.478 . S
C761 H755 0.930 . S
C761 C757 1.400 . S
C761 C760 1.385 . S
C762 C760 1.478 . S
C762 C764 1.381 . S
C762 C768 1.383 1_545 S
C763 C759 1.487 . S
C763 H769 0.956 1_545 S
C763 H770 0.937 1_545 S
C763 H771 0.997 . S
C764 C762 1.381 . S
C764 C765 1.394 . S
C764 H772 0.930 . S
C765 C764 1.394 . S
C765 C766 1.383 . S
C765 H773 0.929 . S
C766 C765 1.383 . S
C766 C767 1.377 1_545 S
C767 H751 0.930 . S
C767 C766 1.377 1_565 S
C767 C768 1.379 . S
C768 H752 0.931 . S
C768 C762 1.383 1_565 S
C768 C767 1.379 . S
H769 C763 0.956 1_565 S
H770 C763 0.937 1_565 S
H771 C763 0.997 . S
H772 C764 0.930 . S
H773 C765 0.929 . S
H774 C782 0.929 . S
H775 C784 0.930 . S
H776 C786 0.930 . S
H777 C789 0.929 . S
H778 C792 0.927 . S
H779 C794 0.960 . S
H780 C794 0.960 . S
H781 C794 0.960 . S
C782 H774 0.929 . S
C782 C783 1.377 . S
C782 C784 1.384 . S
C783 C782 1.377 . S
C783 C789 1.390 1_455 S
C784 H775 0.930 . S
C784 C782 1.384 . S
C784 C785 1.372 . S
C785 C784 1.372 . S
C785 C786 1.400 1_455 S
C785 C790 1.490 . S
C786 H776 0.930 . S
C786 C785 1.400 1_655 S
C786 C789 1.386 . S
H787 C803 0.930 1_655 S
H788 C804 0.931 1_655 S
C789 H777 0.929 . S
C789 C783 1.390 1_655 S
C789 C786 1.386 . S
C790 C785 1.490 . S
C790 C792 1.395 . S
C790 C793 1.403 . S
H791 C797 0.930 . S
C792 H778 0.927 . S
C792 C790 1.395 . S
C792 C795 1.403 . S
C793 C790 1.403 . S
C793 C794 1.524 . S
C793 C797 1.400 . S
C794 H779 0.960 . S
C794 H780 0.960 . S
C794 H781 0.960 . S
C794 C793 1.524 . S
C795 C792 1.403 . S
C795 C796 1.392 . S
C795 C799 1.495 1_455 S
C796 C795 1.392 . S
C796 C797 1.385 . S
C796 C798 1.478 . S
C797 H791 0.930 . S
C797 C793 1.400 . S
C797 C796 1.385 . S
C798 C796 1.478 . S
C798 C800 1.381 . S
C798 C804 1.383 . S
C799 C795 1.495 1_655 S
C799 H805 0.959 . S
C799 H806 0.961 . S
C799 H807 0.960 1_655 S
C800 C798 1.381 . S
C800 C801 1.394 . S
C800 H808 0.930 . S
C801 C800 1.394 . S
C801 C802 1.383 . S
C801 H809 0.929 . S
C802 C801 1.383 . S
C802 C803 1.377 . S
C803 H787 0.930 1_455 S
C803 C802 1.377 . S
C803 C804 1.379 . S
C804 H788 0.931 1_455 S
C804 C798 1.383 . S
C804 C803 1.379 . S
H805 C799 0.959 . S
H806 C799 0.961 . S
H807 C799 0.960 1_455 S
H808 C800 0.930 . S
H809 C801 0.929 . S
H810 C818 0.929 . S
H811 C820 0.930 . S
H812 C822 0.930 . S
H813 C825 0.929 . S
H814 C828 0.930 . S
H815 C830 0.960 . S
H816 C830 0.960 . S
H817 C830 0.960 . S
C818 H810 0.929 . S
C818 C819 1.377 . S
C818 C820 1.384 . S
C819 C818 1.377 . S
C819 C825 1.390 . S
C820 H811 0.930 . S
C820 C818 1.384 . S
C820 C821 1.372 . S
C821 C820 1.372 . S
C821 C822 1.400 . S
C821 C826 1.490 . S
C822 H812 0.930 . S
C822 C821 1.400 . S
C822 C825 1.386 . S
H823 C839 0.930 . S
H824 C840 0.931 . S
C825 H813 0.929 . S
C825 C819 1.390 . S
C825 C822 1.386 . S
C826 C821 1.490 . S
C826 C828 1.395 . S
C826 C829 1.403 . S
H827 C833 0.930 . S
C828 H814 0.930 . S
C828 C826 1.395 . S
C828 C831 1.403 . S
C829 C826 1.403 . S
C829 C830 1.524 . S
C829 C833 1.400 . S
C830 H815 0.960 . S
C830 H816 0.960 . S
C830 H817 0.960 . S
C830 C829 1.524 . S
C831 C828 1.403 . S
C831 C832 1.392 . S
C831 C835 1.495 . S
C832 C831 1.392 . S
C832 C833 1.385 . S
C832 C834 1.478 . S
C833 H827 0.930 . S
C833 C829 1.400 . S
C833 C832 1.385 . S
C834 C832 1.478 . S
C834 C836 1.381 . S
C834 C840 1.383 . S
C835 C831 1.495 . S
C835 H841 0.959 . S
C835 H842 0.961 . S
C835 H843 0.960 . S
C836 C834 1.381 . S
C836 C837 1.394 . S
C836 H844 0.930 . S
C837 C836 1.394 . S
C837 C838 1.383 . S
C837 H845 0.929 . S
C838 C837 1.383 . S
C838 C839 1.377 . S
C839 H823 0.930 . S
C839 C838 1.377 . S
C839 C840 1.379 . S
C840 H824 0.931 . S
C840 C834 1.383 . S
C840 C839 1.379 . S
H841 C835 0.959 . S
H842 C835 0.961 . S
H843 C835 0.960 . S
H844 C836 0.930 . S
H845 C837 0.929 . S
H846 C854 0.929 . S
H847 C856 0.930 . S
H848 C858 0.930 . S
H849 C861 0.929 . S
H850 C864 0.930 . S
H851 C866 0.960 . S
H852 C866 0.960 . S
H853 C866 0.960 . S
C854 H846 0.929 . S
C854 C855 1.377 . S
C854 C856 1.384 . S
C855 C854 1.377 . S
C855 C861 1.390 1_545 S
C856 H847 0.930 . S
C856 C854 1.384 . S
C856 C857 1.372 . S
C857 C856 1.372 . S
C857 C858 1.400 1_545 S
C857 C862 1.490 . S
C858 H848 0.930 . S
C858 C857 1.400 1_565 S
C858 C861 1.386 . S
H859 C875 0.930 1_565 S
H860 C876 0.931 1_565 S
C861 H849 0.929 . S
C861 C855 1.390 1_565 S
C861 C858 1.386 . S
C862 C857 1.490 . S
C862 C864 1.395 . S
C862 C865 1.403 1_545 S
H863 C869 0.930 1_565 S
C864 H850 0.930 . S
C864 C862 1.395 . S
C864 C867 1.403 . S
C865 C862 1.403 1_565 S
C865 C866 1.528 . S
C865 C869 1.395 1_565 S
C866 H851 0.960 . S
C866 H852 0.960 . S
C866 H853 0.960 . S
C866 C865 1.528 . S
C867 C864 1.403 . S
C867 C868 1.392 . S
C867 C871 1.495 . S
C868 C867 1.392 . S
C868 C869 1.385 . S
C868 C870 1.478 . S
C869 H863 0.930 1_545 S
C869 C865 1.395 1_545 S
C869 C868 1.385 . S
C870 C868 1.478 . S
C870 C872 1.381 . S
C870 C876 1.383 . S
C871 C867 1.495 . S
C871 H877 0.959 . S
C871 H878 0.961 . S
C871 H879 0.960 . S
C872 C870 1.381 . S
C872 C873 1.394 . S
C872 H880 0.930 . S
C873 C872 1.394 . S
C873 C874 1.383 . S
C873 H881 0.929 . S
C874 C873 1.383 . S
C874 C875 1.377 . S
C875 H859 0.930 1_545 S
C875 C874 1.377 . S
C875 C876 1.379 . S
C876 H860 0.931 1_545 S
C876 C870 1.383 . S
C876 C875 1.379 . S
H877 C871 0.959 . S
H878 C871 0.961 . S
H879 C871 0.960 . S
H880 C872 0.930 . S
H881 C873 0.929 . S
H882 C890 0.929 . S
H883 C892 0.930 . S
H884 C894 0.930 1_655 S
H885 C897 0.929 1_655 S
H886 C900 0.930 . S
H887 C902 0.960 . S
H888 C902 0.960 . S
H889 C902 0.960 . S
C890 H882 0.929 . S
C890 C891 1.377 . S
C890 C892 1.384 . S
C891 C890 1.377 . S
C891 C897 1.390 . S
C892 H883 0.930 . S
C892 C890 1.384 . S
C892 C893 1.372 . S
C893 C892 1.372 . S
C893 C894 1.400 . S
C893 C898 1.490 . S
C894 H884 0.930 1_455 S
C894 C893 1.400 . S
C894 C897 1.386 . S
H895 C911 0.930 . S
H896 C912 0.931 . S
C897 H885 0.929 1_455 S
C897 C891 1.390 . S
C897 C894 1.386 . S
C898 C893 1.490 . S
C898 C900 1.395 . S
C898 C901 1.403 1_455 S
H899 C905 0.930 . S
C900 H886 0.930 . S
C900 C898 1.395 . S
C900 C903 1.403 . S
C901 C898 1.403 1_655 S
C901 C902 1.524 . S
C901 C905 1.400 . S
C902 H887 0.960 . S
C902 H888 0.960 . S
C902 H889 0.960 . S
C902 C901 1.524 . S
C903 C900 1.403 . S
C903 C904 1.392 . S
C903 C907 1.495 . S
C904 C903 1.392 . S
C904 C905 1.385 1_455 S
C904 C906 1.478 . S
C905 H899 0.930 . S
C905 C901 1.400 . S
C905 C904 1.385 1_655 S
C906 C904 1.478 . S
C906 C908 1.381 . S
C906 C912 1.383 1_455 S
C907 C903 1.495 . S
C907 H913 0.959 . S
C907 H914 0.961 . S
C907 H915 0.960 . S
C908 C906 1.381 . S
C908 C909 1.394 . S
C908 H916 0.930 . S
C909 C908 1.394 . S
C909 C910 1.383 . S
C909 H917 0.929 . S
C910 C909 1.383 . S
C910 C911 1.377 1_455 S
C911 H895 0.930 . S
C911 C910 1.377 1_655 S
C911 C912 1.379 . S
C912 H896 0.931 . S
C912 C906 1.383 1_655 S
C912 C911 1.379 . S
H913 C907 0.959 . S
H914 C907 0.961 . S
H915 C907 0.960 . S
H916 C908 0.930 . S
H917 C909 0.929 . S
H918 C926 0.929 . S
H919 C928 0.930 . S
H920 C930 0.930 . S
H921 C933 0.929 . S
H922 C936 0.930 . S
H923 C938 0.960 . S
H924 C938 0.960 . S
H925 C938 0.960 . S
C926 H918 0.929 . S
C926 C927 1.377 . S
C926 C928 1.384 . S
C927 C926 1.377 . S
C927 C933 1.390 . S
C928 H919 0.930 . S
C928 C926 1.384 . S
C928 C929 1.372 . S
C929 C928 1.372 . S
C929 C930 1.400 . S
C929 C934 1.490 . S
C930 H920 0.930 . S
C930 C929 1.400 . S
C930 C933 1.386 . S
H931 C947 0.930 . S
H932 C948 0.931 . S
C933 H921 0.929 . S
C933 C927 1.390 . S
C933 C930 1.386 . S
C934 C929 1.490 . S
C934 C936 1.395 . S
C934 C937 1.403 . S
H935 C941 0.930 . S
C936 H922 0.930 . S
C936 C934 1.395 . S
C936 C939 1.403 . S
C937 C934 1.403 . S
C937 C938 1.524 . S
C937 C941 1.400 . S
C938 H923 0.960 . S
C938 H924 0.960 . S
C938 H925 0.960 . S
C938 C937 1.524 . S
C939 C936 1.403 . S
C939 C940 1.392 . S
C939 C943 1.495 . S
C940 C939 1.392 . S
C940 C941 1.385 . S
C940 C942 1.478 . S
C941 H935 0.930 . S
C941 C937 1.400 . S
C941 C940 1.385 . S
C942 C940 1.478 . S
C942 C944 1.381 . S
C942 C948 1.383 . S
C943 C939 1.495 . S
C943 H949 0.959 . S
C943 H950 0.961 . S
C943 H951 0.960 . S
C944 C942 1.381 . S
C944 C945 1.394 . S
C944 H952 0.930 . S
C945 C944 1.394 . S
C945 C946 1.383 . S
C945 H953 0.929 . S
C946 C945 1.383 . S
C946 C947 1.377 . S
C947 H931 0.930 . S
C947 C946 1.377 . S
C947 C948 1.379 . S
C948 H932 0.931 . S
C948 C942 1.383 . S
C948 C947 1.379 . S
H949 C943 0.959 . S
H950 C943 0.961 . S
H951 C943 0.960 . S
H952 C944 0.930 . S
H953 C945 0.929 . S
H954 C962 0.929 . S
H955 C964 0.930 . S
H956 C966 0.930 . S
H957 C969 0.929 . S
H958 C972 0.930 . S
H959 C974 0.960 . S
H960 C974 0.960 . S
H961 C974 0.960 . S
C962 H954 0.929 . S
C962 C963 1.377 . S
C962 C964 1.384 . S
C963 C962 1.377 . S
C963 C969 1.390 . S
C964 H955 0.930 . S
C964 C962 1.384 . S
C964 C965 1.372 . S
C965 C964 1.372 . S
C965 C966 1.400 . S
C965 C970 1.490 . S
C966 H956 0.930 . S
C966 C965 1.400 . S
C966 C969 1.386 . S
H967 C983 0.930 . S
H968 C984 0.931 . S
C969 H957 0.929 . S
C969 C963 1.390 . S
C969 C966 1.386 . S
C970 C965 1.490 . S
C970 C972 1.395 . S
C970 C973 1.403 . S
H971 C977 0.930 . S
C972 H958 0.930 . S
C972 C970 1.395 . S
C972 C975 1.403 . S
C973 C970 1.403 . S
C973 C974 1.524 . S
C973 C977 1.400 . S
C974 H959 0.960 . S
C974 H960 0.960 . S
C974 H961 0.960 . S
C974 C973 1.524 . S
C975 C972 1.403 . S
C975 C976 1.392 . S
C975 C979 1.495 . S
C976 C975 1.392 . S
C976 C977 1.385 . S
C976 C978 1.478 . S
C977 H971 0.930 . S
C977 C973 1.400 . S
C977 C976 1.385 . S
C978 C976 1.478 . S
C978 C980 1.381 . S
C978 C984 1.383 . S
C979 C975 1.495 . S
C979 H985 0.959 . S
C979 H986 0.961 . S
C979 H987 0.960 . S
C980 C978 1.381 . S
C980 C981 1.394 . S
C980 H988 0.930 . S
C981 C980 1.394 . S
C981 C982 1.383 . S
C981 H989 0.929 . S
C982 C981 1.383 . S
C982 C983 1.377 . S
C983 H967 0.930 . S
C983 C982 1.377 . S
C983 C984 1.379 . S
C984 H968 0.931 . S
C984 C978 1.383 . S
C984 C983 1.379 . S
H985 C979 0.959 . S
H986 C979 0.961 . S
H987 C979 0.960 . S
H988 C980 0.930 . S
H989 C981 0.929 . S
H990 C998 0.929 . S
H991 C1000 0.930 . S
H992 C1002 0.930 . S
H993 C1005 0.929 . S
H994 C1008 0.930 . S
H995 C1010 0.960 . S
H996 C1010 0.960 . S
H997 C1010 0.960 . S
C998 H990 0.929 . S
C998 C999 1.377 . S
C998 C1000 1.384 . S
C999 C998 1.377 . S
C999 C1005 1.390 . S
C1000 H991 0.930 . S
C1000 C998 1.384 . S
C1000 C1001 1.372 . S
C1001 C1000 1.372 . S
C1001 C1002 1.400 . S
C1001 C1006 1.490 . S
C1002 H992 0.930 . S
C1002 C1001 1.400 . S
C1002 C1005 1.386 . S
H1003 C1019 0.930 . S
H1004 C1020 0.931 . S
C1005 H993 0.929 . S
C1005 C999 1.390 . S
C1005 C1002 1.386 . S
C1006 C1001 1.490 . S
C1006 C1008 1.395 . S
C1006 C1009 1.403 . S
H1007 C1013 0.930 . S
C1008 H994 0.930 . S
C1008 C1006 1.395 . S
C1008 C1011 1.403 . S
C1009 C1006 1.403 . S
C1009 C1010 1.524 . S
C1009 C1013 1.400 . S
C1010 H995 0.960 . S
C1010 H996 0.960 . S
C1010 H997 0.960 . S
C1010 C1009 1.524 . S
C1011 C1008 1.403 . S
C1011 C1012 1.392 . S
C1011 C1015 1.495 . S
C1012 C1011 1.392 . S
C1012 C1013 1.385 . S
C1012 C1014 1.478 . S
C1013 H1007 0.930 . S
C1013 C1009 1.400 . S
C1013 C1012 1.385 . S
C1014 C1012 1.478 . S
C1014 C1016 1.381 . S
C1014 C1020 1.383 . S
C1015 C1011 1.495 . S
C1015 H1021 0.959 . S
C1015 H1022 0.961 . S
C1015 H1023 0.960 . S
C1016 C1014 1.381 . S
C1016 C1017 1.394 . S
C1016 H1024 0.930 . S
C1017 C1016 1.394 . S
C1017 C1018 1.383 . S
C1017 H1025 0.929 . S
C1018 C1017 1.383 . S
C1018 C1019 1.377 . S
C1019 H1003 0.930 . S
C1019 C1018 1.377 . S
C1019 C1020 1.379 . S
C1020 H1004 0.931 . S
C1020 C1014 1.383 . S
C1020 C1019 1.379 . S
H1021 C1015 0.959 . S
H1022 C1015 0.961 . S
H1023 C1015 0.960 . S
H1024 C1016 0.930 . S
H1025 C1017 0.929 . S
H1026 C1034 0.929 . S
H1027 C1036 0.930 . S
H1028 C1038 0.930 . S
H1029 C1041 0.929 . S
H1030 C1044 0.930 . S
H1031 C1046 0.960 . S
H1032 C1046 0.960 . S
H1033 C1046 0.960 . S
C1034 H1026 0.929 . S
C1034 C1035 1.377 . S
C1034 C1036 1.384 . S
C1035 C1034 1.377 . S
C1035 C1041 1.390 . S
C1036 H1027 0.930 . S
C1036 C1034 1.384 . S
C1036 C1037 1.372 . S
C1037 C1036 1.372 . S
C1037 C1038 1.400 . S
C1037 C1042 1.490 . S
C1038 H1028 0.930 . S
C1038 C1037 1.400 . S
C1038 C1041 1.386 . S
H1039 C1055 0.930 . S
H1040 C1056 0.931 . S
C1041 H1029 0.929 . S
C1041 C1035 1.390 . S
C1041 C1038 1.386 . S
C1042 C1037 1.490 . S
C1042 C1044 1.395 . S
C1042 C1045 1.403 . S
H1043 C1049 0.930 . S
C1044 H1030 0.930 . S
C1044 C1042 1.395 . S
C1044 C1047 1.403 . S
C1045 C1042 1.403 . S
C1045 C1046 1.524 . S
C1045 C1049 1.400 . S
C1046 H1031 0.960 . S
C1046 H1032 0.960 . S
C1046 H1033 0.960 . S
C1046 C1045 1.524 . S
C1047 C1044 1.403 . S
C1047 C1048 1.392 . S
C1047 C1051 1.495 . S
C1048 C1047 1.392 . S
C1048 C1049 1.385 . S
C1048 C1050 1.478 . S
C1049 H1043 0.930 . S
C1049 C1045 1.400 . S
C1049 C1048 1.385 . S
C1050 C1048 1.478 . S
C1050 C1052 1.381 . S
C1050 C1056 1.383 . S
C1051 C1047 1.495 . S
C1051 H1057 0.959 . S
C1051 H1058 0.961 . S
C1051 H1059 0.960 . S
C1052 C1050 1.381 . S
C1052 C1053 1.394 . S
C1052 H1060 0.930 . S
C1053 C1052 1.394 . S
C1053 C1054 1.383 . S
C1053 H1061 0.929 . S
C1054 C1053 1.383 . S
C1054 C1055 1.377 . S
C1055 H1039 0.930 . S
C1055 C1054 1.377 . S
C1055 C1056 1.379 . S
C1056 H1040 0.931 . S
C1056 C1050 1.383 . S
C1056 C1055 1.379 . S
H1057 C1051 0.959 . S
H1058 C1051 0.961 . S
H1059 C1051 0.960 . S
H1060 C1052 0.930 . S
H1061 C1053 0.929 . S
H1062 C1070 0.929 . S
H1063 C1072 0.930 . S
H1064 C1074 0.930 . S
H1065 C1077 0.929 . S
H1066 C1080 0.930 . S
H1067 C1082 0.960 . S
H1068 C1082 0.960 . S
H1069 C1082 0.960 . S
C1070 H1062 0.929 . S
C1070 C1071 1.377 . S
C1070 C1072 1.384 . S
C1071 C1070 1.377 . S
C1071 C1077 1.390 . S
C1072 H1063 0.930 . S
C1072 C1070 1.384 . S
C1072 C1073 1.372 . S
C1073 C1072 1.372 . S
C1073 C1074 1.400 . S
C1073 C1078 1.490 . S
C1074 H1064 0.930 . S
C1074 C1073 1.400 . S
C1074 C1077 1.386 . S
H1075 C1091 0.930 . S
H1076 C1092 0.931 . S
C1077 H1065 0.929 . S
C1077 C1071 1.390 . S
C1077 C1074 1.386 . S
C1078 C1073 1.490 . S
C1078 C1080 1.395 . S
C1078 C1081 1.403 . S
H1079 C1085 0.930 . S
C1080 H1066 0.930 . S
C1080 C1078 1.395 . S
C1080 C1083 1.403 . S
C1081 C1078 1.403 . S
C1081 C1082 1.524 . S
C1081 C1085 1.400 . S
C1082 H1067 0.960 . S
C1082 H1068 0.960 . S
C1082 H1069 0.960 . S
C1082 C1081 1.524 . S
C1083 C1080 1.403 . S
C1083 C1084 1.392 . S
C1083 C1087 1.495 . S
C1084 C1083 1.392 . S
C1084 C1085 1.385 . S
C1084 C1086 1.478 . S
C1085 H1079 0.930 . S
C1085 C1081 1.400 . S
C1085 C1084 1.385 . S
C1086 C1084 1.478 . S
C1086 C1088 1.381 . S
C1086 C1092 1.383 . S
C1087 C1083 1.495 . S
C1087 H1093 0.959 . S
C1087 H1094 0.961 . S
C1087 H1095 0.960 . S
C1088 C1086 1.381 . S
C1088 C1089 1.394 . S
C1088 H1096 0.930 . S
C1089 C1088 1.394 . S
C1089 C1090 1.383 . S
C1089 H1097 0.929 . S
C1090 C1089 1.383 . S
C1090 C1091 1.377 . S
C1091 H1075 0.930 . S
C1091 C1090 1.377 . S
C1091 C1092 1.379 . S
C1092 H1076 0.931 . S
C1092 C1086 1.383 . S
C1092 C1091 1.379 . S
H1093 C1087 0.959 . S
H1094 C1087 0.961 . S
H1095 C1087 0.960 . S
H1096 C1088 0.930 . S
H1097 C1089 0.929 . S
H1098 C1106 0.929 . S
H1099 C1108 0.930 . S
H1100 C1110 0.930 . S
H1101 C1113 0.929 . S
H1102 C1116 0.930 . S
H1103 C1118 0.960 . S
H1104 C1118 0.960 . S
H1105 C1118 0.960 . S
C1106 H1098 0.929 . S
C1106 C1107 1.377 . S
C1106 C1108 1.384 . S
C1107 C1106 1.377 . S
C1107 C1113 1.390 . S
C1108 H1099 0.930 . S
C1108 C1106 1.384 . S
C1108 C1109 1.372 . S
C1109 C1108 1.372 . S
C1109 C1110 1.400 . S
C1109 C1114 1.490 . S
C1110 H1100 0.930 . S
C1110 C1109 1.400 . S
C1110 C1113 1.386 . S
H1111 C1127 0.930 . S
H1112 C1128 0.931 . S
C1113 H1101 0.929 . S
C1113 C1107 1.390 . S
C1113 C1110 1.386 . S
C1114 C1109 1.490 . S
C1114 C1116 1.395 . S
C1114 C1117 1.403 . S
H1115 C1121 0.930 . S
C1116 H1102 0.930 . S
C1116 C1114 1.395 . S
C1116 C1119 1.403 . S
C1117 C1114 1.403 . S
C1117 C1118 1.524 . S
C1117 C1121 1.400 . S
C1118 H1103 0.960 . S
C1118 H1104 0.960 . S
C1118 H1105 0.960 . S
C1118 C1117 1.524 . S
C1119 C1116 1.403 . S
C1119 C1120 1.392 . S
C1119 C1123 1.495 . S
C1120 C1119 1.392 . S
C1120 C1121 1.385 . S
C1120 C1122 1.478 . S
C1121 H1115 0.930 . S
C1121 C1117 1.400 . S
C1121 C1120 1.385 . S
C1122 C1120 1.478 . S
C1122 C1124 1.381 . S
C1122 C1128 1.383 . S
C1123 C1119 1.495 . S
C1123 H1129 0.959 . S
C1123 H1130 0.961 . S
C1123 H1131 0.960 . S
C1124 C1122 1.381 . S
C1124 C1125 1.394 . S
C1124 H1132 0.930 . S
C1125 C1124 1.394 . S
C1125 C1126 1.383 . S
C1125 H1133 0.929 . S
C1126 C1125 1.383 . S
C1126 C1127 1.377 . S
C1127 H1111 0.930 . S
C1127 C1126 1.377 . S
C1127 C1128 1.379 . S
C1128 H1112 0.931 . S
C1128 C1122 1.383 . S
C1128 C1127 1.379 . S
H1129 C1123 0.959 . S
H1130 C1123 0.961 . S
H1131 C1123 0.960 . S
H1132 C1124 0.930 . S
H1133 C1125 0.929 . S
H1134 C1142 0.929 . S
H1135 C1144 0.930 . S
H1136 C1146 0.930 . S
H1137 C1149 0.929 . S
H1138 C1152 0.930 . S
H1139 C1154 0.960 . S
H1140 C1154 0.960 . S
H1141 C1154 0.960 . S
C1142 H1134 0.929 . S
C1142 C1143 1.377 . S
C1142 C1144 1.384 . S
C1143 C1142 1.377 . S
C1143 C1149 1.390 . S
C1144 H1135 0.930 . S
C1144 C1142 1.384 . S
C1144 C1145 1.372 . S
C1145 C1144 1.372 . S
C1145 C1146 1.400 . S
C1145 C1150 1.490 . S
C1146 H1136 0.930 . S
C1146 C1145 1.400 . S
C1146 C1149 1.386 . S
H1147 C1163 0.930 . S
H1148 C1164 0.931 . S
C1149 H1137 0.929 . S
C1149 C1143 1.390 . S
C1149 C1146 1.386 . S
C1150 C1145 1.490 . S
C1150 C1152 1.395 . S
C1150 C1153 1.403 . S
H1151 C1157 0.930 . S
C1152 H1138 0.930 . S
C1152 C1150 1.395 . S
C1152 C1155 1.403 . S
C1153 C1150 1.403 . S
C1153 C1154 1.524 . S
C1153 C1157 1.400 . S
C1154 H1139 0.960 . S
C1154 H1140 0.960 . S
C1154 H1141 0.960 . S
C1154 C1153 1.524 . S
C1155 C1152 1.403 . S
C1155 C1156 1.392 . S
C1155 C1159 1.495 . S
C1156 C1155 1.392 . S
C1156 C1157 1.385 . S
C1156 C1158 1.478 . S
C1157 H1151 0.930 . S
C1157 C1153 1.400 . S
C1157 C1156 1.385 . S
C1158 C1156 1.478 . S
C1158 C1160 1.381 . S
C1158 C1164 1.383 . S
C1159 C1155 1.495 . S
C1159 H1165 0.959 . S
C1159 H1166 0.961 . S
C1159 H1167 0.960 . S
C1160 C1158 1.381 . S
C1160 C1161 1.394 . S
C1160 H1168 0.930 . S
C1161 C1160 1.394 . S
C1161 C1162 1.383 . S
C1161 H1169 0.929 . S
C1162 C1161 1.383 . S
C1162 C1163 1.377 . S
C1163 H1147 0.930 . S
C1163 C1162 1.377 . S
C1163 C1164 1.379 . S
C1164 H1148 0.931 . S
C1164 C1158 1.383 . S
C1164 C1163 1.379 . S
H1165 C1159 0.959 . S
H1166 C1159 0.961 . S
H1167 C1159 0.960 . S
H1168 C1160 0.930 . S
H1169 C1161 0.929 . S
H1170 C1178 0.929 . S
H1171 C1180 0.930 . S
H1172 C1182 0.930 . S
H1173 C1185 0.929 . S
H1174 C1188 0.930 . S
H1175 C1190 0.960 . S
H1176 C1190 0.960 . S
H1177 C1190 0.960 . S
C1178 H1170 0.929 . S
C1178 C1179 1.377 . S
C1178 C1180 1.384 . S
C1179 C1178 1.377 . S
C1179 C1185 1.390 . S
C1180 H1171 0.930 . S
C1180 C1178 1.384 . S
C1180 C1181 1.372 . S
C1181 C1180 1.372 . S
C1181 C1182 1.400 . S
C1181 C1186 1.490 . S
C1182 H1172 0.930 . S
C1182 C1181 1.400 . S
C1182 C1185 1.386 . S
H1183 C1199 0.930 . S
H1184 C1200 0.931 . S
C1185 H1173 0.929 . S
C1185 C1179 1.390 . S
C1185 C1182 1.386 . S
C1186 C1181 1.490 . S
C1186 C1188 1.395 . S
C1186 C1189 1.403 . S
H1187 C1193 0.930 . S
C1188 H1174 0.930 . S
C1188 C1186 1.395 . S
C1188 C1191 1.403 . S
C1189 C1186 1.403 . S
C1189 C1190 1.524 . S
C1189 C1193 1.400 . S
C1190 H1175 0.960 . S
C1190 H1176 0.960 . S
C1190 H1177 0.960 . S
C1190 C1189 1.524 . S
C1191 C1188 1.403 . S
C1191 C1192 1.392 . S
C1191 C1195 1.495 . S
C1192 C1191 1.392 . S
C1192 C1193 1.385 . S
C1192 C1194 1.478 . S
C1193 H1187 0.930 . S
C1193 C1189 1.400 . S
C1193 C1192 1.385 . S
C1194 C1192 1.478 . S
C1194 C1196 1.381 . S
C1194 C1200 1.383 . S
C1195 C1191 1.495 . S
C1195 H1201 0.959 . S
C1195 H1202 0.961 . S
C1195 H1203 0.960 . S
C1196 C1194 1.381 . S
C1196 C1197 1.394 . S
C1196 H1204 0.930 . S
C1197 C1196 1.394 . S
C1197 C1198 1.383 . S
C1197 H1205 0.929 . S
C1198 C1197 1.383 . S
C1198 C1199 1.377 . S
C1199 H1183 0.930 . S
C1199 C1198 1.377 . S
C1199 C1200 1.379 . S
C1200 H1184 0.931 . S
C1200 C1194 1.383 . S
C1200 C1199 1.379 . S
H1201 C1195 0.959 . S
H1202 C1195 0.961 . S
H1203 C1195 0.960 . S
H1204 C1196 0.930 . S
H1205 C1197 0.929 . S
H1206 C1214 0.929 . S
H1207 C1216 0.930 . S
H1208 C1218 0.930 . S
H1209 C1221 0.929 . S
H1210 C1224 0.930 . S
H1211 C1226 0.960 . S
H1212 C1226 0.960 . S
H1213 C1226 0.960 . S
C1214 H1206 0.929 . S
C1214 C1215 1.377 . S
C1214 C1216 1.384 . S
C1215 C1214 1.377 . S
C1215 C1221 1.390 . S
C1216 H1207 0.930 . S
C1216 C1214 1.384 . S
C1216 C1217 1.372 . S
C1217 C1216 1.372 . S
C1217 C1218 1.400 . S
C1217 C1222 1.490 . S
C1218 H1208 0.930 . S
C1218 C1217 1.400 . S
C1218 C1221 1.386 . S
H1219 C1235 0.930 . S
H1220 C1236 0.931 . S
C1221 H1209 0.929 . S
C1221 C1215 1.390 . S
C1221 C1218 1.386 . S
C1222 C1217 1.490 . S
C1222 C1224 1.395 . S
C1222 C1225 1.403 . S
H1223 C1229 0.930 . S
C1224 H1210 0.930 . S
C1224 C1222 1.395 . S
C1224 C1227 1.403 . S
C1225 C1222 1.403 . S
C1225 C1226 1.524 . S
C1225 C1229 1.400 . S
C1226 H1211 0.960 . S
C1226 H1212 0.960 . S
C1226 H1213 0.960 . S
C1226 C1225 1.524 . S
C1227 C1224 1.403 . S
C1227 C1228 1.392 . S
C1227 C1231 1.495 . S
C1228 C1227 1.392 . S
C1228 C1229 1.385 . S
C1228 C1230 1.478 . S
C1229 H1223 0.930 . S
C1229 C1225 1.400 . S
C1229 C1228 1.385 . S
C1230 C1228 1.478 . S
C1230 C1232 1.381 . S
C1230 C1236 1.383 . S
C1231 C1227 1.495 . S
C1231 H1237 0.959 . S
C1231 H1238 0.961 . S
C1231 H1239 0.960 . S
C1232 C1230 1.381 . S
C1232 C1233 1.394 . S
C1232 H1240 0.930 . S
C1233 C1232 1.394 . S
C1233 C1234 1.383 . S
C1233 H1241 0.929 . S
C1234 C1233 1.383 . S
C1234 C1235 1.377 . S
C1235 H1219 0.930 . S
C1235 C1234 1.377 . S
C1235 C1236 1.379 . S
C1236 H1220 0.931 . S
C1236 C1230 1.383 . S
C1236 C1235 1.379 . S
H1237 C1231 0.959 . S
H1238 C1231 0.961 . S
H1239 C1231 0.960 . S
H1240 C1232 0.930 . S
H1241 C1233 0.929 . S
H1242 C1250 0.929 . S
H1243 C1252 0.930 . S
H1244 C1254 0.930 . S
H1245 C1257 0.929 . S
H1246 C1260 0.930 . S
H1247 C1262 0.960 . S
H1248 C1262 0.960 . S
H1249 C1262 0.960 . S
C1250 H1242 0.929 . S
C1250 C1251 1.377 . S
C1250 C1252 1.384 . S
C1251 C1250 1.377 . S
C1251 C1257 1.390 . S
C1252 H1243 0.930 . S
C1252 C1250 1.384 . S
C1252 C1253 1.372 . S
C1253 C1252 1.372 . S
C1253 C1254 1.400 . S
C1253 C1258 1.490 . S
C1254 H1244 0.930 . S
C1254 C1253 1.400 . S
C1254 C1257 1.386 . S
H1255 C1271 0.930 . S
H1256 C1272 0.931 . S
C1257 H1245 0.929 . S
C1257 C1251 1.390 . S
C1257 C1254 1.386 . S
C1258 C1253 1.490 . S
C1258 C1260 1.395 . S
C1258 C1261 1.403 . S
H1259 C1265 0.930 . S
C1260 H1246 0.930 . S
C1260 C1258 1.395 . S
C1260 C1263 1.403 . S
C1261 C1258 1.403 . S
C1261 C1262 1.524 . S
C1261 C1265 1.400 . S
C1262 H1247 0.960 . S
C1262 H1248 0.960 . S
C1262 H1249 0.960 . S
C1262 C1261 1.524 . S
C1263 C1260 1.403 . S
C1263 C1264 1.392 . S
C1263 C1267 1.495 . S
C1264 C1263 1.392 . S
C1264 C1265 1.385 . S
C1264 C1266 1.478 . S
C1265 H1259 0.930 . S
C1265 C1261 1.400 . S
C1265 C1264 1.385 . S
C1266 C1264 1.478 . S
C1266 C1268 1.381 . S
C1266 C1272 1.383 . S
C1267 C1263 1.495 . S
C1267 H1273 0.959 . S
C1267 H1274 0.961 . S
C1267 H1275 0.960 . S
C1268 C1266 1.381 . S
C1268 C1269 1.394 1_554 S
C1268 H1276 0.930 . S
C1269 C1268 1.394 1_556 S
C1269 C1270 1.383 . S
C1269 H1277 0.929 . S
C1270 C1269 1.383 . S
C1270 C1271 1.377 1_556 S
C1271 H1255 0.930 . S
C1271 C1270 1.377 1_554 S
C1271 C1272 1.379 . S
C1272 H1256 0.931 . S
C1272 C1266 1.383 . S
C1272 C1271 1.379 . S
H1273 C1267 0.959 . S
H1274 C1267 0.961 . S
H1275 C1267 0.960 . S
H1276 C1268 0.930 . S
H1277 C1269 0.929 . S
H1278 C1286 0.929 . S
H1279 C1288 0.930 . S
H1280 C1290 0.930 . S
H1281 C1293 0.929 . S
H1282 C1296 0.930 . S
H1283 C1298 0.960 . S
H1284 C1298 0.960 . S
H1285 C1298 0.960 . S
C1286 H1278 0.929 . S
C1286 C1287 1.377 . S
C1286 C1288 1.384 . S
C1287 C1286 1.377 . S
C1287 C1293 1.390 . S
C1288 H1279 0.930 . S
C1288 C1286 1.384 . S
C1288 C1289 1.372 . S
C1289 C1288 1.372 . S
C1289 C1290 1.400 . S
C1289 C1294 1.490 . S
C1290 H1280 0.930 . S
C1290 C1289 1.400 . S
C1290 C1293 1.386 . S
H1291 C1307 0.940 . S
H1292 C1308 0.931 . S
C1293 H1281 0.929 . S
C1293 C1287 1.390 . S
C1293 C1290 1.386 . S
C1294 C1289 1.490 . S
C1294 C1296 1.395 . S
C1294 C1297 1.403 . S
H1295 C1301 0.930 . S
C1296 H1282 0.930 . S
C1296 C1294 1.395 . S
C1296 C1299 1.403 . S
C1297 C1294 1.403 . S
C1297 C1298 1.524 . S
C1297 C1301 1.400 . S
C1298 H1283 0.960 . S
C1298 H1284 0.960 . S
C1298 H1285 0.960 . S
C1298 C1297 1.524 . S
C1299 C1296 1.403 . S
C1299 C1300 1.392 . S
C1299 C1303 1.495 . S
C1300 C1299 1.392 . S
C1300 C1301 1.385 . S
C1300 C1302 1.478 . S
C1301 H1295 0.930 . S
C1301 C1297 1.400 . S
C1301 C1300 1.385 . S
C1302 C1300 1.478 . S
C1302 C1304 1.381 . S
C1302 C1308 1.383 . S
C1303 C1299 1.495 . S
C1303 H1309 0.959 . S
C1303 H1310 0.961 . S
C1303 H1311 0.960 . S
C1304 C1302 1.381 . S
C1304 C1305 1.395 1_554 S
C1304 H1312 0.930 . S
C1305 C1304 1.395 1_556 S
C1305 C1306 1.383 . S
C1305 H1313 0.929 . S
C1306 C1305 1.383 . S
C1306 C1307 1.377 1_556 S
C1307 H1291 0.940 . S
C1307 C1306 1.377 1_554 S
C1307 C1308 1.379 . S
C1308 H1292 0.931 . S
C1308 C1302 1.383 . S
C1308 C1307 1.379 . S
H1309 C1303 0.959 . S
H1310 C1303 0.961 . S
H1311 C1303 0.960 . S
H1312 C1304 0.930 . S
H1313 C1305 0.929 . S
H1314 C1322 0.929 . S
H1315 C1324 0.930 . S
H1316 C1326 0.930 . S
H1317 C1329 0.929 . S
H1318 C1332 0.930 . S
H1319 C1334 0.960 . S
H1320 C1334 0.960 . S
H1321 C1334 0.960 . S
C1322 H1314 0.929 . S
C1322 C1323 1.377 . S
C1322 C1324 1.384 . S
C1323 C1322 1.377 . S
C1323 C1329 1.390 . S
C1324 H1315 0.930 . S
C1324 C1322 1.384 . S
C1324 C1325 1.372 . S
C1325 C1324 1.372 . S
C1325 C1326 1.400 . S
C1325 C1330 1.490 . S
C1326 H1316 0.930 . S
C1326 C1325 1.400 . S
C1326 C1329 1.386 . S
H1327 C1343 0.930 . S
H1328 C1344 0.931 . S
C1329 H1317 0.929 . S
C1329 C1323 1.390 . S
C1329 C1326 1.386 . S
C1330 C1325 1.490 . S
C1330 C1332 1.395 . S
C1330 C1333 1.403 . S
H1331 C1337 0.930 . S
C1332 H1318 0.930 . S
C1332 C1330 1.395 . S
C1332 C1335 1.403 . S
C1333 C1330 1.403 . S
C1333 C1334 1.524 . S
C1333 C1337 1.400 . S
C1334 H1319 0.960 . S
C1334 H1320 0.960 . S
C1334 H1321 0.960 . S
C1334 C1333 1.524 . S
C1335 C1332 1.403 . S
C1335 C1336 1.392 . S
C1335 C1339 1.495 . S
C1336 C1335 1.392 . S
C1336 C1337 1.385 . S
C1336 C1338 1.478 . S
C1337 H1331 0.930 . S
C1337 C1333 1.400 . S
C1337 C1336 1.385 . S
C1338 C1336 1.478 . S
C1338 C1340 1.381 . S
C1338 C1344 1.383 . S
C1339 C1335 1.495 . S
C1339 H1345 0.959 . S
C1339 H1346 0.961 . S
C1339 H1347 0.960 . S
C1340 C1338 1.381 . S
C1340 C1341 1.394 . S
C1340 H1348 0.930 . S
C1341 C1340 1.394 . S
C1341 C1342 1.383 1_554 S
C1341 H1349 0.929 . S
C1342 C1341 1.383 1_556 S
C1342 C1343 1.377 . S
C1343 H1327 0.930 . S
C1343 C1342 1.377 . S
C1343 C1344 1.379 1_556 S
C1344 H1328 0.931 . S
C1344 C1338 1.383 . S
C1344 C1343 1.379 1_554 S
H1345 C1339 0.959 . S
H1346 C1339 0.961 . S
H1347 C1339 0.960 . S
H1348 C1340 0.930 . S
H1349 C1341 0.929 . S
H1350 C1358 0.929 . S
H1351 C1360 0.930 . S
H1352 C1362 0.930 . S
H1353 C1365 0.929 . S
H1354 C1368 0.930 . S
H1355 C1370 0.960 . S
H1356 C1370 0.960 . S
H1357 C1370 0.960 . S
C1358 H1350 0.929 . S
C1358 C1359 1.377 . S
C1358 C1360 1.384 . S
C1359 C1358 1.377 . S
C1359 C1365 1.390 . S
C1360 H1351 0.930 . S
C1360 C1358 1.384 . S
C1360 C1361 1.372 . S
C1361 C1360 1.372 . S
C1361 C1362 1.400 . S
C1361 C1366 1.490 . S
C1362 H1352 0.930 . S
C1362 C1361 1.400 . S
C1362 C1365 1.386 . S
H1363 C1379 0.930 . S
H1364 C1380 0.931 . S
C1365 H1353 0.929 . S
C1365 C1359 1.390 . S
C1365 C1362 1.386 . S
C1366 C1361 1.490 . S
C1366 C1368 1.395 . S
C1366 C1369 1.403 . S
H1367 C1373 0.930 . S
C1368 H1354 0.930 . S
C1368 C1366 1.395 . S
C1368 C1371 1.403 . S
C1369 C1366 1.403 . S
C1369 C1370 1.524 . S
C1369 C1373 1.400 . S
C1370 H1355 0.960 . S
C1370 H1356 0.960 . S
C1370 H1357 0.960 . S
C1370 C1369 1.524 . S
C1371 C1368 1.403 . S
C1371 C1372 1.392 . S
C1371 C1375 1.495 . S
C1372 C1371 1.392 . S
C1372 C1373 1.385 . S
C1372 C1374 1.478 . S
C1373 H1367 0.930 . S
C1373 C1369 1.400 . S
C1373 C1372 1.385 . S
C1374 C1372 1.478 . S
C1374 C1376 1.381 . S
C1374 C1380 1.383 . S
C1375 C1371 1.495 . S
C1375 H1381 0.959 . S
C1375 H1382 0.961 . S
C1375 H1383 0.960 . S
C1376 C1374 1.381 . S
C1376 C1377 1.394 . S
C1376 H1384 0.930 . S
C1377 C1376 1.394 . S
C1377 C1378 1.383 . S
C1377 H1385 0.929 . S
C1378 C1377 1.383 . S
C1378 C1379 1.377 . S
C1379 H1363 0.930 . S
C1379 C1378 1.377 . S
C1379 C1380 1.379 . S
C1380 H1364 0.931 . S
C1380 C1374 1.383 . S
C1380 C1379 1.379 . S
H1381 C1375 0.959 . S
H1382 C1375 0.961 . S
H1383 C1375 0.960 . S
H1384 C1376 0.930 . S
H1385 C1377 0.929 . S
H1386 C1394 0.929 . S
H1387 C1396 0.930 . S
H1388 C1398 0.930 . S
H1389 C1401 0.929 . S
H1390 C1404 0.930 . S
H1391 C1406 0.960 . S
H1392 C1406 0.960 . S
H1393 C1406 0.960 . S
C1394 H1386 0.929 . S
C1394 C1395 1.377 . S
C1394 C1396 1.384 . S
C1395 C1394 1.377 . S
C1395 C1401 1.390 . S
C1396 H1387 0.930 . S
C1396 C1394 1.384 . S
C1396 C1397 1.372 . S
C1397 C1396 1.372 . S
C1397 C1398 1.400 . S
C1397 C1402 1.490 . S
C1398 H1388 0.930 . S
C1398 C1397 1.400 . S
C1398 C1401 1.386 . S
H1399 C1415 0.930 . S
H1400 C1416 0.931 . S
C1401 H1389 0.929 . S
C1401 C1395 1.390 . S
C1401 C1398 1.386 . S
C1402 C1397 1.490 . S
C1402 C1404 1.395 . S
C1402 C1405 1.403 . S
H1403 C1409 0.930 . S
C1404 H1390 0.930 . S
C1404 C1402 1.395 . S
C1404 C1407 1.403 . S
C1405 C1402 1.403 . S
C1405 C1406 1.524 . S
C1405 C1409 1.400 . S
C1406 H1391 0.960 . S
C1406 H1392 0.960 . S
C1406 H1393 0.960 . S
C1406 C1405 1.524 . S
C1407 C1404 1.403 . S
C1407 C1408 1.392 . S
C1407 C1411 1.495 . S
C1408 C1407 1.392 . S
C1408 C1409 1.385 . S
C1408 C1410 1.478 . S
C1409 H1403 0.930 . S
C1409 C1405 1.400 . S
C1409 C1408 1.385 . S
C1410 C1408 1.478 . S
C1410 C1412 1.381 . S
C1410 C1416 1.383 . S
C1411 C1407 1.495 . S
C1411 H1417 0.959 . S
C1411 H1418 0.961 . S
C1411 H1419 0.960 . S
C1412 C1410 1.381 . S
C1412 C1413 1.394 . S
C1412 H1420 0.930 . S
C1413 C1412 1.394 . S
C1413 C1414 1.383 . S
C1413 H1421 0.929 . S
C1414 C1413 1.383 . S
C1414 C1415 1.377 . S
C1415 H1399 0.930 . S
C1415 C1414 1.377 . S
C1415 C1416 1.379 . S
C1416 H1400 0.931 . S
C1416 C1410 1.383 . S
C1416 C1415 1.379 . S
H1417 C1411 0.959 . S
H1418 C1411 0.961 . S
H1419 C1411 0.960 . S
H1420 C1412 0.930 . S
H1421 C1413 0.929 . S
H1422 C1430 0.929 . S
H1423 C1432 0.930 . S
H1424 C1434 0.930 . S
H1425 C1437 0.929 . S
H1426 C1440 0.930 . S
H1427 C1442 0.960 . S
H1428 C1442 0.960 . S
H1429 C1442 0.960 . S
C1430 H1422 0.929 . S
C1430 C1431 1.377 . S
C1430 C1432 1.384 . S
C1431 C1430 1.377 . S
C1431 C1437 1.390 . S
C1432 H1423 0.930 . S
C1432 C1430 1.384 . S
C1432 C1433 1.372 . S
C1433 C1432 1.372 . S
C1433 C1434 1.400 . S
C1433 C1438 1.490 . S
C1434 H1424 0.930 . S
C1434 C1433 1.400 . S
C1434 C1437 1.386 . S
H1435 C1451 0.930 . S
H1436 C1452 0.931 . S
C1437 H1425 0.929 . S
C1437 C1431 1.390 . S
C1437 C1434 1.386 . S
C1438 C1433 1.490 . S
C1438 C1440 1.395 . S
C1438 C1441 1.403 . S
H1439 C1445 0.930 . S
C1440 H1426 0.930 . S
C1440 C1438 1.395 . S
C1440 C1443 1.403 . S
C1441 C1438 1.403 . S
C1441 C1442 1.524 . S
C1441 C1445 1.400 . S
C1442 H1427 0.960 . S
C1442 H1428 0.960 . S
C1442 H1429 0.960 . S
C1442 C1441 1.524 . S
C1443 C1440 1.403 . S
C1443 C1444 1.392 . S
C1443 C1447 1.495 . S
C1444 C1443 1.392 . S
C1444 C1445 1.385 . S
C1444 C1446 1.478 . S
C1445 H1439 0.930 . S
C1445 C1441 1.400 . S
C1445 C1444 1.385 . S
C1446 C1444 1.478 . S
C1446 C1448 1.381 . S
C1446 C1452 1.383 . S
C1447 C1443 1.495 . S
C1447 H1453 0.959 . S
C1447 H1454 0.961 . S
C1447 H1455 0.960 . S
C1448 C1446 1.381 . S
C1448 C1449 1.394 . S
C1448 H1456 0.930 . S
C1449 C1448 1.394 . S
C1449 C1450 1.383 . S
C1449 H1457 0.929 . S
C1450 C1449 1.383 . S
C1450 C1451 1.377 . S
C1451 H1435 0.930 . S
C1451 C1450 1.377 . S
C1451 C1452 1.379 . S
C1452 H1436 0.931 . S
C1452 C1446 1.383 . S
C1452 C1451 1.379 . S
H1453 C1447 0.959 . S
H1454 C1447 0.961 . S
H1455 C1447 0.960 . S
H1456 C1448 0.930 . S
H1457 C1449 0.929 . S
H1458 C1466 0.929 . S
H1459 C1468 0.930 . S
H1460 C1470 0.930 . S
H1461 C1473 0.929 . S
H1462 C1476 0.930 . S
H1463 C1478 0.960 . S
H1464 C1478 0.960 . S
H1465 C1478 0.960 . S
C1466 H1458 0.929 . S
C1466 C1467 1.377 . S
C1466 C1468 1.384 . S
C1467 C1466 1.377 . S
C1467 C1473 1.390 . S
C1468 H1459 0.930 . S
C1468 C1466 1.384 . S
C1468 C1469 1.372 . S
C1469 C1468 1.372 . S
C1469 C1470 1.400 . S
C1469 C1474 1.490 . S
C1470 H1460 0.930 . S
C1470 C1469 1.400 . S
C1470 C1473 1.386 . S
H1471 C1487 0.930 1_554 S
H1472 C1488 0.931 . S
C1473 H1461 0.929 . S
C1473 C1467 1.390 . S
C1473 C1470 1.386 . S
C1474 C1469 1.490 . S
C1474 C1476 1.395 . S
C1474 C1477 1.403 . S
H1475 C1481 0.930 . S
C1476 H1462 0.930 . S
C1476 C1474 1.395 . S
C1476 C1479 1.403 . S
C1477 C1474 1.403 . S
C1477 C1478 1.524 . S
C1477 C1481 1.400 . S
C1478 H1463 0.960 . S
C1478 H1464 0.960 . S
C1478 H1465 0.960 . S
C1478 C1477 1.524 . S
C1479 C1476 1.403 . S
C1479 C1480 1.392 . S
C1479 C1483 1.495 . S
C1480 C1479 1.392 . S
C1480 C1481 1.385 . S
C1480 C1482 1.478 . S
C1481 H1475 0.930 . S
C1481 C1477 1.400 . S
C1481 C1480 1.385 . S
C1482 C1480 1.478 . S
C1482 C1484 1.381 . S
C1482 C1488 1.383 . S
C1483 C1479 1.495 . S
C1483 H1489 0.959 . S
C1483 H1490 0.961 . S
C1483 H1491 0.960 . S
C1484 C1482 1.381 . S
C1484 C1485 1.394 . S
C1484 H1492 0.930 . S
C1485 C1484 1.394 . S
C1485 C1486 1.383 1_556 S
C1485 H1493 0.929 . S
C1486 C1485 1.383 1_554 S
C1486 C1487 1.377 1_554 S
C1487 H1471 0.930 1_556 S
C1487 C1486 1.377 1_556 S
C1487 C1488 1.379 . S
C1488 H1472 0.931 . S
C1488 C1482 1.383 . S
C1488 C1487 1.379 . S
H1489 C1483 0.959 . S
H1490 C1483 0.961 . S
H1491 C1483 0.960 . S
H1492 C1484 0.930 . S
H1493 C1485 0.929 . S
H1494 C1502 0.929 . S
H1495 C1504 0.930 . S
H1496 C1506 0.930 . S
H1497 C1509 0.929 . S
H1498 C1512 0.930 . S
H1499 C1514 0.960 . S
H1500 C1514 0.960 . S
H1501 C1514 0.960 . S
C1502 H1494 0.929 . S
C1502 C1503 1.377 . S
C1502 C1504 1.384 . S
C1503 C1502 1.377 . S
C1503 C1509 1.390 . S
C1504 H1495 0.930 . S
C1504 C1502 1.384 . S
C1504 C1505 1.372 . S
C1505 C1504 1.372 . S
C1505 C1506 1.400 . S
C1505 C1510 1.490 . S
C1506 H1496 0.930 . S
C1506 C1505 1.400 . S
C1506 C1509 1.386 . S
H1507 C1523 0.930 . S
H1508 C1524 0.965 . S
C1509 H1497 0.929 . S
C1509 C1503 1.390 . S
C1509 C1506 1.386 . S
C1510 C1505 1.490 . S
C1510 C1512 1.395 . S
C1510 C1513 1.403 . S
H1511 C1517 0.930 . S
C1512 H1498 0.930 . S
C1512 C1510 1.395 . S
C1512 C1515 1.403 . S
C1513 C1510 1.403 . S
C1513 C1514 1.524 . S
C1513 C1517 1.400 . S
C1514 H1499 0.960 . S
C1514 H1500 0.960 . S
C1514 H1501 0.960 . S
C1514 C1513 1.524 . S
C1515 C1512 1.403 . S
C1515 C1516 1.392 . S
C1515 C1519 1.495 . S
C1516 C1515 1.392 . S
C1516 C1517 1.385 . S
C1516 C1518 1.478 . S
C1517 H1511 0.930 . S
C1517 C1513 1.400 . S
C1517 C1516 1.385 . S
C1518 C1516 1.478 . S
C1518 C1520 1.381 . S
C1518 C1524 1.383 . S
C1519 C1515 1.495 . S
C1519 H1525 0.959 . S
C1519 H1526 0.961 . S
C1519 H1527 0.960 . S
C1520 C1518 1.381 . S
C1520 C1521 1.394 . S
C1520 H1528 0.930 . S
C1521 C1520 1.394 . S
C1521 C1522 1.383 1_556 S
C1521 H1529 0.929 . S
C1522 C1521 1.383 1_554 S
C1522 C1523 1.377 . S
C1523 H1507 0.930 . S
C1523 C1522 1.377 . S
C1523 C1524 1.379 1_554 S
C1524 H1508 0.965 . S
C1524 C1518 1.383 . S
C1524 C1523 1.379 1_556 S
H1525 C1519 0.959 . S
H1526 C1519 0.961 . S
H1527 C1519 0.960 . S
H1528 C1520 0.930 . S
H1529 C1521 0.929 . S
H1530 C1538 0.929 . S
H1531 C1540 0.930 . S
H1532 C1542 0.930 . S
H1533 C1545 0.929 . S
H1534 C1548 0.930 . S
H1535 C1550 0.960 . S
H1536 C1550 0.960 . S
H1537 C1550 0.960 . S
C1538 H1530 0.929 . S
C1538 C1539 1.377 . S
C1538 C1540 1.384 . S
C1539 C1538 1.377 . S
C1539 C1545 1.390 . S
C1540 H1531 0.930 . S
C1540 C1538 1.384 . S
C1540 C1541 1.372 . S
C1541 C1540 1.372 . S
C1541 C1542 1.400 . S
C1541 C1546 1.490 . S
C1542 H1532 0.930 . S
C1542 C1541 1.400 . S
C1542 C1545 1.386 . S
H1543 C1559 0.930 . S
H1544 C1560 0.931 . S
C1545 H1533 0.929 . S
C1545 C1539 1.390 . S
C1545 C1542 1.386 . S
C1546 C1541 1.490 . S
C1546 C1548 1.395 . S
C1546 C1549 1.403 . S
H1547 C1553 0.930 . S
C1548 H1534 0.930 . S
C1548 C1546 1.395 . S
C1548 C1551 1.403 . S
C1549 C1546 1.403 . S
C1549 C1550 1.524 . S
C1549 C1553 1.400 . S
C1550 H1535 0.960 . S
C1550 H1536 0.960 . S
C1550 H1537 0.960 . S
C1550 C1549 1.524 . S
C1551 C1548 1.403 . S
C1551 C1552 1.392 . S
C1551 C1555 1.495 . S
C1552 C1551 1.392 . S
C1552 C1553 1.385 . S
C1552 C1554 1.478 . S
C1553 H1547 0.930 . S
C1553 C1549 1.400 . S
C1553 C1552 1.385 . S
C1554 C1552 1.478 . S
C1554 C1556 1.381 . S
C1554 C1560 1.383 . S
C1555 C1551 1.495 . S
C1555 H1561 0.959 . S
C1555 H1562 0.961 . S
C1555 H1563 0.960 . S
C1556 C1554 1.381 . S
C1556 C1557 1.394 1_556 S
C1556 H1564 0.930 . S
C1557 C1556 1.394 1_554 S
C1557 C1558 1.383 . S
C1557 H1565 0.929 . S
C1558 C1557 1.383 . S
C1558 C1559 1.377 1_554 S
C1559 H1543 0.930 . S
C1559 C1558 1.377 1_556 S
C1559 C1560 1.379 . S
C1560 H1544 0.931 . S
C1560 C1554 1.383 . S
C1560 C1559 1.379 . S
H1561 C1555 0.959 . S
H1562 C1555 0.961 . S
H1563 C1555 0.960 . S
H1564 C1556 0.930 . S
H1565 C1557 0.929 . S
H1566 C1574 0.929 . S
H1567 C1576 0.930 . S
H1568 C1578 0.930 . S
H1569 C1581 0.929 . S
H1570 C1584 0.930 . S
H1571 C1586 0.960 . S
H1572 C1586 0.960 . S
H1573 C1586 0.960 . S
C1574 H1566 0.929 . S
C1574 C1575 1.377 . S
C1574 C1576 1.384 . S
C1575 C1574 1.377 . S
C1575 C1581 1.390 . S
C1576 H1567 0.930 . S
C1576 C1574 1.384 . S
C1576 C1577 1.372 . S
C1577 C1576 1.372 . S
C1577 C1578 1.400 . S
C1577 C1582 1.490 . S
C1578 H1568 0.930 . S
C1578 C1577 1.400 . S
C1578 C1581 1.386 . S
H1579 C1595 0.930 . S
H1580 C1596 0.931 . S
C1581 H1569 0.929 . S
C1581 C1575 1.390 . S
C1581 C1578 1.386 . S
C1582 C1577 1.490 . S
C1582 C1584 1.395 . S
C1582 C1585 1.403 . S
H1583 C1589 0.930 . S
C1584 H1570 0.930 . S
C1584 C1582 1.395 . S
C1584 C1587 1.403 . S
C1585 C1582 1.403 . S
C1585 C1586 1.524 . S
C1585 C1589 1.400 . S
C1586 H1571 0.960 . S
C1586 H1572 0.960 . S
C1586 H1573 0.960 . S
C1586 C1585 1.524 . S
C1587 C1584 1.403 . S
C1587 C1588 1.392 . S
C1587 C1591 1.495 . S
C1588 C1587 1.392 . S
C1588 C1589 1.385 . S
C1588 C1590 1.478 . S
C1589 H1583 0.930 . S
C1589 C1585 1.400 . S
C1589 C1588 1.385 . S
C1590 C1588 1.478 . S
C1590 C1592 1.381 . S
C1590 C1596 1.383 . S
C1591 C1587 1.495 . S
C1591 H1597 0.959 . S
C1591 H1598 0.961 . S
C1591 H1599 0.960 . S
C1592 C1590 1.381 . S
C1592 C1593 1.394 . S
C1592 H1600 0.930 . S
C1593 C1592 1.394 . S
C1593 C1594 1.383 . S
C1593 H1601 0.929 . S
C1594 C1593 1.383 . S
C1594 C1595 1.377 . S
C1595 H1579 0.930 . S
C1595 C1594 1.377 . S
C1595 C1596 1.379 . S
C1596 H1580 0.931 . S
C1596 C1590 1.383 . S
C1596 C1595 1.379 . S
H1597 C1591 0.959 . S
H1598 C1591 0.961 . S
H1599 C1591 0.960 . S
H1600 C1592 0.930 . S
H1601 C1593 0.929 . S
H1602 C1610 0.929 . S
H1603 C1612 0.930 . S
H1604 C1614 0.930 . S
H1605 C1617 0.929 . S
H1606 C1620 0.930 . S
H1607 C1622 0.960 . S
H1608 C1622 0.960 . S
H1609 C1622 0.960 . S
C1610 H1602 0.929 . S
C1610 C1611 1.377 . S
C1610 C1612 1.384 . S
C1611 C1610 1.377 . S
C1611 C1617 1.390 . S
C1612 H1603 0.930 . S
C1612 C1610 1.384 . S
C1612 C1613 1.372 . S
C1613 C1612 1.372 . S
C1613 C1614 1.400 . S
C1613 C1618 1.490 . S
C1614 H1604 0.930 . S
C1614 C1613 1.400 . S
C1614 C1617 1.386 . S
H1615 C1631 0.930 . S
H1616 C1632 0.931 . S
C1617 H1605 0.929 . S
C1617 C1611 1.390 . S
C1617 C1614 1.386 . S
C1618 C1613 1.490 . S
C1618 C1620 1.395 . S
C1618 C1621 1.403 . S
H1619 C1625 0.930 . S
C1620 H1606 0.930 . S
C1620 C1618 1.395 . S
C1620 C1623 1.403 . S
C1621 C1618 1.403 . S
C1621 C1622 1.524 . S
C1621 C1625 1.400 . S
C1622 H1607 0.960 . S
C1622 H1608 0.960 . S
C1622 H1609 0.960 . S
C1622 C1621 1.524 . S
C1623 C1620 1.403 . S
C1623 C1624 1.392 . S
C1623 C1627 1.495 . S
C1624 C1623 1.392 . S
C1624 C1625 1.385 . S
C1624 C1626 1.478 . S
C1625 H1619 0.930 . S
C1625 C1621 1.400 . S
C1625 C1624 1.385 . S
C1626 C1624 1.478 . S
C1626 C1628 1.381 . S
C1626 C1632 1.383 . S
C1627 C1623 1.495 . S
C1627 H1633 0.959 . S
C1627 H1634 0.961 . S
C1627 H1635 0.960 . S
C1628 C1626 1.381 . S
C1628 C1629 1.394 . S
C1628 H1636 0.930 . S
C1629 C1628 1.394 . S
C1629 C1630 1.383 . S
C1629 H1637 0.929 . S
C1630 C1629 1.383 . S
C1630 C1631 1.377 . S
C1631 H1615 0.930 . S
C1631 C1630 1.377 . S
C1631 C1632 1.379 . S
C1632 H1616 0.931 . S
C1632 C1626 1.383 . S
C1632 C1631 1.379 . S
H1633 C1627 0.959 . S
H1634 C1627 0.961 . S
H1635 C1627 0.960 . S
H1636 C1628 0.930 . S
H1637 C1629 0.929 . S
H1638 C1646 0.929 . S
H1639 C1648 0.930 . S
H1640 C1650 0.930 . S
H1641 C1653 0.929 . S
H1642 C1656 0.930 . S
H1643 C1658 0.960 . S
H1644 C1658 0.960 . S
H1645 C1658 0.960 . S
C1646 H1638 0.929 . S
C1646 C1647 1.377 . S
C1646 C1648 1.384 . S
C1647 C1646 1.377 . S
C1647 C1653 1.390 . S
C1648 H1639 0.930 . S
C1648 C1646 1.384 . S
C1648 C1649 1.372 . S
C1649 C1648 1.372 . S
C1649 C1650 1.400 . S
C1649 C1654 1.490 . S
C1650 H1640 0.930 . S
C1650 C1649 1.400 . S
C1650 C1653 1.386 . S
H1651 C1667 0.930 . S
H1652 C1668 0.931 . S
C1653 H1641 0.929 . S
C1653 C1647 1.390 . S
C1653 C1650 1.386 . S
C1654 C1649 1.490 . S
C1654 C1656 1.395 . S
C1654 C1657 1.403 . S
H1655 C1661 0.930 . S
C1656 H1642 0.930 . S
C1656 C1654 1.395 . S
C1656 C1659 1.403 . S
C1657 C1654 1.403 . S
C1657 C1658 1.524 . S
C1657 C1661 1.400 . S
C1658 H1643 0.960 . S
C1658 H1644 0.960 . S
C1658 H1645 0.960 . S
C1658 C1657 1.524 . S
C1659 C1656 1.403 . S
C1659 C1660 1.392 . S
C1659 C1663 1.495 . S
C1660 C1659 1.392 . S
C1660 C1661 1.385 . S
C1660 C1662 1.478 . S
C1661 H1655 0.930 . S
C1661 C1657 1.400 . S
C1661 C1660 1.385 . S
C1662 C1660 1.478 . S
C1662 C1664 1.381 . S
C1662 C1668 1.383 . S
C1663 C1659 1.495 . S
C1663 H1669 0.959 . S
C1663 H1670 0.961 . S
C1663 H1671 0.960 . S
C1664 C1662 1.381 . S
C1664 C1665 1.394 . S
C1664 H1672 0.930 . S
C1665 C1664 1.394 . S
C1665 C1666 1.383 . S
C1665 H1673 0.929 . S
C1666 C1665 1.383 . S
C1666 C1667 1.377 . S
C1667 H1651 0.930 . S
C1667 C1666 1.377 . S
C1667 C1668 1.379 . S
C1668 H1652 0.931 . S
C1668 C1662 1.383 . S
C1668 C1667 1.379 . S
H1669 C1663 0.959 . S
H1670 C1663 0.961 . S
H1671 C1663 0.960 . S
H1672 C1664 0.930 . S
H1673 C1665 0.929 . S
H1674 C1682 0.929 . S
H1675 C1684 0.930 . S
H1676 C1686 0.930 . S
H1677 C1689 0.929 . S
H1678 C1692 0.930 . S
H1679 C1694 0.960 . S
H1680 C1694 0.960 . S
H1681 C1694 0.960 . S
C1682 H1674 0.929 . S
C1682 C1683 1.377 . S
C1682 C1684 1.384 . S
C1683 C1682 1.377 . S
C1683 C1689 1.390 . S
C1684 H1675 0.930 . S
C1684 C1682 1.384 . S
C1684 C1685 1.372 . S
C1685 C1684 1.372 . S
C1685 C1686 1.400 . S
C1685 C1690 1.490 . S
C1686 H1676 0.930 . S
C1686 C1685 1.400 . S
C1686 C1689 1.386 . S
H1687 C1703 0.930 . S
H1688 C1704 0.931 . S
C1689 H1677 0.929 . S
C1689 C1683 1.390 . S
C1689 C1686 1.386 . S
C1690 C1685 1.490 . S
C1690 C1692 1.395 . S
C1690 C1693 1.403 . S
H1691 C1697 0.930 . S
C1692 H1678 0.930 . S
C1692 C1690 1.395 . S
C1692 C1695 1.403 . S
C1693 C1690 1.403 . S
C1693 C1694 1.524 . S
C1693 C1697 1.400 . S
C1694 H1679 0.960 . S
C1694 H1680 0.960 . S
C1694 H1681 0.960 . S
C1694 C1693 1.524 . S
C1695 C1692 1.403 . S
C1695 C1696 1.392 . S
C1695 C1699 1.495 . S
C1696 C1695 1.392 . S
C1696 C1697 1.385 . S
C1696 C1698 1.478 . S
C1697 H1691 0.930 . S
C1697 C1693 1.400 . S
C1697 C1696 1.385 . S
C1698 C1696 1.478 . S
C1698 C1700 1.381 . S
C1698 C1704 1.383 . S
C1699 C1695 1.495 . S
C1699 H1705 0.959 . S
C1699 H1706 0.961 . S
C1699 H1707 0.960 . S
C1700 C1698 1.381 . S
C1700 C1701 1.394 . S
C1700 H1708 0.930 . S
C1701 C1700 1.394 . S
C1701 C1702 1.383 . S
C1701 H1709 0.929 . S
C1702 C1701 1.383 . S
C1702 C1703 1.377 . S
C1703 H1687 0.930 . S
C1703 C1702 1.377 . S
C1703 C1704 1.379 . S
C1704 H1688 0.931 . S
C1704 C1698 1.383 . S
C1704 C1703 1.379 . S
H1705 C1699 0.959 . S
H1706 C1699 0.961 . S
H1707 C1699 0.960 . S
H1708 C1700 0.930 . S
H1709 C1701 0.929 . S
H1710 C1718 0.929 . S
H1711 C1720 0.930 . S
H1712 C1722 0.930 . S
H1713 C1725 0.929 . S
H1714 C1728 0.930 . S
H1715 C1730 0.960 . S
H1716 C1730 0.960 . S
H1717 C1730 0.960 . S
C1718 H1710 0.929 . S
C1718 C1719 1.377 . S
C1718 C1720 1.384 . S
C1719 C1718 1.377 . S
C1719 C1725 1.390 . S
C1720 H1711 0.930 . S
C1720 C1718 1.384 . S
C1720 C1721 1.372 . S
C1721 C1720 1.372 . S
C1721 C1722 1.400 . S
C1721 C1726 1.490 . S
C1722 H1712 0.930 . S
C1722 C1721 1.400 . S
C1722 C1725 1.386 . S
H1723 C1739 0.930 . S
H1724 C1740 0.931 . S
C1725 H1713 0.929 . S
C1725 C1719 1.390 . S
C1725 C1722 1.386 . S
C1726 C1721 1.490 . S
C1726 C1728 1.395 . S
C1726 C1729 1.403 . S
H1727 C1733 0.930 . S
C1728 H1714 0.930 . S
C1728 C1726 1.395 . S
C1728 C1731 1.403 . S
C1729 C1726 1.403 . S
C1729 C1730 1.524 . S
C1729 C1733 1.400 . S
C1730 H1715 0.960 . S
C1730 H1716 0.960 . S
C1730 H1717 0.960 . S
C1730 C1729 1.524 . S
C1731 C1728 1.403 . S
C1731 C1732 1.392 . S
C1731 C1735 1.495 . S
C1732 C1731 1.392 . S
C1732 C1733 1.385 . S
C1732 C1734 1.478 . S
C1733 H1727 0.930 . S
C1733 C1729 1.400 . S
C1733 C1732 1.385 . S
C1734 C1732 1.478 . S
C1734 C1736 1.381 . S
C1734 C1740 1.383 . S
C1735 C1731 1.495 . S
C1735 H1741 0.959 . S
C1735 H1742 0.961 . S
C1735 H1743 0.960 . S
C1736 C1734 1.381 . S
C1736 C1737 1.394 . S
C1736 H1744 0.930 . S
C1737 C1736 1.394 . S
C1737 C1738 1.383 . S
C1737 H1745 0.929 . S
C1738 C1737 1.383 . S
C1738 C1739 1.377 . S
C1739 H1723 0.930 . S
C1739 C1738 1.377 . S
C1739 C1740 1.379 . S
C1740 H1724 0.931 . S
C1740 C1734 1.383 . S
C1740 C1739 1.379 . S
H1741 C1735 0.959 . S
H1742 C1735 0.961 . S
H1743 C1735 0.960 . S
H1744 C1736 0.930 . S
H1745 C1737 0.929 . S
H1746 C1754 0.929 . S
H1747 C1756 0.930 . S
H1748 C1758 0.930 . S
H1749 C1761 0.929 . S
H1750 C1764 0.930 . S
H1751 C1766 0.960 . S
H1752 C1766 0.960 . S
H1753 C1766 0.960 . S
C1754 H1746 0.929 . S
C1754 C1755 1.377 . S
C1754 C1756 1.384 . S
C1755 C1754 1.377 . S
C1755 C1761 1.390 . S
C1756 H1747 0.930 . S
C1756 C1754 1.384 . S
C1756 C1757 1.372 . S
C1757 C1756 1.372 . S
C1757 C1758 1.400 . S
C1757 C1762 1.490 . S
C1758 H1748 0.930 . S
C1758 C1757 1.400 . S
C1758 C1761 1.386 . S
H1759 C1775 0.930 . S
H1760 C1776 0.931 . S
C1761 H1749 0.929 . S
C1761 C1755 1.390 . S
C1761 C1758 1.386 . S
C1762 C1757 1.490 . S
C1762 C1764 1.395 . S
C1762 C1765 1.403 . S
H1763 C1769 0.930 . S
C1764 H1750 0.930 . S
C1764 C1762 1.395 . S
C1764 C1767 1.403 . S
C1765 C1762 1.403 . S
C1765 C1766 1.524 . S
C1765 C1769 1.400 . S
C1766 H1751 0.960 . S
C1766 H1752 0.960 . S
C1766 H1753 0.960 . S
C1766 C1765 1.524 . S
C1767 C1764 1.403 . S
C1767 C1768 1.392 . S
C1767 C1771 1.495 . S
C1768 C1767 1.392 . S
C1768 C1769 1.385 . S
C1768 C1770 1.478 . S
C1769 H1763 0.930 . S
C1769 C1765 1.400 . S
C1769 C1768 1.385 . S
C1770 C1768 1.478 . S
C1770 C1772 1.381 . S
C1770 C1776 1.383 . S
C1771 C1767 1.495 . S
C1771 H1777 0.959 . S
C1771 H1778 0.961 . S
C1771 H1779 0.960 . S
C1772 C1770 1.381 . S
C1772 C1773 1.394 . S
C1772 H1780 0.930 . S
C1773 C1772 1.394 . S
C1773 C1774 1.383 . S
C1773 H1781 0.929 . S
C1774 C1773 1.383 . S
C1774 C1775 1.377 . S
C1775 H1759 0.930 . S
C1775 C1774 1.377 . S
C1775 C1776 1.379 . S
C1776 H1760 0.931 . S
C1776 C1770 1.383 . S
C1776 C1775 1.379 . S
H1777 C1771 0.959 . S
H1778 C1771 0.961 . S
H1779 C1771 0.960 . S
H1780 C1772 0.930 . S
H1781 C1773 0.929 . S
H1782 C1790 0.929 . S
H1783 C1792 0.930 . S
H1784 C1794 0.930 . S
H1785 C1797 0.929 . S
H1786 C1800 0.930 . S
H1787 C1802 0.960 . S
H1788 C1802 0.960 . S
H1789 C1802 0.960 . S
C1790 H1782 0.929 . S
C1790 C1791 1.377 . S
C1790 C1792 1.384 . S
C1791 C1790 1.377 . S
C1791 C1797 1.390 . S
C1792 H1783 0.930 . S
C1792 C1790 1.384 . S
C1792 C1793 1.372 . S
C1793 C1792 1.372 . S
C1793 C1794 1.400 . S
C1793 C1798 1.490 . S
C1794 H1784 0.930 . S
C1794 C1793 1.400 . S
C1794 C1797 1.386 . S
H1795 C1811 0.930 . S
H1796 C1812 0.931 . S
C1797 H1785 0.929 . S
C1797 C1791 1.390 . S
C1797 C1794 1.386 . S
C1798 C1793 1.490 . S
C1798 C1800 1.395 . S
C1798 C1801 1.403 . S
H1799 C1805 0.930 . S
C1800 H1786 0.930 . S
C1800 C1798 1.395 . S
C1800 C1803 1.403 . S
C1801 C1798 1.403 . S
C1801 C1802 1.524 1_545 S
C1801 C1805 1.400 . S
C1802 H1787 0.960 . S
C1802 H1788 0.960 . S
C1802 H1789 0.960 . S
C1802 C1801 1.524 1_565 S
C1803 C1800 1.403 . S
C1803 C1804 1.392 . S
C1803 C1807 1.495 . S
C1804 C1803 1.392 . S
C1804 C1805 1.385 . S
C1804 C1806 1.478 . S
C1805 H1799 0.930 . S
C1805 C1801 1.400 . S
C1805 C1804 1.385 . S
C1806 C1804 1.478 . S
C1806 C1808 1.381 . S
C1806 C1812 1.383 . S
C1807 C1803 1.495 . S
C1807 H1813 0.959 . S
C1807 H1814 0.961 . S
C1807 H1815 0.960 . S
C1808 C1806 1.381 . S
C1808 C1809 1.394 . S
C1808 H1816 0.930 . S
C1809 C1808 1.394 . S
C1809 C1810 1.383 . S
C1809 H1817 0.929 . S
C1810 C1809 1.383 . S
C1810 C1811 1.377 . S
C1811 H1795 0.930 . S
C1811 C1810 1.377 . S
C1811 C1812 1.379 . S
C1812 H1796 0.931 . S
C1812 C1806 1.383 . S
C1812 C1811 1.379 . S
H1813 C1807 0.959 . S
H1814 C1807 0.961 . S
H1815 C1807 0.960 . S
H1816 C1808 0.930 . S
H1817 C1809 0.929 . S
H1818 C1826 0.929 . S
H1819 C1828 0.930 . S
H1820 C1830 0.930 . S
H1821 C1833 0.929 . S
H1822 C1836 0.930 . S
H1823 C1838 0.960 . S
H1824 C1838 0.960 1_655 S
H1825 C1838 0.960 . S
C1826 H1818 0.929 . S
C1826 C1827 1.377 . S
C1826 C1828 1.384 . S
C1827 C1826 1.377 . S
C1827 C1833 1.390 1_655 S
C1828 H1819 0.930 . S
C1828 C1826 1.384 . S
C1828 C1829 1.372 . S
C1829 C1828 1.372 . S
C1829 C1830 1.400 1_655 S
C1829 C1834 1.490 . S
C1830 H1820 0.930 . S
C1830 C1829 1.400 1_455 S
C1830 C1833 1.386 . S
H1831 C1847 0.930 . S
H1832 C1848 0.931 . S
C1833 H1821 0.929 . S
C1833 C1827 1.390 1_455 S
C1833 C1830 1.386 . S
C1834 C1829 1.490 . S
C1834 C1836 1.395 . S
C1834 C1837 1.403 . S
H1835 C1841 0.930 1_455 S
C1836 H1822 0.930 . S
C1836 C1834 1.395 . S
C1836 C1839 1.403 . S
C1837 C1834 1.403 . S
C1837 C1838 1.524 1_655 S
C1837 C1841 1.400 . S
C1838 H1823 0.960 . S
C1838 H1824 0.960 1_455 S
C1838 H1825 0.960 . S
C1838 C1837 1.524 1_455 S
C1839 C1836 1.403 . S
C1839 C1840 1.392 . S
C1839 C1843 1.495 . S
C1840 C1839 1.392 . S
C1840 C1841 1.385 . S
C1840 C1842 1.478 . S
C1841 H1835 0.930 1_655 S
C1841 C1837 1.400 . S
C1841 C1840 1.385 . S
C1842 C1840 1.478 . S
C1842 C1844 1.381 . S
C1842 C1848 1.383 1_655 S
C1843 C1839 1.495 . S
C1843 H1849 0.959 . S
C1843 H1850 0.961 . S
C1843 H1851 0.960 . S
C1844 C1842 1.381 . S
C1844 C1845 1.394 . S
C1844 H1852 0.930 . S
C1845 C1844 1.394 . S
C1845 C1846 1.383 . S
C1845 H1853 0.929 . S
C1846 C1845 1.383 . S
C1846 C1847 1.377 1_655 S
C1847 H1831 0.930 . S
C1847 C1846 1.377 1_455 S
C1847 C1848 1.379 . S
C1848 H1832 0.931 . S
C1848 C1842 1.383 1_455 S
C1848 C1847 1.379 . S
H1849 C1843 0.959 . S
H1850 C1843 0.961 . S
H1851 C1843 0.960 . S
H1852 C1844 0.930 . S
H1853 C1845 0.929 . S
H1854 C1862 0.929 . S
H1855 C1864 0.930 . S
H1856 C1866 0.930 . S
H1857 C1869 0.929 . S
H1858 C1872 0.930 . S
H1859 C1874 0.960 . S
H1860 C1874 0.960 . S
H1861 C1874 0.960 . S
C1862 H1854 0.929 . S
C1862 C1863 1.377 . S
C1862 C1864 1.384 . S
C1863 C1862 1.377 . S
C1863 C1869 1.390 . S
C1864 H1855 0.930 . S
C1864 C1862 1.384 . S
C1864 C1865 1.372 . S
C1865 C1864 1.372 . S
C1865 C1866 1.400 . S
C1865 C1870 1.490 . S
C1866 H1856 0.930 . S
C1866 C1865 1.400 . S
C1866 C1869 1.386 . S
H1867 C1883 0.930 . S
H1868 C1884 0.931 . S
C1869 H1857 0.929 . S
C1869 C1863 1.390 . S
C1869 C1866 1.386 . S
C1870 C1865 1.490 . S
C1870 C1872 1.395 . S
C1870 C1873 1.403 . S
H1871 C1877 0.930 . S
C1872 H1858 0.930 . S
C1872 C1870 1.395 . S
C1872 C1875 1.403 . S
C1873 C1870 1.403 . S
C1873 C1874 1.524 . S
C1873 C1877 1.400 . S
C1874 H1859 0.960 . S
C1874 H1860 0.960 . S
C1874 H1861 0.960 . S
C1874 C1873 1.524 . S
C1875 C1872 1.403 . S
C1875 C1876 1.392 . S
C1875 C1879 1.495 . S
C1876 C1875 1.392 . S
C1876 C1877 1.385 . S
C1876 C1878 1.478 . S
C1877 H1871 0.930 . S
C1877 C1873 1.400 . S
C1877 C1876 1.385 . S
C1878 C1876 1.478 . S
C1878 C1880 1.381 . S
C1878 C1884 1.383 . S
C1879 C1875 1.495 . S
C1879 H1885 0.959 . S
C1879 H1886 0.961 . S
C1879 H1887 0.960 . S
C1880 C1878 1.381 . S
C1880 C1881 1.394 . S
C1880 H1888 0.930 . S
C1881 C1880 1.394 . S
C1881 C1882 1.383 . S
C1881 H1889 0.929 . S
C1882 C1881 1.383 . S
C1882 C1883 1.377 . S
C1883 H1867 0.930 . S
C1883 C1882 1.377 . S
C1883 C1884 1.379 . S
C1884 H1868 0.931 . S
C1884 C1878 1.383 . S
C1884 C1883 1.379 . S
H1885 C1879 0.959 . S
H1886 C1879 0.961 . S
H1887 C1879 0.960 . S
H1888 C1880 0.930 . S
H1889 C1881 0.929 . S
H1890 C1898 0.929 . S
H1891 C1900 0.930 . S
H1892 C1902 0.930 . S
H1893 C1905 0.929 . S
H1894 C1908 0.930 . S
H1895 C1910 0.960 . S
H1896 C1910 0.960 . S
H1897 C1910 0.960 . S
C1898 H1890 0.929 . S
C1898 C1899 1.377 . S
C1898 C1900 1.384 . S
C1899 C1898 1.377 . S
C1899 C1905 1.390 . S
C1900 H1891 0.930 . S
C1900 C1898 1.384 . S
C1900 C1901 1.372 . S
C1901 C1900 1.372 . S
C1901 C1902 1.400 . S
C1901 C1906 1.490 . S
C1902 H1892 0.930 . S
C1902 C1901 1.400 . S
C1902 C1905 1.386 . S
H1903 C1919 0.930 . S
H1904 C1920 0.931 . S
C1905 H1893 0.929 . S
C1905 C1899 1.390 . S
C1905 C1902 1.386 . S
C1906 C1901 1.490 . S
C1906 C1908 1.395 . S
C1906 C1909 1.403 . S
H1907 C1913 0.930 . S
C1908 H1894 0.930 . S
C1908 C1906 1.395 . S
C1908 C1911 1.403 . S
C1909 C1906 1.403 . S
C1909 C1910 1.524 . S
C1909 C1913 1.400 . S
C1910 H1895 0.960 . S
C1910 H1896 0.960 . S
C1910 H1897 0.960 . S
C1910 C1909 1.524 . S
C1911 C1908 1.403 . S
C1911 C1912 1.392 . S
C1911 C1915 1.495 . S
C1912 C1911 1.392 . S
C1912 C1913 1.385 . S
C1912 C1914 1.478 . S
C1913 H1907 0.930 . S
C1913 C1909 1.400 . S
C1913 C1912 1.385 . S
C1914 C1912 1.478 . S
C1914 C1916 1.381 . S
C1914 C1920 1.383 . S
C1915 C1911 1.495 . S
C1915 H1921 0.959 . S
C1915 H1922 0.961 . S
C1915 H1923 0.960 . S
C1916 C1914 1.381 . S
C1916 C1917 1.394 . S
C1916 H1924 0.930 . S
C1917 C1916 1.394 . S
C1917 C1918 1.383 . S
C1917 H1925 0.929 . S
C1918 C1917 1.383 . S
C1918 C1919 1.377 . S
C1919 H1903 0.930 . S
C1919 C1918 1.377 . S
C1919 C1920 1.379 . S
C1920 H1904 0.931 . S
C1920 C1914 1.383 . S
C1920 C1919 1.379 . S
H1921 C1915 0.959 . S
H1922 C1915 0.961 . S
H1923 C1915 0.960 . S
H1924 C1916 0.930 . S
H1925 C1917 0.929 . S
H1926 C1934 0.929 . S
H1927 C1936 0.930 . S
H1928 C1938 0.930 . S
H1929 C1941 0.929 . S
H1930 C1944 0.930 . S
H1931 C1946 0.960 . S
H1932 C1946 0.960 . S
H1933 C1946 0.960 . S
C1934 H1926 0.929 . S
C1934 C1935 1.377 . S
C1934 C1936 1.384 . S
C1935 C1934 1.377 . S
C1935 C1941 1.390 . S
C1936 H1927 0.930 . S
C1936 C1934 1.384 . S
C1936 C1937 1.372 . S
C1937 C1936 1.372 . S
C1937 C1938 1.400 . S
C1937 C1942 1.490 . S
C1938 H1928 0.930 . S
C1938 C1937 1.400 . S
C1938 C1941 1.386 . S
H1939 C1955 0.930 . S
H1940 C1956 0.931 . S
C1941 H1929 0.929 . S
C1941 C1935 1.390 . S
C1941 C1938 1.386 . S
C1942 C1937 1.490 . S
C1942 C1944 1.395 . S
C1942 C1945 1.403 . S
H1943 C1949 0.930 . S
C1944 H1930 0.930 . S
C1944 C1942 1.395 . S
C1944 C1947 1.403 . S
C1945 C1942 1.403 . S
C1945 C1946 1.524 . S
C1945 C1949 1.400 . S
C1946 H1931 0.960 . S
C1946 H1932 0.960 . S
C1946 H1933 0.960 . S
C1946 C1945 1.524 . S
C1947 C1944 1.403 . S
C1947 C1948 1.392 . S
C1947 C1951 1.495 . S
C1948 C1947 1.392 . S
C1948 C1949 1.385 . S
C1948 C1950 1.478 . S
C1949 H1943 0.930 . S
C1949 C1945 1.400 . S
C1949 C1948 1.385 . S
C1950 C1948 1.478 . S
C1950 C1952 1.381 . S
C1950 C1956 1.383 . S
C1951 C1947 1.495 . S
C1951 H1957 0.959 . S
C1951 H1958 0.961 . S
C1951 H1959 0.960 . S
C1952 C1950 1.381 . S
C1952 C1953 1.394 . S
C1952 H1960 0.930 . S
C1953 C1952 1.394 . S
C1953 C1954 1.383 . S
C1953 H1961 0.929 . S
C1954 C1953 1.383 . S
C1954 C1955 1.377 . S
C1955 H1939 0.930 . S
C1955 C1954 1.377 . S
C1955 C1956 1.379 . S
C1956 H1940 0.931 . S
C1956 C1950 1.383 . S
C1956 C1955 1.379 . S
H1957 C1951 0.959 . S
H1958 C1951 0.961 . S
H1959 C1951 0.960 . S
H1960 C1952 0.930 . S
H1961 C1953 0.929 . S
H1962 C1970 0.929 . S
H1963 C1972 0.930 . S
H1964 C1974 0.930 . S
H1965 C1977 0.929 . S
H1966 C1980 0.930 . S
H1967 C1982 0.960 . S
H1968 C1982 0.960 . S
H1969 C1982 0.960 1_545 S
C1970 H1962 0.929 . S
C1970 C1971 1.377 . S
C1970 C1972 1.384 . S
C1971 C1970 1.377 . S
C1971 C1977 1.390 1_565 S
C1972 H1963 0.930 . S
C1972 C1970 1.384 . S
C1972 C1973 1.372 . S
C1973 C1972 1.372 . S
C1973 C1974 1.400 1_565 S
C1973 C1978 1.490 . S
C1974 H1964 0.930 . S
C1974 C1973 1.400 1_545 S
C1974 C1977 1.386 . S
H1975 C1991 0.930 . S
H1976 C1992 0.931 . S
C1977 H1965 0.929 . S
C1977 C1971 1.390 1_545 S
C1977 C1974 1.386 . S
C1978 C1973 1.490 . S
C1978 C1980 1.395 . S
C1978 C1981 1.403 . S
H1979 C1985 0.930 . S
C1980 H1966 0.930 . S
C1980 C1978 1.395 . S
C1980 C1983 1.403 . S
C1981 C1978 1.403 . S
C1981 C1982 1.524 . S
C1981 C1985 1.400 . S
C1982 H1967 0.960 . S
C1982 H1968 0.960 . S
C1982 H1969 0.960 1_565 S
C1982 C1981 1.524 . S
C1983 C1980 1.403 . S
C1983 C1984 1.392 . S
C1983 C1987 1.495 . S
C1984 C1983 1.392 . S
C1984 C1985 1.385 . S
C1984 C1986 1.478 . S
C1985 H1979 0.930 . S
C1985 C1981 1.400 . S
C1985 C1984 1.385 . S
C1986 C1984 1.478 . S
C1986 C1988 1.381 . S
C1986 C1992 1.383 1_565 S
C1987 C1983 1.495 . S
C1987 H1993 0.959 . S
C1987 H1994 0.961 . S
C1987 H1995 0.960 . S
C1988 C1986 1.381 . S
C1988 C1989 1.394 . S
C1988 H1996 0.930 . S
C1989 C1988 1.394 . S
C1989 C1990 1.383 . S
C1989 H1997 0.929 . S
C1990 C1989 1.383 . S
C1990 C1991 1.377 1_565 S
C1991 H1975 0.930 . S
C1991 C1990 1.377 1_545 S
C1991 C1992 1.379 . S
C1992 H1976 0.931 . S
C1992 C1986 1.383 1_545 S
C1992 C1991 1.379 . S
H1993 C1987 0.959 . S
H1994 C1987 0.961 . S
H1995 C1987 0.960 . S
H1996 C1988 0.930 . S
H1997 C1989 0.929 . S
H1998 C2006 0.929 . S
H1999 C2008 0.930 . S
H2000 C2010 0.930 . S
H2001 C2013 0.929 . S
H2002 C2016 0.930 . S
H2003 C2018 0.960 . S
H2004 C2018 0.960 . S
H2005 C2018 0.960 . S
C2006 H1998 0.929 . S
C2006 C2007 1.377 . S
C2006 C2008 1.384 . S
C2007 C2006 1.377 . S
C2007 C2013 1.390 . S
C2008 H1999 0.930 . S
C2008 C2006 1.384 . S
C2008 C2009 1.372 . S
C2009 C2008 1.372 . S
C2009 C2010 1.400 . S
C2009 C2014 1.490 . S
C2010 H2000 0.930 . S
C2010 C2009 1.400 . S
C2010 C2013 1.386 . S
H2011 C2027 0.930 . S
H2012 C2028 0.931 . S
C2013 H2001 0.929 . S
C2013 C2007 1.390 . S
C2013 C2010 1.386 . S
C2014 C2009 1.490 . S
C2014 C2016 1.395 . S
C2014 C2017 1.403 1_565 S
H2015 C2021 0.930 . S
C2016 H2002 0.930 . S
C2016 C2014 1.395 . S
C2016 C2019 1.403 . S
C2017 C2014 1.403 1_545 S
C2017 C2018 1.524 . S
C2017 C2021 1.400 . S
C2018 H2003 0.960 . S
C2018 H2004 0.960 . S
C2018 H2005 0.960 . S
C2018 C2017 1.524 . S
C2019 C2016 1.403 . S
C2019 C2020 1.392 . S
C2019 C2023 1.495 . S
C2020 C2019 1.392 . S
C2020 C2021 1.385 1_565 S
C2020 C2022 1.478 . S
C2021 H2015 0.930 . S
C2021 C2017 1.400 . S
C2021 C2020 1.385 1_545 S
C2022 C2020 1.478 . S
C2022 C2024 1.381 . S
C2022 C2028 1.383 . S
C2023 C2019 1.495 . S
C2023 H2029 0.959 . S
C2023 H2030 0.961 . S
C2023 H2031 0.960 . S
C2024 C2022 1.381 . S
C2024 C2025 1.394 1_565 S
C2024 H2032 0.926 1_565 S
C2025 C2024 1.394 1_545 S
C2025 C2026 1.383 1_545 S
C2025 H2033 0.929 . S
C2026 C2025 1.383 1_565 S
C2026 C2027 1.377 . S
C2027 H2011 0.930 . S
C2027 C2026 1.377 . S
C2027 C2028 1.379 . S
C2028 H2012 0.931 . S
C2028 C2022 1.383 . S
C2028 C2027 1.379 . S
H2029 C2023 0.959 . S
H2030 C2023 0.961 . S
H2031 C2023 0.960 . S
H2032 C2024 0.926 1_545 S
H2033 C2025 0.929 . S
H2034 C2042 0.929 . S
H2035 C2044 0.930 . S
H2036 C2046 0.930 . S
H2037 C2049 0.929 . S
H2038 C2052 0.930 . S
H2039 C2054 0.960 . S
H2040 C2054 0.959 1_455 S
H2041 C2054 0.960 . S
C2042 H2034 0.929 . S
C2042 C2043 1.377 . S
C2042 C2044 1.384 . S
C2043 C2042 1.377 . S
C2043 C2049 1.390 . S
C2044 H2035 0.930 . S
C2044 C2042 1.384 . S
C2044 C2045 1.372 . S
C2045 C2044 1.372 . S
C2045 C2046 1.400 . S
C2045 C2050 1.490 . S
C2046 H2036 0.930 . S
C2046 C2045 1.400 . S
C2046 C2049 1.386 . S
H2047 C2063 0.930 . S
H2048 C2064 0.931 . S
C2049 H2037 0.929 . S
C2049 C2043 1.390 . S
C2049 C2046 1.386 . S
C2050 C2045 1.490 . S
C2050 C2052 1.395 . S
C2050 C2053 1.403 . S
H2051 C2057 0.930 . S
C2052 H2038 0.930 . S
C2052 C2050 1.395 . S
C2052 C2055 1.403 . S
C2053 C2050 1.403 . S
C2053 C2054 1.524 1_455 S
C2053 C2057 1.400 . S
C2054 H2039 0.960 . S
C2054 H2040 0.959 1_655 S
C2054 H2041 0.960 . S
C2054 C2053 1.524 1_655 S
C2055 C2052 1.403 . S
C2055 C2056 1.392 . S
C2055 C2059 1.495 . S
C2056 C2055 1.392 . S
C2056 C2057 1.385 . S
C2056 C2058 1.478 . S
C2057 H2051 0.930 . S
C2057 C2053 1.400 . S
C2057 C2056 1.385 . S
C2058 C2056 1.478 . S
C2058 C2060 1.381 . S
C2058 C2064 1.383 . S
C2059 C2055 1.495 . S
C2059 H2065 0.959 . S
C2059 H2066 0.961 . S
C2059 H2067 0.960 . S
C2060 C2058 1.381 . S
C2060 C2061 1.394 . S
C2060 H2068 0.930 . S
C2061 C2060 1.394 . S
C2061 C2062 1.383 . S
C2061 H2069 0.929 . S
C2062 C2061 1.383 . S
C2062 C2063 1.377 . S
C2063 H2047 0.930 . S
C2063 C2062 1.377 . S
C2063 C2064 1.379 . S
C2064 H2048 0.931 . S
C2064 C2058 1.383 . S
C2064 C2063 1.379 . S
H2065 C2059 0.959 . S
H2066 C2059 0.961 . S
H2067 C2059 0.960 . S
H2068 C2060 0.930 . S
H2069 C2061 0.929 . S
H2070 C2078 0.929 . S
H2071 C2080 0.930 . S
H2072 C2082 0.930 . S
H2073 C2085 0.929 . S
H2074 C2088 0.930 . S
H2075 C2090 0.960 . S
H2076 C2090 0.960 . S
H2077 C2090 0.960 . S
C2078 H2070 0.929 . S
C2078 C2079 1.377 . S
C2078 C2080 1.384 . S
C2079 C2078 1.377 . S
C2079 C2085 1.390 . S
C2080 H2071 0.930 . S
C2080 C2078 1.384 . S
C2080 C2081 1.372 . S
C2081 C2080 1.372 . S
C2081 C2082 1.400 . S
C2081 C2086 1.490 . S
C2082 H2072 0.930 . S
C2082 C2081 1.400 . S
C2082 C2085 1.386 . S
H2083 C2099 0.930 . S
H2084 C2100 0.931 . S
C2085 H2073 0.929 . S
C2085 C2079 1.390 . S
C2085 C2082 1.386 . S
C2086 C2081 1.490 . S
C2086 C2088 1.395 . S
C2086 C2089 1.403 . S
H2087 C2093 0.930 . S
C2088 H2074 0.930 . S
C2088 C2086 1.395 . S
C2088 C2091 1.403 . S
C2089 C2086 1.403 . S
C2089 C2090 1.524 . S
C2089 C2093 1.400 . S
C2090 H2075 0.960 . S
C2090 H2076 0.960 . S
C2090 H2077 0.960 . S
C2090 C2089 1.524 . S
C2091 C2088 1.403 . S
C2091 C2092 1.392 . S
C2091 C2095 1.495 . S
C2092 C2091 1.392 . S
C2092 C2093 1.385 . S
C2092 C2094 1.478 . S
C2093 H2087 0.930 . S
C2093 C2089 1.400 . S
C2093 C2092 1.385 . S
C2094 C2092 1.478 . S
C2094 C2096 1.381 . S
C2094 C2100 1.383 . S
C2095 C2091 1.495 . S
C2095 H2101 0.959 . S
C2095 H2102 0.961 . S
C2095 H2103 0.960 . S
C2096 C2094 1.381 . S
C2096 C2097 1.394 . S
C2096 H2104 0.930 . S
C2097 C2096 1.394 . S
C2097 C2098 1.383 . S
C2097 H2105 0.929 . S
C2098 C2097 1.383 . S
C2098 C2099 1.377 . S
C2099 H2083 0.930 . S
C2099 C2098 1.377 . S
C2099 C2100 1.379 . S
C2100 H2084 0.931 . S
C2100 C2094 1.383 . S
C2100 C2099 1.379 . S
H2101 C2095 0.959 . S
H2102 C2095 0.961 . S
H2103 C2095 0.960 . S
H2104 C2096 0.930 . S
H2105 C2097 0.929 . S
H2106 C2114 0.929 . S
H2107 C2116 0.930 . S
H2108 C2118 0.930 . S
H2109 C2121 0.929 . S
H2110 C2124 0.930 . S
H2111 C2126 0.960 . S
H2112 C2126 0.960 . S
H2113 C2126 0.960 . S
C2114 H2106 0.929 . S
C2114 C2115 1.377 1_455 S
C2114 C2116 1.384 . S
C2115 C2114 1.377 1_655 S
C2115 C2121 1.390 . S
C2116 H2107 0.930 . S
C2116 C2114 1.384 . S
C2116 C2117 1.372 1_455 S
C2117 C2116 1.372 1_655 S
C2117 C2118 1.400 . S
C2117 C2122 1.490 . S
C2118 H2108 0.930 . S
C2118 C2117 1.400 . S
C2118 C2121 1.386 . S
H2119 C2135 0.930 . S
H2120 C2136 0.931 . S
C2121 H2109 0.929 . S
C2121 C2115 1.390 . S
C2121 C2118 1.386 . S
C2122 C2117 1.490 . S
C2122 C2124 1.395 1_655 S
C2122 C2125 1.403 . S
H2123 C2129 0.930 . S
C2124 H2110 0.930 . S
C2124 C2122 1.395 1_455 S
C2124 C2127 1.403 . S
C2125 C2122 1.403 . S
C2125 C2126 1.524 . S
C2125 C2129 1.400 . S
C2126 H2111 0.960 . S
C2126 H2112 0.960 . S
C2126 H2113 0.960 . S
C2126 C2125 1.524 . S
C2127 C2124 1.403 . S
C2127 C2128 1.392 1_455 S
C2127 C2131 1.495 . S
C2128 C2127 1.392 1_655 S
C2128 C2129 1.385 . S
C2128 C2130 1.478 . S
C2129 H2123 0.930 . S
C2129 C2125 1.400 . S
C2129 C2128 1.385 . S
C2130 C2128 1.478 . S
C2130 C2132 1.381 1_655 S
C2130 C2136 1.383 . S
C2131 C2127 1.495 . S
C2131 H2137 0.959 . S
C2131 H2138 0.961 . S
C2131 H2139 0.960 . S
C2132 C2130 1.381 1_455 S
C2132 C2133 1.394 . S
C2132 H2140 0.930 . S
C2133 C2132 1.394 . S
C2133 C2134 1.383 1_455 S
C2133 H2141 0.929 . S
C2134 C2133 1.383 1_655 S
C2134 C2135 1.377 . S
C2135 H2119 0.930 . S
C2135 C2134 1.377 . S
C2135 C2136 1.379 . S
C2136 H2120 0.931 . S
C2136 C2130 1.383 . S
C2136 C2135 1.379 . S
H2137 C2131 0.959 . S
H2138 C2131 0.961 . S
H2139 C2131 0.960 . S
H2140 C2132 0.930 . S
H2141 C2133 0.929 . S
H2142 C2150 0.929 . S
H2143 C2152 0.930 . S
H2144 C2154 0.930 . S
H2145 C2157 0.929 . S
H2146 C2160 0.930 . S
H2147 C2162 0.960 . S
H2148 C2162 0.960 . S
H2149 C2162 0.960 . S
C2150 H2142 0.929 . S
C2150 C2151 1.377 . S
C2150 C2152 1.384 . S
C2151 C2150 1.377 . S
C2151 C2157 1.390 . S
C2152 H2143 0.930 . S
C2152 C2150 1.384 . S
C2152 C2153 1.372 . S
C2153 C2152 1.372 . S
C2153 C2154 1.400 . S
C2153 C2158 1.490 . S
C2154 H2144 0.930 . S
C2154 C2153 1.400 . S
C2154 C2157 1.386 . S
H2155 C2171 0.930 . S
H2156 C2172 0.931 . S
C2157 H2145 0.929 . S
C2157 C2151 1.390 . S
C2157 C2154 1.386 . S
C2158 C2153 1.490 . S
C2158 C2160 1.395 . S
C2158 C2161 1.403 . S
H2159 C2165 0.930 . S
C2160 H2146 0.930 . S
C2160 C2158 1.395 . S
C2160 C2163 1.403 . S
C2161 C2158 1.403 . S
C2161 C2162 1.524 . S
C2161 C2165 1.400 . S
C2162 H2147 0.960 . S
C2162 H2148 0.960 . S
C2162 H2149 0.960 . S
C2162 C2161 1.524 . S
C2163 C2160 1.403 . S
C2163 C2164 1.392 . S
C2163 C2167 1.495 . S
C2164 C2163 1.392 . S
C2164 C2165 1.385 . S
C2164 C2166 1.478 . S
C2165 H2159 0.930 . S
C2165 C2161 1.400 . S
C2165 C2164 1.385 . S
C2166 C2164 1.478 . S
C2166 C2168 1.381 . S
C2166 C2172 1.383 . S
C2167 C2163 1.495 . S
C2167 H2173 0.959 . S
C2167 H2174 0.961 . S
C2167 H2175 0.960 . S
C2168 C2166 1.381 . S
C2168 C2169 1.394 . S
C2168 H2176 0.930 . S
C2169 C2168 1.394 . S
C2169 C2170 1.383 . S
C2169 H2177 0.929 . S
C2170 C2169 1.383 . S
C2170 C2171 1.377 . S
C2171 H2155 0.930 . S
C2171 C2170 1.377 . S
C2171 C2172 1.379 . S
C2172 H2156 0.931 . S
C2172 C2166 1.383 . S
C2172 C2171 1.379 . S
H2173 C2167 0.959 . S
H2174 C2167 0.961 . S
H2175 C2167 0.960 . S
H2176 C2168 0.930 . S
H2177 C2169 0.929 . S
H2178 C2186 0.929 . S
H2179 C2188 0.930 . S
H2180 C2190 0.930 . S
H2181 C2193 0.929 . S
H2182 C2196 0.930 . S
H2183 C2198 0.960 . S
H2184 C2198 0.960 . S
H2185 C2198 0.960 . S
C2186 H2178 0.929 . S
C2186 C2187 1.377 . S
C2186 C2188 1.384 . S
C2187 C2186 1.377 . S
C2187 C2193 1.390 . S
C2188 H2179 0.930 . S
C2188 C2186 1.384 . S
C2188 C2189 1.372 . S
C2189 C2188 1.372 . S
C2189 C2190 1.400 . S
C2189 C2194 1.490 . S
C2190 H2180 0.930 . S
C2190 C2189 1.400 . S
C2190 C2193 1.386 . S
H2191 C2207 0.930 . S
H2192 C2208 0.931 . S
C2193 H2181 0.929 . S
C2193 C2187 1.390 . S
C2193 C2190 1.386 . S
C2194 C2189 1.490 . S
C2194 C2196 1.395 . S
C2194 C2197 1.403 . S
H2195 C2201 0.930 . S
C2196 H2182 0.930 . S
C2196 C2194 1.395 . S
C2196 C2199 1.403 . S
C2197 C2194 1.403 . S
C2197 C2198 1.524 1_545 S
C2197 C2201 1.400 . S
C2198 H2183 0.960 . S
C2198 H2184 0.960 . S
C2198 H2185 0.960 . S
C2198 C2197 1.524 1_565 S
C2199 C2196 1.403 . S
C2199 C2200 1.392 . S
C2199 C2203 1.495 . S
C2200 C2199 1.392 . S
C2200 C2201 1.385 . S
C2200 C2202 1.478 . S
C2201 H2195 0.930 . S
C2201 C2197 1.400 . S
C2201 C2200 1.385 . S
C2202 C2200 1.478 . S
C2202 C2204 1.381 . S
C2202 C2208 1.383 . S
C2203 C2199 1.495 . S
C2203 H2209 0.959 . S
C2203 H2210 0.961 . S
C2203 H2211 0.960 . S
C2204 C2202 1.381 . S
C2204 C2205 1.394 . S
C2204 H2212 0.930 . S
C2205 C2204 1.394 . S
C2205 C2206 1.383 . S
C2205 H2213 0.929 . S
C2206 C2205 1.383 . S
C2206 C2207 1.377 . S
C2207 H2191 0.930 . S
C2207 C2206 1.377 . S
C2207 C2208 1.379 . S
C2208 H2192 0.931 . S
C2208 C2202 1.383 . S
C2208 C2207 1.379 . S
H2209 C2203 0.959 . S
H2210 C2203 0.961 . S
H2211 C2203 0.960 . S
H2212 C2204 0.930 . S
H2213 C2205 0.929 . S
H2214 C2222 0.929 . S
H2215 C2224 0.930 . S
H2216 C2226 0.930 . S
H2217 C2229 0.929 . S
H2218 C2232 0.930 . S
H2219 C2234 0.960 . S
H2220 C2234 0.960 . S
H2221 C2234 0.960 . S
C2222 H2214 0.929 . S
C2222 C2223 1.377 . S
C2222 C2224 1.384 . S
C2223 C2222 1.377 . S
C2223 C2229 1.390 . S
C2224 H2215 0.930 . S
C2224 C2222 1.384 . S
C2224 C2225 1.372 . S
C2225 C2224 1.372 . S
C2225 C2226 1.400 . S
C2225 C2230 1.490 . S
C2226 H2216 0.930 . S
C2226 C2225 1.400 . S
C2226 C2229 1.386 . S
H2227 C2243 0.930 . S
H2228 C2244 0.931 . S
C2229 H2217 0.929 . S
C2229 C2223 1.390 . S
C2229 C2226 1.386 . S
C2230 C2225 1.490 . S
C2230 C2232 1.395 . S
C2230 C2233 1.403 . S
H2231 C2237 0.930 . S
C2232 H2218 0.930 . S
C2232 C2230 1.395 . S
C2232 C2235 1.403 . S
C2233 C2230 1.403 . S
C2233 C2234 1.524 . S
C2233 C2237 1.400 . S
C2234 H2219 0.960 . S
C2234 H2220 0.960 . S
C2234 H2221 0.960 . S
C2234 C2233 1.524 . S
C2235 C2232 1.403 . S
C2235 C2236 1.392 . S
C2235 C2239 1.495 . S
C2236 C2235 1.392 . S
C2236 C2237 1.385 . S
C2236 C2238 1.478 . S
C2237 H2231 0.930 . S
C2237 C2233 1.400 . S
C2237 C2236 1.385 . S
C2238 C2236 1.478 . S
C2238 C2240 1.381 . S
C2238 C2244 1.383 . S
C2239 C2235 1.495 . S
C2239 H2245 0.959 . S
C2239 H2246 0.961 . S
C2239 H2247 0.960 . S
C2240 C2238 1.381 . S
C2240 C2241 1.394 . S
C2240 H2248 0.930 . S
C2241 C2240 1.394 . S
C2241 C2242 1.383 . S
C2241 H2249 0.929 . S
C2242 C2241 1.383 . S
C2242 C2243 1.377 . S
C2243 H2227 0.930 . S
C2243 C2242 1.377 . S
C2243 C2244 1.379 . S
C2244 H2228 0.931 . S
C2244 C2238 1.383 . S
C2244 C2243 1.379 . S
H2245 C2239 0.959 . S
H2246 C2239 0.961 . S
H2247 C2239 0.960 . S
H2248 C2240 0.930 . S
H2249 C2241 0.929 . S
H2250 C2258 0.929 . S
H2251 C2260 0.930 . S
H2252 C2262 0.930 . S
H2253 C2265 0.929 . S
H2254 C2268 0.930 . S
H2255 C2270 0.960 . S
H2256 C2270 0.960 . S
H2257 C2270 0.960 . S
C2258 H2250 0.929 . S
C2258 C2259 1.377 . S
C2258 C2260 1.384 . S
C2259 C2258 1.377 . S
C2259 C2265 1.390 . S
C2260 H2251 0.930 . S
C2260 C2258 1.384 . S
C2260 C2261 1.372 . S
C2261 C2260 1.372 . S
C2261 C2262 1.400 . S
C2261 C2266 1.490 . S
C2262 H2252 0.930 . S
C2262 C2261 1.400 . S
C2262 C2265 1.386 . S
H2263 C2279 0.930 . S
H2264 C2280 0.931 . S
C2265 H2253 0.929 . S
C2265 C2259 1.390 . S
C2265 C2262 1.386 . S
C2266 C2261 1.490 . S
C2266 C2268 1.395 . S
C2266 C2269 1.403 . S
H2267 C2273 0.930 . S
C2268 H2254 0.930 . S
C2268 C2266 1.395 . S
C2268 C2271 1.403 . S
C2269 C2266 1.403 . S
C2269 C2270 1.524 . S
C2269 C2273 1.400 . S
C2270 H2255 0.960 . S
C2270 H2256 0.960 . S
C2270 H2257 0.960 . S
C2270 C2269 1.524 . S
C2271 C2268 1.403 . S
C2271 C2272 1.392 . S
C2271 C2275 1.495 . S
C2272 C2271 1.392 . S
C2272 C2273 1.385 . S
C2272 C2274 1.478 . S
C2273 H2267 0.930 . S
C2273 C2269 1.400 . S
C2273 C2272 1.385 . S
C2274 C2272 1.478 . S
C2274 C2276 1.381 . S
C2274 C2280 1.383 . S
C2275 C2271 1.495 . S
C2275 H2281 0.959 . S
C2275 H2282 0.961 . S
C2275 H2283 0.960 . S
C2276 C2274 1.381 . S
C2276 C2277 1.394 . S
C2276 H2284 0.930 . S
C2277 C2276 1.394 . S
C2277 C2278 1.383 . S
C2277 H2285 0.929 . S
C2278 C2277 1.383 . S
C2278 C2279 1.377 . S
C2279 H2263 0.930 . S
C2279 C2278 1.377 . S
C2279 C2280 1.379 . S
C2280 H2264 0.931 . S
C2280 C2274 1.383 . S
C2280 C2279 1.379 . S
H2281 C2275 0.959 . S
H2282 C2275 0.961 . S
H2283 C2275 0.960 . S
H2284 C2276 0.930 . S
H2285 C2277 0.929 . S
H2286 C2294 0.929 . S
H2287 C2296 0.930 . S
H2288 C2298 0.930 . S
H2289 C2301 0.929 . S
H2290 C2304 0.930 . S
H2291 C2306 0.960 . S
H2292 C2306 0.960 . S
H2293 C2306 0.960 . S
C2294 H2286 0.929 . S
C2294 C2295 1.377 . S
C2294 C2296 1.384 . S
C2295 C2294 1.377 . S
C2295 C2301 1.390 . S
C2296 H2287 0.930 . S
C2296 C2294 1.384 . S
C2296 C2297 1.372 . S
C2297 C2296 1.372 . S
C2297 C2298 1.400 . S
C2297 C2302 1.490 . S
C2298 H2288 0.930 . S
C2298 C2297 1.400 . S
C2298 C2301 1.386 . S
H2299 C2315 0.930 . S
H2300 C2316 0.931 . S
C2301 H2289 0.929 . S
C2301 C2295 1.390 . S
C2301 C2298 1.386 . S
C2302 C2297 1.490 . S
C2302 C2304 1.395 . S
C2302 C2305 1.403 . S
H2303 C2309 0.930 . S
C2304 H2290 0.930 . S
C2304 C2302 1.395 . S
C2304 C2307 1.403 . S
C2305 C2302 1.403 . S
C2305 C2306 1.524 . S
C2305 C2309 1.400 . S
C2306 H2291 0.960 . S
C2306 H2292 0.960 . S
C2306 H2293 0.960 . S
C2306 C2305 1.524 . S
C2307 C2304 1.403 . S
C2307 C2308 1.392 . S
C2307 C2311 1.495 . S
C2308 C2307 1.392 . S
C2308 C2309 1.385 . S
C2308 C2310 1.478 . S
C2309 H2303 0.930 . S
C2309 C2305 1.400 . S
C2309 C2308 1.385 . S
C2310 C2308 1.478 . S
C2310 C2312 1.381 . S
C2310 C2316 1.383 . S
C2311 C2307 1.495 . S
C2311 H2317 0.959 . S
C2311 H2318 0.961 . S
C2311 H2319 0.960 . S
C2312 C2310 1.381 . S
C2312 C2313 1.394 . S
C2312 H2320 0.930 . S
C2313 C2312 1.394 . S
C2313 C2314 1.383 . S
C2313 H2321 0.929 . S
C2314 C2313 1.383 . S
C2314 C2315 1.377 . S
C2315 H2299 0.930 . S
C2315 C2314 1.377 . S
C2315 C2316 1.379 . S
C2316 H2300 0.931 . S
C2316 C2310 1.383 . S
C2316 C2315 1.379 . S
H2317 C2311 0.959 . S
H2318 C2311 0.961 . S
H2319 C2311 0.960 . S
H2320 C2312 0.930 . S
H2321 C2313 0.929 . S
H2322 C2330 0.929 . S
H2323 C2332 0.930 . S
H2324 C2334 0.930 . S
H2325 C2337 0.929 . S
H2326 C2340 0.930 . S
H2327 C2342 0.960 . S
H2328 C2342 0.960 . S
H2329 C2342 0.960 . S
C2330 H2322 0.929 . S
C2330 C2331 1.377 . S
C2330 C2332 1.384 . S
C2331 C2330 1.377 . S
C2331 C2337 1.390 . S
C2332 H2323 0.930 . S
C2332 C2330 1.384 . S
C2332 C2333 1.372 . S
C2333 C2332 1.372 . S
C2333 C2334 1.400 . S
C2333 C2338 1.490 . S
C2334 H2324 0.930 . S
C2334 C2333 1.400 . S
C2334 C2337 1.386 . S
H2335 C2351 0.930 . S
H2336 C2352 0.931 . S
C2337 H2325 0.929 . S
C2337 C2331 1.390 . S
C2337 C2334 1.386 . S
C2338 C2333 1.490 . S
C2338 C2340 1.395 . S
C2338 C2341 1.403 . S
H2339 C2345 0.930 . S
C2340 H2326 0.930 . S
C2340 C2338 1.395 . S
C2340 C2343 1.403 . S
C2341 C2338 1.403 . S
C2341 C2342 1.524 . S
C2341 C2345 1.400 . S
C2342 H2327 0.960 . S
C2342 H2328 0.960 . S
C2342 H2329 0.960 . S
C2342 C2341 1.524 . S
C2343 C2340 1.403 . S
C2343 C2344 1.392 . S
C2343 C2347 1.495 . S
C2344 C2343 1.392 . S
C2344 C2345 1.385 . S
C2344 C2346 1.478 . S
C2345 H2339 0.930 . S
C2345 C2341 1.400 . S
C2345 C2344 1.385 . S
C2346 C2344 1.478 . S
C2346 C2348 1.381 . S
C2346 C2352 1.383 . S
C2347 C2343 1.495 . S
C2347 H2353 0.959 . S
C2347 H2354 0.961 . S
C2347 H2355 0.960 . S
C2348 C2346 1.381 . S
C2348 C2349 1.394 . S
C2348 H2356 0.930 . S
C2349 C2348 1.394 . S
C2349 C2350 1.383 . S
C2349 H2357 0.929 . S
C2350 C2349 1.383 . S
C2350 C2351 1.377 . S
C2351 H2335 0.930 . S
C2351 C2350 1.377 . S
C2351 C2352 1.379 . S
C2352 H2336 0.931 . S
C2352 C2346 1.383 . S
C2352 C2351 1.379 . S
H2353 C2347 0.959 . S
H2354 C2347 0.961 . S
H2355 C2347 0.960 . S
H2356 C2348 0.930 . S
H2357 C2349 0.929 . S
H2358 C2366 0.929 . S
H2359 C2368 0.930 . S
H2360 C2370 0.930 . S
H2361 C2373 0.929 . S
H2362 C2376 0.930 . S
H2363 C2378 0.960 . S
H2364 C2378 0.960 . S
H2365 C2378 0.960 . S
C2366 H2358 0.929 . S
C2366 C2367 1.377 . S
C2366 C2368 1.384 . S
C2367 C2366 1.377 . S
C2367 C2373 1.390 . S
C2368 H2359 0.930 . S
C2368 C2366 1.384 . S
C2368 C2369 1.372 . S
C2369 C2368 1.372 . S
C2369 C2370 1.400 . S
C2369 C2374 1.490 . S
C2370 H2360 0.930 . S
C2370 C2369 1.400 . S
C2370 C2373 1.386 . S
H2371 C2387 0.930 . S
H2372 C2388 0.931 . S
C2373 H2361 0.929 . S
C2373 C2367 1.390 . S
C2373 C2370 1.386 . S
C2374 C2369 1.490 . S
C2374 C2376 1.395 . S
C2374 C2377 1.403 . S
H2375 C2381 0.930 . S
C2376 H2362 0.930 . S
C2376 C2374 1.395 . S
C2376 C2379 1.403 . S
C2377 C2374 1.403 . S
C2377 C2378 1.524 . S
C2377 C2381 1.400 . S
C2378 H2363 0.960 . S
C2378 H2364 0.960 . S
C2378 H2365 0.960 . S
C2378 C2377 1.524 . S
C2379 C2376 1.403 . S
C2379 C2380 1.392 . S
C2379 C2383 1.495 . S
C2380 C2379 1.392 . S
C2380 C2381 1.385 . S
C2380 C2382 1.478 . S
C2381 H2375 0.930 . S
C2381 C2377 1.400 . S
C2381 C2380 1.385 . S
C2382 C2380 1.478 . S
C2382 C2384 1.381 . S
C2382 C2388 1.383 . S
C2383 C2379 1.495 . S
C2383 H2389 0.959 . S
C2383 H2390 0.961 . S
C2383 H2391 0.960 . S
C2384 C2382 1.381 . S
C2384 C2385 1.394 . S
C2384 H2392 0.930 . S
C2385 C2384 1.394 . S
C2385 C2386 1.383 . S
C2385 H2393 0.929 . S
C2386 C2385 1.383 . S
C2386 C2387 1.377 . S
C2387 H2371 0.930 . S
C2387 C2386 1.377 . S
C2387 C2388 1.379 . S
C2388 H2372 0.931 . S
C2388 C2382 1.383 . S
C2388 C2387 1.379 . S
H2389 C2383 0.959 . S
H2390 C2383 0.961 . S
H2391 C2383 0.960 . S
H2392 C2384 0.930 . S
H2393 C2385 0.929 . S
H2394 C2402 0.929 . S
H2395 C2404 0.930 . S
H2396 C2406 0.930 . S
H2397 C2409 0.929 . S
H2398 C2412 0.930 . S
H2399 C2414 0.960 . S
H2400 C2414 0.960 . S
H2401 C2414 0.960 . S
C2402 H2394 0.929 . S
C2402 C2403 1.377 . S
C2402 C2404 1.384 . S
C2403 C2402 1.377 . S
C2403 C2409 1.390 . S
C2404 H2395 0.930 . S
C2404 C2402 1.384 . S
C2404 C2405 1.372 . S
C2405 C2404 1.372 . S
C2405 C2406 1.400 . S
C2405 C2410 1.490 . S
C2406 H2396 0.930 . S
C2406 C2405 1.400 . S
C2406 C2409 1.386 . S
H2407 C2423 0.930 . S
H2408 C2424 0.931 . S
C2409 H2397 0.929 . S
C2409 C2403 1.390 . S
C2409 C2406 1.386 . S
C2410 C2405 1.490 . S
C2410 C2412 1.395 . S
C2410 C2413 1.403 . S
H2411 C2417 0.930 . S
C2412 H2398 0.930 . S
C2412 C2410 1.395 . S
C2412 C2415 1.403 . S
C2413 C2410 1.403 . S
C2413 C2414 1.524 . S
C2413 C2417 1.400 . S
C2414 H2399 0.960 . S
C2414 H2400 0.960 . S
C2414 H2401 0.960 . S
C2414 C2413 1.524 . S
C2415 C2412 1.403 . S
C2415 C2416 1.392 . S
C2415 C2419 1.495 . S
C2416 C2415 1.392 . S
C2416 C2417 1.385 . S
C2416 C2418 1.478 . S
C2417 H2411 0.930 . S
C2417 C2413 1.400 . S
C2417 C2416 1.385 . S
C2418 C2416 1.478 . S
C2418 C2420 1.381 . S
C2418 C2424 1.383 . S
C2419 C2415 1.495 . S
C2419 H2425 0.959 . S
C2419 H2426 0.961 . S
C2419 H2427 0.960 . S
C2420 C2418 1.381 . S
C2420 C2421 1.394 . S
C2420 H2428 0.930 . S
C2421 C2420 1.394 . S
C2421 C2422 1.383 . S
C2421 H2429 0.929 . S
C2422 C2421 1.383 . S
C2422 C2423 1.377 . S
C2423 H2407 0.930 . S
C2423 C2422 1.377 . S
C2423 C2424 1.379 . S
C2424 H2408 0.931 . S
C2424 C2418 1.383 . S
C2424 C2423 1.379 . S
H2425 C2419 0.959 . S
H2426 C2419 0.961 . S
H2427 C2419 0.960 . S
H2428 C2420 0.930 . S
H2429 C2421 0.929 . S
H2430 C2438 0.929 . S
H2431 C2440 0.930 . S
H2432 C2442 0.930 . S
H2433 C2445 0.929 . S
H2434 C2448 0.930 . S
H2435 C2450 0.960 . S
H2436 C2450 0.960 . S
H2437 C2450 0.960 . S
C2438 H2430 0.929 . S
C2438 C2439 1.377 . S
C2438 C2440 1.384 . S
C2439 C2438 1.377 . S
C2439 C2445 1.390 . S
C2440 H2431 0.930 . S
C2440 C2438 1.384 . S
C2440 C2441 1.372 . S
C2441 C2440 1.372 . S
C2441 C2442 1.400 . S
C2441 C2446 1.490 . S
C2442 H2432 0.930 . S
C2442 C2441 1.400 . S
C2442 C2445 1.386 . S
H2443 C2459 0.930 . S
H2444 C2460 0.931 . S
C2445 H2433 0.929 . S
C2445 C2439 1.390 . S
C2445 C2442 1.386 . S
C2446 C2441 1.490 . S
C2446 C2448 1.395 . S
C2446 C2449 1.403 . S
H2447 C2453 0.930 . S
C2448 H2434 0.930 . S
C2448 C2446 1.395 . S
C2448 C2451 1.403 . S
C2449 C2446 1.403 . S
C2449 C2450 1.524 . S
C2449 C2453 1.400 . S
C2450 H2435 0.960 . S
C2450 H2436 0.960 . S
C2450 H2437 0.960 . S
C2450 C2449 1.524 . S
C2451 C2448 1.403 . S
C2451 C2452 1.392 . S
C2451 C2455 1.495 . S
C2452 C2451 1.392 . S
C2452 C2453 1.385 . S
C2452 C2454 1.478 . S
C2453 H2447 0.930 . S
C2453 C2449 1.400 . S
C2453 C2452 1.385 . S
C2454 C2452 1.478 . S
C2454 C2456 1.381 . S
C2454 C2460 1.383 . S
C2455 C2451 1.495 . S
C2455 H2461 0.959 . S
C2455 H2462 0.961 . S
C2455 H2463 0.960 . S
C2456 C2454 1.381 . S
C2456 C2457 1.394 . S
C2456 H2464 0.930 . S
C2457 C2456 1.394 . S
C2457 C2458 1.383 . S
C2457 H2465 0.929 . S
C2458 C2457 1.383 . S
C2458 C2459 1.377 . S
C2459 H2443 0.930 . S
C2459 C2458 1.377 . S
C2459 C2460 1.379 . S
C2460 H2444 0.931 . S
C2460 C2454 1.383 . S
C2460 C2459 1.379 . S
H2461 C2455 0.959 . S
H2462 C2455 0.961 . S
H2463 C2455 0.960 . S
H2464 C2456 0.930 . S
H2465 C2457 0.929 . S
H2466 C2474 0.929 . S
H2467 C2476 0.930 . S
H2468 C2478 0.930 . S
H2469 C2481 0.929 . S
H2470 C2484 0.930 . S
H2471 C2486 0.960 . S
H2472 C2486 0.960 . S
H2473 C2486 0.960 . S
C2474 H2466 0.929 . S
C2474 C2475 1.377 . S
C2474 C2476 1.384 . S
C2475 C2474 1.377 . S
C2475 C2481 1.390 . S
C2476 H2467 0.930 . S
C2476 C2474 1.384 . S
C2476 C2477 1.372 . S
C2477 C2476 1.372 . S
C2477 C2478 1.400 . S
C2477 C2482 1.490 . S
C2478 H2468 0.930 . S
C2478 C2477 1.400 . S
C2478 C2481 1.386 . S
H2479 C2495 0.930 . S
H2480 C2496 0.931 . S
C2481 H2469 0.929 . S
C2481 C2475 1.390 . S
C2481 C2478 1.386 . S
C2482 C2477 1.490 . S
C2482 C2484 1.395 . S
C2482 C2485 1.403 . S
H2483 C2489 0.930 . S
C2484 H2470 0.930 . S
C2484 C2482 1.395 . S
C2484 C2487 1.403 . S
C2485 C2482 1.403 . S
C2485 C2486 1.524 . S
C2485 C2489 1.400 . S
C2486 H2471 0.960 . S
C2486 H2472 0.960 . S
C2486 H2473 0.960 . S
C2486 C2485 1.524 . S
C2487 C2484 1.403 . S
C2487 C2488 1.392 . S
C2487 C2491 1.495 . S
C2488 C2487 1.392 . S
C2488 C2489 1.385 . S
C2488 C2490 1.478 . S
C2489 H2483 0.930 . S
C2489 C2485 1.400 . S
C2489 C2488 1.385 . S
C2490 C2488 1.478 . S
C2490 C2492 1.381 . S
C2490 C2496 1.383 . S
C2491 C2487 1.495 . S
C2491 H2497 0.959 . S
C2491 H2498 0.961 . S
C2491 H2499 0.960 . S
C2492 C2490 1.381 . S
C2492 C2493 1.394 . S
C2492 H2500 0.930 . S
C2493 C2492 1.394 . S
C2493 C2494 1.383 . S
C2493 H2501 0.929 . S
C2494 C2493 1.383 . S
C2494 C2495 1.377 . S
C2495 H2479 0.930 . S
C2495 C2494 1.377 . S
C2495 C2496 1.379 . S
C2496 H2480 0.931 . S
C2496 C2490 1.383 . S
C2496 C2495 1.379 . S
H2497 C2491 0.959 . S
H2498 C2491 0.961 . S
H2499 C2491 0.960 . S
H2500 C2492 0.930 . S
H2501 C2493 0.929 . S
H2502 C2510 0.929 . S
H2503 C2512 0.930 . S
H2504 C2514 0.930 . S
H2505 C2517 0.929 . S
H2506 C2520 0.930 . S
H2507 C2522 0.960 . S
H2508 C2522 0.960 . S
H2509 C2522 0.960 . S
C2510 H2502 0.929 . S
C2510 C2511 1.377 . S
C2510 C2512 1.384 . S
C2511 C2510 1.377 . S
C2511 C2517 1.390 . S
C2512 H2503 0.930 . S
C2512 C2510 1.384 . S
C2512 C2513 1.372 . S
C2513 C2512 1.372 . S
C2513 C2514 1.400 . S
C2513 C2518 1.490 . S
C2514 H2504 0.930 . S
C2514 C2513 1.400 . S
C2514 C2517 1.386 . S
H2515 C2531 0.930 . S
H2516 C2532 0.931 . S
C2517 H2505 0.929 . S
C2517 C2511 1.390 . S
C2517 C2514 1.386 . S
C2518 C2513 1.490 . S
C2518 C2520 1.395 . S
C2518 C2521 1.403 . S
H2519 C2525 0.930 . S
C2520 H2506 0.930 . S
C2520 C2518 1.395 . S
C2520 C2523 1.403 . S
C2521 C2518 1.403 . S
C2521 C2522 1.524 . S
C2521 C2525 1.400 . S
C2522 H2507 0.960 . S
C2522 H2508 0.960 . S
C2522 H2509 0.960 . S
C2522 C2521 1.524 . S
C2523 C2520 1.403 . S
C2523 C2524 1.392 . S
C2523 C2527 1.495 . S
C2524 C2523 1.392 . S
C2524 C2525 1.385 . S
C2524 C2526 1.478 . S
C2525 H2519 0.930 . S
C2525 C2521 1.400 . S
C2525 C2524 1.385 . S
C2526 C2524 1.478 . S
C2526 C2528 1.381 . S
C2526 C2532 1.383 . S
C2527 C2523 1.495 . S
C2527 H2533 0.959 . S
C2527 H2534 0.961 . S
C2527 H2535 0.960 . S
C2528 C2526 1.381 . S
C2528 C2529 1.394 . S
C2528 H2536 0.930 . S
C2529 C2528 1.394 . S
C2529 C2530 1.383 . S
C2529 H2537 0.929 . S
C2530 C2529 1.383 . S
C2530 C2531 1.377 . S
C2531 H2515 0.930 . S
C2531 C2530 1.377 . S
C2531 C2532 1.379 . S
C2532 H2516 0.931 . S
C2532 C2526 1.383 . S
C2532 C2531 1.379 . S
H2533 C2527 0.959 . S
H2534 C2527 0.961 . S
H2535 C2527 0.960 . S
H2536 C2528 0.930 . S
H2537 C2529 0.929 . S
H2538 C2546 0.929 . S
H2539 C2548 0.930 . S
H2540 C2550 0.930 . S
H2541 C2553 0.929 . S
H2542 C2556 0.930 . S
H2543 C2558 0.960 . S
H2544 C2558 0.960 . S
H2545 C2558 0.960 . S
C2546 H2538 0.929 . S
C2546 C2547 1.377 . S
C2546 C2548 1.384 . S
C2547 C2546 1.377 . S
C2547 C2553 1.390 . S
C2548 H2539 0.930 . S
C2548 C2546 1.384 . S
C2548 C2549 1.372 . S
C2549 C2548 1.372 . S
C2549 C2550 1.400 . S
C2549 C2554 1.490 . S
C2550 H2540 0.930 . S
C2550 C2549 1.400 . S
C2550 C2553 1.386 . S
H2551 C2567 0.930 . S
H2552 C2568 0.931 . S
C2553 H2541 0.929 . S
C2553 C2547 1.390 . S
C2553 C2550 1.386 . S
C2554 C2549 1.490 . S
C2554 C2556 1.395 . S
C2554 C2557 1.403 . S
H2555 C2561 0.930 . S
C2556 H2542 0.930 . S
C2556 C2554 1.395 . S
C2556 C2559 1.403 . S
C2557 C2554 1.403 . S
C2557 C2558 1.524 . S
C2557 C2561 1.400 . S
C2558 H2543 0.960 . S
C2558 H2544 0.960 . S
C2558 H2545 0.960 . S
C2558 C2557 1.524 . S
C2559 C2556 1.403 . S
C2559 C2560 1.392 . S
C2559 C2563 1.495 . S
C2560 C2559 1.392 . S
C2560 C2561 1.385 . S
C2560 C2562 1.478 . S
C2561 H2555 0.930 . S
C2561 C2557 1.400 . S
C2561 C2560 1.385 . S
C2562 C2560 1.478 . S
C2562 C2564 1.381 . S
C2562 C2568 1.383 . S
C2563 C2559 1.495 . S
C2563 H2569 0.959 . S
C2563 H2570 0.961 . S
C2563 H2571 0.960 . S
C2564 C2562 1.381 . S
C2564 C2565 1.394 . S
C2564 H2572 0.930 . S
C2565 C2564 1.394 . S
C2565 C2566 1.383 . S
C2565 H2573 0.929 . S
C2566 C2565 1.383 . S
C2566 C2567 1.377 . S
C2567 H2551 0.930 . S
C2567 C2566 1.377 . S
C2567 C2568 1.379 . S
C2568 H2552 0.931 . S
C2568 C2562 1.383 . S
C2568 C2567 1.379 . S
H2569 C2563 0.959 . S
H2570 C2563 0.961 . S
H2571 C2563 0.960 . S
H2572 C2564 0.930 . S
H2573 C2565 0.929 . S
H2574 C2582 0.929 . S
H2575 C2584 0.930 . S
H2576 C2586 0.930 . S
H2577 C2589 0.929 . S
H2578 C2592 0.930 . S
H2579 C2594 0.960 . S
H2580 C2594 0.960 . S
H2581 C2594 0.960 . S
C2582 H2574 0.929 . S
C2582 C2583 1.377 . S
C2582 C2584 1.384 . S
C2583 C2582 1.377 . S
C2583 C2589 1.390 . S
C2584 H2575 0.930 . S
C2584 C2582 1.384 . S
C2584 C2585 1.372 . S
C2585 C2584 1.372 . S
C2585 C2586 1.400 . S
C2585 C2590 1.490 . S
C2586 H2576 0.930 . S
C2586 C2585 1.400 . S
C2586 C2589 1.386 . S
H2587 C2603 0.930 . S
H2588 C2604 0.931 . S
C2589 H2577 0.929 . S
C2589 C2583 1.390 . S
C2589 C2586 1.386 . S
C2590 C2585 1.490 . S
C2590 C2592 1.395 . S
C2590 C2593 1.403 . S
H2591 C2597 0.930 . S
C2592 H2578 0.930 . S
C2592 C2590 1.395 . S
C2592 C2595 1.403 . S
C2593 C2590 1.403 . S
C2593 C2594 1.524 . S
C2593 C2597 1.400 . S
C2594 H2579 0.960 . S
C2594 H2580 0.960 . S
C2594 H2581 0.960 . S
C2594 C2593 1.524 . S
C2595 C2592 1.403 . S
C2595 C2596 1.392 . S
C2595 C2599 1.495 . S
C2596 C2595 1.392 . S
C2596 C2597 1.385 . S
C2596 C2598 1.478 . S
C2597 H2591 0.930 . S
C2597 C2593 1.400 . S
C2597 C2596 1.385 . S
C2598 C2596 1.478 . S
C2598 C2600 1.381 . S
C2598 C2604 1.383 . S
C2599 C2595 1.495 . S
C2599 H2605 0.959 . S
C2599 H2606 0.961 . S
C2599 H2607 0.960 . S
C2600 C2598 1.381 . S
C2600 C2601 1.394 . S
C2600 H2608 0.930 . S
C2601 C2600 1.394 . S
C2601 C2602 1.383 . S
C2601 H2609 0.929 . S
C2602 C2601 1.383 . S
C2602 C2603 1.377 . S
C2603 H2587 0.930 . S
C2603 C2602 1.377 . S
C2603 C2604 1.379 . S
C2604 H2588 0.931 . S
C2604 C2598 1.383 . S
C2604 C2603 1.379 . S
H2605 C2599 0.959 . S
H2606 C2599 0.961 . S
H2607 C2599 0.960 . S
H2608 C2600 0.930 . S
H2609 C2601 0.929 . S
H2610 C2618 0.929 . S
H2611 C2620 0.930 . S
H2612 C2622 0.930 . S
H2613 C2625 0.929 . S
H2614 C2628 0.930 . S
H2615 C2630 0.960 . S
H2616 C2630 0.960 . S
H2617 C2630 0.960 . S
C2618 H2610 0.929 . S
C2618 C2619 1.377 . S
C2618 C2620 1.384 . S
C2619 C2618 1.377 . S
C2619 C2625 1.390 . S
C2620 H2611 0.930 . S
C2620 C2618 1.384 . S
C2620 C2621 1.372 . S
C2621 C2620 1.372 . S
C2621 C2622 1.400 . S
C2621 C2626 1.490 . S
C2622 H2612 0.930 . S
C2622 C2621 1.400 . S
C2622 C2625 1.386 . S
H2623 C2639 0.930 . S
H2624 C2640 0.931 . S
C2625 H2613 0.929 . S
C2625 C2619 1.390 . S
C2625 C2622 1.386 . S
C2626 C2621 1.490 . S
C2626 C2628 1.395 . S
C2626 C2629 1.403 . S
H2627 C2633 0.930 . S
C2628 H2614 0.930 . S
C2628 C2626 1.395 . S
C2628 C2631 1.403 . S
C2629 C2626 1.403 . S
C2629 C2630 1.524 . S
C2629 C2633 1.400 . S
C2630 H2615 0.960 . S
C2630 H2616 0.960 . S
C2630 H2617 0.960 . S
C2630 C2629 1.524 . S
C2631 C2628 1.403 . S
C2631 C2632 1.392 . S
C2631 C2635 1.495 . S
C2632 C2631 1.392 . S
C2632 C2633 1.385 . S
C2632 C2634 1.478 . S
C2633 H2627 0.930 . S
C2633 C2629 1.400 . S
C2633 C2632 1.385 . S
C2634 C2632 1.478 . S
C2634 C2636 1.381 . S
C2634 C2640 1.383 . S
C2635 C2631 1.495 . S
C2635 H2641 0.959 . S
C2635 H2642 0.961 . S
C2635 H2643 0.960 . S
C2636 C2634 1.381 . S
C2636 C2637 1.394 . S
C2636 H2644 0.930 . S
C2637 C2636 1.394 . S
C2637 C2638 1.383 . S
C2637 H2645 0.929 . S
C2638 C2637 1.383 . S
C2638 C2639 1.377 . S
C2639 H2623 0.930 . S
C2639 C2638 1.377 . S
C2639 C2640 1.379 . S
C2640 H2624 0.931 . S
C2640 C2634 1.383 . S
C2640 C2639 1.379 . S
H2641 C2635 0.959 . S
H2642 C2635 0.961 . S
H2643 C2635 0.960 . S
H2644 C2636 0.930 . S
H2645 C2637 0.929 . S
H2646 C2654 0.929 . S
H2647 C2656 0.930 . S
H2648 C2658 0.930 . S
H2649 C2661 0.929 . S
H2650 C2664 0.930 . S
H2651 C2666 0.960 . S
H2652 C2666 0.960 . S
H2653 C2666 0.960 . S
C2654 H2646 0.929 . S
C2654 C2655 1.377 . S
C2654 C2656 1.384 . S
C2655 C2654 1.377 . S
C2655 C2661 1.390 . S
C2656 H2647 0.930 . S
C2656 C2654 1.384 . S
C2656 C2657 1.372 . S
C2657 C2656 1.372 . S
C2657 C2658 1.400 . S
C2657 C2662 1.490 . S
C2658 H2648 0.930 . S
C2658 C2657 1.400 . S
C2658 C2661 1.386 . S
H2659 C2675 0.930 . S
H2660 C2676 0.931 . S
C2661 H2649 0.929 . S
C2661 C2655 1.390 . S
C2661 C2658 1.386 . S
C2662 C2657 1.490 . S
C2662 C2664 1.395 . S
C2662 C2665 1.403 . S
H2663 C2669 0.930 . S
C2664 H2650 0.930 . S
C2664 C2662 1.395 . S
C2664 C2667 1.403 . S
C2665 C2662 1.403 . S
C2665 C2666 1.524 . S
C2665 C2669 1.400 . S
C2666 H2651 0.960 . S
C2666 H2652 0.960 . S
C2666 H2653 0.960 . S
C2666 C2665 1.524 . S
C2667 C2664 1.403 . S
C2667 C2668 1.392 . S
C2667 C2671 1.495 . S
C2668 C2667 1.392 . S
C2668 C2669 1.385 . S
C2668 C2670 1.478 . S
C2669 H2663 0.930 . S
C2669 C2665 1.400 . S
C2669 C2668 1.385 . S
C2670 C2668 1.478 . S
C2670 C2672 1.381 . S
C2670 C2676 1.383 . S
C2671 C2667 1.495 . S
C2671 H2677 0.959 . S
C2671 H2678 0.961 . S
C2671 H2679 0.960 . S
C2672 C2670 1.381 . S
C2672 C2673 1.394 . S
C2672 H2680 0.930 . S
C2673 C2672 1.394 . S
C2673 C2674 1.383 . S
C2673 H2681 0.929 . S
C2674 C2673 1.383 . S
C2674 C2675 1.377 . S
C2675 H2659 0.930 . S
C2675 C2674 1.377 . S
C2675 C2676 1.379 . S
C2676 H2660 0.931 . S
C2676 C2670 1.383 . S
C2676 C2675 1.379 . S
H2677 C2671 0.959 . S
H2678 C2671 0.961 . S
H2679 C2671 0.960 . S
H2680 C2672 0.930 . S
H2681 C2673 0.929 . S
H2682 C2690 0.929 . S
H2683 C2692 0.930 . S
H2684 C2694 0.930 . S
H2685 C2697 0.929 . S
H2686 C2700 0.930 . S
H2687 C2702 0.960 . S
H2688 C2702 0.960 . S
H2689 C2702 0.960 . S
C2690 H2682 0.929 . S
C2690 C2691 1.377 . S
C2690 C2692 1.384 . S
C2691 C2690 1.377 . S
C2691 C2697 1.390 . S
C2692 H2683 0.930 . S
C2692 C2690 1.384 . S
C2692 C2693 1.372 . S
C2693 C2692 1.372 . S
C2693 C2694 1.400 . S
C2693 C2698 1.490 . S
C2694 H2684 0.930 . S
C2694 C2693 1.400 . S
C2694 C2697 1.386 . S
H2695 C2711 0.930 . S
H2696 C2712 0.931 . S
C2697 H2685 0.929 . S
C2697 C2691 1.390 . S
C2697 C2694 1.386 . S
C2698 C2693 1.490 . S
C2698 C2700 1.395 . S
C2698 C2701 1.403 . S
H2699 C2705 0.930 . S
C2700 H2686 0.930 . S
C2700 C2698 1.395 . S
C2700 C2703 1.403 . S
C2701 C2698 1.403 . S
C2701 C2702 1.524 . S
C2701 C2705 1.400 . S
C2702 H2687 0.960 . S
C2702 H2688 0.960 . S
C2702 H2689 0.960 . S
C2702 C2701 1.524 . S
C2703 C2700 1.403 . S
C2703 C2704 1.392 . S
C2703 C2707 1.495 . S
C2704 C2703 1.392 . S
C2704 C2705 1.385 . S
C2704 C2706 1.478 . S
C2705 H2699 0.930 . S
C2705 C2701 1.400 . S
C2705 C2704 1.385 . S
C2706 C2704 1.478 . S
C2706 C2708 1.381 . S
C2706 C2712 1.383 . S
C2707 C2703 1.495 . S
C2707 H2713 0.959 . S
C2707 H2714 0.961 . S
C2707 H2715 0.960 . S
C2708 C2706 1.381 . S
C2708 C2709 1.394 . S
C2708 H2716 0.930 . S
C2709 C2708 1.394 . S
C2709 C2710 1.383 . S
C2709 H2717 0.929 . S
C2710 C2709 1.383 . S
C2710 C2711 1.377 . S
C2711 H2695 0.930 . S
C2711 C2710 1.377 . S
C2711 C2712 1.379 . S
C2712 H2696 0.931 . S
C2712 C2706 1.383 . S
C2712 C2711 1.379 . S
H2713 C2707 0.959 . S
H2714 C2707 0.961 . S
H2715 C2707 0.960 . S
H2716 C2708 0.930 . S
H2717 C2709 0.929 . S
H2718 C2726 0.929 . S
H2719 C2728 0.930 . S
H2720 C2730 0.930 . S
H2721 C2733 0.929 . S
H2722 C2736 0.930 . S
H2723 C2738 0.960 . S
H2724 C2738 0.960 . S
H2725 C2738 0.960 . S
C2726 H2718 0.929 . S
C2726 C2727 1.377 . S
C2726 C2728 1.384 . S
C2727 C2726 1.377 . S
C2727 C2733 1.390 . S
C2728 H2719 0.930 . S
C2728 C2726 1.384 . S
C2728 C2729 1.372 . S
C2729 C2728 1.372 . S
C2729 C2730 1.400 . S
C2729 C2734 1.490 . S
C2730 H2720 0.930 . S
C2730 C2729 1.400 . S
C2730 C2733 1.386 . S
H2731 C2747 0.930 . S
H2732 C2748 0.931 . S
C2733 H2721 0.929 . S
C2733 C2727 1.390 . S
C2733 C2730 1.386 . S
C2734 C2729 1.490 . S
C2734 C2736 1.395 . S
C2734 C2737 1.403 . S
H2735 C2741 0.930 . S
C2736 H2722 0.930 . S
C2736 C2734 1.395 . S
C2736 C2739 1.403 . S
C2737 C2734 1.403 . S
C2737 C2738 1.524 . S
C2737 C2741 1.400 . S
C2738 H2723 0.960 . S
C2738 H2724 0.960 . S
C2738 H2725 0.960 . S
C2738 C2737 1.524 . S
C2739 C2736 1.403 . S
C2739 C2740 1.392 . S
C2739 C2743 1.495 . S
C2740 C2739 1.392 . S
C2740 C2741 1.385 . S
C2740 C2742 1.478 . S
C2741 H2735 0.930 . S
C2741 C2737 1.400 . S
C2741 C2740 1.385 . S
C2742 C2740 1.478 . S
C2742 C2744 1.381 . S
C2742 C2748 1.383 . S
C2743 C2739 1.495 . S
C2743 H2749 0.959 . S
C2743 H2750 0.961 . S
C2743 H2751 0.960 . S
C2744 C2742 1.381 . S
C2744 C2745 1.394 . S
C2744 H2752 0.930 . S
C2745 C2744 1.394 . S
C2745 C2746 1.383 . S
C2745 H2753 0.929 . S
C2746 C2745 1.383 . S
C2746 C2747 1.377 . S
C2747 H2731 0.930 . S
C2747 C2746 1.377 . S
C2747 C2748 1.379 . S
C2748 H2732 0.931 . S
C2748 C2742 1.383 . S
C2748 C2747 1.379 . S
H2749 C2743 0.959 . S
H2750 C2743 0.961 . S
H2751 C2743 0.960 . S
H2752 C2744 0.930 . S
H2753 C2745 0.929 . S
H2754 C2762 0.929 . S
H2755 C2764 0.930 . S
H2756 C2766 0.930 . S
H2757 C2769 0.929 . S
H2758 C2772 0.930 . S
H2759 C2774 0.960 . S
H2760 C2774 0.960 . S
H2761 C2774 0.960 . S
C2762 H2754 0.929 . S
C2762 C2763 1.377 . S
C2762 C2764 1.384 . S
C2763 C2762 1.377 . S
C2763 C2769 1.390 . S
C2764 H2755 0.930 . S
C2764 C2762 1.384 . S
C2764 C2765 1.372 . S
C2765 C2764 1.372 . S
C2765 C2766 1.400 . S
C2765 C2770 1.490 . S
C2766 H2756 0.930 . S
C2766 C2765 1.400 . S
C2766 C2769 1.386 . S
H2767 C2783 0.930 . S
H2768 C2784 0.931 . S
C2769 H2757 0.929 . S
C2769 C2763 1.390 . S
C2769 C2766 1.386 . S
C2770 C2765 1.490 . S
C2770 C2772 1.395 . S
C2770 C2773 1.403 . S
H2771 C2777 0.930 . S
C2772 H2758 0.930 . S
C2772 C2770 1.395 . S
C2772 C2775 1.403 . S
C2773 C2770 1.403 . S
C2773 C2774 1.524 . S
C2773 C2777 1.400 . S
C2774 H2759 0.960 . S
C2774 H2760 0.960 . S
C2774 H2761 0.960 . S
C2774 C2773 1.524 . S
C2775 C2772 1.403 . S
C2775 C2776 1.392 . S
C2775 C2779 1.495 . S
C2776 C2775 1.392 . S
C2776 C2777 1.385 . S
C2776 C2778 1.478 . S
C2777 H2771 0.930 . S
C2777 C2773 1.400 . S
C2777 C2776 1.385 . S
C2778 C2776 1.478 . S
C2778 C2780 1.381 . S
C2778 C2784 1.383 . S
C2779 C2775 1.495 . S
C2779 H2785 0.959 . S
C2779 H2786 0.961 . S
C2779 H2787 0.960 . S
C2780 C2778 1.381 . S
C2780 C2781 1.394 . S
C2780 H2788 0.930 . S
C2781 C2780 1.394 . S
C2781 C2782 1.383 . S
C2781 H2789 0.929 . S
C2782 C2781 1.383 . S
C2782 C2783 1.377 . S
C2783 H2767 0.930 . S
C2783 C2782 1.377 . S
C2783 C2784 1.379 . S
C2784 H2768 0.931 . S
C2784 C2778 1.383 . S
C2784 C2783 1.379 . S
H2785 C2779 0.959 . S
H2786 C2779 0.961 . S
H2787 C2779 0.960 . S
H2788 C2780 0.930 . S
H2789 C2781 0.929 . S
H2790 C2798 0.929 . S
H2791 C2800 0.930 . S
H2792 C2802 0.930 . S
H2793 C2805 0.929 . S
H2794 C2808 0.930 . S
H2795 C2810 0.960 . S
H2796 C2810 0.960 . S
H2797 C2810 0.960 . S
C2798 H2790 0.929 . S
C2798 C2799 1.377 . S
C2798 C2800 1.384 . S
C2799 C2798 1.377 . S
C2799 C2805 1.390 . S
C2800 H2791 0.930 . S
C2800 C2798 1.384 . S
C2800 C2801 1.372 . S
C2801 C2800 1.372 . S
C2801 C2802 1.400 . S
C2801 C2806 1.490 . S
C2802 H2792 0.930 . S
C2802 C2801 1.400 . S
C2802 C2805 1.386 . S
H2803 C2819 0.930 . S
H2804 C2820 0.931 . S
C2805 H2793 0.929 . S
C2805 C2799 1.390 . S
C2805 C2802 1.386 . S
C2806 C2801 1.490 . S
C2806 C2808 1.395 . S
C2806 C2809 1.403 . S
H2807 C2813 0.930 . S
C2808 H2794 0.930 . S
C2808 C2806 1.395 . S
C2808 C2811 1.403 . S
C2809 C2806 1.403 . S
C2809 C2810 1.524 . S
C2809 C2813 1.400 . S
C2810 H2795 0.960 . S
C2810 H2796 0.960 . S
C2810 H2797 0.960 . S
C2810 C2809 1.524 . S
C2811 C2808 1.403 . S
C2811 C2812 1.392 . S
C2811 C2815 1.495 . S
C2812 C2811 1.392 . S
C2812 C2813 1.385 . S
C2812 C2814 1.478 . S
C2813 H2807 0.930 . S
C2813 C2809 1.400 . S
C2813 C2812 1.385 . S
C2814 C2812 1.478 . S
C2814 C2816 1.381 . S
C2814 C2820 1.383 . S
C2815 C2811 1.495 . S
C2815 H2821 0.959 . S
C2815 H2822 0.961 . S
C2815 H2823 0.960 . S
C2816 C2814 1.381 . S
C2816 C2817 1.394 . S
C2816 H2824 0.930 . S
C2817 C2816 1.394 . S
C2817 C2818 1.383 . S
C2817 H2825 0.929 . S
C2818 C2817 1.383 . S
C2818 C2819 1.377 . S
C2819 H2803 0.930 . S
C2819 C2818 1.377 . S
C2819 C2820 1.379 . S
C2820 H2804 0.931 . S
C2820 C2814 1.383 . S
C2820 C2819 1.379 . S
H2821 C2815 0.959 . S
H2822 C2815 0.961 . S
H2823 C2815 0.960 . S
H2824 C2816 0.930 . S
H2825 C2817 0.929 . S
H2826 C2834 0.929 . S
H2827 C2836 0.930 . S
H2828 C2838 0.930 . S
H2829 C2841 0.929 . S
H2830 C2844 0.930 . S
H2831 C2846 0.960 . S
H2832 C2846 0.960 . S
H2833 C2846 0.960 . S
C2834 H2826 0.929 . S
C2834 C2835 1.377 . S
C2834 C2836 1.384 . S
C2835 C2834 1.377 . S
C2835 C2841 1.390 . S
C2836 H2827 0.930 . S
C2836 C2834 1.384 . S
C2836 C2837 1.372 . S
C2837 C2836 1.372 . S
C2837 C2838 1.400 . S
C2837 C2842 1.490 . S
C2838 H2828 0.930 . S
C2838 C2837 1.400 . S
C2838 C2841 1.386 . S
H2839 C2855 0.930 . S
H2840 C2856 0.931 . S
C2841 H2829 0.929 . S
C2841 C2835 1.390 . S
C2841 C2838 1.386 . S
C2842 C2837 1.490 . S
C2842 C2844 1.395 . S
C2842 C2845 1.403 . S
H2843 C2849 0.930 . S
C2844 H2830 0.930 . S
C2844 C2842 1.395 . S
C2844 C2847 1.403 . S
C2845 C2842 1.403 . S
C2845 C2846 1.524 . S
C2845 C2849 1.400 . S
C2846 H2831 0.960 . S
C2846 H2832 0.960 . S
C2846 H2833 0.960 . S
C2846 C2845 1.524 . S
C2847 C2844 1.403 . S
C2847 C2848 1.392 . S
C2847 C2851 1.495 . S
C2848 C2847 1.392 . S
C2848 C2849 1.385 . S
C2848 C2850 1.478 . S
C2849 H2843 0.930 . S
C2849 C2845 1.400 . S
C2849 C2848 1.385 . S
C2850 C2848 1.478 . S
C2850 C2852 1.381 . S
C2850 C2856 1.383 . S
C2851 C2847 1.495 . S
C2851 H2857 0.959 . S
C2851 H2858 0.961 . S
C2851 H2859 0.960 . S
C2852 C2850 1.381 . S
C2852 C2853 1.394 . S
C2852 H2860 0.930 . S
C2853 C2852 1.394 . S
C2853 C2854 1.383 . S
C2853 H2861 0.929 . S
C2854 C2853 1.383 . S
C2854 C2855 1.377 . S
C2855 H2839 0.930 . S
C2855 C2854 1.377 . S
C2855 C2856 1.379 . S
C2856 H2840 0.931 . S
C2856 C2850 1.383 . S
C2856 C2855 1.379 . S
H2857 C2851 0.959 . S
H2858 C2851 0.961 . S
H2859 C2851 0.960 . S
H2860 C2852 0.930 . S
H2861 C2853 0.929 . S
H2862 C2870 0.929 . S
H2863 C2872 0.930 . S
H2864 C2874 0.930 . S
H2865 C2877 0.929 . S
H2866 C2880 0.930 . S
H2867 C2882 0.960 . S
H2868 C2882 0.960 . S
H2869 C2882 0.960 . S
C2870 H2862 0.929 . S
C2870 C2871 1.377 . S
C2870 C2872 1.384 . S
C2871 C2870 1.377 . S
C2871 C2877 1.390 . S
C2872 H2863 0.930 . S
C2872 C2870 1.384 . S
C2872 C2873 1.372 . S
C2873 C2872 1.372 . S
C2873 C2874 1.400 . S
C2873 C2878 1.490 . S
C2874 H2864 0.930 . S
C2874 C2873 1.400 . S
C2874 C2877 1.386 . S
H2875 C2891 0.930 . S
H2876 C2892 0.931 . S
C2877 H2865 0.929 . S
C2877 C2871 1.390 . S
C2877 C2874 1.386 . S
C2878 C2873 1.490 . S
C2878 C2880 1.395 . S
C2878 C2881 1.403 . S
H2879 C2885 0.930 . S
C2880 H2866 0.930 . S
C2880 C2878 1.395 . S
C2880 C2883 1.403 . S
C2881 C2878 1.403 . S
C2881 C2882 1.524 . S
C2881 C2885 1.400 . S
C2882 H2867 0.960 . S
C2882 H2868 0.960 . S
C2882 H2869 0.960 . S
C2882 C2881 1.524 . S
C2883 C2880 1.403 . S
C2883 C2884 1.392 . S
C2883 C2887 1.495 . S
C2884 C2883 1.392 . S
C2884 C2885 1.385 . S
C2884 C2886 1.478 . S
C2885 H2879 0.930 . S
C2885 C2881 1.400 . S
C2885 C2884 1.385 . S
C2886 C2884 1.478 . S
C2886 C2888 1.381 . S
C2886 C2892 1.383 . S
C2887 C2883 1.495 . S
C2887 H2893 0.959 . S
C2887 H2894 0.961 . S
C2887 H2895 0.960 . S
C2888 C2886 1.381 . S
C2888 C2889 1.394 . S
C2888 H2896 0.930 . S
C2889 C2888 1.394 . S
C2889 C2890 1.383 . S
C2889 H2897 0.929 . S
C2890 C2889 1.383 . S
C2890 C2891 1.377 . S
C2891 H2875 0.930 . S
C2891 C2890 1.377 . S
C2891 C2892 1.379 . S
C2892 H2876 0.931 . S
C2892 C2886 1.383 . S
C2892 C2891 1.379 . S
H2893 C2887 0.959 . S
H2894 C2887 0.961 . S
H2895 C2887 0.960 . S
H2896 C2888 0.930 . S
H2897 C2889 0.929 . S
H2898 C2906 0.929 . S
H2899 C2908 0.930 . S
H2900 C2910 0.930 . S
H2901 C2913 0.929 . S
H2902 C2916 0.930 . S
H2903 C2918 0.960 . S
H2904 C2918 0.960 . S
H2905 C2918 0.960 . S
C2906 H2898 0.929 . S
C2906 C2907 1.377 . S
C2906 C2908 1.384 . S
C2907 C2906 1.377 . S
C2907 C2913 1.390 . S
C2908 H2899 0.930 . S
C2908 C2906 1.384 . S
C2908 C2909 1.372 . S
C2909 C2908 1.372 . S
C2909 C2910 1.400 . S
C2909 C2914 1.490 . S
C2910 H2900 0.930 . S
C2910 C2909 1.400 . S
C2910 C2913 1.386 . S
H2911 C2927 0.930 . S
H2912 C2928 0.931 . S
C2913 H2901 0.929 . S
C2913 C2907 1.390 . S
C2913 C2910 1.386 . S
C2914 C2909 1.490 . S
C2914 C2916 1.395 . S
C2914 C2917 1.403 . S
H2915 C2921 0.930 . S
C2916 H2902 0.930 . S
C2916 C2914 1.395 . S
C2916 C2919 1.403 . S
C2917 C2914 1.403 . S
C2917 C2918 1.524 . S
C2917 C2921 1.400 . S
C2918 H2903 0.960 . S
C2918 H2904 0.960 . S
C2918 H2905 0.960 . S
C2918 C2917 1.524 . S
C2919 C2916 1.403 . S
C2919 C2920 1.392 . S
C2919 C2923 1.495 . S
C2920 C2919 1.392 . S
C2920 C2921 1.385 . S
C2920 C2922 1.478 . S
C2921 H2915 0.930 . S
C2921 C2917 1.400 . S
C2921 C2920 1.385 . S
C2922 C2920 1.478 . S
C2922 C2924 1.381 . S
C2922 C2928 1.383 . S
C2923 C2919 1.495 . S
C2923 H2929 0.959 . S
C2923 H2930 0.961 . S
C2923 H2931 0.960 . S
C2924 C2922 1.381 . S
C2924 C2925 1.394 . S
C2924 H2932 0.930 . S
C2925 C2924 1.394 . S
C2925 C2926 1.383 . S
C2925 H2933 0.929 . S
C2926 C2925 1.383 . S
C2926 C2927 1.377 . S
C2927 H2911 0.930 . S
C2927 C2926 1.377 . S
C2927 C2928 1.379 . S
C2928 H2912 0.931 . S
C2928 C2922 1.383 . S
C2928 C2927 1.379 . S
H2929 C2923 0.959 . S
H2930 C2923 0.961 . S
H2931 C2923 0.960 . S
H2932 C2924 0.930 . S
H2933 C2925 0.929 . S
H2934 C2942 0.929 1_545 S
H2935 C2944 0.930 . S
H2936 C2946 0.930 . S
H2937 C2949 0.929 . S
H2938 C2952 0.930 . S
H2939 C2954 0.960 . S
H2940 C2954 0.960 . S
H2941 C2954 0.960 . S
C2942 H2934 0.929 1_565 S
C2942 C2943 1.377 . S
C2942 C2944 1.384 . S
C2943 C2942 1.377 . S
C2943 C2949 1.390 . S
C2944 H2935 0.930 . S
C2944 C2942 1.384 . S
C2944 C2945 1.372 . S
C2945 C2944 1.372 . S
C2945 C2946 1.400 . S
C2945 C2950 1.490 . S
C2946 H2936 0.930 . S
C2946 C2945 1.400 . S
C2946 C2949 1.386 . S
H2947 C2963 0.930 . S
H2948 C2964 0.931 . S
C2949 H2937 0.929 . S
C2949 C2943 1.390 . S
C2949 C2946 1.386 . S
C2950 C2945 1.490 . S
C2950 C2952 1.395 . S
C2950 C2953 1.403 . S
H2951 C2957 0.930 . S
C2952 H2938 0.930 . S
C2952 C2950 1.395 . S
C2952 C2955 1.403 . S
C2953 C2950 1.403 . S
C2953 C2954 1.524 . S
C2953 C2957 1.400 . S
C2954 H2939 0.960 . S
C2954 H2940 0.960 . S
C2954 H2941 0.960 . S
C2954 C2953 1.524 . S
C2955 C2952 1.403 . S
C2955 C2956 1.392 . S
C2955 C2959 1.495 . S
C2956 C2955 1.392 . S
C2956 C2957 1.385 . S
C2956 C2958 1.478 . S
C2957 H2951 0.930 . S
C2957 C2953 1.400 . S
C2957 C2956 1.385 . S
C2958 C2956 1.478 . S
C2958 C2960 1.381 . S
C2958 C2964 1.383 . S
C2959 C2955 1.495 . S
C2959 H2965 0.959 . S
C2959 H2966 0.961 . S
C2959 H2967 0.960 . S
C2960 C2958 1.381 . S
C2960 C2961 1.394 . S
C2960 H2968 0.930 . S
C2961 C2960 1.394 . S
C2961 C2962 1.383 . S
C2961 H2969 0.929 . S
C2962 C2961 1.383 . S
C2962 C2963 1.377 . S
C2963 H2947 0.930 . S
C2963 C2962 1.377 . S
C2963 C2964 1.379 . S
C2964 H2948 0.931 . S
C2964 C2958 1.383 . S
C2964 C2963 1.379 . S
H2965 C2959 0.959 . S
H2966 C2959 0.961 . S
H2967 C2959 0.960 . S
H2968 C2960 0.930 . S
H2969 C2961 0.929 . S
H2970 C2978 0.929 . S
H2971 C2980 0.930 . S
H2972 C2982 0.930 . S
H2973 C2985 0.929 . S
H2974 C2988 0.930 . S
H2975 C2990 0.960 . S
H2976 C2990 0.960 . S
H2977 C2990 0.960 . S
C2978 H2970 0.929 . S
C2978 C2979 1.377 . S
C2978 C2980 1.384 . S
C2979 C2978 1.377 . S
C2979 C2985 1.390 . S
C2980 H2971 0.930 . S
C2980 C2978 1.384 . S
C2980 C2981 1.372 . S
C2981 C2980 1.372 . S
C2981 C2982 1.400 . S
C2981 C2986 1.490 . S
C2982 H2972 0.930 . S
C2982 C2981 1.400 . S
C2982 C2985 1.386 . S
H2983 C2999 0.930 . S
H2984 C3000 0.931 . S
C2985 H2973 0.929 . S
C2985 C2979 1.390 . S
C2985 C2982 1.386 . S
C2986 C2981 1.490 . S
C2986 C2988 1.395 . S
C2986 C2989 1.403 . S
H2987 C2993 0.930 . S
C2988 H2974 0.930 . S
C2988 C2986 1.395 . S
C2988 C2991 1.403 . S
C2989 C2986 1.403 . S
C2989 C2990 1.524 . S
C2989 C2993 1.400 . S
C2990 H2975 0.960 . S
C2990 H2976 0.960 . S
C2990 H2977 0.960 . S
C2990 C2989 1.524 . S
C2991 C2988 1.403 . S
C2991 C2992 1.392 . S
C2991 C2995 1.495 . S
C2992 C2991 1.392 . S
C2992 C2993 1.385 . S
C2992 C2994 1.478 . S
C2993 H2987 0.930 . S
C2993 C2989 1.400 . S
C2993 C2992 1.385 . S
C2994 C2992 1.478 . S
C2994 C2996 1.381 . S
C2994 C3000 1.383 . S
C2995 C2991 1.495 . S
C2995 H3001 0.959 . S
C2995 H3002 0.961 . S
C2995 H3003 0.960 . S
C2996 C2994 1.381 . S
C2996 C2997 1.394 . S
C2996 H3004 0.930 . S
C2997 C2996 1.394 . S
C2997 C2998 1.383 . S
C2997 H3005 0.929 . S
C2998 C2997 1.383 . S
C2998 C2999 1.377 . S
C2999 H2983 0.930 . S
C2999 C2998 1.377 . S
C2999 C3000 1.379 . S
C3000 H2984 0.931 . S
C3000 C2994 1.383 . S
C3000 C2999 1.379 . S
H3001 C2995 0.959 . S
H3002 C2995 0.961 . S
H3003 C2995 0.960 . S
H3004 C2996 0.930 . S
H3005 C2997 0.929 . S
H3006 C3014 0.929 . S
H3007 C3016 0.930 . S
H3008 C3018 0.930 . S
H3009 C3021 0.929 . S
H3010 C3024 0.930 . S
H3011 C3026 0.960 . S
H3012 C3026 0.960 . S
H3013 C3026 0.960 . S
C3014 H3006 0.929 . S
C3014 C3015 1.377 . S
C3014 C3016 1.384 . S
C3015 C3014 1.377 . S
C3015 C3021 1.390 . S
C3016 H3007 0.930 . S
C3016 C3014 1.384 . S
C3016 C3017 1.372 . S
C3017 C3016 1.372 . S
C3017 C3018 1.400 . S
C3017 C3022 1.490 . S
C3018 H3008 0.930 . S
C3018 C3017 1.400 . S
C3018 C3021 1.386 . S
H3019 C3035 0.930 . S
H3020 C3036 0.931 . S
C3021 H3009 0.929 . S
C3021 C3015 1.390 . S
C3021 C3018 1.386 . S
C3022 C3017 1.490 . S
C3022 C3024 1.395 . S
C3022 C3025 1.403 . S
H3023 C3029 0.930 . S
C3024 H3010 0.930 . S
C3024 C3022 1.395 . S
C3024 C3027 1.403 . S
C3025 C3022 1.403 . S
C3025 C3026 1.524 . S
C3025 C3029 1.400 . S
C3026 H3011 0.960 . S
C3026 H3012 0.960 . S
C3026 H3013 0.960 . S
C3026 C3025 1.524 . S
C3027 C3024 1.403 . S
C3027 C3028 1.392 . S
C3027 C3031 1.495 . S
C3028 C3027 1.392 . S
C3028 C3029 1.385 . S
C3028 C3030 1.478 . S
C3029 H3023 0.930 . S
C3029 C3025 1.400 . S
C3029 C3028 1.385 . S
C3030 C3028 1.478 . S
C3030 C3032 1.381 . S
C3030 C3036 1.383 . S
C3031 C3027 1.495 . S
C3031 H3037 0.959 . S
C3031 H3038 0.961 . S
C3031 H3039 0.960 . S
C3032 C3030 1.381 . S
C3032 C3033 1.394 . S
C3032 H3040 0.930 . S
C3033 C3032 1.394 . S
C3033 C3034 1.383 . S
C3033 H3041 0.929 . S
C3034 C3033 1.383 . S
C3034 C3035 1.377 . S
C3035 H3019 0.930 . S
C3035 C3034 1.377 . S
C3035 C3036 1.379 . S
C3036 H3020 0.931 . S
C3036 C3030 1.383 . S
C3036 C3035 1.379 . S
H3037 C3031 0.959 . S
H3038 C3031 0.961 . S
H3039 C3031 0.960 . S
H3040 C3032 0.930 . S
H3041 C3033 0.929 . S
H3042 C3050 0.929 . S
H3043 C3052 0.930 . S
H3044 C3054 0.930 . S
H3045 C3057 0.929 . S
H3046 C3060 0.930 . S
H3047 C3062 0.960 . S
H3048 C3062 0.960 . S
H3049 C3062 0.960 . S
C3050 H3042 0.929 . S
C3050 C3051 1.377 . S
C3050 C3052 1.384 . S
C3051 C3050 1.377 . S
C3051 C3057 1.390 . S
C3052 H3043 0.930 . S
C3052 C3050 1.384 . S
C3052 C3053 1.372 . S
C3053 C3052 1.372 . S
C3053 C3054 1.400 . S
C3053 C3058 1.490 . S
C3054 H3044 0.930 . S
C3054 C3053 1.400 . S
C3054 C3057 1.386 . S
H3055 C3071 0.930 . S
H3056 C3072 0.931 . S
C3057 H3045 0.929 . S
C3057 C3051 1.390 . S
C3057 C3054 1.386 . S
C3058 C3053 1.490 . S
C3058 C3060 1.395 . S
C3058 C3061 1.403 . S
H3059 C3065 0.930 . S
C3060 H3046 0.930 . S
C3060 C3058 1.395 . S
C3060 C3063 1.403 . S
C3061 C3058 1.403 . S
C3061 C3062 1.524 . S
C3061 C3065 1.400 . S
C3062 H3047 0.960 . S
C3062 H3048 0.960 . S
C3062 H3049 0.960 . S
C3062 C3061 1.524 . S
C3063 C3060 1.403 . S
C3063 C3064 1.392 . S
C3063 C3067 1.495 . S
C3064 C3063 1.392 . S
C3064 C3065 1.385 . S
C3064 C3066 1.478 . S
C3065 H3059 0.930 . S
C3065 C3061 1.400 . S
C3065 C3064 1.385 . S
C3066 C3064 1.478 . S
C3066 C3068 1.381 . S
C3066 C3072 1.383 . S
C3067 C3063 1.495 . S
C3067 H3073 0.959 . S
C3067 H3074 0.961 . S
C3067 H3075 0.960 . S
C3068 C3066 1.381 . S
C3068 C3069 1.394 . S
C3068 H3076 0.930 . S
C3069 C3068 1.394 . S
C3069 C3070 1.383 . S
C3069 H3077 0.929 . S
C3070 C3069 1.383 . S
C3070 C3071 1.377 . S
C3071 H3055 0.930 . S
C3071 C3070 1.377 . S
C3071 C3072 1.379 . S
C3072 H3056 0.931 . S
C3072 C3066 1.383 . S
C3072 C3071 1.379 . S
H3073 C3067 0.959 . S
H3074 C3067 0.961 . S
H3075 C3067 0.960 . S
H3076 C3068 0.930 . S
H3077 C3069 0.929 . S
C495 C34 1.189 . S
C514 C238 1.085 . S
C531 C8 1.183 . S
C550 C254 1.036 . S
C586 C237 1.077 . S
C567 C18 1.170 . S
C622 C262 1.064 . S
C603 C31 1.165 . S
C639 C5 1.202 . S
C658 C271 1.132 . S
C694 C274 1.130 . S
C675 C21 1.182 . S
C711 C73 1.189 . S
C730 C280 1.029 . S
C766 C296 1.022 . S
C747 C47 1.182 . S
C802 C279 1.112 . S
C783 C57 1.164 . S
C819 C70 1.162 . S
C838 C304 1.047 . S
C874 C313 1.148 . S
C855 C44 1.195 . S
C910 C316 1.037 . S
C891 C60 1.191 . S
C946 C325 1.047 . S
C927 C112 1.188 . S
C982 C337 1.130 . S
C963 C86 1.177 . S
C1018 C334 1.126 . S
C999 C96 1.179 . S
C1035 C109 1.165 . S
C1054 C343 1.060 . S
C1090 C342 1.035 . S
C1071 C83 1.193 . S
C1107 C99 1.189 . S
C1126 C359 1.031 . S
C1162 C364 1.018 . S
C1143 C151 1.189 . S
C1198 C380 1.131 . S
C1179 C125 1.171 . S
C1215 C135 1.175 . S
C1234 C363 1.082 . S
C1270 C388 1.089 . S
C1251 C148 1.159 . S
C1306 C397 1.150 . S
C1287 C122 1.192 . S
C1323 C138 1.180 . S
C1342 C400 1.089 . S
C1359 C190 1.176 . S
C1378 C409 1.017 . S
C1414 C421 1.131 . S
C1395 C164 1.178 . S
C1450 C418 1.125 . S
C1431 C174 1.177 . S
C1467 C187 1.162 . S
C1486 C427 0.996 . S
C1522 C426 1.064 . S
C1503 C161 1.193 . S
C1539 C177 1.186 . S
C1558 C443 1.136 . S
C1594 C448 1.129 . S
C1575 C229 1.174 . S
C1630 C464 1.132 . S
C1611 C203 1.171 . S
C1647 C213 1.176 . S
C1666 C447 1.070 . S
C1702 C469 1.100 . S
C1683 C226 1.159 . S
C1738 C468 1.035 . S
C1719 C200 1.206 . S
C1774 C485 1.060 . S
C1755 C216 1.189 . S
C1810 C250 1.347 . S
C1791 C143 1.408 . S
C1827 C117 1.438 . S
C1846 C253 1.337 . S
C1882 C241 1.263 . S
C1863 C140 1.381 . S
C1899 C231 1.429 . S
C1918 C258 1.313 . S
C1935 C205 1.452 . S
C1954 C259 1.352 . S
C1990 C275 1.346 1_565 S
C1971 C208 1.451 . S
C2026 C292 1.335 1_565 S
C2007 C182 1.407 . S
C2062 C295 1.384 . S
C2043 C156 1.438 . S
C2079 C179 1.381 . S
C2098 C283 1.265 . S
C2134 C300 1.313 1_655 S
C2115 C114 1.433 . S
C2151 C88 1.455 . S
C2170 C301 1.326 . S
C2187 C91 1.447 . S
C2206 C317 1.391 . S
C2223 C221 1.406 1_655 S
C2242 C321 1.373 . S
C2259 C195 1.439 . S
C2278 C338 1.334 . S
C2314 C322 1.302 . S
C2295 C218 1.382 . S
C2350 C355 1.384 . S
C2331 C75 1.433 . S
C2386 C346 1.382 . S
C2367 C49 1.454 . S
C2403 C52 1.445 . S
C2422 C358 1.409 . S
C2458 C376 1.367 . S
C2439 C26 1.413 . S
C2494 C379 1.325 . S
C2475 C0 1.434 . S
C2511 C23 1.380 . S
C2530 C367 1.273 . S
C2566 C384 1.382 . S
C2547 C192 1.430 . S
C2602 C385 1.337 . S
C2583 C166 1.452 1_655 S
C2638 C401 1.394 . S
C2619 C169 1.448 . S
C2674 C405 1.318 . S
C2655 C65 1.412 . S
C2710 C422 1.327 . S
C2691 C39 1.441 . S
C2727 C62 1.381 . S
C2746 C406 1.270 . S
C2763 C153 1.433 1_565 S
C2782 C439 1.384 . S
C2799 C127 1.454 . S
C2818 C430 1.392 . S
C2854 C442 1.411 . S
C2835 C130 1.445 . S
C2871 C104 1.411 . S
C2890 C460 1.332 . S
C2907 C78 1.436 . S
C2926 C463 1.326 . S
C2962 C451 1.281 . S
C2943 C101 1.380 1_565 S
C2998 C481 1.372 . S
C2979 C36 1.431 . S
C3034 C472 1.389 . S
C3015 C10 1.451 . S
C3051 C13 1.452 . S
C3070 C484 1.413 . S
