# Generated by pormake.
# Topology myd, (4,6)-cn, num edge types: 1
# Building blocks:
#     Node 0, Type 0, BuildingBlock: NAWXER_clean_sbu_0, # of connection points: 4
#     Node 1, Type 0, BuildingBlock: NAWXER_clean_sbu_0, # of connection points: 4
#     Node 2, Type 0, BuildingBlock: NAWXER_clean_sbu_0, # of connection points: 4
#     Node 3, Type 0, BuildingBlock: NAWXER_clean_sbu_0, # of connection points: 4
#     Node 4, Type 0, BuildingBlock: NAWXER_clean_sbu_0, # of connection points: 4
#     Node 5, Type 0, BuildingBlock: NAWXER_clean_sbu_0, # of connection points: 4
#     Node 6, Type 0, BuildingBlock: NAWXER_clean_sbu_0, # of connection points: 4
#     Node 7, Type 0, BuildingBlock: NAWXER_clean_sbu_0, # of connection points: 4
#     Node 8, Type 0, BuildingBlock: NAWXER_clean_sbu_0, # of connection points: 4
#     Node 9, Type 0, BuildingBlock: NAWXER_clean_sbu_0, # of connection points: 4
#     Node 10, Type 0, BuildingBlock: NAWXER_clean_sbu_0, # of connection points: 4
#     Node 11, Type 0, BuildingBlock: NAWXER_clean_sbu_0, # of connection points: 4
#     Node 12, Type 1, BuildingBlock: MIDCAF_clean_sbu_0, # of connection points: 6
#     Node 13, Type 1, BuildingBlock: MIDCAF_clean_sbu_0, # of connection points: 6
#     Node 14, Type 1, BuildingBlock: MIDCAF_clean_sbu_0, # of connection points: 6
#     Node 15, Type 1, BuildingBlock: MIDCAF_clean_sbu_0, # of connection points: 6
#     Node 16, Type 1, BuildingBlock: MIDCAF_clean_sbu_0, # of connection points: 6
#     Node 17, Type 1, BuildingBlock: MIDCAF_clean_sbu_0, # of connection points: 6
#     Node 18, Type 1, BuildingBlock: MIDCAF_clean_sbu_0, # of connection points: 6
#     Node 19, Type 1, BuildingBlock: MIDCAF_clean_sbu_0, # of connection points: 6
#     Edge 20, Type (0, 1), BuildingBlock: OJICUG_clean_linker_0, # of connection points: 2
#     Edge 21, Type (0, 1), BuildingBlock: OJICUG_clean_linker_0, # of connection points: 2
#     Edge 22, Type (0, 1), BuildingBlock: OJICUG_clean_linker_0, # of connection points: 2
#     Edge 23, Type (0, 1), BuildingBlock: OJICUG_clean_linker_0, # of connection points: 2
#     Edge 24, Type (0, 1), BuildingBlock: OJICUG_clean_linker_0, # of connection points: 2
#     Edge 25, Type (0, 1), BuildingBlock: OJICUG_clean_linker_0, # of connection points: 2
#     Edge 26, Type (0, 1), BuildingBlock: OJICUG_clean_linker_0, # of connection points: 2
#     Edge 27, Type (0, 1), BuildingBlock: OJICUG_clean_linker_0, # of connection points: 2
#     Edge 28, Type (0, 1), BuildingBlock: OJICUG_clean_linker_0, # of connection points: 2
#     Edge 29, Type (0, 1), BuildingBlock: OJICUG_clean_linker_0, # of connection points: 2
#     Edge 30, Type (0, 1), BuildingBlock: OJICUG_clean_linker_0, # of connection points: 2
#     Edge 31, Type (0, 1), BuildingBlock: OJICUG_clean_linker_0, # of connection points: 2
#     Edge 32, Type (0, 1), BuildingBlock: OJICUG_clean_linker_0, # of connection points: 2
#     Edge 33, Type (0, 1), BuildingBlock: OJICUG_clean_linker_0, # of connection points: 2
#     Edge 34, Type (0, 1), BuildingBlock: OJICUG_clean_linker_0, # of connection points: 2
#     Edge 35, Type (0, 1), BuildingBlock: OJICUG_clean_linker_0, # of connection points: 2
#     Edge 36, Type (0, 1), BuildingBlock: OJICUG_clean_linker_0, # of connection points: 2
#     Edge 37, Type (0, 1), BuildingBlock: OJICUG_clean_linker_0, # of connection points: 2
#     Edge 38, Type (0, 1), BuildingBlock: OJICUG_clean_linker_0, # of connection points: 2
#     Edge 39, Type (0, 1), BuildingBlock: OJICUG_clean_linker_0, # of connection points: 2
#     Edge 40, Type (0, 1), BuildingBlock: OJICUG_clean_linker_0, # of connection points: 2
#     Edge 41, Type (0, 1), BuildingBlock: OJICUG_clean_linker_0, # of connection points: 2
#     Edge 42, Type (0, 1), BuildingBlock: OJICUG_clean_linker_0, # of connection points: 2
#     Edge 43, Type (0, 1), BuildingBlock: OJICUG_clean_linker_0, # of connection points: 2
#     Edge 44, Type (0, 1), BuildingBlock: OJICUG_clean_linker_0, # of connection points: 2
#     Edge 45, Type (0, 1), BuildingBlock: OJICUG_clean_linker_0, # of connection points: 2
#     Edge 46, Type (0, 1), BuildingBlock: OJICUG_clean_linker_0, # of connection points: 2
#     Edge 47, Type (0, 1), BuildingBlock: OJICUG_clean_linker_0, # of connection points: 2
#     Edge 48, Type (0, 1), BuildingBlock: OJICUG_clean_linker_0, # of connection points: 2
#     Edge 49, Type (0, 1), BuildingBlock: OJICUG_clean_linker_0, # of connection points: 2
#     Edge 50, Type (0, 1), BuildingBlock: OJICUG_clean_linker_0, # of connection points: 2
#     Edge 51, Type (0, 1), BuildingBlock: OJICUG_clean_linker_0, # of connection points: 2
#     Edge 52, Type (0, 1), BuildingBlock: OJICUG_clean_linker_0, # of connection points: 2
#     Edge 53, Type (0, 1), BuildingBlock: OJICUG_clean_linker_0, # of connection points: 2
#     Edge 54, Type (0, 1), BuildingBlock: OJICUG_clean_linker_0, # of connection points: 2
#     Edge 55, Type (0, 1), BuildingBlock: OJICUG_clean_linker_0, # of connection points: 2
#     Edge 56, Type (0, 1), BuildingBlock: OJICUG_clean_linker_0, # of connection points: 2
#     Edge 57, Type (0, 1), BuildingBlock: OJICUG_clean_linker_0, # of connection points: 2
#     Edge 58, Type (0, 1), BuildingBlock: OJICUG_clean_linker_0, # of connection points: 2
#     Edge 59, Type (0, 1), BuildingBlock: OJICUG_clean_linker_0, # of connection points: 2
#     Edge 60, Type (0, 1), BuildingBlock: OJICUG_clean_linker_0, # of connection points: 2
#     Edge 61, Type (0, 1), BuildingBlock: OJICUG_clean_linker_0, # of connection points: 2
#     Edge 62, Type (0, 1), BuildingBlock: OJICUG_clean_linker_0, # of connection points: 2
#     Edge 63, Type (0, 1), BuildingBlock: OJICUG_clean_linker_0, # of connection points: 2
#     Edge 64, Type (0, 1), BuildingBlock: OJICUG_clean_linker_0, # of connection points: 2
#     Edge 65, Type (0, 1), BuildingBlock: OJICUG_clean_linker_0, # of connection points: 2
#     Edge 66, Type (0, 1), BuildingBlock: OJICUG_clean_linker_0, # of connection points: 2
#     Edge 67, Type (0, 1), BuildingBlock: OJICUG_clean_linker_0, # of connection points: 2
# Relax obj value: 0.163
# Max RMSD: 0.104
# Mean RMSD: 0.094
data_MOF--net-myd--node1-NAWXER_clean_sbu_0--node2-MIDCAF_clean_sbu_0--edge1-OJICUG_clean_linker_0
_symmetry_space_group_name_H-M    P1
_symmetry_Int_Tables_number       1
_symmetry_cell_setting            triclinic
loop_
_symmetry_equiv_pos_as_xyz
'x, y, z'
_cell_length_a     32.891445
_cell_length_b     32.899629
_cell_length_c     32.840336
_cell_angle_alpha  90.070752
_cell_angle_beta   90.09733
_cell_angle_gamma 90.098191
loop_
_atom_site_label
_atom_site_type_symbol
_atom_site_fract_x
_atom_site_fract_y
_atom_site_fract_z
_atom_type_partial_charge
C0 C 0.96752 0.20878 0.23431 0.0
C1 C 0.97939 0.31389 0.3391 0.0
O2 O 0.00409 0.21552 0.24594 0.0
Zn3 Zn 0.03676 0.25374 0.28708 0.0
O4 O 0.93822 0.22869 0.24972 0.0
Zn5 Zn 0.97169 0.26089 0.28701 0.0
O6 O 0.00434 0.29914 0.24607 0.0
O7 O 0.0702 0.28592 0.24998 0.0
O8 O 0.94677 0.30057 0.32301 0.0
O9 O 0.01365 0.29869 0.32834 0.0
O10 O 0.06173 0.21398 0.3229 0.0
O11 O 0.99485 0.21583 0.32808 0.0
C12 C 0.04091 0.30585 0.23456 0.0
C13 C 0.02912 0.20059 0.33881 0.0
C14 C 0.96733 0.80512 0.27844 0.0
C15 C 0.97988 0.69985 0.17393 0.0
O16 O 0.00394 0.79859 0.26705 0.0
Zn17 Zn 0.03687 0.76052 0.22619 0.0
O18 O 0.93813 0.78501 0.26289 0.0
Zn19 Zn 0.97178 0.75292 0.22587 0.0
O20 O 0.00442 0.71495 0.26704 0.0
O21 O 0.07025 0.72856 0.26362 0.0
O22 O 0.94715 0.71298 0.18976 0.0
O23 O 0.01403 0.71532 0.18489 0.0
O24 O 0.06171 0.80046 0.19033 0.0
O25 O 0.99486 0.79801 0.18485 0.0
C26 C 0.04095 0.70845 0.27884 0.0
C27 C 0.02905 0.81352 0.17422 0.0
C28 C 0.33767 0.03088 0.19923 0.0
C29 C 0.23354 0.04317 0.30465 0.0
O30 O 0.32671 0.99666 0.21444 0.0
Zn31 Zn 0.2856 0.97371 0.25959 0.0
O32 O 0.32201 0.06355 0.21272 0.0
Zn33 Zn 0.28601 0.03879 0.25252 0.0
O34 O 0.32688 0.01541 0.29774 0.0
O35 O 0.32147 0.94856 0.2994 0.0
O36 O 0.2491 0.0724 0.28472 0.0
O37 O 0.24487 0.00656 0.29791 0.0
O38 O 0.24802 0.94058 0.22734 0.0
O39 O 0.24466 0.00646 0.21425 0.0
C40 C 0.3375 0.98111 0.31296 0.0
C41 C 0.23277 0.97 0.20748 0.0
C42 C 0.77684 0.54287 0.20704 0.0
C43 C 0.67273 0.53101 0.31246 0.0
O44 O 0.76523 0.50631 0.21367 0.0
Zn45 Zn 0.72429 0.47365 0.25189 0.0
O46 O 0.76154 0.57215 0.22709 0.0
Zn47 Zn 0.7244 0.53872 0.25925 0.0
O48 O 0.76538 0.50608 0.29743 0.0
O49 O 0.76143 0.44022 0.28407 0.0
O50 O 0.6887 0.56363 0.29918 0.0
O51 O 0.68337 0.49677 0.29708 0.0
O52 O 0.68822 0.44873 0.21208 0.0
O53 O 0.6831 0.51559 0.21421 0.0
C54 C 0.77689 0.46953 0.30409 0.0
C55 C 0.67222 0.48135 0.19888 0.0
C56 C 0.19738 0.33851 0.03067 0.0
C57 C 0.30263 0.23419 0.04244 0.0
O58 O 0.2126 0.32768 0.99638 0.0
Zn59 Zn 0.25751 0.28655 0.97319 0.0
O60 O 0.21067 0.32255 0.06336 0.0
Zn61 Zn 0.2504 0.28662 0.0384 0.0
O62 O 0.29535 0.32775 0.01518 0.0
O63 O 0.29726 0.32248 0.9482 0.0
O64 O 0.28273 0.24955 0.07182 0.0
O65 O 0.29583 0.24571 0.00584 0.0
O66 O 0.2252 0.24931 0.93977 0.0
O67 O 0.21212 0.24557 0.00576 0.0
C68 C 0.31058 0.33851 0.98089 0.0
C69 C 0.20532 0.23394 0.96916 0.0
C70 C 0.20427 0.77708 0.53895 0.0
C71 C 0.31386 0.6778 0.52557 0.0
O72 O 0.21042 0.76536 0.50226 0.0
Zn73 Zn 0.24989 0.72561 0.46892 0.0
O74 O 0.2257 0.76302 0.56795 0.0
Zn75 Zn 0.25843 0.72733 0.53371 0.0
O76 O 0.29178 0.77142 0.49965 0.0
O77 O 0.27851 0.76414 0.43395 0.0
O78 O 0.30068 0.69407 0.55808 0.0
O79 O 0.29738 0.68708 0.49138 0.0
O80 O 0.211 0.68801 0.44527 0.0
O81 O 0.21407 0.68426 0.51231 0.0
C82 C 0.29679 0.78261 0.46266 0.0
C83 C 0.19852 0.67245 0.47842 0.0
C84 C 0.69789 0.83982 0.53219 0.0
C85 C 0.80326 0.73554 0.54361 0.0
O86 O 0.71313 0.82909 0.49787 0.0
Zn87 Zn 0.75828 0.78828 0.47458 0.0
O88 O 0.71141 0.82403 0.56485 0.0
Zn89 Zn 0.75122 0.78819 0.53978 0.0
O90 O 0.79633 0.8293 0.51673 0.0
O91 O 0.79802 0.82428 0.44973 0.0
O92 O 0.78344 0.75087 0.57306 0.0
O93 O 0.79648 0.74723 0.50706 0.0
O94 O 0.72611 0.7511 0.44099 0.0
O95 O 0.71295 0.74717 0.50696 0.0
C96 C 0.81152 0.84012 0.48243 0.0
C97 C 0.70621 0.73563 0.47031 0.0
C98 C 0.54661 0.79835 0.7301 0.0
C99 C 0.53152 0.70027 0.84049 0.0
O100 O 0.50973 0.79322 0.74147 0.0
Zn101 Zn 0.47599 0.75984 0.78584 0.0
O102 O 0.57537 0.78025 0.74849 0.0
Zn103 Zn 0.54068 0.75159 0.78724 0.0
O104 O 0.50722 0.71198 0.74748 0.0
O105 O 0.44162 0.72693 0.75025 0.0
O106 O 0.56451 0.71285 0.82474 0.0
O107 O 0.4976 0.71565 0.82885 0.0
O108 O 0.45179 0.80202 0.81929 0.0
O109 O 0.51842 0.79908 0.82597 0.0
C110 C 0.47052 0.70565 0.73593 0.0
C111 C 0.48431 0.8154 0.83543 0.0
C112 C 0.53936 0.20847 0.77698 0.0
C113 C 0.52734 0.31354 0.67238 0.0
O114 O 0.50278 0.21504 0.76535 0.0
Zn115 Zn 0.47004 0.2531 0.72422 0.0
O116 O 0.56864 0.22848 0.76158 0.0
Zn117 Zn 0.53513 0.26042 0.7243 0.0
O118 O 0.50259 0.29853 0.7654 0.0
O119 O 0.43671 0.28522 0.76157 0.0
O120 O 0.55996 0.30019 0.68832 0.0
O121 O 0.49308 0.29824 0.68311 0.0
O122 O 0.4451 0.21305 0.68831 0.0
O123 O 0.51198 0.21504 0.68341 0.0
C124 C 0.46607 0.30518 0.77703 0.0
C125 C 0.47776 0.19959 0.67262 0.0
C126 C 0.73197 0.46995 0.7076 0.0
C127 C 0.8365 0.48221 0.81307 0.0
O128 O 0.74344 0.50655 0.71437 0.0
Zn129 Zn 0.78435 0.53937 0.75273 0.0
O130 O 0.74747 0.44072 0.72756 0.0
Zn131 Zn 0.78453 0.47429 0.75993 0.0
O132 O 0.7435 0.50674 0.79818 0.0
O133 O 0.74709 0.5726 0.78495 0.0
O134 O 0.82055 0.44953 0.79975 0.0
O135 O 0.82562 0.51641 0.79783 0.0
O136 O 0.82016 0.56444 0.71294 0.0
O137 O 0.82556 0.49761 0.71495 0.0
C138 C 0.73181 0.54323 0.80489 0.0
C139 C 0.83624 0.53188 0.69968 0.0
C140 C 0.2811 0.0461 0.71535 0.0
C141 C 0.17024 0.03215 0.81308 0.0
O142 O 0.26936 0.00933 0.72048 0.0
Zn143 Zn 0.22453 0.97602 0.75371 0.0
O144 O 0.26293 0.07505 0.73334 0.0
Zn145 Zn 0.22382 0.04075 0.76199 0.0
O146 O 0.26302 0.00713 0.80176 0.0
O147 O 0.25956 0.9415 0.78684 0.0
O148 O 0.18644 0.06496 0.80059 0.0
O149 O 0.18157 0.9981 0.79774 0.0
O150 O 0.19109 0.95199 0.71121 0.0
O151 O 0.18514 0.01866 0.7143 0.0
C152 C 0.27413 0.97037 0.80816 0.0
C153 C 0.17538 0.98462 0.69782 0.0
C154 C 0.69778 0.17497 0.98122 0.0
C155 C 0.80338 0.27895 0.96917 0.0
O156 O 0.71319 0.18578 0.0155 0.0
Zn157 Zn 0.75844 0.22678 0.03861 0.0
O158 O 0.71111 0.19074 0.94849 0.0
Zn159 Zn 0.75109 0.22655 0.9734 0.0
O160 O 0.79594 0.18537 0.99668 0.0
O161 O 0.7981 0.19084 0.06365 0.0
O162 O 0.78333 0.26349 0.93985 0.0
O163 O 0.79671 0.26755 0.00581 0.0
O164 O 0.72638 0.26409 0.07197 0.0
O165 O 0.71305 0.26766 0.00599 0.0
C166 C 0.81123 0.17468 0.03101 0.0
C167 C 0.70641 0.27936 0.04256 0.0
Zn168 Zn 0.08111 0.08414 0.08379 0.0
Zn169 Zn 0.9967 0.9997 0.99998 0.0
Zn170 Zn 0.04182 0.04471 0.04471 0.0
C171 C 0.06085 0.02652 0.95083 0.0
C172 C 0.02395 0.95122 0.06469 0.0
O173 O 0.00297 0.08649 0.08175 0.0
O174 O 0.04615 0.08724 0.13288 0.0
C175 C 0.09158 0.11907 0.01335 0.0
O176 O 0.06648 0.04966 0.98204 0.0
O177 O 0.03384 0.99916 0.95188 0.0
O178 O 0.99655 0.95205 0.03768 0.0
O179 O 0.04712 0.98242 0.07003 0.0
O180 O 0.08384 0.13285 0.04831 0.0
O181 O 0.08339 0.08152 0.00544 0.0
O182 O 0.07906 0.00591 0.08646 0.0
O183 O 0.13007 0.04912 0.08674 0.0
C184 C 0.11657 0.01413 0.09459 0.0
O185 O 0.97945 0.06988 0.04997 0.0
O186 O 0.94893 0.0372 0.99967 0.0
C187 C 0.01115 0.0949 0.11926 0.0
C188 C 0.94818 0.06438 0.02689 0.0
Zn189 Zn 0.01181 0.51347 0.99932 0.0
Zn190 Zn 0.92765 0.42946 0.08312 0.0
Zn191 Zn 0.96686 0.46863 0.04413 0.0
C192 C 0.89225 0.49945 0.0936 0.0
C193 C 0.91724 0.39403 0.01294 0.0
O194 O 0.02917 0.44338 0.04941 0.0
O195 O 0.05942 0.4757 0.9989 0.0
C196 C 0.98497 0.5621 0.06414 0.0
O197 O 0.92982 0.50754 0.08581 0.0
O198 O 0.87866 0.46452 0.08547 0.0
O199 O 0.9252 0.38043 0.04791 0.0
O200 O 0.92519 0.43159 0.00497 0.0
O201 O 0.01233 0.56116 0.03717 0.0
O202 O 0.96173 0.53097 0.06939 0.0
O203 O 0.94163 0.46348 0.98163 0.0
O204 O 0.97405 0.51398 0.95149 0.0
C205 C 0.94697 0.48669 0.9505 0.0
O206 O 0.00574 0.42703 0.08131 0.0
O207 O 0.96265 0.42704 0.13235 0.0
C208 C 0.0603 0.44867 0.02621 0.0
C209 C 0.9976 0.41911 0.11888 0.0
Zn210 Zn 0.99909 0.01371 0.51261 0.0
Zn211 Zn 0.08123 0.93019 0.42732 0.0
Zn212 Zn 0.04311 0.96914 0.46733 0.0
C213 C 0.09178 0.894 0.49726 0.0
C214 C 0.01092 0.92005 0.39264 0.0
O215 O 0.04828 0.03148 0.44225 0.0
O216 O 0.99772 0.06126 0.4748 0.0
C217 C 0.06493 0.98761 0.56025 0.0
O218 O 0.08472 0.9316 0.5058 0.0
O219 O 0.08319 0.88096 0.46218 0.0
O220 O 0.04552 0.92847 0.37851 0.0
O221 O 0.00356 0.92761 0.43047 0.0
O222 O 0.03789 0.01485 0.55954 0.0
O223 O 0.0695 0.96394 0.52931 0.0
O224 O 0.98057 0.94409 0.46272 0.0
O225 O 0.95141 0.97593 0.51417 0.0
C226 C 0.94989 0.94918 0.48655 0.0
O227 O 0.08003 0.00818 0.42557 0.0
O228 O 0.13067 0.96474 0.4249 0.0
C229 C 0.02494 0.06243 0.44771 0.0
C230 C 0.11744 0.99986 0.41737 0.0
Zn231 Zn 0.92667 0.58415 0.42911 0.0
Zn232 Zn 0.01072 0.50048 0.51365 0.0
Zn233 Zn 0.96592 0.54515 0.46853 0.0
C234 C 0.98371 0.45149 0.4491 0.0
C235 C 0.05981 0.56435 0.4863 0.0
O236 O 0.92432 0.58237 0.50751 0.0
O237 O 0.92354 0.63319 0.46416 0.0
C238 C 0.89148 0.51389 0.41835 0.0
O239 O 0.96067 0.48264 0.4435 0.0
O240 O 0.01093 0.45249 0.4763 0.0
O241 O 0.05883 0.53762 0.51389 0.0
O242 O 0.02853 0.56981 0.46327 0.0
O243 O 0.87779 0.54883 0.42598 0.0
O244 O 0.92895 0.50598 0.42678 0.0
O245 O 0.00501 0.58677 0.43154 0.0
O246 O 0.962 0.58708 0.38028 0.0
C247 C 0.99695 0.59494 0.39398 0.0
O248 O 0.94075 0.55056 0.53097 0.0
O249 O 0.97328 0.50039 0.56148 0.0
C250 C 0.91597 0.61977 0.49927 0.0
C251 C 0.9462 0.52758 0.56226 0.0
Zn252 Zn 0.42 0.92033 0.59019 0.0
Zn253 Zn 0.51019 0.01156 0.50086 0.0
Zn254 Zn 0.46452 0.96568 0.5463 0.0
C255 C 0.44689 0.98465 0.45133 0.0
C256 C 0.48273 0.06041 0.56452 0.0
O257 O 0.5048 0.92245 0.58053 0.0
O258 O 0.46052 0.88362 0.61305 0.0
C259 C 0.39199 0.9067 0.51322 0.0
O260 O 0.44122 0.96154 0.48255 0.0
O261 O 0.47369 0.01217 0.45256 0.0
O262 O 0.51031 0.05945 0.53782 0.0
O263 O 0.45977 0.02905 0.57005 0.0
O264 O 0.38343 0.89746 0.54939 0.0
O265 O 0.42142 0.93152 0.50554 0.0
O266 O 0.4302 0.00541 0.58993 0.0
O267 O 0.39686 0.96044 0.62725 0.0
C268 C 0.40559 0.99683 0.61928 0.0
O269 O 0.5281 0.94252 0.55084 0.0
O270 O 0.55835 0.97511 0.50043 0.0
C271 C 0.49677 0.89259 0.60471 0.0
C272 C 0.55942 0.94832 0.52791 0.0
Zn273 Zn 0.49808 0.50082 0.49859 0.0
Zn274 Zn 0.5826 0.58341 0.58294 0.0
Zn275 Zn 0.54306 0.54503 0.54355 0.0
C276 C 0.61739 0.51327 0.59304 0.0
C277 C 0.59306 0.61952 0.51327 0.0
O278 O 0.48115 0.57136 0.54822 0.0
O279 O 0.45134 0.53964 0.4969 0.0
C280 C 0.52363 0.45187 0.56345 0.0
O281 O 0.57969 0.50565 0.58527 0.0
O282 O 0.63139 0.54799 0.58483 0.0
O283 O 0.58512 0.63281 0.54838 0.0
O284 O 0.58506 0.58204 0.50486 0.0
O285 O 0.49614 0.45331 0.53655 0.0
O286 O 0.5475 0.48256 0.56863 0.0
O287 O 0.56854 0.5502 0.48133 0.0
O288 O 0.53634 0.49936 0.45133 0.0
C289 C 0.56336 0.5267 0.45033 0.0
O290 O 0.50432 0.58644 0.58093 0.0
O291 O 0.54747 0.58512 0.63202 0.0
C292 C 0.45047 0.56678 0.52416 0.0
C293 C 0.51253 0.59351 0.6187 0.0
Zn294 Zn 0.49715 0.51273 0.01282 0.0
Zn295 Zn 0.5809 0.4287 0.92842 0.0
Zn296 Zn 0.54191 0.46798 0.96775 0.0
C297 C 0.59198 0.39352 0.99858 0.0
C298 C 0.5107 0.41809 0.89296 0.0
O299 O 0.54721 0.53059 0.94316 0.0
O300 O 0.4969 0.56082 0.97572 0.0
C301 C 0.56176 0.48568 0.06153 0.0
O302 O 0.58372 0.43099 0.00665 0.0
O303 O 0.58401 0.3798 0.96361 0.0
O304 O 0.54571 0.42565 0.87938 0.0
O305 O 0.50269 0.42641 0.93049 0.0
O306 O 0.53469 0.51289 0.06073 0.0
O307 O 0.56714 0.46266 0.03022 0.0
O308 O 0.47943 0.44286 0.96247 0.0
O309 O 0.44925 0.47532 0.01295 0.0
C310 C 0.44828 0.44828 0.98559 0.0
O311 O 0.57884 0.50712 0.92617 0.0
O312 O 0.62977 0.46399 0.92551 0.0
C313 C 0.52429 0.56183 0.9488 0.0
C314 C 0.61628 0.499 0.9179 0.0
Zn315 Zn 0.51139 1.00069 0.01213 0.0
Zn316 Zn 0.42713 0.08422 0.92887 0.0
Zn317 Zn 0.46655 0.04527 0.96767 0.0
C318 C 0.49672 0.0949 0.89284 0.0
C319 C 0.39153 0.01379 0.91942 0.0
O320 O 0.44154 0.0502 0.03016 0.0
O321 O 0.47344 0.99907 0.05966 0.0
C322 C 0.55961 0.06588 0.98591 0.0
O323 O 0.50508 0.0872 0.93043 0.0
O324 O 0.46175 0.08655 0.87945 0.0
O325 O 0.37821 0.04881 0.92734 0.0
O326 O 0.42925 0.00586 0.92658 0.0
O327 O 0.55856 0.03906 0.01342 0.0
O328 O 0.52867 0.07086 0.96234 0.0
O329 O 0.46199 0.98308 0.94165 0.0
O330 O 0.51319 0.95361 0.97358 0.0
C331 C 0.48597 0.95249 0.94639 0.0
O332 O 0.42483 0.08209 0.00687 0.0
O333 O 0.42499 0.13331 0.96403 0.0
C334 C 0.44666 0.02655 0.06098 0.0
C335 C 0.41691 0.11964 0.99893 0.0
C336 C 0.06508 0.14383 0.3759 0.0
C337 C 0.02964 0.16655 0.36838 0.0
H338 H 0.09164 0.09349 0.40783 0.0
C339 C 0.99351 0.15547 0.38833 0.0
H340 H 0.09347 0.15169 0.36119 0.0
C341 C 0.99252 0.1221 0.41442 0.0
C342 C 0.02752 0.09865 0.42111 0.0
H343 H 0.96566 0.17232 0.3835 0.0
H344 H 0.96393 0.11416 0.42872 0.0
C345 C 0.06397 0.11016 0.40208 0.0
C346 C 0.9434 0.37026 0.37682 0.0
C347 C 0.97891 0.34777 0.36895 0.0
H348 H 0.91681 0.42023 0.40936 0.0
C349 C 0.0151 0.35889 0.3889 0.0
H350 H 0.91495 0.36235 0.36215 0.0
C351 C 0.01611 0.39209 0.41529 0.0
C352 C 0.98105 0.41533 0.42232 0.0
H353 H 0.04301 0.34222 0.38381 0.0
H354 H 0.04476 0.40009 0.42955 0.0
C355 C 0.94452 0.40375 0.40333 0.0
C356 C 0.06476 0.87025 0.13668 0.0
C357 C 0.02937 0.84746 0.14451 0.0
H358 H 0.09106 0.92047 0.10427 0.0
C359 C 0.99308 0.85836 0.1247 0.0
H360 H 0.09327 0.86254 0.15125 0.0
C361 C 0.99187 0.8916 0.09846 0.0
C362 C 0.02681 0.91512 0.09144 0.0
H363 H 0.96525 0.84147 0.12976 0.0
H364 H 0.96315 0.89939 0.0843 0.0
C365 C 0.06344 0.90379 0.11031 0.0
C366 C 0.01597 0.65487 0.1246 0.0
C367 C 0.97963 0.66588 0.14417 0.0
H368 H 0.04591 0.61373 0.08428 0.0
C369 C 0.9442 0.64321 0.13601 0.0
H370 H 0.04383 0.67168 0.12992 0.0
C371 C 0.94551 0.60968 0.10956 0.0
C372 C 0.98217 0.59823 0.09093 0.0
H373 H 0.91565 0.65102 0.15038 0.0
H374 H 0.91786 0.59308 0.10329 0.0
C375 C 0.01717 0.62163 0.09826 0.0
C376 C 0.38673 0.99504 0.15379 0.0
C377 C 0.3672 0.03129 0.16513 0.0
H378 H 0.42683 0.96534 0.11229 0.0
C379 C 0.37516 0.06681 0.14264 0.0
H380 H 0.38155 0.96711 0.17045 0.0
C381 C 0.40138 0.06568 0.10897 0.0
C382 C 0.42001 0.02912 0.09722 0.0
H383 H 0.36079 0.0953 0.15068 0.0
H384 H 0.40747 0.09341 0.0925 0.0
C385 C 0.41286 0.99402 0.12043 0.0
C386 C 0.62246 0.51706 0.15408 0.0
C387 C 0.64229 0.48086 0.16504 0.0
H388 H 0.58178 0.54672 0.11308 0.0
C389 C 0.63418 0.44536 0.14246 0.0
H390 H 0.62772 0.54496 0.17084 0.0
C391 C 0.60754 0.44648 0.10903 0.0
C392 C 0.58867 0.48301 0.09762 0.0
H393 H 0.64875 0.41691 0.15024 0.0
H394 H 0.60132 0.41878 0.09248 0.0
C395 C 0.59594 0.51807 0.12096 0.0
C396 C 0.3853 0.01706 0.35992 0.0
C397 C 0.36706 0.98051 0.34716 0.0
H398 H 0.4244 0.04675 0.40257 0.0
C399 C 0.37648 0.94448 0.36825 0.0
H400 H 0.37899 0.0454 0.34441 0.0
C401 C 0.40292 0.94537 0.40188 0.0
C402 C 0.42014 0.9822 0.41508 0.0
H403 H 0.36323 0.91575 0.35904 0.0
H404 H 0.41044 0.91728 0.41706 0.0
C405 C 0.41151 0.01785 0.39329 0.0
C406 C 0.63545 0.56693 0.3692 0.0
C407 C 0.64314 0.53146 0.3465 0.0
H408 H 0.60324 0.59348 0.41943 0.0
C409 C 0.62327 0.49526 0.35754 0.0
H410 H 0.65009 0.59537 0.36138 0.0
C411 C 0.59707 0.49423 0.39083 0.0
C412 C 0.59016 0.52928 0.41424 0.0
H413 H 0.62824 0.46738 0.34071 0.0
H414 H 0.58282 0.4656 0.39873 0.0
C415 C 0.60914 0.56579 0.4028 0.0
C416 C 0.14109 0.37636 0.06665 0.0
C417 C 0.16359 0.36834 0.03112 0.0
H418 H 0.09126 0.40906 0.09323 0.0
C419 C 0.15259 0.38816 0.99485 0.0
H420 H 0.1489 0.36179 0.09516 0.0
C421 C 0.11954 0.41461 0.99381 0.0
C422 C 0.0963 0.4218 0.0289 0.0
H423 H 0.16927 0.38297 0.96692 0.0
H424 H 0.11164 0.42877 0.9651 0.0
C425 C 0.10773 0.40291 0.0655 0.0
C426 C 0.1539 0.62359 0.51561 0.0
C427 C 0.16466 0.64264 0.47888 0.0
H428 H 0.11254 0.58423 0.54654 0.0
C429 C 0.14147 0.63438 0.44376 0.0
H430 H 0.1711 0.62905 0.54325 0.0
C431 C 0.10761 0.60847 0.44577 0.0
C432 C 0.09632 0.59049 0.48283 0.0
H433 H 0.14905 0.64839 0.41492 0.0
H434 H 0.09059 0.60216 0.41834 0.0
C435 C 0.1203 0.59778 0.51751 0.0
C436 C 0.85721 0.88919 0.51831 0.0
C437 C 0.84564 0.86969 0.48197 0.0
H438 H 0.89892 0.92926 0.54802 0.0
C439 C 0.86794 0.8777 0.44631 0.0
H440 H 0.84071 0.88397 0.54634 0.0
C441 C 0.90163 0.90394 0.44738 0.0
C442 C 0.91362 0.92253 0.48403 0.0
H443 H 0.85971 0.86337 0.41775 0.0
H444 H 0.91792 0.9101 0.41955 0.0
C445 C 0.8906 0.91533 0.51928 0.0
C446 C 0.36012 0.62903 0.49028 0.0
C447 C 0.34828 0.64867 0.52638 0.0
H448 H 0.40139 0.58804 0.46151 0.0
C449 C 0.36993 0.64043 0.56247 0.0
H450 H 0.34415 0.63443 0.46193 0.0
C451 C 0.40302 0.61354 0.56213 0.0
C452 C 0.41507 0.59451 0.52582 0.0
H453 H 0.36144 0.65482 0.59088 0.0
H454 H 0.41869 0.60708 0.59031 0.0
C455 C 0.39293 0.60223 0.49005 0.0
C456 C 0.49472 0.65572 0.88974 0.0
C457 C 0.53124 0.66649 0.87036 0.0
H458 H 0.4641 0.61444 0.92942 0.0
C459 C 0.56634 0.64338 0.87835 0.0
H460 H 0.46712 0.67287 0.8845 0.0
C461 C 0.56449 0.60959 0.90431 0.0
C462 C 0.52762 0.5983 0.92263 0.0
H463 H 0.59503 0.65097 0.86408 0.0
H464 H 0.59189 0.59263 0.9104 0.0
C465 C 0.49298 0.6222 0.91561 0.0
C466 C 0.44752 0.87127 0.87313 0.0
C467 C 0.48358 0.84991 0.86459 0.0
H468 H 0.41975 0.9199 0.90672 0.0
C469 C 0.51974 0.86215 0.88395 0.0
H470 H 0.41906 0.86247 0.85898 0.0
C471 C 0.52003 0.89507 0.91074 0.0
C472 C 0.48427 0.91693 0.91874 0.0
H473 H 0.54808 0.84641 0.87831 0.0
H474 H 0.5486 0.90386 0.9247 0.0
C475 C 0.44791 0.90447 0.90002 0.0
C476 C 0.56351 0.37011 0.63506 0.0
C477 C 0.52789 0.34766 0.64285 0.0
H478 H 0.59033 0.4202 0.60291 0.0
C479 C 0.49168 0.35909 0.62318 0.0
H480 H 0.59197 0.36201 0.64954 0.0
C481 C 0.49081 0.39248 0.59709 0.0
C482 C 0.52602 0.41563 0.5901 0.0
H483 H 0.46368 0.34248 0.62823 0.0
H484 H 0.46216 0.40068 0.583 0.0
C485 C 0.56252 0.40379 0.60888 0.0
C486 C 0.44175 0.14306 0.63465 0.0
C487 C 0.47743 0.16516 0.64336 0.0
H488 H 0.41517 0.09316 0.60169 0.0
C489 C 0.51399 0.15311 0.62486 0.0
H490 H 0.41302 0.15168 0.64817 0.0
C491 C 0.51516 0.11949 0.59905 0.0
C492 C 0.47988 0.09672 0.59109 0.0
H493 H 0.54208 0.16939 0.63063 0.0
H494 H 0.54408 0.11083 0.58591 0.0
C495 C 0.44301 0.10916 0.60863 0.0
C496 C 0.88601 0.49628 0.65489 0.0
C497 C 0.86605 0.53242 0.66582 0.0
H498 H 0.92664 0.46666 0.61389 0.0
C499 C 0.87388 0.56787 0.64318 0.0
H500 H 0.88096 0.46841 0.67168 0.0
C501 C 0.90038 0.56676 0.60973 0.0
C502 C 0.91938 0.53028 0.59835 0.0
H503 H 0.8592 0.59628 0.65094 0.0
H504 H 0.9064 0.59442 0.59314 0.0
C505 C 0.91238 0.49528 0.62174 0.0
C506 C 0.12704 0.02038 0.65144 0.0
C507 C 0.14638 0.98417 0.66315 0.0
H508 H 0.08643 0.04961 0.61004 0.0
C509 C 0.13802 0.94837 0.64111 0.0
H510 H 0.13254 0.04852 0.66772 0.0
C511 C 0.1113 0.9491 0.60773 0.0
C512 C 0.09255 0.98553 0.59585 0.0
H513 H 0.1522 0.91988 0.64948 0.0
H514 H 0.10474 0.92114 0.59173 0.0
C515 C 0.1004 0.021 0.61838 0.0
C516 C 0.87458 0.4463 0.86935 0.0
C517 C 0.86641 0.48182 0.84695 0.0
H518 H 0.90748 0.41973 0.91918 0.0
C519 C 0.88618 0.51808 0.85811 0.0
H520 H 0.86006 0.41779 0.86142 0.0
C521 C 0.91271 0.51913 0.89125 0.0
C522 C 0.92005 0.48404 0.91439 0.0
H523 H 0.88086 0.54601 0.84151 0.0
H524 H 0.92683 0.54782 0.89928 0.0
C525 C 0.90122 0.44745 0.90278 0.0
C526 C 0.12039 0.99592 0.85744 0.0
C527 C 0.14012 0.03226 0.84665 0.0
H528 H 0.08015 0.96583 0.89857 0.0
C529 C 0.13216 0.06758 0.8695 0.0
H530 H 0.12558 0.96816 0.84048 0.0
C531 C 0.10589 0.06614 0.90309 0.0
C532 C 0.08723 0.02945 0.91444 0.0
H533 H 0.14668 0.09614 0.86188 0.0
H534 H 0.09984 0.09371 0.91986 0.0
C535 C 0.0942 0.99458 0.89077 0.0
C536 C 0.65131 0.88756 0.49605 0.0
C537 C 0.66368 0.8692 0.53265 0.0
H538 H 0.60894 0.92653 0.46612 0.0
C539 C 0.64214 0.87824 0.56856 0.0
H540 H 0.66716 0.88155 0.4678 0.0
C541 C 0.60846 0.90442 0.56748 0.0
C542 C 0.59566 0.92178 0.53058 0.0
H543 H 0.65103 0.86486 0.59734 0.0
H544 H 0.59291 0.91162 0.59549 0.0
C545 C 0.6179 0.91353 0.49507 0.0
C546 C 0.65257 0.12581 0.01717 0.0
C547 C 0.66365 0.14545 0.98085 0.0
H548 H 0.61127 0.08562 0.04702 0.0
C549 C 0.64087 0.13765 0.94536 0.0
H550 H 0.66944 0.13089 0.04507 0.0
C551 C 0.60719 0.11143 0.94659 0.0
C552 C 0.59572 0.09266 0.98323 0.0
H553 H 0.64872 0.15213 0.91683 0.0
H554 H 0.59049 0.10542 0.91889 0.0
C555 C 0.61919 0.0997 0.01829 0.0
C556 C 0.35556 0.38816 0.01676 0.0
C557 C 0.34449 0.36831 0.98046 0.0
H558 H 0.39674 0.42866 0.0466 0.0
C559 C 0.36706 0.3762 0.94495 0.0
H560 H 0.33882 0.38306 0.04467 0.0
C561 C 0.40058 0.40265 0.94617 0.0
C562 C 0.41211 0.42154 0.98281 0.0
H563 H 0.35919 0.3616 0.91642 0.0
H564 H 0.41712 0.40872 0.91846 0.0
C565 C 0.38878 0.41448 0.01786 0.0
C566 C 0.86752 0.1369 0.06714 0.0
C567 C 0.84495 0.14478 0.03156 0.0
H568 H 0.91739 0.10426 0.09382 0.0
C569 C 0.85583 0.12477 0.99535 0.0
H570 H 0.85981 0.15161 0.09561 0.0
C571 C 0.88885 0.0983 0.99439 0.0
C572 C 0.91218 0.09125 0.02952 0.0
H573 H 0.83908 0.12985 0.96739 0.0
H574 H 0.89667 0.084 0.96572 0.0
C575 C 0.90085 0.11031 0.06607 0.0
C576 C 0.96006 0.18656 0.16245 0.0
C577 C 0.96114 0.17663 0.20401 0.0
H578 H 0.97443 0.16695 0.10174 0.0
C579 C 0.96925 0.1365 0.21567 0.0
H580 H 0.95488 0.21766 0.15298 0.0
C581 C 0.98052 0.10772 0.18661 0.0
C582 C 0.98385 0.11869 0.14547 0.0
H583 H 0.97106 0.12851 0.24764 0.0
H584 H 0.99058 0.07806 0.19678 0.0
C585 C 0.97128 0.1576 0.1332 0.0
C586 C 0.04859 0.32773 0.1627 0.0
C587 C 0.04729 0.33786 0.20422 0.0
H588 H 0.03447 0.347 0.10182 0.0
C589 C 0.03909 0.37804 0.21572 0.0
H590 H 0.05386 0.29659 0.15335 0.0
C591 C 0.02796 0.40666 0.18648 0.0
C592 C 0.02482 0.39548 0.14535 0.0
H593 H 0.03713 0.38619 0.24765 0.0
H594 H 0.01783 0.43637 0.1965 0.0
C595 C 0.03747 0.35652 0.13329 0.0
C596 C 0.96843 0.87752 0.29666 0.0
C597 C 0.96078 0.83735 0.30858 0.0
H598 H 0.98946 0.9363 0.31512 0.0
C599 C 0.9601 0.82766 0.3502 0.0
H600 H 0.96993 0.88535 0.26464 0.0
C601 C 0.9713 0.85691 0.37923 0.0
C602 C 0.9835 0.89588 0.3667 0.0
H603 H 0.95527 0.79655 0.35987 0.0
H604 H 0.97478 0.84776 0.41073 0.0
C605 C 0.9797 0.9066 0.32551 0.0
C606 C 0.04861 0.68634 0.35069 0.0
C607 C 0.04727 0.67636 0.30913 0.0
H608 H 0.03437 0.66687 0.41146 0.0
C609 C 0.03885 0.63623 0.29748 0.0
H610 H 0.05405 0.71743 0.36017 0.0
C611 C 0.0275 0.60754 0.32656 0.0
C612 C 0.02437 0.6186 0.36772 0.0
H613 H 0.03687 0.62818 0.26551 0.0
H614 H 0.01719 0.5779 0.3164 0.0
C615 C 0.03731 0.65746 0.37997 0.0
C616 C 0.16076 0.96274 0.18585 0.0
C617 C 0.20215 0.96392 0.17552 0.0
H618 H 0.09991 0.97711 0.16688 0.0
C619 C 0.21337 0.97232 0.13525 0.0
H620 H 0.15162 0.95735 0.21707 0.0
C621 C 0.18403 0.98367 0.10675 0.0
C622 C 0.14305 0.98685 0.11814 0.0
H623 H 0.24519 0.97421 0.12694 0.0
H624 H 0.19387 0.99389 0.07699 0.0
C625 C 0.13124 0.97408 0.15719 0.0
C626 C 0.79564 0.54092 0.13474 0.0
C627 C 0.80715 0.54925 0.175 0.0
H628 H 0.81476 0.51953 0.07631 0.0
C629 C 0.84861 0.55063 0.18515 0.0
H630 H 0.76376 0.5389 0.12657 0.0
C631 C 0.87795 0.53947 0.15631 0.0
C632 C 0.86587 0.52668 0.11728 0.0
H633 H 0.85797 0.556 0.21635 0.0
H634 H 0.90936 0.53654 0.16585 0.0
C635 C 0.8248 0.52975 0.10607 0.0
C636 C 0.21444 0.04118 0.37688 0.0
C637 C 0.20316 0.04964 0.33662 0.0
H638 H 0.19494 0.01971 0.43512 0.0
C639 C 0.16174 0.05123 0.32632 0.0
H640 H 0.24628 0.039 0.38516 0.0
C641 C 0.13221 0.04012 0.35499 0.0
C642 C 0.14404 0.02719 0.394 0.0
H643 H 0.15254 0.05669 0.29511 0.0
H644 H 0.10081 0.03732 0.34531 0.0
C645 C 0.18509 0.03007 0.40539 0.0
C646 C 0.79539 0.47128 0.37652 0.0
C647 C 0.80711 0.4632 0.33632 0.0
H648 H 0.81412 0.49284 0.43511 0.0
C649 C 0.84861 0.46235 0.32645 0.0
H650 H 0.76346 0.47291 0.38447 0.0
C651 C 0.87775 0.4738 0.35552 0.0
C652 C 0.86541 0.48637 0.39448 0.0
H653 H 0.85813 0.45721 0.29529 0.0
H654 H 0.90917 0.47712 0.34621 0.0
C655 C 0.82434 0.48278 0.40541 0.0
C656 C 0.18312 0.16217 0.96185 0.0
C657 C 0.17317 0.20365 0.96285 0.0
H658 H 0.16357 0.10157 0.97642 0.0
C659 C 0.13304 0.21526 0.97101 0.0
H660 H 0.21422 0.15274 0.95663 0.0
C661 C 0.10429 0.18623 0.98242 0.0
C662 C 0.1153 0.14519 0.98586 0.0
H663 H 0.12502 0.24716 0.97276 0.0
H664 H 0.07464 0.19638 0.99254 0.0
C665 C 0.15419 0.13296 0.97321 0.0
C666 C 0.18257 0.84865 0.54828 0.0
C667 C 0.17226 0.80729 0.54566 0.0
H668 H 0.16378 0.90982 0.53543 0.0
C669 C 0.13211 0.7962 0.5366 0.0
H670 H 0.21371 0.85771 0.55419 0.0
C671 C 0.1037 0.82579 0.52602 0.0
C672 C 0.11511 0.86688 0.5241 0.0
H673 H 0.12383 0.76443 0.53364 0.0
H674 H 0.07402 0.81617 0.51529 0.0
C675 C 0.15404 0.87841 0.53754 0.0
C676 C 0.87538 0.71642 0.5414 0.0
C677 C 0.83517 0.70506 0.54975 0.0
H678 H 0.93355 0.69713 0.51976 0.0
C679 C 0.82488 0.66364 0.55085 0.0
H680 H 0.88367 0.74827 0.53956 0.0
C681 C 0.85351 0.63422 0.53944 0.0
C682 C 0.89249 0.64617 0.5267 0.0
H683 H 0.79371 0.65439 0.55619 0.0
H684 H 0.84385 0.60287 0.53632 0.0
C685 C 0.90385 0.68718 0.52998 0.0
C686 C 0.36366 0.81581 0.45392 0.0
C687 C 0.32121 0.81922 0.4556 0.0
H688 H 0.42063 0.84343 0.46972 0.0
C689 C 0.30371 0.85692 0.46507 0.0
H690 H 0.37767 0.78669 0.44765 0.0
C691 C 0.32819 0.88921 0.47799 0.0
C692 C 0.37039 0.88414 0.4813 0.0
H693 H 0.27098 0.85983 0.46745 0.0
H694 H 0.3138 0.91624 0.49011 0.0
C695 C 0.3882 0.8483 0.46649 0.0
C696 C 0.46161 0.68418 0.66409 0.0
C697 C 0.46371 0.67374 0.70548 0.0
H698 H 0.47499 0.66557 0.60286 0.0
C699 C 0.47236 0.63354 0.71645 0.0
H700 H 0.45604 0.71537 0.65514 0.0
C701 C 0.48306 0.60519 0.68676 0.0
C702 C 0.4855 0.61674 0.6457 0.0
H703 H 0.47494 0.62516 0.74827 0.0
H704 H 0.4935 0.57546 0.69633 0.0
C705 C 0.47247 0.65572 0.63423 0.0
C706 C 0.55531 0.86498 0.6964 0.0
C707 C 0.55347 0.82251 0.69327 0.0
H708 H 0.53998 0.9217 0.66824 0.0
C709 C 0.54397 0.80466 0.65561 0.0
H710 H 0.5616 0.87927 0.72549 0.0
C711 C 0.53131 0.82883 0.62304 0.0
C712 C 0.52828 0.87108 0.62778 0.0
H713 H 0.54147 0.7719 0.6529 0.0
H714 H 0.51924 0.8142 0.59601 0.0
C715 C 0.54301 0.88922 0.66363 0.0
C716 C 0.45894 0.32685 0.84906 0.0
C717 C 0.45988 0.3371 0.80758 0.0
H718 H 0.47369 0.34593 0.90992 0.0
C719 C 0.46814 0.37732 0.79625 0.0
H720 H 0.45367 0.29568 0.85829 0.0
C721 C 0.47967 0.40585 0.82555 0.0
C722 C 0.48313 0.39454 0.8666 0.0
H723 H 0.46986 0.38557 0.76435 0.0
H724 H 0.48984 0.43557 0.81561 0.0
C725 C 0.47044 0.35555 0.87854 0.0
C726 C 0.54748 0.18649 0.84882 0.0
C727 C 0.54578 0.17643 0.80729 0.0
H728 H 0.53389 0.16709 0.90976 0.0
C729 C 0.53733 0.13626 0.79578 0.0
H730 H 0.55294 0.21761 0.8582 0.0
C731 C 0.52639 0.10758 0.82503 0.0
C732 C 0.52368 0.11868 0.86622 0.0
H733 H 0.53506 0.12816 0.76385 0.0
H734 H 0.5161 0.07788 0.81502 0.0
C735 C 0.53656 0.15763 0.87826 0.0
C736 C 0.66023 0.46254 0.68523 0.0
C737 C 0.70174 0.46346 0.67537 0.0
H738 H 0.59968 0.47692 0.66538 0.0
C739 C 0.71346 0.47126 0.63513 0.0
H740 H 0.65071 0.45759 0.7164 0.0
C741 C 0.6845 0.4824 0.60615 0.0
C742 C 0.64342 0.48593 0.61704 0.0
H743 H 0.74539 0.47293 0.62717 0.0
H744 H 0.69474 0.49225 0.5764 0.0
C745 C 0.63109 0.47363 0.65608 0.0
C746 C 0.31468 0.05544 0.64863 0.0
C747 C 0.31791 0.05267 0.69111 0.0
H748 H 0.34244 0.04105 0.59137 0.0
C749 C 0.35541 0.04235 0.70866 0.0
H750 H 0.28569 0.06237 0.63456 0.0
C751 C 0.38772 0.02997 0.68405 0.0
C752 C 0.38286 0.02796 0.64166 0.0
H753 H 0.35818 0.03913 0.74139 0.0
H754 H 0.4146 0.01736 0.69834 0.0
C755 C 0.34717 0.04333 0.62396 0.0
C756 C 0.66002 0.55079 0.82678 0.0
C757 C 0.70148 0.54943 0.83696 0.0
H758 H 0.59923 0.5365 0.84594 0.0
C759 C 0.71293 0.54095 0.87717 0.0
H760 H 0.6507 0.55629 0.79561 0.0
C761 C 0.68373 0.52956 0.90573 0.0
C762 C 0.64267 0.52646 0.89445 0.0
H763 H 0.7448 0.53895 0.88536 0.0
H764 H 0.69373 0.51921 0.93542 0.0
C765 C 0.63063 0.53944 0.85552 0.0
C766 C 0.29387 0.97243 0.8803 0.0
C767 C 0.3046 0.96354 0.84 0.0
H768 H 0.31426 0.99429 0.9382 0.0
C769 C 0.34588 0.96155 0.82934 0.0
H770 H 0.26215 0.97494 0.88884 0.0
C771 C 0.37583 0.97288 0.85759 0.0
C772 C 0.36456 0.98625 0.8966 0.0
H773 H 0.35465 0.95581 0.79807 0.0
H774 H 0.40707 0.97554 0.84753 0.0
C775 C 0.32366 0.98361 0.90845 0.0
C776 C 0.68435 0.66381 0.46227 0.0
C777 C 0.6742 0.70522 0.46388 0.0
H778 H 0.66515 0.60291 0.47605 0.0
C779 C 0.63403 0.71651 0.47231 0.0
H780 H 0.71549 0.65461 0.45683 0.0
C781 C 0.60545 0.68718 0.48334 0.0
C782 C 0.61666 0.64614 0.48616 0.0
H783 H 0.62585 0.74834 0.47452 0.0
H784 H 0.57576 0.69703 0.49364 0.0
C785 C 0.6556 0.6343 0.47329 0.0
C786 C 0.63408 0.29757 0.04072 0.0
C787 C 0.67421 0.30947 0.04883 0.0
H788 H 0.5755 0.31602 0.01928 0.0
C789 C 0.684 0.35101 0.0498 0.0
H790 H 0.62617 0.26561 0.03899 0.0
C791 C 0.65491 0.38001 0.03848 0.0
C792 C 0.61599 0.3675 0.02591 0.0
H793 H 0.7151 0.36067 0.05498 0.0
H794 H 0.66415 0.41147 0.03527 0.0
C795 C 0.60516 0.32638 0.02934 0.0
C796 C 0.37498 0.21593 0.04057 0.0
C797 C 0.33488 0.20411 0.04877 0.0
H798 H 0.43349 0.19729 0.01927 0.0
C799 C 0.32509 0.16257 0.05001 0.0
H800 H 0.38288 0.24787 0.03865 0.0
C801 C 0.35415 0.13346 0.03887 0.0
C802 C 0.39303 0.14584 0.02621 0.0
H803 H 0.29402 0.15295 0.05526 0.0
H804 H 0.34489 0.10198 0.03585 0.0
C805 C 0.40386 0.18701 0.0294 0.0
C806 C 0.87566 0.2976 0.97095 0.0
C807 C 0.8355 0.30918 0.96273 0.0
H808 H 0.93413 0.31659 0.99241 0.0
C809 C 0.82556 0.35065 0.96157 0.0
H810 H 0.88366 0.2657 0.97282 0.0
C811 C 0.85452 0.37991 0.97284 0.0
C812 C 0.89345 0.36774 0.98555 0.0
H813 H 0.79444 0.36006 0.9563 0.0
H814 H 0.84516 0.41132 0.97595 0.0
C815 C 0.90445 0.32668 0.98225 0.0
loop_
_geom_bond_atom_site_label_1
_geom_bond_atom_site_label_2
_geom_bond_distance
_geom_bond_site_symmetry_2
_ccdc_geom_bond_type
C0 O2 1.247 . S
C0 O4 1.258 1_455 S
C1 O8 1.247 . S
C1 O9 1.258 1_655 S
O2 C0 1.247 . S
O2 Zn3 2.028 . S
Zn3 O2 2.028 . S
Zn3 O7 2.035 . S
Zn3 O9 2.035 . S
Zn3 O10 2.028 . S
O4 C0 1.258 1_655 S
O4 Zn5 2.035 . S
Zn5 O4 2.035 . S
Zn5 O6 2.028 . S
Zn5 O8 2.028 . S
Zn5 O11 2.035 . S
O6 Zn5 2.028 . S
O6 C12 1.247 . S
O7 Zn3 2.035 . S
O7 C12 1.258 1_455 S
O8 C1 1.247 . S
O8 Zn5 2.028 . S
O9 C1 1.258 1_455 S
O9 Zn3 2.035 . S
O10 Zn3 2.028 . S
O10 C13 1.247 . S
O11 Zn5 2.035 . S
O11 C13 1.258 1_655 S
C12 O6 1.247 . S
C12 O7 1.258 1_655 S
C13 O10 1.247 . S
C13 O11 1.258 1_455 S
C14 O16 1.247 . S
C14 O18 1.258 1_455 S
C15 O22 1.247 . S
C15 O23 1.258 1_655 S
O16 C14 1.247 . S
O16 Zn17 2.028 . S
Zn17 O16 2.028 . S
Zn17 O21 2.035 . S
Zn17 O23 2.035 . S
Zn17 O24 2.028 . S
O18 C14 1.258 1_655 S
O18 Zn19 2.035 . S
Zn19 O18 2.035 . S
Zn19 O20 2.028 . S
Zn19 O22 2.028 . S
Zn19 O25 2.035 . S
O20 Zn19 2.028 . S
O20 C26 1.247 . S
O21 Zn17 2.035 . S
O21 C26 1.258 1_455 S
O22 C15 1.247 . S
O22 Zn19 2.028 . S
O23 C15 1.258 1_455 S
O23 Zn17 2.035 . S
O24 Zn17 2.028 . S
O24 C27 1.247 . S
O25 Zn19 2.035 . S
O25 C27 1.258 1_655 S
C26 O20 1.247 . S
C26 O21 1.258 1_655 S
C27 O24 1.247 . S
C27 O25 1.258 1_455 S
C28 O30 1.247 1_545 S
C28 O32 1.258 . S
C29 O36 1.247 1_565 S
C29 O37 1.258 . S
O30 C28 1.247 1_565 S
O30 Zn31 2.028 . S
Zn31 O30 2.028 . S
Zn31 O35 2.035 . S
Zn31 O37 2.035 . S
Zn31 O38 2.028 . S
O32 C28 1.258 . S
O32 Zn33 2.035 . S
Zn33 O32 2.035 . S
Zn33 O34 2.028 . S
Zn33 O36 2.028 . S
Zn33 O39 2.035 . S
O34 Zn33 2.028 . S
O34 C40 1.247 1_545 S
O35 Zn31 2.035 . S
O35 C40 1.258 . S
O36 C29 1.247 1_545 S
O36 Zn33 2.028 . S
O37 C29 1.258 . S
O37 Zn31 2.035 . S
O38 Zn31 2.028 . S
O38 C41 1.247 1_565 S
O39 Zn33 2.035 . S
O39 C41 1.258 . S
C40 O34 1.247 1_565 S
C40 O35 1.258 . S
C41 O38 1.247 1_545 S
C41 O39 1.258 . S
C42 O44 1.247 . S
C42 O46 1.258 . S
C43 O50 1.247 . S
C43 O51 1.258 . S
O44 C42 1.247 . S
O44 Zn45 2.028 . S
Zn45 O44 2.028 . S
Zn45 O49 2.035 . S
Zn45 O51 2.035 . S
Zn45 O52 2.028 . S
O46 C42 1.258 . S
O46 Zn47 2.035 . S
Zn47 O46 2.035 . S
Zn47 O48 2.028 . S
Zn47 O50 2.028 . S
Zn47 O53 2.035 . S
O48 Zn47 2.028 . S
O48 C54 1.247 . S
O49 Zn45 2.035 . S
O49 C54 1.258 . S
O50 C43 1.247 . S
O50 Zn47 2.028 . S
O51 C43 1.258 . S
O51 Zn45 2.035 . S
O52 Zn45 2.028 . S
O52 C55 1.247 . S
O53 Zn47 2.035 . S
O53 C55 1.258 . S
C54 O48 1.247 . S
C54 O49 1.258 . S
C55 O52 1.247 . S
C55 O53 1.258 . S
C56 O58 1.247 1_554 S
C56 O60 1.258 . S
C57 O64 1.247 1_556 S
C57 O65 1.258 . S
O58 C56 1.247 1_556 S
O58 Zn59 2.028 . S
Zn59 O58 2.028 . S
Zn59 O63 2.035 . S
Zn59 O65 2.035 . S
Zn59 O66 2.028 . S
O60 C56 1.258 . S
O60 Zn61 2.035 . S
Zn61 O60 2.035 . S
Zn61 O62 2.028 . S
Zn61 O64 2.028 . S
Zn61 O67 2.035 . S
O62 Zn61 2.028 . S
O62 C68 1.247 1_554 S
O63 Zn59 2.035 . S
O63 C68 1.258 . S
O64 C57 1.247 1_554 S
O64 Zn61 2.028 . S
O65 C57 1.258 . S
O65 Zn59 2.035 . S
O66 Zn59 2.028 . S
O66 C69 1.247 1_556 S
O67 Zn61 2.035 . S
O67 C69 1.258 . S
C68 O62 1.247 1_556 S
C68 O63 1.258 . S
C69 O66 1.247 1_554 S
C69 O67 1.258 . S
C70 O72 1.247 . S
C70 O74 1.258 . S
C71 O78 1.247 . S
C71 O79 1.258 . S
O72 C70 1.247 . S
O72 Zn73 2.028 . S
Zn73 O72 2.028 . S
Zn73 O77 2.035 . S
Zn73 O79 2.035 . S
Zn73 O80 2.028 . S
O74 C70 1.258 . S
O74 Zn75 2.035 . S
Zn75 O74 2.035 . S
Zn75 O76 2.028 . S
Zn75 O78 2.028 . S
Zn75 O81 2.035 . S
O76 Zn75 2.028 . S
O76 C82 1.247 . S
O77 Zn73 2.035 . S
O77 C82 1.258 . S
O78 C71 1.247 . S
O78 Zn75 2.028 . S
O79 C71 1.258 . S
O79 Zn73 2.035 . S
O80 Zn73 2.028 . S
O80 C83 1.247 . S
O81 Zn75 2.035 . S
O81 C83 1.258 . S
C82 O76 1.247 . S
C82 O77 1.258 . S
C83 O80 1.247 . S
C83 O81 1.258 . S
C84 O86 1.247 . S
C84 O88 1.258 . S
C85 O92 1.247 . S
C85 O93 1.258 . S
O86 C84 1.247 . S
O86 Zn87 2.028 . S
Zn87 O86 2.028 . S
Zn87 O91 2.035 . S
Zn87 O93 2.035 . S
Zn87 O94 2.028 . S
O88 C84 1.258 . S
O88 Zn89 2.035 . S
Zn89 O88 2.035 . S
Zn89 O90 2.028 . S
Zn89 O92 2.028 . S
Zn89 O95 2.035 . S
O90 Zn89 2.028 . S
O90 C96 1.247 . S
O91 Zn87 2.035 . S
O91 C96 1.258 . S
O92 C85 1.247 . S
O92 Zn89 2.028 . S
O93 C85 1.258 . S
O93 Zn87 2.035 . S
O94 Zn87 2.028 . S
O94 C97 1.247 . S
O95 Zn89 2.035 . S
O95 C97 1.258 . S
C96 O90 1.247 . S
C96 O91 1.258 . S
C97 O94 1.247 . S
C97 O95 1.258 . S
C98 O100 1.247 . S
C98 O102 1.258 . S
C99 O106 1.247 . S
C99 O107 1.258 . S
O100 C98 1.247 . S
O100 Zn101 2.028 . S
Zn101 O100 2.028 . S
Zn101 O105 2.035 . S
Zn101 O107 2.035 . S
Zn101 O108 2.028 . S
O102 C98 1.258 . S
O102 Zn103 2.035 . S
Zn103 O102 2.035 . S
Zn103 O104 2.028 . S
Zn103 O106 2.028 . S
Zn103 O109 2.035 . S
O104 Zn103 2.028 . S
O104 C110 1.247 . S
O105 Zn101 2.035 . S
O105 C110 1.258 . S
O106 C99 1.247 . S
O106 Zn103 2.028 . S
O107 C99 1.258 . S
O107 Zn101 2.035 . S
O108 Zn101 2.028 . S
O108 C111 1.247 . S
O109 Zn103 2.035 . S
O109 C111 1.258 . S
C110 O104 1.247 . S
C110 O105 1.258 . S
C111 O108 1.247 . S
C111 O109 1.258 . S
C112 O114 1.247 . S
C112 O116 1.258 . S
C113 O120 1.247 . S
C113 O121 1.258 . S
O114 C112 1.247 . S
O114 Zn115 2.028 . S
Zn115 O114 2.028 . S
Zn115 O119 2.035 . S
Zn115 O121 2.035 . S
Zn115 O122 2.028 . S
O116 C112 1.258 . S
O116 Zn117 2.035 . S
Zn117 O116 2.035 . S
Zn117 O118 2.028 . S
Zn117 O120 2.028 . S
Zn117 O123 2.035 . S
O118 Zn117 2.028 . S
O118 C124 1.247 . S
O119 Zn115 2.035 . S
O119 C124 1.258 . S
O120 C113 1.247 . S
O120 Zn117 2.028 . S
O121 C113 1.258 . S
O121 Zn115 2.035 . S
O122 Zn115 2.028 . S
O122 C125 1.247 . S
O123 Zn117 2.035 . S
O123 C125 1.258 . S
C124 O118 1.247 . S
C124 O119 1.258 . S
C125 O122 1.247 . S
C125 O123 1.258 . S
C126 O128 1.247 . S
C126 O130 1.258 . S
C127 O134 1.247 . S
C127 O135 1.258 . S
O128 C126 1.247 . S
O128 Zn129 2.028 . S
Zn129 O128 2.028 . S
Zn129 O133 2.035 . S
Zn129 O135 2.035 . S
Zn129 O136 2.028 . S
O130 C126 1.258 . S
O130 Zn131 2.035 . S
Zn131 O130 2.035 . S
Zn131 O132 2.028 . S
Zn131 O134 2.028 . S
Zn131 O137 2.035 . S
O132 Zn131 2.028 . S
O132 C138 1.247 . S
O133 Zn129 2.035 . S
O133 C138 1.258 . S
O134 C127 1.247 . S
O134 Zn131 2.028 . S
O135 C127 1.258 . S
O135 Zn129 2.035 . S
O136 Zn129 2.028 . S
O136 C139 1.247 . S
O137 Zn131 2.035 . S
O137 C139 1.258 . S
C138 O132 1.247 . S
C138 O133 1.258 . S
C139 O136 1.247 . S
C139 O137 1.258 . S
C140 O142 1.247 . S
C140 O144 1.258 1_565 S
C141 O148 1.247 . S
C141 O149 1.258 1_545 S
O142 C140 1.247 . S
O142 Zn143 2.028 . S
Zn143 O142 2.028 . S
Zn143 O147 2.035 . S
Zn143 O149 2.035 . S
Zn143 O150 2.028 . S
O144 C140 1.258 1_545 S
O144 Zn145 2.035 . S
Zn145 O144 2.035 . S
Zn145 O146 2.028 . S
Zn145 O148 2.028 . S
Zn145 O151 2.035 . S
O146 Zn145 2.028 . S
O146 C152 1.247 . S
O147 Zn143 2.035 . S
O147 C152 1.258 1_565 S
O148 C141 1.247 . S
O148 Zn145 2.028 . S
O149 C141 1.258 1_565 S
O149 Zn143 2.035 . S
O150 Zn143 2.028 . S
O150 C153 1.247 . S
O151 Zn145 2.035 . S
O151 C153 1.258 1_545 S
C152 O146 1.247 . S
C152 O147 1.258 1_545 S
C153 O150 1.247 . S
C153 O151 1.258 1_565 S
C154 O156 1.247 1_556 S
C154 O158 1.258 . S
C155 O162 1.247 1_554 S
C155 O163 1.258 . S
O156 C154 1.247 1_554 S
O156 Zn157 2.028 . S
Zn157 O156 2.028 . S
Zn157 O161 2.035 . S
Zn157 O163 2.035 . S
Zn157 O164 2.028 . S
O158 C154 1.258 . S
O158 Zn159 2.035 . S
Zn159 O158 2.035 . S
Zn159 O160 2.028 . S
Zn159 O162 2.028 . S
Zn159 O165 2.035 . S
O160 Zn159 2.028 . S
O160 C166 1.247 1_556 S
O161 Zn157 2.035 . S
O161 C166 1.258 . S
O162 C155 1.247 1_556 S
O162 Zn159 2.028 . S
O163 C155 1.258 . S
O163 Zn157 2.035 . S
O164 Zn157 2.028 . S
O164 C167 1.247 1_554 S
O165 Zn159 2.035 . S
O165 C167 1.258 . S
C166 O160 1.247 1_554 S
C166 O161 1.258 . S
C167 O164 1.247 1_556 S
C167 O165 1.258 . S
Zn168 O174 1.920 . S
Zn168 O180 1.898 . S
Zn168 O183 1.905 . S
Zn169 O177 1.905 1_665 S
Zn169 O178 1.898 1_656 S
Zn169 O186 1.920 1_566 S
Zn170 O173 2.080 . S
Zn170 O176 2.114 1_554 S
Zn170 O179 2.121 1_545 S
Zn170 O181 2.120 . S
Zn170 O182 2.114 . S
Zn170 O185 2.080 1_455 S
C171 O176 1.166 . S
C171 O177 1.182 . S
C172 O178 1.167 . S
C172 O179 1.298 . S
O173 Zn170 2.080 . S
O173 C187 1.305 . S
O174 Zn168 1.920 . S
O174 C187 1.234 . S
C175 O180 1.167 . S
C175 O181 1.299 . S
O176 Zn170 2.114 1_556 S
O176 C171 1.166 . S
O177 Zn169 1.905 1_445 S
O177 C171 1.182 . S
O178 Zn169 1.898 1_454 S
O178 C172 1.167 . S
O179 Zn170 2.121 1_565 S
O179 C172 1.298 . S
O180 Zn168 1.898 . S
O180 C175 1.167 . S
O181 Zn170 2.120 . S
O181 C175 1.299 . S
O182 Zn170 2.114 . S
O182 C184 1.166 . S
O183 Zn168 1.905 . S
O183 C184 1.182 . S
C184 O182 1.166 . S
C184 O183 1.182 . S
O185 Zn170 2.080 1_655 S
O185 C188 1.305 . S
O186 Zn169 1.920 1_544 S
O186 C188 1.234 . S
C187 O173 1.305 . S
C187 O174 1.234 . S
C188 O185 1.305 . S
C188 O186 1.234 . S
Zn189 O195 1.920 1_556 S
Zn189 O201 1.898 1_556 S
Zn189 O204 1.905 1_455 S
Zn190 O198 1.905 . S
Zn190 O199 1.898 . S
Zn190 O207 1.920 . S
Zn191 O194 2.080 1_655 S
Zn191 O197 2.114 . S
Zn191 O200 2.120 . S
Zn191 O202 2.120 . S
Zn191 O203 2.114 1_554 S
Zn191 O206 2.080 . S
C192 O197 1.166 . S
C192 O198 1.182 . S
C193 O199 1.167 . S
C193 O200 1.299 . S
O194 Zn191 2.080 1_455 S
O194 C208 1.305 . S
O195 Zn189 1.920 1_554 S
O195 C208 1.234 . S
C196 O201 1.168 1_655 S
C196 O202 1.299 . S
O197 Zn191 2.114 . S
O197 C192 1.166 . S
O198 Zn190 1.905 . S
O198 C192 1.182 . S
O199 Zn190 1.898 . S
O199 C193 1.167 . S
O200 Zn191 2.120 . S
O200 C193 1.299 . S
O201 Zn189 1.898 1_554 S
O201 C196 1.168 1_455 S
O202 Zn191 2.120 . S
O202 C196 1.299 . S
O203 Zn191 2.114 1_556 S
O203 C205 1.166 . S
O204 Zn189 1.905 1_655 S
O204 C205 1.182 . S
C205 O203 1.166 . S
C205 O204 1.182 . S
O206 Zn191 2.080 . S
O206 C209 1.305 . S
O207 Zn190 1.920 . S
O207 C209 1.234 . S
C208 O194 1.305 . S
C208 O195 1.234 . S
C209 O206 1.305 . S
C209 O207 1.234 . S
Zn210 O216 1.920 1_655 S
Zn210 O222 1.898 1_655 S
Zn210 O225 1.905 1_545 S
Zn211 O219 1.905 . S
Zn211 O220 1.898 . S
Zn211 O228 1.920 . S
Zn212 O215 2.080 1_565 S
Zn212 O218 2.114 . S
Zn212 O221 2.120 . S
Zn212 O223 2.120 . S
Zn212 O224 2.114 1_455 S
Zn212 O227 2.080 . S
C213 O218 1.166 . S
C213 O219 1.182 . S
C214 O220 1.167 . S
C214 O221 1.299 . S
O215 Zn212 2.080 1_545 S
O215 C229 1.305 . S
O216 Zn210 1.920 1_455 S
O216 C229 1.234 . S
C217 O222 1.167 1_565 S
C217 O223 1.299 . S
O218 Zn212 2.114 . S
O218 C213 1.166 . S
O219 Zn211 1.905 . S
O219 C213 1.182 . S
O220 Zn211 1.898 . S
O220 C214 1.167 . S
O221 Zn212 2.120 . S
O221 C214 1.299 . S
O222 Zn210 1.898 1_455 S
O222 C217 1.167 1_545 S
O223 Zn212 2.120 . S
O223 C217 1.299 . S
O224 Zn212 2.114 1_655 S
O224 C226 1.166 . S
O225 Zn210 1.905 1_565 S
O225 C226 1.182 . S
C226 O224 1.166 . S
C226 O225 1.182 . S
O227 Zn212 2.080 . S
O227 C230 1.305 . S
O228 Zn211 1.920 . S
O228 C230 1.234 . S
C229 O215 1.305 . S
C229 O216 1.234 . S
C230 O227 1.305 . S
C230 O228 1.234 . S
Zn231 O237 1.920 . S
Zn231 O243 1.898 . S
Zn231 O246 1.905 . S
Zn232 O240 1.905 . S
Zn232 O241 1.898 . S
Zn232 O249 1.920 1_455 S
Zn233 O236 2.080 . S
Zn233 O239 2.114 . S
Zn233 O242 2.120 1_655 S
Zn233 O244 2.120 . S
Zn233 O245 2.114 . S
Zn233 O248 2.080 . S
C234 O239 1.166 . S
C234 O240 1.182 1_655 S
C235 O241 1.167 . S
C235 O242 1.299 . S
O236 Zn233 2.080 . S
O236 C250 1.305 . S
O237 Zn231 1.920 . S
O237 C250 1.234 . S
C238 O243 1.167 . S
C238 O244 1.299 . S
O239 Zn233 2.114 . S
O239 C234 1.166 . S
O240 Zn232 1.905 . S
O240 C234 1.182 1_455 S
O241 Zn232 1.898 . S
O241 C235 1.167 . S
O242 Zn233 2.120 1_455 S
O242 C235 1.299 . S
O243 Zn231 1.898 . S
O243 C238 1.167 . S
O244 Zn233 2.120 . S
O244 C238 1.299 . S
O245 Zn233 2.114 . S
O245 C247 1.166 . S
O246 Zn231 1.905 . S
O246 C247 1.182 . S
C247 O245 1.166 . S
C247 O246 1.182 . S
O248 Zn233 2.080 . S
O248 C251 1.305 . S
O249 Zn232 1.920 1_655 S
O249 C251 1.234 . S
C250 O236 1.305 . S
C250 O237 1.234 . S
C251 O248 1.305 . S
C251 O249 1.234 . S
Zn252 O258 1.920 . S
Zn252 O264 1.898 . S
Zn252 O267 1.905 . S
Zn253 O261 1.905 . S
Zn253 O262 1.898 . S
Zn253 O270 1.920 1_545 S
Zn254 O257 2.080 . S
Zn254 O260 2.114 . S
Zn254 O263 2.120 1_565 S
Zn254 O265 2.120 . S
Zn254 O266 2.114 . S
Zn254 O269 2.080 . S
C255 O260 1.166 . S
C255 O261 1.182 1_565 S
C256 O262 1.167 . S
C256 O263 1.299 . S
O257 Zn254 2.080 . S
O257 C271 1.305 . S
O258 Zn252 1.920 . S
O258 C271 1.234 . S
C259 O264 1.167 . S
C259 O265 1.299 . S
O260 Zn254 2.114 . S
O260 C255 1.166 . S
O261 Zn253 1.905 . S
O261 C255 1.182 1_545 S
O262 Zn253 1.898 . S
O262 C256 1.167 . S
O263 Zn254 2.120 1_545 S
O263 C256 1.299 . S
O264 Zn252 1.898 . S
O264 C259 1.167 . S
O265 Zn254 2.120 . S
O265 C259 1.299 . S
O266 Zn254 2.114 . S
O266 C268 1.166 . S
O267 Zn252 1.905 . S
O267 C268 1.182 . S
C268 O266 1.166 . S
C268 O267 1.182 . S
O269 Zn254 2.080 . S
O269 C272 1.305 . S
O270 Zn253 1.920 1_565 S
O270 C272 1.234 . S
C271 O257 1.305 . S
C271 O258 1.234 . S
C272 O269 1.305 . S
C272 O270 1.234 . S
Zn273 O279 1.920 . S
Zn273 O285 1.898 . S
Zn273 O288 1.905 . S
Zn274 O282 1.905 . S
Zn274 O283 1.898 . S
Zn274 O291 1.920 . S
Zn275 O278 2.080 . S
Zn275 O281 2.114 . S
Zn275 O284 2.120 . S
Zn275 O286 2.120 . S
Zn275 O287 2.114 . S
Zn275 O290 2.080 . S
C276 O281 1.166 . S
C276 O282 1.182 . S
C277 O283 1.167 . S
C277 O284 1.299 . S
O278 Zn275 2.080 . S
O278 C292 1.305 . S
O279 Zn273 1.920 . S
O279 C292 1.234 . S
C280 O285 1.167 . S
C280 O286 1.299 . S
O281 Zn275 2.114 . S
O281 C276 1.166 . S
O282 Zn274 1.905 . S
O282 C276 1.182 . S
O283 Zn274 1.898 . S
O283 C277 1.167 . S
O284 Zn275 2.120 . S
O284 C277 1.299 . S
O285 Zn273 1.898 . S
O285 C280 1.167 . S
O286 Zn275 2.120 . S
O286 C280 1.299 . S
O287 Zn275 2.114 . S
O287 C289 1.166 . S
O288 Zn273 1.905 . S
O288 C289 1.182 . S
C289 O287 1.166 . S
C289 O288 1.182 . S
O290 Zn275 2.080 . S
O290 C293 1.305 . S
O291 Zn274 1.920 . S
O291 C293 1.234 . S
C292 O278 1.305 . S
C292 O279 1.234 . S
C293 O290 1.305 . S
C293 O291 1.234 . S
Zn294 O300 1.920 1_554 S
Zn294 O306 1.898 . S
Zn294 O309 1.905 . S
Zn295 O303 1.905 . S
Zn295 O304 1.898 . S
Zn295 O312 1.920 . S
Zn296 O299 2.080 . S
Zn296 O302 2.114 . S
Zn296 O305 2.120 . S
Zn296 O307 2.120 1_556 S
Zn296 O308 2.114 . S
Zn296 O311 2.080 . S
C297 O302 1.166 . S
C297 O303 1.182 . S
C298 O304 1.167 . S
C298 O305 1.299 . S
O299 Zn296 2.080 . S
O299 C313 1.305 . S
O300 Zn294 1.920 1_556 S
O300 C313 1.234 . S
C301 O306 1.167 . S
C301 O307 1.299 . S
O302 Zn296 2.114 . S
O302 C297 1.166 . S
O303 Zn295 1.905 . S
O303 C297 1.182 . S
O304 Zn295 1.898 . S
O304 C298 1.167 . S
O305 Zn296 2.120 . S
O305 C298 1.299 . S
O306 Zn294 1.898 . S
O306 C301 1.167 . S
O307 Zn296 2.120 1_554 S
O307 C301 1.299 . S
O308 Zn296 2.114 . S
O308 C310 1.166 . S
O309 Zn294 1.905 . S
O309 C310 1.182 1_554 S
C310 O308 1.166 . S
C310 O309 1.182 1_556 S
O311 Zn296 2.080 . S
O311 C314 1.305 . S
O312 Zn295 1.920 . S
O312 C314 1.234 . S
C313 O299 1.305 . S
C313 O300 1.234 . S
C314 O311 1.305 . S
C314 O312 1.234 . S
Zn315 O321 1.920 1_565 S
Zn315 O327 1.898 1_565 S
Zn315 O330 1.905 1_554 S
Zn316 O324 1.905 . S
Zn316 O325 1.898 . S
Zn316 O333 1.920 . S
Zn317 O320 2.080 1_556 S
Zn317 O323 2.114 . S
Zn317 O326 2.120 . S
Zn317 O328 2.120 . S
Zn317 O329 2.114 1_545 S
Zn317 O332 2.080 . S
C318 O323 1.166 . S
C318 O324 1.182 . S
C319 O325 1.167 . S
C319 O326 1.299 . S
O320 Zn317 2.080 1_554 S
O320 C334 1.305 . S
O321 Zn315 1.920 1_545 S
O321 C334 1.234 . S
C322 O327 1.167 1_556 S
C322 O328 1.299 . S
O323 Zn317 2.114 . S
O323 C318 1.166 . S
O324 Zn316 1.905 . S
O324 C318 1.182 . S
O325 Zn316 1.898 . S
O325 C319 1.167 . S
O326 Zn317 2.120 . S
O326 C319 1.299 . S
O327 Zn315 1.898 1_545 S
O327 C322 1.167 1_554 S
O328 Zn317 2.120 . S
O328 C322 1.299 . S
O329 Zn317 2.114 1_565 S
O329 C331 1.166 . S
O330 Zn315 1.905 1_556 S
O330 C331 1.182 . S
C331 O329 1.166 . S
C331 O330 1.182 . S
O332 Zn317 2.080 . S
O332 C335 1.305 . S
O333 Zn316 1.920 . S
O333 C335 1.234 . S
C334 O320 1.305 . S
C334 O321 1.234 . S
C335 O332 1.305 . S
C335 O333 1.234 . S
C336 C337 1.387 . S
C336 H340 0.950 . S
C336 C345 1.390 . S
C337 C336 1.387 . S
C337 C339 1.387 1_455 S
H338 C345 0.950 . S
C339 C337 1.387 1_655 S
C339 C341 1.390 . S
C339 H343 0.950 . S
H340 C336 0.950 . S
C341 C339 1.390 . S
C341 C342 1.387 1_655 S
C341 H344 0.950 . S
C342 C341 1.387 1_455 S
C342 C345 1.387 . S
H343 C339 0.950 . S
H344 C341 0.950 . S
C345 C336 1.390 . S
C345 H338 0.950 . S
C345 C342 1.387 . S
C346 C347 1.387 . S
C346 H350 0.950 . S
C346 C355 1.390 . S
C347 C346 1.387 . S
C347 C349 1.387 1_655 S
H348 C355 0.950 . S
C349 C347 1.387 1_455 S
C349 C351 1.390 . S
C349 H353 0.950 . S
H350 C346 0.950 . S
C351 C349 1.390 . S
C351 C352 1.387 1_455 S
C351 H354 0.950 . S
C352 C351 1.387 1_655 S
C352 C355 1.387 . S
H353 C349 0.950 . S
H354 C351 0.950 . S
C355 C346 1.390 . S
C355 H348 0.950 . S
C355 C352 1.387 . S
C356 C357 1.387 . S
C356 H360 0.950 . S
C356 C365 1.390 . S
C357 C356 1.387 . S
C357 C359 1.387 1_455 S
H358 C365 0.950 . S
C359 C357 1.387 1_655 S
C359 C361 1.390 . S
C359 H363 0.950 . S
H360 C356 0.950 . S
C361 C359 1.390 . S
C361 C362 1.387 1_655 S
C361 H364 0.950 . S
C362 C361 1.387 1_455 S
C362 C365 1.387 . S
H363 C359 0.950 . S
H364 C361 0.950 . S
C365 C356 1.390 . S
C365 H358 0.950 . S
C365 C362 1.387 . S
C366 C367 1.387 1_455 S
C366 H370 0.950 . S
C366 C375 1.390 . S
C367 C366 1.387 1_655 S
C367 C369 1.387 . S
H368 C375 0.950 . S
C369 C367 1.387 . S
C369 C371 1.390 . S
C369 H373 0.950 . S
H370 C366 0.950 . S
C371 C369 1.390 . S
C371 C372 1.387 . S
C371 H374 0.950 . S
C372 C371 1.387 . S
C372 C375 1.387 1_655 S
H373 C369 0.950 . S
H374 C371 0.950 . S
C375 C366 1.390 . S
C375 H368 0.950 . S
C375 C372 1.387 1_455 S
C376 C377 1.387 1_565 S
C376 H380 0.950 . S
C376 C385 1.390 . S
C377 C376 1.387 1_545 S
C377 C379 1.387 . S
H378 C385 0.950 . S
C379 C377 1.387 . S
C379 C381 1.390 . S
C379 H383 0.950 . S
H380 C376 0.950 . S
C381 C379 1.390 . S
C381 C382 1.387 . S
C381 H384 0.950 . S
C382 C381 1.387 . S
C382 C385 1.387 1_545 S
H383 C379 0.950 . S
H384 C381 0.950 . S
C385 C376 1.390 . S
C385 H378 0.950 . S
C385 C382 1.387 1_565 S
C386 C387 1.387 . S
C386 H390 0.950 . S
C386 C395 1.390 . S
C387 C386 1.387 . S
C387 C389 1.387 . S
H388 C395 0.950 . S
C389 C387 1.387 . S
C389 C391 1.390 . S
C389 H393 0.950 . S
H390 C386 0.950 . S
C391 C389 1.390 . S
C391 C392 1.387 . S
C391 H394 0.950 . S
C392 C391 1.387 . S
C392 C395 1.387 . S
H393 C389 0.950 . S
H394 C391 0.950 . S
C395 C386 1.390 . S
C395 H388 0.950 . S
C395 C392 1.387 . S
C396 C397 1.387 1_545 S
C396 H400 0.950 . S
C396 C405 1.390 . S
C397 C396 1.387 1_565 S
C397 C399 1.387 . S
H398 C405 0.950 . S
C399 C397 1.387 . S
C399 C401 1.390 . S
C399 H403 0.950 . S
H400 C396 0.950 . S
C401 C399 1.390 . S
C401 C402 1.387 . S
C401 H404 0.950 . S
C402 C401 1.387 . S
C402 C405 1.387 1_565 S
H403 C399 0.950 . S
H404 C401 0.950 . S
C405 C396 1.390 . S
C405 H398 0.950 . S
C405 C402 1.387 1_545 S
C406 C407 1.387 . S
C406 H410 0.950 . S
C406 C415 1.390 . S
C407 C406 1.387 . S
C407 C409 1.387 . S
H408 C415 0.950 . S
C409 C407 1.387 . S
C409 C411 1.390 . S
C409 H413 0.950 . S
H410 C406 0.950 . S
C411 C409 1.390 . S
C411 C412 1.387 . S
C411 H414 0.950 . S
C412 C411 1.387 . S
C412 C415 1.387 . S
H413 C409 0.950 . S
H414 C411 0.950 . S
C415 C406 1.390 . S
C415 H408 0.950 . S
C415 C412 1.387 . S
C416 C417 1.387 . S
C416 H420 0.950 . S
C416 C425 1.390 . S
C417 C416 1.387 . S
C417 C419 1.387 1_554 S
H418 C425 0.950 . S
C419 C417 1.387 1_556 S
C419 C421 1.390 . S
C419 H423 0.950 . S
H420 C416 0.950 . S
C421 C419 1.390 . S
C421 C422 1.387 1_556 S
C421 H424 0.950 . S
C422 C421 1.387 1_554 S
C422 C425 1.387 . S
H423 C419 0.950 . S
H424 C421 0.950 . S
C425 C416 1.390 . S
C425 H418 0.950 . S
C425 C422 1.387 . S
C426 C427 1.387 . S
C426 H430 0.950 . S
C426 C435 1.390 . S
C427 C426 1.387 . S
C427 C429 1.387 . S
H428 C435 0.950 . S
C429 C427 1.387 . S
C429 C431 1.390 . S
C429 H433 0.950 . S
H430 C426 0.950 . S
C431 C429 1.390 . S
C431 C432 1.387 . S
C431 H434 0.950 . S
C432 C431 1.387 . S
C432 C435 1.387 . S
H433 C429 0.950 . S
H434 C431 0.950 . S
C435 C426 1.390 . S
C435 H428 0.950 . S
C435 C432 1.387 . S
C436 C437 1.387 . S
C436 H440 0.950 . S
C436 C445 1.390 . S
C437 C436 1.387 . S
C437 C439 1.387 . S
H438 C445 0.950 . S
C439 C437 1.387 . S
C439 C441 1.390 . S
C439 H443 0.950 . S
H440 C436 0.950 . S
C441 C439 1.390 . S
C441 C442 1.387 . S
C441 H444 0.950 . S
C442 C441 1.387 . S
C442 C445 1.387 . S
H443 C439 0.950 . S
H444 C441 0.950 . S
C445 C436 1.390 . S
C445 H438 0.950 . S
C445 C442 1.387 . S
C446 C447 1.387 . S
C446 H450 0.950 . S
C446 C455 1.390 . S
C447 C446 1.387 . S
C447 C449 1.387 . S
H448 C455 0.950 . S
C449 C447 1.387 . S
C449 C451 1.390 . S
C449 H453 0.950 . S
H450 C446 0.950 . S
C451 C449 1.390 . S
C451 C452 1.387 . S
C451 H454 0.950 . S
C452 C451 1.387 . S
C452 C455 1.387 . S
H453 C449 0.950 . S
H454 C451 0.950 . S
C455 C446 1.390 . S
C455 H448 0.950 . S
C455 C452 1.387 . S
C456 C457 1.387 . S
C456 H460 0.950 . S
C456 C465 1.390 . S
C457 C456 1.387 . S
C457 C459 1.387 . S
H458 C465 0.950 . S
C459 C457 1.387 . S
C459 C461 1.390 . S
C459 H463 0.950 . S
H460 C456 0.950 . S
C461 C459 1.390 . S
C461 C462 1.387 . S
C461 H464 0.950 . S
C462 C461 1.387 . S
C462 C465 1.387 . S
H463 C459 0.950 . S
H464 C461 0.950 . S
C465 C456 1.390 . S
C465 H458 0.950 . S
C465 C462 1.387 . S
C466 C467 1.387 . S
C466 H470 0.950 . S
C466 C475 1.390 . S
C467 C466 1.387 . S
C467 C469 1.387 . S
H468 C475 0.950 . S
C469 C467 1.387 . S
C469 C471 1.390 . S
C469 H473 0.950 . S
H470 C466 0.950 . S
C471 C469 1.390 . S
C471 C472 1.387 . S
C471 H474 0.950 . S
C472 C471 1.387 . S
C472 C475 1.387 . S
H473 C469 0.950 . S
H474 C471 0.950 . S
C475 C466 1.390 . S
C475 H468 0.950 . S
C475 C472 1.387 . S
C476 C477 1.387 . S
C476 H480 0.950 . S
C476 C485 1.390 . S
C477 C476 1.387 . S
C477 C479 1.387 . S
H478 C485 0.950 . S
C479 C477 1.387 . S
C479 C481 1.390 . S
C479 H483 0.950 . S
H480 C476 0.950 . S
C481 C479 1.390 . S
C481 C482 1.387 . S
C481 H484 0.950 . S
C482 C481 1.387 . S
C482 C485 1.387 . S
H483 C479 0.950 . S
H484 C481 0.950 . S
C485 C476 1.390 . S
C485 H478 0.950 . S
C485 C482 1.387 . S
C486 C487 1.387 . S
C486 H490 0.950 . S
C486 C495 1.390 . S
C487 C486 1.387 . S
C487 C489 1.387 . S
H488 C495 0.950 . S
C489 C487 1.387 . S
C489 C491 1.390 . S
C489 H493 0.950 . S
H490 C486 0.950 . S
C491 C489 1.390 . S
C491 C492 1.387 . S
C491 H494 0.950 . S
C492 C491 1.387 . S
C492 C495 1.387 . S
H493 C489 0.950 . S
H494 C491 0.950 . S
C495 C486 1.390 . S
C495 H488 0.950 . S
C495 C492 1.387 . S
C496 C497 1.387 . S
C496 H500 0.950 . S
C496 C505 1.390 . S
C497 C496 1.387 . S
C497 C499 1.387 . S
H498 C505 0.950 . S
C499 C497 1.387 . S
C499 C501 1.390 . S
C499 H503 0.950 . S
H500 C496 0.950 . S
C501 C499 1.390 . S
C501 C502 1.387 . S
C501 H504 0.950 . S
C502 C501 1.387 . S
C502 C505 1.387 . S
H503 C499 0.950 . S
H504 C501 0.950 . S
C505 C496 1.390 . S
C505 H498 0.950 . S
C505 C502 1.387 . S
C506 C507 1.387 1_545 S
C506 H510 0.950 . S
C506 C515 1.390 . S
C507 C506 1.387 1_565 S
C507 C509 1.387 . S
H508 C515 0.950 . S
C509 C507 1.387 . S
C509 C511 1.390 . S
C509 H513 0.950 . S
H510 C506 0.950 . S
C511 C509 1.390 . S
C511 C512 1.387 . S
C511 H514 0.950 . S
C512 C511 1.387 . S
C512 C515 1.387 1_565 S
H513 C509 0.950 . S
H514 C511 0.950 . S
C515 C506 1.390 . S
C515 H508 0.950 . S
C515 C512 1.387 1_545 S
C516 C517 1.387 . S
C516 H520 0.950 . S
C516 C525 1.390 . S
C517 C516 1.387 . S
C517 C519 1.387 . S
H518 C525 0.950 . S
C519 C517 1.387 . S
C519 C521 1.390 . S
C519 H523 0.950 . S
H520 C516 0.950 . S
C521 C519 1.390 . S
C521 C522 1.387 . S
C521 H524 0.950 . S
C522 C521 1.387 . S
C522 C525 1.387 . S
H523 C519 0.950 . S
H524 C521 0.950 . S
C525 C516 1.390 . S
C525 H518 0.950 . S
C525 C522 1.387 . S
C526 C527 1.387 . S
C526 H530 0.950 . S
C526 C535 1.390 . S
C527 C526 1.387 . S
C527 C529 1.387 . S
H528 C535 0.950 . S
C529 C527 1.387 . S
C529 C531 1.390 . S
C529 H533 0.950 1_545 S
H530 C526 0.950 . S
C531 C529 1.390 . S
C531 C532 1.387 . S
C531 H534 0.950 . S
C532 C531 1.387 . S
C532 C535 1.387 . S
H533 C529 0.950 1_565 S
H534 C531 0.950 . S
C535 C526 1.390 . S
C535 H528 0.950 . S
C535 C532 1.387 . S
C536 C537 1.387 . S
C536 H540 0.950 . S
C536 C545 1.390 . S
C537 C536 1.387 . S
C537 C539 1.387 . S
H538 C545 0.950 . S
C539 C537 1.387 . S
C539 C541 1.390 . S
C539 H543 0.950 . S
H540 C536 0.950 . S
C541 C539 1.390 . S
C541 C542 1.387 . S
C541 H544 0.950 . S
C542 C541 1.387 . S
C542 C545 1.387 . S
H543 C539 0.950 . S
H544 C541 0.950 . S
C545 C536 1.390 . S
C545 H538 0.950 . S
C545 C542 1.387 . S
C546 C547 1.387 1_554 S
C546 H550 0.950 . S
C546 C555 1.390 . S
C547 C546 1.387 1_556 S
C547 C549 1.387 . S
H548 C555 0.950 . S
C549 C547 1.387 . S
C549 C551 1.390 . S
C549 H553 0.950 . S
H550 C546 0.950 . S
C551 C549 1.390 . S
C551 C552 1.387 . S
C551 H554 0.950 . S
C552 C551 1.387 . S
C552 C555 1.387 1_556 S
H553 C549 0.950 . S
H554 C551 0.950 . S
C555 C546 1.390 . S
C555 H548 0.950 . S
C555 C552 1.387 1_554 S
C556 C557 1.387 1_554 S
C556 H560 0.950 . S
C556 C565 1.390 . S
C557 C556 1.387 1_556 S
C557 C559 1.387 . S
H558 C565 0.950 . S
C559 C557 1.387 . S
C559 C561 1.390 . S
C559 H563 0.950 . S
H560 C556 0.950 . S
C561 C559 1.390 . S
C561 C562 1.387 . S
C561 H564 0.950 . S
C562 C561 1.387 . S
C562 C565 1.387 1_556 S
H563 C559 0.950 . S
H564 C561 0.950 . S
C565 C556 1.390 . S
C565 H558 0.950 . S
C565 C562 1.387 1_554 S
C566 C567 1.387 . S
C566 H570 0.950 . S
C566 C575 1.390 . S
C567 C566 1.387 . S
C567 C569 1.387 1_554 S
H568 C575 0.950 . S
C569 C567 1.387 1_556 S
C569 C571 1.390 . S
C569 H573 0.950 . S
H570 C566 0.950 . S
C571 C569 1.390 . S
C571 C572 1.387 1_556 S
C571 H574 0.950 . S
C572 C571 1.387 1_554 S
C572 C575 1.387 . S
H573 C569 0.950 . S
H574 C571 0.950 . S
C575 C566 1.390 . S
C575 H568 0.950 . S
C575 C572 1.387 . S
C576 C577 1.387 1_655 S
C576 H580 0.950 . S
C576 C585 1.390 . S
C577 C576 1.387 1_455 S
C577 C579 1.387 . S
H578 C585 0.950 . S
C579 C577 1.387 . S
C579 C581 1.390 . S
C579 H583 0.950 . S
H580 C576 0.950 . S
C581 C579 1.390 . S
C581 C582 1.387 . S
C581 H584 0.950 . S
C582 C581 1.387 . S
C582 C585 1.387 1_455 S
H583 C579 0.950 . S
H584 C581 0.950 . S
C585 C576 1.390 . S
C585 H578 0.950 . S
C585 C582 1.387 1_655 S
C586 C587 1.387 1_455 S
C586 H590 0.950 . S
C586 C595 1.390 . S
C587 C586 1.387 1_655 S
C587 C589 1.387 . S
H588 C595 0.950 . S
C589 C587 1.387 . S
C589 C591 1.390 . S
C589 H593 0.950 . S
H590 C586 0.950 . S
C591 C589 1.390 . S
C591 C592 1.387 . S
C591 H594 0.950 . S
C592 C591 1.387 . S
C592 C595 1.387 1_655 S
H593 C589 0.950 . S
H594 C591 0.950 . S
C595 C586 1.390 . S
C595 H588 0.950 . S
C595 C592 1.387 1_455 S
C596 C597 1.387 . S
C596 H600 0.950 . S
C596 C605 1.390 . S
C597 C596 1.387 . S
C597 C599 1.387 1_455 S
H598 C605 0.950 . S
C599 C597 1.387 1_655 S
C599 C601 1.390 . S
C599 H603 0.950 . S
H600 C596 0.950 . S
C601 C599 1.390 . S
C601 C602 1.387 1_655 S
C601 H604 0.950 . S
C602 C601 1.387 1_455 S
C602 C605 1.387 . S
H603 C599 0.950 . S
H604 C601 0.950 . S
C605 C596 1.390 . S
C605 H598 0.950 . S
C605 C602 1.387 . S
C606 C607 1.387 1_455 S
C606 H610 0.950 . S
C606 C615 1.390 . S
C607 C606 1.387 1_655 S
C607 C609 1.387 . S
H608 C615 0.950 . S
C609 C607 1.387 . S
C609 C611 1.390 . S
C609 H613 0.950 . S
H610 C606 0.950 . S
C611 C609 1.390 . S
C611 C612 1.387 . S
C611 H614 0.950 . S
C612 C611 1.387 . S
C612 C615 1.387 1_655 S
H613 C609 0.950 . S
H614 C611 0.950 . S
C615 C606 1.390 . S
C615 H608 0.950 . S
C615 C612 1.387 1_455 S
C616 C617 1.387 1_565 S
C616 H620 0.950 . S
C616 C625 1.390 . S
C617 C616 1.387 1_545 S
C617 C619 1.387 . S
H618 C625 0.950 . S
C619 C617 1.387 . S
C619 C621 1.390 . S
C619 H623 0.950 . S
H620 C616 0.950 . S
C621 C619 1.390 . S
C621 C622 1.387 . S
C621 H624 0.950 . S
C622 C621 1.387 . S
C622 C625 1.387 1_545 S
H623 C619 0.950 . S
H624 C621 0.950 . S
C625 C616 1.390 . S
C625 H618 0.950 . S
C625 C622 1.387 1_565 S
C626 C627 1.387 . S
C626 H630 0.950 . S
C626 C635 1.390 . S
C627 C626 1.387 . S
C627 C629 1.387 . S
H628 C635 0.950 . S
C629 C627 1.387 . S
C629 C631 1.390 . S
C629 H633 0.950 . S
H630 C626 0.950 . S
C631 C629 1.390 . S
C631 C632 1.387 . S
C631 H634 0.950 . S
C632 C631 1.387 . S
C632 C635 1.387 . S
H633 C629 0.950 . S
H634 C631 0.950 . S
C635 C626 1.390 . S
C635 H628 0.950 . S
C635 C632 1.387 . S
C636 C637 1.387 . S
C636 H640 0.950 . S
C636 C645 1.390 . S
C637 C636 1.387 . S
C637 C639 1.387 1_565 S
H638 C645 0.950 . S
C639 C637 1.387 1_545 S
C639 C641 1.390 . S
C639 H643 0.950 . S
H640 C636 0.950 . S
C641 C639 1.390 . S
C641 C642 1.387 1_545 S
C641 H644 0.950 . S
C642 C641 1.387 1_565 S
C642 C645 1.387 . S
H643 C639 0.950 . S
H644 C641 0.950 . S
C645 C636 1.390 . S
C645 H638 0.950 . S
C645 C642 1.387 . S
C646 C647 1.387 . S
C646 H650 0.950 . S
C646 C655 1.390 . S
C647 C646 1.387 . S
C647 C649 1.387 . S
H648 C655 0.950 . S
C649 C647 1.387 . S
C649 C651 1.390 . S
C649 H653 0.950 . S
H650 C646 0.950 . S
C651 C649 1.390 . S
C651 C652 1.387 . S
C651 H654 0.950 . S
C652 C651 1.387 . S
C652 C655 1.387 . S
H653 C649 0.950 . S
H654 C651 0.950 . S
C655 C646 1.390 . S
C655 H648 0.950 . S
C655 C652 1.387 . S
C656 C657 1.387 1_556 S
C656 H660 0.950 . S
C656 C665 1.390 . S
C657 C656 1.387 1_554 S
C657 C659 1.387 . S
H658 C665 0.950 . S
C659 C657 1.387 . S
C659 C661 1.390 . S
C659 H663 0.950 . S
H660 C656 0.950 . S
C661 C659 1.390 . S
C661 C662 1.387 . S
C661 H664 0.950 . S
C662 C661 1.387 . S
C662 C665 1.387 1_554 S
H663 C659 0.950 . S
H664 C661 0.950 . S
C665 C656 1.390 . S
C665 H658 0.950 . S
C665 C662 1.387 1_556 S
C666 C667 1.387 . S
C666 H670 0.950 . S
C666 C675 1.390 . S
C667 C666 1.387 . S
C667 C669 1.387 . S
H668 C675 0.950 . S
C669 C667 1.387 . S
C669 C671 1.390 . S
C669 H673 0.950 . S
H670 C666 0.950 . S
C671 C669 1.390 . S
C671 C672 1.387 . S
C671 H674 0.950 . S
C672 C671 1.387 . S
C672 C675 1.387 . S
H673 C669 0.950 . S
H674 C671 0.950 . S
C675 C666 1.390 . S
C675 H668 0.950 . S
C675 C672 1.387 . S
C676 C677 1.387 . S
C676 H680 0.950 . S
C676 C685 1.390 . S
C677 C676 1.387 . S
C677 C679 1.387 . S
H678 C685 0.950 . S
C679 C677 1.387 . S
C679 C681 1.390 . S
C679 H683 0.950 . S
H680 C676 0.950 . S
C681 C679 1.390 . S
C681 C682 1.387 . S
C681 H684 0.950 . S
C682 C681 1.387 . S
C682 C685 1.387 . S
H683 C679 0.950 . S
H684 C681 0.950 . S
C685 C676 1.390 . S
C685 H678 0.950 . S
C685 C682 1.387 . S
C686 C687 1.387 . S
C686 H690 0.950 . S
C686 C695 1.390 . S
C687 C686 1.387 . S
C687 C689 1.387 . S
H688 C695 0.950 . S
C689 C687 1.387 . S
C689 C691 1.390 . S
C689 H693 0.950 . S
H690 C686 0.950 . S
C691 C689 1.390 . S
C691 C692 1.387 . S
C691 H694 0.950 . S
C692 C691 1.387 . S
C692 C695 1.387 . S
H693 C689 0.950 . S
H694 C691 0.950 . S
C695 C686 1.390 . S
C695 H688 0.950 . S
C695 C692 1.387 . S
C696 C697 1.387 . S
C696 H700 0.950 . S
C696 C705 1.390 . S
C697 C696 1.387 . S
C697 C699 1.387 . S
H698 C705 0.950 . S
C699 C697 1.387 . S
C699 C701 1.390 . S
C699 H703 0.950 . S
H700 C696 0.950 . S
C701 C699 1.390 . S
C701 C702 1.387 . S
C701 H704 0.950 . S
C702 C701 1.387 . S
C702 C705 1.387 . S
H703 C699 0.950 . S
H704 C701 0.950 . S
C705 C696 1.390 . S
C705 H698 0.950 . S
C705 C702 1.387 . S
C706 C707 1.387 . S
C706 H710 0.950 . S
C706 C715 1.390 . S
C707 C706 1.387 . S
C707 C709 1.387 . S
H708 C715 0.950 . S
C709 C707 1.387 . S
C709 C711 1.390 . S
C709 H713 0.950 . S
H710 C706 0.950 . S
C711 C709 1.390 . S
C711 C712 1.387 . S
C711 H714 0.950 . S
C712 C711 1.387 . S
C712 C715 1.387 . S
H713 C709 0.950 . S
H714 C711 0.950 . S
C715 C706 1.390 . S
C715 H708 0.950 . S
C715 C712 1.387 . S
C716 C717 1.387 . S
C716 H720 0.950 . S
C716 C725 1.390 . S
C717 C716 1.387 . S
C717 C719 1.387 . S
H718 C725 0.950 . S
C719 C717 1.387 . S
C719 C721 1.390 . S
C719 H723 0.950 . S
H720 C716 0.950 . S
C721 C719 1.390 . S
C721 C722 1.387 . S
C721 H724 0.950 . S
C722 C721 1.387 . S
C722 C725 1.387 . S
H723 C719 0.950 . S
H724 C721 0.950 . S
C725 C716 1.390 . S
C725 H718 0.950 . S
C725 C722 1.387 . S
C726 C727 1.387 . S
C726 H730 0.950 . S
C726 C735 1.390 . S
C727 C726 1.387 . S
C727 C729 1.387 . S
H728 C735 0.950 . S
C729 C727 1.387 . S
C729 C731 1.390 . S
C729 H733 0.950 . S
H730 C726 0.950 . S
C731 C729 1.390 . S
C731 C732 1.387 . S
C731 H734 0.950 . S
C732 C731 1.387 . S
C732 C735 1.387 . S
H733 C729 0.950 . S
H734 C731 0.950 . S
C735 C726 1.390 . S
C735 H728 0.950 . S
C735 C732 1.387 . S
C736 C737 1.387 . S
C736 H740 0.950 . S
C736 C745 1.390 . S
C737 C736 1.387 . S
C737 C739 1.387 . S
H738 C745 0.950 . S
C739 C737 1.387 . S
C739 C741 1.390 . S
C739 H743 0.950 . S
H740 C736 0.950 . S
C741 C739 1.390 . S
C741 C742 1.387 . S
C741 H744 0.950 . S
C742 C741 1.387 . S
C742 C745 1.387 . S
H743 C739 0.950 . S
H744 C741 0.950 . S
C745 C736 1.390 . S
C745 H738 0.950 . S
C745 C742 1.387 . S
C746 C747 1.387 1_545 S
C746 H750 0.950 . S
C746 C755 1.390 . S
C747 C746 1.387 1_565 S
C747 C749 1.387 . S
H748 C755 0.950 . S
C749 C747 1.387 . S
C749 C751 1.390 . S
C749 H753 0.950 . S
H750 C746 0.950 . S
C751 C749 1.390 . S
C751 C752 1.387 . S
C751 H754 0.950 . S
C752 C751 1.387 . S
C752 C755 1.387 1_565 S
H753 C749 0.950 . S
H754 C751 0.950 . S
C755 C746 1.390 . S
C755 H748 0.950 . S
C755 C752 1.387 1_545 S
C756 C757 1.387 . S
C756 H760 0.950 . S
C756 C765 1.390 . S
C757 C756 1.387 . S
C757 C759 1.387 . S
H758 C765 0.950 . S
C759 C757 1.387 . S
C759 C761 1.390 . S
C759 H763 0.950 . S
H760 C756 0.950 . S
C761 C759 1.390 . S
C761 C762 1.387 . S
C761 H764 0.950 . S
C762 C761 1.387 . S
C762 C765 1.387 . S
H763 C759 0.950 . S
H764 C761 0.950 . S
C765 C756 1.390 . S
C765 H758 0.950 . S
C765 C762 1.387 . S
C766 C767 1.387 . S
C766 H770 0.950 . S
C766 C775 1.390 . S
C767 C766 1.387 . S
C767 C769 1.387 1_545 S
H768 C775 0.950 . S
C769 C767 1.387 1_565 S
C769 C771 1.390 . S
C769 H773 0.950 . S
H770 C766 0.950 . S
C771 C769 1.390 . S
C771 C772 1.387 1_565 S
C771 H774 0.950 . S
C772 C771 1.387 1_545 S
C772 C775 1.387 . S
H773 C769 0.950 . S
H774 C771 0.950 . S
C775 C766 1.390 . S
C775 H768 0.950 . S
C775 C772 1.387 . S
C776 C777 1.387 . S
C776 H780 0.950 . S
C776 C785 1.390 . S
C777 C776 1.387 . S
C777 C779 1.387 . S
H778 C785 0.950 . S
C779 C777 1.387 . S
C779 C781 1.390 . S
C779 H783 0.950 . S
H780 C776 0.950 . S
C781 C779 1.390 . S
C781 C782 1.387 . S
C781 H784 0.950 . S
C782 C781 1.387 . S
C782 C785 1.387 . S
H783 C779 0.950 . S
H784 C781 0.950 . S
C785 C776 1.390 . S
C785 H778 0.950 . S
C785 C782 1.387 . S
C786 C787 1.387 . S
C786 H790 0.950 . S
C786 C795 1.390 . S
C787 C786 1.387 . S
C787 C789 1.387 1_556 S
H788 C795 0.950 . S
C789 C787 1.387 1_554 S
C789 C791 1.390 . S
C789 H793 0.950 . S
H790 C786 0.950 . S
C791 C789 1.390 . S
C791 C792 1.387 1_554 S
C791 H794 0.950 . S
C792 C791 1.387 1_556 S
C792 C795 1.387 . S
H793 C789 0.950 . S
H794 C791 0.950 . S
C795 C786 1.390 . S
C795 H788 0.950 . S
C795 C792 1.387 . S
C796 C797 1.387 . S
C796 H800 0.950 . S
C796 C805 1.390 . S
C797 C796 1.387 . S
C797 C799 1.387 1_556 S
H798 C805 0.950 . S
C799 C797 1.387 1_554 S
C799 C801 1.390 . S
C799 H803 0.950 . S
H800 C796 0.950 . S
C801 C799 1.390 . S
C801 C802 1.387 1_554 S
C801 H804 0.950 . S
C802 C801 1.387 1_556 S
C802 C805 1.387 . S
H803 C799 0.950 . S
H804 C801 0.950 . S
C805 C796 1.390 . S
C805 H798 0.950 . S
C805 C802 1.387 . S
C806 C807 1.387 . S
C806 H810 0.950 . S
C806 C815 1.390 . S
C807 C806 1.387 . S
C807 C809 1.387 1_554 S
H808 C815 0.950 . S
C809 C807 1.387 1_556 S
C809 C811 1.390 . S
C809 H813 0.950 . S
H810 C806 0.950 . S
C811 C809 1.390 . S
C811 C812 1.387 1_556 S
C811 H814 0.950 . S
C812 C811 1.387 1_554 S
C812 C815 1.387 . S
H813 C809 0.950 . S
H814 C811 0.950 . S
C815 C806 1.390 . S
C815 H808 0.950 . S
C815 C812 1.387 . S
C337 C13 1.609 . S
C342 C229 1.560 . S
C352 C234 1.573 . S
C347 C1 1.620 . S
C362 C172 1.557 . S
C357 C27 1.615 . S
C367 C15 1.583 . S
C372 C196 1.530 . S
C377 C28 1.598 . S
C382 C334 1.554 . S
C387 C55 1.592 . S
C392 C301 1.542 . S
C402 C255 1.575 . S
C397 C40 1.622 . S
C407 C43 1.634 . S
C412 C289 1.582 . S
C422 C208 1.574 . S
C417 C56 1.622 . S
C432 C235 1.536 . S
C427 C83 1.585 . S
C437 C96 1.615 . S
C442 C226 1.568 . S
C447 C71 1.617 . S
C452 C292 1.565 . S
C462 C313 1.562 . S
C457 C99 1.610 . S
C472 C331 1.572 . S
C467 C111 1.620 . S
C477 C113 1.615 . S
C482 C280 1.557 . S
C492 C256 1.529 . S
C487 C125 1.582 . S
C497 C139 1.599 . S
C502 C251 1.554 . S
C507 C153 1.592 . S
C512 C217 1.542 . S
C522 C205 1.572 . S
C517 C127 1.622 . S
C527 C141 1.635 . S
C532 C171 1.582 . S
C542 C272 1.577 . S
C537 C84 1.623 . S
C552 C322 1.536 . S
C547 C154 1.585 . S
C557 C68 1.615 . S
C562 C310 1.568 . S
C567 C166 1.615 . S
C572 C188 1.562 . S
C582 C187 1.142 . S
C577 C0 1.375 . S
C587 C12 1.365 . S
C592 C209 1.138 . S
C602 C214 1.140 . S
C597 C14 1.372 . S
C612 C247 1.174 . S
C607 C26 1.400 . S
C617 C41 1.398 . S
C622 C184 1.168 . S
C627 C42 1.405 . S
C632 C192 1.174 . S
C642 C230 1.140 . S
C637 C29 1.362 . S
C647 C54 1.364 . S
C652 C238 1.137 . S
C657 C69 1.372 . S
C662 C175 1.133 . S
C672 C213 1.169 . S
C667 C70 1.399 . S
C677 C85 1.362 . S
C682 C250 1.139 . S
C687 C82 1.363 . S
C692 C259 1.134 . S
C702 C293 1.139 . S
C697 C110 1.374 . S
C707 C98 1.363 . S
C712 C271 1.138 . S
C717 C124 1.374 . S
C722 C298 1.137 . S
C727 C112 1.400 . S
C732 C318 1.172 . S
C737 C126 1.398 . S
C742 C276 1.165 . S
C752 C268 1.174 . S
C747 C140 1.407 . S
C757 C138 1.365 . S
C762 C314 1.141 . S
C772 C319 1.135 . S
C767 C152 1.361 . S
C782 C277 1.133 . S
C777 C97 1.372 . S
C792 C297 1.169 . S
C787 C167 1.396 . S
C802 C335 1.140 . S
C797 C57 1.362 . S
C807 C155 1.362 . S
C812 C193 1.133 . S
