# Generated by pormake.
# Topology gar, (4,6)-cn, num edge types: 1
# Building blocks:
#     Node 0, Type 0, BuildingBlock: UXUYUI_clean_sbu_0, # of connection points: 4
#     Node 1, Type 0, BuildingBlock: UXUYUI_clean_sbu_0, # of connection points: 4
#     Node 2, Type 0, BuildingBlock: UXUYUI_clean_sbu_0, # of connection points: 4
#     Node 3, Type 0, BuildingBlock: UXUYUI_clean_sbu_0, # of connection points: 4
#     Node 4, Type 0, BuildingBlock: UXUYUI_clean_sbu_0, # of connection points: 4
#     Node 5, Type 0, BuildingBlock: UXUYUI_clean_sbu_0, # of connection points: 4
#     Node 6, Type 0, BuildingBlock: UXUYUI_clean_sbu_0, # of connection points: 4
#     Node 7, Type 0, BuildingBlock: UXUYUI_clean_sbu_0, # of connection points: 4
#     Node 8, Type 0, BuildingBlock: UXUYUI_clean_sbu_0, # of connection points: 4
#     Node 9, Type 0, BuildingBlock: UXUYUI_clean_sbu_0, # of connection points: 4
#     Node 10, Type 0, BuildingBlock: UXUYUI_clean_sbu_0, # of connection points: 4
#     Node 11, Type 0, BuildingBlock: UXUYUI_clean_sbu_0, # of connection points: 4
#     Node 12, Type 0, BuildingBlock: UXUYUI_clean_sbu_0, # of connection points: 4
#     Node 13, Type 0, BuildingBlock: UXUYUI_clean_sbu_0, # of connection points: 4
#     Node 14, Type 0, BuildingBlock: UXUYUI_clean_sbu_0, # of connection points: 4
#     Node 15, Type 0, BuildingBlock: UXUYUI_clean_sbu_0, # of connection points: 4
#     Node 16, Type 0, BuildingBlock: UXUYUI_clean_sbu_0, # of connection points: 4
#     Node 17, Type 0, BuildingBlock: UXUYUI_clean_sbu_0, # of connection points: 4
#     Node 18, Type 0, BuildingBlock: UXUYUI_clean_sbu_0, # of connection points: 4
#     Node 19, Type 0, BuildingBlock: UXUYUI_clean_sbu_0, # of connection points: 4
#     Node 20, Type 0, BuildingBlock: UXUYUI_clean_sbu_0, # of connection points: 4
#     Node 21, Type 0, BuildingBlock: UXUYUI_clean_sbu_0, # of connection points: 4
#     Node 22, Type 0, BuildingBlock: UXUYUI_clean_sbu_0, # of connection points: 4
#     Node 23, Type 0, BuildingBlock: UXUYUI_clean_sbu_0, # of connection points: 4
#     Node 24, Type 1, BuildingBlock: HISSIN_clean_sbu_0, # of connection points: 6
#     Node 25, Type 1, BuildingBlock: HISSIN_clean_sbu_0, # of connection points: 6
#     Node 26, Type 1, BuildingBlock: HISSIN_clean_sbu_0, # of connection points: 6
#     Node 27, Type 1, BuildingBlock: HISSIN_clean_sbu_0, # of connection points: 6
#     Node 28, Type 1, BuildingBlock: HISSIN_clean_sbu_0, # of connection points: 6
#     Node 29, Type 1, BuildingBlock: HISSIN_clean_sbu_0, # of connection points: 6
#     Node 30, Type 1, BuildingBlock: HISSIN_clean_sbu_0, # of connection points: 6
#     Node 31, Type 1, BuildingBlock: HISSIN_clean_sbu_0, # of connection points: 6
#     Node 32, Type 1, BuildingBlock: HISSIN_clean_sbu_0, # of connection points: 6
#     Node 33, Type 1, BuildingBlock: HISSIN_clean_sbu_0, # of connection points: 6
#     Node 34, Type 1, BuildingBlock: HISSIN_clean_sbu_0, # of connection points: 6
#     Node 35, Type 1, BuildingBlock: HISSIN_clean_sbu_0, # of connection points: 6
#     Node 36, Type 1, BuildingBlock: HISSIN_clean_sbu_0, # of connection points: 6
#     Node 37, Type 1, BuildingBlock: HISSIN_clean_sbu_0, # of connection points: 6
#     Node 38, Type 1, BuildingBlock: HISSIN_clean_sbu_0, # of connection points: 6
#     Node 39, Type 1, BuildingBlock: HISSIN_clean_sbu_0, # of connection points: 6
#     Edge 40, Type (0, 1), BuildingBlock: MIFKUJ_clean_linker_0, # of connection points: 2
#     Edge 41, Type (0, 1), BuildingBlock: MIFKUJ_clean_linker_0, # of connection points: 2
#     Edge 42, Type (0, 1), BuildingBlock: MIFKUJ_clean_linker_0, # of connection points: 2
#     Edge 43, Type (0, 1), BuildingBlock: MIFKUJ_clean_linker_0, # of connection points: 2
#     Edge 44, Type (0, 1), BuildingBlock: MIFKUJ_clean_linker_0, # of connection points: 2
#     Edge 45, Type (0, 1), BuildingBlock: MIFKUJ_clean_linker_0, # of connection points: 2
#     Edge 46, Type (0, 1), BuildingBlock: MIFKUJ_clean_linker_0, # of connection points: 2
#     Edge 47, Type (0, 1), BuildingBlock: MIFKUJ_clean_linker_0, # of connection points: 2
#     Edge 48, Type (0, 1), BuildingBlock: MIFKUJ_clean_linker_0, # of connection points: 2
#     Edge 49, Type (0, 1), BuildingBlock: MIFKUJ_clean_linker_0, # of connection points: 2
#     Edge 50, Type (0, 1), BuildingBlock: MIFKUJ_clean_linker_0, # of connection points: 2
#     Edge 51, Type (0, 1), BuildingBlock: MIFKUJ_clean_linker_0, # of connection points: 2
#     Edge 52, Type (0, 1), BuildingBlock: MIFKUJ_clean_linker_0, # of connection points: 2
#     Edge 53, Type (0, 1), BuildingBlock: MIFKUJ_clean_linker_0, # of connection points: 2
#     Edge 54, Type (0, 1), BuildingBlock: MIFKUJ_clean_linker_0, # of connection points: 2
#     Edge 55, Type (0, 1), BuildingBlock: MIFKUJ_clean_linker_0, # of connection points: 2
#     Edge 56, Type (0, 1), BuildingBlock: MIFKUJ_clean_linker_0, # of connection points: 2
#     Edge 57, Type (0, 1), BuildingBlock: MIFKUJ_clean_linker_0, # of connection points: 2
#     Edge 58, Type (0, 1), BuildingBlock: MIFKUJ_clean_linker_0, # of connection points: 2
#     Edge 59, Type (0, 1), BuildingBlock: MIFKUJ_clean_linker_0, # of connection points: 2
#     Edge 60, Type (0, 1), BuildingBlock: MIFKUJ_clean_linker_0, # of connection points: 2
#     Edge 61, Type (0, 1), BuildingBlock: MIFKUJ_clean_linker_0, # of connection points: 2
#     Edge 62, Type (0, 1), BuildingBlock: MIFKUJ_clean_linker_0, # of connection points: 2
#     Edge 63, Type (0, 1), BuildingBlock: MIFKUJ_clean_linker_0, # of connection points: 2
#     Edge 64, Type (0, 1), BuildingBlock: MIFKUJ_clean_linker_0, # of connection points: 2
#     Edge 65, Type (0, 1), BuildingBlock: MIFKUJ_clean_linker_0, # of connection points: 2
#     Edge 66, Type (0, 1), BuildingBlock: MIFKUJ_clean_linker_0, # of connection points: 2
#     Edge 67, Type (0, 1), BuildingBlock: MIFKUJ_clean_linker_0, # of connection points: 2
#     Edge 68, Type (0, 1), BuildingBlock: MIFKUJ_clean_linker_0, # of connection points: 2
#     Edge 69, Type (0, 1), BuildingBlock: MIFKUJ_clean_linker_0, # of connection points: 2
#     Edge 70, Type (0, 1), BuildingBlock: MIFKUJ_clean_linker_0, # of connection points: 2
#     Edge 71, Type (0, 1), BuildingBlock: MIFKUJ_clean_linker_0, # of connection points: 2
#     Edge 72, Type (0, 1), BuildingBlock: MIFKUJ_clean_linker_0, # of connection points: 2
#     Edge 73, Type (0, 1), BuildingBlock: MIFKUJ_clean_linker_0, # of connection points: 2
#     Edge 74, Type (0, 1), BuildingBlock: MIFKUJ_clean_linker_0, # of connection points: 2
#     Edge 75, Type (0, 1), BuildingBlock: MIFKUJ_clean_linker_0, # of connection points: 2
#     Edge 76, Type (0, 1), BuildingBlock: MIFKUJ_clean_linker_0, # of connection points: 2
#     Edge 77, Type (0, 1), BuildingBlock: MIFKUJ_clean_linker_0, # of connection points: 2
#     Edge 78, Type (0, 1), BuildingBlock: MIFKUJ_clean_linker_0, # of connection points: 2
#     Edge 79, Type (0, 1), BuildingBlock: MIFKUJ_clean_linker_0, # of connection points: 2
#     Edge 80, Type (0, 1), BuildingBlock: MIFKUJ_clean_linker_0, # of connection points: 2
#     Edge 81, Type (0, 1), BuildingBlock: MIFKUJ_clean_linker_0, # of connection points: 2
#     Edge 82, Type (0, 1), BuildingBlock: MIFKUJ_clean_linker_0, # of connection points: 2
#     Edge 83, Type (0, 1), BuildingBlock: MIFKUJ_clean_linker_0, # of connection points: 2
#     Edge 84, Type (0, 1), BuildingBlock: MIFKUJ_clean_linker_0, # of connection points: 2
#     Edge 85, Type (0, 1), BuildingBlock: MIFKUJ_clean_linker_0, # of connection points: 2
#     Edge 86, Type (0, 1), BuildingBlock: MIFKUJ_clean_linker_0, # of connection points: 2
#     Edge 87, Type (0, 1), BuildingBlock: MIFKUJ_clean_linker_0, # of connection points: 2
#     Edge 88, Type (0, 1), BuildingBlock: MIFKUJ_clean_linker_0, # of connection points: 2
#     Edge 89, Type (0, 1), BuildingBlock: MIFKUJ_clean_linker_0, # of connection points: 2
#     Edge 90, Type (0, 1), BuildingBlock: MIFKUJ_clean_linker_0, # of connection points: 2
#     Edge 91, Type (0, 1), BuildingBlock: MIFKUJ_clean_linker_0, # of connection points: 2
#     Edge 92, Type (0, 1), BuildingBlock: MIFKUJ_clean_linker_0, # of connection points: 2
#     Edge 93, Type (0, 1), BuildingBlock: MIFKUJ_clean_linker_0, # of connection points: 2
#     Edge 94, Type (0, 1), BuildingBlock: MIFKUJ_clean_linker_0, # of connection points: 2
#     Edge 95, Type (0, 1), BuildingBlock: MIFKUJ_clean_linker_0, # of connection points: 2
#     Edge 96, Type (0, 1), BuildingBlock: MIFKUJ_clean_linker_0, # of connection points: 2
#     Edge 97, Type (0, 1), BuildingBlock: MIFKUJ_clean_linker_0, # of connection points: 2
#     Edge 98, Type (0, 1), BuildingBlock: MIFKUJ_clean_linker_0, # of connection points: 2
#     Edge 99, Type (0, 1), BuildingBlock: MIFKUJ_clean_linker_0, # of connection points: 2
#     Edge 100, Type (0, 1), BuildingBlock: MIFKUJ_clean_linker_0, # of connection points: 2
#     Edge 101, Type (0, 1), BuildingBlock: MIFKUJ_clean_linker_0, # of connection points: 2
#     Edge 102, Type (0, 1), BuildingBlock: MIFKUJ_clean_linker_0, # of connection points: 2
#     Edge 103, Type (0, 1), BuildingBlock: MIFKUJ_clean_linker_0, # of connection points: 2
#     Edge 104, Type (0, 1), BuildingBlock: MIFKUJ_clean_linker_0, # of connection points: 2
#     Edge 105, Type (0, 1), BuildingBlock: MIFKUJ_clean_linker_0, # of connection points: 2
#     Edge 106, Type (0, 1), BuildingBlock: MIFKUJ_clean_linker_0, # of connection points: 2
#     Edge 107, Type (0, 1), BuildingBlock: MIFKUJ_clean_linker_0, # of connection points: 2
#     Edge 108, Type (0, 1), BuildingBlock: MIFKUJ_clean_linker_0, # of connection points: 2
#     Edge 109, Type (0, 1), BuildingBlock: MIFKUJ_clean_linker_0, # of connection points: 2
#     Edge 110, Type (0, 1), BuildingBlock: MIFKUJ_clean_linker_0, # of connection points: 2
#     Edge 111, Type (0, 1), BuildingBlock: MIFKUJ_clean_linker_0, # of connection points: 2
#     Edge 112, Type (0, 1), BuildingBlock: MIFKUJ_clean_linker_0, # of connection points: 2
#     Edge 113, Type (0, 1), BuildingBlock: MIFKUJ_clean_linker_0, # of connection points: 2
#     Edge 114, Type (0, 1), BuildingBlock: MIFKUJ_clean_linker_0, # of connection points: 2
#     Edge 115, Type (0, 1), BuildingBlock: MIFKUJ_clean_linker_0, # of connection points: 2
#     Edge 116, Type (0, 1), BuildingBlock: MIFKUJ_clean_linker_0, # of connection points: 2
#     Edge 117, Type (0, 1), BuildingBlock: MIFKUJ_clean_linker_0, # of connection points: 2
#     Edge 118, Type (0, 1), BuildingBlock: MIFKUJ_clean_linker_0, # of connection points: 2
#     Edge 119, Type (0, 1), BuildingBlock: MIFKUJ_clean_linker_0, # of connection points: 2
#     Edge 120, Type (0, 1), BuildingBlock: MIFKUJ_clean_linker_0, # of connection points: 2
#     Edge 121, Type (0, 1), BuildingBlock: MIFKUJ_clean_linker_0, # of connection points: 2
#     Edge 122, Type (0, 1), BuildingBlock: MIFKUJ_clean_linker_0, # of connection points: 2
#     Edge 123, Type (0, 1), BuildingBlock: MIFKUJ_clean_linker_0, # of connection points: 2
#     Edge 124, Type (0, 1), BuildingBlock: MIFKUJ_clean_linker_0, # of connection points: 2
#     Edge 125, Type (0, 1), BuildingBlock: MIFKUJ_clean_linker_0, # of connection points: 2
#     Edge 126, Type (0, 1), BuildingBlock: MIFKUJ_clean_linker_0, # of connection points: 2
#     Edge 127, Type (0, 1), BuildingBlock: MIFKUJ_clean_linker_0, # of connection points: 2
#     Edge 128, Type (0, 1), BuildingBlock: MIFKUJ_clean_linker_0, # of connection points: 2
#     Edge 129, Type (0, 1), BuildingBlock: MIFKUJ_clean_linker_0, # of connection points: 2
#     Edge 130, Type (0, 1), BuildingBlock: MIFKUJ_clean_linker_0, # of connection points: 2
#     Edge 131, Type (0, 1), BuildingBlock: MIFKUJ_clean_linker_0, # of connection points: 2
#     Edge 132, Type (0, 1), BuildingBlock: MIFKUJ_clean_linker_0, # of connection points: 2
#     Edge 133, Type (0, 1), BuildingBlock: MIFKUJ_clean_linker_0, # of connection points: 2
#     Edge 134, Type (0, 1), BuildingBlock: MIFKUJ_clean_linker_0, # of connection points: 2
#     Edge 135, Type (0, 1), BuildingBlock: MIFKUJ_clean_linker_0, # of connection points: 2
# Relax obj value: 0.162
# Max RMSD: 0.250
# Mean RMSD: 0.179
data_MOF--net-gar--node1-UXUYUI_clean_sbu_0--node2-HISSIN_clean_sbu_0--edge1-MIFKUJ_clean_linker_0
_symmetry_space_group_name_H-M    P1
_symmetry_Int_Tables_number       1
_symmetry_cell_setting            triclinic
loop_
_symmetry_equiv_pos_as_xyz
'x, y, z'
_cell_length_a     88.584709
_cell_length_b     88.509379
_cell_length_c     87.43115
_cell_angle_alpha  98.886578
_cell_angle_beta   93.321255
_cell_angle_gamma 99.947718
loop_
_atom_site_label
_atom_site_type_symbol
_atom_site_fract_x
_atom_site_fract_y
_atom_site_fract_z
_atom_type_partial_charge
Li0 Li 0.05523 0.28559 0.37236 0.0
Li1 Li 0.06725 0.303 0.39474 0.0
Li2 Li 0.083 0.29096 0.37705 0.0
Li3 Li 0.06626 0.27563 0.39413 0.0
C4 C 0.06283 0.31641 0.36721 0.0
N5 N 0.04917 0.33859 0.35565 0.0
C6 C 0.04951 0.32043 0.37318 0.0
C7 C 0.06923 0.32368 0.35537 0.0
C8 C 0.04278 0.33169 0.3672 0.0
C9 C 0.06213 0.33485 0.34967 0.0
C10 C 0.03713 0.28745 0.40235 0.0
C11 C 0.02526 0.28411 0.42605 0.0
N12 N 0.01277 0.28928 0.4205 0.0
C13 C 0.0241 0.29258 0.39683 0.0
C14 C 0.03767 0.28305 0.41704 0.0
C15 C 0.01194 0.29349 0.4062 0.0
C16 C 0.02635 0.26977 0.36053 0.0
N17 N 0.0382 0.28042 0.35734 0.0
C18 C 0.02411 0.28352 0.3343 0.0
C19 C 0.03752 0.28704 0.34435 0.0
C20 C 0.01143 0.273 0.33765 0.0
C21 C 0.01279 0.26583 0.35079 0.0
H22 H 0.02739 0.26452 0.37084 0.0
H23 H 0.04725 0.29522 0.34191 0.0
C24 C 0.07613 0.33496 0.40394 0.0
N25 N 0.06677 0.32231 0.40744 0.0
C26 C 0.07539 0.34981 0.41156 0.0
C27 C 0.05573 0.33828 0.42653 0.0
C28 C 0.05702 0.32366 0.4188 0.0
C29 C 0.06478 0.35153 0.42268 0.0
H30 H 0.08385 0.33351 0.39491 0.0
H31 H 0.05001 0.3135 0.42172 0.0
C32 C 0.06424 0.26168 0.35719 0.0
N33 N 0.05288 0.24529 0.32815 0.0
C34 C 0.05459 0.24719 0.35577 0.0
C35 C 0.06819 0.26781 0.34386 0.0
C36 C 0.04894 0.23908 0.34098 0.0
C37 C 0.06231 0.25935 0.32927 0.0
C38 C 0.09133 0.30302 0.41286 0.0
C39 C 0.10394 0.31446 0.41145 0.0
C40 C 0.08524 0.30267 0.42722 0.0
C41 C 0.11019 0.3255 0.42446 0.0
C42 C 0.0918 0.31393 0.43995 0.0
N43 N 0.10403 0.32502 0.43831 0.0
C44 C 0.10751 0.30759 0.3646 0.0
C45 C 0.10676 0.28034 0.36165 0.0
C46 C 0.11984 0.30933 0.35543 0.0
N47 N 0.10116 0.29323 0.36726 0.0
C48 C 0.11904 0.28153 0.3524 0.0
C49 C 0.12551 0.29613 0.34894 0.0
H50 H 0.10264 0.31757 0.36919 0.0
H51 H 0.10133 0.26909 0.36393 0.0
C52 C 0.0504 0.24835 0.40104 0.0
N53 N 0.06351 0.25906 0.40512 0.0
C54 C 0.04699 0.23604 0.40918 0.0
C55 C 0.0706 0.24621 0.4257 0.0
C56 C 0.07363 0.25825 0.4171 0.0
C57 C 0.05712 0.23496 0.42173 0.0
H58 H 0.04245 0.24959 0.39164 0.0
H59 H 0.08392 0.26705 0.42008 0.0
O60 O 0.06966 0.30541 0.37281 0.0
O61 O 0.04912 0.28638 0.39329 0.0
O62 O 0.06942 0.27009 0.37157 0.0
O63 O 0.08481 0.29237 0.40017 0.0
H64 H 0.04449 0.31501 0.38239 0.0
H65 H 0.07951 0.32065 0.35058 0.0
H66 H 0.03248 0.33493 0.37174 0.0
H67 H 0.06693 0.34054 0.34047 0.0
H68 H 0.02557 0.28085 0.43747 0.0
H69 H 0.02334 0.29578 0.38539 0.0
H70 H 0.04763 0.27906 0.42153 0.0
H71 H 1.00183 0.2975 0.40209 0.0
H72 H 0.02351 0.28938 0.32435 0.0
H73 H 0.00341 0.25744 0.35363 0.0
H74 H 0.08252 0.35986 0.40832 0.0
H75 H 0.04758 0.33926 0.43524 0.0
H76 H 0.0514 0.24229 0.36597 0.0
H77 H 0.07548 0.27912 0.34476 0.0
H78 H 0.0414 0.22788 0.3397 0.0
H79 H 0.06517 0.264 0.31885 0.0
H80 H 0.10875 0.31489 0.40039 0.0
H81 H 0.07541 0.29394 0.42846 0.0
H82 H 0.1199 0.33448 0.42353 0.0
H83 H 0.08714 0.31389 0.45111 0.0
H84 H 0.12446 0.32075 0.35292 0.0
H85 H 0.12326 0.27112 0.34778 0.0
H86 H 0.03639 0.22769 0.40595 0.0
H87 H 0.07868 0.24565 0.43529 0.0
Li88 Li 0.99568 0.77528 0.62566 0.0
Li89 Li 0.00796 0.7663 0.64798 0.0
Li90 Li 0.99346 0.74786 0.62704 0.0
Li91 Li 0.9806 0.76255 0.64533 0.0
C92 C 0.01957 0.75573 0.61487 0.0
N93 N 0.03337 0.73889 0.59226 0.0
C94 C 0.03114 0.74788 0.6191 0.0
C95 C 0.01508 0.75513 0.59916 0.0
C96 C 0.03796 0.7394 0.60748 0.0
C97 C 0.02218 0.74653 0.5879 0.0
C98 C 0.00396 0.79408 0.65924 0.0
C99 C 0.0133 0.80448 0.6859 0.0
N100 N 0.02277 0.8163 0.68109 0.0
C101 C 0.0137 0.80639 0.65456 0.0
C102 C 0.00366 0.79316 0.67504 0.0
C103 C 0.02314 0.81749 0.66578 0.0
C104 C 0.98597 0.79769 0.60954 0.0
N105 N 0.99797 0.79093 0.61342 0.0
C106 C 0.01519 0.80805 0.60112 0.0
C107 C 0.01235 0.79578 0.60939 0.0
C108 C 0.00307 0.81537 0.59697 0.0
C109 C 0.98826 0.81 0.60119 0.0
H110 H 0.97468 0.7936 0.61306 0.0
H111 H 0.02171 0.79035 0.61295 0.0
C112 C 0.02662 0.76384 0.67436 0.0
N113 N 0.02597 0.77079 0.66161 0.0
C114 C 0.04011 0.76676 0.68418 0.0
C115 C 0.05201 0.7839 0.66747 0.0
C116 C 0.03825 0.78068 0.658 0.0
C117 C 0.05306 0.7768 0.68068 0.0
H118 H 0.0168 0.75577 0.67673 0.0
H119 H 0.03738 0.7859 0.64766 0.0
C120 C 0.96742 0.75071 0.60979 0.0
N121 N 0.94854 0.73367 0.58448 0.0
C122 C 0.95727 0.73719 0.61139 0.0
C123 C 0.96794 0.75559 0.59533 0.0
C124 C 0.94784 0.72872 0.59845 0.0
C125 C 0.95831 0.74681 0.58268 0.0
C126 C 0.98515 0.73852 0.65867 0.0
C127 C 0.97699 0.72363 0.65251 0.0
C128 C 0.9845 0.74451 0.67434 0.0
C129 C 0.96836 0.71497 0.66214 0.0
C130 C 0.97571 0.7355 0.68357 0.0
N131 N 0.9679 0.72104 0.67734 0.0
C132 C 1.00194 0.71925 0.62313 0.0
C133 C 0.9884 0.72301 0.60027 0.0
C134 C 0.00376 0.70456 0.61606 0.0
N135 N 0.99412 0.72802 0.61531 0.0
C136 C 0.98976 0.70828 0.59278 0.0
C137 C 0.99747 0.69881 0.60073 0.0
H138 H 0.0069 0.72377 0.63489 0.0
H139 H 0.983 0.73044 0.59393 0.0
C140 C 0.9617 0.7766 0.66547 0.0
N141 N 0.96298 0.76303 0.65644 0.0
C142 C 0.94952 0.77718 0.67482 0.0
C143 C 0.94015 0.74984 0.66521 0.0
C144 C 0.95229 0.7499 0.65581 0.0
C145 C 0.93868 0.76359 0.67498 0.0
H146 H 0.97019 0.78696 0.66551 0.0
H147 H 0.95342 0.73933 0.64838 0.0
O148 O 0.01243 0.76369 0.62606 0.0
O149 O 0.99495 0.78283 0.6484 0.0
O150 O 0.97659 0.7593 0.62234 0.0
O151 O 0.99373 0.74718 0.64943 0.0
H152 H 0.03468 0.74821 0.63122 0.0
H153 H 0.00604 0.76105 0.59573 0.0
H154 H 0.04687 0.73318 0.61057 0.0
H155 H 0.01875 0.74586 0.5757 0.0
H156 H 0.01328 0.80384 0.69816 0.0
H157 H 0.01407 0.80729 0.64239 0.0
H158 H 0.9962 0.7837 0.67886 0.0
H159 H 0.03081 0.82703 0.66232 0.0
H160 H 0.02682 0.81202 0.59839 0.0
H161 H 0.9786 0.81527 0.59811 0.0
H162 H 0.04058 0.76078 0.69406 0.0
H163 H 0.06177 0.79171 0.66441 0.0
H164 H 0.95685 0.73314 0.62241 0.0
H165 H 0.97577 0.76598 0.59386 0.0
H166 H 0.93999 0.71819 0.59949 0.0
H167 H 0.95862 0.75042 0.57141 0.0
H168 H 0.97705 0.71887 0.64037 0.0
H169 H 0.99051 0.75608 0.67928 0.0
H170 H 0.96195 0.70346 0.6575 0.0
H171 H 0.97504 0.74003 0.69569 0.0
H172 H 0.01023 0.69791 0.62248 0.0
H173 H 0.98479 0.70435 0.58092 0.0
H174 H 0.94865 0.78816 0.6818 0.0
H175 H 0.93224 0.73901 0.66504 0.0
Li176 Li 0.55665 0.79347 0.8813 0.0
Li177 Li 0.57077 0.80938 0.9033 0.0
Li178 Li 0.58424 0.79607 0.88374 0.0
Li179 Li 0.56748 0.78155 0.90164 0.0
C180 C 0.57028 0.82065 0.87011 0.0
N181 N 0.56647 0.8378 0.84673 0.0
C182 C 0.56172 0.83258 0.87219 0.0
C183 C 0.57706 0.81759 0.85617 0.0
C184 C 0.55987 0.84106 0.86022 0.0
C185 C 0.57496 0.82636 0.84449 0.0
C186 C 0.54027 0.80145 0.90892 0.0
C187 C 0.52262 0.80531 0.92852 0.0
N188 N 0.51763 0.81628 0.92124 0.0
C189 C 0.53491 0.81269 0.90158 0.0
C190 C 0.53404 0.79766 0.92246 0.0
C191 C 0.52348 0.82009 0.90801 0.0
C192 C 0.52575 0.78196 0.87196 0.0
N193 N 0.53861 0.79011 0.86728 0.0
C194 C 0.52474 0.79278 0.84393 0.0
C195 C 0.53841 0.79521 0.8534 0.0
C196 C 0.51117 0.78485 0.84871 0.0
C197 C 0.51183 0.77919 0.86282 0.0
H198 H 0.52631 0.77763 0.88285 0.0
H199 H 0.54879 0.80109 0.84956 0.0
C200 C 0.5778 0.84159 0.91172 0.0
N201 N 0.57198 0.82833 0.917 0.0
C202 C 0.57697 0.85601 0.92025 0.0
C203 C 0.56527 0.84284 0.94008 0.0
C204 C 0.56622 0.82866 0.93108 0.0
C205 C 0.57026 0.85674 0.93444 0.0
H206 H 0.58259 0.84094 0.9006 0.0
H207 H 0.56197 0.81792 0.93513 0.0
C208 C 0.56026 0.76691 0.86621 0.0
N209 N 0.54209 0.74859 0.84109 0.0
C210 C 0.54911 0.75438 0.86844 0.0
C211 C 0.56224 0.77006 0.8512 0.0
C212 C 0.54002 0.74527 0.85559 0.0
C213 C 0.55293 0.76068 0.83865 0.0
C214 C 0.59386 0.8055 0.9207 0.0
C215 C 0.6055 0.8184 0.92087 0.0
C216 C 0.58872 0.80177 0.9347 0.0
C217 C 0.61173 0.82746 0.93508 0.0
C218 C 0.59526 0.8111 0.94868 0.0
N219 N 0.60651 0.82365 0.94858 0.0
C220 C 0.61166 0.81096 0.87426 0.0
C221 C 0.60336 0.78459 0.86233 0.0
C222 C 0.62346 0.81275 0.86444 0.0
N223 N 0.60184 0.79711 0.87284 0.0
C224 C 0.61479 0.78595 0.85209 0.0
C225 C 0.6248 0.80023 0.85298 0.0
H226 H 0.60986 0.82079 0.88249 0.0
H227 H 0.59532 0.77376 0.86149 0.0
C228 C 0.54924 0.75811 0.91316 0.0
N229 N 0.56413 0.76463 0.91224 0.0
C230 C 0.54575 0.74533 0.92065 0.0
C231 C 0.57303 0.74644 0.92639 0.0
C232 C 0.576 0.75915 0.91863 0.0
C233 C 0.55773 0.73933 0.92735 0.0
H234 H 0.54009 0.76282 0.90795 0.0
H235 H 0.58772 0.76465 0.91769 0.0
O236 O 0.57246 0.81241 0.88183 0.0
O237 O 0.5516 0.79419 0.90295 0.0
O238 O 0.56893 0.77626 0.8787 0.0
O239 O 0.58727 0.79678 0.90689 0.0
H240 H 0.55663 0.83537 0.88298 0.0
H241 H 0.58365 0.80839 0.85422 0.0
H242 H 0.55324 0.85029 0.86169 0.0
H243 H 0.58005 0.82402 0.83362 0.0
H244 H 0.51774 0.80255 0.93903 0.0
H245 H 0.5395 0.81562 0.89103 0.0
H246 H 0.53809 0.78898 0.92828 0.0
H247 H 0.51925 0.82884 0.90246 0.0
H248 H 0.52475 0.79739 0.83315 0.0
H249 H 0.5017 0.77273 0.86679 0.0
H250 H 0.58088 0.8664 0.9154 0.0
H251 H 0.56035 0.8429 0.95113 0.0
H252 H 0.54741 0.75179 0.87996 0.0
H253 H 0.57069 0.77982 0.84928 0.0
H254 H 0.5313 0.73559 0.85715 0.0
H255 H 0.55425 0.76306 0.82699 0.0
H256 H 0.60955 0.82149 0.91014 0.0
H257 H 0.5796 0.79192 0.93476 0.0
H258 H 0.62067 0.83753 0.93539 0.0
H259 H 0.59132 0.80842 0.9596 0.0
H260 H 0.63099 0.82393 0.86531 0.0
H261 H 0.61566 0.77606 0.8434 0.0
H262 H 0.53382 0.74029 0.92134 0.0
H263 H 0.58256 0.74206 0.93135 0.0
Li264 Li 0.4934 0.27179 0.11867 0.0
Li265 Li 0.50579 0.26216 0.14069 0.0
Li266 Li 0.49014 0.24437 0.11993 0.0
Li267 Li 0.47839 0.25974 0.13866 0.0
C268 C 0.51671 0.25068 0.10801 0.0
N269 N 0.53026 0.2321 0.08666 0.0
C270 C 0.52751 0.24234 0.11308 0.0
C271 C 0.51291 0.24972 0.09211 0.0
C272 C 0.53421 0.23297 0.10209 0.0
C273 C 0.51986 0.24023 0.0815 0.0
C274 C 0.50259 0.29094 0.15207 0.0
C275 C 0.51307 0.30153 0.17838 0.0
N276 N 0.52089 0.31418 0.17333 0.0
C277 C 0.51065 0.3041 0.14715 0.0
C278 C 0.50371 0.28968 0.16782 0.0
C279 C 0.51987 0.31571 0.15808 0.0
C280 C 0.48393 0.29499 0.10395 0.0
N281 N 0.49575 0.28754 0.10657 0.0
C282 C 0.51234 0.30408 0.09312 0.0
C283 C 0.50975 0.29175 0.10135 0.0
C284 C 0.50038 0.31212 0.09028 0.0
C285 C 0.48599 0.30738 0.09571 0.0
H286 H 0.47296 0.29137 0.10838 0.0
H287 H 0.51899 0.28573 0.1039 0.0
C288 C 0.52511 0.25341 0.16242 0.0
N289 N 0.52383 0.26489 0.15404 0.0
C290 C 0.53848 0.25411 0.17185 0.0
C291 C 0.54895 0.27857 0.16399 0.0
C292 C 0.53543 0.27725 0.15448 0.0
C293 C 0.55058 0.26679 0.17265 0.0
H294 H 0.51587 0.24351 0.16151 0.0
H295 H 0.53428 0.28593 0.14726 0.0
C296 C 0.46488 0.24834 0.10278 0.0
N297 N 0.44652 0.23221 0.07673 0.0
C298 C 0.4539 0.23526 0.1039 0.0
C299 C 0.46649 0.25326 0.08841 0.0
C300 C 0.44475 0.22724 0.09059 0.0
C301 C 0.4571 0.24494 0.07538 0.0
C302 C 0.48222 0.23551 0.1518 0.0
C303 C 0.47233 0.22149 0.14571 0.0
C304 C 0.48343 0.24105 0.16776 0.0
C305 C 0.46375 0.2133 0.15571 0.0
C306 C 0.47462 0.23253 0.17737 0.0
N307 N 0.46505 0.21895 0.17119 0.0
C308 C 0.49726 0.21526 0.1165 0.0
C309 C 0.48475 0.21935 0.09318 0.0
C310 C 0.4995 0.20075 0.1094 0.0
N311 N 0.48998 0.22423 0.10839 0.0
C312 C 0.48655 0.20476 0.08565 0.0
C313 C 0.49417 0.1954 0.09378 0.0
H314 H 0.50176 0.21961 0.12842 0.0
H315 H 0.47973 0.22691 0.08668 0.0
C316 C 0.46165 0.27446 0.16063 0.0
N317 N 0.46141 0.2611 0.15055 0.0
C318 C 0.44996 0.27565 0.17048 0.0
C319 C 0.43781 0.24937 0.15915 0.0
C320 C 0.44964 0.24879 0.14939 0.0
C321 C 0.43793 0.26291 0.16996 0.0
H322 H 0.47097 0.2842 0.1611 0.0
H323 H 0.44961 0.23838 0.14115 0.0
O324 O 0.50966 0.2595 0.11859 0.0
O325 O 0.49361 0.27939 0.14152 0.0
O326 O 0.47372 0.25655 0.11572 0.0
O327 O 0.49071 0.24373 0.1422 0.0
H328 H 0.53053 0.24295 0.12536 0.0
H329 H 0.50449 0.25605 0.08804 0.0
H330 H 0.5425 0.22634 0.10582 0.0
H331 H 0.51694 0.23925 0.06916 0.0
H332 H 0.51412 0.30065 0.19059 0.0
H333 H 0.50986 0.30531 0.13502 0.0
H334 H 0.49752 0.27959 0.17182 0.0
H335 H 0.52623 0.32592 0.15444 0.0
H336 H 0.52368 0.30754 0.08938 0.0
H337 H 0.47644 0.31318 0.09364 0.0
H338 H 0.53943 0.2448 0.17836 0.0
H339 H 0.55821 0.28837 0.16418 0.0
H340 H 0.45258 0.23122 0.11488 0.0
H341 H 0.47494 0.26332 0.08731 0.0
H342 H 0.43626 0.21705 0.09128 0.0
H343 H 0.45825 0.24858 0.06418 0.0
H344 H 0.4711 0.2171 0.13336 0.0
H345 H 0.49104 0.25185 0.17267 0.0
H346 H 0.45599 0.20248 0.15114 0.0
H347 H 0.47539 0.23671 0.18974 0.0
H348 H 0.50546 0.19383 0.11601 0.0
H349 H 0.48258 0.2011 0.07347 0.0
H350 H 0.45032 0.28645 0.17836 0.0
H351 H 0.42885 0.23921 0.15842 0.0
Li352 Li 0.05282 0.78114 0.11446 0.0
Li353 Li 0.06561 0.77164 0.13541 0.0
Li354 Li 0.05411 0.75376 0.11187 0.0
Li355 Li 0.03849 0.76513 0.13119 0.0
C356 C 0.08257 0.76822 0.1049 0.0
N357 N 0.10537 0.76057 0.08652 0.0
C358 C 0.0961 0.76499 0.11164 0.0
C359 C 0.08069 0.76768 0.08883 0.0
C360 C 0.10748 0.76111 0.10214 0.0
C361 C 0.09233 0.76375 0.07973 0.0
C362 C 0.05797 0.79748 0.14875 0.0
C363 C 0.06569 0.80634 0.17602 0.0
N364 N 0.07351 0.81988 0.17262 0.0
C365 C 0.06598 0.81152 0.14553 0.0
C366 C 0.05771 0.79489 0.16411 0.0
C367 C 0.07379 0.82269 0.15777 0.0
C368 C 0.03974 0.80339 0.10139 0.0
N369 N 0.05284 0.79764 0.10342 0.0
C370 C 0.06619 0.81501 0.08834 0.0
C371 C 0.06602 0.8034 0.09744 0.0
C372 C 0.05264 0.82069 0.08547 0.0
C373 C 0.03934 0.8149 0.09227 0.0
H374 H 0.02958 0.79888 0.10671 0.0
H375 H 0.07636 0.79886 0.0996 0.0
C376 C 0.08397 0.76649 0.16047 0.0
N377 N 0.08261 0.77632 0.15021 0.0
C378 C 0.097 0.76913 0.1709 0.0
C379 C 0.10675 0.79218 0.16018 0.0
C380 C 0.09359 0.789 0.14987 0.0
C381 C 0.10868 0.78203 0.1707 0.0
H382 H 0.07516 0.75635 0.16024 0.0
H383 H 0.09224 0.79643 0.14136 0.0
C384 C 0.0267 0.76526 0.09632 0.0
N385 N 0.0082 0.77031 0.07179 0.0
C386 C 0.01196 0.76829 0.09863 0.0
C387 C 0.03199 0.76467 0.08152 0.0
C388 C 0.00279 0.77084 0.08607 0.0
C389 C 0.02248 0.76731 0.06928 0.0
C390 C 0.04496 0.7398 0.14103 0.0
C391 C 0.03907 0.7249 0.13282 0.0
C392 C 0.04228 0.74352 0.15665 0.0
C393 C 0.03039 0.714 0.14034 0.0
C394 C 0.03353 0.7323 0.16374 0.0
N395 N 0.02781 0.7179 0.15551 0.0
C396 C 0.06851 0.73028 0.09646 0.0
C397 C 0.04233 0.72911 0.08814 0.0
C398 C 0.06926 0.7174 0.08533 0.0
N399 N 0.05528 0.73602 0.0974 0.0
C400 C 0.04246 0.71605 0.07705 0.0
C401 C 0.05609 0.71009 0.07545 0.0
H402 H 0.07847 0.73564 0.10435 0.0
H403 H 0.03182 0.73363 0.08951 0.0
C404 C 0.0168 0.77465 0.15009 0.0
N405 N 0.01988 0.76217 0.14052 0.0
C406 C 0.00333 0.77344 0.15757 0.0
C407 C 0.99635 0.74654 0.14508 0.0
C408 C 0.00986 0.74838 0.13758 0.0
C409 C 0.99299 0.75917 0.15532 0.0
H410 H 0.02477 0.7856 0.15184 0.0
H411 H 0.01244 0.73879 0.12955 0.0
O412 O 0.07134 0.77214 0.11403 0.0
O413 O 0.0505 0.78628 0.13691 0.0
O414 O 0.0358 0.76265 0.10845 0.0
O415 O 0.05343 0.75065 0.13385 0.0
H416 H 0.09775 0.76531 0.12405 0.0
H417 H 0.07036 0.77028 0.08344 0.0
H418 H 0.11798 0.75851 0.10719 0.0
H419 H 0.09101 0.76325 0.06728 0.0
H420 H 0.0657 0.80445 0.18795 0.0
H421 H 0.06627 0.8137 0.1337 0.0
H422 H 0.05156 0.78408 0.16678 0.0
H423 H 0.08012 0.83358 0.15545 0.0
H424 H 0.07666 0.81921 0.0833 0.0
H425 H 0.02876 0.81924 0.09054 0.0
H426 H 0.09816 0.76083 0.17858 0.0
H427 H 0.11544 0.8023 0.15972 0.0
H428 H 0.00768 0.76871 0.11 0.0
H429 H 0.0433 0.76218 0.07953 0.0
H430 H 0.99136 0.77323 0.08769 0.0
H431 H 0.02644 0.76693 0.05778 0.0
H432 H 0.0411 0.7218 0.12076 0.0
H433 H 0.04676 0.755 0.16316 0.0
H434 H 0.02569 0.70244 0.13412 0.0
H435 H 0.03126 0.73505 0.17578 0.0
H436 H 0.08003 0.71325 0.08451 0.0
H437 H 0.03189 0.71052 0.07005 0.0
H438 H 1.00102 0.78365 0.16493 0.0
H439 H 0.98877 0.73531 0.14302 0.0
Li440 Li 0.50994 0.79332 0.41208 0.0
Li441 Li 0.49414 0.77886 0.39025 0.0
Li442 Li 0.50753 0.76578 0.40853 0.0
Li443 Li 0.52188 0.78165 0.39125 0.0
C444 C 0.47968 0.78373 0.41951 0.0
N445 N 0.4572 0.7963 0.43489 0.0
C446 C 0.47511 0.79705 0.4155 0.0
C447 C 0.47287 0.77682 0.43136 0.0
C448 C 0.4637 0.80321 0.42341 0.0
C449 C 0.46151 0.78335 0.439 0.0
C450 C 0.50932 0.80228 0.3764 0.0
C451 C 0.5077 0.7955 0.34847 0.0
N452 N 0.50927 0.81082 0.3473 0.0
C453 C 0.51092 0.81796 0.37492 0.0
C454 C 0.50769 0.79094 0.36306 0.0
C455 C 0.51086 0.82205 0.36011 0.0
C456 C 0.52111 0.8243 0.4229 0.0
N457 N 0.51236 0.81162 0.42695 0.0
C458 C 0.50725 0.82653 0.45057 0.0
C459 C 0.50575 0.81235 0.44062 0.0
C460 C 0.51583 0.83998 0.44646 0.0
C461 C 0.52311 0.83865 0.43258 0.0
H462 H 0.52646 0.82325 0.41207 0.0
H463 H 0.49916 0.80199 0.44374 0.0
C464 C 0.46905 0.76202 0.37058 0.0
N465 N 0.4761 0.77665 0.37712 0.0
C466 C 0.45604 0.75976 0.36015 0.0
C467 C 0.45756 0.78768 0.36386 0.0
C468 C 0.47068 0.78941 0.374 0.0
C469 C 0.45019 0.77272 0.35677 0.0
H470 H 0.47359 0.75213 0.37344 0.0
H471 H 0.47662 0.80091 0.37926 0.0
C472 C 0.53368 0.78842 0.42778 0.0
N473 N 0.5468 0.80381 0.45668 0.0
C474 C 0.54718 0.79952 0.42906 0.0
C475 C 0.52691 0.78506 0.44122 0.0
C476 C 0.55361 0.8072 0.44377 0.0
C477 C 0.53371 0.79298 0.45572 0.0
C478 C 0.51113 0.74921 0.37839 0.0
C479 C 0.52374 0.74445 0.38528 0.0
C480 C 0.50392 0.74091 0.36418 0.0
C481 C 0.52881 0.7313 0.37792 0.0
C482 C 0.50936 0.72786 0.35717 0.0
N483 N 0.52158 0.72335 0.36414 0.0
C484 C 0.49232 0.73893 0.41855 0.0
C485 C 0.51927 0.74548 0.42524 0.0
C486 C 0.49125 0.72624 0.42639 0.0
N487 N 0.50617 0.7482 0.4182 0.0
C488 C 0.51875 0.73297 0.43316 0.0
C489 C 0.50461 0.72317 0.43381 0.0
H490 H 0.48211 0.74151 0.41287 0.0
H491 H 0.53009 0.75316 0.42485 0.0
C492 C 0.54908 0.79827 0.38389 0.0
N493 N 0.53907 0.78459 0.3795 0.0
C494 C 0.5621 0.80167 0.37593 0.0
C495 C 0.55395 0.77703 0.35876 0.0
C496 C 0.54109 0.77415 0.36702 0.0
C497 C 0.56468 0.79091 0.36323 0.0
H498 H 0.54682 0.80662 0.39347 0.0
H499 H 0.53273 0.76366 0.36329 0.0
O500 O 0.49117 0.77775 0.41231 0.0
O501 O 0.50952 0.79824 0.3909 0.0
O502 O 0.52693 0.78108 0.41347 0.0
O503 O 0.50599 0.76209 0.38527 0.0
H504 H 0.4806 0.80278 0.40668 0.0
H505 H 0.47643 0.7666 0.43469 0.0
H506 H 0.46011 0.81357 0.42049 0.0
H507 H 0.45617 0.77815 0.44823 0.0
H508 H 0.50646 0.78684 0.33806 0.0
H509 H 0.51221 0.82688 0.38512 0.0
H510 H 0.50644 0.77875 0.3639 0.0
H511 H 0.5121 0.83414 0.3588 0.0
H512 H 0.50138 0.82701 0.46111 0.0
H513 H 0.53017 0.84862 0.42914 0.0
H514 H 0.4505 0.74806 0.35495 0.0
H515 H 0.45334 0.79791 0.36138 0.0
H516 H 0.55264 0.80222 0.41883 0.0
H517 H 0.51634 0.77666 0.44045 0.0
H518 H 0.56402 0.81588 0.44492 0.0
H519 H 0.52853 0.79059 0.46619 0.0
H520 H 0.52972 0.75099 0.39603 0.0
H521 H 0.49432 0.7446 0.35854 0.0
H522 H 0.53855 0.72747 0.38312 0.0
H523 H 0.50391 0.72135 0.34616 0.0
H524 H 0.48016 0.7189 0.4266 0.0
H525 H 0.52927 0.7312 0.43899 0.0
H526 H 0.56995 0.81265 0.37954 0.0
H527 H 0.55554 0.7684 0.34906 0.0
Li528 Li 0.55488 0.27962 0.61353 0.0
Li529 Li 0.56638 0.26703 0.63286 0.0
Li530 Li 0.55269 0.25199 0.60897 0.0
Li531 Li 0.53926 0.26432 0.62953 0.0
C532 C 0.58224 0.27639 0.60412 0.0
N533 N 0.60323 0.29507 0.58971 0.0
C534 C 0.59572 0.28498 0.6125 0.0
C535 C 0.57949 0.2772 0.58839 0.0
C536 C 0.60618 0.29438 0.605 0.0
C537 C 0.59022 0.28675 0.58132 0.0
C538 C 0.54684 0.29215 0.64649 0.0
C539 C 0.53699 0.29695 0.67158 0.0
N540 N 0.53015 0.30826 0.66682 0.0
C541 C 0.53979 0.30387 0.64187 0.0
C542 C 0.54552 0.28871 0.66148 0.0
C543 C 0.53139 0.31187 0.65232 0.0
C544 C 0.54381 0.29751 0.59404 0.0
N545 N 0.55611 0.29732 0.60395 0.0
C546 C 0.56853 0.32217 0.59935 0.0
C547 C 0.56826 0.30938 0.60695 0.0
C548 C 0.55595 0.32256 0.58901 0.0
C549 C 0.54349 0.31008 0.58639 0.0
H550 H 0.53416 0.28796 0.59215 0.0
H551 H 0.57769 0.30906 0.61524 0.0
C552 C 0.59266 0.25809 0.64524 0.0
N553 N 0.58343 0.26888 0.64717 0.0
C554 C 0.60515 0.25903 0.65597 0.0
C555 C 0.59893 0.28273 0.66985 0.0
C556 C 0.58635 0.28114 0.65904 0.0
C557 C 0.60833 0.27147 0.66841 0.0
H558 H 0.59027 0.24875 0.63539 0.0
H559 H 0.57898 0.28971 0.66003 0.0
C560 C 0.52623 0.25539 0.59517 0.0
N561 N 0.50662 0.23701 0.5711 0.0
C562 C 0.51259 0.24629 0.59829 0.0
C563 C 0.52985 0.25522 0.5798 0.0
C564 C 0.50283 0.23706 0.58596 0.0
C565 C 0.51981 0.24581 0.5678 0.0
C566 C 0.55723 0.23835 0.63906 0.0
C567 C 0.56296 0.22554 0.63188 0.0
C568 C 0.55836 0.24195 0.65528 0.0
C569 C 0.56987 0.2166 0.64107 0.0
C570 C 0.56538 0.23275 0.66405 0.0
N571 N 0.57094 0.22038 0.65683 0.0
C572 C 0.56413 0.23448 0.58447 0.0
C573 C 0.53991 0.22269 0.59144 0.0
C574 C 0.56397 0.22203 0.57255 0.0
N575 N 0.55214 0.23463 0.59347 0.0
C576 C 0.53915 0.21013 0.57949 0.0
C577 C 0.5513 0.20978 0.56991 0.0
H578 H 0.57383 0.24399 0.58657 0.0
H579 H 0.53076 0.22297 0.59907 0.0
C580 C 0.51084 0.27191 0.63578 0.0
N581 N 0.521 0.2629 0.63946 0.0
C582 C 0.49733 0.2717 0.64318 0.0
C583 C 0.50493 0.25268 0.65775 0.0
C584 C 0.5183 0.25328 0.65007 0.0
C585 C 0.4943 0.26204 0.65438 0.0
H586 H 0.5133 0.2793 0.62713 0.0
H587 H 0.52656 0.24618 0.65263 0.0
O588 O 0.57184 0.26716 0.61126 0.0
O589 O 0.55492 0.28401 0.63635 0.0
O590 O 0.53598 0.26445 0.60708 0.0
O591 O 0.55046 0.24726 0.63025 0.0
H592 H 0.59804 0.28448 0.62468 0.0
H593 H 0.5691 0.27063 0.58175 0.0
H594 H 0.61664 0.30114 0.61135 0.0
H595 H 0.58819 0.28757 0.56918 0.0
H596 H 0.53577 0.29433 0.68318 0.0
H597 H 0.5407 0.30668 0.63031 0.0
H598 H 0.55088 0.27964 0.66522 0.0
H599 H 0.52581 0.32092 0.64889 0.0
H600 H 0.57825 0.33172 0.6017 0.0
H601 H 0.53363 0.31 0.57841 0.0
H602 H 0.61242 0.25034 0.65443 0.0
H603 H 0.60125 0.29255 0.67928 0.0
H604 H 0.50962 0.2462 0.61011 0.0
H605 H 0.54037 0.26219 0.57718 0.0
H606 H 0.49227 0.22991 0.58821 0.0
H607 H 0.52251 0.2455 0.55586 0.0
H608 H 0.56216 0.22257 0.61935 0.0
H609 H 0.55407 0.25188 0.66102 0.0
H610 H 0.5744 0.20669 0.63567 0.0
H611 H 0.56645 0.23547 0.67661 0.0
H612 H 0.57357 0.22202 0.56542 0.0
H613 H 0.52936 0.20066 0.57794 0.0
H614 H 0.48931 0.27891 0.6401 0.0
H615 H 0.50306 0.24519 0.66642 0.0
Li616 Li 0.00995 0.29863 0.91538 0.0
Li617 Li 0.99632 0.28513 0.89171 0.0
Li618 Li 0.00726 0.2706 0.9101 0.0
Li619 Li 0.02346 0.28717 0.89454 0.0
C620 C 0.97741 0.28808 0.9158 0.0
N621 N 0.95003 0.29812 0.92113 0.0
C622 C 0.97617 0.3035 0.91513 0.0
C623 C 0.96473 0.27777 0.91921 0.0
C624 C 0.96224 0.30835 0.91784 0.0
C625 C 0.95098 0.28307 0.92186 0.0
C626 C 0.00842 0.31299 0.88389 0.0
C627 C 0.00477 0.31616 0.8571 0.0
N628 N 1.00053 0.33009 0.86177 0.0
C629 C 0.00414 0.32739 0.88843 0.0
C630 C 0.00884 0.30737 0.86811 0.0
C631 C 1.00015 0.33584 0.87707 0.0
C632 C 0.01957 0.3292 0.9312 0.0
N633 N 0.01121 0.31504 0.93207 0.0
C634 C 0.0038 0.32437 0.95705 0.0
C635 C 0.00361 0.31232 0.94472 0.0
C636 C 0.01201 0.33925 0.95633 0.0
C637 C 0.02016 0.34158 0.94331 0.0
H638 H 0.0256 0.33089 0.92101 0.0
H639 H 0.99727 0.30081 0.94511 0.0
C640 C 0.97385 0.26956 0.86827 0.0
N641 N 0.97913 0.28361 0.87734 0.0
C642 C 0.96088 0.26749 0.85781 0.0
C643 C 0.95917 0.29445 0.86614 0.0
C644 C 0.97206 0.29595 0.8765 0.0
C645 C 0.95332 0.28003 0.85674 0.0
H646 H 0.97959 0.25989 0.86933 0.0
H647 H 0.97631 0.30695 0.88393 0.0
C648 C 0.036 0.29499 0.92871 0.0
N649 N 0.05463 0.31441 0.95287 0.0
C650 C 0.04791 0.30638 0.92561 0.0
C651 C 0.0336 0.29343 0.9441 0.0
C652 C 0.0572 0.31609 0.93799 0.0
C653 C 0.04312 0.30338 0.95615 0.0
C654 C 0.01396 0.2581 0.87696 0.0
C655 C 0.01999 0.2459 0.88189 0.0
C656 C 0.01431 0.26009 0.86142 0.0
C657 C 0.02658 0.23607 0.87124 0.0
C658 C 0.02101 0.25002 0.85114 0.0
N659 N 0.02697 0.23834 0.85622 0.0
C660 C 0.99095 0.24328 0.9183 0.0
C661 C 0.01679 0.25145 0.92929 0.0
C662 C 0.98868 0.23143 0.92724 0.0
N663 N 0.00477 0.25306 0.91971 0.0
C664 C 0.01498 0.23995 0.93854 0.0
C665 C 1.0007 0.23 0.93777 0.0
H666 H 0.98162 0.24498 0.91059 0.0
H667 H 0.02765 0.25938 0.93003 0.0
C668 C 0.04636 0.30271 0.87877 0.0
N669 N 0.04176 0.28939 0.88448 0.0
C670 C 0.05965 0.3046 0.87099 0.0
C671 C 0.06351 0.27923 0.87558 0.0
C672 C 0.05023 0.27792 0.88342 0.0
C673 C 0.0683 0.29267 0.86912 0.0
H674 H 0.03978 0.31194 0.88035 0.0
H675 H 0.04663 0.26773 0.88862 0.0
O676 O 0.99095 0.28304 0.91324 0.0
O677 O 0.01229 0.30452 0.89486 0.0
O678 O 0.02651 0.28568 0.91677 0.0
O679 O 0.00743 0.26782 0.8872 0.0
H680 H 0.98583 0.31162 0.91242 0.0
H681 H 0.9655 0.26581 0.91982 0.0
H682 H 0.96112 0.32024 0.91731 0.0
H683 H 0.94107 0.27521 0.92451 0.0
H684 H 0.00498 0.31191 0.84484 0.0
H685 H 0.00377 0.33194 0.9006 0.0
H686 H 0.01226 0.29632 0.86443 0.0
H687 H 0.99674 0.34696 0.88041 0.0
H688 H 0.9975 0.32214 0.96696 0.0
H689 H 0.02648 0.35294 0.94227 0.0
H690 H 0.95661 0.25611 0.85095 0.0
H691 H 0.95384 0.3045 0.86554 0.0
H692 H 0.04985 0.30784 0.91378 0.0
H693 H 0.02431 0.28479 0.94671 0.0
H694 H 0.06642 0.325 0.93576 0.0
H695 H 0.04133 0.30238 0.96811 0.0
H696 H 0.01973 0.24412 0.89384 0.0
H697 H 0.00941 0.26926 0.85733 0.0
H698 H 0.0314 0.22666 0.87493 0.0
H699 H 0.02143 0.25147 0.8391 0.0
H700 H 0.97755 0.22387 0.92637 0.0
H701 H 0.02457 0.23893 0.94635 0.0
H702 H 0.06316 0.31534 0.86659 0.0
H703 H 0.0698 0.26971 0.87439 0.0
Li704 Li 0.40756 0.02388 0.2944 0.0
Li705 Li 0.38506 0.0092 0.28011 0.0
Li706 Li 0.40664 0.0168 0.26672 0.0
Li707 Li 0.39123 0.03567 0.27769 0.0
C708 C 0.41868 0.9975 0.28351 0.0
N709 N 0.44596 0.9866 0.28636 0.0
C710 C 0.41849 0.98189 0.28464 0.0
C711 C 0.43278 0.00756 0.28381 0.0
C712 C 0.4324 0.9766 0.28608 0.0
C713 C 0.44643 1.00183 0.28526 0.0
C714 C 0.37532 0.02397 0.30647 0.0
C715 C 0.35146 0.02784 0.317 0.0
N716 N 0.35269 0.01679 0.32599 0.0
C717 C 0.37643 0.01275 0.31589 0.0
C718 C 0.3628 0.03167 0.30707 0.0
C719 C 0.36484 0.00924 0.32564 0.0
C720 C 0.43051 0.04036 0.31736 0.0
N721 N 0.42049 0.02675 0.31264 0.0
C722 C 0.4319 0.01475 0.33173 0.0
C723 C 0.42072 0.01418 0.31974 0.0
C724 C 0.44276 0.02845 0.33649 0.0
C725 C 0.44181 0.04152 0.32949 0.0
H726 H 0.43004 0.05009 0.31137 0.0
H727 H 0.41264 0.00349 0.31561 0.0
C728 C 0.37301 0.97861 0.27177 0.0
N729 N 0.36905 0.99182 0.27916 0.0
C730 C 0.3626 0.96465 0.26943 0.0
C731 C 0.34399 0.97812 0.28212 0.0
C732 C 0.35476 0.99192 0.28406 0.0
C733 C 0.34795 0.96423 0.27485 0.0
H734 H 0.38424 0.979 0.26748 0.0
H735 H 0.3516 0.00265 0.28926 0.0
C736 C 0.42015 0.04873 0.27049 0.0
N737 N 0.43177 0.07067 0.2528 0.0
C738 C 0.41381 0.04791 0.25529 0.0
C739 C 0.43242 0.0607 0.27667 0.0
C740 C 0.41984 0.05911 0.24655 0.0
C741 C 0.43813 0.07168 0.26755 0.0
C742 C 0.37067 0.01185 0.25391 0.0
C743 C 0.36834 1.00007 0.24092 0.0
C744 C 0.358 0.01719 0.26016 0.0
C745 C 0.35336 0.99369 0.2345 0.0
C746 C 0.34321 0.01054 0.2534 0.0
N747 N 0.34121 0.999 0.24083 0.0
C748 C 0.41151 0.99562 0.24198 0.0
C749 C 0.43148 0.01782 0.24736 0.0
C750 C 0.41867 0.98932 0.2294 0.0
N751 N 0.41776 0.00979 0.25033 0.0
C752 C 0.43904 0.01199 0.23488 0.0
C753 C 0.43249 0.99767 0.22559 0.0
H754 H 0.40094 0.98924 0.24514 0.0
H755 H 0.43655 0.02874 0.25459 0.0
C756 C 0.38363 0.06519 0.28677 0.0
N757 N 0.38354 0.05343 0.27475 0.0
C758 C 0.37677 0.07782 0.28448 0.0
C759 C 0.37021 0.06594 0.2575 0.0
C760 C 0.37733 0.05372 0.26025 0.0
C761 C 0.3697 0.07801 0.26976 0.0
H762 H 0.38872 0.06455 0.29815 0.0
H763 H 0.37762 0.04429 0.25089 0.0
O764 O 0.40508 0.00275 0.28211 0.0
O765 O 0.38654 0.02762 0.29687 0.0
O766 O 0.41434 0.03804 0.27941 0.0
O767 O 0.38523 0.01805 0.26058 0.0
H768 H 0.40769 0.97394 0.28445 0.0
H769 H 0.43323 0.01968 0.28299 0.0
H770 H 0.43241 0.96455 0.28698 0.0
H771 H 0.4574 0.00949 0.28553 0.0
H772 H 0.34166 0.03364 0.31754 0.0
H773 H 0.38602 0.00667 0.31551 0.0
H774 H 0.36182 0.04043 0.29989 0.0
H775 H 0.36548 1.00049 0.33291 0.0
H776 H 0.4322 0.00453 0.33708 0.0
H777 H 0.45004 0.05226 0.33296 0.0
H778 H 0.36597 0.95432 0.26333 0.0
H779 H 0.33279 0.97829 0.28641 0.0
H780 H 0.40443 0.03867 0.25021 0.0
H781 H 0.43748 0.06152 0.28839 0.0
H782 H 0.41505 0.0586 0.23477 0.0
H783 H 0.44763 0.081 0.27219 0.0
H784 H 0.37798 0.99589 0.23581 0.0
H785 H 0.35957 0.0262 0.2703 0.0
H786 H 0.3514 0.98452 0.22448 0.0
H787 H 0.33331 0.01448 0.2582 0.0
H788 H 0.41343 0.97812 0.22269 0.0
H789 H 0.44965 0.01883 0.23227 0.0
H790 H 0.37652 0.08701 0.29415 0.0
H791 H 0.36501 0.0659 0.24597 0.0
Li792 Li 0.27301 0.19154 0.51082 0.0
Li793 Li 0.28275 0.17062 0.49649 0.0
Li794 Li 0.2725 0.18946 0.48224 0.0
Li795 Li 0.2545 0.16973 0.49557 0.0
C796 C 0.30256 0.20502 0.50133 0.0
N797 N 0.32698 0.22964 0.50922 0.0
C798 C 0.31603 0.20303 0.50931 0.0
C799 C 0.30163 0.21944 0.49711 0.0
C800 C 0.32821 0.21564 0.51327 0.0
C801 C 0.31407 0.23177 0.50127 0.0
C802 C 0.27543 0.16652 0.52695 0.0
C803 C 0.27438 0.15285 0.54879 0.0
N804 N 0.28863 0.16086 0.55441 0.0
C805 C 0.29007 0.17458 0.53292 0.0
C806 C 0.2675 0.15555 0.53492 0.0
C807 C 0.29655 0.17158 0.54683 0.0
C808 C 0.26315 0.20115 0.54 0.0
N809 N 0.27492 0.20476 0.53108 0.0
C810 C 0.28894 0.22284 0.5526 0.0
C811 C 0.28763 0.21553 0.53704 0.0
C812 C 0.27698 0.21923 0.56205 0.0
C813 C 0.26385 0.20841 0.55548 0.0
H814 H 0.2534 0.19218 0.53524 0.0
H815 H 0.297 0.21815 0.53 0.0
C816 C 0.31138 0.16289 0.48884 0.0
N817 N 0.29878 0.15842 0.49637 0.0
C818 C 0.32381 0.15508 0.48913 0.0
C819 C 0.31005 0.13809 0.50484 0.0
C820 C 0.29781 0.14611 0.50406 0.0
C821 C 0.3234 0.1426 0.49741 0.0
H822 H 0.31181 0.17265 0.48269 0.0
H823 H 0.28762 0.14263 0.50982 0.0
C824 C 0.24924 0.20457 0.50322 0.0
N825 N 0.23742 0.22882 0.51896 0.0
C826 C 0.23608 0.20151 0.51113 0.0
C827 C 0.25627 0.21995 0.50313 0.0
C828 C 0.23031 0.21394 0.51907 0.0
C829 C 0.25016 0.23205 0.5112 0.0
C830 C 0.27194 0.153 0.47026 0.0
C831 C 0.2825 0.15429 0.45906 0.0
C832 C 0.26661 0.13851 0.47438 0.0
C833 C 0.28765 0.14099 0.4522 0.0
C834 C 0.27203 0.12549 0.46725 0.0
N835 N 0.28236 0.12699 0.45641 0.0
C836 C 0.28735 0.19992 0.45677 0.0
C837 C 0.26195 0.20472 0.45821 0.0
C838 C 0.2885 0.20583 0.44283 0.0
N839 N 0.27416 0.19933 0.46407 0.0
C840 C 0.26263 0.21078 0.44432 0.0
C841 C 0.27598 0.21125 0.43629 0.0
H842 H 0.2969 0.19555 0.46166 0.0
H843 H 0.25154 0.20401 0.46417 0.0
C844 C 0.22857 0.15518 0.50854 0.0
N845 N 0.23442 0.15717 0.4948 0.0
C846 C 0.21401 0.14615 0.50879 0.0
C847 C 0.21157 0.14157 0.48072 0.0
C848 C 0.22626 0.15061 0.48101 0.0
C849 C 0.20526 0.13918 0.49476 0.0
H850 H 0.23521 0.16071 0.51933 0.0
H851 H 0.23118 0.15238 0.47024 0.0
O852 O 0.29053 0.19279 0.49733 0.0
O853 O 0.26881 0.16934 0.5134 0.0
O854 O 0.25522 0.19256 0.49562 0.0
O855 O 0.2672 0.16595 0.47755 0.0
H856 H 0.31709 0.19187 0.51244 0.0
H857 H 0.29145 0.2211 0.49062 0.0
H858 H 0.33866 0.21429 0.51954 0.0
H859 H 0.31347 0.24302 0.49815 0.0
H860 H 0.26838 0.14438 0.55508 0.0
H861 H 0.29632 0.18312 0.52691 0.0
H862 H 0.25619 0.14913 0.53042 0.0
H863 H 0.30786 0.17778 0.5516 0.0
H864 H 0.29927 0.23113 0.55723 0.0
H865 H 0.25447 0.20511 0.56243 0.0
H866 H 0.33362 0.15882 0.48292 0.0
H867 H 0.30916 0.1287 0.51152 0.0
H868 H 0.23047 0.18966 0.51125 0.0
H869 H 0.26635 0.2225 0.49692 0.0
H870 H 0.2202 0.21175 0.52533 0.0
H871 H 0.25553 0.24402 0.5113 0.0
H872 H 0.2868 0.16546 0.45583 0.0
H873 H 0.25852 0.13738 0.48314 0.0
H874 H 0.29589 0.14181 0.44357 0.0
H875 H 0.26808 0.1142 0.47038 0.0
H876 H 0.29911 0.20614 0.43723 0.0
H877 H 0.25262 0.21464 0.4397 0.0
H878 H 0.20955 0.14483 0.51988 0.0
H879 H 0.20531 0.13631 0.46964 0.0
Li880 Li 0.16555 0.02497 0.76395 0.0
Li881 Li 0.14362 0.00781 0.77799 0.0
Li882 Li 0.16342 0.99167 0.76184 0.0
Li883 Li 0.14352 0.00551 0.74735 0.0
C884 C 0.17156 0.01306 0.7962 0.0
N885 N 0.17903 0.01823 0.8279 0.0
C886 C 0.17285 0.02798 0.80478 0.0
C887 C 0.17404 1.00075 0.80371 0.0
C888 C 0.17663 0.03036 0.82081 0.0
C889 C 0.17783 0.00362 0.81976 0.0
C890 C 0.13089 0.03145 0.76146 0.0
C891 C 0.10402 0.03048 0.7542 0.0
N892 N 0.10668 0.04626 0.7556 0.0
C893 C 0.13336 0.04765 0.76288 0.0
C894 C 0.1161 0.02279 0.75715 0.0
C895 C 0.12097 0.05492 0.75986 0.0
C896 C 0.17364 0.05566 0.75335 0.0
N897 N 0.17814 0.04754 0.76438 0.0
C898 C 0.19722 0.07058 0.77546 0.0
C899 C 0.18986 0.05489 0.77532 0.0
C900 C 0.19272 0.07935 0.76426 0.0
C901 C 0.18067 0.0713 0.75307 0.0
H902 H 0.16429 0.05009 0.74473 0.0
H903 H 0.19349 0.0487 0.78421 0.0
C904 C 0.1237 0.99648 0.80355 0.0
N905 N 0.13207 0.00928 0.79896 0.0
C906 C 0.11637 0.99749 0.81774 0.0
C907 C 0.12618 0.02481 0.82284 0.0
C908 C 0.13324 0.02331 0.80853 0.0
C909 C 0.11741 0.01183 0.828 0.0
H910 H 0.12261 0.98525 0.79621 0.0
H911 H 0.13983 0.03358 0.8052 0.0
C912 C 0.16728 0.00408 0.73013 0.0
N913 N 0.167 0.99793 0.69816 0.0
C914 C 0.16528 0.98873 0.7224 0.0
C915 C 0.16927 0.0163 0.72164 0.0
C916 C 0.16514 0.98586 0.70622 0.0
C917 C 0.16905 0.01295 0.70547 0.0
C918 C 0.12819 0.97655 0.75425 0.0
C919 C 0.13132 0.96429 0.74353 0.0
C920 C 0.11309 0.97681 0.75793 0.0
C921 C 0.1192 0.95255 0.73648 0.0
C922 C 0.10129 0.96486 0.75062 0.0
N923 N 0.10456 0.95309 0.74012 0.0
C924 C 0.16758 0.95825 0.76608 0.0
C925 C 0.18925 0.97143 0.75642 0.0
C926 C 0.17448 0.9447 0.76582 0.0
N927 N 0.17485 0.97158 0.76143 0.0
C928 C 0.19656 0.95812 0.75603 0.0
C929 C 0.18937 0.94412 0.76075 0.0
H930 H 0.15622 0.95797 0.77008 0.0
H931 H 0.19526 0.98169 0.75257 0.0
C932 C 0.13167 0.01942 0.72066 0.0
N933 N 0.13104 0.00544 0.7257 0.0
C934 C 0.12452 0.02065 0.706 0.0
C935 C 0.11577 0.99312 0.70135 0.0
C936 C 0.12315 0.99238 0.71612 0.0
C937 C 0.11632 0.00741 0.69575 0.0
H938 H 0.13795 0.02986 0.72797 0.0
H939 H 0.12266 0.98119 0.71973 0.0
O940 O 0.16763 0.01046 0.78056 0.0
O941 O 0.14291 0.02408 0.76403 0.0
O942 O 0.16682 0.00704 0.7459 0.0
O943 O 0.13989 0.98816 0.76123 0.0
H944 H 0.1708 0.03758 0.79912 0.0
H945 H 0.17301 0.98912 0.7972 0.0
H946 H 0.17762 0.04184 0.82762 0.0
H947 H 0.1798 0.99422 0.82574 0.0
H948 H 0.09253 0.02391 0.75076 0.0
H949 H 0.1447 0.05454 0.76635 0.0
H950 H 0.11404 0.01024 0.75588 0.0
H951 H 0.12271 0.06745 0.76089 0.0
H952 H 0.2062 0.07585 0.78458 0.0
H953 H 0.17663 0.07695 0.74393 0.0
H954 H 0.10978 0.98692 0.82046 0.0
H955 H 0.1279 0.03623 0.82989 0.0
H956 H 0.16375 0.97915 0.72884 0.0
H957 H 0.17081 0.02824 0.72745 0.0
H958 H 0.16353 0.97404 0.70007 0.0
H959 H 0.17047 0.0223 0.69873 0.0
H960 H 0.14297 0.96387 0.74066 0.0
H961 H 0.11052 0.9861 0.76638 0.0
H962 H 0.12143 0.94302 0.72811 0.0
H963 H 0.08953 0.96493 0.75331 0.0
H964 H 0.16804 0.93476 0.76985 0.0
H965 H 0.20783 0.95888 0.75175 0.0
H966 H 0.12538 0.0321 0.70285 0.0
H967 H 0.10993 0.98236 0.69424 0.0
Li968 Li 0.25135 0.94045 0.99966 0.0
Li969 Li 0.26516 0.92282 0.01117 0.0
Li970 Li 0.2816 0.9432 1.0009 0.0
Li971 Li 0.2647 0.92012 0.98269 0.0
C972 C 0.26688 0.94753 0.03353 0.0
N973 N 0.26588 0.94962 0.0653 0.0
C974 C 0.2531 0.94239 0.03973 0.0
C975 C 0.28008 0.95402 0.0435 0.0
C976 C 0.25285 0.94346 0.05582 0.0
C977 C 0.27936 0.95491 0.05953 0.0
C978 C 0.23455 0.90646 0.99792 0.0
C979 C 0.22004 0.88023 0.99308 0.0
N980 N 0.20951 0.88481 0.00264 0.0
C981 C 0.22346 0.91094 0.00753 0.0
C982 C 0.23272 0.89102 0.99047 0.0
C983 C 0.21093 0.89981 0.00983 0.0
C984 C 0.22046 0.94378 0.99016 0.0
N985 N 0.23287 0.95021 1.00048 0.0
C986 C 0.21813 0.96789 0.01368 0.0
C987 C 0.23192 0.96214 0.01206 0.0
C988 C 0.20498 0.96127 0.00338 0.0
C989 C 0.20644 0.9491 0.99141 0.0
H990 H 0.22131 0.93418 0.98115 0.0
H991 H 0.24178 0.96698 0.02033 0.0
C992 C 0.27978 0.91488 0.03735 0.0
N993 N 0.2662 0.91129 0.02832 0.0
C994 C 0.28205 0.90737 0.05 0.0
C995 C 0.25635 0.89241 0.0439 0.0
C996 C 0.25457 0.90024 0.03136 0.0
C997 C 0.27026 0.89591 0.05344 0.0
H998 H 0.2889 0.92365 0.03472 0.0
H999 H 0.24391 0.89734 0.0241 0.0
C1000 C 0.26954 0.95468 0.97424 0.0
N1001 N 0.27705 0.97845 0.95743 0.0
C1002 C 0.27561 0.95175 0.95991 0.0
C1003 C 0.26719 0.96964 0.98001 0.0
C1004 C 0.27936 0.96395 0.95159 0.0
C1005 C 0.27109 0.98152 0.97133 0.0
C1006 C 0.28793 0.90784 1.00027 0.0
C1007 C 0.30297 0.90911 0.0068 0.0
C1008 C 0.27849 0.8932 0.99644 0.0
C1009 C 0.30824 0.8957 0.00956 0.0
C1010 C 0.28416 0.88006 0.99938 0.0
N1011 N 0.2988 0.88157 0.00584 0.0
C1012 C 0.31214 0.95308 0.01472 0.0
C1013 C 0.30818 0.96457 0.99253 0.0
C1014 C 0.32795 0.95919 0.01598 0.0
N1015 N 0.30256 0.95563 0.00302 0.0
C1016 C 0.32395 0.97099 0.9934 0.0
C1017 C 0.33423 0.96813 0.00509 0.0
H1018 H 0.3076 0.9457 0.02277 0.0
H1019 H 0.3006 0.96641 0.98316 0.0
C1020 C 0.25189 0.89989 0.95375 0.0
N1021 N 0.26489 0.90689 0.96296 0.0
C1022 C 0.2528 0.89022 0.93963 0.0
C1023 C 0.28043 0.89517 0.94473 0.0
C1024 C 0.27899 0.90473 0.95868 0.0
C1025 C 0.26725 0.88773 0.9349 0.0
H1026 H 0.24079 0.9018 0.95736 0.0
H1027 H 0.28917 0.9104 0.96619 0.0
O1028 O 0.26742 0.94622 0.01778 0.0
O1029 O 0.24685 0.91721 0.99543 0.0
O1030 O 0.26587 0.94293 0.98256 0.0
O1031 O 0.28238 0.92086 0.99781 0.0
H1032 H 0.24276 0.93748 0.0322 0.0
H1033 H 0.29078 0.9583 0.03892 0.0
H1034 H 0.24229 0.93938 0.06077 0.0
H1035 H 0.28952 0.9598 0.06737 0.0
H1036 H 0.21854 0.86823 0.98745 0.0
H1037 H 0.22447 0.92287 0.01317 0.0
H1038 H 0.24094 0.88738 0.98268 0.0
H1039 H 0.20232 0.90311 0.01731 0.0
H1040 H 0.21767 0.97712 0.02323 0.0
H1041 H 0.19681 0.94368 0.98303 0.0
H1042 H 0.2929 0.91065 0.0571 0.0
H1043 H 0.24701 0.8835 0.04592 0.0
H1044 H 0.27747 0.9402 0.95531 0.0
H1045 H 0.26247 0.97203 0.99109 0.0
H1046 H 0.28412 0.96189 0.9405 0.0
H1047 H 0.26939 0.99318 0.97565 0.0
H1048 H 0.31052 0.9203 0.00972 0.0
H1049 H 0.26686 0.89203 0.99137 0.0
H1050 H 0.31983 0.89652 0.01466 0.0
H1051 H 0.27693 0.86867 0.99654 0.0
H1052 H 0.33525 0.95634 0.02507 0.0
H1053 H 0.32804 0.97798 0.98483 0.0
H1054 H 0.24231 0.88492 0.93242 0.0
H1055 H 0.2918 0.89346 0.94183 0.0
Li1056 Li 0.27875 0.38147 0.02491 0.0
Li1057 Li 0.29031 0.36254 0.03801 0.0
Li1058 Li 0.30722 0.38433 0.02643 0.0
Li1059 Li 0.28947 0.36178 0.00898 0.0
C1060 C 0.29177 0.39636 0.05602 0.0
N1061 N 0.28757 0.41798 0.081 0.0
C1062 C 0.2823 0.39182 0.06737 0.0
C1063 C 0.29922 0.41183 0.05742 0.0
C1064 C 0.2803 0.40295 0.07991 0.0
C1065 C 0.29691 0.4226 0.07012 0.0
C1066 C 0.26355 0.34412 0.01757 0.0
C1067 C 0.26134 0.31623 0.01337 0.0
N1068 N 0.24661 0.31469 0.00715 0.0
C1069 C 0.24839 0.34228 0.01116 0.0
C1070 C 0.2701 0.33102 0.0187 0.0
C1071 C 0.24001 0.32729 0.00595 0.0
C1072 C 0.25149 0.38773 0.01151 0.0
N1073 N 0.26147 0.39222 0.0245 0.0
C1074 C 0.2466 0.41108 0.03462 0.0
C1075 C 0.25923 0.40368 0.03599 0.0
C1076 C 0.23628 0.40683 0.02121 0.0
C1077 C 0.23887 0.39499 0.00955 0.0
H1078 H 0.25349 0.3786 0.00253 0.0
H1079 H 0.26724 0.40727 0.04616 0.0
C1080 C 0.30288 0.35297 0.06478 0.0
N1081 N 0.28961 0.3519 0.0557 0.0
C1082 C 0.30269 0.34685 0.07863 0.0
C1083 C 0.27521 0.3384 0.07348 0.0
C1084 C 0.27592 0.34473 0.05975 0.0
C1085 C 0.28869 0.33955 0.08328 0.0
H1086 H 0.31359 0.35889 0.0614 0.0
H1087 H 0.26547 0.3443 0.05253 0.0
C1088 C 0.28721 0.39528 1.00117 0.0
N1089 N 0.27463 0.41708 0.98772 0.0
C1090 C 0.28044 0.39152 0.9859 0.0
C1091 C 0.28772 0.41018 0.00954 0.0
C1092 C 0.27412 0.4027 0.97931 0.0
C1093 C 0.28125 0.42102 0.00256 0.0
C1094 C 0.31842 0.35282 0.02065 0.0
C1095 C 0.33055 0.35861 0.01237 0.0
C1096 C 0.31795 0.33845 0.02551 0.0
C1097 C 0.34194 0.34979 0.00894 0.0
C1098 C 0.32955 0.32998 0.02184 0.0
N1099 N 0.3412 0.33578 0.0137 0.0
C1100 C 0.33909 0.39397 0.03687 0.0
C1101 C 0.32914 0.41039 0.02149 0.0
C1102 C 0.35387 0.40297 0.03775 0.0
N1103 N 0.32711 0.39772 0.02871 0.0
C1104 C 0.34364 0.41985 0.02229 0.0
C1105 C 0.35629 0.41612 0.03038 0.0
H1106 H 0.33722 0.3838 0.04247 0.0
H1107 H 0.31956 0.41304 0.01487 0.0
C1108 C 0.27327 0.34799 0.97996 0.0
N1109 N 0.28684 0.34903 0.98854 0.0
C1110 C 0.27126 0.34095 0.96431 0.0
C1111 C 0.29704 0.33568 0.96665 0.0
C1112 C 0.29854 0.34279 0.98225 0.0
C1113 C 0.28337 0.33496 0.95733 0.0
H1114 H 0.26421 0.35328 0.98507 0.0
H1115 H 0.30924 0.34371 0.98912 0.0
O1116 O 0.29392 0.38566 0.0437 0.0
O1117 O 0.27201 0.3587 0.02249 0.0
O1118 O 0.2931 0.38437 0.00795 0.0
O1119 O 0.30729 0.36137 0.02433 0.0
H1120 H 0.27648 0.37987 0.06645 0.0
H1121 H 0.30667 0.41547 0.04876 0.0
H1122 H 0.27296 0.39965 0.08876 0.0
H1123 H 0.30254 0.43464 0.07133 0.0
H1124 H 0.26626 0.30598 0.01415 0.0
H1125 H 0.24316 0.35231 0.0102 0.0
H1126 H 0.28183 0.33228 0.02358 0.0
H1127 H 0.22828 0.32568 1.00093 0.0
H1128 H 0.24511 0.42027 0.04382 0.0
H1129 H 0.23112 0.39128 0.99908 0.0
H1130 H 0.3134 0.34789 0.08566 0.0
H1131 H 0.26412 0.33311 0.07664 0.0
H1132 H 0.28005 0.38011 0.9792 0.0
H1133 H 0.29278 0.41324 0.02142 0.0
H1134 H 0.2688 0.39992 0.96753 0.0
H1135 H 0.28142 0.43254 0.00896 0.0
H1136 H 0.33106 0.36971 0.00849 0.0
H1137 H 0.30876 0.33391 0.03212 0.0
H1138 H 0.35135 0.35408 0.00248 0.0
H1139 H 0.32932 0.31882 0.02551 0.0
H1140 H 0.3633 0.39973 0.04417 0.0
H1141 H 0.34502 0.42976 0.01628 0.0
H1142 H 0.26056 0.34085 0.9576 0.0
H1143 H 0.30661 0.33101 0.96188 0.0
Li1144 Li 0.79814 0.13458 0.03878 0.0
Li1145 Li 0.81154 0.11438 0.021 0.0
Li1146 Li 0.79729 0.133 0.0096 0.0
Li1147 Li 0.78279 0.11255 0.0208 0.0
C1148 C 0.82446 0.14959 0.0192 0.0
N1149 N 0.84062 0.17276 0.00552 0.0
C1150 C 0.83559 0.14621 0.00916 0.0
C1151 C 0.82156 0.16474 0.02232 0.0
C1152 C 0.84364 0.15809 0.00236 0.0
C1153 C 0.82984 0.17629 0.01527 0.0
C1154 C 0.79136 0.0994 0.0452 0.0
C1155 C 0.78198 0.07187 0.04327 0.0
N1156 N 0.77751 0.07437 0.05792 0.0
C1157 C 0.78682 0.10169 0.0603 0.0
C1158 C 0.78907 0.08437 0.03666 0.0
C1159 C 0.77978 0.08889 0.06651 0.0
C1160 C 0.78609 0.14535 0.06675 0.0
N1161 N 0.79863 0.14796 0.05861 0.0
C1162 C 0.80987 0.16998 0.07794 0.0
C1163 C 0.81049 0.15995 0.06397 0.0
C1164 C 0.79689 0.16774 0.08651 0.0
C1165 C 0.78494 0.15511 0.08067 0.0
H1166 H 0.77682 0.13574 0.06231 0.0
H1167 H 0.82039 0.16182 0.05735 0.0
C1168 C 0.83387 0.09906 0.00478 0.0
N1169 N 0.83013 0.10486 0.01914 0.0
C1170 C 0.84758 0.09324 0.00294 0.0
C1171 C 0.85361 0.09953 0.03066 0.0
C1172 C 0.83972 0.10515 0.03198 0.0
C1173 C 0.85783 0.09347 0.01597 0.0
H1174 H 0.82635 0.09923 0.99464 0.0
H1175 H 0.83671 0.10995 0.0433 0.0
C1176 C 0.76579 0.13498 0.01977 0.0
N1177 N 0.73486 0.1338 0.01197 0.0
C1178 C 0.7597 0.13059 0.00429 0.0
C1179 C 0.75616 0.13899 0.03125 0.0
C1180 C 0.74404 0.13001 1.00059 0.0
C1181 C 0.74055 0.13826 0.02708 0.0
C1182 C 0.79058 0.09924 0.99038 0.0
C1183 C 0.78274 0.10283 0.97745 0.0
C1184 C 0.7932 0.0841 0.99021 0.0
C1185 C 0.77732 0.09111 0.96475 0.0
C1186 C 0.7876 0.0727 0.97728 0.0
N1187 N 0.77982 0.0764 0.96494 0.0
C1188 C 0.80487 0.14143 0.98036 0.0
C1189 C 0.78974 0.1573 0.99453 0.0
C1190 C 0.80428 0.14965 0.96796 0.0
N1191 N 0.79748 0.14524 0.99322 0.0
C1192 C 0.7888 0.16579 0.98239 0.0
C1193 C 0.79597 0.16189 0.96877 0.0
H1194 H 0.81098 0.1318 0.97963 0.0
H1195 H 0.78411 0.16022 0.00495 0.0
C1196 C 0.75441 0.10076 0.03269 0.0
N1197 N 0.76191 0.09965 0.0195 0.0
C1198 C 0.73867 0.09457 0.03231 0.0
C1199 C 0.73839 0.08603 0.00476 0.0
C1200 C 0.75419 0.09223 0.0057 0.0
C1201 C 0.7303 0.08733 0.01814 0.0
H1202 H 0.76044 0.10725 0.04344 0.0
H1203 H 0.76001 0.09171 0.99521 0.0
O1204 O 0.81606 0.138 0.02551 0.0
O1205 O 0.79809 0.1118 0.03884 0.0
O1206 O 0.781 0.13503 0.02367 0.0
O1207 O 0.79608 0.11059 0.00289 0.0
H1208 H 0.83787 0.1345 0.00654 0.0
H1209 H 0.81282 0.16748 0.0299 0.0
H1210 H 0.85225 0.15564 0.99452 0.0
H1211 H 0.82766 0.18806 0.01749 0.0
H1212 H 0.78004 0.06019 0.03674 0.0
H1213 H 0.78871 0.11322 0.06716 0.0
H1214 H 0.79262 0.08241 0.02503 0.0
H1215 H 0.77613 0.0905 0.07815 0.0
H1216 H 0.81951 0.17935 0.08199 0.0
H1217 H 0.77458 0.15294 0.08658 0.0
H1218 H 0.8503 0.08899 0.99133 0.0
H1219 H 0.86093 0.09987 0.04111 0.0
H1220 H 0.76696 0.12745 0.99527 0.0
H1221 H 0.76064 0.14255 0.04326 0.0
H1222 H 0.73917 0.12649 0.98867 0.0
H1223 H 0.73296 0.14123 0.03587 0.0
H1224 H 0.78081 0.11452 0.97721 0.0
H1225 H 0.79962 0.08118 0.99989 0.0
H1226 H 0.77114 0.09371 0.95473 0.0
H1227 H 0.7895 0.06092 0.97704 0.0
H1228 H 0.8099 0.14615 0.95766 0.0
H1229 H 0.78251 0.1753 0.98367 0.0
H1230 H 0.73296 0.09612 0.04291 0.0
H1231 H 0.73251 0.08049 0.99358 0.0
Li1232 Li 0.17096 0.54255 0.24639 0.0
Li1233 Li 0.14789 0.53023 0.25674 0.0
Li1234 Li 0.16585 0.51442 0.24622 0.0
Li1235 Li 0.14999 0.52649 0.23001 0.0
C1236 C 0.17736 0.54013 0.27733 0.0
N1237 N 0.19321 0.55844 0.30384 0.0
C1238 C 0.17128 0.55234 0.28528 0.0
C1239 C 0.19147 0.53716 0.28296 0.0
C1240 C 0.17947 0.56149 0.29862 0.0
C1241 C 0.19932 0.54657 0.29635 0.0
C1242 C 0.14271 0.55411 0.23398 0.0
C1243 C 0.11965 0.55867 0.22077 0.0
N1244 N 0.12837 0.56898 0.21335 0.0
C1245 C 0.15144 0.56477 0.22623 0.0
C1246 C 0.12667 0.55106 0.23127 0.0
C1247 C 0.14398 0.57218 0.21586 0.0
C1248 C 0.19931 0.56364 0.24357 0.0
N1249 N 0.18546 0.56152 0.24966 0.0
C1250 C 0.18927 0.58844 0.26077 0.0
C1251 C 0.18038 0.57356 0.25814 0.0
C1252 C 0.20351 0.59097 0.2545 0.0
C1253 C 0.20862 0.57834 0.24597 0.0
H1254 H 0.20304 0.55418 0.23646 0.0
H1255 H 0.16915 0.57168 0.26248 0.0
C1256 C 0.13713 0.52504 0.28508 0.0
N1257 N 0.13554 0.53305 0.27322 0.0
C1258 C 0.12975 0.52831 0.2985 0.0
C1259 C 0.11897 0.54771 0.28697 0.0
C1260 C 0.12659 0.54408 0.2738 0.0
C1261 C 0.12079 0.54001 0.29964 0.0
H1262 H 0.14463 0.51657 0.28433 0.0
H1263 H 0.12586 0.55049 0.26432 0.0
C1264 C 0.18711 0.52502 0.22582 0.0
N1265 N 0.21701 0.52291 0.21972 0.0
C1266 C 0.19156 0.5249 0.21073 0.0
C1267 C 0.19787 0.52403 0.2378 0.0
C1268 C 0.20674 0.52387 0.20789 0.0
C1269 C 0.21293 0.52296 0.23448 0.0
C1270 C 0.13159 0.50231 0.24933 0.0
C1271 C 0.13416 0.49009 0.25695 0.0
C1272 C 0.11716 0.50671 0.24923 0.0
C1273 C 0.12232 0.48263 0.26453 0.0
C1274 C 0.10563 0.49898 0.25698 0.0
N1275 N 0.10843 0.48721 0.26441 0.0
C1276 C 0.1777 0.49498 0.26351 0.0
C1277 C 0.17873 0.488 0.23631 0.0
C1278 C 0.18536 0.48313 0.26636 0.0
N1279 N 0.17476 0.49726 0.24872 0.0
C1280 C 0.18654 0.47605 0.23862 0.0
C1281 C 0.19012 0.47366 0.25383 0.0
H1282 H 0.17421 0.50251 0.27309 0.0
H1283 H 0.17621 0.4902 0.22469 0.0
C1284 C 0.14577 0.53235 0.19993 0.0
N1285 N 0.13916 0.52429 0.21058 0.0
C1286 C 0.13716 0.53333 0.18641 0.0
C1287 C 0.11546 0.51689 0.19474 0.0
C1288 C 0.12449 0.51627 0.20811 0.0
C1289 C 0.1217 0.52582 0.18391 0.0
H1290 H 0.15748 0.53866 0.20235 0.0
H1291 H 0.11963 0.50988 0.21678 0.0
O1292 O 0.1695 0.53096 0.26425 0.0
O1293 O 0.14982 0.54651 0.24397 0.0
O1294 O 0.17219 0.52568 0.22864 0.0
O1295 O 0.1431 0.50986 0.24197 0.0
H1296 H 0.16043 0.55489 0.28112 0.0
H1297 H 0.19631 0.52766 0.27711 0.0
H1298 H 0.17492 0.57102 0.30482 0.0
H1299 H 0.21026 0.54441 0.30081 0.0
H1300 H 0.10726 0.5563 0.21846 0.0
H1301 H 0.16386 0.56714 0.22797 0.0
H1302 H 0.11971 0.54269 0.23697 0.0
H1303 H 0.1506 0.5804 0.20973 0.0
H1304 H 0.18492 0.59791 0.26739 0.0
H1305 H 0.21941 0.57993 0.24065 0.0
H1306 H 0.13162 0.52229 0.30812 0.0
H1307 H 0.11207 0.55672 0.28739 0.0
H1308 H 0.18334 0.52557 0.20131 0.0
H1309 H 0.19468 0.52423 0.24954 0.0
H1310 H 0.21034 0.52378 0.19627 0.0
H1311 H 0.22136 0.52221 0.24366 0.0
H1312 H 0.14516 0.4864 0.25701 0.0
H1313 H 0.11498 0.5162 0.2435 0.0
H1314 H 0.12418 0.4732 0.27051 0.0
H1315 H 0.09448 0.50238 0.25712 0.0
H1316 H 0.18765 0.48148 0.27823 0.0
H1317 H 0.19016 0.46911 0.22867 0.0
H1318 H 0.14234 0.54043 0.17838 0.0
H1319 H 0.10367 0.5107 0.19304 0.0
Li1320 Li 0.77649 0.88289 0.52618 0.0
Li1321 Li 0.78785 0.86367 0.53969 0.0
Li1322 Li 0.8045 0.88429 0.52705 0.0
Li1323 Li 0.78743 0.86225 0.51092 0.0
C1324 C 0.78623 0.89798 0.55484 0.0
N1325 N 0.77433 0.91982 0.57426 0.0
C1326 C 0.77755 0.89352 0.56678 0.0
C1327 C 0.789 0.91355 0.55287 0.0
C1328 C 0.7716 0.90474 0.57646 0.0
C1329 C 0.78284 0.92442 0.56278 0.0
C1330 C 0.75893 0.84896 0.51508 0.0
C1331 C 0.74864 0.8221 0.50453 0.0
N1332 N 0.73784 0.82668 0.49549 0.0
C1333 C 0.74766 0.85341 0.50578 0.0
C1334 C 0.75938 0.83319 0.51455 0.0
C1335 C 0.73712 0.84196 0.49592 0.0
C1336 C 0.75823 0.90285 0.5147 0.0
N1337 N 0.75983 0.89428 0.52613 0.0
C1338 C 0.73678 0.90058 0.53644 0.0
C1339 C 0.74932 0.8929 0.53681 0.0
C1340 C 0.73487 0.90962 0.52481 0.0
C1341 C 0.74585 0.91066 0.51384 0.0
H1342 H 0.76641 0.90338 0.50601 0.0
H1343 H 0.75058 0.88568 0.54554 0.0
C1344 C 0.7994 0.85304 0.56661 0.0
N1345 N 0.78641 0.85328 0.55763 0.0
C1346 C 0.79848 0.84684 0.58043 0.0
C1347 C 0.77083 0.84108 0.57547 0.0
C1348 C 0.77229 0.84733 0.56172 0.0
C1349 C 0.78403 0.84089 0.58517 0.0
H1350 H 0.81049 0.85799 0.56322 0.0
H1351 H 0.76211 0.84775 0.55446 0.0
C1352 C 0.7975 0.89468 0.50079 0.0
N1353 N 0.81365 0.91547 0.48438 0.0
C1354 C 0.80392 0.88925 0.48724 0.0
C1355 C 0.79922 0.91068 0.50594 0.0
C1356 C 0.81206 0.89995 0.47912 0.0
C1357 C 0.80745 0.92101 0.4975 0.0
C1358 C 0.81147 0.84873 0.5225 0.0
C1359 C 0.82506 0.84957 0.51505 0.0
C1360 C 0.80454 0.83461 0.52648 0.0
C1361 C 0.83138 0.83617 0.5115 0.0
C1362 C 0.81122 0.82148 0.52273 0.0
N1363 N 0.82438 0.82252 0.51536 0.0
C1364 C 0.82974 0.90866 0.54097 0.0
C1365 C 0.83323 0.89536 0.51618 0.0
C1366 C 0.84429 0.91813 0.54166 0.0
N1367 N 0.82449 0.89757 0.52832 0.0
C1368 C 0.8477 0.90468 0.51627 0.0
C1369 C 0.85354 0.91627 0.52916 0.0
H1370 H 0.8227 0.91009 0.5506 0.0
H1371 H 0.82895 0.88635 0.50634 0.0
C1372 C 0.77492 0.85445 0.4801 0.0
N1373 N 0.78454 0.84962 0.49024 0.0
C1374 C 0.77301 0.84785 0.46436 0.0
C1375 C 0.7908 0.83113 0.46958 0.0
C1376 C 0.79222 0.83795 0.48531 0.0
C1377 C 0.78128 0.83624 0.45873 0.0
H1378 H 0.76904 0.86385 0.48417 0.0
H1379 H 0.79981 0.83415 0.49337 0.0
O1380 O 0.79194 0.88712 0.54509 0.0
O1381 O 0.76956 0.86001 0.52454 0.0
O1382 O 0.78962 0.88439 0.509 0.0
O1383 O 0.80516 0.86173 0.52613 0.0
H1384 H 0.77531 0.88152 0.56848 0.0
H1385 H 0.79581 0.91721 0.54377 0.0
H1386 H 0.76477 0.90145 0.58569 0.0
H1387 H 0.78484 0.9365 0.56134 0.0
H1388 H 0.7489 0.80985 0.50394 0.0
H1389 H 0.74717 0.86558 0.50605 0.0
H1390 H 0.76796 0.82956 0.52174 0.0
H1391 H 0.7284 0.84523 0.48857 0.0
H1392 H 0.72871 0.89947 0.54522 0.0
H1393 H 0.74472 0.91716 0.50444 0.0
H1394 H 0.80898 0.84715 0.58755 0.0
H1395 H 0.75946 0.83648 0.57847 0.0
H1396 H 0.80285 0.87691 0.48315 0.0
H1397 H 0.79428 0.91509 0.51635 0.0
H1398 H 0.81716 0.89591 0.46867 0.0
H1399 H 0.80891 0.93342 0.50139 0.0
H1400 H 0.83063 0.86042 0.51199 0.0
H1401 H 0.79412 0.8338 0.53239 0.0
H1402 H 0.84184 0.83662 0.50566 0.0
H1403 H 0.80595 0.81046 0.52568 0.0
H1404 H 0.84829 0.92664 0.552 0.0
H1405 H 0.85412 0.90286 0.5062 0.0
H1406 H 0.76525 0.852 0.45666 0.0
H1407 H 0.79755 0.82234 0.46592 0.0
Li1408 Li 0.91897 0.04639 0.27284 0.0
Li1409 Li 0.89659 0.02756 0.25536 0.0
Li1410 Li 0.91812 0.04522 0.2423 0.0
Li1411 Li 0.89884 0.06094 0.25793 0.0
C1412 C 0.932 0.02167 0.25656 0.0
N1413 N 0.95782 0.0083 0.25886 0.0
C1414 C 0.93083 0.00691 0.26071 0.0
C1415 C 0.94626 0.02959 0.25346 0.0
C1416 C 0.94404 1.00037 0.26186 0.0
C1417 C 0.95919 0.02264 0.25471 0.0
C1418 C 0.89442 0.0462 0.28937 0.0
C1419 C 0.89435 0.06171 0.31457 0.0
N1420 N 0.89359 0.04867 0.32116 0.0
C1421 C 0.89361 0.03295 0.29636 0.0
C1422 C 0.89479 0.0607 0.2985 0.0
C1423 C 0.89322 0.03445 0.31247 0.0
C1424 C 0.93667 0.0593 0.30527 0.0
N1425 N 0.93112 0.04618 0.29457 0.0
C1426 C 0.93986 0.03087 0.3132 0.0
C1427 C 0.93262 0.03211 0.29859 0.0
C1428 C 0.94573 0.04416 0.32454 0.0
C1429 C 0.94387 0.05855 0.32013 0.0
H1430 H 0.9354 0.07052 0.30245 0.0
H1431 H 0.92788 0.02159 0.29057 0.0
C1432 C 0.88903 0.99271 0.24625 0.0
N1433 N 0.88375 0.005 0.25431 0.0
C1434 C 0.88192 0.97702 0.24628 0.0
C1435 C 0.86352 0.9863 0.26255 0.0
C1436 C 0.87108 1.00185 0.26236 0.0
C1437 C 0.86889 0.97333 0.25458 0.0
H1438 H 0.89906 0.995 0.23988 0.0
H1439 H 0.86688 0.01141 0.26898 0.0
C1440 C 0.9352 0.07472 0.25838 0.0
N1441 N 0.96113 0.09581 0.25494 0.0
C1442 C 0.93404 0.08663 0.24984 0.0
C1443 C 0.9495 0.07357 0.26526 0.0
C1444 C 0.9473 0.09718 0.24821 0.0
C1445 C 0.96249 0.08434 0.26335 0.0
C1446 C 0.89267 0.0413 0.22332 0.0
C1447 C 0.89415 0.05474 0.21657 0.0
C1448 C 0.89024 0.0267 0.21388 0.0
C1449 C 0.89315 0.05333 0.20039 0.0
C1450 C 0.88931 0.02578 0.19775 0.0
N1451 N 0.89078 0.039 0.19139 0.0
C1452 C 0.93051 0.02998 0.2127 0.0
C1453 C 0.93667 0.05717 0.21583 0.0
C1454 C 0.93768 0.02856 0.19843 0.0
N1455 N 0.92998 0.04416 0.22137 0.0
C1456 C 0.94409 0.05625 0.20171 0.0
C1457 C 0.9448 0.04179 0.19244 0.0
H1458 H 0.92523 0.01953 0.21674 0.0
H1459 H 0.93619 0.0685 0.2222 0.0
C1460 C 0.89583 0.09599 0.26247 0.0
N1461 N 0.88741 0.08113 0.25902 0.0
C1462 C 0.88891 0.10954 0.26289 0.0
C1463 C 0.86438 0.09302 0.25671 0.0
C1464 C 0.87177 0.07974 0.25619 0.0
C1465 C 0.87279 0.10853 0.26002 0.0
H1466 H 0.90814 0.09756 0.265 0.0
H1467 H 0.86476 0.06822 0.25342 0.0
O1468 O 0.91924 0.0283 0.25536 0.0
O1469 O 0.89547 0.04508 0.27372 0.0
O1470 O 0.92236 0.06434 0.26019 0.0
O1471 O 0.89429 0.04248 0.23911 0.0
H1472 H 0.91988 1.00066 0.26321 0.0
H1473 H 0.94731 0.04094 0.25006 0.0
H1474 H 0.94333 0.98899 0.26515 0.0
H1475 H 0.9703 0.02864 0.25236 0.0
H1476 H 0.89467 0.07286 0.32181 0.0
H1477 H 0.89352 0.02168 0.28944 0.0
H1478 H 0.89555 0.07108 0.29323 0.0
H1479 H 0.89269 0.02431 0.31807 0.0
H1480 H 0.94045 0.01937 0.31567 0.0
H1481 H 0.94808 0.06932 0.32805 0.0
H1482 H 0.88665 0.96783 0.23969 0.0
H1483 H 0.85372 0.98451 0.26933 0.0
H1484 H 0.92307 0.08758 0.24432 0.0
H1485 H 0.95054 0.06448 0.27202 0.0
H1486 H 0.9466 0.1064 0.24155 0.0
H1487 H 0.97364 0.08358 0.26858 0.0
H1488 H 0.89621 0.06613 0.22377 0.0
H1489 H 0.88925 0.01621 0.21898 0.0
H1490 H 0.89433 0.06362 0.19498 0.0
H1491 H 0.88748 0.01457 0.19028 0.0
H1492 H 0.93775 0.017 0.19225 0.0
H1493 H 0.94898 0.06701 0.19797 0.0
H1494 H 0.89632 0.12084 0.26576 0.0
H1495 H 0.85202 0.091 0.25422 0.0
Li1496 Li 0.29931 0.6353 0.53659 0.0
Li1497 Li 0.31177 0.6138 0.52004 0.0
Li1498 Li 0.29863 0.63273 0.50754 0.0
Li1499 Li 0.28287 0.61261 0.51899 0.0
C1500 C 0.32914 0.64834 0.52189 0.0
N1501 N 0.35414 0.67078 0.51887 0.0
C1502 C 0.34114 0.64429 0.51337 0.0
C1503 C 0.3299 0.66375 0.52899 0.0
C1504 C 0.35367 0.65582 0.51195 0.0
C1505 C 0.34263 0.67494 0.52729 0.0
C1506 C 0.28896 0.60263 0.54568 0.0
C1507 C 0.2781 0.57677 0.54969 0.0
N1508 N 0.27037 0.58297 0.56136 0.0
C1509 C 0.28101 0.60876 0.5578 0.0
C1510 C 0.2876 0.58652 0.54165 0.0
C1511 C 0.27163 0.59862 0.56556 0.0
C1512 C 0.28691 0.65541 0.5586 0.0
N1513 N 0.29992 0.64961 0.5558 0.0
C1514 C 0.31233 0.66394 0.58013 0.0
C1515 C 0.31254 0.65364 0.56624 0.0
C1516 C 0.29908 0.67028 0.58319 0.0
C1517 C 0.28628 0.66587 0.57217 0.0
H1518 H 0.27689 0.6518 0.55035 0.0
H1519 H 0.32274 0.64883 0.56381 0.0
C1520 C 0.33314 0.59536 0.50572 0.0
N1521 N 0.33049 0.6044 0.51904 0.0
C1522 C 0.34707 0.58988 0.5044 0.0
C1523 C 0.35571 0.6034 0.53033 0.0
C1524 C 0.3415 0.60843 0.53125 0.0
C1525 C 0.35873 0.59398 0.51674 0.0
H1526 H 0.32462 0.59272 0.49588 0.0
H1527 H 0.33941 0.61591 0.54162 0.0
C1528 C 0.27462 0.64612 0.5173 0.0
N1529 N 0.26011 0.66899 0.5084 0.0
C1530 C 0.2596 0.64226 0.51021 0.0
C1531 C 0.28224 0.66161 0.51992 0.0
C1532 C 0.25246 0.654 0.50578 0.0
C1533 C 0.27471 0.673 0.51531 0.0
C1534 C 0.29096 0.59639 0.49131 0.0
C1535 C 0.28332 0.59679 0.47697 0.0
C1536 C 0.29298 0.58211 0.49525 0.0
C1537 C 0.27771 0.58285 0.46685 0.0
C1538 C 0.28722 0.56843 0.4848 0.0
N1539 N 0.27975 0.56908 0.47094 0.0
C1540 C 0.31067 0.65449 0.48736 0.0
C1541 C 0.28484 0.64151 0.48135 0.0
C1542 C 0.30959 0.66258 0.47492 0.0
N1543 N 0.29837 0.6442 0.4904 0.0
C1544 C 0.28318 0.64949 0.46894 0.0
C1545 C 0.29567 0.66019 0.46557 0.0
H1546 H 0.32135 0.65654 0.49454 0.0
H1547 H 0.27525 0.63316 0.48383 0.0
C1548 C 0.25291 0.60695 0.52875 0.0
N1549 N 0.26159 0.60087 0.51785 0.0
C1550 C 0.23712 0.60111 0.52843 0.0
C1551 C 0.23914 0.58274 0.5056 0.0
C1552 C 0.25497 0.58885 0.50645 0.0
C1553 C 0.22989 0.58895 0.51661 0.0
H1554 H 0.25818 0.61679 0.53746 0.0
H1555 H 0.26176 0.58417 0.49771 0.0
O1556 O 0.31681 0.63723 0.52344 0.0
O1557 O 0.29794 0.61237 0.53775 0.0
O1558 O 0.28189 0.63476 0.5215 0.0
O1559 O 0.29657 0.60991 0.50134 0.0
H1560 H 0.34072 0.63241 0.50778 0.0
H1561 H 0.32078 0.66705 0.53574 0.0
H1562 H 0.36301 0.65288 0.50533 0.0
H1563 H 0.34336 0.68693 0.53267 0.0
H1564 H 0.27689 0.56428 0.54665 0.0
H1565 H 0.28196 0.6212 0.56107 0.0
H1566 H 0.29379 0.5816 0.53241 0.0
H1567 H 0.26533 0.60319 0.57489 0.0
H1568 H 0.32247 0.66704 0.5883 0.0
H1569 H 0.27574 0.67023 0.57415 0.0
H1570 H 0.34888 0.58291 0.49358 0.0
H1571 H 0.36424 0.60686 0.54019 0.0
H1572 H 0.25357 0.63031 0.50801 0.0
H1573 H 0.29388 0.66476 0.52535 0.0
H1574 H 0.24086 0.65118 0.50023 0.0
H1575 H 0.28049 0.68503 0.51721 0.0
H1576 H 0.28175 0.60773 0.47368 0.0
H1577 H 0.29896 0.58161 0.50623 0.0
H1578 H 0.27174 0.58299 0.45574 0.0
H1579 H 0.28868 0.5573 0.48771 0.0
H1580 H 0.31948 0.67082 0.47278 0.0
H1581 H 0.27229 0.64714 0.46192 0.0
H1582 H 0.23053 0.60649 0.53706 0.0
H1583 H 0.23418 0.57329 0.49633 0.0
Li1584 Li 0.39626 0.52643 0.75536 0.0
Li1585 Li 0.41867 0.54528 0.77255 0.0
Li1586 Li 0.39862 0.55968 0.75732 0.0
Li1587 Li 0.4181 0.54393 0.74211 0.0
C1588 C 0.39336 0.54788 0.78893 0.0
N1589 N 0.39026 0.55532 0.82032 0.0
C1590 C 0.38468 0.53713 0.79661 0.0
C1591 C 0.40051 0.56238 0.79721 0.0
C1592 C 0.38324 0.54112 0.81249 0.0
C1593 C 0.39879 0.56594 0.81307 0.0
C1594 C 0.42993 0.51971 0.76075 0.0
C1595 C 0.45623 0.51599 0.7631 0.0
N1596 N 0.45227 0.50546 0.77266 0.0
C1597 C 0.4261 0.50883 0.77055 0.0
C1598 C 0.44508 0.52333 0.75695 0.0
C1599 C 0.43757 0.50176 0.77647 0.0
C1600 C 0.38925 0.49165 0.74637 0.0
N1601 N 0.38355 0.5038 0.75413 0.0
C1602 C 0.36317 0.4848 0.76172 0.0
C1603 C 0.37054 0.50043 0.76161 0.0
C1604 C 0.36888 0.47191 0.75396 0.0
C1605 C 0.38218 0.47589 0.74608 0.0
H1606 H 0.39957 0.49412 0.74045 0.0
H1607 H 0.36584 0.50986 0.76778 0.0
C1608 C 0.4452 0.55376 0.7994 0.0
N1609 N 0.43098 0.54497 0.79429 0.0
C1610 C 0.45287 0.55295 0.81403 0.0
C1611 C 0.43139 0.53423 0.81846 0.0
C1612 C 0.42429 0.53515 0.80368 0.0
C1613 C 0.44602 0.54316 0.82412 0.0
H1614 H 0.45078 0.56153 0.79217 0.0
H1615 H 0.41329 0.52776 0.79972 0.0
C1616 C 0.39266 0.53824 0.72283 0.0
N1617 N 0.39082 0.53249 0.69076 0.0
C1618 C 0.39626 0.55051 0.71457 0.0
C1619 C 0.38819 0.52303 0.71481 0.0
C1620 C 0.39525 0.54736 0.69835 0.0
C1621 C 0.38729 0.52037 0.69858 0.0
C1622 C 0.43423 0.57344 0.75609 0.0
C1623 C 0.43161 0.58666 0.75022 0.0
C1624 C 0.4492 0.57062 0.75801 0.0
C1625 C 0.4441 0.59688 0.74631 0.0
C1626 C 0.46138 0.58111 0.75395 0.0
N1627 N 0.4586 0.59391 0.74823 0.0
C1628 C 0.38379 0.5879 0.77194 0.0
C1629 C 0.38264 0.58499 0.74484 0.0
C1630 C 0.37654 0.60127 0.77267 0.0
N1631 N 0.3869 0.57974 0.75815 0.0
C1632 C 0.3754 0.59832 0.74507 0.0
C1633 C 0.37206 0.60706 0.75913 0.0
H1634 H 0.38699 0.5842 0.78268 0.0
H1635 H 0.38484 0.57888 0.73375 0.0
C1636 C 0.4306 0.52856 0.71263 0.0
N1637 N 0.43007 0.54276 0.72124 0.0
C1638 C 0.43772 0.52707 0.69833 0.0
C1639 C 0.44401 0.55475 0.7014 0.0
C1640 C 0.4367 0.55573 0.7156 0.0
C1641 C 0.44475 0.54024 0.69215 0.0
H1642 H 0.42528 0.51814 0.71669 0.0
H1643 H 0.43629 0.56709 0.72199 0.0
O1644 O 0.39524 0.54414 0.77347 0.0
O1645 O 0.41896 0.52705 0.75518 0.0
O1646 O 0.39421 0.54099 0.73871 0.0
O1647 O 0.42215 0.56323 0.75981 0.0
H1648 H 0.37926 0.52577 0.79045 0.0
H1649 H 0.40748 0.57073 0.79146 0.0
H1650 H 0.37658 0.5329 0.8186 0.0
H1651 H 0.4043 0.57711 0.81963 0.0
H1652 H 0.46802 0.51868 0.76029 0.0
H1653 H 0.41441 0.506 0.77366 0.0
H1654 H 0.4482 0.53174 0.74937 0.0
H1655 H 0.4348 0.49337 0.78413 0.0
H1656 H 0.3532 0.48299 0.76823 0.0
H1657 H 0.38724 0.46693 0.73956 0.0
H1658 H 0.46405 0.56022 0.8175 0.0
H1659 H 0.42546 0.52624 0.82529 0.0
H1660 H 0.40016 0.56228 0.72064 0.0
H1661 H 0.38554 0.51339 0.72106 0.0
H1662 H 0.3981 0.55674 0.69181 0.0
H1663 H 0.38386 0.50866 0.6922 0.0
H1664 H 0.42006 0.58895 0.74863 0.0
H1665 H 0.45137 0.56041 0.76252 0.0
H1666 H 0.44227 0.60715 0.74172 0.0
H1667 H 0.47303 0.57907 0.75533 0.0
H1668 H 0.37473 0.60715 0.78402 0.0
H1669 H 0.37228 0.60155 0.73405 0.0
H1670 H 0.43739 0.51547 0.69209 0.0
H1671 H 0.44914 0.56551 0.69787 0.0
Li1672 Li 0.65038 0.03447 0.75228 0.0
Li1673 Li 0.67465 0.04319 0.74382 0.0
Li1674 Li 0.65381 0.02965 0.72525 0.0
Li1675 Li 0.66677 0.01603 0.74415 0.0
C1676 C 0.65512 0.06473 0.74573 0.0
N1677 N 0.65523 0.09477 0.76034 0.0
C1678 C 0.66127 0.06962 0.76114 0.0
C1679 C 0.64902 0.07514 0.73775 0.0
C1680 C 0.66122 0.08484 0.76833 0.0
C1681 C 0.64918 0.09027 0.74533 0.0
C1682 C 0.68081 0.03464 0.77437 0.0
C1683 C 0.70463 0.03002 0.78594 0.0
N1684 N 0.70201 0.03818 0.79973 0.0
C1685 C 0.67833 0.04292 0.78869 0.0
C1686 C 0.69404 0.02809 0.77299 0.0
C1687 C 0.6892 0.04461 0.80135 0.0
C1688 C 0.63658 0.03167 0.77936 0.0
N1689 N 0.63614 0.0386 0.76659 0.0
C1690 C 0.61642 0.05188 0.77588 0.0
C1691 C 0.62612 0.04826 0.76443 0.0
C1692 C 0.61693 0.04518 0.78937 0.0
C1693 C 0.62695 0.03476 0.79097 0.0
H1694 H 0.64462 0.02393 0.78059 0.0
H1695 H 0.62582 0.0533 0.75395 0.0
C1696 C 0.69193 0.06815 0.73395 0.0
N1697 N 0.6913 0.06024 0.7461 0.0
C1698 C 0.70276 0.08168 0.73459 0.0
C1699 C 0.71186 0.07897 0.76048 0.0
C1700 C 0.70103 0.0653 0.7592 0.0
C1701 C 0.7127 0.08729 0.74807 0.0
H1702 H 0.68366 0.06419 0.72393 0.0
H1703 H 0.70013 0.05915 0.7689 0.0
C1704 C 0.63023 0.00917 0.74223 0.0
N1705 N 0.60152 0.99981 0.75199 0.0
C1706 C 0.62824 0.99848 0.75248 0.0
C1707 C 0.61762 0.01502 0.73684 0.0
C1708 C 0.61363 0.99391 0.7573 0.0
C1709 C 0.60319 0.01017 0.74195 0.0
C1710 C 0.68833 0.03071 0.7199 0.0
C1711 C 0.68744 0.03616 0.70576 0.0
C1712 C 0.70272 0.03052 0.72723 0.0
C1713 C 0.70099 0.04167 0.69936 0.0
C1714 C 0.71601 0.03614 0.72048 0.0
N1715 N 0.71488 0.04158 0.70681 0.0
C1716 C 0.64506 0.04145 0.69957 0.0
C1717 C 0.63398 0.01496 0.69924 0.0
C1718 C 0.63587 0.04184 0.68626 0.0
N1719 N 0.64376 0.02823 0.70581 0.0
C1720 C 0.62452 0.01482 0.68591 0.0
C1721 C 0.62524 0.02849 0.67947 0.0
H1722 H 0.65285 0.05184 0.7053 0.0
H1723 H 0.63313 0.00472 0.7047 0.0
C1724 C 0.67173 0.99314 0.76131 0.0
N1725 N 0.67331 0.99788 0.74734 0.0
C1726 C 0.67849 0.98086 0.76475 0.0
C1727 C 0.68765 0.97819 0.73906 0.0
C1728 C 0.68082 0.9906 0.73617 0.0
C1729 C 0.68679 0.97344 0.75363 0.0
H1730 H 0.66577 0.99934 0.76996 0.0
H1731 H 0.68196 0.99483 0.72525 0.0
O1732 O 0.65508 0.0499 0.73836 0.0
O1733 O 0.67018 0.0328 0.76191 0.0
O1734 O 0.64451 0.01408 0.73768 0.0
O1735 O 0.67518 0.02553 0.72646 0.0
H1736 H 0.66605 0.06178 0.7675 0.0
H1737 H 0.64419 0.07155 0.72582 0.0
H1738 H 0.66596 0.08876 0.78025 0.0
H1739 H 0.6445 0.09844 0.73929 0.0
H1740 H 0.71492 0.02503 0.78502 0.0
H1741 H 0.66813 0.04803 0.79001 0.0
H1742 H 0.69613 0.02157 0.76208 0.0
H1743 H 0.68743 0.05102 0.81248 0.0
H1744 H 0.60871 0.05989 0.77431 0.0
H1745 H 0.62771 0.02951 0.80132 0.0
H1746 H 0.70288 0.08807 0.72497 0.0
H1747 H 0.71928 0.08317 0.77112 0.0
H1748 H 0.6379 0.99385 0.75675 0.0
H1749 H 0.619 0.02339 0.72898 0.0
H1750 H 0.61192 0.9857 0.76529 0.0
H1751 H 0.59334 0.01468 0.73797 0.0
H1752 H 0.6764 0.03625 0.69984 0.0
H1753 H 0.70363 0.02618 0.73807 0.0
H1754 H 0.70047 0.04605 0.68849 0.0
H1755 H 0.72722 0.03619 0.72611 0.0
H1756 H 0.6366 0.05265 0.68174 0.0
H1757 H 0.61653 0.00428 0.68089 0.0
H1758 H 0.67755 0.97741 0.77607 0.0
H1759 H 0.69413 0.97285 0.7303 0.0
Li1760 Li 0.77555 0.69078 0.01214 0.0
Li1761 Li 0.78547 0.67001 0.99719 0.0
Li1762 Li 0.77457 0.68839 0.98306 0.0
Li1763 Li 0.75711 0.66828 0.99589 0.0
C1764 C 0.80097 0.70761 0.00286 0.0
N1765 N 0.81658 0.73781 0.01222 0.0
C1766 C 0.81531 0.71051 0.0114 0.0
C1767 C 0.79458 0.72008 0.99911 0.0
C1768 C 0.82301 0.72585 0.01603 0.0
C1769 C 0.80265 0.73526 0.00392 0.0
C1770 C 0.7748 0.65554 0.01935 0.0
C1771 C 0.77308 0.62771 0.01579 0.0
N1772 N 0.78265 0.62939 0.02892 0.0
C1773 C 0.78459 0.657 0.03282 0.0
C1774 C 0.76897 0.6408 0.01076 0.0
C1775 C 0.78843 0.64363 0.03747 0.0
C1776 C 0.76822 0.71296 0.03768 0.0
N1777 N 0.77854 0.7041 0.03236 0.0
C1778 C 0.79273 0.70996 0.05744 0.0
C1779 C 0.79083 0.70278 0.04183 0.0
C1780 C 0.78182 0.71853 0.06347 0.0
C1781 C 0.76962 0.72025 0.05324 0.0
H1782 H 0.75864 0.7141 0.03007 0.0
H1783 H 0.79889 0.69567 0.03739 0.0
C1784 C 0.80117 0.64408 0.98855 0.0
N1785 N 0.80171 0.65795 0.99796 0.0
C1786 C 0.81338 0.636 0.98935 0.0
C1787 C 0.82614 0.65615 0.01012 0.0
C1788 C 0.81378 0.66393 0.00876 0.0
C1789 C 0.82618 0.64203 1.00021 0.0
H1790 H 0.79129 0.63916 0.98042 0.0
H1791 H 0.8137 0.67467 0.01651 0.0
C1792 C 0.74731 0.70056 1.00036 0.0
N1793 N 0.72598 0.7194 0.00745 0.0
C1794 C 0.73557 0.69614 0.00967 0.0
C1795 C 0.74812 0.71452 0.99456 0.0
C1796 C 0.72492 0.70583 0.01316 0.0
C1797 C 0.73726 0.72389 0.99831 0.0
C1798 C 0.77478 0.65651 0.96577 0.0
C1799 C 0.78835 0.66218 0.95948 0.0
C1800 C 0.76612 0.64197 0.95922 0.0
C1801 C 0.79296 0.65323 0.9466 0.0
C1802 C 0.77113 0.63337 0.94636 0.0
N1803 N 0.78433 0.63914 0.94036 0.0
C1804 C 0.78933 0.70276 0.95916 0.0
C1805 C 0.76214 0.69926 0.9567 0.0
C1806 C 0.7901 0.70843 0.94507 0.0
N1807 N 0.77548 0.69813 0.96461 0.0
C1808 C 0.76239 0.7051 0.94267 0.0
C1809 C 0.7765 0.70957 0.93654 0.0
H1810 H 0.7998 0.70176 0.96562 0.0
H1811 H 0.75126 0.69536 0.96115 0.0
C1812 C 0.73119 0.65326 0.00857 0.0
N1813 N 0.73713 0.65539 0.99489 0.0
C1814 C 0.7165 0.64444 0.00867 0.0
C1815 C 0.71454 0.63948 0.98061 0.0
C1816 C 0.72914 0.64873 0.98103 0.0
C1817 C 0.70801 0.6374 0.99457 0.0
H1818 H 0.73781 0.65861 0.01943 0.0
H1819 H 0.73407 0.65069 0.97031 0.0
O1820 O 0.79305 0.69269 0.99854 0.0
O1821 O 0.77135 0.66849 0.01426 0.0
O1822 O 0.75777 0.69117 0.99669 0.0
O1823 O 0.77014 0.66497 0.97849 0.0
H1824 H 0.82044 0.70104 0.01446 0.0
H1825 H 0.78347 0.71807 0.99263 0.0
H1826 H 0.8341 0.72826 0.02266 0.0
H1827 H 0.79782 0.74501 1.0011 0.0
H1828 H 0.76872 0.61624 0.00921 0.0
H1829 H 0.78926 0.66832 0.03957 0.0
H1830 H 0.76155 0.63949 1.00018 0.0
H1831 H 0.79604 0.64458 0.04784 0.0
H1832 H 0.80229 0.70824 0.06487 0.0
H1833 H 0.76108 0.72698 0.05727 0.0
H1834 H 0.8128 0.62523 0.98138 0.0
H1835 H 0.83545 0.6611 0.019 0.0
H1836 H 0.73483 0.68547 0.01436 0.0
H1837 H 0.757 0.71807 0.98718 0.0
H1838 H 0.71583 0.70259 0.02043 0.0
H1839 H 0.73777 0.73473 0.99392 0.0
H1840 H 0.79537 0.67322 0.96467 0.0
H1841 H 0.75572 0.63731 0.96411 0.0
H1842 H 0.80345 0.65745 0.94162 0.0
H1843 H 0.76456 0.62209 0.94118 0.0
H1844 H 0.80123 0.71189 0.94088 0.0
H1845 H 0.75162 0.70565 0.93645 0.0
H1846 H 0.71188 0.643 0.01967 0.0
H1847 H 0.70828 0.63428 0.9695 0.0
Li1848 Li 0.89098 0.51037 0.77481 0.0
Li1849 Li 0.91121 0.52628 0.79163 0.0
Li1850 Li 0.89391 0.53721 0.77412 0.0
Li1851 Li 0.91267 0.52127 0.76387 0.0
C1852 C 0.87721 0.52078 0.79977 0.0
N1853 N 0.85293 0.50765 0.81475 0.0
C1854 C 0.87875 0.50865 0.8079 0.0
C1855 C 0.8634 0.52638 0.7994 0.0
C1856 C 0.86631 0.50212 0.81535 0.0
C1857 C 0.85124 0.51955 0.80703 0.0
C1858 C 0.92635 0.50278 0.78135 0.0
C1859 C 0.95384 0.51119 0.78657 0.0
N1860 N 0.95535 0.49634 0.78755 0.0
C1861 C 0.9282 0.4876 0.78251 0.0
C1862 C 0.93929 0.51467 0.78348 0.0
C1863 C 0.94294 0.48458 0.7856 0.0
C1864 C 0.88126 0.47858 0.77094 0.0
N1865 N 0.87582 0.4921 0.77263 0.0
C1866 C 0.84995 0.47837 0.77113 0.0
C1867 C 0.86049 0.49227 0.77239 0.0
C1868 C 0.85536 0.46427 0.76994 0.0
C1869 C 0.8712 0.46446 0.76955 0.0
H1870 H 0.89345 0.47878 0.77062 0.0
H1871 H 0.85644 0.50317 0.77324 0.0
C1872 C 0.92967 0.54435 0.81756 0.0
N1873 N 0.92217 0.52988 0.81103 0.0
C1874 C 0.93837 0.54654 0.8318 0.0
C1875 C 0.93125 0.51891 0.83214 0.0
C1876 C 0.9227 0.51729 0.81799 0.0
C1877 C 0.9392 0.53368 0.83922 0.0
H1878 H 0.92895 0.55411 0.81167 0.0
H1879 H 0.9167 0.50592 0.81239 0.0
C1880 C 0.8815 0.50963 0.74582 0.0
N1881 N 0.86154 0.48721 0.72518 0.0
C1882 C 0.88668 0.49672 0.73807 0.0
C1883 C 0.86619 0.51118 0.74303 0.0
C1884 C 0.8764 0.4855 0.72769 0.0
C1885 C 0.85628 0.49971 0.73256 0.0
C1886 C 0.92665 0.55322 0.77238 0.0
C1887 C 0.92139 0.56021 0.76035 0.0
C1888 C 0.94181 0.55815 0.77899 0.0
C1889 C 0.93145 0.57173 0.75485 0.0
C1890 C 0.95152 0.56972 0.77319 0.0
N1891 N 0.94619 0.5762 0.76133 0.0
C1892 C 0.88273 0.56438 0.78423 0.0
C1893 C 0.87821 0.55439 0.75722 0.0
C1894 C 0.87485 0.57641 0.78241 0.0
N1895 N 0.88412 0.55371 0.77171 0.0
C1896 C 0.87024 0.56615 0.75487 0.0
C1897 C 0.86839 0.57725 0.76758 0.0
H1898 H 0.88757 0.5634 0.7956 0.0
H1899 H 0.87973 0.54579 0.7475 0.0
C1900 C 0.93358 0.50758 0.74463 0.0
N1901 N 0.92455 0.51856 0.74674 0.0
C1902 C 0.94035 0.5048 0.73077 0.0
C1903 C 0.9282 0.52443 0.72133 0.0
C1904 C 0.92168 0.52684 0.73539 0.0
C1905 C 0.93755 0.51317 0.71888 0.0
H1906 H 0.93502 0.50038 0.75325 0.0
H1907 H 0.91376 0.53483 0.73699 0.0
O1908 O 0.88918 0.52725 0.79228 0.0
O1909 O 0.9119 0.50594 0.77868 0.0
O1910 O 0.89132 0.52057 0.75625 0.0
O1911 O 0.9169 0.54202 0.77805 0.0
H1912 H 0.88933 0.50414 0.80822 0.0
H1913 H 0.86205 0.53579 0.79317 0.0
H1914 H 0.86729 0.49261 0.82155 0.0
H1915 H 0.84044 0.52369 0.80677 0.0
H1916 H 0.96392 0.52031 0.78818 0.0
H1917 H 0.91836 0.47824 0.78112 0.0
H1918 H 0.93813 0.52641 0.78266 0.0
H1919 H 0.94451 0.47289 0.7865 0.0
H1920 H 0.83781 0.47868 0.7714 0.0
H1921 H 0.87578 0.4538 0.76818 0.0
H1922 H 0.94429 0.55811 0.83699 0.0
H1923 H 0.93184 0.50867 0.83735 0.0
H1924 H 0.89845 0.49525 0.74021 0.0
H1925 H 0.86194 0.52101 0.74906 0.0
H1926 H 0.88023 0.4754 0.72168 0.0
H1927 H 0.84437 0.5007 0.73036 0.0
H1928 H 0.9097 0.5567 0.75517 0.0
H1929 H 0.94606 0.55321 0.78859 0.0
H1930 H 0.92752 0.57713 0.74545 0.0
H1931 H 0.96328 0.57358 0.77817 0.0
H1932 H 0.87352 0.58473 0.79248 0.0
H1933 H 0.86562 0.5666 0.74323 0.0
H1934 H 0.94714 0.49569 0.72913 0.0
H1935 H 0.92571 0.53106 0.71237 0.0
Li1936 Li 0.76506 0.42222 0.51297 0.0
Li1937 Li 0.75187 0.44058 0.50184 0.0
Li1938 Li 0.76384 0.42007 0.48427 0.0
Li1939 Li 0.78112 0.44292 0.50234 0.0
C1940 C 0.7338 0.41001 0.5038 0.0
N1941 N 0.70851 0.39539 0.51636 0.0
C1942 C 0.72971 0.41651 0.51822 0.0
C1943 C 0.72509 0.39607 0.49578 0.0
C1944 C 0.71686 0.40895 0.52437 0.0
C1945 C 0.71232 0.38885 0.50233 0.0
C1946 C 0.76901 0.45942 0.52863 0.0
C1947 C 0.77505 0.48733 0.53089 0.0
N1948 N 0.77119 0.48875 0.54581 0.0
C1949 C 0.76524 0.46113 0.54402 0.0
C1950 C 0.77406 0.47258 0.52202 0.0
C1951 C 0.76636 0.47607 0.55251 0.0
C1952 C 0.77547 0.41726 0.54241 0.0
N1953 N 0.76567 0.41044 0.52973 0.0
C1954 C 0.75864 0.38761 0.54118 0.0
C1955 C 0.75737 0.39584 0.52887 0.0
C1956 C 0.76875 0.39431 0.55446 0.0
C1957 C 0.77726 0.40937 0.55488 0.0
H1958 H 0.78213 0.42878 0.54271 0.0
H1959 H 0.74986 0.3905 0.51857 0.0
C1960 C 0.72454 0.45079 0.48988 0.0
N1961 N 0.73348 0.45077 0.5031 0.0
C1962 C 0.71069 0.45658 0.49054 0.0
C1963 C 0.71539 0.46246 0.51839 0.0
C1964 C 0.7291 0.45652 0.5172 0.0
C1965 C 0.70579 0.46249 0.50497 0.0
H1966 H 0.72802 0.44604 0.47875 0.0
H1967 H 0.736 0.45613 0.52767 0.0
C1968 C 0.78797 0.40884 0.50397 0.0
N1969 N 0.7996 0.38534 0.51532 0.0
C1970 C 0.80089 0.41243 0.51473 0.0
C1971 C 0.78099 0.39331 0.49894 0.0
C1972 C 0.80659 0.40038 0.52034 0.0
C1973 C 0.78704 0.38159 0.50482 0.0
C1974 C 0.76863 0.45362 0.47473 0.0
C1975 C 0.77557 0.44969 0.46109 0.0
C1976 C 0.76459 0.46827 0.47818 0.0
C1977 C 0.77869 0.46067 0.45126 0.0
C1978 C 0.7679 0.47893 0.46805 0.0
N1979 N 0.77484 0.47494 0.45492 0.0
C1980 C 0.75075 0.40061 0.45485 0.0
C1981 C 0.7776 0.40353 0.46077 0.0
C1982 C 0.7516 0.39083 0.44076 0.0
N1983 N 0.76367 0.40673 0.46452 0.0
C1984 C 0.77896 0.39376 0.44694 0.0
C1985 C 0.76588 0.38723 0.4366 0.0
H1986 H 0.73978 0.40332 0.45805 0.0
H1987 H 0.78773 0.4085 0.46864 0.0
C1988 C 0.81042 0.45793 0.51831 0.0
N1989 N 0.80214 0.45506 0.50421 0.0
C1990 C 0.82631 0.46391 0.51973 0.0
C1991 C 0.82489 0.46447 0.49222 0.0
C1992 C 0.80908 0.45833 0.4913 0.0
C1993 C 0.83388 0.46708 0.50653 0.0
H1994 H 0.80482 0.45496 0.5284 0.0
H1995 H 0.80254 0.45554 0.48012 0.0
O1996 O 0.7465 0.41705 0.49772 0.0
O1997 O 0.76797 0.44487 0.52022 0.0
O1998 O 0.78188 0.42047 0.49875 0.0
O1999 O 0.76538 0.44299 0.48443 0.0
H2000 H 0.73653 0.42714 0.52469 0.0
H2001 H 0.72821 0.39085 0.48466 0.0
H2002 H 0.71357 0.41381 0.53553 0.0
H2003 H 0.70547 0.37804 0.49627 0.0
H2004 H 0.77892 0.49763 0.52592 0.0
H2005 H 0.76139 0.45101 0.54931 0.0
H2006 H 0.7773 0.47143 0.51023 0.0
H2007 H 0.7634 0.47759 0.56441 0.0
H2008 H 0.75166 0.37614 0.54029 0.0
H2009 H 0.78548 0.41497 0.5646 0.0
H2010 H 0.70391 0.45644 0.4798 0.0
H2011 H 0.71215 0.46655 0.52983 0.0
H2012 H 0.80636 0.4244 0.51882 0.0
H2013 H 0.77087 0.39036 0.49075 0.0
H2014 H 0.81653 0.40298 0.52874 0.0
H2015 H 0.78171 0.36953 0.5011 0.0
H2016 H 0.77861 0.43833 0.45819 0.0
H2017 H 0.75889 0.47136 0.48852 0.0
H2018 H 0.78417 0.45785 0.44071 0.0
H2019 H 0.76491 0.49034 0.4706 0.0
H2020 H 0.74119 0.38629 0.43317 0.0
H2021 H 0.79018 0.39117 0.44456 0.0
H2022 H 0.83263 0.46581 0.53104 0.0
H2023 H 0.83014 0.46648 0.48166 0.0
Li2024 Li 0.64387 0.50967 0.27908 0.0
Li2025 Li 0.66628 0.52617 0.26454 0.0
Li2026 Li 0.64431 0.50743 0.24792 0.0
Li2027 Li 0.66433 0.4937 0.2622 0.0
C2028 C 0.63285 0.53352 0.25943 0.0
N2029 N 0.61098 0.54839 0.24758 0.0
C2030 C 0.63719 0.5453 0.25074 0.0
C2031 C 0.61744 0.52938 0.26222 0.0
C2032 C 0.62595 0.55265 0.24481 0.0
C2033 C 0.60654 0.53702 0.2561 0.0
C2034 C 0.68027 0.51759 0.29176 0.0
C2035 C 0.70702 0.51886 0.29979 0.0
N2036 N 0.70588 0.52965 0.31235 0.0
C2037 C 0.67935 0.52867 0.30474 0.0
C2038 C 0.69419 0.51263 0.28922 0.0
C2039 C 0.69244 0.53465 0.31501 0.0
C2040 C 0.6227 0.49822 0.30371 0.0
N2041 N 0.63218 0.51085 0.29996 0.0
C2042 C 0.62731 0.52574 0.32467 0.0
C2043 C 0.63434 0.52451 0.31033 0.0
C2044 C 0.61751 0.51291 0.32895 0.0
C2045 C 0.61532 0.49901 0.31787 0.0
H2046 H 0.62083 0.48729 0.29575 0.0
H2047 H 0.64162 0.53468 0.30758 0.0
C2048 C 0.68447 0.55362 0.25257 0.0
N2049 N 0.67887 0.54888 0.26567 0.0
C2050 C 0.69164 0.56928 0.25245 0.0
C2051 C 0.68706 0.57562 0.27918 0.0
C2052 C 0.68013 0.55978 0.27886 0.0
C2053 C 0.69303 0.58085 0.26584 0.0
H2054 H 0.68299 0.54537 0.24189 0.0
H2055 H 0.67543 0.55634 0.28921 0.0
C2056 C 0.62813 0.47918 0.25518 0.0
N2057 N 0.60292 0.4573 0.2417 0.0
C2058 C 0.63018 0.46574 0.24545 0.0
C2059 C 0.61329 0.48145 0.25819 0.0
C2060 C 0.61727 0.45483 0.2387 0.0
C2061 C 0.60068 0.47025 0.25124 0.0
C2062 C 0.67016 0.50395 0.23131 0.0
C2063 C 0.66092 0.4906 0.22269 0.0
C2064 C 0.68221 0.5121 0.22454 0.0
C2065 C 0.66373 0.48578 0.20731 0.0
C2066 C 0.68468 0.50689 0.20913 0.0
N2067 N 0.67545 0.49396 0.20089 0.0
C2068 C 0.6375 0.51907 0.21815 0.0
C2069 C 0.6192 0.49689 0.21964 0.0
C2070 C 0.63038 0.52039 0.20351 0.0
N2071 N 0.63194 0.50751 0.22623 0.0
C2072 C 0.61179 0.49773 0.20491 0.0
C2073 C 0.61718 0.50968 0.19636 0.0
H2074 H 0.6477 0.52741 0.22301 0.0
H2075 H 0.61465 0.48759 0.22571 0.0
C2076 C 0.67746 0.46685 0.27464 0.0
N2077 N 0.67584 0.47367 0.2617 0.0
C2078 C 0.68455 0.45344 0.27456 0.0
C2079 C 0.68859 0.45363 0.24789 0.0
C2080 C 0.68141 0.46703 0.24844 0.0
C2081 C 0.69044 0.44623 0.26105 0.0
H2082 H 0.67312 0.47172 0.28526 0.0
H2083 H 0.68033 0.47208 0.23802 0.0
O2084 O 0.64361 0.52596 0.26504 0.0
O2085 O 0.66764 0.51166 0.2815 0.0
O2086 O 0.6406 0.49005 0.2618 0.0
O2087 O 0.66743 0.50888 0.24634 0.0
H2088 H 0.64908 0.54863 0.24848 0.0
H2089 H 0.61394 0.52034 0.26901 0.0
H2090 H 0.62911 0.56172 0.23798 0.0
H2091 H 0.59456 0.53391 0.25812 0.0
H2092 H 0.71787 0.51512 0.29799 0.0
H2093 H 0.66867 0.53268 0.3068 0.0
H2094 H 0.69507 0.50406 0.2792 0.0
H2095 H 0.69191 0.54327 0.32509 0.0
H2096 H 0.62947 0.5369 0.33225 0.0
H2097 H 0.60814 0.48856 0.32018 0.0
H2098 H 0.69561 0.57234 0.24167 0.0
H2099 H 0.68773 0.58371 0.28994 0.0
H2100 H 0.64162 0.46376 0.24314 0.0
H2101 H 0.61154 0.49175 0.26579 0.0
H2102 H 0.61867 0.44439 0.23109 0.0
H2103 H 0.58912 0.47187 0.25341 0.0
H2104 H 0.65159 0.48413 0.22778 0.0
H2105 H 0.68973 0.52222 0.23114 0.0
H2106 H 0.65659 0.47554 0.20047 0.0
H2107 H 0.69397 0.5131 0.20373 0.0
H2108 H 0.6355 0.52973 0.19773 0.0
H2109 H 0.60169 0.48908 0.2004 0.0
H2110 H 0.68514 0.44869 0.2852 0.0
H2111 H 0.69281 0.44927 0.23703 0.0
Eu2112 Eu 0.04049 0.04474 0.01508 0.0
Eu2113 Eu 0.02194 0.00948 0.00558 0.0
C2114 C 0.04314 0.02487 0.97971 0.0
C2115 C 0.04753 0.08846 0.02379 0.0
C2116 C 0.05655 0.10212 0.02079 0.0
C2117 C 0.02493 0.10056 0.02326 0.0
C2118 C 0.04969 0.11467 0.01833 0.0
C2119 C 0.03182 0.08796 0.0257 0.0
C2120 C 0.03372 0.11367 0.0188 0.0
C2121 C 0.0536 0.07402 0.02105 0.0
O2122 O 0.04581 0.00628 0.01411 0.0
O2123 O 0.05962 0.0312 0.01767 0.0
C2124 C 0.05901 0.01615 0.01678 0.0
O2125 O 0.03082 0.0403 0.03842 0.0
O2126 O 0.01274 0.98842 0.98866 0.0
O2127 O 0.00901 0.98908 0.01292 0.0
O2128 O 0.01429 0.01722 0.03003 0.0
C2129 C 0.0196 0.02927 0.04112 0.0
O2130 O 0.01552 0.04712 0.01195 0.0
O2131 O 0.00424 0.02332 0.99819 0.0
O2132 O 0.03558 0.01226 0.98413 0.0
O2133 O 0.0522 0.06513 0.03167 0.0
O2134 O 0.04972 0.06618 0.00712 0.0
O2135 O 0.04466 0.03848 0.98901 0.0
C2136 C 0.01517 0.96628 0.99976 0.0
C2137 C 0.02811 0.96693 0.01003 0.0
C2138 C 0.0145 0.93871 0.9915 0.0
C2139 C 0.03394 0.95356 0.01137 0.0
C2140 C 0.00854 0.95218 0.99028 0.0
C2141 C 0.0271 0.93922 0.0023 0.0
C2142 C 0.00856 0.98032 0.99944 0.0
C2143 C 0.00344 0.03766 0.00435 0.0
H2144 H 0.06863 0.10261 0.0191 0.0
H2145 H 0.01258 0.09953 0.02357 0.0
H2146 H 0.05667 0.12474 0.01498 0.0
H2147 H 0.02467 0.0774 0.02784 0.0
H2148 H 0.03344 0.97769 0.01747 0.0
H2149 H 0.00907 0.92788 0.98423 0.0
H2150 H 0.0434 0.95442 0.02007 0.0
H2151 H 0.99863 0.95152 0.98218 0.0
Eu2152 Eu 0.28909 0.77793 0.24024 0.0
Eu2153 Eu 0.27702 0.77486 0.27532 0.0
C2154 C 0.25464 0.77973 0.24708 0.0
C2155 C 0.29579 0.79124 0.20109 0.0
C2156 C 0.28742 0.80333 0.20406 0.0
C2157 C 0.30041 0.79821 0.17575 0.0
C2158 C 0.28556 0.81281 0.19291 0.0
C2159 C 0.30226 0.78877 0.18689 0.0
C2160 C 0.29204 0.81037 0.17859 0.0
C2161 C 0.29762 0.78094 0.2125 0.0
O2162 O 0.28335 0.7522 0.26521 0.0
O2163 O 0.27681 0.75337 0.23985 0.0
C2164 C 0.2789 0.74535 0.25093 0.0
O2165 O 0.30792 0.77006 0.25354 0.0
O2166 O 0.26122 0.7623 0.2893 0.0
O2167 O 0.2786 0.78186 0.30051 0.0
O2168 O 0.3028 0.78098 0.27779 0.0
C2169 C 0.31215 0.77524 0.26833 0.0
O2170 O 0.29543 0.80137 0.25547 0.0
O2171 O 0.27659 0.79957 0.27249 0.0
O2172 O 0.25604 0.77193 0.25854 0.0
O2173 O 0.30613 0.7872 0.22535 0.0
O2174 O 0.28514 0.77178 0.215 0.0
O2175 O 0.26662 0.78614 0.24072 0.0
C2176 C 0.27123 0.76119 0.31469 0.0
C2177 C 0.28633 0.76042 0.31997 0.0
C2178 C 0.26149 0.74462 0.33301 0.0
C2179 C 0.28897 0.75199 0.33188 0.0
C2180 C 0.25888 0.75313 0.32123 0.0
C2181 C 0.27656 0.74409 0.33866 0.0
C2182 C 0.26797 0.77027 0.30245 0.0
C2183 C 0.28702 0.80781 0.26557 0.0
H2184 H 0.28232 0.80539 0.21499 0.0
H2185 H 0.30533 0.7958 0.16478 0.0
H2186 H 0.27918 0.82214 0.19556 0.0
H2187 H 0.30867 0.77943 0.18436 0.0
H2188 H 0.29609 0.76643 0.31501 0.0
H2189 H 0.25163 0.73836 0.3376 0.0
H2190 H 0.30073 0.75195 0.33596 0.0
H2191 H 0.24714 0.75341 0.31721 0.0
Eu2192 Eu 0.54584 0.02256 0.50501 0.0
Eu2193 Eu 0.51061 0.02824 0.51455 0.0
C2194 C 0.53865 0.03178 0.54032 0.0
C2195 C 0.58432 0.00711 0.50088 0.0
C2196 C 0.58358 0.99875 0.51329 0.0
C2197 C 0.60839 0.9989 0.49489 0.0
C2198 C 0.5953 0.99055 0.51654 0.0
C2199 C 0.59676 0.00707 0.49171 0.0
C2200 C 0.60792 0.99059 0.5074 0.0
C2201 C 0.57211 0.01554 0.49678 0.0
O2202 O 0.52444 0.05189 0.51396 0.0
O2203 O 0.54489 0.04649 0.49993 0.0
C2204 C 0.53629 0.05609 0.50614 0.0
O2205 O 0.52938 0.01607 0.48341 0.0
O2206 O 0.49587 0.0391 0.53035 0.0
O2207 O 0.48563 0.02238 0.51002 0.0
O2208 O 0.51188 0.03174 0.48992 0.0
C2209 C 0.51876 0.02377 0.47951 0.0
O2210 O 0.5353 0.0031 0.51681 0.0
O2211 O 0.51035 0.00254 0.50828 0.0
O2212 O 0.52401 0.02609 0.53642 0.0
O2213 O 0.55872 0.00712 0.49155 0.0
O2214 O 0.57097 0.02823 0.50611 0.0
O2215 O 0.54852 0.03423 0.52992 0.0
C2216 C 0.47174 0.04206 0.5193 0.0
C2217 C 0.47308 0.05176 0.50798 0.0
C2218 C 0.44793 0.05049 0.52597 0.0
C2219 C 0.4618 0.06072 0.5056 0.0
C2220 C 0.45916 0.04158 0.52831 0.0
C2221 C 0.449 0.06008 0.5145 0.0
C2222 C 0.48318 0.03226 0.52193 0.0
C2223 C 0.52117 0.99558 0.5132 0.0
H2224 H 0.57397 0.99854 0.52042 0.0
H2225 H 0.61768 0.99893 0.48737 0.0
H2226 H 0.59456 0.98436 0.5263 0.0
H2227 H 0.59742 0.0133 0.48195 0.0
H2228 H 0.48276 0.05231 0.50092 0.0
H2229 H 0.43842 0.04993 0.53324 0.0
H2230 H 0.46295 0.0679 0.49662 0.0
H2231 H 0.458 0.03425 0.53718 0.0
Eu2232 Eu 0.26363 0.2809 0.75691 0.0
Eu2233 Eu 0.29653 0.27141 0.76289 0.0
C2234 C 0.26506 0.24495 0.76196 0.0
C2235 C 0.2231 0.28945 0.76058 0.0
C2236 C 0.21765 0.2772 0.76842 0.0
C2237 C 0.20283 0.30278 0.76971 0.0
C2238 C 0.20479 0.27774 0.77686 0.0
C2239 C 0.21558 0.30216 0.76118 0.0
C2240 C 0.19735 0.29063 0.77773 0.0
C2241 C 0.23735 0.28993 0.75286 0.0
O2242 O 0.29116 0.26429 0.73699 0.0
O2243 O 0.27232 0.27837 0.73309 0.0
C2244 C 0.28209 0.26973 0.72768 0.0
O2245 O 0.28087 0.30413 0.76085 0.0
O2246 O 0.31098 0.25375 0.76119 0.0
O2247 O 0.32026 0.27706 0.77316 0.0
O2248 O 0.30301 0.29538 0.7553 0.0
C2249 C 0.29539 0.30702 0.75768 0.0
O2250 O 0.26524 0.27917 0.78246 0.0
O2251 O 0.29142 0.28342 0.78613 0.0
O2252 O 0.27947 0.25023 0.76778 0.0
O2253 O 0.24943 0.29862 0.76091 0.0
O2254 O 0.24023 0.27677 0.7458 0.0
O2255 O 0.25734 0.25427 0.75557 0.0
C2256 C 0.33665 0.26365 0.75856 0.0
C2257 C 0.33776 0.2716 0.74586 0.0
C2258 C 0.36043 0.2548 0.7531 0.0
C2259 C 0.3502 0.2712 0.73686 0.0
C2260 C 0.348 0.25526 0.76216 0.0
C2261 C 0.36162 0.26275 0.74037 0.0
C2262 C 0.32326 0.26349 0.76755 0.0
C2263 C 0.27798 0.28305 0.79171 0.0
H2264 H 0.22347 0.26737 0.76823 0.0
H2265 H 0.19755 0.313 0.77037 0.0
H2266 H 0.20074 0.2681 0.78274 0.0
H2267 H 0.21981 0.31182 0.75536 0.0
H2268 H 0.32892 0.27797 0.74284 0.0
H2269 H 0.36917 0.24833 0.75613 0.0
H2270 H 0.35077 0.27728 0.727 0.0
H2271 H 0.3472 0.249 0.77188 0.0
Eu2272 Eu 0.0254 0.04198 0.51808 0.0
Eu2273 Eu 0.03559 0.01042 0.50347 0.0
C2274 C 0.05739 0.04311 0.50348 0.0
C2275 C 0.0199 0.08269 0.52122 0.0
C2276 C 0.02716 0.0827 0.5074 0.0
C2277 C 0.01498 0.10855 0.51982 0.0
C2278 C 0.02849 0.09555 0.49992 0.0
C2279 C 0.01378 0.09564 0.52742 0.0
C2280 C 0.02234 0.1086 0.50596 0.0
C2281 C 0.01875 0.06895 0.52878 0.0
O2282 O 0.03756 0.01015 0.5299 0.0
O2283 O 0.04113 0.03635 0.53772 0.0
C2284 C 0.04235 0.02243 0.54084 0.0
O2285 O 0.00727 0.02362 0.52512 0.0
O2286 O 0.05316 0.99588 0.50275 0.0
O2287 O 0.03218 0.98828 0.4876 0.0
O2288 O 0.01083 0.00275 0.50762 0.0
C2289 C 0.00262 0.00928 0.51783 0.0
O2290 O 0.01422 0.03765 0.4929 0.0
O2291 O 0.02767 0.01969 0.48149 0.0
O2292 O 0.05698 0.02897 0.50629 0.0
O2293 O 0.00845 0.05705 0.52208 0.0
O2294 O 0.03189 0.06499 0.53222 0.0
O2295 O 0.04489 0.04908 0.50362 0.0
C2296 C 0.04163 0.96974 0.50038 0.0
C2297 C 0.02712 0.96422 0.50514 0.0
C2298 C 0.05218 0.95062 0.51272 0.0
C2299 C 0.02519 0.95213 0.51373 0.0
C2300 C 0.0541 0.9627 0.50402 0.0
C2301 C 0.03776 0.94543 0.51791 0.0
C2302 C 0.04427 0.9842 0.49383 0.0
C2303 C 0.01793 0.02936 0.48019 0.0
H2304 H 0.03186 0.07275 0.50239 0.0
H2305 H 0.01001 0.1184 0.52467 0.0
H2306 H 0.0345 0.0953 0.48947 0.0
H2307 H 0.00806 0.09574 0.53805 0.0
H2308 H 0.01733 0.96957 0.5027 0.0
H2309 H 0.0621 0.94575 0.51586 0.0
H2310 H 0.01387 0.94818 0.51729 0.0
H2311 H 0.06544 0.96698 0.50068 0.0
Eu2312 Eu 0.29636 0.78606 0.75796 0.0
Eu2313 Eu 0.26453 0.76445 0.76152 0.0
C2314 C 0.28242 0.78757 0.79144 0.0
C2315 C 0.33875 0.80041 0.76145 0.0
C2316 C 0.33994 0.79082 0.77265 0.0
C2317 C 0.36653 0.80614 0.76189 0.0
C2318 C 0.35433 0.78896 0.7785 0.0
C2319 C 0.35207 0.80804 0.75606 0.0
C2320 C 0.36777 0.7966 0.7732 0.0
C2321 C 0.32353 0.80183 0.75512 0.0
O2322 O 0.25691 0.78757 0.75682 0.0
O2323 O 0.28016 0.80397 0.75807 0.0
C2324 C 0.26494 0.80188 0.75729 0.0
O2325 O 0.2846 0.77835 0.73366 0.0
O2326 O 0.2472 0.7513 0.77362 0.0
O2327 O 0.24366 0.75087 0.74873 0.0
O2328 O 0.27396 0.75514 0.73935 0.0
C2329 C 0.27931 0.7635 0.72914 0.0
O2330 O 0.30295 0.76165 0.75851 0.0
O2331 O 0.28185 0.74908 0.76835 0.0
O2332 O 0.26911 0.78022 0.78451 0.0
O2333 O 0.31656 0.78999 0.74496 0.0
O2334 O 0.31445 0.80642 0.76535 0.0
O2335 O 0.29501 0.78837 0.78408 0.0
C2336 C 0.22196 0.74996 0.76238 0.0
C2337 C 0.21939 0.76507 0.76747 0.0
C2338 C 0.19514 0.74181 0.7529 0.0
C2339 C 0.20478 0.76863 0.76488 0.0
C2340 C 0.20966 0.73824 0.75562 0.0
C2341 C 0.19275 0.75713 0.75701 0.0
C2342 C 0.2376 0.74701 0.76116 0.0
C2343 C 0.29596 0.74924 0.76388 0.0
H2344 H 0.32971 0.78469 0.77678 0.0
H2345 H 0.37674 0.81222 0.75769 0.0
H2346 H 0.35493 0.78135 0.78702 0.0
H2347 H 0.35128 0.8154 0.74733 0.0
H2348 H 0.22886 0.77431 0.77248 0.0
H2349 H 0.18597 0.73282 0.74678 0.0
H2350 H 0.20316 0.78055 0.76797 0.0
H2351 H 0.21153 0.72658 0.75145 0.0
Eu2352 Eu 0.53388 0.0273 0.03248 0.0
Eu2353 Eu 0.53059 0.0289 0.99001 0.0
C2354 C 0.52963 0.05551 0.01138 0.0
C2355 C 0.52351 0.02833 0.07247 0.0
C2356 C 0.51773 0.03703 0.08476 0.0
C2357 C 0.50872 0.00458 0.07852 0.0
C2358 C 0.50748 0.02954 0.09392 0.0
C2359 C 0.51886 0.01207 0.06932 0.0
C2360 C 0.50289 0.01326 0.09083 0.0
C2361 C 0.53315 0.03614 0.06194 0.0
O2362 O 0.55575 0.03844 0.999 0.0
O2363 O 0.55812 0.03431 0.02503 0.0
C2364 C 0.564 0.03853 0.01228 0.0
O2365 O 0.53495 1.00202 0.02623 0.0
O2366 O 0.52113 0.02929 0.96658 0.0
O2367 O 0.53773 0.01445 0.97032 0.0
O2368 O 0.53319 0.01058 0.004 0.0
C2369 C 0.53484 0.99907 0.01118 0.0
O2370 O 0.50895 0.01718 0.0236 0.0
O2371 O 0.50648 0.02136 0.99763 0.0
O2372 O 0.52927 0.05441 0.99645 0.0
O2373 O 0.54358 0.02862 0.05616 0.0
O2374 O 0.5256 0.04174 0.05149 0.0
O2375 O 0.53154 0.0425 0.01552 0.0
C2376 C 0.53991 0.02781 0.9491 0.0
C2377 C 0.55554 0.03428 0.95321 0.0
C2378 C 0.54128 0.03804 0.92504 0.0
C2379 C 0.56399 0.04253 0.94322 0.0
C2380 C 0.53287 0.02963 0.93494 0.0
C2381 C 0.55685 0.04464 0.92919 0.0
C2382 C 0.53052 0.02077 0.96025 0.0
C2383 C 0.50068 0.01692 0.01032 0.0
H2384 H 0.52098 0.04957 0.08712 0.0
H2385 H 0.50527 0.99204 0.07589 0.0
H2386 H 0.50326 0.03645 0.10352 0.0
H2387 H 0.52291 0.00517 0.0596 0.0
H2388 H 0.56113 0.03324 0.96425 0.0
H2389 H 0.53565 0.03928 0.91408 0.0
H2390 H 0.57601 0.04749 0.94657 0.0
H2391 H 0.5208 0.02485 0.9317 0.0
Eu2392 Eu 0.28937 0.29344 0.2696 0.0
Eu2393 Eu 0.27141 0.25934 0.25141 0.0
C2394 C 0.27971 0.28736 0.23236 0.0
C2395 C 0.29862 0.33632 0.28155 0.0
C2396 C 0.2954 0.33951 0.26658 0.0
C2397 C 0.28857 0.35904 0.29254 0.0
C2398 C 0.28849 0.35215 0.2646 0.0
C2399 C 0.29562 0.34646 0.29452 0.0
C2400 C 0.28446 0.36169 0.27754 0.0
C2401 C 0.30231 0.32117 0.28359 0.0
O2402 O 0.29618 0.26152 0.24677 0.0
O2403 O 0.3072 0.27817 0.26869 0.0
C2404 C 0.30821 0.26787 0.25649 0.0
O2405 O 0.2799 0.27996 0.28793 0.0
O2406 O 0.26745 0.24103 0.23106 0.0
O2407 O 0.25534 0.23768 0.25143 0.0
O2408 O 0.28083 0.25583 0.275 0.0
C2409 C 0.28012 0.26521 0.288 0.0
O2410 O 0.26549 0.29694 0.26311 0.0
O2411 O 0.25304 0.27159 0.26086 0.0
O2412 O 0.26933 0.27526 0.23391 0.0
O2413 O 0.29154 0.31226 0.2893 0.0
O2414 O 0.308 0.31356 0.27197 0.0
O2415 O 0.28994 0.29448 0.24388 0.0
C2416 C 0.26626 0.21721 0.23933 0.0
C2417 C 0.27784 0.21802 0.25122 0.0
C2418 C 0.27103 0.19194 0.22776 0.0
C2419 C 0.28608 0.20605 0.2513 0.0
C2420 C 0.26274 0.20406 0.22767 0.0
C2421 C 0.28299 0.19306 0.23942 0.0
C2422 C 0.25952 0.23102 0.23837 0.0
C2423 C 0.25291 0.28654 0.26258 0.0
H2424 H 0.29745 0.3318 0.25634 0.0
H2425 H 0.28551 0.36611 0.30273 0.0
H2426 H 0.28574 0.35408 0.25291 0.0
H2427 H 0.29784 0.34406 0.30615 0.0
H2428 H 0.28087 0.22815 0.26022 0.0
H2429 H 0.26847 0.182 0.21848 0.0
H2430 H 0.29503 0.20707 0.26059 0.0
H2431 H 0.25398 0.20338 0.21829 0.0
Eu2432 Eu 0.52585 0.54242 0.01781 0.0
Eu2433 Eu 0.53715 0.5113 0.00279 0.0
C2434 C 0.55862 0.54458 0.00318 0.0
C2435 C 0.51704 0.58227 0.02039 0.0
C2436 C 0.51799 0.58088 0.00429 0.0
C2437 C 0.51852 0.61008 0.02209 0.0
C2438 C 0.51929 0.59401 0.99713 0.0
C2439 C 0.51716 0.59689 0.02925 0.0
C2440 C 0.51979 0.60878 0.00598 0.0
C2441 C 0.51733 0.56866 0.02795 0.0
O2442 O 0.541 0.51153 0.02928 0.0
O2443 O 0.54073 0.53713 0.03826 0.0
C2444 C 0.54392 0.5236 0.04075 0.0
O2445 O 0.50901 0.52351 0.0255 0.0
O2446 O 0.55355 0.49547 0.00253 0.0
O2447 O 0.53384 0.49012 0.98555 0.0
O2448 O 0.51235 0.50344 0.00693 0.0
C2449 C 0.50439 0.50938 0.01774 0.0
O2450 O 0.51411 0.53674 0.99272 0.0
O2451 O 0.53001 0.52153 0.9812 0.0
O2452 O 0.55821 0.52983 0.00386 0.0
O2453 O 0.50772 0.55606 0.02161 0.0
O2454 O 0.53104 0.5659 0.03119 0.0
O2455 O 0.54642 0.55095 0.00526 0.0
C2456 C 0.54063 0.46958 0.99715 0.0
C2457 C 0.52544 0.46437 1.00039 0.0
C2458 C 0.54839 0.44785 0.00738 0.0
C2459 C 0.52179 0.45118 0.00729 0.0
C2460 C 0.55203 0.46111 1.00048 0.0
C2461 C 0.53328 0.44294 0.01111 0.0
C2462 C 0.5449 0.4848 0.99223 0.0
C2463 C 0.519 0.52979 0.97993 0.0
H2464 H 0.51816 0.56969 0.9973 0.0
H2465 H 0.51876 0.62132 0.02917 0.0
H2466 H 0.52051 0.59264 0.98476 0.0
H2467 H 0.51657 0.59815 0.04171 0.0
H2468 H 0.51643 0.47074 0.998 0.0
H2469 H 0.5575 0.4418 0.01032 0.0
H2470 H 0.51001 0.44755 0.00981 0.0
H2471 H 0.56385 0.46505 0.99826 0.0
Eu2472 Eu 0.79857 0.28851 0.26134 0.0
Eu2473 Eu 0.7659 0.26718 0.26457 0.0
C2474 C 0.78457 0.28792 0.29438 0.0
C2475 C 0.84154 0.29912 0.2613 0.0
C2476 C 0.85472 0.30961 0.26813 0.0
C2477 C 0.85605 0.27808 0.25943 0.0
C2478 C 0.86837 0.30431 0.27105 0.0
C2479 C 0.84237 0.28341 0.25651 0.0
C2480 C 0.869 0.28841 0.26726 0.0
C2481 C 0.82657 0.30395 0.26227 0.0
O2482 O 0.7595 0.29136 0.2619 0.0
O2483 O 0.78257 0.30627 0.25841 0.0
C2484 C 0.76757 0.30499 0.25991 0.0
O2485 O 0.79195 0.27675 0.23655 0.0
O2486 O 0.74535 0.26443 0.27724 0.0
O2487 O 0.74761 0.24692 0.25775 0.0
O2488 O 0.76846 0.26182 0.23884 0.0
C2489 C 0.77985 0.26628 0.23059 0.0
O2490 O 0.80489 0.26425 0.26327 0.0
O2491 O 0.78176 0.24909 0.26595 0.0
O2492 O 0.77712 0.27386 0.289 0.0
O2493 O 0.81709 0.30065 0.24971 0.0
O2494 O 0.81982 0.30067 0.27451 0.0
O2495 O 0.79115 0.29661 0.28496 0.0
C2496 C 0.72285 0.25274 0.26133 0.0
C2497 C 0.71931 0.25194 0.24531 0.0
C2498 C 0.69697 0.25673 0.26597 0.0
C2499 C 0.7047 0.25346 0.23969 0.0
C2500 C 0.71155 0.25503 0.27159 0.0
C2501 C 0.69345 0.25599 0.24998 0.0
C2502 C 0.73845 0.25215 0.26758 0.0
C2503 C 0.79675 0.25048 0.2646 0.0
H2504 H 0.85422 0.32173 0.27205 0.0
H2505 H 0.85621 0.26576 0.25645 0.0
H2506 H 0.87828 0.31255 0.27688 0.0
H2507 H 0.83221 0.27512 0.25137 0.0
H2508 H 0.72787 0.25038 0.23714 0.0
H2509 H 0.68842 0.25855 0.27411 0.0
H2510 H 0.70229 0.25302 0.22732 0.0
H2511 H 0.71409 0.25575 0.28399 0.0
Eu2512 Eu 0.03524 0.51937 0.52451 0.0
Eu2513 Eu 0.02892 0.53265 0.49284 0.0
C2514 C 0.02834 0.55331 0.52566 0.0
C2515 C 0.02856 0.50038 0.55949 0.0
C2516 C 0.0155 0.50699 0.56224 0.0
C2517 C 0.02047 0.48175 0.57631 0.0
C2518 C 0.00515 0.50125 0.57225 0.0
C2519 C 0.03091 0.48762 0.56637 0.0
C2520 C 0.00758 0.48864 0.57949 0.0
C2521 C 0.0391 0.50602 0.54854 0.0
O2522 O 0.05507 0.53623 0.49649 0.0
O2523 O 0.05785 0.53509 0.52257 0.0
C2524 C 0.06375 0.53839 0.50972 0.0
O2525 O 0.04558 0.50637 0.50513 0.0
O2526 O 0.02091 0.54972 0.4804 0.0
O2527 O 0.02893 0.53001 0.46772 0.0
O2528 O 0.02641 0.50662 0.48716 0.0
C2529 C 0.0374 0.50004 0.49216 0.0
O2530 O 0.00993 0.50954 0.51679 0.0
O2531 O 0.00512 0.52663 0.50073 0.0
O2532 O 0.03407 0.5531 0.51217 0.0
O2533 O 0.0361 0.49842 0.53437 0.0
O2534 O 0.04222 0.5211 0.54911 0.0
O2535 O 0.02492 0.54055 0.53158 0.0
C2536 C 0.03441 0.55351 0.45858 0.0
C2537 C 0.04941 0.56049 0.46475 0.0
C2538 C 0.03945 0.56246 0.43432 0.0
C2539 C 0.05955 0.56809 0.45556 0.0
C2540 C 0.02934 0.55488 0.44352 0.0
C2541 C 0.05479 0.56873 0.4401 0.0
C2542 C 0.02466 0.54329 0.46706 0.0
C2543 C 1.00018 0.51577 0.50889 0.0
H2544 H 0.01336 0.51667 0.55673 0.0
H2545 H 0.02256 0.47195 0.58163 0.0
H2546 H 0.99552 0.50704 0.57469 0.0
H2547 H 0.0408 0.4822 0.56405 0.0
H2548 H 0.05346 0.55943 0.4764 0.0
H2549 H 0.03551 0.56244 0.42235 0.0
H2550 H 0.07129 0.57283 0.46029 0.0
H2551 H 0.01782 0.54941 0.4386 0.0
Eu2552 Eu 0.76342 0.78211 0.25764 0.0
Eu2553 Eu 0.79603 0.77244 0.26377 0.0
C2554 C 0.76444 0.7465 0.26256 0.0
C2555 C 0.72334 0.79107 0.26127 0.0
C2556 C 0.72332 0.78751 0.27634 0.0
C2557 C 0.69821 0.79799 0.26343 0.0
C2558 C 0.71075 0.78916 0.28493 0.0
C2559 C 0.71079 0.79633 0.25485 0.0
C2560 C 0.69807 0.79441 0.27855 0.0
C2561 C 0.73661 0.78974 0.25237 0.0
O2562 O 0.795 0.77443 0.23832 0.0
O2563 O 0.76887 0.77062 0.23424 0.0
C2564 C 0.78241 0.77094 0.22886 0.0
O2565 O 0.78039 0.80365 0.25345 0.0
O2566 O 0.80985 0.75437 0.26027 0.0
O2567 O 0.81937 0.77636 0.27502 0.0
O2568 O 0.80289 0.79893 0.26431 0.0
C2569 C 0.79504 0.80854 0.25857 0.0
O2570 O 0.76931 0.79038 0.28335 0.0
O2571 O 0.7868 0.77491 0.28744 0.0
O2572 O 0.77865 0.74932 0.25852 0.0
O2573 O 0.74907 0.79974 0.25766 0.0
O2574 O 0.73934 0.77572 0.24846 0.0
O2575 O 0.75721 0.75834 0.26587 0.0
C2576 C 0.83606 0.76349 0.25965 0.0
C2577 C 0.84307 0.777 0.25438 0.0
C2578 C 0.85369 0.74907 0.2463 0.0
C2579 C 0.85538 0.77651 0.24515 0.0
C2580 C 0.84155 0.7496 0.25569 0.0
C2581 C 0.8606 0.76248 0.24087 0.0
C2582 C 0.82211 0.76315 0.26791 0.0
C2583 C 0.77777 0.78442 0.29278 0.0
H2584 H 0.73301 0.78346 0.28143 0.0
H2585 H 0.68868 0.80223 0.25829 0.0
H2586 H 0.71088 0.78613 0.29647 0.0
H2587 H 0.71076 0.79922 0.24325 0.0
H2588 H 0.83886 0.7878 0.25709 0.0
H2589 H 0.85766 0.73817 0.24326 0.0
H2590 H 0.86054 0.78698 0.24101 0.0
H2591 H 0.83619 0.73905 0.25955 0.0
Eu2592 Eu 0.78714 0.27833 0.7433 0.0
Eu2593 Eu 0.77658 0.27733 0.77957 0.0
C2594 C 0.75291 0.27979 0.75137 0.0
C2595 C 0.79247 0.28981 0.70304 0.0
C2596 C 0.78615 0.30333 0.70636 0.0
C2597 C 0.79458 0.2943 0.67645 0.0
C2598 C 0.78405 0.31228 0.69476 0.0
C2599 C 0.79669 0.2854 0.68804 0.0
C2600 C 0.78818 0.30783 0.67961 0.0
C2601 C 0.79449 0.28003 0.71493 0.0
O2602 O 0.78243 0.25432 0.77048 0.0
O2603 O 0.7763 0.2536 0.74453 0.0
C2604 C 0.77782 0.24656 0.75654 0.0
O2605 O 0.80667 0.27173 0.75669 0.0
O2606 O 0.76105 0.26649 0.79485 0.0
O2607 O 0.78001 0.28495 0.80476 0.0
O2608 O 0.80233 0.284 0.7807 0.0
C2609 C 0.81146 0.27802 0.77112 0.0
O2610 O 0.79304 0.30257 0.75703 0.0
O2611 O 0.77553 0.30155 0.77558 0.0
O2612 O 0.75505 0.27274 0.76326 0.0
O2613 O 0.80356 0.28656 0.72735 0.0
O2614 O 0.78203 0.27135 0.71821 0.0
O2615 O 0.76443 0.28604 0.74428 0.0
C2616 C 0.77228 0.26512 0.8196 0.0
C2617 C 0.7807 0.25307 0.81658 0.0
C2618 C 0.76901 0.25902 0.8455 0.0
C2619 C 0.78316 0.24397 0.82796 0.0
C2620 C 0.76655 0.26807 0.83414 0.0
C2621 C 0.77725 0.24677 0.84254 0.0
C2622 C 0.76884 0.27431 0.80757 0.0
C2623 C 0.78512 0.3093 0.76744 0.0
H2624 H 0.78275 0.30688 0.71788 0.0
H2625 H 0.79812 0.29064 0.66502 0.0
H2626 H 0.77895 0.32252 0.69759 0.0
H2627 H 0.8016 0.27502 0.68526 0.0
H2628 H 0.78519 0.25058 0.80538 0.0
H2629 H 0.76451 0.26168 0.85665 0.0
H2630 H 0.78946 0.23458 0.82523 0.0
H2631 H 0.76004 0.27732 0.83668 0.0
Eu2632 Eu 0.78596 0.7934 0.77042 0.0
Eu2633 Eu 0.76922 0.75907 0.75232 0.0
C2634 C 0.77595 0.78729 0.73358 0.0
C2635 C 0.79461 0.83674 0.78238 0.0
C2636 C 0.79291 0.8407 0.76751 0.0
C2637 C 0.78465 0.85957 0.79319 0.0
C2638 C 0.78682 0.85383 0.76547 0.0
C2639 C 0.7909 0.84652 0.79524 0.0
C2640 C 0.78211 0.86308 0.77821 0.0
C2641 C 0.798 0.82146 0.78434 0.0
O2642 O 0.79413 0.76183 0.7479 0.0
O2643 O 0.80468 0.77925 0.76954 0.0
C2644 C 0.80601 0.76881 0.75758 0.0
O2645 O 0.779 0.77903 0.78897 0.0
O2646 O 0.76674 0.74039 0.73238 0.0
O2647 O 0.75175 0.73817 0.7509 0.0
O2648 O 0.77943 0.75492 0.77534 0.0
C2649 C 0.77946 0.76423 0.78861 0.0
O2650 O 0.76123 0.79501 0.76471 0.0
O2651 O 0.75166 0.76956 0.76548 0.0
O2652 O 0.76544 0.77554 0.73569 0.0
O2653 O 0.78701 0.81247 0.78968 0.0
O2654 O 0.80406 0.81396 0.77293 0.0
O2655 O 0.78675 0.79404 0.74467 0.0
C2656 C 0.76217 0.71641 0.74081 0.0
C2657 C 0.76805 0.71458 0.75555 0.0
C2658 C 0.77131 0.69329 0.72934 0.0
C2659 C 0.7758 0.70246 0.75712 0.0
C2660 C 0.76352 0.70548 0.72776 0.0
C2661 C 0.77792 0.692 0.74398 0.0
C2662 C 0.75711 0.73095 0.73883 0.0
C2663 C 0.74987 0.78403 0.76664 0.0
H2664 H 0.7956 0.83331 0.75734 0.0
H2665 H 0.781 0.86636 0.80323 0.0
H2666 H 0.78528 0.85641 0.75382 0.0
H2667 H 0.79202 0.84358 0.80678 0.0
H2668 H 0.76731 0.72293 0.7658 0.0
H2669 H 0.77287 0.68538 0.71904 0.0
H2670 H 0.78057 0.70156 0.76857 0.0
H2671 H 0.75924 0.70685 0.71629 0.0
Eu2672 Eu 0.5416 0.54484 0.51627 0.0
Eu2673 Eu 0.52211 0.5105 0.50502 0.0
C2674 C 0.54343 0.52662 0.48032 0.0
C2675 C 0.55153 0.58816 0.52846 0.0
C2676 C 0.53575 0.58852 0.52764 0.0
C2677 C 0.55714 0.61603 0.5293 0.0
C2678 C 0.53067 0.60242 0.52668 0.0
C2679 C 0.56221 0.60205 0.53001 0.0
C2680 C 0.54133 0.61618 0.52667 0.0
C2681 C 0.5566 0.57327 0.52472 0.0
O2682 O 0.54635 0.50624 0.50962 0.0
O2683 O 0.55848 0.52992 0.52307 0.0
C2684 C 0.55867 0.51535 0.5172 0.0
O2685 O 0.52623 0.54132 0.53635 0.0
O2686 O 0.51787 0.48851 0.48886 0.0
O2687 O 0.50336 0.49179 0.50758 0.0
O2688 O 0.51992 0.51483 0.53174 0.0
C2689 C 0.51991 0.52829 0.5409 0.0
O2690 O 0.51832 0.54971 0.50786 0.0
O2691 O 0.50399 0.52505 0.50191 0.0
O2692 O 0.53031 0.51755 0.48202 0.0
O2693 O 0.55375 0.56352 0.53442 0.0
O2694 O 0.55307 0.56658 0.51028 0.0
O2695 O 0.55046 0.53672 0.49247 0.0
C2696 C 0.5101 0.46699 0.50111 0.0
C2697 C 0.50868 0.46412 0.51637 0.0
C2698 C 0.51963 0.44287 0.49465 0.0
C2699 C 0.51289 0.45086 0.52077 0.0
C2700 C 0.51531 0.4561 0.49021 0.0
C2701 C 0.51864 0.44025 0.51001 0.0
C2702 C 0.50749 0.48183 0.4968 0.0
C2703 C 0.50501 0.5402 0.5039 0.0
H2704 H 0.52737 0.57785 0.52647 0.0
H2705 H 0.56562 0.62651 0.52968 0.0
H2706 H 0.51843 0.60202 0.52455 0.0
H2707 H 0.57444 0.60193 0.53069 0.0
H2708 H 0.50475 0.47231 0.52508 0.0
H2709 H 0.52388 0.43475 0.48611 0.0
H2710 H 0.51216 0.44919 0.53273 0.0
H2711 H 0.51646 0.45805 0.47836 0.0
Eu2712 Eu 0.04887 0.52112 0.00431 0.0
Eu2713 Eu 0.01395 0.52669 0.01473 0.0
C2714 C 0.04195 0.52627 0.0398 0.0
C2715 C 0.08705 0.5061 0.99895 0.0
C2716 C 0.09413 0.50638 0.01384 0.0
C2717 C 0.10257 0.4875 0.98827 0.0
C2718 C 0.10548 0.49746 0.01587 0.0
C2719 C 0.0913 0.49648 0.98624 0.0
C2720 C 0.10998 0.48803 0.00308 0.0
C2721 C 0.07583 0.51624 0.99625 0.0
O2722 O 0.02482 0.54768 0.00515 0.0
O2723 O 0.04997 0.54675 0.01192 0.0
C2724 C 0.03925 0.55449 0.00841 0.0
O2725 O 0.03595 0.52639 0.98358 0.0
O2726 O 1.00034 0.54096 0.02858 0.0
O2727 O 0.98879 0.52033 0.01278 0.0
O2728 O 0.01175 0.51647 0.9894 0.0
C2729 C 0.02133 0.52095 0.9794 0.0
O2730 O 0.03422 0.49756 0.00333 0.0
O2731 O 0.01566 0.50293 0.01979 0.0
O2732 O 0.03028 0.53286 0.03636 0.0
O2733 O 0.06292 0.50966 0.98809 0.0
O2734 O 0.0739 0.52674 0.00786 0.0
O2735 O 0.04859 0.51823 0.02919 0.0
C2736 C 0.97514 0.5412 0.01802 0.0
C2737 C 0.97865 0.55509 0.01197 0.0
C2738 C 0.94835 0.5441 0.0178 0.0
C2739 C 0.96707 0.56351 0.00902 0.0
C2740 C 0.9599 0.53573 0.02076 0.0
C2741 C 0.95177 0.55817 0.01201 0.0
C2742 C 0.98717 0.53265 0.02241 0.0
C2743 C 0.02335 0.4932 0.0122 0.0
H2744 H 0.09113 0.51368 0.02389 0.0
H2745 H 0.10549 0.48017 0.97819 0.0
H2746 H 0.11102 0.49831 0.02742 0.0
H2747 H 0.08602 0.49604 0.97465 0.0
H2748 H 0.99035 0.55953 0.00971 0.0
H2749 H 0.93678 0.53972 0.02047 0.0
H2750 H 0.97007 0.57416 0.00433 0.0
H2751 H 0.95697 0.5251 0.02552 0.0
H2752 H 0.00686 0.23508 0.96904 0.0
H2753 H 0.00703 0.21547 0.9859 0.0
H2754 H 0.99022 0.17919 0.9467 0.0
H2755 H 0.98972 0.19887 0.92984 0.0
H2756 H 0.97878 0.17166 0.97349 0.0
H2757 H 0.02785 0.19023 0.95551 0.0
H2758 H 0.04974 0.21013 0.95145 0.0
H2759 H 0.05888 0.22465 1.00079 0.0
H2760 H 0.03686 0.20498 0.00513 0.0
H2761 H 0.03649 0.12132 0.99038 0.0
H2762 H 0.02514 0.14077 0.97915 0.0
H2763 H 1.00231 0.15099 0.02075 0.0
H2764 H 0.01359 0.13114 0.03207 0.0
H2765 H 0.03175 0.17285 0.99608 0.0
H2766 H 0.97514 0.15649 0.01021 0.0
H2767 H 0.95236 0.13595 0.01029 0.0
H2768 H 0.95969 0.11466 0.96442 0.0
H2769 H 0.98248 0.13511 0.96413 0.0
C2770 C 0.00295 0.22292 0.96412 0.0
C2771 C 0.99853 0.21837 0.94817 0.0
C2772 C 0.00298 0.21178 0.97373 0.0
C2773 C 0.99889 0.19592 0.96745 0.0
C2774 C 0.99341 0.1914 0.95173 0.0
C2775 C 0.99319 0.20259 0.94212 0.0
C2776 C 1.00221 0.18412 0.97673 0.0
C2777 C 0.99033 0.172 0.97856 0.0
C2778 C 0.01731 0.1845 0.98322 0.0
C2779 C 0.0306 0.19628 0.98064 0.0
C2780 C 0.03445 0.19775 0.96549 0.0
C2781 C 0.04689 0.20898 0.96313 0.0
C2782 C 0.05566 0.21868 0.97585 0.0
C2783 C 0.05204 0.21715 0.99095 0.0
C2784 C 0.03959 0.20597 0.99336 0.0
C2785 C 0.02901 0.12767 0.99712 0.0
C2786 C 0.02613 0.12505 0.01219 0.0
C2787 C 0.02241 0.13862 0.99064 0.0
C2788 C 0.01287 0.1472 0.99911 0.0
C2789 C 0.00952 0.1443 0.014 0.0
C2790 C 0.01605 0.13314 0.02049 0.0
C2791 C 0.00833 0.16045 0.99291 0.0
C2792 C 0.0201 0.17281 0.99147 0.0
C2793 C 0.99326 0.1601 0.98655 0.0
C2794 C 0.98052 0.14714 0.98724 0.0
C2795 C 0.97195 0.14731 1.00024 0.0
C2796 C 0.95898 0.13578 1.00026 0.0
C2797 C 0.95453 0.12405 0.98733 0.0
C2798 C 0.96311 0.12378 0.9744 0.0
C2799 C 0.97606 0.1353 0.97431 0.0
H2800 H 0.94453 0.11511 0.98739 0.0
H2801 H 0.06529 0.22736 0.974 0.0
H2802 H 0.13776 0.79086 0.16263 0.0
H2803 H 0.16189 0.79175 0.17783 0.0
H2804 H 0.13692 0.77783 0.21582 0.0
H2805 H 0.1126 0.77764 0.20092 0.0
H2806 H 0.16257 0.79952 0.22611 0.0
H2807 H 0.14979 0.75103 0.19126 0.0
H2808 H 0.14224 0.73375 0.16605 0.0
H2809 H 0.18335 0.75469 0.14796 0.0
H2810 H 0.19104 0.77225 0.173 0.0
H2811 H 0.22723 0.77206 0.25949 0.0
H2812 H 0.2016 0.77366 0.24844 0.0
H2813 H 0.2217 0.79211 0.20987 0.0
H2814 H 0.24725 0.79065 0.22074 0.0
H2815 H 0.19747 0.76665 0.20135 0.0
H2816 H 0.20959 0.81576 0.23639 0.0
H2817 H 0.21704 0.83252 0.2619 0.0
H2818 H 0.17699 0.80943 0.28008 0.0
H2819 H 0.16943 0.79235 0.25472 0.0
C2820 C 0.13736 0.78838 0.17436 0.0
C2821 C 0.12327 0.78409 0.18055 0.0
C2822 C 0.15117 0.78872 0.18296 0.0
C2823 C 0.15112 0.78454 0.19779 0.0
C2824 C 0.13714 0.78097 0.20433 0.0
C2825 C 0.12329 0.78074 0.19576 0.0
C2826 C 0.16567 0.78319 0.20607 0.0
C2827 C 0.17012 0.79217 0.22083 0.0
C2828 C 0.17549 0.77365 0.19906 0.0
C2829 C 0.17093 0.76305 0.18398 0.0
C2830 C 0.15717 0.75203 0.18187 0.0
C2831 C 0.15287 0.74217 0.16761 0.0
C2832 C 0.1623 0.74315 0.1554 0.0
C2833 C 0.17606 0.75396 0.15743 0.0
C2834 C 0.18039 0.76386 0.17165 0.0
C2835 C 0.22618 0.77652 0.24869 0.0
C2836 C 0.23923 0.78117 0.24094 0.0
C2837 C 0.21158 0.77748 0.24246 0.0
C2838 C 0.20987 0.78302 0.2284 0.0
C2839 C 0.22286 0.7878 0.22074 0.0
C2840 C 0.23744 0.78698 0.227 0.0
C2841 C 0.19451 0.78324 0.2212 0.0
C2842 C 0.18987 0.77394 0.20666 0.0
C2843 C 0.18452 0.79238 0.22848 0.0
C2844 C 0.18904 0.80265 0.24371 0.0
C2845 C 0.20245 0.81415 0.24587 0.0
C2846 C 0.20668 0.82373 0.26029 0.0
C2847 C 0.19752 0.822 0.27262 0.0
C2848 C 0.18409 0.81073 0.27053 0.0
C2849 C 0.17983 0.8011 0.25613 0.0
H2850 H 0.2008 0.82943 0.28377 0.0
H2851 H 0.15895 0.7355 0.14437 0.0
H2852 H 0.5181 0.84724 0.47833 0.0
H2853 H 0.51848 0.87276 0.49406 0.0
H2854 H 0.51626 0.89304 0.45239 0.0
H2855 H 0.5152 0.86764 0.43658 0.0
H2856 H 0.5392 0.90973 0.47602 0.0
H2857 H 0.48516 0.88587 0.46823 0.0
H2858 H 0.46293 0.86531 0.46982 0.0
H2859 H 0.47187 0.87245 0.51946 0.0
H2860 H 0.49431 0.89291 0.51812 0.0
H2861 H 0.49672 0.97452 0.49795 0.0
H2862 H 0.49513 0.94639 0.49185 0.0
H2863 H 0.53717 0.95021 0.52086 0.0
H2864 H 0.53901 0.97836 0.52681 0.0
H2865 H 0.49548 0.92066 0.50636 0.0
H2866 H 0.56012 0.92976 0.4994 0.0
H2867 H 0.58153 0.95071 0.49636 0.0
H2868 H 0.54999 0.97359 0.47356 0.0
H2869 H 0.52846 0.95268 0.47628 0.0
C2870 C 0.51756 0.85711 0.47251 0.0
C2871 C 0.51668 0.85541 0.45619 0.0
C2872 C 0.51787 0.87165 0.48151 0.0
C2873 C 0.51744 0.88468 0.47432 0.0
C2874 C 0.51675 0.88308 0.4581 0.0
C2875 C 0.51624 0.86857 0.4491 0.0
C2876 C 0.51742 0.90004 0.48354 0.0
C2877 C 0.52976 0.91209 0.48282 0.0
C2878 C 0.50501 0.90304 0.49227 0.0
C2879 C 0.49152 0.89077 0.49306 0.0
C2880 C 0.48248 0.88294 0.47947 0.0
C2881 C 0.46982 0.87133 0.48032 0.0
C2882 C 0.46602 0.86753 0.49472 0.0
C2883 C 0.47485 0.87537 0.5083 0.0
C2884 C 0.48753 0.88698 0.50751 0.0
C2885 C 0.50538 0.96932 0.50338 0.0
C2886 C 0.51818 0.97862 0.51254 0.0
C2887 C 0.50443 0.95325 0.49994 0.0
C2888 C 0.5162 0.94635 0.50569 0.0
C2889 C 0.52811 0.95542 0.51616 0.0
C2890 C 0.52915 0.97148 0.51949 0.0
C2891 C 0.51725 0.93034 0.49881 0.0
C2892 C 0.50512 0.91819 0.49991 0.0
C2893 C 0.52978 0.92726 0.49023 0.0
C2894 C 0.54268 0.93974 0.4882 0.0
C2895 C 0.55778 0.93924 0.49369 0.0
C2896 C 0.56993 0.95111 0.49203 0.0
C2897 C 0.56711 0.96349 0.4848 0.0
C2898 C 0.55215 0.96401 0.47919 0.0
C2899 C 0.53997 0.95216 0.48079 0.0
H2900 H 0.57652 0.97264 0.4835 0.0
H2901 H 0.45622 0.85854 0.49537 0.0
H2902 H 0.47516 0.23678 0.66126 0.0
H2903 H 0.45214 0.23663 0.67539 0.0
H2904 H 0.45837 0.28661 0.67983 0.0
H2905 H 0.4817 0.28691 0.66619 0.0
H2906 H 0.45222 0.27712 0.7068 0.0
H2907 H 0.43108 0.26331 0.65368 0.0
H2908 H 0.42729 0.24816 0.62717 0.0
H2909 H 0.40975 0.20672 0.64515 0.0
H2910 H 0.41364 0.22158 0.67182 0.0
H2911 H 0.3791 0.28705 0.73017 0.0
H2912 H 0.40122 0.28636 0.71475 0.0
H2913 H 0.39602 0.23683 0.71373 0.0
H2914 H 0.37369 0.23739 0.72896 0.0
H2915 H 0.40146 0.24568 0.68501 0.0
H2916 H 0.42274 0.25971 0.73816 0.0
H2917 H 0.42634 0.27507 0.76458 0.0
H2918 H 0.44351 0.31641 0.74625 0.0
H2919 H 0.4398 0.30133 0.71968 0.0
C2920 C 0.47167 0.24774 0.66534 0.0
C2921 C 0.48019 0.26186 0.66261 0.0
C2922 C 0.45845 0.24762 0.67326 0.0
C2923 C 0.45349 0.26159 0.67847 0.0
C2924 C 0.462 0.2757 0.67582 0.0
C2925 C 0.47523 0.27584 0.66794 0.0
C2926 C 0.43961 0.26156 0.68702 0.0
C2927 C 0.44107 0.27042 0.70195 0.0
C2928 C 0.42519 0.2525 0.68079 0.0
C2929 C 0.42279 0.24354 0.66476 0.0
C2930 C 0.42653 0.25094 0.652 0.0
C2931 C 0.42435 0.24241 0.63694 0.0
C2932 C 0.41832 0.22648 0.63448 0.0
C2933 C 0.41444 0.21905 0.64707 0.0
C2934 C 0.41662 0.22753 0.66216 0.0
C2935 C 0.38259 0.276 0.72653 0.0
C2936 C 0.37478 0.26228 0.7308 0.0
C2937 C 0.39525 0.27564 0.71782 0.0
C2938 C 0.40027 0.26157 0.71328 0.0
C2939 C 0.39229 0.24779 0.7172 0.0
C2940 C 0.37966 0.24815 0.72598 0.0
C2941 C 0.41409 0.26132 0.70471 0.0
C2942 C 0.41262 0.25238 0.68982 0.0
C2943 C 0.4285 0.27034 0.71094 0.0
C2944 C 0.43085 0.27942 0.72692 0.0
C2945 C 0.42717 0.2721 0.73975 0.0
C2946 C 0.42925 0.28075 0.75476 0.0
C2947 C 0.43511 0.29671 0.75709 0.0
C2948 C 0.43895 0.30404 0.74443 0.0
C2949 C 0.43687 0.29545 0.72939 0.0
H2950 H 0.43672 0.30339 0.76872 0.0
H2951 H 0.41664 0.21989 0.62281 0.0
H2952 H 0.9917 0.84236 0.60229 0.0
H2953 H 0.99782 0.86515 0.58961 0.0
H2954 H 0.02766 0.84188 0.56082 0.0
H2955 H 0.02142 0.81895 0.57325 0.0
H2956 H 0.04132 0.87153 0.57413 0.0
H2957 H 0.99345 0.8454 0.54593 0.0
H2958 H 0.96605 0.83306 0.54267 0.0
H2959 H 0.95386 0.87594 0.56371 0.0
H2960 H 0.98124 0.88847 0.56737 0.0
H2961 H 0.04962 0.91867 0.51494 0.0
H2962 H 0.04468 0.89776 0.53033 0.0
H2963 H 0.01627 0.92364 0.55849 0.0
H2964 H 0.0214 0.94474 0.54339 0.0
H2965 H 1.00187 0.89354 0.54662 0.0
H2966 H 0.04956 0.91972 0.57481 0.0
H2967 H 0.077 0.93207 0.57839 0.0
H2968 H 0.08931 0.8894 0.55701 0.0
H2969 H 0.06195 0.87677 0.55333 0.0
C2970 C 0.99936 0.84199 0.59308 0.0
C2971 C 0.00608 0.82886 0.58876 0.0
C2972 C 0.0029 0.85504 0.58591 0.0
C2973 C 0.01316 0.85514 0.57428 0.0
C2974 C 0.01978 0.84202 0.56984 0.0
C2975 C 0.01622 0.82897 0.57697 0.0
C2976 C 0.01722 0.86902 0.56689 0.0
C2977 C 0.03273 0.87626 0.56796 0.0
C2978 C 0.00591 0.87537 0.55923 0.0
C2979 C 0.98943 0.86782 0.55711 0.0
C2980 C 0.98495 0.85216 0.55003 0.0
C2981 C 0.96941 0.84514 0.54808 0.0
C2982 C 0.95822 0.8537 0.55303 0.0
C2983 C 0.96254 0.86931 0.55992 0.0
C2984 C 0.97807 0.87638 0.56193 0.0
C2985 C 0.04256 0.92003 0.52459 0.0
C2986 C 0.03575 0.93325 0.52785 0.0
C2987 C 0.03974 0.90809 0.53335 0.0
C2988 C 0.03011 0.90921 0.5455 0.0
C2989 C 0.02366 0.92257 0.54908 0.0
C2990 C 0.02653 0.93453 0.54039 0.0
C2991 C 0.02597 0.89598 0.5538 0.0
C2992 C 0.01044 0.88887 0.55288 0.0
C2993 C 0.03725 0.88975 0.5616 0.0
C2994 C 0.05369 0.89735 0.56366 0.0
C2995 C 0.05811 0.91301 0.57076 0.0
C2996 C 0.07364 0.92005 0.57284 0.0
C2997 C 0.08487 0.91156 0.56784 0.0
C2998 C 0.08059 0.89598 0.56084 0.0
C2999 C 0.06508 0.88885 0.5588 0.0
H3000 H 0.09688 0.91704 0.56945 0.0
H3001 H 0.9462 0.84824 0.55149 0.0
H3002 H 0.48333 0.78802 0.85926 0.0
H3003 H 0.45918 0.78687 0.8439 0.0
H3004 H 0.48126 0.77729 0.80168 0.0
H3005 H 0.5055 0.77809 0.81701 0.0
H3006 H 0.46497 0.80111 0.8017 0.0
H3007 H 0.45621 0.74899 0.81163 0.0
H3008 H 0.45525 0.72818 0.82751 0.0
H3009 H 0.42126 0.74675 0.8539 0.0
H3010 H 0.42218 0.76782 0.83833 0.0
H3011 H 0.39239 0.79102 0.75717 0.0
H3012 H 0.41719 0.78667 0.76779 0.0
H3013 H 0.40209 0.79311 0.81402 0.0
H3014 H 0.37734 0.79741 0.8035 0.0
H3015 H 0.41549 0.76804 0.80884 0.0
H3016 H 0.4266 0.82169 0.80137 0.0
H3017 H 0.42784 0.84313 0.78625 0.0
H3018 H 0.45759 0.8221 0.75589 0.0
H3019 H 0.45636 0.80041 0.77072 0.0
C3020 C 0.48299 0.78532 0.84672 0.0
C3021 C 0.49632 0.78312 0.83935 0.0
C3022 C 0.4692 0.78472 0.83796 0.0
C3023 C 0.46845 0.78188 0.82168 0.0
C3024 C 0.48165 0.77949 0.81425 0.0
C3025 C 0.49547 0.78002 0.82301 0.0
C3026 C 0.45405 0.78231 0.81254 0.0
C3027 C 0.45419 0.79366 0.80297 0.0
C3028 C 0.44 0.77277 0.8145 0.0
C3029 C 0.43935 0.76006 0.82386 0.0
C3030 C 0.44861 0.74871 0.82089 0.0
C3031 C 0.44806 0.73685 0.82983 0.0
C3032 C 0.43822 0.73616 0.84172 0.0
C3033 C 0.42888 0.74731 0.84469 0.0
C3034 C 0.4294 0.7592 0.83579 0.0
C3035 C 0.39445 0.79165 0.76961 0.0
C3036 C 0.38297 0.79454 0.77953 0.0
C3037 C 0.40857 0.78912 0.77564 0.0
C3038 C 0.41146 0.78962 0.79168 0.0
C3039 C 0.40003 0.79257 0.80159 0.0
C3040 C 0.38592 0.79503 0.79557 0.0
C3041 C 0.42636 0.78709 0.79829 0.0
C3042 C 0.42631 0.77532 0.80737 0.0
C3043 C 0.44048 0.7963 0.79595 0.0
C3044 C 0.44123 0.80933 0.78703 0.0
C3045 C 0.4333 0.82157 0.79139 0.0
C3046 C 0.43402 0.83378 0.78289 0.0
C3047 C 0.44275 0.83395 0.77009 0.0
C3048 C 0.45081 0.82193 0.76579 0.0
C3049 C 0.45011 0.80968 0.77424 0.0
H3050 H 0.4433 0.84341 0.76352 0.0
H3051 H 0.43781 0.72697 0.84863 0.0
H3052 H 0.52139 0.18524 0.094 0.0
H3053 H 0.52652 0.16035 0.0809 0.0
H3054 H 0.47889 0.14685 0.06296 0.0
H3055 H 0.47371 0.17186 0.07587 0.0
H3056 H 0.51138 0.12892 0.08402 0.0
H3057 H 0.47825 0.13683 0.03359 0.0
H3058 H 0.47255 0.15648 0.01795 0.0
H3059 H 0.52055 0.17691 0.02189 0.0
H3060 H 0.52643 0.1575 0.03776 0.0
H3061 H 0.51057 0.05634 0.03447 0.0
H3062 H 0.50411 0.07956 0.04987 0.0
H3063 H 0.53578 0.10862 0.02604 0.0
H3064 H 0.54189 0.08536 0.01044 0.0
H3065 H 0.51024 0.11852 0.02649 0.0
H3066 H 0.54342 0.10384 0.06492 0.0
H3067 H 0.55261 0.0866 0.08156 0.0
H3068 H 0.50971 0.0816 0.10242 0.0
H3069 H 0.50019 0.09868 0.08578 0.0
C3070 C 0.51201 0.17691 0.08731 0.0
C3071 C 0.49717 0.18039 0.08589 0.0
C3072 C 0.51495 0.16276 0.07986 0.0
C3073 C 0.5031 0.1519 0.07093 0.0
C3074 C 0.48821 0.15524 0.06963 0.0
C3075 C 0.48528 0.16947 0.07697 0.0
C3076 C 0.50647 0.13722 0.06272 0.0
C3077 C 0.51095 0.12646 0.07143 0.0
C3078 C 0.50626 0.13432 0.04641 0.0
C3079 C 0.50274 0.14585 0.03687 0.0
C3080 C 0.48755 0.14555 0.03112 0.0
C3081 C 0.48429 0.15665 0.02226 0.0
C3082 C 0.49618 0.16795 0.01894 0.0
C3083 C 0.51135 0.16819 0.0245 0.0
C3084 C 0.51464 0.15719 0.03347 0.0
C3085 C 0.51648 0.06771 0.03296 0.0
C3086 C 0.527 0.06923 0.0217 0.0
C3087 C 0.51271 0.08095 0.04163 0.0
C3088 C 0.51961 0.09583 0.03924 0.0
C3089 C 0.53032 0.09726 0.02808 0.0
C3090 C 0.53388 0.08403 0.01926 0.0
C3091 C 0.51514 0.10994 0.04774 0.0
C3092 C 0.51047 0.12069 0.03907 0.0
C3093 C 0.51543 0.11287 0.06415 0.0
C3094 C 0.52106 0.10245 0.07402 0.0
C3095 C 0.5359 0.09896 0.07297 0.0
C3096 C 0.54118 0.08925 0.08242 0.0
C3097 C 0.53177 0.08305 0.09306 0.0
C3098 C 0.51701 0.08646 0.0942 0.0
C3099 C 0.51167 0.09616 0.08477 0.0
H3100 H 0.53592 0.07561 0.10043 0.0
H3101 H 0.49364 0.17651 0.01205 0.0
H3102 H 0.15187 0.31802 0.35168 0.0
H3103 H 0.1722 0.31937 0.33384 0.0
H3104 H 0.14663 0.27857 0.30379 0.0
H3105 H 0.12631 0.27719 0.32148 0.0
H3106 H 0.17594 0.27591 0.31085 0.0
H3107 H 0.14958 0.31449 0.29364 0.0
H3108 H 0.13876 0.33854 0.29631 0.0
H3109 H 0.18338 0.36561 0.31278 0.0
H3110 H 0.1944 0.3417 0.31051 0.0
H3111 H 0.22398 0.27135 0.25233 0.0
H3112 H 0.20032 0.27645 0.26343 0.0
H3113 H 0.22578 0.31787 0.29263 0.0
H3114 H 0.24938 0.31318 0.28106 0.0
H3115 H 0.19638 0.32082 0.28562 0.0
H3116 H 0.22252 0.28333 0.30518 0.0
H3117 H 0.23468 0.2601 0.30161 0.0
H3118 H 0.19155 0.23182 0.28186 0.0
H3119 H 0.1792 0.25493 0.28508 0.0
C3120 C 0.15053 0.30947 0.34117 0.0
C3121 C 0.13762 0.2974 0.33803 0.0
C3122 C 0.1621 0.31028 0.33099 0.0
C3123 C 0.16084 0.29911 0.31749 0.0
C3124 C 0.14781 0.28727 0.31419 0.0
C3125 C 0.13628 0.28643 0.32435 0.0
C3126 C 0.17356 0.299 0.30734 0.0
C3127 C 0.18024 0.28566 0.30516 0.0
C3128 C 0.17949 0.31193 0.30036 0.0
C3129 C 0.17278 0.32628 0.30206 0.0
C3130 C 0.15704 0.32555 0.29801 0.0
C3131 C 0.15088 0.33917 0.29943 0.0
C3132 C 0.16036 0.35359 0.30476 0.0
C3133 C 0.17603 0.35443 0.3087 0.0
C3134 C 0.18224 0.34085 0.30737 0.0
C3135 C 0.2244 0.28181 0.26074 0.0
C3136 C 0.23846 0.29172 0.2661 0.0
C3137 C 0.21093 0.2847 0.26708 0.0
C3138 C 0.21147 0.29723 0.2792 0.0
C3139 C 0.2252 0.30805 0.28339 0.0
C3140 C 0.23865 0.30535 0.27679 0.0
C3141 C 0.19849 0.29769 0.28898 0.0
C3142 C 0.19193 0.31109 0.29125 0.0
C3143 C 0.19279 0.28493 0.29629 0.0
C3144 C 0.19998 0.27088 0.29521 0.0
C3145 C 0.21564 0.27216 0.30005 0.0
C3146 C 0.22258 0.25903 0.29805 0.0
C3147 C 0.21392 0.24453 0.29138 0.0
C3148 C 0.19826 0.24308 0.28694 0.0
C3149 C 0.19128 0.25619 0.28886 0.0
H3150 H 0.21933 0.2344 0.28969 0.0
H3151 H 0.15558 0.36412 0.3058 0.0
H3152 H 0.96942 0.06202 0.18304 0.0
H3153 H 0.98189 0.06007 0.15882 0.0
H3154 H 0.95115 0.01682 0.14128 0.0
H3155 H 0.93881 0.01858 0.16567 0.0
H3156 H 0.97603 0.0129 0.13021 0.0
H3157 H 0.95107 0.05677 0.12895 0.0
H3158 H 0.94475 0.08245 0.13851 0.0
H3159 H 0.99237 0.10363 0.14022 0.0
H3160 H 0.999 0.07804 0.13083 0.0
H3161 H 0.99526 0.00938 0.05074 0.0
H3162 H 0.98311 0.0115 0.07521 0.0
H3163 H 0.01487 0.0541 0.09269 0.0
H3164 H 0.0268 0.0522 0.06793 0.0
H3165 H 0.98969 0.05841 0.10383 0.0
H3166 H 0.01459 0.01455 0.10483 0.0
H3167 H 0.02086 0.98891 0.09503 0.0
H3168 H 0.97329 0.9677 0.09366 0.0
H3169 H 0.96671 0.99325 0.10328 0.0
C3170 C 0.96505 0.0521 0.17408 0.0
C3171 C 0.95273 0.04055 0.17689 0.0
C3172 C 0.97231 0.05099 0.15988 0.0
C3173 C 0.96757 0.03841 0.14739 0.0
C3174 C 0.95539 0.02678 0.15026 0.0
C3175 C 0.94821 0.02781 0.16452 0.0
C3176 C 0.97527 0.03724 0.13169 0.0
C3177 C 0.97874 0.02292 0.12447 0.0
C3178 C 0.97949 0.0501 0.12371 0.0
C3179 C 0.97555 0.06548 0.12935 0.0
C3180 C 0.9602 0.0669 0.13146 0.0
C3181 C 0.95657 0.08144 0.13683 0.0
C3182 C 0.96816 0.09466 0.14001 0.0
C3183 C 0.98341 0.09338 0.13778 0.0
C3184 C 0.98711 0.07886 0.13242 0.0
C3185 C 0.99984 0.01922 0.05975 0.0
C3186 C 0.01235 0.0305 0.05692 0.0
C3187 C 0.99282 0.02039 0.07407 0.0
C3188 C 0.99797 0.03284 0.08659 0.0
C3189 C 0.01037 0.04424 0.08369 0.0
C3190 C 0.01737 0.04309 0.06931 0.0
C3191 C 0.99042 0.03407 0.10236 0.0
C3192 C 0.98698 0.0484 0.10958 0.0
C3193 C 0.98621 0.02121 0.11033 0.0
C3194 C 0.99014 0.00584 0.10464 0.0
C3195 C 0.00546 0.00443 0.10235 0.0
C3196 C 0.00907 0.98991 0.09684 0.0
C3197 C 0.99748 0.97669 0.09368 0.0
C3198 C 0.98225 0.97795 0.09609 0.0
C3199 C 0.97858 0.99245 0.10158 0.0
H3200 H 1.00029 0.96546 0.08941 0.0
H3201 H 0.96532 0.10591 0.14417 0.0
H3202 H 0.31571 0.66501 0.44338 0.0
H3203 H 0.31301 0.67891 0.42156 0.0
H3204 H 0.26965 0.68897 0.43637 0.0
H3205 H 0.27214 0.67473 0.45796 0.0
H3206 H 0.26689 0.68082 0.40649 0.0
H3207 H 0.30423 0.71682 0.44243 0.0
H3208 H 0.3282 0.72554 0.45968 0.0
H3209 H 0.35481 0.7162 0.42095 0.0
H3210 H 0.33098 0.70722 0.4035 0.0
H3211 H 0.26014 0.74184 0.36415 0.0
H3212 H 0.2639 0.7271 0.38499 0.0
H3213 H 0.303 0.71243 0.36408 0.0
H3214 H 0.29908 0.72681 0.34289 0.0
H3215 H 0.30839 0.72244 0.39621 0.0
H3216 H 0.27027 0.68741 0.36023 0.0
H3217 H 0.24596 0.67969 0.34342 0.0
H3218 H 0.22038 0.68838 0.38309 0.0
H3219 H 0.24457 0.6964 0.40011 0.0
C3220 C 0.30565 0.67028 0.44203 0.0
C3221 C 0.29416 0.66881 0.45241 0.0
C3222 C 0.30413 0.67826 0.42956 0.0
C3223 C 0.29123 0.68523 0.42739 0.0
C3224 C 0.27971 0.68371 0.43774 0.0
C3225 C 0.28113 0.67555 0.45009 0.0
C3226 C 0.2896 0.69393 0.41426 0.0
C3227 C 0.27591 0.69005 0.4044 0.0
C3228 C 0.30147 0.70577 0.41123 0.0
C3229 C 0.31582 0.7112 0.42169 0.0
C3230 C 0.31519 0.71651 0.43761 0.0
C3231 C 0.32875 0.72152 0.44742 0.0
C3232 C 0.34302 0.72139 0.44142 0.0
C3233 C 0.34375 0.71628 0.42559 0.0
C3234 C 0.33022 0.71124 0.41573 0.0
C3235 C 0.26943 0.73533 0.3638 0.0
C3236 C 0.27921 0.73543 0.35166 0.0
C3237 C 0.27161 0.72697 0.37581 0.0
C3238 C 0.28363 0.71854 0.37602 0.0
C3239 C 0.29364 0.71886 0.36415 0.0
C3240 C 0.29141 0.72715 0.35206 0.0
C3241 C 0.28568 0.70938 0.38863 0.0
C3242 C 0.29942 0.71317 0.39834 0.0
C3243 C 0.27381 0.69757 0.39163 0.0
C3244 C 0.25924 0.69264 0.38143 0.0
C3245 C 0.25947 0.68779 0.36536 0.0
C3246 C 0.24571 0.68334 0.35579 0.0
C3247 C 0.23164 0.68358 0.36218 0.0
C3248 C 0.23129 0.68822 0.37815 0.0
C3249 C 0.24502 0.69271 0.38777 0.0
H3250 H 0.221 0.68013 0.35475 0.0
H3251 H 0.3535 0.72527 0.44903 0.0
H3252 H 0.59443 0.01699 0.67552 0.0
H3253 H 0.57625 0.01905 0.65412 0.0
H3254 H 0.6133 0.04388 0.63263 0.0
H3255 H 0.63154 0.04178 0.65391 0.0
H3256 H 0.58784 0.05767 0.63307 0.0
H3257 H 0.60002 0.00624 0.6197 0.0
H3258 H 0.602 0.97979 0.62418 0.0
H3259 H 0.55338 0.96966 0.6284 0.0
H3260 H 0.55115 0.99615 0.62416 0.0
H3261 H 0.56705 0.04674 0.55319 0.0
H3262 H 0.57777 0.04825 0.57976 0.0
H3263 H 0.53444 0.02395 0.59122 0.0
H3264 H 0.52357 0.02225 0.56452 0.0
H3265 H 0.55866 0.0105 0.59875 0.0
H3266 H 0.54622 0.06101 0.60744 0.0
H3267 H 0.54472 0.08722 0.60194 0.0
H3268 H 0.59403 0.09911 0.60572 0.0
H3269 H 0.59584 0.07288 0.61102 0.0
C3270 C 0.59871 0.02271 0.66612 0.0
C3271 C 0.61438 0.02915 0.66628 0.0
C3272 C 0.58832 0.02397 0.654 0.0
C3273 C 0.5935 0.03159 0.64186 0.0
C3274 C 0.60912 0.03805 0.642 0.0
C3275 C 0.6195 0.03682 0.65411 0.0
C3276 C 0.58274 0.03262 0.62876 0.0
C3277 C 0.58147 0.04739 0.62551 0.0
C3278 C 0.57411 0.01916 0.61929 0.0
C3279 C 0.57545 0.00323 0.62183 0.0
C3280 C 0.58977 0.99842 0.62173 0.0
C3281 C 0.59094 0.98341 0.6242 0.0
C3282 C 0.57783 0.97307 0.62663 0.0
C3283 C 0.56353 0.9777 0.62655 0.0
C3284 C 0.56231 0.9927 0.62412 0.0
C3285 C 0.55971 0.04189 0.56139 0.0
C3286 C 0.54452 0.03425 0.55675 0.0
C3287 C 0.56582 0.04288 0.5766 0.0
C3288 C 0.55682 0.03631 0.58742 0.0
C3289 C 0.54149 0.02914 0.58299 0.0
C3290 C 0.53533 0.0282 0.56777 0.0
C3291 C 0.56406 0.03557 0.60279 0.0
C3292 C 0.5647 0.02082 0.6065 0.0
C3293 C 0.57216 0.04906 0.61262 0.0
C3294 C 0.57116 0.06493 0.60957 0.0
C3295 C 0.55675 0.06917 0.607 0.0
C3296 C 0.55584 0.08404 0.60393 0.0
C3297 C 0.56927 0.09482 0.60346 0.0
C3298 C 0.58363 0.09075 0.6061 0.0
C3299 C 0.58461 0.07589 0.60916 0.0
H3300 H 0.56854 0.10632 0.60108 0.0
H3301 H 0.57876 0.96145 0.62853 0.0
H3302 H 0.25837 0.31685 0.93909 0.0
H3303 H 0.25619 0.30764 0.91103 0.0
H3304 H 0.30324 0.32968 0.90893 0.0
H3305 H 0.30535 0.3393 0.93683 0.0
H3306 H 0.28555 0.33543 0.88582 0.0
H3307 H 0.29275 0.29001 0.90688 0.0
H3308 H 0.28723 0.26954 0.92303 0.0
H3309 H 0.24219 0.25424 0.89904 0.0
H3310 H 0.24737 0.27478 0.88288 0.0
H3311 H 0.30181 0.29735 0.81312 0.0
H3312 H 0.30109 0.30563 0.84096 0.0
H3313 H 0.25236 0.28756 0.83702 0.0
H3314 H 0.25293 0.2793 0.80893 0.0
H3315 H 0.26908 0.2797 0.86277 0.0
H3316 H 0.26281 0.32476 0.84082 0.0
H3317 H 0.26916 0.34483 0.82437 0.0
H3318 H 0.31337 0.36051 0.85001 0.0
H3319 H 0.30738 0.34036 0.86647 0.0
C3320 C 0.26824 0.31979 0.93266 0.0
C3321 C 0.28207 0.32876 0.9403 0.0
C3322 C 0.26702 0.3144 0.91661 0.0
C3323 C 0.27959 0.31782 0.90782 0.0
C3324 C 0.29337 0.32683 0.91542 0.0
C3325 C 0.29462 0.33219 0.93144 0.0
C3326 C 0.2784 0.31226 0.8907 0.0
C3327 C 0.2821 0.32322 0.88083 0.0
C3328 C 0.27354 0.29637 0.88406 0.0
C3329 C 0.27038 0.28405 0.8938 0.0
C3330 C 0.28162 0.28238 0.90514 0.0
C3331 C 0.27856 0.27075 0.91428 0.0
C3332 C 0.26435 0.26063 0.91209 0.0
C3333 C 0.25318 0.26211 0.90074 0.0
C3334 C 0.25617 0.27374 0.89159 0.0
C3335 C 0.29091 0.29507 0.81812 0.0
C3336 C 0.27741 0.28767 0.80874 0.0
C3337 C 0.29052 0.29987 0.83407 0.0
C3338 C 0.27666 0.29732 0.84107 0.0
C3339 C 0.26319 0.28966 0.83185 0.0
C3340 C 0.26352 0.285 0.81579 0.0
C3341 C 0.27636 0.30286 0.858 0.0
C3342 C 0.27241 0.29191 0.86781 0.0
C3343 C 0.28107 0.31875 0.8646 0.0
C3344 C 0.2847 0.33095 0.85479 0.0
C3345 C 0.27394 0.3324 0.84287 0.0
C3346 C 0.27746 0.3438 0.83356 0.0
C3347 C 0.29168 0.35392 0.83612 0.0
C3348 C 0.30238 0.35266 0.84803 0.0
C3349 C 0.29892 0.34126 0.85736 0.0
H3350 H 0.29438 0.36274 0.8289 0.0
H3351 H 0.26201 0.25163 0.91917 0.0
H3352 H 0.96277 0.0222 0.3327 0.0
H3353 H 0.97481 0.02 0.35787 0.0
H3354 H 0.95872 0.06083 0.37901 0.0
H3355 H 0.9469 0.06328 0.35368 0.0
H3356 H 0.98448 0.06273 0.39365 0.0
H3357 H 0.94342 0.01877 0.38297 0.0
H3358 H 0.92772 0.99468 0.36807 0.0
H3359 H 0.96702 0.97227 0.36811 0.0
H3360 H 0.983 0.99629 0.38286 0.0
H3361 H 0.99977 0.05036 0.47253 0.0
H3362 H 0.98814 0.05298 0.44719 0.0
H3363 H 0.00797 0.01496 0.42527 0.0
H3364 H 0.01957 0.01223 0.45071 0.0
H3365 H 0.98031 0.01171 0.41126 0.0
H3366 H 0.02105 0.05618 0.42283 0.0
H3367 H 0.03608 0.08036 0.43821 0.0
H3368 H 0.99628 0.10195 0.43727 0.0
H3369 H 0.98094 0.07781 0.42203 0.0
C3370 C 0.96155 0.03072 0.34262 0.0
C3371 C 0.95348 0.0429 0.3406 0.0
C3372 C 0.96853 0.02939 0.35734 0.0
C3373 C 0.96765 0.03998 0.37106 0.0
C3374 C 0.95981 0.0523 0.36903 0.0
C3375 C 0.95294 0.05373 0.35426 0.0
C3376 C 0.97493 0.03833 0.38724 0.0
C3377 C 0.98326 0.05152 0.39744 0.0
C3378 C 0.97398 0.02382 0.39275 0.0
C3379 C 0.96444 0.00938 0.38387 0.0
C3380 C 0.94874 0.00873 0.3797 0.0
C3381 C 0.93979 0.99509 0.3713 0.0
C3382 C 0.94638 0.98197 0.3671 0.0
C3383 C 0.96193 0.98245 0.37134 0.0
C3384 C 0.97094 0.99607 0.37973 0.0
C3385 C 1.00178 0.04251 0.46238 0.0
C3386 C 0.01087 0.03107 0.4641 0.0
C3387 C 0.9951 0.04411 0.44763 0.0
C3388 C 0.9971 0.03437 0.43371 0.0
C3389 C 0.00604 0.02281 0.43545 0.0
C3390 C 0.01282 0.02127 0.45021 0.0
C3391 C 0.98984 0.03608 0.4176 0.0
C3392 C 0.9815 0.0229 0.40744 0.0
C3393 C 0.99065 0.05062 0.41221 0.0
C3394 C 0.99981 0.06513 0.42141 0.0
C3395 C 0.01547 0.06604 0.426 0.0
C3396 C 0.02405 0.07974 0.43467 0.0
C3397 C 0.01713 0.09267 0.43872 0.0
C3398 C 1.00161 0.09192 0.43412 0.0
C3399 C 0.99297 0.07823 0.42546 0.0
H3400 H 0.02382 0.10328 0.44537 0.0
H3401 H 0.93943 0.97141 0.3606 0.0
H3402 H 0.30827 0.66753 0.61297 0.0
H3403 H 0.30544 0.68458 0.63716 0.0
H3404 H 0.28537 0.71463 0.61083 0.0
H3405 H 0.2881 0.69759 0.58661 0.0
H3406 H 0.30762 0.73085 0.63593 0.0
H3407 H 0.26208 0.69055 0.6266 0.0
H3408 H 0.24825 0.66335 0.62138 0.0
H3409 H 0.2699 0.65481 0.66363 0.0
H3410 H 0.28402 0.68191 0.669 0.0
H3411 H 0.27912 0.77399 0.70099 0.0
H3412 H 0.28256 0.75939 0.67553 0.0
H3413 H 0.2901 0.72047 0.69741 0.0
H3414 H 0.28572 0.73456 0.72241 0.0
H3415 H 0.27345 0.70919 0.6733 0.0
H3416 H 0.31992 0.74767 0.68294 0.0
H3417 H 0.33543 0.77417 0.68877 0.0
H3418 H 0.31472 0.78545 0.64738 0.0
H3419 H 0.29895 0.75906 0.64139 0.0
C3420 C 0.30342 0.67786 0.61232 0.0
C3421 C 0.29836 0.68116 0.59786 0.0
C3422 C 0.30174 0.68756 0.62616 0.0
C3423 C 0.29511 0.70085 0.62582 0.0
C3424 C 0.29051 0.70445 0.61138 0.0
C3425 C 0.29199 0.69465 0.59756 0.0
C3426 C 0.29243 0.71063 0.64053 0.0
C3427 C 0.30003 0.7262 0.64406 0.0
C3428 C 0.2828 0.70448 0.65128 0.0
C3429 C 0.27421 0.68822 0.64812 0.0
C3430 C 0.26398 0.68284 0.63472 0.0
C3431 C 0.25607 0.66745 0.63174 0.0
C3432 C 0.25822 0.65735 0.64215 0.0
C3433 C 0.26825 0.66264 0.65557 0.0
C3434 C 0.2762 0.67802 0.65859 0.0
C3435 C 0.28151 0.76232 0.70028 0.0
C3436 C 0.282 0.75538 0.71366 0.0
C3437 C 0.2836 0.75398 0.68573 0.0
C3438 C 0.28676 0.73876 0.6844 0.0
C3439 C 0.28753 0.73206 0.69792 0.0
C3440 C 0.28505 0.74017 0.71228 0.0
C3441 C 0.28892 0.7295 0.66906 0.0
C3442 C 0.28112 0.71396 0.6653 0.0
C3443 C 0.29863 0.73562 0.65827 0.0
C3444 C 0.30814 0.75145 0.66181 0.0
C3445 C 0.3186 0.75584 0.67514 0.0
C3446 C 0.32745 0.77083 0.67846 0.0
C3447 C 0.32603 0.7815 0.66848 0.0
C3448 C 0.31579 0.77718 0.65512 0.0
C3449 C 0.30691 0.76221 0.65174 0.0
H3450 H 0.33289 0.7931 0.67108 0.0
H3451 H 0.25209 0.64543 0.63982 0.0
H3452 H 0.61568 0.0745 0.80334 0.0
H3453 H 0.60442 0.08186 0.82777 0.0
H3454 H 0.58718 0.0334 0.82898 0.0
H3455 H 0.59835 0.02604 0.80462 0.0
H3456 H 0.56689 0.05229 0.83918 0.0
H3457 H 0.62082 0.04907 0.84658 0.0
H3458 H 0.64833 0.05617 0.84268 0.0
H3459 H 0.64806 0.10371 0.86221 0.0
H3460 H 0.62046 0.09692 0.86599 0.0
H3461 H 0.58404 0.03964 0.91867 0.0
H3462 H 0.59526 0.04862 0.89608 0.0
H3463 H 0.56086 0.07735 0.89279 0.0
H3464 H 0.5494 0.0681 0.91525 0.0
H3465 H 0.60615 0.07436 0.88349 0.0
H3466 H 0.54484 0.06839 0.85606 0.0
H3467 H 0.51825 0.05712 0.86047 0.0
H3468 H 0.53479 0.0216 0.88142 0.0
H3469 H 0.56141 0.03253 0.87691 0.0
C3470 C 0.60909 0.0655 0.80864 0.0
C3471 C 0.60789 0.04972 0.80229 0.0
C3472 C 0.60276 0.0697 0.82256 0.0
C3473 C 0.59513 0.05815 0.83013 0.0
C3474 C 0.59302 0.04246 0.82322 0.0
C3475 C 0.59945 0.03826 0.80942 0.0
C3476 C 0.59076 0.06202 0.84603 0.0
C3477 C 0.57538 0.05746 0.84884 0.0
C3478 C 0.60197 0.06846 0.8586 0.0
C3479 C 0.61854 0.07254 0.85635 0.0
C3480 C 0.62659 0.06107 0.8499 0.0
C3481 C 0.6422 0.06503 0.84774 0.0
C3482 C 0.64992 0.08039 0.85214 0.0
C3483 C 0.64206 0.09182 0.85875 0.0
C3484 C 0.62643 0.08793 0.8609 0.0
C3485 C 0.57923 0.04828 0.91344 0.0
C3486 C 0.56571 0.05295 0.91835 0.0
C3487 C 0.58568 0.05348 0.90062 0.0
C3488 C 0.57868 0.06341 0.89267 0.0
C3489 C 0.56627 0.06953 0.89872 0.0
C3490 C 0.5597 0.06419 0.91142 0.0
C3491 C 0.5823 0.06455 0.87662 0.0
C3492 C 0.59753 0.06991 0.87378 0.0
C3493 C 0.57107 0.05834 0.86401 0.0
C3494 C 0.55508 0.05138 0.86631 0.0
C3495 C 0.54276 0.05813 0.86154 0.0
C3496 C 0.5277 0.05181 0.86406 0.0
C3497 C 0.52484 0.03869 0.87127 0.0
C3498 C 0.53702 0.03178 0.87587 0.0
C3499 C 0.55209 0.03803 0.87333 0.0
H3500 H 0.51318 0.03384 0.87326 0.0
H3501 H 0.66201 0.08344 0.85047 0.0
H3502 H 0.27126 0.31274 0.0897 0.0
H3503 H 0.26984 0.30353 0.11464 0.0
H3504 H 0.30325 0.34368 0.13622 0.0
H3505 H 0.30473 0.35296 0.11133 0.0
H3506 H 0.30947 0.31837 0.14633 0.0
H3507 H 0.26408 0.34085 0.14062 0.0
H3508 H 0.23983 0.3443 0.12746 0.0
H3509 H 0.22035 0.29638 0.12751 0.0
H3510 H 0.24457 0.2926 0.1405 0.0
H3511 H 0.29763 0.31344 0.2252 0.0
H3512 H 0.29921 0.32181 0.19989 0.0
H3513 H 0.26502 0.28186 0.17938 0.0
H3514 H 0.26312 0.27359 0.20473 0.0
H3515 H 0.25931 0.30648 0.16846 0.0
H3516 H 0.30431 0.28402 0.17489 0.0
H3517 H 0.32837 0.28057 0.18847 0.0
H3518 H 0.3486 0.32798 0.18702 0.0
H3519 H 0.32459 0.33181 0.17367 0.0
C3520 C 0.27825 0.31968 0.09976 0.0
C3521 C 0.28808 0.33364 0.09843 0.0
C3522 C 0.27743 0.31438 0.11405 0.0
C3523 C 0.2863 0.32298 0.12744 0.0
C3524 C 0.2963 0.33679 0.1261 0.0
C3525 C 0.29717 0.34206 0.11181 0.0
C3526 C 0.28508 0.3177 0.14285 0.0
C3527 C 0.29852 0.31595 0.15124 0.0
C3528 C 0.27076 0.31414 0.14918 0.0
C3529 C 0.25619 0.31641 0.14139 0.0
C3530 C 0.25467 0.33102 0.13772 0.0
C3531 C 0.24092 0.33304 0.13031 0.0
C3532 C 0.22857 0.32056 0.12661 0.0
C3533 C 0.22993 0.30604 0.13036 0.0
C3534 C 0.24366 0.30395 0.13776 0.0
C3535 C 0.29041 0.30642 0.21533 0.0
C3536 C 0.28028 0.29279 0.21706 0.0
C3537 C 0.2914 0.31119 0.2008 0.0
C3538 C 0.28244 0.30235 0.18758 0.0
C3539 C 0.27211 0.28889 0.18934 0.0
C3540 C 0.27104 0.28416 0.20388 0.0
C3541 C 0.2837 0.30718 0.17198 0.0
C3542 C 0.27027 0.30885 0.16354 0.0
C3543 C 0.29802 0.3106 0.16561 0.0
C3544 C 0.31257 0.30825 0.17342 0.0
C3545 C 0.31385 0.29375 0.17756 0.0
C3546 C 0.32748 0.29173 0.18522 0.0
C3547 C 0.33997 0.30408 0.18869 0.0
C3548 C 0.3389 0.31844 0.18438 0.0
C3549 C 0.32528 0.32054 0.17676 0.0
H3550 H 0.35049 0.30252 0.19466 0.0
H3551 H 0.21794 0.32214 0.12088 0.0
H3552 H 0.17552 0.94388 0.99879 0.0
H3553 H 0.15106 0.95272 0.00182 0.0
H3554 H 0.17527 0.99999 0.01539 0.0
H3555 H 0.19982 0.99119 0.01248 0.0
H3556 H 0.15298 0.99542 0.03329 0.0
H3557 H 0.15509 0.98507 0.97807 0.0
H3558 H 0.1577 0.96952 0.95273 0.0
H3559 H 0.11818 0.93597 0.95864 0.0
H3560 H 0.11546 0.95121 0.98413 0.0
H3561 H 0.08856 0.03283 0.0232 0.0
H3562 H 0.11278 0.02324 0.02177 0.0
H3563 H 0.08774 0.97612 0.01027 0.0
H3564 H 0.06339 0.98566 0.0115 0.0
H3565 H 0.11022 0.9803 0.99156 0.0
H3566 H 0.10787 0.99113 0.04664 0.0
H3567 H 0.1052 0.00699 0.07178 0.0
H3568 H 0.14516 0.04001 0.0659 0.0
H3569 H 0.14795 0.02445 0.04061 0.0
C3570 C 0.17571 0.9562 0.00225 0.0
C3571 C 0.18984 0.96677 0.00525 0.0
C3572 C 0.16161 0.96128 0.004 0.0
C3573 C 0.16108 0.97714 0.00861 0.0
C3574 C 0.17517 0.9877 0.01181 0.0
C3575 C 0.1893 0.98261 0.01016 0.0
C3576 C 0.14595 0.98269 0.01021 0.0
C3577 C 0.14374 0.99225 0.02404 0.0
C3578 C 0.13356 0.97838 0.99839 0.0
C3579 C 0.13517 0.9692 0.98308 0.0
C3580 C 0.14703 0.97431 0.97402 0.0
C3581 C 0.14852 0.96557 0.95962 0.0
C3582 C 0.13814 0.95174 0.9541 0.0
C3583 C 0.12622 0.94666 0.96295 0.0
C3584 C 0.1247 0.95535 0.97736 0.0
C3585 C 0.08813 0.02039 0.02056 0.0
C3586 C 0.07385 0.01007 0.01759 0.0
C3587 C 0.10209 0.01489 0.01977 0.0
C3588 C 0.10229 0.99887 0.01603 0.0
C3589 C 0.08805 0.98852 0.0132 0.0
C3590 C 0.07406 0.99402 0.01403 0.0
C3591 C 0.11727 0.99302 0.01461 0.0
C3592 C 0.11945 0.98343 1.00081 0.0
C3593 C 0.12964 0.99734 0.02643 0.0
C3594 C 0.12803 0.0067 0.04165 0.0
C3595 C 0.11602 1.00184 0.05065 0.0
C3596 C 0.1145 0.01076 0.06494 0.0
C3597 C 0.12498 0.02452 0.07042 0.0
C3598 C 0.13704 0.02936 0.06163 0.0
C3599 C 0.1386 0.02049 0.04732 0.0
H3600 H 0.12378 0.03141 0.08148 0.0
H3601 H 0.13931 0.94499 0.94295 0.0
H3602 H 0.6973 0.60735 0.98059 0.0
H3603 H 0.67178 0.59169 0.98131 0.0
H3604 H 0.65772 0.63108 0.00853 0.0
H3605 H 0.68355 0.64637 0.00858 0.0
H3606 H 0.64677 0.60776 0.01982 0.0
H3607 H 0.64617 0.61686 0.96728 0.0
H3608 H 0.6554 0.61716 0.94123 0.0
H3609 H 0.65155 0.5675 0.93425 0.0
H3610 H 0.64248 0.56692 0.96034 0.0
H3611 H 0.56626 0.57643 0.0078 0.0
H3612 H 0.59124 0.59236 0.00533 0.0
H3613 H 0.60937 0.55089 0.99023 0.0
H3614 H 0.58451 0.53485 0.99281 0.0
H3615 H 0.61756 0.5753 0.97247 0.0
H3616 H 0.61784 0.56752 0.02611 0.0
H3617 H 0.60733 0.56843 0.05167 0.0
H3618 H 0.61029 0.61784 0.05565 0.0
H3619 H 0.62062 0.61719 0.02998 0.0
C3620 C 0.6887 0.61263 0.98666 0.0
C3621 C 0.69235 0.62806 0.99449 0.0
C3622 C 0.67406 0.60372 0.98699 0.0
C3623 C 0.66257 0.61022 0.99471 0.0
C3624 C 0.66628 0.62571 0.00249 0.0
C3625 C 0.68103 0.63448 0.00248 0.0
C3626 C 0.64685 0.60083 0.99505 0.0
C3627 C 0.64035 0.6009 0.00937 0.0
C3628 C 0.63838 0.59157 0.98153 0.0
C3629 C 0.64378 0.59187 0.96582 0.0
C3630 C 0.64739 0.60601 0.96023 0.0
C3631 C 0.65258 0.60623 0.94545 0.0
C3632 C 0.6541 0.59236 0.93611 0.0
C3633 C 0.65039 0.57823 0.94151 0.0
C3634 C 0.6452 0.57795 0.95628 0.0
C3635 C 0.57551 0.57068 0.00382 0.0
C3636 C 0.57338 0.55433 1.00057 0.0
C3637 C 0.5898 0.57981 0.00247 0.0
C3638 C 0.6022 0.57281 0.9977 0.0
C3639 C 0.59997 0.55654 0.99394 0.0
C3640 C 0.58575 0.54739 0.99548 0.0
C3641 C 0.61765 0.5824 0.99713 0.0
C3642 C 0.62405 0.58229 0.98282 0.0
C3643 C 0.6259 0.59186 0.01057 0.0
C3644 C 0.61986 0.59228 0.02607 0.0
C3645 C 0.61614 0.57856 0.03238 0.0
C3646 C 0.61024 0.57903 0.0469 0.0
C3647 C 0.60811 0.59318 0.05526 0.0
C3648 C 0.61193 0.60689 0.04915 0.0
C3649 C 0.61782 0.60648 0.03462 0.0
H3650 H 0.60352 0.59352 0.0665 0.0
H3651 H 0.65812 0.59255 0.92467 0.0
H3652 H 0.6963 0.42433 0.23562 0.0
H3653 H 0.70875 0.40179 0.23517 0.0
H3654 H 0.71482 0.41034 0.2851 0.0
H3655 H 0.70309 0.43337 0.28565 0.0
H3656 H 0.73793 0.39981 0.27849 0.0
H3657 H 0.68667 0.37725 0.25785 0.0
H3658 H 0.6629 0.37253 0.2403 0.0
H3659 H 0.68806 0.35969 0.20131 0.0
H3660 H 0.71202 0.36449 0.21862 0.0
H3661 H 0.73608 0.30695 0.2577 0.0
H3662 H 0.72361 0.32974 0.25809 0.0
H3663 H 0.76804 0.35953 0.26266 0.0
H3664 H 0.78048 0.33676 0.26222 0.0
H3665 H 0.71892 0.35036 0.24245 0.0
H3666 H 0.76906 0.39555 0.27554 0.0
H3667 H 0.78754 0.40066 0.29883 0.0
H3668 H 0.75816 0.36687 0.31933 0.0
H3669 H 0.73982 0.36119 0.29593 0.0
C3670 C 0.70029 0.42173 0.24666 0.0
C3671 C 0.69823 0.43144 0.2607 0.0
C3672 C 0.7074 0.4083 0.24638 0.0
C3673 C 0.71285 0.40345 0.2601 0.0
C3674 C 0.71094 0.41319 0.27411 0.0
C3675 C 0.70389 0.42664 0.27441 0.0
C3676 C 0.72066 0.38873 0.25998 0.0
C3677 C 0.73366 0.38913 0.27039 0.0
C3678 C 0.71545 0.37407 0.24997 0.0
C3679 C 0.70116 0.3714 0.2395 0.0
C3680 C 0.68715 0.37354 0.24551 0.0
C3681 C 0.67364 0.37083 0.23561 0.0
C3682 C 0.67398 0.36586 0.21969 0.0
C3683 C 0.68782 0.36357 0.21364 0.0
C3684 C 0.70137 0.36628 0.22349 0.0
C3685 C 0.74333 0.3183 0.25877 0.0
C3686 C 0.75958 0.31946 0.25983 0.0
C3687 C 0.73605 0.33162 0.25899 0.0
C3688 C 0.74449 0.34707 0.26061 0.0
C3689 C 0.76075 0.34822 0.26172 0.0
C3690 C 0.76803 0.33488 0.26128 0.0
C3691 C 0.73641 0.36161 0.26072 0.0
C3692 C 0.72331 0.36113 0.25034 0.0
C3693 C 0.74125 0.3761 0.27104 0.0
C3694 C 0.75323 0.37781 0.28395 0.0
C3695 C 0.76674 0.389 0.2849 0.0
C3696 C 0.77716 0.392 0.29811 0.0
C3697 C 0.77402 0.3841 0.31055 0.0
C3698 C 0.76062 0.37292 0.30965 0.0
C3699 C 0.75031 0.36965 0.29634 0.0
H3700 H 0.78195 0.38664 0.32089 0.0
H3701 H 0.66351 0.36374 0.21205 0.0
H3702 H 0.8564 0.45713 0.52337 0.0
H3703 H 0.88431 0.46504 0.52419 0.0
H3704 H 0.87842 0.49703 0.49275 0.0
H3705 H 0.85048 0.48893 0.49166 0.0
H3706 H 0.90056 0.48317 0.48417 0.0
H3707 H 0.88947 0.5084 0.53385 0.0
H3708 H 0.87896 0.51005 0.55945 0.0
H3709 H 0.90731 0.47874 0.57291 0.0
H3710 H 0.91783 0.47675 0.54731 0.0
H3711 H 0.9768 0.52629 0.49418 0.0
H3712 H 0.9491 0.51794 0.49432 0.0
H3713 H 0.95684 0.48485 0.52393 0.0
H3714 H 0.98472 0.49341 0.5241 0.0
H3715 H 0.93399 0.49866 0.53357 0.0
H3716 H 0.9453 0.4738 0.48394 0.0
H3717 H 0.95594 0.47244 0.45842 0.0
H3718 H 0.92719 0.50338 0.44495 0.0
H3719 H 0.91652 0.5051 0.47048 0.0
C3720 C 0.861 0.466 0.51677 0.0
C3721 C 0.85105 0.47242 0.50751 0.0
C3722 C 0.87706 0.47056 0.51726 0.0
C3723 C 0.8837 0.48188 0.50872 0.0
C3724 C 0.87376 0.48829 0.49947 0.0
C3725 C 0.8577 0.48362 0.49884 0.0
C3726 C 0.90091 0.48678 0.50913 0.0
C3727 C 0.90779 0.48677 0.49502 0.0
C3728 C 0.91063 0.49111 0.5232 0.0
C3729 C 0.90432 0.4923 0.5386 0.0
C3730 C 0.89337 0.50178 0.54222 0.0
C3731 C 0.88743 0.50279 0.55674 0.0
C3732 C 0.89244 0.49447 0.56778 0.0
C3733 C 0.90343 0.48516 0.56434 0.0
C3734 C 0.90939 0.48409 0.54983 0.0
C3735 C 0.97269 0.51721 0.50073 0.0
C3736 C 0.98315 0.51049 0.50905 0.0
C3737 C 0.95674 0.51236 0.50073 0.0
C3738 C 0.95069 0.50052 0.50891 0.0
C3739 C 0.9611 0.49394 0.51744 0.0
C3740 C 0.9771 0.49882 0.51748 0.0
C3741 C 0.93357 0.49515 0.50863 0.0
C3742 C 0.92673 0.49506 0.52274 0.0
C3743 C 0.92387 0.49076 0.49456 0.0
C3744 C 0.93021 0.48968 0.47918 0.0
C3745 C 0.94132 0.4804 0.47558 0.0
C3746 C 0.94735 0.47955 0.4611 0.0
C3747 C 0.94227 0.48785 0.45008 0.0
C3748 C 0.93112 0.49698 0.4535 0.0
C3749 C 0.92507 0.49788 0.46796 0.0
H3750 H 0.94695 0.48718 0.43889 0.0
H3751 H 0.88783 0.49527 0.57901 0.0
H3752 H 0.34012 0.07428 0.25824 0.0
H3753 H 0.32622 0.09443 0.2521 0.0
H3754 H 0.36649 0.12953 0.26869 0.0
H3755 H 0.38027 0.1093 0.27537 0.0
H3756 H 0.34165 0.13929 0.27778 0.0
H3757 H 0.35682 0.11638 0.22947 0.0
H3758 H 0.35968 0.0951 0.20866 0.0
H3759 H 0.31056 0.0819 0.20044 0.0
H3760 H 0.30739 0.10296 0.22136 0.0
H3761 H 0.31415 0.19743 0.24366 0.0
H3762 H 0.32983 0.17792 0.24736 0.0
H3763 H 0.28921 0.14201 0.23872 0.0
H3764 H 0.27336 0.16156 0.23511 0.0
H3765 H 0.3155 0.13359 0.22486 0.0
H3766 H 0.30133 0.15674 0.27475 0.0
H3767 H 0.29955 0.17881 0.29515 0.0
H3768 H 0.34873 0.19261 0.29958 0.0
H3769 H 0.35077 0.17074 0.27903 0.0
C3770 C 0.34593 0.08632 0.26062 0.0
C3771 C 0.36123 0.09035 0.26711 0.0
C3772 C 0.33805 0.09779 0.25704 0.0
C3773 C 0.34548 0.1134 0.25957 0.0
C3774 C 0.36062 0.11751 0.26655 0.0
C3775 C 0.36845 0.10602 0.27037 0.0
C3776 C 0.33734 0.12539 0.25491 0.0
C3777 C 0.33616 0.13817 0.26614 0.0
C3778 C 0.33002 0.1238 0.23975 0.0
C3779 C 0.33187 0.11118 0.22707 0.0
C3780 C 0.34662 0.10888 0.22329 0.0
C3781 C 0.3483 0.09686 0.21147 0.0
C3782 C 0.33531 0.08714 0.20325 0.0
C3783 C 0.32061 0.08943 0.20682 0.0
C3784 C 0.31887 0.10142 0.21865 0.0
C3785 C 0.30858 0.18535 0.24244 0.0
C3786 C 0.29253 0.18097 0.23936 0.0
C3787 C 0.31754 0.17426 0.24451 0.0
C3788 C 0.31058 0.15865 0.24356 0.0
C3789 C 0.29471 0.15406 0.23953 0.0
C3790 C 0.2857 0.16519 0.23745 0.0
C3791 C 0.31975 0.14731 0.24776 0.0
C3792 C 0.32111 0.13469 0.23645 0.0
C3793 C 0.32742 0.14916 0.26277 0.0
C3794 C 0.32619 0.1622 0.27524 0.0
C3795 C 0.31175 0.16455 0.27999 0.0
C3796 C 0.3107 0.17701 0.2916 0.0
C3797 C 0.32402 0.18712 0.29863 0.0
C3798 C 0.33842 0.18477 0.29411 0.0
C3799 C 0.33953 0.17235 0.28249 0.0
H3800 H 0.32318 0.19676 0.30761 0.0
H3801 H 0.33663 0.07784 0.1941 0.0
H3802 H 0.35429 0.15517 0.49892 0.0
H3803 H 0.37616 0.14196 0.50101 0.0
H3804 H 0.34522 0.09873 0.5013 0.0
H3805 H 0.32321 0.11162 0.49852 0.0
H3806 H 0.36962 0.10577 0.52518 0.0
H3807 H 0.36195 0.10365 0.46969 0.0
H3808 H 0.35929 0.11486 0.44577 0.0
H3809 H 0.40449 0.1427 0.45675 0.0
H3810 H 0.40732 0.13182 0.48088 0.0
H3811 H 0.41789 0.05062 0.51421 0.0
H3812 H 0.39767 0.06572 0.5112 0.0
H3813 H 0.43166 0.1052 0.50552 0.0
H3814 H 0.45208 0.09012 0.50863 0.0
H3815 H 0.40687 0.10186 0.48513 0.0
H3816 H 0.41558 0.1044 0.53961 0.0
H3817 H 0.41898 0.09463 0.56427 0.0
H3818 H 0.37303 0.06809 0.55646 0.0
H3819 H 0.36942 0.07752 0.53162 0.0
C3820 C 0.35204 0.14279 0.49914 0.0
C3821 C 0.33685 0.13452 0.49852 0.0
C3822 C 0.36462 0.13528 0.50044 0.0
C3823 C 0.36233 0.11935 0.50129 0.0
C3824 C 0.34725 0.11105 0.50075 0.0
C3825 C 0.33466 0.1185 0.49925 0.0
C3826 C 0.37563 0.11135 0.50295 0.0
C3827 C 0.37766 0.10474 0.51634 0.0
C3828 C 0.38645 0.11054 0.49169 0.0
C3829 C 0.38478 0.11705 0.47717 0.0
C3830 C 0.37127 0.11227 0.46708 0.0
C3831 C 0.36974 0.11854 0.45347 0.0
C3832 C 0.3817 0.12952 0.44977 0.0
C3833 C 0.39523 0.13422 0.45965 0.0
C3834 C 0.3968 0.12799 0.47329 0.0
C3835 C 0.42112 0.06255 0.51244 0.0
C3836 C 0.43666 0.06919 0.51186 0.0
C3837 C 0.40952 0.07118 0.51069 0.0
C3838 C 0.41314 0.08671 0.5084 0.0
C3839 C 0.42858 0.09326 0.50733 0.0
C3840 C 0.44024 0.0846 0.50907 0.0
C3841 C 0.40072 0.096 0.50725 0.0
C3842 C 0.39888 0.10291 0.494 0.0
C3843 C 0.39017 0.0973 0.51875 0.0
C3844 C 0.39228 0.09155 0.53367 0.0
C3845 C 0.40624 0.09637 0.54308 0.0
C3846 C 0.4082 0.09092 0.55711 0.0
C3847 C 0.39624 0.08072 0.56191 0.0
C3848 C 0.38229 0.07598 0.55271 0.0
C3849 C 0.38027 0.08138 0.53866 0.0
H3850 H 0.39778 0.07651 0.57278 0.0
H3851 H 0.38049 0.13436 0.43922 0.0
H3852 H 0.71701 0.59327 0.24929 0.0
H3853 H 0.72836 0.62046 0.24892 0.0
H3854 H 0.69744 0.63548 0.28177 0.0
H3855 H 0.6859 0.60827 0.28208 0.0
H3856 H 0.69981 0.65467 0.2606 0.0
H3857 H 0.73747 0.6369 0.29164 0.0
H3858 H 0.75544 0.61973 0.29747 0.0
H3859 H 0.78019 0.63011 0.25844 0.0
H3860 H 0.76224 0.64719 0.25226 0.0
H3861 H 0.73741 0.73535 0.2756 0.0
H3862 H 0.72556 0.70845 0.27686 0.0
H3863 H 0.76139 0.69193 0.25142 0.0
H3864 H 0.77363 0.71881 0.25094 0.0
H3865 H 0.75616 0.67324 0.2692 0.0
H3866 H 0.71875 0.68986 0.23697 0.0
H3867 H 0.70069 0.70646 0.22984 0.0
H3868 H 0.67539 0.69772 0.26899 0.0
H3869 H 0.69341 0.68119 0.27644 0.0
C3870 C 0.71246 0.60225 0.25644 0.0
C3871 C 0.70035 0.59805 0.26576 0.0
C3872 C 0.71917 0.61804 0.25632 0.0
C3873 C 0.7141 0.63056 0.26544 0.0
C3874 C 0.70186 0.62642 0.27458 0.0
C3875 C 0.69525 0.6106 0.27485 0.0
C3876 C 0.72144 0.64774 0.26543 0.0
C3877 C 0.71214 0.65868 0.26269 0.0
C3878 C 0.73761 0.65344 0.2677 0.0
C3879 C 0.74842 0.64321 0.2714 0.0
C3880 C 0.74668 0.63543 0.28424 0.0
C3881 C 0.75687 0.62573 0.28761 0.0
C3882 C 0.76892 0.6238 0.2783 0.0
C3883 C 0.77083 0.6316 0.26562 0.0
C3884 C 0.76066 0.6413 0.26218 0.0
C3885 C 0.7428 0.72603 0.27021 0.0
C3886 C 0.75662 0.72967 0.2631 0.0
C3887 C 0.73584 0.71037 0.27079 0.0
C3888 C 0.7421 0.69746 0.26392 0.0
C3889 C 0.75597 0.70119 0.2569 0.0
C3890 C 0.76305 0.71682 0.25655 0.0
C3891 C 0.73456 0.68031 0.26421 0.0
C3892 C 0.74383 0.66932 0.26704 0.0
C3893 C 0.71836 0.67453 0.2618 0.0
C3894 C 0.70752 0.68443 0.25735 0.0
C3895 C 0.70939 0.69156 0.24411 0.0
C3896 C 0.69916 0.70094 0.24001 0.0
C3897 C 0.68693 0.70318 0.24898 0.0
C3898 C 0.68489 0.696 0.26206 0.0
C3899 C 0.69509 0.68661 0.26622 0.0
H3900 H 0.67902 0.71045 0.24579 0.0
H3901 H 0.7768 0.61629 0.28094 0.0
H3902 H 0.85953 0.44089 0.78552 0.0
H3903 H 0.84321 0.4154 0.78334 0.0
H3904 H 0.81059 0.42847 0.75161 0.0
H3905 H 0.82715 0.45413 0.75346 0.0
H3906 H 0.79749 0.41161 0.77567 0.0
H3907 H 0.83089 0.40685 0.73521 0.0
H3908 H 0.85545 0.41028 0.72313 0.0
H3909 H 0.87408 0.38366 0.75416 0.0
H3910 H 0.84971 0.38027 0.7666 0.0
H3911 H 0.76724 0.32782 0.7565 0.0
H3912 H 0.77497 0.35587 0.75632 0.0
H3913 H 0.81707 0.35618 0.78397 0.0
H3914 H 0.80948 0.32822 0.78382 0.0
H3915 H 0.82182 0.36659 0.75659 0.0
H3916 H 0.78898 0.37423 0.79888 0.0
H3917 H 0.76419 0.37071 0.81056 0.0
H3918 H 0.74403 0.39143 0.77505 0.0
H3919 H 0.76867 0.3949 0.76305 0.0
C3920 C 0.84893 0.43835 0.77802 0.0
C3921 C 0.84472 0.44938 0.76945 0.0
C3922 C 0.83959 0.42385 0.77687 0.0
C3923 C 0.82586 0.4201 0.76718 0.0
C3924 C 0.8212 0.43125 0.75912 0.0
C3925 C 0.83062 0.44584 0.76021 0.0
C3926 C 0.81697 0.40419 0.76516 0.0
C3927 C 0.8026 0.4017 0.7712 0.0
C3928 C 0.82375 0.3914 0.75934 0.0
C3929 C 0.83848 0.3934 0.75191 0.0
C3930 C 0.84026 0.40184 0.73955 0.0
C3931 C 0.85415 0.40376 0.73262 0.0
C3932 C 0.86632 0.39721 0.73789 0.0
C3933 C 0.86464 0.38872 0.75009 0.0
C3934 C 0.85078 0.38679 0.75708 0.0
C3935 C 0.77788 0.3341 0.76292 0.0
C3936 C 0.7878 0.32619 0.77029 0.0
C3937 C 0.78229 0.35002 0.7628 0.0
C3938 C 0.79659 0.358 0.7701 0.0
C3939 C 0.80601 0.35016 0.77825 0.0
C3940 C 0.80167 0.3343 0.77825 0.0
C3941 C 0.80271 0.37399 0.76787 0.0
C3942 C 0.81654 0.37645 0.76084 0.0
C3943 C 0.79535 0.38666 0.77269 0.0
C3944 C 0.78061 0.38466 0.77997 0.0
C3945 C 0.77923 0.37791 0.79349 0.0
C3946 C 0.76521 0.37596 0.80018 0.0
C3947 C 0.75253 0.3808 0.79352 0.0
C3948 C 0.75385 0.38766 0.78018 0.0
C3949 C 0.76784 0.38964 0.77344 0.0
H3950 H 0.74169 0.37927 0.79871 0.0
H3951 H 0.87706 0.3987 0.73251 0.0
H3952 H 0.03075 0.82043 0.06227 0.0
H3953 H 0.02994 0.83979 0.04528 0.0
H3954 H 0.07303 0.86629 0.06808 0.0
H3955 H 0.07375 0.84707 0.08538 0.0
H3956 H 0.05187 0.88437 0.06516 0.0
H3957 H 0.07246 0.84686 0.03219 0.0
H3958 H 0.0746 0.82085 0.01864 0.0
H3959 H 0.03061 0.81682 0.9935 0.0
H3960 H 0.02808 0.84273 0.00708 0.0
H3961 H 0.05653 0.93511 0.00948 0.0
H3962 H 0.06389 0.91369 0.02095 0.0
H3963 H 0.01698 0.88906 0.01321 0.0
H3964 H 0.00924 0.91077 0.00264 0.0
H3965 H 0.04373 0.8707 0.00765 0.0
H3966 H 0.02238 0.90701 0.04478 0.0
H3967 H 0.02114 0.93324 0.05848 0.0
H3968 H 0.06856 0.93957 0.0758 0.0
H3969 H 0.07014 0.91345 0.06194 0.0
C3970 C 0.04001 0.83043 0.06369 0.0
C3971 C 0.05229 0.83232 0.07514 0.0
C3972 C 0.03963 0.84136 0.05388 0.0
C3973 C 0.05153 0.85432 0.05532 0.0
C3974 C 0.06381 0.85627 0.06675 0.0
C3975 C 0.06423 0.8453 0.07655 0.0
C3976 C 0.05066 0.86621 0.04537 0.0
C3977 C 0.05042 0.88144 0.05258 0.0
C3978 C 0.0486 0.86231 0.02897 0.0
C3979 C 0.05003 0.8467 0.02075 0.0
C3980 C 0.06318 0.84038 0.02387 0.0
C3981 C 0.06447 0.82566 0.01617 0.0
C3982 C 0.05274 0.81718 0.00524 0.0
C3983 C 0.03969 0.82341 0.00197 0.0
C3984 C 0.03832 0.83812 0.00966 0.0
C3985 C 0.04777 0.92509 0.01007 0.0
C3986 C 0.03222 0.92482 0.00545 0.0
C3987 C 0.05205 0.91283 0.01649 0.0
C3988 C 0.04092 0.89998 0.01799 0.0
C3989 C 0.02569 0.89894 0.01205 0.0
C3990 C 0.02132 0.91135 0.00594 0.0
C3991 C 0.04471 0.88863 0.02751 0.0
C3992 C 0.04545 0.87358 0.02022 0.0
C3993 C 0.04738 0.8927 0.04384 0.0
C3994 C 0.04645 0.9084 0.05211 0.0
C3995 C 0.0326 0.91408 0.05133 0.0
C3996 C 0.03182 0.9289 0.05917 0.0
C3997 C 0.04478 0.9381 0.06795 0.0
C3998 C 0.05854 0.93246 0.06895 0.0
C3999 C 0.05939 0.91765 0.0611 0.0
H4000 H 0.04415 0.94956 0.07403 0.0
H4001 H 0.05377 0.80579 0.99927 0.0
H4002 H 0.94687 0.26335 0.82722 0.0
H4003 H 0.92322 0.2602 0.8102 0.0
H4004 H 0.90443 0.28956 0.84545 0.0
H4005 H 0.92755 0.29205 0.86275 0.0
H4006 H 0.88361 0.26539 0.83345 0.0
H4007 H 0.92024 0.30304 0.81357 0.0
H4008 H 0.94452 0.31251 0.80274 0.0
H4009 H 0.93325 0.27558 0.76354 0.0
H4010 H 0.90897 0.26577 0.77425 0.0
H4011 H 0.82697 0.29542 0.79744 0.0
H4012 H 0.85212 0.29358 0.80897 0.0
H4013 H 0.857 0.2587 0.7702 0.0
H4014 H 0.83175 0.26063 0.75833 0.0
H4015 H 0.88456 0.28097 0.7813 0.0
H4016 H 0.84497 0.24642 0.80125 0.0
H4017 H 0.82002 0.24082 0.81236 0.0
H4018 H 0.83694 0.27536 0.85255 0.0
H4019 H 0.86188 0.28137 0.84159 0.0
C4020 C 0.93761 0.26897 0.83139 0.0
C4021 C 0.93912 0.27804 0.84629 0.0
C4022 C 0.92419 0.26729 0.8216 0.0
C4023 C 0.91216 0.27479 0.82651 0.0
C4024 C 0.91359 0.28369 0.84143 0.0
C4025 C 0.9269 0.28526 0.85124 0.0
C4026 C 0.89801 0.27354 0.81625 0.0
C4027 C 0.88384 0.2688 0.82205 0.0
C4028 C 0.89833 0.27768 0.80124 0.0
C4029 C 0.9129 0.28356 0.7948 0.0
C4030 C 0.923 0.29686 0.8027 0.0
C4031 C 0.93675 0.3023 0.79658 0.0
C4032 C 0.94045 0.29462 0.78249 0.0
C4033 C 0.93038 0.2815 0.77447 0.0
C4034 C 0.91663 0.276 0.78056 0.0
C4035 C 0.83341 0.28744 0.79127 0.0
C4036 C 0.8273 0.27797 0.77711 0.0
C4037 C 0.84778 0.28643 0.79786 0.0
C4038 C 0.85619 0.27578 0.79055 0.0
C4039 C 0.85056 0.26691 0.77601 0.0
C4040 C 0.83617 0.268 0.7693 0.0
C4041 C 0.87031 0.27332 0.79877 0.0
C4042 C 0.88441 0.27724 0.79255 0.0
C4043 C 0.86997 0.2687 0.81354 0.0
C4044 C 0.85528 0.26439 0.82056 0.0
C4045 C 0.84337 0.25282 0.81246 0.0
C4046 C 0.82922 0.24959 0.81872 0.0
C4047 C 0.8269 0.25777 0.83312 0.0
C4048 C 0.83876 0.26905 0.84139 0.0
C4049 C 0.85291 0.27236 0.83517 0.0
H4050 H 0.81591 0.25544 0.83787 0.0
H4051 H 0.95109 0.29885 0.77776 0.0
H4052 H 0.52841 0.19689 0.54719 0.0
H4053 H 0.52679 0.1727 0.52874 0.0
H4054 H 0.5717 0.16799 0.54721 0.0
H4055 H 0.57353 0.1924 0.56526 0.0
H4056 H 0.56765 0.15741 0.51659 0.0
H4057 H 0.5387 0.15129 0.56142 0.0
H4058 H 0.51895 0.15666 0.57923 0.0
H4059 H 0.48382 0.1426 0.54126 0.0
H4060 H 0.50341 0.13737 0.52319 0.0
H4061 H 0.56342 0.07613 0.514 0.0
H4062 H 0.56701 0.10453 0.51716 0.0
H4063 H 0.5205 0.10087 0.49715 0.0
H4064 H 0.51671 0.07257 0.49485 0.0
H4065 H 0.52392 0.1169 0.5244 0.0
H4066 H 0.55334 0.11814 0.48042 0.0
H4067 H 0.5736 0.11186 0.46365 0.0
H4068 H 0.60831 0.13391 0.50041 0.0
H4069 H 0.58827 0.14011 0.51749 0.0
C4070 C 0.538 0.19076 0.54708 0.0
C4071 C 0.55101 0.19629 0.55768 0.0
C4072 C 0.53709 0.17703 0.53656 0.0
C4073 C 0.54902 0.16846 0.53682 0.0
C4074 C 0.56239 0.17445 0.54681 0.0
C4075 C 0.56341 0.18832 0.55715 0.0
C4076 C 0.54692 0.15249 0.52805 0.0
C4077 C 0.5581 0.14849 0.51823 0.0
C4078 C 0.5343 0.14099 0.53005 0.0
C4079 C 0.52254 0.14414 0.54093 0.0
C4080 C 0.52678 0.14947 0.55686 0.0
C4081 C 0.51561 0.15247 0.567 0.0
C4082 C 0.50014 0.15002 0.56137 0.0
C4083 C 0.49581 0.14453 0.5456 0.0
C4084 C 0.50694 0.14155 0.5354 0.0
C4085 C 0.5542 0.08146 0.50985 0.0
C4086 C 0.53978 0.07241 0.50436 0.0
C4087 C 0.55626 0.09765 0.51154 0.0
C4088 C 0.54401 0.10484 0.50738 0.0
C4089 C 0.53007 0.09558 0.50049 0.0
C4090 C 0.5279 0.07947 0.49919 0.0
C4091 C 0.54469 0.12163 0.51285 0.0
C4092 C 0.53327 0.1258 0.52227 0.0
C4093 C 0.55716 0.13316 0.51055 0.0
C4094 C 0.56927 0.12952 0.50027 0.0
C4095 C 0.56528 0.12156 0.48497 0.0
C4096 C 0.57674 0.11802 0.4754 0.0
C4097 C 0.59223 0.12247 0.48097 0.0
C4098 C 0.59631 0.13048 0.49611 0.0
C4099 C 0.5849 0.13403 0.50573 0.0
H4100 H 0.60108 0.11972 0.47354 0.0
H4101 H 0.49151 0.15234 0.56924 0.0
H4102 H 0.59419 0.80306 0.3754 0.0
H4103 H 0.61733 0.80604 0.36134 0.0
H4104 H 0.5896 0.78841 0.31797 0.0
H4105 H 0.56643 0.78558 0.33188 0.0
H4106 H 0.61343 0.77317 0.32183 0.0
H4107 H 0.60556 0.82619 0.32695 0.0
H4108 H 0.60191 0.85142 0.34119 0.0
H4109 H 0.6457 0.85681 0.36717 0.0
H4110 H 0.64951 0.83148 0.35324 0.0
H4111 H 0.66772 0.7858 0.26807 0.0
H4112 H 0.64552 0.78741 0.28311 0.0
H4113 H 0.67579 0.80731 0.32444 0.0
H4114 H 0.69808 0.80646 0.30922 0.0
H4115 H 0.65146 0.82163 0.3228 0.0
H4116 H 0.65964 0.76916 0.31823 0.0
H4117 H 0.6637 0.74384 0.30457 0.0
H4118 H 0.61973 0.73712 0.2786 0.0
H4119 H 0.6155 0.76252 0.29195 0.0
C4120 C 0.59301 0.80011 0.36284 0.0
C4121 C 0.57853 0.79398 0.35473 0.0
C4122 C 0.60622 0.8018 0.35484 0.0
C4123 C 0.60512 0.79745 0.33864 0.0
C4124 C 0.59065 0.79175 0.33049 0.0
C4125 C 0.57746 0.79008 0.33845 0.0
C4126 C 0.61909 0.79784 0.33022 0.0
C4127 C 0.62164 0.7838 0.32186 0.0
C4128 C 0.63003 0.81163 0.33078 0.0
C4129 C 0.62774 0.82686 0.33917 0.0
C4130 C 0.61435 0.83268 0.3358 0.0
C4131 C 0.61226 0.84702 0.3438 0.0
C4132 C 0.62355 0.85569 0.35511 0.0
C4133 C 0.63696 0.85006 0.35842 0.0
C4134 C 0.63909 0.83573 0.35047 0.0
C4135 C 0.66965 0.79074 0.28031 0.0
C4136 C 0.68462 0.79587 0.28754 0.0
C4137 C 0.65697 0.79152 0.28891 0.0
C4138 C 0.65906 0.79722 0.30492 0.0
C4139 C 0.67397 0.80277 0.3121 0.0
C4140 C 0.68666 0.80211 0.30347 0.0
C4141 C 0.64563 0.79701 0.31418 0.0
C4142 C 0.64324 0.81101 0.32278 0.0
C4143 C 0.63486 0.78315 0.31397 0.0
C4144 C 0.63732 0.76781 0.30599 0.0
C4145 C 0.65089 0.76234 0.30952 0.0
C4146 C 0.65321 0.74796 0.30185 0.0
C4147 C 0.642 0.73889 0.2907 0.0
C4148 C 0.62841 0.74416 0.28723 0.0
C4149 C 0.62604 0.75854 0.29486 0.0
H4150 H 0.64382 0.72776 0.28477 0.0
H4151 H 0.62191 0.86679 0.36128 0.0
H4152 H 0.05766 0.23741 0.45318 0.0
H4153 H 0.05058 0.21646 0.46815 0.0
H4154 H 0.04127 0.18308 0.42561 0.0
H4155 H 0.04797 0.20407 0.41061 0.0
H4156 H 0.01936 0.17748 0.44398 0.0
H4157 H 0.07457 0.1873 0.4499 0.0
H4158 H 0.10049 0.20332 0.45646 0.0
H4159 H 0.08999 0.21568 0.50358 0.0
H4160 H 0.06393 0.1999 0.49725 0.0
H4161 H 0.01937 0.10837 0.47468 0.0
H4162 H 0.02453 0.13049 0.4611 0.0
H4163 H 0.03309 0.16174 0.50503 0.0
H4164 H 0.02897 0.1395 0.51876 0.0
H4165 H 0.05469 0.16909 0.48672 0.0
H4166 H 0.99913 0.15758 0.4801 0.0
H4167 H 0.97398 0.14021 0.47276 0.0
H4168 H 0.98601 0.12965 0.42593 0.0
H4169 H 0.01129 0.14684 0.43303 0.0
C4170 C 0.05422 0.22557 0.44708 0.0
C4171 C 0.05341 0.22228 0.43079 0.0
C4172 C 0.05018 0.21363 0.45561 0.0
C4173 C 0.04557 0.1982 0.44799 0.0
C4174 C 0.04476 0.19492 0.43171 0.0
C4175 C 0.04861 0.20688 0.42317 0.0
C4176 C 0.0415 0.18544 0.45695 0.0
C4177 C 0.02714 0.17556 0.45324 0.0
C4178 C 0.05154 0.18312 0.4692 0.0
C4179 C 0.06725 0.19254 0.47306 0.0
C4180 C 0.07776 0.19352 0.46163 0.0
C4181 C 0.09248 0.20255 0.46531 0.0
C4182 C 0.09687 0.21054 0.48041 0.0
C4183 C 0.08657 0.2095 0.49188 0.0
C4184 C 0.07182 0.2005 0.48826 0.0
C4185 C 0.02243 0.11994 0.48147 0.0
C4186 C 0.02387 0.12218 0.4978 0.0
C4187 C 0.02517 0.13259 0.47368 0.0
C4188 C 0.02898 0.14778 0.48205 0.0
C4189 C 0.03009 0.1501 0.49835 0.0
C4190 C 0.02758 0.13741 0.50618 0.0
C4191 C 0.03255 0.16114 0.47377 0.0
C4192 C 0.04684 0.17112 0.47758 0.0
C4193 C 0.02251 0.16344 0.46149 0.0
C4194 C 0.00713 0.15345 0.45712 0.0
C4195 C 0.99642 0.15153 0.46824 0.0
C4196 C 0.98215 0.14171 0.46413 0.0
C4197 C 0.97841 0.13382 0.44889 0.0
C4198 C 0.98891 0.13579 0.43772 0.0
C4199 C 0.0032 0.14559 0.44178 0.0
H4200 H 0.96737 0.12619 0.44574 0.0
H4201 H 0.10828 0.21752 0.48324 0.0
H4202 H 0.56604 0.29024 0.19495 0.0
H4203 H 0.58983 0.29022 0.2108 0.0
H4204 H 0.59168 0.24438 0.1863 0.0
H4205 H 0.5677 0.24418 0.17097 0.0
H4206 H 0.59736 0.24513 0.21568 0.0
H4207 H 0.61468 0.27893 0.17923 0.0
H4208 H 0.61536 0.30173 0.16609 0.0
H4209 H 0.62764 0.33226 0.20986 0.0
H4210 H 0.62681 0.30961 0.22331 0.0
H4211 H 0.67498 0.23788 0.22571 0.0
H4212 H 0.64988 0.24155 0.21529 0.0
H4213 H 0.65237 0.2823 0.2502 0.0
H4214 H 0.67759 0.27871 0.26067 0.0
H4215 H 0.64378 0.28635 0.21947 0.0
H4216 H 0.62921 0.25141 0.25504 0.0
H4217 H 0.62964 0.22801 0.26701 0.0
H4218 H 0.6131 0.1989 0.22323 0.0
H4219 H 0.61279 0.22213 0.21093 0.0
C4220 C 0.57162 0.28023 0.193 0.0
C4221 C 0.56512 0.26719 0.18186 0.0
C4222 C 0.58519 0.28023 0.20198 0.0
C4223 C 0.59258 0.26734 0.19966 0.0
C4224 C 0.58612 0.2544 0.18837 0.0
C4225 C 0.57247 0.2543 0.17961 0.0
C4226 C 0.60694 0.26702 0.20902 0.0
C4227 C 0.60753 0.25411 0.2164 0.0
C4228 C 0.62007 0.27897 0.21037 0.0
C4229 C 0.62049 0.29257 0.2023 0.0
C4230 C 0.61738 0.2905 0.18607 0.0
C4231 C 0.61782 0.3034 0.17856 0.0
C4232 C 0.62148 0.31843 0.18714 0.0
C4233 C 0.62476 0.3206 0.20324 0.0
C4234 C 0.62431 0.30774 0.21081 0.0
C4235 C 0.67016 0.24762 0.23115 0.0
C4236 C 0.67814 0.258 0.24399 0.0
C4237 C 0.65584 0.24965 0.22526 0.0
C4238 C 0.6493 0.26212 0.23209 0.0
C4239 C 0.65726 0.27258 0.24485 0.0
C4240 C 0.67156 0.27047 0.25085 0.0
C4241 C 0.63424 0.26425 0.22561 0.0
C4242 C 0.63351 0.27752 0.21887 0.0
C4243 C 0.62103 0.25254 0.22465 0.0
C4244 C 0.62108 0.23853 0.23204 0.0
C4245 C 0.62577 0.24002 0.24794 0.0
C4246 C 0.62597 0.22679 0.25478 0.0
C4247 C 0.62142 0.21198 0.24588 0.0
C4248 C 0.61663 0.21038 0.23011 0.0
C4249 C 0.61642 0.22358 0.2232 0.0
H4250 H 0.62159 0.20174 0.2512 0.0
H4251 H 0.62183 0.3284 0.1813 0.0
H4252 H 0.54481 0.86213 0.94897 0.0
H4253 H 0.5393 0.88699 0.96114 0.0
H4254 H 0.58306 0.9104 0.94971 0.0
H4255 H 0.58908 0.88537 0.93826 0.0
H4256 H 0.57797 0.92233 0.9776 0.0
H4257 H 0.54968 0.91129 0.9285 0.0
H4258 H 0.53216 0.8961 0.90643 0.0
H4259 H 0.4946 0.89357 0.93541 0.0
H4260 H 0.51196 0.90854 0.95775 0.0
H4261 H 0.55096 0.99592 0.98612 0.0
H4262 H 0.55684 0.97187 0.9719 0.0
H4263 H 0.53123 0.94555 0.00263 0.0
H4264 H 0.52562 0.96976 0.01723 0.0
H4265 H 0.52798 0.93682 0.96318 0.0
H4266 H 0.56059 0.9459 0.01332 0.0
H4267 H 0.57922 0.96356 0.03303 0.0
H4268 H 0.61004 0.9725 0.99798 0.0
H4269 H 0.59143 0.95508 0.97801 0.0
C4270 C 0.55343 0.8725 0.94932 0.0
C4271 C 0.5674 0.87177 0.94265 0.0
C4272 C 0.55015 0.88674 0.95606 0.0
C4273 C 0.56063 0.90055 0.95602 0.0
C4274 C 0.57476 0.89986 0.94973 0.0
C4275 C 0.57813 0.88558 0.94311 0.0
C4276 C 0.55681 0.91566 0.96268 0.0
C4277 C 0.5671 0.92551 0.97431 0.0
C4278 C 0.5427 0.91995 0.95826 0.0
C4279 C 0.53218 0.91092 0.94486 0.0
C4280 C 0.53772 0.90738 0.93022 0.0
C4281 C 0.52781 0.89883 0.91764 0.0
C4282 C 0.51228 0.89384 0.91952 0.0
C4283 C 0.50664 0.89743 0.93398 0.0
C4284 C 0.51651 0.90596 0.9466 0.0
C4285 C 0.54645 0.98497 0.98972 0.0
C4286 C 0.53785 0.98453 0.00268 0.0
C4287 C 0.54983 0.97132 0.98163 0.0
C4288 C 0.54442 0.9571 0.9863 0.0
C4289 C 0.53545 0.95654 0.99897 0.0
C4290 C 0.53235 0.97027 0.0073 0.0
C4291 C 0.54884 0.94289 0.97838 0.0
C4292 C 0.53877 0.93343 0.96641 0.0
C4293 C 0.56329 0.93915 0.98215 0.0
C4294 C 0.57457 0.94935 0.99418 0.0
C4295 C 0.57128 0.95175 0.0098 0.0
C4296 C 0.58184 0.96169 0.02102 0.0
C4297 C 0.59579 0.96919 0.01675 0.0
C4298 C 0.59922 0.96671 1.00126 0.0
C4299 C 0.58867 0.95681 0.99 0.0
H4300 H 0.60396 0.97688 0.02545 0.0
H4301 H 0.50463 0.88723 0.90977 0.0
H4302 H 0.9392 0.78041 0.70424 0.0
H4303 H 0.91798 0.78111 0.72069 0.0
H4304 H 0.88855 0.74678 0.68622 0.0
H4305 H 0.9092 0.74708 0.66911 0.0
H4306 H 0.87386 0.76811 0.69573 0.0
H4307 H 0.90525 0.73873 0.72194 0.0
H4308 H 0.92906 0.73401 0.73493 0.0
H4309 H 0.93014 0.77432 0.76962 0.0
H4310 H 0.90644 0.77938 0.75672 0.0
H4311 H 0.81276 0.74479 0.73749 0.0
H4312 H 0.83728 0.74334 0.72658 0.0
H4313 H 0.85846 0.7856 0.75725 0.0
H4314 H 0.83389 0.78717 0.76835 0.0
H4315 H 0.87783 0.76176 0.75117 0.0
H4316 H 0.84716 0.79146 0.72395 0.0
H4317 H 0.82294 0.7956 0.7113 0.0
H4318 H 0.82028 0.7533 0.67889 0.0
H4319 H 0.84457 0.74901 0.69127 0.0
C4320 C 0.92815 0.77318 0.70003 0.0
C4321 C 0.92595 0.76371 0.68529 0.0
C4322 C 0.9161 0.77338 0.7096 0.0
C4323 C 0.90175 0.7638 0.70481 0.0
C4324 C 0.89956 0.75424 0.69019 0.0
C4325 C 0.91147 0.75429 0.68048 0.0
C4326 C 0.88872 0.76419 0.71462 0.0
C4327 C 0.87475 0.7665 0.70778 0.0
C4328 C 0.88994 0.76259 0.73051 0.0
C4329 C 0.90416 0.75951 0.73828 0.0
C4330 C 0.91063 0.74665 0.73227 0.0
C4331 C 0.92409 0.7439 0.73963 0.0
C4332 C 0.93113 0.75388 0.75307 0.0
C4333 C 0.92469 0.76661 0.7592 0.0
C4334 C 0.91123 0.76941 0.75188 0.0
C4335 C 0.8227 0.7536 0.74217 0.0
C4336 C 0.82137 0.76624 0.75358 0.0
C4337 C 0.83668 0.75273 0.73595 0.0
C4338 C 0.84951 0.7645 0.74098 0.0
C4339 C 0.84861 0.77644 0.75326 0.0
C4340 C 0.83458 0.77731 0.75956 0.0
C4341 C 0.86313 0.76526 0.73208 0.0
C4342 C 0.87711 0.76332 0.7391 0.0
C4343 C 0.86198 0.76711 0.71632 0.0
C4344 C 0.8476 0.76987 0.70859 0.0
C4345 C 0.84138 0.78304 0.71413 0.0
C4346 C 0.82765 0.78543 0.707 0.0
C4347 C 0.82002 0.7747 0.69433 0.0
C4348 C 0.82619 0.76163 0.68868 0.0
C4349 C 0.83998 0.75924 0.69571 0.0
H4350 H 0.80934 0.77654 0.68891 0.0
H4351 H 0.94155 0.75173 0.75875 0.0
H4352 H 0.10925 0.038 0.84635 0.0
H4353 H 0.09726 0.04019 0.8708 0.0
H4354 H 0.09488 0.99125 0.87073 0.0
H4355 H 0.10707 0.98893 0.84633 0.0
H4356 H 0.06944 0.99763 0.88141 0.0
H4357 H 0.12172 0.02352 0.8966 0.0
H4358 H 0.14527 0.04281 0.89592 0.0
H4359 H 0.12023 0.07997 0.90679 0.0
H4360 H 0.09649 0.06089 0.90736 0.0
H4361 H 0.0475 0.99844 0.95967 0.0
H4362 H 0.05977 0.99621 0.93529 0.0
H4363 H 0.0676 0.04604 0.93851 0.0
H4364 H 0.05601 0.04829 0.96342 0.0
H4365 H 0.09025 0.03927 0.92593 0.0
H4366 H 0.03805 0.01443 0.91023 0.0
H4367 H 0.01388 0.9958 0.91033 0.0
H4368 H 0.03766 0.95762 0.89961 0.0
H4369 H 0.062 0.97603 0.89962 0.0
C4370 C 0.10649 0.02759 0.85142 0.0
C4371 C 0.10959 0.01323 0.84367 0.0
C4372 C 0.09946 0.0289 0.86576 0.0
C4373 C 0.09508 0.01599 0.87337 0.0
C4374 C 0.09792 1.00161 0.86558 0.0
C4375 C 0.10501 1.00028 0.85127 0.0
C4376 C 0.08753 0.01737 0.88912 0.0
C4377 C 0.07424 0.00667 0.89114 0.0
C4378 C 0.09305 0.02931 0.90219 0.0
C4379 C 0.1073 0.04078 0.90187 0.0
C4380 C 0.12122 0.03581 0.89875 0.0
C4381 C 0.1346 0.0467 0.89839 0.0
C4382 C 0.13424 0.0626 0.90127 0.0
C4383 C 0.12049 0.06765 0.90454 0.0
C4384 C 0.10707 0.0568 0.9049 0.0
C4385 C 0.05172 0.00902 0.95525 0.0
C4386 C 0.0504 0.02358 0.96393 0.0
C4387 C 0.05875 0.00771 0.94092 0.0
C4388 C 0.06458 0.02087 0.93412 0.0
C4389 C 0.06337 0.03546 0.9429 0.0
C4390 C 0.05654 0.03678 0.95738 0.0
C4391 C 0.07207 0.01953 0.91829 0.0
C4392 C 0.08539 0.03023 0.91623 0.0
C4393 C 0.06645 0.00769 0.90511 0.0
C4394 C 0.05186 0.99661 0.90509 0.0
C4395 C 0.03813 1.00206 0.90799 0.0
C4396 C 0.02441 0.99154 0.90801 0.0
C4397 C 0.02424 0.97554 0.90502 0.0
C4398 C 0.0378 0.97002 0.90195 0.0
C4399 C 0.05156 0.98049 0.90193 0.0
H4400 H 0.01361 0.96742 0.90505 0.0
H4401 H 0.14461 0.07101 0.90099 0.0
H4402 H 0.76728 0.36277 0.55337 0.0
H4403 H 0.76995 0.34875 0.57504 0.0
H4404 H 0.77771 0.39197 0.60722 0.0
H4405 H 0.77437 0.4061 0.58576 0.0
H4406 H 0.79904 0.3724 0.61243 0.0
H4407 H 0.74445 0.36969 0.60538 0.0
H4408 H 0.71902 0.36415 0.59056 0.0
H4409 H 0.72248 0.31601 0.57884 0.0
H4410 H 0.74806 0.32132 0.59341 0.0
H4411 H 0.79292 0.33967 0.68178 0.0
H4412 H 0.78931 0.35473 0.66106 0.0
H4413 H 0.77481 0.31218 0.62831 0.0
H4414 H 0.77786 0.29708 0.64904 0.0
H4415 H 0.75676 0.3321 0.62368 0.0
H4416 H 0.81122 0.33435 0.62984 0.0
H4417 H 0.837 0.33944 0.64391 0.0
H4418 H 0.83435 0.3877 0.65648 0.0
H4419 H 0.80844 0.38285 0.64265 0.0
C4420 C 0.76929 0.36935 0.56505 0.0
C4421 C 0.77053 0.38565 0.56769 0.0
C4422 C 0.77094 0.36128 0.57744 0.0
C4423 C 0.77399 0.36931 0.59276 0.0
C4424 C 0.77543 0.38555 0.59548 0.0
C4425 C 0.77359 0.39362 0.58313 0.0
C4426 C 0.77564 0.36073 0.60594 0.0
C4427 C 0.78974 0.36374 0.61505 0.0
C4428 C 0.76362 0.34917 0.60911 0.0
C4429 C 0.74824 0.34594 0.60035 0.0
C4430 C 0.73986 0.35795 0.59952 0.0
C4431 C 0.7254 0.35485 0.59119 0.0
C4432 C 0.71916 0.33975 0.58373 0.0
C4433 C 0.72734 0.32771 0.58461 0.0
C4434 C 0.74181 0.33075 0.59291 0.0
C4435 C 0.78881 0.3335 0.67021 0.0
C4436 C 0.78578 0.31713 0.6671 0.0
C4437 C 0.7869 0.34214 0.65831 0.0
C4438 C 0.78199 0.33461 0.64302 0.0
C4439 C 0.77868 0.31828 0.63996 0.0
C4440 C 0.78057 0.30965 0.65183 0.0
C4441 C 0.78023 0.34369 0.63021 0.0
C4442 C 0.76609 0.34077 0.62113 0.0
C4443 C 0.79227 0.35525 0.627 0.0
C4444 C 0.80782 0.3582 0.63536 0.0
C4445 C 0.81608 0.34602 0.63572 0.0
C4446 C 0.83072 0.34887 0.64363 0.0
C4447 C 0.83729 0.36388 0.65113 0.0
C4448 C 0.82923 0.37608 0.6507 0.0
C4449 C 0.81457 0.37329 0.64282 0.0
H4450 H 0.84863 0.36606 0.65723 0.0
H4451 H 0.70796 0.33736 0.5773 0.0
H4452 H 0.46197 0.00777 0.33751 0.0
H4453 H 0.48063 0.00684 0.35896 0.0
H4454 H 0.46961 0.04889 0.38422 0.0
H4455 H 0.45122 0.05003 0.36261 0.0
H4456 H 0.49964 0.04855 0.38872 0.0
H4457 H 0.45171 0.01286 0.38966 0.0
H4458 H 0.43086 0.9908 0.37898 0.0
H4459 H 0.46353 0.9601 0.3742 0.0
H4460 H 0.48461 0.98204 0.38466 0.0
H4461 H 0.50336 0.04386 0.46759 0.0
H4462 H 0.49634 0.04424 0.44035 0.0
H4463 H 0.51808 0.00478 0.42684 0.0
H4464 H 0.52525 0.00429 0.45426 0.0
H4465 H 0.4878 1.00164 0.41364 0.0
H4466 H 0.53489 0.038 0.41878 0.0
H4467 H 0.5542 0.06061 0.43152 0.0
H4468 H 0.5217 0.09075 0.42681 0.0
H4469 H 0.50211 0.0683 0.41424 0.0
C4470 C 0.4637 0.01688 0.3476 0.0
C4471 C 0.45509 0.02886 0.34862 0.0
C4472 C 0.47435 0.01636 0.35978 0.0
C4473 C 0.47627 0.02765 0.37323 0.0
C4474 C 0.46827 0.04008 0.3739 0.0
C4475 C 0.45776 0.04071 0.36163 0.0
C4476 C 0.48555 0.02585 0.38716 0.0
C4477 C 0.4971 0.0383 0.39418 0.0
C4478 C 0.48242 0.01229 0.39403 0.0
C4479 C 0.46975 0.99912 0.38772 0.0
C4480 C 0.45446 1.00143 0.3862 0.0
C4481 C 0.4426 0.98895 0.38021 0.0
C4482 C 0.44587 0.97407 0.37586 0.0
C4483 C 0.46101 0.97164 0.37753 0.0
C4484 C 0.47292 0.98409 0.38348 0.0
C4485 C 0.50669 0.03526 0.45885 0.0
C4486 C 0.51475 0.02396 0.46302 0.0
C4487 C 0.50281 0.03561 0.4433 0.0
C4488 C 0.50691 0.02468 0.43167 0.0
C4489 C 0.51499 0.01338 0.43573 0.0
C4490 C 0.51902 0.01311 0.45135 0.0
C4491 C 0.50158 0.0245 0.4154 0.0
C4492 C 0.49071 0.01169 0.40794 0.0
C4493 C 0.50517 0.03782 0.40829 0.0
C4494 C 0.517 0.05143 0.4156 0.0
C4495 C 0.53183 0.04944 0.42053 0.0
C4496 C 0.54283 0.06223 0.42771 0.0
C4497 C 0.53917 0.07711 0.42999 0.0
C4498 C 0.52452 0.07922 0.42503 0.0
C4499 C 0.51347 0.06647 0.41784 0.0
H4500 H 0.5477 0.08699 0.43558 0.0
H4501 H 0.43668 0.96442 0.37124 0.0
H4502 H 0.75833 0.71797 0.0825 0.0
H4503 H 0.75968 0.7279 0.11027 0.0
H4504 H 0.80863 0.74357 0.1108 0.0
H4505 H 0.80737 0.73335 0.08296 0.0
H4506 H 0.80301 0.731 0.13553 0.0
H4507 H 0.78227 0.76927 0.11226 0.0
H4508 H 0.76456 0.77918 0.09515 0.0
H4509 H 0.72639 0.76094 0.11918 0.0
H4510 H 0.74385 0.75073 0.13632 0.0
H4511 H 0.80794 0.77455 0.21234 0.0
H4512 H 0.80911 0.76724 0.18431 0.0
H4513 H 0.76016 0.74997 0.17888 0.0
H4514 H 0.75884 0.75775 0.20669 0.0
H4515 H 0.76746 0.76506 0.15646 0.0
H4516 H 0.78876 0.72557 0.17888 0.0
H4517 H 0.80704 0.71683 0.19642 0.0
H4518 H 0.8449 0.73866 0.17419 0.0
H4519 H 0.82683 0.74766 0.1566 0.0
C4520 C 0.76937 0.72369 0.08846 0.0
C4521 C 0.78272 0.72499 0.08041 0.0
C4522 C 0.77013 0.72938 0.1044 0.0
C4523 C 0.78422 0.73678 0.1127 0.0
C4524 C 0.79761 0.73796 0.10472 0.0
C4525 C 0.79687 0.73211 0.08878 0.0
C4526 C 0.78493 0.74311 0.12967 0.0
C4527 C 0.79538 0.73863 0.14006 0.0
C4528 C 0.77489 0.75295 0.13575 0.0
C4529 C 0.76436 0.75912 0.12549 0.0
C4530 C 0.77008 0.76728 0.11383 0.0
C4531 C 0.76009 0.77297 0.10414 0.0
C4532 C 0.74436 0.77066 0.10605 0.0
C4533 C 0.73858 0.7627 0.1177 0.0
C4534 C 0.74852 0.75698 0.12742 0.0
C4535 C 0.79743 0.76921 0.20517 0.0
C4536 C 0.7833 0.76671 0.21182 0.0
C4537 C 0.79812 0.76495 0.18911 0.0
C4538 C 0.78476 0.75778 0.1794 0.0
C4539 C 0.77065 0.75545 0.18604 0.0
C4540 C 0.76992 0.75989 0.20201 0.0
C4541 C 0.78531 0.7527 0.16233 0.0
C4542 C 0.77512 0.75746 0.15192 0.0
C4543 C 0.79564 0.74319 0.15625 0.0
C4544 C 0.80645 0.73739 0.16651 0.0
C4545 C 0.80098 0.72854 0.17776 0.0
C4546 C 0.81131 0.72354 0.18771 0.0
C4547 C 0.82712 0.72722 0.18645 0.0
C4548 C 0.83265 0.73583 0.17516 0.0
C4549 C 0.82237 0.74086 0.16518 0.0
H4550 H 0.8351 0.72339 0.19419 0.0
H4551 H 0.73664 0.77508 0.09853 0.0
H4552 H 0.12422 0.02928 0.67602 0.0
H4553 H 0.1121 0.03133 0.65084 0.0
H4554 H 0.07854 0.99033 0.65245 0.0
H4555 H 0.09068 0.98814 0.67771 0.0
H4556 H 0.0842 0.98868 0.62356 0.0
H4557 H 0.07173 0.0315 0.65854 0.0
H4558 H 0.07728 0.05536 0.67823 0.0
H4559 H 0.10534 0.07885 0.6475 0.0
H4560 H 0.1001 0.05507 0.62769 0.0
H4561 H 0.03622 0.99781 0.55735 0.0
H4562 H 0.04718 0.99517 0.58291 0.0
H4563 H 0.07691 0.03979 0.58611 0.0
H4564 H 0.06477 0.04299 0.56118 0.0
H4565 H 0.07297 0.03915 0.61291 0.0
H4566 H 0.08649 0.99642 0.5781 0.0
H4567 H 0.08031 0.97304 0.55779 0.0
H4568 H 0.05092 0.94958 0.58752 0.0
H4569 H 0.05682 0.97286 0.60796 0.0
C4570 C 0.11414 0.0207 0.6713 0.0
C4571 C 0.10863 0.00858 0.6796 0.0
C4572 C 0.10707 0.02193 0.65659 0.0
C4573 C 0.09391 0.01122 0.64929 0.0
C4574 C 0.08854 0.99893 0.65738 0.0
C4575 C 0.09565 0.99766 0.6721 0.0
C4576 C 0.08589 0.0128 0.63344 0.0
C4577 C 0.08167 0.99976 0.62142 0.0
C4578 C 0.08256 0.02715 0.62985 0.0
C4579 C 0.08563 0.04147 0.6417 0.0
C4580 C 0.07915 0.04173 0.65602 0.0
C4581 C 0.08223 0.05524 0.6672 0.0
C4582 C 0.09169 0.0686 0.66413 0.0
C4583 C 0.09804 0.06849 0.64986 0.0
C4584 C 0.095 0.05501 0.63865 0.0
C4585 C 0.04509 0.00711 0.56346 0.0
C4586 C 0.04949 0.02062 0.5568 0.0
C4587 C 0.05169 0.00549 0.57825 0.0
C4588 C 0.06364 0.01695 0.58692 0.0
C4589 C 0.06791 0.03052 0.5802 0.0
C4590 C 0.06091 0.03237 0.56567 0.0
C4591 C 0.07145 0.01508 0.60281 0.0
C4592 C 0.0756 0.02807 0.61492 0.0
C4593 C 0.07485 1.0007 0.6064 0.0
C4594 C 0.07199 0.98642 0.59449 0.0
C4595 C 0.07873 0.98625 0.58031 0.0
C4596 C 0.07525 0.97304 0.56876 0.0
C4597 C 0.06515 0.95987 0.57133 0.0
C4598 C 0.05869 0.95981 0.58553 0.0
C4599 C 0.06213 0.97299 0.59711 0.0
H4600 H 0.06236 0.9497 0.56232 0.0
H4601 H 0.09407 0.07905 0.6728 0.0
H4602 H 0.74517 0.36151 0.42152 0.0
H4603 H 0.74795 0.34405 0.39776 0.0
H4604 H 0.79277 0.37097 0.3945 0.0
H4605 H 0.78968 0.38902 0.41763 0.0
H4606 H 0.7792 0.36281 0.36685 0.0
H4607 H 0.78688 0.33497 0.40888 0.0
H4608 H 0.78029 0.3235 0.43215 0.0
H4609 H 0.73997 0.2946 0.4066 0.0
H4610 H 0.74623 0.30605 0.38323 0.0
H4611 H 0.80643 0.30959 0.31269 0.0
H4612 H 0.8037 0.32457 0.33801 0.0
H4613 H 0.75782 0.29837 0.33776 0.0
H4614 H 0.76089 0.28272 0.31279 0.0
H4615 H 0.77129 0.30591 0.36685 0.0
H4616 H 0.76563 0.33328 0.32384 0.0
H4617 H 0.77559 0.34221 0.30038 0.0
H4618 H 0.81416 0.37185 0.32818 0.0
H4619 H 0.80478 0.36261 0.35174 0.0
C4620 C 0.75553 0.36391 0.41565 0.0
C4621 C 0.76725 0.3767 0.42173 0.0
C4622 C 0.7572 0.35374 0.40211 0.0
C4623 C 0.77073 0.35591 0.39441 0.0
C4624 C 0.78225 0.36889 0.40021 0.0
C4625 C 0.78053 0.37915 0.41363 0.0
C4626 C 0.773 0.34466 0.38044 0.0
C4627 C 0.77758 0.35039 0.36695 0.0
C4628 C 0.77073 0.32837 0.38032 0.0
C4629 C 0.76694 0.32149 0.39436 0.0
C4630 C 0.77655 0.32626 0.40826 0.0
C4631 C 0.77288 0.31974 0.42146 0.0
C4632 C 0.75969 0.30836 0.42087 0.0
C4633 C 0.75016 0.30344 0.40706 0.0
C4634 C 0.75377 0.30993 0.39383 0.0
C4635 C 0.7959 0.30679 0.31822 0.0
C4636 C 0.78384 0.29506 0.31074 0.0
C4637 C 0.79431 0.31542 0.33266 0.0
C4638 C 0.78036 0.31297 0.33962 0.0
C4639 C 0.76865 0.30059 0.33261 0.0
C4640 C 0.77041 0.29164 0.31833 0.0
C4641 C 0.77756 0.32408 0.35341 0.0
C4642 C 0.77282 0.31833 0.36678 0.0
C4643 C 0.7798 0.34036 0.35346 0.0
C4644 C 0.78457 0.34713 0.33956 0.0
C4645 C 0.77626 0.34168 0.32496 0.0
C4646 C 0.78189 0.34667 0.31162 0.0
C4647 C 0.79558 0.35747 0.31278 0.0
C4648 C 0.8036 0.36341 0.32729 0.0
C4649 C 0.79815 0.35827 0.34065 0.0
H4650 H 0.79987 0.36138 0.30244 0.0
H4651 H 0.75688 0.30332 0.4311 0.0
H4652 H 0.41779 0.98533 0.19703 0.0
H4653 H 0.42957 0.98089 0.1726 0.0
H4654 H 0.47466 0.99367 0.19741 0.0
H4655 H 0.46294 0.99796 0.22199 0.0
H4656 H 0.47005 0.01196 0.17601 0.0
H4657 H 0.46346 0.95769 0.17809 0.0
H4658 H 0.44922 0.93198 0.18115 0.0
H4659 H 0.41866 0.93148 0.14105 0.0
H4660 H 0.43256 0.95731 0.13787 0.0
H4661 H 0.50674 0.98826 0.10423 0.0
H4662 H 0.49243 0.97862 0.12496 0.0
H4663 H 0.46156 0.01078 0.12074 0.0
H4664 H 0.47588 0.02055 0.10009 0.0
H4665 H 0.46089 0.96776 0.13199 0.0
H4666 H 0.46363 0.03203 0.15604 0.0
H4667 H 0.47785 0.05764 0.15251 0.0
H4668 H 0.51738 0.03738 0.14145 0.0
H4669 H 0.50349 0.01174 0.14519 0.0
C4670 C 0.4302 0.98667 0.19735 0.0
C4671 C 0.43948 0.99218 0.21136 0.0
C4672 C 0.4369 0.98411 0.18338 0.0
C4673 C 0.45295 0.98698 0.18327 0.0
C4674 C 0.46223 0.99143 0.19734 0.0
C4675 C 0.45554 0.99397 0.21131 0.0
C4676 C 0.45991 0.98778 0.16847 0.0
C4677 C 0.46817 1.00223 0.16647 0.0
C4678 C 0.45732 0.9751 0.15603 0.0
C4679 C 0.449 0.9595 0.15781 0.0
C4680 C 0.45363 0.95216 0.16998 0.0
C4681 C 0.44563 0.93755 0.17173 0.0
C4682 C 0.43303 0.93011 0.16132 0.0
C4683 C 0.42842 0.93725 0.14911 0.0
C4684 C 0.43637 0.95187 0.14732 0.0
C4685 C 0.4966 0.9929 0.1074 0.0
C4686 C 0.49256 0.00537 0.1009 0.0
C4687 C 0.4884 0.98732 0.11913 0.0
C4688 C 0.47613 0.99417 0.12442 0.0
C4689 C 0.4711 0.00547 0.11681 0.0
C4690 C 0.47935 0.01114 0.10519 0.0
C4691 C 0.47076 0.99194 0.13964 0.0
C4692 C 0.46283 0.97736 0.14166 0.0
C4693 C 0.47373 0.00444 0.15224 0.0
C4694 C 0.48248 0.01997 0.15078 0.0
C4695 C 0.4754 0.03309 0.15299 0.0
C4696 C 0.4834 0.0476 0.15093 0.0
C4697 C 0.4985 0.04913 0.14672 0.0
C4698 C 0.50568 0.03618 0.14468 0.0
C4699 C 0.49775 0.02166 0.14678 0.0
H4700 H 0.50464 0.06036 0.14506 0.0
H4701 H 0.42685 0.9188 0.16269 0.0
H4702 H 0.79341 0.70096 0.91249 0.0
H4703 H 0.79401 0.70952 0.88723 0.0
H4704 H 0.76164 0.73936 0.90062 0.0
H4705 H 0.76061 0.73036 0.92572 0.0
H4706 H 0.75397 0.72697 0.87247 0.0
H4707 H 0.8021 0.75298 0.89919 0.0
H4708 H 0.82722 0.75576 0.91406 0.0
H4709 H 0.84266 0.7264 0.87666 0.0
H4710 H 0.81754 0.72327 0.86164 0.0
H4711 H 0.77068 0.77714 0.81631 0.0
H4712 H 0.7703 0.76699 0.84079 0.0
H4713 H 0.78818 0.72731 0.81943 0.0
H4714 H 0.78825 0.73722 0.79464 0.0
H4715 H 0.80336 0.74432 0.85084 0.0
H4716 H 0.75382 0.71991 0.8241 0.0
H4717 H 0.72908 0.72014 0.80978 0.0
H4718 H 0.7168 0.75023 0.84861 0.0
H4719 H 0.74161 0.75039 0.86308 0.0
C4720 C 0.7865 0.70943 0.9101 0.0
C4721 C 0.77703 0.71504 0.92119 0.0
C4722 C 0.78688 0.71438 0.89562 0.0
C4723 C 0.77809 0.72536 0.89197 0.0
C4724 C 0.76855 0.7309 0.90304 0.0
C4725 C 0.76797 0.72575 0.91743 0.0
C4726 C 0.77869 0.73092 0.8766 0.0
C4727 C 0.76481 0.73091 0.8679 0.0
C4728 C 0.79278 0.73595 0.87034 0.0
C4729 C 0.80788 0.73775 0.87936 0.0
C4730 C 0.8108 0.74701 0.89419 0.0
C4731 C 0.82505 0.74867 0.90264 0.0
C4732 C 0.83651 0.74122 0.89633 0.0
C4733 C 0.83376 0.73214 0.88154 0.0
C4734 C 0.81953 0.73042 0.87305 0.0
C4735 C 0.77457 0.76626 0.81678 0.0
C4736 C 0.77951 0.758 0.80349 0.0
C4737 C 0.77431 0.76046 0.8308 0.0
C4738 C 0.7792 0.74639 0.83195 0.0
C4739 C 0.78438 0.73821 0.8188 0.0
C4740 C 0.78435 0.74385 0.80464 0.0
C4741 C 0.77871 0.74026 0.84689 0.0
C4742 C 0.79258 0.74025 0.85548 0.0
C4743 C 0.76465 0.73555 0.85321 0.0
C4744 C 0.74964 0.73528 0.84462 0.0
C4745 C 0.7459 0.72668 0.82954 0.0
C4746 C 0.73186 0.72672 0.8214 0.0
C4747 C 0.72139 0.73522 0.82827 0.0
C4748 C 0.72493 0.74366 0.84331 0.0
C4749 C 0.73898 0.74368 0.85149 0.0
H4750 H 0.71052 0.73525 0.82195 0.0
H4751 H 0.84753 0.74253 0.90289 0.0
H4752 H 0.86367 0.06839 0.99561 0.0
H4753 H 0.88792 0.05906 0.99263 0.0
H4754 H 0.9104 0.09558 0.02939 0.0
H4755 H 0.88625 0.10525 0.03217 0.0
H4756 H 0.92899 0.09243 0.00636 0.0
H4757 H 0.89989 0.05733 0.03518 0.0
H4758 H 0.87739 0.0388 0.04042 0.0
H4759 H 0.88137 0.00811 0.99833 0.0
H4760 H 0.90379 0.02656 0.99273 0.0
H4761 H 0.99644 0.06347 0.02186 0.0
H4762 H 0.97185 0.07195 0.02326 0.0
H4763 H 0.9511 0.03324 0.98786 0.0
H4764 H 0.97581 0.02415 0.98696 0.0
H4765 H 0.93151 0.03731 0.0091 0.0
H4766 H 0.95943 0.07291 0.97945 0.0
H4767 H 0.98329 0.0901 0.97507 0.0
H4768 H 0.98222 0.11874 0.01922 0.0
H4769 H 0.95825 0.1018 0.02377 0.0
C4770 C 0.87376 0.07457 0.00301 0.0
C4771 C 0.8728 0.08761 0.0142 0.0
C4772 C 0.88768 0.06909 1.00138 0.0
C4773 C 0.90113 0.07643 0.01089 0.0
C4774 C 0.90028 0.0896 0.0219 0.0
C4775 C 0.88634 0.09505 0.02359 0.0
C4776 C 0.91598 0.07032 0.00946 0.0
C4777 C 0.92948 0.0804 0.00711 0.0
C4778 C 0.91685 0.05454 0.01009 0.0
C4779 C 0.90342 0.0434 0.01345 0.0
C4780 C 0.8959 0.04668 0.02698 0.0
C4781 C 0.88317 0.03619 0.03003 0.0
C4782 C 0.87793 0.02231 0.01969 0.0
C4783 C 0.88543 0.01888 0.00631 0.0
C4784 C 0.89815 0.02934 0.0032 0.0
C4785 C 0.98675 0.05677 0.0142 0.0
C4786 C 0.98833 0.04319 0.0041 0.0
C4787 C 0.97257 0.06172 0.01498 0.0
C4788 C 0.95949 0.05357 0.00538 0.0
C4789 C 0.96094 0.0399 0.99534 0.0
C4790 C 0.97515 0.03474 0.99475 0.0
C4791 C 0.94443 0.05939 0.00598 0.0
C4792 C 0.93093 0.04929 0.0082 0.0
C4793 C 0.94352 0.07512 0.00519 0.0
C4794 C 0.95709 0.08611 0.00194 0.0
C4795 C 0.96424 0.08295 0.98816 0.0
C4796 C 0.97779 0.0926 0.98567 0.0
C4797 C 0.98431 0.10543 0.99689 0.0
C4798 C 0.9772 0.10874 0.01057 0.0
C4799 C 0.96354 0.09921 0.01304 0.0
H4800 H 0.99477 0.11287 0.99489 0.0
H4801 H 0.86807 0.01419 0.02207 0.0
H4802 H 0.36448 0.44782 0.03659 0.0
H4803 H 0.38987 0.46368 0.03604 0.0
H4804 H 0.40876 0.42205 0.02395 0.0
H4805 H 0.38342 0.40614 0.02504 0.0
H4806 H 0.4289 0.44169 0.04272 0.0
H4807 H 0.39963 0.44519 0.99647 0.0
H4808 H 0.37766 0.44971 0.98026 0.0
H4809 H 0.385 0.49732 0.00297 0.0
H4810 H 0.40689 0.49302 0.01948 0.0
H4811 H 0.49463 0.47798 0.00968 0.0
H4812 H 0.46986 0.46259 0.0133 0.0
H4813 H 0.45551 0.50396 0.03587 0.0
H4814 H 0.48046 0.51952 0.03237 0.0
H4815 H 0.43353 0.48473 0.01201 0.0
H4816 H 0.46317 0.47928 0.05886 0.0
H4817 H 0.48676 0.47413 0.07191 0.0
H4818 H 0.4802 0.42894 0.0437 0.0
H4819 H 0.45637 0.4337 0.03062 0.0
C4820 C 0.37406 0.44206 0.03385 0.0
C4821 C 0.37192 0.42573 0.03076 0.0
C4822 C 0.38859 0.45114 0.03348 0.0
C4823 C 0.40127 0.44413 0.02961 0.0
C4824 C 0.39922 0.4278 0.02693 0.0
C4825 C 0.38472 0.41869 0.02755 0.0
C4826 C 0.41653 0.45384 0.0281 0.0
C4827 C 0.42985 0.45098 0.03587 0.0
C4828 C 0.41797 0.46609 0.01922 0.0
C4829 C 0.4048 0.46874 0.00933 0.0
C4830 C 0.39648 0.45659 0.9981 0.0
C4831 C 0.38406 0.45912 0.98884 0.0
C4832 C 0.37991 0.47378 0.99062 0.0
C4833 C 0.38821 0.48596 1.00163 0.0
C4834 C 0.40063 0.48349 0.01093 0.0
C4835 C 0.48628 0.48384 0.01548 0.0
C4836 C 0.48958 0.5 0.02074 0.0
C4837 C 0.47211 0.475 0.01759 0.0
C4838 C 0.46085 0.48211 0.02491 0.0
C4839 C 0.46406 0.49824 0.0302 0.0
C4840 C 0.47835 0.50709 0.02827 0.0
C4841 C 0.44566 0.47266 0.02677 0.0
C4842 C 0.43243 0.47551 0.01896 0.0
C4843 C 0.44435 0.46021 0.03528 0.0
C4844 C 0.45802 0.45684 0.04379 0.0
C4845 C 0.4667 0.46819 0.05553 0.0
C4846 C 0.48008 0.46533 0.06294 0.0
C4847 C 0.48491 0.45117 0.05867 0.0
C4848 C 0.47631 0.4398 0.04708 0.0
C4849 C 0.46283 0.44254 0.03972 0.0
H4850 H 0.49535 0.44902 0.06432 0.0
H4851 H 0.37029 0.47572 0.98343 0.0
H4852 H 0.36985 0.62716 0.73702 0.0
H4853 H 0.35738 0.64975 0.73775 0.0
H4854 H 0.34365 0.6445 0.78328 0.0
H4855 H 0.3556 0.62149 0.78242 0.0
H4856 H 0.321 0.65387 0.77006 0.0
H4857 H 0.37521 0.67575 0.77264 0.0
H4858 H 0.40123 0.6787 0.7635 0.0
H4859 H 0.38362 0.68939 0.72043 0.0
H4860 H 0.35748 0.68636 0.72926 0.0
H4861 H 0.29335 0.72684 0.78372 0.0
H4862 H 0.30606 0.70443 0.78393 0.0
H4863 H 0.32858 0.7149 0.74343 0.0
H4864 H 0.31696 0.73817 0.74427 0.0
H4865 H 0.34698 0.70245 0.75424 0.0
H4866 H 0.29315 0.67943 0.74955 0.0
H4867 H 0.26644 0.67538 0.75689 0.0
H4868 H 0.28194 0.66552 0.80112 0.0
H4869 H 0.30874 0.66962 0.79407 0.0
C4870 C 0.36416 0.63053 0.74728 0.0
C4871 C 0.36418 0.62179 0.75967 0.0
C4872 C 0.35704 0.64394 0.74778 0.0
C4873 C 0.34947 0.64972 0.76074 0.0
C4874 C 0.34927 0.64091 0.77302 0.0
C4875 C 0.35641 0.62749 0.77255 0.0
C4876 C 0.34176 0.66454 0.76148 0.0
C4877 C 0.32691 0.6645 0.76673 0.0
C4878 C 0.34868 0.67878 0.75681 0.0
C4879 C 0.36438 0.6807 0.75156 0.0
C4880 C 0.37689 0.67866 0.76119 0.0
C4881 C 0.39165 0.68035 0.75607 0.0
C4882 C 0.39407 0.68419 0.74138 0.0
C4883 C 0.38173 0.6864 0.7318 0.0
C4884 C 0.36694 0.68471 0.73686 0.0
C4885 C 0.30103 0.72447 0.77483 0.0
C4886 C 0.30388 0.73481 0.764 0.0
C4887 C 0.30829 0.71116 0.77474 0.0
C4888 C 0.31832 0.70679 0.76332 0.0
C4889 C 0.32113 0.71726 0.75254 0.0
C4890 C 0.3143 0.73086 0.75297 0.0
C4891 C 0.326 0.69186 0.76269 0.0
C4892 C 0.34093 0.69187 0.7575 0.0
C4893 C 0.319 0.67746 0.7671 0.0
C4894 C 0.30294 0.67499 0.77135 0.0
C4895 C 0.29085 0.67646 0.76086 0.0
C4896 C 0.2757 0.67415 0.76497 0.0
C4897 C 0.2725 0.67024 0.77948 0.0
C4898 C 0.28443 0.66857 0.78989 0.0
C4899 C 0.2996 0.67087 0.78585 0.0
H4900 H 0.26077 0.66847 0.78264 0.0
H4901 H 0.40551 0.68549 0.73743 0.0
H4902 H 0.21147 0.58393 0.54034 0.0
H4903 H 0.18355 0.57536 0.53867 0.0
H4904 H 0.18144 0.57232 0.48889 0.0
H4905 H 0.20937 0.5811 0.4905 0.0
H4906 H 0.15854 0.5862 0.50077 0.0
H4907 H 0.17774 0.53961 0.50524 0.0
H4908 H 0.19351 0.52317 0.51678 0.0
H4909 H 0.17167 0.53017 0.55923 0.0
H4910 H 0.15591 0.54685 0.54801 0.0
H4911 H 0.08104 0.54475 0.48546 0.0
H4912 H 0.10894 0.55295 0.48616 0.0
H4913 H 0.11305 0.5532 0.53559 0.0
H4914 H 0.08524 0.54466 0.53492 0.0
H4915 H 0.13506 0.54048 0.52328 0.0
H4916 H 0.11632 0.58762 0.51915 0.0
H4917 H 0.10022 0.60372 0.50752 0.0
H4918 H 0.12097 0.5956 0.46454 0.0
H4919 H 0.1371 0.57931 0.47588 0.0
C4920 C 0.20509 0.58149 0.52902 0.0
C4921 C 0.2128 0.58319 0.51556 0.0
C4922 C 0.18908 0.57647 0.52807 0.0
C4923 C 0.18026 0.57303 0.51363 0.0
C4924 C 0.18789 0.57483 0.50018 0.0
C4925 C 0.20394 0.57973 0.50111 0.0
C4926 C 0.16313 0.56765 0.5126 0.0
C4927 C 0.15343 0.57608 0.50552 0.0
C4928 C 0.15631 0.55463 0.51904 0.0
C4929 C 0.16576 0.54461 0.52583 0.0
C4930 C 0.17639 0.53775 0.51708 0.0
C4931 C 0.18531 0.52837 0.52356 0.0
C4932 C 0.18362 0.52566 0.53874 0.0
C4933 C 0.17298 0.5323 0.54747 0.0
C4934 C 0.16404 0.54171 0.54106 0.0
C4935 C 0.08784 0.5466 0.49651 0.0
C4936 C 0.08075 0.54405 0.51014 0.0
C4937 C 0.10387 0.55138 0.49691 0.0
C4938 C 0.11326 0.55392 0.51098 0.0
C4939 C 0.10619 0.55135 0.52457 0.0
C4940 C 0.09019 0.54651 0.52417 0.0
C4941 C 0.13042 0.55909 0.51155 0.0
C4942 C 0.14014 0.55062 0.51854 0.0
C4943 C 0.13726 0.57209 0.50506 0.0
C4944 C 0.12782 0.58214 0.49832 0.0
C4945 C 0.1174 0.58922 0.5072 0.0
C4946 C 0.10828 0.59838 0.50066 0.0
C4947 C 0.10954 0.60065 0.48529 0.0
C4948 C 0.12 0.59382 0.47645 0.0
C4949 C 0.12915 0.58464 0.48293 0.0
H4950 H 0.10244 0.60772 0.48024 0.0
H4951 H 0.19053 0.51839 0.54373 0.0
H4952 H 0.68794 0.94546 0.73611 0.0
H4953 H 0.70408 0.92684 0.74182 0.0
H4954 H 0.72149 0.9563 0.78552 0.0
H4955 H 0.70552 0.97505 0.7798 0.0
H4956 H 0.7444 0.94682 0.76787 0.0
H4957 H 0.69715 0.92426 0.78628 0.0
H4958 H 0.66922 0.91431 0.78443 0.0
H4959 H 0.67353 0.87918 0.74599 0.0
H4960 H 0.70146 0.88907 0.74747 0.0
H4961 H 0.78393 0.89177 0.79611 0.0
H4962 H 0.76745 0.9108 0.79312 0.0
H4963 H 0.74406 0.88128 0.7516 0.0
H4964 H 0.75985 0.86188 0.75495 0.0
H4965 H 0.724 0.89136 0.76982 0.0
H4966 H 0.77053 0.91441 0.75008 0.0
H4967 H 0.79835 0.92453 0.75089 0.0
H4968 H 0.79538 0.95876 0.79061 0.0
H4969 H 0.76756 0.9487 0.79016 0.0
C4970 C 0.69515 0.94788 0.74696 0.0
C4971 C 0.69548 0.9616 0.75755 0.0
C4972 C 0.70428 0.93725 0.75024 0.0
C4973 C 0.71386 0.94023 0.76412 0.0
C4974 C 0.71411 0.95384 0.77478 0.0
C4975 C 0.70491 0.96443 0.77156 0.0
C4976 C 0.72405 0.92936 0.76721 0.0
C4977 C 0.73998 0.93474 0.76857 0.0
C4978 C 0.71817 0.91358 0.76771 0.0
C4979 C 0.70139 0.90748 0.76691 0.0
C4980 C 0.69213 0.91448 0.77736 0.0
C4981 C 0.6763 0.90884 0.77639 0.0
C4982 C 0.6696 0.89614 0.76508 0.0
C4983 C 0.67873 0.88902 0.75474 0.0
C4984 C 0.69457 0.89463 0.75565 0.0
C4985 C 0.77526 0.88934 0.78636 0.0
C4986 C 0.77325 0.87536 0.77573 0.0
C4987 C 0.76596 0.90027 0.78459 0.0
C4988 C 0.75464 0.89748 0.77207 0.0
C4989 C 0.75275 0.88365 0.76133 0.0
C4990 C 0.76194 0.87267 0.76316 0.0
C4991 C 0.74443 0.90874 0.77031 0.0
C4992 C 0.72846 0.90345 0.76922 0.0
C4993 C 0.75028 0.92458 0.76993 0.0
C4994 C 0.767 0.93069 0.77019 0.0
C4995 C 0.77583 0.92401 0.75906 0.0
C4996 C 0.7916 0.92976 0.75944 0.0
C4997 C 0.79864 0.94225 0.77082 0.0
C4998 C 0.78992 0.94907 0.78182 0.0
C4999 C 0.77415 0.94336 0.7815 0.0
H5000 H 0.81085 0.94668 0.7711 0.0
H5001 H 0.65734 0.89179 0.76434 0.0
H5002 H 0.73422 0.93839 0.51694 0.0
H5003 H 0.7122 0.95136 0.51494 0.0
H5004 H 0.68309 0.91263 0.52922 0.0
H5005 H 0.70495 0.89923 0.53058 0.0
H5006 H 0.66872 0.92198 0.50578 0.0
H5007 H 0.69608 0.94737 0.55449 0.0
H5008 H 0.71877 0.96131 0.57188 0.0
H5009 H 0.72327 0.99877 0.54559 0.0
H5010 H 0.70072 0.98496 0.52793 0.0
H5011 H 0.60592 0.96212 0.51703 0.0
H5012 H 0.6268 0.94806 0.52158 0.0
H5013 H 0.65944 0.98544 0.50929 0.0
H5014 H 0.63883 0.99986 0.50554 0.0
H5015 H 0.67135 0.97595 0.5331 0.0
H5016 H 0.64505 0.95026 0.48366 0.0
H5017 H 0.62258 0.93642 0.4659 0.0
H5018 H 0.6163 0.8997 0.49309 0.0
H5019 H 0.63862 0.91343 0.51113 0.0
C5020 C 0.72312 0.93252 0.51952 0.0
C5021 C 0.72144 0.91773 0.52396 0.0
C5022 C 0.71054 0.94006 0.51854 0.0
C5023 C 0.69598 0.93311 0.52215 0.0
C5024 C 0.69421 0.91829 0.52645 0.0
C5025 C 0.70679 0.9107 0.52738 0.0
C5026 C 0.68262 0.94126 0.52132 0.0
C5027 C 0.66921 0.9337 0.51195 0.0
C5028 C 0.68331 0.95667 0.52912 0.0
C5029 C 0.69678 0.96507 0.53982 0.0
C5030 C 0.70197 0.95854 0.55237 0.0
C5031 C 0.7148 0.96642 0.56228 0.0
C5032 C 0.72248 0.9809 0.55982 0.0
C5033 C 0.71732 0.98755 0.54748 0.0
C5034 C 0.7045 0.97971 0.53752 0.0
C5035 C 0.61756 0.96745 0.5155 0.0
C5036 C 0.62061 0.98209 0.51076 0.0
C5037 C 0.6295 0.9593 0.51793 0.0
C5038 C 0.64472 0.96553 0.51551 0.0
C5039 C 0.64781 0.9803 0.51116 0.0
C5040 C 0.63594 0.98848 0.50884 0.0
C5041 C 0.65749 0.95676 0.5174 0.0
C5042 C 0.67081 0.96421 0.52699 0.0
C5043 C 0.65673 0.94127 0.50975 0.0
C5044 C 0.6434 0.93295 0.49884 0.0
C5045 C 0.63881 0.93928 0.48591 0.0
C5046 C 0.62612 0.93146 0.47578 0.0
C5047 C 0.61799 0.91722 0.47839 0.0
C5048 C 0.62259 0.91075 0.4911 0.0
C5049 C 0.63527 0.91854 0.50127 0.0
H5050 H 0.60816 0.91118 0.47054 0.0
H5051 H 0.73241 0.98698 0.5675 0.0
H5052 H 0.33868 0.45925 0.75981 0.0
H5053 H 0.32694 0.43236 0.76046 0.0
H5054 H 0.36915 0.4175 0.74876 0.0
H5055 H 0.38122 0.44439 0.74853 0.0
H5056 H 0.34607 0.39643 0.7329 0.0
H5057 H 0.35567 0.41928 0.78668 0.0
H5058 H 0.35443 0.43829 0.81016 0.0
H5059 H 0.3051 0.42651 0.80527 0.0
H5060 H 0.30604 0.40756 0.78162 0.0
H5061 H 0.32496 0.3185 0.74996 0.0
H5062 H 0.33719 0.34546 0.7492 0.0
H5063 H 0.29595 0.36123 0.76317 0.0
H5064 H 0.28377 0.33436 0.76407 0.0
H5065 H 0.31867 0.38183 0.77779 0.0
H5066 H 0.30865 0.35925 0.72421 0.0
H5067 H 0.30939 0.34014 0.70066 0.0
H5068 H 0.35874 0.35139 0.70483 0.0
H5069 H 0.3583 0.37043 0.72854 0.0
C5070 C 0.34575 0.45049 0.75757 0.0
C5071 C 0.36125 0.45474 0.75416 0.0
C5072 C 0.33884 0.43479 0.7579 0.0
C5073 C 0.34697 0.42237 0.75481 0.0
C5074 C 0.36232 0.42648 0.75118 0.0
C5075 C 0.3693 0.44219 0.75098 0.0
C5076 C 0.33958 0.40533 0.7554 0.0
C5077 C 0.34029 0.39333 0.74287 0.0
C5078 C 0.33154 0.40075 0.7681 0.0
C5079 C 0.33092 0.41213 0.78228 0.0
C5080 C 0.34455 0.42083 0.79054 0.0
C5081 C 0.34391 0.43158 0.80389 0.0
C5082 C 0.3297 0.43363 0.80918 0.0
C5083 C 0.3161 0.42492 0.80114 0.0
C5084 C 0.31668 0.41417 0.78776 0.0
C5085 C 0.3184 0.32764 0.75285 0.0
C5086 C 0.30317 0.32383 0.75702 0.0
C5087 C 0.32546 0.34327 0.75232 0.0
C5088 C 0.31765 0.3559 0.75592 0.0
C5089 C 0.30251 0.35209 0.76028 0.0
C5090 C 0.29543 0.33648 0.76073 0.0
C5091 C 0.32514 0.37291 0.75529 0.0
C5092 C 0.32445 0.38491 0.76781 0.0
C5093 C 0.33312 0.3775 0.74255 0.0
C5094 C 0.33345 0.36615 0.72825 0.0
C5095 C 0.31966 0.35757 0.72017 0.0
C5096 C 0.32002 0.34676 0.70678 0.0
C5097 C 0.3341 0.34452 0.70128 0.0
C5098 C 0.34784 0.35312 0.70912 0.0
C5099 C 0.34755 0.36393 0.72253 0.0
H5100 H 0.33436 0.33614 0.69092 0.0
H5101 H 0.32922 0.44195 0.81952 0.0
H5102 H 0.19259 0.61694 0.24992 0.0
H5103 H 0.20749 0.6428 0.24954 0.0
H5104 H 0.24935 0.62678 0.26105 0.0
H5105 H 0.23446 0.60079 0.26161 0.0
H5106 H 0.24627 0.6578 0.27737 0.0
H5107 H 0.24193 0.62734 0.22538 0.0
H5108 H 0.22697 0.6105 0.20245 0.0
H5109 H 0.20075 0.64608 0.19676 0.0
H5110 H 0.21542 0.66305 0.2198 0.0
H5111 H 0.29384 0.72404 0.26105 0.0
H5112 H 0.28337 0.69643 0.26032 0.0
H5113 H 0.24157 0.70184 0.23541 0.0
H5114 H 0.25257 0.72906 0.23509 0.0
H5115 H 0.24612 0.67495 0.22591 0.0
H5116 H 0.24696 0.70472 0.27695 0.0
H5117 H 0.25914 0.72257 0.3006 0.0
H5118 H 0.28811 0.69015 0.30954 0.0
H5119 H 0.27625 0.67219 0.28578 0.0
C5120 C 0.20493 0.619 0.25268 0.0
C5121 C 0.21241 0.60689 0.25575 0.0
C5122 C 0.2134 0.63372 0.25238 0.0
C5123 C 0.22946 0.63655 0.25513 0.0
C5124 C 0.23694 0.62471 0.25888 0.0
C5125 C 0.22847 0.60992 0.25908 0.0
C5126 C 0.23845 0.65159 0.25308 0.0
C5127 C 0.24649 0.66153 0.26611 0.0
C5128 C 0.23825 0.65647 0.23845 0.0
C5129 C 0.22971 0.64642 0.22436 0.0
C5130 C 0.23292 0.63154 0.21928 0.0
C5131 C 0.2245 0.62197 0.20626 0.0
C5132 C 0.2129 0.62721 0.19816 0.0
C5133 C 0.20974 0.64204 0.20304 0.0
C5134 C 0.21812 0.65165 0.21606 0.0
C5135 C 0.2826 0.71912 0.25506 0.0
C5136 C 0.27393 0.72848 0.24814 0.0
C5137 C 0.27656 0.70346 0.25479 0.0
C5138 C 0.26149 0.6972 0.24827 0.0
C5139 C 0.2532 0.70641 0.24057 0.0
C5140 C 0.25947 0.72193 0.24036 0.0
C5141 C 0.25393 0.68144 0.25026 0.0
C5142 C 0.24611 0.67129 0.23719 0.0
C5143 C 0.25395 0.67658 0.26499 0.0
C5144 C 0.26082 0.68718 0.2795 0.0
C5145 C 0.25596 0.70142 0.28393 0.0
C5146 C 0.26282 0.71156 0.29735 0.0
C5147 C 0.27442 0.70751 0.30655 0.0
C5148 C 0.27914 0.69328 0.30238 0.0
C5149 C 0.27235 0.68311 0.28895 0.0
H5150 H 0.27975 0.71539 0.3169 0.0
H5151 H 0.20638 0.61978 0.1881 0.0
H5152 H 0.48338 0.71402 0.45371 0.0
H5153 H 0.48426 0.69426 0.47037 0.0
H5154 H 0.52565 0.68377 0.45083 0.0
H5155 H 0.52446 0.70291 0.43378 0.0
H5156 H 0.50773 0.658 0.45526 0.0
H5157 H 0.52643 0.70991 0.48509 0.0
H5158 H 0.52372 0.73659 0.49615 0.0
H5159 H 0.48573 0.71841 0.52045 0.0
H5160 H 0.48812 0.69161 0.50938 0.0
H5161 H 0.55537 0.63396 0.50695 0.0
H5162 H 0.54448 0.65185 0.49313 0.0
H5163 H 0.50409 0.6459 0.5184 0.0
H5164 H 0.51519 0.62821 0.53289 0.0
H5165 H 0.51466 0.67729 0.5121 0.0
H5166 H 0.50204 0.62457 0.48621 0.0
H5167 H 0.50745 0.5988 0.47561 0.0
H5168 H 0.53625 0.61914 0.4435 0.0
H5169 H 0.53137 0.64512 0.4542 0.0
C5170 C 0.49244 0.70722 0.45274 0.0
C5171 C 0.50397 0.71012 0.44261 0.0
C5172 C 0.493 0.69605 0.46234 0.0
C5173 C 0.50516 0.68775 0.462 0.0
C5174 C 0.51619 0.69008 0.45131 0.0
C5175 C 0.51559 0.70113 0.44169 0.0
C5176 C 0.50721 0.67735 0.47335 0.0
C5177 C 0.5092 0.66218 0.46769 0.0
C5178 C 0.50871 0.68272 0.48959 0.0
C5179 C 0.50733 0.6988 0.49627 0.0
C5180 C 0.51743 0.71162 0.49271 0.0
C5181 C 0.51597 0.72676 0.49899 0.0
C5182 C 0.50452 0.7292 0.50896 0.0
C5183 C 0.49456 0.71651 0.5127 0.0
C5184 C 0.49597 0.70134 0.50644 0.0
C5185 C 0.54445 0.63685 0.5101 0.0
C5186 C 0.53612 0.62955 0.52101 0.0
C5187 C 0.53816 0.64697 0.50202 0.0
C5188 C 0.52338 0.64987 0.50455 0.0
C5189 C 0.51548 0.64364 0.51625 0.0
C5190 C 0.5218 0.6335 0.52443 0.0
C5191 C 0.51589 0.65827 0.49392 0.0
C5192 C 0.51279 0.67296 0.49971 0.0
C5193 C 0.51361 0.65256 0.47775 0.0
C5194 C 0.51636 0.63685 0.47108 0.0
C5195 C 0.50963 0.6236 0.47698 0.0
C5196 C 0.51262 0.60894 0.47096 0.0
C5197 C 0.52218 0.60733 0.45889 0.0
C5198 C 0.52881 0.6204 0.45284 0.0
C5199 C 0.52594 0.6351 0.45888 0.0
H5200 H 0.52445 0.59597 0.45421 0.0
H5201 H 0.50341 0.74093 0.51381 0.0
H5202 H 0.63226 0.29566 0.67489 0.0
H5203 H 0.65593 0.29723 0.69155 0.0
H5204 H 0.6382 0.2524 0.70346 0.0
H5205 H 0.61464 0.25059 0.68642 0.0
H5206 H 0.65477 0.28109 0.72943 0.0
H5207 H 0.65912 0.24724 0.68093 0.0
H5208 H 0.65739 0.24063 0.65235 0.0
H5209 H 0.69024 0.28195 0.65039 0.0
H5210 H 0.69193 0.28894 0.67897 0.0
H5211 H 0.72587 0.26359 0.75871 0.0
H5212 H 0.70002 0.26298 0.74687 0.0
H5213 H 0.71866 0.29676 0.71897 0.0
H5214 H 0.74447 0.29725 0.73048 0.0
H5215 H 0.70065 0.27264 0.70157 0.0
H5216 H 0.69774 0.30651 0.74913 0.0
H5217 H 0.69955 0.31478 0.77752 0.0
H5218 H 0.66458 0.27577 0.78151 0.0
H5219 H 0.66271 0.26713 0.75313 0.0
C5220 C 0.63338 0.28627 0.68125 0.0
C5221 C 0.62181 0.273 0.67946 0.0
C5222 C 0.64682 0.28718 0.69071 0.0
C5223 C 0.64865 0.27493 0.69865 0.0
C5224 C 0.63683 0.26195 0.69741 0.0
C5225 C 0.62352 0.26089 0.68768 0.0
C5226 C 0.66345 0.27524 0.70722 0.0
C5227 C 0.6648 0.27902 0.72345 0.0
C5228 C 0.67645 0.27292 0.69922 0.0
C5229 C 0.67548 0.26872 0.68205 0.0
C5230 C 0.66582 0.25501 0.67439 0.0
C5231 C 0.66489 0.25118 0.6582 0.0
C5232 C 0.67366 0.26089 0.64956 0.0
C5233 C 0.68342 0.27445 0.6571 0.0
C5234 C 0.68437 0.27836 0.67329 0.0
C5235 C 0.72442 0.27101 0.75018 0.0
C5236 C 0.73719 0.28036 0.74541 0.0
C5237 C 0.70966 0.27069 0.74348 0.0
C5238 C 0.70748 0.27985 0.73208 0.0
C5239 C 0.72015 0.28955 0.7277 0.0
C5240 C 0.73488 0.28981 0.73429 0.0
C5241 C 0.69216 0.27861 0.72394 0.0
C5242 C 0.69067 0.27464 0.70769 0.0
C5243 C 0.67911 0.28093 0.73196 0.0
C5244 C 0.68021 0.28607 0.74902 0.0
C5245 C 0.69053 0.29961 0.75607 0.0
C5246 C 0.69155 0.30438 0.77216 0.0
C5247 C 0.68222 0.29578 0.78132 0.0
C5248 C 0.67182 0.2824 0.7744 0.0
C5249 C 0.67077 0.27757 0.75831 0.0
H5250 H 0.68301 0.29949 0.79378 0.0
H5251 H 0.67293 0.25789 0.63702 0.0
H5252 H 0.98656 0.34663 0.96947 0.0
H5253 H 0.98469 0.37069 0.98666 0.0
H5254 H 0.03372 0.38609 0.98741 0.0
H5255 H 0.0357 0.36194 0.97041 0.0
H5256 H 0.02205 0.39494 0.01603 0.0
H5257 H 0.01196 0.39591 0.96105 0.0
H5258 H 0.99844 0.38616 0.93501 0.0
H5259 H 0.95546 0.39241 0.95305 0.0
H5260 H 0.96873 0.40198 0.97928 0.0
H5261 H 0.04304 0.47299 0.01043 0.0
H5262 H 0.0368 0.44489 0.00907 0.0
H5263 H 0.98927 0.44775 0.0149 0.0
H5264 H 0.99554 0.47615 0.01646 0.0
H5265 H 0.99401 0.42794 0.98816 0.0
H5266 H 0.0077 0.43472 0.04225 0.0
H5267 H 0.02329 0.44579 0.06698 0.0
H5268 H 0.06145 0.42644 0.04971 0.0
H5269 H 0.04618 0.41543 0.02478 0.0
C5270 C 0.99699 0.35495 0.97368 0.0
C5271 C 0.01126 0.35255 0.96852 0.0
C5272 C 0.9959 0.36867 0.98345 0.0
C5273 C 0.00905 0.38014 0.98816 0.0
C5274 C 0.02346 0.37731 0.98391 0.0
C5275 C 0.02455 0.36363 0.97409 0.0
C5276 C 0.00764 0.39587 0.99564 0.0
C5277 C 0.01585 0.40217 0.01006 0.0
C5278 C 0.99926 0.40511 0.9879 0.0
C5279 C 0.99128 0.39943 0.97215 0.0
C5280 C 0.9996 0.39506 0.95949 0.0
C5281 C 0.992 0.3896 0.9447 0.0
C5282 C 0.97609 0.38861 0.94239 0.0
C5283 C 0.96777 0.39314 0.95487 0.0
C5284 C 0.97533 0.39858 0.9697 0.0
C5285 C 0.03131 0.46767 0.01169 0.0
C5286 C 0.01972 0.47663 0.01339 0.0
C5287 C 0.02779 0.45165 0.01108 0.0
C5288 C 0.01261 0.44432 0.01204 0.0
C5289 C 1.00108 0.45329 0.01431 0.0
C5290 C 0.00466 0.46943 0.01518 0.0
C5291 C 0.00876 0.42721 0.00841 0.0
C5292 C 0.99967 0.4206 0.99456 0.0
C5293 C 0.01653 0.41781 0.01657 0.0
C5294 C 0.02577 0.42426 0.03161 0.0
C5295 C 0.01945 0.43289 0.04369 0.0
C5296 C 0.02823 0.43914 0.05775 0.0
C5297 C 0.04335 0.43682 0.05992 0.0
C5298 C 0.04972 0.42821 0.04803 0.0
C5299 C 0.04099 0.42192 0.03393 0.0
H5300 H 0.05013 0.44169 0.07081 0.0
H5301 H 0.97022 0.38438 0.93093 0.0
H5302 H 0.96434 0.74208 0.14471 0.0
H5303 H 0.94104 0.74031 0.1584 0.0
H5304 H 0.96604 0.77188 0.19791 0.0
H5305 H 0.98958 0.77264 0.18492 0.0
H5306 H 0.94803 0.75064 0.20781 0.0
H5307 H 0.94193 0.7833 0.16937 0.0
H5308 H 0.94062 0.78979 0.14294 0.0
H5309 H 0.90266 0.75188 0.12872 0.0
H5310 H 0.90387 0.74505 0.15503 0.0
H5311 H 0.88856 0.78154 0.24449 0.0
H5312 H 0.9102 0.77923 0.22858 0.0
H5313 H 0.88268 0.73953 0.19861 0.0
H5314 H 0.861 0.74176 0.21452 0.0
H5315 H 0.90052 0.76236 0.18301 0.0
H5316 H 0.90626 0.7317 0.22335 0.0
H5317 H 0.90769 0.72725 0.25051 0.0
H5318 H 0.94696 0.76417 0.26188 0.0
H5319 H 0.94562 0.76899 0.23482 0.0
C5320 C 0.96496 0.74841 0.15643 0.0
C5321 C 0.97883 0.75765 0.16363 0.0
C5322 C 0.95156 0.74756 0.16415 0.0
C5323 C 0.95172 0.75624 0.17904 0.0
C5324 C 0.96561 0.76516 0.18638 0.0
C5325 C 0.97904 0.76575 0.17883 0.0
C5326 C 0.93747 0.75624 0.18706 0.0
C5327 C 0.93771 0.75334 0.2024 0.0
C5328 C 0.92386 0.75944 0.17991 0.0
C5329 C 0.9231 0.76356 0.16411 0.0
C5330 C 0.93337 0.77628 0.16057 0.0
C5331 C 0.93264 0.78003 0.14562 0.0
C5332 C 0.92159 0.77122 0.13415 0.0
C5333 C 0.91123 0.75867 0.13761 0.0
C5334 C 0.91193 0.75486 0.15254 0.0
C5335 C 0.88712 0.77244 0.23441 0.0
C5336 C 0.87325 0.76175 0.23074 0.0
C5337 C 0.89944 0.7711 0.22541 0.0
C5338 C 0.89799 0.75912 0.21258 0.0
C5339 C 0.88396 0.74879 0.20853 0.0
C5340 C 0.87168 0.75001 0.21764 0.0
C5341 C 0.91134 0.75712 0.20374 0.0
C5342 C 0.91087 0.75957 0.18829 0.0
C5343 C 0.92483 0.75379 0.21086 0.0
C5344 C 0.92576 0.75078 0.22709 0.0
C5345 C 0.91513 0.73894 0.23167 0.0
C5346 C 0.91594 0.73634 0.24704 0.0
C5347 C 0.92739 0.74544 0.25792 0.0
C5348 C 0.93809 0.75713 0.25344 0.0
C5349 C 0.93732 0.75979 0.23809 0.0
H5350 H 0.928 0.74341 0.26982 0.0
H5351 H 0.92104 0.77415 0.12258 0.0
H5352 H 0.51642 0.31499 0.06479 0.0
H5353 H 0.52184 0.33774 0.05196 0.0
H5354 H 0.49588 0.36244 0.08422 0.0
H5355 H 0.49057 0.33981 0.09727 0.0
H5356 H 0.48899 0.36579 0.0542 0.0
H5357 H 0.53403 0.37064 0.08888 0.0
H5358 H 0.55618 0.36196 0.1009 0.0
H5359 H 0.57493 0.3552 0.05668 0.0
H5360 H 0.55276 0.36363 0.04434 0.0
H5361 H 0.5155 0.4408 0.03547 0.0
H5362 H 0.50939 0.41875 0.04917 0.0
H5363 H 0.53658 0.39294 0.0193 0.0
H5364 H 0.54276 0.41497 0.00555 0.0
H5365 H 0.5427 0.39062 0.04901 0.0
H5366 H 0.49739 0.38627 0.01445 0.0
H5367 H 0.47493 0.39467 0.00272 0.0
H5368 H 0.45621 0.40026 0.04703 0.0
H5369 H 0.47878 0.3923 0.05912 0.0
C5370 C 0.51195 0.3253 0.06922 0.0
C5371 C 0.50311 0.32564 0.08207 0.0
C5372 C 0.51503 0.33826 0.06187 0.0
C5373 C 0.50939 0.35179 0.06728 0.0
C5374 C 0.50032 0.35208 0.0799 0.0
C5375 C 0.49724 0.33913 0.08728 0.0
C5376 C 0.51295 0.36563 0.05971 0.0
C5377 C 0.50072 0.3714 0.05325 0.0
C5378 C 0.52827 0.37267 0.05827 0.0
C5379 C 0.54165 0.36763 0.06566 0.0
C5380 C 0.54281 0.36718 0.08169 0.0
C5381 C 0.55538 0.36232 0.08857 0.0
C5382 C 0.56694 0.35799 0.07955 0.0
C5383 C 0.56596 0.35854 0.06365 0.0
C5384 C 0.5534 0.36337 0.05671 0.0
C5385 C 0.52005 0.43037 0.03172 0.0
C5386 C 0.52955 0.42956 0.01938 0.0
C5387 C 0.51657 0.4178 0.03958 0.0
C5388 C 0.5224 0.40416 0.03513 0.0
C5389 C 0.53198 0.40338 0.02291 0.0
C5390 C 0.53552 0.41596 0.01509 0.0
C5391 C 0.51872 0.39076 0.04334 0.0
C5392 C 0.53095 0.38507 0.04998 0.0
C5393 C 0.50337 0.38383 0.04498 0.0
C5394 C 0.4899 0.38886 0.03774 0.0
C5395 C 0.48859 0.38948 0.02174 0.0
C5396 C 0.47582 0.39414 0.01502 0.0
C5397 C 0.46416 0.39801 0.02413 0.0
C5398 C 0.46524 0.39723 0.03998 0.0
C5399 C 0.47805 0.3927 0.04679 0.0
H5400 H 0.45428 0.40162 0.0189 0.0
H5401 H 0.57667 0.35425 0.0849 0.0
H5402 H 0.0064 0.26947 0.30592 0.0
H5403 H 0.98179 0.26727 0.29066 0.0
H5404 H 0.95838 0.26827 0.33262 0.0
H5405 H 0.9828 0.2707 0.34791 0.0
H5406 H 0.94214 0.2471 0.30898 0.0
H5407 H 0.96818 0.30082 0.31823 0.0
H5408 H 0.98968 0.32233 0.31719 0.0
H5409 H 0.98574 0.31127 0.26737 0.0
H5410 H 0.96432 0.28954 0.26814 0.0
H5411 H 0.88399 0.29558 0.2961 0.0
H5412 H 0.90741 0.28736 0.30512 0.0
H5413 H 0.90817 0.25957 0.26021 0.0
H5414 H 0.8846 0.26785 0.25096 0.0
H5415 H 0.93598 0.29072 0.28111 0.0
H5416 H 0.91851 0.22747 0.28153 0.0
H5417 H 0.89786 0.20713 0.28741 0.0
H5418 H 0.88443 0.24027 0.32286 0.0
H5419 H 0.90496 0.26077 0.31709 0.0
C5420 C 0.99599 0.26917 0.31187 0.0
C5421 C 0.99654 0.2703 0.32812 0.0
C5422 C 0.98196 0.26782 0.30314 0.0
C5423 C 0.96832 0.26765 0.31055 0.0
C5424 C 0.96878 0.26823 0.32668 0.0
C5425 C 0.98275 0.2696 0.3354 0.0
C5426 C 0.95365 0.26804 0.30182 0.0
C5427 C 0.94085 0.25652 0.30269 0.0
C5428 C 0.95196 0.28039 0.29374 0.0
C5429 C 0.96481 0.29344 0.29325 0.0
C5430 C 0.97199 0.30289 0.30706 0.0
C5431 C 0.98415 0.31513 0.30652 0.0
C5432 C 0.98911 0.31813 0.29222 0.0
C5433 C 0.98191 0.30891 0.27844 0.0
C5434 C 0.96976 0.29663 0.27892 0.0
C5435 C 0.88912 0.2877 0.28813 0.0
C5436 C 0.88267 0.28257 0.27274 0.0
C5437 C 0.90235 0.28288 0.29336 0.0
C5438 C 0.90933 0.27278 0.28335 0.0
C5439 C 0.90276 0.26724 0.26811 0.0
C5440 C 0.88939 0.27202 0.26285 0.0
C5441 C 0.92452 0.26987 0.28843 0.0
C5442 C 0.93743 0.28099 0.28689 0.0
C5443 C 0.92625 0.25741 0.29625 0.0
C5444 C 0.91304 0.24564 0.29871 0.0
C5445 C 0.91102 0.23041 0.29045 0.0
C5446 C 0.89942 0.21885 0.29383 0.0
C5447 C 0.88988 0.22239 0.30554 0.0
C5448 C 0.89184 0.23754 0.31381 0.0
C5449 C 0.90337 0.24915 0.31041 0.0
H5450 H 0.8809 0.21343 0.30814 0.0
H5451 H 0.99852 0.32762 0.29182 0.0
H5452 H 0.00282 0.68968 0.57044 0.0
H5453 H 0.00646 0.66399 0.55817 0.0
H5454 H 1.00046 0.647 0.60148 0.0
H5455 H 0.99617 0.67245 0.61373 0.0
H5456 H 0.027 0.6405 0.58724 0.0
H5457 H 0.97288 0.63536 0.57488 0.0
H5458 H 0.94913 0.64283 0.56487 0.0
H5459 H 0.96527 0.64038 0.51934 0.0
H5460 H 0.98925 0.63313 0.52914 0.0
H5461 H 0.02205 0.56002 0.55595 0.0
H5462 H 0.0161 0.58448 0.56923 0.0
H5463 H 0.02125 0.60414 0.52724 0.0
H5464 H 0.02732 0.57987 0.51391 0.0
H5465 H 0.9943 0.60864 0.54159 0.0
H5466 H 0.04879 0.61506 0.5541 0.0
H5467 H 0.07266 0.60769 0.56395 0.0
H5468 H 0.05587 0.60787 0.60906 0.0
H5469 H 0.03177 0.61502 0.59941 0.0
C5470 C 1.00197 0.68042 0.5773 0.0
C5471 C 0.99923 0.68314 0.59308 0.0
C5472 C 0.00414 0.66579 0.57029 0.0
C5473 C 0.00369 0.65369 0.57896 0.0
C5474 C 1.00089 0.65628 0.59466 0.0
C5475 C 0.99854 0.67084 0.60164 0.0
C5476 C 0.00667 0.63844 0.57173 0.0
C5477 C 0.01972 0.63339 0.57742 0.0
C5478 C 0.99732 0.62943 0.55873 0.0
C5479 C 0.98294 0.63387 0.55279 0.0
C5480 C 0.97144 0.63657 0.56277 0.0
C5481 C 0.95792 0.64073 0.55713 0.0
C5482 C 0.95571 0.64212 0.54149 0.0
C5483 C 0.96701 0.63933 0.53146 0.0
C5484 C 0.98057 0.63518 0.53705 0.0
C5485 C 0.02196 0.56958 0.54957 0.0
C5486 C 0.0252 0.56808 0.53393 0.0
C5487 C 0.01859 0.58351 0.55716 0.0
C5488 C 0.01828 0.59604 0.54917 0.0
C5489 C 0.02143 0.59455 0.53355 0.0
C5490 C 0.02498 0.58072 0.52601 0.0
C5491 C 0.01466 0.61075 0.55706 0.0
C5492 C 1.00151 0.61571 0.55148 0.0
C5493 C 0.02393 0.61969 0.57014 0.0
C5494 C 0.0384 0.61538 0.57598 0.0
C5495 C 0.05012 0.61337 0.56608 0.0
C5496 C 0.0637 0.60927 0.57163 0.0
C5497 C 0.06576 0.60726 0.58711 0.0
C5498 C 0.05425 0.6094 0.59707 0.0
C5499 C 0.04062 0.61348 0.59157 0.0
H5500 H 0.07629 0.6041 0.59139 0.0
H5501 H 0.94523 0.64533 0.53714 0.0
H5502 H 0.65578 0.80914 0.85861 0.0
H5503 H 0.67475 0.81049 0.8394 0.0
H5504 H 0.63808 0.79781 0.8024 0.0
H5505 H 0.61919 0.79566 0.82168 0.0
H5506 H 0.65761 0.78147 0.79573 0.0
H5507 H 0.66182 0.83539 0.81059 0.0
H5508 H 0.66419 0.86061 0.8279 0.0
H5509 H 0.70864 0.8559 0.84681 0.0
H5510 H 0.70645 0.83053 0.82978 0.0
H5511 H 0.73797 0.81029 0.76395 0.0
H5512 H 0.71375 0.81645 0.77333 0.0
H5513 H 0.70562 0.77315 0.79115 0.0
H5514 H 0.72906 0.76669 0.78126 0.0
H5515 H 0.70498 0.82165 0.80065 0.0
H5516 H 0.67011 0.75782 0.79159 0.0
H5517 H 0.66654 0.73398 0.772 0.0
H5518 H 0.68057 0.7612 0.73695 0.0
H5519 H 0.68403 0.78524 0.75626 0.0
C5520 C 0.65185 0.80681 0.84636 0.0
C5521 C 0.63616 0.8022 0.84151 0.0
C5522 C 0.66264 0.80773 0.83539 0.0
C5523 C 0.65785 0.80449 0.81941 0.0
C5524 C 0.64207 0.80036 0.81463 0.0
C5525 C 0.63131 0.79911 0.8256 0.0
C5526 C 0.66937 0.80389 0.80781 0.0
C5527 C 0.66786 0.79037 0.79667 0.0
C5528 C 0.6825 0.81574 0.8086 0.0
C5529 C 0.68393 0.83101 0.81892 0.0
C5530 C 0.67206 0.83967 0.8185 0.0
C5531 C 0.67338 0.85401 0.82826 0.0
C5532 C 0.68655 0.85985 0.83845 0.0
C5533 C 0.69844 0.85136 0.8389 0.0
C5534 C 0.69718 0.83702 0.82917 0.0
C5535 C 0.73084 0.80204 0.76967 0.0
C5536 C 0.73527 0.78795 0.77171 0.0
C5537 C 0.71705 0.80556 0.77502 0.0
C5538 C 0.70766 0.79508 0.78259 0.0
C5539 C 0.71231 0.78116 0.78482 0.0
C5540 C 0.72582 0.77752 0.77924 0.0
C5541 C 0.69351 0.79888 0.78922 0.0
C5542 C 0.69452 0.81298 0.79942 0.0
C5543 C 0.67966 0.7878 0.78717 0.0
C5544 C 0.67736 0.77336 0.77541 0.0
C5545 C 0.67231 0.75875 0.77968 0.0
C5546 C 0.67035 0.74519 0.76863 0.0
C5547 C 0.67334 0.74607 0.75325 0.0
C5548 C 0.67828 0.76053 0.74888 0.0
C5549 C 0.68027 0.77413 0.75988 0.0
H5550 H 0.67182 0.73556 0.74471 0.0
H5551 H 0.68755 0.87095 0.84599 0.0
H5552 H 0.45198 0.56234 0.67216 0.0
H5553 H 0.46447 0.56034 0.64806 0.0
H5554 H 0.46768 0.51287 0.6507 0.0
H5555 H 0.45598 0.51502 0.67535 0.0
H5556 H 0.49171 0.52239 0.63856 0.0
H5557 H 0.44063 0.5275 0.623 0.0
H5558 H 0.41723 0.53909 0.62281 0.0
H5559 H 0.44304 0.58101 0.61149 0.0
H5560 H 0.46665 0.56973 0.6118 0.0
H5561 H 0.50942 0.50451 0.55793 0.0
H5562 H 0.49727 0.50615 0.58262 0.0
H5563 H 0.50047 0.55547 0.58453 0.0
H5564 H 0.51276 0.5539 0.56003 0.0
H5565 H 0.47305 0.5446 0.59398 0.0
H5566 H 0.52418 0.53831 0.6092 0.0
H5567 H 0.54682 0.52553 0.60845 0.0
H5568 H 0.51961 0.48414 0.61935 0.0
H5569 H 0.49675 0.49662 0.61998 0.0
C5570 C 0.45537 0.5514 0.66793 0.0
C5571 C 0.45254 0.53888 0.67645 0.0
C5572 C 0.46247 0.55017 0.65362 0.0
C5573 C 0.46704 0.53627 0.64667 0.0
C5574 C 0.46442 0.52382 0.65522 0.0
C5575 C 0.4574 0.52507 0.66958 0.0
C5576 C 0.47458 0.53477 0.63087 0.0
C5577 C 0.48732 0.52711 0.62885 0.0
C5578 C 0.46954 0.54096 0.61767 0.0
C5579 C 0.45543 0.54784 0.6176 0.0
C5580 C 0.44134 0.53924 0.62059 0.0
C5581 C 0.42804 0.54574 0.62044 0.0
C5582 C 0.42866 0.56079 0.61719 0.0
C5583 C 0.44258 0.56936 0.61404 0.0
C5584 C 0.45593 0.56292 0.61419 0.0
C5585 C 0.50767 0.51578 0.56357 0.0
C5586 C 0.51241 0.52905 0.55657 0.0
C5587 C 0.50065 0.51675 0.57795 0.0
C5588 C 0.49778 0.53101 0.58609 0.0
C5589 C 0.50232 0.54421 0.57896 0.0
C5590 C 0.50954 0.54329 0.56474 0.0
C5591 C 0.4901 0.53225 0.60175 0.0
C5592 C 0.47737 0.53987 0.60373 0.0
C5593 C 0.49502 0.52585 0.61481 0.0
C5594 C 0.50872 0.51834 0.61448 0.0
C5595 C 0.523 0.52644 0.61132 0.0
C5596 C 0.53588 0.51926 0.61094 0.0
C5597 C 0.53464 0.50402 0.61381 0.0
C5598 C 0.52054 0.49594 0.61711 0.0
C5599 C 0.50762 0.50306 0.61749 0.0
H5600 H 0.54462 0.49848 0.6135 0.0
H5601 H 0.41835 0.5658 0.61707 0.0
H5602 H 0.81812 0.17138 0.94977 0.0
H5603 H 0.8154 0.18493 0.92766 0.0
H5604 H 0.76782 0.18523 0.93549 0.0
H5605 H 0.77034 0.17132 0.95731 0.0
H5606 H 0.77095 0.17734 0.90511 0.0
H5607 H 0.79534 0.21786 0.94651 0.0
H5608 H 0.81514 0.23073 0.96766 0.0
H5609 H 0.84987 0.23137 0.93537 0.0
H5610 H 0.83029 0.21828 0.91404 0.0
H5611 H 0.75627 0.23554 0.86176 0.0
H5612 H 0.76011 0.22042 0.88231 0.0
H5613 H 0.80687 0.22026 0.87118 0.0
H5614 H 0.80319 0.2356 0.85071 0.0
H5615 H 0.80498 0.2275 0.90253 0.0
H5616 H 0.78017 0.18785 0.86087 0.0
H5617 H 0.76014 0.17526 0.83983 0.0
H5618 H 0.72598 0.17326 0.87271 0.0
H5619 H 0.74577 0.18605 0.89394 0.0
C5620 C 0.80705 0.17423 0.94673 0.0
C5621 C 0.79447 0.17032 0.95539 0.0
C5622 C 0.80554 0.1821 0.93415 0.0
C5623 C 0.79144 0.18626 0.92999 0.0
C5624 C 0.77883 0.1822 0.9385 0.0
C5625 C 0.78033 0.17437 0.95108 0.0
C5626 C 0.78979 0.19481 0.91676 0.0
C5627 C 0.77829 0.18839 0.90464 0.0
C5628 C 0.79958 0.20906 0.91592 0.0
C5629 C 0.81138 0.21694 0.92871 0.0
C5630 C 0.80722 0.22062 0.94394 0.0
C5631 C 0.8184 0.22798 0.95596 0.0
C5632 C 0.83376 0.23182 0.95287 0.0
C5633 C 0.83797 0.22835 0.93775 0.0
C5634 C 0.82684 0.22098 0.92569 0.0
C5635 C 0.76741 0.23238 0.86371 0.0
C5636 C 0.77946 0.23694 0.85462 0.0
C5637 C 0.76955 0.2236 0.87539 0.0
C5638 C 0.78376 0.21912 0.87825 0.0
C5639 C 0.7958 0.22358 0.86918 0.0
C5640 C 0.79365 0.23229 0.85741 0.0
C5641 C 0.78609 0.21007 0.89093 0.0
C5642 C 0.79771 0.2164 0.90296 0.0
C5643 C 0.77637 0.19576 0.8917 0.0
C5644 C 0.76444 0.18804 0.87898 0.0
C5645 C 0.76836 0.18484 0.8636 0.0
C5646 C 0.75706 0.17765 0.85164 0.0
C5647 C 0.74179 0.1735 0.85492 0.0
C5648 C 0.73781 0.1765 0.87018 0.0
C5649 C 0.74907 0.18371 0.88219 0.0
H5650 H 0.73305 0.16793 0.84565 0.0
H5651 H 0.8424 0.23753 0.96219 0.0
H5652 H 0.0923 0.53121 0.18331 0.0
H5653 H 0.07617 0.53446 0.1608 0.0
H5654 H 0.11315 0.5286 0.1317 0.0
H5655 H 0.12926 0.52515 0.15406 0.0
H5656 H 0.09928 0.55309 0.12645 0.0
H5657 H 0.08461 0.49895 0.13201 0.0
H5658 H 0.0751 0.47757 0.14603 0.0
H5659 H 0.03292 0.49467 0.15182 0.0
H5660 H 0.0423 0.5163 0.13802 0.0
H5661 H 0.07037 0.52288 0.05028 0.0
H5662 H 0.08108 0.52658 0.07717 0.0
H5663 H 0.03852 0.53788 0.09301 0.0
H5664 H 0.02765 0.53436 0.06593 0.0
H5665 H 0.05148 0.51476 0.10767 0.0
H5666 H 0.06502 0.56634 0.09744 0.0
H5667 H 0.07477 0.58662 0.08221 0.0
H5668 H 0.11927 0.57366 0.08434 0.0
H5669 H 0.10972 0.55312 0.09936 0.0
C5670 C 0.09692 0.53047 0.17207 0.0
C5671 C 0.11197 0.52779 0.17036 0.0
C5672 C 0.08775 0.53243 0.1593 0.0
C5673 C 0.0935 0.53171 0.14466 0.0
C5674 C 0.10858 0.52928 0.14297 0.0
C5675 C 0.11775 0.5273 0.15571 0.0
C5676 C 0.08373 0.533 0.13091 0.0
C5677 C 0.08882 0.54474 0.12233 0.0
C5678 C 0.06986 0.52235 0.12589 0.0
C5679 C 0.06424 0.50936 0.13418 0.0
C5680 C 0.07337 0.49824 0.13641 0.0
C5681 C 0.06799 0.48605 0.14429 0.0
C5682 C 0.05344 0.48479 0.14987 0.0
C5683 C 0.04421 0.49568 0.14753 0.0
C5684 C 0.04955 0.50791 0.13968 0.0
C5685 C 0.06325 0.52614 0.05945 0.0
C5686 C 0.04819 0.52834 0.05606 0.0
C5687 C 0.06942 0.52833 0.07478 0.0
C5688 C 0.06059 0.53264 0.08693 0.0
C5689 C 0.04546 0.53465 0.08367 0.0
C5690 C 0.03933 0.53267 0.06827 0.0
C5691 C 0.0673 0.53454 0.10301 0.0
C5692 C 0.06168 0.5234 0.11203 0.0
C5693 C 0.08073 0.54568 0.1084 0.0
C5694 C 0.08661 0.55812 0.09948 0.0
C5695 C 0.07685 0.56774 0.09457 0.0
C5696 C 0.08235 0.57929 0.08598 0.0
C5697 C 0.09763 0.58142 0.0823 0.0
C5698 C 0.10744 0.57201 0.08721 0.0
C5699 C 0.102 0.56041 0.09578 0.0
H5700 H 0.10186 0.59037 0.07565 0.0
H5701 H 0.04929 0.47534 0.15595 0.0
H5702 H 0.7828 0.80651 0.44429 0.0
H5703 H 0.78198 0.79681 0.41643 0.0
H5704 H 0.77652 0.84183 0.40646 0.0
H5705 H 0.77793 0.85183 0.43418 0.0
H5706 H 0.75589 0.81717 0.38804 0.0
H5707 H 0.81052 0.83124 0.40389 0.0
H5708 H 0.83415 0.83011 0.41971 0.0
H5709 H 0.828 0.78089 0.40374 0.0
H5710 H 0.80422 0.7817 0.38799 0.0
H5711 H 0.76872 0.81006 0.30851 0.0
H5712 H 0.76897 0.81786 0.33654 0.0
H5713 H 0.7855 0.7762 0.34385 0.0
H5714 H 0.78608 0.76881 0.31577 0.0
H5715 H 0.79985 0.79779 0.3642 0.0
H5716 H 0.74637 0.78244 0.34812 0.0
H5717 H 0.72164 0.78168 0.33326 0.0
H5718 H 0.72386 0.83025 0.35027 0.0
H5719 H 0.74873 0.83138 0.36504 0.0
C5720 C 0.78161 0.81445 0.43623 0.0
C5721 C 0.7804 0.83001 0.44167 0.0
C5722 C 0.78106 0.80883 0.42026 0.0
C5723 C 0.77922 0.8186 0.40932 0.0
C5724 C 0.77785 0.83404 0.41465 0.0
C5725 C 0.77855 0.83971 0.43059 0.0
C5726 C 0.77877 0.81283 0.39231 0.0
C5727 C 0.76555 0.81308 0.38277 0.0
C5728 C 0.79116 0.80696 0.38551 0.0
C5729 C 0.80551 0.80651 0.39489 0.0
C5730 C 0.81415 0.82016 0.40385 0.0
C5731 C 0.82758 0.81958 0.41278 0.0
C5732 C 0.83255 0.80543 0.41276 0.0
C5733 C 0.82413 0.79184 0.40377 0.0
C5734 C 0.81068 0.79235 0.39482 0.0
C5735 C 0.77233 0.80251 0.31607 0.0
C5736 C 0.77731 0.78877 0.30986 0.0
C5737 C 0.77238 0.80694 0.33217 0.0
C5738 C 0.77694 0.7975 0.34249 0.0
C5739 C 0.7819 0.78373 0.33626 0.0
C5740 C 0.78218 0.77947 0.32016 0.0
C5741 C 0.77693 0.80218 0.35972 0.0
C5742 C 0.79009 0.80176 0.36936 0.0
C5743 C 0.76433 0.80759 0.36666 0.0
C5744 C 0.74948 0.80702 0.3576 0.0
C5745 C 0.74166 0.79299 0.34859 0.0
C5746 C 0.72761 0.79249 0.34019 0.0
C5747 C 0.72119 0.8059 0.34083 0.0
C5748 C 0.72885 0.81987 0.3498 0.0
C5749 C 0.74291 0.82045 0.35819 0.0
H5750 H 0.71025 0.80546 0.33445 0.0
H5751 H 0.84295 0.805 0.41969 0.0
H5752 H 0.47724 0.54474 0.83346 0.0
H5753 H 0.48947 0.54267 0.85883 0.0
H5754 H 0.44531 0.53744 0.87741 0.0
H5755 H 0.433 0.53932 0.85205 0.0
H5756 H 0.46744 0.55727 0.89902 0.0
H5757 H 0.46432 0.50613 0.86844 0.0
H5758 H 0.46926 0.48778 0.84585 0.0
H5759 H 0.51792 0.50388 0.85597 0.0
H5760 H 0.51326 0.52247 0.87851 0.0
H5761 H 0.49061 0.53723 0.97206 0.0
H5762 H 0.47862 0.53899 0.94669 0.0
H5763 H 0.51898 0.52836 0.92528 0.0
H5764 H 0.53047 0.5254 0.95065 0.0
H5765 H 0.49914 0.51717 0.90454 0.0
H5766 H 0.50473 0.56829 0.93304 0.0
H5767 H 0.50241 0.5888 0.95486 0.0
H5768 H 0.45315 0.57649 0.9479 0.0
H5769 H 0.45518 0.55575 0.92615 0.0
C5770 C 0.47001 0.5432 0.84288 0.0
C5771 C 0.45389 0.54217 0.8402 0.0
C5772 C 0.47712 0.5419 0.85758 0.0
C5773 C 0.46854 0.53976 0.87053 0.0
C5774 C 0.45249 0.53904 0.86796 0.0
C5775 C 0.44535 0.54004 0.85319 0.0
C5776 C 0.47614 0.5382 0.88653 0.0
C5777 C 0.47419 0.54833 0.90016 0.0
C5778 C 0.48564 0.52705 0.88852 0.0
C5779 C 0.48843 0.51578 0.87507 0.0
C5780 C 0.47607 0.50583 0.86578 0.0
C5781 C 0.47882 0.49537 0.853 0.0
C5782 C 0.49389 0.49469 0.84946 0.0
C5783 C 0.50625 0.50443 0.85872 0.0
C5784 C 0.50356 0.51492 0.8715 0.0
C5785 C 0.49704 0.53527 0.962 0.0
C5786 C 0.51174 0.53124 0.96384 0.0
C5787 C 0.49014 0.5365 0.94722 0.0
C5788 C 0.49777 0.53438 0.93341 0.0
C5789 C 0.51247 0.5302 0.93528 0.0
C5790 C 0.5192 0.52856 0.95004 0.0
C5791 C 0.49048 0.53626 0.91727 0.0
C5792 C 0.49244 0.52618 0.90355 0.0
C5793 C 0.48142 0.54783 0.91512 0.0
C5794 C 0.48011 0.56037 0.92807 0.0
C5795 C 0.4934 0.56991 0.93621 0.0
C5796 C 0.49214 0.58157 0.94857 0.0
C5797 C 0.47764 0.58392 0.95279 0.0
C5798 C 0.46438 0.57464 0.94463 0.0
C5799 C 0.46557 0.56293 0.93228 0.0
H5800 H 0.4767 0.59295 0.96237 0.0
H5801 H 0.496 0.4866 0.83955 0.0
H5802 H 0.78345 0.16062 0.11279 0.0
H5803 H 0.78021 0.17832 0.13619 0.0
H5804 H 0.8046 0.21698 0.11766 0.0
H5805 H 0.80749 0.19944 0.09392 0.0
H5806 H 0.81389 0.21735 0.14911 0.0
H5807 H 0.76645 0.21191 0.11687 0.0
H5808 H 0.74316 0.19712 0.10094 0.0
H5809 H 0.72788 0.17657 0.14005 0.0
H5810 H 0.75119 0.19108 0.15616 0.0
H5811 H 0.79667 0.27558 0.20711 0.0
H5812 H 0.79908 0.26016 0.18191 0.0
H5813 H 0.76662 0.22192 0.19295 0.0
H5814 H 0.76356 0.23756 0.2177 0.0
H5815 H 0.76161 0.22198 0.16439 0.0
H5816 H 0.80813 0.22493 0.19646 0.0
H5817 H 0.83149 0.23795 0.21334 0.0
H5818 H 0.8488 0.26066 0.17624 0.0
H5819 H 0.82544 0.24794 0.15919 0.0
C5820 C 0.788 0.17289 0.11353 0.0
C5821 C 0.79564 0.17851 0.10125 0.0
C5822 C 0.7862 0.18301 0.12701 0.0
C5823 C 0.79202 0.19903 0.12866 0.0
C5824 C 0.8 0.20467 0.11668 0.0
C5825 C 0.80172 0.19456 0.1031 0.0
C5826 C 0.7896 0.20987 0.14282 0.0
C5827 C 0.80246 0.21854 0.15235 0.0
C5828 C 0.77471 0.21111 0.14733 0.0
C5829 C 0.76063 0.20249 0.13768 0.0
C5830 C 0.75818 0.20416 0.12204 0.0
C5831 C 0.74496 0.19584 0.11299 0.0
C5832 C 0.73406 0.18589 0.11947 0.0
C5833 C 0.73634 0.18427 0.13504 0.0
C5834 C 0.74954 0.19255 0.14414 0.0
C5835 C 0.78985 0.26397 0.20405 0.0
C5836 C 0.77991 0.25785 0.21447 0.0
C5837 C 0.79137 0.25506 0.18968 0.0
C5838 C 0.78336 0.23962 0.18556 0.0
C5839 C 0.773 0.23373 0.19574 0.0
C5840 C 0.77122 0.24274 0.20995 0.0
C5841 C 0.78592 0.22947 0.17089 0.0
C5842 C 0.77307 0.22089 0.16121 0.0
C5843 C 0.80085 0.22805 0.16643 0.0
C5844 C 0.81496 0.23561 0.1766 0.0
C5845 C 0.81688 0.23278 0.19193 0.0
C5846 C 0.83012 0.24009 0.20153 0.0
C5847 C 0.8416 0.25016 0.19588 0.0
C5848 C 0.83988 0.25288 0.18061 0.0
C5849 C 0.82665 0.24561 0.17097 0.0
H5850 H 0.85184 0.25582 0.20333 0.0
H5851 H 0.72384 0.17945 0.11244 0.0
H5852 H 0.12094 0.56966 0.31389 0.0
H5853 H 0.11156 0.57796 0.33895 0.0
H5854 H 0.09756 0.52997 0.34415 0.0
H5855 H 0.10645 0.52155 0.31878 0.0
H5856 H 0.07606 0.54668 0.3524 0.0
H5857 H 0.13039 0.55111 0.36293 0.0
H5858 H 0.15773 0.55974 0.35926 0.0
H5859 H 0.15281 0.60745 0.3712 0.0
H5860 H 0.12535 0.5991 0.37471 0.0
H5861 H 0.08327 0.56135 0.43782 0.0
H5862 H 0.09789 0.56167 0.41508 0.0
H5863 H 0.06622 0.58627 0.39447 0.0
H5864 H 0.05163 0.58627 0.41736 0.0
H5865 H 0.11133 0.58171 0.39444 0.0
H5866 H 0.05186 0.56217 0.36041 0.0
H5867 H 0.02522 0.5513 0.36497 0.0
H5868 H 0.04209 0.52959 0.40146 0.0
H5869 H 0.0688 0.54007 0.3969 0.0
C5870 C 0.11562 0.56087 0.32024 0.0
C5871 C 0.11438 0.54495 0.3144 0.0
C5872 C 0.11045 0.56564 0.33462 0.0
C5873 C 0.10409 0.55457 0.34343 0.0
C5874 C 0.10252 0.53867 0.3375 0.0
C5875 C 0.10766 0.53388 0.32309 0.0
C5876 C 0.09908 0.55958 0.35889 0.0
C5877 C 0.08376 0.55439 0.36155 0.0
C5878 C 0.10924 0.56944 0.37087 0.0
C5879 C 0.12578 0.57449 0.36894 0.0
C5880 C 0.13511 0.56345 0.36466 0.0
C5881 C 0.15063 0.56828 0.36263 0.0
C5882 C 0.15699 0.58413 0.36496 0.0
C5883 C 0.14786 0.59518 0.36938 0.0
C5884 C 0.13232 0.5904 0.37141 0.0
C5885 C 0.07983 0.56752 0.42882 0.0
C5886 C 0.0661 0.57348 0.42917 0.0
C5887 C 0.08822 0.56768 0.41582 0.0
C5888 C 0.08289 0.57371 0.40306 0.0
C5889 C 0.07035 0.58142 0.40421 0.0
C5890 C 0.062 0.58133 0.41722 0.0
C5891 C 0.0883 0.56906 0.38774 0.0
C5892 C 0.10364 0.5742 0.38516 0.0
C5893 C 0.07831 0.55881 0.37592 0.0
C5894 C 0.06229 0.55209 0.37845 0.0
C5895 C 0.04987 0.55503 0.36936 0.0
C5896 C 0.03476 0.54893 0.37193 0.0
C5897 C 0.03196 0.53981 0.38354 0.0
C5898 C 0.04427 0.53669 0.39251 0.0
C5899 C 0.05938 0.54272 0.38994 0.0
H5900 H 0.02026 0.53514 0.38554 0.0
H5901 H 0.16901 0.58786 0.36338 0.0
H5902 H 0.76254 0.8446 0.60627 0.0
H5903 H 0.76061 0.83515 0.63104 0.0
H5904 H 0.80085 0.8146 0.62353 0.0
H5905 H 0.80258 0.82361 0.59849 0.0
H5906 H 0.78007 0.7951 0.63487 0.0
H5907 H 0.80253 0.84893 0.64888 0.0
H5908 H 0.80487 0.8772 0.64962 0.0
H5909 H 0.76218 0.8763 0.67067 0.0
H5910 H 0.75948 0.84796 0.66986 0.0
H5911 H 0.79983 0.80469 0.72198 0.0
H5912 H 0.80044 0.81287 0.69647 0.0
H5913 H 0.75283 0.79125 0.68532 0.0
H5914 H 0.75233 0.78232 0.71052 0.0
H5915 H 0.77752 0.83145 0.6835 0.0
H5916 H 0.75429 0.77412 0.66189 0.0
H5917 H 0.75534 0.74647 0.6621 0.0
H5918 H 0.80363 0.75543 0.65593 0.0
H5919 H 0.80294 0.78327 0.6564 0.0
C5920 C 0.7709 0.83792 0.60976 0.0
C5921 C 0.78274 0.83492 0.60029 0.0
C5922 C 0.76987 0.83265 0.62406 0.0
C5923 C 0.78068 0.82429 0.62933 0.0
C5924 C 0.79237 0.82106 0.6198 0.0
C5925 C 0.79343 0.82635 0.60551 0.0
C5926 C 0.77982 0.81893 0.64475 0.0
C5927 C 0.77946 0.80311 0.64544 0.0
C5928 C 0.77918 0.82928 0.65873 0.0
C5929 C 0.78072 0.84629 0.65914 0.0
C5930 C 0.79357 0.85473 0.65353 0.0
C5931 C 0.79497 0.87078 0.65399 0.0
C5932 C 0.78365 0.87854 0.66014 0.0
C5933 C 0.77092 0.87027 0.66588 0.0
C5934 C 0.76945 0.85422 0.66543 0.0
C5935 C 0.78951 0.80155 0.71406 0.0
C5936 C 0.77607 0.7927 0.71827 0.0
C5937 C 0.78989 0.80624 0.69947 0.0
C5938 C 0.77679 0.80238 0.68881 0.0
C5939 C 0.76323 0.79393 0.69312 0.0
C5940 C 0.76292 0.78894 0.7076 0.0
C5941 C 0.77726 0.80765 0.67342 0.0
C5942 C 0.77781 0.82348 0.67281 0.0
C5943 C 0.77819 0.79739 0.65955 0.0
C5944 C 0.77863 0.78078 0.65956 0.0
C5945 C 0.76518 0.77024 0.66093 0.0
C5946 C 0.76571 0.75454 0.66091 0.0
C5947 C 0.77959 0.74922 0.6592 0.0
C5948 C 0.79293 0.75959 0.65746 0.0
C5949 C 0.79249 0.77534 0.65767 0.0
H5950 H 0.77997 0.73705 0.65911 0.0
H5951 H 0.78477 0.89096 0.6605 0.0
H5952 H 0.67808 0.45131 0.48714 0.0
H5953 H 0.65366 0.4604 0.48943 0.0
H5954 H 0.67452 0.49603 0.52773 0.0
H5955 H 0.69897 0.48698 0.52551 0.0
H5956 H 0.64778 0.4845 0.53493 0.0
H5957 H 0.66502 0.50306 0.4895 0.0
H5958 H 0.67393 0.5026 0.46327 0.0
H5959 H 0.63224 0.47151 0.44376 0.0
H5960 H 0.62319 0.47154 0.46991 0.0
H5961 H 0.58653 0.52904 0.5338 0.0
H5962 H 0.61128 0.5202 0.53229 0.0
H5963 H 0.58967 0.47968 0.4995 0.0
H5964 H 0.56495 0.48828 0.50107 0.0
H5965 H 0.61674 0.4943 0.48971 0.0
H5966 H 0.59986 0.47657 0.53625 0.0
H5967 H 0.59075 0.47983 0.56247 0.0
H5968 H 0.63236 0.51211 0.57989 0.0
H5969 H 0.64156 0.50935 0.55368 0.0
C5970 C 0.67761 0.46122 0.49594 0.0
C5971 C 0.69073 0.46835 0.5061 0.0
C5972 C 0.66351 0.46645 0.49725 0.0
C5973 C 0.66205 0.47911 0.50866 0.0
C5974 C 0.67513 0.48623 0.51883 0.0
C5975 C 0.68921 0.48098 0.51756 0.0
C5976 C 0.64691 0.48469 0.51027 0.0
C5977 C 0.64117 0.48682 0.52501 0.0
C5978 C 0.63789 0.4876 0.49741 0.0
C5979 C 0.64354 0.48711 0.48172 0.0
C5980 C 0.65785 0.49594 0.47965 0.0
C5981 C 0.6629 0.4958 0.46478 0.0
C5982 C 0.65369 0.48698 0.45186 0.0
C5983 C 0.63939 0.47828 0.45378 0.0
C5984 C 0.63431 0.47834 0.46863 0.0
C5985 C 0.58696 0.51813 0.52643 0.0
C5986 C 0.57357 0.50937 0.51766 0.0
C5987 C 0.60118 0.51308 0.52555 0.0
C5988 C 0.60247 0.49921 0.51578 0.0
C5989 C 0.5891 0.49041 0.50712 0.0
C5990 C 0.57487 0.49533 0.50814 0.0
C5991 C 0.61771 0.49399 0.51426 0.0
C5992 C 0.62343 0.49194 0.49956 0.0
C5993 C 0.62678 0.49137 0.52716 0.0
C5994 C 0.62134 0.49288 0.54295 0.0
C5995 C 0.60702 0.48447 0.54563 0.0
C5996 C 0.60184 0.48621 0.5605 0.0
C5997 C 0.61097 0.49617 0.57283 0.0
C5998 C 0.6253 0.50441 0.57032 0.0
C5999 C 0.63049 0.50277 0.55546 0.0
H6000 H 0.60694 0.49749 0.58433 0.0
H6001 H 0.6576 0.48693 0.44036 0.0
H6002 H 0.19646 0.11741 0.51319 0.0
H6003 H 0.17102 0.10147 0.51342 0.0
H6004 H 0.1534 0.12277 0.47673 0.0
H6005 H 0.17885 0.1389 0.47654 0.0
H6006 H 0.13368 0.12031 0.50066 0.0
H6007 H 0.16088 0.08732 0.46793 0.0
H6008 H 0.18259 0.07412 0.46147 0.0
H6009 H 0.17571 0.04978 0.50008 0.0
H6010 H 0.15408 0.063 0.5069 0.0
H6011 H 0.06228 0.06731 0.48716 0.0
H6012 H 0.0869 0.08336 0.4838 0.0
H6013 H 0.11052 0.05731 0.51211 0.0
H6014 H 0.08609 0.04061 0.5145 0.0
H6015 H 0.12714 0.06274 0.49084 0.0
H6016 H 0.10133 0.09621 0.52498 0.0
H6017 H 0.07971 0.10924 0.53233 0.0
H6018 H 0.08424 0.13286 0.49302 0.0
H6019 H 0.10578 0.11981 0.48533 0.0
C6020 C 0.18717 0.11879 0.50523 0.0
C6021 C 0.18973 0.12943 0.49482 0.0
C6022 C 0.17263 0.1096 0.50531 0.0
C6023 C 0.1603 0.11084 0.49502 0.0
C6024 C 0.16274 0.12159 0.48476 0.0
C6025 C 0.17733 0.13071 0.48458 0.0
C6026 C 0.14495 0.10075 0.49489 0.0
C6027 C 0.13218 0.10772 0.49832 0.0
C6028 C 0.14303 0.08433 0.49217 0.0
C6029 C 0.15594 0.07624 0.48799 0.0
C6030 C 0.16406 0.07923 0.4751 0.0
C6031 C 0.17635 0.07173 0.47137 0.0
C6032 C 0.18055 0.06114 0.48038 0.0
C6033 C 0.17245 0.05799 0.49312 0.0
C6034 C 0.16016 0.06547 0.49691 0.0
C6035 C 0.07277 0.06498 0.49257 0.0
C6036 C 0.07226 0.05271 0.5011 0.0
C6037 C 0.08686 0.07426 0.49078 0.0
C6038 C 0.10069 0.07189 0.49801 0.0
C6039 C 0.10012 0.05948 0.50639 0.0
C6040 C 0.08611 0.04992 0.50778 0.0
C6041 C 0.11576 0.08223 0.49694 0.0
C6042 C 0.12853 0.07532 0.49321 0.0
C6043 C 0.1177 0.09872 0.49963 0.0
C6044 C 0.10507 0.10693 0.5045 0.0
C6045 C 0.09769 0.10415 0.51789 0.0
C6046 C 0.08545 0.11153 0.5221 0.0
C6047 C 0.08058 0.12183 0.51312 0.0
C6048 C 0.08801 0.12486 0.49995 0.0
C6049 C 0.10025 0.11749 0.49567 0.0
H6050 H 0.07106 0.12749 0.51637 0.0
H6051 H 0.19006 0.05535 0.47747 0.0
H6052 H 0.22081 0.94123 0.76081 0.0
H6053 H 0.23285 0.91839 0.7603 0.0
H6054 H 0.18842 0.88944 0.75943 0.0
H6055 H 0.17625 0.91229 0.76002 0.0
H6056 H 0.20592 0.87677 0.7757 0.0
H6057 H 0.2146 0.89176 0.72598 0.0
H6058 H 0.22365 0.90932 0.70774 0.0
H6059 H 0.26976 0.91618 0.72908 0.0
H6060 H 0.26095 0.89879 0.74756 0.0
H6061 H 0.23339 0.80387 0.75671 0.0
H6062 H 0.22095 0.82667 0.75711 0.0
H6063 H 0.26526 0.85613 0.7587 0.0
H6064 H 0.27766 0.83333 0.75801 0.0
H6065 H 0.24772 0.86836 0.74192 0.0
H6066 H 0.23949 0.85481 0.79206 0.0
H6067 H 0.23133 0.83691 0.8103 0.0
H6068 H 0.18525 0.82748 0.78845 0.0
H6069 H 0.19323 0.84529 0.77 0.0
C6070 C 0.21335 0.9301 0.76032 0.0
C6071 C 0.19716 0.92934 0.76038 0.0
C6072 C 0.22044 0.91667 0.75997 0.0
C6073 C 0.21189 0.90142 0.75948 0.0
C6074 C 0.19576 0.90064 0.75977 0.0
C6075 C 0.18865 0.91408 0.76015 0.0
C6076 C 0.21958 0.88658 0.75881 0.0
C6077 C 0.2149 0.87502 0.76806 0.0
C6078 C 0.23176 0.88365 0.74931 0.0
C6079 C 0.23709 0.8941 0.73824 0.0
C6080 C 0.22665 0.89709 0.72684 0.0
C6081 C 0.23174 0.907 0.71645 0.0
C6082 C 0.24726 0.91389 0.71728 0.0
C6083 C 0.25774 0.91086 0.72847 0.0
C6084 C 0.2527 0.90096 0.73889 0.0
C6085 C 0.24062 0.81515 0.75711 0.0
C6086 C 0.25681 0.81622 0.75726 0.0
C6087 C 0.23337 0.8285 0.75751 0.0
C6088 C 0.24184 0.84385 0.75819 0.0
C6089 C 0.25801 0.84485 0.75817 0.0
C6090 C 0.26524 0.83153 0.7578 0.0
C6091 C 0.23406 0.85861 0.75879 0.0
C6092 C 0.23873 0.87013 0.74954 0.0
C6093 C 0.22194 0.86155 0.76834 0.0
C6094 C 0.21698 0.8512 0.77958 0.0
C6095 C 0.22764 0.84885 0.79112 0.0
C6096 C 0.22305 0.83875 0.8015 0.0
C6097 C 0.20778 0.83104 0.8005 0.0
C6098 C 0.19706 0.83347 0.78919 0.0
C6099 C 0.20161 0.84358 0.77879 0.0
H6100 H 0.20424 0.82319 0.80851 0.0
H6101 H 0.25118 0.92156 0.70922 0.0
H6102 H 0.35227 0.97142 0.98061 0.0
H6103 H 0.38004 0.97996 0.98148 0.0
H6104 H 0.3833 0.98562 0.03149 0.0
H6105 H 0.3554 0.97789 0.03078 0.0
H6106 H 0.40203 0.00852 0.02374 0.0
H6107 H 0.39349 0.95343 0.00742 0.0
H6108 H 0.38199 0.92822 0.9913 0.0
H6109 H 0.40048 0.94408 0.95105 0.0
H6110 H 0.41194 0.96948 0.9669 0.0
H6111 H 0.48297 0.01083 0.03434 0.0
H6112 H 0.45507 0.00265 0.03332 0.0
H6113 H 0.45147 1.00242 0.98392 0.0
H6114 H 0.4794 0.01056 0.98478 0.0
H6115 H 0.43313 0.97676 0.9914 0.0
H6116 H 0.44201 0.03211 0.0088 0.0
H6117 H 0.45418 0.05657 0.02585 0.0
H6118 H 0.43548 0.03914 0.06529 0.0
H6119 H 0.42337 0.01447 0.0485 0.0
C6120 C 0.35878 0.9747 0.99185 0.0
C6121 C 0.35136 0.97384 0.00562 0.0
C6122 C 0.37481 0.9794 0.99232 0.0
C6123 C 0.38401 0.9832 0.00655 0.0
C6124 C 0.37661 0.98268 0.02032 0.0
C6125 C 0.36057 0.97808 0.01988 0.0
C6126 C 0.40125 0.98768 0.00708 0.0
C6127 C 0.40879 1.00142 0.0168 0.0
C6128 C 0.41028 0.97867 0.99789 0.0
C6129 C 0.40344 0.96341 0.98832 0.0
C6130 C 0.39501 0.95158 0.99511 0.0
C6131 C 0.38851 0.93725 0.98602 0.0
C6132 C 0.39047 0.93456 0.97015 0.0
C6133 C 0.39896 0.94619 0.96334 0.0
C6134 C 0.40547 0.96055 0.97237 0.0
C6135 C 0.47631 0.00901 0.02321 0.0
C6136 C 0.4836 0.01146 0.00965 0.0
C6137 C 0.46027 0.00438 0.02267 0.0
C6138 C 0.45102 1.00204 0.00856 0.0
C6139 C 0.45827 0.00415 0.99496 0.0
C6140 C 0.47431 0.00889 0.9955 0.0
C6141 C 0.43382 0.99756 0.00802 0.0
C6142 C 0.42632 0.98383 0.99831 0.0
C6143 C 0.42486 0.00648 0.01734 0.0
C6144 C 0.4319 0.0214 0.02741 0.0
C6145 C 0.44057 0.03346 0.02112 0.0
C6146 C 0.44745 0.04736 0.03074 0.0
C6147 C 0.44563 0.04939 0.04665 0.0
C6148 C 0.43689 0.03754 0.05297 0.0
C6149 C 0.43 0.0236 0.0434 0.0
H6150 H 0.45098 0.06016 0.05408 0.0
H6151 H 0.38543 0.92346 0.96314 0.0
H6152 H 0.87592 0.60826 0.77921 0.0
H6153 H 0.86118 0.62847 0.77494 0.0
H6154 H 0.82615 0.59381 0.74666 0.0
H6155 H 0.84082 0.57362 0.75084 0.0
H6156 H 0.83392 0.61917 0.73312 0.0
H6157 H 0.82067 0.60828 0.78364 0.0
H6158 H 0.82632 0.60545 0.81089 0.0
H6159 H 0.84899 0.65327 0.82152 0.0
H6160 H 0.84364 0.65632 0.79426 0.0
H6161 H 0.77248 0.66114 0.73127 0.0
H6162 H 0.78898 0.64215 0.73471 0.0
H6163 H 0.82236 0.67816 0.76346 0.0
H6164 H 0.80595 0.69712 0.76012 0.0
H6165 H 0.81642 0.65285 0.77676 0.0
H6166 H 0.82928 0.66425 0.72684 0.0
H6167 H 0.82437 0.66735 0.69955 0.0
H6168 H 0.80324 0.61913 0.68776 0.0
H6169 H 0.80784 0.61579 0.71503 0.0
C6170 C 0.86502 0.60498 0.7722 0.0
C6171 C 0.85948 0.58944 0.76533 0.0
C6172 C 0.85665 0.61649 0.76975 0.0
C6173 C 0.84257 0.61255 0.76056 0.0
C6174 C 0.83703 0.59704 0.75372 0.0
C6175 C 0.84541 0.58556 0.7561 0.0
C6176 C 0.83357 0.62458 0.75797 0.0
C6177 C 0.82992 0.62643 0.74263 0.0
C6178 C 0.82878 0.63427 0.77045 0.0
C6179 C 0.83188 0.63248 0.78688 0.0
C6180 C 0.82695 0.61816 0.79176 0.0
C6181 C 0.83008 0.61652 0.80721 0.0
C6182 C 0.83804 0.62916 0.81792 0.0
C6183 C 0.84284 0.64348 0.81321 0.0
C6184 C 0.83975 0.64517 0.79776 0.0
C6185 C 0.7834 0.66498 0.7382 0.0
C6186 C 0.7879 0.68051 0.74555 0.0
C6187 C 0.79281 0.65417 0.74014 0.0
C6188 C 0.8069 0.65882 0.74928 0.0
C6189 C 0.81149 0.67437 0.75644 0.0
C6190 C 0.80209 0.68513 0.75456 0.0
C6191 C 0.81663 0.64737 0.75188 0.0
C6192 C 0.82043 0.64563 0.76724 0.0
C6193 C 0.82161 0.63782 0.73942 0.0
C6194 C 0.81877 0.63981 0.72301 0.0
C6195 C 0.82346 0.65434 0.71846 0.0
C6196 C 0.82076 0.65614 0.70299 0.0
C6197 C 0.81346 0.64346 0.69194 0.0
C6198 C 0.80887 0.62895 0.69633 0.0
C6199 C 0.81154 0.62709 0.71179 0.0
H6200 H 0.81139 0.64487 0.67996 0.0
H6201 H 0.84046 0.62787 0.82988 0.0
H6202 H 0.8256 0.61041 0.99553 0.0
H6203 H 0.84723 0.59687 0.99671 0.0
H6204 H 0.87844 0.64082 0.00933 0.0
H6205 H 0.85699 0.65454 0.00708 0.0
H6206 H 0.89102 0.62277 0.98994 0.0
H6207 H 0.86663 0.61622 0.0365 0.0
H6208 H 0.8451 0.60913 0.05224 0.0
H6209 H 0.83804 0.56183 0.0287 0.0
H6210 H 0.8594 0.56868 0.01267 0.0
H6211 H 0.9536 0.58988 0.01826 0.0
H6212 H 0.93283 0.60454 0.0157 0.0
H6213 H 0.90114 0.56186 0.99784 0.0
H6214 H 0.92185 0.54715 1.00014 0.0
H6215 H 0.88934 0.5798 0.02049 0.0
H6216 H 0.91442 0.58716 0.97399 0.0
H6217 H 0.93664 0.59483 0.95931 0.0
H6218 H 0.9432 0.64154 0.98432 0.0
H6219 H 0.92114 0.63409 0.99931 0.0
C6220 C 0.83706 0.61728 0.99833 0.0
C6221 C 0.83942 0.63365 1.00124 0.0
C6222 C 0.84945 0.60946 0.99924 0.0
C6223 C 0.86451 0.61777 0.00341 0.0
C6224 C 0.86695 0.6341 0.00618 0.0
C6225 C 0.85459 0.64194 0.00507 0.0
C6226 C 0.87769 0.60943 0.00482 0.0
C6227 C 0.89071 0.61352 0.99681 0.0
C6228 C 0.87731 0.59719 0.01359 0.0
C6229 C 0.86453 0.593 0.02329 0.0
C6230 C 0.86042 0.60433 0.03461 0.0
C6231 C 0.84826 0.60035 0.0436 0.0
C6232 C 0.84018 0.58504 0.04145 0.0
C6233 C 0.84429 0.57368 0.03034 0.0
C6234 C 0.85644 0.5776 0.02132 0.0
C6235 C 0.94228 0.58362 0.01354 0.0
C6236 C 0.93942 0.56729 0.00948 0.0
C6237 C 0.93038 0.59203 0.01214 0.0
C6238 C 0.9154 0.58431 0.00656 0.0
C6239 C 0.91257 0.56806 0.00227 0.0
C6240 C 0.92444 0.55966 0.00364 0.0
C6241 C 0.90254 0.59307 0.00554 0.0
C6242 C 0.88961 0.58907 0.01365 0.0
C6243 C 0.90309 0.60549 0.99702 0.0
C6244 C 0.91622 0.61003 0.98787 0.0
C6245 C 0.92066 0.59904 0.97643 0.0
C6246 C 0.93322 0.60336 0.96804 0.0
C6247 C 0.94135 0.61866 0.97091 0.0
C6248 C 0.9369 0.62969 0.98213 0.0
C6249 C 0.92437 0.62543 0.99056 0.0
H6250 H 0.95107 0.62197 0.96441 0.0
H6251 H 0.83077 0.58198 0.04841 0.0
H6252 H 0.22248 0.09549 0.77557 0.0
H6253 H 0.23431 0.12253 0.7754 0.0
H6254 H 0.19255 0.13016 0.75267 0.0
H6255 H 0.18059 0.1032 0.75287 0.0
H6256 H 0.21452 0.14548 0.74014 0.0
H6257 H 0.20677 0.14498 0.79381 0.0
H6258 H 0.20885 0.13627 0.81919 0.0
H6259 H 0.25813 0.14757 0.82102 0.0
H6260 H 0.25633 0.15618 0.79555 0.0
H6261 H 0.23534 0.22915 0.7512 0.0
H6262 H 0.2234 0.20213 0.75176 0.0
H6263 H 0.26534 0.19462 0.77431 0.0
H6264 H 0.27722 0.22174 0.774 0.0
H6265 H 0.24334 0.17923 0.78692 0.0
H6266 H 0.25105 0.17979 0.73324 0.0
H6267 H 0.24892 0.18862 0.70792 0.0
H6268 H 0.19965 0.17724 0.70614 0.0
H6269 H 0.20149 0.16853 0.73155 0.0
C6270 C 0.21558 0.10282 0.77067 0.0
C6271 C 0.20029 0.09653 0.76426 0.0
C6272 C 0.2225 0.11858 0.77058 0.0
C6273 C 0.21449 0.12903 0.76421 0.0
C6274 C 0.1993 0.12276 0.75769 0.0
C6275 C 0.19238 0.10701 0.75776 0.0
C6276 C 0.22185 0.14623 0.76419 0.0
C6277 C 0.22061 0.15281 0.75052 0.0
C6278 C 0.23029 0.15626 0.77743 0.0
C6279 C 0.23141 0.15106 0.7927 0.0
C6280 C 0.21805 0.1455 0.79957 0.0
C6281 C 0.21918 0.1406 0.81398 0.0
C6282 C 0.23361 0.14132 0.82169 0.0
C6283 C 0.24695 0.14699 0.81503 0.0
C6284 C 0.24589 0.15189 0.80061 0.0
C6285 C 0.24212 0.22183 0.7563 0.0
C6286 C 0.25745 0.22805 0.76251 0.0
C6287 C 0.23522 0.2061 0.75652 0.0
C6288 C 0.24331 0.19568 0.76285 0.0
C6289 C 0.25855 0.20198 0.76927 0.0
C6290 C 0.26545 0.21771 0.76905 0.0
C6291 C 0.236 0.17847 0.76288 0.0
C6292 C 0.23725 0.17189 0.77654 0.0
C6293 C 0.22756 0.16845 0.74964 0.0
C6294 C 0.22641 0.17366 0.73437 0.0
C6295 C 0.23976 0.17928 0.7275 0.0
C6296 C 0.2386 0.18424 0.71313 0.0
C6297 C 0.22416 0.18353 0.70545 0.0
C6298 C 0.21083 0.17781 0.71211 0.0
C6299 C 0.21193 0.17285 0.7265 0.0
H6300 H 0.22328 0.18738 0.69432 0.0
H6301 H 0.23446 0.13753 0.83285 0.0
H6302 H 0.35476 0.93626 0.27885 0.0
H6303 H 0.33753 0.91117 0.27464 0.0
H6304 H 0.29928 0.93296 0.26355 0.0
H6305 H 0.31669 0.95833 0.26718 0.0
H6306 H 0.29567 0.90979 0.28646 0.0
H6307 H 0.30742 0.91424 0.23453 0.0
H6308 H 0.32403 0.92067 0.21388 0.0
H6309 H 0.35143 0.88735 0.22415 0.0
H6310 H 0.33513 0.88087 0.245 0.0
H6311 H 0.26496 0.82584 0.26913 0.0
H6312 H 0.26868 0.85403 0.26906 0.0
H6313 H 0.31766 0.85574 0.26836 0.0
H6314 H 0.31391 0.82776 0.26786 0.0
H6315 H 0.30686 0.86869 0.24564 0.0
H6316 H 0.30007 0.86982 0.30128 0.0
H6317 H 0.28493 0.86356 0.32303 0.0
H6318 H 0.24953 0.88618 0.3066 0.0
H6319 H 0.26441 0.89243 0.28465 0.0
C6320 C 0.34274 0.93576 0.27533 0.0
C6321 C 0.33713 0.94924 0.27312 0.0
C6322 C 0.3329 0.92144 0.27304 0.0
C6323 C 0.31725 0.92031 0.26864 0.0
C6324 C 0.31139 0.93372 0.2669 0.0
C6325 C 0.32131 0.94814 0.26905 0.0
C6326 C 0.30738 0.90485 0.26587 0.0
C6327 C 0.29769 0.9008 0.27729 0.0
C6328 C 0.31018 0.89326 0.25393 0.0
C6329 C 0.32004 0.8971 0.24136 0.0
C6330 C 0.31705 0.90836 0.23246 0.0
C6331 C 0.3264 0.91199 0.2207 0.0
C6332 C 0.33878 0.90442 0.21771 0.0
C6333 C 0.34182 0.89319 0.22647 0.0
C6334 C 0.33251 0.88951 0.23823 0.0
C6335 C 0.27651 0.83239 0.26928 0.0
C6336 C 0.28917 0.82479 0.26841 0.0
C6337 C 0.27861 0.84841 0.26919 0.0
C6338 C 0.29343 0.85689 0.26853 0.0
C6339 C 0.30611 0.84935 0.26862 0.0
C6340 C 0.30399 0.83342 0.26842 0.0
C6341 C 0.29608 0.87346 0.26689 0.0
C6342 C 0.30433 0.87769 0.25451 0.0
C6343 C 0.2921 0.88513 0.27804 0.0
C6344 C 0.28324 0.8814 0.29124 0.0
C6345 C 0.289 0.87334 0.30225 0.0
C6346 C 0.28048 0.86983 0.31462 0.0
C6347 C 0.26625 0.87442 0.31617 0.0
C6348 C 0.26053 0.88259 0.30537 0.0
C6349 C 0.26901 0.88613 0.29297 0.0
H6350 H 0.25967 0.87168 0.32575 0.0
H6351 H 0.346 0.90726 0.2086 0.0
H6352 H 0.53295 0.33892 0.58771 0.0
H6353 H 0.53028 0.35843 0.57134 0.0
H6354 H 0.57506 0.35551 0.55541 0.0
H6355 H 0.57785 0.33593 0.57201 0.0
H6356 H 0.56918 0.38591 0.56066 0.0
H6357 H 0.54544 0.33645 0.5324 0.0
H6358 H 0.52906 0.3104 0.5283 0.0
H6359 H 0.48921 0.33101 0.53664 0.0
H6360 H 0.50538 0.35718 0.54105 0.0
H6361 H 0.54537 0.42996 0.50397 0.0
H6362 H 0.55511 0.40885 0.51418 0.0
H6363 H 0.51406 0.3997 0.53807 0.0
H6364 H 0.50415 0.42044 0.52764 0.0
H6365 H 0.52225 0.37313 0.52379 0.0
H6366 H 0.54735 0.42214 0.55649 0.0
H6367 H 0.56404 0.44808 0.56106 0.0
H6368 H 0.60172 0.42786 0.5438 0.0
H6369 H 0.58519 0.40183 0.53895 0.0
C6370 C 0.54228 0.34257 0.58083 0.0
C6371 C 0.55551 0.33586 0.58089 0.0
C6372 C 0.54074 0.35365 0.57149 0.0
C6373 C 0.55232 0.35806 0.56193 0.0
C6374 C 0.56598 0.3521 0.56265 0.0
C6375 C 0.56757 0.34101 0.57212 0.0
C6376 C 0.54961 0.3684 0.55079 0.0
C6377 C 0.55913 0.38303 0.55233 0.0
C6378 C 0.5365 0.36452 0.53994 0.0
C6379 C 0.52666 0.34879 0.53711 0.0
C6380 C 0.5332 0.33543 0.53345 0.0
C6381 C 0.52395 0.32064 0.53106 0.0
C6382 C 0.50811 0.31905 0.53222 0.0
C6383 C 0.50148 0.33226 0.53574 0.0
C6384 C 0.51069 0.34708 0.53816 0.0
C6385 C 0.53834 0.42324 0.51118 0.0
C6386 C 0.52404 0.42682 0.51509 0.0
C6387 C 0.54396 0.41131 0.51708 0.0
C6388 C 0.53535 0.40287 0.52697 0.0
C6389 C 0.52087 0.40612 0.53046 0.0
C6390 C 0.51527 0.41801 0.5246 0.0
C6391 C 0.54139 0.39091 0.5342 0.0
C6392 C 0.53251 0.3759 0.53184 0.0
C6393 C 0.55511 0.39443 0.54421 0.0
C6394 C 0.56499 0.41009 0.54716 0.0
C6395 C 0.55915 0.42326 0.55354 0.0
C6396 C 0.56859 0.43797 0.55621 0.0
C6397 C 0.58391 0.43962 0.55267 0.0
C6398 C 0.58984 0.42656 0.5465 0.0
C6399 C 0.58045 0.41184 0.54379 0.0
H6400 H 0.59121 0.45099 0.55475 0.0
H6401 H 0.50096 0.30759 0.53037 0.0
H6402 H 0.44518 0.75674 0.32719 0.0
H6403 H 0.42225 0.75407 0.30904 0.0
H6404 H 0.40125 0.78123 0.3442 0.0
H6405 H 0.4242 0.78416 0.36223 0.0
H6406 H 0.38198 0.75225 0.32771 0.0
H6407 H 0.41595 0.7992 0.31923 0.0
H6408 H 0.44029 0.81387 0.31261 0.0
H6409 H 0.43575 0.78417 0.2682 0.0
H6410 H 0.41147 0.76917 0.27468 0.0
H6411 H 0.32431 0.785 0.29819 0.0
H6412 H 0.34868 0.78125 0.30976 0.0
H6413 H 0.35916 0.75872 0.26531 0.0
H6414 H 0.33458 0.76249 0.25342 0.0
H6415 H 0.3843 0.78022 0.28259 0.0
H6416 H 0.34833 0.73596 0.289 0.0
H6417 H 0.32329 0.72208 0.29485 0.0
H6418 H 0.33118 0.74584 0.34207 0.0
H6419 H 0.35621 0.76008 0.33645 0.0
C6420 C 0.4356 0.76204 0.33099 0.0
C6421 C 0.43634 0.77067 0.346 0.0
C6422 C 0.4226 0.76053 0.32067 0.0
C6423 C 0.41016 0.76745 0.32537 0.0
C6424 C 0.41078 0.77579 0.34045 0.0
C6425 C 0.42385 0.77753 0.35066 0.0
C6426 C 0.39658 0.76644 0.31451 0.0
C6427 C 0.38245 0.75832 0.31782 0.0
C6428 C 0.39741 0.77396 0.30137 0.0
C6429 C 0.41204 0.78292 0.29754 0.0
C6430 C 0.42024 0.79568 0.30813 0.0
C6431 C 0.434 0.80408 0.30439 0.0
C6432 C 0.4396 0.79991 0.29002 0.0
C6433 C 0.43142 0.78736 0.27935 0.0
C6434 C 0.41767 0.7789 0.28305 0.0
C6435 C 0.33177 0.77932 0.29078 0.0
C6436 C 0.32745 0.7739 0.2749 0.0
C6437 C 0.34568 0.77716 0.29744 0.0
C6438 C 0.35551 0.76949 0.28841 0.0
C6439 C 0.3516 0.76458 0.27243 0.0
C6440 C 0.33759 0.76673 0.2657 0.0
C6441 C 0.36964 0.76641 0.29604 0.0
C6442 C 0.38387 0.77376 0.29218 0.0
C6443 C 0.36893 0.75804 0.30859 0.0
C6444 C 0.35414 0.74914 0.31228 0.0
C6445 C 0.34472 0.73828 0.30063 0.0
C6446 C 0.33053 0.73035 0.30389 0.0
C6447 C 0.32565 0.73309 0.31881 0.0
C6448 C 0.33499 0.74373 0.33052 0.0
C6449 C 0.34921 0.75171 0.32731 0.0
H6450 H 0.31464 0.72695 0.32126 0.0
H6451 H 0.45024 0.80645 0.28713 0.0
H6452 H 0.07139 0.68633 0.07891 0.0
H6453 H 0.07026 0.66216 0.06093 0.0
H6454 H 0.03953 0.67692 0.02859 0.0
H6455 H 0.04114 0.70159 0.0462 0.0
H6456 H 0.02892 0.64729 0.03791 0.0
H6457 H 0.07259 0.67444 0.01736 0.0
H6458 H 0.09818 0.69111 0.01898 0.0
H6459 H 0.11839 0.65786 0.0402 0.0
H6460 H 0.09288 0.64108 0.03892 0.0
H6461 H 0.02367 0.57307 0.99401 0.0
H6462 H 0.02822 0.60152 0.99875 0.0
H6463 H 0.06771 0.60239 0.03047 0.0
H6464 H 0.06362 0.57405 0.02524 0.0
H6465 H 0.07296 0.62617 0.01611 0.0
H6466 H 0.0311 0.6027 0.04274 0.0
H6467 H 0.00616 0.58607 0.04484 0.0
H6468 H 0.98332 0.61209 0.01628 0.0
H6469 H 0.00819 0.62875 0.01382 0.0
C6470 C 0.06474 0.6847 0.0678 0.0
C6471 C 0.05632 0.69591 0.06403 0.0
C6472 C 0.06407 0.67085 0.05757 0.0
C6473 C 0.05489 0.66789 0.04346 0.0
C6474 C 0.0467 0.6791 0.03946 0.0
C6475 C 0.04754 0.69309 0.04959 0.0
C6476 C 0.05282 0.65246 0.0337 0.0
C6477 C 0.03841 0.64275 0.03272 0.0
C6478 C 0.06539 0.64656 0.02746 0.0
C6479 C 0.08079 0.65653 0.02809 0.0
C6480 C 0.08247 0.67072 0.02246 0.0
C6481 C 0.09697 0.68019 0.02331 0.0
C6482 C 0.1099 0.67555 0.02971 0.0
C6483 C 0.10836 0.66143 0.03524 0.0
C6484 C 0.09389 0.65192 0.03443 0.0
C6485 C 0.03348 0.57938 0.00176 0.0
C6486 C 0.04318 0.57143 0.00945 0.0
C6487 C 0.03606 0.59559 0.00446 0.0
C6488 C 0.04809 0.60402 0.01522 0.0
C6489 C 0.05835 0.5961 0.02213 0.0
C6490 C 0.05597 0.57991 0.01918 0.0
C6491 C 0.04912 0.62085 0.0206 0.0
C6492 C 0.06333 0.63081 0.02084 0.0
C6493 C 0.03646 0.62691 0.02658 0.0
C6494 C 0.02151 0.61685 0.02795 0.0
C6495 C 0.02077 0.60479 0.0368 0.0
C6496 C 0.00666 0.59538 0.03807 0.0
C6497 C 0.99317 0.59803 0.0307 0.0
C6498 C 0.99378 0.61006 0.02198 0.0
C6499 C 0.00788 0.61948 0.02064 0.0
H6500 H 0.98225 0.59083 0.03182 0.0
H6501 H 0.12111 0.6829 0.03036 0.0
H6502 H 0.07224 0.30524 0.84264 0.0
H6503 H 0.09469 0.30697 0.82769 0.0
H6504 H 0.11766 0.28445 0.8601 0.0
H6505 H 0.09559 0.28347 0.87564 0.0
H6506 H 0.13706 0.30789 0.85186 0.0
H6507 H 0.09928 0.26414 0.82518 0.0
H6508 H 0.07373 0.25141 0.81233 0.0
H6509 H 0.07843 0.28204 0.7786 0.0
H6510 H 0.10393 0.29507 0.79137 0.0
H6511 H 0.19361 0.28185 0.80616 0.0
H6512 H 0.1719 0.28366 0.82184 0.0
H6513 H 0.15 0.30435 0.78705 0.0
H6514 H 0.17123 0.30171 0.77087 0.0
H6515 H 0.13 0.28325 0.79633 0.0
H6516 H 0.16809 0.32628 0.82184 0.0
H6517 H 0.19353 0.33949 0.83457 0.0
H6518 H 0.18831 0.31117 0.87028 0.0
H6519 H 0.16291 0.29763 0.85766 0.0
C6520 C 0.08217 0.3009 0.84676 0.0
C6521 C 0.0821 0.29413 0.86029 0.0
C6522 C 0.09492 0.30175 0.8381 0.0
C6523 C 0.1077 0.29559 0.84266 0.0
C6524 C 0.10785 0.28919 0.85636 0.0
C6525 C 0.09517 0.28848 0.86512 0.0
C6526 C 0.12078 0.29543 0.83295 0.0
C6527 C 0.13557 0.30237 0.83976 0.0
C6528 C 0.11871 0.2886 0.81706 0.0
C6529 C 0.10345 0.28066 0.80931 0.0
C6530 C 0.09482 0.26821 0.81508 0.0
C6531 C 0.08035 0.26094 0.80781 0.0
C6532 C 0.07445 0.26594 0.79468 0.0
C6533 C 0.08301 0.27819 0.78878 0.0
C6534 C 0.09748 0.28551 0.79602 0.0
C6535 C 0.18409 0.28659 0.80174 0.0
C6536 C 0.18415 0.29163 0.78725 0.0
C6537 C 0.17179 0.28784 0.81083 0.0
C6538 C 0.15948 0.2944 0.80573 0.0
C6539 C 0.15945 0.29935 0.79124 0.0
C6540 C 0.17165 0.29795 0.78207 0.0
C6541 C 0.14635 0.29561 0.81525 0.0
C6542 C 0.13152 0.28886 0.80841 0.0
C6543 C 0.1484 0.30269 0.83107 0.0
C6544 C 0.16366 0.31084 0.83872 0.0
C6545 C 0.17242 0.32278 0.83234 0.0
C6546 C 0.18682 0.33035 0.83955 0.0
C6547 C 0.19255 0.32615 0.8532 0.0
C6548 C 0.18386 0.3144 0.8597 0.0
C6549 C 0.16946 0.30679 0.85253 0.0
H6550 H 0.2037 0.33201 0.85876 0.0
H6551 H 0.06324 0.2603 0.78907 0.0
H6552 H 0.53725 0.71245 0.9171 0.0
H6553 H 0.53062 0.69035 0.93066 0.0
H6554 H 0.56343 0.71351 0.9691 0.0
H6555 H 0.57025 0.73559 0.95547 0.0
H6556 H 0.5652 0.6835 0.96211 0.0
H6557 H 0.52463 0.71277 0.97081 0.0
H6558 H 0.50381 0.72604 0.96312 0.0
H6559 H 0.47908 0.68308 0.93663 0.0
H6560 H 0.49985 0.66959 0.94399 0.0
H6561 H 0.53916 0.63635 0.01689 0.0
H6562 H 0.54518 0.65875 0.00365 0.0
H6563 H 0.51332 0.63504 0.96466 0.0
H6564 H 0.50684 0.61278 0.97807 0.0
H6565 H 0.51099 0.66531 0.97196 0.0
H6566 H 0.55147 0.63607 0.96313 0.0
H6567 H 0.57229 0.6227 0.97061 0.0
H6568 H 0.59721 0.66555 0.99716 0.0
H6569 H 0.57643 0.67913 0.99002 0.0
C6570 C 0.543 0.71283 0.92847 0.0
C6571 C 0.55418 0.72575 0.93531 0.0
C6572 C 0.5392 0.70023 0.9362 0.0
C6573 C 0.54635 0.70043 0.95099 0.0
C6574 C 0.55776 0.71316 0.9577 0.0
C6575 C 0.56166 0.72573 0.94991 0.0
C6576 C 0.54191 0.68735 0.95948 0.0
C6577 C 0.55339 0.67966 0.96447 0.0
C6578 C 0.52642 0.68212 0.96219 0.0
C6579 C 0.51386 0.6902 0.95784 0.0
C6580 C 0.5148 0.70618 0.96326 0.0
C6581 C 0.503 0.71374 0.95897 0.0
C6582 C 0.49015 0.70542 0.94936 0.0
C6583 C 0.48905 0.68951 0.94405 0.0
C6584 C 0.50082 0.6819 0.94829 0.0
C6585 C 0.53322 0.63602 0.00562 0.0
C6586 C 0.52256 0.6228 0.99849 0.0
C6587 C 0.5368 0.64875 0.99801 0.0
C6588 C 0.52988 0.64842 0.98309 0.0
C6589 C 0.51886 0.63546 0.97614 0.0
C6590 C 0.51524 0.62273 0.98376 0.0
C6591 C 0.5343 0.66152 0.97463 0.0
C6592 C 0.52281 0.66919 0.96963 0.0
C6593 C 0.54978 0.66672 0.9719 0.0
C6594 C 0.56231 0.65858 0.97617 0.0
C6595 C 0.56133 0.64261 0.97067 0.0
C6596 C 0.57313 0.635 0.97483 0.0
C6597 C 0.58604 0.64326 0.98439 0.0
C6598 C 0.58719 0.65916 0.98978 0.0
C6599 C 0.57541 0.66682 0.98567 0.0
H6600 H 0.59517 0.63734 0.9876 0.0
H6601 H 0.48102 0.71129 0.94605 0.0
H6602 H 0.08123 0.77578 0.67017 0.0
H6603 H 0.10507 0.77538 0.68547 0.0
H6604 H 0.08217 0.78124 0.72761 0.0
H6605 H 0.05821 0.78185 0.71236 0.0
H6606 H 0.11375 0.79858 0.72941 0.0
H6607 H 0.08393 0.74669 0.71395 0.0
H6608 H 0.0691 0.72492 0.69495 0.0
H6609 H 0.10866 0.723 0.66908 0.0
H6610 H 0.12366 0.74494 0.68779 0.0
H6611 H 0.17141 0.77031 0.77323 0.0
H6612 H 0.14727 0.77622 0.76231 0.0
H6613 H 0.15902 0.76032 0.71603 0.0
H6614 H 0.18257 0.75385 0.72694 0.0
H6615 H 0.13126 0.74798 0.71862 0.0
H6616 H 0.16109 0.79994 0.73232 0.0
H6617 H 0.17613 0.82299 0.74953 0.0
H6618 H 0.13783 0.8259 0.77708 0.0
H6619 H 0.12263 0.80272 0.76017 0.0
C6620 C 0.08136 0.77739 0.68272 0.0
C6621 C 0.06787 0.77874 0.6901 0.0
C6622 C 0.09495 0.77709 0.69142 0.0
C6623 C 0.09525 0.77812 0.7076 0.0
C6624 C 0.08208 0.78041 0.71511 0.0
C6625 C 0.06843 0.78063 0.7064 0.0
C6626 C 0.1089 0.77534 0.71639 0.0
C6627 C 0.11755 0.78749 0.72727 0.0
C6628 C 0.11382 0.76091 0.71333 0.0
C6629 C 0.10488 0.74754 0.70221 0.0
C6630 C 0.08943 0.7417 0.70415 0.0
C6631 C 0.081 0.72932 0.69344 0.0
C6632 C 0.08792 0.7226 0.6808 0.0
C6633 C 0.10331 0.72822 0.67887 0.0
C6634 C 0.11179 0.74062 0.68953 0.0
C6635 C 0.16872 0.76815 0.76075 0.0
C6636 C 0.17858 0.76145 0.75087 0.0
C6637 C 0.15505 0.7716 0.75452 0.0
C6638 C 0.15136 0.76874 0.73834 0.0
C6639 C 0.16154 0.76249 0.72854 0.0
C6640 C 0.17496 0.75879 0.73475 0.0
C6641 C 0.1366 0.77142 0.7314 0.0
C6642 C 0.12757 0.75912 0.72091 0.0
C6643 C 0.1315 0.78579 0.7347 0.0
C6644 C 0.14078 0.79949 0.74508 0.0
C6645 C 0.15593 0.80538 0.74215 0.0
C6646 C 0.16448 0.8185 0.75183 0.0
C6647 C 0.15794 0.8259 0.76439 0.0
C6648 C 0.14288 0.82016 0.76735 0.0
C6649 C 0.1343 0.80703 0.75773 0.0
H6650 H 0.1645 0.83612 0.7718 0.0
H6651 H 0.08138 0.71302 0.67252 0.0
H6652 H 0.08634 0.37585 0.43768 0.0
H6653 H 0.08206 0.40184 0.44892 0.0
H6654 H 0.03375 0.38809 0.43369 0.0
H6655 H 0.03791 0.36208 0.42273 0.0
H6656 H 0.05002 0.41832 0.4266 0.0
H6657 H 0.04097 0.38836 0.46835 0.0
H6658 H 0.04805 0.37145 0.48645 0.0
H6659 H 0.08776 0.40591 0.50515 0.0
H6660 H 0.08104 0.42294 0.48697 0.0
H6661 H 0.01909 0.47933 0.46919 0.0
H6662 H 0.02439 0.4544 0.45634 0.0
H6663 H 0.06874 0.46364 0.48262 0.0
H6664 H 0.06335 0.48819 0.49576 0.0
H6665 H 0.05501 0.4356 0.48372 0.0
H6666 H 0.06507 0.46599 0.44365 0.0
H6667 H 0.05979 0.48352 0.42548 0.0
H6668 H 0.02103 0.44958 0.40332 0.0
H6669 H 0.02594 0.43191 0.42152 0.0
C6670 C 0.07484 0.37845 0.43678 0.0
C6671 C 0.06241 0.36708 0.42951 0.0
C6672 C 0.07242 0.39319 0.44316 0.0
C6673 C 0.05761 0.39673 0.44207 0.0
C6674 C 0.04524 0.38548 0.43458 0.0
C6675 C 0.0476 0.37067 0.42846 0.0
C6676 C 0.05491 0.41213 0.44899 0.0
C6677 C 0.05094 0.42211 0.43908 0.0
C6678 C 0.05658 0.41706 0.46523 0.0
C6679 C 0.0606 0.40684 0.47617 0.0
C6680 C 0.0513 0.39226 0.47621 0.0
C6681 C 0.05523 0.38267 0.48651 0.0
C6682 C 0.06837 0.38758 0.49691 0.0
C6683 C 0.0776 0.40211 0.49706 0.0
C6684 C 0.07373 0.41174 0.48677 0.0
C6685 C 0.03 0.47606 0.47209 0.0
C6686 C 0.04078 0.48561 0.48349 0.0
C6687 C 0.03304 0.46187 0.46473 0.0
C6688 C 0.047 0.45724 0.46849 0.0
C6689 C 0.05788 0.46697 0.47962 0.0
C6690 C 0.05478 0.481 0.48709 0.0
C6691 C 0.05009 0.44197 0.46135 0.0
C6692 C 0.05413 0.43193 0.47122 0.0
C6693 C 0.04876 0.43713 0.44505 0.0
C6694 C 0.04578 0.44769 0.43405 0.0
C6695 C 0.05534 0.46231 0.43499 0.0
C6696 C 0.05243 0.47227 0.42467 0.0
C6697 C 0.04006 0.46769 0.41328 0.0
C6698 C 0.0306 0.45312 0.41216 0.0
C6699 C 0.03345 0.44312 0.42247 0.0
H6700 H 0.03783 0.47541 0.4053 0.0
H6701 H 0.07139 0.38014 0.50488 0.0
H6702 H 0.40724 0.25091 0.16355 0.0
H6703 H 0.38703 0.25191 0.18118 0.0
H6704 H 0.42018 0.27846 0.21786 0.0
H6705 H 0.44071 0.27664 0.20055 0.0
H6706 H 0.4013 0.2575 0.22903 0.0
H6707 H 0.39499 0.29632 0.19812 0.0
H6708 H 0.39219 0.30754 0.17422 0.0
H6709 H 0.35076 0.27419 0.15895 0.0
H6710 H 0.35339 0.26266 0.18269 0.0
H6711 H 0.33671 0.28399 0.26885 0.0
H6712 H 0.36111 0.28271 0.25722 0.0
H6713 H 0.33821 0.24467 0.22215 0.0
H6714 H 0.31398 0.24557 0.23374 0.0
H6715 H 0.35328 0.2744 0.21233 0.0
H6716 H 0.36104 0.23517 0.24364 0.0
H6717 H 0.36384 0.22547 0.26841 0.0
H6718 H 0.40292 0.26183 0.2839 0.0
H6719 H 0.40019 0.2719 0.25929 0.0
C6720 C 0.4103 0.25679 0.17542 0.0
C6721 C 0.42559 0.26374 0.18062 0.0
C6722 C 0.39869 0.25754 0.18543 0.0
C6723 C 0.40207 0.26554 0.20073 0.0
C6724 C 0.41733 0.27234 0.20605 0.0
C6725 C 0.429 0.27143 0.19609 0.0
C6726 C 0.38961 0.26662 0.21115 0.0
C6727 C 0.39091 0.26144 0.2255 0.0
C6728 C 0.37604 0.27172 0.2065 0.0
C6729 C 0.37446 0.27856 0.19214 0.0
C6730 C 0.38534 0.2913 0.18961 0.0
C6731 C 0.38377 0.29774 0.1761 0.0
C6732 C 0.37133 0.29156 0.16505 0.0
C6733 C 0.36043 0.27893 0.16749 0.0
C6734 C 0.36193 0.27247 0.18099 0.0
C6735 C 0.33698 0.27505 0.25896 0.0
C6736 C 0.32339 0.26506 0.25204 0.0
C6737 C 0.35089 0.27436 0.25234 0.0
C6738 C 0.35128 0.2637 0.2388 0.0
C6739 C 0.33801 0.25301 0.23258 0.0
C6740 C 0.3242 0.25358 0.23922 0.0
C6741 C 0.36487 0.26488 0.22988 0.0
C6742 C 0.36377 0.27061 0.21587 0.0
C6743 C 0.37863 0.26049 0.23494 0.0
C6744 C 0.38028 0.25442 0.24971 0.0
C6745 C 0.37012 0.24121 0.2524 0.0
C6746 C 0.37172 0.23561 0.26639 0.0
C6747 C 0.38352 0.24306 0.27775 0.0
C6748 C 0.39377 0.25609 0.27511 0.0
C6749 C 0.3922 0.26175 0.26114 0.0
H6750 H 0.38474 0.23871 0.28857 0.0
H6751 H 0.37012 0.29658 0.15462 0.0
H6752 H 0.58955 0.49632 0.33653 0.0
H6753 H 0.57753 0.49811 0.3611 0.0
H6754 H 0.61529 0.53395 0.38236 0.0
H6755 H 0.62754 0.53202 0.35789 0.0
H6756 H 0.60771 0.51656 0.40368 0.0
H6757 H 0.57637 0.54013 0.37102 0.0
H6758 H 0.55985 0.54142 0.34774 0.0
H6759 H 0.52781 0.50187 0.35608 0.0
H6760 H 0.54424 0.50023 0.37931 0.0
H6761 H 0.57174 0.54182 0.47286 0.0
H6762 H 0.58385 0.53923 0.44832 0.0
H6763 H 0.54458 0.50531 0.42692 0.0
H6764 H 0.53235 0.50799 0.4515 0.0
H6765 H 0.55289 0.52119 0.40562 0.0
H6766 H 0.58305 0.49712 0.43786 0.0
H6767 H 0.59951 0.49405 0.4605 0.0
H6768 H 0.63347 0.53234 0.45273 0.0
H6769 H 0.61713 0.53579 0.43016 0.0
C6770 C 0.5955 0.50459 0.34635 0.0
C6771 C 0.60978 0.51403 0.3446 0.0
C6772 C 0.58839 0.50574 0.36064 0.0
C6773 C 0.5951 0.51638 0.37413 0.0
C6774 C 0.60948 0.52563 0.3725 0.0
C6775 C 0.61654 0.52458 0.35818 0.0
C6776 C 0.58732 0.51785 0.38972 0.0
C6777 C 0.59577 0.51782 0.40398 0.0
C6778 C 0.5715 0.519 0.39075 0.0
C6779 C 0.56162 0.51996 0.37681 0.0
C6780 C 0.56586 0.53164 0.36782 0.0
C6781 C 0.5565 0.53245 0.35465 0.0
C6782 C 0.54281 0.52171 0.35041 0.0
C6783 C 0.53843 0.51016 0.35936 0.0
C6784 C 0.54776 0.5093 0.37254 0.0
C6785 C 0.56555 0.53378 0.46299 0.0
C6786 C 0.55082 0.52519 0.46462 0.0
C6787 C 0.57267 0.53217 0.44874 0.0
C6788 C 0.56554 0.52183 0.43522 0.0
C6789 C 0.5507 0.5134 0.43679 0.0
C6790 C 0.5436 0.51495 0.45109 0.0
C6791 C 0.5733 0.52001 0.41964 0.0
C6792 C 0.56485 0.51997 0.40537 0.0
C6793 C 0.58908 0.51859 0.4186 0.0
C6794 C 0.59876 0.51683 0.43241 0.0
C6795 C 0.59395 0.505 0.44108 0.0
C6796 C 0.60327 0.50316 0.45388 0.0
C6797 C 0.6175 0.51302 0.45808 0.0
C6798 C 0.62243 0.52473 0.44948 0.0
C6799 C 0.61314 0.52663 0.43668 0.0
H6800 H 0.62472 0.51156 0.46796 0.0
H6801 H 0.53557 0.52235 0.34021 0.0
H6802 H 0.29627 0.88595 0.06327 0.0
H6803 H 0.29998 0.87239 0.08508 0.0
H6804 H 0.25302 0.87289 0.09537 0.0
H6805 H 0.24939 0.88705 0.07392 0.0
H6806 H 0.27188 0.87982 0.12162 0.0
H6807 H 0.26384 0.83987 0.07639 0.0
H6808 H 0.2687 0.82754 0.05031 0.0
H6809 H 0.31511 0.82676 0.06685 0.0
H6810 H 0.31059 0.83928 0.09299 0.0
H6811 H 0.26616 0.82141 0.17015 0.0
H6812 H 0.26266 0.83679 0.14968 0.0
H6813 H 0.30963 0.83695 0.13911 0.0
H6814 H 0.31328 0.82174 0.15964 0.0
H6815 H 0.29057 0.82973 0.1131 0.0
H6816 H 0.29893 0.86951 0.15813 0.0
H6817 H 0.29452 0.88205 0.18428 0.0
H6818 H 0.24807 0.88333 0.16831 0.0
H6819 H 0.25215 0.87061 0.1421 0.0
C6820 C 0.28676 0.88336 0.07026 0.0
C6821 C 0.27251 0.88759 0.06676 0.0
C6822 C 0.28886 0.87544 0.08266 0.0
C6823 C 0.27671 0.8714 0.09177 0.0
C6824 C 0.26254 0.8758 0.08847 0.0
C6825 C 0.26045 0.88377 0.07609 0.0
C6826 C 0.27878 0.86253 0.10466 0.0
C6827 C 0.27576 0.86876 0.11971 0.0
C6828 C 0.28421 0.84827 0.10229 0.0
C6829 C 0.28691 0.84064 0.08661 0.0
C6830 C 0.27511 0.83717 0.07444 0.0
C6831 C 0.2778 0.83013 0.05965 0.0
C6832 C 0.29222 0.8264 0.05692 0.0
C6833 C 0.30396 0.82967 0.06898 0.0
C6834 C 0.30133 0.83672 0.08379 0.0
C6835 C 0.27582 0.82491 0.16364 0.0
C6836 C 0.29 0.82028 0.16655 0.0
C6837 C 0.27379 0.83368 0.1519 0.0
C6838 C 0.2859 0.83811 0.14288 0.0
C6839 C 0.30009 0.83362 0.14585 0.0
C6840 C 0.30214 0.82487 0.15757 0.0
C6841 C 0.2837 0.84702 0.13006 0.0
C6842 C 0.28668 0.84079 0.11501 0.0
C6843 C 0.27829 0.86128 0.13246 0.0
C6844 C 0.2758 0.86896 0.14819 0.0
C6845 C 0.28774 0.87235 0.16023 0.0
C6846 C 0.2853 0.87951 0.17505 0.0
C6847 C 0.27101 0.88345 0.17797 0.0
C6848 C 0.25913 0.88026 0.16604 0.0
C6849 C 0.2615 0.87309 0.15119 0.0
H6850 H 0.26914 0.88899 0.18945 0.0
H6851 H 0.29428 0.82096 0.04546 0.0
H6852 H 0.96804 0.55081 0.84781 0.0
H6853 H 0.98398 0.55177 0.87192 0.0
H6854 H 0.94728 0.52086 0.8879 0.0
H6855 H 0.93114 0.5204 0.86427 0.0
H6856 H 0.96033 0.54332 0.9107 0.0
H6857 H 0.97741 0.50748 0.87047 0.0
H6858 H 0.98784 0.49998 0.84543 0.0
H6859 H 0.02865 0.53448 0.85973 0.0
H6860 H 0.01836 0.54232 0.8848 0.0
H6861 H 0.99334 0.50656 0.9651 0.0
H6862 H 0.98132 0.5112 0.94088 0.0
H6863 H 0.02266 0.54253 0.93446 0.0
H6864 H 0.03493 0.53772 0.95857 0.0
H6865 H 0.00971 0.5242 0.9074 0.0
H6866 H 0.99298 0.5569 0.94988 0.0
H6867 H 0.98176 0.5629 0.97479 0.0
H6868 H 0.93932 0.53263 0.95611 0.0
H6869 H 0.95035 0.52624 0.93119 0.0
C6870 C 0.96331 0.54449 0.85663 0.0
C6871 C 0.94843 0.53542 0.85416 0.0
C6872 C 0.97245 0.54492 0.87028 0.0
C6873 C 0.96685 0.5362 0.88153 0.0
C6874 C 0.95181 0.52763 0.87931 0.0
C6875 C 0.94267 0.52727 0.86577 0.0
C6876 C 0.97666 0.53545 0.89547 0.0
C6877 C 0.97111 0.53911 0.91 0.0
C6878 C 0.99089 0.5303 0.89448 0.0
C6879 C 0.99704 0.52562 0.87941 0.0
C6880 C 0.98855 0.51356 0.86822 0.0
C6881 C 0.99444 0.50922 0.85403 0.0
C6882 C 0.00887 0.51678 0.85097 0.0
C6883 C 0.01746 0.52866 0.86211 0.0
C6884 C 0.0116 0.53305 0.8763 0.0
C6885 C 0.99995 0.51428 0.95844 0.0
C6886 C 0.01499 0.52192 0.96377 0.0
C6887 C 0.99305 0.51698 0.94467 0.0
C6888 C 1.00101 0.52752 0.93619 0.0
C6889 C 0.01633 0.53448 0.94099 0.0
C6890 C 0.02331 0.53168 0.95471 0.0
C6891 C 0.99309 0.53158 0.92256 0.0
C6892 C 0.99906 0.52866 0.90813 0.0
C6893 C 0.97913 0.53722 0.92361 0.0
C6894 C 0.97253 0.54104 0.93867 0.0
C6895 C 0.98129 0.55143 0.95112 0.0
C6896 C 0.97496 0.55491 0.96524 0.0
C6897 C 0.95983 0.54815 0.96701 0.0
C6898 C 0.95103 0.53787 0.95471 0.0
C6899 C 0.95731 0.53433 0.94058 0.0
H6900 H 0.95488 0.55089 0.97788 0.0
H6901 H 0.01342 0.51341 0.83999 0.0
H6902 H 0.30097 0.22053 0.58361 0.0
H6903 H 0.30264 0.23014 0.61165 0.0
H6904 H 0.25804 0.24291 0.60649 0.0
H6905 H 0.25618 0.23303 0.57846 0.0
H6906 H 0.28258 0.26634 0.62634 0.0
H6907 H 0.25793 0.21215 0.61922 0.0
H6908 H 0.256 0.18413 0.60961 0.0
H6909 H 0.29852 0.18446 0.63597 0.0
H6910 H 0.30083 0.21256 0.64555 0.0
H6911 H 0.26362 0.27684 0.70454 0.0
H6912 H 0.26385 0.26932 0.67649 0.0
H6913 H 0.30198 0.24608 0.68383 0.0
H6914 H 0.30166 0.25333 0.71194 0.0
H6915 H 0.28164 0.2283 0.66261 0.0
H6916 H 0.30683 0.28116 0.67061 0.0
H6917 H 0.31053 0.30935 0.68028 0.0
H6918 H 0.26985 0.31216 0.65248 0.0
H6919 H 0.26576 0.28393 0.64283 0.0
C6920 C 0.2916 0.22555 0.58843 0.0
C6921 C 0.27844 0.22604 0.57885 0.0
C6922 C 0.29254 0.23097 0.60445 0.0
C6923 C 0.28046 0.23722 0.61115 0.0
C6924 C 0.26751 0.23816 0.60155 0.0
C6925 C 0.26643 0.23246 0.58557 0.0
C6926 C 0.28108 0.24219 0.62826 0.0
C6927 C 0.28219 0.25803 0.63429 0.0
C6928 C 0.28107 0.2314 0.63863 0.0
C6929 C 0.27965 0.2145 0.63295 0.0
C6930 C 0.26695 0.20629 0.62285 0.0
C6931 C 0.26577 0.19038 0.61743 0.0
C6932 C 0.27715 0.18253 0.62214 0.0
C6933 C 0.28972 0.19056 0.63231 0.0
C6934 C 0.29097 0.20648 0.63774 0.0
C6935 C 0.27213 0.2702 0.70022 0.0
C6936 C 0.28264 0.26573 0.71056 0.0
C6937 C 0.27228 0.26595 0.68413 0.0
C6938 C 0.28304 0.25725 0.67796 0.0
C6939 C 0.29356 0.25279 0.68826 0.0
C6940 C 0.29339 0.25699 0.70436 0.0
C6941 C 0.28307 0.25252 0.66081 0.0
C6942 C 0.28208 0.23669 0.65474 0.0
C6943 C 0.28346 0.26337 0.65042 0.0
C6944 C 0.28591 0.28039 0.65611 0.0
C6945 C 0.2986 0.28776 0.66665 0.0
C6946 C 0.30078 0.30375 0.67212 0.0
C6947 C 0.29041 0.31253 0.66703 0.0
C6948 C 0.27786 0.30534 0.65643 0.0
C6949 C 0.27561 0.28934 0.65095 0.0
H6950 H 0.29212 0.32491 0.67128 0.0
H6951 H 0.27622 0.17021 0.61794 0.0
H6952 H 0.61569 0.53608 0.18252 0.0
H6953 H 0.60378 0.53816 0.1572 0.0
H6954 H 0.58824 0.48857 0.14767 0.0
H6955 H 0.6005 0.48634 0.17289 0.0
H6956 H 0.59668 0.49683 0.12132 0.0
H6957 H 0.56355 0.51746 0.15741 0.0
H6958 H 0.55705 0.53477 0.18001 0.0
H6959 H 0.57457 0.57472 0.15966 0.0
H6960 H 0.58133 0.55765 0.13701 0.0
H6961 H 0.54729 0.49676 0.05282 0.0
H6962 H 0.55853 0.49414 0.0783 0.0
H6963 H 0.569 0.54405 0.0911 0.0
H6964 H 0.55697 0.54661 0.06587 0.0
H6965 H 0.56315 0.53542 0.11601 0.0
H6966 H 0.59719 0.51567 0.08054 0.0
H6967 H 0.60432 0.49893 0.05787 0.0
H6968 H 0.58631 0.45824 0.07685 0.0
H6969 H 0.57893 0.47475 0.09958 0.0
C6970 C 0.60987 0.52548 0.17514 0.0
C6971 C 0.60933 0.51099 0.18035 0.0
C6972 C 0.60276 0.52674 0.16045 0.0
C6973 C 0.59464 0.51359 0.15003 0.0
C6974 C 0.59422 0.49908 0.1551 0.0
C6975 C 0.60125 0.49782 0.16985 0.0
C6976 C 0.58678 0.51494 0.13405 0.0
C6977 C 0.5892 0.50518 0.12033 0.0
C6978 C 0.57717 0.52601 0.13203 0.0
C6979 C 0.57308 0.53628 0.14559 0.0
C6980 C 0.56611 0.52994 0.1578 0.0
C6981 C 0.56236 0.53971 0.17061 0.0
C6982 C 0.56543 0.55584 0.17129 0.0
C6983 C 0.57221 0.56223 0.15913 0.0
C6984 C 0.57599 0.55251 0.1463 0.0
C6985 C 0.55197 0.50726 0.06099 0.0
C6986 C 0.55108 0.52194 0.05682 0.0
C6987 C 0.55869 0.50575 0.07577 0.0
C6988 C 0.56531 0.51885 0.08714 0.0
C6989 C 0.56423 0.53353 0.083 0.0
C6990 C 0.55728 0.53503 0.0683 0.0
C6991 C 0.57309 0.51736 0.10317 0.0
C6992 C 0.57065 0.52708 0.11693 0.0
C6993 C 0.58283 0.50637 0.10521 0.0
C6994 C 0.58738 0.49643 0.09167 0.0
C6995 C 0.59469 0.50315 0.07984 0.0
C6996 C 0.59878 0.49371 0.06699 0.0
C6997 C 0.59574 0.47753 0.0659 0.0
C6998 C 0.58865 0.47077 0.0777 0.0
C6999 C 0.58452 0.48016 0.09058 0.0
H7000 H 0.5989 0.47024 0.05593 0.0
H7001 H 0.56253 0.56338 0.18122 0.0
H7002 H 0.24814 0.86041 0.92116 0.0
H7003 H 0.25098 0.84335 0.89712 0.0
H7004 H 0.29268 0.87414 0.89086 0.0
H7005 H 0.28956 0.89162 0.91447 0.0
H7006 H 0.27621 0.86436 0.86375 0.0
H7007 H 0.29283 0.83928 0.90535 0.0
H7008 H 0.2901 0.82794 0.92932 0.0
H7009 H 0.25082 0.7947 0.90716 0.0
H7010 H 0.2532 0.80597 0.88312 0.0
H7011 H 0.30432 0.81184 0.80698 0.0
H7012 H 0.3024 0.82846 0.83174 0.0
H7013 H 0.25889 0.79991 0.83669 0.0
H7014 H 0.26072 0.78333 0.81207 0.0
H7015 H 0.27649 0.80845 0.8644 0.0
H7016 H 0.25966 0.83257 0.82295 0.0
H7017 H 0.26205 0.84303 0.7985 0.0
H7018 H 0.3004 0.87789 0.81997 0.0
H7019 H 0.29861 0.86727 0.84442 0.0
C7020 C 0.25782 0.8637 0.91459 0.0
C7021 C 0.26867 0.87742 0.91993 0.0
C7022 C 0.25953 0.85381 0.90089 0.0
C7023 C 0.27221 0.85726 0.89223 0.0
C7024 C 0.28285 0.87111 0.89732 0.0
C7025 C 0.28112 0.88104 0.91097 0.0
C7026 C 0.27452 0.84641 0.87799 0.0
C7027 C 0.27649 0.85219 0.86398 0.0
C7028 C 0.27451 0.8304 0.87806 0.0
C7029 C 0.27312 0.82356 0.89249 0.0
C7030 C 0.28355 0.82962 0.90563 0.0
C7031 C 0.28208 0.82319 0.91922 0.0
C7032 C 0.27027 0.81063 0.91978 0.0
C7033 C 0.25995 0.80444 0.90672 0.0
C7034 C 0.26136 0.81083 0.89311 0.0
C7035 C 0.2945 0.80892 0.81349 0.0
C7036 C 0.28267 0.79625 0.80749 0.0
C7037 C 0.29335 0.81851 0.82759 0.0
C7038 C 0.28039 0.81556 0.83602 0.0
C7039 C 0.26898 0.80246 0.83042 0.0
C7040 C 0.27004 0.79299 0.8163 0.0
C7041 C 0.27832 0.82644 0.85026 0.0
C7042 C 0.2763 0.82065 0.86422 0.0
C7043 C 0.27817 0.8424 0.8501 0.0
C7044 C 0.27912 0.849 0.83549 0.0
C7045 C 0.2687 0.84238 0.82244 0.0
C7046 C 0.26993 0.84835 0.80857 0.0
C7047 C 0.28135 0.86114 0.80768 0.0
C7048 C 0.29157 0.86798 0.82067 0.0
C7049 C 0.29048 0.86196 0.83453 0.0
H7050 H 0.28226 0.86576 0.79694 0.0
H7051 H 0.26915 0.80567 0.93031 0.0
H7052 H 0.92238 0.50966 0.69014 0.0
H7053 H 0.93224 0.50237 0.66502 0.0
H7054 H 0.97594 0.50031 0.68838 0.0
H7055 H 0.96634 0.50811 0.71348 0.0
H7056 H 0.9791 0.51598 0.66431 0.0
H7057 H 0.95007 0.46734 0.67412 0.0
H7058 H 0.92671 0.45029 0.67982 0.0
H7059 H 0.90282 0.4568 0.63787 0.0
H7060 H 0.92598 0.47407 0.63202 0.0
H7061 H 0.01656 0.48134 0.60733 0.0
H7062 H 1.00161 0.48063 0.62974 0.0
H7063 H 0.96151 0.48583 0.60207 0.0
H7064 H 0.97625 0.48588 0.57925 0.0
H7065 H 0.95488 0.46851 0.62712 0.0
H7066 H 0.98278 0.51732 0.61748 0.0
H7067 H 0.00563 0.53474 0.61125 0.0
H7068 H 0.03077 0.52877 0.65272 0.0
H7069 H 0.00813 0.51107 0.65903 0.0
C7070 C 0.93415 0.50786 0.68988 0.0
C7071 C 0.94363 0.50945 0.70371 0.0
C7072 C 0.93968 0.50351 0.67557 0.0
C7073 C 0.95471 0.5006 0.67494 0.0
C7074 C 0.96426 0.50243 0.6887 0.0
C7075 C 0.95877 0.50681 0.70299 0.0
C7076 C 0.96072 0.49602 0.65994 0.0
C7077 C 0.97391 0.5055 0.65628 0.0
C7078 C 0.95358 0.48263 0.64928 0.0
C7079 C 0.93971 0.47211 0.65271 0.0
C7080 C 0.9398 0.46522 0.66616 0.0
C7081 C 0.9266 0.4555 0.66942 0.0
C7082 C 0.91327 0.45249 0.65924 0.0
C7083 C 0.91314 0.45916 0.64576 0.0
C7084 C 0.92631 0.4689 0.64246 0.0
C7085 C 0.0044 0.48161 0.60576 0.0
C7086 C 0.99765 0.48404 0.59162 0.0
C7087 C 0.99589 0.48126 0.61862 0.0
C7088 C 0.98063 0.48355 0.61754 0.0
C7089 C 0.97334 0.48416 0.60307 0.0
C7090 C 0.98181 0.48438 0.59013 0.0
C7091 C 0.97347 0.48823 0.63182 0.0
C7092 C 0.96004 0.47893 0.63523 0.0
C7093 C 0.98026 0.5019 0.64225 0.0
C7094 C 0.99381 0.51275 0.63864 0.0
C7095 C 0.99322 0.51963 0.6252 0.0
C7096 C 0.00612 0.52956 0.62167 0.0
C7097 C 0.01966 0.53284 0.63157 0.0
C7098 C 0.02029 0.52621 0.64505 0.0
C7099 C 0.00742 0.51623 0.64862 0.0
H7100 H 0.02964 0.54053 0.62881 0.0
H7101 H 0.90306 0.44497 0.66178 0.0
H7102 H 0.28876 0.19932 0.41024 0.0
H7103 H 0.28964 0.20838 0.38525 0.0
H7104 H 0.26568 0.24511 0.40256 0.0
H7105 H 0.26469 0.23604 0.4276 0.0
H7106 H 0.25397 0.23259 0.3744 0.0
H7107 H 0.3051 0.25187 0.39776 0.0
H7108 H 0.33026 0.25072 0.41071 0.0
H7109 H 0.3389 0.21865 0.37152 0.0
H7110 H 0.31368 0.21943 0.35842 0.0
H7111 H 0.27102 0.27878 0.31534 0.0
H7112 H 0.27015 0.2691 0.34007 0.0
H7113 H 0.28712 0.22849 0.31958 0.0
H7114 H 0.28784 0.23801 0.29464 0.0
H7115 H 0.3025 0.24294 0.34902 0.0
H7116 H 0.25053 0.22308 0.32651 0.0
H7117 H 0.22527 0.22448 0.314 0.0
H7118 H 0.21898 0.2593 0.35189 0.0
H7119 H 0.24417 0.25796 0.36473 0.0
C7120 C 0.28383 0.20945 0.40883 0.0
C7121 C 0.27672 0.21698 0.42105 0.0
C7122 C 0.28434 0.21463 0.39448 0.0
C7123 C 0.27791 0.2276 0.39198 0.0
C7124 C 0.27072 0.23508 0.40412 0.0
C7125 C 0.27014 0.22985 0.41846 0.0
C7126 C 0.27843 0.23316 0.37666 0.0
C7127 C 0.26465 0.23505 0.36901 0.0
C7128 C 0.29227 0.23612 0.36933 0.0
C7129 C 0.30742 0.23558 0.37718 0.0
C7130 C 0.3123 0.24446 0.39196 0.0
C7131 C 0.32659 0.2439 0.39932 0.0
C7132 C 0.33615 0.23458 0.39196 0.0
C7133 C 0.33146 0.22584 0.37721 0.0
C7134 C 0.31718 0.22634 0.36981 0.0
C7135 C 0.27457 0.26778 0.31605 0.0
C7136 C 0.27953 0.25919 0.30299 0.0
C7137 C 0.274 0.26223 0.33021 0.0
C7138 C 0.27851 0.24803 0.3317 0.0
C7139 C 0.28358 0.23947 0.31871 0.0
C7140 C 0.28394 0.24491 0.30445 0.0
C7141 C 0.27808 0.2423 0.34687 0.0
C7142 C 0.29186 0.24043 0.35448 0.0
C7143 C 0.2643 0.23951 0.35424 0.0
C7144 C 0.24926 0.24051 0.3465 0.0
C7145 C 0.2438 0.23111 0.33212 0.0
C7146 C 0.22948 0.23186 0.32499 0.0
C7147 C 0.22055 0.24204 0.3321 0.0
C7148 C 0.22591 0.25144 0.34639 0.0
C7149 C 0.24017 0.25063 0.35364 0.0
H7150 H 0.20947 0.24263 0.32654 0.0
H7151 H 0.34721 0.23417 0.39767 0.0
H7152 H 0.36431 0.56524 0.50379 0.0
H7153 H 0.3891 0.5568 0.50116 0.0
H7154 H 0.41267 0.60223 0.52363 0.0
H7155 H 0.38789 0.61077 0.52626 0.0
H7156 H 0.42664 0.59123 0.49752 0.0
H7157 H 0.40929 0.57213 0.54331 0.0
H7158 H 0.39086 0.55773 0.5584 0.0
H7159 H 0.39104 0.51532 0.52709 0.0
H7160 H 0.40934 0.5295 0.51169 0.0
H7161 H 0.50087 0.57078 0.51073 0.0
H7162 H 0.47657 0.58037 0.51228 0.0
H7163 H 0.45143 0.53371 0.49681 0.0
H7164 H 0.47556 0.52405 0.49553 0.0
H7165 H 0.4382 0.54579 0.51969 0.0
H7166 H 0.45442 0.5635 0.47357 0.0
H7167 H 0.47082 0.57708 0.45619 0.0
H7168 H 0.47146 0.6208 0.48564 0.0
H7169 H 0.45525 0.60744 0.50335 0.0
C7170 C 0.37475 0.57349 0.50815 0.0
C7171 C 0.37397 0.58871 0.5153 0.0
C7172 C 0.38897 0.5686 0.50671 0.0
C7173 C 0.40289 0.5788 0.51228 0.0
C7174 C 0.40217 0.59407 0.51925 0.0
C7175 C 0.38794 0.59891 0.52086 0.0
C7176 C 0.41812 0.57356 0.51082 0.0
C7177 C 0.42927 0.58144 0.50259 0.0
C7178 C 0.42149 0.56048 0.51697 0.0
C7179 C 0.41058 0.55191 0.52627 0.0
C7180 C 0.40532 0.55975 0.53958 0.0
C7181 C 0.39491 0.55163 0.5482 0.0
C7182 C 0.38976 0.53563 0.54369 0.0
C7183 C 0.39503 0.52771 0.53057 0.0
C7184 C 0.40544 0.53579 0.52189 0.0
C7185 C 0.4902 0.56256 0.50744 0.0
C7186 C 0.49035 0.54658 0.50296 0.0
C7187 C 0.47621 0.56809 0.50831 0.0
C7188 C 0.46194 0.55784 0.50463 0.0
C7189 C 0.46213 0.54195 0.49982 0.0
C7190 C 0.47606 0.53643 0.49899 0.0
C7191 C 0.44684 0.56344 0.50631 0.0
C7192 C 0.43568 0.55562 0.51463 0.0
C7193 C 0.44339 0.57645 0.50005 0.0
C7194 C 0.45374 0.58445 0.48986 0.0
C7195 C 0.45823 0.57598 0.47646 0.0
C7196 C 0.46744 0.58364 0.46652 0.0
C7197 C 0.47213 0.59979 0.46979 0.0
C7198 C 0.46778 0.60829 0.48311 0.0
C7199 C 0.45859 0.60068 0.4931 0.0
H7200 H 0.47908 0.60571 0.46196 0.0
H7201 H 0.3817 0.52936 0.55038 0.0
H7202 H 0.87939 0.90818 0.51646 0.0
H7203 H 0.90434 0.92455 0.51604 0.0
H7204 H 0.88883 0.96304 0.5431 0.0
H7205 H 0.86336 0.94705 0.54258 0.0
H7206 H 0.90445 0.97351 0.52198 0.0
H7207 H 0.91435 0.94055 0.55851 0.0
H7208 H 0.91463 0.91588 0.56823 0.0
H7209 H 0.94266 0.90166 0.5322 0.0
H7210 H 0.94236 0.92615 0.52211 0.0
H7211 H 0.98068 0.01894 0.53621 0.0
H7212 H 0.95564 0.0039 0.54008 0.0
H7213 H 0.96542 0.96407 0.50987 0.0
H7214 H 0.99041 0.97885 0.50612 0.0
H7215 H 0.95285 0.95535 0.53476 0.0
H7216 H 0.94143 0.98773 0.49749 0.0
H7217 H 0.94144 0.01263 0.48813 0.0
H7218 H 0.91653 0.02814 0.52641 0.0
H7219 H 0.91654 0.00339 0.53611 0.0
C7220 C 0.88112 0.92018 0.52217 0.0
C7221 C 0.86916 0.9262 0.52953 0.0
C7222 C 0.89559 0.9295 0.52214 0.0
C7223 C 0.8987 0.94503 0.52981 0.0
C7224 C 0.88683 0.9511 0.53718 0.0
C7225 C 0.87225 0.94183 0.53702 0.0
C7226 C 0.91417 0.955 0.52973 0.0
C7227 C 0.91501 0.96961 0.52505 0.0
C7228 C 0.92807 0.94992 0.53346 0.0
C7229 C 0.92822 0.93515 0.53948 0.0
C7230 C 0.92047 0.93212 0.55258 0.0
C7231 C 0.92065 0.91817 0.55817 0.0
C7232 C 0.92863 0.9072 0.55082 0.0
C7233 C 0.93647 0.91016 0.53787 0.0
C7234 C 0.93631 0.92408 0.53222 0.0
C7235 C 0.97754 0.00696 0.53044 0.0
C7236 C 0.9876 1.00017 0.5208 0.0
C7237 C 0.96316 0.99839 0.5326 0.0
C7238 C 0.95851 0.98287 0.52512 0.0
C7239 C 0.96868 0.97601 0.51576 0.0
C7240 C 0.98301 0.98454 0.5136 0.0
C7241 C 0.94307 0.9737 0.52685 0.0
C7242 C 0.94226 0.95925 0.53183 0.0
C7243 C 0.92921 0.97895 0.52348 0.0
C7244 C 0.92914 0.99379 0.51761 0.0
C7245 C 0.93606 0.9965 0.50397 0.0
C7246 C 0.93604 0.01058 0.4986 0.0
C7247 C 0.92903 0.02198 0.5067 0.0
C7248 C 0.92198 0.01931 0.52016 0.0
C7249 C 0.92198 0.00526 0.5256 0.0
H7250 H 0.92903 0.03287 0.50252 0.0
H7251 H 0.92877 0.89642 0.55517 0.0
H7252 H 0.84305 0.11288 0.26758 0.0
H7253 H 0.83101 0.13579 0.26866 0.0
H7254 H 0.87207 0.16152 0.2544 0.0
H7255 H 0.88437 0.13871 0.25387 0.0
H7256 H 0.86252 0.18243 0.27082 0.0
H7257 H 0.83198 0.14556 0.23056 0.0
H7258 H 0.81578 0.12076 0.21787 0.0
H7259 H 0.78266 0.12614 0.25134 0.0
H7260 H 0.79876 0.1509 0.26433 0.0
H7261 H 0.82562 0.24607 0.25507 0.0
H7262 H 0.83773 0.22312 0.25336 0.0
H7263 H 0.79865 0.1983 0.27181 0.0
H7264 H 0.78609 0.22108 0.27262 0.0
H7265 H 0.80748 0.17731 0.25302 0.0
H7266 H 0.84012 0.21562 0.29285 0.0
H7267 H 0.85478 0.24235 0.30079 0.0
H7268 H 0.88377 0.23506 0.26367 0.0
H7269 H 0.86921 0.20833 0.25546 0.0
C7270 C 0.84965 0.12327 0.26449 0.0
C7271 C 0.86499 0.12326 0.26051 0.0
C7272 C 0.84254 0.1367 0.26502 0.0
C7273 C 0.85008 0.15103 0.26122 0.0
C7274 C 0.86549 0.15108 0.25742 0.0
C7275 C 0.87268 0.1377 0.25711 0.0
C7276 C 0.84216 0.1657 0.26134 0.0
C7277 C 0.85049 0.18104 0.26674 0.0
C7278 C 0.82632 0.16489 0.25619 0.0
C7279 C 0.81666 0.14998 0.24852 0.0
C7280 C 0.8213 0.14139 0.23528 0.0
C7281 C 0.81212 0.12735 0.22802 0.0
C7282 C 0.79822 0.12185 0.23383 0.0
C7283 C 0.79345 0.1304 0.24688 0.0
C7284 C 0.80259 0.14444 0.25419 0.0
C7285 C 0.81951 0.23583 0.25892 0.0
C7286 C 0.80469 0.23601 0.26421 0.0
C7287 C 0.82666 0.22243 0.25807 0.0
C7288 C 0.81971 0.20842 0.26293 0.0
C7289 C 0.80477 0.20856 0.26802 0.0
C7290 C 0.79748 0.22188 0.26858 0.0
C7291 C 0.82776 0.19386 0.26267 0.0
C7292 C 0.81946 0.17859 0.25722 0.0
C7293 C 0.84367 0.19475 0.26747 0.0
C7294 C 0.85353 0.21004 0.2735 0.0
C7295 C 0.8497 0.21969 0.28647 0.0
C7296 C 0.8579 0.23488 0.29093 0.0
C7297 C 0.87005 0.24046 0.2826 0.0
C7298 C 0.87424 0.23078 0.27 0.0
C7299 C 0.86608 0.21558 0.26549 0.0
H7300 H 0.87636 0.25222 0.28609 0.0
H7301 H 0.79114 0.11098 0.22819 0.0
H7302 H 0.71341 0.07183 0.03837 0.0
H7303 H 0.68545 0.06351 0.0372 0.0
H7304 H 0.68029 0.08212 0.99485 0.0
H7305 H 0.70823 0.0906 0.99604 0.0
H7306 H 0.65916 0.09001 0.01443 0.0
H7307 H 0.67616 0.04321 0.99395 0.0
H7308 H 0.69144 0.02238 0.99347 0.0
H7309 H 0.67253 0.01001 0.03493 0.0
H7310 H 0.65729 0.03093 0.03579 0.0
H7311 H 0.58095 0.05314 0.99147 0.0
H7312 H 0.60889 0.06133 0.99255 0.0
H7313 H 0.61406 0.04369 0.03544 0.0
H7314 H 0.58613 0.03551 0.03451 0.0
H7315 H 0.63515 0.03528 0.01553 0.0
H7316 H 0.61816 0.08226 0.03592 0.0
H7317 H 0.6027 0.10291 0.03605 0.0
H7318 H 0.62149 0.11477 0.99437 0.0
H7319 H 0.63692 0.09403 0.99386 0.0
C7320 C 0.70635 0.07418 0.0288 0.0
C7321 C 0.71318 0.08183 0.01725 0.0
C7322 C 0.69031 0.06932 0.02809 0.0
C7323 C 0.68063 0.07204 0.01586 0.0
C7324 C 0.68742 0.07981 0.00439 0.0
C7325 C 0.70346 0.08454 0.00502 0.0
C7326 C 0.66348 0.06691 0.01509 0.0
C7327 C 0.65393 0.07799 0.01445 0.0
C7328 C 0.65652 0.05129 0.01545 0.0
C7329 C 0.66572 0.03875 0.01503 0.0
C7330 C 0.67537 0.03615 0.00305 0.0
C7331 C 0.684 0.0243 0.00269 0.0
C7332 C 0.683 0.01491 0.01419 0.0
C7333 C 0.67332 0.01732 0.02605 0.0
C7334 C 0.66468 0.02916 0.02647 0.0
C7335 C 0.58798 0.051 1.00118 0.0
C7336 C 0.58112 0.04369 0.01294 0.0
C7337 C 0.60402 0.05576 0.0018 0.0
C7338 C 0.6137 0.05326 0.01414 0.0
C7339 C 0.60692 0.04579 0.0258 0.0
C7340 C 0.59087 0.04118 0.02527 0.0
C7341 C 0.63085 0.05838 0.01488 0.0
C7342 C 0.64039 0.04729 0.01551 0.0
C7343 C 0.6378 0.07398 0.01448 0.0
C7344 C 0.62857 0.08648 0.01476 0.0
C7345 C 0.6189 0.08918 0.0267 0.0
C7346 C 0.61016 0.10092 0.02686 0.0
C7347 C 0.61108 0.11012 0.0152 0.0
C7348 C 0.62077 0.10762 0.00338 0.0
C7349 C 0.62953 0.09588 0.00315 0.0
H7350 H 0.6043 0.11921 0.01535 0.0
H7351 H 0.68968 0.00573 0.01388 0.0
H7352 H 0.21345 0.47646 0.27641 0.0
H7353 H 0.22896 0.45711 0.28098 0.0
H7354 H 0.20369 0.42505 0.24197 0.0
H7355 H 0.18763 0.44416 0.23771 0.0
H7356 H 0.20811 0.41086 0.26658 0.0
H7357 H 0.23902 0.44526 0.23839 0.0
H7358 H 0.25204 0.47067 0.23317 0.0
H7359 H 0.27934 0.47848 0.27684 0.0
H7360 H 0.26632 0.4532 0.28242 0.0
H7361 H 0.26006 0.35871 0.2561 0.0
H7362 H 0.24378 0.37769 0.25272 0.0
H7363 H 0.2701 0.40977 0.29111 0.0
H7364 H 0.28696 0.39106 0.29412 0.0
H7365 H 0.26495 0.42402 0.26724 0.0
H7366 H 0.23408 0.38885 0.29498 0.0
H7367 H 0.22055 0.36348 0.29989 0.0
H7368 H 0.19293 0.35694 0.25657 0.0
H7369 H 0.2064 0.38217 0.2513 0.0
C7370 C 0.21103 0.46521 0.26894 0.0
C7371 C 0.19932 0.4618 0.25669 0.0
C7372 C 0.22001 0.45424 0.27146 0.0
C7373 C 0.21758 0.43977 0.26167 0.0
C7374 C 0.20575 0.43621 0.24959 0.0
C7375 C 0.19669 0.44716 0.2471 0.0
C7376 C 0.22748 0.42839 0.26399 0.0
C7377 C 0.22053 0.41363 0.26653 0.0
C7378 C 0.24367 0.43223 0.26427 0.0
C7379 C 0.2516 0.44739 0.26088 0.0
C7380 C 0.24772 0.45244 0.24693 0.0
C7381 C 0.25512 0.46682 0.2439 0.0
C7382 C 0.26649 0.4762 0.25468 0.0
C7383 C 0.27052 0.47121 0.2685 0.0
C7384 C 0.26315 0.45685 0.2716 0.0
C7385 C 0.26256 0.36989 0.26368 0.0
C7386 C 0.27487 0.37344 0.27532 0.0
C7387 C 0.25308 0.38063 0.26188 0.0
C7388 C 0.25559 0.39501 0.27183 0.0
C7389 C 0.26793 0.39867 0.28338 0.0
C7390 C 0.2775 0.38796 0.28513 0.0
C7391 C 0.24561 0.40643 0.26985 0.0
C7392 C 0.25254 0.42123 0.26735 0.0
C7393 C 0.22939 0.40258 0.26954 0.0
C7394 C 0.22137 0.38734 0.27267 0.0
C7395 C 0.22522 0.38194 0.28643 0.0
C7396 C 0.21754 0.3676 0.2893 0.0
C7397 C 0.20593 0.3586 0.27852 0.0
C7398 C 0.20194 0.36392 0.26489 0.0
C7399 C 0.20958 0.37824 0.26196 0.0
H7400 H 0.20001 0.34751 0.28072 0.0
H7401 H 0.2722 0.48733 0.25231 0.0
H7402 H 0.21586 0.41341 0.04247 0.0
H7403 H 0.19407 0.42674 0.0394 0.0
H7404 H 0.20498 0.43167 0.99278 0.0
H7405 H 0.22676 0.41832 0.99578 0.0
H7406 H 0.19954 0.45922 0.01049 0.0
H7407 H 0.17559 0.40533 0.99725 0.0
H7408 H 0.16899 0.37812 1.00137 0.0
H7409 H 0.14721 0.39272 0.04231 0.0
H7410 H 0.15389 0.42007 0.03856 0.0
H7411 H 0.13252 0.48337 0.98358 0.0
H7412 H 0.15337 0.46913 0.98681 0.0
H7413 H 0.13775 0.45904 0.03059 0.0
H7414 H 0.11632 0.47263 0.02706 0.0
H7415 H 0.14572 0.43413 0.01489 0.0
H7416 H 0.16938 0.48772 0.02866 0.0
H7417 H 0.17612 0.51516 0.02529 0.0
H7418 H 0.19874 0.50163 0.98461 0.0
H7419 H 0.19196 0.47407 0.98762 0.0
C7420 C 0.21362 0.41737 0.03158 0.0
C7421 C 0.22299 0.4148 0.01935 0.0
C7422 C 0.20113 0.4249 0.02981 0.0
C7423 C 0.19786 0.43012 0.01583 0.0
C7424 C 0.20728 0.42771 0.00366 0.0
C7425 C 0.21965 0.42 0.00535 0.0
C7426 C 0.18472 0.43828 0.01397 0.0
C7427 C 0.18774 0.45368 0.01124 0.0
C7428 C 0.16939 0.4312 0.01542 0.0
C7429 C 0.16539 0.41477 0.01772 0.0
C7430 C 0.16952 0.40276 0.00722 0.0
C7431 C 0.16574 0.38731 0.00947 0.0
C7432 C 0.15772 0.3837 0.02212 0.0
C7433 C 0.15344 0.39554 0.03253 0.0
C7434 C 0.15722 0.41102 0.03034 0.0
C7435 C 0.13333 0.47794 0.99381 0.0
C7436 C 0.12267 0.47919 0.00506 0.0
C7437 C 0.14543 0.46996 0.99574 0.0
C7438 C 0.14733 0.46321 0.00908 0.0
C7439 C 0.1366 0.46421 0.02024 0.0
C7440 C 0.12442 0.47213 0.01827 0.0
C7441 C 0.1605 0.45511 0.01133 0.0
C7442 C 0.15751 0.43972 0.01415 0.0
C7443 C 0.17589 0.46225 0.01011 0.0
C7444 C 0.18003 0.47882 0.00828 0.0
C7445 C 0.17569 0.49058 0.01893 0.0
C7446 C 0.17953 0.50616 0.01709 0.0
C7447 C 0.18782 0.51013 0.00472 0.0
C7448 C 0.19231 0.49853 0.99418 0.0
C7449 C 0.18848 0.48293 0.99595 0.0
H7450 H 0.19079 0.52219 0.00332 0.0
H7451 H 0.1548 0.37173 0.02384 0.0
H7452 H 0.83792 0.9606 0.25653 0.0
H7453 H 0.82579 0.93371 0.25696 0.0
H7454 H 0.8699 0.91971 0.25429 0.0
H7455 H 0.88201 0.94655 0.25344 0.0
H7456 H 0.85187 0.89713 0.23865 0.0
H7457 H 0.84671 0.9232 0.28951 0.0
H7458 H 0.83944 0.94295 0.30944 0.0
H7459 H 0.79202 0.92866 0.29178 0.0
H7460 H 0.79903 0.90894 0.27162 0.0
H7461 H 0.82628 0.82201 0.26166 0.0
H7462 H 0.83847 0.849 0.26086 0.0
H7463 H 0.79384 0.861 0.25371 0.0
H7464 H 0.78163 0.83398 0.25425 0.0
H7465 H 0.81209 0.88425 0.27451 0.0
H7466 H 0.81837 0.85726 0.22393 0.0
H7467 H 0.82657 0.83698 0.20533 0.0
H7468 H 0.87343 0.85267 0.22442 0.0
H7469 H 0.86547 0.87292 0.24329 0.0
C7470 C 0.84519 0.95193 0.25617 0.0
C7471 C 0.86119 0.9563 0.255 0.0
C7472 C 0.83813 0.93626 0.25649 0.0
C7473 C 0.8467 0.92408 0.25601 0.0
C7474 C 0.86266 0.92843 0.25469 0.0
C7475 C 0.8697 0.94406 0.25418 0.0
C7476 C 0.83915 0.90703 0.25668 0.0
C7477 C 0.84336 0.8945 0.24673 0.0
C7478 C 0.82768 0.90286 0.2669 0.0
C7479 C 0.82342 0.91472 0.27895 0.0
C7480 C 0.83474 0.92435 0.28981 0.0
C7481 C 0.83067 0.93552 0.30115 0.0
C7482 C 0.81528 0.93709 0.30185 0.0
C7483 C 0.80394 0.92745 0.29121 0.0
C7484 C 0.80795 0.91627 0.27983 0.0
C7485 C 0.81897 0.83031 0.25986 0.0
C7486 C 0.80279 0.82539 0.25796 0.0
C7487 C 0.82604 0.84594 0.25934 0.0
C7488 C 0.81729 0.85752 0.25711 0.0
C7489 C 0.80112 0.85265 0.25544 0.0
C7490 C 0.79406 0.83698 0.25569 0.0
C7491 C 0.82486 0.87451 0.25653 0.0
C7492 C 0.82064 0.88697 0.26648 0.0
C7493 C 0.83647 0.87859 0.2465 0.0
C7494 C 0.8413 0.8665 0.23513 0.0
C7495 C 0.8304 0.85631 0.22424 0.0
C7496 C 0.83501 0.84483 0.21363 0.0
C7497 C 0.85051 0.84351 0.21372 0.0
C7498 C 0.86143 0.85369 0.22438 0.0
C7499 C 0.85688 0.86518 0.23503 0.0
H7500 H 0.85405 0.83462 0.2055 0.0
H7501 H 0.81215 0.94574 0.31064 0.0
H7502 H 0.71345 0.11206 0.77067 0.0
H7503 H 0.72715 0.13871 0.77123 0.0
H7504 H 0.74798 0.12361 0.72954 0.0
H7505 H 0.73399 0.09692 0.72873 0.0
H7506 H 0.76775 0.14722 0.75747 0.0
H7507 H 0.72207 0.13702 0.72084 0.0
H7508 H 0.69442 0.12726 0.71337 0.0
H7509 H 0.68312 0.1594 0.75109 0.0
H7510 H 0.71074 0.16914 0.75896 0.0
H7511 H 0.77899 0.22439 0.73131 0.0
H7512 H 0.77005 0.19613 0.72911 0.0
H7513 H 0.75563 0.20296 0.77555 0.0
H7514 H 0.76504 0.2309 0.7781 0.0
H7515 H 0.73381 0.18296 0.74313 0.0
H7516 H 0.7775 0.1894 0.78269 0.0
H7517 H 0.80467 0.19959 0.79219 0.0
H7518 H 0.81906 0.17511 0.75085 0.0
H7519 H 0.7919 0.16507 0.74098 0.0
C7520 C 0.72124 0.11439 0.76186 0.0
C7521 C 0.72276 0.10259 0.74966 0.0
C7522 C 0.72898 0.12954 0.76216 0.0
C7523 C 0.73847 0.13296 0.75041 0.0
C7524 C 0.74071 0.12104 0.73871 0.0
C7525 C 0.73273 0.10592 0.73823 0.0
C7526 C 0.74479 0.14925 0.74958 0.0
C7527 C 0.76041 0.15499 0.75409 0.0
C7528 C 0.73506 0.15933 0.74546 0.0
C7529 C 0.71846 0.15368 0.74059 0.0
C7530 C 0.71369 0.1419 0.72763 0.0
C7531 C 0.69803 0.13639 0.72331 0.0
C7532 C 0.68702 0.14267 0.73178 0.0
C7533 C 0.69166 0.15452 0.74456 0.0
C7534 C 0.70732 0.16005 0.74895 0.0
C7535 C 0.77403 0.21978 0.74104 0.0
C7536 C 0.77284 0.22969 0.75491 0.0
C7537 C 0.76896 0.20374 0.73978 0.0
C7538 C 0.76239 0.19765 0.75225 0.0
C7539 C 0.7609 0.20756 0.76594 0.0
C7540 C 0.7663 0.22345 0.76736 0.0
C7541 C 0.75673 0.1809 0.75102 0.0
C7542 C 0.74119 0.17511 0.74621 0.0
C7543 C 0.76645 0.17084 0.75509 0.0
C7544 C 0.78273 0.17673 0.76099 0.0
C7545 C 0.78647 0.18638 0.77554 0.0
C7546 C 0.80185 0.19209 0.78101 0.0
C7547 C 0.81359 0.18806 0.77209 0.0
C7548 C 0.80995 0.17827 0.75771 0.0
C7549 C 0.79457 0.17258 0.75217 0.0
H7550 H 0.8255 0.19247 0.77635 0.0
H7551 H 0.6749 0.13839 0.72842 0.0
loop_
_geom_bond_atom_site_label_1
_geom_bond_atom_site_label_2
_geom_bond_distance
_geom_bond_site_symmetry_2
_ccdc_geom_bond_type
Li0 N17 1.990 . S
Li0 O60 1.956 . S
Li0 O61 1.970 . S
Li0 O62 1.961 . S
Li1 N25 1.990 . S
Li1 O60 1.970 . S
Li1 O61 1.956 . S
Li1 O63 1.961 . S
Li2 N47 1.990 . S
Li2 O60 1.961 . S
Li2 O62 1.956 . S
Li2 O63 1.970 . S
Li3 N53 1.990 . S
Li3 O61 1.961 . S
Li3 O62 1.970 . S
Li3 O63 1.956 . S
C4 C6 1.348 . S
C4 C7 1.356 . S
C4 O60 1.325 . S
N5 C8 1.314 . S
N5 C9 1.279 . S
C6 C4 1.348 . S
C6 C8 1.353 . S
C6 H64 0.929 . S
C7 C4 1.356 . S
C7 C9 1.358 . S
C7 H65 0.930 . S
C8 N5 1.314 . S
C8 C6 1.353 . S
C8 H66 0.930 . S
C9 N5 1.279 . S
C9 C7 1.358 . S
C9 H67 0.930 . S
C10 C13 1.348 . S
C10 C14 1.356 . S
C10 O61 1.325 . S
C11 N12 1.279 . S
C11 C14 1.358 . S
C11 H68 0.930 . S
N12 C11 1.279 . S
N12 C15 1.314 . S
C13 C10 1.348 . S
C13 C15 1.353 . S
C13 H69 0.929 . S
C14 C10 1.356 . S
C14 C11 1.358 . S
C14 H70 0.930 . S
C15 N12 1.314 . S
C15 C13 1.353 . S
C15 H71 0.930 1_455 S
C16 N17 1.314 . S
C16 C21 1.353 1_455 S
C16 H22 0.930 . S
N17 Li0 1.990 . S
N17 C16 1.314 . S
N17 C19 1.279 . S
C18 C19 1.358 . S
C18 C20 1.356 1_455 S
C18 H72 0.930 . S
C19 N17 1.279 . S
C19 C18 1.358 . S
C19 H23 0.930 . S
C20 C18 1.356 1_655 S
C20 C21 1.348 . S
C21 C16 1.353 1_655 S
C21 C20 1.348 . S
C21 H73 0.929 . S
H22 C16 0.930 . S
H23 C19 0.930 . S
C24 N25 1.314 . S
C24 C26 1.353 . S
C24 H30 0.930 . S
N25 Li1 1.990 . S
N25 C24 1.314 . S
N25 C28 1.279 . S
C26 C24 1.353 . S
C26 C29 1.348 . S
C26 H74 0.929 . S
C27 C28 1.358 . S
C27 C29 1.356 . S
C27 H75 0.930 . S
C28 N25 1.279 . S
C28 C27 1.358 . S
C28 H31 0.930 . S
C29 C26 1.348 . S
C29 C27 1.356 . S
H30 C24 0.930 . S
H31 C28 0.930 . S
C32 C34 1.348 . S
C32 C35 1.356 . S
C32 O62 1.325 . S
N33 C36 1.314 . S
N33 C37 1.279 . S
C34 C32 1.348 . S
C34 C36 1.353 . S
C34 H76 0.929 . S
C35 C32 1.356 . S
C35 C37 1.358 . S
C35 H77 0.930 . S
C36 N33 1.314 . S
C36 C34 1.353 . S
C36 H78 0.930 . S
C37 N33 1.279 . S
C37 C35 1.358 . S
C37 H79 0.930 . S
C38 C39 1.348 . S
C38 C40 1.356 . S
C38 O63 1.325 . S
C39 C38 1.348 . S
C39 C41 1.353 . S
C39 H80 0.929 . S
C40 C38 1.356 . S
C40 C42 1.358 . S
C40 H81 0.930 . S
C41 C39 1.353 . S
C41 N43 1.314 . S
C41 H82 0.930 . S
C42 C40 1.358 . S
C42 N43 1.279 . S
C42 H83 0.930 . S
N43 C41 1.314 . S
N43 C42 1.279 . S
C44 C46 1.353 . S
C44 N47 1.314 . S
C44 H50 0.930 . S
C45 N47 1.279 . S
C45 C48 1.358 . S
C45 H51 0.930 . S
C46 C44 1.353 . S
C46 C49 1.348 . S
C46 H84 0.929 . S
N47 Li2 1.990 . S
N47 C44 1.314 . S
N47 C45 1.279 . S
C48 C45 1.358 . S
C48 C49 1.356 . S
C48 H85 0.930 . S
C49 C46 1.348 . S
C49 C48 1.356 . S
H50 C44 0.930 . S
H51 C45 0.930 . S
C52 N53 1.314 . S
C52 C54 1.353 . S
C52 H58 0.930 . S
N53 Li3 1.990 . S
N53 C52 1.314 . S
N53 C56 1.279 . S
C54 C52 1.353 . S
C54 C57 1.348 . S
C54 H86 0.929 . S
C55 C56 1.358 . S
C55 C57 1.356 . S
C55 H87 0.930 . S
C56 N53 1.279 . S
C56 C55 1.358 . S
C56 H59 0.930 . S
C57 C54 1.348 . S
C57 C55 1.356 . S
H58 C52 0.930 . S
H59 C56 0.930 . S
O60 Li0 1.956 . S
O60 Li1 1.970 . S
O60 Li2 1.961 . S
O60 C4 1.325 . S
O61 Li0 1.970 . S
O61 Li1 1.956 . S
O61 Li3 1.961 . S
O61 C10 1.325 . S
O62 Li0 1.961 . S
O62 Li2 1.956 . S
O62 Li3 1.970 . S
O62 C32 1.325 . S
O63 Li1 1.961 . S
O63 Li2 1.970 . S
O63 Li3 1.956 . S
O63 C38 1.325 . S
H64 C6 0.929 . S
H65 C7 0.930 . S
H66 C8 0.930 . S
H67 C9 0.930 . S
H68 C11 0.930 . S
H69 C13 0.929 . S
H70 C14 0.930 . S
H71 C15 0.930 1_655 S
H72 C18 0.930 . S
H73 C21 0.929 . S
H74 C26 0.929 . S
H75 C27 0.930 . S
H76 C34 0.929 . S
H77 C35 0.930 . S
H78 C36 0.930 . S
H79 C37 0.930 . S
H80 C39 0.929 . S
H81 C40 0.930 . S
H82 C41 0.930 . S
H83 C42 0.930 . S
H84 C46 0.929 . S
H85 C48 0.930 . S
H86 C54 0.929 . S
H87 C55 0.930 . S
Li88 N105 1.990 . S
Li88 O148 1.956 . S
Li88 O149 1.970 . S
Li88 O150 1.961 1_455 S
Li89 N113 1.990 . S
Li89 O148 1.970 . S
Li89 O149 1.956 . S
Li89 O151 1.942 1_455 S
Li90 N135 1.990 . S
Li90 O148 1.961 1_655 S
Li90 O150 1.956 . S
Li90 O151 1.971 . S
Li91 N141 1.990 . S
Li91 O149 1.961 1_655 S
Li91 O150 1.970 . S
Li91 O151 1.981 . S
C92 C94 1.348 . S
C92 C95 1.356 . S
C92 O148 1.325 . S
N93 C96 1.314 . S
N93 C97 1.279 . S
C94 C92 1.348 . S
C94 C96 1.353 . S
C94 H152 0.929 . S
C95 C92 1.356 . S
C95 C97 1.358 . S
C95 H153 0.930 . S
C96 N93 1.314 . S
C96 C94 1.353 . S
C96 H154 0.930 . S
C97 N93 1.279 . S
C97 C95 1.358 . S
C97 H155 0.930 . S
C98 C101 1.348 . S
C98 C102 1.356 . S
C98 O149 1.325 . S
C99 N100 1.279 . S
C99 C102 1.358 . S
C99 H156 0.930 . S
N100 C99 1.279 . S
N100 C103 1.314 . S
C101 C98 1.348 . S
C101 C103 1.353 . S
C101 H157 0.929 . S
C102 C98 1.356 . S
C102 C99 1.358 . S
C102 H158 0.922 1_455 S
C103 N100 1.314 . S
C103 C101 1.353 . S
C103 H159 0.930 . S
C104 N105 1.314 1_655 S
C104 C109 1.353 . S
C104 H110 0.930 . S
N105 Li88 1.990 . S
N105 C104 1.314 1_455 S
N105 C107 1.279 . S
C106 C107 1.358 . S
C106 C108 1.356 . S
C106 H160 0.930 . S
C107 N105 1.279 . S
C107 C106 1.358 . S
C107 H111 0.930 . S
C108 C106 1.356 . S
C108 C109 1.348 1_455 S
C109 C104 1.353 . S
C109 C108 1.348 1_655 S
C109 H161 0.929 . S
H110 C104 0.930 . S
H111 C107 0.930 . S
C112 N113 1.314 . S
C112 C114 1.353 . S
C112 H118 0.930 . S
N113 Li89 1.990 . S
N113 C112 1.314 . S
N113 C116 1.279 . S
C114 C112 1.353 . S
C114 C117 1.348 . S
C114 H162 0.929 . S
C115 C116 1.358 . S
C115 C117 1.356 . S
C115 H163 0.930 . S
C116 N113 1.279 . S
C116 C115 1.358 . S
C116 H119 0.930 . S
C117 C114 1.348 . S
C117 C115 1.356 . S
H118 C112 0.930 . S
H119 C116 0.930 . S
C120 C122 1.348 . S
C120 C123 1.356 . S
C120 O150 1.325 . S
N121 C124 1.314 . S
N121 C125 1.279 . S
C122 C120 1.348 . S
C122 C124 1.353 . S
C122 H164 0.929 . S
C123 C120 1.356 . S
C123 C125 1.358 . S
C123 H165 0.930 . S
C124 N121 1.314 . S
C124 C122 1.353 . S
C124 H166 0.930 . S
C125 N121 1.279 . S
C125 C123 1.358 . S
C125 H167 0.930 . S
C126 C127 1.348 . S
C126 C128 1.356 1_655 S
C126 O151 1.324 . S
C127 C126 1.348 . S
C127 C129 1.353 . S
C127 H168 0.929 . S
C128 C126 1.356 1_455 S
C128 C130 1.358 . S
C128 H169 0.930 . S
C129 C127 1.353 . S
C129 N131 1.314 . S
C129 H170 0.930 . S
C130 C128 1.358 . S
C130 N131 1.271 1_455 S
C130 H171 0.946 . S
N131 C129 1.314 . S
N131 C130 1.271 1_655 S
C132 C134 1.353 . S
C132 N135 1.314 1_455 S
C132 H138 0.930 . S
C133 N135 1.279 . S
C133 C136 1.358 . S
C133 H139 0.930 . S
C134 C132 1.353 . S
C134 C137 1.348 1_455 S
C134 H172 0.929 . S
N135 Li90 1.990 . S
N135 C132 1.314 1_655 S
N135 C133 1.279 . S
C136 C133 1.358 . S
C136 C137 1.356 . S
C136 H173 0.930 . S
C137 C134 1.348 1_655 S
C137 C136 1.356 . S
H138 C132 0.930 . S
H139 C133 0.930 . S
C140 N141 1.314 . S
C140 C142 1.353 . S
C140 H146 0.930 . S
N141 Li91 1.990 . S
N141 C140 1.314 . S
N141 C144 1.279 . S
C142 C140 1.353 . S
C142 C145 1.348 . S
C142 H174 0.929 . S
C143 C144 1.358 . S
C143 C145 1.356 . S
C143 H175 0.930 . S
C144 N141 1.279 . S
C144 C143 1.358 . S
C144 H147 0.930 . S
C145 C142 1.348 . S
C145 C143 1.356 . S
H146 C140 0.930 . S
H147 C144 0.930 . S
O148 Li88 1.956 . S
O148 Li89 1.970 . S
O148 Li90 1.961 1_455 S
O148 C92 1.325 . S
O149 Li88 1.970 . S
O149 Li89 1.956 . S
O149 Li91 1.961 1_455 S
O149 C98 1.325 . S
O150 Li88 1.961 1_655 S
O150 Li90 1.956 . S
O150 Li91 1.970 . S
O150 C120 1.325 . S
O151 Li89 1.942 1_655 S
O151 Li90 1.971 . S
O151 Li91 1.981 . S
O151 C126 1.324 . S
H152 C94 0.929 . S
H153 C95 0.930 . S
H154 C96 0.930 . S
H155 C97 0.930 . S
H156 C99 0.930 . S
H157 C101 0.929 . S
H158 C102 0.922 1_655 S
H159 C103 0.930 . S
H160 C106 0.930 . S
H161 C109 0.929 . S
H162 C114 0.929 . S
H163 C115 0.930 . S
H164 C122 0.929 . S
H165 C123 0.930 . S
H166 C124 0.930 . S
H167 C125 0.930 . S
H168 C127 0.929 . S
H169 C128 0.930 . S
H170 C129 0.930 . S
H171 C130 0.946 . S
H172 C134 0.929 . S
H173 C136 0.930 . S
H174 C142 0.929 . S
H175 C143 0.930 . S
Li176 N193 1.990 . S
Li176 O236 1.956 . S
Li176 O237 1.970 . S
Li176 O238 1.961 . S
Li177 N201 1.990 . S
Li177 O236 1.970 . S
Li177 O237 1.956 . S
Li177 O239 1.961 . S
Li178 N223 1.990 . S
Li178 O236 1.961 . S
Li178 O238 1.956 . S
Li178 O239 1.970 . S
Li179 N229 1.990 . S
Li179 O237 1.961 . S
Li179 O238 1.970 . S
Li179 O239 1.956 . S
C180 C182 1.348 . S
C180 C183 1.356 . S
C180 O236 1.325 . S
N181 C184 1.314 . S
N181 C185 1.279 . S
C182 C180 1.348 . S
C182 C184 1.353 . S
C182 H240 0.929 . S
C183 C180 1.356 . S
C183 C185 1.358 . S
C183 H241 0.930 . S
C184 N181 1.314 . S
C184 C182 1.353 . S
C184 H242 0.930 . S
C185 N181 1.279 . S
C185 C183 1.358 . S
C185 H243 0.930 . S
C186 C189 1.348 . S
C186 C190 1.356 . S
C186 O237 1.325 . S
C187 N188 1.279 . S
C187 C190 1.358 . S
C187 H244 0.930 . S
N188 C187 1.279 . S
N188 C191 1.314 . S
C189 C186 1.348 . S
C189 C191 1.353 . S
C189 H245 0.929 . S
C190 C186 1.356 . S
C190 C187 1.358 . S
C190 H246 0.930 . S
C191 N188 1.314 . S
C191 C189 1.353 . S
C191 H247 0.930 . S
C192 N193 1.314 . S
C192 C197 1.353 . S
C192 H198 0.930 . S
N193 Li176 1.990 . S
N193 C192 1.314 . S
N193 C195 1.279 . S
C194 C195 1.358 . S
C194 C196 1.356 . S
C194 H248 0.930 . S
C195 N193 1.279 . S
C195 C194 1.358 . S
C195 H199 0.930 . S
C196 C194 1.356 . S
C196 C197 1.348 . S
C197 C192 1.353 . S
C197 C196 1.348 . S
C197 H249 0.929 . S
H198 C192 0.930 . S
H199 C195 0.930 . S
C200 N201 1.314 . S
C200 C202 1.353 . S
C200 H206 0.930 . S
N201 Li177 1.990 . S
N201 C200 1.314 . S
N201 C204 1.279 . S
C202 C200 1.353 . S
C202 C205 1.348 . S
C202 H250 0.929 . S
C203 C204 1.358 . S
C203 C205 1.356 . S
C203 H251 0.930 . S
C204 N201 1.279 . S
C204 C203 1.358 . S
C204 H207 0.930 . S
C205 C202 1.348 . S
C205 C203 1.356 . S
H206 C200 0.930 . S
H207 C204 0.930 . S
C208 C210 1.348 . S
C208 C211 1.356 . S
C208 O238 1.325 . S
N209 C212 1.314 . S
N209 C213 1.279 . S
C210 C208 1.348 . S
C210 C212 1.353 . S
C210 H252 0.929 . S
C211 C208 1.356 . S
C211 C213 1.358 . S
C211 H253 0.930 . S
C212 N209 1.314 . S
C212 C210 1.353 . S
C212 H254 0.930 . S
C213 N209 1.279 . S
C213 C211 1.358 . S
C213 H255 0.930 . S
C214 C215 1.348 . S
C214 C216 1.356 . S
C214 O239 1.325 . S
C215 C214 1.348 . S
C215 C217 1.353 . S
C215 H256 0.929 . S
C216 C214 1.356 . S
C216 C218 1.358 . S
C216 H257 0.930 . S
C217 C215 1.353 . S
C217 N219 1.314 . S
C217 H258 0.930 . S
C218 C216 1.358 . S
C218 N219 1.279 . S
C218 H259 0.930 . S
N219 C217 1.314 . S
N219 C218 1.279 . S
C220 C222 1.353 . S
C220 N223 1.314 . S
C220 H226 0.930 . S
C221 N223 1.279 . S
C221 C224 1.358 . S
C221 H227 0.930 . S
C222 C220 1.353 . S
C222 C225 1.348 . S
C222 H260 0.929 . S
N223 Li178 1.990 . S
N223 C220 1.314 . S
N223 C221 1.279 . S
C224 C221 1.358 . S
C224 C225 1.356 . S
C224 H261 0.930 . S
C225 C222 1.348 . S
C225 C224 1.356 . S
H226 C220 0.930 . S
H227 C221 0.930 . S
C228 N229 1.314 . S
C228 C230 1.353 . S
C228 H234 0.930 . S
N229 Li179 1.990 . S
N229 C228 1.314 . S
N229 C232 1.279 . S
C230 C228 1.353 . S
C230 C233 1.348 . S
C230 H262 0.929 . S
C231 C232 1.358 . S
C231 C233 1.356 . S
C231 H263 0.930 . S
C232 N229 1.279 . S
C232 C231 1.358 . S
C232 H235 0.930 . S
C233 C230 1.348 . S
C233 C231 1.356 . S
H234 C228 0.930 . S
H235 C232 0.930 . S
O236 Li176 1.956 . S
O236 Li177 1.970 . S
O236 Li178 1.961 . S
O236 C180 1.325 . S
O237 Li176 1.970 . S
O237 Li177 1.956 . S
O237 Li179 1.961 . S
O237 C186 1.325 . S
O238 Li176 1.961 . S
O238 Li178 1.956 . S
O238 Li179 1.970 . S
O238 C208 1.325 . S
O239 Li177 1.961 . S
O239 Li178 1.970 . S
O239 Li179 1.956 . S
O239 C214 1.325 . S
H240 C182 0.929 . S
H241 C183 0.930 . S
H242 C184 0.930 . S
H243 C185 0.930 . S
H244 C187 0.930 . S
H245 C189 0.929 . S
H246 C190 0.930 . S
H247 C191 0.930 . S
H248 C194 0.930 . S
H249 C197 0.929 . S
H250 C202 0.929 . S
H251 C203 0.930 . S
H252 C210 0.929 . S
H253 C211 0.930 . S
H254 C212 0.930 . S
H255 C213 0.930 . S
H256 C215 0.929 . S
H257 C216 0.930 . S
H258 C217 0.930 . S
H259 C218 0.930 . S
H260 C222 0.929 . S
H261 C224 0.930 . S
H262 C230 0.929 . S
H263 C231 0.930 . S
Li264 N281 1.990 . S
Li264 O324 1.956 . S
Li264 O325 1.970 . S
Li264 O326 1.961 . S
Li265 N289 1.990 . S
Li265 O324 1.970 . S
Li265 O325 1.956 . S
Li265 O327 1.961 . S
Li266 N311 1.990 . S
Li266 O324 1.961 . S
Li266 O326 1.956 . S
Li266 O327 1.970 . S
Li267 N317 1.990 . S
Li267 O325 1.961 . S
Li267 O326 1.970 . S
Li267 O327 1.956 . S
C268 C270 1.348 . S
C268 C271 1.356 . S
C268 O324 1.325 . S
N269 C272 1.314 . S
N269 C273 1.279 . S
C270 C268 1.348 . S
C270 C272 1.353 . S
C270 H328 0.929 . S
C271 C268 1.356 . S
C271 C273 1.358 . S
C271 H329 0.930 . S
C272 N269 1.314 . S
C272 C270 1.353 . S
C272 H330 0.930 . S
C273 N269 1.279 . S
C273 C271 1.358 . S
C273 H331 0.930 . S
C274 C277 1.348 . S
C274 C278 1.356 . S
C274 O325 1.325 . S
C275 N276 1.279 . S
C275 C278 1.358 . S
C275 H332 0.930 . S
N276 C275 1.279 . S
N276 C279 1.314 . S
C277 C274 1.348 . S
C277 C279 1.353 . S
C277 H333 0.929 . S
C278 C274 1.356 . S
C278 C275 1.358 . S
C278 H334 0.930 . S
C279 N276 1.314 . S
C279 C277 1.353 . S
C279 H335 0.930 . S
C280 N281 1.314 . S
C280 C285 1.353 . S
C280 H286 0.930 . S
N281 Li264 1.990 . S
N281 C280 1.314 . S
N281 C283 1.279 . S
C282 C283 1.358 . S
C282 C284 1.356 . S
C282 H336 0.930 . S
C283 N281 1.279 . S
C283 C282 1.358 . S
C283 H287 0.930 . S
C284 C282 1.356 . S
C284 C285 1.348 . S
C285 C280 1.353 . S
C285 C284 1.348 . S
C285 H337 0.929 . S
H286 C280 0.930 . S
H287 C283 0.930 . S
C288 N289 1.314 . S
C288 C290 1.353 . S
C288 H294 0.930 . S
N289 Li265 1.990 . S
N289 C288 1.314 . S
N289 C292 1.279 . S
C290 C288 1.353 . S
C290 C293 1.348 . S
C290 H338 0.929 . S
C291 C292 1.358 . S
C291 C293 1.356 . S
C291 H339 0.930 . S
C292 N289 1.279 . S
C292 C291 1.358 . S
C292 H295 0.930 . S
C293 C290 1.348 . S
C293 C291 1.356 . S
H294 C288 0.930 . S
H295 C292 0.930 . S
C296 C298 1.348 . S
C296 C299 1.356 . S
C296 O326 1.325 . S
N297 C300 1.314 . S
N297 C301 1.279 . S
C298 C296 1.348 . S
C298 C300 1.353 . S
C298 H340 0.929 . S
C299 C296 1.356 . S
C299 C301 1.358 . S
C299 H341 0.930 . S
C300 N297 1.314 . S
C300 C298 1.353 . S
C300 H342 0.930 . S
C301 N297 1.279 . S
C301 C299 1.358 . S
C301 H343 0.930 . S
C302 C303 1.348 . S
C302 C304 1.356 . S
C302 O327 1.325 . S
C303 C302 1.348 . S
C303 C305 1.353 . S
C303 H344 0.929 . S
C304 C302 1.356 . S
C304 C306 1.358 . S
C304 H345 0.930 . S
C305 C303 1.353 . S
C305 N307 1.314 . S
C305 H346 0.930 . S
C306 C304 1.358 . S
C306 N307 1.279 . S
C306 H347 0.930 . S
N307 C305 1.314 . S
N307 C306 1.279 . S
C308 C310 1.353 . S
C308 N311 1.314 . S
C308 H314 0.930 . S
C309 N311 1.279 . S
C309 C312 1.358 . S
C309 H315 0.930 . S
C310 C308 1.353 . S
C310 C313 1.348 . S
C310 H348 0.929 . S
N311 Li266 1.990 . S
N311 C308 1.314 . S
N311 C309 1.279 . S
C312 C309 1.358 . S
C312 C313 1.356 . S
C312 H349 0.930 . S
C313 C310 1.348 . S
C313 C312 1.356 . S
H314 C308 0.930 . S
H315 C309 0.930 . S
C316 N317 1.314 . S
C316 C318 1.353 . S
C316 H322 0.930 . S
N317 Li267 1.990 . S
N317 C316 1.314 . S
N317 C320 1.279 . S
C318 C316 1.353 . S
C318 C321 1.348 . S
C318 H350 0.929 . S
C319 C320 1.358 . S
C319 C321 1.356 . S
C319 H351 0.930 . S
C320 N317 1.279 . S
C320 C319 1.358 . S
C320 H323 0.930 . S
C321 C318 1.348 . S
C321 C319 1.356 . S
H322 C316 0.930 . S
H323 C320 0.930 . S
O324 Li264 1.956 . S
O324 Li265 1.970 . S
O324 Li266 1.961 . S
O324 C268 1.325 . S
O325 Li264 1.970 . S
O325 Li265 1.956 . S
O325 Li267 1.961 . S
O325 C274 1.325 . S
O326 Li264 1.961 . S
O326 Li266 1.956 . S
O326 Li267 1.970 . S
O326 C296 1.325 . S
O327 Li265 1.961 . S
O327 Li266 1.970 . S
O327 Li267 1.956 . S
O327 C302 1.325 . S
H328 C270 0.929 . S
H329 C271 0.930 . S
H330 C272 0.930 . S
H331 C273 0.930 . S
H332 C275 0.930 . S
H333 C277 0.929 . S
H334 C278 0.930 . S
H335 C279 0.930 . S
H336 C282 0.930 . S
H337 C285 0.929 . S
H338 C290 0.929 . S
H339 C291 0.930 . S
H340 C298 0.929 . S
H341 C299 0.930 . S
H342 C300 0.930 . S
H343 C301 0.930 . S
H344 C303 0.929 . S
H345 C304 0.930 . S
H346 C305 0.930 . S
H347 C306 0.930 . S
H348 C310 0.929 . S
H349 C312 0.930 . S
H350 C318 0.929 . S
H351 C319 0.930 . S
Li352 N369 1.990 . S
Li352 O412 1.956 . S
Li352 O413 1.970 . S
Li352 O414 1.961 . S
Li353 N377 1.990 . S
Li353 O412 1.970 . S
Li353 O413 1.956 . S
Li353 O415 1.961 . S
Li354 N399 1.990 . S
Li354 O412 1.961 . S
Li354 O414 1.956 . S
Li354 O415 1.970 . S
Li355 N405 1.990 . S
Li355 O413 1.961 . S
Li355 O414 1.970 . S
Li355 O415 1.956 . S
C356 C358 1.348 . S
C356 C359 1.356 . S
C356 O412 1.325 . S
N357 C360 1.314 . S
N357 C361 1.279 . S
C358 C356 1.348 . S
C358 C360 1.353 . S
C358 H416 0.929 . S
C359 C356 1.356 . S
C359 C361 1.358 . S
C359 H417 0.930 . S
C360 N357 1.314 . S
C360 C358 1.353 . S
C360 H418 0.930 . S
C361 N357 1.279 . S
C361 C359 1.358 . S
C361 H419 0.930 . S
C362 C365 1.348 . S
C362 C366 1.356 . S
C362 O413 1.325 . S
C363 N364 1.279 . S
C363 C366 1.358 . S
C363 H420 0.930 . S
N364 C363 1.279 . S
N364 C367 1.314 . S
C365 C362 1.348 . S
C365 C367 1.353 . S
C365 H421 0.929 . S
C366 C362 1.356 . S
C366 C363 1.358 . S
C366 H422 0.930 . S
C367 N364 1.314 . S
C367 C365 1.353 . S
C367 H423 0.930 . S
C368 N369 1.314 . S
C368 C373 1.353 . S
C368 H374 0.930 . S
N369 Li352 1.990 . S
N369 C368 1.314 . S
N369 C371 1.279 . S
C370 C371 1.358 . S
C370 C372 1.356 . S
C370 H424 0.930 . S
C371 N369 1.279 . S
C371 C370 1.358 . S
C371 H375 0.930 . S
C372 C370 1.356 . S
C372 C373 1.348 . S
C373 C368 1.353 . S
C373 C372 1.348 . S
C373 H425 0.929 . S
H374 C368 0.930 . S
H375 C371 0.930 . S
C376 N377 1.314 . S
C376 C378 1.353 . S
C376 H382 0.930 . S
N377 Li353 1.990 . S
N377 C376 1.314 . S
N377 C380 1.279 . S
C378 C376 1.353 . S
C378 C381 1.348 . S
C378 H426 0.929 . S
C379 C380 1.358 . S
C379 C381 1.356 . S
C379 H427 0.930 . S
C380 N377 1.279 . S
C380 C379 1.358 . S
C380 H383 0.930 . S
C381 C378 1.348 . S
C381 C379 1.356 . S
H382 C376 0.930 . S
H383 C380 0.930 . S
C384 C386 1.348 . S
C384 C387 1.356 . S
C384 O414 1.325 . S
N385 C388 1.314 . S
N385 C389 1.279 1_655 S
C386 C384 1.348 . S
C386 C388 1.353 1_455 S
C386 H428 0.929 . S
C387 C384 1.356 . S
C387 C389 1.358 . S
C387 H429 0.930 . S
C388 N385 1.314 . S
C388 C386 1.353 1_655 S
C388 H430 0.930 . S
C389 N385 1.279 1_455 S
C389 C387 1.358 . S
C389 H431 0.930 . S
C390 C391 1.348 . S
C390 C392 1.356 . S
C390 O415 1.325 . S
C391 C390 1.348 . S
C391 C393 1.353 . S
C391 H432 0.929 . S
C392 C390 1.356 . S
C392 C394 1.358 . S
C392 H433 0.930 . S
C393 C391 1.353 . S
C393 N395 1.314 . S
C393 H434 0.930 . S
C394 C392 1.358 . S
C394 N395 1.279 . S
C394 H435 0.930 . S
N395 C393 1.314 . S
N395 C394 1.279 . S
C396 C398 1.353 . S
C396 N399 1.314 . S
C396 H402 0.930 . S
C397 N399 1.279 . S
C397 C400 1.358 . S
C397 H403 0.930 . S
C398 C396 1.353 . S
C398 C401 1.348 . S
C398 H436 0.929 . S
N399 Li354 1.990 . S
N399 C396 1.314 . S
N399 C397 1.279 . S
C400 C397 1.358 . S
C400 C401 1.356 . S
C400 H437 0.930 . S
C401 C398 1.348 . S
C401 C400 1.356 . S
H402 C396 0.930 . S
H403 C397 0.930 . S
C404 N405 1.314 . S
C404 C406 1.353 1_455 S
C404 H410 0.930 . S
N405 Li355 1.990 . S
N405 C404 1.314 . S
N405 C408 1.279 . S
C406 C404 1.353 1_655 S
C406 C409 1.348 . S
C406 H438 0.929 . S
C407 C408 1.314 1_655 S
C407 C409 1.392 . S
C407 H439 0.941 . S
C408 N405 1.279 . S
C408 C407 1.314 1_455 S
C408 H411 0.930 . S
C409 C406 1.348 . S
C409 C407 1.392 . S
H410 C404 0.930 . S
H411 C408 0.930 . S
O412 Li352 1.956 . S
O412 Li353 1.970 . S
O412 Li354 1.961 . S
O412 C356 1.325 . S
O413 Li352 1.970 . S
O413 Li353 1.956 . S
O413 Li355 1.961 . S
O413 C362 1.325 . S
O414 Li352 1.961 . S
O414 Li354 1.956 . S
O414 Li355 1.970 . S
O414 C384 1.325 . S
O415 Li353 1.961 . S
O415 Li354 1.970 . S
O415 Li355 1.956 . S
O415 C390 1.325 . S
H416 C358 0.929 . S
H417 C359 0.930 . S
H418 C360 0.930 . S
H419 C361 0.930 . S
H420 C363 0.930 . S
H421 C365 0.929 . S
H422 C366 0.930 . S
H423 C367 0.930 . S
H424 C370 0.930 . S
H425 C373 0.929 . S
H426 C378 0.929 . S
H427 C379 0.930 . S
H428 C386 0.929 . S
H429 C387 0.930 . S
H430 C388 0.930 . S
H431 C389 0.930 . S
H432 C391 0.929 . S
H433 C392 0.930 . S
H434 C393 0.930 . S
H435 C394 0.930 . S
H436 C398 0.929 . S
H437 C400 0.930 . S
H438 C406 0.929 . S
H439 C407 0.941 . S
Li440 N457 1.990 . S
Li440 O500 1.956 . S
Li440 O501 1.970 . S
Li440 O502 1.961 . S
Li441 N465 1.990 . S
Li441 O500 1.970 . S
Li441 O501 1.956 . S
Li441 O503 1.961 . S
Li442 N487 1.990 . S
Li442 O500 1.961 . S
Li442 O502 1.956 . S
Li442 O503 1.970 . S
Li443 N493 1.990 . S
Li443 O501 1.961 . S
Li443 O502 1.970 . S
Li443 O503 1.956 . S
C444 C446 1.348 . S
C444 C447 1.356 . S
C444 O500 1.325 . S
N445 C448 1.314 . S
N445 C449 1.279 . S
C446 C444 1.348 . S
C446 C448 1.353 . S
C446 H504 0.929 . S
C447 C444 1.356 . S
C447 C449 1.358 . S
C447 H505 0.930 . S
C448 N445 1.314 . S
C448 C446 1.353 . S
C448 H506 0.930 . S
C449 N445 1.279 . S
C449 C447 1.358 . S
C449 H507 0.930 . S
C450 C453 1.348 . S
C450 C454 1.356 . S
C450 O501 1.325 . S
C451 N452 1.279 . S
C451 C454 1.358 . S
C451 H508 0.930 . S
N452 C451 1.279 . S
N452 C455 1.314 . S
C453 C450 1.348 . S
C453 C455 1.353 . S
C453 H509 0.929 . S
C454 C450 1.356 . S
C454 C451 1.358 . S
C454 H510 0.930 . S
C455 N452 1.314 . S
C455 C453 1.353 . S
C455 H511 0.930 . S
C456 N457 1.314 . S
C456 C461 1.353 . S
C456 H462 0.930 . S
N457 Li440 1.990 . S
N457 C456 1.314 . S
N457 C459 1.279 . S
C458 C459 1.358 . S
C458 C460 1.356 . S
C458 H512 0.930 . S
C459 N457 1.279 . S
C459 C458 1.358 . S
C459 H463 0.930 . S
C460 C458 1.356 . S
C460 C461 1.348 . S
C461 C456 1.353 . S
C461 C460 1.348 . S
C461 H513 0.929 . S
H462 C456 0.930 . S
H463 C459 0.930 . S
C464 N465 1.314 . S
C464 C466 1.353 . S
C464 H470 0.930 . S
N465 Li441 1.990 . S
N465 C464 1.314 . S
N465 C468 1.279 . S
C466 C464 1.353 . S
C466 C469 1.348 . S
C466 H514 0.929 . S
C467 C468 1.358 . S
C467 C469 1.356 . S
C467 H515 0.930 . S
C468 N465 1.279 . S
C468 C467 1.358 . S
C468 H471 0.930 . S
C469 C466 1.348 . S
C469 C467 1.356 . S
H470 C464 0.930 . S
H471 C468 0.930 . S
C472 C474 1.348 . S
C472 C475 1.356 . S
C472 O502 1.325 . S
N473 C476 1.314 . S
N473 C477 1.279 . S
C474 C472 1.348 . S
C474 C476 1.353 . S
C474 H516 0.929 . S
C475 C472 1.356 . S
C475 C477 1.358 . S
C475 H517 0.930 . S
C476 N473 1.314 . S
C476 C474 1.353 . S
C476 H518 0.930 . S
C477 N473 1.279 . S
C477 C475 1.358 . S
C477 H519 0.930 . S
C478 C479 1.348 . S
C478 C480 1.356 . S
C478 O503 1.325 . S
C479 C478 1.348 . S
C479 C481 1.353 . S
C479 H520 0.929 . S
C480 C478 1.356 . S
C480 C482 1.358 . S
C480 H521 0.930 . S
C481 C479 1.353 . S
C481 N483 1.314 . S
C481 H522 0.930 . S
C482 C480 1.358 . S
C482 N483 1.279 . S
C482 H523 0.930 . S
N483 C481 1.314 . S
N483 C482 1.279 . S
C484 C486 1.353 . S
C484 N487 1.314 . S
C484 H490 0.930 . S
C485 N487 1.279 . S
C485 C488 1.358 . S
C485 H491 0.930 . S
C486 C484 1.353 . S
C486 C489 1.348 . S
C486 H524 0.929 . S
N487 Li442 1.990 . S
N487 C484 1.314 . S
N487 C485 1.279 . S
C488 C485 1.358 . S
C488 C489 1.356 . S
C488 H525 0.930 . S
C489 C486 1.348 . S
C489 C488 1.356 . S
H490 C484 0.930 . S
H491 C485 0.930 . S
C492 N493 1.314 . S
C492 C494 1.353 . S
C492 H498 0.930 . S
N493 Li443 1.990 . S
N493 C492 1.314 . S
N493 C496 1.279 . S
C494 C492 1.353 . S
C494 C497 1.348 . S
C494 H526 0.929 . S
C495 C496 1.358 . S
C495 C497 1.356 . S
C495 H527 0.930 . S
C496 N493 1.279 . S
C496 C495 1.358 . S
C496 H499 0.930 . S
C497 C494 1.348 . S
C497 C495 1.356 . S
H498 C492 0.930 . S
H499 C496 0.930 . S
O500 Li440 1.956 . S
O500 Li441 1.970 . S
O500 Li442 1.961 . S
O500 C444 1.325 . S
O501 Li440 1.970 . S
O501 Li441 1.956 . S
O501 Li443 1.961 . S
O501 C450 1.325 . S
O502 Li440 1.961 . S
O502 Li442 1.956 . S
O502 Li443 1.970 . S
O502 C472 1.325 . S
O503 Li441 1.961 . S
O503 Li442 1.970 . S
O503 Li443 1.956 . S
O503 C478 1.325 . S
H504 C446 0.929 . S
H505 C447 0.930 . S
H506 C448 0.930 . S
H507 C449 0.930 . S
H508 C451 0.930 . S
H509 C453 0.929 . S
H510 C454 0.930 . S
H511 C455 0.930 . S
H512 C458 0.930 . S
H513 C461 0.929 . S
H514 C466 0.929 . S
H515 C467 0.930 . S
H516 C474 0.929 . S
H517 C475 0.930 . S
H518 C476 0.930 . S
H519 C477 0.930 . S
H520 C479 0.929 . S
H521 C480 0.930 . S
H522 C481 0.930 . S
H523 C482 0.930 . S
H524 C486 0.929 . S
H525 C488 0.930 . S
H526 C494 0.929 . S
H527 C495 0.930 . S
Li528 N545 1.990 . S
Li528 O588 1.956 . S
Li528 O589 1.970 . S
Li528 O590 1.961 . S
Li529 N553 1.990 . S
Li529 O588 1.970 . S
Li529 O589 1.956 . S
Li529 O591 1.961 . S
Li530 N575 1.990 . S
Li530 O588 1.961 . S
Li530 O590 1.956 . S
Li530 O591 1.970 . S
Li531 N581 1.990 . S
Li531 O589 1.961 . S
Li531 O590 1.970 . S
Li531 O591 1.956 . S
C532 C534 1.348 . S
C532 C535 1.356 . S
C532 O588 1.325 . S
N533 C536 1.314 . S
N533 C537 1.279 . S
C534 C532 1.348 . S
C534 C536 1.353 . S
C534 H592 0.929 . S
C535 C532 1.356 . S
C535 C537 1.358 . S
C535 H593 0.930 . S
C536 N533 1.314 . S
C536 C534 1.353 . S
C536 H594 0.930 . S
C537 N533 1.279 . S
C537 C535 1.358 . S
C537 H595 0.930 . S
C538 C541 1.348 . S
C538 C542 1.356 . S
C538 O589 1.325 . S
C539 N540 1.279 . S
C539 C542 1.358 . S
C539 H596 0.930 . S
N540 C539 1.279 . S
N540 C543 1.314 . S
C541 C538 1.348 . S
C541 C543 1.353 . S
C541 H597 0.929 . S
C542 C538 1.356 . S
C542 C539 1.358 . S
C542 H598 0.930 . S
C543 N540 1.314 . S
C543 C541 1.353 . S
C543 H599 0.930 . S
C544 N545 1.314 . S
C544 C549 1.353 . S
C544 H550 0.930 . S
N545 Li528 1.990 . S
N545 C544 1.314 . S
N545 C547 1.279 . S
C546 C547 1.358 . S
C546 C548 1.356 . S
C546 H600 0.930 . S
C547 N545 1.279 . S
C547 C546 1.358 . S
C547 H551 0.930 . S
C548 C546 1.356 . S
C548 C549 1.348 . S
C549 C544 1.353 . S
C549 C548 1.348 . S
C549 H601 0.929 . S
H550 C544 0.930 . S
H551 C547 0.930 . S
C552 N553 1.314 . S
C552 C554 1.353 . S
C552 H558 0.930 . S
N553 Li529 1.990 . S
N553 C552 1.314 . S
N553 C556 1.279 . S
C554 C552 1.353 . S
C554 C557 1.348 . S
C554 H602 0.929 . S
C555 C556 1.358 . S
C555 C557 1.356 . S
C555 H603 0.930 . S
C556 N553 1.279 . S
C556 C555 1.358 . S
C556 H559 0.930 . S
C557 C554 1.348 . S
C557 C555 1.356 . S
H558 C552 0.930 . S
H559 C556 0.930 . S
C560 C562 1.348 . S
C560 C563 1.356 . S
C560 O590 1.325 . S
N561 C564 1.314 . S
N561 C565 1.279 . S
C562 C560 1.348 . S
C562 C564 1.353 . S
C562 H604 0.929 . S
C563 C560 1.356 . S
C563 C565 1.358 . S
C563 H605 0.930 . S
C564 N561 1.314 . S
C564 C562 1.353 . S
C564 H606 0.930 . S
C565 N561 1.279 . S
C565 C563 1.358 . S
C565 H607 0.930 . S
C566 C567 1.348 . S
C566 C568 1.356 . S
C566 O591 1.325 . S
C567 C566 1.348 . S
C567 C569 1.353 . S
C567 H608 0.929 . S
C568 C566 1.356 . S
C568 C570 1.358 . S
C568 H609 0.930 . S
C569 C567 1.353 . S
C569 N571 1.314 . S
C569 H610 0.930 . S
C570 C568 1.358 . S
C570 N571 1.279 . S
C570 H611 0.930 . S
N571 C569 1.314 . S
N571 C570 1.279 . S
C572 C574 1.353 . S
C572 N575 1.314 . S
C572 H578 0.930 . S
C573 N575 1.279 . S
C573 C576 1.358 . S
C573 H579 0.930 . S
C574 C572 1.353 . S
C574 C577 1.348 . S
C574 H612 0.929 . S
N575 Li530 1.990 . S
N575 C572 1.314 . S
N575 C573 1.279 . S
C576 C573 1.358 . S
C576 C577 1.356 . S
C576 H613 0.930 . S
C577 C574 1.348 . S
C577 C576 1.356 . S
H578 C572 0.930 . S
H579 C573 0.930 . S
C580 N581 1.314 . S
C580 C582 1.353 . S
C580 H586 0.930 . S
N581 Li531 1.990 . S
N581 C580 1.314 . S
N581 C584 1.279 . S
C582 C580 1.353 . S
C582 C585 1.348 . S
C582 H614 0.929 . S
C583 C584 1.358 . S
C583 C585 1.356 . S
C583 H615 0.930 . S
C584 N581 1.279 . S
C584 C583 1.358 . S
C584 H587 0.930 . S
C585 C582 1.348 . S
C585 C583 1.356 . S
H586 C580 0.930 . S
H587 C584 0.930 . S
O588 Li528 1.956 . S
O588 Li529 1.970 . S
O588 Li530 1.961 . S
O588 C532 1.325 . S
O589 Li528 1.970 . S
O589 Li529 1.956 . S
O589 Li531 1.961 . S
O589 C538 1.325 . S
O590 Li528 1.961 . S
O590 Li530 1.956 . S
O590 Li531 1.970 . S
O590 C560 1.325 . S
O591 Li529 1.961 . S
O591 Li530 1.970 . S
O591 Li531 1.956 . S
O591 C566 1.325 . S
H592 C534 0.929 . S
H593 C535 0.930 . S
H594 C536 0.930 . S
H595 C537 0.930 . S
H596 C539 0.930 . S
H597 C541 0.929 . S
H598 C542 0.930 . S
H599 C543 0.930 . S
H600 C546 0.930 . S
H601 C549 0.929 . S
H602 C554 0.929 . S
H603 C555 0.930 . S
H604 C562 0.929 . S
H605 C563 0.930 . S
H606 C564 0.930 . S
H607 C565 0.930 . S
H608 C567 0.929 . S
H609 C568 0.930 . S
H610 C569 0.930 . S
H611 C570 0.930 . S
H612 C574 0.929 . S
H613 C576 0.930 . S
H614 C582 0.929 . S
H615 C583 0.930 . S
Li616 N633 1.990 . S
Li616 O676 1.956 1_455 S
Li616 O677 1.970 . S
Li616 O678 1.961 . S
Li617 N641 1.990 . S
Li617 O676 1.970 . S
Li617 O677 1.956 1_655 S
Li617 O679 1.961 1_655 S
Li618 N663 1.990 . S
Li618 O676 1.961 1_455 S
Li618 O678 1.956 . S
Li618 O679 1.970 . S
Li619 N669 1.990 . S
Li619 O677 1.961 . S
Li619 O678 1.970 . S
Li619 O679 1.956 . S
C620 C622 1.348 . S
C620 C623 1.356 . S
C620 O676 1.325 . S
N621 C624 1.314 . S
N621 C625 1.279 . S
C622 C620 1.348 . S
C622 C624 1.353 . S
C622 H680 0.929 . S
C623 C620 1.356 . S
C623 C625 1.358 . S
C623 H681 0.930 . S
C624 N621 1.314 . S
C624 C622 1.353 . S
C624 H682 0.930 . S
C625 N621 1.279 . S
C625 C623 1.358 . S
C625 H683 0.930 . S
C626 C629 1.348 . S
C626 C630 1.356 . S
C626 O677 1.325 . S
C627 N628 1.279 . S
C627 C630 1.358 . S
C627 H684 0.930 . S
N628 C627 1.279 . S
N628 C631 1.314 . S
C629 C626 1.348 . S
C629 C631 1.353 . S
C629 H685 0.929 . S
C630 C626 1.356 . S
C630 C627 1.358 . S
C630 H686 0.930 . S
C631 N628 1.314 . S
C631 C629 1.353 . S
C631 H687 0.930 . S
C632 N633 1.314 . S
C632 C637 1.353 . S
C632 H638 0.930 . S
N633 Li616 1.990 . S
N633 C632 1.314 . S
N633 C635 1.278 . S
C634 C635 1.359 . S
C634 C636 1.356 . S
C634 H688 0.930 1_455 S
C635 N633 1.278 . S
C635 C634 1.359 . S
C635 H639 0.931 1_455 S
C636 C634 1.356 . S
C636 C637 1.348 . S
C637 C632 1.353 . S
C637 C636 1.348 . S
C637 H689 0.929 . S
H638 C632 0.930 . S
H639 C635 0.931 1_655 S
C640 N641 1.314 . S
C640 C642 1.353 . S
C640 H646 0.930 . S
N641 Li617 1.990 . S
N641 C640 1.314 . S
N641 C644 1.279 . S
C642 C640 1.353 . S
C642 C645 1.348 . S
C642 H690 0.929 . S
C643 C644 1.358 . S
C643 C645 1.356 . S
C643 H691 0.930 . S
C644 N641 1.279 . S
C644 C643 1.358 . S
C644 H647 0.930 . S
C645 C642 1.348 . S
C645 C643 1.356 . S
H646 C640 0.930 . S
H647 C644 0.930 . S
C648 C650 1.348 . S
C648 C651 1.356 . S
C648 O678 1.325 . S
N649 C652 1.314 . S
N649 C653 1.279 . S
C650 C648 1.348 . S
C650 C652 1.353 . S
C650 H692 0.929 . S
C651 C648 1.356 . S
C651 C653 1.358 . S
C651 H693 0.930 . S
C652 N649 1.314 . S
C652 C650 1.353 . S
C652 H694 0.930 . S
C653 N649 1.279 . S
C653 C651 1.358 . S
C653 H695 0.930 . S
C654 C655 1.348 . S
C654 C656 1.353 1_455 S
C654 O679 1.325 . S
C655 C654 1.348 . S
C655 C657 1.353 . S
C655 H696 0.929 . S
C656 C654 1.353 1_655 S
C656 C658 1.356 . S
C656 H697 0.936 . S
C657 C655 1.353 . S
C657 N659 1.327 . S
C657 H698 0.930 . S
C658 C656 1.356 . S
C658 N659 1.262 1_655 S
C658 H699 0.930 . S
N659 C657 1.327 . S
N659 C658 1.262 1_455 S
C660 C662 1.353 . S
C660 N663 1.314 1_655 S
C660 H666 0.930 . S
C661 N663 1.279 . S
C661 C664 1.358 . S
C661 H667 0.930 . S
C662 C660 1.353 . S
C662 C665 1.348 1_655 S
C662 H700 0.929 . S
N663 Li618 1.990 . S
N663 C660 1.314 1_455 S
N663 C661 1.279 . S
C664 C661 1.358 . S
C664 C665 1.356 . S
C664 H701 0.930 . S
C665 C662 1.348 1_455 S
C665 C664 1.356 . S
H666 C660 0.930 . S
H667 C661 0.930 . S
C668 N669 1.314 . S
C668 C670 1.353 . S
C668 H674 0.930 . S
N669 Li619 1.990 . S
N669 C668 1.314 . S
N669 C672 1.279 . S
C670 C668 1.353 . S
C670 C673 1.348 . S
C670 H702 0.929 . S
C671 C672 1.358 . S
C671 C673 1.356 . S
C671 H703 0.930 . S
C672 N669 1.279 . S
C672 C671 1.358 . S
C672 H675 0.930 . S
C673 C670 1.348 . S
C673 C671 1.356 . S
H674 C668 0.930 . S
H675 C672 0.930 . S
O676 Li616 1.956 1_655 S
O676 Li617 1.970 . S
O676 Li618 1.961 1_655 S
O676 C620 1.325 . S
O677 Li616 1.970 . S
O677 Li617 1.956 1_455 S
O677 Li619 1.961 . S
O677 C626 1.325 . S
O678 Li616 1.961 . S
O678 Li618 1.956 . S
O678 Li619 1.970 . S
O678 C648 1.325 . S
O679 Li617 1.961 1_455 S
O679 Li618 1.970 . S
O679 Li619 1.956 . S
O679 C654 1.325 . S
H680 C622 0.929 . S
H681 C623 0.930 . S
H682 C624 0.930 . S
H683 C625 0.930 . S
H684 C627 0.930 . S
H685 C629 0.929 . S
H686 C630 0.930 . S
H687 C631 0.930 . S
H688 C634 0.930 1_655 S
H689 C637 0.929 . S
H690 C642 0.929 . S
H691 C643 0.930 . S
H692 C650 0.929 . S
H693 C651 0.930 . S
H694 C652 0.930 . S
H695 C653 0.930 . S
H696 C655 0.929 . S
H697 C656 0.936 . S
H698 C657 0.930 . S
H699 C658 0.930 . S
H700 C662 0.929 . S
H701 C664 0.930 . S
H702 C670 0.929 . S
H703 C671 0.930 . S
Li704 N721 1.990 . S
Li704 O764 1.956 1_545 S
Li704 O765 1.970 . S
Li704 O766 1.961 . S
Li705 N729 1.990 . S
Li705 O764 1.970 . S
Li705 O765 1.956 1_565 S
Li705 O767 1.961 1_565 S
Li706 N751 1.990 . S
Li706 O764 1.961 1_545 S
Li706 O766 1.956 . S
Li706 O767 1.970 . S
Li707 N757 1.990 . S
Li707 O765 1.961 . S
Li707 O766 1.970 . S
Li707 O767 1.956 . S
C708 C710 1.348 . S
C708 C711 1.356 . S
C708 O764 1.325 . S
N709 C712 1.314 . S
N709 C713 1.279 . S
C710 C708 1.348 . S
C710 C712 1.353 . S
C710 H768 0.929 . S
C711 C708 1.356 . S
C711 C713 1.358 . S
C711 H769 0.930 . S
C712 N709 1.314 . S
C712 C710 1.353 . S
C712 H770 0.930 . S
C713 N709 1.279 . S
C713 C711 1.358 . S
C713 H771 0.930 . S
C714 C717 1.348 . S
C714 C718 1.356 . S
C714 O765 1.325 . S
C715 N716 1.279 . S
C715 C718 1.358 . S
C715 H772 0.930 . S
N716 C715 1.279 . S
N716 C719 1.314 . S
C717 C714 1.348 . S
C717 C719 1.353 . S
C717 H773 0.929 . S
C718 C714 1.356 . S
C718 C715 1.358 . S
C718 H774 0.930 . S
C719 N716 1.314 . S
C719 C717 1.353 . S
C719 H775 0.930 . S
C720 N721 1.314 . S
C720 C725 1.353 . S
C720 H726 0.930 . S
N721 Li704 1.990 . S
N721 C720 1.314 . S
N721 C723 1.279 . S
C722 C723 1.358 . S
C722 C724 1.356 . S
C722 H776 0.930 1_545 S
C723 N721 1.279 . S
C723 C722 1.358 . S
C723 H727 0.930 1_545 S
C724 C722 1.356 . S
C724 C725 1.348 . S
C725 C720 1.353 . S
C725 C724 1.348 . S
C725 H777 0.929 . S
H726 C720 0.930 . S
H727 C723 0.930 1_565 S
C728 N729 1.314 . S
C728 C730 1.353 . S
C728 H734 0.930 . S
N729 Li705 1.990 . S
N729 C728 1.314 . S
N729 C732 1.279 . S
C730 C728 1.353 . S
C730 C733 1.348 . S
C730 H778 0.929 . S
C731 C732 1.358 . S
C731 C733 1.356 . S
C731 H779 0.930 . S
C732 N729 1.279 . S
C732 C731 1.358 . S
C732 H735 0.930 . S
C733 C730 1.348 . S
C733 C731 1.356 . S
H734 C728 0.930 . S
H735 C732 0.930 . S
C736 C738 1.348 . S
C736 C739 1.356 . S
C736 O766 1.325 . S
N737 C740 1.314 . S
N737 C741 1.279 . S
C738 C736 1.348 . S
C738 C740 1.353 . S
C738 H780 0.929 . S
C739 C736 1.356 . S
C739 C741 1.358 . S
C739 H781 0.930 . S
C740 N737 1.314 . S
C740 C738 1.353 . S
C740 H782 0.930 . S
C741 N737 1.279 . S
C741 C739 1.358 . S
C741 H783 0.930 . S
C742 C743 1.348 . S
C742 C744 1.356 1_545 S
C742 O767 1.325 . S
C743 C742 1.348 . S
C743 C745 1.353 . S
C743 H784 0.929 . S
C744 C742 1.356 1_565 S
C744 C746 1.358 . S
C744 H785 0.930 . S
C745 C743 1.353 . S
C745 N747 1.314 1_545 S
C745 H786 0.930 . S
C746 C744 1.358 . S
C746 N747 1.279 . S
C746 H787 0.930 . S
N747 C745 1.314 1_565 S
N747 C746 1.279 . S
C748 C750 1.353 . S
C748 N751 1.314 1_565 S
C748 H754 0.930 . S
C749 N751 1.279 . S
C749 C752 1.358 . S
C749 H755 0.930 . S
C750 C748 1.353 . S
C750 C753 1.348 1_565 S
C750 H788 0.929 . S
N751 Li706 1.990 . S
N751 C748 1.314 1_545 S
N751 C749 1.279 . S
C752 C749 1.358 . S
C752 C753 1.356 . S
C752 H789 0.930 . S
C753 C750 1.348 1_545 S
C753 C752 1.356 . S
H754 C748 0.930 . S
H755 C749 0.930 . S
C756 N757 1.314 . S
C756 C758 1.353 . S
C756 H762 0.930 . S
N757 Li707 1.990 . S
N757 C756 1.314 . S
N757 C760 1.279 . S
C758 C756 1.353 . S
C758 C761 1.348 . S
C758 H790 0.929 . S
C759 C760 1.358 . S
C759 C761 1.356 . S
C759 H791 0.930 . S
C760 N757 1.279 . S
C760 C759 1.358 . S
C760 H763 0.930 . S
C761 C758 1.348 . S
C761 C759 1.356 . S
H762 C756 0.930 . S
H763 C760 0.930 . S
O764 Li704 1.956 1_565 S
O764 Li705 1.970 . S
O764 Li706 1.961 1_565 S
O764 C708 1.325 . S
O765 Li704 1.970 . S
O765 Li705 1.956 1_545 S
O765 Li707 1.961 . S
O765 C714 1.325 . S
O766 Li704 1.961 . S
O766 Li706 1.956 . S
O766 Li707 1.970 . S
O766 C736 1.325 . S
O767 Li705 1.961 1_545 S
O767 Li706 1.970 . S
O767 Li707 1.956 . S
O767 C742 1.325 . S
H768 C710 0.929 . S
H769 C711 0.930 . S
H770 C712 0.930 . S
H771 C713 0.930 . S
H772 C715 0.930 . S
H773 C717 0.929 . S
H774 C718 0.930 . S
H775 C719 0.930 . S
H776 C722 0.930 1_565 S
H777 C725 0.929 . S
H778 C730 0.929 . S
H779 C731 0.930 . S
H780 C738 0.929 . S
H781 C739 0.930 . S
H782 C740 0.930 . S
H783 C741 0.930 . S
H784 C743 0.929 . S
H785 C744 0.930 . S
H786 C745 0.930 . S
H787 C746 0.930 . S
H788 C750 0.929 . S
H789 C752 0.930 . S
H790 C758 0.929 . S
H791 C759 0.930 . S
Li792 N809 1.990 . S
Li792 O852 1.956 . S
Li792 O853 1.970 . S
Li792 O854 1.961 . S
Li793 N817 1.990 . S
Li793 O852 1.970 . S
Li793 O853 1.956 . S
Li793 O855 1.961 . S
Li794 N839 1.990 . S
Li794 O852 1.961 . S
Li794 O854 1.956 . S
Li794 O855 1.970 . S
Li795 N845 1.990 . S
Li795 O853 1.961 . S
Li795 O854 1.970 . S
Li795 O855 1.956 . S
C796 C798 1.348 . S
C796 C799 1.356 . S
C796 O852 1.325 . S
N797 C800 1.314 . S
N797 C801 1.279 . S
C798 C796 1.348 . S
C798 C800 1.353 . S
C798 H856 0.929 . S
C799 C796 1.356 . S
C799 C801 1.358 . S
C799 H857 0.930 . S
C800 N797 1.314 . S
C800 C798 1.353 . S
C800 H858 0.930 . S
C801 N797 1.279 . S
C801 C799 1.358 . S
C801 H859 0.930 . S
C802 C805 1.348 . S
C802 C806 1.356 . S
C802 O853 1.325 . S
C803 N804 1.279 . S
C803 C806 1.358 . S
C803 H860 0.930 . S
N804 C803 1.279 . S
N804 C807 1.314 . S
C805 C802 1.348 . S
C805 C807 1.353 . S
C805 H861 0.929 . S
C806 C802 1.356 . S
C806 C803 1.358 . S
C806 H862 0.930 . S
C807 N804 1.314 . S
C807 C805 1.353 . S
C807 H863 0.930 . S
C808 N809 1.314 . S
C808 C813 1.353 . S
C808 H814 0.930 . S
N809 Li792 1.990 . S
N809 C808 1.314 . S
N809 C811 1.279 . S
C810 C811 1.358 . S
C810 C812 1.356 . S
C810 H864 0.930 . S
C811 N809 1.279 . S
C811 C810 1.358 . S
C811 H815 0.930 . S
C812 C810 1.356 . S
C812 C813 1.348 . S
C813 C808 1.353 . S
C813 C812 1.348 . S
C813 H865 0.929 . S
H814 C808 0.930 . S
H815 C811 0.930 . S
C816 N817 1.314 . S
C816 C818 1.353 . S
C816 H822 0.930 . S
N817 Li793 1.990 . S
N817 C816 1.314 . S
N817 C820 1.279 . S
C818 C816 1.353 . S
C818 C821 1.348 . S
C818 H866 0.929 . S
C819 C820 1.358 . S
C819 C821 1.356 . S
C819 H867 0.930 . S
C820 N817 1.279 . S
C820 C819 1.358 . S
C820 H823 0.930 . S
C821 C818 1.348 . S
C821 C819 1.356 . S
H822 C816 0.930 . S
H823 C820 0.930 . S
C824 C826 1.348 . S
C824 C827 1.356 . S
C824 O854 1.325 . S
N825 C828 1.314 . S
N825 C829 1.279 . S
C826 C824 1.348 . S
C826 C828 1.353 . S
C826 H868 0.929 . S
C827 C824 1.356 . S
C827 C829 1.358 . S
C827 H869 0.930 . S
C828 N825 1.314 . S
C828 C826 1.353 . S
C828 H870 0.930 . S
C829 N825 1.279 . S
C829 C827 1.358 . S
C829 H871 0.930 . S
C830 C831 1.348 . S
C830 C832 1.356 . S
C830 O855 1.325 . S
C831 C830 1.348 . S
C831 C833 1.353 . S
C831 H872 0.929 . S
C832 C830 1.356 . S
C832 C834 1.358 . S
C832 H873 0.930 . S
C833 C831 1.353 . S
C833 N835 1.314 . S
C833 H874 0.930 . S
C834 C832 1.358 . S
C834 N835 1.279 . S
C834 H875 0.930 . S
N835 C833 1.314 . S
N835 C834 1.279 . S
C836 C838 1.353 . S
C836 N839 1.314 . S
C836 H842 0.930 . S
C837 N839 1.279 . S
C837 C840 1.358 . S
C837 H843 0.930 . S
C838 C836 1.353 . S
C838 C841 1.348 . S
C838 H876 0.929 . S
N839 Li794 1.990 . S
N839 C836 1.314 . S
N839 C837 1.279 . S
C840 C837 1.358 . S
C840 C841 1.356 . S
C840 H877 0.930 . S
C841 C838 1.348 . S
C841 C840 1.356 . S
H842 C836 0.930 . S
H843 C837 0.930 . S
C844 N845 1.314 . S
C844 C846 1.353 . S
C844 H850 0.930 . S
N845 Li795 1.990 . S
N845 C844 1.314 . S
N845 C848 1.279 . S
C846 C844 1.353 . S
C846 C849 1.348 . S
C846 H878 0.929 . S
C847 C848 1.358 . S
C847 C849 1.356 . S
C847 H879 0.930 . S
C848 N845 1.279 . S
C848 C847 1.358 . S
C848 H851 0.930 . S
C849 C846 1.348 . S
C849 C847 1.356 . S
H850 C844 0.930 . S
H851 C848 0.930 . S
O852 Li792 1.956 . S
O852 Li793 1.970 . S
O852 Li794 1.961 . S
O852 C796 1.325 . S
O853 Li792 1.970 . S
O853 Li793 1.956 . S
O853 Li795 1.961 . S
O853 C802 1.325 . S
O854 Li792 1.961 . S
O854 Li794 1.956 . S
O854 Li795 1.970 . S
O854 C824 1.325 . S
O855 Li793 1.961 . S
O855 Li794 1.970 . S
O855 Li795 1.956 . S
O855 C830 1.325 . S
H856 C798 0.929 . S
H857 C799 0.930 . S
H858 C800 0.930 . S
H859 C801 0.930 . S
H860 C803 0.930 . S
H861 C805 0.929 . S
H862 C806 0.930 . S
H863 C807 0.930 . S
H864 C810 0.930 . S
H865 C813 0.929 . S
H866 C818 0.929 . S
H867 C819 0.930 . S
H868 C826 0.929 . S
H869 C827 0.930 . S
H870 C828 0.930 . S
H871 C829 0.930 . S
H872 C831 0.929 . S
H873 C832 0.930 . S
H874 C833 0.930 . S
H875 C834 0.930 . S
H876 C838 0.929 . S
H877 C840 0.930 . S
H878 C846 0.929 . S
H879 C847 0.930 . S
Li880 N897 1.990 . S
Li880 O940 1.956 . S
Li880 O941 1.970 . S
Li880 O942 1.961 . S
Li881 N905 1.990 . S
Li881 O940 1.970 . S
Li881 O941 1.956 . S
Li881 O943 1.961 1_545 S
Li882 N927 1.990 . S
Li882 O940 1.961 1_565 S
Li882 O942 1.956 1_565 S
Li882 O943 1.970 . S
Li883 N933 1.990 . S
Li883 O941 1.961 1_565 S
Li883 O942 1.970 1_565 S
Li883 O943 1.956 . S
C884 C886 1.348 . S
C884 C887 1.356 . S
C884 O940 1.325 . S
N885 C888 1.314 . S
N885 C889 1.279 . S
C886 C884 1.348 . S
C886 C888 1.353 . S
C886 H944 0.929 . S
C887 C884 1.356 . S
C887 C889 1.358 . S
C887 H945 0.930 . S
C888 N885 1.314 . S
C888 C886 1.353 . S
C888 H946 0.930 . S
C889 N885 1.279 . S
C889 C887 1.358 . S
C889 H947 0.930 . S
C890 C893 1.348 . S
C890 C894 1.356 . S
C890 O941 1.325 . S
C891 N892 1.279 . S
C891 C894 1.358 . S
C891 H948 0.930 . S
N892 C891 1.279 . S
N892 C895 1.314 . S
C893 C890 1.348 . S
C893 C895 1.353 . S
C893 H949 0.929 . S
C894 C890 1.356 . S
C894 C891 1.358 . S
C894 H950 0.930 . S
C895 N892 1.314 . S
C895 C893 1.353 . S
C895 H951 0.930 . S
C896 N897 1.314 . S
C896 C901 1.353 . S
C896 H902 0.930 . S
N897 Li880 1.990 . S
N897 C896 1.314 . S
N897 C899 1.279 . S
C898 C899 1.358 . S
C898 C900 1.356 . S
C898 H952 0.930 . S
C899 N897 1.279 . S
C899 C898 1.358 . S
C899 H903 0.930 . S
C900 C898 1.356 . S
C900 C901 1.348 . S
C901 C896 1.353 . S
C901 C900 1.348 . S
C901 H953 0.929 . S
H902 C896 0.930 . S
H903 C899 0.930 . S
C904 N905 1.314 1_565 S
C904 C906 1.353 . S
C904 H910 0.930 . S
N905 Li881 1.990 . S
N905 C904 1.314 1_545 S
N905 C908 1.279 . S
C906 C904 1.353 . S
C906 C909 1.348 1_565 S
C906 H954 0.929 . S
C907 C908 1.358 . S
C907 C909 1.356 . S
C907 H955 0.930 . S
C908 N905 1.279 . S
C908 C907 1.358 . S
C908 H911 0.930 . S
C909 C906 1.348 1_545 S
C909 C907 1.356 . S
H910 C904 0.930 . S
H911 C908 0.930 . S
C912 C914 1.348 1_545 S
C912 C915 1.356 . S
C912 O942 1.325 . S
N913 C916 1.312 1_545 S
N913 C917 1.282 . S
C914 C912 1.348 1_565 S
C914 C916 1.353 . S
C914 H956 0.929 . S
C915 C912 1.356 . S
C915 C917 1.358 . S
C915 H957 0.930 . S
C916 N913 1.312 1_565 S
C916 C914 1.353 . S
C916 H958 0.930 . S
C917 N913 1.282 . S
C917 C915 1.358 . S
C917 H959 0.930 . S
C918 C919 1.348 . S
C918 C920 1.356 . S
C918 O943 1.325 . S
C919 C918 1.348 . S
C919 C921 1.353 . S
C919 H960 0.929 . S
C920 C918 1.356 . S
C920 C922 1.358 . S
C920 H961 0.930 . S
C921 C919 1.353 . S
C921 N923 1.314 . S
C921 H962 0.930 . S
C922 C920 1.358 . S
C922 N923 1.279 . S
C922 H963 0.930 . S
N923 C921 1.314 . S
N923 C922 1.279 . S
C924 C926 1.353 . S
C924 N927 1.314 . S
C924 H930 0.930 . S
C925 N927 1.279 . S
C925 C928 1.358 . S
C925 H931 0.930 . S
C926 C924 1.353 . S
C926 C929 1.348 . S
C926 H964 0.929 . S
N927 Li882 1.990 . S
N927 C924 1.314 . S
N927 C925 1.279 . S
C928 C925 1.358 . S
C928 C929 1.356 . S
C928 H965 0.930 . S
C929 C926 1.348 . S
C929 C928 1.356 . S
H930 C924 0.930 . S
H931 C925 0.930 . S
C932 N933 1.314 1_545 S
C932 C934 1.353 . S
C932 H938 0.930 . S
N933 Li883 1.990 . S
N933 C932 1.314 1_565 S
N933 C936 1.279 . S
C934 C932 1.353 . S
C934 C937 1.348 1_545 S
C934 H966 0.929 . S
C935 C936 1.358 . S
C935 C937 1.356 . S
C935 H967 0.930 . S
C936 N933 1.279 . S
C936 C935 1.358 . S
C936 H939 0.930 . S
C937 C934 1.348 1_565 S
C937 C935 1.356 . S
H938 C932 0.930 . S
H939 C936 0.930 . S
O940 Li880 1.956 . S
O940 Li881 1.970 . S
O940 Li882 1.961 1_545 S
O940 C884 1.325 . S
O941 Li880 1.970 . S
O941 Li881 1.956 . S
O941 Li883 1.961 1_545 S
O941 C890 1.325 . S
O942 Li880 1.961 . S
O942 Li882 1.956 1_545 S
O942 Li883 1.970 1_545 S
O942 C912 1.325 . S
O943 Li881 1.961 1_565 S
O943 Li882 1.970 . S
O943 Li883 1.956 . S
O943 C918 1.325 . S
H944 C886 0.929 . S
H945 C887 0.930 . S
H946 C888 0.930 . S
H947 C889 0.930 . S
H948 C891 0.930 . S
H949 C893 0.929 . S
H950 C894 0.930 . S
H951 C895 0.930 . S
H952 C898 0.930 . S
H953 C901 0.929 . S
H954 C906 0.929 . S
H955 C907 0.930 . S
H956 C914 0.929 . S
H957 C915 0.930 . S
H958 C916 0.930 . S
H959 C917 0.930 . S
H960 C919 0.929 . S
H961 C920 0.930 . S
H962 C921 0.930 . S
H963 C922 0.930 . S
H964 C926 0.929 . S
H965 C928 0.930 . S
H966 C934 0.929 . S
H967 C935 0.930 . S
Li968 N985 1.990 . S
Li968 O1028 1.956 . S
Li968 O1029 1.970 . S
Li968 O1030 1.961 1_554 S
Li969 N993 1.990 . S
Li969 O1028 1.970 . S
Li969 O1029 1.956 . S
Li969 O1031 1.961 . S
Li970 N1015 1.990 . S
Li970 O1028 1.961 . S
Li970 O1030 1.956 1_554 S
Li970 O1031 1.970 . S
Li971 N1021 1.990 . S
Li971 O1029 1.961 1_556 S
Li971 O1030 1.970 . S
Li971 O1031 1.956 1_556 S
C972 C974 1.348 . S
C972 C975 1.356 . S
C972 O1028 1.325 . S
N973 C976 1.314 . S
N973 C977 1.279 . S
C974 C972 1.348 . S
C974 C976 1.353 . S
C974 H1032 0.929 . S
C975 C972 1.356 . S
C975 C977 1.358 . S
C975 H1033 0.930 . S
C976 N973 1.314 . S
C976 C974 1.353 . S
C976 H1034 0.930 . S
C977 N973 1.279 . S
C977 C975 1.358 . S
C977 H1035 0.930 . S
C978 C981 1.348 . S
C978 C982 1.356 . S
C978 O1029 1.325 . S
C979 N980 1.279 . S
C979 C982 1.358 . S
C979 H1036 0.924 1_554 S
N980 C979 1.279 . S
N980 C983 1.314 . S
C981 C978 1.348 . S
C981 C983 1.353 . S
C981 H1037 0.929 . S
C982 C978 1.356 . S
C982 C979 1.358 . S
C982 H1038 0.930 . S
C983 N980 1.314 . S
C983 C981 1.353 . S
C983 H1039 0.930 . S
C984 N985 1.314 . S
C984 C989 1.361 . S
C984 H990 0.930 1_554 S
N985 Li968 1.990 . S
N985 C984 1.314 . S
N985 C987 1.279 . S
C986 C987 1.358 . S
C986 C988 1.356 . S
C986 H1040 0.930 . S
C987 N985 1.279 . S
C987 C986 1.358 . S
C987 H991 0.930 . S
C988 C986 1.356 . S
C988 C989 1.411 . S
C989 C984 1.361 . S
C989 C988 1.411 . S
C989 H1041 0.862 1_554 S
H990 C984 0.930 1_556 S
H991 C987 0.930 . S
C992 N993 1.314 . S
C992 C994 1.353 . S
C992 H998 0.930 . S
N993 Li969 1.990 . S
N993 C992 1.314 . S
N993 C996 1.279 . S
C994 C992 1.353 . S
C994 C997 1.348 . S
C994 H1042 0.929 . S
C995 C996 1.358 . S
C995 C997 1.356 . S
C995 H1043 0.930 . S
C996 N993 1.279 . S
C996 C995 1.358 . S
C996 H999 0.930 . S
C997 C994 1.348 . S
C997 C995 1.356 . S
H998 C992 0.930 . S
H999 C996 0.930 . S
C1000 C1002 1.348 . S
C1000 C1003 1.356 . S
C1000 O1030 1.325 . S
N1001 C1004 1.314 . S
N1001 C1005 1.279 . S
C1002 C1000 1.348 . S
C1002 C1004 1.353 . S
C1002 H1044 0.929 . S
C1003 C1000 1.356 . S
C1003 C1005 1.358 . S
C1003 H1045 0.930 . S
C1004 N1001 1.314 . S
C1004 C1002 1.353 . S
C1004 H1046 0.930 . S
C1005 N1001 1.279 . S
C1005 C1003 1.358 . S
C1005 H1047 0.930 . S
C1006 C1007 1.348 . S
C1006 C1008 1.356 . S
C1006 O1031 1.325 . S
C1007 C1006 1.348 . S
C1007 C1009 1.353 . S
C1007 H1048 0.929 . S
C1008 C1006 1.356 . S
C1008 C1010 1.358 . S
C1008 H1049 0.930 . S
C1009 C1007 1.353 . S
C1009 N1011 1.314 . S
C1009 H1050 0.930 . S
C1010 C1008 1.358 . S
C1010 N1011 1.279 . S
C1010 H1051 0.930 . S
N1011 C1009 1.314 . S
N1011 C1010 1.279 . S
C1012 C1014 1.353 . S
C1012 N1015 1.314 . S
C1012 H1018 0.930 . S
C1013 N1015 1.279 . S
C1013 C1016 1.358 . S
C1013 H1019 0.930 1_554 S
C1014 C1012 1.353 . S
C1014 C1017 1.348 . S
C1014 H1052 0.929 . S
N1015 Li970 1.990 . S
N1015 C1012 1.314 . S
N1015 C1013 1.279 . S
C1016 C1013 1.358 . S
C1016 C1017 1.356 . S
C1016 H1053 0.930 1_554 S
C1017 C1014 1.348 . S
C1017 C1016 1.356 . S
H1018 C1012 0.930 . S
H1019 C1013 0.930 1_556 S
C1020 N1021 1.314 . S
C1020 C1022 1.353 . S
C1020 H1026 0.930 . S
N1021 Li971 1.990 . S
N1021 C1020 1.314 . S
N1021 C1024 1.279 . S
C1022 C1020 1.353 . S
C1022 C1025 1.348 . S
C1022 H1054 0.929 . S
C1023 C1024 1.358 . S
C1023 C1025 1.356 . S
C1023 H1055 0.930 . S
C1024 N1021 1.279 . S
C1024 C1023 1.358 . S
C1024 H1027 0.930 . S
C1025 C1022 1.348 . S
C1025 C1023 1.356 . S
H1026 C1020 0.930 . S
H1027 C1024 0.930 . S
O1028 Li968 1.956 . S
O1028 Li969 1.970 . S
O1028 Li970 1.961 . S
O1028 C972 1.325 . S
O1029 Li968 1.970 . S
O1029 Li969 1.956 . S
O1029 Li971 1.961 1_554 S
O1029 C978 1.325 . S
O1030 Li968 1.961 1_556 S
O1030 Li970 1.956 1_556 S
O1030 Li971 1.970 . S
O1030 C1000 1.325 . S
O1031 Li969 1.961 . S
O1031 Li970 1.970 . S
O1031 Li971 1.956 1_554 S
O1031 C1006 1.325 . S
H1032 C974 0.929 . S
H1033 C975 0.930 . S
H1034 C976 0.930 . S
H1035 C977 0.930 . S
H1036 C979 0.924 1_556 S
H1037 C981 0.929 . S
H1038 C982 0.930 . S
H1039 C983 0.930 . S
H1040 C986 0.930 . S
H1041 C989 0.862 1_556 S
H1042 C994 0.929 . S
H1043 C995 0.930 . S
H1044 C1002 0.929 . S
H1045 C1003 0.930 . S
H1046 C1004 0.930 . S
H1047 C1005 0.930 . S
H1048 C1007 0.929 . S
H1049 C1008 0.930 . S
H1050 C1009 0.930 . S
H1051 C1010 0.930 . S
H1052 C1014 0.929 . S
H1053 C1016 0.930 1_556 S
H1054 C1022 0.929 . S
H1055 C1023 0.930 . S
Li1056 N1073 1.990 . S
Li1056 O1116 1.956 . S
Li1056 O1117 1.970 . S
Li1056 O1118 1.961 1_554 S
Li1057 N1081 1.990 . S
Li1057 O1116 1.970 . S
Li1057 O1117 1.956 . S
Li1057 O1119 1.961 . S
Li1058 N1103 1.990 . S
Li1058 O1116 1.961 . S
Li1058 O1118 1.956 1_554 S
Li1058 O1119 1.970 . S
Li1059 N1109 1.990 . S
Li1059 O1117 1.961 1_556 S
Li1059 O1118 1.970 . S
Li1059 O1119 1.956 1_556 S
C1060 C1062 1.348 . S
C1060 C1063 1.356 . S
C1060 O1116 1.325 . S
N1061 C1064 1.314 . S
N1061 C1065 1.279 . S
C1062 C1060 1.348 . S
C1062 C1064 1.353 . S
C1062 H1120 0.929 . S
C1063 C1060 1.356 . S
C1063 C1065 1.358 . S
C1063 H1121 0.930 . S
C1064 N1061 1.314 . S
C1064 C1062 1.353 . S
C1064 H1122 0.930 . S
C1065 N1061 1.279 . S
C1065 C1063 1.358 . S
C1065 H1123 0.930 . S
C1066 C1069 1.348 . S
C1066 C1070 1.356 . S
C1066 O1117 1.325 . S
C1067 N1068 1.279 . S
C1067 C1070 1.358 . S
C1067 H1124 0.930 . S
N1068 C1067 1.279 . S
N1068 C1071 1.314 . S
C1069 C1066 1.348 . S
C1069 C1071 1.353 . S
C1069 H1125 0.929 . S
C1070 C1066 1.356 . S
C1070 C1067 1.358 . S
C1070 H1126 0.930 . S
C1071 N1068 1.314 . S
C1071 C1069 1.353 . S
C1071 H1127 0.930 . S
C1072 N1073 1.314 . S
C1072 C1077 1.353 . S
C1072 H1078 0.930 1_554 S
N1073 Li1056 1.990 . S
N1073 C1072 1.314 . S
N1073 C1075 1.279 . S
C1074 C1075 1.358 . S
C1074 C1076 1.356 . S
C1074 H1128 0.930 . S
C1075 N1073 1.279 . S
C1075 C1074 1.358 . S
C1075 H1079 0.930 . S
C1076 C1074 1.356 . S
C1076 C1077 1.348 . S
C1077 C1072 1.353 . S
C1077 C1076 1.348 . S
C1077 H1129 0.929 1_554 S
H1078 C1072 0.930 1_556 S
H1079 C1075 0.930 . S
C1080 N1081 1.314 . S
C1080 C1082 1.353 . S
C1080 H1086 0.930 . S
N1081 Li1057 1.990 . S
N1081 C1080 1.314 . S
N1081 C1084 1.279 . S
C1082 C1080 1.353 . S
C1082 C1085 1.348 . S
C1082 H1130 0.929 . S
C1083 C1084 1.358 . S
C1083 C1085 1.356 . S
C1083 H1131 0.930 . S
C1084 N1081 1.279 . S
C1084 C1083 1.358 . S
C1084 H1087 0.930 . S
C1085 C1082 1.348 . S
C1085 C1083 1.356 . S
H1086 C1080 0.930 . S
H1087 C1084 0.930 . S
C1088 C1090 1.348 . S
C1088 C1091 1.356 . S
C1088 O1118 1.325 . S
N1089 C1092 1.314 . S
N1089 C1093 1.279 . S
C1090 C1088 1.348 . S
C1090 C1092 1.353 . S
C1090 H1132 0.929 . S
C1091 C1088 1.356 . S
C1091 C1093 1.358 . S
C1091 H1133 0.930 . S
C1092 N1089 1.314 . S
C1092 C1090 1.353 . S
C1092 H1134 0.930 . S
C1093 N1089 1.279 . S
C1093 C1091 1.358 . S
C1093 H1135 0.930 . S
C1094 C1095 1.348 . S
C1094 C1096 1.356 . S
C1094 O1119 1.325 . S
C1095 C1094 1.348 . S
C1095 C1097 1.353 . S
C1095 H1136 0.929 . S
C1096 C1094 1.356 . S
C1096 C1098 1.358 . S
C1096 H1137 0.930 . S
C1097 C1095 1.353 . S
C1097 N1099 1.314 . S
C1097 H1138 0.930 . S
C1098 C1096 1.358 . S
C1098 N1099 1.279 . S
C1098 H1139 0.930 . S
N1099 C1097 1.314 . S
N1099 C1098 1.279 . S
C1100 C1102 1.353 . S
C1100 N1103 1.314 . S
C1100 H1106 0.930 . S
C1101 N1103 1.279 . S
C1101 C1104 1.358 . S
C1101 H1107 0.930 1_554 S
C1102 C1100 1.353 . S
C1102 C1105 1.348 . S
C1102 H1140 0.929 . S
N1103 Li1058 1.990 . S
N1103 C1100 1.314 . S
N1103 C1101 1.279 . S
C1104 C1101 1.358 . S
C1104 C1105 1.356 . S
C1104 H1141 0.930 1_554 S
C1105 C1102 1.348 . S
C1105 C1104 1.356 . S
H1106 C1100 0.930 . S
H1107 C1101 0.930 1_556 S
C1108 N1109 1.314 . S
C1108 C1110 1.353 . S
C1108 H1114 0.930 . S
N1109 Li1059 1.990 . S
N1109 C1108 1.314 . S
N1109 C1112 1.279 . S
C1110 C1108 1.353 . S
C1110 C1113 1.348 . S
C1110 H1142 0.929 . S
C1111 C1112 1.358 . S
C1111 C1113 1.356 . S
C1111 H1143 0.930 . S
C1112 N1109 1.279 . S
C1112 C1111 1.358 . S
C1112 H1115 0.930 . S
C1113 C1110 1.348 . S
C1113 C1111 1.356 . S
H1114 C1108 0.930 . S
H1115 C1112 0.930 . S
O1116 Li1056 1.956 . S
O1116 Li1057 1.970 . S
O1116 Li1058 1.961 . S
O1116 C1060 1.325 . S
O1117 Li1056 1.970 . S
O1117 Li1057 1.956 . S
O1117 Li1059 1.961 1_554 S
O1117 C1066 1.325 . S
O1118 Li1056 1.961 1_556 S
O1118 Li1058 1.956 1_556 S
O1118 Li1059 1.970 . S
O1118 C1088 1.325 . S
O1119 Li1057 1.961 . S
O1119 Li1058 1.970 . S
O1119 Li1059 1.956 1_554 S
O1119 C1094 1.325 . S
H1120 C1062 0.929 . S
H1121 C1063 0.930 . S
H1122 C1064 0.930 . S
H1123 C1065 0.930 . S
H1124 C1067 0.930 . S
H1125 C1069 0.929 . S
H1126 C1070 0.930 . S
H1127 C1071 0.930 . S
H1128 C1074 0.930 . S
H1129 C1077 0.929 1_556 S
H1130 C1082 0.929 . S
H1131 C1083 0.930 . S
H1132 C1090 0.929 . S
H1133 C1091 0.930 . S
H1134 C1092 0.930 . S
H1135 C1093 0.930 . S
H1136 C1095 0.929 . S
H1137 C1096 0.930 . S
H1138 C1097 0.930 . S
H1139 C1098 0.930 . S
H1140 C1102 0.929 . S
H1141 C1104 0.930 1_556 S
H1142 C1110 0.929 . S
H1143 C1111 0.930 . S
Li1144 N1161 1.990 . S
Li1144 O1204 1.956 . S
Li1144 O1205 1.970 . S
Li1144 O1206 1.961 . S
Li1145 N1169 1.990 . S
Li1145 O1204 1.970 . S
Li1145 O1205 1.956 . S
Li1145 O1207 1.961 1_554 S
Li1146 N1191 1.990 . S
Li1146 O1204 1.961 1_556 S
Li1146 O1206 1.956 1_556 S
Li1146 O1207 1.970 . S
Li1147 N1197 1.988 . S
Li1147 O1205 1.961 . S
Li1147 O1206 1.970 . S
Li1147 O1207 1.956 1_554 S
C1148 C1150 1.348 . S
C1148 C1151 1.356 . S
C1148 O1204 1.325 . S
N1149 C1152 1.314 . S
N1149 C1153 1.279 . S
C1150 C1148 1.348 . S
C1150 C1152 1.353 . S
C1150 H1208 0.929 . S
C1151 C1148 1.356 . S
C1151 C1153 1.358 . S
C1151 H1209 0.930 . S
C1152 N1149 1.314 . S
C1152 C1150 1.353 . S
C1152 H1210 0.930 . S
C1153 N1149 1.279 . S
C1153 C1151 1.358 . S
C1153 H1211 0.930 . S
C1154 C1157 1.348 . S
C1154 C1158 1.356 . S
C1154 O1205 1.325 . S
C1155 N1156 1.279 . S
C1155 C1158 1.358 . S
C1155 H1212 0.930 . S
N1156 C1155 1.279 . S
N1156 C1159 1.314 . S
C1157 C1154 1.348 . S
C1157 C1159 1.353 . S
C1157 H1213 0.929 . S
C1158 C1154 1.356 . S
C1158 C1155 1.358 . S
C1158 H1214 0.930 . S
C1159 N1156 1.314 . S
C1159 C1157 1.353 . S
C1159 H1215 0.930 . S
C1160 N1161 1.314 . S
C1160 C1165 1.353 . S
C1160 H1166 0.930 . S
N1161 Li1144 1.990 . S
N1161 C1160 1.314 . S
N1161 C1163 1.279 . S
C1162 C1163 1.358 . S
C1162 C1164 1.356 . S
C1162 H1216 0.930 . S
C1163 N1161 1.279 . S
C1163 C1162 1.358 . S
C1163 H1167 0.930 . S
C1164 C1162 1.356 . S
C1164 C1165 1.348 . S
C1165 C1160 1.353 . S
C1165 C1164 1.348 . S
C1165 H1217 0.929 . S
H1166 C1160 0.930 . S
H1167 C1163 0.930 . S
C1168 N1169 1.314 1_556 S
C1168 C1170 1.353 . S
C1168 H1174 0.930 . S
N1169 Li1145 1.990 . S
N1169 C1168 1.314 1_554 S
N1169 C1172 1.279 . S
C1170 C1168 1.353 . S
C1170 C1173 1.348 1_556 S
C1170 H1218 0.929 . S
C1171 C1172 1.358 . S
C1171 C1173 1.356 . S
C1171 H1219 0.930 . S
C1172 N1169 1.279 . S
C1172 C1171 1.358 . S
C1172 H1175 0.930 . S
C1173 C1170 1.348 1_554 S
C1173 C1171 1.356 . S
H1174 C1168 0.930 . S
H1175 C1172 0.930 . S
C1176 C1178 1.348 . S
C1176 C1179 1.356 . S
C1176 O1206 1.325 . S
N1177 C1180 1.314 . S
N1177 C1181 1.279 . S
C1178 C1176 1.348 . S
C1178 C1180 1.353 . S
C1178 H1220 0.929 1_554 S
C1179 C1176 1.356 . S
C1179 C1181 1.358 . S
C1179 H1221 0.930 . S
C1180 N1177 1.314 . S
C1180 C1178 1.353 . S
C1180 H1222 0.930 1_554 S
C1181 N1177 1.279 . S
C1181 C1179 1.358 . S
C1181 H1223 0.930 . S
C1182 C1183 1.348 . S
C1182 C1184 1.356 . S
C1182 O1207 1.325 . S
C1183 C1182 1.348 . S
C1183 C1185 1.353 . S
C1183 H1224 0.929 . S
C1184 C1182 1.356 . S
C1184 C1186 1.358 . S
C1184 H1225 0.930 . S
C1185 C1183 1.353 . S
C1185 N1187 1.314 . S
C1185 H1226 0.930 . S
C1186 C1184 1.358 . S
C1186 N1187 1.279 . S
C1186 H1227 0.930 . S
N1187 C1185 1.314 . S
N1187 C1186 1.279 . S
C1188 C1190 1.353 . S
C1188 N1191 1.314 . S
C1188 H1194 0.930 . S
C1189 N1191 1.279 . S
C1189 C1192 1.358 . S
C1189 H1195 0.930 . S
C1190 C1188 1.353 . S
C1190 C1193 1.348 . S
C1190 H1228 0.929 . S
N1191 Li1146 1.990 . S
N1191 C1188 1.314 . S
N1191 C1189 1.279 . S
C1192 C1189 1.358 . S
C1192 C1193 1.356 . S
C1192 H1229 0.930 . S
C1193 C1190 1.348 . S
C1193 C1192 1.356 . S
H1194 C1188 0.930 . S
H1195 C1189 0.930 . S
C1196 N1197 1.374 . S
C1196 C1198 1.353 . S
C1196 H1202 0.930 . S
N1197 Li1147 1.988 . S
N1197 C1196 1.374 . S
N1197 C1200 1.227 1_554 S
C1198 C1196 1.353 . S
C1198 C1201 1.348 1_554 S
C1198 H1230 0.929 . S
C1199 C1200 1.358 . S
C1199 C1201 1.356 . S
C1199 H1231 0.930 . S
C1200 N1197 1.227 1_556 S
C1200 C1199 1.358 . S
C1200 H1203 0.930 . S
C1201 C1198 1.348 1_556 S
C1201 C1199 1.356 . S
H1202 C1196 0.930 . S
H1203 C1200 0.930 . S
O1204 Li1144 1.956 . S
O1204 Li1145 1.970 . S
O1204 Li1146 1.961 1_554 S
O1204 C1148 1.325 . S
O1205 Li1144 1.970 . S
O1205 Li1145 1.956 . S
O1205 Li1147 1.961 . S
O1205 C1154 1.325 . S
O1206 Li1144 1.961 . S
O1206 Li1146 1.956 1_554 S
O1206 Li1147 1.970 . S
O1206 C1176 1.325 . S
O1207 Li1145 1.961 1_556 S
O1207 Li1146 1.970 . S
O1207 Li1147 1.956 1_556 S
O1207 C1182 1.325 . S
H1208 C1150 0.929 . S
H1209 C1151 0.930 . S
H1210 C1152 0.930 . S
H1211 C1153 0.930 . S
H1212 C1155 0.930 . S
H1213 C1157 0.929 . S
H1214 C1158 0.930 . S
H1215 C1159 0.930 . S
H1216 C1162 0.930 . S
H1217 C1165 0.929 . S
H1218 C1170 0.929 . S
H1219 C1171 0.930 . S
H1220 C1178 0.929 1_556 S
H1221 C1179 0.930 . S
H1222 C1180 0.930 1_556 S
H1223 C1181 0.930 . S
H1224 C1183 0.929 . S
H1225 C1184 0.930 . S
H1226 C1185 0.930 . S
H1227 C1186 0.930 . S
H1228 C1190 0.929 . S
H1229 C1192 0.930 . S
H1230 C1198 0.929 . S
H1231 C1199 0.930 . S
Li1232 N1249 1.990 . S
Li1232 O1292 1.956 . S
Li1232 O1293 1.970 . S
Li1232 O1294 1.961 . S
Li1233 N1257 1.990 . S
Li1233 O1292 1.970 . S
Li1233 O1293 1.956 . S
Li1233 O1295 1.961 . S
Li1234 N1279 1.990 . S
Li1234 O1292 1.961 . S
Li1234 O1294 1.956 . S
Li1234 O1295 1.970 . S
Li1235 N1285 1.990 . S
Li1235 O1293 1.961 . S
Li1235 O1294 1.970 . S
Li1235 O1295 1.956 . S
C1236 C1238 1.348 . S
C1236 C1239 1.356 . S
C1236 O1292 1.325 . S
N1237 C1240 1.314 . S
N1237 C1241 1.279 . S
C1238 C1236 1.348 . S
C1238 C1240 1.353 . S
C1238 H1296 0.929 . S
C1239 C1236 1.356 . S
C1239 C1241 1.358 . S
C1239 H1297 0.930 . S
C1240 N1237 1.314 . S
C1240 C1238 1.353 . S
C1240 H1298 0.930 . S
C1241 N1237 1.279 . S
C1241 C1239 1.358 . S
C1241 H1299 0.930 . S
C1242 C1245 1.348 . S
C1242 C1246 1.356 . S
C1242 O1293 1.325 . S
C1243 N1244 1.279 . S
C1243 C1246 1.358 . S
C1243 H1300 0.930 . S
N1244 C1243 1.279 . S
N1244 C1247 1.314 . S
C1245 C1242 1.348 . S
C1245 C1247 1.353 . S
C1245 H1301 0.929 . S
C1246 C1242 1.356 . S
C1246 C1243 1.358 . S
C1246 H1302 0.930 . S
C1247 N1244 1.314 . S
C1247 C1245 1.353 . S
C1247 H1303 0.930 . S
C1248 N1249 1.314 . S
C1248 C1253 1.353 . S
C1248 H1254 0.930 . S
N1249 Li1232 1.990 . S
N1249 C1248 1.314 . S
N1249 C1251 1.279 . S
C1250 C1251 1.358 . S
C1250 C1252 1.356 . S
C1250 H1304 0.930 . S
C1251 N1249 1.279 . S
C1251 C1250 1.358 . S
C1251 H1255 0.930 . S
C1252 C1250 1.356 . S
C1252 C1253 1.348 . S
C1253 C1248 1.353 . S
C1253 C1252 1.348 . S
C1253 H1305 0.929 . S
H1254 C1248 0.930 . S
H1255 C1251 0.930 . S
C1256 N1257 1.314 . S
C1256 C1258 1.353 . S
C1256 H1262 0.930 . S
N1257 Li1233 1.990 . S
N1257 C1256 1.314 . S
N1257 C1260 1.279 . S
C1258 C1256 1.353 . S
C1258 C1261 1.348 . S
C1258 H1306 0.929 . S
C1259 C1260 1.358 . S
C1259 C1261 1.356 . S
C1259 H1307 0.930 . S
C1260 N1257 1.279 . S
C1260 C1259 1.358 . S
C1260 H1263 0.930 . S
C1261 C1258 1.348 . S
C1261 C1259 1.356 . S
H1262 C1256 0.930 . S
H1263 C1260 0.930 . S
C1264 C1266 1.348 . S
C1264 C1267 1.356 . S
C1264 O1294 1.325 . S
N1265 C1268 1.314 . S
N1265 C1269 1.279 . S
C1266 C1264 1.348 . S
C1266 C1268 1.353 . S
C1266 H1308 0.929 . S
C1267 C1264 1.356 . S
C1267 C1269 1.358 . S
C1267 H1309 0.930 . S
C1268 N1265 1.314 . S
C1268 C1266 1.353 . S
C1268 H1310 0.930 . S
C1269 N1265 1.279 . S
C1269 C1267 1.358 . S
C1269 H1311 0.930 . S
C1270 C1271 1.348 . S
C1270 C1272 1.356 . S
C1270 O1295 1.325 . S
C1271 C1270 1.348 . S
C1271 C1273 1.353 . S
C1271 H1312 0.929 . S
C1272 C1270 1.356 . S
C1272 C1274 1.358 . S
C1272 H1313 0.930 . S
C1273 C1271 1.353 . S
C1273 N1275 1.314 . S
C1273 H1314 0.930 . S
C1274 C1272 1.358 . S
C1274 N1275 1.279 . S
C1274 H1315 0.930 . S
N1275 C1273 1.314 . S
N1275 C1274 1.279 . S
C1276 C1278 1.353 . S
C1276 N1279 1.314 . S
C1276 H1282 0.930 . S
C1277 N1279 1.279 . S
C1277 C1280 1.358 . S
C1277 H1283 0.930 . S
C1278 C1276 1.353 . S
C1278 C1281 1.348 . S
C1278 H1316 0.929 . S
N1279 Li1234 1.990 . S
N1279 C1276 1.314 . S
N1279 C1277 1.279 . S
C1280 C1277 1.358 . S
C1280 C1281 1.356 . S
C1280 H1317 0.930 . S
C1281 C1278 1.348 . S
C1281 C1280 1.356 . S
H1282 C1276 0.930 . S
H1283 C1277 0.930 . S
C1284 N1285 1.314 . S
C1284 C1286 1.353 . S
C1284 H1290 0.930 . S
N1285 Li1235 1.990 . S
N1285 C1284 1.314 . S
N1285 C1288 1.279 . S
C1286 C1284 1.353 . S
C1286 C1289 1.348 . S
C1286 H1318 0.929 . S
C1287 C1288 1.358 . S
C1287 C1289 1.356 . S
C1287 H1319 0.930 . S
C1288 N1285 1.279 . S
C1288 C1287 1.358 . S
C1288 H1291 0.930 . S
C1289 C1286 1.348 . S
C1289 C1287 1.356 . S
H1290 C1284 0.930 . S
H1291 C1288 0.930 . S
O1292 Li1232 1.956 . S
O1292 Li1233 1.970 . S
O1292 Li1234 1.961 . S
O1292 C1236 1.325 . S
O1293 Li1232 1.970 . S
O1293 Li1233 1.956 . S
O1293 Li1235 1.961 . S
O1293 C1242 1.325 . S
O1294 Li1232 1.961 . S
O1294 Li1234 1.956 . S
O1294 Li1235 1.970 . S
O1294 C1264 1.325 . S
O1295 Li1233 1.961 . S
O1295 Li1234 1.970 . S
O1295 Li1235 1.956 . S
O1295 C1270 1.325 . S
H1296 C1238 0.929 . S
H1297 C1239 0.930 . S
H1298 C1240 0.930 . S
H1299 C1241 0.930 . S
H1300 C1243 0.930 . S
H1301 C1245 0.929 . S
H1302 C1246 0.930 . S
H1303 C1247 0.930 . S
H1304 C1250 0.930 . S
H1305 C1253 0.929 . S
H1306 C1258 0.929 . S
H1307 C1259 0.930 . S
H1308 C1266 0.929 . S
H1309 C1267 0.930 . S
H1310 C1268 0.930 . S
H1311 C1269 0.930 . S
H1312 C1271 0.929 . S
H1313 C1272 0.930 . S
H1314 C1273 0.930 . S
H1315 C1274 0.930 . S
H1316 C1278 0.929 . S
H1317 C1280 0.930 . S
H1318 C1286 0.929 . S
H1319 C1287 0.930 . S
Li1320 N1337 1.990 . S
Li1320 O1380 1.956 . S
Li1320 O1381 1.970 . S
Li1320 O1382 1.961 . S
Li1321 N1345 1.990 . S
Li1321 O1380 1.970 . S
Li1321 O1381 1.956 . S
Li1321 O1383 1.961 . S
Li1322 N1367 1.990 . S
Li1322 O1380 1.961 . S
Li1322 O1382 1.956 . S
Li1322 O1383 1.970 . S
Li1323 N1373 1.990 . S
Li1323 O1381 1.961 . S
Li1323 O1382 1.970 . S
Li1323 O1383 1.956 . S
C1324 C1326 1.348 . S
C1324 C1327 1.356 . S
C1324 O1380 1.325 . S
N1325 C1328 1.314 . S
N1325 C1329 1.279 . S
C1326 C1324 1.348 . S
C1326 C1328 1.353 . S
C1326 H1384 0.929 . S
C1327 C1324 1.356 . S
C1327 C1329 1.358 . S
C1327 H1385 0.930 . S
C1328 N1325 1.314 . S
C1328 C1326 1.353 . S
C1328 H1386 0.930 . S
C1329 N1325 1.279 . S
C1329 C1327 1.358 . S
C1329 H1387 0.930 . S
C1330 C1333 1.348 . S
C1330 C1334 1.356 . S
C1330 O1381 1.325 . S
C1331 N1332 1.279 . S
C1331 C1334 1.358 . S
C1331 H1388 0.930 . S
N1332 C1331 1.279 . S
N1332 C1335 1.314 . S
C1333 C1330 1.348 . S
C1333 C1335 1.353 . S
C1333 H1389 0.929 . S
C1334 C1330 1.356 . S
C1334 C1331 1.358 . S
C1334 H1390 0.930 . S
C1335 N1332 1.314 . S
C1335 C1333 1.353 . S
C1335 H1391 0.930 . S
C1336 N1337 1.314 . S
C1336 C1341 1.353 . S
C1336 H1342 0.930 . S
N1337 Li1320 1.990 . S
N1337 C1336 1.314 . S
N1337 C1339 1.279 . S
C1338 C1339 1.358 . S
C1338 C1340 1.356 . S
C1338 H1392 0.930 . S
C1339 N1337 1.279 . S
C1339 C1338 1.358 . S
C1339 H1343 0.930 . S
C1340 C1338 1.356 . S
C1340 C1341 1.348 . S
C1341 C1336 1.353 . S
C1341 C1340 1.348 . S
C1341 H1393 0.929 . S
H1342 C1336 0.930 . S
H1343 C1339 0.930 . S
C1344 N1345 1.314 . S
C1344 C1346 1.353 . S
C1344 H1350 0.930 . S
N1345 Li1321 1.990 . S
N1345 C1344 1.314 . S
N1345 C1348 1.279 . S
C1346 C1344 1.353 . S
C1346 C1349 1.348 . S
C1346 H1394 0.929 . S
C1347 C1348 1.358 . S
C1347 C1349 1.356 . S
C1347 H1395 0.930 . S
C1348 N1345 1.279 . S
C1348 C1347 1.358 . S
C1348 H1351 0.930 . S
C1349 C1346 1.348 . S
C1349 C1347 1.356 . S
H1350 C1344 0.930 . S
H1351 C1348 0.930 . S
C1352 C1354 1.348 . S
C1352 C1355 1.356 . S
C1352 O1382 1.325 . S
N1353 C1356 1.314 . S
N1353 C1357 1.279 . S
C1354 C1352 1.348 . S
C1354 C1356 1.353 . S
C1354 H1396 0.929 . S
C1355 C1352 1.356 . S
C1355 C1357 1.358 . S
C1355 H1397 0.930 . S
C1356 N1353 1.314 . S
C1356 C1354 1.353 . S
C1356 H1398 0.930 . S
C1357 N1353 1.279 . S
C1357 C1355 1.358 . S
C1357 H1399 0.930 . S
C1358 C1359 1.348 . S
C1358 C1360 1.356 . S
C1358 O1383 1.325 . S
C1359 C1358 1.348 . S
C1359 C1361 1.353 . S
C1359 H1400 0.929 . S
C1360 C1358 1.356 . S
C1360 C1362 1.358 . S
C1360 H1401 0.930 . S
C1361 C1359 1.353 . S
C1361 N1363 1.314 . S
C1361 H1402 0.930 . S
C1362 C1360 1.358 . S
C1362 N1363 1.279 . S
C1362 H1403 0.930 . S
N1363 C1361 1.314 . S
N1363 C1362 1.279 . S
C1364 C1366 1.353 . S
C1364 N1367 1.314 . S
C1364 H1370 0.930 . S
C1365 N1367 1.279 . S
C1365 C1368 1.358 . S
C1365 H1371 0.930 . S
C1366 C1364 1.353 . S
C1366 C1369 1.348 . S
C1366 H1404 0.929 . S
N1367 Li1322 1.990 . S
N1367 C1364 1.314 . S
N1367 C1365 1.279 . S
C1368 C1365 1.358 . S
C1368 C1369 1.356 . S
C1368 H1405 0.930 . S
C1369 C1366 1.348 . S
C1369 C1368 1.356 . S
H1370 C1364 0.930 . S
H1371 C1365 0.930 . S
C1372 N1373 1.314 . S
C1372 C1374 1.353 . S
C1372 H1378 0.930 . S
N1373 Li1323 1.990 . S
N1373 C1372 1.314 . S
N1373 C1376 1.279 . S
C1374 C1372 1.353 . S
C1374 C1377 1.348 . S
C1374 H1406 0.929 . S
C1375 C1376 1.358 . S
C1375 C1377 1.356 . S
C1375 H1407 0.930 . S
C1376 N1373 1.279 . S
C1376 C1375 1.358 . S
C1376 H1379 0.930 . S
C1377 C1374 1.348 . S
C1377 C1375 1.356 . S
H1378 C1372 0.930 . S
H1379 C1376 0.930 . S
O1380 Li1320 1.956 . S
O1380 Li1321 1.970 . S
O1380 Li1322 1.961 . S
O1380 C1324 1.325 . S
O1381 Li1320 1.970 . S
O1381 Li1321 1.956 . S
O1381 Li1323 1.961 . S
O1381 C1330 1.325 . S
O1382 Li1320 1.961 . S
O1382 Li1322 1.956 . S
O1382 Li1323 1.970 . S
O1382 C1352 1.325 . S
O1383 Li1321 1.961 . S
O1383 Li1322 1.970 . S
O1383 Li1323 1.956 . S
O1383 C1358 1.325 . S
H1384 C1326 0.929 . S
H1385 C1327 0.930 . S
H1386 C1328 0.930 . S
H1387 C1329 0.930 . S
H1388 C1331 0.930 . S
H1389 C1333 0.929 . S
H1390 C1334 0.930 . S
H1391 C1335 0.930 . S
H1392 C1338 0.930 . S
H1393 C1341 0.929 . S
H1394 C1346 0.929 . S
H1395 C1347 0.930 . S
H1396 C1354 0.929 . S
H1397 C1355 0.930 . S
H1398 C1356 0.930 . S
H1399 C1357 0.930 . S
H1400 C1359 0.929 . S
H1401 C1360 0.930 . S
H1402 C1361 0.930 . S
H1403 C1362 0.930 . S
H1404 C1366 0.929 . S
H1405 C1368 0.930 . S
H1406 C1374 0.929 . S
H1407 C1375 0.930 . S
Li1408 N1425 1.990 . S
Li1408 O1468 1.956 . S
Li1408 O1469 1.970 . S
Li1408 O1470 1.961 . S
Li1409 N1433 1.990 . S
Li1409 O1468 1.970 . S
Li1409 O1469 1.956 . S
Li1409 O1471 1.961 . S
Li1410 N1455 1.990 . S
Li1410 O1468 1.961 . S
Li1410 O1470 1.956 . S
Li1410 O1471 1.970 . S
Li1411 N1461 1.990 . S
Li1411 O1469 1.961 . S
Li1411 O1470 1.970 . S
Li1411 O1471 1.956 . S
C1412 C1414 1.348 . S
C1412 C1415 1.356 . S
C1412 O1468 1.325 . S
N1413 C1416 1.314 . S
N1413 C1417 1.279 1_565 S
C1414 C1412 1.348 . S
C1414 C1416 1.353 1_545 S
C1414 H1472 0.929 . S
C1415 C1412 1.356 . S
C1415 C1417 1.358 . S
C1415 H1473 0.930 . S
C1416 N1413 1.314 . S
C1416 C1414 1.353 1_565 S
C1416 H1474 0.930 . S
C1417 N1413 1.279 1_545 S
C1417 C1415 1.358 . S
C1417 H1475 0.930 . S
C1418 C1421 1.348 . S
C1418 C1422 1.356 . S
C1418 O1469 1.325 . S
C1419 N1420 1.279 . S
C1419 C1422 1.358 . S
C1419 H1476 0.930 . S
N1420 C1419 1.279 . S
N1420 C1423 1.314 . S
C1421 C1418 1.348 . S
C1421 C1423 1.353 . S
C1421 H1477 0.929 . S
C1422 C1418 1.356 . S
C1422 C1419 1.358 . S
C1422 H1478 0.930 . S
C1423 N1420 1.314 . S
C1423 C1421 1.353 . S
C1423 H1479 0.930 . S
C1424 N1425 1.314 . S
C1424 C1429 1.353 . S
C1424 H1430 0.930 . S
N1425 Li1408 1.990 . S
N1425 C1424 1.314 . S
N1425 C1427 1.279 . S
C1426 C1427 1.358 . S
C1426 C1428 1.356 . S
C1426 H1480 0.930 . S
C1427 N1425 1.279 . S
C1427 C1426 1.358 . S
C1427 H1431 0.930 . S
C1428 C1426 1.356 . S
C1428 C1429 1.348 . S
C1429 C1424 1.353 . S
C1429 C1428 1.348 . S
C1429 H1481 0.929 . S
H1430 C1424 0.930 . S
H1431 C1427 0.930 . S
C1432 N1433 1.314 . S
C1432 C1434 1.353 1_545 S
C1432 H1438 0.930 . S
N1433 Li1409 1.990 . S
N1433 C1432 1.314 . S
N1433 C1436 1.279 . S
C1434 C1432 1.353 1_565 S
C1434 C1437 1.348 . S
C1434 H1482 0.929 . S
C1435 C1436 1.358 1_565 S
C1435 C1437 1.356 . S
C1435 H1483 0.930 . S
C1436 N1433 1.279 . S
C1436 C1435 1.358 1_545 S
C1436 H1439 0.930 . S
C1437 C1434 1.348 . S
C1437 C1435 1.356 . S
H1438 C1432 0.930 . S
H1439 C1436 0.930 . S
C1440 C1442 1.348 . S
C1440 C1443 1.356 . S
C1440 O1470 1.325 . S
N1441 C1444 1.314 . S
N1441 C1445 1.279 . S
C1442 C1440 1.348 . S
C1442 C1444 1.353 . S
C1442 H1484 0.929 . S
C1443 C1440 1.356 . S
C1443 C1445 1.358 . S
C1443 H1485 0.930 . S
C1444 N1441 1.314 . S
C1444 C1442 1.353 . S
C1444 H1486 0.930 . S
C1445 N1441 1.279 . S
C1445 C1443 1.358 . S
C1445 H1487 0.930 . S
C1446 C1447 1.348 . S
C1446 C1448 1.356 . S
C1446 O1471 1.325 . S
C1447 C1446 1.348 . S
C1447 C1449 1.353 . S
C1447 H1488 0.929 . S
C1448 C1446 1.356 . S
C1448 C1450 1.358 . S
C1448 H1489 0.930 . S
C1449 C1447 1.353 . S
C1449 N1451 1.314 . S
C1449 H1490 0.930 . S
C1450 C1448 1.358 . S
C1450 N1451 1.279 . S
C1450 H1491 0.930 . S
N1451 C1449 1.314 . S
N1451 C1450 1.279 . S
C1452 C1454 1.353 . S
C1452 N1455 1.314 . S
C1452 H1458 0.930 . S
C1453 N1455 1.279 . S
C1453 C1456 1.358 . S
C1453 H1459 0.930 . S
C1454 C1452 1.353 . S
C1454 C1457 1.348 . S
C1454 H1492 0.929 . S
N1455 Li1410 1.990 . S
N1455 C1452 1.314 . S
N1455 C1453 1.279 . S
C1456 C1453 1.358 . S
C1456 C1457 1.356 . S
C1456 H1493 0.930 . S
C1457 C1454 1.348 . S
C1457 C1456 1.356 . S
H1458 C1452 0.930 . S
H1459 C1453 0.930 . S
C1460 N1461 1.314 . S
C1460 C1462 1.353 . S
C1460 H1466 0.930 . S
N1461 Li1411 1.990 . S
N1461 C1460 1.314 . S
N1461 C1464 1.279 . S
C1462 C1460 1.353 . S
C1462 C1465 1.348 . S
C1462 H1494 0.929 . S
C1463 C1464 1.358 . S
C1463 C1465 1.356 . S
C1463 H1495 0.930 . S
C1464 N1461 1.279 . S
C1464 C1463 1.358 . S
C1464 H1467 0.930 . S
C1465 C1462 1.348 . S
C1465 C1463 1.356 . S
H1466 C1460 0.930 . S
H1467 C1464 0.930 . S
O1468 Li1408 1.956 . S
O1468 Li1409 1.970 . S
O1468 Li1410 1.961 . S
O1468 C1412 1.325 . S
O1469 Li1408 1.970 . S
O1469 Li1409 1.956 . S
O1469 Li1411 1.961 . S
O1469 C1418 1.325 . S
O1470 Li1408 1.961 . S
O1470 Li1410 1.956 . S
O1470 Li1411 1.970 . S
O1470 C1440 1.325 . S
O1471 Li1409 1.961 . S
O1471 Li1410 1.970 . S
O1471 Li1411 1.956 . S
O1471 C1446 1.325 . S
H1472 C1414 0.929 . S
H1473 C1415 0.930 . S
H1474 C1416 0.930 . S
H1475 C1417 0.930 . S
H1476 C1419 0.930 . S
H1477 C1421 0.929 . S
H1478 C1422 0.930 . S
H1479 C1423 0.930 . S
H1480 C1426 0.930 . S
H1481 C1429 0.929 . S
H1482 C1434 0.929 . S
H1483 C1435 0.930 . S
H1484 C1442 0.929 . S
H1485 C1443 0.930 . S
H1486 C1444 0.930 . S
H1487 C1445 0.930 . S
H1488 C1447 0.929 . S
H1489 C1448 0.930 . S
H1490 C1449 0.930 . S
H1491 C1450 0.930 . S
H1492 C1454 0.929 . S
H1493 C1456 0.930 . S
H1494 C1462 0.929 . S
H1495 C1463 0.930 . S
Li1496 N1513 1.990 . S
Li1496 O1556 1.956 . S
Li1496 O1557 1.970 . S
Li1496 O1558 1.961 . S
Li1497 N1521 1.990 . S
Li1497 O1556 1.970 . S
Li1497 O1557 1.956 . S
Li1497 O1559 1.961 . S
Li1498 N1543 1.990 . S
Li1498 O1556 1.961 . S
Li1498 O1558 1.956 . S
Li1498 O1559 1.970 . S
Li1499 N1549 1.990 . S
Li1499 O1557 1.961 . S
Li1499 O1558 1.970 . S
Li1499 O1559 1.956 . S
C1500 C1502 1.348 . S
C1500 C1503 1.356 . S
C1500 O1556 1.325 . S
N1501 C1504 1.314 . S
N1501 C1505 1.279 . S
C1502 C1500 1.348 . S
C1502 C1504 1.353 . S
C1502 H1560 0.929 . S
C1503 C1500 1.356 . S
C1503 C1505 1.358 . S
C1503 H1561 0.930 . S
C1504 N1501 1.314 . S
C1504 C1502 1.353 . S
C1504 H1562 0.930 . S
C1505 N1501 1.279 . S
C1505 C1503 1.358 . S
C1505 H1563 0.930 . S
C1506 C1509 1.348 . S
C1506 C1510 1.356 . S
C1506 O1557 1.325 . S
C1507 N1508 1.279 . S
C1507 C1510 1.358 . S
C1507 H1564 0.930 . S
N1508 C1507 1.279 . S
N1508 C1511 1.314 . S
C1509 C1506 1.348 . S
C1509 C1511 1.353 . S
C1509 H1565 0.929 . S
C1510 C1506 1.356 . S
C1510 C1507 1.358 . S
C1510 H1566 0.930 . S
C1511 N1508 1.314 . S
C1511 C1509 1.353 . S
C1511 H1567 0.930 . S
C1512 N1513 1.314 . S
C1512 C1517 1.353 . S
C1512 H1518 0.930 . S
N1513 Li1496 1.990 . S
N1513 C1512 1.314 . S
N1513 C1515 1.279 . S
C1514 C1515 1.358 . S
C1514 C1516 1.356 . S
C1514 H1568 0.930 . S
C1515 N1513 1.279 . S
C1515 C1514 1.358 . S
C1515 H1519 0.930 . S
C1516 C1514 1.356 . S
C1516 C1517 1.348 . S
C1517 C1512 1.353 . S
C1517 C1516 1.348 . S
C1517 H1569 0.929 . S
H1518 C1512 0.930 . S
H1519 C1515 0.930 . S
C1520 N1521 1.314 . S
C1520 C1522 1.353 . S
C1520 H1526 0.930 . S
N1521 Li1497 1.990 . S
N1521 C1520 1.314 . S
N1521 C1524 1.279 . S
C1522 C1520 1.353 . S
C1522 C1525 1.348 . S
C1522 H1570 0.929 . S
C1523 C1524 1.358 . S
C1523 C1525 1.356 . S
C1523 H1571 0.930 . S
C1524 N1521 1.279 . S
C1524 C1523 1.358 . S
C1524 H1527 0.930 . S
C1525 C1522 1.348 . S
C1525 C1523 1.356 . S
H1526 C1520 0.930 . S
H1527 C1524 0.930 . S
C1528 C1530 1.348 . S
C1528 C1531 1.356 . S
C1528 O1558 1.325 . S
N1529 C1532 1.314 . S
N1529 C1533 1.279 . S
C1530 C1528 1.348 . S
C1530 C1532 1.353 . S
C1530 H1572 0.929 . S
C1531 C1528 1.356 . S
C1531 C1533 1.358 . S
C1531 H1573 0.930 . S
C1532 N1529 1.314 . S
C1532 C1530 1.353 . S
C1532 H1574 0.930 . S
C1533 N1529 1.279 . S
C1533 C1531 1.358 . S
C1533 H1575 0.930 . S
C1534 C1535 1.348 . S
C1534 C1536 1.356 . S
C1534 O1559 1.325 . S
C1535 C1534 1.348 . S
C1535 C1537 1.353 . S
C1535 H1576 0.929 . S
C1536 C1534 1.356 . S
C1536 C1538 1.358 . S
C1536 H1577 0.930 . S
C1537 C1535 1.353 . S
C1537 N1539 1.314 . S
C1537 H1578 0.930 . S
C1538 C1536 1.358 . S
C1538 N1539 1.279 . S
C1538 H1579 0.930 . S
N1539 C1537 1.314 . S
N1539 C1538 1.279 . S
C1540 C1542 1.353 . S
C1540 N1543 1.314 . S
C1540 H1546 0.930 . S
C1541 N1543 1.279 . S
C1541 C1544 1.358 . S
C1541 H1547 0.930 . S
C1542 C1540 1.353 . S
C1542 C1545 1.348 . S
C1542 H1580 0.929 . S
N1543 Li1498 1.990 . S
N1543 C1540 1.314 . S
N1543 C1541 1.279 . S
C1544 C1541 1.358 . S
C1544 C1545 1.356 . S
C1544 H1581 0.930 . S
C1545 C1542 1.348 . S
C1545 C1544 1.356 . S
H1546 C1540 0.930 . S
H1547 C1541 0.930 . S
C1548 N1549 1.314 . S
C1548 C1550 1.353 . S
C1548 H1554 0.930 . S
N1549 Li1499 1.990 . S
N1549 C1548 1.314 . S
N1549 C1552 1.279 . S
C1550 C1548 1.353 . S
C1550 C1553 1.348 . S
C1550 H1582 0.929 . S
C1551 C1552 1.358 . S
C1551 C1553 1.356 . S
C1551 H1583 0.930 . S
C1552 N1549 1.279 . S
C1552 C1551 1.358 . S
C1552 H1555 0.930 . S
C1553 C1550 1.348 . S
C1553 C1551 1.356 . S
H1554 C1548 0.930 . S
H1555 C1552 0.930 . S
O1556 Li1496 1.956 . S
O1556 Li1497 1.970 . S
O1556 Li1498 1.961 . S
O1556 C1500 1.325 . S
O1557 Li1496 1.970 . S
O1557 Li1497 1.956 . S
O1557 Li1499 1.961 . S
O1557 C1506 1.325 . S
O1558 Li1496 1.961 . S
O1558 Li1498 1.956 . S
O1558 Li1499 1.970 . S
O1558 C1528 1.325 . S
O1559 Li1497 1.961 . S
O1559 Li1498 1.970 . S
O1559 Li1499 1.956 . S
O1559 C1534 1.325 . S
H1560 C1502 0.929 . S
H1561 C1503 0.930 . S
H1562 C1504 0.930 . S
H1563 C1505 0.930 . S
H1564 C1507 0.930 . S
H1565 C1509 0.929 . S
H1566 C1510 0.930 . S
H1567 C1511 0.930 . S
H1568 C1514 0.930 . S
H1569 C1517 0.929 . S
H1570 C1522 0.929 . S
H1571 C1523 0.930 . S
H1572 C1530 0.929 . S
H1573 C1531 0.930 . S
H1574 C1532 0.930 . S
H1575 C1533 0.930 . S
H1576 C1535 0.929 . S
H1577 C1536 0.930 . S
H1578 C1537 0.930 . S
H1579 C1538 0.930 . S
H1580 C1542 0.929 . S
H1581 C1544 0.930 . S
H1582 C1550 0.929 . S
H1583 C1551 0.930 . S
Li1584 N1601 1.990 . S
Li1584 O1644 1.956 . S
Li1584 O1645 1.970 . S
Li1584 O1646 1.961 . S
Li1585 N1609 1.990 . S
Li1585 O1644 1.970 . S
Li1585 O1645 1.956 . S
Li1585 O1647 1.961 . S
Li1586 N1631 1.990 . S
Li1586 O1644 1.961 . S
Li1586 O1646 1.956 . S
Li1586 O1647 1.970 . S
Li1587 N1637 1.990 . S
Li1587 O1645 1.961 . S
Li1587 O1646 1.970 . S
Li1587 O1647 1.956 . S
C1588 C1590 1.348 . S
C1588 C1591 1.356 . S
C1588 O1644 1.325 . S
N1589 C1592 1.314 . S
N1589 C1593 1.279 . S
C1590 C1588 1.348 . S
C1590 C1592 1.353 . S
C1590 H1648 0.929 . S
C1591 C1588 1.356 . S
C1591 C1593 1.358 . S
C1591 H1649 0.930 . S
C1592 N1589 1.314 . S
C1592 C1590 1.353 . S
C1592 H1650 0.930 . S
C1593 N1589 1.279 . S
C1593 C1591 1.358 . S
C1593 H1651 0.930 . S
C1594 C1597 1.348 . S
C1594 C1598 1.356 . S
C1594 O1645 1.325 . S
C1595 N1596 1.279 . S
C1595 C1598 1.358 . S
C1595 H1652 0.930 . S
N1596 C1595 1.279 . S
N1596 C1599 1.314 . S
C1597 C1594 1.348 . S
C1597 C1599 1.353 . S
C1597 H1653 0.929 . S
C1598 C1594 1.356 . S
C1598 C1595 1.358 . S
C1598 H1654 0.930 . S
C1599 N1596 1.314 . S
C1599 C1597 1.353 . S
C1599 H1655 0.930 . S
C1600 N1601 1.314 . S
C1600 C1605 1.353 . S
C1600 H1606 0.930 . S
N1601 Li1584 1.990 . S
N1601 C1600 1.314 . S
N1601 C1603 1.279 . S
C1602 C1603 1.358 . S
C1602 C1604 1.356 . S
C1602 H1656 0.930 . S
C1603 N1601 1.279 . S
C1603 C1602 1.358 . S
C1603 H1607 0.930 . S
C1604 C1602 1.356 . S
C1604 C1605 1.348 . S
C1605 C1600 1.353 . S
C1605 C1604 1.348 . S
C1605 H1657 0.929 . S
H1606 C1600 0.930 . S
H1607 C1603 0.930 . S
C1608 N1609 1.314 . S
C1608 C1610 1.353 . S
C1608 H1614 0.930 . S
N1609 Li1585 1.990 . S
N1609 C1608 1.314 . S
N1609 C1612 1.279 . S
C1610 C1608 1.353 . S
C1610 C1613 1.348 . S
C1610 H1658 0.929 . S
C1611 C1612 1.358 . S
C1611 C1613 1.356 . S
C1611 H1659 0.930 . S
C1612 N1609 1.279 . S
C1612 C1611 1.358 . S
C1612 H1615 0.930 . S
C1613 C1610 1.348 . S
C1613 C1611 1.356 . S
H1614 C1608 0.930 . S
H1615 C1612 0.930 . S
C1616 C1618 1.348 . S
C1616 C1619 1.356 . S
C1616 O1646 1.325 . S
N1617 C1620 1.314 . S
N1617 C1621 1.279 . S
C1618 C1616 1.348 . S
C1618 C1620 1.353 . S
C1618 H1660 0.929 . S
C1619 C1616 1.356 . S
C1619 C1621 1.358 . S
C1619 H1661 0.930 . S
C1620 N1617 1.314 . S
C1620 C1618 1.353 . S
C1620 H1662 0.930 . S
C1621 N1617 1.279 . S
C1621 C1619 1.358 . S
C1621 H1663 0.930 . S
C1622 C1623 1.348 . S
C1622 C1624 1.356 . S
C1622 O1647 1.325 . S
C1623 C1622 1.348 . S
C1623 C1625 1.353 . S
C1623 H1664 0.929 . S
C1624 C1622 1.356 . S
C1624 C1626 1.358 . S
C1624 H1665 0.930 . S
C1625 C1623 1.353 . S
C1625 N1627 1.314 . S
C1625 H1666 0.930 . S
C1626 C1624 1.358 . S
C1626 N1627 1.279 . S
C1626 H1667 0.930 . S
N1627 C1625 1.314 . S
N1627 C1626 1.279 . S
C1628 C1630 1.353 . S
C1628 N1631 1.314 . S
C1628 H1634 0.930 . S
C1629 N1631 1.279 . S
C1629 C1632 1.358 . S
C1629 H1635 0.930 . S
C1630 C1628 1.353 . S
C1630 C1633 1.348 . S
C1630 H1668 0.929 . S
N1631 Li1586 1.990 . S
N1631 C1628 1.314 . S
N1631 C1629 1.279 . S
C1632 C1629 1.358 . S
C1632 C1633 1.356 . S
C1632 H1669 0.930 . S
C1633 C1630 1.348 . S
C1633 C1632 1.356 . S
H1634 C1628 0.930 . S
H1635 C1629 0.930 . S
C1636 N1637 1.314 . S
C1636 C1638 1.353 . S
C1636 H1642 0.930 . S
N1637 Li1587 1.990 . S
N1637 C1636 1.314 . S
N1637 C1640 1.279 . S
C1638 C1636 1.353 . S
C1638 C1641 1.348 . S
C1638 H1670 0.929 . S
C1639 C1640 1.358 . S
C1639 C1641 1.356 . S
C1639 H1671 0.930 . S
C1640 N1637 1.279 . S
C1640 C1639 1.358 . S
C1640 H1643 0.930 . S
C1641 C1638 1.348 . S
C1641 C1639 1.356 . S
H1642 C1636 0.930 . S
H1643 C1640 0.930 . S
O1644 Li1584 1.956 . S
O1644 Li1585 1.970 . S
O1644 Li1586 1.961 . S
O1644 C1588 1.325 . S
O1645 Li1584 1.970 . S
O1645 Li1585 1.956 . S
O1645 Li1587 1.961 . S
O1645 C1594 1.325 . S
O1646 Li1584 1.961 . S
O1646 Li1586 1.956 . S
O1646 Li1587 1.970 . S
O1646 C1616 1.325 . S
O1647 Li1585 1.961 . S
O1647 Li1586 1.970 . S
O1647 Li1587 1.956 . S
O1647 C1622 1.325 . S
H1648 C1590 0.929 . S
H1649 C1591 0.930 . S
H1650 C1592 0.930 . S
H1651 C1593 0.930 . S
H1652 C1595 0.930 . S
H1653 C1597 0.929 . S
H1654 C1598 0.930 . S
H1655 C1599 0.930 . S
H1656 C1602 0.930 . S
H1657 C1605 0.929 . S
H1658 C1610 0.929 . S
H1659 C1611 0.930 . S
H1660 C1618 0.929 . S
H1661 C1619 0.930 . S
H1662 C1620 0.930 . S
H1663 C1621 0.930 . S
H1664 C1623 0.929 . S
H1665 C1624 0.930 . S
H1666 C1625 0.930 . S
H1667 C1626 0.930 . S
H1668 C1630 0.929 . S
H1669 C1632 0.930 . S
H1670 C1638 0.929 . S
H1671 C1639 0.930 . S
Li1672 N1689 1.990 . S
Li1672 O1732 1.956 . S
Li1672 O1733 1.970 . S
Li1672 O1734 1.961 . S
Li1673 N1697 1.990 . S
Li1673 O1732 1.970 . S
Li1673 O1733 1.956 . S
Li1673 O1735 1.961 . S
Li1674 N1719 1.990 . S
Li1674 O1732 1.961 . S
Li1674 O1734 1.956 . S
Li1674 O1735 1.970 . S
Li1675 N1725 1.990 . S
Li1675 O1733 1.961 . S
Li1675 O1734 1.970 . S
Li1675 O1735 1.956 . S
C1676 C1678 1.348 . S
C1676 C1679 1.356 . S
C1676 O1732 1.325 . S
N1677 C1680 1.314 . S
N1677 C1681 1.279 . S
C1678 C1676 1.348 . S
C1678 C1680 1.353 . S
C1678 H1736 0.929 . S
C1679 C1676 1.356 . S
C1679 C1681 1.358 . S
C1679 H1737 0.930 . S
C1680 N1677 1.314 . S
C1680 C1678 1.353 . S
C1680 H1738 0.930 . S
C1681 N1677 1.279 . S
C1681 C1679 1.358 . S
C1681 H1739 0.930 . S
C1682 C1685 1.348 . S
C1682 C1686 1.356 . S
C1682 O1733 1.325 . S
C1683 N1684 1.279 . S
C1683 C1686 1.358 . S
C1683 H1740 0.930 . S
N1684 C1683 1.279 . S
N1684 C1687 1.314 . S
C1685 C1682 1.348 . S
C1685 C1687 1.353 . S
C1685 H1741 0.929 . S
C1686 C1682 1.356 . S
C1686 C1683 1.358 . S
C1686 H1742 0.930 . S
C1687 N1684 1.314 . S
C1687 C1685 1.353 . S
C1687 H1743 0.930 . S
C1688 N1689 1.314 . S
C1688 C1693 1.353 . S
C1688 H1694 0.930 . S
N1689 Li1672 1.990 . S
N1689 C1688 1.314 . S
N1689 C1691 1.279 . S
C1690 C1691 1.358 . S
C1690 C1692 1.356 . S
C1690 H1744 0.930 . S
C1691 N1689 1.279 . S
C1691 C1690 1.358 . S
C1691 H1695 0.930 . S
C1692 C1690 1.356 . S
C1692 C1693 1.348 . S
C1693 C1688 1.353 . S
C1693 C1692 1.348 . S
C1693 H1745 0.929 . S
H1694 C1688 0.930 . S
H1695 C1691 0.930 . S
C1696 N1697 1.314 . S
C1696 C1698 1.353 . S
C1696 H1702 0.930 . S
N1697 Li1673 1.990 . S
N1697 C1696 1.314 . S
N1697 C1700 1.279 . S
C1698 C1696 1.353 . S
C1698 C1701 1.348 . S
C1698 H1746 0.929 . S
C1699 C1700 1.358 . S
C1699 C1701 1.356 . S
C1699 H1747 0.930 . S
C1700 N1697 1.279 . S
C1700 C1699 1.358 . S
C1700 H1703 0.930 . S
C1701 C1698 1.348 . S
C1701 C1699 1.356 . S
H1702 C1696 0.930 . S
H1703 C1700 0.930 . S
C1704 C1706 1.348 1_545 S
C1704 C1707 1.356 . S
C1704 O1734 1.325 . S
N1705 C1708 1.314 . S
N1705 C1709 1.279 . S
C1706 C1704 1.348 1_565 S
C1706 C1708 1.353 . S
C1706 H1748 0.929 . S
C1707 C1704 1.356 . S
C1707 C1709 1.358 1_545 S
C1707 H1749 0.930 . S
C1708 N1705 1.314 . S
C1708 C1706 1.353 . S
C1708 H1750 0.930 . S
C1709 N1705 1.279 . S
C1709 C1707 1.358 1_565 S
C1709 H1751 0.930 . S
C1710 C1711 1.348 . S
C1710 C1712 1.356 . S
C1710 O1735 1.325 . S
C1711 C1710 1.348 . S
C1711 C1713 1.353 . S
C1711 H1752 0.929 . S
C1712 C1710 1.356 . S
C1712 C1714 1.358 . S
C1712 H1753 0.930 . S
C1713 C1711 1.353 . S
C1713 N1715 1.314 . S
C1713 H1754 0.930 . S
C1714 C1712 1.358 . S
C1714 N1715 1.279 . S
C1714 H1755 0.930 . S
N1715 C1713 1.314 . S
N1715 C1714 1.279 . S
C1716 C1718 1.353 . S
C1716 N1719 1.314 . S
C1716 H1722 0.930 . S
C1717 N1719 1.279 . S
C1717 C1720 1.358 . S
C1717 H1723 0.930 . S
C1718 C1716 1.353 . S
C1718 C1721 1.348 . S
C1718 H1756 0.929 . S
N1719 Li1674 1.990 . S
N1719 C1716 1.314 . S
N1719 C1717 1.279 . S
C1720 C1717 1.358 . S
C1720 C1721 1.356 . S
C1720 H1757 0.930 . S
C1721 C1718 1.348 . S
C1721 C1720 1.356 . S
H1722 C1716 0.930 . S
H1723 C1717 0.930 . S
C1724 N1725 1.314 . S
C1724 C1726 1.353 1_545 S
C1724 H1730 0.930 . S
N1725 Li1675 1.990 . S
N1725 C1724 1.314 . S
N1725 C1728 1.279 . S
C1726 C1724 1.353 1_565 S
C1726 C1729 1.348 . S
C1726 H1758 0.929 . S
C1727 C1728 1.358 1_565 S
C1727 C1729 1.356 . S
C1727 H1759 0.930 . S
C1728 N1725 1.279 . S
C1728 C1727 1.358 1_545 S
C1728 H1731 0.930 . S
C1729 C1726 1.348 . S
C1729 C1727 1.356 . S
H1730 C1724 0.930 . S
H1731 C1728 0.930 . S
O1732 Li1672 1.956 . S
O1732 Li1673 1.970 . S
O1732 Li1674 1.961 . S
O1732 C1676 1.325 . S
O1733 Li1672 1.970 . S
O1733 Li1673 1.956 . S
O1733 Li1675 1.961 . S
O1733 C1682 1.325 . S
O1734 Li1672 1.961 . S
O1734 Li1674 1.956 . S
O1734 Li1675 1.970 . S
O1734 C1704 1.325 . S
O1735 Li1673 1.961 . S
O1735 Li1674 1.970 . S
O1735 Li1675 1.956 . S
O1735 C1710 1.325 . S
H1736 C1678 0.929 . S
H1737 C1679 0.930 . S
H1738 C1680 0.930 . S
H1739 C1681 0.930 . S
H1740 C1683 0.930 . S
H1741 C1685 0.929 . S
H1742 C1686 0.930 . S
H1743 C1687 0.930 . S
H1744 C1690 0.930 . S
H1745 C1693 0.929 . S
H1746 C1698 0.929 . S
H1747 C1699 0.930 . S
H1748 C1706 0.929 . S
H1749 C1707 0.930 . S
H1750 C1708 0.930 . S
H1751 C1709 0.930 . S
H1752 C1711 0.929 . S
H1753 C1712 0.930 . S
H1754 C1713 0.930 . S
H1755 C1714 0.930 . S
H1756 C1718 0.929 . S
H1757 C1720 0.930 . S
H1758 C1726 0.929 . S
H1759 C1727 0.930 . S
Li1760 N1777 1.990 . S
Li1760 O1820 1.956 . S
Li1760 O1821 1.970 . S
Li1760 O1822 1.961 . S
Li1761 N1785 1.990 . S
Li1761 O1820 1.970 . S
Li1761 O1821 1.956 . S
Li1761 O1823 1.961 1_554 S
Li1762 N1807 1.990 . S
Li1762 O1820 1.961 1_556 S
Li1762 O1822 1.956 1_556 S
Li1762 O1823 1.970 . S
Li1763 N1813 1.989 . S
Li1763 O1821 1.961 . S
Li1763 O1822 1.970 . S
Li1763 O1823 1.956 1_554 S
C1764 C1766 1.348 . S
C1764 C1767 1.356 . S
C1764 O1820 1.325 . S
N1765 C1768 1.314 . S
N1765 C1769 1.279 . S
C1766 C1764 1.348 . S
C1766 C1768 1.353 . S
C1766 H1824 0.929 . S
C1767 C1764 1.356 . S
C1767 C1769 1.358 . S
C1767 H1825 0.930 . S
C1768 N1765 1.314 . S
C1768 C1766 1.353 . S
C1768 H1826 0.930 . S
C1769 N1765 1.279 . S
C1769 C1767 1.358 . S
C1769 H1827 0.930 . S
C1770 C1773 1.348 . S
C1770 C1774 1.356 . S
C1770 O1821 1.325 . S
C1771 N1772 1.279 . S
C1771 C1774 1.358 . S
C1771 H1828 0.930 . S
N1772 C1771 1.279 . S
N1772 C1775 1.314 . S
C1773 C1770 1.348 . S
C1773 C1775 1.353 . S
C1773 H1829 0.929 . S
C1774 C1770 1.356 . S
C1774 C1771 1.358 . S
C1774 H1830 0.930 . S
C1775 N1772 1.314 . S
C1775 C1773 1.353 . S
C1775 H1831 0.930 . S
C1776 N1777 1.314 . S
C1776 C1781 1.353 . S
C1776 H1782 0.930 . S
N1777 Li1760 1.990 . S
N1777 C1776 1.314 . S
N1777 C1779 1.279 . S
C1778 C1779 1.358 . S
C1778 C1780 1.356 . S
C1778 H1832 0.930 . S
C1779 N1777 1.279 . S
C1779 C1778 1.358 . S
C1779 H1783 0.930 . S
C1780 C1778 1.356 . S
C1780 C1781 1.348 . S
C1781 C1776 1.353 . S
C1781 C1780 1.348 . S
C1781 H1833 0.929 . S
H1782 C1776 0.930 . S
H1783 C1779 0.930 . S
C1784 N1785 1.314 1_556 S
C1784 C1786 1.353 . S
C1784 H1790 0.930 . S
N1785 Li1761 1.990 . S
N1785 C1784 1.314 1_554 S
N1785 C1788 1.279 . S
C1786 C1784 1.353 . S
C1786 C1789 1.348 1_556 S
C1786 H1834 0.929 . S
C1787 C1788 1.358 . S
C1787 C1789 1.356 . S
C1787 H1835 0.930 . S
C1788 N1785 1.279 . S
C1788 C1787 1.358 . S
C1788 H1791 0.930 . S
C1789 C1786 1.348 1_554 S
C1789 C1787 1.356 . S
H1790 C1784 0.930 . S
H1791 C1788 0.930 . S
C1792 C1794 1.359 . S
C1792 C1795 1.356 . S
C1792 O1822 1.325 . S
N1793 C1796 1.314 . S
N1793 C1797 1.279 . S
C1794 C1792 1.359 . S
C1794 C1796 1.353 . S
C1794 H1836 0.920 1_554 S
C1795 C1792 1.356 . S
C1795 C1797 1.358 . S
C1795 H1837 0.930 . S
C1796 N1793 1.314 . S
C1796 C1794 1.353 . S
C1796 H1838 0.930 1_554 S
C1797 N1793 1.279 . S
C1797 C1795 1.358 . S
C1797 H1839 0.930 . S
C1798 C1799 1.348 . S
C1798 C1800 1.356 . S
C1798 O1823 1.325 . S
C1799 C1798 1.348 . S
C1799 C1801 1.353 . S
C1799 H1840 0.929 . S
C1800 C1798 1.356 . S
C1800 C1802 1.358 . S
C1800 H1841 0.930 . S
C1801 C1799 1.353 . S
C1801 N1803 1.314 . S
C1801 H1842 0.930 . S
C1802 C1800 1.358 . S
C1802 N1803 1.279 . S
C1802 H1843 0.930 . S
N1803 C1801 1.314 . S
N1803 C1802 1.279 . S
C1804 C1806 1.353 . S
C1804 N1807 1.314 . S
C1804 H1810 0.930 . S
C1805 N1807 1.279 . S
C1805 C1808 1.358 . S
C1805 H1811 0.930 . S
C1806 C1804 1.353 . S
C1806 C1809 1.348 . S
C1806 H1844 0.929 . S
N1807 Li1762 1.990 . S
N1807 C1804 1.314 . S
N1807 C1805 1.279 . S
C1808 C1805 1.358 . S
C1808 C1809 1.356 . S
C1808 H1845 0.930 . S
C1809 C1806 1.348 . S
C1809 C1808 1.356 . S
H1810 C1804 0.930 . S
H1811 C1805 0.930 . S
C1812 N1813 1.329 . S
C1812 C1814 1.353 . S
C1812 H1818 0.930 . S
N1813 Li1763 1.989 . S
N1813 C1812 1.329 . S
N1813 C1816 1.266 1_554 S
C1814 C1812 1.353 . S
C1814 C1817 1.348 1_554 S
C1814 H1846 0.929 . S
C1815 C1816 1.358 . S
C1815 C1817 1.356 . S
C1815 H1847 0.930 . S
C1816 N1813 1.266 1_556 S
C1816 C1815 1.358 . S
C1816 H1819 0.930 . S
C1817 C1814 1.348 1_556 S
C1817 C1815 1.356 . S
H1818 C1812 0.930 . S
H1819 C1816 0.930 . S
O1820 Li1760 1.956 . S
O1820 Li1761 1.970 . S
O1820 Li1762 1.961 1_554 S
O1820 C1764 1.325 . S
O1821 Li1760 1.970 . S
O1821 Li1761 1.956 . S
O1821 Li1763 1.961 . S
O1821 C1770 1.325 . S
O1822 Li1760 1.961 . S
O1822 Li1762 1.956 1_554 S
O1822 Li1763 1.970 . S
O1822 C1792 1.325 . S
O1823 Li1761 1.961 1_556 S
O1823 Li1762 1.970 . S
O1823 Li1763 1.956 1_556 S
O1823 C1798 1.325 . S
H1824 C1766 0.929 . S
H1825 C1767 0.930 . S
H1826 C1768 0.930 . S
H1827 C1769 0.930 . S
H1828 C1771 0.930 . S
H1829 C1773 0.929 . S
H1830 C1774 0.930 . S
H1831 C1775 0.930 . S
H1832 C1778 0.930 . S
H1833 C1781 0.929 . S
H1834 C1786 0.929 . S
H1835 C1787 0.930 . S
H1836 C1794 0.920 1_556 S
H1837 C1795 0.930 . S
H1838 C1796 0.930 1_556 S
H1839 C1797 0.930 . S
H1840 C1799 0.929 . S
H1841 C1800 0.930 . S
H1842 C1801 0.930 . S
H1843 C1802 0.930 . S
H1844 C1806 0.929 . S
H1845 C1808 0.930 . S
H1846 C1814 0.929 . S
H1847 C1815 0.930 . S
Li1848 N1865 1.990 . S
Li1848 O1908 1.956 . S
Li1848 O1909 1.970 . S
Li1848 O1910 1.961 . S
Li1849 N1873 1.990 . S
Li1849 O1908 1.970 . S
Li1849 O1909 1.956 . S
Li1849 O1911 1.961 . S
Li1850 N1895 1.990 . S
Li1850 O1908 1.961 . S
Li1850 O1910 1.956 . S
Li1850 O1911 1.970 . S
Li1851 N1901 1.990 . S
Li1851 O1909 1.961 . S
Li1851 O1910 1.970 . S
Li1851 O1911 1.956 . S
C1852 C1854 1.348 . S
C1852 C1855 1.356 . S
C1852 O1908 1.325 . S
N1853 C1856 1.314 . S
N1853 C1857 1.279 . S
C1854 C1852 1.348 . S
C1854 C1856 1.353 . S
C1854 H1912 0.929 . S
C1855 C1852 1.356 . S
C1855 C1857 1.358 . S
C1855 H1913 0.930 . S
C1856 N1853 1.314 . S
C1856 C1854 1.353 . S
C1856 H1914 0.930 . S
C1857 N1853 1.279 . S
C1857 C1855 1.358 . S
C1857 H1915 0.930 . S
C1858 C1861 1.348 . S
C1858 C1862 1.356 . S
C1858 O1909 1.325 . S
C1859 N1860 1.279 . S
C1859 C1862 1.358 . S
C1859 H1916 0.930 . S
N1860 C1859 1.279 . S
N1860 C1863 1.314 . S
C1861 C1858 1.348 . S
C1861 C1863 1.353 . S
C1861 H1917 0.929 . S
C1862 C1858 1.356 . S
C1862 C1859 1.358 . S
C1862 H1918 0.930 . S
C1863 N1860 1.314 . S
C1863 C1861 1.353 . S
C1863 H1919 0.930 . S
C1864 N1865 1.314 . S
C1864 C1869 1.353 . S
C1864 H1870 0.930 . S
N1865 Li1848 1.990 . S
N1865 C1864 1.314 . S
N1865 C1867 1.279 . S
C1866 C1867 1.358 . S
C1866 C1868 1.356 . S
C1866 H1920 0.930 . S
C1867 N1865 1.279 . S
C1867 C1866 1.358 . S
C1867 H1871 0.930 . S
C1868 C1866 1.356 . S
C1868 C1869 1.348 . S
C1869 C1864 1.353 . S
C1869 C1868 1.348 . S
C1869 H1921 0.929 . S
H1870 C1864 0.930 . S
H1871 C1867 0.930 . S
C1872 N1873 1.314 . S
C1872 C1874 1.353 . S
C1872 H1878 0.930 . S
N1873 Li1849 1.990 . S
N1873 C1872 1.314 . S
N1873 C1876 1.279 . S
C1874 C1872 1.353 . S
C1874 C1877 1.348 . S
C1874 H1922 0.929 . S
C1875 C1876 1.358 . S
C1875 C1877 1.356 . S
C1875 H1923 0.930 . S
C1876 N1873 1.279 . S
C1876 C1875 1.358 . S
C1876 H1879 0.930 . S
C1877 C1874 1.348 . S
C1877 C1875 1.356 . S
H1878 C1872 0.930 . S
H1879 C1876 0.930 . S
C1880 C1882 1.348 . S
C1880 C1883 1.356 . S
C1880 O1910 1.325 . S
N1881 C1884 1.314 . S
N1881 C1885 1.279 . S
C1882 C1880 1.348 . S
C1882 C1884 1.353 . S
C1882 H1924 0.929 . S
C1883 C1880 1.356 . S
C1883 C1885 1.358 . S
C1883 H1925 0.930 . S
C1884 N1881 1.314 . S
C1884 C1882 1.353 . S
C1884 H1926 0.930 . S
C1885 N1881 1.279 . S
C1885 C1883 1.358 . S
C1885 H1927 0.930 . S
C1886 C1887 1.348 . S
C1886 C1888 1.356 . S
C1886 O1911 1.325 . S
C1887 C1886 1.348 . S
C1887 C1889 1.353 . S
C1887 H1928 0.929 . S
C1888 C1886 1.356 . S
C1888 C1890 1.358 . S
C1888 H1929 0.930 . S
C1889 C1887 1.353 . S
C1889 N1891 1.314 . S
C1889 H1930 0.930 . S
C1890 C1888 1.358 . S
C1890 N1891 1.279 . S
C1890 H1931 0.930 . S
N1891 C1889 1.314 . S
N1891 C1890 1.279 . S
C1892 C1894 1.353 . S
C1892 N1895 1.314 . S
C1892 H1898 0.930 . S
C1893 N1895 1.279 . S
C1893 C1896 1.358 . S
C1893 H1899 0.930 . S
C1894 C1892 1.353 . S
C1894 C1897 1.348 . S
C1894 H1932 0.929 . S
N1895 Li1850 1.990 . S
N1895 C1892 1.314 . S
N1895 C1893 1.279 . S
C1896 C1893 1.358 . S
C1896 C1897 1.356 . S
C1896 H1933 0.930 . S
C1897 C1894 1.348 . S
C1897 C1896 1.356 . S
H1898 C1892 0.930 . S
H1899 C1893 0.930 . S
C1900 N1901 1.314 . S
C1900 C1902 1.353 . S
C1900 H1906 0.930 . S
N1901 Li1851 1.990 . S
N1901 C1900 1.314 . S
N1901 C1904 1.279 . S
C1902 C1900 1.353 . S
C1902 C1905 1.348 . S
C1902 H1934 0.929 . S
C1903 C1904 1.358 . S
C1903 C1905 1.356 . S
C1903 H1935 0.930 . S
C1904 N1901 1.279 . S
C1904 C1903 1.358 . S
C1904 H1907 0.930 . S
C1905 C1902 1.348 . S
C1905 C1903 1.356 . S
H1906 C1900 0.930 . S
H1907 C1904 0.930 . S
O1908 Li1848 1.956 . S
O1908 Li1849 1.970 . S
O1908 Li1850 1.961 . S
O1908 C1852 1.325 . S
O1909 Li1848 1.970 . S
O1909 Li1849 1.956 . S
O1909 Li1851 1.961 . S
O1909 C1858 1.325 . S
O1910 Li1848 1.961 . S
O1910 Li1850 1.956 . S
O1910 Li1851 1.970 . S
O1910 C1880 1.325 . S
O1911 Li1849 1.961 . S
O1911 Li1850 1.970 . S
O1911 Li1851 1.956 . S
O1911 C1886 1.325 . S
H1912 C1854 0.929 . S
H1913 C1855 0.930 . S
H1914 C1856 0.930 . S
H1915 C1857 0.930 . S
H1916 C1859 0.930 . S
H1917 C1861 0.929 . S
H1918 C1862 0.930 . S
H1919 C1863 0.930 . S
H1920 C1866 0.930 . S
H1921 C1869 0.929 . S
H1922 C1874 0.929 . S
H1923 C1875 0.930 . S
H1924 C1882 0.929 . S
H1925 C1883 0.930 . S
H1926 C1884 0.930 . S
H1927 C1885 0.930 . S
H1928 C1887 0.929 . S
H1929 C1888 0.930 . S
H1930 C1889 0.930 . S
H1931 C1890 0.930 . S
H1932 C1894 0.929 . S
H1933 C1896 0.930 . S
H1934 C1902 0.929 . S
H1935 C1903 0.930 . S
Li1936 N1953 1.990 . S
Li1936 O1996 1.956 . S
Li1936 O1997 1.970 . S
Li1936 O1998 1.961 . S
Li1937 N1961 1.990 . S
Li1937 O1996 1.970 . S
Li1937 O1997 1.956 . S
Li1937 O1999 1.961 . S
Li1938 N1983 1.990 . S
Li1938 O1996 1.961 . S
Li1938 O1998 1.956 . S
Li1938 O1999 1.970 . S
Li1939 N1989 1.990 . S
Li1939 O1997 1.961 . S
Li1939 O1998 1.970 . S
Li1939 O1999 1.956 . S
C1940 C1942 1.348 . S
C1940 C1943 1.356 . S
C1940 O1996 1.325 . S
N1941 C1944 1.314 . S
N1941 C1945 1.279 . S
C1942 C1940 1.348 . S
C1942 C1944 1.353 . S
C1942 H2000 0.929 . S
C1943 C1940 1.356 . S
C1943 C1945 1.358 . S
C1943 H2001 0.930 . S
C1944 N1941 1.314 . S
C1944 C1942 1.353 . S
C1944 H2002 0.930 . S
C1945 N1941 1.279 . S
C1945 C1943 1.358 . S
C1945 H2003 0.930 . S
C1946 C1949 1.348 . S
C1946 C1950 1.356 . S
C1946 O1997 1.325 . S
C1947 N1948 1.279 . S
C1947 C1950 1.358 . S
C1947 H2004 0.930 . S
N1948 C1947 1.279 . S
N1948 C1951 1.314 . S
C1949 C1946 1.348 . S
C1949 C1951 1.353 . S
C1949 H2005 0.929 . S
C1950 C1946 1.356 . S
C1950 C1947 1.358 . S
C1950 H2006 0.930 . S
C1951 N1948 1.314 . S
C1951 C1949 1.353 . S
C1951 H2007 0.930 . S
C1952 N1953 1.314 . S
C1952 C1957 1.353 . S
C1952 H1958 0.930 . S
N1953 Li1936 1.990 . S
N1953 C1952 1.314 . S
N1953 C1955 1.279 . S
C1954 C1955 1.358 . S
C1954 C1956 1.356 . S
C1954 H2008 0.930 . S
C1955 N1953 1.279 . S
C1955 C1954 1.358 . S
C1955 H1959 0.930 . S
C1956 C1954 1.356 . S
C1956 C1957 1.348 . S
C1957 C1952 1.353 . S
C1957 C1956 1.348 . S
C1957 H2009 0.929 . S
H1958 C1952 0.930 . S
H1959 C1955 0.930 . S
C1960 N1961 1.314 . S
C1960 C1962 1.353 . S
C1960 H1966 0.930 . S
N1961 Li1937 1.990 . S
N1961 C1960 1.314 . S
N1961 C1964 1.279 . S
C1962 C1960 1.353 . S
C1962 C1965 1.348 . S
C1962 H2010 0.929 . S
C1963 C1964 1.358 . S
C1963 C1965 1.356 . S
C1963 H2011 0.930 . S
C1964 N1961 1.279 . S
C1964 C1963 1.358 . S
C1964 H1967 0.930 . S
C1965 C1962 1.348 . S
C1965 C1963 1.356 . S
H1966 C1960 0.930 . S
H1967 C1964 0.930 . S
C1968 C1970 1.348 . S
C1968 C1971 1.356 . S
C1968 O1998 1.325 . S
N1969 C1972 1.314 . S
N1969 C1973 1.279 . S
C1970 C1968 1.348 . S
C1970 C1972 1.353 . S
C1970 H2012 0.929 . S
C1971 C1968 1.356 . S
C1971 C1973 1.358 . S
C1971 H2013 0.930 . S
C1972 N1969 1.314 . S
C1972 C1970 1.353 . S
C1972 H2014 0.930 . S
C1973 N1969 1.279 . S
C1973 C1971 1.358 . S
C1973 H2015 0.930 . S
C1974 C1975 1.348 . S
C1974 C1976 1.356 . S
C1974 O1999 1.325 . S
C1975 C1974 1.348 . S
C1975 C1977 1.353 . S
C1975 H2016 0.929 . S
C1976 C1974 1.356 . S
C1976 C1978 1.358 . S
C1976 H2017 0.930 . S
C1977 C1975 1.353 . S
C1977 N1979 1.314 . S
C1977 H2018 0.930 . S
C1978 C1976 1.358 . S
C1978 N1979 1.279 . S
C1978 H2019 0.930 . S
N1979 C1977 1.314 . S
N1979 C1978 1.279 . S
C1980 C1982 1.353 . S
C1980 N1983 1.314 . S
C1980 H1986 0.930 . S
C1981 N1983 1.279 . S
C1981 C1984 1.358 . S
C1981 H1987 0.930 . S
C1982 C1980 1.353 . S
C1982 C1985 1.348 . S
C1982 H2020 0.929 . S
N1983 Li1938 1.990 . S
N1983 C1980 1.314 . S
N1983 C1981 1.279 . S
C1984 C1981 1.358 . S
C1984 C1985 1.356 . S
C1984 H2021 0.930 . S
C1985 C1982 1.348 . S
C1985 C1984 1.356 . S
H1986 C1980 0.930 . S
H1987 C1981 0.930 . S
C1988 N1989 1.314 . S
C1988 C1990 1.353 . S
C1988 H1994 0.930 . S
N1989 Li1939 1.990 . S
N1989 C1988 1.314 . S
N1989 C1992 1.279 . S
C1990 C1988 1.353 . S
C1990 C1993 1.348 . S
C1990 H2022 0.929 . S
C1991 C1992 1.358 . S
C1991 C1993 1.356 . S
C1991 H2023 0.930 . S
C1992 N1989 1.279 . S
C1992 C1991 1.358 . S
C1992 H1995 0.930 . S
C1993 C1990 1.348 . S
C1993 C1991 1.356 . S
H1994 C1988 0.930 . S
H1995 C1992 0.930 . S
O1996 Li1936 1.956 . S
O1996 Li1937 1.970 . S
O1996 Li1938 1.961 . S
O1996 C1940 1.325 . S
O1997 Li1936 1.970 . S
O1997 Li1937 1.956 . S
O1997 Li1939 1.961 . S
O1997 C1946 1.325 . S
O1998 Li1936 1.961 . S
O1998 Li1938 1.956 . S
O1998 Li1939 1.970 . S
O1998 C1968 1.325 . S
O1999 Li1937 1.961 . S
O1999 Li1938 1.970 . S
O1999 Li1939 1.956 . S
O1999 C1974 1.325 . S
H2000 C1942 0.929 . S
H2001 C1943 0.930 . S
H2002 C1944 0.930 . S
H2003 C1945 0.930 . S
H2004 C1947 0.930 . S
H2005 C1949 0.929 . S
H2006 C1950 0.930 . S
H2007 C1951 0.930 . S
H2008 C1954 0.930 . S
H2009 C1957 0.929 . S
H2010 C1962 0.929 . S
H2011 C1963 0.930 . S
H2012 C1970 0.929 . S
H2013 C1971 0.930 . S
H2014 C1972 0.930 . S
H2015 C1973 0.930 . S
H2016 C1975 0.929 . S
H2017 C1976 0.930 . S
H2018 C1977 0.930 . S
H2019 C1978 0.930 . S
H2020 C1982 0.929 . S
H2021 C1984 0.930 . S
H2022 C1990 0.929 . S
H2023 C1991 0.930 . S
Li2024 N2041 1.990 . S
Li2024 O2084 1.956 . S
Li2024 O2085 1.970 . S
Li2024 O2086 1.961 . S
Li2025 N2049 1.990 . S
Li2025 O2084 1.970 . S
Li2025 O2085 1.956 . S
Li2025 O2087 1.961 . S
Li2026 N2071 1.990 . S
Li2026 O2084 1.961 . S
Li2026 O2086 1.956 . S
Li2026 O2087 1.970 . S
Li2027 N2077 1.990 . S
Li2027 O2085 1.961 . S
Li2027 O2086 1.970 . S
Li2027 O2087 1.956 . S
C2028 C2030 1.348 . S
C2028 C2031 1.356 . S
C2028 O2084 1.325 . S
N2029 C2032 1.314 . S
N2029 C2033 1.279 . S
C2030 C2028 1.348 . S
C2030 C2032 1.353 . S
C2030 H2088 0.929 . S
C2031 C2028 1.356 . S
C2031 C2033 1.358 . S
C2031 H2089 0.930 . S
C2032 N2029 1.314 . S
C2032 C2030 1.353 . S
C2032 H2090 0.930 . S
C2033 N2029 1.279 . S
C2033 C2031 1.358 . S
C2033 H2091 0.930 . S
C2034 C2037 1.348 . S
C2034 C2038 1.356 . S
C2034 O2085 1.325 . S
C2035 N2036 1.279 . S
C2035 C2038 1.358 . S
C2035 H2092 0.930 . S
N2036 C2035 1.279 . S
N2036 C2039 1.314 . S
C2037 C2034 1.348 . S
C2037 C2039 1.353 . S
C2037 H2093 0.929 . S
C2038 C2034 1.356 . S
C2038 C2035 1.358 . S
C2038 H2094 0.930 . S
C2039 N2036 1.314 . S
C2039 C2037 1.353 . S
C2039 H2095 0.930 . S
C2040 N2041 1.314 . S
C2040 C2045 1.353 . S
C2040 H2046 0.930 . S
N2041 Li2024 1.990 . S
N2041 C2040 1.314 . S
N2041 C2043 1.279 . S
C2042 C2043 1.358 . S
C2042 C2044 1.356 . S
C2042 H2096 0.930 . S
C2043 N2041 1.279 . S
C2043 C2042 1.358 . S
C2043 H2047 0.930 . S
C2044 C2042 1.356 . S
C2044 C2045 1.348 . S
C2045 C2040 1.353 . S
C2045 C2044 1.348 . S
C2045 H2097 0.929 . S
H2046 C2040 0.930 . S
H2047 C2043 0.930 . S
C2048 N2049 1.314 . S
C2048 C2050 1.353 . S
C2048 H2054 0.930 . S
N2049 Li2025 1.990 . S
N2049 C2048 1.314 . S
N2049 C2052 1.279 . S
C2050 C2048 1.353 . S
C2050 C2053 1.348 . S
C2050 H2098 0.929 . S
C2051 C2052 1.358 . S
C2051 C2053 1.356 . S
C2051 H2099 0.930 . S
C2052 N2049 1.279 . S
C2052 C2051 1.358 . S
C2052 H2055 0.930 . S
C2053 C2050 1.348 . S
C2053 C2051 1.356 . S
H2054 C2048 0.930 . S
H2055 C2052 0.930 . S
C2056 C2058 1.348 . S
C2056 C2059 1.356 . S
C2056 O2086 1.325 . S
N2057 C2060 1.314 . S
N2057 C2061 1.279 . S
C2058 C2056 1.348 . S
C2058 C2060 1.353 . S
C2058 H2100 0.929 . S
C2059 C2056 1.356 . S
C2059 C2061 1.358 . S
C2059 H2101 0.930 . S
C2060 N2057 1.314 . S
C2060 C2058 1.353 . S
C2060 H2102 0.930 . S
C2061 N2057 1.279 . S
C2061 C2059 1.358 . S
C2061 H2103 0.930 . S
C2062 C2063 1.348 . S
C2062 C2064 1.356 . S
C2062 O2087 1.325 . S
C2063 C2062 1.348 . S
C2063 C2065 1.353 . S
C2063 H2104 0.929 . S
C2064 C2062 1.356 . S
C2064 C2066 1.358 . S
C2064 H2105 0.930 . S
C2065 C2063 1.353 . S
C2065 N2067 1.314 . S
C2065 H2106 0.930 . S
C2066 C2064 1.358 . S
C2066 N2067 1.279 . S
C2066 H2107 0.930 . S
N2067 C2065 1.314 . S
N2067 C2066 1.279 . S
C2068 C2070 1.353 . S
C2068 N2071 1.314 . S
C2068 H2074 0.930 . S
C2069 N2071 1.279 . S
C2069 C2072 1.358 . S
C2069 H2075 0.930 . S
C2070 C2068 1.353 . S
C2070 C2073 1.348 . S
C2070 H2108 0.929 . S
N2071 Li2026 1.990 . S
N2071 C2068 1.314 . S
N2071 C2069 1.279 . S
C2072 C2069 1.358 . S
C2072 C2073 1.356 . S
C2072 H2109 0.930 . S
C2073 C2070 1.348 . S
C2073 C2072 1.356 . S
H2074 C2068 0.930 . S
H2075 C2069 0.930 . S
C2076 N2077 1.314 . S
C2076 C2078 1.353 . S
C2076 H2082 0.930 . S
N2077 Li2027 1.990 . S
N2077 C2076 1.314 . S
N2077 C2080 1.279 . S
C2078 C2076 1.353 . S
C2078 C2081 1.348 . S
C2078 H2110 0.929 . S
C2079 C2080 1.358 . S
C2079 C2081 1.356 . S
C2079 H2111 0.930 . S
C2080 N2077 1.279 . S
C2080 C2079 1.358 . S
C2080 H2083 0.930 . S
C2081 C2078 1.348 . S
C2081 C2079 1.356 . S
H2082 C2076 0.930 . S
H2083 C2080 0.930 . S
O2084 Li2024 1.956 . S
O2084 Li2025 1.970 . S
O2084 Li2026 1.961 . S
O2084 C2028 1.325 . S
O2085 Li2024 1.970 . S
O2085 Li2025 1.956 . S
O2085 Li2027 1.961 . S
O2085 C2034 1.325 . S
O2086 Li2024 1.961 . S
O2086 Li2026 1.956 . S
O2086 Li2027 1.970 . S
O2086 C2056 1.325 . S
O2087 Li2025 1.961 . S
O2087 Li2026 1.970 . S
O2087 Li2027 1.956 . S
O2087 C2062 1.325 . S
H2088 C2030 0.929 . S
H2089 C2031 0.930 . S
H2090 C2032 0.930 . S
H2091 C2033 0.930 . S
H2092 C2035 0.930 . S
H2093 C2037 0.929 . S
H2094 C2038 0.930 . S
H2095 C2039 0.930 . S
H2096 C2042 0.930 . S
H2097 C2045 0.929 . S
H2098 C2050 0.929 . S
H2099 C2051 0.930 . S
H2100 C2058 0.929 . S
H2101 C2059 0.930 . S
H2102 C2060 0.930 . S
H2103 C2061 0.930 . S
H2104 C2063 0.929 . S
H2105 C2064 0.930 . S
H2106 C2065 0.930 . S
H2107 C2066 0.930 . S
H2108 C2070 0.929 . S
H2109 C2072 0.930 . S
H2110 C2078 0.929 . S
H2111 C2079 0.930 . S
Eu2112 C2121 2.828 . S
Eu2112 O2123 2.392 . S
Eu2112 O2125 2.418 . S
Eu2112 O2130 2.373 . S
Eu2112 O2133 2.488 . S
Eu2112 O2134 2.471 1_554 S
Eu2112 O2135 2.349 1_554 S
Eu2113 O2122 2.373 . S
Eu2113 O2126 2.487 1_544 S
Eu2113 O2127 2.471 1_545 S
Eu2113 O2128 2.349 . S
Eu2113 O2131 2.430 1_554 S
Eu2113 O2132 2.418 1_554 S
Eu2113 C2142 2.828 1_545 S
C2114 O2132 1.244 . S
C2114 O2135 1.265 . S
C2115 C2116 1.439 . S
C2115 C2119 1.341 1_556 S
C2115 C2121 1.481 1_556 S
C2116 C2115 1.439 . S
C2116 C2118 1.369 . S
C2116 H2144 0.930 . S
C2117 C2119 1.383 . S
C2117 C2120 1.382 1_554 S
C2117 H2145 0.930 . S
C2118 C2116 1.369 . S
C2118 C2120 1.392 . S
C2118 H2146 0.930 . S
C2119 C2115 1.341 1_554 S
C2119 C2117 1.383 . S
C2119 H2147 0.931 . S
C2120 C2117 1.382 1_556 S
C2120 C2118 1.392 . S
C2121 Eu2112 2.828 . S
C2121 C2115 1.481 1_554 S
C2121 O2133 1.249 . S
C2121 O2134 1.244 1_554 S
O2122 Eu2113 2.373 . S
O2122 C2124 1.258 . S
O2123 Eu2112 2.392 . S
O2123 C2124 1.242 . S
C2124 O2122 1.258 . S
C2124 O2123 1.242 . S
O2125 Eu2112 2.418 . S
O2125 C2129 1.244 . S
O2126 Eu2113 2.487 1_566 S
O2126 C2142 1.204 1_556 S
O2127 Eu2113 2.471 1_565 S
O2127 C2142 1.244 . S
O2128 Eu2113 2.349 . S
O2128 C2129 1.265 . S
C2129 O2125 1.244 . S
C2129 O2128 1.265 . S
O2130 Eu2112 2.373 . S
O2130 C2143 1.326 . S
O2131 Eu2113 2.430 1_556 S
O2131 C2143 1.245 1_556 S
O2132 Eu2113 2.418 1_556 S
O2132 C2114 1.244 . S
O2133 Eu2112 2.488 . S
O2133 C2121 1.249 . S
O2134 Eu2112 2.471 1_556 S
O2134 C2121 1.244 1_556 S
O2135 Eu2112 2.349 1_556 S
O2135 C2114 1.265 . S
C2136 C2137 1.379 . S
C2136 C2140 1.373 . S
C2136 C2142 1.505 . S
C2137 C2136 1.379 . S
C2137 C2139 1.369 . S
C2137 H2148 0.930 . S
C2138 C2140 1.383 . S
C2138 C2141 1.382 . S
C2138 H2149 0.930 . S
C2139 C2137 1.369 . S
C2139 C2141 1.392 . S
C2139 H2150 0.930 . S
C2140 C2136 1.373 . S
C2140 C2138 1.383 . S
C2140 H2151 0.931 1_554 S
C2141 C2138 1.382 . S
C2141 C2139 1.392 . S
C2142 Eu2113 2.828 1_565 S
C2142 O2126 1.204 1_554 S
C2142 O2127 1.244 . S
C2142 C2136 1.505 . S
C2143 O2130 1.326 . S
C2143 O2131 1.245 1_554 S
H2144 C2116 0.930 . S
H2145 C2117 0.930 . S
H2146 C2118 0.930 . S
H2147 C2119 0.931 . S
H2148 C2137 0.930 . S
H2149 C2138 0.930 . S
H2150 C2139 0.930 . S
H2151 C2140 0.931 1_556 S
Eu2152 C2161 2.828 . S
Eu2152 O2163 2.392 . S
Eu2152 O2165 2.418 . S
Eu2152 O2170 2.373 . S
Eu2152 O2173 2.488 . S
Eu2152 O2174 2.471 . S
Eu2152 O2175 2.349 . S
Eu2153 O2162 2.373 . S
Eu2153 O2166 2.488 . S
Eu2153 O2167 2.471 . S
Eu2153 O2168 2.349 . S
Eu2153 O2171 2.392 . S
Eu2153 O2172 2.418 . S
Eu2153 C2182 2.828 . S
C2154 O2172 1.244 . S
C2154 O2175 1.265 . S
C2155 C2156 1.379 . S
C2155 C2159 1.373 . S
C2155 C2161 1.505 . S
C2156 C2155 1.379 . S
C2156 C2158 1.369 . S
C2156 H2184 0.930 . S
C2157 C2159 1.383 . S
C2157 C2160 1.382 . S
C2157 H2185 0.930 . S
C2158 C2156 1.369 . S
C2158 C2160 1.392 . S
C2158 H2186 0.930 . S
C2159 C2155 1.373 . S
C2159 C2157 1.383 . S
C2159 H2187 0.931 . S
C2160 C2157 1.382 . S
C2160 C2158 1.392 . S
C2161 Eu2152 2.828 . S
C2161 C2155 1.505 . S
C2161 O2173 1.249 . S
C2161 O2174 1.244 . S
O2162 Eu2153 2.373 . S
O2162 C2164 1.258 . S
O2163 Eu2152 2.392 . S
O2163 C2164 1.242 . S
C2164 O2162 1.258 . S
C2164 O2163 1.242 . S
O2165 Eu2152 2.418 . S
O2165 C2169 1.244 . S
O2166 Eu2153 2.488 . S
O2166 C2182 1.249 . S
O2167 Eu2153 2.471 . S
O2167 C2182 1.244 . S
O2168 Eu2153 2.349 . S
O2168 C2169 1.265 . S
C2169 O2165 1.244 . S
C2169 O2168 1.265 . S
O2170 Eu2152 2.373 . S
O2170 C2183 1.258 . S
O2171 Eu2153 2.392 . S
O2171 C2183 1.242 . S
O2172 Eu2153 2.418 . S
O2172 C2154 1.244 . S
O2173 Eu2152 2.488 . S
O2173 C2161 1.249 . S
O2174 Eu2152 2.471 . S
O2174 C2161 1.244 . S
O2175 Eu2152 2.349 . S
O2175 C2154 1.265 . S
C2176 C2177 1.379 . S
C2176 C2180 1.373 . S
C2176 C2182 1.505 . S
C2177 C2176 1.379 . S
C2177 C2179 1.369 . S
C2177 H2188 0.930 . S
C2178 C2180 1.383 . S
C2178 C2181 1.382 . S
C2178 H2189 0.930 . S
C2179 C2177 1.369 . S
C2179 C2181 1.392 . S
C2179 H2190 0.930 . S
C2180 C2176 1.373 . S
C2180 C2178 1.383 . S
C2180 H2191 0.931 . S
C2181 C2178 1.382 . S
C2181 C2179 1.392 . S
C2182 Eu2153 2.828 . S
C2182 O2166 1.249 . S
C2182 O2167 1.244 . S
C2182 C2176 1.505 . S
C2183 O2170 1.258 . S
C2183 O2171 1.242 . S
H2184 C2156 0.930 . S
H2185 C2157 0.930 . S
H2186 C2158 0.930 . S
H2187 C2159 0.931 . S
H2188 C2177 0.930 . S
H2189 C2178 0.930 . S
H2190 C2179 0.930 . S
H2191 C2180 0.931 . S
Eu2192 C2201 2.828 . S
Eu2192 O2203 2.392 . S
Eu2192 O2205 2.418 . S
Eu2192 O2210 2.373 . S
Eu2192 O2213 2.488 . S
Eu2192 O2214 2.471 . S
Eu2192 O2215 2.349 . S
Eu2193 O2202 2.373 . S
Eu2193 O2206 2.488 . S
Eu2193 O2207 2.471 . S
Eu2193 O2208 2.349 . S
Eu2193 O2211 2.392 1_545 S
Eu2193 O2212 2.418 . S
Eu2193 C2222 2.828 . S
C2194 O2212 1.244 . S
C2194 O2215 1.265 . S
C2195 C2196 1.416 . S
C2195 C2199 1.374 . S
C2195 C2201 1.470 1_565 S
C2196 C2195 1.416 . S
C2196 C2198 1.369 . S
C2196 H2224 0.930 . S
C2197 C2199 1.383 . S
C2197 C2200 1.382 . S
C2197 H2225 0.930 . S
C2198 C2196 1.369 . S
C2198 C2200 1.392 . S
C2198 H2226 0.930 . S
C2199 C2195 1.374 . S
C2199 C2197 1.383 . S
C2199 H2227 0.931 1_565 S
C2200 C2197 1.382 . S
C2200 C2198 1.392 . S
C2201 Eu2192 2.828 . S
C2201 C2195 1.470 1_545 S
C2201 O2213 1.249 . S
C2201 O2214 1.244 . S
O2202 Eu2193 2.373 . S
O2202 C2204 1.258 . S
O2203 Eu2192 2.392 . S
O2203 C2204 1.242 . S
C2204 O2202 1.258 . S
C2204 O2203 1.242 . S
O2205 Eu2192 2.418 . S
O2205 C2209 1.244 . S
O2206 Eu2193 2.488 . S
O2206 C2222 1.249 . S
O2207 Eu2193 2.471 . S
O2207 C2222 1.244 . S
O2208 Eu2193 2.349 . S
O2208 C2209 1.265 . S
C2209 O2205 1.244 . S
C2209 O2208 1.265 . S
O2210 Eu2192 2.373 . S
O2210 C2223 1.258 1_545 S
O2211 Eu2193 2.392 1_565 S
O2211 C2223 1.242 . S
O2212 Eu2193 2.418 . S
O2212 C2194 1.244 . S
O2213 Eu2192 2.488 . S
O2213 C2201 1.249 . S
O2214 Eu2192 2.471 . S
O2214 C2201 1.244 . S
O2215 Eu2192 2.349 . S
O2215 C2194 1.265 . S
C2216 C2217 1.379 . S
C2216 C2220 1.373 . S
C2216 C2222 1.505 . S
C2217 C2216 1.379 . S
C2217 C2219 1.369 . S
C2217 H2228 0.930 . S
C2218 C2220 1.383 . S
C2218 C2221 1.382 . S
C2218 H2229 0.930 . S
C2219 C2217 1.369 . S
C2219 C2221 1.392 . S
C2219 H2230 0.930 . S
C2220 C2216 1.373 . S
C2220 C2218 1.383 . S
C2220 H2231 0.931 . S
C2221 C2218 1.382 . S
C2221 C2219 1.392 . S
C2222 Eu2193 2.828 . S
C2222 O2206 1.249 . S
C2222 O2207 1.244 . S
C2222 C2216 1.505 . S
C2223 O2210 1.258 1_565 S
C2223 O2211 1.242 . S
H2224 C2196 0.930 . S
H2225 C2197 0.930 . S
H2226 C2198 0.930 . S
H2227 C2199 0.931 1_545 S
H2228 C2217 0.930 . S
H2229 C2218 0.930 . S
H2230 C2219 0.930 . S
H2231 C2220 0.931 . S
Eu2232 C2241 2.828 . S
Eu2232 O2243 2.392 . S
Eu2232 O2245 2.418 . S
Eu2232 O2250 2.373 . S
Eu2232 O2253 2.488 . S
Eu2232 O2254 2.471 . S
Eu2232 O2255 2.349 . S
Eu2233 O2242 2.373 . S
Eu2233 O2246 2.488 . S
Eu2233 O2247 2.471 . S
Eu2233 O2248 2.349 . S
Eu2233 O2251 2.392 . S
Eu2233 O2252 2.418 . S
Eu2233 C2262 2.828 . S
C2234 O2252 1.244 . S
C2234 O2255 1.265 . S
C2235 C2236 1.379 . S
C2235 C2239 1.373 . S
C2235 C2241 1.505 . S
C2236 C2235 1.379 . S
C2236 C2238 1.369 . S
C2236 H2264 0.930 . S
C2237 C2239 1.383 . S
C2237 C2240 1.382 . S
C2237 H2265 0.930 . S
C2238 C2236 1.369 . S
C2238 C2240 1.392 . S
C2238 H2266 0.930 . S
C2239 C2235 1.373 . S
C2239 C2237 1.383 . S
C2239 H2267 0.931 . S
C2240 C2237 1.382 . S
C2240 C2238 1.392 . S
C2241 Eu2232 2.828 . S
C2241 C2235 1.505 . S
C2241 O2253 1.249 . S
C2241 O2254 1.244 . S
O2242 Eu2233 2.373 . S
O2242 C2244 1.258 . S
O2243 Eu2232 2.392 . S
O2243 C2244 1.242 . S
C2244 O2242 1.258 . S
C2244 O2243 1.242 . S
O2245 Eu2232 2.418 . S
O2245 C2249 1.244 . S
O2246 Eu2233 2.488 . S
O2246 C2262 1.249 . S
O2247 Eu2233 2.471 . S
O2247 C2262 1.244 . S
O2248 Eu2233 2.349 . S
O2248 C2249 1.265 . S
C2249 O2245 1.244 . S
C2249 O2248 1.265 . S
O2250 Eu2232 2.373 . S
O2250 C2263 1.258 . S
O2251 Eu2233 2.392 . S
O2251 C2263 1.242 . S
O2252 Eu2233 2.418 . S
O2252 C2234 1.244 . S
O2253 Eu2232 2.488 . S
O2253 C2241 1.249 . S
O2254 Eu2232 2.471 . S
O2254 C2241 1.244 . S
O2255 Eu2232 2.349 . S
O2255 C2234 1.265 . S
C2256 C2257 1.379 . S
C2256 C2260 1.373 . S
C2256 C2262 1.505 . S
C2257 C2256 1.379 . S
C2257 C2259 1.369 . S
C2257 H2268 0.930 . S
C2258 C2260 1.383 . S
C2258 C2261 1.382 . S
C2258 H2269 0.930 . S
C2259 C2257 1.369 . S
C2259 C2261 1.392 . S
C2259 H2270 0.930 . S
C2260 C2256 1.373 . S
C2260 C2258 1.383 . S
C2260 H2271 0.931 . S
C2261 C2258 1.382 . S
C2261 C2259 1.392 . S
C2262 Eu2233 2.828 . S
C2262 O2246 1.249 . S
C2262 O2247 1.244 . S
C2262 C2256 1.505 . S
C2263 O2250 1.258 . S
C2263 O2251 1.242 . S
H2264 C2236 0.930 . S
H2265 C2237 0.930 . S
H2266 C2238 0.930 . S
H2267 C2239 0.931 . S
H2268 C2257 0.930 . S
H2269 C2258 0.930 . S
H2270 C2259 0.930 . S
H2271 C2260 0.931 . S
Eu2272 C2281 2.828 . S
Eu2272 O2283 2.392 . S
Eu2272 O2285 2.418 1_455 S
Eu2272 O2290 2.373 . S
Eu2272 O2293 2.488 . S
Eu2272 O2294 2.471 . S
Eu2272 O2295 2.349 . S
Eu2273 O2282 2.373 . S
Eu2273 O2286 2.488 1_545 S
Eu2273 O2287 2.471 1_545 S
Eu2273 O2288 2.349 . S
Eu2273 O2291 2.392 . S
Eu2273 O2292 2.418 . S
Eu2273 C2302 2.828 1_545 S
C2274 O2292 1.244 . S
C2274 O2295 1.265 . S
C2275 C2276 1.379 . S
C2275 C2279 1.373 . S
C2275 C2281 1.505 . S
C2276 C2275 1.379 . S
C2276 C2278 1.369 . S
C2276 H2304 0.930 . S
C2277 C2279 1.383 . S
C2277 C2280 1.382 . S
C2277 H2305 0.930 1_455 S
C2278 C2276 1.369 . S
C2278 C2280 1.392 . S
C2278 H2306 0.930 . S
C2279 C2275 1.373 . S
C2279 C2277 1.383 . S
C2279 H2307 0.931 1_455 S
C2280 C2277 1.382 . S
C2280 C2278 1.392 . S
C2281 Eu2272 2.828 . S
C2281 C2275 1.505 . S
C2281 O2293 1.249 . S
C2281 O2294 1.244 . S
O2282 Eu2273 2.373 . S
O2282 C2284 1.258 . S
O2283 Eu2272 2.392 . S
O2283 C2284 1.242 . S
C2284 O2282 1.258 . S
C2284 O2283 1.242 . S
O2285 Eu2272 2.418 1_655 S
O2285 C2289 1.244 . S
O2286 Eu2273 2.488 1_565 S
O2286 C2302 1.249 . S
O2287 Eu2273 2.471 1_565 S
O2287 C2302 1.244 . S
O2288 Eu2273 2.349 . S
O2288 C2289 1.265 1_455 S
C2289 O2285 1.244 . S
C2289 O2288 1.265 1_655 S
O2290 Eu2272 2.373 . S
O2290 C2303 1.258 . S
O2291 Eu2273 2.392 . S
O2291 C2303 1.242 . S
O2292 Eu2273 2.418 . S
O2292 C2274 1.244 . S
O2293 Eu2272 2.488 . S
O2293 C2281 1.249 . S
O2294 Eu2272 2.471 . S
O2294 C2281 1.244 . S
O2295 Eu2272 2.349 . S
O2295 C2274 1.265 . S
C2296 C2297 1.379 . S
C2296 C2300 1.373 . S
C2296 C2302 1.505 . S
C2297 C2296 1.379 . S
C2297 C2299 1.369 . S
C2297 H2308 0.930 . S
C2298 C2300 1.383 . S
C2298 C2301 1.382 . S
C2298 H2309 0.930 . S
C2299 C2297 1.369 . S
C2299 C2301 1.392 . S
C2299 H2310 0.930 . S
C2300 C2296 1.373 . S
C2300 C2298 1.383 . S
C2300 H2311 0.931 . S
C2301 C2298 1.382 . S
C2301 C2299 1.392 . S
C2302 Eu2273 2.828 1_565 S
C2302 O2286 1.249 . S
C2302 O2287 1.244 . S
C2302 C2296 1.505 . S
C2303 O2290 1.258 . S
C2303 O2291 1.242 . S
H2304 C2276 0.930 . S
H2305 C2277 0.930 1_655 S
H2306 C2278 0.930 . S
H2307 C2279 0.931 1_655 S
H2308 C2297 0.930 . S
H2309 C2298 0.930 . S
H2310 C2299 0.930 . S
H2311 C2300 0.931 . S
Eu2312 C2321 2.828 . S
Eu2312 O2323 2.392 . S
Eu2312 O2325 2.418 . S
Eu2312 O2330 2.373 . S
Eu2312 O2333 2.488 . S
Eu2312 O2334 2.471 . S
Eu2312 O2335 2.349 . S
Eu2313 O2322 2.373 . S
Eu2313 O2326 2.488 . S
Eu2313 O2327 2.471 . S
Eu2313 O2328 2.349 . S
Eu2313 O2331 2.392 . S
Eu2313 O2332 2.418 . S
Eu2313 C2342 2.828 . S
C2314 O2332 1.244 . S
C2314 O2335 1.265 . S
C2315 C2316 1.379 . S
C2315 C2319 1.373 . S
C2315 C2321 1.505 . S
C2316 C2315 1.379 . S
C2316 C2318 1.369 . S
C2316 H2344 0.930 . S
C2317 C2319 1.383 . S
C2317 C2320 1.382 . S
C2317 H2345 0.930 . S
C2318 C2316 1.369 . S
C2318 C2320 1.392 . S
C2318 H2346 0.930 . S
C2319 C2315 1.373 . S
C2319 C2317 1.383 . S
C2319 H2347 0.931 . S
C2320 C2317 1.382 . S
C2320 C2318 1.392 . S
C2321 Eu2312 2.828 . S
C2321 C2315 1.505 . S
C2321 O2333 1.249 . S
C2321 O2334 1.244 . S
O2322 Eu2313 2.373 . S
O2322 C2324 1.258 . S
O2323 Eu2312 2.392 . S
O2323 C2324 1.242 . S
C2324 O2322 1.258 . S
C2324 O2323 1.242 . S
O2325 Eu2312 2.418 . S
O2325 C2329 1.244 . S
O2326 Eu2313 2.488 . S
O2326 C2342 1.249 . S
O2327 Eu2313 2.471 . S
O2327 C2342 1.244 . S
O2328 Eu2313 2.349 . S
O2328 C2329 1.265 . S
C2329 O2325 1.244 . S
C2329 O2328 1.265 . S
O2330 Eu2312 2.373 . S
O2330 C2343 1.258 . S
O2331 Eu2313 2.392 . S
O2331 C2343 1.242 . S
O2332 Eu2313 2.418 . S
O2332 C2314 1.244 . S
O2333 Eu2312 2.488 . S
O2333 C2321 1.249 . S
O2334 Eu2312 2.471 . S
O2334 C2321 1.244 . S
O2335 Eu2312 2.349 . S
O2335 C2314 1.265 . S
C2336 C2337 1.379 . S
C2336 C2340 1.373 . S
C2336 C2342 1.505 . S
C2337 C2336 1.379 . S
C2337 C2339 1.369 . S
C2337 H2348 0.930 . S
C2338 C2340 1.383 . S
C2338 C2341 1.382 . S
C2338 H2349 0.930 . S
C2339 C2337 1.369 . S
C2339 C2341 1.392 . S
C2339 H2350 0.930 . S
C2340 C2336 1.373 . S
C2340 C2338 1.383 . S
C2340 H2351 0.931 . S
C2341 C2338 1.382 . S
C2341 C2339 1.392 . S
C2342 Eu2313 2.828 . S
C2342 O2326 1.249 . S
C2342 O2327 1.244 . S
C2342 C2336 1.505 . S
C2343 O2330 1.258 . S
C2343 O2331 1.242 . S
H2344 C2316 0.930 . S
H2345 C2317 0.930 . S
H2346 C2318 0.930 . S
H2347 C2319 0.931 . S
H2348 C2337 0.930 . S
H2349 C2338 0.930 . S
H2350 C2339 0.930 . S
H2351 C2340 0.931 . S
Eu2352 C2361 2.828 . S
Eu2352 O2363 2.392 . S
Eu2352 O2365 2.418 1_545 S
Eu2352 O2370 2.373 . S
Eu2352 O2373 2.488 . S
Eu2352 O2374 2.471 . S
Eu2352 O2375 2.349 . S
Eu2353 O2362 2.373 . S
Eu2353 O2366 2.488 . S
Eu2353 O2367 2.471 . S
Eu2353 O2368 2.349 . S
Eu2353 O2371 2.422 . S
Eu2353 O2372 2.418 1_556 S
Eu2353 C2382 2.828 . S
C2354 O2372 1.244 . S
C2354 O2375 1.265 . S
C2355 C2356 1.379 . S
C2355 C2359 1.373 1_545 S
C2355 C2361 1.505 . S
C2356 C2355 1.379 . S
C2356 C2358 1.369 . S
C2356 H2384 0.930 . S
C2357 C2359 1.383 . S
C2357 C2360 1.382 1_565 S
C2357 H2385 0.930 . S
C2358 C2356 1.369 . S
C2358 C2360 1.392 . S
C2358 H2386 0.930 . S
C2359 C2355 1.373 1_565 S
C2359 C2357 1.383 . S
C2359 H2387 0.931 . S
C2360 C2357 1.382 1_545 S
C2360 C2358 1.392 . S
C2361 Eu2352 2.828 . S
C2361 C2355 1.505 . S
C2361 O2373 1.249 . S
C2361 O2374 1.244 . S
O2362 Eu2353 2.373 . S
O2362 C2364 1.258 1_556 S
O2363 Eu2352 2.392 . S
O2363 C2364 1.242 . S
C2364 O2362 1.258 1_554 S
C2364 O2363 1.242 . S
O2365 Eu2352 2.418 1_565 S
O2365 C2369 1.279 . S
O2366 Eu2353 2.488 . S
O2366 C2382 1.249 . S
O2367 Eu2353 2.471 . S
O2367 C2382 1.244 . S
O2368 Eu2353 2.349 . S
O2368 C2369 1.252 1_546 S
C2369 O2365 1.279 . S
C2369 O2368 1.252 1_564 S
O2370 Eu2352 2.373 . S
O2370 C2383 1.258 . S
O2371 Eu2353 2.422 . S
O2371 C2383 1.195 1_556 S
O2372 Eu2353 2.418 1_554 S
O2372 C2354 1.244 . S
O2373 Eu2352 2.488 . S
O2373 C2361 1.249 . S
O2374 Eu2352 2.471 . S
O2374 C2361 1.244 . S
O2375 Eu2352 2.349 . S
O2375 C2354 1.265 . S
C2376 C2377 1.379 . S
C2376 C2380 1.373 . S
C2376 C2382 1.505 . S
C2377 C2376 1.379 . S
C2377 C2379 1.369 . S
C2377 H2388 0.930 . S
C2378 C2380 1.383 . S
C2378 C2381 1.382 . S
C2378 H2389 0.930 . S
C2379 C2377 1.369 . S
C2379 C2381 1.392 . S
C2379 H2390 0.930 . S
C2380 C2376 1.373 . S
C2380 C2378 1.383 . S
C2380 H2391 0.931 . S
C2381 C2378 1.382 . S
C2381 C2379 1.392 . S
C2382 Eu2353 2.828 . S
C2382 O2366 1.249 . S
C2382 O2367 1.244 . S
C2382 C2376 1.505 . S
C2383 O2370 1.258 . S
C2383 O2371 1.195 1_554 S
H2384 C2356 0.930 . S
H2385 C2357 0.930 . S
H2386 C2358 0.930 . S
H2387 C2359 0.931 . S
H2388 C2377 0.930 . S
H2389 C2378 0.930 . S
H2390 C2379 0.930 . S
H2391 C2380 0.931 . S
Eu2392 C2401 2.828 . S
Eu2392 O2403 2.392 . S
Eu2392 O2405 2.418 . S
Eu2392 O2410 2.373 . S
Eu2392 O2413 2.488 . S
Eu2392 O2414 2.471 . S
Eu2392 O2415 2.349 . S
Eu2393 O2402 2.373 . S
Eu2393 O2406 2.488 . S
Eu2393 O2407 2.471 . S
Eu2393 O2408 2.349 . S
Eu2393 O2411 2.392 . S
Eu2393 O2412 2.418 . S
Eu2393 C2422 2.828 . S
C2394 O2412 1.244 . S
C2394 O2415 1.265 . S
C2395 C2396 1.379 . S
C2395 C2399 1.373 . S
C2395 C2401 1.505 . S
C2396 C2395 1.379 . S
C2396 C2398 1.369 . S
C2396 H2424 0.930 . S
C2397 C2399 1.383 . S
C2397 C2400 1.382 . S
C2397 H2425 0.930 . S
C2398 C2396 1.369 . S
C2398 C2400 1.392 . S
C2398 H2426 0.930 . S
C2399 C2395 1.373 . S
C2399 C2397 1.383 . S
C2399 H2427 0.931 . S
C2400 C2397 1.382 . S
C2400 C2398 1.392 . S
C2401 Eu2392 2.828 . S
C2401 C2395 1.505 . S
C2401 O2413 1.249 . S
C2401 O2414 1.244 . S
O2402 Eu2393 2.373 . S
O2402 C2404 1.258 . S
O2403 Eu2392 2.392 . S
O2403 C2404 1.242 . S
C2404 O2402 1.258 . S
C2404 O2403 1.242 . S
O2405 Eu2392 2.418 . S
O2405 C2409 1.244 . S
O2406 Eu2393 2.488 . S
O2406 C2422 1.249 . S
O2407 Eu2393 2.471 . S
O2407 C2422 1.244 . S
O2408 Eu2393 2.349 . S
O2408 C2409 1.265 . S
C2409 O2405 1.244 . S
C2409 O2408 1.265 . S
O2410 Eu2392 2.373 . S
O2410 C2423 1.258 . S
O2411 Eu2393 2.392 . S
O2411 C2423 1.242 . S
O2412 Eu2393 2.418 . S
O2412 C2394 1.244 . S
O2413 Eu2392 2.488 . S
O2413 C2401 1.249 . S
O2414 Eu2392 2.471 . S
O2414 C2401 1.244 . S
O2415 Eu2392 2.349 . S
O2415 C2394 1.265 . S
C2416 C2417 1.379 . S
C2416 C2420 1.373 . S
C2416 C2422 1.505 . S
C2417 C2416 1.379 . S
C2417 C2419 1.369 . S
C2417 H2428 0.930 . S
C2418 C2420 1.383 . S
C2418 C2421 1.382 . S
C2418 H2429 0.930 . S
C2419 C2417 1.369 . S
C2419 C2421 1.392 . S
C2419 H2430 0.930 . S
C2420 C2416 1.373 . S
C2420 C2418 1.383 . S
C2420 H2431 0.931 . S
C2421 C2418 1.382 . S
C2421 C2419 1.392 . S
C2422 Eu2393 2.828 . S
C2422 O2406 1.249 . S
C2422 O2407 1.244 . S
C2422 C2416 1.505 . S
C2423 O2410 1.258 . S
C2423 O2411 1.242 . S
H2424 C2396 0.930 . S
H2425 C2397 0.930 . S
H2426 C2398 0.930 . S
H2427 C2399 0.931 . S
H2428 C2417 0.930 . S
H2429 C2418 0.930 . S
H2430 C2419 0.930 . S
H2431 C2420 0.931 . S
Eu2432 C2441 2.828 . S
Eu2432 O2443 2.392 . S
Eu2432 O2445 2.418 . S
Eu2432 O2450 2.373 1_554 S
Eu2432 O2453 2.488 . S
Eu2432 O2454 2.471 . S
Eu2432 O2455 2.349 . S
Eu2433 O2442 2.373 . S
Eu2433 O2446 2.488 . S
Eu2433 O2447 2.471 . S
Eu2433 O2448 2.349 . S
Eu2433 O2451 2.392 1_554 S
Eu2433 O2452 2.418 . S
Eu2433 C2462 2.828 . S
C2434 O2452 1.244 . S
C2434 O2455 1.265 . S
C2435 C2436 1.379 . S
C2435 C2439 1.373 . S
C2435 C2441 1.505 1_556 S
C2436 C2435 1.379 . S
C2436 C2438 1.369 . S
C2436 H2464 0.930 . S
C2437 C2439 1.383 . S
C2437 C2440 1.382 . S
C2437 H2465 0.930 . S
C2438 C2436 1.369 . S
C2438 C2440 1.392 . S
C2438 H2466 0.930 . S
C2439 C2435 1.373 . S
C2439 C2437 1.383 . S
C2439 H2467 0.931 1_556 S
C2440 C2437 1.382 . S
C2440 C2438 1.392 . S
C2441 Eu2432 2.828 . S
C2441 C2435 1.505 1_554 S
C2441 O2453 1.249 . S
C2441 O2454 1.244 . S
O2442 Eu2433 2.373 . S
O2442 C2444 1.258 . S
O2443 Eu2432 2.392 . S
O2443 C2444 1.242 . S
C2444 O2442 1.258 . S
C2444 O2443 1.242 . S
O2445 Eu2432 2.418 . S
O2445 C2449 1.244 . S
O2446 Eu2433 2.488 . S
O2446 C2462 1.249 . S
O2447 Eu2433 2.471 . S
O2447 C2462 1.244 . S
O2448 Eu2433 2.349 . S
O2448 C2449 1.265 . S
C2449 O2445 1.244 . S
C2449 O2448 1.265 . S
O2450 Eu2432 2.373 1_556 S
O2450 C2463 1.258 . S
O2451 Eu2433 2.392 1_556 S
O2451 C2463 1.242 . S
O2452 Eu2433 2.418 . S
O2452 C2434 1.244 . S
O2453 Eu2432 2.488 . S
O2453 C2441 1.249 . S
O2454 Eu2432 2.471 . S
O2454 C2441 1.244 . S
O2455 Eu2432 2.349 . S
O2455 C2434 1.265 . S
C2456 C2457 1.379 . S
C2456 C2460 1.373 . S
C2456 C2462 1.505 . S
C2457 C2456 1.379 . S
C2457 C2459 1.369 . S
C2457 H2468 0.930 . S
C2458 C2460 1.383 . S
C2458 C2461 1.382 . S
C2458 H2469 0.930 . S
C2459 C2457 1.369 . S
C2459 C2461 1.392 . S
C2459 H2470 0.930 . S
C2460 C2456 1.373 . S
C2460 C2458 1.383 . S
C2460 H2471 0.931 . S
C2461 C2458 1.382 . S
C2461 C2459 1.392 . S
C2462 Eu2433 2.828 . S
C2462 O2446 1.249 . S
C2462 O2447 1.244 . S
C2462 C2456 1.505 . S
C2463 O2450 1.258 . S
C2463 O2451 1.242 . S
H2464 C2436 0.930 . S
H2465 C2437 0.930 . S
H2466 C2438 0.930 . S
H2467 C2439 0.931 1_554 S
H2468 C2457 0.930 . S
H2469 C2458 0.930 . S
H2470 C2459 0.930 . S
H2471 C2460 0.931 . S
Eu2472 C2481 2.828 . S
Eu2472 O2483 2.392 . S
Eu2472 O2485 2.418 . S
Eu2472 O2490 2.373 . S
Eu2472 O2493 2.488 . S
Eu2472 O2494 2.471 . S
Eu2472 O2495 2.349 . S
Eu2473 O2482 2.373 . S
Eu2473 O2486 2.488 . S
Eu2473 O2487 2.471 . S
Eu2473 O2488 2.349 . S
Eu2473 O2491 2.392 . S
Eu2473 O2492 2.418 . S
Eu2473 C2502 2.828 . S
C2474 O2492 1.244 . S
C2474 O2495 1.265 . S
C2475 C2476 1.379 . S
C2475 C2479 1.373 . S
C2475 C2481 1.505 . S
C2476 C2475 1.379 . S
C2476 C2478 1.369 . S
C2476 H2504 0.930 . S
C2477 C2479 1.383 . S
C2477 C2480 1.382 . S
C2477 H2505 0.930 . S
C2478 C2476 1.369 . S
C2478 C2480 1.392 . S
C2478 H2506 0.930 . S
C2479 C2475 1.373 . S
C2479 C2477 1.383 . S
C2479 H2507 0.931 . S
C2480 C2477 1.382 . S
C2480 C2478 1.392 . S
C2481 Eu2472 2.828 . S
C2481 C2475 1.505 . S
C2481 O2493 1.249 . S
C2481 O2494 1.244 . S
O2482 Eu2473 2.373 . S
O2482 C2484 1.258 . S
O2483 Eu2472 2.392 . S
O2483 C2484 1.242 . S
C2484 O2482 1.258 . S
C2484 O2483 1.242 . S
O2485 Eu2472 2.418 . S
O2485 C2489 1.244 . S
O2486 Eu2473 2.488 . S
O2486 C2502 1.249 . S
O2487 Eu2473 2.471 . S
O2487 C2502 1.244 . S
O2488 Eu2473 2.349 . S
O2488 C2489 1.265 . S
C2489 O2485 1.244 . S
C2489 O2488 1.265 . S
O2490 Eu2472 2.373 . S
O2490 C2503 1.258 . S
O2491 Eu2473 2.392 . S
O2491 C2503 1.242 . S
O2492 Eu2473 2.418 . S
O2492 C2474 1.244 . S
O2493 Eu2472 2.488 . S
O2493 C2481 1.249 . S
O2494 Eu2472 2.471 . S
O2494 C2481 1.244 . S
O2495 Eu2472 2.349 . S
O2495 C2474 1.265 . S
C2496 C2497 1.379 . S
C2496 C2500 1.373 . S
C2496 C2502 1.505 . S
C2497 C2496 1.379 . S
C2497 C2499 1.369 . S
C2497 H2508 0.930 . S
C2498 C2500 1.383 . S
C2498 C2501 1.382 . S
C2498 H2509 0.930 . S
C2499 C2497 1.369 . S
C2499 C2501 1.392 . S
C2499 H2510 0.930 . S
C2500 C2496 1.373 . S
C2500 C2498 1.383 . S
C2500 H2511 0.931 . S
C2501 C2498 1.382 . S
C2501 C2499 1.392 . S
C2502 Eu2473 2.828 . S
C2502 O2486 1.249 . S
C2502 O2487 1.244 . S
C2502 C2496 1.505 . S
C2503 O2490 1.258 . S
C2503 O2491 1.242 . S
H2504 C2476 0.930 . S
H2505 C2477 0.930 . S
H2506 C2478 0.930 . S
H2507 C2479 0.931 . S
H2508 C2497 0.930 . S
H2509 C2498 0.930 . S
H2510 C2499 0.930 . S
H2511 C2500 0.931 . S
Eu2512 C2521 2.828 . S
Eu2512 O2523 2.392 . S
Eu2512 O2525 2.418 . S
Eu2512 O2530 2.373 . S
Eu2512 O2533 2.488 . S
Eu2512 O2534 2.471 . S
Eu2512 O2535 2.349 . S
Eu2513 O2522 2.373 . S
Eu2513 O2526 2.488 . S
Eu2513 O2527 2.471 . S
Eu2513 O2528 2.349 . S
Eu2513 O2531 2.437 . S
Eu2513 O2532 2.418 . S
Eu2513 C2542 2.828 . S
C2514 O2532 1.244 . S
C2514 O2535 1.265 . S
C2515 C2516 1.379 1_455 S
C2515 C2519 1.373 . S
C2515 C2521 1.505 . S
C2516 C2515 1.379 1_655 S
C2516 C2518 1.369 . S
C2516 H2544 0.930 . S
C2517 C2519 1.383 1_655 S
C2517 C2520 1.382 . S
C2517 H2545 0.930 . S
C2518 C2516 1.369 . S
C2518 C2520 1.392 . S
C2518 H2546 0.930 . S
C2519 C2515 1.373 . S
C2519 C2517 1.383 1_455 S
C2519 H2547 0.931 . S
C2520 C2517 1.382 . S
C2520 C2518 1.392 . S
C2521 Eu2512 2.828 . S
C2521 C2515 1.505 . S
C2521 O2533 1.249 . S
C2521 O2534 1.244 . S
O2522 Eu2513 2.373 . S
O2522 C2524 1.258 . S
O2523 Eu2512 2.392 . S
O2523 C2524 1.242 . S
C2524 O2522 1.258 . S
C2524 O2523 1.242 . S
O2525 Eu2512 2.418 . S
O2525 C2529 1.244 . S
O2526 Eu2513 2.488 . S
O2526 C2542 1.249 . S
O2527 Eu2513 2.471 . S
O2527 C2542 1.244 . S
O2528 Eu2513 2.349 . S
O2528 C2529 1.265 . S
C2529 O2525 1.244 . S
C2529 O2528 1.265 . S
O2530 Eu2512 2.373 . S
O2530 C2543 1.258 1_455 S
O2531 Eu2513 2.437 . S
O2531 C2543 1.233 1_455 S
O2532 Eu2513 2.418 . S
O2532 C2514 1.244 . S
O2533 Eu2512 2.488 . S
O2533 C2521 1.249 . S
O2534 Eu2512 2.471 . S
O2534 C2521 1.244 . S
O2535 Eu2512 2.349 . S
O2535 C2514 1.265 . S
C2536 C2537 1.379 . S
C2536 C2540 1.373 . S
C2536 C2542 1.505 . S
C2537 C2536 1.379 . S
C2537 C2539 1.369 . S
C2537 H2548 0.930 . S
C2538 C2540 1.383 . S
C2538 C2541 1.382 . S
C2538 H2549 0.930 . S
C2539 C2537 1.369 . S
C2539 C2541 1.392 . S
C2539 H2550 0.930 . S
C2540 C2536 1.373 . S
C2540 C2538 1.383 . S
C2540 H2551 0.931 . S
C2541 C2538 1.382 . S
C2541 C2539 1.392 . S
C2542 Eu2513 2.828 . S
C2542 O2526 1.249 . S
C2542 O2527 1.244 . S
C2542 C2536 1.505 . S
C2543 O2530 1.258 1_655 S
C2543 O2531 1.233 1_655 S
H2544 C2516 0.930 . S
H2545 C2517 0.930 . S
H2546 C2518 0.930 . S
H2547 C2519 0.931 . S
H2548 C2537 0.930 . S
H2549 C2538 0.930 . S
H2550 C2539 0.930 . S
H2551 C2540 0.931 . S
Eu2552 C2561 2.828 . S
Eu2552 O2563 2.392 . S
Eu2552 O2565 2.418 . S
Eu2552 O2570 2.373 . S
Eu2552 O2573 2.488 . S
Eu2552 O2574 2.471 . S
Eu2552 O2575 2.349 . S
Eu2553 O2562 2.373 . S
Eu2553 O2566 2.488 . S
Eu2553 O2567 2.471 . S
Eu2553 O2568 2.349 . S
Eu2553 O2571 2.392 . S
Eu2553 O2572 2.418 . S
Eu2553 C2582 2.828 . S
C2554 O2572 1.244 . S
C2554 O2575 1.265 . S
C2555 C2556 1.379 . S
C2555 C2559 1.373 . S
C2555 C2561 1.505 . S
C2556 C2555 1.379 . S
C2556 C2558 1.369 . S
C2556 H2584 0.930 . S
C2557 C2559 1.383 . S
C2557 C2560 1.382 . S
C2557 H2585 0.930 . S
C2558 C2556 1.369 . S
C2558 C2560 1.392 . S
C2558 H2586 0.930 . S
C2559 C2555 1.373 . S
C2559 C2557 1.383 . S
C2559 H2587 0.931 . S
C2560 C2557 1.382 . S
C2560 C2558 1.392 . S
C2561 Eu2552 2.828 . S
C2561 C2555 1.505 . S
C2561 O2573 1.249 . S
C2561 O2574 1.244 . S
O2562 Eu2553 2.373 . S
O2562 C2564 1.258 . S
O2563 Eu2552 2.392 . S
O2563 C2564 1.242 . S
C2564 O2562 1.258 . S
C2564 O2563 1.242 . S
O2565 Eu2552 2.418 . S
O2565 C2569 1.244 . S
O2566 Eu2553 2.488 . S
O2566 C2582 1.249 . S
O2567 Eu2553 2.471 . S
O2567 C2582 1.244 . S
O2568 Eu2553 2.349 . S
O2568 C2569 1.265 . S
C2569 O2565 1.244 . S
C2569 O2568 1.265 . S
O2570 Eu2552 2.373 . S
O2570 C2583 1.258 . S
O2571 Eu2553 2.392 . S
O2571 C2583 1.242 . S
O2572 Eu2553 2.418 . S
O2572 C2554 1.244 . S
O2573 Eu2552 2.488 . S
O2573 C2561 1.249 . S
O2574 Eu2552 2.471 . S
O2574 C2561 1.244 . S
O2575 Eu2552 2.349 . S
O2575 C2554 1.265 . S
C2576 C2577 1.379 . S
C2576 C2580 1.373 . S
C2576 C2582 1.505 . S
C2577 C2576 1.379 . S
C2577 C2579 1.369 . S
C2577 H2588 0.930 . S
C2578 C2580 1.383 . S
C2578 C2581 1.382 . S
C2578 H2589 0.930 . S
C2579 C2577 1.369 . S
C2579 C2581 1.392 . S
C2579 H2590 0.930 . S
C2580 C2576 1.373 . S
C2580 C2578 1.383 . S
C2580 H2591 0.931 . S
C2581 C2578 1.382 . S
C2581 C2579 1.392 . S
C2582 Eu2553 2.828 . S
C2582 O2566 1.249 . S
C2582 O2567 1.244 . S
C2582 C2576 1.505 . S
C2583 O2570 1.258 . S
C2583 O2571 1.242 . S
H2584 C2556 0.930 . S
H2585 C2557 0.930 . S
H2586 C2558 0.930 . S
H2587 C2559 0.931 . S
H2588 C2577 0.930 . S
H2589 C2578 0.930 . S
H2590 C2579 0.930 . S
H2591 C2580 0.931 . S
Eu2592 C2601 2.828 . S
Eu2592 O2603 2.392 . S
Eu2592 O2605 2.418 . S
Eu2592 O2610 2.373 . S
Eu2592 O2613 2.488 . S
Eu2592 O2614 2.471 . S
Eu2592 O2615 2.349 . S
Eu2593 O2602 2.373 . S
Eu2593 O2606 2.488 . S
Eu2593 O2607 2.471 . S
Eu2593 O2608 2.349 . S
Eu2593 O2611 2.392 . S
Eu2593 O2612 2.418 . S
Eu2593 C2622 2.828 . S
C2594 O2612 1.244 . S
C2594 O2615 1.265 . S
C2595 C2596 1.379 . S
C2595 C2599 1.373 . S
C2595 C2601 1.505 . S
C2596 C2595 1.379 . S
C2596 C2598 1.369 . S
C2596 H2624 0.930 . S
C2597 C2599 1.383 . S
C2597 C2600 1.382 . S
C2597 H2625 0.930 . S
C2598 C2596 1.369 . S
C2598 C2600 1.392 . S
C2598 H2626 0.930 . S
C2599 C2595 1.373 . S
C2599 C2597 1.383 . S
C2599 H2627 0.931 . S
C2600 C2597 1.382 . S
C2600 C2598 1.392 . S
C2601 Eu2592 2.828 . S
C2601 C2595 1.505 . S
C2601 O2613 1.249 . S
C2601 O2614 1.244 . S
O2602 Eu2593 2.373 . S
O2602 C2604 1.258 . S
O2603 Eu2592 2.392 . S
O2603 C2604 1.242 . S
C2604 O2602 1.258 . S
C2604 O2603 1.242 . S
O2605 Eu2592 2.418 . S
O2605 C2609 1.244 . S
O2606 Eu2593 2.488 . S
O2606 C2622 1.249 . S
O2607 Eu2593 2.471 . S
O2607 C2622 1.244 . S
O2608 Eu2593 2.349 . S
O2608 C2609 1.265 . S
C2609 O2605 1.244 . S
C2609 O2608 1.265 . S
O2610 Eu2592 2.373 . S
O2610 C2623 1.258 . S
O2611 Eu2593 2.392 . S
O2611 C2623 1.242 . S
O2612 Eu2593 2.418 . S
O2612 C2594 1.244 . S
O2613 Eu2592 2.488 . S
O2613 C2601 1.249 . S
O2614 Eu2592 2.471 . S
O2614 C2601 1.244 . S
O2615 Eu2592 2.349 . S
O2615 C2594 1.265 . S
C2616 C2617 1.379 . S
C2616 C2620 1.373 . S
C2616 C2622 1.505 . S
C2617 C2616 1.379 . S
C2617 C2619 1.369 . S
C2617 H2628 0.930 . S
C2618 C2620 1.383 . S
C2618 C2621 1.382 . S
C2618 H2629 0.930 . S
C2619 C2617 1.369 . S
C2619 C2621 1.392 . S
C2619 H2630 0.930 . S
C2620 C2616 1.373 . S
C2620 C2618 1.383 . S
C2620 H2631 0.931 . S
C2621 C2618 1.382 . S
C2621 C2619 1.392 . S
C2622 Eu2593 2.828 . S
C2622 O2606 1.249 . S
C2622 O2607 1.244 . S
C2622 C2616 1.505 . S
C2623 O2610 1.258 . S
C2623 O2611 1.242 . S
H2624 C2596 0.930 . S
H2625 C2597 0.930 . S
H2626 C2598 0.930 . S
H2627 C2599 0.931 . S
H2628 C2617 0.930 . S
H2629 C2618 0.930 . S
H2630 C2619 0.930 . S
H2631 C2620 0.931 . S
Eu2632 C2641 2.828 . S
Eu2632 O2643 2.392 . S
Eu2632 O2645 2.418 . S
Eu2632 O2650 2.373 . S
Eu2632 O2653 2.488 . S
Eu2632 O2654 2.471 . S
Eu2632 O2655 2.349 . S
Eu2633 O2642 2.373 . S
Eu2633 O2646 2.488 . S
Eu2633 O2647 2.471 . S
Eu2633 O2648 2.349 . S
Eu2633 O2651 2.392 . S
Eu2633 O2652 2.418 . S
Eu2633 C2662 2.828 . S
C2634 O2652 1.244 . S
C2634 O2655 1.265 . S
C2635 C2636 1.379 . S
C2635 C2639 1.373 . S
C2635 C2641 1.505 . S
C2636 C2635 1.379 . S
C2636 C2638 1.369 . S
C2636 H2664 0.930 . S
C2637 C2639 1.383 . S
C2637 C2640 1.382 . S
C2637 H2665 0.930 . S
C2638 C2636 1.369 . S
C2638 C2640 1.392 . S
C2638 H2666 0.930 . S
C2639 C2635 1.373 . S
C2639 C2637 1.383 . S
C2639 H2667 0.931 . S
C2640 C2637 1.382 . S
C2640 C2638 1.392 . S
C2641 Eu2632 2.828 . S
C2641 C2635 1.505 . S
C2641 O2653 1.249 . S
C2641 O2654 1.244 . S
O2642 Eu2633 2.373 . S
O2642 C2644 1.258 . S
O2643 Eu2632 2.392 . S
O2643 C2644 1.242 . S
C2644 O2642 1.258 . S
C2644 O2643 1.242 . S
O2645 Eu2632 2.418 . S
O2645 C2649 1.244 . S
O2646 Eu2633 2.488 . S
O2646 C2662 1.249 . S
O2647 Eu2633 2.471 . S
O2647 C2662 1.244 . S
O2648 Eu2633 2.349 . S
O2648 C2649 1.265 . S
C2649 O2645 1.244 . S
C2649 O2648 1.265 . S
O2650 Eu2632 2.373 . S
O2650 C2663 1.258 . S
O2651 Eu2633 2.392 . S
O2651 C2663 1.242 . S
O2652 Eu2633 2.418 . S
O2652 C2634 1.244 . S
O2653 Eu2632 2.488 . S
O2653 C2641 1.249 . S
O2654 Eu2632 2.471 . S
O2654 C2641 1.244 . S
O2655 Eu2632 2.349 . S
O2655 C2634 1.265 . S
C2656 C2657 1.379 . S
C2656 C2660 1.373 . S
C2656 C2662 1.505 . S
C2657 C2656 1.379 . S
C2657 C2659 1.369 . S
C2657 H2668 0.930 . S
C2658 C2660 1.383 . S
C2658 C2661 1.382 . S
C2658 H2669 0.930 . S
C2659 C2657 1.369 . S
C2659 C2661 1.392 . S
C2659 H2670 0.930 . S
C2660 C2656 1.373 . S
C2660 C2658 1.383 . S
C2660 H2671 0.931 . S
C2661 C2658 1.382 . S
C2661 C2659 1.392 . S
C2662 Eu2633 2.828 . S
C2662 O2646 1.249 . S
C2662 O2647 1.244 . S
C2662 C2656 1.505 . S
C2663 O2650 1.258 . S
C2663 O2651 1.242 . S
H2664 C2636 0.930 . S
H2665 C2637 0.930 . S
H2666 C2638 0.930 . S
H2667 C2639 0.931 . S
H2668 C2657 0.930 . S
H2669 C2658 0.930 . S
H2670 C2659 0.930 . S
H2671 C2660 0.931 . S
Eu2672 C2681 2.828 . S
Eu2672 O2683 2.392 . S
Eu2672 O2685 2.418 . S
Eu2672 O2690 2.373 . S
Eu2672 O2693 2.488 . S
Eu2672 O2694 2.471 . S
Eu2672 O2695 2.349 . S
Eu2673 O2682 2.373 . S
Eu2673 O2686 2.488 . S
Eu2673 O2687 2.471 . S
Eu2673 O2688 2.349 . S
Eu2673 O2691 2.392 . S
Eu2673 O2692 2.418 . S
Eu2673 C2702 2.828 . S
C2674 O2692 1.244 . S
C2674 O2695 1.265 . S
C2675 C2676 1.379 . S
C2675 C2679 1.373 . S
C2675 C2681 1.505 . S
C2676 C2675 1.379 . S
C2676 C2678 1.369 . S
C2676 H2704 0.930 . S
C2677 C2679 1.383 . S
C2677 C2680 1.382 . S
C2677 H2705 0.930 . S
C2678 C2676 1.369 . S
C2678 C2680 1.392 . S
C2678 H2706 0.930 . S
C2679 C2675 1.373 . S
C2679 C2677 1.383 . S
C2679 H2707 0.931 . S
C2680 C2677 1.382 . S
C2680 C2678 1.392 . S
C2681 Eu2672 2.828 . S
C2681 C2675 1.505 . S
C2681 O2693 1.249 . S
C2681 O2694 1.244 . S
O2682 Eu2673 2.373 . S
O2682 C2684 1.258 . S
O2683 Eu2672 2.392 . S
O2683 C2684 1.242 . S
C2684 O2682 1.258 . S
C2684 O2683 1.242 . S
O2685 Eu2672 2.418 . S
O2685 C2689 1.244 . S
O2686 Eu2673 2.488 . S
O2686 C2702 1.249 . S
O2687 Eu2673 2.471 . S
O2687 C2702 1.244 . S
O2688 Eu2673 2.349 . S
O2688 C2689 1.265 . S
C2689 O2685 1.244 . S
C2689 O2688 1.265 . S
O2690 Eu2672 2.373 . S
O2690 C2703 1.258 . S
O2691 Eu2673 2.392 . S
O2691 C2703 1.242 . S
O2692 Eu2673 2.418 . S
O2692 C2674 1.244 . S
O2693 Eu2672 2.488 . S
O2693 C2681 1.249 . S
O2694 Eu2672 2.471 . S
O2694 C2681 1.244 . S
O2695 Eu2672 2.349 . S
O2695 C2674 1.265 . S
C2696 C2697 1.379 . S
C2696 C2700 1.373 . S
C2696 C2702 1.505 . S
C2697 C2696 1.379 . S
C2697 C2699 1.369 . S
C2697 H2708 0.930 . S
C2698 C2700 1.383 . S
C2698 C2701 1.382 . S
C2698 H2709 0.930 . S
C2699 C2697 1.369 . S
C2699 C2701 1.392 . S
C2699 H2710 0.930 . S
C2700 C2696 1.373 . S
C2700 C2698 1.383 . S
C2700 H2711 0.931 . S
C2701 C2698 1.382 . S
C2701 C2699 1.392 . S
C2702 Eu2673 2.828 . S
C2702 O2686 1.249 . S
C2702 O2687 1.244 . S
C2702 C2696 1.505 . S
C2703 O2690 1.258 . S
C2703 O2691 1.242 . S
H2704 C2676 0.930 . S
H2705 C2677 0.930 . S
H2706 C2678 0.930 . S
H2707 C2679 0.931 . S
H2708 C2697 0.930 . S
H2709 C2698 0.930 . S
H2710 C2699 0.930 . S
H2711 C2700 0.931 . S
Eu2712 C2721 2.828 1_554 S
Eu2712 O2723 2.392 . S
Eu2712 O2725 2.418 1_554 S
Eu2712 O2730 2.373 1_554 S
Eu2712 O2733 2.488 1_554 S
Eu2712 O2734 2.471 . S
Eu2712 O2735 2.349 . S
Eu2713 O2722 2.373 . S
Eu2713 O2726 2.488 1_455 S
Eu2713 O2727 2.471 1_455 S
Eu2713 O2728 2.349 1_554 S
Eu2713 O2731 2.392 . S
Eu2713 O2732 2.418 . S
Eu2713 C2742 2.828 1_455 S
C2714 O2732 1.244 . S
C2714 O2735 1.265 . S
C2715 C2716 1.379 1_556 S
C2715 C2719 1.373 . S
C2715 C2721 1.505 . S
C2716 C2715 1.379 1_554 S
C2716 C2718 1.369 . S
C2716 H2744 0.930 . S
C2717 C2719 1.383 . S
C2717 C2720 1.382 . S
C2717 H2745 0.930 . S
C2718 C2716 1.369 . S
C2718 C2720 1.392 1_554 S
C2718 H2746 0.930 . S
C2719 C2715 1.373 . S
C2719 C2717 1.383 . S
C2719 H2747 0.931 . S
C2720 C2717 1.382 . S
C2720 C2718 1.392 1_556 S
C2721 Eu2712 2.828 1_556 S
C2721 C2715 1.505 . S
C2721 O2733 1.249 . S
C2721 O2734 1.244 1_556 S
O2722 Eu2713 2.373 . S
O2722 C2724 1.258 . S
O2723 Eu2712 2.392 . S
O2723 C2724 1.242 . S
C2724 O2722 1.258 . S
C2724 O2723 1.242 . S
O2725 Eu2712 2.418 1_556 S
O2725 C2729 1.244 . S
O2726 Eu2713 2.488 1_655 S
O2726 C2742 1.249 . S
O2727 Eu2713 2.471 1_655 S
O2727 C2742 1.244 . S
O2728 Eu2713 2.349 1_556 S
O2728 C2729 1.265 . S
C2729 O2725 1.244 . S
C2729 O2728 1.265 . S
O2730 Eu2712 2.373 1_556 S
O2730 C2743 1.259 1_556 S
O2731 Eu2713 2.392 . S
O2731 C2743 1.240 . S
O2732 Eu2713 2.418 . S
O2732 C2714 1.244 . S
O2733 Eu2712 2.488 1_556 S
O2733 C2721 1.249 . S
O2734 Eu2712 2.471 . S
O2734 C2721 1.244 1_554 S
O2735 Eu2712 2.349 . S
O2735 C2714 1.265 . S
C2736 C2737 1.379 . S
C2736 C2740 1.373 . S
C2736 C2742 1.505 . S
C2737 C2736 1.379 . S
C2737 C2739 1.369 . S
C2737 H2748 0.930 . S
C2738 C2740 1.383 . S
C2738 C2741 1.382 . S
C2738 H2749 0.930 . S
C2739 C2737 1.369 . S
C2739 C2741 1.392 . S
C2739 H2750 0.930 . S
C2740 C2736 1.373 . S
C2740 C2738 1.383 . S
C2740 H2751 0.931 . S
C2741 C2738 1.382 . S
C2741 C2739 1.392 . S
C2742 Eu2713 2.828 1_655 S
C2742 O2726 1.249 . S
C2742 O2727 1.244 . S
C2742 C2736 1.505 . S
C2743 O2730 1.259 1_554 S
C2743 O2731 1.240 . S
H2744 C2716 0.930 . S
H2745 C2717 0.930 . S
H2746 C2718 0.930 . S
H2747 C2719 0.931 . S
H2748 C2737 0.930 . S
H2749 C2738 0.930 . S
H2750 C2739 0.930 . S
H2751 C2740 0.931 . S
H2752 C2770 0.951 . S
H2753 C2772 0.951 . S
H2754 C2774 0.950 1_655 S
H2755 C2775 0.956 . S
H2756 C2777 0.950 . S
H2757 C2780 0.950 . S
H2758 C2781 0.950 . S
H2759 C2783 0.950 . S
H2760 C2784 0.950 . S
H2761 C2785 0.951 . S
H2762 C2787 0.951 . S
H2763 C2789 0.950 . S
H2764 C2790 0.950 1_554 S
H2765 C2792 0.950 . S
H2766 C2795 0.950 . S
H2767 C2796 0.950 . S
H2768 C2798 0.950 . S
H2769 C2799 0.950 . S
C2770 H2752 0.951 . S
C2770 C2771 1.366 . S
C2770 C2772 1.388 . S
C2771 C2770 1.366 . S
C2771 C2775 1.384 1_455 S
C2772 H2753 0.951 . S
C2772 C2770 1.388 . S
C2772 C2773 1.366 . S
C2773 C2772 1.366 . S
C2773 C2774 1.414 . S
C2773 C2776 1.499 . S
C2774 H2754 0.950 1_455 S
C2774 C2773 1.414 . S
C2774 C2775 1.368 1_455 S
C2775 H2755 0.956 . S
C2775 C2771 1.384 1_655 S
C2775 C2774 1.368 1_655 S
C2776 C2773 1.499 . S
C2776 C2777 1.373 1_455 S
C2776 C2778 1.389 . S
C2777 H2756 0.950 . S
C2777 C2776 1.373 1_655 S
C2777 C2793 1.372 1_655 S
C2778 C2776 1.389 . S
C2778 C2779 1.524 . S
C2778 C2792 1.377 . S
C2779 C2778 1.524 . S
C2779 C2780 1.397 . S
C2779 C2784 1.363 . S
C2780 H2757 0.950 . S
C2780 C2779 1.397 . S
C2780 C2781 1.334 . S
C2781 H2758 0.950 . S
C2781 C2780 1.334 . S
C2781 C2782 1.287 . S
C2782 C2781 1.287 . S
C2782 C2783 1.524 . S
C2782 H2801 0.913 . S
C2783 H2759 0.950 . S
C2783 C2782 1.524 . S
C2783 C2784 1.415 . S
C2784 H2760 0.950 . S
C2784 C2779 1.363 . S
C2784 C2783 1.415 . S
C2785 H2761 0.951 . S
C2785 C2786 1.366 . S
C2785 C2787 1.388 . S
C2786 C2785 1.366 . S
C2786 C2790 1.385 . S
C2787 H2762 0.951 . S
C2787 C2785 1.388 . S
C2787 C2788 1.366 . S
C2788 C2787 1.366 . S
C2788 C2789 1.414 . S
C2788 C2791 1.499 . S
C2789 H2763 0.950 . S
C2789 C2788 1.414 . S
C2789 C2790 1.374 . S
C2790 H2764 0.950 1_556 S
C2790 C2786 1.385 . S
C2790 C2789 1.374 . S
C2791 C2788 1.499 . S
C2791 C2792 1.373 . S
C2791 C2793 1.407 . S
C2792 H2765 0.950 . S
C2792 C2778 1.377 . S
C2792 C2791 1.373 . S
C2793 C2777 1.372 1_455 S
C2793 C2791 1.407 . S
C2793 C2794 1.510 1_455 S
C2794 C2793 1.510 1_655 S
C2794 C2795 1.397 . S
C2794 C2799 1.363 . S
C2795 H2766 0.950 . S
C2795 C2794 1.397 . S
C2795 C2796 1.334 . S
C2796 H2767 0.950 . S
C2796 C2795 1.334 . S
C2796 C2797 1.287 . S
C2797 C2796 1.287 . S
C2797 C2798 1.524 . S
C2797 H2800 0.999 . S
C2798 H2768 0.950 . S
C2798 C2797 1.524 . S
C2798 C2799 1.415 . S
C2799 H2769 0.950 . S
C2799 C2794 1.363 . S
C2799 C2798 1.415 . S
H2800 C2797 0.999 . S
H2801 C2782 0.913 . S
H2802 C2820 0.951 . S
H2803 C2822 0.951 . S
H2804 C2824 0.950 . S
H2805 C2825 0.950 . S
H2806 C2827 0.950 . S
H2807 C2830 0.950 . S
H2808 C2831 0.950 . S
H2809 C2833 0.950 . S
H2810 C2834 0.950 . S
H2811 C2835 0.951 . S
H2812 C2837 0.951 . S
H2813 C2839 0.950 . S
H2814 C2840 0.950 . S
H2815 C2842 0.950 . S
H2816 C2845 0.950 . S
H2817 C2846 0.950 . S
H2818 C2848 0.950 . S
H2819 C2849 0.950 . S
C2820 H2802 0.951 . S
C2820 C2821 1.366 . S
C2820 C2822 1.388 . S
C2821 C2820 1.366 . S
C2821 C2825 1.385 . S
C2822 H2803 0.951 . S
C2822 C2820 1.388 . S
C2822 C2823 1.366 . S
C2823 C2822 1.366 . S
C2823 C2824 1.414 . S
C2823 C2826 1.499 . S
C2824 H2804 0.950 . S
C2824 C2823 1.414 . S
C2824 C2825 1.374 . S
C2825 H2805 0.950 . S
C2825 C2821 1.385 . S
C2825 C2824 1.374 . S
C2826 C2823 1.499 . S
C2826 C2827 1.373 . S
C2826 C2828 1.389 . S
C2827 H2806 0.950 . S
C2827 C2826 1.373 . S
C2827 C2843 1.377 . S
C2828 C2826 1.389 . S
C2828 C2829 1.524 . S
C2828 C2842 1.377 . S
C2829 C2828 1.524 . S
C2829 C2830 1.397 . S
C2829 C2834 1.363 . S
C2830 H2807 0.950 . S
C2830 C2829 1.397 . S
C2830 C2831 1.334 . S
C2831 H2808 0.950 . S
C2831 C2830 1.334 . S
C2831 C2832 1.287 . S
C2832 C2831 1.287 . S
C2832 C2833 1.524 . S
C2832 H2851 0.913 . S
C2833 H2809 0.950 . S
C2833 C2832 1.524 . S
C2833 C2834 1.415 . S
C2834 H2810 0.950 . S
C2834 C2829 1.363 . S
C2834 C2833 1.415 . S
C2835 H2811 0.951 . S
C2835 C2836 1.366 . S
C2835 C2837 1.388 . S
C2836 C2835 1.366 . S
C2836 C2840 1.385 . S
C2837 H2812 0.951 . S
C2837 C2835 1.388 . S
C2837 C2838 1.366 . S
C2838 C2837 1.366 . S
C2838 C2839 1.414 . S
C2838 C2841 1.499 . S
C2839 H2813 0.950 . S
C2839 C2838 1.414 . S
C2839 C2840 1.374 . S
C2840 H2814 0.950 . S
C2840 C2836 1.385 . S
C2840 C2839 1.374 . S
C2841 C2838 1.499 . S
C2841 C2842 1.373 . S
C2841 C2843 1.389 . S
C2842 H2815 0.950 . S
C2842 C2828 1.377 . S
C2842 C2841 1.373 . S
C2843 C2827 1.377 . S
C2843 C2841 1.389 . S
C2843 C2844 1.524 . S
C2844 C2843 1.524 . S
C2844 C2845 1.397 . S
C2844 C2849 1.363 . S
C2845 H2816 0.950 . S
C2845 C2844 1.397 . S
C2845 C2846 1.334 . S
C2846 H2817 0.950 . S
C2846 C2845 1.334 . S
C2846 C2847 1.287 . S
C2847 C2846 1.287 . S
C2847 C2848 1.524 . S
C2847 H2850 0.999 . S
C2848 H2818 0.950 . S
C2848 C2847 1.524 . S
C2848 C2849 1.415 . S
C2849 H2819 0.950 . S
C2849 C2844 1.363 . S
C2849 C2848 1.415 . S
H2850 C2847 0.999 . S
H2851 C2832 0.913 . S
H2852 C2870 0.951 . S
H2853 C2872 0.951 . S
H2854 C2874 0.950 . S
H2855 C2875 0.950 . S
H2856 C2877 0.950 . S
H2857 C2880 0.950 . S
H2858 C2881 0.950 . S
H2859 C2883 0.950 . S
H2860 C2884 0.950 . S
H2861 C2885 0.951 . S
H2862 C2887 0.951 . S
H2863 C2889 0.950 . S
H2864 C2890 0.950 . S
H2865 C2892 0.950 . S
H2866 C2895 0.950 . S
H2867 C2896 0.950 . S
H2868 C2898 0.950 . S
H2869 C2899 0.950 . S
C2870 H2852 0.951 . S
C2870 C2871 1.366 . S
C2870 C2872 1.388 . S
C2871 C2870 1.366 . S
C2871 C2875 1.385 . S
C2872 H2853 0.951 . S
C2872 C2870 1.388 . S
C2872 C2873 1.366 . S
C2873 C2872 1.366 . S
C2873 C2874 1.414 . S
C2873 C2876 1.499 . S
C2874 H2854 0.950 . S
C2874 C2873 1.414 . S
C2874 C2875 1.374 . S
C2875 H2855 0.950 . S
C2875 C2871 1.385 . S
C2875 C2874 1.374 . S
C2876 C2873 1.499 . S
C2876 C2877 1.373 . S
C2876 C2878 1.389 . S
C2877 H2856 0.950 . S
C2877 C2876 1.373 . S
C2877 C2893 1.377 . S
C2878 C2876 1.389 . S
C2878 C2879 1.524 . S
C2878 C2892 1.377 . S
C2879 C2878 1.524 . S
C2879 C2880 1.397 . S
C2879 C2884 1.363 . S
C2880 H2857 0.950 . S
C2880 C2879 1.397 . S
C2880 C2881 1.334 . S
C2881 H2858 0.950 . S
C2881 C2880 1.334 . S
C2881 C2882 1.287 . S
C2882 C2881 1.287 . S
C2882 C2883 1.524 . S
C2882 H2901 0.913 . S
C2883 H2859 0.950 . S
C2883 C2882 1.524 . S
C2883 C2884 1.415 . S
C2884 H2860 0.950 . S
C2884 C2879 1.363 . S
C2884 C2883 1.415 . S
C2885 H2861 0.951 . S
C2885 C2886 1.366 . S
C2885 C2887 1.388 . S
C2886 C2885 1.366 . S
C2886 C2890 1.385 . S
C2887 H2862 0.951 . S
C2887 C2885 1.388 . S
C2887 C2888 1.366 . S
C2888 C2887 1.366 . S
C2888 C2889 1.414 . S
C2888 C2891 1.499 . S
C2889 H2863 0.950 . S
C2889 C2888 1.414 . S
C2889 C2890 1.374 . S
C2890 H2864 0.950 . S
C2890 C2886 1.385 . S
C2890 C2889 1.374 . S
C2891 C2888 1.499 . S
C2891 C2892 1.373 . S
C2891 C2893 1.389 . S
C2892 H2865 0.950 . S
C2892 C2878 1.377 . S
C2892 C2891 1.373 . S
C2893 C2877 1.377 . S
C2893 C2891 1.389 . S
C2893 C2894 1.524 . S
C2894 C2893 1.524 . S
C2894 C2895 1.397 . S
C2894 C2899 1.363 . S
C2895 H2866 0.950 . S
C2895 C2894 1.397 . S
C2895 C2896 1.334 . S
C2896 H2867 0.950 . S
C2896 C2895 1.334 . S
C2896 C2897 1.287 . S
C2897 C2896 1.287 . S
C2897 C2898 1.524 . S
C2897 H2900 0.999 . S
C2898 H2868 0.950 . S
C2898 C2897 1.524 . S
C2898 C2899 1.415 . S
C2899 H2869 0.950 . S
C2899 C2894 1.363 . S
C2899 C2898 1.415 . S
H2900 C2897 0.999 . S
H2901 C2882 0.913 . S
H2902 C2920 0.951 . S
H2903 C2922 0.951 . S
H2904 C2924 0.950 . S
H2905 C2925 0.950 . S
H2906 C2927 0.950 . S
H2907 C2930 0.950 . S
H2908 C2931 0.950 . S
H2909 C2933 0.950 . S
H2910 C2934 0.950 . S
H2911 C2935 0.951 . S
H2912 C2937 0.951 . S
H2913 C2939 0.950 . S
H2914 C2940 0.950 . S
H2915 C2942 0.950 . S
H2916 C2945 0.950 . S
H2917 C2946 0.950 . S
H2918 C2948 0.950 . S
H2919 C2949 0.950 . S
C2920 H2902 0.951 . S
C2920 C2921 1.366 . S
C2920 C2922 1.388 . S
C2921 C2920 1.366 . S
C2921 C2925 1.385 . S
C2922 H2903 0.951 . S
C2922 C2920 1.388 . S
C2922 C2923 1.366 . S
C2923 C2922 1.366 . S
C2923 C2924 1.414 . S
C2923 C2926 1.499 . S
C2924 H2904 0.950 . S
C2924 C2923 1.414 . S
C2924 C2925 1.374 . S
C2925 H2905 0.950 . S
C2925 C2921 1.385 . S
C2925 C2924 1.374 . S
C2926 C2923 1.499 . S
C2926 C2927 1.373 . S
C2926 C2928 1.389 . S
C2927 H2906 0.950 . S
C2927 C2926 1.373 . S
C2927 C2943 1.377 . S
C2928 C2926 1.389 . S
C2928 C2929 1.524 . S
C2928 C2942 1.377 . S
C2929 C2928 1.524 . S
C2929 C2930 1.397 . S
C2929 C2934 1.363 . S
C2930 H2907 0.950 . S
C2930 C2929 1.397 . S
C2930 C2931 1.334 . S
C2931 H2908 0.950 . S
C2931 C2930 1.334 . S
C2931 C2932 1.287 . S
C2932 C2931 1.287 . S
C2932 C2933 1.524 . S
C2932 H2951 0.913 . S
C2933 H2909 0.950 . S
C2933 C2932 1.524 . S
C2933 C2934 1.415 . S
C2934 H2910 0.950 . S
C2934 C2929 1.363 . S
C2934 C2933 1.415 . S
C2935 H2911 0.951 . S
C2935 C2936 1.366 . S
C2935 C2937 1.388 . S
C2936 C2935 1.366 . S
C2936 C2940 1.385 . S
C2937 H2912 0.951 . S
C2937 C2935 1.388 . S
C2937 C2938 1.366 . S
C2938 C2937 1.366 . S
C2938 C2939 1.414 . S
C2938 C2941 1.499 . S
C2939 H2913 0.950 . S
C2939 C2938 1.414 . S
C2939 C2940 1.374 . S
C2940 H2914 0.950 . S
C2940 C2936 1.385 . S
C2940 C2939 1.374 . S
C2941 C2938 1.499 . S
C2941 C2942 1.373 . S
C2941 C2943 1.389 . S
C2942 H2915 0.950 . S
C2942 C2928 1.377 . S
C2942 C2941 1.373 . S
C2943 C2927 1.377 . S
C2943 C2941 1.389 . S
C2943 C2944 1.524 . S
C2944 C2943 1.524 . S
C2944 C2945 1.397 . S
C2944 C2949 1.363 . S
C2945 H2916 0.950 . S
C2945 C2944 1.397 . S
C2945 C2946 1.334 . S
C2946 H2917 0.950 . S
C2946 C2945 1.334 . S
C2946 C2947 1.287 . S
C2947 C2946 1.287 . S
C2947 C2948 1.524 . S
C2947 H2950 0.999 . S
C2948 H2918 0.950 . S
C2948 C2947 1.524 . S
C2948 C2949 1.415 . S
C2949 H2919 0.950 . S
C2949 C2944 1.363 . S
C2949 C2948 1.415 . S
H2950 C2947 0.999 . S
H2951 C2932 0.913 . S
H2952 C2970 0.951 . S
H2953 C2972 0.951 1_655 S
H2954 C2974 0.950 . S
H2955 C2975 0.950 . S
H2956 C2977 0.950 . S
H2957 C2980 1.002 . S
H2958 C2981 0.950 . S
H2959 C2983 0.950 . S
H2960 C2984 0.950 . S
H2961 C2985 0.951 . S
H2962 C2987 0.951 . S
H2963 C2989 0.950 . S
H2964 C2990 0.950 . S
H2965 C2992 0.950 . S
H2966 C2995 0.950 . S
H2967 C2996 0.950 . S
H2968 C2998 0.950 . S
H2969 C2999 0.950 . S
C2970 H2952 0.951 . S
C2970 C2971 1.366 1_655 S
C2970 C2972 1.388 1_655 S
C2971 C2970 1.366 1_455 S
C2971 C2975 1.385 . S
C2972 H2953 0.951 1_455 S
C2972 C2970 1.388 1_455 S
C2972 C2973 1.366 . S
C2973 C2972 1.366 . S
C2973 C2974 1.414 . S
C2973 C2976 1.499 . S
C2974 H2954 0.950 . S
C2974 C2973 1.414 . S
C2974 C2975 1.374 . S
C2975 H2955 0.950 . S
C2975 C2971 1.385 . S
C2975 C2974 1.374 . S
C2976 C2973 1.499 . S
C2976 C2977 1.373 . S
C2976 C2978 1.389 . S
C2977 H2956 0.950 . S
C2977 C2976 1.373 . S
C2977 C2993 1.377 . S
C2978 C2976 1.389 . S
C2978 C2979 1.524 1_455 S
C2978 C2992 1.377 . S
C2979 C2978 1.524 1_655 S
C2979 C2980 1.397 . S
C2979 C2984 1.363 . S
C2980 H2957 1.002 . S
C2980 C2979 1.397 . S
C2980 C2981 1.334 . S
C2981 H2958 0.950 . S
C2981 C2980 1.334 . S
C2981 C2982 1.287 . S
C2982 C2981 1.287 . S
C2982 C2983 1.524 . S
C2982 H3001 0.913 . S
C2983 H2959 0.950 . S
C2983 C2982 1.524 . S
C2983 C2984 1.415 . S
C2984 H2960 0.950 . S
C2984 C2979 1.363 . S
C2984 C2983 1.415 . S
C2985 H2961 0.951 . S
C2985 C2986 1.366 . S
C2985 C2987 1.388 . S
C2986 C2985 1.366 . S
C2986 C2990 1.385 . S
C2987 H2962 0.951 . S
C2987 C2985 1.388 . S
C2987 C2988 1.366 . S
C2988 C2987 1.366 . S
C2988 C2989 1.414 . S
C2988 C2991 1.499 . S
C2989 H2963 0.950 . S
C2989 C2988 1.414 . S
C2989 C2990 1.374 . S
C2990 H2964 0.950 . S
C2990 C2986 1.385 . S
C2990 C2989 1.374 . S
C2991 C2988 1.499 . S
C2991 C2992 1.373 . S
C2991 C2993 1.389 . S
C2992 H2965 0.950 . S
C2992 C2978 1.377 . S
C2992 C2991 1.373 . S
C2993 C2977 1.377 . S
C2993 C2991 1.389 . S
C2993 C2994 1.524 . S
C2994 C2993 1.524 . S
C2994 C2995 1.397 . S
C2994 C2999 1.363 . S
C2995 H2966 0.950 . S
C2995 C2994 1.397 . S
C2995 C2996 1.334 . S
C2996 H2967 0.950 . S
C2996 C2995 1.334 . S
C2996 C2997 1.287 . S
C2997 C2996 1.287 . S
C2997 C2998 1.524 . S
C2997 H3000 0.999 . S
C2998 H2968 0.950 . S
C2998 C2997 1.524 . S
C2998 C2999 1.415 . S
C2999 H2969 0.950 . S
C2999 C2994 1.363 . S
C2999 C2998 1.415 . S
H3000 C2997 0.999 . S
H3001 C2982 0.913 . S
H3002 C3020 0.951 . S
H3003 C3022 0.951 . S
H3004 C3024 0.950 . S
H3005 C3025 0.950 . S
H3006 C3027 0.950 . S
H3007 C3030 0.950 . S
H3008 C3031 0.950 . S
H3009 C3033 0.950 . S
H3010 C3034 0.950 . S
H3011 C3035 0.951 . S
H3012 C3037 0.951 . S
H3013 C3039 0.950 . S
H3014 C3040 0.950 . S
H3015 C3042 0.950 . S
H3016 C3045 0.950 . S
H3017 C3046 0.950 . S
H3018 C3048 0.950 . S
H3019 C3049 0.950 . S
C3020 H3002 0.951 . S
C3020 C3021 1.366 . S
C3020 C3022 1.388 . S
C3021 C3020 1.366 . S
C3021 C3025 1.385 . S
C3022 H3003 0.951 . S
C3022 C3020 1.388 . S
C3022 C3023 1.366 . S
C3023 C3022 1.366 . S
C3023 C3024 1.414 . S
C3023 C3026 1.499 . S
C3024 H3004 0.950 . S
C3024 C3023 1.414 . S
C3024 C3025 1.374 . S
C3025 H3005 0.950 . S
C3025 C3021 1.385 . S
C3025 C3024 1.374 . S
C3026 C3023 1.499 . S
C3026 C3027 1.373 . S
C3026 C3028 1.389 . S
C3027 H3006 0.950 . S
C3027 C3026 1.373 . S
C3027 C3043 1.377 . S
C3028 C3026 1.389 . S
C3028 C3029 1.524 . S
C3028 C3042 1.377 . S
C3029 C3028 1.524 . S
C3029 C3030 1.397 . S
C3029 C3034 1.363 . S
C3030 H3007 0.950 . S
C3030 C3029 1.397 . S
C3030 C3031 1.334 . S
C3031 H3008 0.950 . S
C3031 C3030 1.334 . S
C3031 C3032 1.287 . S
C3032 C3031 1.287 . S
C3032 C3033 1.524 . S
C3032 H3051 0.913 . S
C3033 H3009 0.950 . S
C3033 C3032 1.524 . S
C3033 C3034 1.415 . S
C3034 H3010 0.950 . S
C3034 C3029 1.363 . S
C3034 C3033 1.415 . S
C3035 H3011 0.951 . S
C3035 C3036 1.366 . S
C3035 C3037 1.388 . S
C3036 C3035 1.366 . S
C3036 C3040 1.385 . S
C3037 H3012 0.951 . S
C3037 C3035 1.388 . S
C3037 C3038 1.366 . S
C3038 C3037 1.366 . S
C3038 C3039 1.414 . S
C3038 C3041 1.499 . S
C3039 H3013 0.950 . S
C3039 C3038 1.414 . S
C3039 C3040 1.374 . S
C3040 H3014 0.950 . S
C3040 C3036 1.385 . S
C3040 C3039 1.374 . S
C3041 C3038 1.499 . S
C3041 C3042 1.373 . S
C3041 C3043 1.389 . S
C3042 H3015 0.950 . S
C3042 C3028 1.377 . S
C3042 C3041 1.373 . S
C3043 C3027 1.377 . S
C3043 C3041 1.389 . S
C3043 C3044 1.524 . S
C3044 C3043 1.524 . S
C3044 C3045 1.397 . S
C3044 C3049 1.363 . S
C3045 H3016 0.950 . S
C3045 C3044 1.397 . S
C3045 C3046 1.334 . S
C3046 H3017 0.950 . S
C3046 C3045 1.334 . S
C3046 C3047 1.287 . S
C3047 C3046 1.287 . S
C3047 C3048 1.524 . S
C3047 H3050 0.999 . S
C3048 H3018 0.950 . S
C3048 C3047 1.524 . S
C3048 C3049 1.415 . S
C3049 H3019 0.950 . S
C3049 C3044 1.363 . S
C3049 C3048 1.415 . S
H3050 C3047 0.999 . S
H3051 C3032 0.913 . S
H3052 C3070 0.951 . S
H3053 C3072 0.951 . S
H3054 C3074 0.950 . S
H3055 C3075 0.950 . S
H3056 C3077 0.950 . S
H3057 C3080 0.950 . S
H3058 C3081 0.950 . S
H3059 C3083 0.950 . S
H3060 C3084 0.950 . S
H3061 C3085 0.951 . S
H3062 C3087 0.951 . S
H3063 C3089 0.950 . S
H3064 C3090 0.950 . S
H3065 C3092 0.950 . S
H3066 C3095 0.950 . S
H3067 C3096 0.950 . S
H3068 C3098 0.950 . S
H3069 C3099 0.950 . S
C3070 H3052 0.951 . S
C3070 C3071 1.366 . S
C3070 C3072 1.388 . S
C3071 C3070 1.366 . S
C3071 C3075 1.385 . S
C3072 H3053 0.951 . S
C3072 C3070 1.388 . S
C3072 C3073 1.366 . S
C3073 C3072 1.366 . S
C3073 C3074 1.414 . S
C3073 C3076 1.499 . S
C3074 H3054 0.950 . S
C3074 C3073 1.414 . S
C3074 C3075 1.374 . S
C3075 H3055 0.950 . S
C3075 C3071 1.385 . S
C3075 C3074 1.374 . S
C3076 C3073 1.499 . S
C3076 C3077 1.373 . S
C3076 C3078 1.389 . S
C3077 H3056 0.950 . S
C3077 C3076 1.373 . S
C3077 C3093 1.377 . S
C3078 C3076 1.389 . S
C3078 C3079 1.524 . S
C3078 C3092 1.377 . S
C3079 C3078 1.524 . S
C3079 C3080 1.397 . S
C3079 C3084 1.363 . S
C3080 H3057 0.950 . S
C3080 C3079 1.397 . S
C3080 C3081 1.334 . S
C3081 H3058 0.950 . S
C3081 C3080 1.334 . S
C3081 C3082 1.287 . S
C3082 C3081 1.287 . S
C3082 C3083 1.524 . S
C3082 H3101 0.913 . S
C3083 H3059 0.950 . S
C3083 C3082 1.524 . S
C3083 C3084 1.415 . S
C3084 H3060 0.950 . S
C3084 C3079 1.363 . S
C3084 C3083 1.415 . S
C3085 H3061 0.951 . S
C3085 C3086 1.366 . S
C3085 C3087 1.388 . S
C3086 C3085 1.366 . S
C3086 C3090 1.385 . S
C3087 H3062 0.951 . S
C3087 C3085 1.388 . S
C3087 C3088 1.366 . S
C3088 C3087 1.366 . S
C3088 C3089 1.414 . S
C3088 C3091 1.499 . S
C3089 H3063 0.950 . S
C3089 C3088 1.414 . S
C3089 C3090 1.374 . S
C3090 H3064 0.950 . S
C3090 C3086 1.385 . S
C3090 C3089 1.374 . S
C3091 C3088 1.499 . S
C3091 C3092 1.373 . S
C3091 C3093 1.389 . S
C3092 H3065 0.950 . S
C3092 C3078 1.377 . S
C3092 C3091 1.373 . S
C3093 C3077 1.377 . S
C3093 C3091 1.389 . S
C3093 C3094 1.524 . S
C3094 C3093 1.524 . S
C3094 C3095 1.397 . S
C3094 C3099 1.363 . S
C3095 H3066 0.950 . S
C3095 C3094 1.397 . S
C3095 C3096 1.334 . S
C3096 H3067 0.950 . S
C3096 C3095 1.334 . S
C3096 C3097 1.287 . S
C3097 C3096 1.287 . S
C3097 C3098 1.524 . S
C3097 H3100 0.999 . S
C3098 H3068 0.950 . S
C3098 C3097 1.524 . S
C3098 C3099 1.415 . S
C3099 H3069 0.950 . S
C3099 C3094 1.363 . S
C3099 C3098 1.415 . S
H3100 C3097 0.999 . S
H3101 C3082 0.913 . S
H3102 C3120 0.951 . S
H3103 C3122 0.951 . S
H3104 C3124 0.950 . S
H3105 C3125 0.950 . S
H3106 C3127 0.950 . S
H3107 C3130 0.950 . S
H3108 C3131 0.950 . S
H3109 C3133 0.950 . S
H3110 C3134 0.950 . S
H3111 C3135 0.951 . S
H3112 C3137 0.951 . S
H3113 C3139 0.950 . S
H3114 C3140 0.950 . S
H3115 C3142 0.950 . S
H3116 C3145 0.950 . S
H3117 C3146 0.950 . S
H3118 C3148 0.950 . S
H3119 C3149 0.950 . S
C3120 H3102 0.951 . S
C3120 C3121 1.366 . S
C3120 C3122 1.388 . S
C3121 C3120 1.366 . S
C3121 C3125 1.385 . S
C3122 H3103 0.951 . S
C3122 C3120 1.388 . S
C3122 C3123 1.366 . S
C3123 C3122 1.366 . S
C3123 C3124 1.414 . S
C3123 C3126 1.499 . S
C3124 H3104 0.950 . S
C3124 C3123 1.414 . S
C3124 C3125 1.374 . S
C3125 H3105 0.950 . S
C3125 C3121 1.385 . S
C3125 C3124 1.374 . S
C3126 C3123 1.499 . S
C3126 C3127 1.373 . S
C3126 C3128 1.389 . S
C3127 H3106 0.950 . S
C3127 C3126 1.373 . S
C3127 C3143 1.377 . S
C3128 C3126 1.389 . S
C3128 C3129 1.524 . S
C3128 C3142 1.377 . S
C3129 C3128 1.524 . S
C3129 C3130 1.397 . S
C3129 C3134 1.363 . S
C3130 H3107 0.950 . S
C3130 C3129 1.397 . S
C3130 C3131 1.334 . S
C3131 H3108 0.950 . S
C3131 C3130 1.334 . S
C3131 C3132 1.287 . S
C3132 C3131 1.287 . S
C3132 C3133 1.524 . S
C3132 H3151 0.913 . S
C3133 H3109 0.950 . S
C3133 C3132 1.524 . S
C3133 C3134 1.415 . S
C3134 H3110 0.950 . S
C3134 C3129 1.363 . S
C3134 C3133 1.415 . S
C3135 H3111 0.951 . S
C3135 C3136 1.366 . S
C3135 C3137 1.388 . S
C3136 C3135 1.366 . S
C3136 C3140 1.385 . S
C3137 H3112 0.951 . S
C3137 C3135 1.388 . S
C3137 C3138 1.366 . S
C3138 C3137 1.366 . S
C3138 C3139 1.414 . S
C3138 C3141 1.499 . S
C3139 H3113 0.950 . S
C3139 C3138 1.414 . S
C3139 C3140 1.374 . S
C3140 H3114 0.950 . S
C3140 C3136 1.385 . S
C3140 C3139 1.374 . S
C3141 C3138 1.499 . S
C3141 C3142 1.373 . S
C3141 C3143 1.389 . S
C3142 H3115 0.950 . S
C3142 C3128 1.377 . S
C3142 C3141 1.373 . S
C3143 C3127 1.377 . S
C3143 C3141 1.389 . S
C3143 C3144 1.524 . S
C3144 C3143 1.524 . S
C3144 C3145 1.397 . S
C3144 C3149 1.363 . S
C3145 H3116 0.950 . S
C3145 C3144 1.397 . S
C3145 C3146 1.334 . S
C3146 H3117 0.950 . S
C3146 C3145 1.334 . S
C3146 C3147 1.287 . S
C3147 C3146 1.287 . S
C3147 C3148 1.524 . S
C3147 H3150 0.999 . S
C3148 H3118 0.950 . S
C3148 C3147 1.524 . S
C3148 C3149 1.415 . S
C3149 H3119 0.950 . S
C3149 C3144 1.363 . S
C3149 C3148 1.415 . S
H3150 C3147 0.999 . S
H3151 C3132 0.913 . S
H3152 C3170 0.951 . S
H3153 C3172 0.951 . S
H3154 C3174 0.950 . S
H3155 C3175 0.950 . S
H3156 C3177 0.950 . S
H3157 C3180 0.950 . S
H3158 C3181 0.950 . S
H3159 C3183 0.950 . S
H3160 C3184 0.950 . S
H3161 C3185 0.939 1_655 S
H3162 C3187 0.951 . S
H3163 C3189 0.950 . S
H3164 C3190 0.950 . S
H3165 C3192 0.950 1_455 S
H3166 C3195 0.950 . S
H3167 C3196 0.950 . S
H3168 C3198 0.950 . S
H3169 C3199 0.950 . S
C3170 H3152 0.951 . S
C3170 C3171 1.366 . S
C3170 C3172 1.388 . S
C3171 C3170 1.366 . S
C3171 C3175 1.385 . S
C3172 H3153 0.951 . S
C3172 C3170 1.388 . S
C3172 C3173 1.366 . S
C3173 C3172 1.366 . S
C3173 C3174 1.414 . S
C3173 C3176 1.499 . S
C3174 H3154 0.950 . S
C3174 C3173 1.414 . S
C3174 C3175 1.374 . S
C3175 H3155 0.950 . S
C3175 C3171 1.385 . S
C3175 C3174 1.374 . S
C3176 C3173 1.499 . S
C3176 C3177 1.373 . S
C3176 C3178 1.389 . S
C3177 H3156 0.950 . S
C3177 C3176 1.373 . S
C3177 C3193 1.377 . S
C3178 C3176 1.389 . S
C3178 C3179 1.524 . S
C3178 C3192 1.377 . S
C3179 C3178 1.524 . S
C3179 C3180 1.397 . S
C3179 C3184 1.363 1_655 S
C3180 H3157 0.950 . S
C3180 C3179 1.397 . S
C3180 C3181 1.334 . S
C3181 H3158 0.950 . S
C3181 C3180 1.334 . S
C3181 C3182 1.287 . S
C3182 C3181 1.287 . S
C3182 C3183 1.524 1_655 S
C3182 H3201 0.913 . S
C3183 H3159 0.950 . S
C3183 C3182 1.524 1_455 S
C3183 C3184 1.415 . S
C3184 H3160 0.950 . S
C3184 C3179 1.363 1_455 S
C3184 C3183 1.415 . S
C3185 H3161 0.939 1_455 S
C3185 C3186 1.390 . S
C3185 C3187 1.376 1_455 S
C3186 C3185 1.390 . S
C3186 C3190 1.385 . S
C3187 H3162 0.951 . S
C3187 C3185 1.376 1_655 S
C3187 C3188 1.366 1_655 S
C3188 C3187 1.366 1_455 S
C3188 C3189 1.414 . S
C3188 C3191 1.499 1_455 S
C3189 H3163 0.950 . S
C3189 C3188 1.414 . S
C3189 C3190 1.374 . S
C3190 H3164 0.950 . S
C3190 C3186 1.385 . S
C3190 C3189 1.374 . S
C3191 C3188 1.499 1_655 S
C3191 C3192 1.373 . S
C3191 C3193 1.389 . S
C3192 H3165 0.950 1_655 S
C3192 C3178 1.377 . S
C3192 C3191 1.373 . S
C3193 C3177 1.377 . S
C3193 C3191 1.389 . S
C3193 C3194 1.524 . S
C3194 C3193 1.524 . S
C3194 C3195 1.397 1_655 S
C3194 C3199 1.363 1_545 S
C3195 H3166 0.950 . S
C3195 C3194 1.397 1_455 S
C3195 C3196 1.334 1_545 S
C3196 H3167 0.950 . S
C3196 C3195 1.334 1_565 S
C3196 C3197 1.287 1_455 S
C3197 C3196 1.287 1_655 S
C3197 C3198 1.524 . S
C3197 H3200 1.021 . S
C3198 H3168 0.950 . S
C3198 C3197 1.524 . S
C3198 C3199 1.415 . S
C3199 H3169 0.950 . S
C3199 C3194 1.363 1_565 S
C3199 C3198 1.415 . S
H3200 C3197 1.021 . S
H3201 C3182 0.913 . S
H3202 C3220 0.951 . S
H3203 C3222 0.951 . S
H3204 C3224 0.950 . S
H3205 C3225 0.950 . S
H3206 C3227 0.950 . S
H3207 C3230 0.950 . S
H3208 C3231 0.950 . S
H3209 C3233 0.950 . S
H3210 C3234 0.950 . S
H3211 C3235 0.951 . S
H3212 C3237 0.951 . S
H3213 C3239 0.950 . S
H3214 C3240 0.950 . S
H3215 C3242 0.950 . S
H3216 C3245 0.950 . S
H3217 C3246 0.950 . S
H3218 C3248 0.950 . S
H3219 C3249 0.950 . S
C3220 H3202 0.951 . S
C3220 C3221 1.366 . S
C3220 C3222 1.388 . S
C3221 C3220 1.366 . S
C3221 C3225 1.385 . S
C3222 H3203 0.951 . S
C3222 C3220 1.388 . S
C3222 C3223 1.366 . S
C3223 C3222 1.366 . S
C3223 C3224 1.414 . S
C3223 C3226 1.499 . S
C3224 H3204 0.950 . S
C3224 C3223 1.414 . S
C3224 C3225 1.374 . S
C3225 H3205 0.950 . S
C3225 C3221 1.385 . S
C3225 C3224 1.374 . S
C3226 C3223 1.499 . S
C3226 C3227 1.373 . S
C3226 C3228 1.389 . S
C3227 H3206 0.950 . S
C3227 C3226 1.373 . S
C3227 C3243 1.377 . S
C3228 C3226 1.389 . S
C3228 C3229 1.524 . S
C3228 C3242 1.377 . S
C3229 C3228 1.524 . S
C3229 C3230 1.397 . S
C3229 C3234 1.363 . S
C3230 H3207 0.950 . S
C3230 C3229 1.397 . S
C3230 C3231 1.334 . S
C3231 H3208 0.950 . S
C3231 C3230 1.334 . S
C3231 C3232 1.287 . S
C3232 C3231 1.287 . S
C3232 C3233 1.524 . S
C3232 H3251 0.913 . S
C3233 H3209 0.950 . S
C3233 C3232 1.524 . S
C3233 C3234 1.415 . S
C3234 H3210 0.950 . S
C3234 C3229 1.363 . S
C3234 C3233 1.415 . S
C3235 H3211 0.951 . S
C3235 C3236 1.366 . S
C3235 C3237 1.388 . S
C3236 C3235 1.366 . S
C3236 C3240 1.385 . S
C3237 H3212 0.951 . S
C3237 C3235 1.388 . S
C3237 C3238 1.366 . S
C3238 C3237 1.366 . S
C3238 C3239 1.414 . S
C3238 C3241 1.499 . S
C3239 H3213 0.950 . S
C3239 C3238 1.414 . S
C3239 C3240 1.374 . S
C3240 H3214 0.950 . S
C3240 C3236 1.385 . S
C3240 C3239 1.374 . S
C3241 C3238 1.499 . S
C3241 C3242 1.373 . S
C3241 C3243 1.389 . S
C3242 H3215 0.950 . S
C3242 C3228 1.377 . S
C3242 C3241 1.373 . S
C3243 C3227 1.377 . S
C3243 C3241 1.389 . S
C3243 C3244 1.524 . S
C3244 C3243 1.524 . S
C3244 C3245 1.397 . S
C3244 C3249 1.363 . S
C3245 H3216 0.950 . S
C3245 C3244 1.397 . S
C3245 C3246 1.334 . S
C3246 H3217 0.950 . S
C3246 C3245 1.334 . S
C3246 C3247 1.287 . S
C3247 C3246 1.287 . S
C3247 C3248 1.524 . S
C3247 H3250 0.999 . S
C3248 H3218 0.950 . S
C3248 C3247 1.524 . S
C3248 C3249 1.415 . S
C3249 H3219 0.950 . S
C3249 C3244 1.363 . S
C3249 C3248 1.415 . S
H3250 C3247 0.999 . S
H3251 C3232 0.913 . S
H3252 C3270 0.951 . S
H3253 C3272 0.951 . S
H3254 C3274 0.950 . S
H3255 C3275 0.950 . S
H3256 C3277 0.950 . S
H3257 C3280 0.950 1_545 S
H3258 C3281 0.950 . S
H3259 C3283 0.950 . S
H3260 C3284 0.950 . S
H3261 C3285 0.951 . S
H3262 C3287 0.951 . S
H3263 C3289 0.950 . S
H3264 C3290 0.950 . S
H3265 C3292 0.950 . S
H3266 C3295 0.950 . S
H3267 C3296 0.950 . S
H3268 C3298 0.950 . S
H3269 C3299 0.950 . S
C3270 H3252 0.951 . S
C3270 C3271 1.366 . S
C3270 C3272 1.388 . S
C3271 C3270 1.366 . S
C3271 C3275 1.385 . S
C3272 H3253 0.951 . S
C3272 C3270 1.388 . S
C3272 C3273 1.366 . S
C3273 C3272 1.366 . S
C3273 C3274 1.414 . S
C3273 C3276 1.499 . S
C3274 H3254 0.950 . S
C3274 C3273 1.414 . S
C3274 C3275 1.374 . S
C3275 H3255 0.950 . S
C3275 C3271 1.385 . S
C3275 C3274 1.374 . S
C3276 C3273 1.499 . S
C3276 C3277 1.373 . S
C3276 C3278 1.389 . S
C3277 H3256 0.950 . S
C3277 C3276 1.373 . S
C3277 C3293 1.377 . S
C3278 C3276 1.389 . S
C3278 C3279 1.524 1_545 S
C3278 C3292 1.377 . S
C3279 C3278 1.524 1_565 S
C3279 C3280 1.397 . S
C3279 C3284 1.363 . S
C3280 H3257 0.950 1_565 S
C3280 C3279 1.397 . S
C3280 C3281 1.334 . S
C3281 H3258 0.950 . S
C3281 C3280 1.334 . S
C3281 C3282 1.287 . S
C3282 C3281 1.287 . S
C3282 C3283 1.524 . S
C3282 H3301 0.913 . S
C3283 H3259 0.950 . S
C3283 C3282 1.524 . S
C3283 C3284 1.415 . S
C3284 H3260 0.950 . S
C3284 C3279 1.363 . S
C3284 C3283 1.415 . S
C3285 H3261 0.951 . S
C3285 C3286 1.366 . S
C3285 C3287 1.388 . S
C3286 C3285 1.366 . S
C3286 C3290 1.385 . S
C3287 H3262 0.951 . S
C3287 C3285 1.388 . S
C3287 C3288 1.366 . S
C3288 C3287 1.366 . S
C3288 C3289 1.414 . S
C3288 C3291 1.499 . S
C3289 H3263 0.950 . S
C3289 C3288 1.414 . S
C3289 C3290 1.374 . S
C3290 H3264 0.950 . S
C3290 C3286 1.385 . S
C3290 C3289 1.374 . S
C3291 C3288 1.499 . S
C3291 C3292 1.373 . S
C3291 C3293 1.389 . S
C3292 H3265 0.950 . S
C3292 C3278 1.377 . S
C3292 C3291 1.373 . S
C3293 C3277 1.377 . S
C3293 C3291 1.389 . S
C3293 C3294 1.524 . S
C3294 C3293 1.524 . S
C3294 C3295 1.397 . S
C3294 C3299 1.363 . S
C3295 H3266 0.950 . S
C3295 C3294 1.397 . S
C3295 C3296 1.334 . S
C3296 H3267 0.950 . S
C3296 C3295 1.334 . S
C3296 C3297 1.287 . S
C3297 C3296 1.287 . S
C3297 C3298 1.524 . S
C3297 H3300 0.999 . S
C3298 H3268 0.950 . S
C3298 C3297 1.524 . S
C3298 C3299 1.415 . S
C3299 H3269 0.950 . S
C3299 C3294 1.363 . S
C3299 C3298 1.415 . S
H3300 C3297 0.999 . S
H3301 C3282 0.913 . S
H3302 C3320 0.951 . S
H3303 C3322 0.951 . S
H3304 C3324 0.950 . S
H3305 C3325 0.950 . S
H3306 C3327 0.950 . S
H3307 C3330 0.950 . S
H3308 C3331 0.950 . S
H3309 C3333 0.950 . S
H3310 C3334 0.950 . S
H3311 C3335 0.951 . S
H3312 C3337 0.951 . S
H3313 C3339 0.950 . S
H3314 C3340 0.950 . S
H3315 C3342 0.950 . S
H3316 C3345 0.950 . S
H3317 C3346 0.950 . S
H3318 C3348 0.950 . S
H3319 C3349 0.950 . S
C3320 H3302 0.951 . S
C3320 C3321 1.366 . S
C3320 C3322 1.388 . S
C3321 C3320 1.366 . S
C3321 C3325 1.385 . S
C3322 H3303 0.951 . S
C3322 C3320 1.388 . S
C3322 C3323 1.366 . S
C3323 C3322 1.366 . S
C3323 C3324 1.414 . S
C3323 C3326 1.499 . S
C3324 H3304 0.950 . S
C3324 C3323 1.414 . S
C3324 C3325 1.374 . S
C3325 H3305 0.950 . S
C3325 C3321 1.385 . S
C3325 C3324 1.374 . S
C3326 C3323 1.499 . S
C3326 C3327 1.373 . S
C3326 C3328 1.389 . S
C3327 H3306 0.950 . S
C3327 C3326 1.373 . S
C3327 C3343 1.377 . S
C3328 C3326 1.389 . S
C3328 C3329 1.524 . S
C3328 C3342 1.377 . S
C3329 C3328 1.524 . S
C3329 C3330 1.397 . S
C3329 C3334 1.363 . S
C3330 H3307 0.950 . S
C3330 C3329 1.397 . S
C3330 C3331 1.334 . S
C3331 H3308 0.950 . S
C3331 C3330 1.334 . S
C3331 C3332 1.287 . S
C3332 C3331 1.287 . S
C3332 C3333 1.524 . S
C3332 H3351 0.913 . S
C3333 H3309 0.950 . S
C3333 C3332 1.524 . S
C3333 C3334 1.415 . S
C3334 H3310 0.950 . S
C3334 C3329 1.363 . S
C3334 C3333 1.415 . S
C3335 H3311 0.951 . S
C3335 C3336 1.366 . S
C3335 C3337 1.388 . S
C3336 C3335 1.366 . S
C3336 C3340 1.385 . S
C3337 H3312 0.951 . S
C3337 C3335 1.388 . S
C3337 C3338 1.366 . S
C3338 C3337 1.366 . S
C3338 C3339 1.414 . S
C3338 C3341 1.499 . S
C3339 H3313 0.950 . S
C3339 C3338 1.414 . S
C3339 C3340 1.374 . S
C3340 H3314 0.950 . S
C3340 C3336 1.385 . S
C3340 C3339 1.374 . S
C3341 C3338 1.499 . S
C3341 C3342 1.373 . S
C3341 C3343 1.389 . S
C3342 H3315 0.950 . S
C3342 C3328 1.377 . S
C3342 C3341 1.373 . S
C3343 C3327 1.377 . S
C3343 C3341 1.389 . S
C3343 C3344 1.524 . S
C3344 C3343 1.524 . S
C3344 C3345 1.397 . S
C3344 C3349 1.363 . S
C3345 H3316 0.950 . S
C3345 C3344 1.397 . S
C3345 C3346 1.334 . S
C3346 H3317 0.950 . S
C3346 C3345 1.334 . S
C3346 C3347 1.287 . S
C3347 C3346 1.287 . S
C3347 C3348 1.524 . S
C3347 H3350 0.999 . S
C3348 H3318 0.950 . S
C3348 C3347 1.524 . S
C3348 C3349 1.415 . S
C3349 H3319 0.950 . S
C3349 C3344 1.363 . S
C3349 C3348 1.415 . S
H3350 C3347 0.999 . S
H3351 C3332 0.913 . S
H3352 C3370 0.951 . S
H3353 C3372 0.951 . S
H3354 C3374 0.950 . S
H3355 C3375 0.950 . S
H3356 C3377 0.950 . S
H3357 C3380 0.950 . S
H3358 C3381 0.950 . S
H3359 C3383 0.950 . S
H3360 C3384 0.950 . S
H3361 C3385 0.951 . S
H3362 C3387 0.924 1_655 S
H3363 C3389 0.950 . S
H3364 C3390 0.950 . S
H3365 C3392 0.950 . S
H3366 C3395 0.950 . S
H3367 C3396 0.950 . S
H3368 C3398 0.950 . S
H3369 C3399 0.950 1_655 S
C3370 H3352 0.951 . S
C3370 C3371 1.366 . S
C3370 C3372 1.388 . S
C3371 C3370 1.366 . S
C3371 C3375 1.385 . S
C3372 H3353 0.951 . S
C3372 C3370 1.388 . S
C3372 C3373 1.366 . S
C3373 C3372 1.366 . S
C3373 C3374 1.414 . S
C3373 C3376 1.499 . S
C3374 H3354 0.950 . S
C3374 C3373 1.414 . S
C3374 C3375 1.374 . S
C3375 H3355 0.950 . S
C3375 C3371 1.385 . S
C3375 C3374 1.374 . S
C3376 C3373 1.499 . S
C3376 C3377 1.373 . S
C3376 C3378 1.389 . S
C3377 H3356 0.950 . S
C3377 C3376 1.373 . S
C3377 C3393 1.368 1_655 S
C3378 C3376 1.389 . S
C3378 C3379 1.524 . S
C3378 C3392 1.377 . S
C3379 C3378 1.524 . S
C3379 C3380 1.397 . S
C3379 C3384 1.363 . S
C3380 H3357 0.950 . S
C3380 C3379 1.397 . S
C3380 C3381 1.334 . S
C3381 H3358 0.950 . S
C3381 C3380 1.334 . S
C3381 C3382 1.287 1_545 S
C3382 C3381 1.287 1_565 S
C3382 C3383 1.524 . S
C3382 H3401 0.913 . S
C3383 H3359 0.950 . S
C3383 C3382 1.524 . S
C3383 C3384 1.415 1_565 S
C3384 H3360 0.950 . S
C3384 C3379 1.363 . S
C3384 C3383 1.415 1_545 S
C3385 H3361 0.951 . S
C3385 C3386 1.366 . S
C3385 C3387 1.400 . S
C3386 C3385 1.366 . S
C3386 C3390 1.385 . S
C3387 H3362 0.924 1_455 S
C3387 C3385 1.400 . S
C3387 C3388 1.381 . S
C3388 C3387 1.381 . S
C3388 C3389 1.414 . S
C3388 C3391 1.499 1_455 S
C3389 H3363 0.950 . S
C3389 C3388 1.414 . S
C3389 C3390 1.374 . S
C3390 H3364 0.950 . S
C3390 C3386 1.385 . S
C3390 C3389 1.374 . S
C3391 C3388 1.499 1_655 S
C3391 C3392 1.373 . S
C3391 C3393 1.391 1_655 S
C3392 H3365 0.950 . S
C3392 C3378 1.377 . S
C3392 C3391 1.373 . S
C3393 C3377 1.368 1_455 S
C3393 C3391 1.391 1_455 S
C3393 C3394 1.533 . S
C3394 C3393 1.533 . S
C3394 C3395 1.397 . S
C3394 C3399 1.363 . S
C3395 H3366 0.950 . S
C3395 C3394 1.397 . S
C3395 C3396 1.334 . S
C3396 H3367 0.950 . S
C3396 C3395 1.334 . S
C3396 C3397 1.287 . S
C3397 C3396 1.287 . S
C3397 C3398 1.524 . S
C3397 H3400 0.999 . S
C3398 H3368 0.950 . S
C3398 C3397 1.524 . S
C3398 C3399 1.415 . S
C3399 H3369 0.950 1_455 S
C3399 C3394 1.363 . S
C3399 C3398 1.415 . S
H3400 C3397 0.999 . S
H3401 C3382 0.913 . S
H3402 C3420 0.951 . S
H3403 C3422 0.951 . S
H3404 C3424 0.950 . S
H3405 C3425 0.950 . S
H3406 C3427 0.950 . S
H3407 C3430 0.950 . S
H3408 C3431 0.950 . S
H3409 C3433 0.950 . S
H3410 C3434 0.950 . S
H3411 C3435 0.951 . S
H3412 C3437 0.951 . S
H3413 C3439 0.950 . S
H3414 C3440 0.950 . S
H3415 C3442 0.950 . S
H3416 C3445 0.950 . S
H3417 C3446 0.950 . S
H3418 C3448 0.950 . S
H3419 C3449 0.950 . S
C3420 H3402 0.951 . S
C3420 C3421 1.366 . S
C3420 C3422 1.388 . S
C3421 C3420 1.366 . S
C3421 C3425 1.385 . S
C3422 H3403 0.951 . S
C3422 C3420 1.388 . S
C3422 C3423 1.366 . S
C3423 C3422 1.366 . S
C3423 C3424 1.414 . S
C3423 C3426 1.499 . S
C3424 H3404 0.950 . S
C3424 C3423 1.414 . S
C3424 C3425 1.374 . S
C3425 H3405 0.950 . S
C3425 C3421 1.385 . S
C3425 C3424 1.374 . S
C3426 C3423 1.499 . S
C3426 C3427 1.373 . S
C3426 C3428 1.389 . S
C3427 H3406 0.950 . S
C3427 C3426 1.373 . S
C3427 C3443 1.377 . S
C3428 C3426 1.389 . S
C3428 C3429 1.524 . S
C3428 C3442 1.377 . S
C3429 C3428 1.524 . S
C3429 C3430 1.397 . S
C3429 C3434 1.363 . S
C3430 H3407 0.950 . S
C3430 C3429 1.397 . S
C3430 C3431 1.334 . S
C3431 H3408 0.950 . S
C3431 C3430 1.334 . S
C3431 C3432 1.287 . S
C3432 C3431 1.287 . S
C3432 C3433 1.524 . S
C3432 H3451 0.913 . S
C3433 H3409 0.950 . S
C3433 C3432 1.524 . S
C3433 C3434 1.415 . S
C3434 H3410 0.950 . S
C3434 C3429 1.363 . S
C3434 C3433 1.415 . S
C3435 H3411 0.951 . S
C3435 C3436 1.366 . S
C3435 C3437 1.388 . S
C3436 C3435 1.366 . S
C3436 C3440 1.385 . S
C3437 H3412 0.951 . S
C3437 C3435 1.388 . S
C3437 C3438 1.366 . S
C3438 C3437 1.366 . S
C3438 C3439 1.414 . S
C3438 C3441 1.499 . S
C3439 H3413 0.950 . S
C3439 C3438 1.414 . S
C3439 C3440 1.374 . S
C3440 H3414 0.950 . S
C3440 C3436 1.385 . S
C3440 C3439 1.374 . S
C3441 C3438 1.499 . S
C3441 C3442 1.373 . S
C3441 C3443 1.389 . S
C3442 H3415 0.950 . S
C3442 C3428 1.377 . S
C3442 C3441 1.373 . S
C3443 C3427 1.377 . S
C3443 C3441 1.389 . S
C3443 C3444 1.524 . S
C3444 C3443 1.524 . S
C3444 C3445 1.397 . S
C3444 C3449 1.363 . S
C3445 H3416 0.950 . S
C3445 C3444 1.397 . S
C3445 C3446 1.334 . S
C3446 H3417 0.950 . S
C3446 C3445 1.334 . S
C3446 C3447 1.287 . S
C3447 C3446 1.287 . S
C3447 C3448 1.524 . S
C3447 H3450 0.999 . S
C3448 H3418 0.950 . S
C3448 C3447 1.524 . S
C3448 C3449 1.415 . S
C3449 H3419 0.950 . S
C3449 C3444 1.363 . S
C3449 C3448 1.415 . S
H3450 C3447 0.999 . S
H3451 C3432 0.913 . S
H3452 C3470 0.951 . S
H3453 C3472 0.951 . S
H3454 C3474 0.950 . S
H3455 C3475 0.950 . S
H3456 C3477 0.950 . S
H3457 C3480 0.950 . S
H3458 C3481 0.950 . S
H3459 C3483 0.950 . S
H3460 C3484 0.950 . S
H3461 C3485 0.951 . S
H3462 C3487 0.951 . S
H3463 C3489 0.950 . S
H3464 C3490 0.950 . S
H3465 C3492 0.950 . S
H3466 C3495 0.950 . S
H3467 C3496 0.950 . S
H3468 C3498 0.950 1_565 S
H3469 C3499 0.950 . S
C3470 H3452 0.951 . S
C3470 C3471 1.366 . S
C3470 C3472 1.388 . S
C3471 C3470 1.366 . S
C3471 C3475 1.385 . S
C3472 H3453 0.951 . S
C3472 C3470 1.388 . S
C3472 C3473 1.366 . S
C3473 C3472 1.366 . S
C3473 C3474 1.414 . S
C3473 C3476 1.499 . S
C3474 H3454 0.950 . S
C3474 C3473 1.414 . S
C3474 C3475 1.374 . S
C3475 H3455 0.950 . S
C3475 C3471 1.385 . S
C3475 C3474 1.374 . S
C3476 C3473 1.499 . S
C3476 C3477 1.373 . S
C3476 C3478 1.389 . S
C3477 H3456 0.950 . S
C3477 C3476 1.373 . S
C3477 C3493 1.377 . S
C3478 C3476 1.389 . S
C3478 C3479 1.524 . S
C3478 C3492 1.377 . S
C3479 C3478 1.524 . S
C3479 C3480 1.397 . S
C3479 C3484 1.363 . S
C3480 H3457 0.950 . S
C3480 C3479 1.397 . S
C3480 C3481 1.334 . S
C3481 H3458 0.950 . S
C3481 C3480 1.334 . S
C3481 C3482 1.287 . S
C3482 C3481 1.287 . S
C3482 C3483 1.524 . S
C3482 H3501 0.913 . S
C3483 H3459 0.950 . S
C3483 C3482 1.524 . S
C3483 C3484 1.415 . S
C3484 H3460 0.950 . S
C3484 C3479 1.363 . S
C3484 C3483 1.415 . S
C3485 H3461 0.951 . S
C3485 C3486 1.366 . S
C3485 C3487 1.388 . S
C3486 C3485 1.366 . S
C3486 C3490 1.385 . S
C3487 H3462 0.951 . S
C3487 C3485 1.388 . S
C3487 C3488 1.366 . S
C3488 C3487 1.366 . S
C3488 C3489 1.414 . S
C3488 C3491 1.499 . S
C3489 H3463 0.950 . S
C3489 C3488 1.414 . S
C3489 C3490 1.374 . S
C3490 H3464 0.950 . S
C3490 C3486 1.385 . S
C3490 C3489 1.374 . S
C3491 C3488 1.499 . S
C3491 C3492 1.373 . S
C3491 C3493 1.389 . S
C3492 H3465 0.950 . S
C3492 C3478 1.377 . S
C3492 C3491 1.373 . S
C3493 C3477 1.377 . S
C3493 C3491 1.389 . S
C3493 C3494 1.524 . S
C3494 C3493 1.524 . S
C3494 C3495 1.397 . S
C3494 C3499 1.363 . S
C3495 H3466 0.950 . S
C3495 C3494 1.397 . S
C3495 C3496 1.334 . S
C3496 H3467 0.950 . S
C3496 C3495 1.334 . S
C3496 C3497 1.287 . S
C3497 C3496 1.287 . S
C3497 C3498 1.524 . S
C3497 H3500 0.999 . S
C3498 H3468 0.950 1_545 S
C3498 C3497 1.524 . S
C3498 C3499 1.415 . S
C3499 H3469 0.950 . S
C3499 C3494 1.363 . S
C3499 C3498 1.415 . S
H3500 C3497 0.999 . S
H3501 C3482 0.913 . S
H3502 C3520 0.951 . S
H3503 C3522 0.951 . S
H3504 C3524 0.950 . S
H3505 C3525 0.950 . S
H3506 C3527 0.950 . S
H3507 C3530 0.950 . S
H3508 C3531 0.950 . S
H3509 C3533 0.950 . S
H3510 C3534 0.950 . S
H3511 C3535 0.951 . S
H3512 C3537 0.951 . S
H3513 C3539 0.950 . S
H3514 C3540 0.950 . S
H3515 C3542 0.950 . S
H3516 C3545 0.950 . S
H3517 C3546 0.950 . S
H3518 C3548 0.950 . S
H3519 C3549 0.950 . S
C3520 H3502 0.951 . S
C3520 C3521 1.366 . S
C3520 C3522 1.388 . S
C3521 C3520 1.366 . S
C3521 C3525 1.385 . S
C3522 H3503 0.951 . S
C3522 C3520 1.388 . S
C3522 C3523 1.366 . S
C3523 C3522 1.366 . S
C3523 C3524 1.414 . S
C3523 C3526 1.499 . S
C3524 H3504 0.950 . S
C3524 C3523 1.414 . S
C3524 C3525 1.374 . S
C3525 H3505 0.950 . S
C3525 C3521 1.385 . S
C3525 C3524 1.374 . S
C3526 C3523 1.499 . S
C3526 C3527 1.373 . S
C3526 C3528 1.389 . S
C3527 H3506 0.950 . S
C3527 C3526 1.373 . S
C3527 C3543 1.377 . S
C3528 C3526 1.389 . S
C3528 C3529 1.524 . S
C3528 C3542 1.377 . S
C3529 C3528 1.524 . S
C3529 C3530 1.397 . S
C3529 C3534 1.363 . S
C3530 H3507 0.950 . S
C3530 C3529 1.397 . S
C3530 C3531 1.334 . S
C3531 H3508 0.950 . S
C3531 C3530 1.334 . S
C3531 C3532 1.287 . S
C3532 C3531 1.287 . S
C3532 C3533 1.524 . S
C3532 H3551 0.913 . S
C3533 H3509 0.950 . S
C3533 C3532 1.524 . S
C3533 C3534 1.415 . S
C3534 H3510 0.950 . S
C3534 C3529 1.363 . S
C3534 C3533 1.415 . S
C3535 H3511 0.951 . S
C3535 C3536 1.366 . S
C3535 C3537 1.388 . S
C3536 C3535 1.366 . S
C3536 C3540 1.385 . S
C3537 H3512 0.951 . S
C3537 C3535 1.388 . S
C3537 C3538 1.366 . S
C3538 C3537 1.366 . S
C3538 C3539 1.414 . S
C3538 C3541 1.499 . S
C3539 H3513 0.950 . S
C3539 C3538 1.414 . S
C3539 C3540 1.374 . S
C3540 H3514 0.950 . S
C3540 C3536 1.385 . S
C3540 C3539 1.374 . S
C3541 C3538 1.499 . S
C3541 C3542 1.373 . S
C3541 C3543 1.389 . S
C3542 H3515 0.950 . S
C3542 C3528 1.377 . S
C3542 C3541 1.373 . S
C3543 C3527 1.377 . S
C3543 C3541 1.389 . S
C3543 C3544 1.524 . S
C3544 C3543 1.524 . S
C3544 C3545 1.397 . S
C3544 C3549 1.363 . S
C3545 H3516 0.950 . S
C3545 C3544 1.397 . S
C3545 C3546 1.334 . S
C3546 H3517 0.950 . S
C3546 C3545 1.334 . S
C3546 C3547 1.287 . S
C3547 C3546 1.287 . S
C3547 C3548 1.524 . S
C3547 H3550 0.999 . S
C3548 H3518 0.950 . S
C3548 C3547 1.524 . S
C3548 C3549 1.415 . S
C3549 H3519 0.950 . S
C3549 C3544 1.363 . S
C3549 C3548 1.415 . S
H3550 C3547 0.999 . S
H3551 C3532 0.913 . S
H3552 C3570 0.951 . S
H3553 C3572 0.951 . S
H3554 C3574 0.928 1_545 S
H3555 C3575 0.950 . S
H3556 C3577 0.950 . S
H3557 C3580 0.950 . S
H3558 C3581 0.950 . S
H3559 C3583 0.950 . S
H3560 C3584 0.950 . S
H3561 C3585 0.951 . S
H3562 C3587 0.951 . S
H3563 C3589 0.950 . S
H3564 C3590 0.950 . S
H3565 C3592 0.950 1_556 S
H3566 C3595 0.950 1_565 S
H3567 C3596 0.950 . S
H3568 C3598 0.950 . S
H3569 C3599 0.950 . S
C3570 H3552 0.951 . S
C3570 C3571 1.366 . S
C3570 C3572 1.388 . S
C3571 C3570 1.366 . S
C3571 C3575 1.385 . S
C3572 H3553 0.951 . S
C3572 C3570 1.388 . S
C3572 C3573 1.366 . S
C3573 C3572 1.366 . S
C3573 C3574 1.414 . S
C3573 C3576 1.499 . S
C3574 H3554 0.928 1_565 S
C3574 C3573 1.414 . S
C3574 C3575 1.374 . S
C3575 H3555 0.950 . S
C3575 C3571 1.385 . S
C3575 C3574 1.374 . S
C3576 C3573 1.499 . S
C3576 C3577 1.373 . S
C3576 C3578 1.389 . S
C3577 H3556 0.950 . S
C3577 C3576 1.373 . S
C3577 C3593 1.377 . S
C3578 C3576 1.389 . S
C3578 C3579 1.524 1_554 S
C3578 C3592 1.377 . S
C3579 C3578 1.524 1_556 S
C3579 C3580 1.397 . S
C3579 C3584 1.363 . S
C3580 H3557 0.950 . S
C3580 C3579 1.397 . S
C3580 C3581 1.334 . S
C3581 H3558 0.950 . S
C3581 C3580 1.334 . S
C3581 C3582 1.287 . S
C3582 C3581 1.287 . S
C3582 C3583 1.524 . S
C3582 H3601 0.913 . S
C3583 H3559 0.950 . S
C3583 C3582 1.524 . S
C3583 C3584 1.415 . S
C3584 H3560 0.950 . S
C3584 C3579 1.363 . S
C3584 C3583 1.415 . S
C3585 H3561 0.951 . S
C3585 C3586 1.366 . S
C3585 C3587 1.388 . S
C3586 C3585 1.366 . S
C3586 C3590 1.385 1_545 S
C3587 H3562 0.951 . S
C3587 C3585 1.388 . S
C3587 C3588 1.366 1_545 S
C3588 C3587 1.366 1_565 S
C3588 C3589 1.414 . S
C3588 C3591 1.499 . S
C3589 H3563 0.950 . S
C3589 C3588 1.414 . S
C3589 C3590 1.374 . S
C3590 H3564 0.950 . S
C3590 C3586 1.385 1_565 S
C3590 C3589 1.374 . S
C3591 C3588 1.499 . S
C3591 C3592 1.373 . S
C3591 C3593 1.389 . S
C3592 H3565 0.950 1_554 S
C3592 C3578 1.377 . S
C3592 C3591 1.373 . S
C3593 C3577 1.377 . S
C3593 C3591 1.389 . S
C3593 C3594 1.524 1_565 S
C3594 C3593 1.524 1_545 S
C3594 C3595 1.397 . S
C3594 C3599 1.363 . S
C3595 H3566 0.950 1_545 S
C3595 C3594 1.397 . S
C3595 C3596 1.334 . S
C3596 H3567 0.950 . S
C3596 C3595 1.334 . S
C3596 C3597 1.287 . S
C3597 C3596 1.287 . S
C3597 C3598 1.524 . S
C3597 H3600 0.999 . S
C3598 H3568 0.950 . S
C3598 C3597 1.524 . S
C3598 C3599 1.415 . S
C3599 H3569 0.950 . S
C3599 C3594 1.363 . S
C3599 C3598 1.415 . S
H3600 C3597 0.999 . S
H3601 C3582 0.913 . S
H3602 C3620 0.951 . S
H3603 C3622 0.951 . S
H3604 C3624 0.950 . S
H3605 C3625 0.950 . S
H3606 C3627 0.950 . S
H3607 C3630 0.950 . S
H3608 C3631 0.950 . S
H3609 C3633 0.950 . S
H3610 C3634 0.950 . S
H3611 C3635 0.951 . S
H3612 C3637 0.951 . S
H3613 C3639 0.967 . S
H3614 C3640 0.951 1_556 S
H3615 C3642 0.950 . S
H3616 C3645 0.950 . S
H3617 C3646 0.950 . S
H3618 C3648 0.950 . S
H3619 C3649 0.950 . S
C3620 H3602 0.951 . S
C3620 C3621 1.366 . S
C3620 C3622 1.388 . S
C3621 C3620 1.366 . S
C3621 C3625 1.385 1_556 S
C3622 H3603 0.951 . S
C3622 C3620 1.388 . S
C3622 C3623 1.366 . S
C3623 C3622 1.366 . S
C3623 C3624 1.414 1_556 S
C3623 C3626 1.498 . S
C3624 H3604 0.950 . S
C3624 C3623 1.414 1_554 S
C3624 C3625 1.374 . S
C3625 H3605 0.950 . S
C3625 C3621 1.385 1_554 S
C3625 C3624 1.374 . S
C3626 C3623 1.498 . S
C3626 C3627 1.376 1_556 S
C3626 C3628 1.387 . S
C3627 H3606 0.950 . S
C3627 C3626 1.376 1_554 S
C3627 C3643 1.377 . S
C3628 C3626 1.387 . S
C3628 C3629 1.524 . S
C3628 C3642 1.377 . S
C3629 C3628 1.524 . S
C3629 C3630 1.397 . S
C3629 C3634 1.363 . S
C3630 H3607 0.950 . S
C3630 C3629 1.397 . S
C3630 C3631 1.334 . S
C3631 H3608 0.950 . S
C3631 C3630 1.334 . S
C3631 C3632 1.287 . S
C3632 C3631 1.287 . S
C3632 C3633 1.524 . S
C3632 H3651 0.913 . S
C3633 H3609 0.950 . S
C3633 C3632 1.524 . S
C3633 C3634 1.415 . S
C3634 H3610 0.950 . S
C3634 C3629 1.363 . S
C3634 C3633 1.415 . S
C3635 H3611 0.951 . S
C3635 C3636 1.366 . S
C3635 C3637 1.388 . S
C3636 C3635 1.366 . S
C3636 C3640 1.382 . S
C3637 H3612 0.951 . S
C3637 C3635 1.388 . S
C3637 C3638 1.366 . S
C3638 C3637 1.366 . S
C3638 C3639 1.409 1_554 S
C3638 C3641 1.499 . S
C3639 H3613 0.967 . S
C3639 C3638 1.409 1_556 S
C3639 C3640 1.366 1_556 S
C3640 H3614 0.951 1_554 S
C3640 C3636 1.382 . S
C3640 C3639 1.366 1_554 S
C3641 C3638 1.499 . S
C3641 C3642 1.373 1_554 S
C3641 C3643 1.389 . S
C3642 H3615 0.950 . S
C3642 C3628 1.377 . S
C3642 C3641 1.373 1_556 S
C3643 C3627 1.377 . S
C3643 C3641 1.389 . S
C3643 C3644 1.524 . S
C3644 C3643 1.524 . S
C3644 C3645 1.397 . S
C3644 C3649 1.363 . S
C3645 H3616 0.950 . S
C3645 C3644 1.397 . S
C3645 C3646 1.334 . S
C3646 H3617 0.950 . S
C3646 C3645 1.334 . S
C3646 C3647 1.287 . S
C3647 C3646 1.287 . S
C3647 C3648 1.524 . S
C3647 H3650 0.999 . S
C3648 H3618 0.950 . S
C3648 C3647 1.524 . S
C3648 C3649 1.415 . S
C3649 H3619 0.950 . S
C3649 C3644 1.363 . S
C3649 C3648 1.415 . S
H3650 C3647 0.999 . S
H3651 C3632 0.913 . S
H3652 C3670 0.951 . S
H3653 C3672 0.951 . S
H3654 C3674 0.950 . S
H3655 C3675 0.950 . S
H3656 C3677 0.950 . S
H3657 C3680 0.950 . S
H3658 C3681 0.950 . S
H3659 C3683 0.950 . S
H3660 C3684 0.950 . S
H3661 C3685 0.951 . S
H3662 C3687 0.951 . S
H3663 C3689 0.950 . S
H3664 C3690 0.950 . S
H3665 C3692 0.950 . S
H3666 C3695 0.950 . S
H3667 C3696 0.950 . S
H3668 C3698 0.950 . S
H3669 C3699 0.950 . S
C3670 H3652 0.951 . S
C3670 C3671 1.366 . S
C3670 C3672 1.388 . S
C3671 C3670 1.366 . S
C3671 C3675 1.385 . S
C3672 H3653 0.951 . S
C3672 C3670 1.388 . S
C3672 C3673 1.366 . S
C3673 C3672 1.366 . S
C3673 C3674 1.414 . S
C3673 C3676 1.499 . S
C3674 H3654 0.950 . S
C3674 C3673 1.414 . S
C3674 C3675 1.374 . S
C3675 H3655 0.950 . S
C3675 C3671 1.385 . S
C3675 C3674 1.374 . S
C3676 C3673 1.499 . S
C3676 C3677 1.373 . S
C3676 C3678 1.389 . S
C3677 H3656 0.950 . S
C3677 C3676 1.373 . S
C3677 C3693 1.377 . S
C3678 C3676 1.389 . S
C3678 C3679 1.524 . S
C3678 C3692 1.377 . S
C3679 C3678 1.524 . S
C3679 C3680 1.397 . S
C3679 C3684 1.363 . S
C3680 H3657 0.950 . S
C3680 C3679 1.397 . S
C3680 C3681 1.334 . S
C3681 H3658 0.950 . S
C3681 C3680 1.334 . S
C3681 C3682 1.287 . S
C3682 C3681 1.287 . S
C3682 C3683 1.524 . S
C3682 H3701 0.913 . S
C3683 H3659 0.950 . S
C3683 C3682 1.524 . S
C3683 C3684 1.415 . S
C3684 H3660 0.950 . S
C3684 C3679 1.363 . S
C3684 C3683 1.415 . S
C3685 H3661 0.951 . S
C3685 C3686 1.366 . S
C3685 C3687 1.388 . S
C3686 C3685 1.366 . S
C3686 C3690 1.385 . S
C3687 H3662 0.951 . S
C3687 C3685 1.388 . S
C3687 C3688 1.366 . S
C3688 C3687 1.366 . S
C3688 C3689 1.414 . S
C3688 C3691 1.499 . S
C3689 H3663 0.950 . S
C3689 C3688 1.414 . S
C3689 C3690 1.374 . S
C3690 H3664 0.950 . S
C3690 C3686 1.385 . S
C3690 C3689 1.374 . S
C3691 C3688 1.499 . S
C3691 C3692 1.373 . S
C3691 C3693 1.389 . S
C3692 H3665 0.950 . S
C3692 C3678 1.377 . S
C3692 C3691 1.373 . S
C3693 C3677 1.377 . S
C3693 C3691 1.389 . S
C3693 C3694 1.524 . S
C3694 C3693 1.524 . S
C3694 C3695 1.397 . S
C3694 C3699 1.363 . S
C3695 H3666 0.950 . S
C3695 C3694 1.397 . S
C3695 C3696 1.334 . S
C3696 H3667 0.950 . S
C3696 C3695 1.334 . S
C3696 C3697 1.287 . S
C3697 C3696 1.287 . S
C3697 C3698 1.524 . S
C3697 H3700 0.999 . S
C3698 H3668 0.950 . S
C3698 C3697 1.524 . S
C3698 C3699 1.415 . S
C3699 H3669 0.950 . S
C3699 C3694 1.363 . S
C3699 C3698 1.415 . S
H3700 C3697 0.999 . S
H3701 C3682 0.913 . S
H3702 C3720 0.951 . S
H3703 C3722 0.951 . S
H3704 C3724 0.950 . S
H3705 C3725 0.950 . S
H3706 C3727 0.950 . S
H3707 C3730 0.950 . S
H3708 C3731 0.950 . S
H3709 C3733 0.950 . S
H3710 C3734 0.950 . S
H3711 C3735 0.951 . S
H3712 C3737 0.951 . S
H3713 C3739 0.950 . S
H3714 C3740 0.950 . S
H3715 C3742 0.950 . S
H3716 C3745 0.950 . S
H3717 C3746 0.950 . S
H3718 C3748 0.950 . S
H3719 C3749 0.950 . S
C3720 H3702 0.951 . S
C3720 C3721 1.366 . S
C3720 C3722 1.388 . S
C3721 C3720 1.366 . S
C3721 C3725 1.385 . S
C3722 H3703 0.951 . S
C3722 C3720 1.388 . S
C3722 C3723 1.366 . S
C3723 C3722 1.366 . S
C3723 C3724 1.414 . S
C3723 C3726 1.499 . S
C3724 H3704 0.950 . S
C3724 C3723 1.414 . S
C3724 C3725 1.374 . S
C3725 H3705 0.950 . S
C3725 C3721 1.385 . S
C3725 C3724 1.374 . S
C3726 C3723 1.499 . S
C3726 C3727 1.373 . S
C3726 C3728 1.389 . S
C3727 H3706 0.950 . S
C3727 C3726 1.373 . S
C3727 C3743 1.377 . S
C3728 C3726 1.389 . S
C3728 C3729 1.524 . S
C3728 C3742 1.377 . S
C3729 C3728 1.524 . S
C3729 C3730 1.397 . S
C3729 C3734 1.363 . S
C3730 H3707 0.950 . S
C3730 C3729 1.397 . S
C3730 C3731 1.334 . S
C3731 H3708 0.950 . S
C3731 C3730 1.334 . S
C3731 C3732 1.287 . S
C3732 C3731 1.287 . S
C3732 C3733 1.524 . S
C3732 H3751 0.913 . S
C3733 H3709 0.950 . S
C3733 C3732 1.524 . S
C3733 C3734 1.415 . S
C3734 H3710 0.950 . S
C3734 C3729 1.363 . S
C3734 C3733 1.415 . S
C3735 H3711 0.951 . S
C3735 C3736 1.366 . S
C3735 C3737 1.388 . S
C3736 C3735 1.366 . S
C3736 C3740 1.385 . S
C3737 H3712 0.951 . S
C3737 C3735 1.388 . S
C3737 C3738 1.366 . S
C3738 C3737 1.366 . S
C3738 C3739 1.414 . S
C3738 C3741 1.499 . S
C3739 H3713 0.950 . S
C3739 C3738 1.414 . S
C3739 C3740 1.374 . S
C3740 H3714 0.950 . S
C3740 C3736 1.385 . S
C3740 C3739 1.374 . S
C3741 C3738 1.499 . S
C3741 C3742 1.373 . S
C3741 C3743 1.389 . S
C3742 H3715 0.950 . S
C3742 C3728 1.377 . S
C3742 C3741 1.373 . S
C3743 C3727 1.377 . S
C3743 C3741 1.389 . S
C3743 C3744 1.524 . S
C3744 C3743 1.524 . S
C3744 C3745 1.397 . S
C3744 C3749 1.363 . S
C3745 H3716 0.950 . S
C3745 C3744 1.397 . S
C3745 C3746 1.334 . S
C3746 H3717 0.950 . S
C3746 C3745 1.334 . S
C3746 C3747 1.287 . S
C3747 C3746 1.287 . S
C3747 C3748 1.524 . S
C3747 H3750 0.999 . S
C3748 H3718 0.950 . S
C3748 C3747 1.524 . S
C3748 C3749 1.415 . S
C3749 H3719 0.950 . S
C3749 C3744 1.363 . S
C3749 C3748 1.415 . S
H3750 C3747 0.999 . S
H3751 C3732 0.913 . S
H3752 C3770 0.951 . S
H3753 C3772 0.951 . S
H3754 C3774 0.950 . S
H3755 C3775 0.950 . S
H3756 C3777 0.950 . S
H3757 C3780 0.950 . S
H3758 C3781 0.950 . S
H3759 C3783 0.950 . S
H3760 C3784 0.950 . S
H3761 C3785 0.951 . S
H3762 C3787 0.951 . S
H3763 C3789 0.950 . S
H3764 C3790 0.950 . S
H3765 C3792 0.950 . S
H3766 C3795 0.950 . S
H3767 C3796 0.950 . S
H3768 C3798 0.950 . S
H3769 C3799 0.950 . S
C3770 H3752 0.951 . S
C3770 C3771 1.366 . S
C3770 C3772 1.388 . S
C3771 C3770 1.366 . S
C3771 C3775 1.385 . S
C3772 H3753 0.951 . S
C3772 C3770 1.388 . S
C3772 C3773 1.366 . S
C3773 C3772 1.366 . S
C3773 C3774 1.414 . S
C3773 C3776 1.499 . S
C3774 H3754 0.950 . S
C3774 C3773 1.414 . S
C3774 C3775 1.374 . S
C3775 H3755 0.950 . S
C3775 C3771 1.385 . S
C3775 C3774 1.374 . S
C3776 C3773 1.499 . S
C3776 C3777 1.373 . S
C3776 C3778 1.389 . S
C3777 H3756 0.950 . S
C3777 C3776 1.373 . S
C3777 C3793 1.377 . S
C3778 C3776 1.389 . S
C3778 C3779 1.524 . S
C3778 C3792 1.377 . S
C3779 C3778 1.524 . S
C3779 C3780 1.397 . S
C3779 C3784 1.363 . S
C3780 H3757 0.950 . S
C3780 C3779 1.397 . S
C3780 C3781 1.334 . S
C3781 H3758 0.950 . S
C3781 C3780 1.334 . S
C3781 C3782 1.287 . S
C3782 C3781 1.287 . S
C3782 C3783 1.524 . S
C3782 H3801 0.913 . S
C3783 H3759 0.950 . S
C3783 C3782 1.524 . S
C3783 C3784 1.415 . S
C3784 H3760 0.950 . S
C3784 C3779 1.363 . S
C3784 C3783 1.415 . S
C3785 H3761 0.951 . S
C3785 C3786 1.366 . S
C3785 C3787 1.388 . S
C3786 C3785 1.366 . S
C3786 C3790 1.385 . S
C3787 H3762 0.951 . S
C3787 C3785 1.388 . S
C3787 C3788 1.366 . S
C3788 C3787 1.366 . S
C3788 C3789 1.414 . S
C3788 C3791 1.499 . S
C3789 H3763 0.950 . S
C3789 C3788 1.414 . S
C3789 C3790 1.374 . S
C3790 H3764 0.950 . S
C3790 C3786 1.385 . S
C3790 C3789 1.374 . S
C3791 C3788 1.499 . S
C3791 C3792 1.373 . S
C3791 C3793 1.389 . S
C3792 H3765 0.950 . S
C3792 C3778 1.377 . S
C3792 C3791 1.373 . S
C3793 C3777 1.377 . S
C3793 C3791 1.389 . S
C3793 C3794 1.524 . S
C3794 C3793 1.524 . S
C3794 C3795 1.397 . S
C3794 C3799 1.363 . S
C3795 H3766 0.950 . S
C3795 C3794 1.397 . S
C3795 C3796 1.334 . S
C3796 H3767 0.950 . S
C3796 C3795 1.334 . S
C3796 C3797 1.287 . S
C3797 C3796 1.287 . S
C3797 C3798 1.524 . S
C3797 H3800 0.999 . S
C3798 H3768 0.950 . S
C3798 C3797 1.524 . S
C3798 C3799 1.415 . S
C3799 H3769 0.950 . S
C3799 C3794 1.363 . S
C3799 C3798 1.415 . S
H3800 C3797 0.999 . S
H3801 C3782 0.913 . S
H3802 C3820 0.951 . S
H3803 C3822 0.951 . S
H3804 C3824 0.950 . S
H3805 C3825 0.950 . S
H3806 C3827 0.950 . S
H3807 C3830 0.950 . S
H3808 C3831 0.950 . S
H3809 C3833 0.950 . S
H3810 C3834 0.950 . S
H3811 C3835 0.951 . S
H3812 C3837 0.951 . S
H3813 C3839 0.950 . S
H3814 C3840 0.950 . S
H3815 C3842 0.950 . S
H3816 C3845 0.950 . S
H3817 C3846 0.950 . S
H3818 C3848 0.950 . S
H3819 C3849 0.950 . S
C3820 H3802 0.951 . S
C3820 C3821 1.366 . S
C3820 C3822 1.388 . S
C3821 C3820 1.366 . S
C3821 C3825 1.385 . S
C3822 H3803 0.951 . S
C3822 C3820 1.388 . S
C3822 C3823 1.366 . S
C3823 C3822 1.366 . S
C3823 C3824 1.414 . S
C3823 C3826 1.499 . S
C3824 H3804 0.950 . S
C3824 C3823 1.414 . S
C3824 C3825 1.374 . S
C3825 H3805 0.950 . S
C3825 C3821 1.385 . S
C3825 C3824 1.374 . S
C3826 C3823 1.499 . S
C3826 C3827 1.373 . S
C3826 C3828 1.389 . S
C3827 H3806 0.950 . S
C3827 C3826 1.373 . S
C3827 C3843 1.377 . S
C3828 C3826 1.389 . S
C3828 C3829 1.524 . S
C3828 C3842 1.377 . S
C3829 C3828 1.524 . S
C3829 C3830 1.397 . S
C3829 C3834 1.363 . S
C3830 H3807 0.950 . S
C3830 C3829 1.397 . S
C3830 C3831 1.334 . S
C3831 H3808 0.950 . S
C3831 C3830 1.334 . S
C3831 C3832 1.287 . S
C3832 C3831 1.287 . S
C3832 C3833 1.524 . S
C3832 H3851 0.913 . S
C3833 H3809 0.950 . S
C3833 C3832 1.524 . S
C3833 C3834 1.415 . S
C3834 H3810 0.950 . S
C3834 C3829 1.363 . S
C3834 C3833 1.415 . S
C3835 H3811 0.951 . S
C3835 C3836 1.366 . S
C3835 C3837 1.388 . S
C3836 C3835 1.366 . S
C3836 C3840 1.385 . S
C3837 H3812 0.951 . S
C3837 C3835 1.388 . S
C3837 C3838 1.366 . S
C3838 C3837 1.366 . S
C3838 C3839 1.414 . S
C3838 C3841 1.499 . S
C3839 H3813 0.950 . S
C3839 C3838 1.414 . S
C3839 C3840 1.374 . S
C3840 H3814 0.950 . S
C3840 C3836 1.385 . S
C3840 C3839 1.374 . S
C3841 C3838 1.499 . S
C3841 C3842 1.373 . S
C3841 C3843 1.389 . S
C3842 H3815 0.950 . S
C3842 C3828 1.377 . S
C3842 C3841 1.373 . S
C3843 C3827 1.377 . S
C3843 C3841 1.389 . S
C3843 C3844 1.524 . S
C3844 C3843 1.524 . S
C3844 C3845 1.397 . S
C3844 C3849 1.363 . S
C3845 H3816 0.950 . S
C3845 C3844 1.397 . S
C3845 C3846 1.334 . S
C3846 H3817 0.950 . S
C3846 C3845 1.334 . S
C3846 C3847 1.287 . S
C3847 C3846 1.287 . S
C3847 C3848 1.524 . S
C3847 H3850 0.999 . S
C3848 H3818 0.950 . S
C3848 C3847 1.524 . S
C3848 C3849 1.415 . S
C3849 H3819 0.950 . S
C3849 C3844 1.363 . S
C3849 C3848 1.415 . S
H3850 C3847 0.999 . S
H3851 C3832 0.913 . S
H3852 C3870 0.951 . S
H3853 C3872 0.951 . S
H3854 C3874 0.950 . S
H3855 C3875 0.950 . S
H3856 C3877 0.950 . S
H3857 C3880 0.950 . S
H3858 C3881 0.950 . S
H3859 C3883 0.950 . S
H3860 C3884 0.950 . S
H3861 C3885 0.951 . S
H3862 C3887 0.951 . S
H3863 C3889 0.950 . S
H3864 C3890 0.950 . S
H3865 C3892 0.950 . S
H3866 C3895 0.950 . S
H3867 C3896 0.950 . S
H3868 C3898 0.950 . S
H3869 C3899 0.950 . S
C3870 H3852 0.951 . S
C3870 C3871 1.366 . S
C3870 C3872 1.388 . S
C3871 C3870 1.366 . S
C3871 C3875 1.385 . S
C3872 H3853 0.951 . S
C3872 C3870 1.388 . S
C3872 C3873 1.366 . S
C3873 C3872 1.366 . S
C3873 C3874 1.414 . S
C3873 C3876 1.499 . S
C3874 H3854 0.950 . S
C3874 C3873 1.414 . S
C3874 C3875 1.374 . S
C3875 H3855 0.950 . S
C3875 C3871 1.385 . S
C3875 C3874 1.374 . S
C3876 C3873 1.499 . S
C3876 C3877 1.373 . S
C3876 C3878 1.389 . S
C3877 H3856 0.950 . S
C3877 C3876 1.373 . S
C3877 C3893 1.377 . S
C3878 C3876 1.389 . S
C3878 C3879 1.524 . S
C3878 C3892 1.377 . S
C3879 C3878 1.524 . S
C3879 C3880 1.397 . S
C3879 C3884 1.363 . S
C3880 H3857 0.950 . S
C3880 C3879 1.397 . S
C3880 C3881 1.334 . S
C3881 H3858 0.950 . S
C3881 C3880 1.334 . S
C3881 C3882 1.287 . S
C3882 C3881 1.287 . S
C3882 C3883 1.524 . S
C3882 H3901 0.913 . S
C3883 H3859 0.950 . S
C3883 C3882 1.524 . S
C3883 C3884 1.415 . S
C3884 H3860 0.950 . S
C3884 C3879 1.363 . S
C3884 C3883 1.415 . S
C3885 H3861 0.951 . S
C3885 C3886 1.366 . S
C3885 C3887 1.388 . S
C3886 C3885 1.366 . S
C3886 C3890 1.385 . S
C3887 H3862 0.951 . S
C3887 C3885 1.388 . S
C3887 C3888 1.366 . S
C3888 C3887 1.366 . S
C3888 C3889 1.414 . S
C3888 C3891 1.499 . S
C3889 H3863 0.950 . S
C3889 C3888 1.414 . S
C3889 C3890 1.374 . S
C3890 H3864 0.950 . S
C3890 C3886 1.385 . S
C3890 C3889 1.374 . S
C3891 C3888 1.499 . S
C3891 C3892 1.373 . S
C3891 C3893 1.389 . S
C3892 H3865 0.950 . S
C3892 C3878 1.377 . S
C3892 C3891 1.373 . S
C3893 C3877 1.377 . S
C3893 C3891 1.389 . S
C3893 C3894 1.524 . S
C3894 C3893 1.524 . S
C3894 C3895 1.397 . S
C3894 C3899 1.363 . S
C3895 H3866 0.950 . S
C3895 C3894 1.397 . S
C3895 C3896 1.334 . S
C3896 H3867 0.950 . S
C3896 C3895 1.334 . S
C3896 C3897 1.287 . S
C3897 C3896 1.287 . S
C3897 C3898 1.524 . S
C3897 H3900 0.999 . S
C3898 H3868 0.950 . S
C3898 C3897 1.524 . S
C3898 C3899 1.415 . S
C3899 H3869 0.950 . S
C3899 C3894 1.363 . S
C3899 C3898 1.415 . S
H3900 C3897 0.999 . S
H3901 C3882 0.913 . S
H3902 C3920 0.951 . S
H3903 C3922 0.951 . S
H3904 C3924 0.950 . S
H3905 C3925 0.950 . S
H3906 C3927 0.950 . S
H3907 C3930 0.950 . S
H3908 C3931 0.950 . S
H3909 C3933 0.950 . S
H3910 C3934 0.950 . S
H3911 C3935 0.951 . S
H3912 C3937 0.951 . S
H3913 C3939 0.950 . S
H3914 C3940 0.950 . S
H3915 C3942 0.950 . S
H3916 C3945 0.950 . S
H3917 C3946 0.950 . S
H3918 C3948 0.950 . S
H3919 C3949 0.950 . S
C3920 H3902 0.951 . S
C3920 C3921 1.366 . S
C3920 C3922 1.388 . S
C3921 C3920 1.366 . S
C3921 C3925 1.385 . S
C3922 H3903 0.951 . S
C3922 C3920 1.388 . S
C3922 C3923 1.366 . S
C3923 C3922 1.366 . S
C3923 C3924 1.414 . S
C3923 C3926 1.499 . S
C3924 H3904 0.950 . S
C3924 C3923 1.414 . S
C3924 C3925 1.374 . S
C3925 H3905 0.950 . S
C3925 C3921 1.385 . S
C3925 C3924 1.374 . S
C3926 C3923 1.499 . S
C3926 C3927 1.373 . S
C3926 C3928 1.389 . S
C3927 H3906 0.950 . S
C3927 C3926 1.373 . S
C3927 C3943 1.377 . S
C3928 C3926 1.389 . S
C3928 C3929 1.524 . S
C3928 C3942 1.377 . S
C3929 C3928 1.524 . S
C3929 C3930 1.397 . S
C3929 C3934 1.363 . S
C3930 H3907 0.950 . S
C3930 C3929 1.397 . S
C3930 C3931 1.334 . S
C3931 H3908 0.950 . S
C3931 C3930 1.334 . S
C3931 C3932 1.287 . S
C3932 C3931 1.287 . S
C3932 C3933 1.524 . S
C3932 H3951 0.913 . S
C3933 H3909 0.950 . S
C3933 C3932 1.524 . S
C3933 C3934 1.415 . S
C3934 H3910 0.950 . S
C3934 C3929 1.363 . S
C3934 C3933 1.415 . S
C3935 H3911 0.951 . S
C3935 C3936 1.366 . S
C3935 C3937 1.388 . S
C3936 C3935 1.366 . S
C3936 C3940 1.385 . S
C3937 H3912 0.951 . S
C3937 C3935 1.388 . S
C3937 C3938 1.366 . S
C3938 C3937 1.366 . S
C3938 C3939 1.414 . S
C3938 C3941 1.499 . S
C3939 H3913 0.950 . S
C3939 C3938 1.414 . S
C3939 C3940 1.374 . S
C3940 H3914 0.950 . S
C3940 C3936 1.385 . S
C3940 C3939 1.374 . S
C3941 C3938 1.499 . S
C3941 C3942 1.373 . S
C3941 C3943 1.389 . S
C3942 H3915 0.950 . S
C3942 C3928 1.377 . S
C3942 C3941 1.373 . S
C3943 C3927 1.377 . S
C3943 C3941 1.389 . S
C3943 C3944 1.524 . S
C3944 C3943 1.524 . S
C3944 C3945 1.397 . S
C3944 C3949 1.363 . S
C3945 H3916 0.950 . S
C3945 C3944 1.397 . S
C3945 C3946 1.334 . S
C3946 H3917 0.950 . S
C3946 C3945 1.334 . S
C3946 C3947 1.287 . S
C3947 C3946 1.287 . S
C3947 C3948 1.524 . S
C3947 H3950 0.999 . S
C3948 H3918 0.950 . S
C3948 C3947 1.524 . S
C3948 C3949 1.415 . S
C3949 H3919 0.950 . S
C3949 C3944 1.363 . S
C3949 C3948 1.415 . S
H3950 C3947 0.999 . S
H3951 C3932 0.913 . S
H3952 C3970 0.951 . S
H3953 C3972 0.951 . S
H3954 C3974 0.950 . S
H3955 C3975 0.950 . S
H3956 C3977 0.950 . S
H3957 C3980 0.950 . S
H3958 C3981 0.950 . S
H3959 C3983 0.950 1_556 S
H3960 C3984 0.950 . S
H3961 C3985 0.951 . S
H3962 C3987 0.951 . S
H3963 C3989 0.950 . S
H3964 C3990 0.950 . S
H3965 C3992 0.950 . S
H3966 C3995 0.950 . S
H3967 C3996 0.950 . S
H3968 C3998 0.950 . S
H3969 C3999 0.950 . S
C3970 H3952 0.951 . S
C3970 C3971 1.366 . S
C3970 C3972 1.388 . S
C3971 C3970 1.366 . S
C3971 C3975 1.385 . S
C3972 H3953 0.951 . S
C3972 C3970 1.388 . S
C3972 C3973 1.366 . S
C3973 C3972 1.366 . S
C3973 C3974 1.414 . S
C3973 C3976 1.499 . S
C3974 H3954 0.950 . S
C3974 C3973 1.414 . S
C3974 C3975 1.374 . S
C3975 H3955 0.950 . S
C3975 C3971 1.385 . S
C3975 C3974 1.374 . S
C3976 C3973 1.499 . S
C3976 C3977 1.373 . S
C3976 C3978 1.389 . S
C3977 H3956 0.950 . S
C3977 C3976 1.373 . S
C3977 C3993 1.377 . S
C3978 C3976 1.389 . S
C3978 C3979 1.524 . S
C3978 C3992 1.377 . S
C3979 C3978 1.524 . S
C3979 C3980 1.397 . S
C3979 C3984 1.363 . S
C3980 H3957 0.950 . S
C3980 C3979 1.397 . S
C3980 C3981 1.334 . S
C3981 H3958 0.950 . S
C3981 C3980 1.334 . S
C3981 C3982 1.287 . S
C3982 C3981 1.287 . S
C3982 C3983 1.524 . S
C3982 H4001 0.913 . S
C3983 H3959 0.950 1_554 S
C3983 C3982 1.524 . S
C3983 C3984 1.415 . S
C3984 H3960 0.950 . S
C3984 C3979 1.363 . S
C3984 C3983 1.415 . S
C3985 H3961 0.951 . S
C3985 C3986 1.366 . S
C3985 C3987 1.388 . S
C3986 C3985 1.366 . S
C3986 C3990 1.385 . S
C3987 H3962 0.951 . S
C3987 C3985 1.388 . S
C3987 C3988 1.366 . S
C3988 C3987 1.366 . S
C3988 C3989 1.414 . S
C3988 C3991 1.499 . S
C3989 H3963 0.950 . S
C3989 C3988 1.414 . S
C3989 C3990 1.374 . S
C3990 H3964 0.950 . S
C3990 C3986 1.385 . S
C3990 C3989 1.374 . S
C3991 C3988 1.499 . S
C3991 C3992 1.373 . S
C3991 C3993 1.389 . S
C3992 H3965 0.950 . S
C3992 C3978 1.377 . S
C3992 C3991 1.373 . S
C3993 C3977 1.377 . S
C3993 C3991 1.389 . S
C3993 C3994 1.524 . S
C3994 C3993 1.524 . S
C3994 C3995 1.397 . S
C3994 C3999 1.363 . S
C3995 H3966 0.950 . S
C3995 C3994 1.397 . S
C3995 C3996 1.334 . S
C3996 H3967 0.950 . S
C3996 C3995 1.334 . S
C3996 C3997 1.287 . S
C3997 C3996 1.287 . S
C3997 C3998 1.524 . S
C3997 H4000 0.999 . S
C3998 H3968 0.950 . S
C3998 C3997 1.524 . S
C3998 C3999 1.415 . S
C3999 H3969 0.950 . S
C3999 C3994 1.363 . S
C3999 C3998 1.415 . S
H4000 C3997 0.999 . S
H4001 C3982 0.913 . S
H4002 C4020 0.951 . S
H4003 C4022 0.951 . S
H4004 C4024 0.950 . S
H4005 C4025 0.950 . S
H4006 C4027 0.950 . S
H4007 C4030 0.950 . S
H4008 C4031 0.950 . S
H4009 C4033 0.950 . S
H4010 C4034 0.950 . S
H4011 C4035 0.951 . S
H4012 C4037 0.951 . S
H4013 C4039 0.950 . S
H4014 C4040 0.950 . S
H4015 C4042 0.950 . S
H4016 C4045 0.950 . S
H4017 C4046 0.950 . S
H4018 C4048 0.950 . S
H4019 C4049 0.950 . S
C4020 H4002 0.951 . S
C4020 C4021 1.366 . S
C4020 C4022 1.388 . S
C4021 C4020 1.366 . S
C4021 C4025 1.385 . S
C4022 H4003 0.951 . S
C4022 C4020 1.388 . S
C4022 C4023 1.366 . S
C4023 C4022 1.366 . S
C4023 C4024 1.414 . S
C4023 C4026 1.499 . S
C4024 H4004 0.950 . S
C4024 C4023 1.414 . S
C4024 C4025 1.374 . S
C4025 H4005 0.950 . S
C4025 C4021 1.385 . S
C4025 C4024 1.374 . S
C4026 C4023 1.499 . S
C4026 C4027 1.373 . S
C4026 C4028 1.389 . S
C4027 H4006 0.950 . S
C4027 C4026 1.373 . S
C4027 C4043 1.377 . S
C4028 C4026 1.389 . S
C4028 C4029 1.524 . S
C4028 C4042 1.377 . S
C4029 C4028 1.524 . S
C4029 C4030 1.397 . S
C4029 C4034 1.363 . S
C4030 H4007 0.950 . S
C4030 C4029 1.397 . S
C4030 C4031 1.334 . S
C4031 H4008 0.950 . S
C4031 C4030 1.334 . S
C4031 C4032 1.287 . S
C4032 C4031 1.287 . S
C4032 C4033 1.524 . S
C4032 H4051 0.913 . S
C4033 H4009 0.950 . S
C4033 C4032 1.524 . S
C4033 C4034 1.415 . S
C4034 H4010 0.950 . S
C4034 C4029 1.363 . S
C4034 C4033 1.415 . S
C4035 H4011 0.951 . S
C4035 C4036 1.366 . S
C4035 C4037 1.388 . S
C4036 C4035 1.366 . S
C4036 C4040 1.385 . S
C4037 H4012 0.951 . S
C4037 C4035 1.388 . S
C4037 C4038 1.366 . S
C4038 C4037 1.366 . S
C4038 C4039 1.414 . S
C4038 C4041 1.499 . S
C4039 H4013 0.950 . S
C4039 C4038 1.414 . S
C4039 C4040 1.374 . S
C4040 H4014 0.950 . S
C4040 C4036 1.385 . S
C4040 C4039 1.374 . S
C4041 C4038 1.499 . S
C4041 C4042 1.373 . S
C4041 C4043 1.389 . S
C4042 H4015 0.950 . S
C4042 C4028 1.377 . S
C4042 C4041 1.373 . S
C4043 C4027 1.377 . S
C4043 C4041 1.389 . S
C4043 C4044 1.524 . S
C4044 C4043 1.524 . S
C4044 C4045 1.397 . S
C4044 C4049 1.363 . S
C4045 H4016 0.950 . S
C4045 C4044 1.397 . S
C4045 C4046 1.334 . S
C4046 H4017 0.950 . S
C4046 C4045 1.334 . S
C4046 C4047 1.287 . S
C4047 C4046 1.287 . S
C4047 C4048 1.524 . S
C4047 H4050 0.999 . S
C4048 H4018 0.950 . S
C4048 C4047 1.524 . S
C4048 C4049 1.415 . S
C4049 H4019 0.950 . S
C4049 C4044 1.363 . S
C4049 C4048 1.415 . S
H4050 C4047 0.999 . S
H4051 C4032 0.913 . S
H4052 C4070 0.951 . S
H4053 C4072 0.951 . S
H4054 C4074 0.950 . S
H4055 C4075 0.950 . S
H4056 C4077 0.950 . S
H4057 C4080 0.950 . S
H4058 C4081 0.950 . S
H4059 C4083 0.950 . S
H4060 C4084 0.950 . S
H4061 C4085 0.951 . S
H4062 C4087 0.951 . S
H4063 C4089 0.950 . S
H4064 C4090 0.950 . S
H4065 C4092 0.950 . S
H4066 C4095 0.950 . S
H4067 C4096 0.950 . S
H4068 C4098 0.950 . S
H4069 C4099 0.950 . S
C4070 H4052 0.951 . S
C4070 C4071 1.366 . S
C4070 C4072 1.388 . S
C4071 C4070 1.366 . S
C4071 C4075 1.385 . S
C4072 H4053 0.951 . S
C4072 C4070 1.388 . S
C4072 C4073 1.366 . S
C4073 C4072 1.366 . S
C4073 C4074 1.414 . S
C4073 C4076 1.499 . S
C4074 H4054 0.950 . S
C4074 C4073 1.414 . S
C4074 C4075 1.374 . S
C4075 H4055 0.950 . S
C4075 C4071 1.385 . S
C4075 C4074 1.374 . S
C4076 C4073 1.499 . S
C4076 C4077 1.373 . S
C4076 C4078 1.389 . S
C4077 H4056 0.950 . S
C4077 C4076 1.373 . S
C4077 C4093 1.377 . S
C4078 C4076 1.389 . S
C4078 C4079 1.524 . S
C4078 C4092 1.377 . S
C4079 C4078 1.524 . S
C4079 C4080 1.397 . S
C4079 C4084 1.363 . S
C4080 H4057 0.950 . S
C4080 C4079 1.397 . S
C4080 C4081 1.334 . S
C4081 H4058 0.950 . S
C4081 C4080 1.334 . S
C4081 C4082 1.287 . S
C4082 C4081 1.287 . S
C4082 C4083 1.524 . S
C4082 H4101 0.913 . S
C4083 H4059 0.950 . S
C4083 C4082 1.524 . S
C4083 C4084 1.415 . S
C4084 H4060 0.950 . S
C4084 C4079 1.363 . S
C4084 C4083 1.415 . S
C4085 H4061 0.951 . S
C4085 C4086 1.366 . S
C4085 C4087 1.388 . S
C4086 C4085 1.366 . S
C4086 C4090 1.385 . S
C4087 H4062 0.951 . S
C4087 C4085 1.388 . S
C4087 C4088 1.366 . S
C4088 C4087 1.366 . S
C4088 C4089 1.414 . S
C4088 C4091 1.499 . S
C4089 H4063 0.950 . S
C4089 C4088 1.414 . S
C4089 C4090 1.374 . S
C4090 H4064 0.950 . S
C4090 C4086 1.385 . S
C4090 C4089 1.374 . S
C4091 C4088 1.499 . S
C4091 C4092 1.373 . S
C4091 C4093 1.389 . S
C4092 H4065 0.950 . S
C4092 C4078 1.377 . S
C4092 C4091 1.373 . S
C4093 C4077 1.377 . S
C4093 C4091 1.389 . S
C4093 C4094 1.524 . S
C4094 C4093 1.524 . S
C4094 C4095 1.397 . S
C4094 C4099 1.363 . S
C4095 H4066 0.950 . S
C4095 C4094 1.397 . S
C4095 C4096 1.334 . S
C4096 H4067 0.950 . S
C4096 C4095 1.334 . S
C4096 C4097 1.287 . S
C4097 C4096 1.287 . S
C4097 C4098 1.524 . S
C4097 H4100 0.999 . S
C4098 H4068 0.950 . S
C4098 C4097 1.524 . S
C4098 C4099 1.415 . S
C4099 H4069 0.950 . S
C4099 C4094 1.363 . S
C4099 C4098 1.415 . S
H4100 C4097 0.999 . S
H4101 C4082 0.913 . S
H4102 C4120 0.951 . S
H4103 C4122 0.951 . S
H4104 C4124 0.950 . S
H4105 C4125 0.950 . S
H4106 C4127 0.950 . S
H4107 C4130 0.950 . S
H4108 C4131 0.950 . S
H4109 C4133 0.950 . S
H4110 C4134 0.950 . S
H4111 C4135 0.951 . S
H4112 C4137 0.951 . S
H4113 C4139 0.950 . S
H4114 C4140 0.950 . S
H4115 C4142 0.950 . S
H4116 C4145 0.950 . S
H4117 C4146 0.950 . S
H4118 C4148 0.950 . S
H4119 C4149 0.950 . S
C4120 H4102 0.951 . S
C4120 C4121 1.366 . S
C4120 C4122 1.388 . S
C4121 C4120 1.366 . S
C4121 C4125 1.385 . S
C4122 H4103 0.951 . S
C4122 C4120 1.388 . S
C4122 C4123 1.366 . S
C4123 C4122 1.366 . S
C4123 C4124 1.414 . S
C4123 C4126 1.499 . S
C4124 H4104 0.950 . S
C4124 C4123 1.414 . S
C4124 C4125 1.374 . S
C4125 H4105 0.950 . S
C4125 C4121 1.385 . S
C4125 C4124 1.374 . S
C4126 C4123 1.499 . S
C4126 C4127 1.373 . S
C4126 C4128 1.389 . S
C4127 H4106 0.950 . S
C4127 C4126 1.373 . S
C4127 C4143 1.377 . S
C4128 C4126 1.389 . S
C4128 C4129 1.524 . S
C4128 C4142 1.377 . S
C4129 C4128 1.524 . S
C4129 C4130 1.397 . S
C4129 C4134 1.363 . S
C4130 H4107 0.950 . S
C4130 C4129 1.397 . S
C4130 C4131 1.334 . S
C4131 H4108 0.950 . S
C4131 C4130 1.334 . S
C4131 C4132 1.287 . S
C4132 C4131 1.287 . S
C4132 C4133 1.524 . S
C4132 H4151 0.913 . S
C4133 H4109 0.950 . S
C4133 C4132 1.524 . S
C4133 C4134 1.415 . S
C4134 H4110 0.950 . S
C4134 C4129 1.363 . S
C4134 C4133 1.415 . S
C4135 H4111 0.951 . S
C4135 C4136 1.366 . S
C4135 C4137 1.388 . S
C4136 C4135 1.366 . S
C4136 C4140 1.385 . S
C4137 H4112 0.951 . S
C4137 C4135 1.388 . S
C4137 C4138 1.366 . S
C4138 C4137 1.366 . S
C4138 C4139 1.414 . S
C4138 C4141 1.499 . S
C4139 H4113 0.950 . S
C4139 C4138 1.414 . S
C4139 C4140 1.374 . S
C4140 H4114 0.950 . S
C4140 C4136 1.385 . S
C4140 C4139 1.374 . S
C4141 C4138 1.499 . S
C4141 C4142 1.373 . S
C4141 C4143 1.389 . S
C4142 H4115 0.950 . S
C4142 C4128 1.377 . S
C4142 C4141 1.373 . S
C4143 C4127 1.377 . S
C4143 C4141 1.389 . S
C4143 C4144 1.524 . S
C4144 C4143 1.524 . S
C4144 C4145 1.397 . S
C4144 C4149 1.363 . S
C4145 H4116 0.950 . S
C4145 C4144 1.397 . S
C4145 C4146 1.334 . S
C4146 H4117 0.950 . S
C4146 C4145 1.334 . S
C4146 C4147 1.287 . S
C4147 C4146 1.287 . S
C4147 C4148 1.524 . S
C4147 H4150 0.999 . S
C4148 H4118 0.950 . S
C4148 C4147 1.524 . S
C4148 C4149 1.415 . S
C4149 H4119 0.950 . S
C4149 C4144 1.363 . S
C4149 C4148 1.415 . S
H4150 C4147 0.999 . S
H4151 C4132 0.913 . S
H4152 C4170 0.951 . S
H4153 C4172 0.951 . S
H4154 C4174 0.950 . S
H4155 C4175 0.950 . S
H4156 C4177 0.950 . S
H4157 C4180 0.950 . S
H4158 C4181 0.950 . S
H4159 C4183 0.950 . S
H4160 C4184 0.950 . S
H4161 C4185 0.951 . S
H4162 C4187 0.951 . S
H4163 C4189 0.950 . S
H4164 C4190 0.950 . S
H4165 C4192 0.950 . S
H4166 C4195 0.950 . S
H4167 C4196 0.950 . S
H4168 C4198 0.950 . S
H4169 C4199 0.950 . S
C4170 H4152 0.951 . S
C4170 C4171 1.366 . S
C4170 C4172 1.388 . S
C4171 C4170 1.366 . S
C4171 C4175 1.385 . S
C4172 H4153 0.951 . S
C4172 C4170 1.388 . S
C4172 C4173 1.366 . S
C4173 C4172 1.366 . S
C4173 C4174 1.414 . S
C4173 C4176 1.499 . S
C4174 H4154 0.950 . S
C4174 C4173 1.414 . S
C4174 C4175 1.374 . S
C4175 H4155 0.950 . S
C4175 C4171 1.385 . S
C4175 C4174 1.374 . S
C4176 C4173 1.499 . S
C4176 C4177 1.373 . S
C4176 C4178 1.389 . S
C4177 H4156 0.950 . S
C4177 C4176 1.373 . S
C4177 C4193 1.377 . S
C4178 C4176 1.389 . S
C4178 C4179 1.524 . S
C4178 C4192 1.377 . S
C4179 C4178 1.524 . S
C4179 C4180 1.397 . S
C4179 C4184 1.363 . S
C4180 H4157 0.950 . S
C4180 C4179 1.397 . S
C4180 C4181 1.334 . S
C4181 H4158 0.950 . S
C4181 C4180 1.334 . S
C4181 C4182 1.287 . S
C4182 C4181 1.287 . S
C4182 C4183 1.524 . S
C4182 H4201 0.913 . S
C4183 H4159 0.950 . S
C4183 C4182 1.524 . S
C4183 C4184 1.415 . S
C4184 H4160 0.950 . S
C4184 C4179 1.363 . S
C4184 C4183 1.415 . S
C4185 H4161 0.951 . S
C4185 C4186 1.366 . S
C4185 C4187 1.388 . S
C4186 C4185 1.366 . S
C4186 C4190 1.385 . S
C4187 H4162 0.951 . S
C4187 C4185 1.388 . S
C4187 C4188 1.366 . S
C4188 C4187 1.366 . S
C4188 C4189 1.414 . S
C4188 C4191 1.499 . S
C4189 H4163 0.950 . S
C4189 C4188 1.414 . S
C4189 C4190 1.374 . S
C4190 H4164 0.950 . S
C4190 C4186 1.385 . S
C4190 C4189 1.374 . S
C4191 C4188 1.499 . S
C4191 C4192 1.373 . S
C4191 C4193 1.389 . S
C4192 H4165 0.950 . S
C4192 C4178 1.377 . S
C4192 C4191 1.373 . S
C4193 C4177 1.377 . S
C4193 C4191 1.389 . S
C4193 C4194 1.524 . S
C4194 C4193 1.524 . S
C4194 C4195 1.397 1_455 S
C4194 C4199 1.363 . S
C4195 H4166 0.950 . S
C4195 C4194 1.397 1_655 S
C4195 C4196 1.334 . S
C4196 H4167 0.950 . S
C4196 C4195 1.334 . S
C4196 C4197 1.287 . S
C4197 C4196 1.287 . S
C4197 C4198 1.524 . S
C4197 H4200 0.999 . S
C4198 H4168 0.950 . S
C4198 C4197 1.524 . S
C4198 C4199 1.415 1_655 S
C4199 H4169 0.950 . S
C4199 C4194 1.363 . S
C4199 C4198 1.415 1_455 S
H4200 C4197 0.999 . S
H4201 C4182 0.913 . S
H4202 C4220 0.951 . S
H4203 C4222 0.951 . S
H4204 C4224 0.950 . S
H4205 C4225 0.950 . S
H4206 C4227 0.950 . S
H4207 C4230 0.950 . S
H4208 C4231 0.950 . S
H4209 C4233 0.950 . S
H4210 C4234 0.950 . S
H4211 C4235 0.951 . S
H4212 C4237 0.951 . S
H4213 C4239 0.950 . S
H4214 C4240 0.950 . S
H4215 C4242 0.950 . S
H4216 C4245 0.950 . S
H4217 C4246 0.950 . S
H4218 C4248 0.950 . S
H4219 C4249 0.950 . S
C4220 H4202 0.951 . S
C4220 C4221 1.366 . S
C4220 C4222 1.388 . S
C4221 C4220 1.366 . S
C4221 C4225 1.385 . S
C4222 H4203 0.951 . S
C4222 C4220 1.388 . S
C4222 C4223 1.366 . S
C4223 C4222 1.366 . S
C4223 C4224 1.414 . S
C4223 C4226 1.499 . S
C4224 H4204 0.950 . S
C4224 C4223 1.414 . S
C4224 C4225 1.374 . S
C4225 H4205 0.950 . S
C4225 C4221 1.385 . S
C4225 C4224 1.374 . S
C4226 C4223 1.499 . S
C4226 C4227 1.373 . S
C4226 C4228 1.389 . S
C4227 H4206 0.950 . S
C4227 C4226 1.373 . S
C4227 C4243 1.377 . S
C4228 C4226 1.389 . S
C4228 C4229 1.524 . S
C4228 C4242 1.377 . S
C4229 C4228 1.524 . S
C4229 C4230 1.397 . S
C4229 C4234 1.363 . S
C4230 H4207 0.950 . S
C4230 C4229 1.397 . S
C4230 C4231 1.334 . S
C4231 H4208 0.950 . S
C4231 C4230 1.334 . S
C4231 C4232 1.287 . S
C4232 C4231 1.287 . S
C4232 C4233 1.524 . S
C4232 H4251 0.913 . S
C4233 H4209 0.950 . S
C4233 C4232 1.524 . S
C4233 C4234 1.415 . S
C4234 H4210 0.950 . S
C4234 C4229 1.363 . S
C4234 C4233 1.415 . S
C4235 H4211 0.951 . S
C4235 C4236 1.366 . S
C4235 C4237 1.388 . S
C4236 C4235 1.366 . S
C4236 C4240 1.385 . S
C4237 H4212 0.951 . S
C4237 C4235 1.388 . S
C4237 C4238 1.366 . S
C4238 C4237 1.366 . S
C4238 C4239 1.414 . S
C4238 C4241 1.499 . S
C4239 H4213 0.950 . S
C4239 C4238 1.414 . S
C4239 C4240 1.374 . S
C4240 H4214 0.950 . S
C4240 C4236 1.385 . S
C4240 C4239 1.374 . S
C4241 C4238 1.499 . S
C4241 C4242 1.373 . S
C4241 C4243 1.389 . S
C4242 H4215 0.950 . S
C4242 C4228 1.377 . S
C4242 C4241 1.373 . S
C4243 C4227 1.377 . S
C4243 C4241 1.389 . S
C4243 C4244 1.524 . S
C4244 C4243 1.524 . S
C4244 C4245 1.397 . S
C4244 C4249 1.363 . S
C4245 H4216 0.950 . S
C4245 C4244 1.397 . S
C4245 C4246 1.334 . S
C4246 H4217 0.950 . S
C4246 C4245 1.334 . S
C4246 C4247 1.287 . S
C4247 C4246 1.287 . S
C4247 C4248 1.524 . S
C4247 H4250 0.999 . S
C4248 H4218 0.950 . S
C4248 C4247 1.524 . S
C4248 C4249 1.415 . S
C4249 H4219 0.950 . S
C4249 C4244 1.363 . S
C4249 C4248 1.415 . S
H4250 C4247 0.999 . S
H4251 C4232 0.913 . S
H4252 C4270 0.951 . S
H4253 C4272 0.951 . S
H4254 C4274 0.950 . S
H4255 C4275 0.950 . S
H4256 C4277 0.950 . S
H4257 C4280 0.950 . S
H4258 C4281 0.950 . S
H4259 C4283 0.950 . S
H4260 C4284 0.950 . S
H4261 C4285 0.951 . S
H4262 C4287 0.951 . S
H4263 C4289 0.950 . S
H4264 C4290 0.950 . S
H4265 C4292 0.950 . S
H4266 C4295 0.950 . S
H4267 C4296 0.950 . S
H4268 C4298 0.950 . S
H4269 C4299 0.950 . S
C4270 H4252 0.951 . S
C4270 C4271 1.366 . S
C4270 C4272 1.388 . S
C4271 C4270 1.366 . S
C4271 C4275 1.385 . S
C4272 H4253 0.951 . S
C4272 C4270 1.388 . S
C4272 C4273 1.366 . S
C4273 C4272 1.366 . S
C4273 C4274 1.414 . S
C4273 C4276 1.499 . S
C4274 H4254 0.950 . S
C4274 C4273 1.414 . S
C4274 C4275 1.374 . S
C4275 H4255 0.950 . S
C4275 C4271 1.385 . S
C4275 C4274 1.374 . S
C4276 C4273 1.499 . S
C4276 C4277 1.373 . S
C4276 C4278 1.389 . S
C4277 H4256 0.950 . S
C4277 C4276 1.373 . S
C4277 C4293 1.377 . S
C4278 C4276 1.389 . S
C4278 C4279 1.524 . S
C4278 C4292 1.377 . S
C4279 C4278 1.524 . S
C4279 C4280 1.397 . S
C4279 C4284 1.363 . S
C4280 H4257 0.950 . S
C4280 C4279 1.397 . S
C4280 C4281 1.334 . S
C4281 H4258 0.950 . S
C4281 C4280 1.334 . S
C4281 C4282 1.287 . S
C4282 C4281 1.287 . S
C4282 C4283 1.524 . S
C4282 H4301 0.913 . S
C4283 H4259 0.950 . S
C4283 C4282 1.524 . S
C4283 C4284 1.415 . S
C4284 H4260 0.950 . S
C4284 C4279 1.363 . S
C4284 C4283 1.415 . S
C4285 H4261 0.951 . S
C4285 C4286 1.366 . S
C4285 C4287 1.388 . S
C4286 C4285 1.366 . S
C4286 C4290 1.385 . S
C4287 H4262 0.951 . S
C4287 C4285 1.388 . S
C4287 C4288 1.366 . S
C4288 C4287 1.366 . S
C4288 C4289 1.414 . S
C4288 C4291 1.499 . S
C4289 H4263 0.950 . S
C4289 C4288 1.414 . S
C4289 C4290 1.374 . S
C4290 H4264 0.950 . S
C4290 C4286 1.385 . S
C4290 C4289 1.374 . S
C4291 C4288 1.499 . S
C4291 C4292 1.373 . S
C4291 C4293 1.389 . S
C4292 H4265 0.950 . S
C4292 C4278 1.377 . S
C4292 C4291 1.373 . S
C4293 C4277 1.377 . S
C4293 C4291 1.389 . S
C4293 C4294 1.524 . S
C4294 C4293 1.524 . S
C4294 C4295 1.397 1_556 S
C4294 C4299 1.363 . S
C4295 H4266 0.950 . S
C4295 C4294 1.397 1_554 S
C4295 C4296 1.334 . S
C4296 H4267 0.950 . S
C4296 C4295 1.334 . S
C4296 C4297 1.287 . S
C4297 C4296 1.287 . S
C4297 C4298 1.524 . S
C4297 H4300 0.999 . S
C4298 H4268 0.950 . S
C4298 C4297 1.524 . S
C4298 C4299 1.415 1_554 S
C4299 H4269 0.950 . S
C4299 C4294 1.363 . S
C4299 C4298 1.415 1_556 S
H4300 C4297 0.999 . S
H4301 C4282 0.913 . S
H4302 C4320 0.951 . S
H4303 C4322 0.951 . S
H4304 C4324 0.950 . S
H4305 C4325 0.950 . S
H4306 C4327 0.950 . S
H4307 C4330 0.950 . S
H4308 C4331 0.950 . S
H4309 C4333 0.950 . S
H4310 C4334 0.950 . S
H4311 C4335 0.951 . S
H4312 C4337 0.951 . S
H4313 C4339 0.950 . S
H4314 C4340 0.950 . S
H4315 C4342 0.950 . S
H4316 C4345 0.950 . S
H4317 C4346 0.950 . S
H4318 C4348 0.950 . S
H4319 C4349 0.950 . S
C4320 H4302 0.951 . S
C4320 C4321 1.366 . S
C4320 C4322 1.388 . S
C4321 C4320 1.366 . S
C4321 C4325 1.385 . S
C4322 H4303 0.951 . S
C4322 C4320 1.388 . S
C4322 C4323 1.366 . S
C4323 C4322 1.366 . S
C4323 C4324 1.414 . S
C4323 C4326 1.499 . S
C4324 H4304 0.950 . S
C4324 C4323 1.414 . S
C4324 C4325 1.374 . S
C4325 H4305 0.950 . S
C4325 C4321 1.385 . S
C4325 C4324 1.374 . S
C4326 C4323 1.499 . S
C4326 C4327 1.373 . S
C4326 C4328 1.389 . S
C4327 H4306 0.950 . S
C4327 C4326 1.373 . S
C4327 C4343 1.377 . S
C4328 C4326 1.389 . S
C4328 C4329 1.524 . S
C4328 C4342 1.377 . S
C4329 C4328 1.524 . S
C4329 C4330 1.397 . S
C4329 C4334 1.363 . S
C4330 H4307 0.950 . S
C4330 C4329 1.397 . S
C4330 C4331 1.334 . S
C4331 H4308 0.950 . S
C4331 C4330 1.334 . S
C4331 C4332 1.287 . S
C4332 C4331 1.287 . S
C4332 C4333 1.524 . S
C4332 H4351 0.913 . S
C4333 H4309 0.950 . S
C4333 C4332 1.524 . S
C4333 C4334 1.415 . S
C4334 H4310 0.950 . S
C4334 C4329 1.363 . S
C4334 C4333 1.415 . S
C4335 H4311 0.951 . S
C4335 C4336 1.366 . S
C4335 C4337 1.388 . S
C4336 C4335 1.366 . S
C4336 C4340 1.385 . S
C4337 H4312 0.951 . S
C4337 C4335 1.388 . S
C4337 C4338 1.366 . S
C4338 C4337 1.366 . S
C4338 C4339 1.414 . S
C4338 C4341 1.499 . S
C4339 H4313 0.950 . S
C4339 C4338 1.414 . S
C4339 C4340 1.374 . S
C4340 H4314 0.950 . S
C4340 C4336 1.385 . S
C4340 C4339 1.374 . S
C4341 C4338 1.499 . S
C4341 C4342 1.373 . S
C4341 C4343 1.389 . S
C4342 H4315 0.950 . S
C4342 C4328 1.377 . S
C4342 C4341 1.373 . S
C4343 C4327 1.377 . S
C4343 C4341 1.389 . S
C4343 C4344 1.524 . S
C4344 C4343 1.524 . S
C4344 C4345 1.397 . S
C4344 C4349 1.363 . S
C4345 H4316 0.950 . S
C4345 C4344 1.397 . S
C4345 C4346 1.334 . S
C4346 H4317 0.950 . S
C4346 C4345 1.334 . S
C4346 C4347 1.287 . S
C4347 C4346 1.287 . S
C4347 C4348 1.524 . S
C4347 H4350 0.999 . S
C4348 H4318 0.950 . S
C4348 C4347 1.524 . S
C4348 C4349 1.415 . S
C4349 H4319 0.950 . S
C4349 C4344 1.363 . S
C4349 C4348 1.415 . S
H4350 C4347 0.999 . S
H4351 C4332 0.913 . S
H4352 C4370 0.951 . S
H4353 C4372 0.951 . S
H4354 C4374 0.950 . S
H4355 C4375 0.950 . S
H4356 C4377 0.950 . S
H4357 C4380 0.950 . S
H4358 C4381 0.950 . S
H4359 C4383 0.950 . S
H4360 C4384 0.950 . S
H4361 C4385 0.951 1_565 S
H4362 C4387 0.951 1_565 S
H4363 C4389 0.950 . S
H4364 C4390 0.950 . S
H4365 C4392 0.950 . S
H4366 C4395 0.950 . S
H4367 C4396 0.950 . S
H4368 C4398 0.950 . S
H4369 C4399 0.950 . S
C4370 H4352 0.951 . S
C4370 C4371 1.366 . S
C4370 C4372 1.388 . S
C4371 C4370 1.366 . S
C4371 C4375 1.385 1_545 S
C4372 H4353 0.951 . S
C4372 C4370 1.388 . S
C4372 C4373 1.366 . S
C4373 C4372 1.366 . S
C4373 C4374 1.414 1_545 S
C4373 C4376 1.499 . S
C4374 H4354 0.950 . S
C4374 C4373 1.414 1_565 S
C4374 C4375 1.374 . S
C4375 H4355 0.950 . S
C4375 C4371 1.385 1_565 S
C4375 C4374 1.374 . S
C4376 C4373 1.499 . S
C4376 C4377 1.373 1_545 S
C4376 C4378 1.389 . S
C4377 H4356 0.950 . S
C4377 C4376 1.373 1_565 S
C4377 C4393 1.377 . S
C4378 C4376 1.389 . S
C4378 C4379 1.524 . S
C4378 C4392 1.377 . S
C4379 C4378 1.524 . S
C4379 C4380 1.397 . S
C4379 C4384 1.363 . S
C4380 H4357 0.950 . S
C4380 C4379 1.397 . S
C4380 C4381 1.334 . S
C4381 H4358 0.950 . S
C4381 C4380 1.334 . S
C4381 C4382 1.287 . S
C4382 C4381 1.287 . S
C4382 C4383 1.524 . S
C4382 H4401 0.913 . S
C4383 H4359 0.950 . S
C4383 C4382 1.524 . S
C4383 C4384 1.415 . S
C4384 H4360 0.950 . S
C4384 C4379 1.363 . S
C4384 C4383 1.415 . S
C4385 H4361 0.951 1_545 S
C4385 C4386 1.366 . S
C4385 C4387 1.388 . S
C4386 C4385 1.366 . S
C4386 C4390 1.385 . S
C4387 H4362 0.951 1_545 S
C4387 C4385 1.388 . S
C4387 C4388 1.366 . S
C4388 C4387 1.366 . S
C4388 C4389 1.414 . S
C4388 C4391 1.499 . S
C4389 H4363 0.950 . S
C4389 C4388 1.414 . S
C4389 C4390 1.374 . S
C4390 H4364 0.950 . S
C4390 C4386 1.385 . S
C4390 C4389 1.374 . S
C4391 C4388 1.499 . S
C4391 C4392 1.373 . S
C4391 C4393 1.389 1_545 S
C4392 H4365 0.950 . S
C4392 C4378 1.377 . S
C4392 C4391 1.373 . S
C4393 C4377 1.377 . S
C4393 C4391 1.389 1_565 S
C4393 C4394 1.524 . S
C4394 C4393 1.524 . S
C4394 C4395 1.397 . S
C4394 C4399 1.363 . S
C4395 H4366 0.950 . S
C4395 C4394 1.397 . S
C4395 C4396 1.334 . S
C4396 H4367 0.950 . S
C4396 C4395 1.334 . S
C4396 C4397 1.287 . S
C4397 C4396 1.287 . S
C4397 C4398 1.524 . S
C4397 H4400 0.999 . S
C4398 H4368 0.950 . S
C4398 C4397 1.524 . S
C4398 C4399 1.415 . S
C4399 H4369 0.950 . S
C4399 C4394 1.363 . S
C4399 C4398 1.415 . S
H4400 C4397 0.999 . S
H4401 C4382 0.913 . S
H4402 C4420 0.951 . S
H4403 C4422 0.951 . S
H4404 C4424 0.950 . S
H4405 C4425 0.950 . S
H4406 C4427 0.950 . S
H4407 C4430 0.950 . S
H4408 C4431 0.950 . S
H4409 C4433 0.950 . S
H4410 C4434 0.950 . S
H4411 C4435 0.951 . S
H4412 C4437 0.951 . S
H4413 C4439 0.950 . S
H4414 C4440 0.950 . S
H4415 C4442 0.950 . S
H4416 C4445 0.950 . S
H4417 C4446 0.950 . S
H4418 C4448 0.950 . S
H4419 C4449 0.950 . S
C4420 H4402 0.951 . S
C4420 C4421 1.366 . S
C4420 C4422 1.388 . S
C4421 C4420 1.366 . S
C4421 C4425 1.385 . S
C4422 H4403 0.951 . S
C4422 C4420 1.388 . S
C4422 C4423 1.366 . S
C4423 C4422 1.366 . S
C4423 C4424 1.414 . S
C4423 C4426 1.499 . S
C4424 H4404 0.950 . S
C4424 C4423 1.414 . S
C4424 C4425 1.374 . S
C4425 H4405 0.950 . S
C4425 C4421 1.385 . S
C4425 C4424 1.374 . S
C4426 C4423 1.499 . S
C4426 C4427 1.373 . S
C4426 C4428 1.389 . S
C4427 H4406 0.950 . S
C4427 C4426 1.373 . S
C4427 C4443 1.377 . S
C4428 C4426 1.389 . S
C4428 C4429 1.524 . S
C4428 C4442 1.377 . S
C4429 C4428 1.524 . S
C4429 C4430 1.397 . S
C4429 C4434 1.363 . S
C4430 H4407 0.950 . S
C4430 C4429 1.397 . S
C4430 C4431 1.334 . S
C4431 H4408 0.950 . S
C4431 C4430 1.334 . S
C4431 C4432 1.287 . S
C4432 C4431 1.287 . S
C4432 C4433 1.524 . S
C4432 H4451 0.913 . S
C4433 H4409 0.950 . S
C4433 C4432 1.524 . S
C4433 C4434 1.415 . S
C4434 H4410 0.950 . S
C4434 C4429 1.363 . S
C4434 C4433 1.415 . S
C4435 H4411 0.951 . S
C4435 C4436 1.366 . S
C4435 C4437 1.388 . S
C4436 C4435 1.366 . S
C4436 C4440 1.385 . S
C4437 H4412 0.951 . S
C4437 C4435 1.388 . S
C4437 C4438 1.366 . S
C4438 C4437 1.366 . S
C4438 C4439 1.414 . S
C4438 C4441 1.499 . S
C4439 H4413 0.950 . S
C4439 C4438 1.414 . S
C4439 C4440 1.374 . S
C4440 H4414 0.950 . S
C4440 C4436 1.385 . S
C4440 C4439 1.374 . S
C4441 C4438 1.499 . S
C4441 C4442 1.373 . S
C4441 C4443 1.389 . S
C4442 H4415 0.950 . S
C4442 C4428 1.377 . S
C4442 C4441 1.373 . S
C4443 C4427 1.377 . S
C4443 C4441 1.389 . S
C4443 C4444 1.524 . S
C4444 C4443 1.524 . S
C4444 C4445 1.397 . S
C4444 C4449 1.363 . S
C4445 H4416 0.950 . S
C4445 C4444 1.397 . S
C4445 C4446 1.334 . S
C4446 H4417 0.950 . S
C4446 C4445 1.334 . S
C4446 C4447 1.287 . S
C4447 C4446 1.287 . S
C4447 C4448 1.524 . S
C4447 H4450 0.999 . S
C4448 H4418 0.950 . S
C4448 C4447 1.524 . S
C4448 C4449 1.415 . S
C4449 H4419 0.950 . S
C4449 C4444 1.363 . S
C4449 C4448 1.415 . S
H4450 C4447 0.999 . S
H4451 C4432 0.913 . S
H4452 C4470 0.951 1_565 S
H4453 C4472 0.951 1_565 S
H4454 C4474 0.950 . S
H4455 C4475 0.950 . S
H4456 C4477 0.950 . S
H4457 C4480 0.950 1_545 S
H4458 C4481 0.950 . S
H4459 C4483 0.950 . S
H4460 C4484 0.950 . S
H4461 C4485 0.951 . S
H4462 C4487 0.951 . S
H4463 C4489 0.950 . S
H4464 C4490 0.950 . S
H4465 C4492 0.950 . S
H4466 C4495 0.950 . S
H4467 C4496 0.950 . S
H4468 C4498 0.950 . S
H4469 C4499 0.950 . S
C4470 H4452 0.951 1_545 S
C4470 C4471 1.366 . S
C4470 C4472 1.388 . S
C4471 C4470 1.366 . S
C4471 C4475 1.385 . S
C4472 H4453 0.951 1_545 S
C4472 C4470 1.388 . S
C4472 C4473 1.366 . S
C4473 C4472 1.366 . S
C4473 C4474 1.414 . S
C4473 C4476 1.499 . S
C4474 H4454 0.950 . S
C4474 C4473 1.414 . S
C4474 C4475 1.374 . S
C4475 H4455 0.950 . S
C4475 C4471 1.385 . S
C4475 C4474 1.374 . S
C4476 C4473 1.499 . S
C4476 C4477 1.373 . S
C4476 C4478 1.389 . S
C4477 H4456 0.950 . S
C4477 C4476 1.373 . S
C4477 C4493 1.377 . S
C4478 C4476 1.389 . S
C4478 C4479 1.524 1_545 S
C4478 C4492 1.377 . S
C4479 C4478 1.524 1_565 S
C4479 C4480 1.397 . S
C4479 C4484 1.363 . S
C4480 H4457 0.950 1_565 S
C4480 C4479 1.397 . S
C4480 C4481 1.334 . S
C4481 H4458 0.950 . S
C4481 C4480 1.334 . S
C4481 C4482 1.287 . S
C4482 C4481 1.287 . S
C4482 C4483 1.524 . S
C4482 H4501 0.913 . S
C4483 H4459 0.950 . S
C4483 C4482 1.524 . S
C4483 C4484 1.415 . S
C4484 H4460 0.950 . S
C4484 C4479 1.363 . S
C4484 C4483 1.415 . S
C4485 H4461 0.951 . S
C4485 C4486 1.366 . S
C4485 C4487 1.388 . S
C4486 C4485 1.366 . S
C4486 C4490 1.385 . S
C4487 H4462 0.951 . S
C4487 C4485 1.388 . S
C4487 C4488 1.366 . S
C4488 C4487 1.366 . S
C4488 C4489 1.414 . S
C4488 C4491 1.499 . S
C4489 H4463 0.950 . S
C4489 C4488 1.414 . S
C4489 C4490 1.374 . S
C4490 H4464 0.950 . S
C4490 C4486 1.385 . S
C4490 C4489 1.374 . S
C4491 C4488 1.499 . S
C4491 C4492 1.373 . S
C4491 C4493 1.389 . S
C4492 H4465 0.950 . S
C4492 C4478 1.377 . S
C4492 C4491 1.373 . S
C4493 C4477 1.377 . S
C4493 C4491 1.389 . S
C4493 C4494 1.524 . S
C4494 C4493 1.524 . S
C4494 C4495 1.397 . S
C4494 C4499 1.363 . S
C4495 H4466 0.950 . S
C4495 C4494 1.397 . S
C4495 C4496 1.334 . S
C4496 H4467 0.950 . S
C4496 C4495 1.334 . S
C4496 C4497 1.287 . S
C4497 C4496 1.287 . S
C4497 C4498 1.524 . S
C4497 H4500 0.999 . S
C4498 H4468 0.950 . S
C4498 C4497 1.524 . S
C4498 C4499 1.415 . S
C4499 H4469 0.950 . S
C4499 C4494 1.363 . S
C4499 C4498 1.415 . S
H4500 C4497 0.999 . S
H4501 C4482 0.913 . S
H4502 C4520 0.951 . S
H4503 C4522 0.951 . S
H4504 C4524 0.950 . S
H4505 C4525 0.950 . S
H4506 C4527 0.950 . S
H4507 C4530 0.950 . S
H4508 C4531 0.950 . S
H4509 C4533 0.950 . S
H4510 C4534 0.950 . S
H4511 C4535 0.951 . S
H4512 C4537 0.951 . S
H4513 C4539 0.950 . S
H4514 C4540 0.950 . S
H4515 C4542 0.950 . S
H4516 C4545 0.950 . S
H4517 C4546 0.950 . S
H4518 C4548 0.950 . S
H4519 C4549 0.950 . S
C4520 H4502 0.951 . S
C4520 C4521 1.366 . S
C4520 C4522 1.388 . S
C4521 C4520 1.366 . S
C4521 C4525 1.385 . S
C4522 H4503 0.951 . S
C4522 C4520 1.388 . S
C4522 C4523 1.366 . S
C4523 C4522 1.366 . S
C4523 C4524 1.414 . S
C4523 C4526 1.499 . S
C4524 H4504 0.950 . S
C4524 C4523 1.414 . S
C4524 C4525 1.374 . S
C4525 H4505 0.950 . S
C4525 C4521 1.385 . S
C4525 C4524 1.374 . S
C4526 C4523 1.499 . S
C4526 C4527 1.373 . S
C4526 C4528 1.389 . S
C4527 H4506 0.950 . S
C4527 C4526 1.373 . S
C4527 C4543 1.377 . S
C4528 C4526 1.389 . S
C4528 C4529 1.524 . S
C4528 C4542 1.377 . S
C4529 C4528 1.524 . S
C4529 C4530 1.397 . S
C4529 C4534 1.363 . S
C4530 H4507 0.950 . S
C4530 C4529 1.397 . S
C4530 C4531 1.334 . S
C4531 H4508 0.950 . S
C4531 C4530 1.334 . S
C4531 C4532 1.287 . S
C4532 C4531 1.287 . S
C4532 C4533 1.524 . S
C4532 H4551 0.913 . S
C4533 H4509 0.950 . S
C4533 C4532 1.524 . S
C4533 C4534 1.415 . S
C4534 H4510 0.950 . S
C4534 C4529 1.363 . S
C4534 C4533 1.415 . S
C4535 H4511 0.951 . S
C4535 C4536 1.366 . S
C4535 C4537 1.388 . S
C4536 C4535 1.366 . S
C4536 C4540 1.385 . S
C4537 H4512 0.951 . S
C4537 C4535 1.388 . S
C4537 C4538 1.366 . S
C4538 C4537 1.366 . S
C4538 C4539 1.414 . S
C4538 C4541 1.499 . S
C4539 H4513 0.950 . S
C4539 C4538 1.414 . S
C4539 C4540 1.374 . S
C4540 H4514 0.950 . S
C4540 C4536 1.385 . S
C4540 C4539 1.374 . S
C4541 C4538 1.499 . S
C4541 C4542 1.373 . S
C4541 C4543 1.389 . S
C4542 H4515 0.950 . S
C4542 C4528 1.377 . S
C4542 C4541 1.373 . S
C4543 C4527 1.377 . S
C4543 C4541 1.389 . S
C4543 C4544 1.524 . S
C4544 C4543 1.524 . S
C4544 C4545 1.397 . S
C4544 C4549 1.363 . S
C4545 H4516 0.950 . S
C4545 C4544 1.397 . S
C4545 C4546 1.334 . S
C4546 H4517 0.950 . S
C4546 C4545 1.334 . S
C4546 C4547 1.287 . S
C4547 C4546 1.287 . S
C4547 C4548 1.524 . S
C4547 H4550 0.999 . S
C4548 H4518 0.950 . S
C4548 C4547 1.524 . S
C4548 C4549 1.415 . S
C4549 H4519 0.950 . S
C4549 C4544 1.363 . S
C4549 C4548 1.415 . S
H4550 C4547 0.999 . S
H4551 C4532 0.913 . S
H4552 C4570 0.951 . S
H4553 C4572 0.940 1_545 S
H4554 C4574 0.950 . S
H4555 C4575 0.950 . S
H4556 C4577 0.950 . S
H4557 C4580 0.950 . S
H4558 C4581 0.950 . S
H4559 C4583 0.950 . S
H4560 C4584 0.950 . S
H4561 C4585 0.951 . S
H4562 C4587 0.951 . S
H4563 C4589 0.950 . S
H4564 C4590 0.950 . S
H4565 C4592 0.950 . S
H4566 C4595 0.950 . S
H4567 C4596 0.950 . S
H4568 C4598 0.950 . S
H4569 C4599 0.950 . S
C4570 H4552 0.951 . S
C4570 C4571 1.366 . S
C4570 C4572 1.419 . S
C4571 C4570 1.366 . S
C4571 C4575 1.385 . S
C4572 H4553 0.940 1_565 S
C4572 C4570 1.419 . S
C4572 C4573 1.357 . S
C4573 C4572 1.357 . S
C4573 C4574 1.421 . S
C4573 C4576 1.487 1_565 S
C4574 H4554 0.950 . S
C4574 C4573 1.421 . S
C4574 C4575 1.374 . S
C4575 H4555 0.950 . S
C4575 C4571 1.385 . S
C4575 C4574 1.374 . S
C4576 C4573 1.487 1_545 S
C4576 C4577 1.373 1_545 S
C4576 C4578 1.389 . S
C4577 H4556 0.950 . S
C4577 C4576 1.373 1_565 S
C4577 C4593 1.377 . S
C4578 C4576 1.389 . S
C4578 C4579 1.524 . S
C4578 C4592 1.377 . S
C4579 C4578 1.524 . S
C4579 C4580 1.397 . S
C4579 C4584 1.363 . S
C4580 H4557 0.950 . S
C4580 C4579 1.397 . S
C4580 C4581 1.334 . S
C4581 H4558 0.950 . S
C4581 C4580 1.334 . S
C4581 C4582 1.287 . S
C4582 C4581 1.287 . S
C4582 C4583 1.524 . S
C4582 H4601 0.913 . S
C4583 H4559 0.950 . S
C4583 C4582 1.524 . S
C4583 C4584 1.415 . S
C4584 H4560 0.950 . S
C4584 C4579 1.363 . S
C4584 C4583 1.415 . S
C4585 H4561 0.951 . S
C4585 C4586 1.366 . S
C4585 C4587 1.388 . S
C4586 C4585 1.366 . S
C4586 C4590 1.385 . S
C4587 H4562 0.951 . S
C4587 C4585 1.388 . S
C4587 C4588 1.366 . S
C4588 C4587 1.366 . S
C4588 C4589 1.414 . S
C4588 C4591 1.499 . S
C4589 H4563 0.950 . S
C4589 C4588 1.414 . S
C4589 C4590 1.374 . S
C4590 H4564 0.950 . S
C4590 C4586 1.385 . S
C4590 C4589 1.374 . S
C4591 C4588 1.499 . S
C4591 C4592 1.373 . S
C4591 C4593 1.389 1_545 S
C4592 H4565 0.950 . S
C4592 C4578 1.377 . S
C4592 C4591 1.373 . S
C4593 C4577 1.377 . S
C4593 C4591 1.389 1_565 S
C4593 C4594 1.524 . S
C4594 C4593 1.524 . S
C4594 C4595 1.397 . S
C4594 C4599 1.363 . S
C4595 H4566 0.950 . S
C4595 C4594 1.397 . S
C4595 C4596 1.334 . S
C4596 H4567 0.950 . S
C4596 C4595 1.334 . S
C4596 C4597 1.287 . S
C4597 C4596 1.287 . S
C4597 C4598 1.524 . S
C4597 H4600 0.999 . S
C4598 H4568 0.950 . S
C4598 C4597 1.524 . S
C4598 C4599 1.415 . S
C4599 H4569 0.950 . S
C4599 C4594 1.363 . S
C4599 C4598 1.415 . S
H4600 C4597 0.999 . S
H4601 C4582 0.913 . S
H4602 C4620 0.951 . S
H4603 C4622 0.951 . S
H4604 C4624 0.950 . S
H4605 C4625 0.950 . S
H4606 C4627 0.950 . S
H4607 C4630 0.950 . S
H4608 C4631 0.950 . S
H4609 C4633 0.950 . S
H4610 C4634 0.950 . S
H4611 C4635 0.951 . S
H4612 C4637 0.951 . S
H4613 C4639 0.950 . S
H4614 C4640 0.950 . S
H4615 C4642 0.950 . S
H4616 C4645 0.950 . S
H4617 C4646 0.950 . S
H4618 C4648 0.950 . S
H4619 C4649 0.950 . S
C4620 H4602 0.951 . S
C4620 C4621 1.366 . S
C4620 C4622 1.388 . S
C4621 C4620 1.366 . S
C4621 C4625 1.385 . S
C4622 H4603 0.951 . S
C4622 C4620 1.388 . S
C4622 C4623 1.366 . S
C4623 C4622 1.366 . S
C4623 C4624 1.414 . S
C4623 C4626 1.499 . S
C4624 H4604 0.950 . S
C4624 C4623 1.414 . S
C4624 C4625 1.374 . S
C4625 H4605 0.950 . S
C4625 C4621 1.385 . S
C4625 C4624 1.374 . S
C4626 C4623 1.499 . S
C4626 C4627 1.373 . S
C4626 C4628 1.389 . S
C4627 H4606 0.950 . S
C4627 C4626 1.373 . S
C4627 C4643 1.377 . S
C4628 C4626 1.389 . S
C4628 C4629 1.524 . S
C4628 C4642 1.377 . S
C4629 C4628 1.524 . S
C4629 C4630 1.397 . S
C4629 C4634 1.363 . S
C4630 H4607 0.950 . S
C4630 C4629 1.397 . S
C4630 C4631 1.334 . S
C4631 H4608 0.950 . S
C4631 C4630 1.334 . S
C4631 C4632 1.287 . S
C4632 C4631 1.287 . S
C4632 C4633 1.524 . S
C4632 H4651 0.913 . S
C4633 H4609 0.950 . S
C4633 C4632 1.524 . S
C4633 C4634 1.415 . S
C4634 H4610 0.950 . S
C4634 C4629 1.363 . S
C4634 C4633 1.415 . S
C4635 H4611 0.951 . S
C4635 C4636 1.366 . S
C4635 C4637 1.388 . S
C4636 C4635 1.366 . S
C4636 C4640 1.385 . S
C4637 H4612 0.951 . S
C4637 C4635 1.388 . S
C4637 C4638 1.366 . S
C4638 C4637 1.366 . S
C4638 C4639 1.414 . S
C4638 C4641 1.499 . S
C4639 H4613 0.950 . S
C4639 C4638 1.414 . S
C4639 C4640 1.374 . S
C4640 H4614 0.950 . S
C4640 C4636 1.385 . S
C4640 C4639 1.374 . S
C4641 C4638 1.499 . S
C4641 C4642 1.373 . S
C4641 C4643 1.389 . S
C4642 H4615 0.950 . S
C4642 C4628 1.377 . S
C4642 C4641 1.373 . S
C4643 C4627 1.377 . S
C4643 C4641 1.389 . S
C4643 C4644 1.524 . S
C4644 C4643 1.524 . S
C4644 C4645 1.397 . S
C4644 C4649 1.363 . S
C4645 H4616 0.950 . S
C4645 C4644 1.397 . S
C4645 C4646 1.334 . S
C4646 H4617 0.950 . S
C4646 C4645 1.334 . S
C4646 C4647 1.287 . S
C4647 C4646 1.287 . S
C4647 C4648 1.524 . S
C4647 H4650 0.999 . S
C4648 H4618 0.950 . S
C4648 C4647 1.524 . S
C4648 C4649 1.415 . S
C4649 H4619 0.950 . S
C4649 C4644 1.363 . S
C4649 C4648 1.415 . S
H4650 C4647 0.999 . S
H4651 C4632 0.913 . S
H4652 C4670 0.951 . S
H4653 C4672 0.951 . S
H4654 C4674 0.950 . S
H4655 C4675 0.950 . S
H4656 C4677 0.950 . S
H4657 C4680 0.950 . S
H4658 C4681 0.950 . S
H4659 C4683 0.950 . S
H4660 C4684 0.950 . S
H4661 C4685 0.951 . S
H4662 C4687 0.951 . S
H4663 C4689 0.951 . S
H4664 C4690 0.950 . S
H4665 C4692 0.950 . S
H4666 C4695 0.950 . S
H4667 C4696 0.950 . S
H4668 C4698 0.950 . S
H4669 C4699 0.950 . S
C4670 H4652 0.951 . S
C4670 C4671 1.366 . S
C4670 C4672 1.388 . S
C4671 C4670 1.366 . S
C4671 C4675 1.385 . S
C4672 H4653 0.951 . S
C4672 C4670 1.388 . S
C4672 C4673 1.366 . S
C4673 C4672 1.366 . S
C4673 C4674 1.414 . S
C4673 C4676 1.499 . S
C4674 H4654 0.950 . S
C4674 C4673 1.414 . S
C4674 C4675 1.374 . S
C4675 H4655 0.950 . S
C4675 C4671 1.385 . S
C4675 C4674 1.374 . S
C4676 C4673 1.499 . S
C4676 C4677 1.373 . S
C4676 C4678 1.389 1_545 S
C4677 H4656 0.950 . S
C4677 C4676 1.373 . S
C4677 C4693 1.377 . S
C4678 C4676 1.389 1_565 S
C4678 C4679 1.524 . S
C4678 C4692 1.377 . S
C4679 C4678 1.524 . S
C4679 C4680 1.397 . S
C4679 C4684 1.363 . S
C4680 H4657 0.950 . S
C4680 C4679 1.397 . S
C4680 C4681 1.334 . S
C4681 H4658 0.950 . S
C4681 C4680 1.334 . S
C4681 C4682 1.287 . S
C4682 C4681 1.287 . S
C4682 C4683 1.524 . S
C4682 H4701 0.913 . S
C4683 H4659 0.950 . S
C4683 C4682 1.524 . S
C4683 C4684 1.415 . S
C4684 H4660 0.950 . S
C4684 C4679 1.363 . S
C4684 C4683 1.415 . S
C4685 H4661 0.951 . S
C4685 C4686 1.364 . S
C4685 C4687 1.388 . S
C4686 C4685 1.364 . S
C4686 C4690 1.388 1_545 S
C4687 H4662 0.951 . S
C4687 C4685 1.388 . S
C4687 C4688 1.366 . S
C4688 C4687 1.366 . S
C4688 C4689 1.415 1_545 S
C4688 C4691 1.499 . S
C4689 H4663 0.951 . S
C4689 C4688 1.415 1_565 S
C4689 C4690 1.373 . S
C4690 H4664 0.950 . S
C4690 C4686 1.388 1_565 S
C4690 C4689 1.373 . S
C4691 C4688 1.499 . S
C4691 C4692 1.373 1_545 S
C4691 C4693 1.389 . S
C4692 H4665 0.950 . S
C4692 C4678 1.377 . S
C4692 C4691 1.373 1_565 S
C4693 C4677 1.377 . S
C4693 C4691 1.389 . S
C4693 C4694 1.524 . S
C4694 C4693 1.524 . S
C4694 C4695 1.397 . S
C4694 C4699 1.363 . S
C4695 H4666 0.950 . S
C4695 C4694 1.397 . S
C4695 C4696 1.334 . S
C4696 H4667 0.950 . S
C4696 C4695 1.334 . S
C4696 C4697 1.287 . S
C4697 C4696 1.287 . S
C4697 C4698 1.524 . S
C4697 H4700 0.999 . S
C4698 H4668 0.950 . S
C4698 C4697 1.524 . S
C4698 C4699 1.415 . S
C4699 H4669 0.950 . S
C4699 C4694 1.363 . S
C4699 C4698 1.415 . S
H4700 C4697 0.999 . S
H4701 C4682 0.913 . S
H4702 C4720 0.951 . S
H4703 C4722 0.951 . S
H4704 C4724 0.950 . S
H4705 C4725 0.950 . S
H4706 C4727 0.950 . S
H4707 C4730 0.950 . S
H4708 C4731 0.950 . S
H4709 C4733 0.950 . S
H4710 C4734 0.950 . S
H4711 C4735 0.951 . S
H4712 C4737 0.951 . S
H4713 C4739 0.950 . S
H4714 C4740 0.950 . S
H4715 C4742 0.950 . S
H4716 C4745 0.950 . S
H4717 C4746 0.950 . S
H4718 C4748 0.950 . S
H4719 C4749 0.950 . S
C4720 H4702 0.951 . S
C4720 C4721 1.366 . S
C4720 C4722 1.388 . S
C4721 C4720 1.366 . S
C4721 C4725 1.385 . S
C4722 H4703 0.951 . S
C4722 C4720 1.388 . S
C4722 C4723 1.366 . S
C4723 C4722 1.366 . S
C4723 C4724 1.414 . S
C4723 C4726 1.499 . S
C4724 H4704 0.950 . S
C4724 C4723 1.414 . S
C4724 C4725 1.374 . S
C4725 H4705 0.950 . S
C4725 C4721 1.385 . S
C4725 C4724 1.374 . S
C4726 C4723 1.499 . S
C4726 C4727 1.373 . S
C4726 C4728 1.389 . S
C4727 H4706 0.950 . S
C4727 C4726 1.373 . S
C4727 C4743 1.377 . S
C4728 C4726 1.389 . S
C4728 C4729 1.524 . S
C4728 C4742 1.377 . S
C4729 C4728 1.524 . S
C4729 C4730 1.397 . S
C4729 C4734 1.363 . S
C4730 H4707 0.950 . S
C4730 C4729 1.397 . S
C4730 C4731 1.334 . S
C4731 H4708 0.950 . S
C4731 C4730 1.334 . S
C4731 C4732 1.287 . S
C4732 C4731 1.287 . S
C4732 C4733 1.524 . S
C4732 H4751 0.913 . S
C4733 H4709 0.950 . S
C4733 C4732 1.524 . S
C4733 C4734 1.415 . S
C4734 H4710 0.950 . S
C4734 C4729 1.363 . S
C4734 C4733 1.415 . S
C4735 H4711 0.951 . S
C4735 C4736 1.366 . S
C4735 C4737 1.388 . S
C4736 C4735 1.366 . S
C4736 C4740 1.385 . S
C4737 H4712 0.951 . S
C4737 C4735 1.388 . S
C4737 C4738 1.366 . S
C4738 C4737 1.366 . S
C4738 C4739 1.414 . S
C4738 C4741 1.499 . S
C4739 H4713 0.950 . S
C4739 C4738 1.414 . S
C4739 C4740 1.374 . S
C4740 H4714 0.950 . S
C4740 C4736 1.385 . S
C4740 C4739 1.374 . S
C4741 C4738 1.499 . S
C4741 C4742 1.373 . S
C4741 C4743 1.389 . S
C4742 H4715 0.950 . S
C4742 C4728 1.377 . S
C4742 C4741 1.373 . S
C4743 C4727 1.377 . S
C4743 C4741 1.389 . S
C4743 C4744 1.524 . S
C4744 C4743 1.524 . S
C4744 C4745 1.397 . S
C4744 C4749 1.363 . S
C4745 H4716 0.950 . S
C4745 C4744 1.397 . S
C4745 C4746 1.334 . S
C4746 H4717 0.950 . S
C4746 C4745 1.334 . S
C4746 C4747 1.287 . S
C4747 C4746 1.287 . S
C4747 C4748 1.524 . S
C4747 H4750 0.999 . S
C4748 H4718 0.950 . S
C4748 C4747 1.524 . S
C4748 C4749 1.415 . S
C4749 H4719 0.950 . S
C4749 C4744 1.363 . S
C4749 C4748 1.415 . S
H4750 C4747 0.999 . S
H4751 C4732 0.913 . S
H4752 C4770 0.951 . S
H4753 C4772 0.951 . S
H4754 C4774 0.950 . S
H4755 C4775 0.950 . S
H4756 C4777 0.950 . S
H4757 C4780 0.950 . S
H4758 C4781 0.950 . S
H4759 C4783 0.950 . S
H4760 C4784 0.950 1_556 S
H4761 C4785 0.951 . S
H4762 C4787 0.951 . S
H4763 C4789 0.950 . S
H4764 C4790 0.950 . S
H4765 C4792 0.950 . S
H4766 C4795 0.950 . S
H4767 C4796 0.950 . S
H4768 C4798 0.950 . S
H4769 C4799 0.950 1_554 S
C4770 H4752 0.951 . S
C4770 C4771 1.366 1_556 S
C4770 C4772 1.388 . S
C4771 C4770 1.366 1_554 S
C4771 C4775 1.385 . S
C4772 H4753 0.951 . S
C4772 C4770 1.388 . S
C4772 C4773 1.366 1_556 S
C4773 C4772 1.366 1_554 S
C4773 C4774 1.414 . S
C4773 C4776 1.499 . S
C4774 H4754 0.950 . S
C4774 C4773 1.414 . S
C4774 C4775 1.374 . S
C4775 H4755 0.950 . S
C4775 C4771 1.385 . S
C4775 C4774 1.374 . S
C4776 C4773 1.499 . S
C4776 C4777 1.373 1_554 S
C4776 C4778 1.389 . S
C4777 H4756 0.950 . S
C4777 C4776 1.373 1_556 S
C4777 C4793 1.377 . S
C4778 C4776 1.389 . S
C4778 C4779 1.524 . S
C4778 C4792 1.377 . S
C4779 C4778 1.524 . S
C4779 C4780 1.397 . S
C4779 C4784 1.363 . S
C4780 H4757 0.950 . S
C4780 C4779 1.397 . S
C4780 C4781 1.334 . S
C4781 H4758 0.950 . S
C4781 C4780 1.334 . S
C4781 C4782 1.287 . S
C4782 C4781 1.287 . S
C4782 C4783 1.524 . S
C4782 H4801 0.913 . S
C4783 H4759 0.950 . S
C4783 C4782 1.524 . S
C4783 C4784 1.415 . S
C4784 H4760 0.950 1_554 S
C4784 C4779 1.363 . S
C4784 C4783 1.415 . S
C4785 H4761 0.951 . S
C4785 C4786 1.348 1_554 S
C4785 C4787 1.388 . S
C4786 C4785 1.348 1_556 S
C4786 C4790 1.404 . S
C4787 H4762 0.951 . S
C4787 C4785 1.388 . S
C4787 C4788 1.351 1_554 S
C4788 C4787 1.351 1_556 S
C4788 C4789 1.430 . S
C4788 C4791 1.498 . S
C4789 H4763 0.950 . S
C4789 C4788 1.430 . S
C4789 C4790 1.374 . S
C4790 H4764 0.950 . S
C4790 C4786 1.404 . S
C4790 C4789 1.374 . S
C4791 C4788 1.498 . S
C4791 C4792 1.356 1_556 S
C4791 C4793 1.404 . S
C4792 H4765 0.950 . S
C4792 C4778 1.377 . S
C4792 C4791 1.356 1_554 S
C4793 C4777 1.377 . S
C4793 C4791 1.404 . S
C4793 C4794 1.524 . S
C4794 C4793 1.524 . S
C4794 C4795 1.397 . S
C4794 C4799 1.363 . S
C4795 H4766 0.950 . S
C4795 C4794 1.397 . S
C4795 C4796 1.334 . S
C4796 H4767 0.950 . S
C4796 C4795 1.334 . S
C4796 C4797 1.287 . S
C4797 C4796 1.287 . S
C4797 C4798 1.524 . S
C4797 H4800 0.999 . S
C4798 H4768 0.950 . S
C4798 C4797 1.524 . S
C4798 C4799 1.415 . S
C4799 H4769 0.950 1_556 S
C4799 C4794 1.363 . S
C4799 C4798 1.415 . S
H4800 C4797 0.999 . S
H4801 C4782 0.913 . S
H4802 C4820 0.951 . S
H4803 C4822 0.951 . S
H4804 C4824 0.950 . S
H4805 C4825 0.950 . S
H4806 C4827 0.950 . S
H4807 C4830 0.950 . S
H4808 C4831 0.950 . S
H4809 C4833 0.950 . S
H4810 C4834 0.950 1_554 S
H4811 C4835 0.951 . S
H4812 C4837 0.951 . S
H4813 C4839 0.950 . S
H4814 C4840 0.950 . S
H4815 C4842 0.950 . S
H4816 C4845 0.950 . S
H4817 C4846 0.950 . S
H4818 C4848 0.950 . S
H4819 C4849 0.950 . S
C4820 H4802 0.951 . S
C4820 C4821 1.366 . S
C4820 C4822 1.388 . S
C4821 C4820 1.366 . S
C4821 C4825 1.385 . S
C4822 H4803 0.951 . S
C4822 C4820 1.388 . S
C4822 C4823 1.366 . S
C4823 C4822 1.366 . S
C4823 C4824 1.414 . S
C4823 C4826 1.499 . S
C4824 H4804 0.950 . S
C4824 C4823 1.414 . S
C4824 C4825 1.374 . S
C4825 H4805 0.950 . S
C4825 C4821 1.385 . S
C4825 C4824 1.374 . S
C4826 C4823 1.499 . S
C4826 C4827 1.373 . S
C4826 C4828 1.389 . S
C4827 H4806 0.950 . S
C4827 C4826 1.373 . S
C4827 C4843 1.377 . S
C4828 C4826 1.389 . S
C4828 C4829 1.524 1_554 S
C4828 C4842 1.377 . S
C4829 C4828 1.524 1_556 S
C4829 C4830 1.397 . S
C4829 C4834 1.363 . S
C4830 H4807 0.950 . S
C4830 C4829 1.397 . S
C4830 C4831 1.334 . S
C4831 H4808 0.950 . S
C4831 C4830 1.334 . S
C4831 C4832 1.287 . S
C4832 C4831 1.287 . S
C4832 C4833 1.524 . S
C4832 H4851 0.913 . S
C4833 H4809 0.950 . S
C4833 C4832 1.524 . S
C4833 C4834 1.415 . S
C4834 H4810 0.950 1_556 S
C4834 C4829 1.363 . S
C4834 C4833 1.415 . S
C4835 H4811 0.951 . S
C4835 C4836 1.366 . S
C4835 C4837 1.388 . S
C4836 C4835 1.366 . S
C4836 C4840 1.385 . S
C4837 H4812 0.951 . S
C4837 C4835 1.388 . S
C4837 C4838 1.366 . S
C4838 C4837 1.366 . S
C4838 C4839 1.414 . S
C4838 C4841 1.499 . S
C4839 H4813 0.950 . S
C4839 C4838 1.414 . S
C4839 C4840 1.374 . S
C4840 H4814 0.950 . S
C4840 C4836 1.385 . S
C4840 C4839 1.374 . S
C4841 C4838 1.499 . S
C4841 C4842 1.373 . S
C4841 C4843 1.389 . S
C4842 H4815 0.950 . S
C4842 C4828 1.377 . S
C4842 C4841 1.373 . S
C4843 C4827 1.377 . S
C4843 C4841 1.389 . S
C4843 C4844 1.524 . S
C4844 C4843 1.524 . S
C4844 C4845 1.397 . S
C4844 C4849 1.363 . S
C4845 H4816 0.950 . S
C4845 C4844 1.397 . S
C4845 C4846 1.334 . S
C4846 H4817 0.950 . S
C4846 C4845 1.334 . S
C4846 C4847 1.287 . S
C4847 C4846 1.287 . S
C4847 C4848 1.524 . S
C4847 H4850 0.999 . S
C4848 H4818 0.950 . S
C4848 C4847 1.524 . S
C4848 C4849 1.415 . S
C4849 H4819 0.950 . S
C4849 C4844 1.363 . S
C4849 C4848 1.415 . S
H4850 C4847 0.999 . S
H4851 C4832 0.913 . S
H4852 C4870 0.951 . S
H4853 C4872 0.951 . S
H4854 C4874 0.950 . S
H4855 C4875 0.950 . S
H4856 C4877 0.950 . S
H4857 C4880 0.950 . S
H4858 C4881 0.950 . S
H4859 C4883 0.950 . S
H4860 C4884 0.950 . S
H4861 C4885 0.951 . S
H4862 C4887 0.951 . S
H4863 C4889 0.950 . S
H4864 C4890 0.950 . S
H4865 C4892 0.950 . S
H4866 C4895 0.950 . S
H4867 C4896 0.950 . S
H4868 C4898 0.950 . S
H4869 C4899 0.950 . S
C4870 H4852 0.951 . S
C4870 C4871 1.366 . S
C4870 C4872 1.388 . S
C4871 C4870 1.366 . S
C4871 C4875 1.385 . S
C4872 H4853 0.951 . S
C4872 C4870 1.388 . S
C4872 C4873 1.366 . S
C4873 C4872 1.366 . S
C4873 C4874 1.414 . S
C4873 C4876 1.499 . S
C4874 H4854 0.950 . S
C4874 C4873 1.414 . S
C4874 C4875 1.374 . S
C4875 H4855 0.950 . S
C4875 C4871 1.385 . S
C4875 C4874 1.374 . S
C4876 C4873 1.499 . S
C4876 C4877 1.373 . S
C4876 C4878 1.389 . S
C4877 H4856 0.950 . S
C4877 C4876 1.373 . S
C4877 C4893 1.377 . S
C4878 C4876 1.389 . S
C4878 C4879 1.524 . S
C4878 C4892 1.377 . S
C4879 C4878 1.524 . S
C4879 C4880 1.397 . S
C4879 C4884 1.363 . S
C4880 H4857 0.950 . S
C4880 C4879 1.397 . S
C4880 C4881 1.334 . S
C4881 H4858 0.950 . S
C4881 C4880 1.334 . S
C4881 C4882 1.287 . S
C4882 C4881 1.287 . S
C4882 C4883 1.524 . S
C4882 H4901 0.913 . S
C4883 H4859 0.950 . S
C4883 C4882 1.524 . S
C4883 C4884 1.415 . S
C4884 H4860 0.950 . S
C4884 C4879 1.363 . S
C4884 C4883 1.415 . S
C4885 H4861 0.951 . S
C4885 C4886 1.366 . S
C4885 C4887 1.388 . S
C4886 C4885 1.366 . S
C4886 C4890 1.385 . S
C4887 H4862 0.951 . S
C4887 C4885 1.388 . S
C4887 C4888 1.366 . S
C4888 C4887 1.366 . S
C4888 C4889 1.414 . S
C4888 C4891 1.499 . S
C4889 H4863 0.950 . S
C4889 C4888 1.414 . S
C4889 C4890 1.374 . S
C4890 H4864 0.950 . S
C4890 C4886 1.385 . S
C4890 C4889 1.374 . S
C4891 C4888 1.499 . S
C4891 C4892 1.373 . S
C4891 C4893 1.389 . S
C4892 H4865 0.950 . S
C4892 C4878 1.377 . S
C4892 C4891 1.373 . S
C4893 C4877 1.377 . S
C4893 C4891 1.389 . S
C4893 C4894 1.524 . S
C4894 C4893 1.524 . S
C4894 C4895 1.397 . S
C4894 C4899 1.363 . S
C4895 H4866 0.950 . S
C4895 C4894 1.397 . S
C4895 C4896 1.334 . S
C4896 H4867 0.950 . S
C4896 C4895 1.334 . S
C4896 C4897 1.287 . S
C4897 C4896 1.287 . S
C4897 C4898 1.524 . S
C4897 H4900 0.999 . S
C4898 H4868 0.950 . S
C4898 C4897 1.524 . S
C4898 C4899 1.415 . S
C4899 H4869 0.950 . S
C4899 C4894 1.363 . S
C4899 C4898 1.415 . S
H4900 C4897 0.999 . S
H4901 C4882 0.913 . S
H4902 C4920 0.951 . S
H4903 C4922 0.951 . S
H4904 C4924 0.950 . S
H4905 C4925 0.950 . S
H4906 C4927 0.950 . S
H4907 C4930 0.950 . S
H4908 C4931 0.950 . S
H4909 C4933 0.950 . S
H4910 C4934 0.950 . S
H4911 C4935 0.951 . S
H4912 C4937 0.951 . S
H4913 C4939 0.950 . S
H4914 C4940 0.950 . S
H4915 C4942 0.950 . S
H4916 C4945 0.950 . S
H4917 C4946 0.950 . S
H4918 C4948 0.950 . S
H4919 C4949 0.950 . S
C4920 H4902 0.951 . S
C4920 C4921 1.366 . S
C4920 C4922 1.388 . S
C4921 C4920 1.366 . S
C4921 C4925 1.385 . S
C4922 H4903 0.951 . S
C4922 C4920 1.388 . S
C4922 C4923 1.366 . S
C4923 C4922 1.366 . S
C4923 C4924 1.414 . S
C4923 C4926 1.499 . S
C4924 H4904 0.950 . S
C4924 C4923 1.414 . S
C4924 C4925 1.374 . S
C4925 H4905 0.950 . S
C4925 C4921 1.385 . S
C4925 C4924 1.374 . S
C4926 C4923 1.499 . S
C4926 C4927 1.373 . S
C4926 C4928 1.389 . S
C4927 H4906 0.950 . S
C4927 C4926 1.373 . S
C4927 C4943 1.377 . S
C4928 C4926 1.389 . S
C4928 C4929 1.524 . S
C4928 C4942 1.377 . S
C4929 C4928 1.524 . S
C4929 C4930 1.397 . S
C4929 C4934 1.363 . S
C4930 H4907 0.950 . S
C4930 C4929 1.397 . S
C4930 C4931 1.334 . S
C4931 H4908 0.950 . S
C4931 C4930 1.334 . S
C4931 C4932 1.287 . S
C4932 C4931 1.287 . S
C4932 C4933 1.524 . S
C4932 H4951 0.913 . S
C4933 H4909 0.950 . S
C4933 C4932 1.524 . S
C4933 C4934 1.415 . S
C4934 H4910 0.950 . S
C4934 C4929 1.363 . S
C4934 C4933 1.415 . S
C4935 H4911 0.951 . S
C4935 C4936 1.366 . S
C4935 C4937 1.388 . S
C4936 C4935 1.366 . S
C4936 C4940 1.385 . S
C4937 H4912 0.951 . S
C4937 C4935 1.388 . S
C4937 C4938 1.366 . S
C4938 C4937 1.366 . S
C4938 C4939 1.414 . S
C4938 C4941 1.499 . S
C4939 H4913 0.950 . S
C4939 C4938 1.414 . S
C4939 C4940 1.374 . S
C4940 H4914 0.950 . S
C4940 C4936 1.385 . S
C4940 C4939 1.374 . S
C4941 C4938 1.499 . S
C4941 C4942 1.373 . S
C4941 C4943 1.389 . S
C4942 H4915 0.950 . S
C4942 C4928 1.377 . S
C4942 C4941 1.373 . S
C4943 C4927 1.377 . S
C4943 C4941 1.389 . S
C4943 C4944 1.524 . S
C4944 C4943 1.524 . S
C4944 C4945 1.397 . S
C4944 C4949 1.363 . S
C4945 H4916 0.950 . S
C4945 C4944 1.397 . S
C4945 C4946 1.334 . S
C4946 H4917 0.950 . S
C4946 C4945 1.334 . S
C4946 C4947 1.287 . S
C4947 C4946 1.287 . S
C4947 C4948 1.524 . S
C4947 H4950 0.999 . S
C4948 H4918 0.950 . S
C4948 C4947 1.524 . S
C4948 C4949 1.415 . S
C4949 H4919 0.950 . S
C4949 C4944 1.363 . S
C4949 C4948 1.415 . S
H4950 C4947 0.999 . S
H4951 C4932 0.913 . S
H4952 C4970 0.951 . S
H4953 C4972 0.951 . S
H4954 C4974 0.950 . S
H4955 C4975 0.950 . S
H4956 C4977 0.950 . S
H4957 C4980 0.950 . S
H4958 C4981 0.950 . S
H4959 C4983 0.950 . S
H4960 C4984 0.950 . S
H4961 C4985 0.951 . S
H4962 C4987 0.951 . S
H4963 C4989 0.950 . S
H4964 C4990 0.950 . S
H4965 C4992 0.950 . S
H4966 C4995 0.950 . S
H4967 C4996 0.950 . S
H4968 C4998 0.950 . S
H4969 C4999 0.950 . S
C4970 H4952 0.951 . S
C4970 C4971 1.366 . S
C4970 C4972 1.388 . S
C4971 C4970 1.366 . S
C4971 C4975 1.385 . S
C4972 H4953 0.951 . S
C4972 C4970 1.388 . S
C4972 C4973 1.366 . S
C4973 C4972 1.366 . S
C4973 C4974 1.414 . S
C4973 C4976 1.499 . S
C4974 H4954 0.950 . S
C4974 C4973 1.414 . S
C4974 C4975 1.374 . S
C4975 H4955 0.950 . S
C4975 C4971 1.385 . S
C4975 C4974 1.374 . S
C4976 C4973 1.499 . S
C4976 C4977 1.373 . S
C4976 C4978 1.389 . S
C4977 H4956 0.950 . S
C4977 C4976 1.373 . S
C4977 C4993 1.377 . S
C4978 C4976 1.389 . S
C4978 C4979 1.524 . S
C4978 C4992 1.377 . S
C4979 C4978 1.524 . S
C4979 C4980 1.397 . S
C4979 C4984 1.363 . S
C4980 H4957 0.950 . S
C4980 C4979 1.397 . S
C4980 C4981 1.334 . S
C4981 H4958 0.950 . S
C4981 C4980 1.334 . S
C4981 C4982 1.287 . S
C4982 C4981 1.287 . S
C4982 C4983 1.524 . S
C4982 H5001 0.913 . S
C4983 H4959 0.950 . S
C4983 C4982 1.524 . S
C4983 C4984 1.415 . S
C4984 H4960 0.950 . S
C4984 C4979 1.363 . S
C4984 C4983 1.415 . S
C4985 H4961 0.951 . S
C4985 C4986 1.366 . S
C4985 C4987 1.388 . S
C4986 C4985 1.366 . S
C4986 C4990 1.385 . S
C4987 H4962 0.951 . S
C4987 C4985 1.388 . S
C4987 C4988 1.366 . S
C4988 C4987 1.366 . S
C4988 C4989 1.414 . S
C4988 C4991 1.499 . S
C4989 H4963 0.950 . S
C4989 C4988 1.414 . S
C4989 C4990 1.374 . S
C4990 H4964 0.950 . S
C4990 C4986 1.385 . S
C4990 C4989 1.374 . S
C4991 C4988 1.499 . S
C4991 C4992 1.373 . S
C4991 C4993 1.389 . S
C4992 H4965 0.950 . S
C4992 C4978 1.377 . S
C4992 C4991 1.373 . S
C4993 C4977 1.377 . S
C4993 C4991 1.389 . S
C4993 C4994 1.524 . S
C4994 C4993 1.524 . S
C4994 C4995 1.397 . S
C4994 C4999 1.363 . S
C4995 H4966 0.950 . S
C4995 C4994 1.397 . S
C4995 C4996 1.334 . S
C4996 H4967 0.950 . S
C4996 C4995 1.334 . S
C4996 C4997 1.287 . S
C4997 C4996 1.287 . S
C4997 C4998 1.524 . S
C4997 H5000 0.999 . S
C4998 H4968 0.950 . S
C4998 C4997 1.524 . S
C4998 C4999 1.415 . S
C4999 H4969 0.950 . S
C4999 C4994 1.363 . S
C4999 C4998 1.415 . S
H5000 C4997 0.999 . S
H5001 C4982 0.913 . S
H5002 C5020 0.951 . S
H5003 C5022 0.951 . S
H5004 C5024 0.950 . S
H5005 C5025 0.950 . S
H5006 C5027 0.950 . S
H5007 C5030 0.950 . S
H5008 C5031 0.950 . S
H5009 C5033 0.950 . S
H5010 C5034 0.950 . S
H5011 C5035 0.951 . S
H5012 C5037 0.951 . S
H5013 C5039 0.950 . S
H5014 C5040 0.950 . S
H5015 C5042 0.950 . S
H5016 C5045 0.950 . S
H5017 C5046 0.950 . S
H5018 C5048 0.950 . S
H5019 C5049 0.950 . S
C5020 H5002 0.951 . S
C5020 C5021 1.366 . S
C5020 C5022 1.388 . S
C5021 C5020 1.366 . S
C5021 C5025 1.385 . S
C5022 H5003 0.951 . S
C5022 C5020 1.388 . S
C5022 C5023 1.366 . S
C5023 C5022 1.366 . S
C5023 C5024 1.414 . S
C5023 C5026 1.499 . S
C5024 H5004 0.950 . S
C5024 C5023 1.414 . S
C5024 C5025 1.374 . S
C5025 H5005 0.950 . S
C5025 C5021 1.385 . S
C5025 C5024 1.374 . S
C5026 C5023 1.499 . S
C5026 C5027 1.373 . S
C5026 C5028 1.389 . S
C5027 H5006 0.950 . S
C5027 C5026 1.373 . S
C5027 C5043 1.377 . S
C5028 C5026 1.389 . S
C5028 C5029 1.524 . S
C5028 C5042 1.377 . S
C5029 C5028 1.524 . S
C5029 C5030 1.397 . S
C5029 C5034 1.363 . S
C5030 H5007 0.950 . S
C5030 C5029 1.397 . S
C5030 C5031 1.334 . S
C5031 H5008 0.950 . S
C5031 C5030 1.334 . S
C5031 C5032 1.287 . S
C5032 C5031 1.287 . S
C5032 C5033 1.524 . S
C5032 H5051 0.913 . S
C5033 H5009 0.950 . S
C5033 C5032 1.524 . S
C5033 C5034 1.415 . S
C5034 H5010 0.950 . S
C5034 C5029 1.363 . S
C5034 C5033 1.415 . S
C5035 H5011 0.951 . S
C5035 C5036 1.366 . S
C5035 C5037 1.388 . S
C5036 C5035 1.366 . S
C5036 C5040 1.385 . S
C5037 H5012 0.951 . S
C5037 C5035 1.388 . S
C5037 C5038 1.366 . S
C5038 C5037 1.366 . S
C5038 C5039 1.414 . S
C5038 C5041 1.499 . S
C5039 H5013 0.950 . S
C5039 C5038 1.414 . S
C5039 C5040 1.374 . S
C5040 H5014 0.950 . S
C5040 C5036 1.385 . S
C5040 C5039 1.374 . S
C5041 C5038 1.499 . S
C5041 C5042 1.373 . S
C5041 C5043 1.389 . S
C5042 H5015 0.950 . S
C5042 C5028 1.377 . S
C5042 C5041 1.373 . S
C5043 C5027 1.377 . S
C5043 C5041 1.389 . S
C5043 C5044 1.524 . S
C5044 C5043 1.524 . S
C5044 C5045 1.397 . S
C5044 C5049 1.363 . S
C5045 H5016 0.950 . S
C5045 C5044 1.397 . S
C5045 C5046 1.334 . S
C5046 H5017 0.950 . S
C5046 C5045 1.334 . S
C5046 C5047 1.287 . S
C5047 C5046 1.287 . S
C5047 C5048 1.524 . S
C5047 H5050 0.999 . S
C5048 H5018 0.950 . S
C5048 C5047 1.524 . S
C5048 C5049 1.415 . S
C5049 H5019 0.950 . S
C5049 C5044 1.363 . S
C5049 C5048 1.415 . S
H5050 C5047 0.999 . S
H5051 C5032 0.913 . S
H5052 C5070 0.951 . S
H5053 C5072 0.951 . S
H5054 C5074 0.950 . S
H5055 C5075 0.950 . S
H5056 C5077 0.950 . S
H5057 C5080 0.950 . S
H5058 C5081 0.950 . S
H5059 C5083 0.950 . S
H5060 C5084 0.950 . S
H5061 C5085 0.951 . S
H5062 C5087 0.951 . S
H5063 C5089 0.950 . S
H5064 C5090 0.950 . S
H5065 C5092 0.950 . S
H5066 C5095 0.950 . S
H5067 C5096 0.950 . S
H5068 C5098 0.950 . S
H5069 C5099 0.950 . S
C5070 H5052 0.951 . S
C5070 C5071 1.366 . S
C5070 C5072 1.388 . S
C5071 C5070 1.366 . S
C5071 C5075 1.385 . S
C5072 H5053 0.951 . S
C5072 C5070 1.388 . S
C5072 C5073 1.366 . S
C5073 C5072 1.366 . S
C5073 C5074 1.414 . S
C5073 C5076 1.499 . S
C5074 H5054 0.950 . S
C5074 C5073 1.414 . S
C5074 C5075 1.374 . S
C5075 H5055 0.950 . S
C5075 C5071 1.385 . S
C5075 C5074 1.374 . S
C5076 C5073 1.499 . S
C5076 C5077 1.373 . S
C5076 C5078 1.389 . S
C5077 H5056 0.950 . S
C5077 C5076 1.373 . S
C5077 C5093 1.377 . S
C5078 C5076 1.389 . S
C5078 C5079 1.524 . S
C5078 C5092 1.377 . S
C5079 C5078 1.524 . S
C5079 C5080 1.397 . S
C5079 C5084 1.363 . S
C5080 H5057 0.950 . S
C5080 C5079 1.397 . S
C5080 C5081 1.334 . S
C5081 H5058 0.950 . S
C5081 C5080 1.334 . S
C5081 C5082 1.287 . S
C5082 C5081 1.287 . S
C5082 C5083 1.524 . S
C5082 H5101 0.913 . S
C5083 H5059 0.950 . S
C5083 C5082 1.524 . S
C5083 C5084 1.415 . S
C5084 H5060 0.950 . S
C5084 C5079 1.363 . S
C5084 C5083 1.415 . S
C5085 H5061 0.951 . S
C5085 C5086 1.366 . S
C5085 C5087 1.388 . S
C5086 C5085 1.366 . S
C5086 C5090 1.385 . S
C5087 H5062 0.951 . S
C5087 C5085 1.388 . S
C5087 C5088 1.366 . S
C5088 C5087 1.366 . S
C5088 C5089 1.414 . S
C5088 C5091 1.499 . S
C5089 H5063 0.950 . S
C5089 C5088 1.414 . S
C5089 C5090 1.374 . S
C5090 H5064 0.950 . S
C5090 C5086 1.385 . S
C5090 C5089 1.374 . S
C5091 C5088 1.499 . S
C5091 C5092 1.373 . S
C5091 C5093 1.389 . S
C5092 H5065 0.950 . S
C5092 C5078 1.377 . S
C5092 C5091 1.373 . S
C5093 C5077 1.377 . S
C5093 C5091 1.389 . S
C5093 C5094 1.524 . S
C5094 C5093 1.524 . S
C5094 C5095 1.397 . S
C5094 C5099 1.363 . S
C5095 H5066 0.950 . S
C5095 C5094 1.397 . S
C5095 C5096 1.334 . S
C5096 H5067 0.950 . S
C5096 C5095 1.334 . S
C5096 C5097 1.287 . S
C5097 C5096 1.287 . S
C5097 C5098 1.524 . S
C5097 H5100 0.999 . S
C5098 H5068 0.950 . S
C5098 C5097 1.524 . S
C5098 C5099 1.415 . S
C5099 H5069 0.950 . S
C5099 C5094 1.363 . S
C5099 C5098 1.415 . S
H5100 C5097 0.999 . S
H5101 C5082 0.913 . S
H5102 C5120 0.951 . S
H5103 C5122 0.951 . S
H5104 C5124 0.950 . S
H5105 C5125 0.950 . S
H5106 C5127 0.950 . S
H5107 C5130 0.950 . S
H5108 C5131 0.950 . S
H5109 C5133 0.950 . S
H5110 C5134 0.950 . S
H5111 C5135 0.951 . S
H5112 C5137 0.951 . S
H5113 C5139 0.950 . S
H5114 C5140 0.950 . S
H5115 C5142 0.950 . S
H5116 C5145 0.950 . S
H5117 C5146 0.950 . S
H5118 C5148 0.950 . S
H5119 C5149 0.950 . S
C5120 H5102 0.951 . S
C5120 C5121 1.366 . S
C5120 C5122 1.388 . S
C5121 C5120 1.366 . S
C5121 C5125 1.385 . S
C5122 H5103 0.951 . S
C5122 C5120 1.388 . S
C5122 C5123 1.366 . S
C5123 C5122 1.366 . S
C5123 C5124 1.414 . S
C5123 C5126 1.499 . S
C5124 H5104 0.950 . S
C5124 C5123 1.414 . S
C5124 C5125 1.374 . S
C5125 H5105 0.950 . S
C5125 C5121 1.385 . S
C5125 C5124 1.374 . S
C5126 C5123 1.499 . S
C5126 C5127 1.373 . S
C5126 C5128 1.389 . S
C5127 H5106 0.950 . S
C5127 C5126 1.373 . S
C5127 C5143 1.377 . S
C5128 C5126 1.389 . S
C5128 C5129 1.524 . S
C5128 C5142 1.377 . S
C5129 C5128 1.524 . S
C5129 C5130 1.397 . S
C5129 C5134 1.363 . S
C5130 H5107 0.950 . S
C5130 C5129 1.397 . S
C5130 C5131 1.334 . S
C5131 H5108 0.950 . S
C5131 C5130 1.334 . S
C5131 C5132 1.287 . S
C5132 C5131 1.287 . S
C5132 C5133 1.524 . S
C5132 H5151 0.913 . S
C5133 H5109 0.950 . S
C5133 C5132 1.524 . S
C5133 C5134 1.415 . S
C5134 H5110 0.950 . S
C5134 C5129 1.363 . S
C5134 C5133 1.415 . S
C5135 H5111 0.951 . S
C5135 C5136 1.366 . S
C5135 C5137 1.388 . S
C5136 C5135 1.366 . S
C5136 C5140 1.385 . S
C5137 H5112 0.951 . S
C5137 C5135 1.388 . S
C5137 C5138 1.366 . S
C5138 C5137 1.366 . S
C5138 C5139 1.414 . S
C5138 C5141 1.499 . S
C5139 H5113 0.950 . S
C5139 C5138 1.414 . S
C5139 C5140 1.374 . S
C5140 H5114 0.950 . S
C5140 C5136 1.385 . S
C5140 C5139 1.374 . S
C5141 C5138 1.499 . S
C5141 C5142 1.373 . S
C5141 C5143 1.389 . S
C5142 H5115 0.950 . S
C5142 C5128 1.377 . S
C5142 C5141 1.373 . S
C5143 C5127 1.377 . S
C5143 C5141 1.389 . S
C5143 C5144 1.524 . S
C5144 C5143 1.524 . S
C5144 C5145 1.397 . S
C5144 C5149 1.363 . S
C5145 H5116 0.950 . S
C5145 C5144 1.397 . S
C5145 C5146 1.334 . S
C5146 H5117 0.950 . S
C5146 C5145 1.334 . S
C5146 C5147 1.287 . S
C5147 C5146 1.287 . S
C5147 C5148 1.524 . S
C5147 H5150 0.999 . S
C5148 H5118 0.950 . S
C5148 C5147 1.524 . S
C5148 C5149 1.415 . S
C5149 H5119 0.950 . S
C5149 C5144 1.363 . S
C5149 C5148 1.415 . S
H5150 C5147 0.999 . S
H5151 C5132 0.913 . S
H5152 C5170 0.951 . S
H5153 C5172 0.951 . S
H5154 C5174 0.950 . S
H5155 C5175 0.950 . S
H5156 C5177 0.950 . S
H5157 C5180 0.950 . S
H5158 C5181 0.950 . S
H5159 C5183 0.950 . S
H5160 C5184 0.950 . S
H5161 C5185 0.951 . S
H5162 C5187 0.951 . S
H5163 C5189 0.950 . S
H5164 C5190 0.950 . S
H5165 C5192 0.950 . S
H5166 C5195 0.950 . S
H5167 C5196 0.950 . S
H5168 C5198 0.950 . S
H5169 C5199 0.950 . S
C5170 H5152 0.951 . S
C5170 C5171 1.366 . S
C5170 C5172 1.388 . S
C5171 C5170 1.366 . S
C5171 C5175 1.385 . S
C5172 H5153 0.951 . S
C5172 C5170 1.388 . S
C5172 C5173 1.366 . S
C5173 C5172 1.366 . S
C5173 C5174 1.414 . S
C5173 C5176 1.499 . S
C5174 H5154 0.950 . S
C5174 C5173 1.414 . S
C5174 C5175 1.374 . S
C5175 H5155 0.950 . S
C5175 C5171 1.385 . S
C5175 C5174 1.374 . S
C5176 C5173 1.499 . S
C5176 C5177 1.373 . S
C5176 C5178 1.389 . S
C5177 H5156 0.950 . S
C5177 C5176 1.373 . S
C5177 C5193 1.377 . S
C5178 C5176 1.389 . S
C5178 C5179 1.524 . S
C5178 C5192 1.377 . S
C5179 C5178 1.524 . S
C5179 C5180 1.397 . S
C5179 C5184 1.363 . S
C5180 H5157 0.950 . S
C5180 C5179 1.397 . S
C5180 C5181 1.334 . S
C5181 H5158 0.950 . S
C5181 C5180 1.334 . S
C5181 C5182 1.287 . S
C5182 C5181 1.287 . S
C5182 C5183 1.524 . S
C5182 H5201 0.913 . S
C5183 H5159 0.950 . S
C5183 C5182 1.524 . S
C5183 C5184 1.415 . S
C5184 H5160 0.950 . S
C5184 C5179 1.363 . S
C5184 C5183 1.415 . S
C5185 H5161 0.951 . S
C5185 C5186 1.366 . S
C5185 C5187 1.388 . S
C5186 C5185 1.366 . S
C5186 C5190 1.385 . S
C5187 H5162 0.951 . S
C5187 C5185 1.388 . S
C5187 C5188 1.366 . S
C5188 C5187 1.366 . S
C5188 C5189 1.414 . S
C5188 C5191 1.499 . S
C5189 H5163 0.950 . S
C5189 C5188 1.414 . S
C5189 C5190 1.374 . S
C5190 H5164 0.950 . S
C5190 C5186 1.385 . S
C5190 C5189 1.374 . S
C5191 C5188 1.499 . S
C5191 C5192 1.373 . S
C5191 C5193 1.389 . S
C5192 H5165 0.950 . S
C5192 C5178 1.377 . S
C5192 C5191 1.373 . S
C5193 C5177 1.377 . S
C5193 C5191 1.389 . S
C5193 C5194 1.524 . S
C5194 C5193 1.524 . S
C5194 C5195 1.397 . S
C5194 C5199 1.363 . S
C5195 H5166 0.950 . S
C5195 C5194 1.397 . S
C5195 C5196 1.334 . S
C5196 H5167 0.950 . S
C5196 C5195 1.334 . S
C5196 C5197 1.287 . S
C5197 C5196 1.287 . S
C5197 C5198 1.524 . S
C5197 H5200 0.999 . S
C5198 H5168 0.950 . S
C5198 C5197 1.524 . S
C5198 C5199 1.415 . S
C5199 H5169 0.950 . S
C5199 C5194 1.363 . S
C5199 C5198 1.415 . S
H5200 C5197 0.999 . S
H5201 C5182 0.913 . S
H5202 C5220 0.951 . S
H5203 C5222 0.951 . S
H5204 C5224 0.950 . S
H5205 C5225 0.950 . S
H5206 C5227 0.950 . S
H5207 C5230 0.950 . S
H5208 C5231 0.950 . S
H5209 C5233 0.950 . S
H5210 C5234 0.950 . S
H5211 C5235 0.951 . S
H5212 C5237 0.951 . S
H5213 C5239 0.950 . S
H5214 C5240 0.950 . S
H5215 C5242 0.950 . S
H5216 C5245 0.950 . S
H5217 C5246 0.950 . S
H5218 C5248 0.950 . S
H5219 C5249 0.950 . S
C5220 H5202 0.951 . S
C5220 C5221 1.366 . S
C5220 C5222 1.388 . S
C5221 C5220 1.366 . S
C5221 C5225 1.385 . S
C5222 H5203 0.951 . S
C5222 C5220 1.388 . S
C5222 C5223 1.366 . S
C5223 C5222 1.366 . S
C5223 C5224 1.414 . S
C5223 C5226 1.499 . S
C5224 H5204 0.950 . S
C5224 C5223 1.414 . S
C5224 C5225 1.374 . S
C5225 H5205 0.950 . S
C5225 C5221 1.385 . S
C5225 C5224 1.374 . S
C5226 C5223 1.499 . S
C5226 C5227 1.373 . S
C5226 C5228 1.389 . S
C5227 H5206 0.950 . S
C5227 C5226 1.373 . S
C5227 C5243 1.377 . S
C5228 C5226 1.389 . S
C5228 C5229 1.524 . S
C5228 C5242 1.377 . S
C5229 C5228 1.524 . S
C5229 C5230 1.397 . S
C5229 C5234 1.363 . S
C5230 H5207 0.950 . S
C5230 C5229 1.397 . S
C5230 C5231 1.334 . S
C5231 H5208 0.950 . S
C5231 C5230 1.334 . S
C5231 C5232 1.287 . S
C5232 C5231 1.287 . S
C5232 C5233 1.524 . S
C5232 H5251 0.913 . S
C5233 H5209 0.950 . S
C5233 C5232 1.524 . S
C5233 C5234 1.415 . S
C5234 H5210 0.950 . S
C5234 C5229 1.363 . S
C5234 C5233 1.415 . S
C5235 H5211 0.951 . S
C5235 C5236 1.366 . S
C5235 C5237 1.388 . S
C5236 C5235 1.366 . S
C5236 C5240 1.385 . S
C5237 H5212 0.951 . S
C5237 C5235 1.388 . S
C5237 C5238 1.366 . S
C5238 C5237 1.366 . S
C5238 C5239 1.414 . S
C5238 C5241 1.499 . S
C5239 H5213 0.950 . S
C5239 C5238 1.414 . S
C5239 C5240 1.374 . S
C5240 H5214 0.950 . S
C5240 C5236 1.385 . S
C5240 C5239 1.374 . S
C5241 C5238 1.499 . S
C5241 C5242 1.373 . S
C5241 C5243 1.389 . S
C5242 H5215 0.950 . S
C5242 C5228 1.377 . S
C5242 C5241 1.373 . S
C5243 C5227 1.377 . S
C5243 C5241 1.389 . S
C5243 C5244 1.524 . S
C5244 C5243 1.524 . S
C5244 C5245 1.397 . S
C5244 C5249 1.363 . S
C5245 H5216 0.950 . S
C5245 C5244 1.397 . S
C5245 C5246 1.334 . S
C5246 H5217 0.950 . S
C5246 C5245 1.334 . S
C5246 C5247 1.287 . S
C5247 C5246 1.287 . S
C5247 C5248 1.524 . S
C5247 H5250 0.999 . S
C5248 H5218 0.950 . S
C5248 C5247 1.524 . S
C5248 C5249 1.415 . S
C5249 H5219 0.950 . S
C5249 C5244 1.363 . S
C5249 C5248 1.415 . S
H5250 C5247 0.999 . S
H5251 C5232 0.913 . S
H5252 C5270 0.951 1_655 S
H5253 C5272 0.951 1_655 S
H5254 C5274 0.950 . S
H5255 C5275 0.950 . S
H5256 C5277 0.950 . S
H5257 C5280 0.950 . S
H5258 C5281 0.950 . S
H5259 C5283 0.950 . S
H5260 C5284 0.950 . S
H5261 C5285 0.950 1_554 S
H5262 C5287 0.951 . S
H5263 C5289 0.966 . S
H5264 C5290 0.950 . S
H5265 C5292 0.950 . S
H5266 C5295 0.950 . S
H5267 C5296 0.950 . S
H5268 C5298 0.950 . S
H5269 C5299 0.979 . S
C5270 H5252 0.951 1_455 S
C5270 C5271 1.366 . S
C5270 C5272 1.388 . S
C5271 C5270 1.366 . S
C5271 C5275 1.385 . S
C5272 H5253 0.951 1_455 S
C5272 C5270 1.388 . S
C5272 C5273 1.366 . S
C5273 C5272 1.366 . S
C5273 C5274 1.414 . S
C5273 C5276 1.499 . S
C5274 H5254 0.950 . S
C5274 C5273 1.414 . S
C5274 C5275 1.374 . S
C5275 H5255 0.950 . S
C5275 C5271 1.385 . S
C5275 C5274 1.374 . S
C5276 C5273 1.499 . S
C5276 C5277 1.373 . S
C5276 C5278 1.389 . S
C5277 H5256 0.950 . S
C5277 C5276 1.373 . S
C5277 C5293 1.377 . S
C5278 C5276 1.389 . S
C5278 C5279 1.524 . S
C5278 C5292 1.377 . S
C5279 C5278 1.524 . S
C5279 C5280 1.397 . S
C5279 C5284 1.363 1_455 S
C5280 H5257 0.950 . S
C5280 C5279 1.397 . S
C5280 C5281 1.334 . S
C5281 H5258 0.950 . S
C5281 C5280 1.334 . S
C5281 C5282 1.287 1_455 S
C5282 C5281 1.287 1_655 S
C5282 C5283 1.524 . S
C5282 H5301 0.913 . S
C5283 H5259 0.950 . S
C5283 C5282 1.524 . S
C5283 C5284 1.415 . S
C5284 H5260 0.950 . S
C5284 C5279 1.363 1_655 S
C5284 C5283 1.415 . S
C5285 H5261 0.950 1_556 S
C5285 C5286 1.366 1_556 S
C5285 C5287 1.389 . S
C5286 C5285 1.366 1_554 S
C5286 C5290 1.384 1_554 S
C5287 H5262 0.951 . S
C5287 C5285 1.389 . S
C5287 C5288 1.366 . S
C5288 C5287 1.366 . S
C5288 C5289 1.414 . S
C5288 C5291 1.499 . S
C5289 H5263 0.966 . S
C5289 C5288 1.414 . S
C5289 C5290 1.374 . S
C5290 H5264 0.950 . S
C5290 C5286 1.384 1_556 S
C5290 C5289 1.374 . S
C5291 C5288 1.499 . S
C5291 C5292 1.373 . S
C5291 C5293 1.389 . S
C5292 H5265 0.950 . S
C5292 C5278 1.377 . S
C5292 C5291 1.373 . S
C5293 C5277 1.377 . S
C5293 C5291 1.389 . S
C5293 C5294 1.524 1_556 S
C5294 C5293 1.524 1_554 S
C5294 C5295 1.397 . S
C5294 C5299 1.363 . S
C5295 H5266 0.950 . S
C5295 C5294 1.397 . S
C5295 C5296 1.334 . S
C5296 H5267 0.950 . S
C5296 C5295 1.334 . S
C5296 C5297 1.287 . S
C5297 C5296 1.287 . S
C5297 C5298 1.524 . S
C5297 H5300 0.999 . S
C5298 H5268 0.950 . S
C5298 C5297 1.524 . S
C5298 C5299 1.415 . S
C5299 H5269 0.979 . S
C5299 C5294 1.363 . S
C5299 C5298 1.415 . S
H5300 C5297 0.999 . S
H5301 C5282 0.913 . S
H5302 C5320 0.951 . S
H5303 C5322 0.951 . S
H5304 C5324 0.950 . S
H5305 C5325 0.950 . S
H5306 C5327 0.950 . S
H5307 C5330 0.950 . S
H5308 C5331 0.950 . S
H5309 C5333 0.950 . S
H5310 C5334 0.950 . S
H5311 C5335 0.951 . S
H5312 C5337 0.951 . S
H5313 C5339 0.950 . S
H5314 C5340 0.950 . S
H5315 C5342 0.950 . S
H5316 C5345 0.950 . S
H5317 C5346 0.950 . S
H5318 C5348 0.950 . S
H5319 C5349 0.950 . S
C5320 H5302 0.951 . S
C5320 C5321 1.366 . S
C5320 C5322 1.388 . S
C5321 C5320 1.366 . S
C5321 C5325 1.385 . S
C5322 H5303 0.951 . S
C5322 C5320 1.388 . S
C5322 C5323 1.366 . S
C5323 C5322 1.366 . S
C5323 C5324 1.414 . S
C5323 C5326 1.499 . S
C5324 H5304 0.950 . S
C5324 C5323 1.414 . S
C5324 C5325 1.374 . S
C5325 H5305 0.950 . S
C5325 C5321 1.385 . S
C5325 C5324 1.374 . S
C5326 C5323 1.499 . S
C5326 C5327 1.373 . S
C5326 C5328 1.389 . S
C5327 H5306 0.950 . S
C5327 C5326 1.373 . S
C5327 C5343 1.377 . S
C5328 C5326 1.389 . S
C5328 C5329 1.524 . S
C5328 C5342 1.377 . S
C5329 C5328 1.524 . S
C5329 C5330 1.397 . S
C5329 C5334 1.363 . S
C5330 H5307 0.950 . S
C5330 C5329 1.397 . S
C5330 C5331 1.334 . S
C5331 H5308 0.950 . S
C5331 C5330 1.334 . S
C5331 C5332 1.287 . S
C5332 C5331 1.287 . S
C5332 C5333 1.524 . S
C5332 H5351 0.913 . S
C5333 H5309 0.950 . S
C5333 C5332 1.524 . S
C5333 C5334 1.415 . S
C5334 H5310 0.950 . S
C5334 C5329 1.363 . S
C5334 C5333 1.415 . S
C5335 H5311 0.951 . S
C5335 C5336 1.366 . S
C5335 C5337 1.388 . S
C5336 C5335 1.366 . S
C5336 C5340 1.385 . S
C5337 H5312 0.951 . S
C5337 C5335 1.388 . S
C5337 C5338 1.366 . S
C5338 C5337 1.366 . S
C5338 C5339 1.414 . S
C5338 C5341 1.499 . S
C5339 H5313 0.950 . S
C5339 C5338 1.414 . S
C5339 C5340 1.374 . S
C5340 H5314 0.950 . S
C5340 C5336 1.385 . S
C5340 C5339 1.374 . S
C5341 C5338 1.499 . S
C5341 C5342 1.373 . S
C5341 C5343 1.389 . S
C5342 H5315 0.950 . S
C5342 C5328 1.377 . S
C5342 C5341 1.373 . S
C5343 C5327 1.377 . S
C5343 C5341 1.389 . S
C5343 C5344 1.524 . S
C5344 C5343 1.524 . S
C5344 C5345 1.397 . S
C5344 C5349 1.363 . S
C5345 H5316 0.950 . S
C5345 C5344 1.397 . S
C5345 C5346 1.334 . S
C5346 H5317 0.950 . S
C5346 C5345 1.334 . S
C5346 C5347 1.287 . S
C5347 C5346 1.287 . S
C5347 C5348 1.524 . S
C5347 H5350 0.999 . S
C5348 H5318 0.950 . S
C5348 C5347 1.524 . S
C5348 C5349 1.415 . S
C5349 H5319 0.950 . S
C5349 C5344 1.363 . S
C5349 C5348 1.415 . S
H5350 C5347 0.999 . S
H5351 C5332 0.913 . S
H5352 C5370 0.951 . S
H5353 C5372 0.951 . S
H5354 C5374 0.950 . S
H5355 C5375 0.950 . S
H5356 C5377 0.950 . S
H5357 C5380 0.950 . S
H5358 C5381 0.950 . S
H5359 C5383 0.950 . S
H5360 C5384 0.950 . S
H5361 C5385 0.951 . S
H5362 C5387 0.951 . S
H5363 C5389 0.950 . S
H5364 C5390 0.950 . S
H5365 C5392 0.950 . S
H5366 C5395 0.950 . S
H5367 C5396 0.950 . S
H5368 C5398 0.950 . S
H5369 C5399 0.950 . S
C5370 H5352 0.951 . S
C5370 C5371 1.366 . S
C5370 C5372 1.388 . S
C5371 C5370 1.366 . S
C5371 C5375 1.385 . S
C5372 H5353 0.951 . S
C5372 C5370 1.388 . S
C5372 C5373 1.366 . S
C5373 C5372 1.366 . S
C5373 C5374 1.414 . S
C5373 C5376 1.499 . S
C5374 H5354 0.950 . S
C5374 C5373 1.414 . S
C5374 C5375 1.374 . S
C5375 H5355 0.950 . S
C5375 C5371 1.385 . S
C5375 C5374 1.374 . S
C5376 C5373 1.499 . S
C5376 C5377 1.373 . S
C5376 C5378 1.389 . S
C5377 H5356 0.950 . S
C5377 C5376 1.373 . S
C5377 C5393 1.377 . S
C5378 C5376 1.389 . S
C5378 C5379 1.524 . S
C5378 C5392 1.377 . S
C5379 C5378 1.524 . S
C5379 C5380 1.397 . S
C5379 C5384 1.363 . S
C5380 H5357 0.950 . S
C5380 C5379 1.397 . S
C5380 C5381 1.334 . S
C5381 H5358 0.950 . S
C5381 C5380 1.334 . S
C5381 C5382 1.287 . S
C5382 C5381 1.287 . S
C5382 C5383 1.524 . S
C5382 H5401 0.913 . S
C5383 H5359 0.950 . S
C5383 C5382 1.524 . S
C5383 C5384 1.415 . S
C5384 H5360 0.950 . S
C5384 C5379 1.363 . S
C5384 C5383 1.415 . S
C5385 H5361 0.951 . S
C5385 C5386 1.366 . S
C5385 C5387 1.388 . S
C5386 C5385 1.366 . S
C5386 C5390 1.385 . S
C5387 H5362 0.951 . S
C5387 C5385 1.388 . S
C5387 C5388 1.366 . S
C5388 C5387 1.366 . S
C5388 C5389 1.414 . S
C5388 C5391 1.499 . S
C5389 H5363 0.950 . S
C5389 C5388 1.414 . S
C5389 C5390 1.374 . S
C5390 H5364 0.950 . S
C5390 C5386 1.385 . S
C5390 C5389 1.374 . S
C5391 C5388 1.499 . S
C5391 C5392 1.373 . S
C5391 C5393 1.389 . S
C5392 H5365 0.950 . S
C5392 C5378 1.377 . S
C5392 C5391 1.373 . S
C5393 C5377 1.377 . S
C5393 C5391 1.389 . S
C5393 C5394 1.524 . S
C5394 C5393 1.524 . S
C5394 C5395 1.397 . S
C5394 C5399 1.363 . S
C5395 H5366 0.950 . S
C5395 C5394 1.397 . S
C5395 C5396 1.334 . S
C5396 H5367 0.950 . S
C5396 C5395 1.334 . S
C5396 C5397 1.287 . S
C5397 C5396 1.287 . S
C5397 C5398 1.524 . S
C5397 H5400 0.999 . S
C5398 H5368 0.950 . S
C5398 C5397 1.524 . S
C5398 C5399 1.415 . S
C5399 H5369 0.950 . S
C5399 C5394 1.363 . S
C5399 C5398 1.415 . S
H5400 C5397 0.999 . S
H5401 C5382 0.913 . S
H5402 C5420 0.930 1_455 S
H5403 C5422 0.951 . S
H5404 C5424 0.950 . S
H5405 C5425 0.950 . S
H5406 C5427 0.950 . S
H5407 C5430 0.950 . S
H5408 C5431 0.950 . S
H5409 C5433 0.950 . S
H5410 C5434 0.950 . S
H5411 C5435 0.951 . S
H5412 C5437 0.951 . S
H5413 C5439 0.950 . S
H5414 C5440 0.950 . S
H5415 C5442 0.950 . S
H5416 C5445 0.950 . S
H5417 C5446 0.950 . S
H5418 C5448 0.950 . S
H5419 C5449 0.950 . S
C5420 H5402 0.930 1_655 S
C5420 C5421 1.366 . S
C5420 C5422 1.388 . S
C5421 C5420 1.366 . S
C5421 C5425 1.385 . S
C5422 H5403 0.951 . S
C5422 C5420 1.388 . S
C5422 C5423 1.366 . S
C5423 C5422 1.366 . S
C5423 C5424 1.414 . S
C5423 C5426 1.499 . S
C5424 H5404 0.950 . S
C5424 C5423 1.414 . S
C5424 C5425 1.374 . S
C5425 H5405 0.950 . S
C5425 C5421 1.385 . S
C5425 C5424 1.374 . S
C5426 C5423 1.499 . S
C5426 C5427 1.373 . S
C5426 C5428 1.389 . S
C5427 H5406 0.950 . S
C5427 C5426 1.373 . S
C5427 C5443 1.377 . S
C5428 C5426 1.389 . S
C5428 C5429 1.524 . S
C5428 C5442 1.377 . S
C5429 C5428 1.524 . S
C5429 C5430 1.397 . S
C5429 C5434 1.363 . S
C5430 H5407 0.950 . S
C5430 C5429 1.397 . S
C5430 C5431 1.334 . S
C5431 H5408 0.950 . S
C5431 C5430 1.334 . S
C5431 C5432 1.287 . S
C5432 C5431 1.287 . S
C5432 C5433 1.524 . S
C5432 H5451 0.913 . S
C5433 H5409 0.950 . S
C5433 C5432 1.524 . S
C5433 C5434 1.415 . S
C5434 H5410 0.950 . S
C5434 C5429 1.363 . S
C5434 C5433 1.415 . S
C5435 H5411 0.951 . S
C5435 C5436 1.366 . S
C5435 C5437 1.388 . S
C5436 C5435 1.366 . S
C5436 C5440 1.385 . S
C5437 H5412 0.951 . S
C5437 C5435 1.388 . S
C5437 C5438 1.366 . S
C5438 C5437 1.366 . S
C5438 C5439 1.414 . S
C5438 C5441 1.499 . S
C5439 H5413 0.950 . S
C5439 C5438 1.414 . S
C5439 C5440 1.374 . S
C5440 H5414 0.950 . S
C5440 C5436 1.385 . S
C5440 C5439 1.374 . S
C5441 C5438 1.499 . S
C5441 C5442 1.373 . S
C5441 C5443 1.389 . S
C5442 H5415 0.950 . S
C5442 C5428 1.377 . S
C5442 C5441 1.373 . S
C5443 C5427 1.377 . S
C5443 C5441 1.389 . S
C5443 C5444 1.524 . S
C5444 C5443 1.524 . S
C5444 C5445 1.397 . S
C5444 C5449 1.363 . S
C5445 H5416 0.950 . S
C5445 C5444 1.397 . S
C5445 C5446 1.334 . S
C5446 H5417 0.950 . S
C5446 C5445 1.334 . S
C5446 C5447 1.287 . S
C5447 C5446 1.287 . S
C5447 C5448 1.524 . S
C5447 H5450 0.999 . S
C5448 H5418 0.950 . S
C5448 C5447 1.524 . S
C5448 C5449 1.415 . S
C5449 H5419 0.950 . S
C5449 C5444 1.363 . S
C5449 C5448 1.415 . S
H5450 C5447 0.999 . S
H5451 C5432 0.913 . S
H5452 C5470 0.951 . S
H5453 C5472 0.951 . S
H5454 C5474 0.950 . S
H5455 C5475 0.946 1_455 S
H5456 C5477 0.950 . S
H5457 C5480 0.950 . S
H5458 C5481 0.950 . S
H5459 C5483 0.950 . S
H5460 C5484 0.950 . S
H5461 C5485 0.951 . S
H5462 C5487 0.951 . S
H5463 C5489 0.950 . S
H5464 C5490 0.950 . S
H5465 C5492 0.950 . S
H5466 C5495 0.950 . S
H5467 C5496 0.950 . S
H5468 C5498 0.950 . S
H5469 C5499 0.950 . S
C5470 H5452 0.951 . S
C5470 C5471 1.366 . S
C5470 C5472 1.388 . S
C5471 C5470 1.366 . S
C5471 C5475 1.418 . S
C5472 H5453 0.951 . S
C5472 C5470 1.388 . S
C5472 C5473 1.403 . S
C5473 C5472 1.403 . S
C5473 C5474 1.408 1_655 S
C5473 C5476 1.469 1_655 S
C5474 H5454 0.950 . S
C5474 C5473 1.408 1_455 S
C5474 C5475 1.349 1_455 S
C5475 H5455 0.946 1_655 S
C5475 C5471 1.418 . S
C5475 C5474 1.349 1_655 S
C5476 C5473 1.469 1_455 S
C5476 C5477 1.373 . S
C5476 C5478 1.389 1_455 S
C5477 H5456 0.950 . S
C5477 C5476 1.373 . S
C5477 C5493 1.377 . S
C5478 C5476 1.389 1_655 S
C5478 C5479 1.524 . S
C5478 C5492 1.377 . S
C5479 C5478 1.524 . S
C5479 C5480 1.397 . S
C5479 C5484 1.363 . S
C5480 H5457 0.950 . S
C5480 C5479 1.397 . S
C5480 C5481 1.334 . S
C5481 H5458 0.950 . S
C5481 C5480 1.334 . S
C5481 C5482 1.287 . S
C5482 C5481 1.287 . S
C5482 C5483 1.524 . S
C5482 H5501 0.913 . S
C5483 H5459 0.950 . S
C5483 C5482 1.524 . S
C5483 C5484 1.415 . S
C5484 H5460 0.950 . S
C5484 C5479 1.363 . S
C5484 C5483 1.415 . S
C5485 H5461 0.951 . S
C5485 C5486 1.366 . S
C5485 C5487 1.388 . S
C5486 C5485 1.366 . S
C5486 C5490 1.385 . S
C5487 H5462 0.951 . S
C5487 C5485 1.388 . S
C5487 C5488 1.366 . S
C5488 C5487 1.366 . S
C5488 C5489 1.414 . S
C5488 C5491 1.499 . S
C5489 H5463 0.950 . S
C5489 C5488 1.414 . S
C5489 C5490 1.374 . S
C5490 H5464 0.950 . S
C5490 C5486 1.385 . S
C5490 C5489 1.374 . S
C5491 C5488 1.499 . S
C5491 C5492 1.373 1_455 S
C5491 C5493 1.389 . S
C5492 H5465 0.950 . S
C5492 C5478 1.377 . S
C5492 C5491 1.373 1_655 S
C5493 C5477 1.377 . S
C5493 C5491 1.389 . S
C5493 C5494 1.524 . S
C5494 C5493 1.524 . S
C5494 C5495 1.397 . S
C5494 C5499 1.363 . S
C5495 H5466 0.950 . S
C5495 C5494 1.397 . S
C5495 C5496 1.334 . S
C5496 H5467 0.950 . S
C5496 C5495 1.334 . S
C5496 C5497 1.287 . S
C5497 C5496 1.287 . S
C5497 C5498 1.524 . S
C5497 H5500 0.999 . S
C5498 H5468 0.950 . S
C5498 C5497 1.524 . S
C5498 C5499 1.415 . S
C5499 H5469 0.950 . S
C5499 C5494 1.363 . S
C5499 C5498 1.415 . S
H5500 C5497 0.999 . S
H5501 C5482 0.913 . S
H5502 C5520 0.951 . S
H5503 C5522 0.951 . S
H5504 C5524 0.950 . S
H5505 C5525 0.950 . S
H5506 C5527 0.950 . S
H5507 C5530 0.950 . S
H5508 C5531 0.950 . S
H5509 C5533 0.950 . S
H5510 C5534 0.950 . S
H5511 C5535 0.951 . S
H5512 C5537 0.951 . S
H5513 C5539 0.950 . S
H5514 C5540 0.950 . S
H5515 C5542 0.950 . S
H5516 C5545 0.950 . S
H5517 C5546 0.950 . S
H5518 C5548 0.950 . S
H5519 C5549 0.950 . S
C5520 H5502 0.951 . S
C5520 C5521 1.366 . S
C5520 C5522 1.388 . S
C5521 C5520 1.366 . S
C5521 C5525 1.385 . S
C5522 H5503 0.951 . S
C5522 C5520 1.388 . S
C5522 C5523 1.366 . S
C5523 C5522 1.366 . S
C5523 C5524 1.414 . S
C5523 C5526 1.499 . S
C5524 H5504 0.950 . S
C5524 C5523 1.414 . S
C5524 C5525 1.374 . S
C5525 H5505 0.950 . S
C5525 C5521 1.385 . S
C5525 C5524 1.374 . S
C5526 C5523 1.499 . S
C5526 C5527 1.373 . S
C5526 C5528 1.389 . S
C5527 H5506 0.950 . S
C5527 C5526 1.373 . S
C5527 C5543 1.377 . S
C5528 C5526 1.389 . S
C5528 C5529 1.524 . S
C5528 C5542 1.377 . S
C5529 C5528 1.524 . S
C5529 C5530 1.397 . S
C5529 C5534 1.363 . S
C5530 H5507 0.950 . S
C5530 C5529 1.397 . S
C5530 C5531 1.334 . S
C5531 H5508 0.950 . S
C5531 C5530 1.334 . S
C5531 C5532 1.287 . S
C5532 C5531 1.287 . S
C5532 C5533 1.524 . S
C5532 H5551 0.913 . S
C5533 H5509 0.950 . S
C5533 C5532 1.524 . S
C5533 C5534 1.415 . S
C5534 H5510 0.950 . S
C5534 C5529 1.363 . S
C5534 C5533 1.415 . S
C5535 H5511 0.951 . S
C5535 C5536 1.366 . S
C5535 C5537 1.388 . S
C5536 C5535 1.366 . S
C5536 C5540 1.385 . S
C5537 H5512 0.951 . S
C5537 C5535 1.388 . S
C5537 C5538 1.366 . S
C5538 C5537 1.366 . S
C5538 C5539 1.414 . S
C5538 C5541 1.499 . S
C5539 H5513 0.950 . S
C5539 C5538 1.414 . S
C5539 C5540 1.374 . S
C5540 H5514 0.950 . S
C5540 C5536 1.385 . S
C5540 C5539 1.374 . S
C5541 C5538 1.499 . S
C5541 C5542 1.373 . S
C5541 C5543 1.389 . S
C5542 H5515 0.950 . S
C5542 C5528 1.377 . S
C5542 C5541 1.373 . S
C5543 C5527 1.377 . S
C5543 C5541 1.389 . S
C5543 C5544 1.524 . S
C5544 C5543 1.524 . S
C5544 C5545 1.397 . S
C5544 C5549 1.363 . S
C5545 H5516 0.950 . S
C5545 C5544 1.397 . S
C5545 C5546 1.334 . S
C5546 H5517 0.950 . S
C5546 C5545 1.334 . S
C5546 C5547 1.287 . S
C5547 C5546 1.287 . S
C5547 C5548 1.524 . S
C5547 H5550 0.999 . S
C5548 H5518 0.950 . S
C5548 C5547 1.524 . S
C5548 C5549 1.415 . S
C5549 H5519 0.950 . S
C5549 C5544 1.363 . S
C5549 C5548 1.415 . S
H5550 C5547 0.999 . S
H5551 C5532 0.913 . S
H5552 C5570 0.951 . S
H5553 C5572 0.951 . S
H5554 C5574 0.950 . S
H5555 C5575 0.950 . S
H5556 C5577 0.950 . S
H5557 C5580 0.950 . S
H5558 C5581 0.950 . S
H5559 C5583 0.950 . S
H5560 C5584 0.950 . S
H5561 C5585 0.951 . S
H5562 C5587 0.951 . S
H5563 C5589 0.950 . S
H5564 C5590 0.950 . S
H5565 C5592 0.950 . S
H5566 C5595 0.950 . S
H5567 C5596 0.950 . S
H5568 C5598 0.950 . S
H5569 C5599 0.950 . S
C5570 H5552 0.951 . S
C5570 C5571 1.366 . S
C5570 C5572 1.388 . S
C5571 C5570 1.366 . S
C5571 C5575 1.385 . S
C5572 H5553 0.951 . S
C5572 C5570 1.388 . S
C5572 C5573 1.366 . S
C5573 C5572 1.366 . S
C5573 C5574 1.414 . S
C5573 C5576 1.499 . S
C5574 H5554 0.950 . S
C5574 C5573 1.414 . S
C5574 C5575 1.374 . S
C5575 H5555 0.950 . S
C5575 C5571 1.385 . S
C5575 C5574 1.374 . S
C5576 C5573 1.499 . S
C5576 C5577 1.373 . S
C5576 C5578 1.389 . S
C5577 H5556 0.950 . S
C5577 C5576 1.373 . S
C5577 C5593 1.377 . S
C5578 C5576 1.389 . S
C5578 C5579 1.524 . S
C5578 C5592 1.377 . S
C5579 C5578 1.524 . S
C5579 C5580 1.397 . S
C5579 C5584 1.363 . S
C5580 H5557 0.950 . S
C5580 C5579 1.397 . S
C5580 C5581 1.334 . S
C5581 H5558 0.950 . S
C5581 C5580 1.334 . S
C5581 C5582 1.287 . S
C5582 C5581 1.287 . S
C5582 C5583 1.524 . S
C5582 H5601 0.913 . S
C5583 H5559 0.950 . S
C5583 C5582 1.524 . S
C5583 C5584 1.415 . S
C5584 H5560 0.950 . S
C5584 C5579 1.363 . S
C5584 C5583 1.415 . S
C5585 H5561 0.951 . S
C5585 C5586 1.366 . S
C5585 C5587 1.388 . S
C5586 C5585 1.366 . S
C5586 C5590 1.385 . S
C5587 H5562 0.951 . S
C5587 C5585 1.388 . S
C5587 C5588 1.366 . S
C5588 C5587 1.366 . S
C5588 C5589 1.414 . S
C5588 C5591 1.499 . S
C5589 H5563 0.950 . S
C5589 C5588 1.414 . S
C5589 C5590 1.374 . S
C5590 H5564 0.950 . S
C5590 C5586 1.385 . S
C5590 C5589 1.374 . S
C5591 C5588 1.499 . S
C5591 C5592 1.373 . S
C5591 C5593 1.389 . S
C5592 H5565 0.950 . S
C5592 C5578 1.377 . S
C5592 C5591 1.373 . S
C5593 C5577 1.377 . S
C5593 C5591 1.389 . S
C5593 C5594 1.524 . S
C5594 C5593 1.524 . S
C5594 C5595 1.397 . S
C5594 C5599 1.363 . S
C5595 H5566 0.950 . S
C5595 C5594 1.397 . S
C5595 C5596 1.334 . S
C5596 H5567 0.950 . S
C5596 C5595 1.334 . S
C5596 C5597 1.287 . S
C5597 C5596 1.287 . S
C5597 C5598 1.524 . S
C5597 H5600 0.999 . S
C5598 H5568 0.950 . S
C5598 C5597 1.524 . S
C5598 C5599 1.415 . S
C5599 H5569 0.950 . S
C5599 C5594 1.363 . S
C5599 C5598 1.415 . S
H5600 C5597 0.999 . S
H5601 C5582 0.913 . S
H5602 C5620 0.951 . S
H5603 C5622 0.951 . S
H5604 C5624 0.950 . S
H5605 C5625 0.950 . S
H5606 C5627 0.950 . S
H5607 C5630 0.950 . S
H5608 C5631 0.950 . S
H5609 C5633 0.950 . S
H5610 C5634 0.950 . S
H5611 C5635 0.951 . S
H5612 C5637 0.951 . S
H5613 C5639 0.950 . S
H5614 C5640 0.950 . S
H5615 C5642 0.950 . S
H5616 C5645 0.950 . S
H5617 C5646 0.950 . S
H5618 C5648 0.950 . S
H5619 C5649 0.950 . S
C5620 H5602 0.951 . S
C5620 C5621 1.366 . S
C5620 C5622 1.388 . S
C5621 C5620 1.366 . S
C5621 C5625 1.385 . S
C5622 H5603 0.951 . S
C5622 C5620 1.388 . S
C5622 C5623 1.366 . S
C5623 C5622 1.366 . S
C5623 C5624 1.414 . S
C5623 C5626 1.499 . S
C5624 H5604 0.950 . S
C5624 C5623 1.414 . S
C5624 C5625 1.374 . S
C5625 H5605 0.950 . S
C5625 C5621 1.385 . S
C5625 C5624 1.374 . S
C5626 C5623 1.499 . S
C5626 C5627 1.373 . S
C5626 C5628 1.389 . S
C5627 H5606 0.950 . S
C5627 C5626 1.373 . S
C5627 C5643 1.377 . S
C5628 C5626 1.389 . S
C5628 C5629 1.524 . S
C5628 C5642 1.377 . S
C5629 C5628 1.524 . S
C5629 C5630 1.397 . S
C5629 C5634 1.363 . S
C5630 H5607 0.950 . S
C5630 C5629 1.397 . S
C5630 C5631 1.334 . S
C5631 H5608 0.950 . S
C5631 C5630 1.334 . S
C5631 C5632 1.287 . S
C5632 C5631 1.287 . S
C5632 C5633 1.524 . S
C5632 H5651 0.913 . S
C5633 H5609 0.950 . S
C5633 C5632 1.524 . S
C5633 C5634 1.415 . S
C5634 H5610 0.950 . S
C5634 C5629 1.363 . S
C5634 C5633 1.415 . S
C5635 H5611 0.951 . S
C5635 C5636 1.366 . S
C5635 C5637 1.388 . S
C5636 C5635 1.366 . S
C5636 C5640 1.385 . S
C5637 H5612 0.951 . S
C5637 C5635 1.388 . S
C5637 C5638 1.366 . S
C5638 C5637 1.366 . S
C5638 C5639 1.414 . S
C5638 C5641 1.499 . S
C5639 H5613 0.950 . S
C5639 C5638 1.414 . S
C5639 C5640 1.374 . S
C5640 H5614 0.950 . S
C5640 C5636 1.385 . S
C5640 C5639 1.374 . S
C5641 C5638 1.499 . S
C5641 C5642 1.373 . S
C5641 C5643 1.389 . S
C5642 H5615 0.950 . S
C5642 C5628 1.377 . S
C5642 C5641 1.373 . S
C5643 C5627 1.377 . S
C5643 C5641 1.389 . S
C5643 C5644 1.524 . S
C5644 C5643 1.524 . S
C5644 C5645 1.397 . S
C5644 C5649 1.363 . S
C5645 H5616 0.950 . S
C5645 C5644 1.397 . S
C5645 C5646 1.334 . S
C5646 H5617 0.950 . S
C5646 C5645 1.334 . S
C5646 C5647 1.287 . S
C5647 C5646 1.287 . S
C5647 C5648 1.524 . S
C5647 H5650 0.999 . S
C5648 H5618 0.950 . S
C5648 C5647 1.524 . S
C5648 C5649 1.415 . S
C5649 H5619 0.950 . S
C5649 C5644 1.363 . S
C5649 C5648 1.415 . S
H5650 C5647 0.999 . S
H5651 C5632 0.913 . S
H5652 C5670 0.951 . S
H5653 C5672 0.951 . S
H5654 C5674 0.950 . S
H5655 C5675 0.950 . S
H5656 C5677 0.950 . S
H5657 C5680 0.950 . S
H5658 C5681 0.950 . S
H5659 C5683 0.950 . S
H5660 C5684 0.950 . S
H5661 C5685 0.951 . S
H5662 C5687 0.951 . S
H5663 C5689 0.950 . S
H5664 C5690 0.950 . S
H5665 C5692 0.950 . S
H5666 C5695 0.950 . S
H5667 C5696 0.950 . S
H5668 C5698 0.950 . S
H5669 C5699 0.950 . S
C5670 H5652 0.951 . S
C5670 C5671 1.366 . S
C5670 C5672 1.388 . S
C5671 C5670 1.366 . S
C5671 C5675 1.385 . S
C5672 H5653 0.951 . S
C5672 C5670 1.388 . S
C5672 C5673 1.366 . S
C5673 C5672 1.366 . S
C5673 C5674 1.414 . S
C5673 C5676 1.499 . S
C5674 H5654 0.950 . S
C5674 C5673 1.414 . S
C5674 C5675 1.374 . S
C5675 H5655 0.950 . S
C5675 C5671 1.385 . S
C5675 C5674 1.374 . S
C5676 C5673 1.499 . S
C5676 C5677 1.373 . S
C5676 C5678 1.389 . S
C5677 H5656 0.950 . S
C5677 C5676 1.373 . S
C5677 C5693 1.377 . S
C5678 C5676 1.389 . S
C5678 C5679 1.524 . S
C5678 C5692 1.377 . S
C5679 C5678 1.524 . S
C5679 C5680 1.397 . S
C5679 C5684 1.363 . S
C5680 H5657 0.950 . S
C5680 C5679 1.397 . S
C5680 C5681 1.334 . S
C5681 H5658 0.950 . S
C5681 C5680 1.334 . S
C5681 C5682 1.287 . S
C5682 C5681 1.287 . S
C5682 C5683 1.524 . S
C5682 H5701 0.913 . S
C5683 H5659 0.950 . S
C5683 C5682 1.524 . S
C5683 C5684 1.415 . S
C5684 H5660 0.950 . S
C5684 C5679 1.363 . S
C5684 C5683 1.415 . S
C5685 H5661 0.951 . S
C5685 C5686 1.366 . S
C5685 C5687 1.388 . S
C5686 C5685 1.366 . S
C5686 C5690 1.385 . S
C5687 H5662 0.951 . S
C5687 C5685 1.388 . S
C5687 C5688 1.366 . S
C5688 C5687 1.366 . S
C5688 C5689 1.414 . S
C5688 C5691 1.499 . S
C5689 H5663 0.950 . S
C5689 C5688 1.414 . S
C5689 C5690 1.374 . S
C5690 H5664 0.950 . S
C5690 C5686 1.385 . S
C5690 C5689 1.374 . S
C5691 C5688 1.499 . S
C5691 C5692 1.373 . S
C5691 C5693 1.389 . S
C5692 H5665 0.950 . S
C5692 C5678 1.377 . S
C5692 C5691 1.373 . S
C5693 C5677 1.377 . S
C5693 C5691 1.389 . S
C5693 C5694 1.524 . S
C5694 C5693 1.524 . S
C5694 C5695 1.397 . S
C5694 C5699 1.363 . S
C5695 H5666 0.950 . S
C5695 C5694 1.397 . S
C5695 C5696 1.334 . S
C5696 H5667 0.950 . S
C5696 C5695 1.334 . S
C5696 C5697 1.287 . S
C5697 C5696 1.287 . S
C5697 C5698 1.524 . S
C5697 H5700 0.999 . S
C5698 H5668 0.950 . S
C5698 C5697 1.524 . S
C5698 C5699 1.415 . S
C5699 H5669 0.950 . S
C5699 C5694 1.363 . S
C5699 C5698 1.415 . S
H5700 C5697 0.999 . S
H5701 C5682 0.913 . S
H5702 C5720 0.951 . S
H5703 C5722 0.951 . S
H5704 C5724 0.950 . S
H5705 C5725 0.950 . S
H5706 C5727 0.950 . S
H5707 C5730 0.950 . S
H5708 C5731 0.950 . S
H5709 C5733 0.950 . S
H5710 C5734 0.950 . S
H5711 C5735 0.951 . S
H5712 C5737 0.951 . S
H5713 C5739 0.950 . S
H5714 C5740 0.950 . S
H5715 C5742 0.950 . S
H5716 C5745 0.950 . S
H5717 C5746 0.950 . S
H5718 C5748 0.950 . S
H5719 C5749 0.950 . S
C5720 H5702 0.951 . S
C5720 C5721 1.366 . S
C5720 C5722 1.388 . S
C5721 C5720 1.366 . S
C5721 C5725 1.385 . S
C5722 H5703 0.951 . S
C5722 C5720 1.388 . S
C5722 C5723 1.366 . S
C5723 C5722 1.366 . S
C5723 C5724 1.414 . S
C5723 C5726 1.499 . S
C5724 H5704 0.950 . S
C5724 C5723 1.414 . S
C5724 C5725 1.374 . S
C5725 H5705 0.950 . S
C5725 C5721 1.385 . S
C5725 C5724 1.374 . S
C5726 C5723 1.499 . S
C5726 C5727 1.373 . S
C5726 C5728 1.389 . S
C5727 H5706 0.950 . S
C5727 C5726 1.373 . S
C5727 C5743 1.377 . S
C5728 C5726 1.389 . S
C5728 C5729 1.524 . S
C5728 C5742 1.377 . S
C5729 C5728 1.524 . S
C5729 C5730 1.397 . S
C5729 C5734 1.363 . S
C5730 H5707 0.950 . S
C5730 C5729 1.397 . S
C5730 C5731 1.334 . S
C5731 H5708 0.950 . S
C5731 C5730 1.334 . S
C5731 C5732 1.287 . S
C5732 C5731 1.287 . S
C5732 C5733 1.524 . S
C5732 H5751 0.913 . S
C5733 H5709 0.950 . S
C5733 C5732 1.524 . S
C5733 C5734 1.415 . S
C5734 H5710 0.950 . S
C5734 C5729 1.363 . S
C5734 C5733 1.415 . S
C5735 H5711 0.951 . S
C5735 C5736 1.366 . S
C5735 C5737 1.388 . S
C5736 C5735 1.366 . S
C5736 C5740 1.385 . S
C5737 H5712 0.951 . S
C5737 C5735 1.388 . S
C5737 C5738 1.366 . S
C5738 C5737 1.366 . S
C5738 C5739 1.414 . S
C5738 C5741 1.499 . S
C5739 H5713 0.950 . S
C5739 C5738 1.414 . S
C5739 C5740 1.374 . S
C5740 H5714 0.950 . S
C5740 C5736 1.385 . S
C5740 C5739 1.374 . S
C5741 C5738 1.499 . S
C5741 C5742 1.373 . S
C5741 C5743 1.389 . S
C5742 H5715 0.950 . S
C5742 C5728 1.377 . S
C5742 C5741 1.373 . S
C5743 C5727 1.377 . S
C5743 C5741 1.389 . S
C5743 C5744 1.524 . S
C5744 C5743 1.524 . S
C5744 C5745 1.397 . S
C5744 C5749 1.363 . S
C5745 H5716 0.950 . S
C5745 C5744 1.397 . S
C5745 C5746 1.334 . S
C5746 H5717 0.950 . S
C5746 C5745 1.334 . S
C5746 C5747 1.287 . S
C5747 C5746 1.287 . S
C5747 C5748 1.524 . S
C5747 H5750 0.999 . S
C5748 H5718 0.950 . S
C5748 C5747 1.524 . S
C5748 C5749 1.415 . S
C5749 H5719 0.950 . S
C5749 C5744 1.363 . S
C5749 C5748 1.415 . S
H5750 C5747 0.999 . S
H5751 C5732 0.913 . S
H5752 C5770 0.951 . S
H5753 C5772 0.951 . S
H5754 C5774 0.950 . S
H5755 C5775 0.950 . S
H5756 C5777 0.950 . S
H5757 C5780 0.950 . S
H5758 C5781 0.950 . S
H5759 C5783 0.950 . S
H5760 C5784 0.950 . S
H5761 C5785 0.951 . S
H5762 C5787 0.951 . S
H5763 C5789 0.950 . S
H5764 C5790 0.950 . S
H5765 C5792 0.950 . S
H5766 C5795 0.950 . S
H5767 C5796 0.950 . S
H5768 C5798 0.950 . S
H5769 C5799 0.950 . S
C5770 H5752 0.951 . S
C5770 C5771 1.366 . S
C5770 C5772 1.388 . S
C5771 C5770 1.366 . S
C5771 C5775 1.385 . S
C5772 H5753 0.951 . S
C5772 C5770 1.388 . S
C5772 C5773 1.366 . S
C5773 C5772 1.366 . S
C5773 C5774 1.414 . S
C5773 C5776 1.499 . S
C5774 H5754 0.950 . S
C5774 C5773 1.414 . S
C5774 C5775 1.374 . S
C5775 H5755 0.950 . S
C5775 C5771 1.385 . S
C5775 C5774 1.374 . S
C5776 C5773 1.499 . S
C5776 C5777 1.373 . S
C5776 C5778 1.389 . S
C5777 H5756 0.950 . S
C5777 C5776 1.373 . S
C5777 C5793 1.377 . S
C5778 C5776 1.389 . S
C5778 C5779 1.524 . S
C5778 C5792 1.377 . S
C5779 C5778 1.524 . S
C5779 C5780 1.397 . S
C5779 C5784 1.363 . S
C5780 H5757 0.950 . S
C5780 C5779 1.397 . S
C5780 C5781 1.334 . S
C5781 H5758 0.950 . S
C5781 C5780 1.334 . S
C5781 C5782 1.287 . S
C5782 C5781 1.287 . S
C5782 C5783 1.524 . S
C5782 H5801 0.913 . S
C5783 H5759 0.950 . S
C5783 C5782 1.524 . S
C5783 C5784 1.415 . S
C5784 H5760 0.950 . S
C5784 C5779 1.363 . S
C5784 C5783 1.415 . S
C5785 H5761 0.951 . S
C5785 C5786 1.366 . S
C5785 C5787 1.388 . S
C5786 C5785 1.366 . S
C5786 C5790 1.385 . S
C5787 H5762 0.951 . S
C5787 C5785 1.388 . S
C5787 C5788 1.366 . S
C5788 C5787 1.366 . S
C5788 C5789 1.414 . S
C5788 C5791 1.499 . S
C5789 H5763 0.950 . S
C5789 C5788 1.414 . S
C5789 C5790 1.374 . S
C5790 H5764 0.950 . S
C5790 C5786 1.385 . S
C5790 C5789 1.374 . S
C5791 C5788 1.499 . S
C5791 C5792 1.373 . S
C5791 C5793 1.389 . S
C5792 H5765 0.950 . S
C5792 C5778 1.377 . S
C5792 C5791 1.373 . S
C5793 C5777 1.377 . S
C5793 C5791 1.389 . S
C5793 C5794 1.524 . S
C5794 C5793 1.524 . S
C5794 C5795 1.397 . S
C5794 C5799 1.363 . S
C5795 H5766 0.950 . S
C5795 C5794 1.397 . S
C5795 C5796 1.334 . S
C5796 H5767 0.950 . S
C5796 C5795 1.334 . S
C5796 C5797 1.287 . S
C5797 C5796 1.287 . S
C5797 C5798 1.524 . S
C5797 H5800 0.999 . S
C5798 H5768 0.950 . S
C5798 C5797 1.524 . S
C5798 C5799 1.415 . S
C5799 H5769 0.950 . S
C5799 C5794 1.363 . S
C5799 C5798 1.415 . S
H5800 C5797 0.999 . S
H5801 C5782 0.913 . S
H5802 C5820 0.951 . S
H5803 C5822 0.951 . S
H5804 C5824 0.950 . S
H5805 C5825 0.950 . S
H5806 C5827 0.950 . S
H5807 C5830 0.950 . S
H5808 C5831 0.950 . S
H5809 C5833 0.950 . S
H5810 C5834 0.950 . S
H5811 C5835 0.951 . S
H5812 C5837 0.951 . S
H5813 C5839 0.950 . S
H5814 C5840 0.950 . S
H5815 C5842 0.950 . S
H5816 C5845 0.950 . S
H5817 C5846 0.950 . S
H5818 C5848 0.950 . S
H5819 C5849 0.950 . S
C5820 H5802 0.951 . S
C5820 C5821 1.366 . S
C5820 C5822 1.388 . S
C5821 C5820 1.366 . S
C5821 C5825 1.385 . S
C5822 H5803 0.951 . S
C5822 C5820 1.388 . S
C5822 C5823 1.366 . S
C5823 C5822 1.366 . S
C5823 C5824 1.414 . S
C5823 C5826 1.499 . S
C5824 H5804 0.950 . S
C5824 C5823 1.414 . S
C5824 C5825 1.374 . S
C5825 H5805 0.950 . S
C5825 C5821 1.385 . S
C5825 C5824 1.374 . S
C5826 C5823 1.499 . S
C5826 C5827 1.373 . S
C5826 C5828 1.389 . S
C5827 H5806 0.950 . S
C5827 C5826 1.373 . S
C5827 C5843 1.377 . S
C5828 C5826 1.389 . S
C5828 C5829 1.524 . S
C5828 C5842 1.377 . S
C5829 C5828 1.524 . S
C5829 C5830 1.397 . S
C5829 C5834 1.363 . S
C5830 H5807 0.950 . S
C5830 C5829 1.397 . S
C5830 C5831 1.334 . S
C5831 H5808 0.950 . S
C5831 C5830 1.334 . S
C5831 C5832 1.287 . S
C5832 C5831 1.287 . S
C5832 C5833 1.524 . S
C5832 H5851 0.913 . S
C5833 H5809 0.950 . S
C5833 C5832 1.524 . S
C5833 C5834 1.415 . S
C5834 H5810 0.950 . S
C5834 C5829 1.363 . S
C5834 C5833 1.415 . S
C5835 H5811 0.951 . S
C5835 C5836 1.366 . S
C5835 C5837 1.388 . S
C5836 C5835 1.366 . S
C5836 C5840 1.385 . S
C5837 H5812 0.951 . S
C5837 C5835 1.388 . S
C5837 C5838 1.366 . S
C5838 C5837 1.366 . S
C5838 C5839 1.414 . S
C5838 C5841 1.499 . S
C5839 H5813 0.950 . S
C5839 C5838 1.414 . S
C5839 C5840 1.374 . S
C5840 H5814 0.950 . S
C5840 C5836 1.385 . S
C5840 C5839 1.374 . S
C5841 C5838 1.499 . S
C5841 C5842 1.373 . S
C5841 C5843 1.389 . S
C5842 H5815 0.950 . S
C5842 C5828 1.377 . S
C5842 C5841 1.373 . S
C5843 C5827 1.377 . S
C5843 C5841 1.389 . S
C5843 C5844 1.524 . S
C5844 C5843 1.524 . S
C5844 C5845 1.397 . S
C5844 C5849 1.363 . S
C5845 H5816 0.950 . S
C5845 C5844 1.397 . S
C5845 C5846 1.334 . S
C5846 H5817 0.950 . S
C5846 C5845 1.334 . S
C5846 C5847 1.287 . S
C5847 C5846 1.287 . S
C5847 C5848 1.524 . S
C5847 H5850 0.999 . S
C5848 H5818 0.950 . S
C5848 C5847 1.524 . S
C5848 C5849 1.415 . S
C5849 H5819 0.950 . S
C5849 C5844 1.363 . S
C5849 C5848 1.415 . S
H5850 C5847 0.999 . S
H5851 C5832 0.913 . S
H5852 C5870 0.951 . S
H5853 C5872 0.951 . S
H5854 C5874 0.950 . S
H5855 C5875 0.950 . S
H5856 C5877 0.950 . S
H5857 C5880 0.950 . S
H5858 C5881 0.950 . S
H5859 C5883 0.950 . S
H5860 C5884 0.950 . S
H5861 C5885 0.951 . S
H5862 C5887 0.951 . S
H5863 C5889 0.950 . S
H5864 C5890 0.950 . S
H5865 C5892 0.950 . S
H5866 C5895 0.950 . S
H5867 C5896 0.950 . S
H5868 C5898 0.950 . S
H5869 C5899 0.950 . S
C5870 H5852 0.951 . S
C5870 C5871 1.366 . S
C5870 C5872 1.388 . S
C5871 C5870 1.366 . S
C5871 C5875 1.385 . S
C5872 H5853 0.951 . S
C5872 C5870 1.388 . S
C5872 C5873 1.366 . S
C5873 C5872 1.366 . S
C5873 C5874 1.414 . S
C5873 C5876 1.499 . S
C5874 H5854 0.950 . S
C5874 C5873 1.414 . S
C5874 C5875 1.374 . S
C5875 H5855 0.950 . S
C5875 C5871 1.385 . S
C5875 C5874 1.374 . S
C5876 C5873 1.499 . S
C5876 C5877 1.373 . S
C5876 C5878 1.389 . S
C5877 H5856 0.950 . S
C5877 C5876 1.373 . S
C5877 C5893 1.377 . S
C5878 C5876 1.389 . S
C5878 C5879 1.524 . S
C5878 C5892 1.377 . S
C5879 C5878 1.524 . S
C5879 C5880 1.397 . S
C5879 C5884 1.363 . S
C5880 H5857 0.950 . S
C5880 C5879 1.397 . S
C5880 C5881 1.334 . S
C5881 H5858 0.950 . S
C5881 C5880 1.334 . S
C5881 C5882 1.287 . S
C5882 C5881 1.287 . S
C5882 C5883 1.524 . S
C5882 H5901 0.913 . S
C5883 H5859 0.950 . S
C5883 C5882 1.524 . S
C5883 C5884 1.415 . S
C5884 H5860 0.950 . S
C5884 C5879 1.363 . S
C5884 C5883 1.415 . S
C5885 H5861 0.951 . S
C5885 C5886 1.366 . S
C5885 C5887 1.388 . S
C5886 C5885 1.366 . S
C5886 C5890 1.385 . S
C5887 H5862 0.951 . S
C5887 C5885 1.388 . S
C5887 C5888 1.366 . S
C5888 C5887 1.366 . S
C5888 C5889 1.414 . S
C5888 C5891 1.499 . S
C5889 H5863 0.950 . S
C5889 C5888 1.414 . S
C5889 C5890 1.374 . S
C5890 H5864 0.950 . S
C5890 C5886 1.385 . S
C5890 C5889 1.374 . S
C5891 C5888 1.499 . S
C5891 C5892 1.373 . S
C5891 C5893 1.389 . S
C5892 H5865 0.950 . S
C5892 C5878 1.377 . S
C5892 C5891 1.373 . S
C5893 C5877 1.377 . S
C5893 C5891 1.389 . S
C5893 C5894 1.524 . S
C5894 C5893 1.524 . S
C5894 C5895 1.397 . S
C5894 C5899 1.363 . S
C5895 H5866 0.950 . S
C5895 C5894 1.397 . S
C5895 C5896 1.334 . S
C5896 H5867 0.950 . S
C5896 C5895 1.334 . S
C5896 C5897 1.287 . S
C5897 C5896 1.287 . S
C5897 C5898 1.524 . S
C5897 H5900 0.999 . S
C5898 H5868 0.950 . S
C5898 C5897 1.524 . S
C5898 C5899 1.415 . S
C5899 H5869 0.950 . S
C5899 C5894 1.363 . S
C5899 C5898 1.415 . S
H5900 C5897 0.999 . S
H5901 C5882 0.913 . S
H5902 C5920 0.951 . S
H5903 C5922 0.951 . S
H5904 C5924 0.950 . S
H5905 C5925 0.950 . S
H5906 C5927 0.950 . S
H5907 C5930 0.950 . S
H5908 C5931 0.950 . S
H5909 C5933 0.950 . S
H5910 C5934 0.950 . S
H5911 C5935 0.951 . S
H5912 C5937 0.951 . S
H5913 C5939 0.950 . S
H5914 C5940 0.950 . S
H5915 C5942 0.950 . S
H5916 C5945 0.950 . S
H5917 C5946 0.950 . S
H5918 C5948 0.950 . S
H5919 C5949 0.950 . S
C5920 H5902 0.951 . S
C5920 C5921 1.366 . S
C5920 C5922 1.388 . S
C5921 C5920 1.366 . S
C5921 C5925 1.385 . S
C5922 H5903 0.951 . S
C5922 C5920 1.388 . S
C5922 C5923 1.366 . S
C5923 C5922 1.366 . S
C5923 C5924 1.414 . S
C5923 C5926 1.499 . S
C5924 H5904 0.950 . S
C5924 C5923 1.414 . S
C5924 C5925 1.374 . S
C5925 H5905 0.950 . S
C5925 C5921 1.385 . S
C5925 C5924 1.374 . S
C5926 C5923 1.499 . S
C5926 C5927 1.373 . S
C5926 C5928 1.389 . S
C5927 H5906 0.950 . S
C5927 C5926 1.373 . S
C5927 C5943 1.377 . S
C5928 C5926 1.389 . S
C5928 C5929 1.524 . S
C5928 C5942 1.377 . S
C5929 C5928 1.524 . S
C5929 C5930 1.397 . S
C5929 C5934 1.363 . S
C5930 H5907 0.950 . S
C5930 C5929 1.397 . S
C5930 C5931 1.334 . S
C5931 H5908 0.950 . S
C5931 C5930 1.334 . S
C5931 C5932 1.287 . S
C5932 C5931 1.287 . S
C5932 C5933 1.524 . S
C5932 H5951 0.913 . S
C5933 H5909 0.950 . S
C5933 C5932 1.524 . S
C5933 C5934 1.415 . S
C5934 H5910 0.950 . S
C5934 C5929 1.363 . S
C5934 C5933 1.415 . S
C5935 H5911 0.951 . S
C5935 C5936 1.366 . S
C5935 C5937 1.388 . S
C5936 C5935 1.366 . S
C5936 C5940 1.385 . S
C5937 H5912 0.951 . S
C5937 C5935 1.388 . S
C5937 C5938 1.366 . S
C5938 C5937 1.366 . S
C5938 C5939 1.414 . S
C5938 C5941 1.499 . S
C5939 H5913 0.950 . S
C5939 C5938 1.414 . S
C5939 C5940 1.374 . S
C5940 H5914 0.950 . S
C5940 C5936 1.385 . S
C5940 C5939 1.374 . S
C5941 C5938 1.499 . S
C5941 C5942 1.373 . S
C5941 C5943 1.389 . S
C5942 H5915 0.950 . S
C5942 C5928 1.377 . S
C5942 C5941 1.373 . S
C5943 C5927 1.377 . S
C5943 C5941 1.389 . S
C5943 C5944 1.524 . S
C5944 C5943 1.524 . S
C5944 C5945 1.397 . S
C5944 C5949 1.363 . S
C5945 H5916 0.950 . S
C5945 C5944 1.397 . S
C5945 C5946 1.334 . S
C5946 H5917 0.950 . S
C5946 C5945 1.334 . S
C5946 C5947 1.287 . S
C5947 C5946 1.287 . S
C5947 C5948 1.524 . S
C5947 H5950 0.999 . S
C5948 H5918 0.950 . S
C5948 C5947 1.524 . S
C5948 C5949 1.415 . S
C5949 H5919 0.950 . S
C5949 C5944 1.363 . S
C5949 C5948 1.415 . S
H5950 C5947 0.999 . S
H5951 C5932 0.913 . S
H5952 C5970 0.951 . S
H5953 C5972 0.951 . S
H5954 C5974 0.950 . S
H5955 C5975 0.950 . S
H5956 C5977 0.950 . S
H5957 C5980 0.950 . S
H5958 C5981 0.950 . S
H5959 C5983 0.950 . S
H5960 C5984 0.950 . S
H5961 C5985 0.951 . S
H5962 C5987 0.951 . S
H5963 C5989 0.950 . S
H5964 C5990 0.950 . S
H5965 C5992 0.950 . S
H5966 C5995 0.950 . S
H5967 C5996 0.950 . S
H5968 C5998 0.950 . S
H5969 C5999 0.950 . S
C5970 H5952 0.951 . S
C5970 C5971 1.366 . S
C5970 C5972 1.388 . S
C5971 C5970 1.366 . S
C5971 C5975 1.385 . S
C5972 H5953 0.951 . S
C5972 C5970 1.388 . S
C5972 C5973 1.366 . S
C5973 C5972 1.366 . S
C5973 C5974 1.414 . S
C5973 C5976 1.499 . S
C5974 H5954 0.950 . S
C5974 C5973 1.414 . S
C5974 C5975 1.374 . S
C5975 H5955 0.950 . S
C5975 C5971 1.385 . S
C5975 C5974 1.374 . S
C5976 C5973 1.499 . S
C5976 C5977 1.373 . S
C5976 C5978 1.389 . S
C5977 H5956 0.950 . S
C5977 C5976 1.373 . S
C5977 C5993 1.377 . S
C5978 C5976 1.389 . S
C5978 C5979 1.524 . S
C5978 C5992 1.377 . S
C5979 C5978 1.524 . S
C5979 C5980 1.397 . S
C5979 C5984 1.363 . S
C5980 H5957 0.950 . S
C5980 C5979 1.397 . S
C5980 C5981 1.334 . S
C5981 H5958 0.950 . S
C5981 C5980 1.334 . S
C5981 C5982 1.287 . S
C5982 C5981 1.287 . S
C5982 C5983 1.524 . S
C5982 H6001 0.913 . S
C5983 H5959 0.950 . S
C5983 C5982 1.524 . S
C5983 C5984 1.415 . S
C5984 H5960 0.950 . S
C5984 C5979 1.363 . S
C5984 C5983 1.415 . S
C5985 H5961 0.951 . S
C5985 C5986 1.366 . S
C5985 C5987 1.388 . S
C5986 C5985 1.366 . S
C5986 C5990 1.385 . S
C5987 H5962 0.951 . S
C5987 C5985 1.388 . S
C5987 C5988 1.366 . S
C5988 C5987 1.366 . S
C5988 C5989 1.414 . S
C5988 C5991 1.499 . S
C5989 H5963 0.950 . S
C5989 C5988 1.414 . S
C5989 C5990 1.374 . S
C5990 H5964 0.950 . S
C5990 C5986 1.385 . S
C5990 C5989 1.374 . S
C5991 C5988 1.499 . S
C5991 C5992 1.373 . S
C5991 C5993 1.389 . S
C5992 H5965 0.950 . S
C5992 C5978 1.377 . S
C5992 C5991 1.373 . S
C5993 C5977 1.377 . S
C5993 C5991 1.389 . S
C5993 C5994 1.524 . S
C5994 C5993 1.524 . S
C5994 C5995 1.397 . S
C5994 C5999 1.363 . S
C5995 H5966 0.950 . S
C5995 C5994 1.397 . S
C5995 C5996 1.334 . S
C5996 H5967 0.950 . S
C5996 C5995 1.334 . S
C5996 C5997 1.287 . S
C5997 C5996 1.287 . S
C5997 C5998 1.524 . S
C5997 H6000 0.999 . S
C5998 H5968 0.950 . S
C5998 C5997 1.524 . S
C5998 C5999 1.415 . S
C5999 H5969 0.950 . S
C5999 C5994 1.363 . S
C5999 C5998 1.415 . S
H6000 C5997 0.999 . S
H6001 C5982 0.913 . S
H6002 C6020 0.951 . S
H6003 C6022 0.951 . S
H6004 C6024 0.950 . S
H6005 C6025 0.950 . S
H6006 C6027 0.950 . S
H6007 C6030 0.950 . S
H6008 C6031 0.950 . S
H6009 C6033 0.950 . S
H6010 C6034 0.950 . S
H6011 C6035 0.951 . S
H6012 C6037 0.951 . S
H6013 C6039 0.950 . S
H6014 C6040 0.950 . S
H6015 C6042 0.950 . S
H6016 C6045 0.950 . S
H6017 C6046 0.950 . S
H6018 C6048 0.950 . S
H6019 C6049 0.950 . S
C6020 H6002 0.951 . S
C6020 C6021 1.366 . S
C6020 C6022 1.388 . S
C6021 C6020 1.366 . S
C6021 C6025 1.385 . S
C6022 H6003 0.951 . S
C6022 C6020 1.388 . S
C6022 C6023 1.366 . S
C6023 C6022 1.366 . S
C6023 C6024 1.414 . S
C6023 C6026 1.499 . S
C6024 H6004 0.950 . S
C6024 C6023 1.414 . S
C6024 C6025 1.374 . S
C6025 H6005 0.950 . S
C6025 C6021 1.385 . S
C6025 C6024 1.374 . S
C6026 C6023 1.499 . S
C6026 C6027 1.373 . S
C6026 C6028 1.389 . S
C6027 H6006 0.950 . S
C6027 C6026 1.373 . S
C6027 C6043 1.377 . S
C6028 C6026 1.389 . S
C6028 C6029 1.524 . S
C6028 C6042 1.377 . S
C6029 C6028 1.524 . S
C6029 C6030 1.397 . S
C6029 C6034 1.363 . S
C6030 H6007 0.950 . S
C6030 C6029 1.397 . S
C6030 C6031 1.334 . S
C6031 H6008 0.950 . S
C6031 C6030 1.334 . S
C6031 C6032 1.287 . S
C6032 C6031 1.287 . S
C6032 C6033 1.524 . S
C6032 H6051 0.913 . S
C6033 H6009 0.950 . S
C6033 C6032 1.524 . S
C6033 C6034 1.415 . S
C6034 H6010 0.950 . S
C6034 C6029 1.363 . S
C6034 C6033 1.415 . S
C6035 H6011 0.951 . S
C6035 C6036 1.366 . S
C6035 C6037 1.388 . S
C6036 C6035 1.366 . S
C6036 C6040 1.385 . S
C6037 H6012 0.951 . S
C6037 C6035 1.388 . S
C6037 C6038 1.366 . S
C6038 C6037 1.366 . S
C6038 C6039 1.414 . S
C6038 C6041 1.499 . S
C6039 H6013 0.950 . S
C6039 C6038 1.414 . S
C6039 C6040 1.374 . S
C6040 H6014 0.950 . S
C6040 C6036 1.385 . S
C6040 C6039 1.374 . S
C6041 C6038 1.499 . S
C6041 C6042 1.373 . S
C6041 C6043 1.389 . S
C6042 H6015 0.950 . S
C6042 C6028 1.377 . S
C6042 C6041 1.373 . S
C6043 C6027 1.377 . S
C6043 C6041 1.389 . S
C6043 C6044 1.524 . S
C6044 C6043 1.524 . S
C6044 C6045 1.397 . S
C6044 C6049 1.363 . S
C6045 H6016 0.950 . S
C6045 C6044 1.397 . S
C6045 C6046 1.334 . S
C6046 H6017 0.950 . S
C6046 C6045 1.334 . S
C6046 C6047 1.287 . S
C6047 C6046 1.287 . S
C6047 C6048 1.524 . S
C6047 H6050 0.999 . S
C6048 H6018 0.950 . S
C6048 C6047 1.524 . S
C6048 C6049 1.415 . S
C6049 H6019 0.950 . S
C6049 C6044 1.363 . S
C6049 C6048 1.415 . S
H6050 C6047 0.999 . S
H6051 C6032 0.913 . S
H6052 C6070 0.951 . S
H6053 C6072 0.951 . S
H6054 C6074 0.950 . S
H6055 C6075 0.950 . S
H6056 C6077 0.950 . S
H6057 C6080 0.950 . S
H6058 C6081 0.950 . S
H6059 C6083 0.950 . S
H6060 C6084 0.950 . S
H6061 C6085 0.951 . S
H6062 C6087 0.951 . S
H6063 C6089 0.950 . S
H6064 C6090 0.950 . S
H6065 C6092 0.950 . S
H6066 C6095 0.950 . S
H6067 C6096 0.950 . S
H6068 C6098 0.950 . S
H6069 C6099 0.950 . S
C6070 H6052 0.951 . S
C6070 C6071 1.366 . S
C6070 C6072 1.388 . S
C6071 C6070 1.366 . S
C6071 C6075 1.385 . S
C6072 H6053 0.951 . S
C6072 C6070 1.388 . S
C6072 C6073 1.366 . S
C6073 C6072 1.366 . S
C6073 C6074 1.414 . S
C6073 C6076 1.499 . S
C6074 H6054 0.950 . S
C6074 C6073 1.414 . S
C6074 C6075 1.374 . S
C6075 H6055 0.950 . S
C6075 C6071 1.385 . S
C6075 C6074 1.374 . S
C6076 C6073 1.499 . S
C6076 C6077 1.373 . S
C6076 C6078 1.389 . S
C6077 H6056 0.950 . S
C6077 C6076 1.373 . S
C6077 C6093 1.377 . S
C6078 C6076 1.389 . S
C6078 C6079 1.524 . S
C6078 C6092 1.377 . S
C6079 C6078 1.524 . S
C6079 C6080 1.397 . S
C6079 C6084 1.363 . S
C6080 H6057 0.950 . S
C6080 C6079 1.397 . S
C6080 C6081 1.334 . S
C6081 H6058 0.950 . S
C6081 C6080 1.334 . S
C6081 C6082 1.287 . S
C6082 C6081 1.287 . S
C6082 C6083 1.524 . S
C6082 H6101 0.913 . S
C6083 H6059 0.950 . S
C6083 C6082 1.524 . S
C6083 C6084 1.415 . S
C6084 H6060 0.950 . S
C6084 C6079 1.363 . S
C6084 C6083 1.415 . S
C6085 H6061 0.951 . S
C6085 C6086 1.366 . S
C6085 C6087 1.388 . S
C6086 C6085 1.366 . S
C6086 C6090 1.385 . S
C6087 H6062 0.951 . S
C6087 C6085 1.388 . S
C6087 C6088 1.366 . S
C6088 C6087 1.366 . S
C6088 C6089 1.414 . S
C6088 C6091 1.499 . S
C6089 H6063 0.950 . S
C6089 C6088 1.414 . S
C6089 C6090 1.374 . S
C6090 H6064 0.950 . S
C6090 C6086 1.385 . S
C6090 C6089 1.374 . S
C6091 C6088 1.499 . S
C6091 C6092 1.373 . S
C6091 C6093 1.389 . S
C6092 H6065 0.950 . S
C6092 C6078 1.377 . S
C6092 C6091 1.373 . S
C6093 C6077 1.377 . S
C6093 C6091 1.389 . S
C6093 C6094 1.524 . S
C6094 C6093 1.524 . S
C6094 C6095 1.397 . S
C6094 C6099 1.363 . S
C6095 H6066 0.950 . S
C6095 C6094 1.397 . S
C6095 C6096 1.334 . S
C6096 H6067 0.950 . S
C6096 C6095 1.334 . S
C6096 C6097 1.287 . S
C6097 C6096 1.287 . S
C6097 C6098 1.524 . S
C6097 H6100 0.999 . S
C6098 H6068 0.950 . S
C6098 C6097 1.524 . S
C6098 C6099 1.415 . S
C6099 H6069 0.950 . S
C6099 C6094 1.363 . S
C6099 C6098 1.415 . S
H6100 C6097 0.999 . S
H6101 C6082 0.913 . S
H6102 C6120 0.951 1_556 S
H6103 C6122 0.951 1_556 S
H6104 C6124 0.950 . S
H6105 C6125 0.950 . S
H6106 C6127 0.950 . S
H6107 C6130 0.950 . S
H6108 C6131 0.950 . S
H6109 C6133 0.950 . S
H6110 C6134 0.950 . S
H6111 C6135 0.951 . S
H6112 C6137 0.951 . S
H6113 C6139 0.952 . S
H6114 C6140 0.950 . S
H6115 C6142 0.950 1_556 S
H6116 C6145 0.950 . S
H6117 C6146 0.950 . S
H6118 C6148 0.950 . S
H6119 C6149 0.950 . S
C6120 H6102 0.951 1_554 S
C6120 C6121 1.366 . S
C6120 C6122 1.388 . S
C6121 C6120 1.366 . S
C6121 C6125 1.385 . S
C6122 H6103 0.951 1_554 S
C6122 C6120 1.388 . S
C6122 C6123 1.366 . S
C6123 C6122 1.366 . S
C6123 C6124 1.414 . S
C6123 C6126 1.499 . S
C6124 H6104 0.950 . S
C6124 C6123 1.414 . S
C6124 C6125 1.374 . S
C6125 H6105 0.950 . S
C6125 C6121 1.385 . S
C6125 C6124 1.374 . S
C6126 C6123 1.499 . S
C6126 C6127 1.373 1_565 S
C6126 C6128 1.389 . S
C6127 H6106 0.950 . S
C6127 C6126 1.373 1_545 S
C6127 C6143 1.377 . S
C6128 C6126 1.389 . S
C6128 C6129 1.524 1_554 S
C6128 C6142 1.377 . S
C6129 C6128 1.524 1_556 S
C6129 C6130 1.397 1_556 S
C6129 C6134 1.363 . S
C6130 H6107 0.950 . S
C6130 C6129 1.397 1_554 S
C6130 C6131 1.334 . S
C6131 H6108 0.950 . S
C6131 C6130 1.334 . S
C6131 C6132 1.287 1_554 S
C6132 C6131 1.287 1_556 S
C6132 C6133 1.524 . S
C6132 H6151 0.913 . S
C6133 H6109 0.950 . S
C6133 C6132 1.524 . S
C6133 C6134 1.415 . S
C6134 H6110 0.950 . S
C6134 C6129 1.363 . S
C6134 C6133 1.415 . S
C6135 H6111 0.951 . S
C6135 C6136 1.366 . S
C6135 C6137 1.388 . S
C6136 C6135 1.366 . S
C6136 C6140 1.385 1_554 S
C6137 H6112 0.951 . S
C6137 C6135 1.388 . S
C6137 C6138 1.372 . S
C6138 C6137 1.372 . S
C6138 C6139 1.417 1_544 S
C6138 C6141 1.494 1_545 S
C6139 H6113 0.952 . S
C6139 C6138 1.417 1_566 S
C6139 C6140 1.373 1_565 S
C6140 H6114 0.950 . S
C6140 C6136 1.385 1_556 S
C6140 C6139 1.373 1_545 S
C6141 C6138 1.494 1_565 S
C6141 C6142 1.373 . S
C6141 C6143 1.389 1_565 S
C6142 H6115 0.950 1_554 S
C6142 C6128 1.377 . S
C6142 C6141 1.373 . S
C6143 C6127 1.377 . S
C6143 C6141 1.389 1_545 S
C6143 C6144 1.524 . S
C6144 C6143 1.524 . S
C6144 C6145 1.397 . S
C6144 C6149 1.363 . S
C6145 H6116 0.950 . S
C6145 C6144 1.397 . S
C6145 C6146 1.334 . S
C6146 H6117 0.950 . S
C6146 C6145 1.334 . S
C6146 C6147 1.287 . S
C6147 C6146 1.287 . S
C6147 C6148 1.524 . S
C6147 H6150 0.999 . S
C6148 H6118 0.950 . S
C6148 C6147 1.524 . S
C6148 C6149 1.415 . S
C6149 H6119 0.950 . S
C6149 C6144 1.363 . S
C6149 C6148 1.415 . S
H6150 C6147 0.999 . S
H6151 C6132 0.913 . S
H6152 C6170 0.951 . S
H6153 C6172 0.951 . S
H6154 C6174 0.950 . S
H6155 C6175 0.950 . S
H6156 C6177 0.950 . S
H6157 C6180 0.950 . S
H6158 C6181 0.950 . S
H6159 C6183 0.950 . S
H6160 C6184 0.950 . S
H6161 C6185 0.951 . S
H6162 C6187 0.951 . S
H6163 C6189 0.950 . S
H6164 C6190 0.950 . S
H6165 C6192 0.950 . S
H6166 C6195 0.950 . S
H6167 C6196 0.950 . S
H6168 C6198 0.950 . S
H6169 C6199 0.950 . S
C6170 H6152 0.951 . S
C6170 C6171 1.366 . S
C6170 C6172 1.388 . S
C6171 C6170 1.366 . S
C6171 C6175 1.385 . S
C6172 H6153 0.951 . S
C6172 C6170 1.388 . S
C6172 C6173 1.366 . S
C6173 C6172 1.366 . S
C6173 C6174 1.414 . S
C6173 C6176 1.499 . S
C6174 H6154 0.950 . S
C6174 C6173 1.414 . S
C6174 C6175 1.374 . S
C6175 H6155 0.950 . S
C6175 C6171 1.385 . S
C6175 C6174 1.374 . S
C6176 C6173 1.499 . S
C6176 C6177 1.373 . S
C6176 C6178 1.389 . S
C6177 H6156 0.950 . S
C6177 C6176 1.373 . S
C6177 C6193 1.377 . S
C6178 C6176 1.389 . S
C6178 C6179 1.524 . S
C6178 C6192 1.377 . S
C6179 C6178 1.524 . S
C6179 C6180 1.397 . S
C6179 C6184 1.363 . S
C6180 H6157 0.950 . S
C6180 C6179 1.397 . S
C6180 C6181 1.334 . S
C6181 H6158 0.950 . S
C6181 C6180 1.334 . S
C6181 C6182 1.287 . S
C6182 C6181 1.287 . S
C6182 C6183 1.524 . S
C6182 H6201 0.913 . S
C6183 H6159 0.950 . S
C6183 C6182 1.524 . S
C6183 C6184 1.415 . S
C6184 H6160 0.950 . S
C6184 C6179 1.363 . S
C6184 C6183 1.415 . S
C6185 H6161 0.951 . S
C6185 C6186 1.366 . S
C6185 C6187 1.388 . S
C6186 C6185 1.366 . S
C6186 C6190 1.385 . S
C6187 H6162 0.951 . S
C6187 C6185 1.388 . S
C6187 C6188 1.366 . S
C6188 C6187 1.366 . S
C6188 C6189 1.414 . S
C6188 C6191 1.499 . S
C6189 H6163 0.950 . S
C6189 C6188 1.414 . S
C6189 C6190 1.374 . S
C6190 H6164 0.950 . S
C6190 C6186 1.385 . S
C6190 C6189 1.374 . S
C6191 C6188 1.499 . S
C6191 C6192 1.373 . S
C6191 C6193 1.389 . S
C6192 H6165 0.950 . S
C6192 C6178 1.377 . S
C6192 C6191 1.373 . S
C6193 C6177 1.377 . S
C6193 C6191 1.389 . S
C6193 C6194 1.524 . S
C6194 C6193 1.524 . S
C6194 C6195 1.397 . S
C6194 C6199 1.363 . S
C6195 H6166 0.950 . S
C6195 C6194 1.397 . S
C6195 C6196 1.334 . S
C6196 H6167 0.950 . S
C6196 C6195 1.334 . S
C6196 C6197 1.287 . S
C6197 C6196 1.287 . S
C6197 C6198 1.524 . S
C6197 H6200 0.999 . S
C6198 H6168 0.950 . S
C6198 C6197 1.524 . S
C6198 C6199 1.415 . S
C6199 H6169 0.950 . S
C6199 C6194 1.363 . S
C6199 C6198 1.415 . S
H6200 C6197 0.999 . S
H6201 C6182 0.913 . S
H6202 C6220 0.949 1_556 S
H6203 C6222 0.951 . S
H6204 C6224 0.950 . S
H6205 C6225 0.950 . S
H6206 C6227 0.966 . S
H6207 C6230 0.950 . S
H6208 C6231 0.950 . S
H6209 C6233 0.950 . S
H6210 C6234 0.950 . S
H6211 C6235 0.951 . S
H6212 C6237 0.951 . S
H6213 C6239 0.950 . S
H6214 C6240 0.950 . S
H6215 C6242 0.950 . S
H6216 C6245 0.950 . S
H6217 C6246 0.950 . S
H6218 C6248 0.950 . S
H6219 C6249 0.950 1_554 S
C6220 H6202 0.949 1_554 S
C6220 C6221 1.366 . S
C6220 C6222 1.388 . S
C6221 C6220 1.366 . S
C6221 C6225 1.385 . S
C6222 H6203 0.951 . S
C6222 C6220 1.388 . S
C6222 C6223 1.366 . S
C6223 C6222 1.366 . S
C6223 C6224 1.414 . S
C6223 C6226 1.499 . S
C6224 H6204 0.950 . S
C6224 C6223 1.414 . S
C6224 C6225 1.374 . S
C6225 H6205 0.950 . S
C6225 C6221 1.385 . S
C6225 C6224 1.374 . S
C6226 C6223 1.499 . S
C6226 C6227 1.373 . S
C6226 C6228 1.389 . S
C6227 H6206 0.966 . S
C6227 C6226 1.373 . S
C6227 C6243 1.377 . S
C6228 C6226 1.389 . S
C6228 C6229 1.524 . S
C6228 C6242 1.377 . S
C6229 C6228 1.524 . S
C6229 C6230 1.397 . S
C6229 C6234 1.363 . S
C6230 H6207 0.950 . S
C6230 C6229 1.397 . S
C6230 C6231 1.334 . S
C6231 H6208 0.950 . S
C6231 C6230 1.334 . S
C6231 C6232 1.287 . S
C6232 C6231 1.287 . S
C6232 C6233 1.524 . S
C6232 H6251 0.913 . S
C6233 H6209 0.950 . S
C6233 C6232 1.524 . S
C6233 C6234 1.415 . S
C6234 H6210 0.950 . S
C6234 C6229 1.363 . S
C6234 C6233 1.415 . S
C6235 H6211 0.951 . S
C6235 C6236 1.366 . S
C6235 C6237 1.388 . S
C6236 C6235 1.366 . S
C6236 C6240 1.385 . S
C6237 H6212 0.951 . S
C6237 C6235 1.388 . S
C6237 C6238 1.366 . S
C6238 C6237 1.366 . S
C6238 C6239 1.414 . S
C6238 C6241 1.499 . S
C6239 H6213 0.950 . S
C6239 C6238 1.414 . S
C6239 C6240 1.374 . S
C6240 H6214 0.950 . S
C6240 C6236 1.385 . S
C6240 C6239 1.374 . S
C6241 C6238 1.499 . S
C6241 C6242 1.373 . S
C6241 C6243 1.389 . S
C6242 H6215 0.950 . S
C6242 C6228 1.377 . S
C6242 C6241 1.373 . S
C6243 C6227 1.377 . S
C6243 C6241 1.389 . S
C6243 C6244 1.480 1_554 S
C6244 C6243 1.480 1_556 S
C6244 C6245 1.434 . S
C6244 C6249 1.378 . S
C6245 H6216 0.950 . S
C6245 C6244 1.434 . S
C6245 C6246 1.334 . S
C6246 H6217 0.950 . S
C6246 C6245 1.334 . S
C6246 C6247 1.287 . S
C6247 C6246 1.287 . S
C6247 C6248 1.524 . S
C6247 H6250 0.999 . S
C6248 H6218 0.950 . S
C6248 C6247 1.524 . S
C6248 C6249 1.415 . S
C6249 H6219 0.950 1_556 S
C6249 C6244 1.378 . S
C6249 C6248 1.415 . S
H6250 C6247 0.999 . S
H6251 C6232 0.913 . S
H6252 C6270 0.951 . S
H6253 C6272 0.951 . S
H6254 C6274 0.950 . S
H6255 C6275 0.950 . S
H6256 C6277 0.950 . S
H6257 C6280 0.950 . S
H6258 C6281 0.950 . S
H6259 C6283 0.950 . S
H6260 C6284 0.950 . S
H6261 C6285 0.951 . S
H6262 C6287 0.951 . S
H6263 C6289 0.950 . S
H6264 C6290 0.950 . S
H6265 C6292 0.950 . S
H6266 C6295 0.950 . S
H6267 C6296 0.950 . S
H6268 C6298 0.950 . S
H6269 C6299 0.950 . S
C6270 H6252 0.951 . S
C6270 C6271 1.366 . S
C6270 C6272 1.388 . S
C6271 C6270 1.366 . S
C6271 C6275 1.385 . S
C6272 H6253 0.951 . S
C6272 C6270 1.388 . S
C6272 C6273 1.366 . S
C6273 C6272 1.366 . S
C6273 C6274 1.414 . S
C6273 C6276 1.499 . S
C6274 H6254 0.950 . S
C6274 C6273 1.414 . S
C6274 C6275 1.374 . S
C6275 H6255 0.950 . S
C6275 C6271 1.385 . S
C6275 C6274 1.374 . S
C6276 C6273 1.499 . S
C6276 C6277 1.373 . S
C6276 C6278 1.389 . S
C6277 H6256 0.950 . S
C6277 C6276 1.373 . S
C6277 C6293 1.377 . S
C6278 C6276 1.389 . S
C6278 C6279 1.524 . S
C6278 C6292 1.377 . S
C6279 C6278 1.524 . S
C6279 C6280 1.397 . S
C6279 C6284 1.363 . S
C6280 H6257 0.950 . S
C6280 C6279 1.397 . S
C6280 C6281 1.334 . S
C6281 H6258 0.950 . S
C6281 C6280 1.334 . S
C6281 C6282 1.287 . S
C6282 C6281 1.287 . S
C6282 C6283 1.524 . S
C6282 H6301 0.913 . S
C6283 H6259 0.950 . S
C6283 C6282 1.524 . S
C6283 C6284 1.415 . S
C6284 H6260 0.950 . S
C6284 C6279 1.363 . S
C6284 C6283 1.415 . S
C6285 H6261 0.951 . S
C6285 C6286 1.366 . S
C6285 C6287 1.388 . S
C6286 C6285 1.366 . S
C6286 C6290 1.385 . S
C6287 H6262 0.951 . S
C6287 C6285 1.388 . S
C6287 C6288 1.366 . S
C6288 C6287 1.366 . S
C6288 C6289 1.414 . S
C6288 C6291 1.499 . S
C6289 H6263 0.950 . S
C6289 C6288 1.414 . S
C6289 C6290 1.374 . S
C6290 H6264 0.950 . S
C6290 C6286 1.385 . S
C6290 C6289 1.374 . S
C6291 C6288 1.499 . S
C6291 C6292 1.373 . S
C6291 C6293 1.389 . S
C6292 H6265 0.950 . S
C6292 C6278 1.377 . S
C6292 C6291 1.373 . S
C6293 C6277 1.377 . S
C6293 C6291 1.389 . S
C6293 C6294 1.524 . S
C6294 C6293 1.524 . S
C6294 C6295 1.397 . S
C6294 C6299 1.363 . S
C6295 H6266 0.950 . S
C6295 C6294 1.397 . S
C6295 C6296 1.334 . S
C6296 H6267 0.950 . S
C6296 C6295 1.334 . S
C6296 C6297 1.287 . S
C6297 C6296 1.287 . S
C6297 C6298 1.524 . S
C6297 H6300 0.999 . S
C6298 H6268 0.950 . S
C6298 C6297 1.524 . S
C6298 C6299 1.415 . S
C6299 H6269 0.950 . S
C6299 C6294 1.363 . S
C6299 C6298 1.415 . S
H6300 C6297 0.999 . S
H6301 C6282 0.913 . S
H6302 C6320 0.951 . S
H6303 C6322 0.951 . S
H6304 C6324 0.950 . S
H6305 C6325 0.950 . S
H6306 C6327 0.950 . S
H6307 C6330 0.950 . S
H6308 C6331 0.950 . S
H6309 C6333 0.950 . S
H6310 C6334 0.950 . S
H6311 C6335 0.951 . S
H6312 C6337 0.951 . S
H6313 C6339 0.950 . S
H6314 C6340 0.950 . S
H6315 C6342 0.950 . S
H6316 C6345 0.950 . S
H6317 C6346 0.950 . S
H6318 C6348 0.950 . S
H6319 C6349 0.950 . S
C6320 H6302 0.951 . S
C6320 C6321 1.366 . S
C6320 C6322 1.388 . S
C6321 C6320 1.366 . S
C6321 C6325 1.385 . S
C6322 H6303 0.951 . S
C6322 C6320 1.388 . S
C6322 C6323 1.366 . S
C6323 C6322 1.366 . S
C6323 C6324 1.414 . S
C6323 C6326 1.499 . S
C6324 H6304 0.950 . S
C6324 C6323 1.414 . S
C6324 C6325 1.374 . S
C6325 H6305 0.950 . S
C6325 C6321 1.385 . S
C6325 C6324 1.374 . S
C6326 C6323 1.499 . S
C6326 C6327 1.373 . S
C6326 C6328 1.389 . S
C6327 H6306 0.950 . S
C6327 C6326 1.373 . S
C6327 C6343 1.377 . S
C6328 C6326 1.389 . S
C6328 C6329 1.524 . S
C6328 C6342 1.377 . S
C6329 C6328 1.524 . S
C6329 C6330 1.397 . S
C6329 C6334 1.363 . S
C6330 H6307 0.950 . S
C6330 C6329 1.397 . S
C6330 C6331 1.334 . S
C6331 H6308 0.950 . S
C6331 C6330 1.334 . S
C6331 C6332 1.287 . S
C6332 C6331 1.287 . S
C6332 C6333 1.524 . S
C6332 H6351 0.913 . S
C6333 H6309 0.950 . S
C6333 C6332 1.524 . S
C6333 C6334 1.415 . S
C6334 H6310 0.950 . S
C6334 C6329 1.363 . S
C6334 C6333 1.415 . S
C6335 H6311 0.951 . S
C6335 C6336 1.366 . S
C6335 C6337 1.388 . S
C6336 C6335 1.366 . S
C6336 C6340 1.385 . S
C6337 H6312 0.951 . S
C6337 C6335 1.388 . S
C6337 C6338 1.366 . S
C6338 C6337 1.366 . S
C6338 C6339 1.414 . S
C6338 C6341 1.499 . S
C6339 H6313 0.950 . S
C6339 C6338 1.414 . S
C6339 C6340 1.374 . S
C6340 H6314 0.950 . S
C6340 C6336 1.385 . S
C6340 C6339 1.374 . S
C6341 C6338 1.499 . S
C6341 C6342 1.373 . S
C6341 C6343 1.389 . S
C6342 H6315 0.950 . S
C6342 C6328 1.377 . S
C6342 C6341 1.373 . S
C6343 C6327 1.377 . S
C6343 C6341 1.389 . S
C6343 C6344 1.524 . S
C6344 C6343 1.524 . S
C6344 C6345 1.397 . S
C6344 C6349 1.363 . S
C6345 H6316 0.950 . S
C6345 C6344 1.397 . S
C6345 C6346 1.334 . S
C6346 H6317 0.950 . S
C6346 C6345 1.334 . S
C6346 C6347 1.287 . S
C6347 C6346 1.287 . S
C6347 C6348 1.524 . S
C6347 H6350 0.999 . S
C6348 H6318 0.950 . S
C6348 C6347 1.524 . S
C6348 C6349 1.415 . S
C6349 H6319 0.950 . S
C6349 C6344 1.363 . S
C6349 C6348 1.415 . S
H6350 C6347 0.999 . S
H6351 C6332 0.913 . S
H6352 C6370 0.951 . S
H6353 C6372 0.951 . S
H6354 C6374 0.950 . S
H6355 C6375 0.950 . S
H6356 C6377 0.950 . S
H6357 C6380 0.950 . S
H6358 C6381 0.950 . S
H6359 C6383 0.950 . S
H6360 C6384 0.950 . S
H6361 C6385 0.951 . S
H6362 C6387 0.951 . S
H6363 C6389 0.950 . S
H6364 C6390 0.950 . S
H6365 C6392 0.950 . S
H6366 C6395 0.950 . S
H6367 C6396 0.950 . S
H6368 C6398 0.950 . S
H6369 C6399 0.950 . S
C6370 H6352 0.951 . S
C6370 C6371 1.366 . S
C6370 C6372 1.388 . S
C6371 C6370 1.366 . S
C6371 C6375 1.385 . S
C6372 H6353 0.951 . S
C6372 C6370 1.388 . S
C6372 C6373 1.366 . S
C6373 C6372 1.366 . S
C6373 C6374 1.414 . S
C6373 C6376 1.499 . S
C6374 H6354 0.950 . S
C6374 C6373 1.414 . S
C6374 C6375 1.374 . S
C6375 H6355 0.950 . S
C6375 C6371 1.385 . S
C6375 C6374 1.374 . S
C6376 C6373 1.499 . S
C6376 C6377 1.373 . S
C6376 C6378 1.389 . S
C6377 H6356 0.950 . S
C6377 C6376 1.373 . S
C6377 C6393 1.377 . S
C6378 C6376 1.389 . S
C6378 C6379 1.524 . S
C6378 C6392 1.377 . S
C6379 C6378 1.524 . S
C6379 C6380 1.397 . S
C6379 C6384 1.363 . S
C6380 H6357 0.950 . S
C6380 C6379 1.397 . S
C6380 C6381 1.334 . S
C6381 H6358 0.950 . S
C6381 C6380 1.334 . S
C6381 C6382 1.287 . S
C6382 C6381 1.287 . S
C6382 C6383 1.524 . S
C6382 H6401 0.913 . S
C6383 H6359 0.950 . S
C6383 C6382 1.524 . S
C6383 C6384 1.415 . S
C6384 H6360 0.950 . S
C6384 C6379 1.363 . S
C6384 C6383 1.415 . S
C6385 H6361 0.951 . S
C6385 C6386 1.366 . S
C6385 C6387 1.388 . S
C6386 C6385 1.366 . S
C6386 C6390 1.385 . S
C6387 H6362 0.951 . S
C6387 C6385 1.388 . S
C6387 C6388 1.366 . S
C6388 C6387 1.366 . S
C6388 C6389 1.414 . S
C6388 C6391 1.499 . S
C6389 H6363 0.950 . S
C6389 C6388 1.414 . S
C6389 C6390 1.374 . S
C6390 H6364 0.950 . S
C6390 C6386 1.385 . S
C6390 C6389 1.374 . S
C6391 C6388 1.499 . S
C6391 C6392 1.373 . S
C6391 C6393 1.389 . S
C6392 H6365 0.950 . S
C6392 C6378 1.377 . S
C6392 C6391 1.373 . S
C6393 C6377 1.377 . S
C6393 C6391 1.389 . S
C6393 C6394 1.524 . S
C6394 C6393 1.524 . S
C6394 C6395 1.397 . S
C6394 C6399 1.363 . S
C6395 H6366 0.950 . S
C6395 C6394 1.397 . S
C6395 C6396 1.334 . S
C6396 H6367 0.950 . S
C6396 C6395 1.334 . S
C6396 C6397 1.287 . S
C6397 C6396 1.287 . S
C6397 C6398 1.524 . S
C6397 H6400 0.999 . S
C6398 H6368 0.950 . S
C6398 C6397 1.524 . S
C6398 C6399 1.415 . S
C6399 H6369 0.950 . S
C6399 C6394 1.363 . S
C6399 C6398 1.415 . S
H6400 C6397 0.999 . S
H6401 C6382 0.913 . S
H6402 C6420 0.951 . S
H6403 C6422 0.951 . S
H6404 C6424 0.950 . S
H6405 C6425 0.950 . S
H6406 C6427 0.950 . S
H6407 C6430 0.950 . S
H6408 C6431 0.950 . S
H6409 C6433 0.950 . S
H6410 C6434 0.950 . S
H6411 C6435 0.951 . S
H6412 C6437 0.951 . S
H6413 C6439 0.950 . S
H6414 C6440 0.950 . S
H6415 C6442 0.950 . S
H6416 C6445 0.950 . S
H6417 C6446 0.950 . S
H6418 C6448 0.950 . S
H6419 C6449 0.950 . S
C6420 H6402 0.951 . S
C6420 C6421 1.366 . S
C6420 C6422 1.388 . S
C6421 C6420 1.366 . S
C6421 C6425 1.385 . S
C6422 H6403 0.951 . S
C6422 C6420 1.388 . S
C6422 C6423 1.366 . S
C6423 C6422 1.366 . S
C6423 C6424 1.414 . S
C6423 C6426 1.499 . S
C6424 H6404 0.950 . S
C6424 C6423 1.414 . S
C6424 C6425 1.374 . S
C6425 H6405 0.950 . S
C6425 C6421 1.385 . S
C6425 C6424 1.374 . S
C6426 C6423 1.499 . S
C6426 C6427 1.373 . S
C6426 C6428 1.389 . S
C6427 H6406 0.950 . S
C6427 C6426 1.373 . S
C6427 C6443 1.377 . S
C6428 C6426 1.389 . S
C6428 C6429 1.524 . S
C6428 C6442 1.377 . S
C6429 C6428 1.524 . S
C6429 C6430 1.397 . S
C6429 C6434 1.363 . S
C6430 H6407 0.950 . S
C6430 C6429 1.397 . S
C6430 C6431 1.334 . S
C6431 H6408 0.950 . S
C6431 C6430 1.334 . S
C6431 C6432 1.287 . S
C6432 C6431 1.287 . S
C6432 C6433 1.524 . S
C6432 H6451 0.913 . S
C6433 H6409 0.950 . S
C6433 C6432 1.524 . S
C6433 C6434 1.415 . S
C6434 H6410 0.950 . S
C6434 C6429 1.363 . S
C6434 C6433 1.415 . S
C6435 H6411 0.951 . S
C6435 C6436 1.366 . S
C6435 C6437 1.388 . S
C6436 C6435 1.366 . S
C6436 C6440 1.385 . S
C6437 H6412 0.951 . S
C6437 C6435 1.388 . S
C6437 C6438 1.366 . S
C6438 C6437 1.366 . S
C6438 C6439 1.414 . S
C6438 C6441 1.499 . S
C6439 H6413 0.950 . S
C6439 C6438 1.414 . S
C6439 C6440 1.374 . S
C6440 H6414 0.950 . S
C6440 C6436 1.385 . S
C6440 C6439 1.374 . S
C6441 C6438 1.499 . S
C6441 C6442 1.373 . S
C6441 C6443 1.389 . S
C6442 H6415 0.950 . S
C6442 C6428 1.377 . S
C6442 C6441 1.373 . S
C6443 C6427 1.377 . S
C6443 C6441 1.389 . S
C6443 C6444 1.524 . S
C6444 C6443 1.524 . S
C6444 C6445 1.397 . S
C6444 C6449 1.363 . S
C6445 H6416 0.950 . S
C6445 C6444 1.397 . S
C6445 C6446 1.334 . S
C6446 H6417 0.950 . S
C6446 C6445 1.334 . S
C6446 C6447 1.287 . S
C6447 C6446 1.287 . S
C6447 C6448 1.524 . S
C6447 H6450 0.999 . S
C6448 H6418 0.950 . S
C6448 C6447 1.524 . S
C6448 C6449 1.415 . S
C6449 H6419 0.950 . S
C6449 C6444 1.363 . S
C6449 C6448 1.415 . S
H6450 C6447 0.999 . S
H6451 C6432 0.913 . S
H6452 C6470 0.951 . S
H6453 C6472 0.951 . S
H6454 C6474 0.950 . S
H6455 C6475 0.950 . S
H6456 C6477 0.950 . S
H6457 C6480 0.950 . S
H6458 C6481 0.950 . S
H6459 C6483 0.950 . S
H6460 C6484 0.950 . S
H6461 C6485 0.951 . S
H6462 C6487 0.951 . S
H6463 C6489 0.950 . S
H6464 C6490 0.950 . S
H6465 C6492 0.950 . S
H6466 C6495 0.950 . S
H6467 C6496 0.950 . S
H6468 C6498 0.950 . S
H6469 C6499 0.950 . S
C6470 H6452 0.951 . S
C6470 C6471 1.366 . S
C6470 C6472 1.388 . S
C6471 C6470 1.366 . S
C6471 C6475 1.385 . S
C6472 H6453 0.951 . S
C6472 C6470 1.388 . S
C6472 C6473 1.366 . S
C6473 C6472 1.366 . S
C6473 C6474 1.414 . S
C6473 C6476 1.499 . S
C6474 H6454 0.950 . S
C6474 C6473 1.414 . S
C6474 C6475 1.374 . S
C6475 H6455 0.950 . S
C6475 C6471 1.385 . S
C6475 C6474 1.374 . S
C6476 C6473 1.499 . S
C6476 C6477 1.373 . S
C6476 C6478 1.389 . S
C6477 H6456 0.950 . S
C6477 C6476 1.373 . S
C6477 C6493 1.377 . S
C6478 C6476 1.389 . S
C6478 C6479 1.524 . S
C6478 C6492 1.377 . S
C6479 C6478 1.524 . S
C6479 C6480 1.397 . S
C6479 C6484 1.363 . S
C6480 H6457 0.950 . S
C6480 C6479 1.397 . S
C6480 C6481 1.334 . S
C6481 H6458 0.950 . S
C6481 C6480 1.334 . S
C6481 C6482 1.287 . S
C6482 C6481 1.287 . S
C6482 C6483 1.524 . S
C6482 H6501 0.913 . S
C6483 H6459 0.950 . S
C6483 C6482 1.524 . S
C6483 C6484 1.415 . S
C6484 H6460 0.950 . S
C6484 C6479 1.363 . S
C6484 C6483 1.415 . S
C6485 H6461 0.951 . S
C6485 C6486 1.366 . S
C6485 C6487 1.388 . S
C6486 C6485 1.366 . S
C6486 C6490 1.385 . S
C6487 H6462 0.951 . S
C6487 C6485 1.388 . S
C6487 C6488 1.366 . S
C6488 C6487 1.366 . S
C6488 C6489 1.414 . S
C6488 C6491 1.499 . S
C6489 H6463 0.950 . S
C6489 C6488 1.414 . S
C6489 C6490 1.374 . S
C6490 H6464 0.950 . S
C6490 C6486 1.385 . S
C6490 C6489 1.374 . S
C6491 C6488 1.499 . S
C6491 C6492 1.373 . S
C6491 C6493 1.389 . S
C6492 H6465 0.950 . S
C6492 C6478 1.377 . S
C6492 C6491 1.373 . S
C6493 C6477 1.377 . S
C6493 C6491 1.389 . S
C6493 C6494 1.524 . S
C6494 C6493 1.524 . S
C6494 C6495 1.397 . S
C6494 C6499 1.363 1_455 S
C6495 H6466 0.950 . S
C6495 C6494 1.397 . S
C6495 C6496 1.334 1_455 S
C6496 H6467 0.950 . S
C6496 C6495 1.334 1_655 S
C6496 C6497 1.287 . S
C6497 C6496 1.287 . S
C6497 C6498 1.524 . S
C6497 H6500 0.999 . S
C6498 H6468 0.950 . S
C6498 C6497 1.524 . S
C6498 C6499 1.415 . S
C6499 H6469 0.950 . S
C6499 C6494 1.363 1_655 S
C6499 C6498 1.415 . S
H6500 C6497 0.999 . S
H6501 C6482 0.913 . S
H6502 C6520 0.951 . S
H6503 C6522 0.951 . S
H6504 C6524 0.950 . S
H6505 C6525 0.950 . S
H6506 C6527 0.950 . S
H6507 C6530 0.950 . S
H6508 C6531 0.950 . S
H6509 C6533 0.950 . S
H6510 C6534 0.950 . S
H6511 C6535 0.951 . S
H6512 C6537 0.951 . S
H6513 C6539 0.950 . S
H6514 C6540 0.950 . S
H6515 C6542 0.950 . S
H6516 C6545 0.950 . S
H6517 C6546 0.950 . S
H6518 C6548 0.950 . S
H6519 C6549 0.950 . S
C6520 H6502 0.951 . S
C6520 C6521 1.366 . S
C6520 C6522 1.388 . S
C6521 C6520 1.366 . S
C6521 C6525 1.385 . S
C6522 H6503 0.951 . S
C6522 C6520 1.388 . S
C6522 C6523 1.366 . S
C6523 C6522 1.366 . S
C6523 C6524 1.414 . S
C6523 C6526 1.499 . S
C6524 H6504 0.950 . S
C6524 C6523 1.414 . S
C6524 C6525 1.374 . S
C6525 H6505 0.950 . S
C6525 C6521 1.385 . S
C6525 C6524 1.374 . S
C6526 C6523 1.499 . S
C6526 C6527 1.373 . S
C6526 C6528 1.389 . S
C6527 H6506 0.950 . S
C6527 C6526 1.373 . S
C6527 C6543 1.377 . S
C6528 C6526 1.389 . S
C6528 C6529 1.524 . S
C6528 C6542 1.377 . S
C6529 C6528 1.524 . S
C6529 C6530 1.397 . S
C6529 C6534 1.363 . S
C6530 H6507 0.950 . S
C6530 C6529 1.397 . S
C6530 C6531 1.334 . S
C6531 H6508 0.950 . S
C6531 C6530 1.334 . S
C6531 C6532 1.287 . S
C6532 C6531 1.287 . S
C6532 C6533 1.524 . S
C6532 H6551 0.913 . S
C6533 H6509 0.950 . S
C6533 C6532 1.524 . S
C6533 C6534 1.415 . S
C6534 H6510 0.950 . S
C6534 C6529 1.363 . S
C6534 C6533 1.415 . S
C6535 H6511 0.951 . S
C6535 C6536 1.366 . S
C6535 C6537 1.388 . S
C6536 C6535 1.366 . S
C6536 C6540 1.385 . S
C6537 H6512 0.951 . S
C6537 C6535 1.388 . S
C6537 C6538 1.366 . S
C6538 C6537 1.366 . S
C6538 C6539 1.414 . S
C6538 C6541 1.499 . S
C6539 H6513 0.950 . S
C6539 C6538 1.414 . S
C6539 C6540 1.374 . S
C6540 H6514 0.950 . S
C6540 C6536 1.385 . S
C6540 C6539 1.374 . S
C6541 C6538 1.499 . S
C6541 C6542 1.373 . S
C6541 C6543 1.389 . S
C6542 H6515 0.950 . S
C6542 C6528 1.377 . S
C6542 C6541 1.373 . S
C6543 C6527 1.377 . S
C6543 C6541 1.389 . S
C6543 C6544 1.524 . S
C6544 C6543 1.524 . S
C6544 C6545 1.397 . S
C6544 C6549 1.363 . S
C6545 H6516 0.950 . S
C6545 C6544 1.397 . S
C6545 C6546 1.334 . S
C6546 H6517 0.950 . S
C6546 C6545 1.334 . S
C6546 C6547 1.287 . S
C6547 C6546 1.287 . S
C6547 C6548 1.524 . S
C6547 H6550 0.999 . S
C6548 H6518 0.950 . S
C6548 C6547 1.524 . S
C6548 C6549 1.415 . S
C6549 H6519 0.950 . S
C6549 C6544 1.363 . S
C6549 C6548 1.415 . S
H6550 C6547 0.999 . S
H6551 C6532 0.913 . S
H6552 C6570 0.951 . S
H6553 C6572 0.951 . S
H6554 C6574 0.950 . S
H6555 C6575 0.950 . S
H6556 C6577 0.950 . S
H6557 C6580 0.950 . S
H6558 C6581 0.950 . S
H6559 C6583 0.950 . S
H6560 C6584 0.950 . S
H6561 C6585 0.951 . S
H6562 C6587 0.951 . S
H6563 C6589 0.950 . S
H6564 C6590 0.950 . S
H6565 C6592 0.950 . S
H6566 C6595 0.950 . S
H6567 C6596 0.950 . S
H6568 C6598 0.950 . S
H6569 C6599 0.950 . S
C6570 H6552 0.951 . S
C6570 C6571 1.366 . S
C6570 C6572 1.388 . S
C6571 C6570 1.366 . S
C6571 C6575 1.385 . S
C6572 H6553 0.951 . S
C6572 C6570 1.388 . S
C6572 C6573 1.366 . S
C6573 C6572 1.366 . S
C6573 C6574 1.414 . S
C6573 C6576 1.499 . S
C6574 H6554 0.950 . S
C6574 C6573 1.414 . S
C6574 C6575 1.374 . S
C6575 H6555 0.950 . S
C6575 C6571 1.385 . S
C6575 C6574 1.374 . S
C6576 C6573 1.499 . S
C6576 C6577 1.373 . S
C6576 C6578 1.389 . S
C6577 H6556 0.950 . S
C6577 C6576 1.373 . S
C6577 C6593 1.377 . S
C6578 C6576 1.389 . S
C6578 C6579 1.524 . S
C6578 C6592 1.377 . S
C6579 C6578 1.524 . S
C6579 C6580 1.397 . S
C6579 C6584 1.363 . S
C6580 H6557 0.950 . S
C6580 C6579 1.397 . S
C6580 C6581 1.334 . S
C6581 H6558 0.950 . S
C6581 C6580 1.334 . S
C6581 C6582 1.287 . S
C6582 C6581 1.287 . S
C6582 C6583 1.524 . S
C6582 H6601 0.913 . S
C6583 H6559 0.950 . S
C6583 C6582 1.524 . S
C6583 C6584 1.415 . S
C6584 H6560 0.950 . S
C6584 C6579 1.363 . S
C6584 C6583 1.415 . S
C6585 H6561 0.951 . S
C6585 C6586 1.366 . S
C6585 C6587 1.388 . S
C6586 C6585 1.366 . S
C6586 C6590 1.385 . S
C6587 H6562 0.951 . S
C6587 C6585 1.388 . S
C6587 C6588 1.366 . S
C6588 C6587 1.366 . S
C6588 C6589 1.414 . S
C6588 C6591 1.499 . S
C6589 H6563 0.950 . S
C6589 C6588 1.414 . S
C6589 C6590 1.374 . S
C6590 H6564 0.950 . S
C6590 C6586 1.385 . S
C6590 C6589 1.374 . S
C6591 C6588 1.499 . S
C6591 C6592 1.373 . S
C6591 C6593 1.389 . S
C6592 H6565 0.950 . S
C6592 C6578 1.377 . S
C6592 C6591 1.373 . S
C6593 C6577 1.377 . S
C6593 C6591 1.389 . S
C6593 C6594 1.524 . S
C6594 C6593 1.524 . S
C6594 C6595 1.397 . S
C6594 C6599 1.363 . S
C6595 H6566 0.950 . S
C6595 C6594 1.397 . S
C6595 C6596 1.334 . S
C6596 H6567 0.950 . S
C6596 C6595 1.334 . S
C6596 C6597 1.287 . S
C6597 C6596 1.287 . S
C6597 C6598 1.524 . S
C6597 H6600 0.999 . S
C6598 H6568 0.950 . S
C6598 C6597 1.524 . S
C6598 C6599 1.415 . S
C6599 H6569 0.950 . S
C6599 C6594 1.363 . S
C6599 C6598 1.415 . S
H6600 C6597 0.999 . S
H6601 C6582 0.913 . S
H6602 C6620 0.951 . S
H6603 C6622 0.951 . S
H6604 C6624 0.950 . S
H6605 C6625 0.950 . S
H6606 C6627 0.950 . S
H6607 C6630 0.950 . S
H6608 C6631 0.950 . S
H6609 C6633 0.950 . S
H6610 C6634 0.950 . S
H6611 C6635 0.951 . S
H6612 C6637 0.951 . S
H6613 C6639 0.950 . S
H6614 C6640 0.950 . S
H6615 C6642 0.950 . S
H6616 C6645 0.950 . S
H6617 C6646 0.950 . S
H6618 C6648 0.950 . S
H6619 C6649 0.950 . S
C6620 H6602 0.951 . S
C6620 C6621 1.366 . S
C6620 C6622 1.388 . S
C6621 C6620 1.366 . S
C6621 C6625 1.385 . S
C6622 H6603 0.951 . S
C6622 C6620 1.388 . S
C6622 C6623 1.366 . S
C6623 C6622 1.366 . S
C6623 C6624 1.414 . S
C6623 C6626 1.499 . S
C6624 H6604 0.950 . S
C6624 C6623 1.414 . S
C6624 C6625 1.374 . S
C6625 H6605 0.950 . S
C6625 C6621 1.385 . S
C6625 C6624 1.374 . S
C6626 C6623 1.499 . S
C6626 C6627 1.373 . S
C6626 C6628 1.389 . S
C6627 H6606 0.950 . S
C6627 C6626 1.373 . S
C6627 C6643 1.377 . S
C6628 C6626 1.389 . S
C6628 C6629 1.524 . S
C6628 C6642 1.377 . S
C6629 C6628 1.524 . S
C6629 C6630 1.397 . S
C6629 C6634 1.363 . S
C6630 H6607 0.950 . S
C6630 C6629 1.397 . S
C6630 C6631 1.334 . S
C6631 H6608 0.950 . S
C6631 C6630 1.334 . S
C6631 C6632 1.287 . S
C6632 C6631 1.287 . S
C6632 C6633 1.524 . S
C6632 H6651 0.913 . S
C6633 H6609 0.950 . S
C6633 C6632 1.524 . S
C6633 C6634 1.415 . S
C6634 H6610 0.950 . S
C6634 C6629 1.363 . S
C6634 C6633 1.415 . S
C6635 H6611 0.951 . S
C6635 C6636 1.366 . S
C6635 C6637 1.388 . S
C6636 C6635 1.366 . S
C6636 C6640 1.385 . S
C6637 H6612 0.951 . S
C6637 C6635 1.388 . S
C6637 C6638 1.366 . S
C6638 C6637 1.366 . S
C6638 C6639 1.414 . S
C6638 C6641 1.499 . S
C6639 H6613 0.950 . S
C6639 C6638 1.414 . S
C6639 C6640 1.374 . S
C6640 H6614 0.950 . S
C6640 C6636 1.385 . S
C6640 C6639 1.374 . S
C6641 C6638 1.499 . S
C6641 C6642 1.373 . S
C6641 C6643 1.389 . S
C6642 H6615 0.950 . S
C6642 C6628 1.377 . S
C6642 C6641 1.373 . S
C6643 C6627 1.377 . S
C6643 C6641 1.389 . S
C6643 C6644 1.524 . S
C6644 C6643 1.524 . S
C6644 C6645 1.397 . S
C6644 C6649 1.363 . S
C6645 H6616 0.950 . S
C6645 C6644 1.397 . S
C6645 C6646 1.334 . S
C6646 H6617 0.950 . S
C6646 C6645 1.334 . S
C6646 C6647 1.287 . S
C6647 C6646 1.287 . S
C6647 C6648 1.524 . S
C6647 H6650 0.999 . S
C6648 H6618 0.950 . S
C6648 C6647 1.524 . S
C6648 C6649 1.415 . S
C6649 H6619 0.950 . S
C6649 C6644 1.363 . S
C6649 C6648 1.415 . S
H6650 C6647 0.999 . S
H6651 C6632 0.913 . S
H6652 C6670 0.951 . S
H6653 C6672 0.951 . S
H6654 C6674 0.950 . S
H6655 C6675 0.950 . S
H6656 C6677 0.950 . S
H6657 C6680 0.950 . S
H6658 C6681 0.950 . S
H6659 C6683 0.950 . S
H6660 C6684 0.950 . S
H6661 C6685 0.951 . S
H6662 C6687 0.951 . S
H6663 C6689 0.950 . S
H6664 C6690 0.950 . S
H6665 C6692 0.950 . S
H6666 C6695 0.950 . S
H6667 C6696 0.950 . S
H6668 C6698 0.950 . S
H6669 C6699 0.950 . S
C6670 H6652 0.951 . S
C6670 C6671 1.366 . S
C6670 C6672 1.388 . S
C6671 C6670 1.366 . S
C6671 C6675 1.385 . S
C6672 H6653 0.951 . S
C6672 C6670 1.388 . S
C6672 C6673 1.366 . S
C6673 C6672 1.366 . S
C6673 C6674 1.414 . S
C6673 C6676 1.499 . S
C6674 H6654 0.950 . S
C6674 C6673 1.414 . S
C6674 C6675 1.374 . S
C6675 H6655 0.950 . S
C6675 C6671 1.385 . S
C6675 C6674 1.374 . S
C6676 C6673 1.499 . S
C6676 C6677 1.373 . S
C6676 C6678 1.389 . S
C6677 H6656 0.950 . S
C6677 C6676 1.373 . S
C6677 C6693 1.377 . S
C6678 C6676 1.389 . S
C6678 C6679 1.524 . S
C6678 C6692 1.377 . S
C6679 C6678 1.524 . S
C6679 C6680 1.397 . S
C6679 C6684 1.363 . S
C6680 H6657 0.950 . S
C6680 C6679 1.397 . S
C6680 C6681 1.334 . S
C6681 H6658 0.950 . S
C6681 C6680 1.334 . S
C6681 C6682 1.287 . S
C6682 C6681 1.287 . S
C6682 C6683 1.524 . S
C6682 H6701 0.913 . S
C6683 H6659 0.950 . S
C6683 C6682 1.524 . S
C6683 C6684 1.415 . S
C6684 H6660 0.950 . S
C6684 C6679 1.363 . S
C6684 C6683 1.415 . S
C6685 H6661 0.951 . S
C6685 C6686 1.366 . S
C6685 C6687 1.388 . S
C6686 C6685 1.366 . S
C6686 C6690 1.385 . S
C6687 H6662 0.951 . S
C6687 C6685 1.388 . S
C6687 C6688 1.366 . S
C6688 C6687 1.366 . S
C6688 C6689 1.414 . S
C6688 C6691 1.499 . S
C6689 H6663 0.950 . S
C6689 C6688 1.414 . S
C6689 C6690 1.374 . S
C6690 H6664 0.950 . S
C6690 C6686 1.385 . S
C6690 C6689 1.374 . S
C6691 C6688 1.499 . S
C6691 C6692 1.373 . S
C6691 C6693 1.389 . S
C6692 H6665 0.950 . S
C6692 C6678 1.377 . S
C6692 C6691 1.373 . S
C6693 C6677 1.377 . S
C6693 C6691 1.389 . S
C6693 C6694 1.524 . S
C6694 C6693 1.524 . S
C6694 C6695 1.397 . S
C6694 C6699 1.363 . S
C6695 H6666 0.950 . S
C6695 C6694 1.397 . S
C6695 C6696 1.334 . S
C6696 H6667 0.950 . S
C6696 C6695 1.334 . S
C6696 C6697 1.287 . S
C6697 C6696 1.287 . S
C6697 C6698 1.524 . S
C6697 H6700 0.999 . S
C6698 H6668 0.950 . S
C6698 C6697 1.524 . S
C6698 C6699 1.415 . S
C6699 H6669 0.950 . S
C6699 C6694 1.363 . S
C6699 C6698 1.415 . S
H6700 C6697 0.999 . S
H6701 C6682 0.913 . S
H6702 C6720 0.951 . S
H6703 C6722 0.951 . S
H6704 C6724 0.950 . S
H6705 C6725 0.950 . S
H6706 C6727 0.950 . S
H6707 C6730 0.950 . S
H6708 C6731 0.950 . S
H6709 C6733 0.950 . S
H6710 C6734 0.950 . S
H6711 C6735 0.951 . S
H6712 C6737 0.951 . S
H6713 C6739 0.950 . S
H6714 C6740 0.950 . S
H6715 C6742 0.950 . S
H6716 C6745 0.950 . S
H6717 C6746 0.950 . S
H6718 C6748 0.950 . S
H6719 C6749 0.950 . S
C6720 H6702 0.951 . S
C6720 C6721 1.366 . S
C6720 C6722 1.388 . S
C6721 C6720 1.366 . S
C6721 C6725 1.385 . S
C6722 H6703 0.951 . S
C6722 C6720 1.388 . S
C6722 C6723 1.366 . S
C6723 C6722 1.366 . S
C6723 C6724 1.414 . S
C6723 C6726 1.499 . S
C6724 H6704 0.950 . S
C6724 C6723 1.414 . S
C6724 C6725 1.374 . S
C6725 H6705 0.950 . S
C6725 C6721 1.385 . S
C6725 C6724 1.374 . S
C6726 C6723 1.499 . S
C6726 C6727 1.373 . S
C6726 C6728 1.389 . S
C6727 H6706 0.950 . S
C6727 C6726 1.373 . S
C6727 C6743 1.377 . S
C6728 C6726 1.389 . S
C6728 C6729 1.524 . S
C6728 C6742 1.377 . S
C6729 C6728 1.524 . S
C6729 C6730 1.397 . S
C6729 C6734 1.363 . S
C6730 H6707 0.950 . S
C6730 C6729 1.397 . S
C6730 C6731 1.334 . S
C6731 H6708 0.950 . S
C6731 C6730 1.334 . S
C6731 C6732 1.287 . S
C6732 C6731 1.287 . S
C6732 C6733 1.524 . S
C6732 H6751 0.913 . S
C6733 H6709 0.950 . S
C6733 C6732 1.524 . S
C6733 C6734 1.415 . S
C6734 H6710 0.950 . S
C6734 C6729 1.363 . S
C6734 C6733 1.415 . S
C6735 H6711 0.951 . S
C6735 C6736 1.366 . S
C6735 C6737 1.388 . S
C6736 C6735 1.366 . S
C6736 C6740 1.385 . S
C6737 H6712 0.951 . S
C6737 C6735 1.388 . S
C6737 C6738 1.366 . S
C6738 C6737 1.366 . S
C6738 C6739 1.414 . S
C6738 C6741 1.499 . S
C6739 H6713 0.950 . S
C6739 C6738 1.414 . S
C6739 C6740 1.374 . S
C6740 H6714 0.950 . S
C6740 C6736 1.385 . S
C6740 C6739 1.374 . S
C6741 C6738 1.499 . S
C6741 C6742 1.373 . S
C6741 C6743 1.389 . S
C6742 H6715 0.950 . S
C6742 C6728 1.377 . S
C6742 C6741 1.373 . S
C6743 C6727 1.377 . S
C6743 C6741 1.389 . S
C6743 C6744 1.524 . S
C6744 C6743 1.524 . S
C6744 C6745 1.397 . S
C6744 C6749 1.363 . S
C6745 H6716 0.950 . S
C6745 C6744 1.397 . S
C6745 C6746 1.334 . S
C6746 H6717 0.950 . S
C6746 C6745 1.334 . S
C6746 C6747 1.287 . S
C6747 C6746 1.287 . S
C6747 C6748 1.524 . S
C6747 H6750 0.999 . S
C6748 H6718 0.950 . S
C6748 C6747 1.524 . S
C6748 C6749 1.415 . S
C6749 H6719 0.950 . S
C6749 C6744 1.363 . S
C6749 C6748 1.415 . S
H6750 C6747 0.999 . S
H6751 C6732 0.913 . S
H6752 C6770 0.951 . S
H6753 C6772 0.951 . S
H6754 C6774 0.950 . S
H6755 C6775 0.950 . S
H6756 C6777 0.950 . S
H6757 C6780 0.950 . S
H6758 C6781 0.950 . S
H6759 C6783 0.950 . S
H6760 C6784 0.950 . S
H6761 C6785 0.951 . S
H6762 C6787 0.951 . S
H6763 C6789 0.950 . S
H6764 C6790 0.950 . S
H6765 C6792 0.950 . S
H6766 C6795 0.950 . S
H6767 C6796 0.950 . S
H6768 C6798 0.950 . S
H6769 C6799 0.950 . S
C6770 H6752 0.951 . S
C6770 C6771 1.366 . S
C6770 C6772 1.388 . S
C6771 C6770 1.366 . S
C6771 C6775 1.385 . S
C6772 H6753 0.951 . S
C6772 C6770 1.388 . S
C6772 C6773 1.366 . S
C6773 C6772 1.366 . S
C6773 C6774 1.414 . S
C6773 C6776 1.499 . S
C6774 H6754 0.950 . S
C6774 C6773 1.414 . S
C6774 C6775 1.374 . S
C6775 H6755 0.950 . S
C6775 C6771 1.385 . S
C6775 C6774 1.374 . S
C6776 C6773 1.499 . S
C6776 C6777 1.373 . S
C6776 C6778 1.389 . S
C6777 H6756 0.950 . S
C6777 C6776 1.373 . S
C6777 C6793 1.377 . S
C6778 C6776 1.389 . S
C6778 C6779 1.524 . S
C6778 C6792 1.377 . S
C6779 C6778 1.524 . S
C6779 C6780 1.397 . S
C6779 C6784 1.363 . S
C6780 H6757 0.950 . S
C6780 C6779 1.397 . S
C6780 C6781 1.334 . S
C6781 H6758 0.950 . S
C6781 C6780 1.334 . S
C6781 C6782 1.287 . S
C6782 C6781 1.287 . S
C6782 C6783 1.524 . S
C6782 H6801 0.913 . S
C6783 H6759 0.950 . S
C6783 C6782 1.524 . S
C6783 C6784 1.415 . S
C6784 H6760 0.950 . S
C6784 C6779 1.363 . S
C6784 C6783 1.415 . S
C6785 H6761 0.951 . S
C6785 C6786 1.366 . S
C6785 C6787 1.388 . S
C6786 C6785 1.366 . S
C6786 C6790 1.385 . S
C6787 H6762 0.951 . S
C6787 C6785 1.388 . S
C6787 C6788 1.366 . S
C6788 C6787 1.366 . S
C6788 C6789 1.414 . S
C6788 C6791 1.499 . S
C6789 H6763 0.950 . S
C6789 C6788 1.414 . S
C6789 C6790 1.374 . S
C6790 H6764 0.950 . S
C6790 C6786 1.385 . S
C6790 C6789 1.374 . S
C6791 C6788 1.499 . S
C6791 C6792 1.373 . S
C6791 C6793 1.389 . S
C6792 H6765 0.950 . S
C6792 C6778 1.377 . S
C6792 C6791 1.373 . S
C6793 C6777 1.377 . S
C6793 C6791 1.389 . S
C6793 C6794 1.524 . S
C6794 C6793 1.524 . S
C6794 C6795 1.397 . S
C6794 C6799 1.363 . S
C6795 H6766 0.950 . S
C6795 C6794 1.397 . S
C6795 C6796 1.334 . S
C6796 H6767 0.950 . S
C6796 C6795 1.334 . S
C6796 C6797 1.287 . S
C6797 C6796 1.287 . S
C6797 C6798 1.524 . S
C6797 H6800 0.999 . S
C6798 H6768 0.950 . S
C6798 C6797 1.524 . S
C6798 C6799 1.415 . S
C6799 H6769 0.950 . S
C6799 C6794 1.363 . S
C6799 C6798 1.415 . S
H6800 C6797 0.999 . S
H6801 C6782 0.913 . S
H6802 C6820 0.951 . S
H6803 C6822 0.951 . S
H6804 C6824 0.950 . S
H6805 C6825 0.950 . S
H6806 C6827 0.950 . S
H6807 C6830 0.950 . S
H6808 C6831 0.950 . S
H6809 C6833 0.950 . S
H6810 C6834 0.950 . S
H6811 C6835 0.951 . S
H6812 C6837 0.951 . S
H6813 C6839 0.950 . S
H6814 C6840 0.950 . S
H6815 C6842 0.950 . S
H6816 C6845 0.950 . S
H6817 C6846 0.950 . S
H6818 C6848 0.950 . S
H6819 C6849 0.950 . S
C6820 H6802 0.951 . S
C6820 C6821 1.366 . S
C6820 C6822 1.388 . S
C6821 C6820 1.366 . S
C6821 C6825 1.385 . S
C6822 H6803 0.951 . S
C6822 C6820 1.388 . S
C6822 C6823 1.366 . S
C6823 C6822 1.366 . S
C6823 C6824 1.414 . S
C6823 C6826 1.499 . S
C6824 H6804 0.950 . S
C6824 C6823 1.414 . S
C6824 C6825 1.374 . S
C6825 H6805 0.950 . S
C6825 C6821 1.385 . S
C6825 C6824 1.374 . S
C6826 C6823 1.499 . S
C6826 C6827 1.373 . S
C6826 C6828 1.389 . S
C6827 H6806 0.950 . S
C6827 C6826 1.373 . S
C6827 C6843 1.377 . S
C6828 C6826 1.389 . S
C6828 C6829 1.524 . S
C6828 C6842 1.377 . S
C6829 C6828 1.524 . S
C6829 C6830 1.397 . S
C6829 C6834 1.363 . S
C6830 H6807 0.950 . S
C6830 C6829 1.397 . S
C6830 C6831 1.334 . S
C6831 H6808 0.950 . S
C6831 C6830 1.334 . S
C6831 C6832 1.287 . S
C6832 C6831 1.287 . S
C6832 C6833 1.524 . S
C6832 H6851 0.913 . S
C6833 H6809 0.950 . S
C6833 C6832 1.524 . S
C6833 C6834 1.415 . S
C6834 H6810 0.950 . S
C6834 C6829 1.363 . S
C6834 C6833 1.415 . S
C6835 H6811 0.951 . S
C6835 C6836 1.366 . S
C6835 C6837 1.388 . S
C6836 C6835 1.366 . S
C6836 C6840 1.385 . S
C6837 H6812 0.951 . S
C6837 C6835 1.388 . S
C6837 C6838 1.366 . S
C6838 C6837 1.366 . S
C6838 C6839 1.414 . S
C6838 C6841 1.499 . S
C6839 H6813 0.950 . S
C6839 C6838 1.414 . S
C6839 C6840 1.374 . S
C6840 H6814 0.950 . S
C6840 C6836 1.385 . S
C6840 C6839 1.374 . S
C6841 C6838 1.499 . S
C6841 C6842 1.373 . S
C6841 C6843 1.389 . S
C6842 H6815 0.950 . S
C6842 C6828 1.377 . S
C6842 C6841 1.373 . S
C6843 C6827 1.377 . S
C6843 C6841 1.389 . S
C6843 C6844 1.524 . S
C6844 C6843 1.524 . S
C6844 C6845 1.397 . S
C6844 C6849 1.363 . S
C6845 H6816 0.950 . S
C6845 C6844 1.397 . S
C6845 C6846 1.334 . S
C6846 H6817 0.950 . S
C6846 C6845 1.334 . S
C6846 C6847 1.287 . S
C6847 C6846 1.287 . S
C6847 C6848 1.524 . S
C6847 H6850 0.999 . S
C6848 H6818 0.950 . S
C6848 C6847 1.524 . S
C6848 C6849 1.415 . S
C6849 H6819 0.950 . S
C6849 C6844 1.363 . S
C6849 C6848 1.415 . S
H6850 C6847 0.999 . S
H6851 C6832 0.913 . S
H6852 C6870 0.951 . S
H6853 C6872 0.951 . S
H6854 C6874 0.950 . S
H6855 C6875 0.950 . S
H6856 C6877 0.950 . S
H6857 C6880 0.950 1_655 S
H6858 C6881 0.950 . S
H6859 C6883 0.950 . S
H6860 C6884 0.950 . S
H6861 C6885 0.961 . S
H6862 C6887 0.951 . S
H6863 C6889 0.950 . S
H6864 C6890 0.950 . S
H6865 C6892 1.009 . S
H6866 C6895 0.950 . S
H6867 C6896 0.950 . S
H6868 C6898 0.950 . S
H6869 C6899 0.950 . S
C6870 H6852 0.951 . S
C6870 C6871 1.366 . S
C6870 C6872 1.388 . S
C6871 C6870 1.366 . S
C6871 C6875 1.385 . S
C6872 H6853 0.951 . S
C6872 C6870 1.388 . S
C6872 C6873 1.366 . S
C6873 C6872 1.366 . S
C6873 C6874 1.414 . S
C6873 C6876 1.499 . S
C6874 H6854 0.950 . S
C6874 C6873 1.414 . S
C6874 C6875 1.374 . S
C6875 H6855 0.950 . S
C6875 C6871 1.385 . S
C6875 C6874 1.374 . S
C6876 C6873 1.499 . S
C6876 C6877 1.373 . S
C6876 C6878 1.389 . S
C6877 H6856 0.950 . S
C6877 C6876 1.373 . S
C6877 C6893 1.377 . S
C6878 C6876 1.389 . S
C6878 C6879 1.524 1_655 S
C6878 C6892 1.357 1_655 S
C6879 C6878 1.524 1_455 S
C6879 C6880 1.397 . S
C6879 C6884 1.363 . S
C6880 H6857 0.950 1_455 S
C6880 C6879 1.397 . S
C6880 C6881 1.334 . S
C6881 H6858 0.950 . S
C6881 C6880 1.334 . S
C6881 C6882 1.287 . S
C6882 C6881 1.287 . S
C6882 C6883 1.524 . S
C6882 H6901 0.913 . S
C6883 H6859 0.950 . S
C6883 C6882 1.524 . S
C6883 C6884 1.415 . S
C6884 H6860 0.950 . S
C6884 C6879 1.363 . S
C6884 C6883 1.415 . S
C6885 H6861 0.961 . S
C6885 C6886 1.366 . S
C6885 C6887 1.388 1_455 S
C6886 C6885 1.366 . S
C6886 C6890 1.385 . S
C6887 H6862 0.951 . S
C6887 C6885 1.388 1_655 S
C6887 C6888 1.374 . S
C6888 C6887 1.374 . S
C6888 C6889 1.376 1_655 S
C6888 C6891 1.530 . S
C6889 H6863 0.950 . S
C6889 C6888 1.376 1_455 S
C6889 C6890 1.374 . S
C6890 H6864 0.950 . S
C6890 C6886 1.385 . S
C6890 C6889 1.374 . S
C6891 C6888 1.530 . S
C6891 C6892 1.337 1_655 S
C6891 C6893 1.389 . S
C6892 H6865 1.009 . S
C6892 C6878 1.357 1_455 S
C6892 C6891 1.337 1_455 S
C6893 C6877 1.377 . S
C6893 C6891 1.389 . S
C6893 C6894 1.524 . S
C6894 C6893 1.524 . S
C6894 C6895 1.397 . S
C6894 C6899 1.363 . S
C6895 H6866 0.950 . S
C6895 C6894 1.397 . S
C6895 C6896 1.334 . S
C6896 H6867 0.950 . S
C6896 C6895 1.334 . S
C6896 C6897 1.287 . S
C6897 C6896 1.287 . S
C6897 C6898 1.524 . S
C6897 H6900 0.999 . S
C6898 H6868 0.950 . S
C6898 C6897 1.524 . S
C6898 C6899 1.415 . S
C6899 H6869 0.950 . S
C6899 C6894 1.363 . S
C6899 C6898 1.415 . S
H6900 C6897 0.999 . S
H6901 C6882 0.913 . S
H6902 C6920 0.951 . S
H6903 C6922 0.951 . S
H6904 C6924 0.950 . S
H6905 C6925 0.950 . S
H6906 C6927 0.950 . S
H6907 C6930 0.950 . S
H6908 C6931 0.950 . S
H6909 C6933 0.950 . S
H6910 C6934 0.950 . S
H6911 C6935 0.951 . S
H6912 C6937 0.951 . S
H6913 C6939 0.950 . S
H6914 C6940 0.950 . S
H6915 C6942 0.950 . S
H6916 C6945 0.950 . S
H6917 C6946 0.950 . S
H6918 C6948 0.950 . S
H6919 C6949 0.950 . S
C6920 H6902 0.951 . S
C6920 C6921 1.366 . S
C6920 C6922 1.388 . S
C6921 C6920 1.366 . S
C6921 C6925 1.385 . S
C6922 H6903 0.951 . S
C6922 C6920 1.388 . S
C6922 C6923 1.366 . S
C6923 C6922 1.366 . S
C6923 C6924 1.414 . S
C6923 C6926 1.499 . S
C6924 H6904 0.950 . S
C6924 C6923 1.414 . S
C6924 C6925 1.374 . S
C6925 H6905 0.950 . S
C6925 C6921 1.385 . S
C6925 C6924 1.374 . S
C6926 C6923 1.499 . S
C6926 C6927 1.373 . S
C6926 C6928 1.389 . S
C6927 H6906 0.950 . S
C6927 C6926 1.373 . S
C6927 C6943 1.377 . S
C6928 C6926 1.389 . S
C6928 C6929 1.524 . S
C6928 C6942 1.377 . S
C6929 C6928 1.524 . S
C6929 C6930 1.397 . S
C6929 C6934 1.363 . S
C6930 H6907 0.950 . S
C6930 C6929 1.397 . S
C6930 C6931 1.334 . S
C6931 H6908 0.950 . S
C6931 C6930 1.334 . S
C6931 C6932 1.287 . S
C6932 C6931 1.287 . S
C6932 C6933 1.524 . S
C6932 H6951 0.913 . S
C6933 H6909 0.950 . S
C6933 C6932 1.524 . S
C6933 C6934 1.415 . S
C6934 H6910 0.950 . S
C6934 C6929 1.363 . S
C6934 C6933 1.415 . S
C6935 H6911 0.951 . S
C6935 C6936 1.366 . S
C6935 C6937 1.388 . S
C6936 C6935 1.366 . S
C6936 C6940 1.385 . S
C6937 H6912 0.951 . S
C6937 C6935 1.388 . S
C6937 C6938 1.366 . S
C6938 C6937 1.366 . S
C6938 C6939 1.414 . S
C6938 C6941 1.499 . S
C6939 H6913 0.950 . S
C6939 C6938 1.414 . S
C6939 C6940 1.374 . S
C6940 H6914 0.950 . S
C6940 C6936 1.385 . S
C6940 C6939 1.374 . S
C6941 C6938 1.499 . S
C6941 C6942 1.373 . S
C6941 C6943 1.389 . S
C6942 H6915 0.950 . S
C6942 C6928 1.377 . S
C6942 C6941 1.373 . S
C6943 C6927 1.377 . S
C6943 C6941 1.389 . S
C6943 C6944 1.524 . S
C6944 C6943 1.524 . S
C6944 C6945 1.397 . S
C6944 C6949 1.363 . S
C6945 H6916 0.950 . S
C6945 C6944 1.397 . S
C6945 C6946 1.334 . S
C6946 H6917 0.950 . S
C6946 C6945 1.334 . S
C6946 C6947 1.287 . S
C6947 C6946 1.287 . S
C6947 C6948 1.524 . S
C6947 H6950 0.999 . S
C6948 H6918 0.950 . S
C6948 C6947 1.524 . S
C6948 C6949 1.415 . S
C6949 H6919 0.950 . S
C6949 C6944 1.363 . S
C6949 C6948 1.415 . S
H6950 C6947 0.999 . S
H6951 C6932 0.913 . S
H6952 C6970 0.951 . S
H6953 C6972 0.951 . S
H6954 C6974 0.950 . S
H6955 C6975 0.950 . S
H6956 C6977 0.950 . S
H6957 C6980 0.950 . S
H6958 C6981 0.950 . S
H6959 C6983 0.950 . S
H6960 C6984 0.950 . S
H6961 C6985 0.951 . S
H6962 C6987 0.951 . S
H6963 C6989 0.950 . S
H6964 C6990 0.950 . S
H6965 C6992 0.950 . S
H6966 C6995 0.950 . S
H6967 C6996 0.950 . S
H6968 C6998 0.950 . S
H6969 C6999 0.950 . S
C6970 H6952 0.951 . S
C6970 C6971 1.366 . S
C6970 C6972 1.388 . S
C6971 C6970 1.366 . S
C6971 C6975 1.385 . S
C6972 H6953 0.951 . S
C6972 C6970 1.388 . S
C6972 C6973 1.366 . S
C6973 C6972 1.366 . S
C6973 C6974 1.414 . S
C6973 C6976 1.499 . S
C6974 H6954 0.950 . S
C6974 C6973 1.414 . S
C6974 C6975 1.374 . S
C6975 H6955 0.950 . S
C6975 C6971 1.385 . S
C6975 C6974 1.374 . S
C6976 C6973 1.499 . S
C6976 C6977 1.373 . S
C6976 C6978 1.389 . S
C6977 H6956 0.950 . S
C6977 C6976 1.373 . S
C6977 C6993 1.377 . S
C6978 C6976 1.389 . S
C6978 C6979 1.524 . S
C6978 C6992 1.377 . S
C6979 C6978 1.524 . S
C6979 C6980 1.397 . S
C6979 C6984 1.363 . S
C6980 H6957 0.950 . S
C6980 C6979 1.397 . S
C6980 C6981 1.334 . S
C6981 H6958 0.950 . S
C6981 C6980 1.334 . S
C6981 C6982 1.287 . S
C6982 C6981 1.287 . S
C6982 C6983 1.524 . S
C6982 H7001 0.913 . S
C6983 H6959 0.950 . S
C6983 C6982 1.524 . S
C6983 C6984 1.415 . S
C6984 H6960 0.950 . S
C6984 C6979 1.363 . S
C6984 C6983 1.415 . S
C6985 H6961 0.951 . S
C6985 C6986 1.366 . S
C6985 C6987 1.388 . S
C6986 C6985 1.366 . S
C6986 C6990 1.385 . S
C6987 H6962 0.951 . S
C6987 C6985 1.388 . S
C6987 C6988 1.366 . S
C6988 C6987 1.366 . S
C6988 C6989 1.414 . S
C6988 C6991 1.499 . S
C6989 H6963 0.950 . S
C6989 C6988 1.414 . S
C6989 C6990 1.374 . S
C6990 H6964 0.950 . S
C6990 C6986 1.385 . S
C6990 C6989 1.374 . S
C6991 C6988 1.499 . S
C6991 C6992 1.373 . S
C6991 C6993 1.389 . S
C6992 H6965 0.950 . S
C6992 C6978 1.377 . S
C6992 C6991 1.373 . S
C6993 C6977 1.377 . S
C6993 C6991 1.389 . S
C6993 C6994 1.524 . S
C6994 C6993 1.524 . S
C6994 C6995 1.397 . S
C6994 C6999 1.363 . S
C6995 H6966 0.950 . S
C6995 C6994 1.397 . S
C6995 C6996 1.334 . S
C6996 H6967 0.950 . S
C6996 C6995 1.334 . S
C6996 C6997 1.287 . S
C6997 C6996 1.287 . S
C6997 C6998 1.524 . S
C6997 H7000 0.999 . S
C6998 H6968 0.950 . S
C6998 C6997 1.524 . S
C6998 C6999 1.415 . S
C6999 H6969 0.950 . S
C6999 C6994 1.363 . S
C6999 C6998 1.415 . S
H7000 C6997 0.999 . S
H7001 C6982 0.913 . S
H7002 C7020 0.951 . S
H7003 C7022 0.951 . S
H7004 C7024 0.950 . S
H7005 C7025 0.950 . S
H7006 C7027 0.950 . S
H7007 C7030 0.950 . S
H7008 C7031 0.950 . S
H7009 C7033 0.950 . S
H7010 C7034 0.950 . S
H7011 C7035 0.951 . S
H7012 C7037 0.951 . S
H7013 C7039 0.950 . S
H7014 C7040 0.950 . S
H7015 C7042 0.950 . S
H7016 C7045 0.950 . S
H7017 C7046 0.950 . S
H7018 C7048 0.950 . S
H7019 C7049 0.950 . S
C7020 H7002 0.951 . S
C7020 C7021 1.366 . S
C7020 C7022 1.388 . S
C7021 C7020 1.366 . S
C7021 C7025 1.385 . S
C7022 H7003 0.951 . S
C7022 C7020 1.388 . S
C7022 C7023 1.366 . S
C7023 C7022 1.366 . S
C7023 C7024 1.414 . S
C7023 C7026 1.499 . S
C7024 H7004 0.950 . S
C7024 C7023 1.414 . S
C7024 C7025 1.374 . S
C7025 H7005 0.950 . S
C7025 C7021 1.385 . S
C7025 C7024 1.374 . S
C7026 C7023 1.499 . S
C7026 C7027 1.373 . S
C7026 C7028 1.389 . S
C7027 H7006 0.950 . S
C7027 C7026 1.373 . S
C7027 C7043 1.377 . S
C7028 C7026 1.389 . S
C7028 C7029 1.524 . S
C7028 C7042 1.377 . S
C7029 C7028 1.524 . S
C7029 C7030 1.397 . S
C7029 C7034 1.363 . S
C7030 H7007 0.950 . S
C7030 C7029 1.397 . S
C7030 C7031 1.334 . S
C7031 H7008 0.950 . S
C7031 C7030 1.334 . S
C7031 C7032 1.287 . S
C7032 C7031 1.287 . S
C7032 C7033 1.524 . S
C7032 H7051 0.913 . S
C7033 H7009 0.950 . S
C7033 C7032 1.524 . S
C7033 C7034 1.415 . S
C7034 H7010 0.950 . S
C7034 C7029 1.363 . S
C7034 C7033 1.415 . S
C7035 H7011 0.951 . S
C7035 C7036 1.366 . S
C7035 C7037 1.388 . S
C7036 C7035 1.366 . S
C7036 C7040 1.385 . S
C7037 H7012 0.951 . S
C7037 C7035 1.388 . S
C7037 C7038 1.366 . S
C7038 C7037 1.366 . S
C7038 C7039 1.414 . S
C7038 C7041 1.499 . S
C7039 H7013 0.950 . S
C7039 C7038 1.414 . S
C7039 C7040 1.374 . S
C7040 H7014 0.950 . S
C7040 C7036 1.385 . S
C7040 C7039 1.374 . S
C7041 C7038 1.499 . S
C7041 C7042 1.373 . S
C7041 C7043 1.389 . S
C7042 H7015 0.950 . S
C7042 C7028 1.377 . S
C7042 C7041 1.373 . S
C7043 C7027 1.377 . S
C7043 C7041 1.389 . S
C7043 C7044 1.524 . S
C7044 C7043 1.524 . S
C7044 C7045 1.397 . S
C7044 C7049 1.363 . S
C7045 H7016 0.950 . S
C7045 C7044 1.397 . S
C7045 C7046 1.334 . S
C7046 H7017 0.950 . S
C7046 C7045 1.334 . S
C7046 C7047 1.287 . S
C7047 C7046 1.287 . S
C7047 C7048 1.524 . S
C7047 H7050 0.999 . S
C7048 H7018 0.950 . S
C7048 C7047 1.524 . S
C7048 C7049 1.415 . S
C7049 H7019 0.950 . S
C7049 C7044 1.363 . S
C7049 C7048 1.415 . S
H7050 C7047 0.999 . S
H7051 C7032 0.913 . S
H7052 C7070 0.951 . S
H7053 C7072 0.951 . S
H7054 C7074 0.950 . S
H7055 C7075 0.950 . S
H7056 C7077 0.950 . S
H7057 C7080 0.950 . S
H7058 C7081 0.950 . S
H7059 C7083 0.950 . S
H7060 C7084 0.950 . S
H7061 C7085 0.951 1_455 S
H7062 C7087 0.951 . S
H7063 C7089 0.950 . S
H7064 C7090 0.950 . S
H7065 C7092 0.950 . S
H7066 C7095 0.950 . S
H7067 C7096 0.950 . S
H7068 C7098 0.950 . S
H7069 C7099 0.950 . S
C7070 H7052 0.951 . S
C7070 C7071 1.366 . S
C7070 C7072 1.388 . S
C7071 C7070 1.366 . S
C7071 C7075 1.385 . S
C7072 H7053 0.951 . S
C7072 C7070 1.388 . S
C7072 C7073 1.366 . S
C7073 C7072 1.366 . S
C7073 C7074 1.414 . S
C7073 C7076 1.499 . S
C7074 H7054 0.950 . S
C7074 C7073 1.414 . S
C7074 C7075 1.374 . S
C7075 H7055 0.950 . S
C7075 C7071 1.385 . S
C7075 C7074 1.374 . S
C7076 C7073 1.499 . S
C7076 C7077 1.373 . S
C7076 C7078 1.389 . S
C7077 H7056 0.950 . S
C7077 C7076 1.373 . S
C7077 C7093 1.377 . S
C7078 C7076 1.389 . S
C7078 C7079 1.524 . S
C7078 C7092 1.377 . S
C7079 C7078 1.524 . S
C7079 C7080 1.397 . S
C7079 C7084 1.363 . S
C7080 H7057 0.950 . S
C7080 C7079 1.397 . S
C7080 C7081 1.334 . S
C7081 H7058 0.950 . S
C7081 C7080 1.334 . S
C7081 C7082 1.287 . S
C7082 C7081 1.287 . S
C7082 C7083 1.524 . S
C7082 H7101 0.913 . S
C7083 H7059 0.950 . S
C7083 C7082 1.524 . S
C7083 C7084 1.415 . S
C7084 H7060 0.950 . S
C7084 C7079 1.363 . S
C7084 C7083 1.415 . S
C7085 H7061 0.951 1_655 S
C7085 C7086 1.366 . S
C7085 C7087 1.388 . S
C7086 C7085 1.366 . S
C7086 C7090 1.385 . S
C7087 H7062 0.951 . S
C7087 C7085 1.388 . S
C7087 C7088 1.366 . S
C7088 C7087 1.366 . S
C7088 C7089 1.414 . S
C7088 C7091 1.499 . S
C7089 H7063 0.950 . S
C7089 C7088 1.414 . S
C7089 C7090 1.374 . S
C7090 H7064 0.950 . S
C7090 C7086 1.385 . S
C7090 C7089 1.374 . S
C7091 C7088 1.499 . S
C7091 C7092 1.373 . S
C7091 C7093 1.389 . S
C7092 H7065 0.950 . S
C7092 C7078 1.377 . S
C7092 C7091 1.373 . S
C7093 C7077 1.377 . S
C7093 C7091 1.389 . S
C7093 C7094 1.524 . S
C7094 C7093 1.524 . S
C7094 C7095 1.397 . S
C7094 C7099 1.363 1_655 S
C7095 H7066 0.950 . S
C7095 C7094 1.397 . S
C7095 C7096 1.334 1_655 S
C7096 H7067 0.950 . S
C7096 C7095 1.334 1_455 S
C7096 C7097 1.287 . S
C7097 C7096 1.287 . S
C7097 C7098 1.524 . S
C7097 H7100 0.999 . S
C7098 H7068 0.950 . S
C7098 C7097 1.524 . S
C7098 C7099 1.415 . S
C7099 H7069 0.950 . S
C7099 C7094 1.363 1_455 S
C7099 C7098 1.415 . S
H7100 C7097 0.999 . S
H7101 C7082 0.913 . S
H7102 C7120 0.951 . S
H7103 C7122 0.951 . S
H7104 C7124 0.950 . S
H7105 C7125 0.950 . S
H7106 C7127 0.950 . S
H7107 C7130 0.950 . S
H7108 C7131 0.950 . S
H7109 C7133 0.950 . S
H7110 C7134 0.950 . S
H7111 C7135 0.951 . S
H7112 C7137 0.951 . S
H7113 C7139 0.950 . S
H7114 C7140 0.950 . S
H7115 C7142 0.950 . S
H7116 C7145 0.950 . S
H7117 C7146 0.950 . S
H7118 C7148 0.950 . S
H7119 C7149 0.950 . S
C7120 H7102 0.951 . S
C7120 C7121 1.366 . S
C7120 C7122 1.388 . S
C7121 C7120 1.366 . S
C7121 C7125 1.385 . S
C7122 H7103 0.951 . S
C7122 C7120 1.388 . S
C7122 C7123 1.366 . S
C7123 C7122 1.366 . S
C7123 C7124 1.414 . S
C7123 C7126 1.499 . S
C7124 H7104 0.950 . S
C7124 C7123 1.414 . S
C7124 C7125 1.374 . S
C7125 H7105 0.950 . S
C7125 C7121 1.385 . S
C7125 C7124 1.374 . S
C7126 C7123 1.499 . S
C7126 C7127 1.373 . S
C7126 C7128 1.389 . S
C7127 H7106 0.950 . S
C7127 C7126 1.373 . S
C7127 C7143 1.377 . S
C7128 C7126 1.389 . S
C7128 C7129 1.524 . S
C7128 C7142 1.377 . S
C7129 C7128 1.524 . S
C7129 C7130 1.397 . S
C7129 C7134 1.363 . S
C7130 H7107 0.950 . S
C7130 C7129 1.397 . S
C7130 C7131 1.334 . S
C7131 H7108 0.950 . S
C7131 C7130 1.334 . S
C7131 C7132 1.287 . S
C7132 C7131 1.287 . S
C7132 C7133 1.524 . S
C7132 H7151 0.913 . S
C7133 H7109 0.950 . S
C7133 C7132 1.524 . S
C7133 C7134 1.415 . S
C7134 H7110 0.950 . S
C7134 C7129 1.363 . S
C7134 C7133 1.415 . S
C7135 H7111 0.951 . S
C7135 C7136 1.366 . S
C7135 C7137 1.388 . S
C7136 C7135 1.366 . S
C7136 C7140 1.385 . S
C7137 H7112 0.951 . S
C7137 C7135 1.388 . S
C7137 C7138 1.366 . S
C7138 C7137 1.366 . S
C7138 C7139 1.414 . S
C7138 C7141 1.499 . S
C7139 H7113 0.950 . S
C7139 C7138 1.414 . S
C7139 C7140 1.374 . S
C7140 H7114 0.950 . S
C7140 C7136 1.385 . S
C7140 C7139 1.374 . S
C7141 C7138 1.499 . S
C7141 C7142 1.373 . S
C7141 C7143 1.389 . S
C7142 H7115 0.950 . S
C7142 C7128 1.377 . S
C7142 C7141 1.373 . S
C7143 C7127 1.377 . S
C7143 C7141 1.389 . S
C7143 C7144 1.524 . S
C7144 C7143 1.524 . S
C7144 C7145 1.397 . S
C7144 C7149 1.363 . S
C7145 H7116 0.950 . S
C7145 C7144 1.397 . S
C7145 C7146 1.334 . S
C7146 H7117 0.950 . S
C7146 C7145 1.334 . S
C7146 C7147 1.287 . S
C7147 C7146 1.287 . S
C7147 C7148 1.524 . S
C7147 H7150 0.999 . S
C7148 H7118 0.950 . S
C7148 C7147 1.524 . S
C7148 C7149 1.415 . S
C7149 H7119 0.950 . S
C7149 C7144 1.363 . S
C7149 C7148 1.415 . S
H7150 C7147 0.999 . S
H7151 C7132 0.913 . S
H7152 C7170 0.951 . S
H7153 C7172 0.951 . S
H7154 C7174 0.950 . S
H7155 C7175 0.950 . S
H7156 C7177 0.950 . S
H7157 C7180 0.950 . S
H7158 C7181 0.950 . S
H7159 C7183 0.950 . S
H7160 C7184 0.950 . S
H7161 C7185 0.951 . S
H7162 C7187 0.951 . S
H7163 C7189 0.950 . S
H7164 C7190 0.950 . S
H7165 C7192 0.950 . S
H7166 C7195 0.950 . S
H7167 C7196 0.950 . S
H7168 C7198 0.950 . S
H7169 C7199 0.950 . S
C7170 H7152 0.951 . S
C7170 C7171 1.366 . S
C7170 C7172 1.388 . S
C7171 C7170 1.366 . S
C7171 C7175 1.385 . S
C7172 H7153 0.951 . S
C7172 C7170 1.388 . S
C7172 C7173 1.366 . S
C7173 C7172 1.366 . S
C7173 C7174 1.414 . S
C7173 C7176 1.499 . S
C7174 H7154 0.950 . S
C7174 C7173 1.414 . S
C7174 C7175 1.374 . S
C7175 H7155 0.950 . S
C7175 C7171 1.385 . S
C7175 C7174 1.374 . S
C7176 C7173 1.499 . S
C7176 C7177 1.373 . S
C7176 C7178 1.389 . S
C7177 H7156 0.950 . S
C7177 C7176 1.373 . S
C7177 C7193 1.377 . S
C7178 C7176 1.389 . S
C7178 C7179 1.524 . S
C7178 C7192 1.377 . S
C7179 C7178 1.524 . S
C7179 C7180 1.397 . S
C7179 C7184 1.363 . S
C7180 H7157 0.950 . S
C7180 C7179 1.397 . S
C7180 C7181 1.334 . S
C7181 H7158 0.950 . S
C7181 C7180 1.334 . S
C7181 C7182 1.287 . S
C7182 C7181 1.287 . S
C7182 C7183 1.524 . S
C7182 H7201 0.913 . S
C7183 H7159 0.950 . S
C7183 C7182 1.524 . S
C7183 C7184 1.415 . S
C7184 H7160 0.950 . S
C7184 C7179 1.363 . S
C7184 C7183 1.415 . S
C7185 H7161 0.951 . S
C7185 C7186 1.366 . S
C7185 C7187 1.388 . S
C7186 C7185 1.366 . S
C7186 C7190 1.385 . S
C7187 H7162 0.951 . S
C7187 C7185 1.388 . S
C7187 C7188 1.366 . S
C7188 C7187 1.366 . S
C7188 C7189 1.414 . S
C7188 C7191 1.499 . S
C7189 H7163 0.950 . S
C7189 C7188 1.414 . S
C7189 C7190 1.374 . S
C7190 H7164 0.950 . S
C7190 C7186 1.385 . S
C7190 C7189 1.374 . S
C7191 C7188 1.499 . S
C7191 C7192 1.373 . S
C7191 C7193 1.389 . S
C7192 H7165 0.950 . S
C7192 C7178 1.377 . S
C7192 C7191 1.373 . S
C7193 C7177 1.377 . S
C7193 C7191 1.389 . S
C7193 C7194 1.524 . S
C7194 C7193 1.524 . S
C7194 C7195 1.397 . S
C7194 C7199 1.363 . S
C7195 H7166 0.950 . S
C7195 C7194 1.397 . S
C7195 C7196 1.334 . S
C7196 H7167 0.950 . S
C7196 C7195 1.334 . S
C7196 C7197 1.287 . S
C7197 C7196 1.287 . S
C7197 C7198 1.524 . S
C7197 H7200 0.999 . S
C7198 H7168 0.950 . S
C7198 C7197 1.524 . S
C7198 C7199 1.415 . S
C7199 H7169 0.950 . S
C7199 C7194 1.363 . S
C7199 C7198 1.415 . S
H7200 C7197 0.999 . S
H7201 C7182 0.913 . S
H7202 C7220 0.951 . S
H7203 C7222 0.951 . S
H7204 C7224 0.950 . S
H7205 C7225 0.950 . S
H7206 C7227 0.950 . S
H7207 C7230 0.950 . S
H7208 C7231 0.950 . S
H7209 C7233 0.950 . S
H7210 C7234 0.950 . S
H7211 C7235 0.951 . S
H7212 C7237 0.972 . S
H7213 C7239 0.950 . S
H7214 C7240 0.950 . S
H7215 C7242 0.950 . S
H7216 C7245 0.924 1_565 S
H7217 C7246 0.950 . S
H7218 C7248 0.950 . S
H7219 C7249 0.940 1_565 S
C7220 H7202 0.951 . S
C7220 C7221 1.366 . S
C7220 C7222 1.388 . S
C7221 C7220 1.366 . S
C7221 C7225 1.385 . S
C7222 H7203 0.951 . S
C7222 C7220 1.388 . S
C7222 C7223 1.366 . S
C7223 C7222 1.366 . S
C7223 C7224 1.414 . S
C7223 C7226 1.499 . S
C7224 H7204 0.950 . S
C7224 C7223 1.414 . S
C7224 C7225 1.374 . S
C7225 H7205 0.950 . S
C7225 C7221 1.385 . S
C7225 C7224 1.374 . S
C7226 C7223 1.499 . S
C7226 C7227 1.373 . S
C7226 C7228 1.389 . S
C7227 H7206 0.950 . S
C7227 C7226 1.373 . S
C7227 C7243 1.377 . S
C7228 C7226 1.389 . S
C7228 C7229 1.524 . S
C7228 C7242 1.377 . S
C7229 C7228 1.524 . S
C7229 C7230 1.397 . S
C7229 C7234 1.363 . S
C7230 H7207 0.950 . S
C7230 C7229 1.397 . S
C7230 C7231 1.334 . S
C7231 H7208 0.950 . S
C7231 C7230 1.334 . S
C7231 C7232 1.287 . S
C7232 C7231 1.287 . S
C7232 C7233 1.524 . S
C7232 H7251 0.913 . S
C7233 H7209 0.950 . S
C7233 C7232 1.524 . S
C7233 C7234 1.415 . S
C7234 H7210 0.950 . S
C7234 C7229 1.363 . S
C7234 C7233 1.415 . S
C7235 H7211 0.951 . S
C7235 C7236 1.366 . S
C7235 C7237 1.388 1_545 S
C7236 C7235 1.366 . S
C7236 C7240 1.385 1_545 S
C7237 H7212 0.972 . S
C7237 C7235 1.388 1_565 S
C7237 C7238 1.366 . S
C7238 C7237 1.366 . S
C7238 C7239 1.414 . S
C7238 C7241 1.499 . S
C7239 H7213 0.950 . S
C7239 C7238 1.414 . S
C7239 C7240 1.374 . S
C7240 H7214 0.950 . S
C7240 C7236 1.385 1_565 S
C7240 C7239 1.374 . S
C7241 C7238 1.499 . S
C7241 C7242 1.373 . S
C7241 C7243 1.389 . S
C7242 H7215 0.950 . S
C7242 C7228 1.377 . S
C7242 C7241 1.373 . S
C7243 C7227 1.377 . S
C7243 C7241 1.389 . S
C7243 C7244 1.524 . S
C7244 C7243 1.524 . S
C7244 C7245 1.379 1_565 S
C7244 C7249 1.363 1_565 S
C7245 H7216 0.924 1_545 S
C7245 C7244 1.379 1_545 S
C7245 C7246 1.379 . S
C7246 H7217 0.950 . S
C7246 C7245 1.379 . S
C7246 C7247 1.287 . S
C7247 C7246 1.287 . S
C7247 C7248 1.524 . S
C7247 H7250 0.999 . S
C7248 H7218 0.950 . S
C7248 C7247 1.524 . S
C7248 C7249 1.415 . S
C7249 H7219 0.940 1_545 S
C7249 C7244 1.363 1_545 S
C7249 C7248 1.415 . S
H7250 C7247 0.999 . S
H7251 C7232 0.913 . S
H7252 C7270 0.951 . S
H7253 C7272 0.951 . S
H7254 C7274 0.950 . S
H7255 C7275 0.950 . S
H7256 C7277 0.950 . S
H7257 C7280 0.950 . S
H7258 C7281 0.950 . S
H7259 C7283 0.950 . S
H7260 C7284 0.950 . S
H7261 C7285 0.951 . S
H7262 C7287 0.951 . S
H7263 C7289 0.950 . S
H7264 C7290 0.950 . S
H7265 C7292 0.950 . S
H7266 C7295 0.950 . S
H7267 C7296 0.950 . S
H7268 C7298 0.950 . S
H7269 C7299 0.950 . S
C7270 H7252 0.951 . S
C7270 C7271 1.366 . S
C7270 C7272 1.388 . S
C7271 C7270 1.366 . S
C7271 C7275 1.385 . S
C7272 H7253 0.951 . S
C7272 C7270 1.388 . S
C7272 C7273 1.366 . S
C7273 C7272 1.366 . S
C7273 C7274 1.414 . S
C7273 C7276 1.499 . S
C7274 H7254 0.950 . S
C7274 C7273 1.414 . S
C7274 C7275 1.374 . S
C7275 H7255 0.950 . S
C7275 C7271 1.385 . S
C7275 C7274 1.374 . S
C7276 C7273 1.499 . S
C7276 C7277 1.373 . S
C7276 C7278 1.389 . S
C7277 H7256 0.950 . S
C7277 C7276 1.373 . S
C7277 C7293 1.377 . S
C7278 C7276 1.389 . S
C7278 C7279 1.524 . S
C7278 C7292 1.377 . S
C7279 C7278 1.524 . S
C7279 C7280 1.397 . S
C7279 C7284 1.363 . S
C7280 H7257 0.950 . S
C7280 C7279 1.397 . S
C7280 C7281 1.334 . S
C7281 H7258 0.950 . S
C7281 C7280 1.334 . S
C7281 C7282 1.287 . S
C7282 C7281 1.287 . S
C7282 C7283 1.524 . S
C7282 H7301 0.913 . S
C7283 H7259 0.950 . S
C7283 C7282 1.524 . S
C7283 C7284 1.415 . S
C7284 H7260 0.950 . S
C7284 C7279 1.363 . S
C7284 C7283 1.415 . S
C7285 H7261 0.951 . S
C7285 C7286 1.366 . S
C7285 C7287 1.388 . S
C7286 C7285 1.366 . S
C7286 C7290 1.385 . S
C7287 H7262 0.951 . S
C7287 C7285 1.388 . S
C7287 C7288 1.366 . S
C7288 C7287 1.366 . S
C7288 C7289 1.414 . S
C7288 C7291 1.499 . S
C7289 H7263 0.950 . S
C7289 C7288 1.414 . S
C7289 C7290 1.374 . S
C7290 H7264 0.950 . S
C7290 C7286 1.385 . S
C7290 C7289 1.374 . S
C7291 C7288 1.499 . S
C7291 C7292 1.373 . S
C7291 C7293 1.389 . S
C7292 H7265 0.950 . S
C7292 C7278 1.377 . S
C7292 C7291 1.373 . S
C7293 C7277 1.377 . S
C7293 C7291 1.389 . S
C7293 C7294 1.524 . S
C7294 C7293 1.524 . S
C7294 C7295 1.397 . S
C7294 C7299 1.363 . S
C7295 H7266 0.950 . S
C7295 C7294 1.397 . S
C7295 C7296 1.334 . S
C7296 H7267 0.950 . S
C7296 C7295 1.334 . S
C7296 C7297 1.287 . S
C7297 C7296 1.287 . S
C7297 C7298 1.524 . S
C7297 H7300 0.999 . S
C7298 H7268 0.950 . S
C7298 C7297 1.524 . S
C7298 C7299 1.415 . S
C7299 H7269 0.950 . S
C7299 C7294 1.363 . S
C7299 C7298 1.415 . S
H7300 C7297 0.999 . S
H7301 C7282 0.913 . S
H7302 C7320 0.951 . S
H7303 C7322 0.951 . S
H7304 C7324 0.950 . S
H7305 C7325 0.950 . S
H7306 C7327 0.950 . S
H7307 C7330 0.950 . S
H7308 C7331 0.950 . S
H7309 C7333 0.950 1_565 S
H7310 C7334 0.897 1_554 S
H7311 C7335 0.931 1_556 S
H7312 C7337 0.946 . S
H7313 C7339 0.950 . S
H7314 C7340 0.950 . S
H7315 C7342 0.950 . S
H7316 C7345 0.950 . S
H7317 C7346 0.950 . S
H7318 C7348 0.950 . S
H7319 C7349 0.950 . S
C7320 H7302 0.951 . S
C7320 C7321 1.366 1_554 S
C7320 C7322 1.388 . S
C7321 C7320 1.366 1_556 S
C7321 C7325 1.385 . S
C7322 H7303 0.951 . S
C7322 C7320 1.388 . S
C7322 C7323 1.358 1_554 S
C7323 C7322 1.358 1_556 S
C7323 C7324 1.425 . S
C7323 C7326 1.491 1_556 S
C7324 H7304 0.950 . S
C7324 C7323 1.425 . S
C7324 C7325 1.374 . S
C7325 H7305 0.950 . S
C7325 C7321 1.385 . S
C7325 C7324 1.374 . S
C7326 C7323 1.491 1_554 S
C7326 C7327 1.386 . S
C7326 C7328 1.386 1_554 S
C7327 H7306 0.950 . S
C7327 C7326 1.386 . S
C7327 C7343 1.377 . S
C7328 C7326 1.386 1_556 S
C7328 C7329 1.524 . S
C7328 C7342 1.377 . S
C7329 C7328 1.524 . S
C7329 C7330 1.397 . S
C7329 C7334 1.363 . S
C7330 H7307 0.950 . S
C7330 C7329 1.397 . S
C7330 C7331 1.334 . S
C7331 H7308 0.950 . S
C7331 C7330 1.334 . S
C7331 C7332 1.287 . S
C7332 C7331 1.287 . S
C7332 C7333 1.524 . S
C7332 H7351 0.913 . S
C7333 H7309 0.950 1_545 S
C7333 C7332 1.524 . S
C7333 C7334 1.415 . S
C7334 H7310 0.897 1_556 S
C7334 C7329 1.363 . S
C7334 C7333 1.415 . S
C7335 H7311 0.931 1_554 S
C7335 C7336 1.395 . S
C7335 C7337 1.382 1_554 S
C7336 C7335 1.395 . S
C7336 C7340 1.385 . S
C7337 H7312 0.946 . S
C7337 C7335 1.382 1_556 S
C7337 C7338 1.369 1_556 S
C7338 C7337 1.369 1_554 S
C7338 C7339 1.414 . S
C7338 C7341 1.499 . S
C7339 H7313 0.950 . S
C7339 C7338 1.414 . S
C7339 C7340 1.374 . S
C7340 H7314 0.950 . S
C7340 C7336 1.385 . S
C7340 C7339 1.374 . S
C7341 C7338 1.499 . S
C7341 C7342 1.373 1_554 S
C7341 C7343 1.389 . S
C7342 H7315 0.950 . S
C7342 C7328 1.377 . S
C7342 C7341 1.373 1_556 S
C7343 C7327 1.377 . S
C7343 C7341 1.389 . S
C7343 C7344 1.524 . S
C7344 C7343 1.524 . S
C7344 C7345 1.397 . S
C7344 C7349 1.363 . S
C7345 H7316 0.950 . S
C7345 C7344 1.397 . S
C7345 C7346 1.334 . S
C7346 H7317 0.950 . S
C7346 C7345 1.334 . S
C7346 C7347 1.287 . S
C7347 C7346 1.287 . S
C7347 C7348 1.524 . S
C7347 H7350 0.999 . S
C7348 H7318 0.950 . S
C7348 C7347 1.524 . S
C7348 C7349 1.415 . S
C7349 H7319 0.950 . S
C7349 C7344 1.363 . S
C7349 C7348 1.415 . S
H7350 C7347 0.999 . S
H7351 C7332 0.913 . S
H7352 C7370 0.951 . S
H7353 C7372 0.951 . S
H7354 C7374 0.950 . S
H7355 C7375 0.950 . S
H7356 C7377 0.950 . S
H7357 C7380 0.950 . S
H7358 C7381 0.950 . S
H7359 C7383 0.950 . S
H7360 C7384 0.950 . S
H7361 C7385 0.951 . S
H7362 C7387 0.951 . S
H7363 C7389 0.950 . S
H7364 C7390 0.950 . S
H7365 C7392 0.950 . S
H7366 C7395 0.950 . S
H7367 C7396 0.950 . S
H7368 C7398 0.950 . S
H7369 C7399 0.950 . S
C7370 H7352 0.951 . S
C7370 C7371 1.366 . S
C7370 C7372 1.388 . S
C7371 C7370 1.366 . S
C7371 C7375 1.385 . S
C7372 H7353 0.951 . S
C7372 C7370 1.388 . S
C7372 C7373 1.366 . S
C7373 C7372 1.366 . S
C7373 C7374 1.414 . S
C7373 C7376 1.499 . S
C7374 H7354 0.950 . S
C7374 C7373 1.414 . S
C7374 C7375 1.374 . S
C7375 H7355 0.950 . S
C7375 C7371 1.385 . S
C7375 C7374 1.374 . S
C7376 C7373 1.499 . S
C7376 C7377 1.373 . S
C7376 C7378 1.389 . S
C7377 H7356 0.950 . S
C7377 C7376 1.373 . S
C7377 C7393 1.377 . S
C7378 C7376 1.389 . S
C7378 C7379 1.524 . S
C7378 C7392 1.377 . S
C7379 C7378 1.524 . S
C7379 C7380 1.397 . S
C7379 C7384 1.363 . S
C7380 H7357 0.950 . S
C7380 C7379 1.397 . S
C7380 C7381 1.334 . S
C7381 H7358 0.950 . S
C7381 C7380 1.334 . S
C7381 C7382 1.287 . S
C7382 C7381 1.287 . S
C7382 C7383 1.524 . S
C7382 H7401 0.913 . S
C7383 H7359 0.950 . S
C7383 C7382 1.524 . S
C7383 C7384 1.415 . S
C7384 H7360 0.950 . S
C7384 C7379 1.363 . S
C7384 C7383 1.415 . S
C7385 H7361 0.951 . S
C7385 C7386 1.366 . S
C7385 C7387 1.388 . S
C7386 C7385 1.366 . S
C7386 C7390 1.385 . S
C7387 H7362 0.951 . S
C7387 C7385 1.388 . S
C7387 C7388 1.366 . S
C7388 C7387 1.366 . S
C7388 C7389 1.414 . S
C7388 C7391 1.499 . S
C7389 H7363 0.950 . S
C7389 C7388 1.414 . S
C7389 C7390 1.374 . S
C7390 H7364 0.950 . S
C7390 C7386 1.385 . S
C7390 C7389 1.374 . S
C7391 C7388 1.499 . S
C7391 C7392 1.373 . S
C7391 C7393 1.389 . S
C7392 H7365 0.950 . S
C7392 C7378 1.377 . S
C7392 C7391 1.373 . S
C7393 C7377 1.377 . S
C7393 C7391 1.389 . S
C7393 C7394 1.524 . S
C7394 C7393 1.524 . S
C7394 C7395 1.397 . S
C7394 C7399 1.363 . S
C7395 H7366 0.950 . S
C7395 C7394 1.397 . S
C7395 C7396 1.334 . S
C7396 H7367 0.950 . S
C7396 C7395 1.334 . S
C7396 C7397 1.287 . S
C7397 C7396 1.287 . S
C7397 C7398 1.524 . S
C7397 H7400 0.999 . S
C7398 H7368 0.950 . S
C7398 C7397 1.524 . S
C7398 C7399 1.415 . S
C7399 H7369 0.950 . S
C7399 C7394 1.363 . S
C7399 C7398 1.415 . S
H7400 C7397 0.999 . S
H7401 C7382 0.913 . S
H7402 C7420 0.951 . S
H7403 C7422 0.951 . S
H7404 C7424 0.950 . S
H7405 C7425 0.920 1_556 S
H7406 C7427 0.943 1_556 S
H7407 C7430 0.950 . S
H7408 C7431 0.950 . S
H7409 C7433 0.950 . S
H7410 C7434 0.950 . S
H7411 C7435 0.951 . S
H7412 C7437 0.951 . S
H7413 C7439 0.950 . S
H7414 C7440 0.950 . S
H7415 C7442 0.950 . S
H7416 C7445 0.950 . S
H7417 C7446 0.950 . S
H7418 C7448 0.950 . S
H7419 C7449 0.950 . S
C7420 H7402 0.951 . S
C7420 C7421 1.366 . S
C7420 C7422 1.388 . S
C7421 C7420 1.366 . S
C7421 C7425 1.426 . S
C7422 H7403 0.951 . S
C7422 C7420 1.388 . S
C7422 C7423 1.366 . S
C7423 C7422 1.366 . S
C7423 C7424 1.414 1_554 S
C7423 C7426 1.499 . S
C7424 H7404 0.950 . S
C7424 C7423 1.414 1_556 S
C7424 C7425 1.364 1_556 S
C7425 H7405 0.920 1_554 S
C7425 C7421 1.426 . S
C7425 C7424 1.364 1_554 S
C7426 C7423 1.499 . S
C7426 C7427 1.386 . S
C7426 C7428 1.389 . S
C7427 H7406 0.943 1_554 S
C7427 C7426 1.386 . S
C7427 C7443 1.371 1_554 S
C7428 C7426 1.389 . S
C7428 C7429 1.524 . S
C7428 C7442 1.377 . S
C7429 C7428 1.524 . S
C7429 C7430 1.397 1_554 S
C7429 C7434 1.363 . S
C7430 H7407 0.950 . S
C7430 C7429 1.397 1_556 S
C7430 C7431 1.334 . S
C7431 H7408 0.950 . S
C7431 C7430 1.334 . S
C7431 C7432 1.287 1_556 S
C7432 C7431 1.287 1_554 S
C7432 C7433 1.524 . S
C7432 H7451 0.913 . S
C7433 H7409 0.950 . S
C7433 C7432 1.524 . S
C7433 C7434 1.415 . S
C7434 H7410 0.950 . S
C7434 C7429 1.363 . S
C7434 C7433 1.415 . S
C7435 H7411 0.951 . S
C7435 C7436 1.366 . S
C7435 C7437 1.388 . S
C7436 C7435 1.366 . S
C7436 C7440 1.385 1_556 S
C7437 H7412 0.951 . S
C7437 C7435 1.388 . S
C7437 C7438 1.366 . S
C7438 C7437 1.366 . S
C7438 C7439 1.414 1_556 S
C7438 C7441 1.516 . S
C7439 H7413 0.950 . S
C7439 C7438 1.414 1_554 S
C7439 C7440 1.374 . S
C7440 H7414 0.950 . S
C7440 C7436 1.385 1_554 S
C7440 C7439 1.374 . S
C7441 C7438 1.516 . S
C7441 C7442 1.352 1_556 S
C7441 C7443 1.402 . S
C7442 H7415 0.950 . S
C7442 C7428 1.377 . S
C7442 C7441 1.352 1_554 S
C7443 C7427 1.371 1_556 S
C7443 C7441 1.402 . S
C7443 C7444 1.524 . S
C7444 C7443 1.524 . S
C7444 C7445 1.397 1_556 S
C7444 C7449 1.363 . S
C7445 H7416 0.950 . S
C7445 C7444 1.397 1_554 S
C7445 C7446 1.334 . S
C7446 H7417 0.950 . S
C7446 C7445 1.334 . S
C7446 C7447 1.287 1_554 S
C7447 C7446 1.287 1_556 S
C7447 C7448 1.524 . S
C7447 H7450 0.999 . S
C7448 H7418 0.950 . S
C7448 C7447 1.524 . S
C7448 C7449 1.415 . S
C7449 H7419 0.950 . S
C7449 C7444 1.363 . S
C7449 C7448 1.415 . S
H7450 C7447 0.999 . S
H7451 C7432 0.913 . S
H7452 C7470 0.951 . S
H7453 C7472 0.951 . S
H7454 C7474 0.950 . S
H7455 C7475 0.950 . S
H7456 C7477 0.950 . S
H7457 C7480 0.950 . S
H7458 C7481 0.950 . S
H7459 C7483 0.950 . S
H7460 C7484 0.950 . S
H7461 C7485 0.951 . S
H7462 C7487 0.951 . S
H7463 C7489 0.950 . S
H7464 C7490 0.950 . S
H7465 C7492 0.950 . S
H7466 C7495 0.950 . S
H7467 C7496 0.950 . S
H7468 C7498 0.950 . S
H7469 C7499 0.950 . S
C7470 H7452 0.951 . S
C7470 C7471 1.366 . S
C7470 C7472 1.388 . S
C7471 C7470 1.366 . S
C7471 C7475 1.385 . S
C7472 H7453 0.951 . S
C7472 C7470 1.388 . S
C7472 C7473 1.366 . S
C7473 C7472 1.366 . S
C7473 C7474 1.414 . S
C7473 C7476 1.499 . S
C7474 H7454 0.950 . S
C7474 C7473 1.414 . S
C7474 C7475 1.374 . S
C7475 H7455 0.950 . S
C7475 C7471 1.385 . S
C7475 C7474 1.374 . S
C7476 C7473 1.499 . S
C7476 C7477 1.373 . S
C7476 C7478 1.389 . S
C7477 H7456 0.950 . S
C7477 C7476 1.373 . S
C7477 C7493 1.377 . S
C7478 C7476 1.389 . S
C7478 C7479 1.524 . S
C7478 C7492 1.377 . S
C7479 C7478 1.524 . S
C7479 C7480 1.397 . S
C7479 C7484 1.363 . S
C7480 H7457 0.950 . S
C7480 C7479 1.397 . S
C7480 C7481 1.334 . S
C7481 H7458 0.950 . S
C7481 C7480 1.334 . S
C7481 C7482 1.287 . S
C7482 C7481 1.287 . S
C7482 C7483 1.524 . S
C7482 H7501 0.913 . S
C7483 H7459 0.950 . S
C7483 C7482 1.524 . S
C7483 C7484 1.415 . S
C7484 H7460 0.950 . S
C7484 C7479 1.363 . S
C7484 C7483 1.415 . S
C7485 H7461 0.951 . S
C7485 C7486 1.366 . S
C7485 C7487 1.388 . S
C7486 C7485 1.366 . S
C7486 C7490 1.385 . S
C7487 H7462 0.951 . S
C7487 C7485 1.388 . S
C7487 C7488 1.366 . S
C7488 C7487 1.366 . S
C7488 C7489 1.414 . S
C7488 C7491 1.499 . S
C7489 H7463 0.950 . S
C7489 C7488 1.414 . S
C7489 C7490 1.374 . S
C7490 H7464 0.950 . S
C7490 C7486 1.385 . S
C7490 C7489 1.374 . S
C7491 C7488 1.499 . S
C7491 C7492 1.373 . S
C7491 C7493 1.389 . S
C7492 H7465 0.950 . S
C7492 C7478 1.377 . S
C7492 C7491 1.373 . S
C7493 C7477 1.377 . S
C7493 C7491 1.389 . S
C7493 C7494 1.524 . S
C7494 C7493 1.524 . S
C7494 C7495 1.397 . S
C7494 C7499 1.363 . S
C7495 H7466 0.950 . S
C7495 C7494 1.397 . S
C7495 C7496 1.334 . S
C7496 H7467 0.950 . S
C7496 C7495 1.334 . S
C7496 C7497 1.287 . S
C7497 C7496 1.287 . S
C7497 C7498 1.524 . S
C7497 H7500 0.999 . S
C7498 H7468 0.950 . S
C7498 C7497 1.524 . S
C7498 C7499 1.415 . S
C7499 H7469 0.950 . S
C7499 C7494 1.363 . S
C7499 C7498 1.415 . S
H7500 C7497 0.999 . S
H7501 C7482 0.913 . S
H7502 C7520 0.951 . S
H7503 C7522 0.951 . S
H7504 C7524 0.950 . S
H7505 C7525 0.950 . S
H7506 C7527 0.950 . S
H7507 C7530 0.950 . S
H7508 C7531 0.950 . S
H7509 C7533 0.950 . S
H7510 C7534 0.950 . S
H7511 C7535 0.951 . S
H7512 C7537 0.951 . S
H7513 C7539 0.950 . S
H7514 C7540 0.950 . S
H7515 C7542 0.950 . S
H7516 C7545 0.950 . S
H7517 C7546 0.950 . S
H7518 C7548 0.950 . S
H7519 C7549 0.950 . S
C7520 H7502 0.951 . S
C7520 C7521 1.366 . S
C7520 C7522 1.388 . S
C7521 C7520 1.366 . S
C7521 C7525 1.385 . S
C7522 H7503 0.951 . S
C7522 C7520 1.388 . S
C7522 C7523 1.366 . S
C7523 C7522 1.366 . S
C7523 C7524 1.414 . S
C7523 C7526 1.499 . S
C7524 H7504 0.950 . S
C7524 C7523 1.414 . S
C7524 C7525 1.374 . S
C7525 H7505 0.950 . S
C7525 C7521 1.385 . S
C7525 C7524 1.374 . S
C7526 C7523 1.499 . S
C7526 C7527 1.373 . S
C7526 C7528 1.389 . S
C7527 H7506 0.950 . S
C7527 C7526 1.373 . S
C7527 C7543 1.377 . S
C7528 C7526 1.389 . S
C7528 C7529 1.524 . S
C7528 C7542 1.377 . S
C7529 C7528 1.524 . S
C7529 C7530 1.397 . S
C7529 C7534 1.363 . S
C7530 H7507 0.950 . S
C7530 C7529 1.397 . S
C7530 C7531 1.334 . S
C7531 H7508 0.950 . S
C7531 C7530 1.334 . S
C7531 C7532 1.287 . S
C7532 C7531 1.287 . S
C7532 C7533 1.524 . S
C7532 H7551 0.913 . S
C7533 H7509 0.950 . S
C7533 C7532 1.524 . S
C7533 C7534 1.415 . S
C7534 H7510 0.950 . S
C7534 C7529 1.363 . S
C7534 C7533 1.415 . S
C7535 H7511 0.951 . S
C7535 C7536 1.366 . S
C7535 C7537 1.388 . S
C7536 C7535 1.366 . S
C7536 C7540 1.385 . S
C7537 H7512 0.951 . S
C7537 C7535 1.388 . S
C7537 C7538 1.366 . S
C7538 C7537 1.366 . S
C7538 C7539 1.414 . S
C7538 C7541 1.499 . S
C7539 H7513 0.950 . S
C7539 C7538 1.414 . S
C7539 C7540 1.374 . S
C7540 H7514 0.950 . S
C7540 C7536 1.385 . S
C7540 C7539 1.374 . S
C7541 C7538 1.499 . S
C7541 C7542 1.373 . S
C7541 C7543 1.389 . S
C7542 H7515 0.950 . S
C7542 C7528 1.377 . S
C7542 C7541 1.373 . S
C7543 C7527 1.377 . S
C7543 C7541 1.389 . S
C7543 C7544 1.524 . S
C7544 C7543 1.524 . S
C7544 C7545 1.397 . S
C7544 C7549 1.363 . S
C7545 H7516 0.950 . S
C7545 C7544 1.397 . S
C7545 C7546 1.334 . S
C7546 H7517 0.950 . S
C7546 C7545 1.334 . S
C7546 C7547 1.287 . S
C7547 C7546 1.287 . S
C7547 C7548 1.524 . S
C7547 H7550 0.999 . S
C7548 H7518 0.950 . S
C7548 C7547 1.524 . S
C7548 C7549 1.415 . S
C7549 H7519 0.950 . S
C7549 C7544 1.363 . S
C7549 C7548 1.415 . S
H7550 C7547 0.999 . S
H7551 C7532 0.913 . S
C2771 C665 0.905 . S
C2786 C2120 0.909 . S
C2821 C381 1.226 . S
C2836 C2154 1.218 . S
C2871 C460 0.273 . S
C2886 C2223 0.252 . S
C2936 C2261 0.850 . S
C2921 C585 0.851 . S
C2971 C108 1.202 . S
C2986 C2301 1.189 . S
C3036 C2320 0.112 . S
C3021 C196 0.229 . S
C3086 C2354 1.064 . S
C3071 C313 1.067 . S
C3121 C49 1.484 . S
C3136 C2423 1.478 . S
C3186 C2129 2.375 . S
C3171 C1457 2.400 . S
C3221 C1545 0.663 . S
C3236 C2181 0.668 . S
C3286 C2194 1.416 . S
C3271 C1721 1.429 . S
C3336 C2263 1.219 . S
C3321 C1113 1.191 . S
C3371 C1428 1.722 . S
C3386 C2303 1.755 . S
C3436 C2329 1.874 . S
C3421 C1516 1.911 . S
C3486 C2381 0.289 . S
C3471 C1692 0.197 . S
C3536 C2394 2.084 . S
C3521 C1085 2.098 . S
C3586 C2124 2.435 . S
C3571 C988 2.446 . S
C3621 C1817 1.965 . S
C3636 C2434 1.958 . S
C3686 C2484 2.605 . S
C3671 C2081 2.622 . S
C3736 C2543 1.375 . S
C3721 C1993 1.348 . S
C3771 C761 1.250 . S
C3786 C2421 1.239 . S
C3821 C821 1.288 . S
C3836 C2221 1.277 . S
C3871 C2053 2.489 . S
C3886 C2554 2.457 . S
C3936 C2623 0.580 . S
C3921 C1868 0.579 . S
C3986 C2141 0.906 . S
C3971 C372 0.902 . S
C4036 C2609 1.214 . S
C4021 C645 1.221 . S
C4071 C577 0.266 . S
C4086 C2204 0.246 . S
C4121 C497 0.847 . S
C4136 C2560 0.846 . S
C4186 C2280 1.186 . S
C4171 C57 1.201 . S
C4221 C293 0.223 . S
C4236 C2501 0.115 . S
C4286 C2369 1.041 1_556 S
C4271 C205 1.060 . S
C4336 C2644 1.475 . S
C4321 C145 1.491 . S
C4386 C2114 2.373 . S
C4371 C909 2.397 . S
C4436 C2600 0.665 . S
C4421 C1956 0.659 . S
C4471 C724 1.424 . S
C4486 C2209 1.412 . S
C4521 C1780 1.185 . S
C4536 C2564 1.213 . S
C4571 C937 1.721 . S
C4586 C2284 1.749 . S
C4636 C2474 1.871 . S
C4621 C1985 1.906 . S
C4671 C753 0.197 . S
C4686 C2360 0.325 . S
C4721 C1809 2.094 . S
C4736 C2649 2.080 . S
C4771 C1173 2.442 . S
C4786 C2143 2.356 1_656 S
C4821 C1105 1.960 . S
C4836 C2449 1.955 . S
C4871 C1633 2.617 . S
C4886 C2343 2.601 . S
C4921 C1553 1.341 . S
C4936 C2524 1.367 . S
C4986 C2640 1.236 . S
C4971 C1729 1.250 . S
C5021 C1340 1.288 . S
C5036 C2200 1.275 . S
C5086 C2249 2.453 . S
C5071 C1604 2.483 . S
C5136 C2164 0.574 . S
C5121 C1252 0.572 . S
C5171 C489 0.905 . S
C5186 C2680 0.909 . S
C5236 C2594 1.218 . S
C5221 C557 1.226 . S
C5271 C636 0.274 . S
C5286 C2743 0.250 . S
C5321 C409 0.851 . S
C5336 C2581 0.850 . S
C5371 C284 1.202 . S
C5386 C2461 1.190 . S
C5436 C2480 0.109 . S
C5421 C20 0.230 . S
C5486 C2514 1.065 . S
C5471 C137 1.065 . S
C5536 C2663 1.478 . S
C5521 C225 1.484 . S
C5586 C2689 2.375 . S
C5571 C1641 2.400 . S
C5621 C1193 0.663 . S
C5636 C2621 0.668 . S
C5686 C2714 1.416 . S
C5671 C1289 1.428 . S
C5736 C2583 1.220 . S
C5721 C1377 1.191 . S
C5786 C2463 1.755 . S
C5771 C1613 1.722 . S
C5821 C1164 1.911 . S
C5836 C2489 1.874 . S
C5886 C2541 0.289 . S
C5871 C1261 0.198 . S
C5921 C1349 2.099 . S
C5936 C2634 2.084 . S
C5986 C2684 2.435 . S
C5971 C1965 2.446 . S
C6021 C849 1.965 . S
C6036 C2274 1.958 . S
C6086 C2324 2.605 . S
C6071 C929 2.622 . S
C6136 C2383 1.375 . S
C6121 C1017 1.349 . S
C6186 C2661 1.238 . S
C6171 C1897 1.249 . S
C6221 C1789 1.289 . S
C6236 C2741 1.278 . S
C6286 C2234 2.458 . S
C6271 C900 2.489 . S
C6336 C2183 0.580 . S
C6321 C733 0.579 . S
C6371 C548 0.902 . S
C6386 C2701 0.906 . S
C6436 C2169 1.214 . S
C6421 C469 1.222 . S
C6471 C401 0.265 . S
C6486 C2724 0.247 . S
C6521 C673 0.847 . S
C6536 C2240 0.845 . S
C6571 C233 1.202 . S
C6586 C2440 1.187 . S
C6636 C2341 0.113 . S
C6621 C117 0.230 . S
C6671 C29 1.060 . S
C6686 C2529 1.059 . S
C6721 C321 1.483 . S
C6736 C2404 1.475 . S
C6786 C2674 2.373 . S
C6771 C2044 2.396 . S
C6821 C997 0.660 . S
C6836 C2160 0.666 . S
C6886 C2729 1.411 . S
C6871 C1877 1.423 . S
C6921 C812 1.186 . S
C6936 C2244 1.213 . S
C6971 C2073 1.721 . S
C6986 C2444 1.749 . S
C7036 C2314 1.872 . S
C7021 C1025 1.906 . S
C7071 C1905 0.197 . S
C7086 C2520 0.290 . S
C7136 C2409 2.080 . S
C7121 C841 2.095 . S
C7186 C2703 2.431 . S
C7171 C1525 2.442 . S
C7236 C2289 1.955 . S
C7221 C1369 1.960 . S
C7271 C1465 2.617 . S
C7286 C2503 2.601 . S
C7336 C2364 1.367 . S
C7321 C1201 1.341 . S
C7371 C1281 1.249 . S
C7386 C2400 1.235 . S
C7421 C1076 1.288 . S
C7436 C2720 1.275 . S
C7486 C2569 2.453 . S
C7471 C1437 2.483 . S
C7536 C2604 0.573 . S
C7521 C1701 0.572 . S
