# Generated by pormake.
# Topology ocu, (6,8)-cn, num edge types: 1
# Building blocks:
#     Node 0, Type 0, BuildingBlock: KUMJIN_clean_sbu_1, # of connection points: 6
#     Node 1, Type 0, BuildingBlock: KUMJIN_clean_sbu_1, # of connection points: 6
#     Node 2, Type 0, BuildingBlock: KUMJIN_clean_sbu_1, # of connection points: 6
#     Node 3, Type 0, BuildingBlock: KUMJIN_clean_sbu_1, # of connection points: 6
#     Node 4, Type 0, BuildingBlock: KUMJIN_clean_sbu_1, # of connection points: 6
#     Node 5, Type 0, BuildingBlock: KUMJIN_clean_sbu_1, # of connection points: 6
#     Node 6, Type 0, BuildingBlock: KUMJIN_clean_sbu_1, # of connection points: 6
#     Node 7, Type 0, BuildingBlock: KUMJIN_clean_sbu_1, # of connection points: 6
#     Node 8, Type 1, BuildingBlock: AJUNOK_clean_sbu_0, # of connection points: 8
#     Node 9, Type 1, BuildingBlock: AJUNOK_clean_sbu_0, # of connection points: 8
#     Node 10, Type 1, BuildingBlock: AJUNOK_clean_sbu_0, # of connection points: 8
#     Node 11, Type 1, BuildingBlock: AJUNOK_clean_sbu_0, # of connection points: 8
#     Node 12, Type 1, BuildingBlock: AJUNOK_clean_sbu_0, # of connection points: 8
#     Node 13, Type 1, BuildingBlock: AJUNOK_clean_sbu_0, # of connection points: 8
#     Edge 14, Type (0, 1), BuildingBlock: KIFKEQ_clean_linker_1, # of connection points: 2
#     Edge 15, Type (0, 1), BuildingBlock: KIFKEQ_clean_linker_1, # of connection points: 2
#     Edge 16, Type (0, 1), BuildingBlock: KIFKEQ_clean_linker_1, # of connection points: 2
#     Edge 17, Type (0, 1), BuildingBlock: KIFKEQ_clean_linker_1, # of connection points: 2
#     Edge 18, Type (0, 1), BuildingBlock: KIFKEQ_clean_linker_1, # of connection points: 2
#     Edge 19, Type (0, 1), BuildingBlock: KIFKEQ_clean_linker_1, # of connection points: 2
#     Edge 20, Type (0, 1), BuildingBlock: KIFKEQ_clean_linker_1, # of connection points: 2
#     Edge 21, Type (0, 1), BuildingBlock: KIFKEQ_clean_linker_1, # of connection points: 2
#     Edge 22, Type (0, 1), BuildingBlock: KIFKEQ_clean_linker_1, # of connection points: 2
#     Edge 23, Type (0, 1), BuildingBlock: KIFKEQ_clean_linker_1, # of connection points: 2
#     Edge 24, Type (0, 1), BuildingBlock: KIFKEQ_clean_linker_1, # of connection points: 2
#     Edge 25, Type (0, 1), BuildingBlock: KIFKEQ_clean_linker_1, # of connection points: 2
#     Edge 26, Type (0, 1), BuildingBlock: KIFKEQ_clean_linker_1, # of connection points: 2
#     Edge 27, Type (0, 1), BuildingBlock: KIFKEQ_clean_linker_1, # of connection points: 2
#     Edge 28, Type (0, 1), BuildingBlock: KIFKEQ_clean_linker_1, # of connection points: 2
#     Edge 29, Type (0, 1), BuildingBlock: KIFKEQ_clean_linker_1, # of connection points: 2
#     Edge 30, Type (0, 1), BuildingBlock: KIFKEQ_clean_linker_1, # of connection points: 2
#     Edge 31, Type (0, 1), BuildingBlock: KIFKEQ_clean_linker_1, # of connection points: 2
#     Edge 32, Type (0, 1), BuildingBlock: KIFKEQ_clean_linker_1, # of connection points: 2
#     Edge 33, Type (0, 1), BuildingBlock: KIFKEQ_clean_linker_1, # of connection points: 2
#     Edge 34, Type (0, 1), BuildingBlock: KIFKEQ_clean_linker_1, # of connection points: 2
#     Edge 35, Type (0, 1), BuildingBlock: KIFKEQ_clean_linker_1, # of connection points: 2
#     Edge 36, Type (0, 1), BuildingBlock: KIFKEQ_clean_linker_1, # of connection points: 2
#     Edge 37, Type (0, 1), BuildingBlock: KIFKEQ_clean_linker_1, # of connection points: 2
#     Edge 38, Type (0, 1), BuildingBlock: KIFKEQ_clean_linker_1, # of connection points: 2
#     Edge 39, Type (0, 1), BuildingBlock: KIFKEQ_clean_linker_1, # of connection points: 2
#     Edge 40, Type (0, 1), BuildingBlock: KIFKEQ_clean_linker_1, # of connection points: 2
#     Edge 41, Type (0, 1), BuildingBlock: KIFKEQ_clean_linker_1, # of connection points: 2
#     Edge 42, Type (0, 1), BuildingBlock: KIFKEQ_clean_linker_1, # of connection points: 2
#     Edge 43, Type (0, 1), BuildingBlock: KIFKEQ_clean_linker_1, # of connection points: 2
#     Edge 44, Type (0, 1), BuildingBlock: KIFKEQ_clean_linker_1, # of connection points: 2
#     Edge 45, Type (0, 1), BuildingBlock: KIFKEQ_clean_linker_1, # of connection points: 2
#     Edge 46, Type (0, 1), BuildingBlock: KIFKEQ_clean_linker_1, # of connection points: 2
#     Edge 47, Type (0, 1), BuildingBlock: KIFKEQ_clean_linker_1, # of connection points: 2
#     Edge 48, Type (0, 1), BuildingBlock: KIFKEQ_clean_linker_1, # of connection points: 2
#     Edge 49, Type (0, 1), BuildingBlock: KIFKEQ_clean_linker_1, # of connection points: 2
#     Edge 50, Type (0, 1), BuildingBlock: KIFKEQ_clean_linker_1, # of connection points: 2
#     Edge 51, Type (0, 1), BuildingBlock: KIFKEQ_clean_linker_1, # of connection points: 2
#     Edge 52, Type (0, 1), BuildingBlock: KIFKEQ_clean_linker_1, # of connection points: 2
#     Edge 53, Type (0, 1), BuildingBlock: KIFKEQ_clean_linker_1, # of connection points: 2
#     Edge 54, Type (0, 1), BuildingBlock: KIFKEQ_clean_linker_1, # of connection points: 2
#     Edge 55, Type (0, 1), BuildingBlock: KIFKEQ_clean_linker_1, # of connection points: 2
#     Edge 56, Type (0, 1), BuildingBlock: KIFKEQ_clean_linker_1, # of connection points: 2
#     Edge 57, Type (0, 1), BuildingBlock: KIFKEQ_clean_linker_1, # of connection points: 2
#     Edge 58, Type (0, 1), BuildingBlock: KIFKEQ_clean_linker_1, # of connection points: 2
#     Edge 59, Type (0, 1), BuildingBlock: KIFKEQ_clean_linker_1, # of connection points: 2
#     Edge 60, Type (0, 1), BuildingBlock: KIFKEQ_clean_linker_1, # of connection points: 2
#     Edge 61, Type (0, 1), BuildingBlock: KIFKEQ_clean_linker_1, # of connection points: 2
# Relax obj value: 0.130
# Max RMSD: 0.183
# Mean RMSD: 0.157
data_MOF--net-ocu--node1-KUMJIN_clean_sbu_1--node2-AJUNOK_clean_sbu_0--edge1-KIFKEQ_clean_linker_1
_symmetry_space_group_name_H-M    P1
_symmetry_Int_Tables_number       1
_symmetry_cell_setting            triclinic
loop_
_symmetry_equiv_pos_as_xyz
'x, y, z'
_cell_length_a     44.540021
_cell_length_b     45.185865
_cell_length_c     39.801095
_cell_angle_alpha  104.72555
_cell_angle_beta   87.547464
_cell_angle_gamma 111.58992
loop_
_atom_site_label
_atom_site_type_symbol
_atom_site_fract_x
_atom_site_fract_y
_atom_site_fract_z
_atom_type_partial_charge
Eu0 Eu 0.2331 0.24475 0.2143 0.0
C1 C 0.30989 0.33244 0.34879 0.0
N2 N 0.32026 0.31927 0.3178 0.0
C3 C 0.35669 0.37329 0.31571 0.0
C4 C 0.32157 0.36685 0.36333 0.0
C5 C 0.34484 0.33911 0.30247 0.0
C6 C 0.3446 0.38727 0.34588 0.0
C7 C 0.27845 0.32459 0.39969 0.0
C8 C 0.28859 0.31155 0.3671 0.0
C9 C 0.28926 0.35882 0.4134 0.0
C10 C 0.3107 0.37986 0.39527 0.0
Eu11 Eu 0.29636 0.26081 0.29839 0.0
N12 N 0.27749 0.27843 0.35293 0.0
C13 C 0.2578 0.30277 0.41766 0.0
C14 C 0.25858 0.25701 0.3709 0.0
C15 C 0.24812 0.26883 0.40336 0.0
H16 H 0.35637 0.32914 0.28058 0.0
H17 H 0.23263 0.25179 0.41733 0.0
H18 H 0.1752 0.17266 0.22339 0.0
H19 H 0.29851 0.27289 0.10056 0.0
H20 H 0.25153 0.23088 0.36002 0.0
H21 H 0.24954 0.31187 0.44277 0.0
H22 H 0.28016 0.28526 0.16026 0.0
H23 H 0.37566 0.38883 0.30296 0.0
H24 H 0.2815 0.36927 0.43825 0.0
H25 H 0.31927 0.40622 0.40656 0.0
H26 H 0.15092 0.11543 0.18923 0.0
H27 H 0.35413 0.41378 0.35623 0.0
H28 H 0.27696 0.21582 0.06329 0.0
N29 N 0.20748 0.18844 0.1847 0.0
C30 C 0.21564 0.18005 0.15114 0.0
C31 C 0.16943 0.13326 0.1784 0.0
C32 C 0.2017 0.14741 0.13043 0.0
C33 C 0.18384 0.16586 0.19802 0.0
C34 C 0.17863 0.1239 0.14463 0.0
N35 N 0.251 0.23561 0.15754 0.0
C36 C 0.27181 0.26022 0.1446 0.0
C37 C 0.24691 0.19615 0.10268 0.0
C38 C 0.23784 0.20426 0.13718 0.0
C39 C 0.26933 0.2211 0.08964 0.0
C40 C 0.28167 0.25332 0.11063 0.0
H41 H 0.1673 0.09862 0.12951 0.0
H42 H 0.20048 0.11431 0.07997 0.0
H43 H 0.24019 0.15686 0.05581 0.0
O44 O 0.21996 0.2743 0.18633 0.0
O45 O 0.26802 0.21695 0.20061 0.0
O46 O 0.30264 0.22632 0.24827 0.0
O47 O 0.18318 0.24211 0.21178 0.0
O48 O 0.27871 0.2893 0.23309 0.0
O49 O 0.31992 0.27786 0.25168 0.0
O50 O 0.30395 0.226 0.32359 0.0
O51 O 0.25091 0.27384 0.30923 0.0
O52 O 0.24996 0.29 0.26013 0.0
O53 O 0.343 0.27169 0.32367 0.0
O54 O 0.25495 0.21326 0.27465 0.0
O55 O 0.21119 0.22236 0.25864 0.0
C56 C 0.2913 0.21222 0.21557 0.0
C57 C 0.16695 0.25341 0.16185 0.0
C58 C 0.13535 0.26983 0.12653 0.0
C59 C 0.12619 0.23839 0.1032 0.0
C60 C 0.15756 0.22225 0.13833 0.0
C61 C 0.13725 0.21484 0.10913 0.0
C62 C 0.15589 0.27707 0.15586 0.0
C63 C 0.30777 0.28846 0.22983 0.0
C64 C 0.18939 0.26243 0.19196 0.0
C65 C 0.21087 0.13929 0.09614 0.0
C66 C 0.23344 0.16355 0.08234 0.0
C67 C 0.24035 0.28938 0.29161 0.0
C68 C 0.35596 0.22437 0.31356 0.0
C69 C 0.38103 0.18456 0.31411 0.0
C70 C 0.39428 0.18883 0.28213 0.0
C71 C 0.36958 0.22813 0.28165 0.0
C72 C 0.36177 0.20255 0.32977 0.0
C73 C 0.38856 0.21043 0.26611 0.0
C74 C 0.22441 0.2093 0.27682 0.0
C75 C 0.33497 0.24251 0.32889 0.0
H76 H 0.11011 0.23182 0.0806 0.0
H77 H 0.16596 0.20376 0.14245 0.0
H78 H 0.13002 0.19073 0.09104 0.0
H79 H 0.16378 0.30134 0.17381 0.0
H80 H 0.40966 0.17591 0.26971 0.0
H81 H 0.36541 0.24465 0.26853 0.0
H82 H 0.35106 0.19938 0.3542 0.0
H83 H 0.39888 0.21349 0.24152 0.0
Eu84 Eu 0.73312 0.27286 0.25643 0.0
C85 C 0.83273 0.2295 0.16789 0.0
N86 N 0.80527 0.20969 0.17913 0.0
C87 C 0.79155 0.17375 0.12157 0.0
C88 C 0.83993 0.22291 0.13254 0.0
C89 C 0.78573 0.18111 0.15696 0.0
C90 C 0.81846 0.19507 0.10917 0.0
C91 C 0.88444 0.27507 0.18194 0.0
C92 C 0.85475 0.25522 0.19218 0.0
C93 C 0.89104 0.26956 0.14656 0.0
C94 C 0.8688 0.24356 0.12189 0.0
Eu95 Eu 0.79639 0.22588 0.23908 0.0
N96 N 0.84748 0.26025 0.22611 0.0
C97 C 0.90685 0.29939 0.20771 0.0
C98 C 0.8698 0.28269 0.25156 0.0
C99 C 0.89968 0.30288 0.24272 0.0
H100 H 0.7659 0.16357 0.16651 0.0
H101 H 0.91709 0.32118 0.26285 0.0
H102 H 0.74503 0.30764 0.34179 0.0
H103 H 0.61958 0.19102 0.182 0.0
H104 H 0.8641 0.28539 0.27858 0.0
H105 H 0.92997 0.31513 0.20091 0.0
H106 H 0.67497 0.23288 0.19133 0.0
H107 H 0.77554 0.15139 0.10399 0.0
H108 H 0.91356 0.28479 0.1381 0.0
H109 H 0.87458 0.23906 0.09479 0.0
H110 H 0.71698 0.30009 0.39594 0.0
H111 H 0.82311 0.18912 0.0818 0.0
H112 H 0.59008 0.174 0.23225 0.0
N113 N 0.70679 0.26902 0.30883 0.0
C114 C 0.67622 0.24649 0.30633 0.0
C115 C 0.70532 0.28474 0.37091 0.0
C116 C 0.65939 0.24112 0.33634 0.0
C117 C 0.72109 0.28903 0.34034 0.0
C118 C 0.67452 0.26034 0.36894 0.0
N119 N 0.67827 0.23656 0.2454 0.0
C120 C 0.66297 0.22439 0.21308 0.0
C121 C 0.62957 0.20649 0.26979 0.0
C122 C 0.66168 0.22937 0.27355 0.0
C123 C 0.61471 0.19173 0.23629 0.0
C124 C 0.6313 0.20122 0.20786 0.0
H125 H 0.6624 0.25697 0.39265 0.0
H126 H 0.61472 0.21242 0.35553 0.0
H127 H 0.58852 0.18215 0.29719 0.0
O128 O 0.70468 0.29913 0.24258 0.0
O129 O 0.73614 0.24163 0.29202 0.0
O130 O 0.74583 0.19927 0.25415 0.0
O131 O 0.74961 0.32632 0.27329 0.0
O132 O 0.73064 0.23857 0.20246 0.0
O133 O 0.74637 0.19786 0.21188 0.0
O134 O 0.82012 0.21804 0.28097 0.0
O135 O 0.80955 0.27729 0.23107 0.0
O136 O 0.76192 0.2734 0.20845 0.0
O137 O 0.81225 0.18425 0.23006 0.0
O138 O 0.79874 0.25852 0.29307 0.0
O139 O 0.78199 0.29971 0.28656 0.0
C140 C 0.73304 0.21065 0.28236 0.0
C141 C 0.73842 0.34934 0.23036 0.0
C142 C 0.72612 0.37373 0.18679 0.0
C143 C 0.75957 0.38945 0.18388 0.0
C144 C 0.77164 0.36512 0.22653 0.0
C145 C 0.78203 0.38494 0.20341 0.0
C146 C 0.71583 0.35358 0.21021 0.0
C147 C 0.73002 0.20816 0.19373 0.0
C148 C 0.72724 0.32793 0.25463 0.0
C149 C 0.62796 0.21721 0.33279 0.0
C150 C 0.61307 0.19992 0.29956 0.0
C151 C 0.79348 0.28481 0.20988 0.0
C152 C 0.80848 0.16285 0.27908 0.0
C153 C 0.81729 0.13397 0.31957 0.0
C154 C 0.78465 0.11252 0.31343 0.0
C155 C 0.77602 0.14135 0.27335 0.0
C156 C 0.8288 0.15936 0.30241 0.0
C157 C 0.76419 0.11637 0.2906 0.0
C158 C 0.79869 0.28856 0.30333 0.0
C159 C 0.82117 0.19026 0.26259 0.0
H160 H 0.76859 0.40575 0.16692 0.0
H161 H 0.78973 0.36213 0.24128 0.0
H162 H 0.80765 0.39704 0.20076 0.0
H163 H 0.69027 0.34076 0.21257 0.0
H164 H 0.775 0.09239 0.32572 0.0
H165 H 0.75987 0.14398 0.25572 0.0
H166 H 0.85355 0.17679 0.30741 0.0
H167 H 0.73914 0.09979 0.28609 0.0
Eu168 Eu 0.75495 0.71348 0.27901 0.0
C169 C 0.83608 0.78951 0.17453 0.0
N170 N 0.82637 0.80207 0.206 0.0
C171 C 0.8796 0.84335 0.22101 0.0
C172 C 0.86842 0.80283 0.1656 0.0
C173 C 0.84719 0.82961 0.22848 0.0
C174 C 0.89039 0.8296 0.18965 0.0
C175 C 0.82194 0.75233 0.11666 0.0
C176 C 0.81321 0.76454 0.1503 0.0
C177 C 0.85437 0.76461 0.10818 0.0
C178 C 0.87756 0.78976 0.13261 0.0
Eu179 Eu 0.77135 0.77574 0.21651 0.0
N180 N 0.78208 0.75287 0.15931 0.0
C181 C 0.79766 0.72872 0.09229 0.0
C182 C 0.75803 0.73129 0.13521 0.0
C183 C 0.76549 0.71852 0.10147 0.0
H184 H 0.83887 0.84151 0.25199 0.0
H185 H 0.74646 0.70089 0.08259 0.0
H186 H 0.67833 0.66485 0.25379 0.0
H187 H 0.80805 0.79118 0.40803 0.0
H188 H 0.73321 0.72377 0.14227 0.0
H189 H 0.80339 0.7188 0.06614 0.0
H190 H 0.80885 0.7624 0.34686 0.0
H191 H 0.89611 0.86484 0.23922 0.0
H192 H 0.86163 0.75533 0.08256 0.0
H193 H 0.90235 0.79953 0.12542 0.0
H194 H 0.62457 0.65072 0.27851 0.0
H195 H 0.91543 0.84054 0.18377 0.0
H196 H 0.75596 0.78309 0.43599 0.0
N197 N 0.70282 0.69924 0.30037 0.0
C198 C 0.70074 0.7129 0.33456 0.0
C199 C 0.64575 0.66843 0.29448 0.0
C200 C 0.67058 0.7055 0.34983 0.0
C201 C 0.67615 0.67668 0.28044 0.0
C202 C 0.6429 0.68306 0.32927 0.0
N203 N 0.75766 0.74104 0.33868 0.0
C204 C 0.78591 0.76002 0.35796 0.0
C205 C 0.72731 0.74991 0.38946 0.0
C206 C 0.72885 0.73488 0.35406 0.0
C207 C 0.75612 0.77103 0.40875 0.0
C208 C 0.78556 0.77579 0.39302 0.0
H209 H 0.61929 0.67671 0.34005 0.0
H210 H 0.646 0.71561 0.39705 0.0
H211 H 0.69563 0.75447 0.43175 0.0
O212 O 0.7716 0.68851 0.31061 0.0
O213 O 0.72324 0.74459 0.28273 0.0
O214 O 0.75991 0.79183 0.27255 0.0
O215 O 0.74142 0.66016 0.26385 0.0
O216 O 0.80528 0.75302 0.28416 0.0
O217 O 0.7984 0.79683 0.26981 0.0
O218 O 0.73039 0.78492 0.19906 0.0
O219 O 0.78154 0.72813 0.19659 0.0
O220 O 0.79924 0.72246 0.2467 0.0
O221 O 0.77839 0.82164 0.20281 0.0
O222 O 0.72204 0.73592 0.21399 0.0
O223 O 0.73037 0.69176 0.22491 0.0
C224 C 0.73298 0.77653 0.28585 0.0
C225 C 0.78349 0.64341 0.27625 0.0
C226 C 0.82508 0.62384 0.2894 0.0
C227 C 0.82988 0.61515 0.25367 0.0
C228 C 0.78874 0.6342 0.24062 0.0
C229 C 0.81161 0.62 0.22952 0.0
C230 C 0.80153 0.63771 0.3006 0.0
C231 C 0.81455 0.78464 0.2859 0.0
C232 C 0.76026 0.66003 0.28796 0.0
C233 C 0.66897 0.72083 0.38491 0.0
C234 C 0.69724 0.74303 0.40464 0.0
C235 C 0.79902 0.71747 0.21277 0.0
C236 C 0.7413 0.81862 0.15998 0.0
C237 C 0.7101 0.83653 0.12565 0.0
C238 C 0.72777 0.82901 0.09668 0.0
C239 C 0.75856 0.81141 0.13074 0.0
C240 C 0.7171 0.83117 0.15735 0.0
C241 C 0.75173 0.81652 0.09928 0.0
C242 C 0.71504 0.70415 0.20818 0.0
C243 C 0.74814 0.8131 0.1933 0.0
H244 H 0.84761 0.6042 0.24438 0.0
H245 H 0.77546 0.63827 0.22119 0.0
H246 H 0.81541 0.61302 0.20205 0.0
H247 H 0.7978 0.64472 0.32813 0.0
H248 H 0.72347 0.83328 0.07207 0.0
H249 H 0.77744 0.80203 0.13222 0.0
H250 H 0.70358 0.83643 0.1799 0.0
H251 H 0.76522 0.811 0.07685 0.0
Eu252 Eu 0.23424 0.76794 0.24443 0.0
C253 C 0.30246 0.7048 0.32529 0.0
N254 N 0.31681 0.73115 0.31183 0.0
C255 C 0.34993 0.7611 0.36434 0.0
C256 C 0.31098 0.70595 0.35944 0.0
C257 C 0.34054 0.75889 0.33044 0.0
C258 C 0.335 0.73457 0.37897 0.0
C259 C 0.26235 0.64972 0.319 0.0
C260 C 0.27825 0.67706 0.30528 0.0
C261 C 0.27076 0.65083 0.35303 0.0
C262 C 0.295 0.67884 0.37318 0.0
Eu263 Eu 0.29802 0.72623 0.25557 0.0
N264 N 0.26973 0.67712 0.27281 0.0
C265 C 0.2383 0.62213 0.29818 0.0
C266 C 0.24763 0.64953 0.25176 0.0
C267 C 0.23124 0.62188 0.26427 0.0
H268 H 0.35238 0.77919 0.31897 0.0
H269 H 0.21335 0.60027 0.24761 0.0
H270 H 0.18362 0.71604 0.17739 0.0
H271 H 0.32054 0.89451 0.25836 0.0
H272 H 0.24288 0.64822 0.2251 0.0
H273 H 0.22545 0.6007 0.30781 0.0
H274 H 0.28985 0.84541 0.27836 0.0
H275 H 0.36863 0.78325 0.37915 0.0
H276 H 0.2586 0.63015 0.36405 0.0
H277 H 0.3011 0.67934 0.39943 0.0
H278 H 0.16901 0.71477 0.11764 0.0
H279 H 0.34219 0.73643 0.40533 0.0
H280 H 0.31007 0.8966 0.1987 0.0
N281 N 0.2185 0.76473 0.18759 0.0
C282 C 0.23313 0.79212 0.17585 0.0
C283 C 0.18713 0.73662 0.13369 0.0
C284 C 0.2255 0.79251 0.14197 0.0
C285 C 0.1956 0.73729 0.16737 0.0
C286 C 0.20218 0.76432 0.1209 0.0
N287 N 0.26448 0.81788 0.22949 0.0
C288 C 0.28608 0.84495 0.25176 0.0
C289 C 0.27319 0.84758 0.18512 0.0
C290 C 0.25688 0.8193 0.19724 0.0
C291 C 0.29687 0.87454 0.20714 0.0
C292 C 0.30304 0.87335 0.24073 0.0
H293 H 0.19569 0.76366 0.09472 0.0
H294 H 0.23627 0.82136 0.10398 0.0
H295 H 0.27794 0.86954 0.14172 0.0
O296 O 0.21533 0.8019 0.27887 0.0
O297 O 0.26605 0.75917 0.19944 0.0
O298 O 0.31241 0.76771 0.22904 0.0
O299 O 0.183 0.76039 0.24058 0.0
O300 O 0.26891 0.79211 0.2926 0.0
O301 O 0.31354 0.78142 0.27103 0.0
O302 O 0.31542 0.69293 0.21776 0.0
O303 O 0.26545 0.7331 0.30022 0.0
O304 O 0.21891 0.72714 0.27214 0.0
O305 O 0.34902 0.73243 0.25695 0.0
O306 O 0.26163 0.70069 0.20888 0.0
O307 O 0.21691 0.71266 0.22868 0.0
C308 C 0.29762 0.76873 0.20183 0.0
C309 C 0.16286 0.77452 0.29589 0.0
C310 C 0.15041 0.78378 0.35739 0.0
C311 C 0.11907 0.75987 0.34755 0.0
C312 C 0.13146 0.75103 0.28685 0.0
C313 C 0.10996 0.74336 0.31265 0.0
C314 C 0.17247 0.78974 0.33122 0.0
C315 C 0.29995 0.79756 0.29479 0.0
C316 C 0.18532 0.78364 0.26856 0.0
C317 C 0.24173 0.82065 0.12997 0.0
C318 C 0.2655 0.84808 0.15146 0.0
C319 C 0.23392 0.7237 0.29773 0.0
C320 C 0.36587 0.72199 0.19923 0.0
C321 C 0.37864 0.70965 0.13829 0.0
C322 C 0.39836 0.7429 0.14239 0.0
C323 C 0.38541 0.75532 0.2029 0.0
C324 C 0.36287 0.6994 0.16694 0.0
C325 C 0.40163 0.76559 0.1746 0.0
C326 C 0.2305 0.69498 0.20674 0.0
C327 C 0.34571 0.71076 0.22728 0.0
H328 H 0.1009 0.75481 0.3664 0.0
H329 H 0.12347 0.73876 0.25985 0.0
H330 H 0.08571 0.72535 0.30546 0.0
H331 H 0.19701 0.80703 0.33822 0.0
H332 H 0.41096 0.75129 0.1207 0.0
H333 H 0.38775 0.77353 0.22734 0.0
H334 H 0.34799 0.67365 0.16407 0.0
H335 H 0.41652 0.79128 0.17756 0.0
Eu336 Eu 0.23714 0.77362 0.75535 0.0
C337 C 0.35392 0.73796 0.69214 0.0
N338 N 0.32202 0.71885 0.69016 0.0
C339 C 0.32343 0.6979 0.62869 0.0
C340 C 0.37166 0.73867 0.66197 0.0
C341 C 0.30681 0.69815 0.65932 0.0
C342 C 0.35592 0.71851 0.62995 0.0
C343 C 0.40212 0.77601 0.72763 0.0
C344 C 0.36883 0.75642 0.72457 0.0
C345 C 0.41968 0.77776 0.69754 0.0
C346 C 0.4045 0.75909 0.66479 0.0
Eu347 Eu 0.29534 0.72108 0.74263 0.0
N348 N 0.35125 0.75384 0.7532 0.0
C349 C 0.41697 0.79244 0.76092 0.0
C350 C 0.36623 0.76771 0.78566 0.0
C351 C 0.39904 0.78781 0.79008 0.0
H352 H 0.28178 0.68207 0.65837 0.0
H353 H 0.4106 0.79925 0.81596 0.0
H354 H 0.26524 0.83112 0.83212 0.0
H355 H 0.11384 0.68756 0.71704 0.0
H356 H 0.35325 0.76265 0.80824 0.0
H357 H 0.44247 0.80774 0.7644 0.0
H358 H 0.17066 0.72009 0.7082 0.0
H359 H 0.3112 0.68183 0.60416 0.0
H360 H 0.4452 0.79288 0.69939 0.0
H361 H 0.41849 0.76021 0.64188 0.0
H362 H 0.24974 0.84127 0.89277 0.0
H363 H 0.36872 0.71831 0.60618 0.0
H364 H 0.09429 0.69235 0.77664 0.0
N365 N 0.22364 0.78765 0.81411 0.0
C366 C 0.19352 0.76932 0.82167 0.0
C367 C 0.23392 0.82056 0.87317 0.0
C368 C 0.18295 0.77515 0.8558 0.0
C369 C 0.24305 0.81419 0.83884 0.0
C370 C 0.20395 0.80059 0.88185 0.0
N371 N 0.183 0.74169 0.76208 0.0
C372 C 0.16224 0.7219 0.73419 0.0
C373 C 0.14027 0.72817 0.80114 0.0
C374 C 0.17238 0.74609 0.79478 0.0
C375 C 0.11918 0.7065 0.77284 0.0
C376 C 0.13013 0.70368 0.73916 0.0
H377 H 0.19675 0.80586 0.90838 0.0
H378 H 0.14299 0.76028 0.8887 0.0
H379 H 0.10561 0.71915 0.8408 0.0
O380 O 0.22167 0.78786 0.71252 0.0
O381 O 0.21841 0.72181 0.76317 0.0
O382 O 0.26378 0.72323 0.78829 0.0
O383 O 0.22592 0.818 0.76506 0.0
O384 O 0.23567 0.74071 0.7015 0.0
O385 O 0.24788 0.69736 0.70988 0.0
O386 O 0.32113 0.69365 0.75881 0.0
O387 O 0.29908 0.75379 0.70615 0.0
O388 O 0.28956 0.79603 0.74402 0.0
O389 O 0.27371 0.66717 0.73076 0.0
O390 O 0.29828 0.7561 0.7963 0.0
O391 O 0.28565 0.79866 0.7865 0.0
C392 C 0.2323 0.71213 0.78432 0.0
C393 C 0.18336 0.81279 0.7278 0.0
C394 C 0.14428 0.81782 0.69054 0.0
C395 C 0.12211 0.81388 0.71694 0.0
C396 C 0.1607 0.80847 0.75353 0.0
C397 C 0.13026 0.80901 0.74802 0.0
C398 C 0.17495 0.81711 0.6963 0.0
C399 C 0.23347 0.70984 0.69205 0.0
C400 C 0.21558 0.81216 0.73306 0.0
C401 C 0.15142 0.75631 0.86259 0.0
C402 C 0.1301 0.73293 0.83531 0.0
C403 C 0.30173 0.78469 0.71539 0.0
C404 C 0.29948 0.6341 0.74888 0.0
C405 C 0.31786 0.60358 0.78048 0.0
C406 C 0.29708 0.57392 0.75857 0.0
C407 C 0.27898 0.60422 0.72716 0.0
C408 C 0.3193 0.63364 0.77518 0.0
C409 C 0.278 0.57432 0.73189 0.0
C410 C 0.29995 0.78691 0.80533 0.0
C411 C 0.29785 0.66545 0.74645 0.0
H412 H 0.09862 0.81517 0.71397 0.0
H413 H 0.16649 0.80477 0.77792 0.0
H414 H 0.11299 0.80596 0.76805 0.0
H415 H 0.1923 0.81966 0.67627 0.0
H416 H 0.29576 0.55045 0.76198 0.0
H417 H 0.26337 0.60397 0.70685 0.0
H418 H 0.33475 0.65658 0.79251 0.0
H419 H 0.26207 0.55136 0.71512 0.0
Eu420 Eu 0.25445 0.2167 0.77986 0.0
C421 C 0.34275 0.29986 0.67977 0.0
N422 N 0.33052 0.31097 0.71019 0.0
C423 C 0.3805 0.3569 0.72743 0.0
C424 C 0.37478 0.31684 0.67225 0.0
C425 C 0.3486 0.33928 0.73376 0.0
C426 C 0.39371 0.34557 0.69662 0.0
C427 C 0.33525 0.25915 0.62436 0.0
C428 C 0.32319 0.27134 0.65602 0.0
C429 C 0.36721 0.27592 0.61691 0.0
C430 C 0.3869 0.30467 0.64077 0.0
Eu431 Eu 0.27676 0.27906 0.71848 0.0
N432 N 0.29262 0.25502 0.66435 0.0
C433 C 0.31483 0.23038 0.60117 0.0
C434 C 0.27221 0.22777 0.6413 0.0
C435 C 0.2831 0.21479 0.60956 0.0
H436 H 0.3383 0.3486 0.75724 0.0
H437 H 0.26698 0.19285 0.59154 0.0
H438 H 0.18711 0.1513 0.74746 0.0
H439 H 0.27777 0.31115 0.9033 0.0
H440 H 0.24757 0.21601 0.6473 0.0
H441 H 0.32321 0.2202 0.57659 0.0
H442 H 0.29198 0.2812 0.84811 0.0
H443 H 0.39483 0.37929 0.74623 0.0
H444 H 0.37692 0.26687 0.59275 0.0
H445 H 0.41148 0.31736 0.63459 0.0
H446 H 0.1305 0.12743 0.76289 0.0
H447 H 0.41843 0.35931 0.69179 0.0
H448 H 0.22172 0.29147 0.92197 0.0
N449 N 0.20032 0.19133 0.7926 0.0
C450 C 0.19109 0.20594 0.82338 0.0
C451 C 0.14723 0.14962 0.78001 0.0
C452 C 0.15907 0.19306 0.83334 0.0
C453 C 0.17918 0.16337 0.77113 0.0
C454 C 0.13708 0.1646 0.81118 0.0
N455 N 0.24421 0.24664 0.83412 0.0
C456 C 0.26733 0.27315 0.85521 0.0
C457 C 0.20451 0.2502 0.87651 0.0
C458 C 0.21363 0.23426 0.84476 0.0
C459 C 0.22778 0.27849 0.89742 0.0
C460 C 0.2594 0.28979 0.88688 0.0
H461 H 0.11228 0.15392 0.81795 0.0
H462 H 0.12544 0.19948 0.87293 0.0
H463 H 0.16515 0.24946 0.91065 0.0
O464 O 0.2883 0.20952 0.81239 0.0
O465 O 0.22384 0.24835 0.78049 0.0
O466 O 0.26038 0.29665 0.77213 0.0
O467 O 0.24381 0.16922 0.79135 0.0
O468 O 0.30528 0.25489 0.78354 0.0
O469 O 0.29835 0.29984 0.77351 0.0
O470 O 0.2384 0.28417 0.6905 0.0
O471 O 0.3053 0.24468 0.71151 0.0
O472 O 0.27259 0.19784 0.72757 0.0
O473 O 0.28393 0.32499 0.70485 0.0
O474 O 0.22762 0.23705 0.70942 0.0
O475 O 0.23278 0.19317 0.7251 0.0
C476 C 0.23339 0.28038 0.78476 0.0
C477 C 0.29025 0.15642 0.79495 0.0
C478 C 0.33005 0.13388 0.80556 0.0
C479 C 0.32812 0.11858 0.76984 0.0
C480 C 0.28825 0.14028 0.75949 0.0
C481 C 0.30713 0.12156 0.74706 0.0
C482 C 0.31094 0.15282 0.81809 0.0
C483 C 0.31481 0.28675 0.78753 0.0
C484 C 0.27185 0.17805 0.80734 0.0
C485 C 0.14996 0.20899 0.8649 0.0
C486 C 0.17258 0.23747 0.88639 0.0
C487 C 0.29716 0.21336 0.71094 0.0
C488 C 0.23686 0.33748 0.706 0.0
C489 C 0.19819 0.36208 0.69746 0.0
C490 C 0.20136 0.37732 0.73329 0.0
C491 C 0.24015 0.35355 0.74157 0.0
C492 C 0.21611 0.34214 0.68384 0.0
C493 C 0.22243 0.37327 0.75509 0.0
C494 C 0.21912 0.20528 0.70617 0.0
C495 C 0.25435 0.31524 0.69235 0.0
H496 H 0.3424 0.1037 0.75965 0.0
H497 H 0.27205 0.14218 0.74141 0.0
H498 H 0.30543 0.1092 0.71969 0.0
H499 H 0.31255 0.16505 0.84555 0.0
H500 H 0.188 0.39294 0.74431 0.0
H501 H 0.25651 0.35086 0.75884 0.0
H502 H 0.21359 0.32999 0.65629 0.0
H503 H 0.22512 0.38559 0.78254 0.0
Eu504 Eu 0.73695 0.25615 0.74783 0.0
C505 C 0.79724 0.1764 0.80489 0.0
N506 N 0.81371 0.20626 0.79858 0.0
C507 C 0.84254 0.22557 0.8541 0.0
C508 C 0.80226 0.17035 0.83683 0.0
C509 C 0.83651 0.23056 0.8222 0.0
C510 C 0.82522 0.1954 0.86154 0.0
C511 C 0.75624 0.12146 0.78618 0.0
C512 C 0.77426 0.15233 0.77984 0.0
C513 C 0.76103 0.11545 0.81809 0.0
C514 C 0.78398 0.1398 0.84332 0.0
Eu515 Eu 0.80123 0.21303 0.74485 0.0
N516 N 0.76933 0.15917 0.74953 0.0
C517 C 0.73402 0.09742 0.76016 0.0
C518 C 0.74947 0.13495 0.72321 0.0
C519 C 0.73103 0.10403 0.72835 0.0
H520 H 0.85011 0.25372 0.81632 0.0
H521 H 0.71488 0.08514 0.70755 0.0
H522 H 0.6765 0.20722 0.68855 0.0
H523 H 0.81791 0.38443 0.76196 0.0
H524 H 0.74838 0.13876 0.69779 0.0
H525 H 0.7197 0.07343 0.76404 0.0
H526 H 0.79371 0.33285 0.77973 0.0
H527 H 0.86049 0.24499 0.87292 0.0
H528 H 0.74718 0.09198 0.82346 0.0
H529 H 0.78735 0.13478 0.86781 0.0
H530 H 0.6534 0.20839 0.63369 0.0
H531 H 0.82977 0.1917 0.8864 0.0
H532 H 0.79802 0.38956 0.70749 0.0
N533 N 0.71146 0.25575 0.6971 0.0
C534 C 0.72343 0.2839 0.68624 0.0
C535 C 0.67313 0.22974 0.64817 0.0
C536 C 0.71076 0.28581 0.65533 0.0
C537 C 0.68643 0.229 0.67898 0.0
C538 C 0.68541 0.25822 0.63622 0.0
N539 N 0.76146 0.30785 0.73486 0.0
C540 C 0.78522 0.33418 0.7555 0.0
C541 C 0.76193 0.34007 0.69479 0.0
C542 C 0.7489 0.31074 0.70574 0.0
C543 C 0.78734 0.36663 0.71506 0.0
C544 C 0.79876 0.36377 0.74573 0.0
H545 H 0.67509 0.2587 0.61228 0.0
H546 H 0.71454 0.3168 0.62057 0.0
H547 H 0.75923 0.36427 0.65511 0.0
O548 O 0.72252 0.2774 0.79803 0.0
O549 O 0.77035 0.25974 0.70314 0.0
O550 O 0.81728 0.25809 0.72331 0.0
O551 O 0.68879 0.25858 0.75309 0.0
O552 O 0.77618 0.27889 0.79181 0.0
O553 O 0.82071 0.26743 0.76959 0.0
O554 O 0.82016 0.18041 0.70842 0.0
O555 O 0.7698 0.21727 0.7914 0.0
O556 O 0.7228 0.20849 0.76338 0.0
O557 O 0.85298 0.22178 0.74635 0.0
O558 O 0.7676 0.19702 0.69648 0.0
O559 O 0.72208 0.20207 0.7222 0.0
C560 C 0.80172 0.26765 0.70353 0.0
C561 C 0.68933 0.30674 0.79514 0.0
C562 C 0.69288 0.35629 0.83999 0.0
C563 C 0.67996 0.36665 0.8154 0.0
C564 C 0.6767 0.31757 0.77093 0.0
C565 C 0.67211 0.34745 0.78113 0.0
C566 C 0.69749 0.32628 0.82941 0.0
C567 C 0.80729 0.28419 0.79297 0.0
C568 C 0.69528 0.27581 0.78536 0.0
C569 C 0.7239 0.31494 0.64431 0.0
C570 C 0.74937 0.34198 0.66398 0.0
C571 C 0.73815 0.20549 0.78886 0.0
C572 C 0.87113 0.20908 0.68952 0.0
C573 C 0.88017 0.2009 0.62721 0.0
C574 C 0.91205 0.22399 0.63565 0.0
C575 C 0.903 0.23176 0.6972 0.0
C576 C 0.85955 0.1951 0.65456 0.0
C577 C 0.92307 0.23966 0.67034 0.0
C578 C 0.73633 0.19061 0.6953 0.0
C579 C 0.85023 0.19911 0.71769 0.0
H580 H 0.67523 0.38923 0.82272 0.0
H581 H 0.6705 0.30313 0.7442 0.0
H582 H 0.66219 0.35565 0.76248 0.0
H583 H 0.70785 0.31812 0.84777 0.0
H584 H 0.92917 0.22897 0.61579 0.0
H585 H 0.91246 0.24314 0.72392 0.0
H586 H 0.83458 0.17865 0.64866 0.0
H587 H 0.94772 0.25703 0.67644 0.0
Eu588 Eu 0.73436 0.74402 0.71537 0.0
C589 C 0.8089 0.83605 0.84828 0.0
N590 N 0.81983 0.82285 0.8177 0.0
C591 C 0.85424 0.87717 0.81423 0.0
C592 C 0.81917 0.87052 0.86186 0.0
C593 C 0.84383 0.84295 0.80202 0.0
C594 C 0.84141 0.89104 0.84387 0.0
C595 C 0.77805 0.82828 0.89954 0.0
C596 C 0.78858 0.8152 0.86722 0.0
C597 C 0.78738 0.8625 0.91227 0.0
C598 C 0.80781 0.88354 0.89347 0.0
Eu599 Eu 0.79836 0.76421 0.79981 0.0
N600 N 0.77891 0.78204 0.85397 0.0
C601 C 0.75855 0.80652 0.91827 0.0
C602 C 0.76105 0.76074 0.87263 0.0
C603 C 0.75031 0.77263 0.90491 0.0
H604 H 0.85603 0.83319 0.78066 0.0
H605 H 0.73568 0.75567 0.91943 0.0
H606 H 0.68513 0.66774 0.7215 0.0
H607 H 0.79674 0.78357 0.60449 0.0
H608 H 0.75492 0.73463 0.86235 0.0
H609 H 0.75005 0.81566 0.94321 0.0
H610 H 0.77724 0.79082 0.66405 0.0
H611 H 0.87271 0.89286 0.80116 0.0
H612 H 0.77928 0.87297 0.93689 0.0
H613 H 0.81529 0.90993 0.90402 0.0
H614 H 0.66591 0.61103 0.68485 0.0
H615 H 0.84986 0.91759 0.85347 0.0
H616 H 0.78076 0.72768 0.56476 0.0
N617 N 0.71447 0.6882 0.68322 0.0
C618 C 0.72312 0.68243 0.64961 0.0
C619 C 0.68227 0.63084 0.67476 0.0
C620 C 0.7123 0.65023 0.6276 0.0
C621 C 0.69364 0.66314 0.69569 0.0
C622 C 0.69181 0.62431 0.64067 0.0
N623 N 0.75338 0.7397 0.65896 0.0
C624 C 0.77153 0.76638 0.64737 0.0
C625 C 0.75279 0.70357 0.60268 0.0
C626 C 0.74313 0.70888 0.6372 0.0
C627 C 0.77275 0.73075 0.59107 0.0
C628 C 0.78195 0.76233 0.61346 0.0
H629 H 0.68291 0.59923 0.62454 0.0
H630 H 0.71405 0.6203 0.57606 0.0
H631 H 0.74954 0.66692 0.55431 0.0
O632 O 0.71778 0.7732 0.69034 0.0
O633 O 0.76977 0.71671 0.70321 0.0
O634 O 0.80637 0.73016 0.75045 0.0
O635 O 0.68265 0.73507 0.71048 0.0
O636 O 0.77853 0.79007 0.73392 0.0
O637 O 0.82107 0.78077 0.75241 0.0
O638 O 0.80799 0.73161 0.82676 0.0
O639 O 0.7513 0.77399 0.80996 0.0
O640 O 0.74926 0.78954 0.76079 0.0
O641 O 0.8455 0.77791 0.82559 0.0
O642 O 0.75819 0.71481 0.77834 0.0
O643 O 0.7133 0.72091 0.75959 0.0
C644 C 0.79435 0.71414 0.71829 0.0
C645 C 0.66661 0.74861 0.66171 0.0
C646 C 0.63809 0.76623 0.62438 0.0
C647 C 0.63373 0.73716 0.59834 0.0
C648 C 0.66176 0.71956 0.63562 0.0
C649 C 0.64528 0.71387 0.60411 0.0
C650 C 0.65442 0.77167 0.65614 0.0
C651 C 0.80804 0.7906 0.73054 0.0
C652 C 0.68728 0.75726 0.69322 0.0
C653 C 0.72208 0.6449 0.59328 0.0
C654 C 0.74228 0.67146 0.58088 0.0
C655 C 0.73969 0.78857 0.79217 0.0
C656 C 0.86096 0.73234 0.81911 0.0
C657 C 0.88581 0.69308 0.82258 0.0
C658 C 0.9011 0.6977 0.7916 0.0
C659 C 0.87651 0.73646 0.78819 0.0
C660 C 0.86574 0.71068 0.8363 0.0
C661 C 0.89646 0.71924 0.77463 0.0
C662 C 0.72711 0.70903 0.77873 0.0
C663 C 0.83868 0.74949 0.83233 0.0
H664 H 0.62117 0.73236 0.57367 0.0
H665 H 0.67112 0.70161 0.63934 0.0
H666 H 0.64177 0.69151 0.58395 0.0
H667 H 0.65867 0.79442 0.67607 0.0
H668 H 0.91706 0.68496 0.78067 0.0
H669 H 0.87292 0.75268 0.77421 0.0
H670 H 0.85343 0.70713 0.85988 0.0
H671 H 0.90826 0.7225 0.75076 0.0
Cd672 Cd 0.97581 0.96292 0.52966 0.0
Cd673 Cd 0.05213 0.02636 0.46396 0.0
C674 C 0.03582 0.95381 0.55898 0.0
N675 N 0.01447 0.94034 0.53093 0.0
C676 C 0.03296 0.89576 0.51204 0.0
C677 C 0.05511 0.90889 0.5411 0.0
C678 C 0.05642 0.9385 0.56457 0.0
C679 C 1.01281 0.91205 0.50738 0.0
H680 H 0.03589 0.9757 0.57794 0.0
H681 H 0.99494 0.90145 0.48579 0.0
C682 C 1.00016 0.95452 0.4405 0.0
C683 C 0.98738 0.02533 0.43023 0.0
C684 C 0.96539 0.03771 0.42119 0.0
C685 C 0.96708 0.06939 0.43905 0.0
C686 C 0.99111 0.08785 0.46599 0.0
C687 C 1.01243 0.07428 0.47452 0.0
N688 N 1.01025 0.04359 0.45653 0.0
H689 H 0.98682 0.00165 0.41517 0.0
H690 H 0.03154 0.08869 0.49455 0.0
C691 C 0.09146 0.9804 0.44639 0.0
N692 N 0.08463 -0.00013 0.47527 0.0
C693 C 0.10891 0.97954 0.51213 0.0
C694 C 0.11376 0.95739 0.48271 0.0
C695 C 0.10592 0.9587 0.44953 0.0
C696 C 0.09381 0.00067 0.50779 0.0
H697 H 0.08418 0.98064 0.42092 0.0
H698 H 0.08826 0.0166 0.53032 0.0
C699 C 0.03083 0.03367 0.55384 0.0
C700 C 0.93371 0.92267 0.5685 0.0
N701 N 0.9434 0.98792 0.51503 0.0
C702 C 0.93977 0.01074 0.5428 0.0
C703 C 0.92486 0.03165 0.53837 0.0
C704 C 0.91316 0.02871 0.50511 0.0
C705 C 0.91492 0.00334 0.4772 0.0
C706 C 0.93078 0.98322 0.4827 0.0
C707 C 0.09484 0.07261 0.43179 0.0
O708 O 0.99865 0.96511 0.47301 0.0
O709 O 0.02193 0.97287 0.42524 0.0
O710 O 0.03117 0.02441 0.52104 0.0
O711 O 1.00925 0.01488 0.56881 0.0
O712 O 0.93291 0.91169 0.53552 0.0
O713 O 0.95296 0.95191 0.5818 0.0
O714 O 0.09665 0.07866 0.46488 0.0
O715 O 0.07476 0.045 0.41501 0.0
H716 H 0.94966 0.01352 0.56824 0.0
H717 H 0.93401 0.96487 0.46105 0.0
H718 H 0.03076 0.87286 0.49342 0.0
H719 H 0.07217 0.94911 0.58798 0.0
H720 H 0.94791 0.02294 0.39962 0.0
H721 H 0.99346 0.11251 0.48026 0.0
H722 H 0.11499 0.97917 0.53803 0.0
H723 H 0.10967 0.94204 0.42631 0.0
H724 H 0.92347 0.05076 0.56054 0.0
H725 H 0.90575 0.00022 0.4513 0.0
Cd726 Cd 0.47289 0.9868 0.05052 0.0
Cd727 Cd 0.54866 0.00642 0.95444 0.0
C728 C 0.52506 0.9791 0.10118 0.0
N729 N 0.5103 0.96757 0.0687 0.0
C730 C 0.53627 0.9285 0.05298 0.0
C731 C 0.55183 0.9397 0.08629 0.0
C732 C 0.54622 0.96559 0.11049 0.0
C733 C 0.51555 0.94279 0.04475 0.0
H734 H 0.52021 -0.00143 0.11993 0.0
H735 H 0.50331 0.93384 0.01923 0.0
C736 C 0.47893 0.95226 0.95934 0.0
C737 C 0.49145 0.01051 0.9091 0.0
C738 C 0.47012 0.02365 0.89971 0.0
C739 C 0.46912 0.05336 0.92073 0.0
C740 C 0.48929 0.06882 0.95126 0.0
C741 C 0.50989 0.05454 0.95995 0.0
N742 N 0.51071 0.02601 0.93884 0.0
H743 H 0.49301 0.98824 0.89233 0.0
H744 H 0.52571 0.06649 0.98327 0.0
C745 C 0.57871 0.96118 0.89946 0.0
N746 N 0.57234 0.96615 0.93374 0.0
C747 C 0.59823 0.92959 0.94042 0.0
C748 C 0.60607 0.9249 0.90524 0.0
C749 C 0.59555 0.94074 0.88471 0.0
C750 C 0.58144 0.95058 0.95426 0.0
H751 H 0.57125 0.97373 0.88359 0.0
H752 H 0.57638 0.95502 0.98154 0.0
C753 C 0.5448 0.03958 0.0475 0.0
C754 C 0.42525 0.93768 0.07643 0.0
N755 N 0.44534 0.02489 0.06287 0.0
C756 C 0.46089 0.05825 0.07242 0.0
C757 C 0.44355 0.07898 0.08484 0.0
C758 C 0.40986 0.06538 0.08784 0.0
C759 C 0.39445 0.03094 0.07643 0.0
C760 C 0.41262 0.0112 0.06405 0.0
C761 C 0.59579 0.05466 0.92681 0.0
O762 O 0.48544 0.97243 0.98917 0.0
O763 O 0.50006 0.95673 0.9367 0.0
O764 O 0.53821 0.02137 0.01665 0.0
O765 O 0.52343 0.0341 0.06981 0.0
O766 O 0.4281 0.93362 0.04374 0.0
O767 O 0.44388 0.96468 0.09617 0.0
O768 O 0.60124 0.05222 0.957 0.0
O769 O 0.56932 0.03472 0.91048 0.0
H770 H 0.48689 0.06888 0.07167 0.0
H771 H 0.40063 0.98471 0.05648 0.0
H772 H 0.54018 0.90894 0.03334 0.0
H773 H 0.5575 0.9748 0.13655 0.0
H774 H 0.4553 0.01126 0.87569 0.0
H775 H 0.48916 0.09171 0.96817 0.0
H776 H 0.60592 0.91806 0.95734 0.0
H777 H 0.60043 0.93752 0.85739 0.0
H778 H 0.45665 0.10531 0.09346 0.0
H779 H 0.36855 0.01919 0.07759 0.0
Cd780 Cd 0.97296 0.48769 0.04435 0.0
Cd781 Cd 0.0501 0.50407 0.94785 0.0
C782 C 1.00885 0.46304 0.09529 0.0
N783 N 1.00439 0.46159 0.06122 0.0
C784 C 0.03447 0.42645 0.04394 0.0
C785 C 0.03895 0.4269 0.07883 0.0
C786 C 0.02613 0.4458 0.10471 0.0
C787 C 0.01693 0.44392 0.03569 0.0
H788 H 0.99881 0.47743 0.11515 0.0
H789 H 1.01292 0.44297 0.00879 0.0
C790 C 0.9775 0.45659 0.95395 0.0
C791 C 0.9995 0.51755 0.90403 0.0
C792 C 0.97903 0.53222 0.89605 0.0
C793 C 0.972 0.55588 0.92218 0.0
C794 C 0.98506 0.56334 0.9562 0.0
C795 C 1.00533 0.54792 0.96306 0.0
N796 N 1.01238 0.52581 0.93699 0.0
H797 H 1.00576 0.5001 0.88375 0.0
H798 H 0.01603 0.55413 0.98902 0.0
C799 C 0.06758 0.44523 0.89689 0.0
N800 N 0.07187 0.46175 0.93113 0.0
C801 C 0.10629 0.4341 0.94108 0.0
C802 C 0.103 0.41725 0.90552 0.0
C803 C 0.08286 0.4229 0.88355 0.0
C804 C 0.09055 0.45635 0.95334 0.0
H805 H 0.05303 0.45022 0.87957 0.0
H806 H 0.09392 0.46993 0.98043 0.0
C807 C 0.0528 0.52916 0.04527 0.0
C808 C 0.92105 0.44459 0.07327 0.0
N809 N 0.95609 0.5335 0.06052 0.0
C810 C 0.96449 0.55293 0.09355 0.0
C811 C 0.9503 0.57612 0.10755 0.0
C812 C 0.92693 0.57945 0.08759 0.0
C813 C 0.91965 0.5598 0.05304 0.0
C814 C 0.93445 0.53685 0.04004 0.0
C815 C 0.09601 0.54868 0.91435 0.0
O816 O 0.98569 0.47693 0.98354 0.0
O817 O 0.99799 0.45916 0.9306 0.0
O818 O 0.04885 0.51936 0.01224 0.0
O819 O 0.02846 0.52325 0.06412 0.0
O820 O 0.92418 0.4374 0.04049 0.0
O821 O 0.94092 0.47186 0.09107 0.0
O822 O 0.09738 0.55416 0.94737 0.0
O823 O 0.07417 0.52229 0.89759 0.0
H824 H 0.98108 0.54929 0.10969 0.0
H825 H 0.92762 0.52076 0.01409 0.0
H826 H 0.04355 0.41193 0.02309 0.0
H827 H 0.02936 0.4472 0.13196 0.0
H828 H 0.96989 0.52609 0.86939 0.0
H829 H 0.98006 0.58125 0.97714 0.0
H830 H 0.12111 0.43042 0.95928 0.0
H831 H 0.07982 0.41116 0.85593 0.0
H832 H 0.9565 0.59012 0.13441 0.0
H833 H 0.90217 0.56161 0.03636 0.0
Cd834 Cd 0.47876 0.46346 0.03364 0.0
Cd835 Cd 0.55012 0.52424 0.96428 0.0
C836 C 0.54677 0.47382 0.06974 0.0
N837 N 0.52491 0.45301 0.0433 0.0
C838 C 0.54986 0.41332 0.03646 0.0
C839 C 0.57207 0.43391 0.06445 0.0
C840 C 0.57084 0.46487 0.08053 0.0
C841 C 0.52637 0.42346 0.0262 0.0
H842 H 0.54464 0.49667 0.08382 0.0
H843 H 0.50828 0.4071 0.00574 0.0
C844 C 0.50002 0.45172 0.94431 0.0
C845 C 0.49018 0.52194 0.92193 0.0
C846 C 0.46726 0.53172 0.91026 0.0
C847 C 0.46303 0.56045 0.92939 0.0
C848 C 0.48214 0.57864 0.96035 0.0
C849 C 0.50457 0.56756 0.97147 0.0
N850 N 0.50809 0.53962 0.95215 0.0
H851 H 0.49433 0.50075 0.90608 0.0
H852 H 0.51983 0.58171 0.99488 0.0
C853 C 0.58376 0.47389 0.9638 0.0
N854 N 0.58301 0.50229 0.98501 0.0
C855 C 0.62245 0.5035 0.02495 0.0
C856 C 0.62325 0.47398 0.0034 0.0
C857 C 0.60332 0.45905 0.97276 0.0
C858 C 0.60158 0.51718 0.01534 0.0
H859 H 0.57007 0.46316 0.93918 0.0
H860 H 0.60089 0.54004 0.03151 0.0
C861 C 0.52566 0.53811 0.05419 0.0
C862 C 0.44161 0.41961 0.07181 0.0
N863 N 0.43936 0.48089 0.01907 0.0
C864 C 0.42158 0.4884 0.04611 0.0
C865 C 0.40092 0.50451 0.04326 0.0
C866 C 0.39848 0.51305 0.01218 0.0
C867 C 0.41537 0.50274 0.98374 0.0
C868 C 0.43606 0.48683 0.98788 0.0
C869 C 0.59453 0.56743 0.92962 0.0
O870 O 0.49993 0.46379 0.9767 0.0
O871 O 0.52043 0.46931 0.92731 0.0
O872 O 0.52844 0.52752 0.02193 0.0
O873 O 0.50396 0.51925 0.06902 0.0
O874 O 0.44105 0.40929 0.03878 0.0
O875 O 0.45869 0.44956 0.08545 0.0
O876 O 0.5931 0.57674 0.96248 0.0
O877 O 0.57678 0.53813 0.91434 0.0
H878 H 0.42497 0.48366 0.07069 0.0
H879 H 0.45051 0.48069 0.96675 0.0
H880 H 0.55016 0.38931 0.02325 0.0
H881 H 0.58724 0.48131 0.10247 0.0
H882 H 0.45369 0.51742 0.8858 0.0
H883 H 0.47966 0.60102 0.97581 0.0
H884 H 0.63803 0.51595 0.04843 0.0
H885 H 0.60419 0.43694 0.95476 0.0
H886 H 0.38902 0.5124 0.06617 0.0
H887 H 0.41389 0.50842 0.95919 0.0
Cd888 Cd 0.97626 0.48819 0.55073 0.0
Cd889 Cd 0.0505 0.51106 0.45216 0.0
C890 C 0.03507 0.4861 0.59585 0.0
N891 N 0.01566 0.47021 0.56624 0.0
C892 C 0.03775 0.42789 0.55404 0.0
C893 C 0.058 0.4437 0.58448 0.0
C894 C 0.05678 0.47339 0.60529 0.0
C895 C 0.01678 0.44174 0.54529 0.0
H896 H 0.03324 0.50826 0.61257 0.0
H897 H 1.0008 0.4294 0.52212 0.0
C898 C 0.98065 0.45482 0.45759 0.0
C899 C 0.99396 0.51137 0.40221 0.0
C900 C 0.97132 0.52216 0.39114 0.0
C901 C 0.96585 0.54952 0.41242 0.0
C902 C 0.98303 0.56493 0.44488 0.0
C903 C 1.00516 0.55307 0.45511 0.0
N904 N 1.01035 0.52687 0.43373 0.0
H905 H 0.99884 0.49091 0.3854 0.0
H906 H 0.01866 0.56511 0.47994 0.0
C907 C 0.08478 0.46884 0.39755 0.0
N908 N 0.07602 0.47197 0.43107 0.0
C909 C 0.09995 0.43369 0.43747 0.0
C910 C 0.10996 0.43055 0.40306 0.0
C911 C 0.10172 0.44834 0.38306 0.0
C912 C 0.08308 0.45469 0.45105 0.0
H913 H 0.07891 0.48264 0.38202 0.0
H914 H 0.07609 0.45757 0.47771 0.0
C915 C 0.04577 0.54416 0.54491 0.0
C916 C 0.93199 0.43857 0.57917 0.0
N917 N 0.95086 0.52733 0.57004 0.0
C918 C 0.94873 0.53678 0.60506 0.0
C919 C 0.93166 0.55716 0.61937 0.0
C920 C 0.91635 0.56815 0.59759 0.0
C921 C 0.91975 0.55876 0.56146 0.0
C922 C 0.93704 0.53813 0.54818 0.0
C923 C 0.09603 0.56299 0.42795 0.0
O924 O 0.98652 0.4729 0.48854 0.0
O925 O 1.00207 0.46128 0.43554 0.0
O926 O 0.03929 0.52546 0.51423 0.0
O927 O 0.02474 0.53822 0.56746 0.0
O928 O 0.92603 0.43982 0.54861 0.0
O929 O 0.95728 0.46071 0.59595 0.0
O930 O 0.10103 0.55991 0.45794 0.0
O931 O 0.07098 0.54173 0.40995 0.0
H932 H 0.95983 0.52789 0.62197 0.0
H933 H 0.93876 0.53014 0.52037 0.0
H934 H 0.03804 0.405 0.53728 0.0
H935 H 0.07167 0.48605 0.62924 0.0
H936 H 0.95895 0.50984 0.36572 0.0
H937 H 0.97943 0.58597 0.46217 0.0
H938 H 0.10583 0.42075 0.45409 0.0
H939 H 0.10822 0.44643 0.35629 0.0
H940 H 0.93039 0.56411 0.64735 0.0
H941 H 0.9083 0.56636 0.54353 0.0
Cd942 Cd 0.48134 0.99024 0.54905 0.0
Cd943 Cd 0.55642 0.00647 0.44933 0.0
C944 C 0.53877 0.97716 0.58649 0.0
N945 N 0.51484 0.96397 0.56076 0.0
C946 C 0.52178 0.91232 0.548 0.0
C947 C 0.5463 0.9251 0.57453 0.0
C948 C 0.55526 0.95812 0.5935 0.0
C949 C 0.50645 0.93235 0.54138 0.0
H950 H 0.5445 0.00207 0.60223 0.0
H951 H 0.48707 0.9224 0.52141 0.0
C952 C 0.48123 0.95767 0.45427 0.0
C953 C 0.50988 0.01746 0.39609 0.0
C954 C 0.4897 0.03138 0.38563 0.0
C955 C 0.4809 0.05479 0.41025 0.0
C956 C 0.49202 0.06294 0.44511 0.0
C957 C 0.5119 0.04828 0.45444 0.0
N958 N 0.52058 0.02623 0.42999 0.0
H959 H 0.51738 2e-05 0.37716 0.0
H960 H 0.52089 0.05489 0.48118 0.0
C961 C 0.57015 0.94613 0.39839 0.0
N962 N 0.57649 0.96304 0.43248 0.0
C963 C 0.61093 0.9345 0.43969 0.0
C964 C 0.60586 0.9177 0.40411 0.0
C965 C 0.58458 0.92339 0.38368 0.0
C966 C 0.59613 0.95737 0.45335 0.0
H967 H 0.55471 0.95124 0.38222 0.0
H968 H 0.60127 0.97142 0.48026 0.0
C969 C 0.55355 0.03927 0.54074 0.0
C970 C 0.43446 0.94604 0.58166 0.0
N971 N 0.45933 0.03242 0.56665 0.0
C972 C 0.45873 0.04385 0.60167 0.0
C973 C 0.44276 0.06537 0.61557 0.0
C974 C 0.42722 0.07569 0.59337 0.0
C975 C 0.42935 0.06461 0.55721 0.0
C976 C 0.44538 0.04268 0.54433 0.0
C977 C 0.60679 0.05339 0.42267 0.0
O978 O 0.48776 0.97373 0.48596 0.0
O979 O 0.50313 0.96337 0.43251 0.0
O980 O 0.54517 0.01932 0.51093 0.0
O981 O 0.53336 0.03604 0.56444 0.0
O982 O 0.43104 0.94284 0.5491 0.0
O983 O 0.45872 0.97008 0.59822 0.0
O984 O 0.60134 0.05987 0.4549 0.0
O985 O 0.58958 0.02527 0.40386 0.0
H986 H 0.46996 0.03547 0.61899 0.0
H987 H 0.44583 0.03312 0.51655 0.0
H988 H 0.51429 0.88695 0.53282 0.0
H989 H 0.57386 0.96864 0.61442 0.0
H990 H 0.48192 0.02469 0.35842 0.0
H991 H 0.48557 0.08064 0.46494 0.0
H992 H 0.62729 0.93113 0.45642 0.0
H993 H 0.57953 0.91079 0.35631 0.0
H994 H 0.44227 0.07357 0.64356 0.0
H995 H 0.41765 0.07176 0.53906 0.0
H996 H 0.16556 0.20808 0.30003 0.0
H997 H 0.24014 0.17015 0.30909 0.0
H998 H 0.13448 0.17908 0.34186 0.0
H999 H 0.20933 0.14191 0.35139 0.0
H1000 H 0.15509 0.12071 0.44995 0.0
H1001 H 0.18726 0.15751 0.41459 0.0
H1002 H 0.10835 0.11552 0.33649 0.0
H1003 H 0.07675 0.07868 0.37107 0.0
C1004 C 0.17529 0.19359 0.31093 0.0
C1005 C 0.20521 0.1913 0.3013 0.0
C1006 C 0.15767 0.17729 0.33499 0.0
C1007 C 0.16985 0.15874 0.34999 0.0
C1008 C 0.1998 0.1566 0.34058 0.0
C1009 C 0.2172 0.17247 0.31615 0.0
C1010 C 0.1447 0.1197 0.42538 0.0
C1011 C 0.11375 0.09674 0.41291 0.0
C1012 C 0.16299 0.14057 0.40524 0.0
C1013 C 0.1501 0.13916 0.37298 0.0
C1014 C 0.11865 0.11716 0.36139 0.0
C1015 C 0.10075 0.09595 0.38103 0.0
H1016 H 0.88123 0.14321 0.31157 0.0
H1017 H 0.80406 0.11408 0.3803 0.0
H1018 H 0.9172 0.13331 0.34777 0.0
H1019 H 0.84009 0.10271 0.41563 0.0
H1020 H 0.90259 0.03742 0.42033 0.0
H1021 H 0.86629 0.05811 0.39839 0.0
H1022 H 0.94356 0.1528 0.41109 0.0
H1023 H 0.98015 0.13224 0.43367 0.0
C1024 C 0.87201 0.1353 0.33471 0.0
C1025 C 0.83959 0.12939 0.34287 0.0
C1026 C 0.89271 0.12961 0.35543 0.0
C1027 C 0.88139 0.11738 0.38447 0.0
C1028 C 0.84929 0.11207 0.39323 0.0
C1029 C 0.82864 0.11827 0.37279 0.0
C1030 C 0.91186 0.06277 0.41891 0.0
C1031 C 0.94437 0.08309 0.42863 0.0
C1032 C 0.89092 0.07469 0.40666 0.0
C1033 C 0.90219 0.10698 0.40304 0.0
C1034 C 0.93436 0.12775 0.41368 0.0
C1035 C 0.95521 0.116 0.42667 0.0
H1036 H 0.82731 0.84889 0.31948 0.0
H1037 H 0.86532 0.77143 0.30483 0.0
H1038 H 0.87365 0.88605 0.35963 0.0
H1039 H 0.91174 0.80893 0.34489 0.0
H1040 H 0.94489 0.91422 0.46285 0.0
H1041 H 0.89959 0.86996 0.4259 0.0
H1042 H 0.95462 0.8816 0.33517 0.0
H1043 H 0.99956 0.92616 0.37149 0.0
C1044 C 0.84561 0.8399 0.3247 0.0
C1045 C 0.84289 0.8074 0.30902 0.0
C1046 C 0.87179 0.86098 0.34783 0.0
C1047 C 0.89565 0.8499 0.35531 0.0
C1048 C 0.89325 0.81762 0.33952 0.0
C1049 C 0.86689 0.79639 0.31665 0.0
C1050 C 0.94751 0.90696 0.43512 0.0
C1051 C 0.9755 0.92397 0.41997 0.0
C1052 C 0.92168 0.88177 0.41413 0.0
C1053 C 0.92398 0.87289 0.378 0.0
C1054 C 0.95263 0.88824 0.36309 0.0
C1055 C 0.97821 0.91367 0.38391 0.0
H1056 H 0.12635 0.77024 0.41963 0.0
H1057 H 0.19283 0.84838 0.37827 0.0
H1058 H 0.12401 0.81143 0.47183 0.0
H1059 H 0.19232 0.888 0.43086 0.0
H1060 H 0.17125 0.96062 0.50878 0.0
H1061 H 0.19032 0.91448 0.49801 0.0
H1062 H 0.09561 0.84746 0.45305 0.0
H1063 H 0.07795 0.89322 0.46109 0.0
C1064 C 0.14134 0.79578 0.42189 0.0
C1065 C 0.15833 0.80581 0.39351 0.0
C1066 C 0.14058 0.81923 0.45226 0.0
C1067 C 0.15743 0.8529 0.45497 0.0
C1068 C 0.17903 0.86221 0.42954 0.0
C1069 C 0.17911 0.83906 0.39889 0.0
C1070 C 0.15442 0.93577 0.49779 0.0
C1071 C 0.12321 0.93018 0.48566 0.0
C1072 C 0.16515 0.90944 0.49201 0.0
C1073 C 0.14439 0.8774 0.47488 0.0
C1074 C 0.11203 0.87167 0.46686 0.0
C1075 C 0.10187 0.89791 0.47128 0.0
H1076 H 0.18387 0.85764 0.65165 0.0
H1077 H 0.08529 0.79166 0.65475 0.0
H1078 H 0.16814 0.87272 0.60273 0.0
H1079 H 0.06897 0.80913 0.60843 0.0
H1080 H 0.03866 0.84192 0.52864 0.0
H1081 H 0.06606 0.81369 0.55255 0.0
H1082 H 0.1424 0.90713 0.59772 0.0
H1083 H 0.1167 0.93469 0.57094 0.0
C1084 C 0.1589 0.84599 0.64172 0.0
C1085 C 0.1357 0.82398 0.65785 0.0
C1086 C 0.14976 0.85504 0.61384 0.0
C1087 C 0.1171 0.84286 0.60191 0.0
C1088 C 0.0944 0.81907 0.6165 0.0
C1089 C 0.10365 0.80952 0.6438 0.0
C1090 C 0.06188 0.85633 0.54258 0.0
C1091 C 0.07479 0.89084 0.54905 0.0
C1092 C 0.07743 0.84013 0.55679 0.0
C1093 C 0.10581 0.85813 0.57844 0.0
C1094 C 0.12047 0.8922 0.58158 0.0
C1095 C 0.1053 0.90825 0.56676 0.0
H1096 H 0.17929 0.21939 0.66718 0.0
H1097 H 0.19949 0.13837 0.68661 0.0
H1098 H 0.13342 0.17997 0.6275 0.0
H1099 H 0.15326 0.09953 0.64808 0.0
H1100 H 0.04306 0.04943 0.62354 0.0
H1101 H 0.08957 0.09308 0.65783 0.0
H1102 H 0.12466 0.12704 0.56644 0.0
H1103 H 0.07795 0.08264 0.53144 0.0
C1104 C 0.17404 0.19331 0.663 0.0
C1105 C 0.19254 0.18198 0.68074 0.0
C1106 C 0.14795 0.17089 0.64024 0.0
C1107 C 0.13989 0.13698 0.63527 0.0
C1108 C 0.15895 0.12568 0.65198 0.0
C1109 C 0.18523 0.14795 0.67421 0.0
C1110 C 0.06039 0.06637 0.61068 0.0
C1111 C 0.05704 0.06253 0.57473 0.0
C1112 C 0.08701 0.09122 0.63033 0.0
C1113 C 0.11054 0.11301 0.61455 0.0
C1114 C 0.10663 0.11036 0.57898 0.0
C1115 C 0.08008 0.08505 0.55907 0.0
H1116 H 0.83591 0.13702 0.60747 0.0
H1117 H 0.90128 0.21408 0.56389 0.0
H1118 H 0.83368 0.09707 0.55452 0.0
H1119 H 0.90058 0.17243 0.5108 0.0
H1120 H 0.94891 0.09304 0.51843 0.0
H1121 H 0.93025 0.13777 0.52447 0.0
H1122 H 0.83345 0.06789 0.49081 0.0
H1123 H 0.85325 0.0225 0.48248 0.0
C1124 C 0.84881 0.1461 0.58632 0.0
C1125 C 0.87022 0.17907 0.59115 0.0
C1126 C 0.84728 0.1227 0.55536 0.0
C1127 C 0.86792 0.1314 0.52897 0.0
C1128 C 0.88495 0.16498 0.53118 0.0
C1129 C 0.88592 0.18872 0.56202 0.0
C1130 C 0.92409 0.08729 0.51028 0.0
C1131 C 0.90249 0.05454 0.50009 0.0
C1132 C 0.9133 0.11297 0.51348 0.0
C1133 C 0.88022 0.10639 0.50851 0.0
C1134 C 0.85908 0.0736 0.49476 0.0
C1135 C 0.87026 0.0477 0.49039 0.0
H1136 H 0.85272 0.77639 0.68755 0.0
H1137 H 0.80971 0.84929 0.72459 0.0
H1138 H 0.88324 0.80748 0.64655 0.0
H1139 H 0.83969 0.88004 0.68387 0.0
H1140 H 0.92564 0.94408 0.63689 0.0
H1141 H 0.89728 0.91169 0.67655 0.0
H1142 H 0.87006 0.8232 0.59237 0.0
H1143 H 0.89913 0.85589 0.55214 0.0
C1144 C 0.85028 0.7993 0.68718 0.0
C1145 C 0.82913 0.81068 0.709 0.0
C1146 C 0.86726 0.81675 0.66353 0.0
C1147 C 0.86364 0.84601 0.66202 0.0
C1148 C 0.84307 0.85767 0.68466 0.0
C1149 C 0.82597 0.84016 0.70792 0.0
C1150 C 0.91354 0.91774 0.62665 0.0
C1151 C 0.91445 0.90252 0.59134 0.0
C1152 C 0.89727 0.89922 0.64942 0.0
C1153 C 0.88152 0.86501 0.6375 0.0
C1154 C 0.88232 0.84957 0.60219 0.0
C1155 C 0.89858 0.86825 0.57918 0.0
H1156 H 0.31452 0.17264 0.2386 0.0
H1157 H 0.30319 0.20078 0.1456 0.0
H1158 H 0.34248 0.13783 0.20674 0.0
H1159 H 0.33086 0.16516 0.11315 0.0
H1160 H 0.41576 0.12663 0.08073 0.0
H1161 H 0.38599 0.16127 0.10967 0.0
H1162 H 0.33155 0.08654 0.16146 0.0
H1163 H 0.36146 0.05235 0.13321 0.0
C1164 C 0.31791 0.1713 0.21122 0.0
C1165 C 0.30656 0.18957 0.19471 0.0
C1166 C 0.33375 0.15104 0.19281 0.0
C1167 C 0.33895 0.14845 0.15722 0.0
C1168 C 0.32749 0.16665 0.14055 0.0
C1169 C 0.31127 0.18678 0.15902 0.0
C1170 C 0.39747 0.1176 0.09833 0.0
C1171 C 0.39111 0.08652 0.10446 0.0
C1172 C 0.38016 0.13737 0.1147 0.0
C1173 C 0.35631 0.12684 0.13804 0.0
C1174 C 0.34988 0.0957 0.14394 0.0
C1175 C 0.36689 0.07587 0.12738 0.0
H1176 H 0.7709 0.29041 0.15007 0.0
H1177 H 0.85474 0.33076 0.22163 0.0
H1178 H 0.79908 0.32898 0.11531 0.0
H1179 H 0.88307 0.36872 0.18663 0.0
H1180 H 0.90893 0.45657 0.14182 0.0
H1181 H 0.87651 0.41743 0.1735 0.0
H1182 H 0.84802 0.34088 0.07751 0.0
H1183 H 0.88067 0.38036 0.04537 0.0
C1184 C 0.79542 0.30737 0.15823 0.0
C1185 C 0.81079 0.30744 0.1884 0.0
C1186 C 0.81156 0.32926 0.13822 0.0
C1187 C 0.84321 0.35186 0.14829 0.0
C1188 C 0.85856 0.35177 0.1784 0.0
C1189 C 0.84251 0.32979 0.19824 0.0
C1190 C 0.89551 0.43151 0.12727 0.0
C1191 C 0.89759 0.4215 0.09106 0.0
C1192 C 0.87711 0.40905 0.14553 0.0
C1193 C 0.86021 0.37602 0.12806 0.0
C1194 C 0.86086 0.36624 0.09162 0.0
C1195 C 0.8795 0.3888 0.07324 0.0
H1196 H 0.66595 0.81843 0.07126 0.0
H1197 H 0.69694 0.88578 0.17289 0.0
H1198 H 0.62744 0.84325 0.06399 0.0
H1199 H 0.65721 0.90974 0.16626 0.0
H1200 H 0.61103 0.96991 0.12219 0.0
H1201 H 0.64775 0.94427 0.13392 0.0
H1202 H 0.57786 0.84844 0.08341 0.0
H1203 H 0.54154 0.87412 0.0713 0.0
C1204 C 0.66447 0.83847 0.09217 0.0
C1205 C 0.68482 0.85024 0.12255 0.0
C1206 C 0.64202 0.85247 0.08818 0.0
C1207 C 0.63912 0.87859 0.11452 0.0
C1208 C 0.65901 0.88995 0.14524 0.0
C1209 C 0.68154 0.87593 0.14923 0.0
C1210 C 0.60341 0.94334 0.11394 0.0
C1211 C 0.57349 0.92411 0.09549 0.0
C1212 C 0.62443 0.9286 0.12072 0.0
C1213 C 0.61596 0.89424 0.10938 0.0
C1214 C 0.58558 0.875 0.09186 0.0
C1215 C 0.56469 0.88973 0.08494 0.0
H1216 H 0.16818 0.65909 0.21362 0.0
H1217 H 0.2445 0.66604 0.1418 0.0
H1218 H 0.13064 0.61412 0.17035 0.0
H1219 H 0.20628 0.6203 0.09771 0.0
H1220 H 0.10465 0.57678 0.02662 0.0
H1221 H 0.15373 0.61312 0.06364 0.0
H1222 H 0.12243 0.55583 0.1393 0.0
H1223 H 0.07344 0.52057 0.10315 0.0
C1224 C 0.17698 0.65071 0.18859 0.0
C1225 C 0.20915 0.66599 0.18095 0.0
C1226 C 0.15555 0.62478 0.16387 0.0
C1227 C 0.16568 0.61357 0.13081 0.0
C1228 C 0.198 0.62851 0.1231 0.0
C1229 C 0.21977 0.65442 0.14825 0.0
C1230 C 0.10885 0.57165 0.05077 0.0
C1231 C 0.08513 0.54664 0.06268 0.0
C1232 C 0.13689 0.59222 0.07179 0.0
C1233 C 0.14141 0.58754 0.10455 0.0
C1234 C 0.11916 0.56032 0.11448 0.0
C1235 C 0.09114 0.54025 0.09388 0.0
H1236 H 0.3205 0.77074 0.85955 0.0
H1237 H 0.32447 0.85409 0.82253 0.0
H1238 H 0.35944 0.80805 0.90758 0.0
H1239 H 0.36186 0.89115 0.87147 0.0
H1240 H 0.41836 0.95121 0.9728 0.0
H1241 H 0.36801 0.90816 0.94337 0.0
H1242 H 0.42123 0.84677 0.8964 0.0
H1243 H 0.47142 0.89005 0.92466 0.0
C1244 C 0.32921 0.797 0.86199 0.0
C1245 C 0.3199 0.80945 0.8369 0.0
C1246 C 0.35115 0.81824 0.88963 0.0
C1247 C 0.36328 0.85232 0.8932 0.0
C1248 C 0.35236 0.86494 0.8695 0.0
C1249 C 0.3311 0.8437 0.84142 0.0
C1250 C 0.41895 0.92799 0.95719 0.0
C1251 C 0.4485 0.92376 0.95066 0.0
C1252 C 0.39031 0.90355 0.94034 0.0
C1253 C 0.39098 0.87437 0.91771 0.0
C1254 C 0.42014 0.86896 0.91401 0.0
C1255 C 0.44879 0.89368 0.93004 0.0
H1256 H 0.16927 0.25682 0.79947 0.0
H1257 H 0.25437 0.34587 0.81865 0.0
H1258 H 0.13766 0.28797 0.83147 0.0
H1259 H 0.22277 0.37725 0.84927 0.0
H1260 H 0.16451 0.42414 0.92486 0.0
H1261 H 0.19507 0.38978 0.89939 0.0
H1262 H 0.11458 0.32646 0.82611 0.0
H1263 H 0.08342 0.35978 0.85277 0.0
C1264 C 0.18125 0.28307 0.81045 0.0
C1265 C 0.21427 0.2989 0.80578 0.0
C1266 C 0.16304 0.30107 0.82861 0.0
C1267 C 0.17735 0.33543 0.84278 0.0
C1268 C 0.2107 0.35092 0.83908 0.0
C1269 C 0.22884 0.33293 0.82099 0.0
C1270 C 0.15299 0.40256 0.90376 0.0
C1271 C 0.12131 0.39505 0.89099 0.0
C1272 C 0.17081 0.38299 0.88872 0.0
C1273 C 0.15761 0.35524 0.86033 0.0
C1274 C 0.12567 0.34733 0.84807 0.0
C1275 C 0.10784 0.36684 0.86315 0.0
H1276 H 0.75243 0.20877 0.85626 0.0
H1277 H 0.68321 0.15198 0.7694 0.0
H1278 H 0.71964 0.17338 0.89233 0.0
H1279 H 0.65145 0.11594 0.80436 0.0
H1280 H 0.58049 0.08215 0.88085 0.0
H1281 H 0.61666 0.11945 0.84973 0.0
H1282 H 0.69902 0.11952 0.90355 0.0
H1283 H 0.66212 0.08303 0.93632 0.0
C1284 C 0.73032 0.18857 0.84492 0.0
C1285 C 0.71984 0.1835 0.81042 0.0
C1286 C 0.71167 0.16819 0.86542 0.0
C1287 C 0.68246 0.14224 0.85153 0.0
C1288 C 0.67312 0.13639 0.81639 0.0
C1289 C 0.69135 0.15699 0.79625 0.0
C1290 C 0.60633 0.09029 0.88623 0.0
C1291 C 0.61856 0.07948 0.91069 0.0
C1292 C 0.62713 0.11148 0.86816 0.0
C1293 C 0.66085 0.12189 0.87341 0.0
C1294 C 0.67319 0.11201 0.89887 0.0
C1295 C 0.65214 0.09111 0.91758 0.0
H1296 H 0.89715 0.70245 0.89242 0.0
H1297 H 0.88752 0.63219 0.7931 0.0
H1298 H 0.91212 0.66735 0.92067 0.0
H1299 H 0.90373 0.59792 0.8209 0.0
H1300 H 0.9167 0.53147 0.8801 0.0
H1301 H 0.89006 0.56266 0.8596 0.0
H1302 H 0.95908 0.65324 0.92264 0.0
H1303 H 0.98528 0.62202 0.94342 0.0
C1304 C 0.89782 0.67933 0.8767 0.0
C1305 C 0.89151 0.67029 0.84047 0.0
C1306 C 0.90673 0.65937 0.89282 0.0
C1307 C 0.90942 0.62992 0.87306 0.0
C1308 C 0.90165 0.62024 0.83705 0.0
C1309 C 0.89275 0.64013 0.82099 0.0
C1310 C 0.92594 0.55803 0.8898 0.0
C1311 C 0.95324 0.57429 0.91317 0.0
C1312 C 0.91073 0.57592 0.87803 0.0
C1313 C 0.92259 0.61053 0.88918 0.0
C1314 C 0.94899 0.62663 0.91381 0.0
C1315 C 0.96408 0.60872 0.92572 0.0
H1316 H 0.11486 0.31271 0.17457 0.0
H1317 H 0.12878 0.2838 0.06472 0.0
H1318 H 0.09451 0.35314 0.16455 0.0
H1319 H 0.10714 0.32326 0.0545 0.0
H1320 H 0.09345 0.41763 0.0517 0.0
H1321 H 0.11866 0.38162 0.06419 0.0
H1322 H 0.0469 0.35379 0.1385 0.0
H1323 H 0.02186 0.38981 0.12614 0.0
C1324 C 0.11373 0.31507 0.14829 0.0
C1325 C 0.12339 0.2949 0.12044 0.0
C1326 C 0.10171 0.33802 0.14249 0.0
C1327 C 0.09902 0.34139 0.1087 0.0
C1328 C 0.10914 0.32157 0.08092 0.0
C1329 C 0.12116 0.29861 0.08671 0.0
C1330 C 0.08307 0.4038 0.07069 0.0
C1331 C 0.0556 0.40658 0.08788 0.0
C1332 C 0.09749 0.38312 0.07782 0.0
C1333 C 0.08477 0.3647 0.10228 0.0
C1334 C 0.05766 0.36798 0.11991 0.0
C1335 C 0.04328 0.38867 0.11282 0.0
H1336 H 0.2523 0.69684 0.83929 0.0
H1337 H 0.1679 0.67399 0.77357 0.0
H1338 H 0.22017 0.65747 0.8712 0.0
H1339 H 0.13549 0.6356 0.8063 0.0
H1340 H 0.09698 0.54239 0.8445 0.0
H1341 H 0.13015 0.58217 0.81381 0.0
H1342 H 0.17651 0.64899 0.91165 0.0
H1343 H 0.14351 0.60877 0.94249 0.0
C1344 C 0.22682 0.6836 0.83181 0.0
C1345 C 0.21257 0.68871 0.80403 0.0
C1346 C 0.20837 0.66123 0.8503 0.0
C1347 C 0.17527 0.64339 0.84134 0.0
C1348 C 0.16101 0.64868 0.81365 0.0
C1349 C 0.17948 0.67099 0.79514 0.0
C1350 C 0.11436 0.56548 0.85952 0.0
C1351 C 0.11761 0.57243 0.89597 0.0
C1352 C 0.1332 0.58841 0.84191 0.0
C1353 C 0.15578 0.61887 0.86028 0.0
C1354 C 0.15947 0.62564 0.89671 0.0
C1355 C 0.14053 0.60265 0.9144 0.0
H1356 H 0.31369 0.10954 0.86266 0.0
H1357 H 0.39439 0.14604 0.80097 0.0
H1358 H 0.3473 0.09313 0.89592 0.0
H1359 H 0.42805 0.13009 0.83434 0.0
H1360 H 0.4857 0.11721 0.91815 0.0
H1361 H 0.45231 0.14141 0.89584 0.0
H1362 H 0.37189 0.04825 0.8765 0.0
H1363 H 0.4053 0.02404 0.89864 0.0
C1364 C 0.33881 0.11473 0.85683 0.0
C1365 C 0.3515 0.12894 0.82928 0.0
C1366 C 0.35793 0.10515 0.87562 0.0
C1367 C 0.39022 0.11021 0.86759 0.0
C1368 C 0.40334 0.12609 0.84127 0.0
C1369 C 0.38408 0.1351 0.82211 0.0
C1370 C 0.46075 0.10208 0.90961 0.0
C1371 C 0.44811 0.06871 0.90997 0.0
C1372 C 0.44172 0.11588 0.89671 0.0
C1373 C 0.40952 0.09672 0.88447 0.0
C1374 C 0.39654 0.06369 0.88606 0.0
C1375 C 0.41571 0.04976 0.89844 0.0
H1376 H 0.78994 0.31528 0.85522 0.0
H1377 H 0.87274 0.3115 0.79596 0.0
H1378 H 0.82649 0.35467 0.90459 0.0
H1379 H 0.90858 0.35009 0.84471 0.0
H1380 H 0.96891 0.39247 0.93762 0.0
H1381 H 0.9219 0.34777 0.9048 0.0
H1382 H 0.87073 0.41429 0.91741 0.0
H1383 H 0.91774 0.45888 0.9514 0.0
C1384 C 0.81582 0.32292 0.85267 0.0
C1385 C 0.8285 0.30994 0.82191 0.0
C1386 C 0.83662 0.34525 0.88092 0.0
C1387 C 0.87025 0.35458 0.87874 0.0
C1388 C 0.88272 0.34245 0.84753 0.0
C1389 C 0.86214 0.32051 0.81947 0.0
C1390 C 0.947 0.39701 0.93479 0.0
C1391 C 0.94665 0.4288 0.94669 0.0
C1392 C 0.92026 0.37162 0.91584 0.0
C1393 C 0.89314 0.37793 0.90785 0.0
C1394 C 0.89139 0.40886 0.92321 0.0
C1395 C 0.91815 0.43428 0.94269 0.0
H1396 H 0.71458 0.79197 0.85683 0.0
H1397 H 0.71685 0.82667 0.76496 0.0
H1398 H 0.68347 0.82497 0.88515 0.0
H1399 H 0.68428 0.8582 0.79232 0.0
H1400 H 0.65544 0.93876 0.86131 0.0
H1401 H 0.68687 0.90573 0.83496 0.0
H1402 H 0.63291 0.83134 0.88761 0.0
H1403 H 0.60185 0.86504 0.91467 0.0
C1404 C 0.7085 0.80667 0.84266 0.0
C1405 C 0.71894 0.80713 0.80885 0.0
C1406 C 0.6902 0.82535 0.85876 0.0
C1407 C 0.68138 0.84474 0.84134 0.0
C1408 C 0.69113 0.84438 0.8071 0.0
C1409 C 0.70967 0.82597 0.79118 0.0
C1410 C 0.65008 0.91526 0.86716 0.0
C1411 C 0.62581 0.90455 0.88997 0.0
C1412 C 0.66813 0.89614 0.85188 0.0
C1413 C 0.66242 0.86545 0.85865 0.0
C1414 C 0.63841 0.85491 0.88191 0.0
C1415 C 0.62047 0.87424 0.89745 0.0
H1416 H 0.84998 0.70752 0.2374 0.0
H1417 H 0.79324 0.68609 0.143 0.0
H1418 H 0.88121 0.67599 0.20599 0.0
H1419 H 0.82502 0.65505 0.11116 0.0
H1420 H 0.86274 0.56946 0.07688 0.0
H1421 H 0.83319 0.60402 0.10534 0.0
H1422 H 0.92084 0.67482 0.16337 0.0
H1423 H 0.95045 0.64035 0.13484 0.0
C1424 C 0.84435 0.69636 0.20979 0.0
C1425 C 0.81905 0.6995 0.19277 0.0
C1426 C 0.86252 0.67842 0.19163 0.0
C1427 C 0.85584 0.6628 0.15585 0.0
C1428 C 0.83074 0.66631 0.13873 0.0
C1429 C 0.81267 0.68446 0.15691 0.0
C1430 C 0.87595 0.59265 0.09525 0.0
C1431 C 0.90917 0.60185 0.10344 0.0
C1432 C 0.85888 0.61255 0.1117 0.0
C1433 C 0.87443 0.64233 0.13692 0.0
C1434 C 0.90777 0.65185 0.14462 0.0
C1435 C 0.92484 0.63198 0.12816 0.0
H1436 H 0.28106 0.76768 0.13587 0.0
H1437 H 0.35764 0.81622 0.21681 0.0
H1438 H 0.30983 0.80774 0.10277 0.0
H1439 H 0.38655 0.85524 0.18359 0.0
H1440 H 0.40801 0.94413 0.14332 0.0
H1441 H 0.37618 0.90087 0.17045 0.0
H1442 H 0.3603 0.82891 0.07134 0.0
H1443 H 0.39184 0.87268 0.04376 0.0
C1444 C 0.30416 0.78665 0.14634 0.0
C1445 C 0.31675 0.7893 0.17922 0.0
C1446 C 0.32069 0.80939 0.12734 0.0
C1447 C 0.35007 0.83505 0.14099 0.0
C1448 C 0.36351 0.83629 0.17285 0.0
C1449 C 0.34708 0.81367 0.19172 0.0
C1450 C 0.39753 0.91915 0.12718 0.0
C1451 C 0.40274 0.91173 0.09149 0.0
C1452 C 0.37946 0.89433 0.14278 0.0
C1453 C 0.36639 0.8614 0.12316 0.0
C1454 C 0.37018 0.85408 0.0871 0.0
C1455 C 0.38823 0.87909 0.07136 0.0
H1456 H 0.70586 0.2216 0.13985 0.0
H1457 H 0.70677 0.1411 0.17918 0.0
H1458 H 0.66452 0.18252 0.09489 0.0
H1459 H 0.66688 0.10218 0.13309 0.0
H1460 H 0.5531 0.10047 0.08696 0.0
H1461 H 0.60404 0.14361 0.11358 0.0
H1462 H 0.65637 0.08372 0.05958 0.0
H1463 H 0.60517 0.04081 0.03172 0.0
C1464 C 0.69769 0.19557 0.13852 0.0
C1465 C 0.70898 0.18444 0.16348 0.0
C1466 C 0.67438 0.17332 0.11261 0.0
C1467 C 0.66287 0.13954 0.11063 0.0
C1468 C 0.67584 0.12815 0.13393 0.0
C1469 C 0.69854 0.15044 0.16034 0.0
C1470 C 0.5756 0.09704 0.07994 0.0
C1471 C 0.57549 0.06754 0.0575 0.0
C1472 C 0.60464 0.12168 0.09498 0.0
C1473 C 0.63387 0.11678 0.08847 0.0
C1474 C 0.63399 0.08794 0.06467 0.0
C1475 C 0.60489 0.06359 0.04879 0.0
H1476 H 0.74638 0.67675 0.8177 0.0
H1477 H 0.6631 0.69538 0.79071 0.0
H1478 H 0.71436 0.64528 0.85698 0.0
H1479 H 0.63098 0.66293 0.82936 0.0
H1480 H 0.58339 0.56284 0.86203 0.0
H1481 H 0.61519 0.59905 0.82683 0.0
H1482 H 0.6819 0.65857 0.91517 0.0
H1483 H 0.64944 0.62253 0.95105 0.0
C1484 C 0.72127 0.67413 0.82008 0.0
C1485 C 0.7073 0.68871 0.8012 0.0
C1486 C 0.7031 0.65633 0.84275 0.0
C1487 C 0.67046 0.65209 0.84627 0.0
C1488 C 0.65623 0.66608 0.82704 0.0
C1489 C 0.67456 0.68446 0.80485 0.0
C1490 C 0.60483 0.58365 0.87401 0.0
C1491 C 0.61419 0.58982 0.90915 0.0
C1492 C 0.6228 0.60444 0.85393 0.0
C1493 C 0.65081 0.63143 0.86843 0.0
C1494 C 0.66032 0.63775 0.90356 0.0
C1495 C 0.64184 0.61728 0.92399 0.0
H1496 H 0.29716 0.57001 0.83018 0.0
H1497 H 0.38278 0.63586 0.79538 0.0
H1498 H 0.33 0.56484 0.87426 0.0
H1499 H 0.41602 0.62976 0.83843 0.0
H1500 H 0.46983 0.62275 0.92669 0.0
H1501 H 0.43263 0.63819 0.89766 0.0
H1502 H 0.36566 0.53699 0.87224 0.0
H1503 H 0.40191 0.52216 0.90237 0.0
C1504 C 0.32307 0.58339 0.83206 0.0
C1505 C 0.33756 0.60292 0.80912 0.0
C1506 C 0.34192 0.58042 0.85724 0.0
C1507 C 0.37578 0.59647 0.85963 0.0
C1508 C 0.39004 0.61729 0.83766 0.0
C1509 C 0.37107 0.62063 0.8128 0.0
C1510 C 0.4468 0.60406 0.91556 0.0
C1511 C 0.43906 0.57112 0.91617 0.0
C1512 C 0.42563 0.6128 0.89863 0.0
C1513 C 0.39629 0.58878 0.88213 0.0
C1514 C 0.38785 0.55628 0.88476 0.0
C1515 C 0.40889 0.54762 0.90164 0.0
H1516 H 0.32579 0.34877 0.82713 0.0
H1517 H 0.36631 0.27286 0.80273 0.0
H1518 H 0.3711 0.38358 0.86942 0.0
H1519 H 0.41204 0.30816 0.84454 0.0
H1520 H 0.50252 0.41388 0.8802 0.0
H1521 H 0.45714 0.36961 0.84412 0.0
H1522 H 0.39486 0.37649 0.92946 0.0
H1523 H 0.44058 0.4201 0.9662 0.0
C1524 C 0.34451 0.3397 0.83065 0.0
C1525 C 0.3428 0.30831 0.81163 0.0
C1526 C 0.37009 0.35936 0.85507 0.0
C1527 C 0.39459 0.34817 0.8603 0.0
C1528 C 0.39315 0.31701 0.841 0.0
C1529 C 0.36718 0.29702 0.81712 0.0
C1530 C 0.47936 0.40532 0.89156 0.0
C1531 C 0.47482 0.42071 0.92573 0.0
C1532 C 0.45351 0.38003 0.87096 0.0
C1533 C 0.42269 0.37019 0.88408 0.0
C1534 C 0.41852 0.38404 0.9189 0.0
C1535 C 0.44461 0.40884 0.93983 0.0
H1536 H 0.71678 0.42344 0.8653 0.0
H1537 H 0.68566 0.33345 0.89888 0.0
H1538 H 0.71598 0.45416 0.92434 0.0
H1539 H 0.68794 0.36465 0.95859 0.0
H1540 H 0.61264 0.41164 0.00605 0.0
H1541 H 0.64767 0.38349 0.98059 0.0
H1542 H 0.72484 0.47705 0.98463 0.0
H1543 H 0.68872 0.50526 0.0099 0.0
C1544 C 0.71053 0.41027 0.8854 0.0
C1545 C 0.69989 0.37579 0.87693 0.0
C1546 C 0.7109 0.42807 0.91968 0.0
C1547 C 0.70096 0.41181 0.94643 0.0
C1548 C 0.69481 0.37789 0.93858 0.0
C1549 C 0.69371 0.35998 0.90415 0.0
C1550 C 0.6377 0.42629 0.00366 0.0
C1551 C 0.64764 0.46043 0.00858 0.0
C1552 C 0.65809 0.4101 0.98881 0.0
C1553 C 0.68854 0.42797 0.97833 0.0
C1554 C 0.70089 0.46253 0.99081 0.0
C1555 C 0.68033 0.47878 0.0057 0.0
H1556 H 0.73106 0.38293 0.1206 0.0
H1557 H 0.66674 0.37658 0.20542 0.0
H1558 H 0.69409 0.39615 0.08881 0.0
H1559 H 0.62904 0.38754 0.17222 0.0
H1560 H 0.55928 0.37429 0.07804 0.0
H1561 H 0.596 0.35699 0.1055 0.0
H1562 H 0.67311 0.45023 0.11002 0.0
H1563 H 0.63626 0.4681 0.08371 0.0
C1564 C 0.70916 0.38426 0.13256 0.0
C1565 C 0.70226 0.37899 0.16596 0.0
C1566 C 0.6879 0.39153 0.11411 0.0
C1567 C 0.65888 0.39279 0.12817 0.0
C1568 C 0.65124 0.38639 0.16079 0.0
C1569 C 0.67282 0.3799 0.17966 0.0
C1570 C 0.58416 0.39094 0.08452 0.0
C1571 C 0.59496 0.4225 0.07857 0.0
C1572 C 0.60503 0.38109 0.10034 0.0
C1573 C 0.63724 0.40231 0.10969 0.0
C1574 C 0.64836 0.43343 0.10284 0.0
C1575 C 0.62728 0.44365 0.08794 0.0
H1576 H 0.69052 0.63683 0.19113 0.0
H1577 H 0.67761 0.72044 0.1688 0.0
H1578 H 0.64355 0.59988 0.15221 0.0
H1579 H 0.63119 0.6831 0.12918 0.0
H1580 H 0.53387 0.55603 0.12449 0.0
H1581 H 0.58058 0.59809 0.15977 0.0
H1582 H 0.62127 0.62953 0.06868 0.0
H1583 H 0.57436 0.58662 0.03258 0.0
C1584 C 0.67787 0.64735 0.17784 0.0
C1585 C 0.68762 0.68159 0.18339 0.0
C1586 C 0.65111 0.62621 0.15556 0.0
C1587 C 0.63401 0.6389 0.13798 0.0
C1588 C 0.64423 0.67294 0.14246 0.0
C1589 C 0.67066 0.69417 0.16526 0.0
C1590 C 0.55237 0.57221 0.11187 0.0
C1591 C 0.55066 0.5678 0.07564 0.0
C1592 C 0.57916 0.59609 0.13212 0.0
C1593 C 0.60445 0.61643 0.11668 0.0
C1594 C 0.60192 0.61382 0.08093 0.0
C1595 C 0.57517 0.58945 0.06042 0.0
H1596 H 0.42704 0.70037 0.09843 0.0
H1597 H 0.32324 0.66262 0.10369 0.0
H1598 H 0.42332 0.65169 0.05288 0.0
H1599 H 0.31918 0.61384 0.05728 0.0
H1600 H 0.34368 0.51815 0.04358 0.0
H1601 H 0.33264 0.56845 0.06159 0.0
H1602 H 0.40739 0.61356 -0.0026 0.0
H1603 H 0.41997 0.56425 0.98199 0.0
C1604 C 0.40331 0.6822 0.0888 0.0
C1605 C 0.37552 0.68483 0.10497 0.0
C1606 C 0.40106 0.65425 0.06249 0.0
C1607 C 0.3709 0.6285 0.05173 0.0
C1608 C 0.34279 0.63288 0.06546 0.0
C1609 C 0.3451 0.66076 0.09197 0.0
C1610 C 0.35727 0.53855 0.03269 0.0
C1611 C 0.38353 0.53755 0.0122 0.0
C1612 C 0.35065 0.56737 0.04266 0.0
C1613 C 0.36989 0.59551 0.03181 0.0
C1614 C 0.39275 0.59266 0.00705 0.0
C1615 C 0.39967 0.56408 -0.00234 0.0
H1616 H 0.31121 0.34673 0.22066 0.0
H1617 H 0.35261 0.27189 0.18919 0.0
H1618 H 0.34455 0.3765 0.18079 0.0
H1619 H 0.3862 0.30183 0.1488 0.0
H1620 H 0.40586 0.35297 0.05343 0.0
H1621 H 0.37489 0.31946 0.09226 0.0
H1622 H 0.4061 0.40553 0.17926 0.0
H1623 H 0.43662 0.43872 0.14122 0.0
C1624 C 0.32767 0.33685 0.20528 0.0
C1625 C 0.32967 0.30728 0.20786 0.0
C1626 C 0.34665 0.35378 0.18253 0.0
C1627 C 0.36778 0.34131 0.16184 0.0
C1628 C 0.36987 0.3117 0.16442 0.0
C1629 C 0.35109 0.29491 0.18767 0.0
C1630 C 0.4061 0.36457 0.08086 0.0
C1631 C 0.42337 0.39847 0.09422 0.0
C1632 C 0.38865 0.34544 0.103 0.0
C1633 C 0.38813 0.36014 0.13855 0.0
C1634 C 0.40592 0.39378 0.15186 0.0
C1635 C 0.42339 0.41271 0.12999 0.0
H1636 H 0.82523 0.68238 0.74459 0.0
H1637 H 0.79937 0.69436 0.64706 0.0
H1638 H 0.85384 0.64792 0.71424 0.0
H1639 H 0.82698 0.65824 0.61604 0.0
H1640 H 0.91125 0.62099 0.57843 0.0
H1641 H 0.88041 0.65505 0.60545 0.0
H1642 H 0.84475 0.59467 0.67769 0.0
H1643 H 0.87547 0.56101 0.65099 0.0
C1644 C 0.82564 0.67766 0.71654 0.0
C1645 C 0.81012 0.6915 0.6984 0.0
C1646 C 0.84174 0.65738 0.69897 0.0
C1647 C 0.84276 0.64991 0.66247 0.0
C1648 C 0.82702 0.66355 0.64414 0.0
C1649 C 0.8108 0.68398 0.66188 0.0
C1650 C 0.8966 0.61481 0.59989 0.0
C1651 C 0.89637 0.58839 0.61274 0.0
C1652 C 0.87882 0.63437 0.6154 0.0
C1653 C 0.86023 0.62803 0.64416 0.0
C1654 C 0.85933 0.601 0.65623 0.0
C1655 C 0.87707 0.58159 0.64085 0.0
H1656 H 0.31663 0.85091 0.73105 0.0
H1657 H 0.3254 0.77019 0.65085 0.0
H1658 H 0.34589 0.88908 0.69702 0.0
H1659 H 0.35589 0.80883 0.61715 0.0
H1660 H 0.43468 0.95103 0.65104 0.0
H1661 H 0.40145 0.91126 0.68145 0.0
H1662 H 0.351 0.84722 0.58423 0.0
H1663 H 0.38497 0.8872 0.55336 0.0
C1664 C 0.32492 0.84126 0.70619 0.0
C1665 C 0.31912 0.80749 0.69395 0.0
C1666 C 0.34185 0.86323 0.68673 0.0
C1667 C 0.35352 0.85207 0.65453 0.0
C1668 C 0.34709 0.81818 0.6418 0.0
C1669 C 0.33 0.7961 0.66131 0.0
C1670 C 0.41639 0.9286 0.63605 0.0
C1671 C 0.4124 0.92233 0.59977 0.0
C1672 C 0.39721 0.90582 0.65356 0.0
C1673 C 0.37347 0.87612 0.63531 0.0
C1674 C 0.36927 0.8698 0.59898 0.0
C1675 C 0.3885 0.89278 0.58136 0.0
H1676 H 0.13437 0.35178 0.70422 0.0
H1677 H 0.21378 0.38669 0.64043 0.0
H1678 H 0.10047 0.36839 0.67192 0.0
H1679 H 0.17996 0.40386 0.6083 0.0
H1680 H 0.12196 0.47329 0.60619 0.0
H1681 H 0.15569 0.44936 0.62834 0.0
H1682 H 0.0753 0.35627 0.61034 0.0
H1683 H 0.04164 0.38013 0.58795 0.0
C1684 C 0.14435 0.36258 0.68291 0.0
C1685 C 0.17662 0.36799 0.67476 0.0
C1686 C 0.12496 0.37198 0.66437 0.0
C1687 C 0.13764 0.38755 0.63772 0.0
C1688 C 0.16966 0.39207 0.62886 0.0
C1689 C 0.18889 0.38207 0.64701 0.0
C1690 C 0.11163 0.44765 0.6067 0.0
C1691 C 0.07918 0.4286 0.59545 0.0
C1692 C 0.13098 0.43389 0.6191 0.0
C1693 C 0.1181 0.40096 0.62105 0.0
C1694 C 0.08581 0.38173 0.6092 0.0
C1695 C 0.06663 0.39534 0.59624 0.0
H1696 H 0.74742 0.18428 0.62596 0.0
H1697 H 0.67853 0.14367 0.69748 0.0
H1698 H 0.7073 0.15028 0.57693 0.0
H1699 H 0.63914 0.11023 0.64922 0.0
H1700 H 0.56507 0.1019 0.57652 0.0
H1701 H 0.61644 0.14112 0.60602 0.0
H1702 H 0.66427 0.07599 0.55415 0.0
H1703 H 0.6126 0.03678 0.52362 0.0
C1704 C 0.72407 0.16754 0.63098 0.0
C1705 C 0.71567 0.16671 0.66526 0.0
C1706 C 0.70127 0.14835 0.60315 0.0
C1707 C 0.67022 0.12831 0.60972 0.0
C1708 C 0.66285 0.12598 0.64377 0.0
C1709 C 0.68533 0.14501 0.67127 0.0
C1710 C 0.58682 0.09667 0.5702 0.0
C1711 C 0.58508 0.06634 0.54834 0.0
C1712 C 0.61613 0.11907 0.58694 0.0
C1713 C 0.64393 0.11118 0.58249 0.0
C1714 C 0.64305 0.08254 0.55765 0.0
C1715 C 0.6136 0.06019 0.54034 0.0
H1716 H 0.81183 0.35458 0.33055 0.0
H1717 H 0.83214 0.27271 0.34728 0.0
H1718 H 0.8516 0.39196 0.37764 0.0
H1719 H 0.87153 0.31002 0.39413 0.0
H1720 H 0.97454 0.39562 0.41566 0.0
H1721 H 0.92505 0.35276 0.38612 0.0
H1722 H 0.8692 0.40752 0.44326 0.0
H1723 H 0.91929 0.45054 0.47353 0.0
C1724 C 0.82427 0.34446 0.34461 0.0
C1725 C 0.81932 0.31078 0.33462 0.0
C1726 C 0.8468 0.36582 0.37178 0.0
C1727 C 0.86473 0.35383 0.38931 0.0
C1728 C 0.85822 0.3199 0.38081 0.0
C1729 C 0.83573 0.2986 0.35382 0.0
C1730 C 0.95159 0.39796 0.42271 0.0
C1731 C 0.95052 0.42618 0.44673 0.0
C1732 C 0.92326 0.37343 0.40589 0.0
C1733 C 0.89334 0.37695 0.41231 0.0
C1734 C 0.89203 0.40436 0.43783 0.0
C1735 C 0.92051 0.42871 0.4553 0.0
H1736 H 0.67446 0.75545 0.31651 0.0
H1737 H 0.7477 0.84267 0.29714 0.0
H1738 H 0.64395 0.78874 0.34686 0.0
H1739 H 0.71694 0.87547 0.32638 0.0
H1740 H 0.63513 0.91531 0.34221 0.0
H1741 H 0.66469 0.88044 0.31483 0.0
H1742 H 0.64779 0.83584 0.40116 0.0
H1743 H 0.61783 0.87089 0.42873 0.0
C1744 C 0.68431 0.78166 0.31904 0.0
C1745 C 0.71384 0.79622 0.30461 0.0
C1746 C 0.66673 0.80078 0.33636 0.0
C1747 C 0.6779 0.83484 0.33901 0.0
C1748 C 0.70739 0.8493 0.32456 0.0
C1749 C 0.72512 0.83037 0.30782 0.0
C1750 C 0.63742 0.89793 0.35533 0.0
C1751 C 0.6239 0.89592 0.38769 0.0
C1752 C 0.65467 0.87808 0.33972 0.0
C1753 C 0.65874 0.85532 0.35576 0.0
C1754 C 0.64496 0.85295 0.38797 0.0
C1755 C 0.62801 0.87322 0.4039 0.0
H1756 H 0.17623 0.67357 0.27977 0.0
H1757 H 0.24829 0.72584 0.36482 0.0
H1758 H 0.14477 0.63668 0.31381 0.0
H1759 H 0.21581 0.68951 0.40013 0.0
H1760 H 0.16214 0.59374 0.43695 0.0
H1761 H 0.1968 0.63457 0.40733 0.0
H1762 H 0.1115 0.63566 0.3604 0.0
H1763 H 0.07759 0.59381 0.38801 0.0
C1764 C 0.18501 0.67756 0.30612 0.0
C1765 C 0.2145 0.70275 0.3198 0.0
C1766 C 0.16689 0.65645 0.3258 0.0
C1767 C 0.17736 0.66039 0.36008 0.0
C1768 C 0.20703 0.68565 0.37382 0.0
C1769 C 0.22552 0.70659 0.35376 0.0
C1770 C 0.15105 0.60303 0.42042 0.0
C1771 C 0.11734 0.59037 0.41421 0.0
C1772 C 0.1708 0.62647 0.40358 0.0
C1773 C 0.157 0.63798 0.38086 0.0
C1774 C 0.12311 0.62659 0.37665 0.0
C1775 C 0.1036 0.60277 0.39269 0.0
H1776 H 0.39608 0.1944 0.38324 0.0
H1777 H 0.38318 0.12397 0.28346 0.0
H1778 H 0.41505 0.16072 0.4095 0.0
H1779 H 0.40377 0.09135 0.30912 0.0
H1780 H 0.42636 0.02778 0.36664 0.0
H1781 H 0.39653 0.05657 0.34676 0.0
H1782 H 0.46314 0.14937 0.40882 0.0
H1783 H 0.49221 0.12048 0.42922 0.0
C1784 C 0.39688 0.17153 0.36699 0.0
C1785 C 0.38853 0.16213 0.33115 0.0
C1786 C 0.40818 0.15241 0.38195 0.0
C1787 C 0.41146 0.12351 0.36138 0.0
C1788 C 0.40145 0.11329 0.3259 0.0
C1789 C 0.39001 0.13227 0.31104 0.0
C1790 C 0.43445 0.05432 0.37609 0.0
C1791 C 0.46165 0.07188 0.39941 0.0
C1792 C 0.41741 0.07085 0.3647 0.0
C1793 C 0.42741 0.10538 0.37607 0.0
C1794 C 0.45428 0.12277 0.39997 0.0
C1795 C 0.47109 0.10621 0.41158 0.0
H1796 H 0.64898 0.79412 0.56948 0.0
H1797 H 0.60027 0.79443 0.66559 0.0
H1798 H 0.62838 0.83462 0.55902 0.0
H1799 H 0.5792 0.83445 0.65481 0.0
H1800 H 0.51525 0.86725 0.59151 0.0
H1801 H 0.53889 0.83032 0.60519 0.0
H1802 H 0.63411 0.8966 0.5905 0.0
H1803 H 0.61039 0.93404 0.57753 0.0
C1804 C 0.63383 0.80284 0.58829 0.0
C1805 C 0.62607 0.7911 0.61827 0.0
C1806 C 0.62228 0.82613 0.58244 0.0
C1807 C 0.60222 0.83758 0.60611 0.0
C1808 C 0.59454 0.8259 0.63612 0.0
C1809 C 0.60663 0.80314 0.64233 0.0
C1810 C 0.54123 0.87393 0.59134 0.0
C1811 C 0.56105 0.90337 0.58343 0.0
C1812 C 0.55474 0.85294 0.59931 0.0
C1813 C 0.58829 0.86065 0.59886 0.0
C1814 C 0.60816 0.89008 0.59088 0.0
C1815 C 0.59467 0.91149 0.58363 0.0
H1816 H 0.69896 0.14482 0.26162 0.0
H1817 H 0.72956 0.22661 0.35286 0.0
H1818 H 0.67089 0.10804 0.29759 0.0
H1819 H 0.70302 0.1897 0.38949 0.0
H1820 H 0.62275 0.11999 0.44054 0.0
H1821 H 0.65427 0.15871 0.4076 0.0
H1822 H 0.67644 0.08045 0.33644 0.0
H1823 H 0.64293 0.04165 0.36802 0.0
C1824 C 0.69996 0.1548 0.28953 0.0
C1825 C 0.71632 0.18849 0.30447 0.0
C1826 C 0.68411 0.13368 0.31033 0.0
C1827 C 0.68478 0.14561 0.34676 0.0
C1828 C 0.70141 0.1795 0.36162 0.0
C1829 C 0.71677 0.20072 0.34066 0.0
C1830 C 0.63477 0.11132 0.41809 0.0
C1831 C 0.6303 0.07788 0.40665 0.0
C1832 C 0.65296 0.13351 0.39916 0.0
C1833 C 0.66766 0.1228 0.36881 0.0
C1834 C 0.66467 0.08957 0.35884 0.0
C1835 C 0.64581 0.06732 0.3772 0.0
H1836 H 0.89064 0.6449 0.29551 0.0
H1837 H 0.80426 0.58893 0.3385 0.0
H1838 H 0.92341 0.62917 0.33011 0.0
H1839 H 0.83711 0.57286 0.37317 0.0
H1840 H 0.90514 0.515 0.38093 0.0
H1841 H 0.87011 0.53621 0.35666 0.0
H1842 H 0.94083 0.63492 0.39157 0.0
H1843 H 0.97592 0.61371 0.41571 0.0
C1844 C 0.87876 0.62962 0.31283 0.0
C1845 C 0.84493 0.61806 0.31429 0.0
C1846 C 0.89751 0.6207 0.33274 0.0
C1847 C 0.88285 0.59962 0.35425 0.0
C1848 C 0.84907 0.58893 0.35663 0.0
C1849 C 0.8303 0.59832 0.33705 0.0
C1850 C 0.9131 0.54125 0.3836 0.0
C1851 C 0.94338 0.56264 0.40009 0.0
C1852 C 0.8929 0.55343 0.37 0.0
C1853 C 0.90271 0.58725 0.37215 0.0
C1854 C 0.93266 0.60873 0.38934 0.0
C1855 C 0.95266 0.5966 0.40335 0.0
H1856 H 0.35969 0.83909 0.28784 0.0
H1857 H 0.2882 0.81613 0.36361 0.0
H1858 H 0.39961 0.87662 0.3341 0.0
H1859 H 0.32883 0.8541 0.41064 0.0
H1860 H 0.42072 0.95891 0.46573 0.0
H1861 H 0.37099 0.91981 0.43101 0.0
H1862 H 0.42297 0.85801 0.38118 0.0
H1863 H 0.47227 0.8971 0.41479 0.0
C1864 C 0.35247 0.84252 0.31447 0.0
C1865 C 0.32118 0.82455 0.3224 0.0
C1866 C 0.37528 0.86383 0.3409 0.0
C1867 C 0.36736 0.86747 0.37583 0.0
C1868 C 0.3354 0.85139 0.38382 0.0
C1869 C 0.31229 0.82994 0.35708 0.0
C1870 C 0.42098 0.93632 0.4482 0.0
C1871 C 0.45009 0.93095 0.44234 0.0
C1872 C 0.39269 0.91411 0.42842 0.0
C1873 C 0.39358 0.88647 0.40303 0.0
C1874 C 0.42195 0.87953 0.40017 0.0
C1875 C 0.45004 0.90175 0.41942 0.0
H1876 H 0.21939 0.3288 0.26439 0.0
H1877 H 0.215 0.29374 0.35636 0.0
H1878 H 0.18784 0.36158 0.29144 0.0
H1879 H 0.18455 0.32772 0.38423 0.0
H1880 H 0.10364 0.36973 0.41183 0.0
H1881 H 0.13414 0.33523 0.38557 0.0
H1882 H 0.19125 0.40959 0.33441 0.0
H1883 H 0.16066 0.44367 0.36025 0.0
C1884 C 0.21193 0.32824 0.29055 0.0
C1885 C 0.2203 0.30886 0.30829 0.0
C1886 C 0.19395 0.34735 0.30629 0.0
C1887 C 0.18374 0.34788 0.3404 0.0
C1888 C 0.19166 0.328 0.35793 0.0
C1889 C 0.20954 0.30871 0.34206 0.0
C1890 C 0.12286 0.37884 0.39518 0.0
C1891 C 0.1293 0.40953 0.38804 0.0
C1892 C 0.14047 0.35898 0.38006 0.0
C1893 C 0.1652 0.36924 0.35741 0.0
C1894 C 0.17197 0.40023 0.35089 0.0
C1895 C 0.15434 0.41994 0.36585 0.0
H1896 H 0.35908 0.23627 0.68875 0.0
H1897 H 0.27644 0.14678 0.68329 0.0
H1898 H 0.39013 0.2037 0.6578 0.0
H1899 H 0.30749 0.11442 0.65326 0.0
H1900 H 0.3851 0.06857 0.64543 0.0
H1901 H 0.35396 0.1024 0.67083 0.0
H1902 H 0.39354 0.164 0.60049 0.0
H1903 H 0.42507 0.12996 0.57497 0.0
C1904 C 0.34746 0.2097 0.68086 0.0
C1905 C 0.3155 0.19414 0.68953 0.0
C1906 C 0.36526 0.19102 0.66305 0.0
C1907 C 0.35156 0.15633 0.65362 0.0
C1908 C 0.31914 0.141 0.66089 0.0
C1909 C 0.30135 0.1596 0.67834 0.0
C1910 C 0.38736 0.08939 0.63539 0.0
C1911 C 0.40779 0.09652 0.60817 0.0
C1912 C 0.36922 0.10866 0.64978 0.0
C1913 C 0.37109 0.13595 0.63769 0.0
C1914 C 0.39162 0.14329 0.61057 0.0
C1915 C 0.4095 0.12363 0.59576 0.0
H1916 H 0.86086 0.31573 0.72172 0.0
H1917 H 0.78414 0.2732 0.64124 0.0
H1918 H 0.89065 0.35693 0.69133 0.0
H1919 H 0.8149 0.31298 0.60908 0.0
H1920 H 0.86588 0.408 0.5745 0.0
H1921 H 0.83354 0.36657 0.60439 0.0
H1922 H 0.92166 0.36585 0.64553 0.0
H1923 H 0.95321 0.40879 0.61812 0.0
C1924 C 0.85079 0.31476 0.69697 0.0
C1925 C 0.82049 0.29105 0.68354 0.0
C1926 C 0.86792 0.33833 0.67933 0.0
C1927 C 0.85564 0.33823 0.6472 0.0
C1928 C 0.82516 0.31427 0.63381 0.0
C1929 C 0.80763 0.29117 0.652 0.0
C1930 C 0.87806 0.39882 0.59003 0.0
C1931 C 0.9119 0.41174 0.59444 0.0
C1932 C 0.85963 0.37493 0.60703 0.0
C1933 C 0.87481 0.36291 0.62796 0.0
C1934 C 0.90884 0.37512 0.63086 0.0
C1935 C 0.92706 0.39956 0.61481 0.0
H1936 H 0.1998 0.72619 0.6485 0.0
H1937 H 0.21827 0.64345 0.66558 0.0
H1938 H 0.15819 0.68881 0.60357 0.0
H1939 H 0.17675 0.60624 0.62026 0.0
H1940 H 0.10641 0.54753 0.52669 0.0
H1941 H 0.15749 0.59038 0.55473 0.0
H1942 H 0.10419 0.64663 0.61459 0.0
H1943 H 0.0536 0.60385 0.58724 0.0
C1944 C 0.19544 0.70013 0.64233 0.0
C1945 C 0.21191 0.68775 0.66124 0.0
C1946 C 0.17166 0.67879 0.61649 0.0
C1947 C 0.16418 0.64469 0.60862 0.0
C1948 C 0.18224 0.63249 0.62564 0.0
C1949 C 0.20584 0.6538 0.6518 0.0
C1950 C 0.10588 0.56961 0.54502 0.0
C1951 C 0.07628 0.57258 0.55492 0.0
C1952 C 0.13496 0.5939 0.56121 0.0
C1953 C 0.1347 0.62171 0.58684 0.0
C1954 C 0.10514 0.62563 0.59469 0.0
C1955 C 0.07619 0.60114 0.57914 0.0
loop_
_geom_bond_atom_site_label_1
_geom_bond_atom_site_label_2
_geom_bond_distance
_geom_bond_site_symmetry_2
_ccdc_geom_bond_type
Eu0 N29 2.600 . S
Eu0 N35 2.562 . S
Eu0 O44 2.462 . S
Eu0 O45 2.373 . S
Eu0 O47 2.432 . S
Eu0 O48 2.291 . S
Eu0 O52 2.335 . S
Eu0 O55 2.372 . S
Eu0 C64 2.787 . S
C1 N2 1.365 . S
C1 C4 1.405 . S
C1 C8 1.448 . S
N2 C1 1.365 . S
N2 C5 1.319 . S
N2 Eu11 2.600 . S
C3 C5 1.397 . S
C3 C6 1.367 . S
C3 H23 0.931 . S
C4 C1 1.405 . S
C4 C6 1.403 . S
C4 C10 1.439 . S
C5 N2 1.319 . S
C5 C3 1.397 . S
C5 H16 0.930 . S
C6 C3 1.367 . S
C6 C4 1.403 . S
C6 H27 0.929 . S
C7 C8 1.430 . S
C7 C9 1.387 . S
C7 C13 1.404 . S
C8 C1 1.448 . S
C8 C7 1.430 . S
C8 N12 1.351 . S
C9 C7 1.387 . S
C9 C10 1.374 . S
C9 H24 0.931 . S
C10 C4 1.439 . S
C10 C9 1.374 . S
C10 H25 0.931 . S
Eu11 N2 2.600 . S
Eu11 N12 2.562 . S
Eu11 O46 2.335 . S
Eu11 O49 2.372 . S
Eu11 O50 2.462 . S
Eu11 O51 2.373 . S
Eu11 O53 2.432 . S
Eu11 O54 2.291 . S
Eu11 C75 2.787 . S
N12 C8 1.351 . S
N12 Eu11 2.562 . S
N12 C14 1.325 . S
C13 C7 1.404 . S
C13 C15 1.366 . S
C13 H21 0.930 . S
C14 N12 1.325 . S
C14 C15 1.416 . S
C14 H20 0.929 . S
C15 C13 1.366 . S
C15 C14 1.416 . S
C15 H17 0.930 . S
H16 C5 0.930 . S
H17 C15 0.930 . S
H18 C33 0.930 . S
H19 C40 0.930 . S
H20 C14 0.929 . S
H21 C13 0.930 . S
H22 C36 0.929 . S
H23 C3 0.931 . S
H24 C9 0.931 . S
H25 C10 0.931 . S
H26 C31 0.931 . S
H27 C6 0.929 . S
H28 C39 0.930 . S
N29 Eu0 2.600 . S
N29 C30 1.365 . S
N29 C33 1.319 . S
C30 N29 1.365 . S
C30 C32 1.405 . S
C30 C38 1.448 . S
C31 H26 0.931 . S
C31 C33 1.397 . S
C31 C34 1.367 . S
C32 C30 1.405 . S
C32 C34 1.403 . S
C32 C65 1.439 . S
C33 H18 0.930 . S
C33 N29 1.319 . S
C33 C31 1.397 . S
C34 C31 1.367 . S
C34 C32 1.403 . S
C34 H41 0.929 . S
N35 Eu0 2.562 . S
N35 C36 1.325 . S
N35 C38 1.351 . S
C36 H22 0.929 . S
C36 N35 1.325 . S
C36 C40 1.416 . S
C37 C38 1.430 . S
C37 C39 1.404 . S
C37 C66 1.387 . S
C38 C30 1.448 . S
C38 N35 1.351 . S
C38 C37 1.430 . S
C39 H28 0.930 . S
C39 C37 1.404 . S
C39 C40 1.366 . S
C40 H19 0.930 . S
C40 C36 1.416 . S
C40 C39 1.366 . S
H41 C34 0.929 . S
H42 C65 0.931 . S
H43 C66 0.931 . S
O44 Eu0 2.462 . S
O44 C64 1.252 . S
O45 Eu0 2.373 . S
O45 C56 1.249 . S
O46 Eu11 2.335 . S
O46 C56 1.264 . S
O47 Eu0 2.432 . S
O47 C64 1.268 . S
O48 Eu0 2.291 . S
O48 C63 1.255 . S
O49 Eu11 2.372 . S
O49 C63 1.257 . S
O50 Eu11 2.462 . S
O50 C75 1.252 . S
O51 Eu11 2.373 . S
O51 C67 1.249 . S
O52 Eu0 2.335 . S
O52 C67 1.264 . S
O53 Eu11 2.432 . S
O53 C75 1.268 . S
O54 Eu11 2.291 . S
O54 C74 1.255 . S
O55 Eu0 2.372 . S
O55 C74 1.257 . S
C56 O45 1.249 . S
C56 O46 1.264 . S
C57 C60 1.382 . S
C57 C62 1.390 . S
C57 C64 1.506 . S
C58 C59 1.398 . S
C58 C62 1.392 . S
C59 C58 1.398 . S
C59 C61 1.372 . S
C59 H76 0.931 . S
C60 C57 1.382 . S
C60 C61 1.390 . S
C60 H77 0.931 . S
C61 C59 1.372 . S
C61 C60 1.390 . S
C61 H78 0.929 . S
C62 C57 1.390 . S
C62 C58 1.392 . S
C62 H79 0.930 . S
C63 O48 1.255 . S
C63 O49 1.257 . S
C64 Eu0 2.787 . S
C64 O44 1.252 . S
C64 O47 1.268 . S
C64 C57 1.506 . S
C65 C32 1.439 . S
C65 H42 0.931 . S
C65 C66 1.374 . S
C66 C37 1.387 . S
C66 H43 0.931 . S
C66 C65 1.374 . S
C67 O51 1.249 . S
C67 O52 1.264 . S
C68 C71 1.382 . S
C68 C72 1.390 . S
C68 C75 1.506 . S
C69 C70 1.398 . S
C69 C72 1.392 . S
C70 C69 1.398 . S
C70 C73 1.372 . S
C70 H80 0.931 . S
C71 C68 1.382 . S
C71 C73 1.390 . S
C71 H81 0.931 . S
C72 C68 1.390 . S
C72 C69 1.392 . S
C72 H82 0.930 . S
C73 C70 1.372 . S
C73 C71 1.390 . S
C73 H83 0.929 . S
C74 O54 1.255 . S
C74 O55 1.257 . S
C75 Eu11 2.787 . S
C75 O50 1.252 . S
C75 O53 1.268 . S
C75 C68 1.506 . S
H76 C59 0.931 . S
H77 C60 0.931 . S
H78 C61 0.929 . S
H79 C62 0.930 . S
H80 C70 0.931 . S
H81 C71 0.931 . S
H82 C72 0.930 . S
H83 C73 0.929 . S
Eu84 N113 2.600 . S
Eu84 N119 2.562 . S
Eu84 O128 2.462 . S
Eu84 O129 2.373 . S
Eu84 O131 2.432 . S
Eu84 O132 2.291 . S
Eu84 O136 2.335 . S
Eu84 O139 2.372 . S
Eu84 C148 2.787 . S
C85 N86 1.365 . S
C85 C88 1.405 . S
C85 C92 1.448 . S
N86 C85 1.365 . S
N86 C89 1.319 . S
N86 Eu95 2.600 . S
C87 C89 1.397 . S
C87 C90 1.367 . S
C87 H107 0.931 . S
C88 C85 1.405 . S
C88 C90 1.403 . S
C88 C94 1.439 . S
C89 N86 1.319 . S
C89 C87 1.397 . S
C89 H100 0.930 . S
C90 C87 1.367 . S
C90 C88 1.403 . S
C90 H111 0.929 . S
C91 C92 1.430 . S
C91 C93 1.387 . S
C91 C97 1.404 . S
C92 C85 1.448 . S
C92 C91 1.430 . S
C92 N96 1.351 . S
C93 C91 1.387 . S
C93 C94 1.374 . S
C93 H108 0.931 . S
C94 C88 1.439 . S
C94 C93 1.374 . S
C94 H109 0.931 . S
Eu95 N86 2.600 . S
Eu95 N96 2.562 . S
Eu95 O130 2.335 . S
Eu95 O133 2.372 . S
Eu95 O134 2.462 . S
Eu95 O135 2.373 . S
Eu95 O137 2.432 . S
Eu95 O138 2.291 . S
Eu95 C159 2.787 . S
N96 C92 1.351 . S
N96 Eu95 2.562 . S
N96 C98 1.325 . S
C97 C91 1.404 . S
C97 C99 1.366 . S
C97 H105 0.930 . S
C98 N96 1.325 . S
C98 C99 1.416 . S
C98 H104 0.929 . S
C99 C97 1.366 . S
C99 C98 1.416 . S
C99 H101 0.930 . S
H100 C89 0.930 . S
H101 C99 0.930 . S
H102 C117 0.930 . S
H103 C124 0.930 . S
H104 C98 0.929 . S
H105 C97 0.930 . S
H106 C120 0.929 . S
H107 C87 0.931 . S
H108 C93 0.931 . S
H109 C94 0.931 . S
H110 C115 0.931 . S
H111 C90 0.929 . S
H112 C123 0.930 . S
N113 Eu84 2.600 . S
N113 C114 1.365 . S
N113 C117 1.319 . S
C114 N113 1.365 . S
C114 C116 1.405 . S
C114 C122 1.448 . S
C115 H110 0.931 . S
C115 C117 1.397 . S
C115 C118 1.367 . S
C116 C114 1.405 . S
C116 C118 1.403 . S
C116 C149 1.439 . S
C117 H102 0.930 . S
C117 N113 1.319 . S
C117 C115 1.397 . S
C118 C115 1.367 . S
C118 C116 1.403 . S
C118 H125 0.929 . S
N119 Eu84 2.562 . S
N119 C120 1.325 . S
N119 C122 1.351 . S
C120 H106 0.929 . S
C120 N119 1.325 . S
C120 C124 1.416 . S
C121 C122 1.430 . S
C121 C123 1.404 . S
C121 C150 1.387 . S
C122 C114 1.448 . S
C122 N119 1.351 . S
C122 C121 1.430 . S
C123 H112 0.930 . S
C123 C121 1.404 . S
C123 C124 1.366 . S
C124 H103 0.930 . S
C124 C120 1.416 . S
C124 C123 1.366 . S
H125 C118 0.929 . S
H126 C149 0.931 . S
H127 C150 0.931 . S
O128 Eu84 2.462 . S
O128 C148 1.252 . S
O129 Eu84 2.373 . S
O129 C140 1.249 . S
O130 Eu95 2.335 . S
O130 C140 1.264 . S
O131 Eu84 2.432 . S
O131 C148 1.268 . S
O132 Eu84 2.291 . S
O132 C147 1.255 . S
O133 Eu95 2.372 . S
O133 C147 1.257 . S
O134 Eu95 2.462 . S
O134 C159 1.252 . S
O135 Eu95 2.373 . S
O135 C151 1.249 . S
O136 Eu84 2.335 . S
O136 C151 1.264 . S
O137 Eu95 2.432 . S
O137 C159 1.268 . S
O138 Eu95 2.291 . S
O138 C158 1.255 . S
O139 Eu84 2.372 . S
O139 C158 1.257 . S
C140 O129 1.249 . S
C140 O130 1.264 . S
C141 C144 1.382 . S
C141 C146 1.390 . S
C141 C148 1.506 . S
C142 C143 1.398 . S
C142 C146 1.392 . S
C143 C142 1.398 . S
C143 C145 1.372 . S
C143 H160 0.931 . S
C144 C141 1.382 . S
C144 C145 1.390 . S
C144 H161 0.931 . S
C145 C143 1.372 . S
C145 C144 1.390 . S
C145 H162 0.929 . S
C146 C141 1.390 . S
C146 C142 1.392 . S
C146 H163 0.930 . S
C147 O132 1.255 . S
C147 O133 1.257 . S
C148 Eu84 2.787 . S
C148 O128 1.252 . S
C148 O131 1.268 . S
C148 C141 1.506 . S
C149 C116 1.439 . S
C149 H126 0.931 . S
C149 C150 1.374 . S
C150 C121 1.387 . S
C150 H127 0.931 . S
C150 C149 1.374 . S
C151 O135 1.249 . S
C151 O136 1.264 . S
C152 C155 1.382 . S
C152 C156 1.390 . S
C152 C159 1.506 . S
C153 C154 1.398 . S
C153 C156 1.392 . S
C154 C153 1.398 . S
C154 C157 1.372 . S
C154 H164 0.931 . S
C155 C152 1.382 . S
C155 C157 1.390 . S
C155 H165 0.931 . S
C156 C152 1.390 . S
C156 C153 1.392 . S
C156 H166 0.930 . S
C157 C154 1.372 . S
C157 C155 1.390 . S
C157 H167 0.929 . S
C158 O138 1.255 . S
C158 O139 1.257 . S
C159 Eu95 2.787 . S
C159 O134 1.252 . S
C159 O137 1.268 . S
C159 C152 1.506 . S
H160 C143 0.931 . S
H161 C144 0.931 . S
H162 C145 0.929 . S
H163 C146 0.930 . S
H164 C154 0.931 . S
H165 C155 0.931 . S
H166 C156 0.930 . S
H167 C157 0.929 . S
Eu168 N197 2.600 . S
Eu168 N203 2.562 . S
Eu168 O212 2.462 . S
Eu168 O213 2.373 . S
Eu168 O215 2.432 . S
Eu168 O216 2.291 . S
Eu168 O220 2.335 . S
Eu168 O223 2.372 . S
Eu168 C232 2.787 . S
C169 N170 1.365 . S
C169 C172 1.405 . S
C169 C176 1.448 . S
N170 C169 1.365 . S
N170 C173 1.319 . S
N170 Eu179 2.600 . S
C171 C173 1.397 . S
C171 C174 1.367 . S
C171 H191 0.931 . S
C172 C169 1.405 . S
C172 C174 1.403 . S
C172 C178 1.439 . S
C173 N170 1.319 . S
C173 C171 1.397 . S
C173 H184 0.930 . S
C174 C171 1.367 . S
C174 C172 1.403 . S
C174 H195 0.929 . S
C175 C176 1.430 . S
C175 C177 1.387 . S
C175 C181 1.404 . S
C176 C169 1.448 . S
C176 C175 1.430 . S
C176 N180 1.351 . S
C177 C175 1.387 . S
C177 C178 1.374 . S
C177 H192 0.931 . S
C178 C172 1.439 . S
C178 C177 1.374 . S
C178 H193 0.931 . S
Eu179 N170 2.600 . S
Eu179 N180 2.562 . S
Eu179 O214 2.335 . S
Eu179 O217 2.372 . S
Eu179 O218 2.462 . S
Eu179 O219 2.373 . S
Eu179 O221 2.432 . S
Eu179 O222 2.291 . S
Eu179 C243 2.787 . S
N180 C176 1.351 . S
N180 Eu179 2.562 . S
N180 C182 1.325 . S
C181 C175 1.404 . S
C181 C183 1.366 . S
C181 H189 0.930 . S
C182 N180 1.325 . S
C182 C183 1.416 . S
C182 H188 0.929 . S
C183 C181 1.366 . S
C183 C182 1.416 . S
C183 H185 0.930 . S
H184 C173 0.930 . S
H185 C183 0.930 . S
H186 C201 0.930 . S
H187 C208 0.930 . S
H188 C182 0.929 . S
H189 C181 0.930 . S
H190 C204 0.929 . S
H191 C171 0.931 . S
H192 C177 0.931 . S
H193 C178 0.931 . S
H194 C199 0.931 . S
H195 C174 0.929 . S
H196 C207 0.930 . S
N197 Eu168 2.600 . S
N197 C198 1.365 . S
N197 C201 1.319 . S
C198 N197 1.365 . S
C198 C200 1.405 . S
C198 C206 1.448 . S
C199 H194 0.931 . S
C199 C201 1.397 . S
C199 C202 1.367 . S
C200 C198 1.405 . S
C200 C202 1.403 . S
C200 C233 1.439 . S
C201 H186 0.930 . S
C201 N197 1.319 . S
C201 C199 1.397 . S
C202 C199 1.367 . S
C202 C200 1.403 . S
C202 H209 0.929 . S
N203 Eu168 2.562 . S
N203 C204 1.325 . S
N203 C206 1.351 . S
C204 H190 0.929 . S
C204 N203 1.325 . S
C204 C208 1.416 . S
C205 C206 1.430 . S
C205 C207 1.404 . S
C205 C234 1.387 . S
C206 C198 1.448 . S
C206 N203 1.351 . S
C206 C205 1.430 . S
C207 H196 0.930 . S
C207 C205 1.404 . S
C207 C208 1.366 . S
C208 H187 0.930 . S
C208 C204 1.416 . S
C208 C207 1.366 . S
H209 C202 0.929 . S
H210 C233 0.931 . S
H211 C234 0.931 . S
O212 Eu168 2.462 . S
O212 C232 1.252 . S
O213 Eu168 2.373 . S
O213 C224 1.249 . S
O214 Eu179 2.335 . S
O214 C224 1.264 . S
O215 Eu168 2.432 . S
O215 C232 1.268 . S
O216 Eu168 2.291 . S
O216 C231 1.255 . S
O217 Eu179 2.372 . S
O217 C231 1.257 . S
O218 Eu179 2.462 . S
O218 C243 1.252 . S
O219 Eu179 2.373 . S
O219 C235 1.249 . S
O220 Eu168 2.335 . S
O220 C235 1.264 . S
O221 Eu179 2.432 . S
O221 C243 1.268 . S
O222 Eu179 2.291 . S
O222 C242 1.255 . S
O223 Eu168 2.372 . S
O223 C242 1.257 . S
C224 O213 1.249 . S
C224 O214 1.264 . S
C225 C228 1.382 . S
C225 C230 1.390 . S
C225 C232 1.506 . S
C226 C227 1.398 . S
C226 C230 1.392 . S
C227 C226 1.398 . S
C227 C229 1.372 . S
C227 H244 0.931 . S
C228 C225 1.382 . S
C228 C229 1.390 . S
C228 H245 0.931 . S
C229 C227 1.372 . S
C229 C228 1.390 . S
C229 H246 0.929 . S
C230 C225 1.390 . S
C230 C226 1.392 . S
C230 H247 0.930 . S
C231 O216 1.255 . S
C231 O217 1.257 . S
C232 Eu168 2.787 . S
C232 O212 1.252 . S
C232 O215 1.268 . S
C232 C225 1.506 . S
C233 C200 1.439 . S
C233 H210 0.931 . S
C233 C234 1.374 . S
C234 C205 1.387 . S
C234 H211 0.931 . S
C234 C233 1.374 . S
C235 O219 1.249 . S
C235 O220 1.264 . S
C236 C239 1.382 . S
C236 C240 1.390 . S
C236 C243 1.506 . S
C237 C238 1.398 . S
C237 C240 1.392 . S
C238 C237 1.398 . S
C238 C241 1.372 . S
C238 H248 0.931 . S
C239 C236 1.382 . S
C239 C241 1.390 . S
C239 H249 0.931 . S
C240 C236 1.390 . S
C240 C237 1.392 . S
C240 H250 0.930 . S
C241 C238 1.372 . S
C241 C239 1.390 . S
C241 H251 0.929 . S
C242 O222 1.255 . S
C242 O223 1.257 . S
C243 Eu179 2.787 . S
C243 O218 1.252 . S
C243 O221 1.268 . S
C243 C236 1.506 . S
H244 C227 0.931 . S
H245 C228 0.931 . S
H246 C229 0.929 . S
H247 C230 0.930 . S
H248 C238 0.931 . S
H249 C239 0.931 . S
H250 C240 0.930 . S
H251 C241 0.929 . S
Eu252 N281 2.600 . S
Eu252 N287 2.562 . S
Eu252 O296 2.462 . S
Eu252 O297 2.373 . S
Eu252 O299 2.432 . S
Eu252 O300 2.291 . S
Eu252 O304 2.335 . S
Eu252 O307 2.372 . S
Eu252 C316 2.787 . S
C253 N254 1.365 . S
C253 C256 1.405 . S
C253 C260 1.448 . S
N254 C253 1.365 . S
N254 C257 1.319 . S
N254 Eu263 2.600 . S
C255 C257 1.397 . S
C255 C258 1.367 . S
C255 H275 0.931 . S
C256 C253 1.405 . S
C256 C258 1.403 . S
C256 C262 1.439 . S
C257 N254 1.319 . S
C257 C255 1.397 . S
C257 H268 0.930 . S
C258 C255 1.367 . S
C258 C256 1.403 . S
C258 H279 0.929 . S
C259 C260 1.430 . S
C259 C261 1.387 . S
C259 C265 1.404 . S
C260 C253 1.448 . S
C260 C259 1.430 . S
C260 N264 1.351 . S
C261 C259 1.387 . S
C261 C262 1.374 . S
C261 H276 0.931 . S
C262 C256 1.439 . S
C262 C261 1.374 . S
C262 H277 0.931 . S
Eu263 N254 2.600 . S
Eu263 N264 2.562 . S
Eu263 O298 2.335 . S
Eu263 O301 2.372 . S
Eu263 O302 2.462 . S
Eu263 O303 2.373 . S
Eu263 O305 2.432 . S
Eu263 O306 2.291 . S
Eu263 C327 2.787 . S
N264 C260 1.351 . S
N264 Eu263 2.562 . S
N264 C266 1.325 . S
C265 C259 1.404 . S
C265 C267 1.366 . S
C265 H273 0.930 . S
C266 N264 1.325 . S
C266 C267 1.416 . S
C266 H272 0.929 . S
C267 C265 1.366 . S
C267 C266 1.416 . S
C267 H269 0.930 . S
H268 C257 0.930 . S
H269 C267 0.930 . S
H270 C285 0.930 . S
H271 C292 0.930 . S
H272 C266 0.929 . S
H273 C265 0.930 . S
H274 C288 0.929 . S
H275 C255 0.931 . S
H276 C261 0.931 . S
H277 C262 0.931 . S
H278 C283 0.931 . S
H279 C258 0.929 . S
H280 C291 0.930 . S
N281 Eu252 2.600 . S
N281 C282 1.365 . S
N281 C285 1.319 . S
C282 N281 1.365 . S
C282 C284 1.405 . S
C282 C290 1.448 . S
C283 H278 0.931 . S
C283 C285 1.397 . S
C283 C286 1.367 . S
C284 C282 1.405 . S
C284 C286 1.403 . S
C284 C317 1.439 . S
C285 H270 0.930 . S
C285 N281 1.319 . S
C285 C283 1.397 . S
C286 C283 1.367 . S
C286 C284 1.403 . S
C286 H293 0.929 . S
N287 Eu252 2.562 . S
N287 C288 1.325 . S
N287 C290 1.351 . S
C288 H274 0.929 . S
C288 N287 1.325 . S
C288 C292 1.416 . S
C289 C290 1.430 . S
C289 C291 1.404 . S
C289 C318 1.387 . S
C290 C282 1.448 . S
C290 N287 1.351 . S
C290 C289 1.430 . S
C291 H280 0.930 . S
C291 C289 1.404 . S
C291 C292 1.366 . S
C292 H271 0.930 . S
C292 C288 1.416 . S
C292 C291 1.366 . S
H293 C286 0.929 . S
H294 C317 0.931 . S
H295 C318 0.931 . S
O296 Eu252 2.462 . S
O296 C316 1.252 . S
O297 Eu252 2.373 . S
O297 C308 1.249 . S
O298 Eu263 2.335 . S
O298 C308 1.264 . S
O299 Eu252 2.432 . S
O299 C316 1.268 . S
O300 Eu252 2.291 . S
O300 C315 1.255 . S
O301 Eu263 2.372 . S
O301 C315 1.257 . S
O302 Eu263 2.462 . S
O302 C327 1.252 . S
O303 Eu263 2.373 . S
O303 C319 1.249 . S
O304 Eu252 2.335 . S
O304 C319 1.264 . S
O305 Eu263 2.432 . S
O305 C327 1.268 . S
O306 Eu263 2.291 . S
O306 C326 1.255 . S
O307 Eu252 2.372 . S
O307 C326 1.257 . S
C308 O297 1.249 . S
C308 O298 1.264 . S
C309 C312 1.382 . S
C309 C314 1.390 . S
C309 C316 1.506 . S
C310 C311 1.398 . S
C310 C314 1.392 . S
C311 C310 1.398 . S
C311 C313 1.372 . S
C311 H328 0.931 . S
C312 C309 1.382 . S
C312 C313 1.390 . S
C312 H329 0.931 . S
C313 C311 1.372 . S
C313 C312 1.390 . S
C313 H330 0.929 . S
C314 C309 1.390 . S
C314 C310 1.392 . S
C314 H331 0.930 . S
C315 O300 1.255 . S
C315 O301 1.257 . S
C316 Eu252 2.787 . S
C316 O296 1.252 . S
C316 O299 1.268 . S
C316 C309 1.506 . S
C317 C284 1.439 . S
C317 H294 0.931 . S
C317 C318 1.374 . S
C318 C289 1.387 . S
C318 H295 0.931 . S
C318 C317 1.374 . S
C319 O303 1.249 . S
C319 O304 1.264 . S
C320 C323 1.382 . S
C320 C324 1.390 . S
C320 C327 1.506 . S
C321 C322 1.398 . S
C321 C324 1.392 . S
C322 C321 1.398 . S
C322 C325 1.372 . S
C322 H332 0.931 . S
C323 C320 1.382 . S
C323 C325 1.390 . S
C323 H333 0.931 . S
C324 C320 1.390 . S
C324 C321 1.392 . S
C324 H334 0.930 . S
C325 C322 1.372 . S
C325 C323 1.390 . S
C325 H335 0.929 . S
C326 O306 1.255 . S
C326 O307 1.257 . S
C327 Eu263 2.787 . S
C327 O302 1.252 . S
C327 O305 1.268 . S
C327 C320 1.506 . S
H328 C311 0.931 . S
H329 C312 0.931 . S
H330 C313 0.929 . S
H331 C314 0.930 . S
H332 C322 0.931 . S
H333 C323 0.931 . S
H334 C324 0.930 . S
H335 C325 0.929 . S
Eu336 N365 2.600 . S
Eu336 N371 2.562 . S
Eu336 O380 2.462 . S
Eu336 O381 2.373 . S
Eu336 O383 2.432 . S
Eu336 O384 2.291 . S
Eu336 O388 2.335 . S
Eu336 O391 2.372 . S
Eu336 C400 2.787 . S
C337 N338 1.365 . S
C337 C340 1.405 . S
C337 C344 1.448 . S
N338 C337 1.365 . S
N338 C341 1.319 . S
N338 Eu347 2.600 . S
C339 C341 1.397 . S
C339 C342 1.367 . S
C339 H359 0.931 . S
C340 C337 1.405 . S
C340 C342 1.403 . S
C340 C346 1.439 . S
C341 N338 1.319 . S
C341 C339 1.397 . S
C341 H352 0.930 . S
C342 C339 1.367 . S
C342 C340 1.403 . S
C342 H363 0.929 . S
C343 C344 1.430 . S
C343 C345 1.387 . S
C343 C349 1.404 . S
C344 C337 1.448 . S
C344 C343 1.430 . S
C344 N348 1.351 . S
C345 C343 1.387 . S
C345 C346 1.374 . S
C345 H360 0.931 . S
C346 C340 1.439 . S
C346 C345 1.374 . S
C346 H361 0.931 . S
Eu347 N338 2.600 . S
Eu347 N348 2.562 . S
Eu347 O382 2.335 . S
Eu347 O385 2.372 . S
Eu347 O386 2.462 . S
Eu347 O387 2.373 . S
Eu347 O389 2.432 . S
Eu347 O390 2.291 . S
Eu347 C411 2.787 . S
N348 C344 1.351 . S
N348 Eu347 2.562 . S
N348 C350 1.325 . S
C349 C343 1.404 . S
C349 C351 1.366 . S
C349 H357 0.930 . S
C350 N348 1.325 . S
C350 C351 1.416 . S
C350 H356 0.929 . S
C351 C349 1.366 . S
C351 C350 1.416 . S
C351 H353 0.930 . S
H352 C341 0.930 . S
H353 C351 0.930 . S
H354 C369 0.930 . S
H355 C376 0.930 . S
H356 C350 0.929 . S
H357 C349 0.930 . S
H358 C372 0.929 . S
H359 C339 0.931 . S
H360 C345 0.931 . S
H361 C346 0.931 . S
H362 C367 0.931 . S
H363 C342 0.929 . S
H364 C375 0.930 . S
N365 Eu336 2.600 . S
N365 C366 1.365 . S
N365 C369 1.319 . S
C366 N365 1.365 . S
C366 C368 1.405 . S
C366 C374 1.448 . S
C367 H362 0.931 . S
C367 C369 1.397 . S
C367 C370 1.367 . S
C368 C366 1.405 . S
C368 C370 1.403 . S
C368 C401 1.439 . S
C369 H354 0.930 . S
C369 N365 1.319 . S
C369 C367 1.397 . S
C370 C367 1.367 . S
C370 C368 1.403 . S
C370 H377 0.929 . S
N371 Eu336 2.562 . S
N371 C372 1.325 . S
N371 C374 1.351 . S
C372 H358 0.929 . S
C372 N371 1.325 . S
C372 C376 1.416 . S
C373 C374 1.430 . S
C373 C375 1.404 . S
C373 C402 1.387 . S
C374 C366 1.448 . S
C374 N371 1.351 . S
C374 C373 1.430 . S
C375 H364 0.930 . S
C375 C373 1.404 . S
C375 C376 1.366 . S
C376 H355 0.930 . S
C376 C372 1.416 . S
C376 C375 1.366 . S
H377 C370 0.929 . S
H378 C401 0.931 . S
H379 C402 0.931 . S
O380 Eu336 2.462 . S
O380 C400 1.252 . S
O381 Eu336 2.373 . S
O381 C392 1.249 . S
O382 Eu347 2.335 . S
O382 C392 1.264 . S
O383 Eu336 2.432 . S
O383 C400 1.268 . S
O384 Eu336 2.291 . S
O384 C399 1.255 . S
O385 Eu347 2.372 . S
O385 C399 1.257 . S
O386 Eu347 2.462 . S
O386 C411 1.252 . S
O387 Eu347 2.373 . S
O387 C403 1.249 . S
O388 Eu336 2.335 . S
O388 C403 1.264 . S
O389 Eu347 2.432 . S
O389 C411 1.268 . S
O390 Eu347 2.291 . S
O390 C410 1.255 . S
O391 Eu336 2.372 . S
O391 C410 1.257 . S
C392 O381 1.249 . S
C392 O382 1.264 . S
C393 C396 1.382 . S
C393 C398 1.390 . S
C393 C400 1.506 . S
C394 C395 1.398 . S
C394 C398 1.392 . S
C395 C394 1.398 . S
C395 C397 1.372 . S
C395 H412 0.931 . S
C396 C393 1.382 . S
C396 C397 1.390 . S
C396 H413 0.931 . S
C397 C395 1.372 . S
C397 C396 1.390 . S
C397 H414 0.929 . S
C398 C393 1.390 . S
C398 C394 1.392 . S
C398 H415 0.930 . S
C399 O384 1.255 . S
C399 O385 1.257 . S
C400 Eu336 2.787 . S
C400 O380 1.252 . S
C400 O383 1.268 . S
C400 C393 1.506 . S
C401 C368 1.439 . S
C401 H378 0.931 . S
C401 C402 1.374 . S
C402 C373 1.387 . S
C402 H379 0.931 . S
C402 C401 1.374 . S
C403 O387 1.249 . S
C403 O388 1.264 . S
C404 C407 1.382 . S
C404 C408 1.390 . S
C404 C411 1.506 . S
C405 C406 1.398 . S
C405 C408 1.392 . S
C406 C405 1.398 . S
C406 C409 1.372 . S
C406 H416 0.931 . S
C407 C404 1.382 . S
C407 C409 1.390 . S
C407 H417 0.931 . S
C408 C404 1.390 . S
C408 C405 1.392 . S
C408 H418 0.930 . S
C409 C406 1.372 . S
C409 C407 1.390 . S
C409 H419 0.929 . S
C410 O390 1.255 . S
C410 O391 1.257 . S
C411 Eu347 2.787 . S
C411 O386 1.252 . S
C411 O389 1.268 . S
C411 C404 1.506 . S
H412 C395 0.931 . S
H413 C396 0.931 . S
H414 C397 0.929 . S
H415 C398 0.930 . S
H416 C406 0.931 . S
H417 C407 0.931 . S
H418 C408 0.930 . S
H419 C409 0.929 . S
Eu420 N449 2.600 . S
Eu420 N455 2.562 . S
Eu420 O464 2.462 . S
Eu420 O465 2.373 . S
Eu420 O467 2.432 . S
Eu420 O468 2.291 . S
Eu420 O472 2.335 . S
Eu420 O475 2.372 . S
Eu420 C484 2.787 . S
C421 N422 1.365 . S
C421 C424 1.405 . S
C421 C428 1.448 . S
N422 C421 1.365 . S
N422 C425 1.319 . S
N422 Eu431 2.600 . S
C423 C425 1.397 . S
C423 C426 1.367 . S
C423 H443 0.931 . S
C424 C421 1.405 . S
C424 C426 1.403 . S
C424 C430 1.439 . S
C425 N422 1.319 . S
C425 C423 1.397 . S
C425 H436 0.930 . S
C426 C423 1.367 . S
C426 C424 1.403 . S
C426 H447 0.929 . S
C427 C428 1.430 . S
C427 C429 1.387 . S
C427 C433 1.404 . S
C428 C421 1.448 . S
C428 C427 1.430 . S
C428 N432 1.351 . S
C429 C427 1.387 . S
C429 C430 1.374 . S
C429 H444 0.931 . S
C430 C424 1.439 . S
C430 C429 1.374 . S
C430 H445 0.931 . S
Eu431 N422 2.600 . S
Eu431 N432 2.562 . S
Eu431 O466 2.335 . S
Eu431 O469 2.372 . S
Eu431 O470 2.462 . S
Eu431 O471 2.373 . S
Eu431 O473 2.432 . S
Eu431 O474 2.291 . S
Eu431 C495 2.787 . S
N432 C428 1.351 . S
N432 Eu431 2.562 . S
N432 C434 1.325 . S
C433 C427 1.404 . S
C433 C435 1.366 . S
C433 H441 0.930 . S
C434 N432 1.325 . S
C434 C435 1.416 . S
C434 H440 0.929 . S
C435 C433 1.366 . S
C435 C434 1.416 . S
C435 H437 0.930 . S
H436 C425 0.930 . S
H437 C435 0.930 . S
H438 C453 0.930 . S
H439 C460 0.930 . S
H440 C434 0.929 . S
H441 C433 0.930 . S
H442 C456 0.929 . S
H443 C423 0.931 . S
H444 C429 0.931 . S
H445 C430 0.931 . S
H446 C451 0.931 . S
H447 C426 0.929 . S
H448 C459 0.930 . S
N449 Eu420 2.600 . S
N449 C450 1.365 . S
N449 C453 1.319 . S
C450 N449 1.365 . S
C450 C452 1.405 . S
C450 C458 1.448 . S
C451 H446 0.931 . S
C451 C453 1.397 . S
C451 C454 1.367 . S
C452 C450 1.405 . S
C452 C454 1.403 . S
C452 C485 1.439 . S
C453 H438 0.930 . S
C453 N449 1.319 . S
C453 C451 1.397 . S
C454 C451 1.367 . S
C454 C452 1.403 . S
C454 H461 0.929 . S
N455 Eu420 2.562 . S
N455 C456 1.325 . S
N455 C458 1.351 . S
C456 H442 0.929 . S
C456 N455 1.325 . S
C456 C460 1.416 . S
C457 C458 1.430 . S
C457 C459 1.404 . S
C457 C486 1.387 . S
C458 C450 1.448 . S
C458 N455 1.351 . S
C458 C457 1.430 . S
C459 H448 0.930 . S
C459 C457 1.404 . S
C459 C460 1.366 . S
C460 H439 0.930 . S
C460 C456 1.416 . S
C460 C459 1.366 . S
H461 C454 0.929 . S
H462 C485 0.931 . S
H463 C486 0.931 . S
O464 Eu420 2.462 . S
O464 C484 1.252 . S
O465 Eu420 2.373 . S
O465 C476 1.249 . S
O466 Eu431 2.335 . S
O466 C476 1.264 . S
O467 Eu420 2.432 . S
O467 C484 1.268 . S
O468 Eu420 2.291 . S
O468 C483 1.255 . S
O469 Eu431 2.372 . S
O469 C483 1.257 . S
O470 Eu431 2.462 . S
O470 C495 1.252 . S
O471 Eu431 2.373 . S
O471 C487 1.249 . S
O472 Eu420 2.335 . S
O472 C487 1.264 . S
O473 Eu431 2.432 . S
O473 C495 1.268 . S
O474 Eu431 2.291 . S
O474 C494 1.255 . S
O475 Eu420 2.372 . S
O475 C494 1.257 . S
C476 O465 1.249 . S
C476 O466 1.264 . S
C477 C480 1.382 . S
C477 C482 1.390 . S
C477 C484 1.506 . S
C478 C479 1.398 . S
C478 C482 1.392 . S
C479 C478 1.398 . S
C479 C481 1.372 . S
C479 H496 0.931 . S
C480 C477 1.382 . S
C480 C481 1.390 . S
C480 H497 0.931 . S
C481 C479 1.372 . S
C481 C480 1.390 . S
C481 H498 0.929 . S
C482 C477 1.390 . S
C482 C478 1.392 . S
C482 H499 0.930 . S
C483 O468 1.255 . S
C483 O469 1.257 . S
C484 Eu420 2.787 . S
C484 O464 1.252 . S
C484 O467 1.268 . S
C484 C477 1.506 . S
C485 C452 1.439 . S
C485 H462 0.931 . S
C485 C486 1.374 . S
C486 C457 1.387 . S
C486 H463 0.931 . S
C486 C485 1.374 . S
C487 O471 1.249 . S
C487 O472 1.264 . S
C488 C491 1.382 . S
C488 C492 1.390 . S
C488 C495 1.506 . S
C489 C490 1.398 . S
C489 C492 1.392 . S
C490 C489 1.398 . S
C490 C493 1.372 . S
C490 H500 0.931 . S
C491 C488 1.382 . S
C491 C493 1.390 . S
C491 H501 0.931 . S
C492 C488 1.390 . S
C492 C489 1.392 . S
C492 H502 0.930 . S
C493 C490 1.372 . S
C493 C491 1.390 . S
C493 H503 0.929 . S
C494 O474 1.255 . S
C494 O475 1.257 . S
C495 Eu431 2.787 . S
C495 O470 1.252 . S
C495 O473 1.268 . S
C495 C488 1.506 . S
H496 C479 0.931 . S
H497 C480 0.931 . S
H498 C481 0.929 . S
H499 C482 0.930 . S
H500 C490 0.931 . S
H501 C491 0.931 . S
H502 C492 0.930 . S
H503 C493 0.929 . S
Eu504 N533 2.600 . S
Eu504 N539 2.562 . S
Eu504 O548 2.462 . S
Eu504 O549 2.373 . S
Eu504 O551 2.432 . S
Eu504 O552 2.291 . S
Eu504 O556 2.335 . S
Eu504 O559 2.372 . S
Eu504 C568 2.787 . S
C505 N506 1.365 . S
C505 C508 1.405 . S
C505 C512 1.448 . S
N506 C505 1.365 . S
N506 C509 1.319 . S
N506 Eu515 2.600 . S
C507 C509 1.397 . S
C507 C510 1.367 . S
C507 H527 0.931 . S
C508 C505 1.405 . S
C508 C510 1.403 . S
C508 C514 1.439 . S
C509 N506 1.319 . S
C509 C507 1.397 . S
C509 H520 0.930 . S
C510 C507 1.367 . S
C510 C508 1.403 . S
C510 H531 0.929 . S
C511 C512 1.430 . S
C511 C513 1.387 . S
C511 C517 1.404 . S
C512 C505 1.448 . S
C512 C511 1.430 . S
C512 N516 1.351 . S
C513 C511 1.387 . S
C513 C514 1.374 . S
C513 H528 0.931 . S
C514 C508 1.439 . S
C514 C513 1.374 . S
C514 H529 0.931 . S
Eu515 N506 2.600 . S
Eu515 N516 2.562 . S
Eu515 O550 2.335 . S
Eu515 O553 2.372 . S
Eu515 O554 2.462 . S
Eu515 O555 2.373 . S
Eu515 O557 2.432 . S
Eu515 O558 2.291 . S
Eu515 C579 2.787 . S
N516 C512 1.351 . S
N516 Eu515 2.562 . S
N516 C518 1.325 . S
C517 C511 1.404 . S
C517 C519 1.366 . S
C517 H525 0.930 . S
C518 N516 1.325 . S
C518 C519 1.416 . S
C518 H524 0.929 . S
C519 C517 1.366 . S
C519 C518 1.416 . S
C519 H521 0.930 . S
H520 C509 0.930 . S
H521 C519 0.930 . S
H522 C537 0.930 . S
H523 C544 0.930 . S
H524 C518 0.929 . S
H525 C517 0.930 . S
H526 C540 0.929 . S
H527 C507 0.931 . S
H528 C513 0.931 . S
H529 C514 0.931 . S
H530 C535 0.931 . S
H531 C510 0.929 . S
H532 C543 0.930 . S
N533 Eu504 2.600 . S
N533 C534 1.365 . S
N533 C537 1.319 . S
C534 N533 1.365 . S
C534 C536 1.405 . S
C534 C542 1.448 . S
C535 H530 0.931 . S
C535 C537 1.397 . S
C535 C538 1.367 . S
C536 C534 1.405 . S
C536 C538 1.403 . S
C536 C569 1.439 . S
C537 H522 0.930 . S
C537 N533 1.319 . S
C537 C535 1.397 . S
C538 C535 1.367 . S
C538 C536 1.403 . S
C538 H545 0.929 . S
N539 Eu504 2.562 . S
N539 C540 1.325 . S
N539 C542 1.351 . S
C540 H526 0.929 . S
C540 N539 1.325 . S
C540 C544 1.416 . S
C541 C542 1.430 . S
C541 C543 1.404 . S
C541 C570 1.387 . S
C542 C534 1.448 . S
C542 N539 1.351 . S
C542 C541 1.430 . S
C543 H532 0.930 . S
C543 C541 1.404 . S
C543 C544 1.366 . S
C544 H523 0.930 . S
C544 C540 1.416 . S
C544 C543 1.366 . S
H545 C538 0.929 . S
H546 C569 0.931 . S
H547 C570 0.931 . S
O548 Eu504 2.462 . S
O548 C568 1.252 . S
O549 Eu504 2.373 . S
O549 C560 1.249 . S
O550 Eu515 2.335 . S
O550 C560 1.264 . S
O551 Eu504 2.432 . S
O551 C568 1.268 . S
O552 Eu504 2.291 . S
O552 C567 1.255 . S
O553 Eu515 2.372 . S
O553 C567 1.257 . S
O554 Eu515 2.462 . S
O554 C579 1.252 . S
O555 Eu515 2.373 . S
O555 C571 1.249 . S
O556 Eu504 2.335 . S
O556 C571 1.264 . S
O557 Eu515 2.432 . S
O557 C579 1.268 . S
O558 Eu515 2.291 . S
O558 C578 1.255 . S
O559 Eu504 2.372 . S
O559 C578 1.257 . S
C560 O549 1.249 . S
C560 O550 1.264 . S
C561 C564 1.382 . S
C561 C566 1.390 . S
C561 C568 1.506 . S
C562 C563 1.398 . S
C562 C566 1.392 . S
C563 C562 1.398 . S
C563 C565 1.372 . S
C563 H580 0.931 . S
C564 C561 1.382 . S
C564 C565 1.390 . S
C564 H581 0.931 . S
C565 C563 1.372 . S
C565 C564 1.390 . S
C565 H582 0.929 . S
C566 C561 1.390 . S
C566 C562 1.392 . S
C566 H583 0.930 . S
C567 O552 1.255 . S
C567 O553 1.257 . S
C568 Eu504 2.787 . S
C568 O548 1.252 . S
C568 O551 1.268 . S
C568 C561 1.506 . S
C569 C536 1.439 . S
C569 H546 0.931 . S
C569 C570 1.374 . S
C570 C541 1.387 . S
C570 H547 0.931 . S
C570 C569 1.374 . S
C571 O555 1.249 . S
C571 O556 1.264 . S
C572 C575 1.382 . S
C572 C576 1.390 . S
C572 C579 1.506 . S
C573 C574 1.398 . S
C573 C576 1.392 . S
C574 C573 1.398 . S
C574 C577 1.372 . S
C574 H584 0.931 . S
C575 C572 1.382 . S
C575 C577 1.390 . S
C575 H585 0.931 . S
C576 C572 1.390 . S
C576 C573 1.392 . S
C576 H586 0.930 . S
C577 C574 1.372 . S
C577 C575 1.390 . S
C577 H587 0.929 . S
C578 O558 1.255 . S
C578 O559 1.257 . S
C579 Eu515 2.787 . S
C579 O554 1.252 . S
C579 O557 1.268 . S
C579 C572 1.506 . S
H580 C563 0.931 . S
H581 C564 0.931 . S
H582 C565 0.929 . S
H583 C566 0.930 . S
H584 C574 0.931 . S
H585 C575 0.931 . S
H586 C576 0.930 . S
H587 C577 0.929 . S
Eu588 N617 2.600 . S
Eu588 N623 2.562 . S
Eu588 O632 2.462 . S
Eu588 O633 2.373 . S
Eu588 O635 2.432 . S
Eu588 O636 2.291 . S
Eu588 O640 2.335 . S
Eu588 O643 2.372 . S
Eu588 C652 2.787 . S
C589 N590 1.365 . S
C589 C592 1.405 . S
C589 C596 1.448 . S
N590 C589 1.365 . S
N590 C593 1.319 . S
N590 Eu599 2.600 . S
C591 C593 1.397 . S
C591 C594 1.367 . S
C591 H611 0.931 . S
C592 C589 1.405 . S
C592 C594 1.403 . S
C592 C598 1.439 . S
C593 N590 1.319 . S
C593 C591 1.397 . S
C593 H604 0.930 . S
C594 C591 1.367 . S
C594 C592 1.403 . S
C594 H615 0.929 . S
C595 C596 1.430 . S
C595 C597 1.387 . S
C595 C601 1.404 . S
C596 C589 1.448 . S
C596 C595 1.430 . S
C596 N600 1.351 . S
C597 C595 1.387 . S
C597 C598 1.374 . S
C597 H612 0.931 . S
C598 C592 1.439 . S
C598 C597 1.374 . S
C598 H613 0.931 . S
Eu599 N590 2.600 . S
Eu599 N600 2.562 . S
Eu599 O634 2.335 . S
Eu599 O637 2.372 . S
Eu599 O638 2.462 . S
Eu599 O639 2.373 . S
Eu599 O641 2.432 . S
Eu599 O642 2.291 . S
Eu599 C663 2.787 . S
N600 C596 1.351 . S
N600 Eu599 2.562 . S
N600 C602 1.325 . S
C601 C595 1.404 . S
C601 C603 1.366 . S
C601 H609 0.930 . S
C602 N600 1.325 . S
C602 C603 1.416 . S
C602 H608 0.929 . S
C603 C601 1.366 . S
C603 C602 1.416 . S
C603 H605 0.930 . S
H604 C593 0.930 . S
H605 C603 0.930 . S
H606 C621 0.930 . S
H607 C628 0.930 . S
H608 C602 0.929 . S
H609 C601 0.930 . S
H610 C624 0.929 . S
H611 C591 0.931 . S
H612 C597 0.931 . S
H613 C598 0.931 . S
H614 C619 0.931 . S
H615 C594 0.929 . S
H616 C627 0.930 . S
N617 Eu588 2.600 . S
N617 C618 1.365 . S
N617 C621 1.319 . S
C618 N617 1.365 . S
C618 C620 1.405 . S
C618 C626 1.448 . S
C619 H614 0.931 . S
C619 C621 1.397 . S
C619 C622 1.367 . S
C620 C618 1.405 . S
C620 C622 1.403 . S
C620 C653 1.439 . S
C621 H606 0.930 . S
C621 N617 1.319 . S
C621 C619 1.397 . S
C622 C619 1.367 . S
C622 C620 1.403 . S
C622 H629 0.929 . S
N623 Eu588 2.562 . S
N623 C624 1.325 . S
N623 C626 1.351 . S
C624 H610 0.929 . S
C624 N623 1.325 . S
C624 C628 1.416 . S
C625 C626 1.430 . S
C625 C627 1.404 . S
C625 C654 1.387 . S
C626 C618 1.448 . S
C626 N623 1.351 . S
C626 C625 1.430 . S
C627 H616 0.930 . S
C627 C625 1.404 . S
C627 C628 1.366 . S
C628 H607 0.930 . S
C628 C624 1.416 . S
C628 C627 1.366 . S
H629 C622 0.929 . S
H630 C653 0.931 . S
H631 C654 0.931 . S
O632 Eu588 2.462 . S
O632 C652 1.252 . S
O633 Eu588 2.373 . S
O633 C644 1.249 . S
O634 Eu599 2.335 . S
O634 C644 1.264 . S
O635 Eu588 2.432 . S
O635 C652 1.268 . S
O636 Eu588 2.291 . S
O636 C651 1.255 . S
O637 Eu599 2.372 . S
O637 C651 1.257 . S
O638 Eu599 2.462 . S
O638 C663 1.252 . S
O639 Eu599 2.373 . S
O639 C655 1.249 . S
O640 Eu588 2.335 . S
O640 C655 1.264 . S
O641 Eu599 2.432 . S
O641 C663 1.268 . S
O642 Eu599 2.291 . S
O642 C662 1.255 . S
O643 Eu588 2.372 . S
O643 C662 1.257 . S
C644 O633 1.249 . S
C644 O634 1.264 . S
C645 C648 1.382 . S
C645 C650 1.390 . S
C645 C652 1.506 . S
C646 C647 1.398 . S
C646 C650 1.392 . S
C647 C646 1.398 . S
C647 C649 1.372 . S
C647 H664 0.931 . S
C648 C645 1.382 . S
C648 C649 1.390 . S
C648 H665 0.931 . S
C649 C647 1.372 . S
C649 C648 1.390 . S
C649 H666 0.929 . S
C650 C645 1.390 . S
C650 C646 1.392 . S
C650 H667 0.930 . S
C651 O636 1.255 . S
C651 O637 1.257 . S
C652 Eu588 2.787 . S
C652 O632 1.252 . S
C652 O635 1.268 . S
C652 C645 1.506 . S
C653 C620 1.439 . S
C653 H630 0.931 . S
C653 C654 1.374 . S
C654 C625 1.387 . S
C654 H631 0.931 . S
C654 C653 1.374 . S
C655 O639 1.249 . S
C655 O640 1.264 . S
C656 C659 1.382 . S
C656 C660 1.390 . S
C656 C663 1.506 . S
C657 C658 1.398 . S
C657 C660 1.392 . S
C658 C657 1.398 . S
C658 C661 1.372 . S
C658 H668 0.931 . S
C659 C656 1.382 . S
C659 C661 1.390 . S
C659 H669 0.931 . S
C660 C656 1.390 . S
C660 C657 1.392 . S
C660 H670 0.930 . S
C661 C658 1.372 . S
C661 C659 1.390 . S
C661 H671 0.929 . S
C662 O642 1.255 . S
C662 O643 1.257 . S
C663 Eu599 2.787 . S
C663 O638 1.252 . S
C663 O641 1.268 . S
C663 C656 1.506 . S
H664 C647 0.931 . S
H665 C648 0.931 . S
H666 C649 0.929 . S
H667 C650 0.930 . S
H668 C658 0.931 . S
H669 C659 0.931 . S
H670 C660 0.930 . S
H671 C661 0.929 . S
Cd672 N675 2.334 1_655 S
Cd672 N701 2.304 1_565 S
Cd672 O708 2.268 . S
Cd672 O711 2.273 1_665 S
Cd672 O712 2.417 . S
Cd672 O713 2.330 . S
Cd673 N688 2.304 1_455 S
Cd673 N692 2.334 1_545 S
Cd673 O709 2.273 1_445 S
Cd673 O710 2.268 . S
Cd673 O714 2.417 . S
Cd673 O715 2.330 . S
C674 N675 1.332 . S
C674 C678 1.381 . S
C674 H680 0.931 . S
N675 Cd672 2.334 1_455 S
N675 C674 1.332 . S
N675 C679 1.328 . S
C676 C677 1.396 . S
C676 C679 1.378 . S
C676 H718 0.931 . S
C677 C676 1.396 . S
C677 C678 1.382 . S
C678 C674 1.381 . S
C678 C677 1.382 . S
C678 H719 0.930 . S
C679 N675 1.328 . S
C679 C676 1.378 . S
C679 H681 0.930 1_455 S
H680 C674 0.931 . S
H681 C679 0.930 1_655 S
C682 O708 1.238 . S
C682 O709 1.253 . S
C683 C684 1.379 . S
C683 N688 1.337 . S
C683 H689 0.929 . S
C684 C683 1.379 . S
C684 C685 1.380 . S
C684 H720 0.929 . S
C685 C684 1.380 . S
C685 C686 1.399 . S
C686 C685 1.399 . S
C686 C687 1.398 . S
C686 H721 0.931 . S
C687 C686 1.398 . S
C687 N688 1.333 . S
C687 H690 0.912 1_655 S
N688 Cd673 2.304 1_655 S
N688 C683 1.337 . S
N688 C687 1.333 . S
H689 C683 0.929 . S
H690 C687 0.912 1_455 S
C691 N692 1.332 . S
C691 C695 1.381 . S
C691 H697 0.931 . S
N692 Cd673 2.334 1_565 S
N692 C691 1.332 . S
N692 C696 1.328 . S
C693 C694 1.396 . S
C693 C696 1.378 . S
C693 H722 0.931 . S
C694 C693 1.396 . S
C694 C695 1.382 . S
C695 C691 1.381 . S
C695 C694 1.382 . S
C695 H723 0.930 . S
C696 N692 1.328 . S
C696 C693 1.378 . S
C696 H698 0.930 1_565 S
H697 C691 0.931 . S
H698 C696 0.930 1_545 S
C699 O710 1.238 . S
C699 O711 1.253 . S
C700 O712 1.239 . S
C700 O713 1.230 . S
N701 Cd672 2.304 1_545 S
N701 C702 1.337 . S
N701 C706 1.338 . S
C702 N701 1.337 . S
C702 C703 1.379 . S
C702 H716 0.929 . S
C703 C702 1.379 . S
C703 C704 1.380 . S
C703 H724 0.929 . S
C704 C703 1.380 . S
C704 C705 1.399 . S
C705 C704 1.399 . S
C705 C706 1.376 . S
C705 H725 0.931 . S
C706 N701 1.338 . S
C706 C705 1.376 . S
C706 H717 0.930 1_545 S
C707 O714 1.239 . S
C707 O715 1.230 . S
O708 Cd672 2.268 . S
O708 C682 1.238 . S
O709 Cd673 2.273 1_665 S
O709 C682 1.253 . S
O710 Cd673 2.268 . S
O710 C699 1.238 . S
O711 Cd672 2.273 1_445 S
O711 C699 1.253 . S
O712 Cd672 2.417 . S
O712 C700 1.239 . S
O713 Cd672 2.330 . S
O713 C700 1.230 . S
O714 Cd673 2.417 . S
O714 C707 1.239 . S
O715 Cd673 2.330 . S
O715 C707 1.230 . S
H716 C702 0.929 . S
H717 C706 0.930 1_565 S
H718 C676 0.931 . S
H719 C678 0.930 . S
H720 C684 0.929 . S
H721 C686 0.931 . S
H722 C693 0.931 . S
H723 C695 0.930 . S
H724 C703 0.929 . S
H725 C705 0.931 . S
Cd726 N729 2.334 . S
Cd726 N755 2.304 1_565 S
Cd726 O762 2.268 1_554 S
Cd726 O765 2.273 1_565 S
Cd726 O766 2.417 . S
Cd726 O767 2.330 . S
Cd727 N742 2.304 . S
Cd727 N746 2.334 1_545 S
Cd727 O763 2.273 1_545 S
Cd727 O764 2.268 1_556 S
Cd727 O768 2.417 . S
Cd727 O769 2.330 . S
C728 N729 1.332 . S
C728 C732 1.381 . S
C728 H734 0.931 . S
N729 Cd726 2.334 . S
N729 C728 1.332 . S
N729 C733 1.328 . S
C730 C731 1.396 . S
C730 C733 1.378 . S
C730 H772 0.931 1_554 S
C731 C730 1.396 . S
C731 C732 1.382 . S
C732 C728 1.381 . S
C732 C731 1.382 . S
C732 H773 0.930 . S
C733 N729 1.328 . S
C733 C730 1.378 . S
C733 H735 0.930 1_554 S
H734 C728 0.931 . S
H735 C733 0.930 1_556 S
C736 O762 1.238 . S
C736 O763 1.253 . S
C737 C738 1.379 . S
C737 N742 1.337 . S
C737 H743 0.929 . S
C738 C737 1.379 . S
C738 C739 1.380 . S
C738 H774 0.929 . S
C739 C738 1.380 . S
C739 C740 1.399 . S
C740 C739 1.399 . S
C740 C741 1.376 . S
C740 H775 0.931 1_556 S
C741 C740 1.376 . S
C741 N742 1.338 . S
C741 H744 0.930 1_556 S
N742 Cd727 2.304 . S
N742 C737 1.337 . S
N742 C741 1.338 . S
H743 C737 0.929 . S
H744 C741 0.930 1_554 S
C745 N746 1.332 . S
C745 C749 1.381 . S
C745 H751 0.931 . S
N746 Cd727 2.334 1_565 S
N746 C745 1.332 . S
N746 C750 1.328 . S
C747 C748 1.396 . S
C747 C750 1.378 . S
C747 H776 0.931 . S
C748 C747 1.396 . S
C748 C749 1.382 . S
C749 C745 1.381 . S
C749 C748 1.382 . S
C749 H777 0.930 . S
C750 N746 1.328 . S
C750 C747 1.378 . S
C750 H752 0.930 1_566 S
H751 C745 0.931 . S
H752 C750 0.930 1_544 S
C753 O764 1.238 . S
C753 O765 1.253 . S
C754 O766 1.239 . S
C754 O767 1.230 . S
N755 Cd726 2.304 1_545 S
N755 C756 1.337 . S
N755 C760 1.338 . S
C756 N755 1.337 . S
C756 C757 1.379 . S
C756 H770 0.929 . S
C757 C756 1.379 . S
C757 C758 1.380 . S
C757 H778 0.929 . S
C758 C757 1.380 . S
C758 C759 1.399 . S
C759 C758 1.399 . S
C759 C760 1.376 . S
C759 H779 0.931 . S
C760 N755 1.338 . S
C760 C759 1.376 . S
C760 H771 0.930 1_544 S
C761 O768 1.239 . S
C761 O769 1.230 . S
O762 Cd726 2.268 1_556 S
O762 C736 1.238 . S
O763 Cd727 2.273 1_565 S
O763 C736 1.253 . S
O764 Cd727 2.268 1_554 S
O764 C753 1.238 . S
O765 Cd726 2.273 1_545 S
O765 C753 1.253 . S
O766 Cd726 2.417 . S
O766 C754 1.239 . S
O767 Cd726 2.330 . S
O767 C754 1.230 . S
O768 Cd727 2.417 . S
O768 C761 1.239 . S
O769 Cd727 2.330 . S
O769 C761 1.230 . S
H770 C756 0.929 . S
H771 C760 0.930 1_566 S
H772 C730 0.931 1_556 S
H773 C732 0.930 . S
H774 C738 0.929 . S
H775 C740 0.931 1_554 S
H776 C747 0.931 . S
H777 C749 0.930 . S
H778 C757 0.929 . S
H779 C759 0.931 . S
Cd780 N783 2.334 1_655 S
Cd780 N809 2.304 . S
Cd780 O816 2.268 1_554 S
Cd780 O819 2.273 1_655 S
Cd780 O820 2.417 . S
Cd780 O821 2.330 . S
Cd781 N796 2.304 1_455 S
Cd781 N800 2.334 . S
Cd781 O817 2.273 1_455 S
Cd781 O818 2.268 1_556 S
Cd781 O822 2.417 . S
Cd781 O823 2.330 . S
C782 N783 1.332 . S
C782 C786 1.381 . S
C782 H788 0.931 . S
N783 Cd780 2.334 1_455 S
N783 C782 1.332 . S
N783 C787 1.328 . S
C784 C785 1.396 . S
C784 C787 1.378 . S
C784 H826 0.931 1_554 S
C785 C784 1.396 . S
C785 C786 1.382 . S
C786 C782 1.381 . S
C786 C785 1.382 . S
C786 H827 0.930 . S
C787 N783 1.328 . S
C787 C784 1.378 . S
C787 H789 0.930 1_454 S
H788 C782 0.931 . S
H789 C787 0.930 1_656 S
C790 O816 1.238 . S
C790 O817 1.253 . S
C791 C792 1.379 . S
C791 N796 1.337 . S
C791 H797 0.929 . S
C792 C791 1.379 . S
C792 C793 1.380 . S
C792 H828 0.929 . S
C793 C792 1.380 . S
C793 C794 1.399 . S
C794 C793 1.399 . S
C794 C795 1.402 . S
C794 H829 0.931 1_556 S
C795 C794 1.402 . S
C795 N796 1.333 . S
C795 H798 0.909 1_656 S
N796 Cd781 2.304 1_655 S
N796 C791 1.337 . S
N796 C795 1.333 . S
H797 C791 0.929 . S
H798 C795 0.909 1_454 S
C799 N800 1.332 . S
C799 C803 1.381 . S
C799 H805 0.931 . S
N800 Cd781 2.334 . S
N800 C799 1.332 . S
N800 C804 1.328 . S
C801 C802 1.396 . S
C801 C804 1.378 . S
C801 H830 0.931 . S
C802 C801 1.396 . S
C802 C803 1.382 . S
C803 C799 1.381 . S
C803 C802 1.382 . S
C803 H831 0.930 . S
C804 N800 1.328 . S
C804 C801 1.378 . S
C804 H806 0.930 1_556 S
H805 C799 0.931 . S
H806 C804 0.930 1_554 S
C807 O818 1.238 . S
C807 O819 1.253 . S
C808 O820 1.239 . S
C808 O821 1.230 . S
N809 Cd780 2.304 . S
N809 C810 1.337 . S
N809 C814 1.338 . S
C810 N809 1.337 . S
C810 C811 1.379 . S
C810 H824 0.929 . S
C811 C810 1.379 . S
C811 C812 1.380 . S
C811 H832 0.929 . S
C812 C811 1.380 . S
C812 C813 1.399 . S
C813 C812 1.399 . S
C813 C814 1.376 . S
C813 H833 0.931 . S
C814 N809 1.338 . S
C814 C813 1.376 . S
C814 H825 0.930 1_554 S
C815 O822 1.239 . S
C815 O823 1.230 . S
O816 Cd780 2.268 1_556 S
O816 C790 1.238 . S
O817 Cd781 2.273 1_655 S
O817 C790 1.253 . S
O818 Cd781 2.268 1_554 S
O818 C807 1.238 . S
O819 Cd780 2.273 1_455 S
O819 C807 1.253 . S
O820 Cd780 2.417 . S
O820 C808 1.239 . S
O821 Cd780 2.330 . S
O821 C808 1.230 . S
O822 Cd781 2.417 . S
O822 C815 1.239 . S
O823 Cd781 2.330 . S
O823 C815 1.230 . S
H824 C810 0.929 . S
H825 C814 0.930 1_556 S
H826 C784 0.931 1_556 S
H827 C786 0.930 . S
H828 C792 0.929 . S
H829 C794 0.931 1_554 S
H830 C801 0.931 . S
H831 C803 0.930 . S
H832 C811 0.929 . S
H833 C813 0.931 . S
Cd834 N837 2.334 . S
Cd834 N863 2.304 . S
Cd834 O870 2.268 1_554 S
Cd834 O873 2.273 . S
Cd834 O874 2.417 . S
Cd834 O875 2.330 . S
Cd835 N850 2.304 . S
Cd835 N854 2.334 . S
Cd835 O871 2.273 . S
Cd835 O872 2.268 1_556 S
Cd835 O876 2.417 . S
Cd835 O877 2.330 . S
C836 N837 1.332 . S
C836 C840 1.381 . S
C836 H842 0.931 . S
N837 Cd834 2.334 . S
N837 C836 1.332 . S
N837 C841 1.328 . S
C838 C839 1.396 . S
C838 C841 1.378 . S
C838 H880 0.931 1_554 S
C839 C838 1.396 . S
C839 C840 1.382 . S
C840 C836 1.381 . S
C840 C839 1.382 . S
C840 H881 0.930 . S
C841 N837 1.328 . S
C841 C838 1.378 . S
C841 H843 0.930 1_554 S
H842 C836 0.931 . S
H843 C841 0.930 1_556 S
C844 O870 1.238 . S
C844 O871 1.253 . S
C845 C846 1.379 . S
C845 N850 1.337 . S
C845 H851 0.929 . S
C846 C845 1.379 . S
C846 C847 1.380 . S
C846 H882 0.929 . S
C847 C846 1.380 . S
C847 C848 1.399 . S
C848 C847 1.399 . S
C848 C849 1.376 . S
C848 H883 0.931 1_556 S
C849 C848 1.376 . S
C849 N850 1.338 . S
C849 H852 0.930 1_556 S
N850 Cd835 2.304 . S
N850 C845 1.337 . S
N850 C849 1.338 . S
H851 C845 0.929 . S
H852 C849 0.930 1_554 S
C853 N854 1.332 . S
C853 C857 1.381 . S
C853 H859 0.931 . S
N854 Cd835 2.334 . S
N854 C853 1.332 . S
N854 C858 1.328 . S
C855 C856 1.396 . S
C855 C858 1.378 . S
C855 H884 0.931 . S
C856 C855 1.396 . S
C856 C857 1.382 . S
C857 C853 1.381 . S
C857 C856 1.382 . S
C857 H885 0.930 . S
C858 N854 1.328 . S
C858 C855 1.378 . S
C858 H860 0.930 1_556 S
H859 C853 0.931 . S
H860 C858 0.930 1_554 S
C861 O872 1.238 . S
C861 O873 1.253 . S
C862 O874 1.239 . S
C862 O875 1.230 . S
N863 Cd834 2.304 . S
N863 C864 1.337 . S
N863 C868 1.338 . S
C864 N863 1.337 . S
C864 C865 1.379 . S
C864 H878 0.929 . S
C865 C864 1.379 . S
C865 C866 1.380 . S
C865 H886 0.929 . S
C866 C865 1.380 . S
C866 C867 1.399 . S
C867 C866 1.399 . S
C867 C868 1.376 . S
C867 H887 0.931 . S
C868 N863 1.338 . S
C868 C867 1.376 . S
C868 H879 0.930 1_554 S
C869 O876 1.239 . S
C869 O877 1.230 . S
O870 Cd834 2.268 1_556 S
O870 C844 1.238 . S
O871 Cd835 2.273 . S
O871 C844 1.253 . S
O872 Cd835 2.268 1_554 S
O872 C861 1.238 . S
O873 Cd834 2.273 . S
O873 C861 1.253 . S
O874 Cd834 2.417 . S
O874 C862 1.239 . S
O875 Cd834 2.330 . S
O875 C862 1.230 . S
O876 Cd835 2.417 . S
O876 C869 1.239 . S
O877 Cd835 2.330 . S
O877 C869 1.230 . S
H878 C864 0.929 . S
H879 C868 0.930 1_556 S
H880 C838 0.931 1_556 S
H881 C840 0.930 . S
H882 C846 0.929 . S
H883 C848 0.931 1_554 S
H884 C855 0.931 . S
H885 C857 0.930 . S
H886 C865 0.929 . S
H887 C867 0.931 . S
Cd888 N891 2.334 1_655 S
Cd888 N917 2.304 . S
Cd888 O924 2.268 . S
Cd888 O927 2.273 1_655 S
Cd888 O928 2.417 . S
Cd888 O929 2.330 . S
Cd889 N904 2.304 1_455 S
Cd889 N908 2.334 . S
Cd889 O925 2.273 1_455 S
Cd889 O926 2.268 . S
Cd889 O930 2.417 . S
Cd889 O931 2.330 . S
C890 N891 1.332 . S
C890 C894 1.381 . S
C890 H896 0.931 . S
N891 Cd888 2.334 1_455 S
N891 C890 1.332 . S
N891 C895 1.328 . S
C892 C893 1.396 . S
C892 C895 1.378 . S
C892 H934 0.931 . S
C893 C892 1.396 . S
C893 C894 1.382 . S
C894 C890 1.381 . S
C894 C893 1.382 . S
C894 H935 0.930 . S
C895 N891 1.328 . S
C895 C892 1.378 . S
C895 H897 0.930 1_455 S
H896 C890 0.931 . S
H897 C895 0.930 1_655 S
C898 O924 1.238 . S
C898 O925 1.253 . S
C899 C900 1.379 . S
C899 N904 1.337 . S
C899 H905 0.929 . S
C900 C899 1.379 . S
C900 C901 1.380 . S
C900 H936 0.929 . S
C901 C900 1.380 . S
C901 C902 1.399 . S
C902 C901 1.399 . S
C902 C903 1.401 . S
C902 H937 0.931 . S
C903 C902 1.401 . S
C903 N904 1.333 . S
C903 H906 0.910 1_655 S
N904 Cd889 2.304 1_655 S
N904 C899 1.337 . S
N904 C903 1.333 . S
H905 C899 0.929 . S
H906 C903 0.910 1_455 S
C907 N908 1.332 . S
C907 C911 1.381 . S
C907 H913 0.931 . S
N908 Cd889 2.334 . S
N908 C907 1.332 . S
N908 C912 1.328 . S
C909 C910 1.396 . S
C909 C912 1.378 . S
C909 H938 0.931 . S
C910 C909 1.396 . S
C910 C911 1.382 . S
C911 C907 1.381 . S
C911 C910 1.382 . S
C911 H939 0.930 . S
C912 N908 1.328 . S
C912 C909 1.378 . S
C912 H914 0.930 . S
H913 C907 0.931 . S
H914 C912 0.930 . S
C915 O926 1.238 . S
C915 O927 1.253 . S
C916 O928 1.239 . S
C916 O929 1.230 . S
N917 Cd888 2.304 . S
N917 C918 1.337 . S
N917 C922 1.338 . S
C918 N917 1.337 . S
C918 C919 1.379 . S
C918 H932 0.929 . S
C919 C918 1.379 . S
C919 C920 1.380 . S
C919 H940 0.929 . S
C920 C919 1.380 . S
C920 C921 1.399 . S
C921 C920 1.399 . S
C921 C922 1.376 . S
C921 H941 0.931 . S
C922 N917 1.338 . S
C922 C921 1.376 . S
C922 H933 0.930 . S
C923 O930 1.239 . S
C923 O931 1.230 . S
O924 Cd888 2.268 . S
O924 C898 1.238 . S
O925 Cd889 2.273 1_655 S
O925 C898 1.253 . S
O926 Cd889 2.268 . S
O926 C915 1.238 . S
O927 Cd888 2.273 1_455 S
O927 C915 1.253 . S
O928 Cd888 2.417 . S
O928 C916 1.239 . S
O929 Cd888 2.330 . S
O929 C916 1.230 . S
O930 Cd889 2.417 . S
O930 C923 1.239 . S
O931 Cd889 2.330 . S
O931 C923 1.230 . S
H932 C918 0.929 . S
H933 C922 0.930 . S
H934 C892 0.931 . S
H935 C894 0.930 . S
H936 C900 0.929 . S
H937 C902 0.931 . S
H938 C909 0.931 . S
H939 C911 0.930 . S
H940 C919 0.929 . S
H941 C921 0.931 . S
Cd942 N945 2.334 . S
Cd942 N971 2.304 1_565 S
Cd942 O978 2.268 . S
Cd942 O981 2.273 1_565 S
Cd942 O982 2.417 . S
Cd942 O983 2.330 . S
Cd943 N958 2.304 . S
Cd943 N962 2.334 1_545 S
Cd943 O979 2.273 1_545 S
Cd943 O980 2.268 . S
Cd943 O984 2.417 . S
Cd943 O985 2.330 . S
C944 N945 1.332 . S
C944 C948 1.381 . S
C944 H950 0.931 . S
N945 Cd942 2.334 . S
N945 C944 1.332 . S
N945 C949 1.328 . S
C946 C947 1.396 . S
C946 C949 1.378 . S
C946 H988 0.931 . S
C947 C946 1.396 . S
C947 C948 1.382 . S
C948 C944 1.381 . S
C948 C947 1.382 . S
C948 H989 0.930 . S
C949 N945 1.328 . S
C949 C946 1.378 . S
C949 H951 0.930 . S
H950 C944 0.931 . S
H951 C949 0.930 . S
C952 O978 1.238 . S
C952 O979 1.253 . S
C953 C954 1.379 . S
C953 N958 1.337 . S
C953 H959 0.929 . S
C954 C953 1.379 . S
C954 C955 1.380 . S
C954 H990 0.929 . S
C955 C954 1.380 . S
C955 C956 1.399 . S
C956 C955 1.399 . S
C956 C957 1.376 . S
C956 H991 0.931 . S
C957 C956 1.376 . S
C957 N958 1.338 . S
C957 H960 0.930 . S
N958 Cd943 2.304 . S
N958 C953 1.337 . S
N958 C957 1.338 . S
H959 C953 0.929 . S
H960 C957 0.930 . S
C961 N962 1.332 . S
C961 C965 1.381 . S
C961 H967 0.931 . S
N962 Cd943 2.334 1_565 S
N962 C961 1.332 . S
N962 C966 1.328 . S
C963 C964 1.396 . S
C963 C966 1.378 . S
C963 H992 0.931 . S
C964 C963 1.396 . S
C964 C965 1.382 . S
C965 C961 1.381 . S
C965 C964 1.382 . S
C965 H993 0.930 . S
C966 N962 1.328 . S
C966 C963 1.378 . S
C966 H968 0.930 1_565 S
H967 C961 0.931 . S
H968 C966 0.930 1_545 S
C969 O980 1.238 . S
C969 O981 1.253 . S
C970 O982 1.239 . S
C970 O983 1.230 . S
N971 Cd942 2.304 1_545 S
N971 C972 1.337 . S
N971 C976 1.338 . S
C972 N971 1.337 . S
C972 C973 1.379 . S
C972 H986 0.929 . S
C973 C972 1.379 . S
C973 C974 1.380 . S
C973 H994 0.929 . S
C974 C973 1.380 . S
C974 C975 1.399 . S
C975 C974 1.399 . S
C975 C976 1.376 . S
C975 H995 0.931 . S
C976 N971 1.338 . S
C976 C975 1.376 . S
C976 H987 0.930 1_545 S
C977 O984 1.239 . S
C977 O985 1.230 . S
O978 Cd942 2.268 . S
O978 C952 1.238 . S
O979 Cd943 2.273 1_565 S
O979 C952 1.253 . S
O980 Cd943 2.268 . S
O980 C969 1.238 . S
O981 Cd942 2.273 1_545 S
O981 C969 1.253 . S
O982 Cd942 2.417 . S
O982 C970 1.239 . S
O983 Cd942 2.330 . S
O983 C970 1.230 . S
O984 Cd943 2.417 . S
O984 C977 1.239 . S
O985 Cd943 2.330 . S
O985 C977 1.230 . S
H986 C972 0.929 . S
H987 C976 0.930 1_565 S
H988 C946 0.931 . S
H989 C948 0.930 . S
H990 C954 0.929 . S
H991 C956 0.931 . S
H992 C963 0.931 . S
H993 C965 0.930 . S
H994 C973 0.929 . S
H995 C975 0.931 . S
H996 C1004 0.950 . S
H997 C1009 0.950 . S
H998 C1006 0.950 . S
H999 C1008 0.950 . S
H1000 C1010 0.950 . S
H1001 C1012 0.950 . S
H1002 C1014 0.950 . S
H1003 C1015 0.950 . S
C1004 H996 0.950 . S
C1004 C1005 1.386 . S
C1004 C1006 1.391 . S
C1005 C1004 1.386 . S
C1005 C1009 1.393 . S
C1006 H998 0.950 . S
C1006 C1004 1.391 . S
C1006 C1007 1.400 . S
C1007 C1006 1.400 . S
C1007 C1008 1.398 . S
C1007 C1013 1.491 . S
C1008 H999 0.950 . S
C1008 C1007 1.398 . S
C1008 C1009 1.391 . S
C1009 H997 0.950 . S
C1009 C1005 1.393 . S
C1009 C1008 1.391 . S
C1010 H1000 0.950 . S
C1010 C1011 1.386 . S
C1010 C1012 1.391 . S
C1011 C1010 1.386 . S
C1011 C1015 1.393 . S
C1012 H1001 0.950 . S
C1012 C1010 1.391 . S
C1012 C1013 1.400 . S
C1013 C1007 1.491 . S
C1013 C1012 1.400 . S
C1013 C1014 1.398 . S
C1014 H1002 0.950 . S
C1014 C1013 1.398 . S
C1014 C1015 1.391 . S
C1015 H1003 0.950 . S
C1015 C1011 1.393 . S
C1015 C1014 1.391 . S
H1016 C1024 0.950 . S
H1017 C1029 0.950 . S
H1018 C1026 0.950 . S
H1019 C1028 0.950 . S
H1020 C1030 0.950 . S
H1021 C1032 0.950 . S
H1022 C1034 0.950 . S
H1023 C1035 0.950 . S
C1024 H1016 0.950 . S
C1024 C1025 1.386 . S
C1024 C1026 1.391 . S
C1025 C1024 1.386 . S
C1025 C1029 1.393 . S
C1026 H1018 0.950 . S
C1026 C1024 1.391 . S
C1026 C1027 1.400 . S
C1027 C1026 1.400 . S
C1027 C1028 1.398 . S
C1027 C1033 1.491 . S
C1028 H1019 0.950 . S
C1028 C1027 1.398 . S
C1028 C1029 1.391 . S
C1029 H1017 0.950 . S
C1029 C1025 1.393 . S
C1029 C1028 1.391 . S
C1030 H1020 0.950 . S
C1030 C1031 1.386 . S
C1030 C1032 1.391 . S
C1031 C1030 1.386 . S
C1031 C1035 1.393 . S
C1032 H1021 0.950 . S
C1032 C1030 1.391 . S
C1032 C1033 1.400 . S
C1033 C1027 1.491 . S
C1033 C1032 1.400 . S
C1033 C1034 1.398 . S
C1034 H1022 0.950 . S
C1034 C1033 1.398 . S
C1034 C1035 1.391 . S
C1035 H1023 0.950 . S
C1035 C1031 1.393 . S
C1035 C1034 1.391 . S
H1036 C1044 0.950 . S
H1037 C1049 0.950 . S
H1038 C1046 0.950 . S
H1039 C1048 0.950 . S
H1040 C1050 0.950 . S
H1041 C1052 0.950 . S
H1042 C1054 0.950 . S
H1043 C1055 0.950 . S
C1044 H1036 0.950 . S
C1044 C1045 1.386 . S
C1044 C1046 1.391 . S
C1045 C1044 1.386 . S
C1045 C1049 1.393 . S
C1046 H1038 0.950 . S
C1046 C1044 1.391 . S
C1046 C1047 1.400 . S
C1047 C1046 1.400 . S
C1047 C1048 1.398 . S
C1047 C1053 1.491 . S
C1048 H1039 0.950 . S
C1048 C1047 1.398 . S
C1048 C1049 1.391 . S
C1049 H1037 0.950 . S
C1049 C1045 1.393 . S
C1049 C1048 1.391 . S
C1050 H1040 0.950 . S
C1050 C1051 1.386 . S
C1050 C1052 1.391 . S
C1051 C1050 1.386 . S
C1051 C1055 1.393 . S
C1052 H1041 0.950 . S
C1052 C1050 1.391 . S
C1052 C1053 1.400 . S
C1053 C1047 1.491 . S
C1053 C1052 1.400 . S
C1053 C1054 1.398 . S
C1054 H1042 0.950 . S
C1054 C1053 1.398 . S
C1054 C1055 1.391 . S
C1055 H1043 0.950 . S
C1055 C1051 1.393 . S
C1055 C1054 1.391 . S
H1056 C1064 0.950 . S
H1057 C1069 0.950 . S
H1058 C1066 0.950 . S
H1059 C1068 0.950 . S
H1060 C1070 0.950 . S
H1061 C1072 0.950 . S
H1062 C1074 0.950 . S
H1063 C1075 0.950 . S
C1064 H1056 0.950 . S
C1064 C1065 1.386 . S
C1064 C1066 1.391 . S
C1065 C1064 1.386 . S
C1065 C1069 1.393 . S
C1066 H1058 0.950 . S
C1066 C1064 1.391 . S
C1066 C1067 1.400 . S
C1067 C1066 1.400 . S
C1067 C1068 1.398 . S
C1067 C1073 1.491 . S
C1068 H1059 0.950 . S
C1068 C1067 1.398 . S
C1068 C1069 1.391 . S
C1069 H1057 0.950 . S
C1069 C1065 1.393 . S
C1069 C1068 1.391 . S
C1070 H1060 0.950 . S
C1070 C1071 1.386 . S
C1070 C1072 1.391 . S
C1071 C1070 1.386 . S
C1071 C1075 1.393 . S
C1072 H1061 0.950 . S
C1072 C1070 1.391 . S
C1072 C1073 1.400 . S
C1073 C1067 1.491 . S
C1073 C1072 1.400 . S
C1073 C1074 1.398 . S
C1074 H1062 0.950 . S
C1074 C1073 1.398 . S
C1074 C1075 1.391 . S
C1075 H1063 0.950 . S
C1075 C1071 1.393 . S
C1075 C1074 1.391 . S
H1076 C1084 0.950 . S
H1077 C1089 0.950 . S
H1078 C1086 0.950 . S
H1079 C1088 0.950 . S
H1080 C1090 0.950 . S
H1081 C1092 0.950 . S
H1082 C1094 0.950 . S
H1083 C1095 0.950 . S
C1084 H1076 0.950 . S
C1084 C1085 1.386 . S
C1084 C1086 1.391 . S
C1085 C1084 1.386 . S
C1085 C1089 1.393 . S
C1086 H1078 0.950 . S
C1086 C1084 1.391 . S
C1086 C1087 1.400 . S
C1087 C1086 1.400 . S
C1087 C1088 1.398 . S
C1087 C1093 1.491 . S
C1088 H1079 0.950 . S
C1088 C1087 1.398 . S
C1088 C1089 1.391 . S
C1089 H1077 0.950 . S
C1089 C1085 1.393 . S
C1089 C1088 1.391 . S
C1090 H1080 0.950 . S
C1090 C1091 1.386 . S
C1090 C1092 1.391 . S
C1091 C1090 1.386 . S
C1091 C1095 1.393 . S
C1092 H1081 0.950 . S
C1092 C1090 1.391 . S
C1092 C1093 1.400 . S
C1093 C1087 1.491 . S
C1093 C1092 1.400 . S
C1093 C1094 1.398 . S
C1094 H1082 0.950 . S
C1094 C1093 1.398 . S
C1094 C1095 1.391 . S
C1095 H1083 0.950 . S
C1095 C1091 1.393 . S
C1095 C1094 1.391 . S
H1096 C1104 0.950 . S
H1097 C1109 0.950 . S
H1098 C1106 0.950 . S
H1099 C1108 0.950 . S
H1100 C1110 0.950 . S
H1101 C1112 0.950 . S
H1102 C1114 0.950 . S
H1103 C1115 0.950 . S
C1104 H1096 0.950 . S
C1104 C1105 1.386 . S
C1104 C1106 1.391 . S
C1105 C1104 1.386 . S
C1105 C1109 1.393 . S
C1106 H1098 0.950 . S
C1106 C1104 1.391 . S
C1106 C1107 1.400 . S
C1107 C1106 1.400 . S
C1107 C1108 1.398 . S
C1107 C1113 1.491 . S
C1108 H1099 0.950 . S
C1108 C1107 1.398 . S
C1108 C1109 1.391 . S
C1109 H1097 0.950 . S
C1109 C1105 1.393 . S
C1109 C1108 1.391 . S
C1110 H1100 0.950 . S
C1110 C1111 1.386 . S
C1110 C1112 1.391 . S
C1111 C1110 1.386 . S
C1111 C1115 1.393 . S
C1112 H1101 0.950 . S
C1112 C1110 1.391 . S
C1112 C1113 1.400 . S
C1113 C1107 1.491 . S
C1113 C1112 1.400 . S
C1113 C1114 1.398 . S
C1114 H1102 0.950 . S
C1114 C1113 1.398 . S
C1114 C1115 1.391 . S
C1115 H1103 0.950 . S
C1115 C1111 1.393 . S
C1115 C1114 1.391 . S
H1116 C1124 0.950 . S
H1117 C1129 0.950 . S
H1118 C1126 0.950 . S
H1119 C1128 0.950 . S
H1120 C1130 0.950 . S
H1121 C1132 0.950 . S
H1122 C1134 0.950 . S
H1123 C1135 0.950 . S
C1124 H1116 0.950 . S
C1124 C1125 1.386 . S
C1124 C1126 1.391 . S
C1125 C1124 1.386 . S
C1125 C1129 1.393 . S
C1126 H1118 0.950 . S
C1126 C1124 1.391 . S
C1126 C1127 1.400 . S
C1127 C1126 1.400 . S
C1127 C1128 1.398 . S
C1127 C1133 1.491 . S
C1128 H1119 0.950 . S
C1128 C1127 1.398 . S
C1128 C1129 1.391 . S
C1129 H1117 0.950 . S
C1129 C1125 1.393 . S
C1129 C1128 1.391 . S
C1130 H1120 0.950 . S
C1130 C1131 1.386 . S
C1130 C1132 1.391 . S
C1131 C1130 1.386 . S
C1131 C1135 1.393 . S
C1132 H1121 0.950 . S
C1132 C1130 1.391 . S
C1132 C1133 1.400 . S
C1133 C1127 1.491 . S
C1133 C1132 1.400 . S
C1133 C1134 1.398 . S
C1134 H1122 0.950 . S
C1134 C1133 1.398 . S
C1134 C1135 1.391 . S
C1135 H1123 0.950 . S
C1135 C1131 1.393 . S
C1135 C1134 1.391 . S
H1136 C1144 0.950 . S
H1137 C1149 0.950 . S
H1138 C1146 0.950 . S
H1139 C1148 0.950 . S
H1140 C1150 0.950 . S
H1141 C1152 0.950 . S
H1142 C1154 0.950 . S
H1143 C1155 0.950 . S
C1144 H1136 0.950 . S
C1144 C1145 1.386 . S
C1144 C1146 1.391 . S
C1145 C1144 1.386 . S
C1145 C1149 1.393 . S
C1146 H1138 0.950 . S
C1146 C1144 1.391 . S
C1146 C1147 1.400 . S
C1147 C1146 1.400 . S
C1147 C1148 1.398 . S
C1147 C1153 1.491 . S
C1148 H1139 0.950 . S
C1148 C1147 1.398 . S
C1148 C1149 1.391 . S
C1149 H1137 0.950 . S
C1149 C1145 1.393 . S
C1149 C1148 1.391 . S
C1150 H1140 0.950 . S
C1150 C1151 1.386 . S
C1150 C1152 1.391 . S
C1151 C1150 1.386 . S
C1151 C1155 1.393 . S
C1152 H1141 0.950 . S
C1152 C1150 1.391 . S
C1152 C1153 1.400 . S
C1153 C1147 1.491 . S
C1153 C1152 1.400 . S
C1153 C1154 1.398 . S
C1154 H1142 0.950 . S
C1154 C1153 1.398 . S
C1154 C1155 1.391 . S
C1155 H1143 0.950 . S
C1155 C1151 1.393 . S
C1155 C1154 1.391 . S
H1156 C1164 0.950 . S
H1157 C1169 0.950 . S
H1158 C1166 0.950 . S
H1159 C1168 0.950 . S
H1160 C1170 0.950 . S
H1161 C1172 0.950 . S
H1162 C1174 0.950 . S
H1163 C1175 0.950 . S
C1164 H1156 0.950 . S
C1164 C1165 1.386 . S
C1164 C1166 1.391 . S
C1165 C1164 1.386 . S
C1165 C1169 1.393 . S
C1166 H1158 0.950 . S
C1166 C1164 1.391 . S
C1166 C1167 1.400 . S
C1167 C1166 1.400 . S
C1167 C1168 1.398 . S
C1167 C1173 1.491 . S
C1168 H1159 0.950 . S
C1168 C1167 1.398 . S
C1168 C1169 1.391 . S
C1169 H1157 0.950 . S
C1169 C1165 1.393 . S
C1169 C1168 1.391 . S
C1170 H1160 0.950 . S
C1170 C1171 1.386 . S
C1170 C1172 1.391 . S
C1171 C1170 1.386 . S
C1171 C1175 1.393 . S
C1172 H1161 0.950 . S
C1172 C1170 1.391 . S
C1172 C1173 1.400 . S
C1173 C1167 1.491 . S
C1173 C1172 1.400 . S
C1173 C1174 1.398 . S
C1174 H1162 0.950 . S
C1174 C1173 1.398 . S
C1174 C1175 1.391 . S
C1175 H1163 0.950 . S
C1175 C1171 1.393 . S
C1175 C1174 1.391 . S
H1176 C1184 0.950 . S
H1177 C1189 0.950 . S
H1178 C1186 0.950 . S
H1179 C1188 0.950 . S
H1180 C1190 0.950 . S
H1181 C1192 0.950 . S
H1182 C1194 0.950 . S
H1183 C1195 0.950 . S
C1184 H1176 0.950 . S
C1184 C1185 1.386 . S
C1184 C1186 1.391 . S
C1185 C1184 1.386 . S
C1185 C1189 1.393 . S
C1186 H1178 0.950 . S
C1186 C1184 1.391 . S
C1186 C1187 1.400 . S
C1187 C1186 1.400 . S
C1187 C1188 1.398 . S
C1187 C1193 1.491 . S
C1188 H1179 0.950 . S
C1188 C1187 1.398 . S
C1188 C1189 1.391 . S
C1189 H1177 0.950 . S
C1189 C1185 1.393 . S
C1189 C1188 1.391 . S
C1190 H1180 0.950 . S
C1190 C1191 1.386 . S
C1190 C1192 1.391 . S
C1191 C1190 1.386 . S
C1191 C1195 1.393 . S
C1192 H1181 0.950 . S
C1192 C1190 1.391 . S
C1192 C1193 1.400 . S
C1193 C1187 1.491 . S
C1193 C1192 1.400 . S
C1193 C1194 1.398 . S
C1194 H1182 0.950 . S
C1194 C1193 1.398 . S
C1194 C1195 1.391 . S
C1195 H1183 0.950 . S
C1195 C1191 1.393 . S
C1195 C1194 1.391 . S
H1196 C1204 0.950 . S
H1197 C1209 0.950 . S
H1198 C1206 0.950 . S
H1199 C1208 0.950 . S
H1200 C1210 0.950 . S
H1201 C1212 0.950 . S
H1202 C1214 0.950 . S
H1203 C1215 0.950 1_556 S
C1204 H1196 0.950 . S
C1204 C1205 1.386 . S
C1204 C1206 1.391 . S
C1205 C1204 1.386 . S
C1205 C1209 1.393 . S
C1206 H1198 0.950 . S
C1206 C1204 1.391 . S
C1206 C1207 1.400 . S
C1207 C1206 1.400 . S
C1207 C1208 1.398 . S
C1207 C1213 1.491 . S
C1208 H1199 0.950 . S
C1208 C1207 1.398 . S
C1208 C1209 1.391 . S
C1209 H1197 0.950 . S
C1209 C1205 1.393 . S
C1209 C1208 1.391 . S
C1210 H1200 0.950 . S
C1210 C1211 1.386 . S
C1210 C1212 1.391 . S
C1211 C1210 1.386 . S
C1211 C1215 1.393 . S
C1212 H1201 0.950 . S
C1212 C1210 1.391 . S
C1212 C1213 1.400 . S
C1213 C1207 1.491 . S
C1213 C1212 1.400 . S
C1213 C1214 1.398 . S
C1214 H1202 0.950 . S
C1214 C1213 1.398 . S
C1214 C1215 1.391 . S
C1215 H1203 0.950 1_554 S
C1215 C1211 1.393 . S
C1215 C1214 1.391 . S
H1216 C1224 0.950 . S
H1217 C1229 0.950 . S
H1218 C1226 0.950 . S
H1219 C1228 0.950 . S
H1220 C1230 0.950 . S
H1221 C1232 0.950 . S
H1222 C1234 0.950 . S
H1223 C1235 0.950 . S
C1224 H1216 0.950 . S
C1224 C1225 1.386 . S
C1224 C1226 1.391 . S
C1225 C1224 1.386 . S
C1225 C1229 1.393 . S
C1226 H1218 0.950 . S
C1226 C1224 1.391 . S
C1226 C1227 1.400 . S
C1227 C1226 1.400 . S
C1227 C1228 1.398 . S
C1227 C1233 1.491 . S
C1228 H1219 0.950 . S
C1228 C1227 1.398 . S
C1228 C1229 1.391 . S
C1229 H1217 0.950 . S
C1229 C1225 1.393 . S
C1229 C1228 1.391 . S
C1230 H1220 0.950 . S
C1230 C1231 1.386 . S
C1230 C1232 1.391 . S
C1231 C1230 1.386 . S
C1231 C1235 1.393 . S
C1232 H1221 0.950 . S
C1232 C1230 1.391 . S
C1232 C1233 1.400 . S
C1233 C1227 1.491 . S
C1233 C1232 1.400 . S
C1233 C1234 1.398 . S
C1234 H1222 0.950 . S
C1234 C1233 1.398 . S
C1234 C1235 1.391 . S
C1235 H1223 0.950 . S
C1235 C1231 1.393 . S
C1235 C1234 1.391 . S
H1236 C1244 0.950 . S
H1237 C1249 0.950 . S
H1238 C1246 0.950 . S
H1239 C1248 0.950 . S
H1240 C1250 0.950 . S
H1241 C1252 0.950 . S
H1242 C1254 0.950 . S
H1243 C1255 0.950 . S
C1244 H1236 0.950 . S
C1244 C1245 1.386 . S
C1244 C1246 1.391 . S
C1245 C1244 1.386 . S
C1245 C1249 1.393 . S
C1246 H1238 0.950 . S
C1246 C1244 1.391 . S
C1246 C1247 1.400 . S
C1247 C1246 1.400 . S
C1247 C1248 1.398 . S
C1247 C1253 1.491 . S
C1248 H1239 0.950 . S
C1248 C1247 1.398 . S
C1248 C1249 1.391 . S
C1249 H1237 0.950 . S
C1249 C1245 1.393 . S
C1249 C1248 1.391 . S
C1250 H1240 0.950 . S
C1250 C1251 1.386 . S
C1250 C1252 1.391 . S
C1251 C1250 1.386 . S
C1251 C1255 1.393 . S
C1252 H1241 0.950 . S
C1252 C1250 1.391 . S
C1252 C1253 1.400 . S
C1253 C1247 1.491 . S
C1253 C1252 1.400 . S
C1253 C1254 1.398 . S
C1254 H1242 0.950 . S
C1254 C1253 1.398 . S
C1254 C1255 1.391 . S
C1255 H1243 0.950 . S
C1255 C1251 1.393 . S
C1255 C1254 1.391 . S
H1256 C1264 0.950 . S
H1257 C1269 0.950 . S
H1258 C1266 0.950 . S
H1259 C1268 0.950 . S
H1260 C1270 0.950 . S
H1261 C1272 0.950 . S
H1262 C1274 0.950 . S
H1263 C1275 0.950 . S
C1264 H1256 0.950 . S
C1264 C1265 1.386 . S
C1264 C1266 1.391 . S
C1265 C1264 1.386 . S
C1265 C1269 1.393 . S
C1266 H1258 0.950 . S
C1266 C1264 1.391 . S
C1266 C1267 1.400 . S
C1267 C1266 1.400 . S
C1267 C1268 1.398 . S
C1267 C1273 1.491 . S
C1268 H1259 0.950 . S
C1268 C1267 1.398 . S
C1268 C1269 1.391 . S
C1269 H1257 0.950 . S
C1269 C1265 1.393 . S
C1269 C1268 1.391 . S
C1270 H1260 0.950 . S
C1270 C1271 1.386 . S
C1270 C1272 1.391 . S
C1271 C1270 1.386 . S
C1271 C1275 1.393 . S
C1272 H1261 0.950 . S
C1272 C1270 1.391 . S
C1272 C1273 1.400 . S
C1273 C1267 1.491 . S
C1273 C1272 1.400 . S
C1273 C1274 1.398 . S
C1274 H1262 0.950 . S
C1274 C1273 1.398 . S
C1274 C1275 1.391 . S
C1275 H1263 0.950 . S
C1275 C1271 1.393 . S
C1275 C1274 1.391 . S
H1276 C1284 0.950 . S
H1277 C1289 0.950 . S
H1278 C1286 0.950 . S
H1279 C1288 0.950 . S
H1280 C1290 0.950 . S
H1281 C1292 0.950 . S
H1282 C1294 0.950 . S
H1283 C1295 0.950 . S
C1284 H1276 0.950 . S
C1284 C1285 1.386 . S
C1284 C1286 1.391 . S
C1285 C1284 1.386 . S
C1285 C1289 1.393 . S
C1286 H1278 0.950 . S
C1286 C1284 1.391 . S
C1286 C1287 1.400 . S
C1287 C1286 1.400 . S
C1287 C1288 1.398 . S
C1287 C1293 1.491 . S
C1288 H1279 0.950 . S
C1288 C1287 1.398 . S
C1288 C1289 1.391 . S
C1289 H1277 0.950 . S
C1289 C1285 1.393 . S
C1289 C1288 1.391 . S
C1290 H1280 0.950 . S
C1290 C1291 1.386 . S
C1290 C1292 1.391 . S
C1291 C1290 1.386 . S
C1291 C1295 1.393 . S
C1292 H1281 0.950 . S
C1292 C1290 1.391 . S
C1292 C1293 1.400 . S
C1293 C1287 1.491 . S
C1293 C1292 1.400 . S
C1293 C1294 1.398 . S
C1294 H1282 0.950 . S
C1294 C1293 1.398 . S
C1294 C1295 1.391 . S
C1295 H1283 0.950 . S
C1295 C1291 1.393 . S
C1295 C1294 1.391 . S
H1296 C1304 0.950 . S
H1297 C1309 0.950 . S
H1298 C1306 0.950 . S
H1299 C1308 0.950 . S
H1300 C1310 0.950 . S
H1301 C1312 0.950 . S
H1302 C1314 0.950 . S
H1303 C1315 0.950 . S
C1304 H1296 0.950 . S
C1304 C1305 1.386 . S
C1304 C1306 1.391 . S
C1305 C1304 1.386 . S
C1305 C1309 1.393 . S
C1306 H1298 0.950 . S
C1306 C1304 1.391 . S
C1306 C1307 1.400 . S
C1307 C1306 1.400 . S
C1307 C1308 1.398 . S
C1307 C1313 1.491 . S
C1308 H1299 0.950 . S
C1308 C1307 1.398 . S
C1308 C1309 1.391 . S
C1309 H1297 0.950 . S
C1309 C1305 1.393 . S
C1309 C1308 1.391 . S
C1310 H1300 0.950 . S
C1310 C1311 1.386 . S
C1310 C1312 1.391 . S
C1311 C1310 1.386 . S
C1311 C1315 1.393 . S
C1312 H1301 0.950 . S
C1312 C1310 1.391 . S
C1312 C1313 1.400 . S
C1313 C1307 1.491 . S
C1313 C1312 1.400 . S
C1313 C1314 1.398 . S
C1314 H1302 0.950 . S
C1314 C1313 1.398 . S
C1314 C1315 1.391 . S
C1315 H1303 0.950 . S
C1315 C1311 1.393 . S
C1315 C1314 1.391 . S
H1316 C1324 0.950 . S
H1317 C1329 0.950 . S
H1318 C1326 0.950 . S
H1319 C1328 0.950 . S
H1320 C1330 0.950 . S
H1321 C1332 0.950 . S
H1322 C1334 0.950 . S
H1323 C1335 0.950 . S
C1324 H1316 0.950 . S
C1324 C1325 1.386 . S
C1324 C1326 1.391 . S
C1325 C1324 1.386 . S
C1325 C1329 1.393 . S
C1326 H1318 0.950 . S
C1326 C1324 1.391 . S
C1326 C1327 1.400 . S
C1327 C1326 1.400 . S
C1327 C1328 1.398 . S
C1327 C1333 1.491 . S
C1328 H1319 0.950 . S
C1328 C1327 1.398 . S
C1328 C1329 1.391 . S
C1329 H1317 0.950 . S
C1329 C1325 1.393 . S
C1329 C1328 1.391 . S
C1330 H1320 0.950 . S
C1330 C1331 1.386 . S
C1330 C1332 1.391 . S
C1331 C1330 1.386 . S
C1331 C1335 1.393 . S
C1332 H1321 0.950 . S
C1332 C1330 1.391 . S
C1332 C1333 1.400 . S
C1333 C1327 1.491 . S
C1333 C1332 1.400 . S
C1333 C1334 1.398 . S
C1334 H1322 0.950 . S
C1334 C1333 1.398 . S
C1334 C1335 1.391 . S
C1335 H1323 0.950 . S
C1335 C1331 1.393 . S
C1335 C1334 1.391 . S
H1336 C1344 0.950 . S
H1337 C1349 0.950 . S
H1338 C1346 0.950 . S
H1339 C1348 0.950 . S
H1340 C1350 0.950 . S
H1341 C1352 0.950 . S
H1342 C1354 0.950 . S
H1343 C1355 0.950 . S
C1344 H1336 0.950 . S
C1344 C1345 1.386 . S
C1344 C1346 1.391 . S
C1345 C1344 1.386 . S
C1345 C1349 1.393 . S
C1346 H1338 0.950 . S
C1346 C1344 1.391 . S
C1346 C1347 1.400 . S
C1347 C1346 1.400 . S
C1347 C1348 1.398 . S
C1347 C1353 1.491 . S
C1348 H1339 0.950 . S
C1348 C1347 1.398 . S
C1348 C1349 1.391 . S
C1349 H1337 0.950 . S
C1349 C1345 1.393 . S
C1349 C1348 1.391 . S
C1350 H1340 0.950 . S
C1350 C1351 1.386 . S
C1350 C1352 1.391 . S
C1351 C1350 1.386 . S
C1351 C1355 1.393 . S
C1352 H1341 0.950 . S
C1352 C1350 1.391 . S
C1352 C1353 1.400 . S
C1353 C1347 1.491 . S
C1353 C1352 1.400 . S
C1353 C1354 1.398 . S
C1354 H1342 0.950 . S
C1354 C1353 1.398 . S
C1354 C1355 1.391 . S
C1355 H1343 0.950 . S
C1355 C1351 1.393 . S
C1355 C1354 1.391 . S
H1356 C1364 0.950 . S
H1357 C1369 0.950 . S
H1358 C1366 0.950 . S
H1359 C1368 0.950 . S
H1360 C1370 0.950 . S
H1361 C1372 0.950 . S
H1362 C1374 0.950 . S
H1363 C1375 0.950 . S
C1364 H1356 0.950 . S
C1364 C1365 1.386 . S
C1364 C1366 1.391 . S
C1365 C1364 1.386 . S
C1365 C1369 1.393 . S
C1366 H1358 0.950 . S
C1366 C1364 1.391 . S
C1366 C1367 1.400 . S
C1367 C1366 1.400 . S
C1367 C1368 1.398 . S
C1367 C1373 1.491 . S
C1368 H1359 0.950 . S
C1368 C1367 1.398 . S
C1368 C1369 1.391 . S
C1369 H1357 0.950 . S
C1369 C1365 1.393 . S
C1369 C1368 1.391 . S
C1370 H1360 0.950 . S
C1370 C1371 1.386 . S
C1370 C1372 1.391 . S
C1371 C1370 1.386 . S
C1371 C1375 1.393 . S
C1372 H1361 0.950 . S
C1372 C1370 1.391 . S
C1372 C1373 1.400 . S
C1373 C1367 1.491 . S
C1373 C1372 1.400 . S
C1373 C1374 1.398 . S
C1374 H1362 0.950 . S
C1374 C1373 1.398 . S
C1374 C1375 1.391 . S
C1375 H1363 0.950 . S
C1375 C1371 1.393 . S
C1375 C1374 1.391 . S
H1376 C1384 0.950 . S
H1377 C1389 0.950 . S
H1378 C1386 0.950 . S
H1379 C1388 0.950 . S
H1380 C1390 0.950 . S
H1381 C1392 0.950 . S
H1382 C1394 0.950 . S
H1383 C1395 0.950 . S
C1384 H1376 0.950 . S
C1384 C1385 1.386 . S
C1384 C1386 1.391 . S
C1385 C1384 1.386 . S
C1385 C1389 1.393 . S
C1386 H1378 0.950 . S
C1386 C1384 1.391 . S
C1386 C1387 1.400 . S
C1387 C1386 1.400 . S
C1387 C1388 1.398 . S
C1387 C1393 1.491 . S
C1388 H1379 0.950 . S
C1388 C1387 1.398 . S
C1388 C1389 1.391 . S
C1389 H1377 0.950 . S
C1389 C1385 1.393 . S
C1389 C1388 1.391 . S
C1390 H1380 0.950 . S
C1390 C1391 1.386 . S
C1390 C1392 1.391 . S
C1391 C1390 1.386 . S
C1391 C1395 1.393 . S
C1392 H1381 0.950 . S
C1392 C1390 1.391 . S
C1392 C1393 1.400 . S
C1393 C1387 1.491 . S
C1393 C1392 1.400 . S
C1393 C1394 1.398 . S
C1394 H1382 0.950 . S
C1394 C1393 1.398 . S
C1394 C1395 1.391 . S
C1395 H1383 0.950 . S
C1395 C1391 1.393 . S
C1395 C1394 1.391 . S
H1396 C1404 0.950 . S
H1397 C1409 0.950 . S
H1398 C1406 0.950 . S
H1399 C1408 0.950 . S
H1400 C1410 0.950 . S
H1401 C1412 0.950 . S
H1402 C1414 0.950 . S
H1403 C1415 0.950 . S
C1404 H1396 0.950 . S
C1404 C1405 1.386 . S
C1404 C1406 1.391 . S
C1405 C1404 1.386 . S
C1405 C1409 1.393 . S
C1406 H1398 0.950 . S
C1406 C1404 1.391 . S
C1406 C1407 1.400 . S
C1407 C1406 1.400 . S
C1407 C1408 1.398 . S
C1407 C1413 1.491 . S
C1408 H1399 0.950 . S
C1408 C1407 1.398 . S
C1408 C1409 1.391 . S
C1409 H1397 0.950 . S
C1409 C1405 1.393 . S
C1409 C1408 1.391 . S
C1410 H1400 0.950 . S
C1410 C1411 1.386 . S
C1410 C1412 1.391 . S
C1411 C1410 1.386 . S
C1411 C1415 1.393 . S
C1412 H1401 0.950 . S
C1412 C1410 1.391 . S
C1412 C1413 1.400 . S
C1413 C1407 1.491 . S
C1413 C1412 1.400 . S
C1413 C1414 1.398 . S
C1414 H1402 0.950 . S
C1414 C1413 1.398 . S
C1414 C1415 1.391 . S
C1415 H1403 0.950 . S
C1415 C1411 1.393 . S
C1415 C1414 1.391 . S
H1416 C1424 0.950 . S
H1417 C1429 0.950 . S
H1418 C1426 0.950 . S
H1419 C1428 0.950 . S
H1420 C1430 0.950 . S
H1421 C1432 0.950 . S
H1422 C1434 0.950 . S
H1423 C1435 0.950 . S
C1424 H1416 0.950 . S
C1424 C1425 1.386 . S
C1424 C1426 1.391 . S
C1425 C1424 1.386 . S
C1425 C1429 1.393 . S
C1426 H1418 0.950 . S
C1426 C1424 1.391 . S
C1426 C1427 1.400 . S
C1427 C1426 1.400 . S
C1427 C1428 1.398 . S
C1427 C1433 1.491 . S
C1428 H1419 0.950 . S
C1428 C1427 1.398 . S
C1428 C1429 1.391 . S
C1429 H1417 0.950 . S
C1429 C1425 1.393 . S
C1429 C1428 1.391 . S
C1430 H1420 0.950 . S
C1430 C1431 1.386 . S
C1430 C1432 1.391 . S
C1431 C1430 1.386 . S
C1431 C1435 1.393 . S
C1432 H1421 0.950 . S
C1432 C1430 1.391 . S
C1432 C1433 1.400 . S
C1433 C1427 1.491 . S
C1433 C1432 1.400 . S
C1433 C1434 1.398 . S
C1434 H1422 0.950 . S
C1434 C1433 1.398 . S
C1434 C1435 1.391 . S
C1435 H1423 0.950 . S
C1435 C1431 1.393 . S
C1435 C1434 1.391 . S
H1436 C1444 0.950 . S
H1437 C1449 0.950 . S
H1438 C1446 0.950 . S
H1439 C1448 0.950 . S
H1440 C1450 0.950 . S
H1441 C1452 0.950 . S
H1442 C1454 0.950 . S
H1443 C1455 0.950 . S
C1444 H1436 0.950 . S
C1444 C1445 1.386 . S
C1444 C1446 1.391 . S
C1445 C1444 1.386 . S
C1445 C1449 1.393 . S
C1446 H1438 0.950 . S
C1446 C1444 1.391 . S
C1446 C1447 1.400 . S
C1447 C1446 1.400 . S
C1447 C1448 1.398 . S
C1447 C1453 1.491 . S
C1448 H1439 0.950 . S
C1448 C1447 1.398 . S
C1448 C1449 1.391 . S
C1449 H1437 0.950 . S
C1449 C1445 1.393 . S
C1449 C1448 1.391 . S
C1450 H1440 0.950 . S
C1450 C1451 1.386 . S
C1450 C1452 1.391 . S
C1451 C1450 1.386 . S
C1451 C1455 1.393 . S
C1452 H1441 0.950 . S
C1452 C1450 1.391 . S
C1452 C1453 1.400 . S
C1453 C1447 1.491 . S
C1453 C1452 1.400 . S
C1453 C1454 1.398 . S
C1454 H1442 0.950 . S
C1454 C1453 1.398 . S
C1454 C1455 1.391 . S
C1455 H1443 0.950 . S
C1455 C1451 1.393 . S
C1455 C1454 1.391 . S
H1456 C1464 0.950 . S
H1457 C1469 0.950 . S
H1458 C1466 0.950 . S
H1459 C1468 0.950 . S
H1460 C1470 0.950 . S
H1461 C1472 0.950 . S
H1462 C1474 0.950 . S
H1463 C1475 0.950 . S
C1464 H1456 0.950 . S
C1464 C1465 1.386 . S
C1464 C1466 1.391 . S
C1465 C1464 1.386 . S
C1465 C1469 1.393 . S
C1466 H1458 0.950 . S
C1466 C1464 1.391 . S
C1466 C1467 1.400 . S
C1467 C1466 1.400 . S
C1467 C1468 1.398 . S
C1467 C1473 1.491 . S
C1468 H1459 0.950 . S
C1468 C1467 1.398 . S
C1468 C1469 1.391 . S
C1469 H1457 0.950 . S
C1469 C1465 1.393 . S
C1469 C1468 1.391 . S
C1470 H1460 0.950 . S
C1470 C1471 1.386 . S
C1470 C1472 1.391 . S
C1471 C1470 1.386 . S
C1471 C1475 1.393 . S
C1472 H1461 0.950 . S
C1472 C1470 1.391 . S
C1472 C1473 1.400 . S
C1473 C1467 1.491 . S
C1473 C1472 1.400 . S
C1473 C1474 1.398 . S
C1474 H1462 0.950 . S
C1474 C1473 1.398 . S
C1474 C1475 1.391 . S
C1475 H1463 0.950 . S
C1475 C1471 1.393 . S
C1475 C1474 1.391 . S
H1476 C1484 0.950 . S
H1477 C1489 0.950 . S
H1478 C1486 0.950 . S
H1479 C1488 0.950 . S
H1480 C1490 0.950 . S
H1481 C1492 0.950 . S
H1482 C1494 0.950 . S
H1483 C1495 0.950 . S
C1484 H1476 0.950 . S
C1484 C1485 1.386 . S
C1484 C1486 1.391 . S
C1485 C1484 1.386 . S
C1485 C1489 1.393 . S
C1486 H1478 0.950 . S
C1486 C1484 1.391 . S
C1486 C1487 1.400 . S
C1487 C1486 1.400 . S
C1487 C1488 1.398 . S
C1487 C1493 1.491 . S
C1488 H1479 0.950 . S
C1488 C1487 1.398 . S
C1488 C1489 1.391 . S
C1489 H1477 0.950 . S
C1489 C1485 1.393 . S
C1489 C1488 1.391 . S
C1490 H1480 0.950 . S
C1490 C1491 1.386 . S
C1490 C1492 1.391 . S
C1491 C1490 1.386 . S
C1491 C1495 1.393 . S
C1492 H1481 0.950 . S
C1492 C1490 1.391 . S
C1492 C1493 1.400 . S
C1493 C1487 1.491 . S
C1493 C1492 1.400 . S
C1493 C1494 1.398 . S
C1494 H1482 0.950 . S
C1494 C1493 1.398 . S
C1494 C1495 1.391 . S
C1495 H1483 0.950 . S
C1495 C1491 1.393 . S
C1495 C1494 1.391 . S
H1496 C1504 0.950 . S
H1497 C1509 0.950 . S
H1498 C1506 0.950 . S
H1499 C1508 0.950 . S
H1500 C1510 0.950 . S
H1501 C1512 0.950 . S
H1502 C1514 0.950 . S
H1503 C1515 0.950 . S
C1504 H1496 0.950 . S
C1504 C1505 1.386 . S
C1504 C1506 1.391 . S
C1505 C1504 1.386 . S
C1505 C1509 1.393 . S
C1506 H1498 0.950 . S
C1506 C1504 1.391 . S
C1506 C1507 1.400 . S
C1507 C1506 1.400 . S
C1507 C1508 1.398 . S
C1507 C1513 1.491 . S
C1508 H1499 0.950 . S
C1508 C1507 1.398 . S
C1508 C1509 1.391 . S
C1509 H1497 0.950 . S
C1509 C1505 1.393 . S
C1509 C1508 1.391 . S
C1510 H1500 0.950 . S
C1510 C1511 1.386 . S
C1510 C1512 1.391 . S
C1511 C1510 1.386 . S
C1511 C1515 1.393 . S
C1512 H1501 0.950 . S
C1512 C1510 1.391 . S
C1512 C1513 1.400 . S
C1513 C1507 1.491 . S
C1513 C1512 1.400 . S
C1513 C1514 1.398 . S
C1514 H1502 0.950 . S
C1514 C1513 1.398 . S
C1514 C1515 1.391 . S
C1515 H1503 0.950 . S
C1515 C1511 1.393 . S
C1515 C1514 1.391 . S
H1516 C1524 0.950 . S
H1517 C1529 0.950 . S
H1518 C1526 0.950 . S
H1519 C1528 0.950 . S
H1520 C1530 0.950 . S
H1521 C1532 0.950 . S
H1522 C1534 0.950 . S
H1523 C1535 0.950 . S
C1524 H1516 0.950 . S
C1524 C1525 1.386 . S
C1524 C1526 1.391 . S
C1525 C1524 1.386 . S
C1525 C1529 1.393 . S
C1526 H1518 0.950 . S
C1526 C1524 1.391 . S
C1526 C1527 1.400 . S
C1527 C1526 1.400 . S
C1527 C1528 1.398 . S
C1527 C1533 1.491 . S
C1528 H1519 0.950 . S
C1528 C1527 1.398 . S
C1528 C1529 1.391 . S
C1529 H1517 0.950 . S
C1529 C1525 1.393 . S
C1529 C1528 1.391 . S
C1530 H1520 0.950 . S
C1530 C1531 1.386 . S
C1530 C1532 1.391 . S
C1531 C1530 1.386 . S
C1531 C1535 1.393 . S
C1532 H1521 0.950 . S
C1532 C1530 1.391 . S
C1532 C1533 1.400 . S
C1533 C1527 1.491 . S
C1533 C1532 1.400 . S
C1533 C1534 1.398 . S
C1534 H1522 0.950 . S
C1534 C1533 1.398 . S
C1534 C1535 1.391 . S
C1535 H1523 0.950 . S
C1535 C1531 1.393 . S
C1535 C1534 1.391 . S
H1536 C1544 0.950 . S
H1537 C1549 0.950 . S
H1538 C1546 0.950 . S
H1539 C1548 0.950 . S
H1540 C1550 0.950 . S
H1541 C1552 0.950 . S
H1542 C1554 0.950 . S
H1543 C1555 0.950 . S
C1544 H1536 0.950 . S
C1544 C1545 1.386 . S
C1544 C1546 1.391 . S
C1545 C1544 1.386 . S
C1545 C1549 1.393 . S
C1546 H1538 0.950 . S
C1546 C1544 1.391 . S
C1546 C1547 1.400 . S
C1547 C1546 1.400 . S
C1547 C1548 1.398 . S
C1547 C1553 1.491 . S
C1548 H1539 0.950 . S
C1548 C1547 1.398 . S
C1548 C1549 1.391 . S
C1549 H1537 0.950 . S
C1549 C1545 1.393 . S
C1549 C1548 1.391 . S
C1550 H1540 0.950 . S
C1550 C1551 1.386 . S
C1550 C1552 1.391 . S
C1551 C1550 1.386 . S
C1551 C1555 1.393 . S
C1552 H1541 0.950 . S
C1552 C1550 1.391 . S
C1552 C1553 1.400 . S
C1553 C1547 1.491 . S
C1553 C1552 1.400 . S
C1553 C1554 1.398 . S
C1554 H1542 0.950 . S
C1554 C1553 1.398 . S
C1554 C1555 1.391 . S
C1555 H1543 0.950 . S
C1555 C1551 1.393 . S
C1555 C1554 1.391 . S
H1556 C1564 0.950 . S
H1557 C1569 0.950 . S
H1558 C1566 0.950 . S
H1559 C1568 0.950 . S
H1560 C1570 0.950 . S
H1561 C1572 0.950 . S
H1562 C1574 0.950 . S
H1563 C1575 0.950 . S
C1564 H1556 0.950 . S
C1564 C1565 1.386 . S
C1564 C1566 1.391 . S
C1565 C1564 1.386 . S
C1565 C1569 1.393 . S
C1566 H1558 0.950 . S
C1566 C1564 1.391 . S
C1566 C1567 1.400 . S
C1567 C1566 1.400 . S
C1567 C1568 1.398 . S
C1567 C1573 1.491 . S
C1568 H1559 0.950 . S
C1568 C1567 1.398 . S
C1568 C1569 1.391 . S
C1569 H1557 0.950 . S
C1569 C1565 1.393 . S
C1569 C1568 1.391 . S
C1570 H1560 0.950 . S
C1570 C1571 1.386 . S
C1570 C1572 1.391 . S
C1571 C1570 1.386 . S
C1571 C1575 1.393 . S
C1572 H1561 0.950 . S
C1572 C1570 1.391 . S
C1572 C1573 1.400 . S
C1573 C1567 1.491 . S
C1573 C1572 1.400 . S
C1573 C1574 1.398 . S
C1574 H1562 0.950 . S
C1574 C1573 1.398 . S
C1574 C1575 1.391 . S
C1575 H1563 0.950 . S
C1575 C1571 1.393 . S
C1575 C1574 1.391 . S
H1576 C1584 0.950 . S
H1577 C1589 0.950 . S
H1578 C1586 0.950 . S
H1579 C1588 0.950 . S
H1580 C1590 0.950 . S
H1581 C1592 0.950 . S
H1582 C1594 0.950 . S
H1583 C1595 0.950 . S
C1584 H1576 0.950 . S
C1584 C1585 1.386 . S
C1584 C1586 1.391 . S
C1585 C1584 1.386 . S
C1585 C1589 1.393 . S
C1586 H1578 0.950 . S
C1586 C1584 1.391 . S
C1586 C1587 1.400 . S
C1587 C1586 1.400 . S
C1587 C1588 1.398 . S
C1587 C1593 1.491 . S
C1588 H1579 0.950 . S
C1588 C1587 1.398 . S
C1588 C1589 1.391 . S
C1589 H1577 0.950 . S
C1589 C1585 1.393 . S
C1589 C1588 1.391 . S
C1590 H1580 0.950 . S
C1590 C1591 1.386 . S
C1590 C1592 1.391 . S
C1591 C1590 1.386 . S
C1591 C1595 1.393 . S
C1592 H1581 0.950 . S
C1592 C1590 1.391 . S
C1592 C1593 1.400 . S
C1593 C1587 1.491 . S
C1593 C1592 1.400 . S
C1593 C1594 1.398 . S
C1594 H1582 0.950 . S
C1594 C1593 1.398 . S
C1594 C1595 1.391 . S
C1595 H1583 0.950 . S
C1595 C1591 1.393 . S
C1595 C1594 1.391 . S
H1596 C1604 0.950 . S
H1597 C1609 0.950 . S
H1598 C1606 0.950 . S
H1599 C1608 0.950 . S
H1600 C1610 0.950 . S
H1601 C1612 0.950 . S
H1602 C1614 0.950 . S
H1603 C1615 0.950 1_556 S
C1604 H1596 0.950 . S
C1604 C1605 1.386 . S
C1604 C1606 1.391 . S
C1605 C1604 1.386 . S
C1605 C1609 1.393 . S
C1606 H1598 0.950 . S
C1606 C1604 1.391 . S
C1606 C1607 1.400 . S
C1607 C1606 1.400 . S
C1607 C1608 1.398 . S
C1607 C1613 1.491 . S
C1608 H1599 0.950 . S
C1608 C1607 1.398 . S
C1608 C1609 1.391 . S
C1609 H1597 0.950 . S
C1609 C1605 1.393 . S
C1609 C1608 1.391 . S
C1610 H1600 0.950 . S
C1610 C1611 1.386 . S
C1610 C1612 1.391 . S
C1611 C1610 1.386 . S
C1611 C1615 1.393 . S
C1612 H1601 0.950 . S
C1612 C1610 1.391 . S
C1612 C1613 1.400 . S
C1613 C1607 1.491 . S
C1613 C1612 1.400 . S
C1613 C1614 1.398 . S
C1614 H1602 0.950 . S
C1614 C1613 1.398 . S
C1614 C1615 1.391 . S
C1615 H1603 0.950 1_554 S
C1615 C1611 1.393 . S
C1615 C1614 1.391 . S
H1616 C1624 0.950 . S
H1617 C1629 0.950 . S
H1618 C1626 0.950 . S
H1619 C1628 0.950 . S
H1620 C1630 0.950 . S
H1621 C1632 0.950 . S
H1622 C1634 0.950 . S
H1623 C1635 0.950 . S
C1624 H1616 0.950 . S
C1624 C1625 1.386 . S
C1624 C1626 1.391 . S
C1625 C1624 1.386 . S
C1625 C1629 1.393 . S
C1626 H1618 0.950 . S
C1626 C1624 1.391 . S
C1626 C1627 1.400 . S
C1627 C1626 1.400 . S
C1627 C1628 1.398 . S
C1627 C1633 1.491 . S
C1628 H1619 0.950 . S
C1628 C1627 1.398 . S
C1628 C1629 1.391 . S
C1629 H1617 0.950 . S
C1629 C1625 1.393 . S
C1629 C1628 1.391 . S
C1630 H1620 0.950 . S
C1630 C1631 1.386 . S
C1630 C1632 1.391 . S
C1631 C1630 1.386 . S
C1631 C1635 1.393 . S
C1632 H1621 0.950 . S
C1632 C1630 1.391 . S
C1632 C1633 1.400 . S
C1633 C1627 1.491 . S
C1633 C1632 1.400 . S
C1633 C1634 1.398 . S
C1634 H1622 0.950 . S
C1634 C1633 1.398 . S
C1634 C1635 1.391 . S
C1635 H1623 0.950 . S
C1635 C1631 1.393 . S
C1635 C1634 1.391 . S
H1636 C1644 0.950 . S
H1637 C1649 0.950 . S
H1638 C1646 0.950 . S
H1639 C1648 0.950 . S
H1640 C1650 0.950 . S
H1641 C1652 0.950 . S
H1642 C1654 0.950 . S
H1643 C1655 0.950 . S
C1644 H1636 0.950 . S
C1644 C1645 1.386 . S
C1644 C1646 1.391 . S
C1645 C1644 1.386 . S
C1645 C1649 1.393 . S
C1646 H1638 0.950 . S
C1646 C1644 1.391 . S
C1646 C1647 1.400 . S
C1647 C1646 1.400 . S
C1647 C1648 1.398 . S
C1647 C1653 1.491 . S
C1648 H1639 0.950 . S
C1648 C1647 1.398 . S
C1648 C1649 1.391 . S
C1649 H1637 0.950 . S
C1649 C1645 1.393 . S
C1649 C1648 1.391 . S
C1650 H1640 0.950 . S
C1650 C1651 1.386 . S
C1650 C1652 1.391 . S
C1651 C1650 1.386 . S
C1651 C1655 1.393 . S
C1652 H1641 0.950 . S
C1652 C1650 1.391 . S
C1652 C1653 1.400 . S
C1653 C1647 1.491 . S
C1653 C1652 1.400 . S
C1653 C1654 1.398 . S
C1654 H1642 0.950 . S
C1654 C1653 1.398 . S
C1654 C1655 1.391 . S
C1655 H1643 0.950 . S
C1655 C1651 1.393 . S
C1655 C1654 1.391 . S
H1656 C1664 0.950 . S
H1657 C1669 0.950 . S
H1658 C1666 0.950 . S
H1659 C1668 0.950 . S
H1660 C1670 0.950 . S
H1661 C1672 0.950 . S
H1662 C1674 0.950 . S
H1663 C1675 0.950 . S
C1664 H1656 0.950 . S
C1664 C1665 1.386 . S
C1664 C1666 1.391 . S
C1665 C1664 1.386 . S
C1665 C1669 1.393 . S
C1666 H1658 0.950 . S
C1666 C1664 1.391 . S
C1666 C1667 1.400 . S
C1667 C1666 1.400 . S
C1667 C1668 1.398 . S
C1667 C1673 1.491 . S
C1668 H1659 0.950 . S
C1668 C1667 1.398 . S
C1668 C1669 1.391 . S
C1669 H1657 0.950 . S
C1669 C1665 1.393 . S
C1669 C1668 1.391 . S
C1670 H1660 0.950 . S
C1670 C1671 1.386 . S
C1670 C1672 1.391 . S
C1671 C1670 1.386 . S
C1671 C1675 1.393 . S
C1672 H1661 0.950 . S
C1672 C1670 1.391 . S
C1672 C1673 1.400 . S
C1673 C1667 1.491 . S
C1673 C1672 1.400 . S
C1673 C1674 1.398 . S
C1674 H1662 0.950 . S
C1674 C1673 1.398 . S
C1674 C1675 1.391 . S
C1675 H1663 0.950 . S
C1675 C1671 1.393 . S
C1675 C1674 1.391 . S
H1676 C1684 0.950 . S
H1677 C1689 0.950 . S
H1678 C1686 0.950 . S
H1679 C1688 0.950 . S
H1680 C1690 0.950 . S
H1681 C1692 0.950 . S
H1682 C1694 0.950 . S
H1683 C1695 0.950 . S
C1684 H1676 0.950 . S
C1684 C1685 1.386 . S
C1684 C1686 1.391 . S
C1685 C1684 1.386 . S
C1685 C1689 1.393 . S
C1686 H1678 0.950 . S
C1686 C1684 1.391 . S
C1686 C1687 1.400 . S
C1687 C1686 1.400 . S
C1687 C1688 1.398 . S
C1687 C1693 1.491 . S
C1688 H1679 0.950 . S
C1688 C1687 1.398 . S
C1688 C1689 1.391 . S
C1689 H1677 0.950 . S
C1689 C1685 1.393 . S
C1689 C1688 1.391 . S
C1690 H1680 0.950 . S
C1690 C1691 1.386 . S
C1690 C1692 1.391 . S
C1691 C1690 1.386 . S
C1691 C1695 1.393 . S
C1692 H1681 0.950 . S
C1692 C1690 1.391 . S
C1692 C1693 1.400 . S
C1693 C1687 1.491 . S
C1693 C1692 1.400 . S
C1693 C1694 1.398 . S
C1694 H1682 0.950 . S
C1694 C1693 1.398 . S
C1694 C1695 1.391 . S
C1695 H1683 0.950 . S
C1695 C1691 1.393 . S
C1695 C1694 1.391 . S
H1696 C1704 0.950 . S
H1697 C1709 0.950 . S
H1698 C1706 0.950 . S
H1699 C1708 0.950 . S
H1700 C1710 0.950 . S
H1701 C1712 0.950 . S
H1702 C1714 0.950 . S
H1703 C1715 0.950 . S
C1704 H1696 0.950 . S
C1704 C1705 1.386 . S
C1704 C1706 1.391 . S
C1705 C1704 1.386 . S
C1705 C1709 1.393 . S
C1706 H1698 0.950 . S
C1706 C1704 1.391 . S
C1706 C1707 1.400 . S
C1707 C1706 1.400 . S
C1707 C1708 1.398 . S
C1707 C1713 1.491 . S
C1708 H1699 0.950 . S
C1708 C1707 1.398 . S
C1708 C1709 1.391 . S
C1709 H1697 0.950 . S
C1709 C1705 1.393 . S
C1709 C1708 1.391 . S
C1710 H1700 0.950 . S
C1710 C1711 1.386 . S
C1710 C1712 1.391 . S
C1711 C1710 1.386 . S
C1711 C1715 1.393 . S
C1712 H1701 0.950 . S
C1712 C1710 1.391 . S
C1712 C1713 1.400 . S
C1713 C1707 1.491 . S
C1713 C1712 1.400 . S
C1713 C1714 1.398 . S
C1714 H1702 0.950 . S
C1714 C1713 1.398 . S
C1714 C1715 1.391 . S
C1715 H1703 0.950 . S
C1715 C1711 1.393 . S
C1715 C1714 1.391 . S
H1716 C1724 0.950 . S
H1717 C1729 0.950 . S
H1718 C1726 0.950 . S
H1719 C1728 0.950 . S
H1720 C1730 0.950 . S
H1721 C1732 0.950 . S
H1722 C1734 0.950 . S
H1723 C1735 0.950 . S
C1724 H1716 0.950 . S
C1724 C1725 1.386 . S
C1724 C1726 1.391 . S
C1725 C1724 1.386 . S
C1725 C1729 1.393 . S
C1726 H1718 0.950 . S
C1726 C1724 1.391 . S
C1726 C1727 1.400 . S
C1727 C1726 1.400 . S
C1727 C1728 1.398 . S
C1727 C1733 1.491 . S
C1728 H1719 0.950 . S
C1728 C1727 1.398 . S
C1728 C1729 1.391 . S
C1729 H1717 0.950 . S
C1729 C1725 1.393 . S
C1729 C1728 1.391 . S
C1730 H1720 0.950 . S
C1730 C1731 1.386 . S
C1730 C1732 1.391 . S
C1731 C1730 1.386 . S
C1731 C1735 1.393 . S
C1732 H1721 0.950 . S
C1732 C1730 1.391 . S
C1732 C1733 1.400 . S
C1733 C1727 1.491 . S
C1733 C1732 1.400 . S
C1733 C1734 1.398 . S
C1734 H1722 0.950 . S
C1734 C1733 1.398 . S
C1734 C1735 1.391 . S
C1735 H1723 0.950 . S
C1735 C1731 1.393 . S
C1735 C1734 1.391 . S
H1736 C1744 0.950 . S
H1737 C1749 0.950 . S
H1738 C1746 0.950 . S
H1739 C1748 0.950 . S
H1740 C1750 0.950 . S
H1741 C1752 0.950 . S
H1742 C1754 0.950 . S
H1743 C1755 0.950 . S
C1744 H1736 0.950 . S
C1744 C1745 1.386 . S
C1744 C1746 1.391 . S
C1745 C1744 1.386 . S
C1745 C1749 1.393 . S
C1746 H1738 0.950 . S
C1746 C1744 1.391 . S
C1746 C1747 1.400 . S
C1747 C1746 1.400 . S
C1747 C1748 1.398 . S
C1747 C1753 1.491 . S
C1748 H1739 0.950 . S
C1748 C1747 1.398 . S
C1748 C1749 1.391 . S
C1749 H1737 0.950 . S
C1749 C1745 1.393 . S
C1749 C1748 1.391 . S
C1750 H1740 0.950 . S
C1750 C1751 1.386 . S
C1750 C1752 1.391 . S
C1751 C1750 1.386 . S
C1751 C1755 1.393 . S
C1752 H1741 0.950 . S
C1752 C1750 1.391 . S
C1752 C1753 1.400 . S
C1753 C1747 1.491 . S
C1753 C1752 1.400 . S
C1753 C1754 1.398 . S
C1754 H1742 0.950 . S
C1754 C1753 1.398 . S
C1754 C1755 1.391 . S
C1755 H1743 0.950 . S
C1755 C1751 1.393 . S
C1755 C1754 1.391 . S
H1756 C1764 0.950 . S
H1757 C1769 0.950 . S
H1758 C1766 0.950 . S
H1759 C1768 0.950 . S
H1760 C1770 0.950 . S
H1761 C1772 0.950 . S
H1762 C1774 0.950 . S
H1763 C1775 0.950 . S
C1764 H1756 0.950 . S
C1764 C1765 1.386 . S
C1764 C1766 1.391 . S
C1765 C1764 1.386 . S
C1765 C1769 1.393 . S
C1766 H1758 0.950 . S
C1766 C1764 1.391 . S
C1766 C1767 1.400 . S
C1767 C1766 1.400 . S
C1767 C1768 1.398 . S
C1767 C1773 1.491 . S
C1768 H1759 0.950 . S
C1768 C1767 1.398 . S
C1768 C1769 1.391 . S
C1769 H1757 0.950 . S
C1769 C1765 1.393 . S
C1769 C1768 1.391 . S
C1770 H1760 0.950 . S
C1770 C1771 1.386 . S
C1770 C1772 1.391 . S
C1771 C1770 1.386 . S
C1771 C1775 1.393 . S
C1772 H1761 0.950 . S
C1772 C1770 1.391 . S
C1772 C1773 1.400 . S
C1773 C1767 1.491 . S
C1773 C1772 1.400 . S
C1773 C1774 1.398 . S
C1774 H1762 0.950 . S
C1774 C1773 1.398 . S
C1774 C1775 1.391 . S
C1775 H1763 0.950 . S
C1775 C1771 1.393 . S
C1775 C1774 1.391 . S
H1776 C1784 0.950 . S
H1777 C1789 0.950 . S
H1778 C1786 0.950 . S
H1779 C1788 0.950 . S
H1780 C1790 0.950 . S
H1781 C1792 0.950 . S
H1782 C1794 0.950 . S
H1783 C1795 0.950 . S
C1784 H1776 0.950 . S
C1784 C1785 1.386 . S
C1784 C1786 1.391 . S
C1785 C1784 1.386 . S
C1785 C1789 1.393 . S
C1786 H1778 0.950 . S
C1786 C1784 1.391 . S
C1786 C1787 1.400 . S
C1787 C1786 1.400 . S
C1787 C1788 1.398 . S
C1787 C1793 1.491 . S
C1788 H1779 0.950 . S
C1788 C1787 1.398 . S
C1788 C1789 1.391 . S
C1789 H1777 0.950 . S
C1789 C1785 1.393 . S
C1789 C1788 1.391 . S
C1790 H1780 0.950 . S
C1790 C1791 1.386 . S
C1790 C1792 1.391 . S
C1791 C1790 1.386 . S
C1791 C1795 1.393 . S
C1792 H1781 0.950 . S
C1792 C1790 1.391 . S
C1792 C1793 1.400 . S
C1793 C1787 1.491 . S
C1793 C1792 1.400 . S
C1793 C1794 1.398 . S
C1794 H1782 0.950 . S
C1794 C1793 1.398 . S
C1794 C1795 1.391 . S
C1795 H1783 0.950 . S
C1795 C1791 1.393 . S
C1795 C1794 1.391 . S
H1796 C1804 0.950 . S
H1797 C1809 0.950 . S
H1798 C1806 0.950 . S
H1799 C1808 0.950 . S
H1800 C1810 0.950 . S
H1801 C1812 0.950 . S
H1802 C1814 0.950 . S
H1803 C1815 0.950 . S
C1804 H1796 0.950 . S
C1804 C1805 1.386 . S
C1804 C1806 1.391 . S
C1805 C1804 1.386 . S
C1805 C1809 1.393 . S
C1806 H1798 0.950 . S
C1806 C1804 1.391 . S
C1806 C1807 1.400 . S
C1807 C1806 1.400 . S
C1807 C1808 1.398 . S
C1807 C1813 1.491 . S
C1808 H1799 0.950 . S
C1808 C1807 1.398 . S
C1808 C1809 1.391 . S
C1809 H1797 0.950 . S
C1809 C1805 1.393 . S
C1809 C1808 1.391 . S
C1810 H1800 0.950 . S
C1810 C1811 1.386 . S
C1810 C1812 1.391 . S
C1811 C1810 1.386 . S
C1811 C1815 1.393 . S
C1812 H1801 0.950 . S
C1812 C1810 1.391 . S
C1812 C1813 1.400 . S
C1813 C1807 1.491 . S
C1813 C1812 1.400 . S
C1813 C1814 1.398 . S
C1814 H1802 0.950 . S
C1814 C1813 1.398 . S
C1814 C1815 1.391 . S
C1815 H1803 0.950 . S
C1815 C1811 1.393 . S
C1815 C1814 1.391 . S
H1816 C1824 0.950 . S
H1817 C1829 0.950 . S
H1818 C1826 0.950 . S
H1819 C1828 0.950 . S
H1820 C1830 0.950 . S
H1821 C1832 0.950 . S
H1822 C1834 0.950 . S
H1823 C1835 0.950 . S
C1824 H1816 0.950 . S
C1824 C1825 1.386 . S
C1824 C1826 1.391 . S
C1825 C1824 1.386 . S
C1825 C1829 1.393 . S
C1826 H1818 0.950 . S
C1826 C1824 1.391 . S
C1826 C1827 1.400 . S
C1827 C1826 1.400 . S
C1827 C1828 1.398 . S
C1827 C1833 1.491 . S
C1828 H1819 0.950 . S
C1828 C1827 1.398 . S
C1828 C1829 1.391 . S
C1829 H1817 0.950 . S
C1829 C1825 1.393 . S
C1829 C1828 1.391 . S
C1830 H1820 0.950 . S
C1830 C1831 1.386 . S
C1830 C1832 1.391 . S
C1831 C1830 1.386 . S
C1831 C1835 1.393 . S
C1832 H1821 0.950 . S
C1832 C1830 1.391 . S
C1832 C1833 1.400 . S
C1833 C1827 1.491 . S
C1833 C1832 1.400 . S
C1833 C1834 1.398 . S
C1834 H1822 0.950 . S
C1834 C1833 1.398 . S
C1834 C1835 1.391 . S
C1835 H1823 0.950 . S
C1835 C1831 1.393 . S
C1835 C1834 1.391 . S
H1836 C1844 0.950 . S
H1837 C1849 0.950 . S
H1838 C1846 0.950 . S
H1839 C1848 0.950 . S
H1840 C1850 0.950 . S
H1841 C1852 0.950 . S
H1842 C1854 0.950 . S
H1843 C1855 0.950 . S
C1844 H1836 0.950 . S
C1844 C1845 1.386 . S
C1844 C1846 1.391 . S
C1845 C1844 1.386 . S
C1845 C1849 1.393 . S
C1846 H1838 0.950 . S
C1846 C1844 1.391 . S
C1846 C1847 1.400 . S
C1847 C1846 1.400 . S
C1847 C1848 1.398 . S
C1847 C1853 1.491 . S
C1848 H1839 0.950 . S
C1848 C1847 1.398 . S
C1848 C1849 1.391 . S
C1849 H1837 0.950 . S
C1849 C1845 1.393 . S
C1849 C1848 1.391 . S
C1850 H1840 0.950 . S
C1850 C1851 1.386 . S
C1850 C1852 1.391 . S
C1851 C1850 1.386 . S
C1851 C1855 1.393 . S
C1852 H1841 0.950 . S
C1852 C1850 1.391 . S
C1852 C1853 1.400 . S
C1853 C1847 1.491 . S
C1853 C1852 1.400 . S
C1853 C1854 1.398 . S
C1854 H1842 0.950 . S
C1854 C1853 1.398 . S
C1854 C1855 1.391 . S
C1855 H1843 0.950 . S
C1855 C1851 1.393 . S
C1855 C1854 1.391 . S
H1856 C1864 0.950 . S
H1857 C1869 0.950 . S
H1858 C1866 0.950 . S
H1859 C1868 0.950 . S
H1860 C1870 0.950 . S
H1861 C1872 0.950 . S
H1862 C1874 0.950 . S
H1863 C1875 0.950 . S
C1864 H1856 0.950 . S
C1864 C1865 1.386 . S
C1864 C1866 1.391 . S
C1865 C1864 1.386 . S
C1865 C1869 1.393 . S
C1866 H1858 0.950 . S
C1866 C1864 1.391 . S
C1866 C1867 1.400 . S
C1867 C1866 1.400 . S
C1867 C1868 1.398 . S
C1867 C1873 1.491 . S
C1868 H1859 0.950 . S
C1868 C1867 1.398 . S
C1868 C1869 1.391 . S
C1869 H1857 0.950 . S
C1869 C1865 1.393 . S
C1869 C1868 1.391 . S
C1870 H1860 0.950 . S
C1870 C1871 1.386 . S
C1870 C1872 1.391 . S
C1871 C1870 1.386 . S
C1871 C1875 1.393 . S
C1872 H1861 0.950 . S
C1872 C1870 1.391 . S
C1872 C1873 1.400 . S
C1873 C1867 1.491 . S
C1873 C1872 1.400 . S
C1873 C1874 1.398 . S
C1874 H1862 0.950 . S
C1874 C1873 1.398 . S
C1874 C1875 1.391 . S
C1875 H1863 0.950 . S
C1875 C1871 1.393 . S
C1875 C1874 1.391 . S
H1876 C1884 0.950 . S
H1877 C1889 0.950 . S
H1878 C1886 0.950 . S
H1879 C1888 0.950 . S
H1880 C1890 0.950 . S
H1881 C1892 0.950 . S
H1882 C1894 0.950 . S
H1883 C1895 0.950 . S
C1884 H1876 0.950 . S
C1884 C1885 1.386 . S
C1884 C1886 1.391 . S
C1885 C1884 1.386 . S
C1885 C1889 1.393 . S
C1886 H1878 0.950 . S
C1886 C1884 1.391 . S
C1886 C1887 1.400 . S
C1887 C1886 1.400 . S
C1887 C1888 1.398 . S
C1887 C1893 1.491 . S
C1888 H1879 0.950 . S
C1888 C1887 1.398 . S
C1888 C1889 1.391 . S
C1889 H1877 0.950 . S
C1889 C1885 1.393 . S
C1889 C1888 1.391 . S
C1890 H1880 0.950 . S
C1890 C1891 1.386 . S
C1890 C1892 1.391 . S
C1891 C1890 1.386 . S
C1891 C1895 1.393 . S
C1892 H1881 0.950 . S
C1892 C1890 1.391 . S
C1892 C1893 1.400 . S
C1893 C1887 1.491 . S
C1893 C1892 1.400 . S
C1893 C1894 1.398 . S
C1894 H1882 0.950 . S
C1894 C1893 1.398 . S
C1894 C1895 1.391 . S
C1895 H1883 0.950 . S
C1895 C1891 1.393 . S
C1895 C1894 1.391 . S
H1896 C1904 0.950 . S
H1897 C1909 0.950 . S
H1898 C1906 0.950 . S
H1899 C1908 0.950 . S
H1900 C1910 0.950 . S
H1901 C1912 0.950 . S
H1902 C1914 0.950 . S
H1903 C1915 0.950 . S
C1904 H1896 0.950 . S
C1904 C1905 1.386 . S
C1904 C1906 1.391 . S
C1905 C1904 1.386 . S
C1905 C1909 1.393 . S
C1906 H1898 0.950 . S
C1906 C1904 1.391 . S
C1906 C1907 1.400 . S
C1907 C1906 1.400 . S
C1907 C1908 1.398 . S
C1907 C1913 1.491 . S
C1908 H1899 0.950 . S
C1908 C1907 1.398 . S
C1908 C1909 1.391 . S
C1909 H1897 0.950 . S
C1909 C1905 1.393 . S
C1909 C1908 1.391 . S
C1910 H1900 0.950 . S
C1910 C1911 1.386 . S
C1910 C1912 1.391 . S
C1911 C1910 1.386 . S
C1911 C1915 1.393 . S
C1912 H1901 0.950 . S
C1912 C1910 1.391 . S
C1912 C1913 1.400 . S
C1913 C1907 1.491 . S
C1913 C1912 1.400 . S
C1913 C1914 1.398 . S
C1914 H1902 0.950 . S
C1914 C1913 1.398 . S
C1914 C1915 1.391 . S
C1915 H1903 0.950 . S
C1915 C1911 1.393 . S
C1915 C1914 1.391 . S
H1916 C1924 0.950 . S
H1917 C1929 0.950 . S
H1918 C1926 0.950 . S
H1919 C1928 0.950 . S
H1920 C1930 0.950 . S
H1921 C1932 0.950 . S
H1922 C1934 0.950 . S
H1923 C1935 0.950 . S
C1924 H1916 0.950 . S
C1924 C1925 1.386 . S
C1924 C1926 1.391 . S
C1925 C1924 1.386 . S
C1925 C1929 1.393 . S
C1926 H1918 0.950 . S
C1926 C1924 1.391 . S
C1926 C1927 1.400 . S
C1927 C1926 1.400 . S
C1927 C1928 1.398 . S
C1927 C1933 1.491 . S
C1928 H1919 0.950 . S
C1928 C1927 1.398 . S
C1928 C1929 1.391 . S
C1929 H1917 0.950 . S
C1929 C1925 1.393 . S
C1929 C1928 1.391 . S
C1930 H1920 0.950 . S
C1930 C1931 1.386 . S
C1930 C1932 1.391 . S
C1931 C1930 1.386 . S
C1931 C1935 1.393 . S
C1932 H1921 0.950 . S
C1932 C1930 1.391 . S
C1932 C1933 1.400 . S
C1933 C1927 1.491 . S
C1933 C1932 1.400 . S
C1933 C1934 1.398 . S
C1934 H1922 0.950 . S
C1934 C1933 1.398 . S
C1934 C1935 1.391 . S
C1935 H1923 0.950 . S
C1935 C1931 1.393 . S
C1935 C1934 1.391 . S
H1936 C1944 0.950 . S
H1937 C1949 0.950 . S
H1938 C1946 0.950 . S
H1939 C1948 0.950 . S
H1940 C1950 0.950 . S
H1941 C1952 0.950 . S
H1942 C1954 0.950 . S
H1943 C1955 0.950 . S
C1944 H1936 0.950 . S
C1944 C1945 1.386 . S
C1944 C1946 1.391 . S
C1945 C1944 1.386 . S
C1945 C1949 1.393 . S
C1946 H1938 0.950 . S
C1946 C1944 1.391 . S
C1946 C1947 1.400 . S
C1947 C1946 1.400 . S
C1947 C1948 1.398 . S
C1947 C1953 1.491 . S
C1948 H1939 0.950 . S
C1948 C1947 1.398 . S
C1948 C1949 1.391 . S
C1949 H1937 0.950 . S
C1949 C1945 1.393 . S
C1949 C1948 1.391 . S
C1950 H1940 0.950 . S
C1950 C1951 1.386 . S
C1950 C1952 1.391 . S
C1951 C1950 1.386 . S
C1951 C1955 1.393 . S
C1952 H1941 0.950 . S
C1952 C1950 1.391 . S
C1952 C1953 1.400 . S
C1953 C1947 1.491 . S
C1953 C1952 1.400 . S
C1953 C1954 1.398 . S
C1954 H1942 0.950 . S
C1954 C1953 1.398 . S
C1954 C1955 1.391 . S
C1955 H1943 0.950 . S
C1955 C1951 1.393 . S
C1955 C1954 1.391 . S
C1011 C707 1.411 . S
C1005 C74 1.389 . S
C1031 C685 1.549 . S
C1025 C153 1.535 . S
C1051 C682 0.912 . S
C1045 C231 0.923 . S
C1065 C310 0.689 . S
C1071 C694 0.297 . S
C1085 C394 1.524 . S
C1091 C677 1.537 . S
C1111 C699 0.914 . S
C1105 C494 0.927 . S
C1125 C573 0.687 . S
C1131 C704 0.291 . S
C1145 C651 1.391 . S
C1151 C700 1.411 . S
C1171 C758 2.722 . S
C1165 C56 2.795 . S
C1185 C151 1.375 . S
C1191 C808 1.364 . S
C1211 C731 1.580 . S
C1205 C237 1.515 . S
C1231 C807 0.948 . S
C1225 C326 0.907 . S
C1245 C410 0.895 . S
C1251 C736 0.935 . S
C1271 C802 2.724 . S
C1265 C476 2.795 . S
C1285 C571 1.397 . S
C1291 C761 1.395 . S
C1305 C657 1.520 . S
C1311 C793 1.571 . S
C1325 C58 1.517 . S
C1331 C785 1.589 . S
C1345 C392 1.388 . S
C1351 C815 1.383 . S
C1371 C739 1.598 . S
C1365 C478 1.506 . S
C1391 C790 0.950 . S
C1385 C567 0.940 . S
C1405 C655 2.797 . S
C1411 C748 2.729 . S
C1425 C235 2.807 . S
C1431 C812 2.749 . S
C1451 C754 1.391 . S
C1445 C308 1.395 . S
C1465 C147 0.922 . S
C1471 C753 0.938 . S
C1485 C662 1.373 . S
C1491 C869 1.416 . S
C1505 C405 1.502 . S
C1511 C847 1.570 . S
C1531 C844 0.917 . S
C1525 C483 0.932 . S
C1551 C856 0.369 . S
C1545 C562 0.595 . S
C1565 C142 1.529 . S
C1571 C839 1.547 . S
C1591 C861 0.933 . S
C1585 C242 0.903 . S
C1605 C321 0.605 . S
C1611 C866 0.335 . S
C1625 C63 1.378 . S
C1631 C862 1.409 . S
C1645 C644 2.794 . S
C1651 C920 2.727 . S
C1671 C970 1.364 . S
C1665 C403 1.375 . S
C1685 C489 1.490 . S
C1691 C893 1.582 . S
C1705 C578 0.913 . S
C1711 C969 0.959 . S
C1731 C898 0.916 . S
C1725 C158 0.929 . S
C1745 C224 2.795 . S
C1751 C964 2.726 . S
C1771 C923 1.382 . S
C1765 C319 1.389 . S
C1791 C955 1.570 . S
C1785 C69 1.518 . S
C1811 C947 1.575 . S
C1805 C646 1.499 . S
C1825 C140 1.386 . S
C1831 C977 1.377 . S
C1845 C226 1.521 . S
C1851 C901 1.577 . S
C1871 C952 0.962 . S
C1865 C315 0.956 . S
C1885 C67 2.796 . S
C1891 C910 2.729 . S
C1905 C487 2.809 . S
C1911 C974 2.749 . S
C1931 C916 1.400 . S
C1925 C560 1.402 . S
C1951 C915 0.930 . S
C1945 C399 0.939 . S
