# Generated by pormake.
# Topology gar, (4,6)-cn, num edge types: 1
# Building blocks:
#     Node 0, Type 0, BuildingBlock: KUFVIS_clean_sbu_0, # of connection points: 4
#     Node 1, Type 0, BuildingBlock: KUFVIS_clean_sbu_0, # of connection points: 4
#     Node 2, Type 0, BuildingBlock: KUFVIS_clean_sbu_0, # of connection points: 4
#     Node 3, Type 0, BuildingBlock: KUFVIS_clean_sbu_0, # of connection points: 4
#     Node 4, Type 0, BuildingBlock: KUFVIS_clean_sbu_0, # of connection points: 4
#     Node 5, Type 0, BuildingBlock: KUFVIS_clean_sbu_0, # of connection points: 4
#     Node 6, Type 0, BuildingBlock: KUFVIS_clean_sbu_0, # of connection points: 4
#     Node 7, Type 0, BuildingBlock: KUFVIS_clean_sbu_0, # of connection points: 4
#     Node 8, Type 0, BuildingBlock: KUFVIS_clean_sbu_0, # of connection points: 4
#     Node 9, Type 0, BuildingBlock: KUFVIS_clean_sbu_0, # of connection points: 4
#     Node 10, Type 0, BuildingBlock: KUFVIS_clean_sbu_0, # of connection points: 4
#     Node 11, Type 0, BuildingBlock: KUFVIS_clean_sbu_0, # of connection points: 4
#     Node 12, Type 0, BuildingBlock: KUFVIS_clean_sbu_0, # of connection points: 4
#     Node 13, Type 0, BuildingBlock: KUFVIS_clean_sbu_0, # of connection points: 4
#     Node 14, Type 0, BuildingBlock: KUFVIS_clean_sbu_0, # of connection points: 4
#     Node 15, Type 0, BuildingBlock: KUFVIS_clean_sbu_0, # of connection points: 4
#     Node 16, Type 0, BuildingBlock: KUFVIS_clean_sbu_0, # of connection points: 4
#     Node 17, Type 0, BuildingBlock: KUFVIS_clean_sbu_0, # of connection points: 4
#     Node 18, Type 0, BuildingBlock: KUFVIS_clean_sbu_0, # of connection points: 4
#     Node 19, Type 0, BuildingBlock: KUFVIS_clean_sbu_0, # of connection points: 4
#     Node 20, Type 0, BuildingBlock: KUFVIS_clean_sbu_0, # of connection points: 4
#     Node 21, Type 0, BuildingBlock: KUFVIS_clean_sbu_0, # of connection points: 4
#     Node 22, Type 0, BuildingBlock: KUFVIS_clean_sbu_0, # of connection points: 4
#     Node 23, Type 0, BuildingBlock: KUFVIS_clean_sbu_0, # of connection points: 4
#     Node 24, Type 1, BuildingBlock: KUMJIN_clean_sbu_1, # of connection points: 6
#     Node 25, Type 1, BuildingBlock: KUMJIN_clean_sbu_1, # of connection points: 6
#     Node 26, Type 1, BuildingBlock: KUMJIN_clean_sbu_1, # of connection points: 6
#     Node 27, Type 1, BuildingBlock: KUMJIN_clean_sbu_1, # of connection points: 6
#     Node 28, Type 1, BuildingBlock: KUMJIN_clean_sbu_1, # of connection points: 6
#     Node 29, Type 1, BuildingBlock: KUMJIN_clean_sbu_1, # of connection points: 6
#     Node 30, Type 1, BuildingBlock: KUMJIN_clean_sbu_1, # of connection points: 6
#     Node 31, Type 1, BuildingBlock: KUMJIN_clean_sbu_1, # of connection points: 6
#     Node 32, Type 1, BuildingBlock: KUMJIN_clean_sbu_1, # of connection points: 6
#     Node 33, Type 1, BuildingBlock: KUMJIN_clean_sbu_1, # of connection points: 6
#     Node 34, Type 1, BuildingBlock: KUMJIN_clean_sbu_1, # of connection points: 6
#     Node 35, Type 1, BuildingBlock: KUMJIN_clean_sbu_1, # of connection points: 6
#     Node 36, Type 1, BuildingBlock: KUMJIN_clean_sbu_1, # of connection points: 6
#     Node 37, Type 1, BuildingBlock: KUMJIN_clean_sbu_1, # of connection points: 6
#     Node 38, Type 1, BuildingBlock: KUMJIN_clean_sbu_1, # of connection points: 6
#     Node 39, Type 1, BuildingBlock: KUMJIN_clean_sbu_1, # of connection points: 6
#     Edge 40, Type (0, 1), BuildingBlock: XUDNAN_clean_linker_2, # of connection points: 2
#     Edge 41, Type (0, 1), BuildingBlock: XUDNAN_clean_linker_2, # of connection points: 2
#     Edge 42, Type (0, 1), BuildingBlock: XUDNAN_clean_linker_2, # of connection points: 2
#     Edge 43, Type (0, 1), BuildingBlock: XUDNAN_clean_linker_2, # of connection points: 2
#     Edge 44, Type (0, 1), BuildingBlock: XUDNAN_clean_linker_2, # of connection points: 2
#     Edge 45, Type (0, 1), BuildingBlock: XUDNAN_clean_linker_2, # of connection points: 2
#     Edge 46, Type (0, 1), BuildingBlock: XUDNAN_clean_linker_2, # of connection points: 2
#     Edge 47, Type (0, 1), BuildingBlock: XUDNAN_clean_linker_2, # of connection points: 2
#     Edge 48, Type (0, 1), BuildingBlock: XUDNAN_clean_linker_2, # of connection points: 2
#     Edge 49, Type (0, 1), BuildingBlock: XUDNAN_clean_linker_2, # of connection points: 2
#     Edge 50, Type (0, 1), BuildingBlock: XUDNAN_clean_linker_2, # of connection points: 2
#     Edge 51, Type (0, 1), BuildingBlock: XUDNAN_clean_linker_2, # of connection points: 2
#     Edge 52, Type (0, 1), BuildingBlock: XUDNAN_clean_linker_2, # of connection points: 2
#     Edge 53, Type (0, 1), BuildingBlock: XUDNAN_clean_linker_2, # of connection points: 2
#     Edge 54, Type (0, 1), BuildingBlock: XUDNAN_clean_linker_2, # of connection points: 2
#     Edge 55, Type (0, 1), BuildingBlock: XUDNAN_clean_linker_2, # of connection points: 2
#     Edge 56, Type (0, 1), BuildingBlock: XUDNAN_clean_linker_2, # of connection points: 2
#     Edge 57, Type (0, 1), BuildingBlock: XUDNAN_clean_linker_2, # of connection points: 2
#     Edge 58, Type (0, 1), BuildingBlock: XUDNAN_clean_linker_2, # of connection points: 2
#     Edge 59, Type (0, 1), BuildingBlock: XUDNAN_clean_linker_2, # of connection points: 2
#     Edge 60, Type (0, 1), BuildingBlock: XUDNAN_clean_linker_2, # of connection points: 2
#     Edge 61, Type (0, 1), BuildingBlock: XUDNAN_clean_linker_2, # of connection points: 2
#     Edge 62, Type (0, 1), BuildingBlock: XUDNAN_clean_linker_2, # of connection points: 2
#     Edge 63, Type (0, 1), BuildingBlock: XUDNAN_clean_linker_2, # of connection points: 2
#     Edge 64, Type (0, 1), BuildingBlock: XUDNAN_clean_linker_2, # of connection points: 2
#     Edge 65, Type (0, 1), BuildingBlock: XUDNAN_clean_linker_2, # of connection points: 2
#     Edge 66, Type (0, 1), BuildingBlock: XUDNAN_clean_linker_2, # of connection points: 2
#     Edge 67, Type (0, 1), BuildingBlock: XUDNAN_clean_linker_2, # of connection points: 2
#     Edge 68, Type (0, 1), BuildingBlock: XUDNAN_clean_linker_2, # of connection points: 2
#     Edge 69, Type (0, 1), BuildingBlock: XUDNAN_clean_linker_2, # of connection points: 2
#     Edge 70, Type (0, 1), BuildingBlock: XUDNAN_clean_linker_2, # of connection points: 2
#     Edge 71, Type (0, 1), BuildingBlock: XUDNAN_clean_linker_2, # of connection points: 2
#     Edge 72, Type (0, 1), BuildingBlock: XUDNAN_clean_linker_2, # of connection points: 2
#     Edge 73, Type (0, 1), BuildingBlock: XUDNAN_clean_linker_2, # of connection points: 2
#     Edge 74, Type (0, 1), BuildingBlock: XUDNAN_clean_linker_2, # of connection points: 2
#     Edge 75, Type (0, 1), BuildingBlock: XUDNAN_clean_linker_2, # of connection points: 2
#     Edge 76, Type (0, 1), BuildingBlock: XUDNAN_clean_linker_2, # of connection points: 2
#     Edge 77, Type (0, 1), BuildingBlock: XUDNAN_clean_linker_2, # of connection points: 2
#     Edge 78, Type (0, 1), BuildingBlock: XUDNAN_clean_linker_2, # of connection points: 2
#     Edge 79, Type (0, 1), BuildingBlock: XUDNAN_clean_linker_2, # of connection points: 2
#     Edge 80, Type (0, 1), BuildingBlock: XUDNAN_clean_linker_2, # of connection points: 2
#     Edge 81, Type (0, 1), BuildingBlock: XUDNAN_clean_linker_2, # of connection points: 2
#     Edge 82, Type (0, 1), BuildingBlock: XUDNAN_clean_linker_2, # of connection points: 2
#     Edge 83, Type (0, 1), BuildingBlock: XUDNAN_clean_linker_2, # of connection points: 2
#     Edge 84, Type (0, 1), BuildingBlock: XUDNAN_clean_linker_2, # of connection points: 2
#     Edge 85, Type (0, 1), BuildingBlock: XUDNAN_clean_linker_2, # of connection points: 2
#     Edge 86, Type (0, 1), BuildingBlock: XUDNAN_clean_linker_2, # of connection points: 2
#     Edge 87, Type (0, 1), BuildingBlock: XUDNAN_clean_linker_2, # of connection points: 2
#     Edge 88, Type (0, 1), BuildingBlock: XUDNAN_clean_linker_2, # of connection points: 2
#     Edge 89, Type (0, 1), BuildingBlock: XUDNAN_clean_linker_2, # of connection points: 2
#     Edge 90, Type (0, 1), BuildingBlock: XUDNAN_clean_linker_2, # of connection points: 2
#     Edge 91, Type (0, 1), BuildingBlock: XUDNAN_clean_linker_2, # of connection points: 2
#     Edge 92, Type (0, 1), BuildingBlock: XUDNAN_clean_linker_2, # of connection points: 2
#     Edge 93, Type (0, 1), BuildingBlock: XUDNAN_clean_linker_2, # of connection points: 2
#     Edge 94, Type (0, 1), BuildingBlock: XUDNAN_clean_linker_2, # of connection points: 2
#     Edge 95, Type (0, 1), BuildingBlock: XUDNAN_clean_linker_2, # of connection points: 2
#     Edge 96, Type (0, 1), BuildingBlock: XUDNAN_clean_linker_2, # of connection points: 2
#     Edge 97, Type (0, 1), BuildingBlock: XUDNAN_clean_linker_2, # of connection points: 2
#     Edge 98, Type (0, 1), BuildingBlock: XUDNAN_clean_linker_2, # of connection points: 2
#     Edge 99, Type (0, 1), BuildingBlock: XUDNAN_clean_linker_2, # of connection points: 2
#     Edge 100, Type (0, 1), BuildingBlock: XUDNAN_clean_linker_2, # of connection points: 2
#     Edge 101, Type (0, 1), BuildingBlock: XUDNAN_clean_linker_2, # of connection points: 2
#     Edge 102, Type (0, 1), BuildingBlock: XUDNAN_clean_linker_2, # of connection points: 2
#     Edge 103, Type (0, 1), BuildingBlock: XUDNAN_clean_linker_2, # of connection points: 2
#     Edge 104, Type (0, 1), BuildingBlock: XUDNAN_clean_linker_2, # of connection points: 2
#     Edge 105, Type (0, 1), BuildingBlock: XUDNAN_clean_linker_2, # of connection points: 2
#     Edge 106, Type (0, 1), BuildingBlock: XUDNAN_clean_linker_2, # of connection points: 2
#     Edge 107, Type (0, 1), BuildingBlock: XUDNAN_clean_linker_2, # of connection points: 2
#     Edge 108, Type (0, 1), BuildingBlock: XUDNAN_clean_linker_2, # of connection points: 2
#     Edge 109, Type (0, 1), BuildingBlock: XUDNAN_clean_linker_2, # of connection points: 2
#     Edge 110, Type (0, 1), BuildingBlock: XUDNAN_clean_linker_2, # of connection points: 2
#     Edge 111, Type (0, 1), BuildingBlock: XUDNAN_clean_linker_2, # of connection points: 2
#     Edge 112, Type (0, 1), BuildingBlock: XUDNAN_clean_linker_2, # of connection points: 2
#     Edge 113, Type (0, 1), BuildingBlock: XUDNAN_clean_linker_2, # of connection points: 2
#     Edge 114, Type (0, 1), BuildingBlock: XUDNAN_clean_linker_2, # of connection points: 2
#     Edge 115, Type (0, 1), BuildingBlock: XUDNAN_clean_linker_2, # of connection points: 2
#     Edge 116, Type (0, 1), BuildingBlock: XUDNAN_clean_linker_2, # of connection points: 2
#     Edge 117, Type (0, 1), BuildingBlock: XUDNAN_clean_linker_2, # of connection points: 2
#     Edge 118, Type (0, 1), BuildingBlock: XUDNAN_clean_linker_2, # of connection points: 2
#     Edge 119, Type (0, 1), BuildingBlock: XUDNAN_clean_linker_2, # of connection points: 2
#     Edge 120, Type (0, 1), BuildingBlock: XUDNAN_clean_linker_2, # of connection points: 2
#     Edge 121, Type (0, 1), BuildingBlock: XUDNAN_clean_linker_2, # of connection points: 2
#     Edge 122, Type (0, 1), BuildingBlock: XUDNAN_clean_linker_2, # of connection points: 2
#     Edge 123, Type (0, 1), BuildingBlock: XUDNAN_clean_linker_2, # of connection points: 2
#     Edge 124, Type (0, 1), BuildingBlock: XUDNAN_clean_linker_2, # of connection points: 2
#     Edge 125, Type (0, 1), BuildingBlock: XUDNAN_clean_linker_2, # of connection points: 2
#     Edge 126, Type (0, 1), BuildingBlock: XUDNAN_clean_linker_2, # of connection points: 2
#     Edge 127, Type (0, 1), BuildingBlock: XUDNAN_clean_linker_2, # of connection points: 2
#     Edge 128, Type (0, 1), BuildingBlock: XUDNAN_clean_linker_2, # of connection points: 2
#     Edge 129, Type (0, 1), BuildingBlock: XUDNAN_clean_linker_2, # of connection points: 2
#     Edge 130, Type (0, 1), BuildingBlock: XUDNAN_clean_linker_2, # of connection points: 2
#     Edge 131, Type (0, 1), BuildingBlock: XUDNAN_clean_linker_2, # of connection points: 2
#     Edge 132, Type (0, 1), BuildingBlock: XUDNAN_clean_linker_2, # of connection points: 2
#     Edge 133, Type (0, 1), BuildingBlock: XUDNAN_clean_linker_2, # of connection points: 2
#     Edge 134, Type (0, 1), BuildingBlock: XUDNAN_clean_linker_2, # of connection points: 2
#     Edge 135, Type (0, 1), BuildingBlock: XUDNAN_clean_linker_2, # of connection points: 2
# Relax obj value: 0.066
# Max RMSD: 0.180
# Mean RMSD: 0.107
data_MOF--net-gar--node1-KUFVIS_clean_sbu_0--node2-KUMJIN_clean_sbu_1--edge1-XUDNAN_clean_linker_2
_symmetry_space_group_name_H-M    P1
_symmetry_Int_Tables_number       1
_symmetry_cell_setting            triclinic
loop_
_symmetry_equiv_pos_as_xyz
'x, y, z'
_cell_length_a     59.135422
_cell_length_b     59.615305
_cell_length_c     56.95666
_cell_angle_alpha  96.056181
_cell_angle_beta   96.150727
_cell_angle_gamma 101.35133
loop_
_atom_site_label
_atom_site_type_symbol
_atom_site_fract_x
_atom_site_fract_y
_atom_site_fract_z
_atom_type_partial_charge
Mn0 Mn 0.05124 0.31648 0.37253 0.0
Mn1 Mn 0.05248 0.3555 0.33473 0.0
C2 C 1.01454 0.32344 0.35466 0.0
C3 C 0.05133 0.28016 0.38484 0.0
C4 C 0.06073 0.36926 0.38849 0.0
O5 O 0.08532 0.31901 0.36278 0.0
O6 O 0.08326 0.34474 0.33733 0.0
C7 C 0.05461 0.32468 0.291 0.0
N8 N 0.04398 0.33973 0.30307 0.0
C9 C 0.01514 0.33731 0.26922 0.0
C10 C 0.0259 0.32196 0.25637 0.0
C11 C 0.04563 0.3155 0.26736 0.0
C12 C 0.02462 0.34557 0.29286 0.0
H13 H 0.06983 0.3197 0.29929 0.0
C14 C 0.09443 0.33095 0.3473 0.0
O15 O 0.05891 0.29922 0.39894 0.0
O16 O 0.04426 0.28194 0.36279 0.0
N17 N 0.02484 0.36728 0.32936 0.0
C18 C 0.01718 0.38313 0.34383 0.0
C19 C 0.9984 0.39236 0.33506 0.0
C20 C 0.98775 0.38531 0.31151 0.0
C21 C 0.99573 0.36881 0.29705 0.0
C22 C 0.01474 0.36045 0.30665 0.0
H23 H 0.02547 0.38903 0.36182 0.0
O24 O 0.0168 0.31506 0.37466 0.0
O25 O 0.03424 0.32736 0.34543 0.0
O26 O 0.05868 0.34843 0.39258 0.0
O27 O 0.06039 0.37437 0.36723 0.0
C28 C 0.98597 0.36085 0.27327 0.0
C29 C 0.99554 0.34495 0.25942 0.0
H30 H 0.01917 0.31504 0.23804 0.0
H31 H 0.05399 0.3036 0.25759 0.0
H32 H 0.99229 0.40505 0.34636 0.0
H33 H 0.97351 0.39276 0.30466 0.0
H34 H 0.97118 0.36695 0.26541 0.0
H35 H 0.98789 0.33896 0.24115 0.0
Mn36 Mn 0.03378 0.75273 0.69819 0.0
Mn37 Mn 0.0467 0.79764 0.74148 0.0
C38 C 0.07466 0.76673 0.7146 0.0
C39 C 0.0262 0.71345 0.67944 0.0
C40 C 0.03639 0.80322 0.68991 0.0
O41 O 1.00099 0.75206 0.71045 0.0
O42 O 1.01174 0.78393 0.73701 0.0
C43 C 0.03597 0.77261 0.78246 0.0
N44 N 0.0508 0.78786 0.77215 0.0
C45 C 0.07694 0.79938 0.8087 0.0
C46 C 0.062 0.78371 0.81976 0.0
C47 C 0.04148 0.77019 0.80655 0.0
C48 C 0.07068 0.80075 0.78461 0.0
H49 H 0.01999 0.76259 0.77241 0.0
C50 C 0.99572 0.76734 0.72563 0.0
O51 O 0.02043 0.7299 0.6687 0.0
O52 O 0.03418 0.7192 0.70192 0.0
N53 N 0.07809 0.81421 0.74885 0.0
C54 C 0.09141 0.82701 0.73494 0.0
C55 C 0.11199 0.84236 0.74545 0.0
C56 C 0.11866 0.84428 0.77012 0.0
C57 C 0.10532 0.82993 0.78383 0.0
C58 C 0.08472 0.81537 0.77243 0.0
H59 H 0.08623 0.82562 0.71604 0.0
O60 O 0.06717 0.75716 0.69298 0.0
O61 O 0.05722 0.76942 0.72687 0.0
O62 O 0.03092 0.78178 0.68264 0.0
O63 O 0.04358 0.81111 0.71154 0.0
C64 C 0.11181 0.82917 0.80822 0.0
C65 C 0.09773 0.81376 0.8206 0.0
H66 H 0.06607 0.78196 0.83839 0.0
H67 H 0.02982 0.75816 0.81499 0.0
H68 H 0.12259 0.8528 0.73461 0.0
H69 H 0.13454 0.85618 0.77819 0.0
H70 H 0.12777 0.84009 0.81752 0.0
H71 H 0.10304 0.81313 0.83928 0.0
Mn72 Mn 0.55228 0.82001 0.87807 0.0
Mn73 Mn 0.55248 0.85396 0.83504 0.0
C74 C 0.51534 0.82426 0.85811 0.0
C75 C 0.55443 0.78599 0.89545 0.0
C76 C 0.56158 0.87343 0.88787 0.0
O77 O 0.58648 0.82201 0.8677 0.0
O78 O 0.58358 0.84369 0.83819 0.0
C79 C 0.55385 0.82051 0.79317 0.0
N80 N 0.54301 0.83575 0.80462 0.0
C81 C 0.51223 0.82947 0.77188 0.0
C82 C 0.52315 0.81383 0.75967 0.0
C83 C 0.54402 0.80931 0.77038 0.0
C84 C 0.52288 0.84018 0.7945 0.0
H85 H 0.56987 0.81693 0.8013 0.0
C86 C 0.59511 0.83149 0.85028 0.0
O87 O 0.56124 0.80643 0.90699 0.0
O88 O 0.54639 0.78485 0.87305 0.0
N89 N 0.52416 0.86464 0.82949 0.0
C90 C 0.51545 0.87969 0.8439 0.0
C91 C 0.49453 0.88586 0.83589 0.0
C92 C 0.48279 0.87655 0.81317 0.0
C93 C 0.49196 0.86095 0.79875 0.0
C94 C 0.51296 0.85554 0.80762 0.0
H95 H 0.52431 0.88695 0.86141 0.0
O96 O 0.51743 0.81821 0.87934 0.0
O97 O 0.53518 0.82747 0.84911 0.0
O98 O 0.55857 0.85369 0.89503 0.0
O99 O 0.56178 0.87556 0.86577 0.0
C100 C 0.481 0.85047 0.77598 0.0
C101 C 0.49113 0.83474 0.76255 0.0
H102 H 0.51562 0.80514 0.74209 0.0
H103 H 0.55253 0.79723 0.76109 0.0
H104 H 0.48749 0.89778 0.84721 0.0
H105 H 0.46675 0.88147 0.80696 0.0
H106 H 0.46472 0.8543 0.76866 0.0
H107 H 0.4825 0.82674 0.74508 0.0
Mn108 Mn 0.53221 0.25306 0.20055 0.0
Mn109 Mn 0.49102 0.24017 0.15221 0.0
C110 C 0.52065 0.21445 0.17809 0.0
C111 C 0.57393 0.26229 0.2172 0.0
C112 C 0.47889 0.25378 0.20239 0.0
O113 O 0.53264 0.28526 0.18848 0.0
O114 O 0.50772 0.27223 0.15457 0.0
C115 C 0.51892 0.24433 0.11224 0.0
N116 N 0.50308 0.23142 0.12372 0.0
C117 C 0.49405 0.20069 0.09109 0.0
C118 C 0.51042 0.21355 0.07894 0.0
C119 C 0.52302 0.23541 0.08964 0.0
C120 C 0.49116 0.21024 0.11379 0.0
H121 H 0.52812 0.2614 0.12015 0.0
C122 C 0.52185 0.28842 0.16849 0.0
O123 O 0.55732 0.26527 0.22961 0.0
O124 O 0.56661 0.25487 0.195 0.0
N125 N 0.47391 0.20909 0.14857 0.0
C126 C 0.45944 0.19869 0.16311 0.0
C127 C 0.44574 0.17659 0.15528 0.0
C128 C 0.44669 0.16572 0.13239 0.0
C129 C 0.46187 0.17678 0.11783 0.0
C130 C 0.47557 0.19848 0.12689 0.0
H131 H 0.45815 0.2073 0.18042 0.0
O132 O 0.52947 0.21765 0.20036 0.0
O133 O 0.51745 0.23341 0.17089 0.0
O134 O 0.49914 0.25452 0.21429 0.0
O135 O 0.47593 0.24876 0.17984 0.0
C136 C 0.46377 0.16727 0.09461 0.0
C137 C 0.4801 0.17903 0.08138 0.0
H138 H 0.51332 0.20691 0.06132 0.0
H139 H 0.53555 0.24551 0.08029 0.0
H140 H 0.43415 0.16815 0.16666 0.0
H141 H 0.4358 0.14884 0.12623 0.0
H142 H 0.453 0.15073 0.08687 0.0
H143 H 0.48167 0.17134 0.06369 0.0
Mn144 Mn 0.08077 0.80002 0.12594 0.0
Mn145 Mn 0.0409 0.78821 0.07711 0.0
C146 C 0.06967 0.7602 0.10679 0.0
C147 C 0.11899 0.80794 0.14936 0.0
C148 C 0.02807 0.7947 0.12712 0.0
O149 O 0.08099 0.8334 0.11554 0.0
O150 O 0.05469 0.82271 0.08283 0.0
C151 C 0.06974 0.80004 0.03906 0.0
N152 N 0.05363 0.78479 0.04795 0.0
C153 C 0.04281 0.76097 0.01001 0.0
C154 C 0.05948 0.77627 1.00045 0.0
C155 C 0.07309 0.79582 0.01507 0.0
C156 C 0.0406 0.76587 0.03409 0.0
H157 H 0.07954 0.81548 0.05009 0.0
C158 C 0.06868 0.83861 0.09745 0.0
O159 O 0.10055 0.81214 0.15767 0.0
O160 O 0.11605 0.80162 0.1265 0.0
N161 N 0.02465 0.75716 0.06826 0.0
C162 C 1.01119 0.74309 0.08099 0.0
C163 C 0.99549 0.72343 0.06903 0.0
C164 C 0.99422 0.7183 0.04419 0.0
C165 C 1.0098 0.73199 0.03187 0.0
C166 C 0.02464 0.75163 0.04471 0.0
H167 H 1.01273 0.74681 0.10009 0.0
O168 O 0.07715 0.76653 0.12915 0.0
O169 O 0.06791 0.7781 0.09511 0.0
O170 O 0.04874 0.79937 0.1379 0.0
O171 O 0.02377 0.7905 0.10463 0.0
C172 C 1.01142 0.72686 0.00748 0.0
C173 C 0.02802 0.74126 0.99658 0.0
H174 H 0.06186 0.7733 0.98187 0.0
H175 H 0.08578 0.80785 0.00772 0.0
H176 H 0.98446 0.71225 0.0789 0.0
H177 H 0.9821 0.7031 0.03499 0.0
H178 H 1.0002 0.71174 0.99703 0.0
H179 H 0.02921 0.73707 0.97785 0.0
Mn180 Mn 0.50673 0.77111 0.45492 0.0
Mn181 Mn 0.50719 0.80941 0.41345 0.0
C182 C 0.47164 0.77341 0.42972 0.0
C183 C 0.51082 0.7318 0.46506 0.0
C184 C 0.51353 0.82574 0.46673 0.0
O185 O 0.54116 0.77871 0.44838 0.0
O186 O 0.53739 0.80068 0.41867 0.0
C187 C 0.5149 0.78307 0.36909 0.0
N188 N 0.50165 0.79535 0.38112 0.0
C189 C 0.47842 0.79855 0.34471 0.0
C190 C 0.49165 0.78571 0.33195 0.0
C191 C 0.50992 0.77789 0.3442 0.0
C192 C 0.4842 0.80318 0.36946 0.0
H193 H 0.52936 0.77759 0.37838 0.0
C194 C 0.54922 0.78987 0.43185 0.0
O195 O 0.51405 0.74989 0.48088 0.0
O196 O 0.50506 0.73645 0.44378 0.0
N197 N 0.47843 0.81888 0.4069 0.0
C198 C 0.46656 0.82979 0.4221 0.0
C199 C 0.44701 0.83768 0.41289 0.0
C200 C 0.44014 0.83459 0.38817 0.0
C201 C 0.45256 0.82316 0.37293 0.0
C202 C 0.47171 0.81541 0.38318 0.0
H203 H 0.47202 0.83249 0.44107 0.0
O204 O 0.47068 0.76488 0.44978 0.0
O205 O 0.49264 0.7808 0.4254 0.0
O206 O 0.51013 0.80555 0.47417 0.0
O207 O 0.51343 0.82761 0.44478 0.0
C208 C 0.44659 0.81893 0.34802 0.0
C209 C 0.45957 0.80673 0.3339 0.0
H210 H 0.48792 0.78174 0.31276 0.0
H211 H 0.52033 0.76815 0.33444 0.0
H212 H 0.43738 0.84629 0.42479 0.0
H213 H 0.42516 0.84088 0.3811 0.0
H214 H 0.4319 0.82478 0.33956 0.0
H215 H 0.4547 0.80345 0.31478 0.0
Mn216 Mn 0.58487 0.29925 0.62646 0.0
Mn217 Mn 0.53928 0.28889 0.58262 0.0
C218 C 0.57106 0.2608 0.60588 0.0
C219 C 0.62467 0.30679 0.64502 0.0
C220 C 0.53406 0.29526 0.6351 0.0
O221 O 0.58296 0.33293 0.61737 0.0
O222 O 0.55379 0.32316 0.58671 0.0
C223 C 0.56261 0.29912 0.54043 0.0
N224 N 0.54873 0.28403 0.55184 0.0
C225 C 0.54082 0.2551 0.51752 0.0
C226 C 0.55496 0.27037 0.50535 0.0
C227 C 0.56594 0.29245 0.51688 0.0
C228 C 0.538 0.26277 0.54088 0.0
H229 H 0.57097 0.31614 0.54921 0.0
C230 C 0.56927 0.33857 0.60049 0.0
O231 O 0.60782 0.31091 0.65629 0.0
O232 O 0.61897 0.30085 0.62216 0.0
N233 N 0.52356 0.25715 0.57668 0.0
C234 C 0.51171 0.24403 0.59145 0.0
C235 C 0.50065 0.22107 0.58307 0.0
C236 C 0.50168 0.21192 0.55956 0.0
C237 C 0.51392 0.22579 0.54468 0.0
C238 C 0.5247 0.24851 0.55406 0.0
H239 H 0.51085 0.25093 0.60955 0.0
O240 O 0.58216 0.26487 0.62726 0.0
O241 O 0.56799 0.27962 0.59687 0.0
O242 O 0.55549 0.29761 0.64247 0.0
O243 O 0.52617 0.29292 0.61309 0.0
C244 C 0.51626 0.21781 0.52108 0.0
C245 C 0.52963 0.23248 0.50748 0.0
H246 H 0.55763 0.26528 0.4872 0.0
H247 H 0.57689 0.30433 0.5076 0.0
H248 H 0.49136 0.21046 0.59472 0.0
H249 H 0.49319 0.19418 0.55318 0.0
H250 H 0.50805 0.20035 0.5133 0.0
H251 H 0.53145 0.22608 0.48941 0.0
Mn252 Mn 1.00804 0.27368 0.95556 0.0
Mn253 Mn 1.00779 0.3063 0.90942 0.0
C254 C 0.97214 0.27608 0.93157 0.0
C255 C 1.01273 0.23644 0.97082 0.0
C256 C 0.0191 0.32822 0.96143 0.0
O257 O 0.04192 0.27912 0.94695 0.0
O258 O 0.03624 0.29421 0.91246 0.0
C259 C 1.00542 0.27168 0.86748 0.0
N260 N 0.99668 0.28854 0.87909 0.0
C261 C 0.97009 0.28974 0.8444 0.0
C262 C 0.97857 0.27216 0.83212 0.0
C263 C 0.99621 0.263 0.84375 0.0
C264 C 0.97948 0.29722 0.86819 0.0
H265 H 0.01941 0.2651 0.87623 0.0
C266 C 0.04878 0.28611 0.92774 0.0
O267 O 0.01684 0.2564 0.98382 0.0
O268 O 1.00522 0.23768 0.9488 0.0
N269 N 0.98109 0.31957 0.90459 0.0
C270 C 0.975 0.33659 0.91895 0.0
C271 C 0.95894 0.34881 0.9096 0.0
C272 C 0.94934 0.34347 0.88557 0.0
C273 C 0.95503 0.3252 0.8714 0.0
C274 C 0.97152 0.31395 0.88159 0.0
H275 H 0.98289 0.34143 0.9372 0.0
O276 O 0.97193 0.269 0.95241 0.0
O277 O 0.99274 0.2812 0.92568 0.0
O278 O 1.01347 0.30958 0.97132 0.0
O279 O 0.01928 0.32723 0.93902 0.0
C280 C 0.94546 0.31814 0.84741 0.0
C281 C 0.95277 0.3002 0.834 0.0
H282 H 0.97174 0.26564 0.81372 0.0
H283 H 1.00294 0.24954 0.83433 0.0
H284 H 0.95436 0.36265 0.92074 0.0
H285 H 0.93745 0.3534 0.87824 0.0
H286 H 0.93247 0.32636 0.83911 0.0
H287 H 0.94515 0.29479 0.81562 0.0
Mn288 Mn 0.40337 0.02058 0.31737 0.0
Mn289 Mn 0.35728 0.01829 0.34673 0.0
C290 C 0.38015 0.98608 0.3183 0.0
C291 C 0.42301 0.0263 0.28547 0.0
C292 C 0.40663 0.03068 0.36914 0.0
O293 O 0.3982 0.05296 0.32195 0.0
O294 O 0.36148 0.04716 0.33186 0.0
C295 C 0.31664 0.01395 0.31028 0.0
N296 N 0.32825 1.00493 0.32765 0.0
C297 C 0.29763 0.97097 0.32344 0.0
C298 C 0.28537 0.97986 0.30543 0.0
C299 C 0.29489 1.00147 0.29888 0.0
C300 C 0.31904 0.98435 0.33443 0.0
H301 H 0.32395 0.03055 0.30524 0.0
C302 C 0.37932 0.05954 0.32491 0.0
O303 O 0.43357 0.03049 0.30705 0.0
O304 O 0.4004 0.02001 0.28218 0.0
N305 N 0.35292 0.99027 0.3611 0.0
C306 C 0.36743 0.98356 0.378 0.0
C307 C 0.36093 0.96196 0.38583 0.0
C308 C 0.3395 0.94746 0.37635 0.0
C309 C 0.32481 0.9547 0.35905 0.0
C310 C 0.3322 0.97649 0.35198 0.0
H311 H 0.38386 0.99451 0.38554 0.0
O312 O 0.40136 0.98702 0.31368 0.0
O313 O 0.3732 1.00533 0.32166 0.0
O314 O 0.41469 0.02222 0.35154 0.0
O315 O 0.38561 0.03238 0.36899 0.0
C316 C 0.30332 0.94096 0.34824 0.0
C317 C 0.28968 0.94913 0.33053 0.0
H318 H 0.2687 0.97019 0.29641 0.0
H319 H 0.2855 1.00844 0.28502 0.0
H320 H 0.37243 0.95649 0.39913 0.0
H321 H 0.33457 0.93077 0.3824 0.0
H322 H 0.29721 0.92401 0.35327 0.0
H323 H 0.27325 0.93834 0.32223 0.0
Mn324 Mn 0.26411 0.19157 0.52551 0.0
Mn325 Mn 0.26041 0.14887 0.48024 0.0
C326 C 0.22803 0.1672 0.50974 0.0
C327 C 0.26827 0.20384 0.56749 0.0
C328 C 0.27097 0.19976 0.47351 0.0
O329 O 0.29706 0.18528 0.5276 0.0
O330 O 0.29148 0.15425 0.49929 0.0
C331 C 0.26291 0.10914 0.50686 0.0
N332 N 0.2511 0.11941 0.49074 0.0
C333 C 0.21954 0.08618 0.48258 0.0
C334 C 0.23136 0.07525 0.49909 0.0
C335 C 0.25312 0.08681 0.51133 0.0
C336 C 0.2301 0.10849 0.47896 0.0
H337 H 0.2797 0.11789 0.51622 0.0
C338 C 0.30382 0.16841 0.51656 0.0
O339 O 0.27329 0.21841 0.55244 0.0
O340 O 0.26145 0.18246 0.55824 0.0
N341 N 0.2305 0.14208 0.46143 0.0
C342 C 0.22086 0.15542 0.44692 0.0
C343 C 0.19891 0.14651 0.43367 0.0
C344 C 0.1872 0.12395 0.43533 0.0
C345 C 0.19742 0.11059 0.45048 0.0
C346 C 0.21925 0.12044 0.46337 0.0
H347 H 0.22985 0.17269 0.44538 0.0
O348 O 0.22893 0.18778 0.52045 0.0
O349 O 0.2482 0.16274 0.50733 0.0
O350 O 0.26832 0.20757 0.49475 0.0
O351 O 0.26957 0.17831 0.46701 0.0
C352 C 0.18677 0.08792 0.45334 0.0
C353 C 0.19771 0.07579 0.46953 0.0
H354 H 0.2239 0.058 0.50253 0.0
H355 H 0.26236 0.0785 0.5241 0.0
H356 H 0.1911 0.15698 0.4221 0.0
H357 H 0.17031 0.11711 0.425 0.0
H358 H 0.17007 0.07969 0.44329 0.0
H359 H 0.18919 0.05848 0.47181 0.0
Mn360 Mn 0.1395 0.06658 0.79299 0.0
Mn361 Mn 0.18445 0.07197 0.83706 0.0
C362 C 0.16227 0.10345 0.80834 0.0
C363 C 0.1255 0.06071 0.751 0.0
C364 C 0.13363 0.05893 0.84536 0.0
O365 O 0.1467 0.03403 0.79158 0.0
O366 O 0.17995 0.04178 0.8173 0.0
C367 C 0.22373 0.07293 0.80882 0.0
N368 N 0.21342 0.08318 0.82603 0.0
C369 C 0.24634 0.11502 0.83549 0.0
C370 C 0.25729 0.10484 0.81781 0.0
C371 C 0.24591 0.08373 0.80439 0.0
C372 C 0.22413 0.10357 0.83892 0.0
H373 H 0.21512 0.05658 0.79865 0.0
C374 C 0.16485 0.02828 0.80157 0.0
O375 O 0.11174 0.0561 0.76694 0.0
O376 O 0.14725 0.06839 0.75926 0.0
N377 N 0.19075 0.10058 0.85762 0.0
C378 C 0.17827 0.10751 0.87477 0.0
C379 C 0.18752 0.12796 0.89028 0.0
C380 C 0.20965 0.14087 0.88825 0.0
C381 C 0.2224 0.13312 0.87084 0.0
C382 C 0.21231 0.11258 0.85592 0.0
H383 H 0.16144 0.09749 0.87675 0.0
O384 O 0.14147 0.10116 0.79715 0.0
O385 O 0.16871 0.08417 0.81066 0.0
O386 O 0.12449 0.06219 0.82475 0.0
O387 O 0.15549 0.06066 0.85065 0.0
C388 C 0.24476 0.14493 0.86773 0.0
C389 C 0.25667 0.13595 0.84998 0.0
H390 H 0.27448 0.11303 0.81447 0.0
H391 H 0.2543 0.07572 0.7908 0.0
H392 H 0.17767 0.13367 0.90384 0.0
H393 H 0.21672 0.15663 0.90024 0.0
H394 H 0.25296 0.16092 0.8789 0.0
H395 H 0.27385 0.14518 0.84777 0.0
Mn396 Mn 0.31329 0.93574 0.00904 0.0
Mn397 Mn 0.3255 0.9743 0.97033 0.0
C398 C 0.35017 0.94687 1.00183 0.0
C399 C 0.30657 0.92603 0.04559 0.0
C400 C 0.30753 0.92378 0.95561 0.0
O401 O 0.28466 0.94782 1.00457 0.0
O402 O 0.29411 0.97356 0.9793 0.0
C403 C 0.32736 0.01581 1.00452 0.0
N404 N 0.33778 1.0036 0.98894 0.0
C405 C 0.37276 0.03318 0.99579 0.0
C406 C 0.36238 0.04612 0.01184 0.0
C407 C 0.33961 0.03735 0.01629 0.0
C408 C 0.35988 0.01162 0.98497 0.0
H409 H 0.30983 1.00917 0.00792 0.0
C410 C 0.27999 0.96284 0.9918 0.0
O411 O 0.29801 0.91194 0.02635 0.0
O412 O 0.31815 0.94652 0.04358 0.0
N413 N 0.35523 0.9775 0.95933 0.0
C414 C 0.36104 0.9648 0.94042 0.0
C415 C 0.38263 0.97191 0.93242 0.0
C416 C 0.39772 0.99241 0.94341 0.0
C417 C 0.39077 1.00593 0.96185 0.0
C418 C 0.36897 0.998 0.96897 0.0
H419 H 0.34931 0.94931 0.93149 0.0
O420 O 0.34413 0.92813 0.01131 0.0
O421 O 0.33485 0.95954 0.99819 0.0
O422 O 0.30552 0.91854 0.97635 0.0
O423 O 0.31413 0.94421 0.95061 0.0
C424 C 0.40417 0.02745 0.9727 0.0
C425 C 0.39523 0.041 0.98978 0.0
H426 H 0.37166 0.06288 0.02072 0.0
H427 H 0.33147 0.04724 0.02865 0.0
H428 H 0.38755 0.96169 0.91771 0.0
H429 H 0.41434 0.9979 0.93714 0.0
H430 H 0.42119 0.03393 0.96772 0.0
H431 H 0.4056 0.05762 0.99783 0.0
Mn432 Mn 0.32013 0.3867 0.05089 0.0
Mn433 Mn 0.32314 0.4306 0.0168 0.0
C434 C 0.35682 0.40931 0.04685 0.0
C435 C 0.31344 0.37051 0.08732 0.0
C436 C 0.31222 0.38005 0.99596 0.0
O437 O 0.28664 0.39198 0.04566 0.0
O438 O 0.29382 0.42596 0.03076 0.0
C439 C 0.32572 0.46969 0.05427 0.0
N440 N 0.33478 0.45975 0.03584 0.0
C441 C 0.36448 0.49387 0.0367 0.0
C442 C 0.35553 0.50449 0.05574 0.0
C443 C 0.33617 0.49228 0.06467 0.0
C444 C 0.35383 0.47107 0.0276 0.0
H445 H 0.31059 0.46047 0.06086 0.0
C446 C 0.28052 0.41007 0.03918 0.0
O447 O 0.30972 0.35846 0.06648 0.0
O448 O 0.32106 0.39255 0.08737 0.0
N449 N 0.35044 0.43751 1.0014 0.0
C450 C 0.35539 0.4258 0.98132 0.0
C451 C 0.37373 0.43593 0.96959 0.0
C452 C 0.38635 0.45833 0.97807 0.0
C453 C 0.38027 0.4705 0.99804 0.0
C454 C 0.36189 0.45945 0.00911 0.0
H455 H 0.34544 0.40885 0.97416 0.0
O456 O 0.3551 0.38936 0.05453 0.0
O457 O 0.33723 0.41573 0.0424 0.0
O458 O 0.31692 0.37214 0.01557 0.0
O459 O 0.31154 0.40125 0.99511 0.0
C460 C 0.39125 0.49345 0.0069 0.0
C461 C 0.38329 0.50515 0.02614 0.0
H462 H 0.36331 0.52205 0.06354 0.0
H463 H 0.32911 0.50037 0.07931 0.0
H464 H 0.37798 0.42656 0.9539 0.0
H465 H 0.40042 0.46615 0.96892 0.0
H466 H 0.40563 0.50236 0.99884 0.0
H467 H 0.39178 0.52286 0.03268 0.0
Mn468 Mn 0.77709 0.15092 0.07036 0.0
Mn469 Mn 0.76204 0.10837 0.0239 0.0
C470 C 0.73935 0.13725 0.05596 0.0
C471 C 0.78937 0.16461 0.10909 0.0
C472 C 0.77999 0.15795 0.01867 0.0
O473 O 0.80582 0.13879 0.06967 0.0
O474 O 0.79425 0.11069 0.03854 0.0
C475 C 0.76362 0.06785 0.04938 0.0
N476 N 0.75177 0.07918 0.03442 0.0
C477 C 0.72182 0.04515 0.02162 0.0
C478 C 0.7336 0.03309 0.037 0.0
C479 C 0.75444 0.04459 0.05117 0.0
C480 C 0.73128 0.06855 0.02142 0.0
H481 H 0.78013 0.0764 0.05951 0.0
C482 C 0.8091 0.12236 0.05557 0.0
O483 O 0.79447 0.17699 0.09229 0.0
O484 O 0.77579 0.14425 0.10361 0.0
N485 N 0.73118 0.10388 0.00763 0.0
C486 C 0.72181 0.11815 0.9941 0.0
C487 C 0.70011 0.10982 0.98014 0.0
C488 C 0.68886 0.08663 0.97932 0.0
C489 C 0.69925 0.07208 0.9928 0.0
C490 C 0.72031 0.08166 0.00729 0.0
H491 H 0.73084 0.13574 0.99398 0.0
O492 O 0.74583 0.15759 0.0683 0.0
O493 O 0.75487 0.12484 0.0532 0.0
O494 O 0.78265 0.16533 0.04063 0.0
O495 O 0.772 0.13693 0.01025 0.0
C496 C 0.68985 0.04834 0.992 0.0
C497 C 0.70114 0.03487 0.0064 0.0
H498 H 0.72684 0.01502 0.03803 0.0
H499 H 0.76368 0.03538 0.063 0.0
H500 H 0.69234 0.1211 0.96959 0.0
H501 H 0.67241 0.0801 0.96806 0.0
H502 H 0.67377 0.04034 0.98068 0.0
H503 H 0.69353 0.01672 1.00596 0.0
Mn504 Mn 0.18637 0.56173 0.25681 0.0
Mn505 Mn 0.23551 0.58171 0.29564 0.0
C506 C 0.19814 0.60018 0.26994 0.0
C507 C 0.16626 0.54909 0.21985 0.0
C508 C 0.1899 0.56041 0.31035 0.0
O509 O 0.20193 0.53492 0.25399 0.0
O510 O 0.23262 0.54962 0.28174 0.0
C511 C 0.26858 0.58023 0.26041 0.0
N512 N 0.26008 0.59237 0.27779 0.0
C513 C 0.29071 0.62563 0.2783 0.0
C514 C 0.29975 0.61352 0.26035 0.0
C515 C 0.28851 0.59077 0.25123 0.0
C516 C 0.27028 0.61452 0.28612 0.0
H517 H 0.26037 0.56255 0.25377 0.0
C518 C 0.22048 0.53342 0.2664 0.0
O519 O 0.15825 0.54239 0.2388 0.0
O520 O 0.18614 0.56369 0.22228 0.0
N521 N 0.2416 0.61277 0.31123 0.0
C522 C 0.23367 0.62046 0.33156 0.0
C523 C 0.24341 0.64266 0.34343 0.0
C524 C 0.26218 0.65636 0.33507 0.0
C525 C 0.27139 0.64742 0.31532 0.0
C526 C 0.26057 0.62531 0.3039 0.0
H527 H 0.22034 0.6096 0.33896 0.0
O528 O 0.17656 0.59163 0.26139 0.0
O529 O 0.21257 0.58635 0.26982 0.0
O530 O 0.17901 0.55507 0.28948 0.0
O531 O 0.2109 0.57159 0.31523 0.0
C532 C 0.29173 0.65906 0.30747 0.0
C533 C 0.30148 0.64811 0.28909 0.0
H534 H 0.31543 0.62143 0.25359 0.0
H535 H 0.29545 0.58125 0.23747 0.0
H536 H 0.23677 0.649 0.35926 0.0
H537 H 0.26994 0.67334 0.34451 0.0
H538 H 0.30038 0.67619 0.31589 0.0
H539 H 0.31735 0.6571 0.28347 0.0
Mn540 Mn 0.81626 0.8877 0.55042 0.0
Mn541 Mn 0.81732 0.92904 0.51357 0.0
C542 C 0.85189 0.91091 0.54418 0.0
C543 C 0.81221 0.87356 0.58825 0.0
C544 C 0.80561 0.87786 0.49564 0.0
O545 O 0.78306 0.89422 0.54765 0.0
O546 O 0.78943 0.92687 0.52996 0.0
C547 C 0.82265 0.97191 0.54704 0.0
N548 N 0.83051 0.95947 0.52942 0.0
C549 C 0.86094 0.99188 0.5259 0.0
C550 C 0.85328 1.00493 0.54419 0.0
C551 C 0.83411 0.99487 0.55487 0.0
C552 C 0.8491 0.96894 0.51918 0.0
H553 H 0.80771 0.9644 0.55495 0.0
C554 C 0.7773 0.91267 0.54147 0.0
O555 O 0.8075 0.86039 0.56803 0.0
O556 O 0.81928 0.89541 0.58685 0.0
N557 N 0.84417 0.93282 0.49706 0.0
C558 C 0.84965 0.91791 0.47979 0.0
C559 C 0.86755 0.92565 0.46647 0.0
C560 C 0.87968 0.94868 0.47096 0.0
C561 C 0.87441 0.96354 0.48937 0.0
C562 C 0.85609 0.95494 0.5018 0.0
H563 H 0.8402 0.90035 0.4757 0.0
O564 O 0.85147 0.89123 0.55223 0.0
O565 O 0.83184 0.91618 0.54023 0.0
O566 O 0.81158 0.87116 0.51558 0.0
O567 O 0.80386 0.89867 0.49413 0.0
C568 C 0.8864 0.98663 0.49563 0.0
C569 C 0.87984 1.00072 0.51407 0.0
H570 H 0.86195 0.02271 0.55012 0.0
H571 H 0.82802 1.00486 0.56893 0.0
H572 H 0.87174 0.91397 0.45251 0.0
H573 H 0.8932 0.95469 0.4603 0.0
H574 H 0.90075 0.9937 0.48643 0.0
H575 H 0.88932 0.0184 0.51887 0.0
Mn576 Mn 0.94541 0.01311 0.26796 0.0
Mn577 Mn 0.90244 0.01272 0.30231 0.0
C578 C 0.91989 0.97774 0.27142 0.0
C579 C 0.9612 0.01946 0.23121 0.0
C580 C 0.95363 0.02119 0.32206 0.0
O581 O 0.94281 0.04732 0.2759 0.0
O582 O 0.90648 0.04029 0.28602 0.0
C583 C 0.86155 1.00876 0.26609 0.0
N584 N 0.87227 1.00079 0.28488 0.0
C585 C 0.83776 0.97251 0.28729 0.0
C586 C 0.82632 0.98038 0.26795 0.0
C587 C 0.83834 0.99846 0.25718 0.0
C588 C 0.86111 0.98294 0.29488 0.0
H589 H 0.87063 0.02294 0.25806 0.0
C590 C 0.92438 0.05394 0.2813 0.0
O591 O 0.97385 0.02168 0.25167 0.0
O592 O 0.93888 0.01399 0.23181 0.0
N593 N 0.89629 0.98631 0.31899 0.0
C594 C 0.90943 0.98132 0.33815 0.0
C595 C 0.89946 0.96508 0.35217 0.0
C596 C 0.87593 0.95425 0.34661 0.0
C597 C 0.86282 0.95907 0.32649 0.0
C598 C 0.87364 0.9757 0.31335 0.0
H599 H 0.92712 0.99025 0.34344 0.0
O600 O 0.93933 0.97776 0.26269 0.0
O601 O 0.91578 0.99799 0.27652 0.0
O602 O 0.96023 0.01361 0.30263 0.0
O603 O 0.93314 0.02504 0.3229 0.0
C604 C 0.83923 0.94854 0.31941 0.0
C605 C 0.82681 0.95498 0.29957 0.0
H606 H 0.80828 0.97277 0.26132 0.0
H607 H 0.82962 1.00466 0.24227 0.0
H608 H 0.90976 0.96132 0.36757 0.0
H609 H 0.86817 0.94205 0.35778 0.0
H610 H 0.83047 0.9355 0.32914 0.0
H611 H 0.8087 0.9467 0.29423 0.0
Mn612 Mn 0.27658 0.65139 0.57169 0.0
Mn613 Mn 0.26968 0.6092 0.52594 0.0
C614 C 0.24038 0.63076 0.55684 0.0
C615 C 0.28485 0.66448 0.61108 0.0
C616 C 0.28194 0.66011 0.52173 0.0
O617 O 0.30888 0.64556 0.57044 0.0
O618 O 0.30067 0.61274 0.54434 0.0
C619 C 0.26932 0.5686 0.5518 0.0
N620 N 0.2587 0.57964 0.53552 0.0
C621 C 0.22555 0.54793 0.52679 0.0
C622 C 0.2362 0.53619 0.54339 0.0
C623 C 0.25816 0.5466 0.55599 0.0
C624 C 0.23751 0.56983 0.5234 0.0
H625 H 0.2861 0.57663 0.56162 0.0
C626 C 0.31438 0.62796 0.55978 0.0
O627 O 0.28852 0.67839 0.59524 0.0
O628 O 0.27644 0.64266 0.60422 0.0
N629 N 0.23982 0.60431 0.50719 0.0
C630 C 0.23147 0.61834 0.49256 0.0
C631 C 0.2098 0.61042 0.47847 0.0
C632 C 0.19694 0.58818 0.47956 0.0
C633 C 0.20566 0.5742 0.49505 0.0
C634 C 0.22759 0.58283 0.50827 0.0
H635 H 0.24138 0.63534 0.49138 0.0
O636 O 0.24262 0.65078 0.56934 0.0
O637 O 0.25924 0.62359 0.55393 0.0
O638 O 0.27877 0.66697 0.54263 0.0
O639 O 0.28047 0.63893 0.51387 0.0
C640 C 0.19344 0.55207 0.49792 0.0
C641 C 0.20331 0.539 0.5139 0.0
H642 H 0.22759 0.51927 0.54678 0.0
H643 H 0.26642 0.53772 0.56894 0.0
H644 H 0.2031 0.62135 0.46666 0.0
H645 H 0.18036 0.58205 0.46844 0.0
H646 H 0.17633 0.54504 0.48812 0.0
H647 H 0.19359 0.52217 0.51624 0.0
Mn648 Mn 0.44738 0.51265 0.77007 0.0
Mn649 Mn 0.40549 0.51396 0.80633 0.0
C650 C 0.4225 0.47802 0.77678 0.0
C651 C 0.45917 0.51542 0.73108 0.0
C652 C 0.45712 0.52279 0.82473 0.0
O653 O 0.4439 0.54652 0.77361 0.0
O654 O 0.41139 0.54263 0.79175 0.0
C655 C 0.3652 0.51322 0.77036 0.0
N656 N 0.3752 0.50397 0.78862 0.0
C657 C 0.33956 0.47683 0.78994 0.0
C658 C 0.32884 0.48607 0.77115 0.0
C659 C 0.34177 0.50425 0.76121 0.0
C660 C 0.36312 0.48606 0.79783 0.0
H661 H 0.37503 0.52738 0.76295 0.0
C662 C 0.42696 0.55422 0.78133 0.0
O663 O 0.47408 0.52017 0.75029 0.0
O664 O 0.43761 0.5091 0.73445 0.0
N665 N 0.39776 0.48718 0.82196 0.0
C666 C 0.41034 0.48114 0.84086 0.0
C667 C 0.39947 0.46486 0.85435 0.0
C668 C 0.37569 0.45503 0.84838 0.0
C669 C 0.36321 0.46089 0.82841 0.0
C670 C 0.3749 0.47759 0.81594 0.0
H671 H 0.42832 0.48932 0.84625 0.0
O672 O 0.44202 0.47752 0.76841 0.0
O673 O 0.4183 0.4984 0.78062 0.0
O674 O 0.46437 0.51747 0.80485 0.0
O675 O 0.43602 0.52391 0.82653 0.0
C676 C 0.33944 0.45144 0.82093 0.0
C677 C 0.3277 0.45915 0.80146 0.0
H678 H 0.31065 0.47947 0.76435 0.0
H679 H 0.33362 0.51153 0.74676 0.0
H680 H 0.40927 0.46025 0.8696 0.0
H681 H 0.36724 0.44281 0.85915 0.0
H682 H 0.32999 0.43832 0.83011 0.0
H683 H 0.30943 0.45174 0.79585 0.0
Mn684 Mn 0.68961 0.06339 0.75402 0.0
Mn685 Mn 0.73525 0.076 0.79698 0.0
C686 C 0.70135 0.09974 0.77355 0.0
C687 C 0.67469 0.0603 0.71516 0.0
C688 C 0.68705 0.05555 0.80573 0.0
O689 O 0.704 0.03621 0.74776 0.0
O690 O 0.73064 0.04435 0.78034 0.0
C691 C 0.77036 0.07573 0.7637 0.0
N692 N 0.76145 0.08709 0.78132 0.0
C693 C 0.79057 0.12162 0.78174 0.0
C694 C 0.80002 0.11029 0.76355 0.0
C695 C 0.78985 0.08726 0.75448 0.0
C696 C 0.77088 0.10938 0.78992 0.0
H697 H 0.76272 0.058 0.75673 0.0
C698 C 0.71966 0.03117 0.76182 0.0
O699 O 0.66304 0.04894 0.72983 0.0
O700 O 0.69524 0.07262 0.72284 0.0
N701 N 0.74229 0.10601 0.8151 0.0
C702 C 0.73425 0.11267 0.83573 0.0
C703 C 0.74349 0.13476 0.84817 0.0
C704 C 0.76171 0.14942 0.83989 0.0
C705 C 0.77097 0.1415 0.8197 0.0
C706 C 0.76093 0.11931 0.80802 0.0
H707 H 0.72122 0.10104 0.84287 0.0
O708 O 0.68031 0.09288 0.76273 0.0
O709 O 0.71514 0.0853 0.77207 0.0
O710 O 0.67811 0.05151 0.78391 0.0
O711 O 0.70813 0.0658 0.81313 0.0
C712 C 0.79042 0.15434 0.81137 0.0
C713 C 0.8002 0.14442 0.79237 0.0
H714 H 0.81521 0.11905 0.75657 0.0
H715 H 0.79709 0.07836 0.74051 0.0
H716 H 0.7368 0.14036 0.86425 0.0
H717 H 0.7689 0.16641 0.84958 0.0
H718 H 0.79834 0.17167 0.81981 0.0
H719 H 0.81538 0.15433 0.78635 0.0
Mn720 Mn 0.76704 0.69586 0.02364 0.0
Mn721 Mn 0.76278 0.64872 0.98337 0.0
C722 C 0.73004 0.67205 0.00932 0.0
C723 C 0.77243 0.71322 0.06435 0.0
C724 C 0.77544 0.69814 0.9712 0.0
O725 O 0.80023 0.68941 0.0265 0.0
O726 O 0.79272 0.65452 1.00412 0.0
C727 C 0.76113 0.61206 0.01469 0.0
N728 N 0.75138 0.62087 0.99596 0.0
C729 C 0.72028 0.58731 0.98668 0.0
C730 C 0.72995 0.57787 1.00591 0.0
C731 C 0.75042 0.59033 0.02002 0.0
C732 C 0.73156 0.60915 0.98243 0.0
H733 H 0.77702 0.6215 0.02538 0.0
C734 C 0.80621 0.67077 0.01853 0.0
O735 O 0.77684 0.72504 0.0469 0.0
O736 O 0.76531 0.69114 0.05839 0.0
N737 N 0.73462 0.64097 0.96166 0.0
C738 C 0.7282 0.65203 0.94306 0.0
C739 C 0.70846 0.64158 0.92677 0.0
C740 C 0.69582 0.61965 0.92944 0.0
C741 C 0.70315 0.6083 0.94828 0.0
C742 C 0.72297 0.61957 0.96396 0.0
H743 H 0.73806 0.66865 0.94055 0.0
O744 O 0.73202 0.69319 0.0189 0.0
O745 O 0.7497 0.66577 0.00806 0.0
O746 O 0.77118 0.70859 0.99065 0.0
O747 O 0.7742 0.67637 0.96827 0.0
C748 C 0.69156 0.58625 0.95214 0.0
C749 C 0.70003 0.57583 0.97142 0.0
H750 H 0.72185 0.56103 0.00995 0.0
H751 H 0.75803 0.58312 0.03484 0.0
H752 H 0.70309 0.65034 0.91211 0.0
H753 H 0.68059 0.61165 0.91684 0.0
H754 H 0.67609 0.57718 0.94042 0.0
H755 H 0.69094 0.55889 0.97423 0.0
Mn756 Mn 0.89983 0.5241 0.81338 0.0
Mn757 Mn 0.85816 0.51106 0.84889 0.0
C758 C 0.88638 0.48687 0.81774 0.0
C759 C 0.91075 0.53253 0.77763 0.0
C760 C 0.90881 0.52829 0.86681 0.0
O761 O 0.88872 0.55321 0.81924 0.0
O762 O 0.85874 0.54216 0.83967 0.0
C763 C 0.81714 0.50852 0.81333 0.0
N764 N 0.8293 0.49835 0.82924 0.0
C765 C 0.79981 0.46341 0.82199 0.0
C766 C 0.78694 0.47351 0.80554 0.0
C767 C 0.7957 0.49613 0.80111 0.0
C768 C 0.82129 0.47641 0.83322 0.0
H769 H 0.82375 0.52597 0.81003 0.0
C770 C 0.87153 0.55691 0.8294 0.0
O771 O 0.92498 0.53945 0.79717 0.0
O772 O 0.88978 0.5215 0.77893 0.0
N773 N 0.85533 0.48137 0.85954 0.0
C774 C 0.8686 0.47509 0.87779 0.0
C775 C 0.86204 0.45312 0.88484 0.0
C776 C 0.8415 0.43811 0.87359 0.0
C777 C 0.82746 0.44544 0.85577 0.0
C778 C 0.83496 0.4675 0.84943 0.0
H779 H 0.88414 0.48669 0.88691 0.0
O780 O 0.9059 0.49276 0.80933 0.0
O781 O 0.87448 0.50268 0.82202 0.0
O782 O 0.91609 0.52911 0.84673 0.0
O783 O 0.88752 0.52302 0.87002 0.0
C784 C 0.80592 0.43202 0.84465 0.0
C785 C 0.79204 0.44106 0.8279 0.0
H786 H 0.77027 0.46409 0.79627 0.0
H787 H 0.78586 0.50404 0.78845 0.0
H788 H 0.87273 0.44784 0.89899 0.0
H789 H 0.83644 0.42119 0.8791 0.0
H790 H 0.79973 0.41484 0.84908 0.0
H791 H 0.77544 0.43063 0.81958 0.0
Mn792 Mn 0.8154 0.43548 0.50584 0.0
Mn793 Mn 0.82484 0.47674 0.47007 0.0
C794 C 0.85214 0.45294 0.50224 0.0
C795 C 0.80864 0.42456 0.5423 0.0
C796 C 0.80894 0.42614 0.45263 0.0
O797 O 0.78461 0.44435 0.49984 0.0
O798 O 0.79378 0.47529 0.48015 0.0
C799 C 0.82685 0.51838 0.50402 0.0
N800 N 0.83725 0.50604 0.48855 0.0
C801 C 0.87217 0.53566 0.49492 0.0
C802 C 0.86181 0.54877 0.51086 0.0
C803 C 0.83907 0.54007 0.51545 0.0
C804 C 0.85913 0.51421 0.48404 0.0
H805 H 0.80938 0.51171 0.50758 0.0
C806 C 0.77969 0.46146 0.49028 0.0
O807 O 0.80244 0.41 0.52295 0.0
O808 O 0.81784 0.44579 0.54028 0.0
N809 N 0.85478 0.47943 0.45958 0.0
C810 C 0.86245 0.46429 0.44431 0.0
C811 C 0.88485 0.47034 0.4378 0.0
C812 C 0.8991 0.49189 0.44701 0.0
C813 C 0.89095 0.50704 0.46297 0.0
C814 C 0.86837 0.50017 0.46859 0.0
H815 H 0.85152 0.44776 0.43705 0.0
O816 O 0.84832 0.43287 0.50975 0.0
O817 O 0.83431 0.46195 0.49725 0.0
O818 O 0.81085 0.41888 0.47271 0.0
O819 O 0.81255 0.44733 0.44955 0.0
C820 C 0.90435 0.52867 0.47354 0.0
C821 C 0.89498 0.54295 0.48955 0.0
H822 H 0.87118 0.5655 0.51973 0.0
H823 H 0.83098 0.55006 0.52776 0.0
H824 H 0.89109 0.45847 0.42564 0.0
H825 H 0.91631 0.49656 0.44179 0.0
H826 H 0.92191 0.53444 0.46957 0.0
H827 H 0.9055 0.55948 0.49768 0.0
Mn828 Mn 0.63976 0.56431 0.29129 0.0
Mn829 Mn 0.68453 0.57164 0.33586 0.0
C830 C 0.66238 0.60133 0.30507 0.0
C831 C 0.62551 0.55714 0.24973 0.0
C832 C 0.6336 0.5605 0.3444 0.0
O833 O 0.64676 0.53176 0.29135 0.0
O834 O 0.67891 0.54018 0.31851 0.0
C835 C 0.72295 0.56833 0.30718 0.0
N836 N 0.71337 0.58053 0.32359 0.0
C837 C 0.74649 0.6122 0.32894 0.0
C838 C 0.75671 0.59999 0.31208 0.0
C839 C 0.74485 0.57798 0.30112 0.0
C840 C 0.72454 0.6018 0.33408 0.0
H841 H 0.71398 0.55135 0.2988 0.0
C842 C 0.66443 0.52625 0.3026 0.0
O843 O 0.6118 0.55325 0.26585 0.0
O844 O 0.64737 0.56465 0.25758 0.0
N845 N 0.69206 0.60172 0.35382 0.0
C846 C 0.68033 0.61078 0.3705 0.0
C847 C 0.68995 0.63261 0.38334 0.0
C848 C 0.71175 0.64472 0.37922 0.0
C849 C 0.72383 0.63475 0.36249 0.0
C850 C 0.71337 0.61291 0.35027 0.0
H851 H 0.66387 0.60139 0.37415 0.0
O852 O 0.64153 0.59871 0.29392 0.0
O853 O 0.66906 0.58231 0.30825 0.0
O854 O 0.62487 0.56191 0.32307 0.0
O855 O 0.65548 0.56302 0.35058 0.0
C856 C 0.74592 0.64555 0.3576 0.0
C857 C 0.75726 0.63426 0.34088 0.0
H858 H 0.77363 0.60735 0.30741 0.0
H859 H 0.75263 0.56844 0.2881 0.0
H860 H 0.68064 0.64002 0.39646 0.0
H861 H 0.71911 0.66157 0.38913 0.0
H862 H 0.75438 0.66249 0.36666 0.0
H863 H 0.77429 0.64271 0.33734 0.0
Eu864 Eu 0.07381 0.05302 0.05131 0.0
C865 C 1.00039 0.97284 0.99222 0.0
N866 N 1.01191 0.99377 0.98767 0.0
C867 C 1.01313 0.97792 0.94738 0.0
C868 C 0.99512 0.95355 0.97441 0.0
C869 C 0.01775 0.99662 0.96541 0.0
C870 C 1.00188 0.95628 0.95191 0.0
C871 C 0.98048 0.94944 0.01937 0.0
C872 C 0.99303 0.97079 0.01451 0.0
C873 C 0.97552 0.93024 1.00173 0.0
C874 C 0.98279 0.9323 0.97933 0.0
Eu875 Eu 0.01575 0.02465 0.01867 0.0
N876 N 0.99782 0.98971 0.03131 0.0
C877 C 0.97278 0.9481 0.04167 0.0
C878 C 0.98928 0.98868 0.0526 0.0
C879 C 0.97707 0.96785 0.05828 0.0
H880 H 0.02484 0.01344 0.96094 0.0
H881 H 0.9705 0.96719 0.07527 0.0
H882 H 0.06454 0.06649 0.10845 0.0
H883 H 0.11516 0.10787 0.99032 0.0
H884 H 0.99095 1.0039 0.06501 0.0
H885 H 0.96301 0.93204 0.04601 0.0
H886 H 0.09661 0.07156 1.00315 0.0
H887 H 0.01774 0.98036 0.9298 0.0
H888 H 0.9658 0.91377 1.00514 0.0
H889 H 0.97853 0.91737 0.9658 0.0
H890 H 0.07204 0.10066 0.13834 0.0
H891 H 0.998 0.94191 0.93775 0.0
H892 H 0.12257 0.1441 0.01805 0.0
N893 N 0.07753 0.08482 0.0809 0.0
C894 C 0.08878 0.10538 0.07524 0.0
C895 C 0.07653 0.1023 0.12058 0.0
C896 C 0.09396 0.12534 0.09216 0.0
C897 C 0.07179 0.08296 0.10332 0.0
C898 C 0.08758 0.12359 0.11497 0.0
N899 N 0.09007 0.08709 0.03631 0.0
C900 C 0.09789 0.08728 0.01465 0.0
C901 C 0.10689 0.12767 0.04626 0.0
C902 C 0.09521 0.10654 0.05243 0.0
C903 C 0.11353 0.12821 0.02343 0.0
C904 C 0.1092 0.10786 0.00764 0.0
H905 H 0.09139 0.13852 0.12848 0.0
H906 H 0.10967 0.16181 0.09877 0.0
H907 H 0.12094 0.16386 0.05865 0.0
O908 O 0.10807 0.04914 0.04418 0.0
O909 O 0.05015 0.07916 0.04289 0.0
O910 O 0.02585 0.06235 0.00919 0.0
O911 O 0.10196 0.05804 0.0805 0.0
O912 O 0.07321 0.03383 0.01385 0.0
O913 O 0.04073 0.04164 0.99483 0.0
O914 O 0.983 0.03319 0.02592 0.0
O915 O 0.03726 0.99687 0.02941 0.0
O916 O 0.06354 0.0159 0.06118 0.0
O917 O 0.98717 0.01901 0.98971 0.0
O918 O 0.01477 0.0398 0.05803 0.0
O919 O 0.05004 0.03636 0.07574 0.0
C920 C 0.03668 0.08132 0.02342 0.0
C921 C 0.13002 0.03573 0.0745 0.0
C922 C 0.15892 0.01375 0.06547 0.0
C923 C 0.16133 1.00886 0.08912 0.0
C924 C 0.13233 0.03083 0.09812 0.0
C925 C 0.14773 0.01708 0.10526 0.0
C926 C 0.14256 0.02631 0.05821 0.0
C927 C 0.06159 0.03765 0.9942 0.0
C928 C 0.11649 0.05222 0.0667 0.0
C929 C 0.10551 0.14635 0.08595 0.0
C930 C 0.11192 0.14752 0.06309 0.0
C931 C 0.05194 0.99624 0.0486 0.0
C932 C 0.94984 0.02711 0.99563 0.0
C933 C 0.91632 0.04267 1.00249 0.0
C934 C 0.90494 0.03193 0.98003 0.0
C935 C 0.93862 0.01608 0.97322 0.0
C936 C 0.93857 0.04013 0.01018 0.0
C937 C 0.9161 0.01847 0.96549 0.0
C938 C 0.02836 0.03754 0.07727 0.0
C939 C 0.9736 0.02618 1.00388 0.0
H940 H 0.17408 0.9993 0.09534 0.0
H941 H 0.12265 0.03792 0.1111 0.0
H942 H 0.14968 0.01344 0.12349 0.0
H943 H 0.14014 0.02951 0.03982 0.0
H944 H 0.88762 0.03405 0.9738 0.0
H945 H 0.94727 1.00586 0.96171 0.0
H946 H 0.94749 0.04919 0.02722 0.0
H947 H 0.90741 0.01015 0.94817 0.0
Eu948 Eu 0.28002 0.78943 0.31356 0.0
C949 C 0.33704 0.75169 0.22205 0.0
N950 N 0.34485 0.76863 0.24069 0.0
C951 C 0.38219 0.75847 0.2443 0.0
C952 C 0.35125 0.7366 0.21462 0.0
C953 C 0.36736 0.77285 0.25112 0.0
C954 C 0.37397 0.73998 0.22627 0.0
C955 C 0.30618 0.73218 0.1908 0.0
C956 C 0.31486 0.74963 0.21018 0.0
C957 C 0.31996 0.7166 0.18388 0.0
C958 C 0.34246 0.71883 0.19575 0.0
Eu959 Eu 0.31787 0.79009 0.25345 0.0
N960 N 0.30162 0.76448 0.21792 0.0
C961 C 0.28391 0.73091 0.17892 0.0
C962 C 0.28038 0.76401 0.20551 0.0
C963 C 0.27114 0.74714 0.18608 0.0
H964 H 0.37394 0.7875 0.26462 0.0
H965 H 0.25414 0.7467 0.17662 0.0
H966 H 0.22724 0.7977 0.29731 0.0
H967 H 0.35158 0.84423 0.37726 0.0
H968 H 0.27034 0.77657 0.21012 0.0
H969 H 0.27662 0.71775 0.16397 0.0
H970 H 0.33367 0.81185 0.34733 0.0
H971 H 0.39993 0.76167 0.25296 0.0
H972 H 0.31348 0.70293 0.16922 0.0
H973 H 0.353 0.70686 0.19001 0.0
H974 H 0.20315 0.82631 0.30597 0.0
H975 H 0.38544 0.72876 0.22112 0.0
H976 H 0.32957 0.87379 0.38909 0.0
N977 N 0.25653 0.81615 0.32126 0.0
C978 C 0.26555 0.83468 0.33792 0.0
C979 C 0.2207 0.82893 0.31501 0.0
C980 C 0.2525 0.85149 0.34338 0.0
C981 C 0.23438 0.81283 0.31005 0.0
C982 C 0.22982 0.8484 0.33168 0.0
N983 N 0.30063 0.82113 0.34226 0.0
C984 C 0.32323 0.82376 0.35228 0.0
C985 C 0.29834 0.8568 0.36551 0.0
C986 C 0.28824 0.83727 0.34871 0.0
C987 C 0.32125 0.85911 0.37606 0.0
C988 C 0.33372 0.84249 0.36941 0.0
H989 H 0.21924 0.86094 0.33538 0.0
H990 H 0.25282 0.88408 0.36439 0.0
H991 H 0.29294 0.8887 0.38382 0.0
O992 O 0.2763 0.77292 0.34533 0.0
O993 O 0.28485 0.82218 0.29785 0.0
O994 O 0.3168 0.81191 0.28757 0.0
O995 O 0.24759 0.76488 0.31581 0.0
O996 O 0.3161 0.77935 0.32106 0.0
O997 O 0.33897 0.78586 0.28949 0.0
O998 O 0.31581 0.81687 0.23062 0.0
O999 O 0.30262 0.75273 0.25452 0.0
O1000 O 0.29414 0.77197 0.28468 0.0
O1001 O 0.3492 0.81415 0.24857 0.0
O1002 O 0.27979 0.79658 0.24827 0.0
O1003 O 0.25789 0.78031 0.27681 0.0
C1004 C 0.30327 0.82667 0.2874 0.0
C1005 C 0.24188 0.74599 0.35112 0.0
C1006 C 0.24127 0.72644 0.38603 0.0
C1007 C 0.21962 0.71247 0.3766 0.0
C1008 C 0.21998 0.73234 0.34166 0.0
C1009 C 0.2089 0.71559 0.35445 0.0
C1010 C 0.25225 0.74314 0.37344 0.0
C1011 C 0.33611 0.78066 0.31159 0.0
C1012 C 0.25526 0.76157 0.33718 0.0
C1013 C 0.26253 0.87092 0.36004 0.0
C1014 C 0.28538 0.87355 0.3711 0.0
C1015 C 0.29216 0.75168 0.27301 0.0
C1016 C 0.34831 0.82632 0.21064 0.0
C1017 C 0.34915 0.84427 0.17458 0.0
C1018 C 0.36616 0.83234 0.16774 0.0
C1019 C 0.36523 0.81429 0.20377 0.0
C1020 C 0.34031 0.84111 0.19598 0.0
C1021 C 0.37413 0.81737 0.18234 0.0
C1022 C 0.25953 0.78896 0.25625 0.0
C1023 C 0.33834 0.8238 0.23276 0.0
H1024 H 0.21111 0.69931 0.38635 0.0
H1025 H 0.2118 0.73414 0.32422 0.0
H1026 H 0.19218 0.70483 0.34706 0.0
H1027 H 0.26927 0.75342 0.3809 0.0
H1028 H 0.37337 0.83469 0.15125 0.0
H1029 H 0.3716 0.8026 0.21483 0.0
H1030 H 0.32682 0.8499 0.20114 0.0
H1031 H 0.38722 0.80819 0.17706 0.0
Eu1032 Eu 0.51174 0.04091 0.55189 0.0
C1033 C 0.59468 0.08677 0.5005 0.0
N1034 N 0.5789 0.06647 0.49424 0.0
C1035 C 0.57387 0.07439 0.45382 0.0
C1036 C 0.59986 0.10215 0.48369 0.0
C1037 C 0.56934 0.05966 0.47105 0.0
C1038 C 0.58893 0.09587 0.46022 0.0
C1039 C 0.62305 0.11258 0.53053 0.0
C1040 C 0.6063 0.09193 0.52365 0.0
C1041 C 0.62763 0.12825 0.51402 0.0
C1042 C 0.61611 0.12303 0.49067 0.0
Eu1043 Eu 0.57251 0.04339 0.52521 0.0
N1044 N 0.60118 0.0767 0.53947 0.0
C1045 C 0.63494 0.11667 0.55371 0.0
C1046 C 0.61396 0.07966 0.56131 0.0
C1047 C 0.63066 0.09992 0.56904 0.0
H1048 H 0.55854 0.04269 0.46557 0.0
H1049 H 0.64046 0.10245 0.58663 0.0
H1050 H 0.5245 0.04203 0.61176 0.0
H1051 H 0.45538 0.97562 0.48546 0.0
H1052 H 0.61167 0.06612 0.57245 0.0
H1053 H 0.64795 0.13233 0.55969 0.0
H1054 H 0.48256 0.01299 0.49999 0.0
H1055 H 0.56596 0.06904 0.43554 0.0
H1056 H 0.64035 0.14428 0.51901 0.0
H1057 H 0.62017 0.13511 0.47802 0.0
H1058 H 0.51574 0.0158 0.64162 0.0
H1059 H 0.59249 0.10718 0.44677 0.0
H1060 H 0.44435 0.94786 0.51361 0.0
N1061 N 0.50486 0.01821 0.5827 0.0
C1062 C 0.48984 0.99749 0.57576 0.0
C1063 C 0.5085 0.0104 0.62315 0.0
C1064 C 0.484 0.9822 0.59248 0.0
C1065 C 0.51372 0.0251 0.60605 0.0
C1066 C 0.4937 0.98882 0.61634 0.0
N1067 N 0.48727 1.00567 0.53557 0.0
C1068 C 0.47811 1.00069 0.51219 0.0
C1069 C 0.46513 0.96982 0.54424 0.0
C1070 C 0.48045 0.99126 0.55175 0.0
C1071 C 0.45625 0.96415 0.52006 0.0
C1072 C 0.4626 0.97973 0.50403 0.0
H1073 H 0.48969 0.9775 0.62968 0.0
H1074 H 0.46413 0.94885 0.59757 0.0
H1075 H 0.44761 0.93808 0.55547 0.0
O1076 O 0.48138 0.05203 0.53533 0.0
O1077 O 0.5239 1.00587 0.54332 0.0
O1078 O 0.54767 1.00805 0.51363 0.0
O1079 O 0.48631 0.05118 0.5734 0.0
O1080 O 0.52036 0.05541 0.51853 0.0
O1081 O 0.54013 0.03171 0.49957 0.0
O1082 O 0.60086 0.02618 0.53861 0.0
O1083 O 0.56399 0.07965 0.53709 0.0
O1084 O 0.53422 0.07793 0.5611 0.0
O1085 O 0.5941 0.0313 0.50114 0.0
O1086 O 0.56437 0.03319 0.56083 0.0
O1087 O 0.54244 0.05533 0.57886 0.0
C1088 C 0.53391 0.99568 0.52652 0.0
C1089 C 0.46836 0.08 0.55969 0.0
C1090 C 0.44035 0.10485 0.55723 0.0
C1091 C 0.45774 0.12368 0.56806 0.0
C1092 C 0.48553 0.09902 0.57069 0.0
C1093 C 0.48017 0.12069 0.57477 0.0
C1094 C 0.44564 0.08293 0.553 0.0
C1095 C 0.52391 0.04353 0.49937 0.0
C1096 C 0.47403 0.05714 0.55562 0.0
C1097 C 0.46875 0.96081 0.58494 0.0
C1098 C 0.45932 0.95467 0.56095 0.0
C1099 C 0.5512 0.0899 0.55109 0.0
C1100 C 0.62507 0.01173 0.50967 0.0
C1101 C 0.65527 0.98985 0.51723 0.0
C1102 C 0.65761 0.98772 0.49285 0.0
C1103 C 0.62788 1.00931 0.48534 0.0
C1104 C 0.63911 1.00217 0.52578 0.0
C1105 C 0.64405 0.99745 0.47707 0.0
C1106 C 0.56172 0.04801 0.57836 0.0
C1107 C 0.60651 0.02318 0.51707 0.0
H1108 H 0.45383 0.14062 0.57173 0.0
H1109 H 0.50299 0.09711 0.57641 0.0
H1110 H 0.49335 0.13515 0.58333 0.0
H1111 H 0.43219 0.06829 0.54473 0.0
H1112 H 0.67009 0.97851 0.48598 0.0
H1113 H 0.61737 0.01638 0.47245 0.0
H1114 H 0.63709 1.00371 0.54454 0.0
H1115 H 0.64595 0.99565 0.45832 0.0
Eu1116 Eu 0.32136 0.27677 0.78628 0.0
C1117 C 0.23929 0.31304 0.73266 0.0
N1118 N 0.25307 0.32356 0.75309 0.0
C1119 C 0.25375 0.36065 0.74027 0.0
C1120 C 0.23252 0.32613 0.71497 0.0
C1121 C 0.25987 0.34702 0.75742 0.0
C1122 C 0.24018 0.35017 0.71889 0.0
C1123 C 0.21653 0.27793 0.70894 0.0
C1124 C 0.23142 0.28911 0.7296 0.0
C1125 C 0.21012 0.29094 0.69115 0.0
C1126 C 0.21811 0.31493 0.69413 0.0
Eu1127 Eu 0.26224 0.29871 0.78033 0.0
N1128 N 0.2383 0.27677 0.74685 0.0
C1129 C 0.20823 0.25402 0.70695 0.0
C1130 C 0.22927 0.25376 0.74565 0.0
C1131 C 0.21435 0.24196 0.72555 0.0
H1132 H 0.26978 0.3553 0.77419 0.0
H1133 H 0.20753 0.22359 0.72446 0.0
H1134 H 0.31029 0.21955 0.79122 0.0
H1135 H 0.38253 0.34632 0.84235 0.0
H1136 H 0.23339 0.24451 0.7602 0.0
H1137 H 0.19671 0.24481 0.69137 0.0
H1138 H 0.35823 0.32541 0.80499 0.0
H1139 H 0.25938 0.37923 0.74364 0.0
H1140 H 0.19876 0.28262 0.6751 0.0
H1141 H 0.2128 0.32473 0.68032 0.0
H1142 H 0.3156 0.19443 0.82218 0.0
H1143 H 0.23538 0.36081 0.70569 0.0
H1144 H 0.38666 0.32541 0.87748 0.0
N1145 N 0.32767 0.25043 0.81346 0.0
C1146 C 0.3405 0.25976 0.83477 0.0
C1147 C 0.32254 0.21282 0.82601 0.0
C1148 C 0.34435 0.24601 0.85282 0.0
C1149 C 0.31933 0.22718 0.80858 0.0
C1150 C 0.33488 0.2223 0.84831 0.0
N1151 N 0.34632 0.29571 0.82042 0.0
C1152 C 0.35877 0.31747 0.821 0.0
C1153 C 0.36464 0.29342 0.85956 0.0
C1154 C 0.35041 0.2831 0.83824 0.0
C1155 C 0.37554 0.31678 0.86141 0.0
C1156 C 0.37307 0.32872 0.84174 0.0
H1157 H 0.3374 0.21111 0.86173 0.0
H1158 H 0.36077 0.24606 0.88876 0.0
H1159 H 0.3786 0.28759 0.89459 0.0
O1160 O 0.35 0.29149 0.76765 0.0
O1161 O 0.30835 0.28983 0.82085 0.0
O1162 O 0.28621 0.31687 0.81372 0.0
O1163 O 0.34695 0.25671 0.77622 0.0
O1164 O 0.32064 0.31107 0.77116 0.0
O1165 O 0.29344 0.32861 0.78762 0.0
O1166 O 0.23467 0.2847 0.80109 0.0
O1167 O 0.27624 0.28711 0.74526 0.0
O1168 O 0.29645 0.25913 0.75385 0.0
O1169 O 0.23473 0.31699 0.78713 0.0
O1170 O 0.26575 0.26755 0.79912 0.0
O1171 O 0.28867 0.24779 0.77912 0.0
C1172 C 0.29865 0.30694 0.82839 0.0
C1173 C 0.36582 0.26636 0.74277 0.0
C1174 C 0.39604 0.26814 0.71649 0.0
C1175 C 0.37928 0.25573 0.6979 0.0
C1176 C 0.34938 0.25394 0.72399 0.0
C1177 C 0.35618 0.24852 0.70173 0.0
C1178 C 0.38924 0.27332 0.73905 0.0
C1179 C 0.31324 0.32971 0.77879 0.0
C1180 C 0.35862 0.27299 0.766 0.0
C1181 C 0.35777 0.25632 0.87458 0.0
C1182 C 0.36792 0.27997 0.87793 0.0
C1183 C 0.28534 0.26931 0.73843 0.0
C1184 C 0.21824 0.31248 0.82274 0.0
C1185 C 0.19032 0.3124 0.8515 0.0
C1186 C 0.20271 0.33435 0.8621 0.0
C1187 C 0.23058 0.33418 0.83406 0.0
C1188 C 0.19825 0.3014 0.83179 0.0
C1189 C 0.22265 0.34509 0.85343 0.0
C1190 C 0.27065 0.24798 0.7908 0.0
C1191 C 0.22486 0.30242 0.80034 0.0
H1192 H 0.38417 0.25128 0.68049 0.0
H1193 H 0.33133 0.24849 0.72652 0.0
H1194 H 0.3435 0.23862 0.68741 0.0
H1195 H 0.40201 0.28299 0.7535 0.0
H1196 H 0.19692 0.34325 0.87717 0.0
H1197 H 0.246 0.34303 0.82749 0.0
H1198 H 0.18847 0.28476 0.82303 0.0
H1199 H 0.23169 0.36216 0.86151 0.0
Eu1200 Eu 0.05475 1.00706 0.53194 0.0
C1201 C 0.02182 0.09553 0.58305 0.0
N1202 N 1.01105 0.0816 0.56293 0.0
C1203 C 0.9739 0.08181 0.57609 0.0
C1204 C 1.00907 0.1022 0.60114 0.0
C1205 C 0.98734 0.07568 0.55866 0.0
C1206 C 0.98485 0.09473 0.59764 0.0
C1207 C 0.05726 0.11948 0.60507 0.0
C1208 C 0.04552 0.10418 0.58495 0.0
C1209 C 0.04487 0.12517 0.62375 0.0
C1210 C 0.02082 0.11656 0.62178 0.0
Eu1211 Eu 0.03561 0.06921 0.53635 0.0
N1212 N 0.05704 0.09801 0.56678 0.0
C1213 C 0.081 0.12882 0.60561 0.0
C1214 C 0.07977 0.10821 0.56646 0.0
C1215 C 0.0922 0.12348 0.58601 0.0
H1216 H 0.9788 0.06565 0.54202 0.0
H1217 H 0.1104 0.13107 0.58596 0.0
H1218 H 0.11187 0.02489 0.52413 0.0
H1219 H 0.99242 0.93277 0.48282 0.0
H1220 H 0.08835 0.10424 0.55131 0.0
H1221 H 0.09068 0.14057 0.62079 0.0
H1222 H 1.00948 0.96212 0.51721 0.0
H1223 H 0.95514 0.07646 0.57294 0.0
H1224 H 0.05364 0.13661 0.63955 0.0
H1225 H 1.01137 0.12156 0.63606 0.0
H1226 H 0.13593 0.02337 0.49181 0.0
H1227 H 0.97441 0.09941 0.61113 0.0
H1228 H 1.01356 0.92939 0.44781 0.0
N1229 N 0.08121 1.00417 0.50368 0.0
C1230 C 0.07291 0.98865 0.48386 0.0
C1231 C 0.11806 0.0139 0.48909 0.0
C1232 C 0.08651 0.98627 0.46521 0.0
C1233 C 0.10403 0.01537 0.50719 0.0
C1234 C 0.10907 0.9997 0.46775 0.0
N1235 N 0.03839 0.97695 0.50085 0.0
C1236 C 0.01811 0.96165 0.50154 0.0
C1237 C 0.0425 0.95729 0.46287 0.0
C1238 C 0.05113 0.97434 0.48266 0.0
C1239 C 0.02086 0.94258 0.46273 0.0
C1240 C 1.00878 0.94456 0.48234 0.0
H1241 H 0.12005 0.99843 0.45381 0.0
H1242 H 0.08758 0.9683 0.43036 0.0
H1243 H 0.04901 0.94295 0.42831 0.0
O1244 O 0.04556 0.97544 0.54933 0.0
O1245 O 0.04306 0.01938 0.49649 0.0
O1246 O 0.01718 0.04247 0.50513 0.0
O1247 O 0.08179 0.99079 0.54656 0.0
O1248 O 0.01605 1.00368 0.53269 0.0
O1249 O 1.00764 0.0396 0.54465 0.0
O1250 O 0.04883 0.09838 0.51712 0.0
O1251 O 0.05844 0.06295 0.56965 0.0
O1252 O 0.04718 0.02375 0.56755 0.0
O1253 O 1.01194 0.08461 0.51476 0.0
O1254 O 0.06656 0.06197 0.51885 0.0
O1255 O 0.08283 0.03964 0.54262 0.0
C1256 C 0.0263 0.03004 0.48974 0.0
C1257 C 0.07568 0.95514 0.56378 0.0
C1258 C 0.07049 0.92226 0.58641 0.0
C1259 C 0.09238 0.91858 0.58156 0.0
C1260 C 0.0975 0.95103 0.55932 0.0
C1261 C 0.10571 0.93282 0.56809 0.0
C1262 C 0.06194 0.94048 0.57717 0.0
C1263 C 1.00207 0.01678 0.54025 0.0
C1264 C 0.06723 0.97383 0.5529 0.0
C1265 C 0.07749 0.97011 0.44498 0.0
C1266 C 0.05557 0.95562 0.44384 0.0
C1267 C 0.05759 0.04386 0.57963 0.0
C1268 C 0.02278 0.12283 0.50612 0.0
C1269 C 0.02416 0.15608 0.48411 0.0
C1270 C 1.0075 0.16316 0.49745 0.0
C1271 C 1.0066 0.13063 0.51953 0.0
C1272 C 0.03161 0.13566 0.48841 0.0
C1273 C 0.99891 0.15059 0.51504 0.0
C1274 C 0.08494 0.05767 0.53096 0.0
C1275 C 0.02807 0.09993 0.50818 0.0
H1276 H 0.09917 0.90448 0.58812 0.0
H1277 H 0.10813 0.96168 0.54866 0.0
H1278 H 0.12246 0.92969 0.56436 0.0
H1279 H 0.04498 0.94335 0.5806 0.0
H1280 H 1.00085 0.17836 0.49407 0.0
H1281 H 0.99933 0.12091 0.53298 0.0
H1282 H 0.04398 0.12962 0.4779 0.0
H1283 H 0.986 0.15618 0.52503 0.0
Eu1284 Eu 0.29425 0.82172 0.7755 0.0
C1285 C 0.24976 0.73397 0.82165 0.0
N1286 N 0.27106 0.74817 0.82853 0.0
C1287 C 0.26324 0.75147 0.86916 0.0
C1288 C 0.23392 0.72915 0.83826 0.0
C1289 C 0.27849 0.75545 0.85222 0.0
C1290 C 0.24069 0.7387 0.86208 0.0
C1291 C 0.22273 0.70728 0.79112 0.0
C1292 C 0.24417 0.72294 0.79828 0.0
C1293 C 0.2066 0.70341 0.80737 0.0
C1294 C 0.21217 0.71432 0.83085 0.0
Eu1295 Eu 0.29374 0.75517 0.79698 0.0
N1296 N 0.2598 0.72723 0.78256 0.0
C1297 C 0.21826 0.69561 0.76792 0.0
C1298 C 0.25613 0.71502 0.76034 0.0
C1299 C 0.23519 0.69918 0.75264 0.0
H1300 H 0.29625 0.76413 0.85843 0.0
H1301 H 0.23202 0.68967 0.73499 0.0
H1302 H 0.28732 0.81492 0.71398 0.0
H1303 H 0.36022 0.88426 0.83656 0.0
H1304 H 0.26919 0.71789 0.7485 0.0
H1305 H 0.20202 0.68339 0.76181 0.0
H1306 H 0.32246 0.8572 0.8243 0.0
H1307 H 0.26905 0.75793 0.88775 0.0
H1308 H 0.18996 0.6916 0.8021 0.0
H1309 H 0.19975 0.71067 0.84334 0.0
H1310 H 0.31204 0.82249 0.68257 0.0
H1311 H 0.229 0.73544 0.87532 0.0
H1312 H 0.38784 0.89196 0.80724 0.0
N1313 N 0.31437 0.83013 0.7425 0.0
C1314 C 0.33586 0.84421 0.74836 0.0
C1315 C 0.31909 0.82836 0.70102 0.0
C1316 C 0.35029 0.84967 0.73066 0.0
C1317 C 0.30528 0.82369 0.71905 0.0
C1318 C 0.34187 0.84096 0.70688 0.0
N1319 N 0.32885 0.84938 0.78875 0.0
C1320 C 0.3343 0.86059 0.81145 0.0
C1321 C 0.3649 0.86966 0.77815 0.0
C1322 C 0.3431 0.85438 0.7719 0.0
C1323 C 0.37121 0.88018 0.80176 0.0
C1324 C 0.35569 0.87589 0.81839 0.0
H1325 H 0.35246 0.8447 0.69282 0.0
H1326 H 0.38371 0.86831 0.72369 0.0
H1327 H 0.39652 0.88567 0.76524 0.0
O1328 O 0.28325 0.85169 0.79293 0.0
O1329 O 0.33112 0.81604 0.7929 0.0
O1330 O 0.3308 0.77816 0.80109 0.0
O1331 O 0.27268 0.84045 0.75532 0.0
O1332 O 0.28242 0.80486 0.80671 0.0
O1333 O 0.30378 0.78389 0.8261 0.0
O1334 O 0.30776 0.72742 0.77906 0.0
O1335 O 0.25866 0.76059 0.77619 0.0
O1336 O 0.25733 0.79954 0.77497 0.0
O1337 O 0.31306 0.73528 0.81768 0.0
O1338 O 0.30625 0.77598 0.76942 0.0
O1339 O 0.2855 0.79246 0.74524 0.0
C1340 C 0.34202 0.79973 0.80027 0.0
C1341 C 0.27224 0.87891 0.76873 0.0
C1342 C 0.25217 0.91064 0.76583 0.0
C1343 C 0.27022 0.92211 0.75459 0.0
C1344 C 0.29023 0.89056 0.75757 0.0
C1345 C 0.2892 0.91214 0.7506 0.0
C1346 C 0.2533 0.88907 0.77306 0.0
C1347 C 0.29669 0.80299 0.82507 0.0
C1348 C 0.27147 0.85516 0.77348 0.0
C1349 C 0.37234 0.86421 0.73705 0.0
C1350 C 0.37962 0.87416 0.7607 0.0
C1351 C 0.24701 0.77738 0.7727 0.0
C1352 C 0.31618 0.69836 0.80228 0.0
C1353 C 0.33684 0.6671 0.80318 0.0
C1354 C 0.31875 0.65431 0.81341 0.0
C1355 C 0.29818 0.6856 0.81263 0.0
C1356 C 0.3355 0.68913 0.79766 0.0
C1357 C 0.29954 0.6636 0.81818 0.0
C1358 C 0.29409 0.77465 0.74904 0.0
C1359 C 0.31693 0.72242 0.79924 0.0
H1360 H 0.26953 0.93873 0.74881 0.0
H1361 H 0.30472 0.88274 0.75379 0.0
H1362 H 0.30296 0.92102 0.74175 0.0
H1363 H 0.23916 0.87994 0.78135 0.0
H1364 H 0.31963 0.63726 0.81788 0.0
H1365 H 0.28347 0.69286 0.81689 0.0
H1366 H 0.34961 0.69918 0.79005 0.0
H1367 H 0.28581 0.65382 0.82641 0.0
Eu1368 Eu 0.54666 0.06456 1.00619 0.0
C1369 C 0.58496 1.0047 0.0935 0.0
N1370 N 0.56851 0.99795 0.07407 0.0
C1371 C 0.58112 0.96231 0.06669 0.0
C1372 C 0.60075 0.99073 0.09972 0.0
C1373 C 0.56603 0.97684 0.06102 0.0
C1374 C 0.5987 0.96937 0.08596 0.0
C1375 C 0.60369 0.03372 0.12674 0.0
C1376 C 0.58628 0.02584 0.10706 0.0
C1377 C 0.61961 0.01996 0.13276 0.0
C1378 C 0.6181 0.99851 0.11933 0.0
Eu1379 Eu 0.54453 0.02416 0.06518 0.0
N1380 N 0.57136 0.03934 0.10003 0.0
C1381 C 0.60483 0.05536 0.13957 0.0
C1382 C 0.57183 0.06006 0.1131 0.0
C1383 C 0.58868 0.06847 0.13284 0.0
H1384 H 0.5522 0.97092 0.0464 0.0
H1385 H 0.58924 0.0851 0.14283 0.0
H1386 H 0.5304 0.11303 0.0251 0.0
H1387 H 0.51303 1.00293 0.92526 0.0
H1388 H 0.55942 0.07034 0.10838 0.0
H1389 H 0.61801 0.06205 0.15474 0.0
H1390 H 0.54132 0.02105 0.95974 0.0
H1391 H 0.57914 0.94564 0.05621 0.0
H1392 H 0.6332 0.02578 0.14773 0.0
H1393 H 0.63049 0.98807 0.12422 0.0
H1394 H 0.49929 0.13375 0.01464 0.0
H1395 H 0.61046 0.95812 0.0902 0.0
H1396 H 0.47856 0.01922 0.91458 0.0
N1397 N 0.51798 0.08555 0.9969 0.0
C1398 C 0.50213 0.07675 0.97748 0.0
C1399 C 0.49978 0.11766 1.00414 0.0
C1400 C 0.48395 0.08792 0.97095 0.0
C1401 C 0.5173 0.10582 0.0101 0.0
C1402 C 0.48292 0.10861 0.98457 0.0
N1403 N 0.52218 0.04638 0.97066 0.0
C1404 C 0.52601 0.02799 0.95629 0.0
C1405 C 0.4878 0.04694 0.9439 0.0
C1406 C 0.5041 0.05647 0.96416 0.0
C1407 C 0.49076 0.02709 0.93021 0.0
C1408 C 0.51014 0.01781 0.93623 0.0
H1409 H 0.4693 0.11778 0.98004 0.0
H1410 H 0.45328 0.08646 0.94589 0.0
H1411 H 0.45658 0.05055 0.92225 0.0
O1412 O 0.57708 0.06864 0.98748 0.0
O1413 O 0.51103 0.05252 0.01576 0.0
O1414 O 0.52369 0.02347 0.02995 0.0
O1415 O 0.56361 0.09857 0.99883 0.0
O1416 O 0.55751 0.02933 0.99925 0.0
O1417 O 0.54661 1.00413 0.0276 0.0
O1418 O 0.51754 0.02565 0.08802 0.0
O1419 O 0.5813 0.04295 0.06651 0.0
O1420 O 0.56145 0.05229 0.03735 0.0
O1421 O 0.52465 0.99208 0.0747 0.0
O1422 O 0.53467 0.06055 0.07111 0.0
O1423 O 0.54958 0.08478 0.04356 0.0
C1424 C 0.5069 0.03434 0.02664 0.0
C1425 C 0.57685 0.09642 0.96123 0.0
C1426 C 0.58647 0.08949 0.92122 0.0
C1427 C 0.5755 0.10705 0.91444 0.0
C1428 C 0.56562 0.11385 0.95427 0.0
C1429 C 0.56496 0.11908 0.93093 0.0
C1430 C 0.58718 0.08424 0.94451 0.0
C1431 C 0.5543 1.00856 0.0068 0.0
C1432 C 0.57731 0.09024 0.98549 0.0
C1433 C 0.46746 0.0782 0.9511 0.0
C1434 C 0.46933 0.05773 0.93766 0.0
C1435 C 0.58173 0.05511 0.04944 0.0
C1436 C 0.495 0.9921 0.10086 0.0
C1437 C 0.47769 0.99107 0.1373 0.0
C1438 C 0.46472 0.96881 0.12891 0.0
C1439 C 0.48225 0.96972 0.09254 0.0
C1440 C 0.49246 1.00288 0.12313 0.0
C1441 C 0.46688 0.95824 0.10645 0.0
C1442 C 0.5413 0.08136 0.06409 0.0
C1443 C 0.51273 1.00333 0.08769 0.0
H1444 H 0.57531 0.11156 0.8965 0.0
H1445 H 0.55733 0.12342 0.96678 0.0
H1446 H 0.55644 0.13259 0.92568 0.0
H1447 H 0.59622 0.07098 0.94968 0.0
H1448 H 0.45339 0.95947 0.13998 0.0
H1449 H 0.4843 0.96112 0.07541 0.0
H1450 H 0.50295 0.01985 0.13004 0.0
H1451 H 0.45705 0.94097 0.10007 0.0
Eu1452 Eu 0.27516 0.26038 0.27093 0.0
C1453 C 0.36067 0.33313 0.32466 0.0
N1454 N 0.33922 0.32377 0.33011 0.0
C1455 C 0.35539 0.32378 0.37064 0.0
C1456 C 0.38036 0.33798 0.34221 0.0
C1457 C 0.33636 0.31947 0.35283 0.0
C1458 C 0.37749 0.33303 0.36531 0.0
C1459 C 0.38504 0.34846 0.2958 0.0
C1460 C 0.36299 0.33852 0.30163 0.0
C1461 C 0.40456 0.3532 0.31327 0.0
C1462 C 0.40221 0.34804 0.33639 0.0
Eu1463 Eu 0.30813 0.32111 0.29938 0.0
N1464 N 0.34377 0.33415 0.28499 0.0
C1465 C 0.38685 0.35372 0.27262 0.0
C1466 C 0.34543 0.33991 0.26259 0.0
C1467 C 0.36695 0.34943 0.25596 0.0
H1468 H 0.31936 0.3141 0.35781 0.0
H1469 H 0.36809 0.35387 0.23812 0.0
H1470 H 0.26138 0.26315 0.21171 0.0
H1471 H 0.22069 0.21927 0.33216 0.0
H1472 H 0.3303 0.33783 0.2498 0.0
H1473 H 0.40348 0.3614 0.26749 0.0
H1474 H 0.257 0.23803 0.31865 0.0
H1475 H 0.35289 0.32053 0.38862 0.0
H1476 H 0.42155 0.36103 0.30911 0.0
H1477 H 0.41743 0.35203 0.34971 0.0
H1478 H 0.22712 0.25451 0.18173 0.0
H1479 H 0.39217 0.33669 0.37928 0.0
H1480 H 0.18381 0.21133 0.3048 0.0
N1481 N 0.24284 0.25408 0.2405 0.0
C1482 C 0.22199 0.24373 0.24657 0.0
C1483 C 0.22531 0.25182 0.2 0.0
C1484 C 0.20188 0.23757 0.22955 0.0
C1485 C 0.24478 0.25739 0.21735 0.0
C1486 C 0.20371 0.24208 0.20616 0.0
N1487 N 0.24078 0.24318 0.28529 0.0
C1488 C 0.24097 0.23585 0.30716 0.0
C1489 C 0.19984 0.22643 0.27608 0.0
C1490 C 0.22096 0.23798 0.26951 0.0
C1491 C 0.19969 0.22021 0.29909 0.0
C1492 C 0.22042 0.22474 0.31462 0.0
H1493 H 0.18871 0.23742 0.19256 0.0
H1494 H 0.16518 0.22154 0.22328 0.0
H1495 H 0.16336 0.21198 0.26406 0.0
O1496 O 0.28958 0.23076 0.28029 0.0
O1497 O 0.24889 0.27994 0.28732 0.0
O1498 O 0.26849 0.31707 0.30196 0.0
O1499 O 0.26811 0.22914 0.24592 0.0
O1500 O 0.29341 0.26338 0.30919 0.0
O1501 O 0.28971 0.29898 0.32472 0.0
O1502 O 0.30585 0.35575 0.29197 0.0
O1503 O 0.33234 0.29561 0.28986 0.0
O1504 O 0.31055 0.27245 0.25765 0.0
O1505 O 0.3153 0.3496 0.3281 0.0
O1506 O 0.29294 0.3218 0.26054 0.0
O1507 O 0.28787 0.28408 0.24382 0.0
C1508 C 0.24901 0.30094 0.29758 0.0
C1509 C 0.28208 0.19506 0.25292 0.0
C1510 C 0.30411 0.16528 0.2556 0.0
C1511 C 0.28951 0.15174 0.23606 0.0
C1512 C 0.26732 0.18148 0.23341 0.0
C1513 C 0.27099 0.15979 0.22513 0.0
C1514 C 0.30018 0.18671 0.26428 0.0
C1515 C 0.29056 0.27756 0.32742 0.0
C1516 C 0.28006 0.2187 0.2599 0.0
C1517 C 0.18075 0.2264 0.23615 0.0
C1518 C 0.17972 0.22091 0.25936 0.0
C1519 C 0.33119 0.28178 0.26983 0.0
C1520 C 0.28795 0.3725 0.32192 0.0
C1521 C 0.25835 0.394 0.31294 0.0
C1522 C 0.24779 0.38738 0.33272 0.0
C1523 C 0.27711 0.36541 0.34158 0.0
C1524 C 0.27835 0.38669 0.30764 0.0
C1525 C 0.2571 0.37291 0.34692 0.0
C1526 C 0.29045 0.30625 0.24171 0.0
C1527 C 0.30769 0.36341 0.31456 0.0
H1528 H 0.29243 0.13499 0.22939 0.0
H1529 H 0.25322 0.18776 0.22434 0.0
H1530 H 0.25969 0.14939 0.21005 0.0
H1531 H 0.31185 0.1972 0.27916 0.0
H1532 H 0.23267 0.39372 0.33732 0.0
H1533 H 0.28386 0.35391 0.35267 0.0
H1534 H 0.28665 0.39238 0.29256 0.0
H1535 H 0.24892 0.36762 0.36212 0.0
Eu1536 Eu 0.55399 0.50791 0.03093 0.0
C1537 C 0.51856 0.58901 0.08595 0.0
N1538 N 0.50915 0.57476 0.06553 0.0
C1539 C 0.47151 0.56909 0.07874 0.0
C1540 C 0.50476 0.59311 0.10403 0.0
C1541 C 0.4858 0.56561 0.06129 0.0
C1542 C 0.48107 0.58267 0.10032 0.0
C1543 C 0.55222 0.61444 0.10988 0.0
C1544 C 0.54207 0.59969 0.08882 0.0
C1545 C 0.53856 0.61822 0.12802 0.0
C1546 C 0.51493 0.60759 0.12511 0.0
Eu1547 Eu 0.53516 0.56978 0.03774 0.0
N1548 N 0.55513 0.5952 0.0713 0.0
C1549 C 0.57591 0.6247 0.11225 0.0
C1550 C 0.57815 0.60536 0.07337 0.0
C1551 C 0.5889 0.62018 0.0939 0.0
H1552 H 0.47788 0.55588 0.04436 0.0
H1553 H 0.6072 0.62813 0.09554 0.0
H1554 H 0.61126 0.51657 0.02186 0.0
H1555 H 0.48297 0.44171 0.98287 0.0
H1556 H 0.58831 0.60224 0.05923 0.0
H1557 H 0.58434 0.63612 0.12818 0.0
H1558 H 0.50509 0.46871 0.01771 0.0
H1559 H 0.45309 0.56147 0.07544 0.0
H1560 H 0.54613 0.62935 0.14441 0.0
H1561 H 0.50462 0.6108 0.13923 0.0
H1562 H 0.63363 0.51071 0.98863 0.0
H1563 H 0.46992 0.58538 0.11379 0.0
H1564 H 0.50073 0.43725 0.94563 0.0
N1565 N 0.57835 0.50128 1.00146 0.0
C1566 C 0.56739 0.48801 0.98093 0.0
C1567 C 0.61494 0.50459 0.98608 0.0
C1568 C 0.57973 0.4834 0.96175 0.0
C1569 C 0.60205 0.50832 1.00476 0.0
C1570 C 0.60367 0.4925 0.9643 0.0
N1571 N 0.5331 0.48104 0.9991 0.0
C1572 C 0.5122 0.46744 1.00106 0.0
C1573 C 0.53281 0.46157 0.95989 0.0
C1574 C 0.54419 0.47724 0.97988 0.0
C1575 C 0.51012 0.44938 0.96066 0.0
C1576 C 0.49999 0.4519 0.9816 0.0
H1577 H 0.61378 0.48935 0.94998 0.0
H1578 H 0.57724 0.46543 0.92613 0.0
H1579 H 0.5362 0.44618 0.9246 0.0
O1580 O 0.54434 0.48567 0.05842 0.0
O1581 O 0.52958 0.51501 0.99959 0.0
O1582 O 0.5453 0.55294 1.00399 0.0
O1583 O 0.57041 0.47895 0.03649 0.0
O1584 O 0.52162 0.51236 0.04815 0.0
O1585 O 0.50599 0.53786 0.02762 0.0
O1586 O 0.54166 0.60511 0.02749 0.0
O1587 O 0.54603 0.55497 0.07254 0.0
O1588 O 0.5732 0.53512 0.06073 0.0
O1589 O 0.50806 0.58137 0.01623 0.0
O1590 O 0.57083 0.57241 0.02596 0.0
O1591 O 0.585 0.53938 0.03315 0.0
C1592 C 0.53245 0.53469 0.99082 0.0
C1593 C 0.57093 0.46317 0.07309 0.0
C1594 C 0.57054 0.43292 0.09944 0.0
C1595 C 0.59486 0.44047 0.10507 0.0
C1596 C 0.59505 0.47029 0.07929 0.0
C1597 C 0.60683 0.45917 0.0954 0.0
C1598 C 0.5587 0.4449 0.0836 0.0
C1599 C 0.50347 0.51913 0.03816 0.0
C1600 C 0.55871 0.47241 0.05352 0.0
C1601 C 0.56807 0.46895 0.94113 0.0
C1602 C 0.5447 0.45796 0.94025 0.0
C1603 C 0.56348 0.54463 0.07775 0.0
C1604 C 0.51205 0.61906 1.00253 0.0
C1605 C 0.5169 0.65098 0.9782 0.0
C1606 C 0.49259 0.6485 0.97477 0.0
C1607 C 0.48788 0.61719 0.99866 0.0
C1608 C 0.5267 0.63633 0.99252 0.0
C1609 C 0.47829 0.63186 0.98501 0.0
C1610 C 0.58771 0.56095 0.02791 0.0
C1611 C 0.52109 0.60152 0.01523 0.0
H1612 H 0.60501 0.4316 0.11638 0.0
H1613 H 0.60488 0.48408 0.07123 0.0
H1614 H 0.62552 0.46459 0.09985 0.0
H1615 H 0.54003 0.43982 0.07881 0.0
H1616 H 0.48457 0.65974 0.96437 0.0
H1617 H 0.47626 0.60417 1.00607 0.0
H1618 H 0.54539 0.63782 0.99515 0.0
H1619 H 0.45962 0.63023 0.98222 0.0
Eu1620 Eu 0.79568 0.31964 0.27592 0.0
C1621 C 0.7466 0.23624 0.32885 0.0
N1622 N 0.76833 0.24988 0.33434 0.0
C1623 C 0.7626 0.25522 0.37552 0.0
C1624 C 0.73168 0.23251 0.34643 0.0
C1625 C 0.77689 0.2582 0.35759 0.0
C1626 C 0.73976 0.24269 0.36986 0.0
C1627 C 0.71767 0.20985 0.29978 0.0
C1628 C 0.73961 0.22489 0.30582 0.0
C1629 C 0.70248 0.20689 0.31703 0.0
C1630 C 0.70944 0.2182 0.34027 0.0
Eu1631 Eu 0.78984 0.25449 0.30153 0.0
N1632 N 0.75434 0.22847 0.28926 0.0
C1633 C 0.71178 0.19809 0.2766 0.0
C1634 C 0.74941 0.21602 0.26719 0.0
C1635 C 0.72789 0.20093 0.26034 0.0
H1636 H 0.79485 0.26683 0.36272 0.0
H1637 H 0.7238 0.1914 0.24263 0.0
H1638 H 0.78791 0.31721 0.21586 0.0
H1639 H 0.86069 0.37899 0.34115 0.0
H1640 H 0.76221 0.21776 0.25505 0.0
H1641 H 0.69508 0.18639 0.27127 0.0
H1642 H 0.82375 0.35091 0.32741 0.0
H1643 H 0.76935 0.26231 0.39378 0.0
H1644 H 0.68544 0.1956 0.31267 0.0
H1645 H 0.6977 0.21535 0.35352 0.0
H1646 H 0.81108 0.33046 0.18436 0.0
H1647 H 0.72882 0.24024 0.38386 0.0
H1648 H 0.88732 0.39148 0.31213 0.0
N1649 N 0.81478 0.33264 0.24412 0.0
C1650 C 0.83591 0.34713 0.25065 0.0
C1651 C 0.81834 0.33508 0.20291 0.0
C1652 C 0.84958 0.35529 0.23326 0.0
C1653 C 0.80533 0.32754 0.22074 0.0
C1654 C 0.84071 0.34868 0.20918 0.0
N1655 N 0.82966 0.34742 0.29121 0.0
C1656 C 0.8352 0.3564 0.31468 0.0
C1657 C 0.86476 0.37075 0.28182 0.0
C1658 C 0.84343 0.35491 0.27473 0.0
C1659 C 0.87109 0.37925 0.30602 0.0
C1660 C 0.85608 0.37229 0.32246 0.0
H1661 H 0.85072 0.35455 0.1953 0.0
H1662 H 0.88218 0.37641 0.22726 0.0
H1663 H 0.8955 0.38984 0.26972 0.0
O1664 O 0.78558 0.34957 0.29451 0.0
O1665 O 0.83159 0.31269 0.29223 0.0
O1666 O 0.82747 0.27549 0.30342 0.0
O1667 O 0.77103 0.33692 0.25801 0.0
O1668 O 0.78253 0.30016 0.30394 0.0
O1669 O 0.80291 0.28503 0.32953 0.0
O1670 O 0.80492 0.22698 0.28521 0.0
O1671 O 0.75518 0.2638 0.28505 0.0
O1672 O 0.75979 0.29497 0.26261 0.0
O1673 O 0.79955 0.22811 0.32205 0.0
O1674 O 0.79239 0.25743 0.26307 0.0
O1675 O 0.79795 0.29257 0.24711 0.0
C1676 C 0.84051 0.29558 0.30024 0.0
C1677 C 0.77211 0.37585 0.27061 0.0
C1678 C 0.75237 0.4079 0.26797 0.0
C1679 C 0.76993 0.4188 0.25577 0.0
C1680 C 0.78954 0.38695 0.25839 0.0
C1681 C 0.78842 0.40837 0.25104 0.0
C1682 C 0.75354 0.38641 0.27547 0.0
C1683 C 0.79435 0.30254 0.32465 0.0
C1684 C 0.77169 0.35232 0.27618 0.0
C1685 C 0.87132 0.37024 0.24038 0.0
C1686 C 0.87889 0.37793 0.26457 0.0
C1687 C 0.74656 0.27734 0.27067 0.0
C1688 C 0.832 0.21433 0.31096 0.0
C1689 C 0.85986 0.18929 0.31029 0.0
C1690 C 0.8772 0.20764 0.32237 0.0
C1691 C 0.84942 0.23228 0.32362 0.0
C1692 C 0.83723 0.19271 0.30429 0.0
C1693 C 0.87197 0.22899 0.32902 0.0
C1694 C 0.79546 0.27019 0.24578 0.0
C1695 C 0.80844 0.2182 0.30488 0.0
H1696 H 0.76919 0.43532 0.24974 0.0
H1697 H 0.80371 0.37886 0.25413 0.0
H1698 H 0.80177 0.41678 0.2414 0.0
H1699 H 0.73982 0.37775 0.2846 0.0
H1700 H 0.89465 0.20515 0.32738 0.0
H1701 H 0.8456 0.24886 0.32938 0.0
H1702 H 0.82369 0.17853 0.29519 0.0
H1703 H 0.88535 0.24291 0.33874 0.0
Eu1704 Eu 0.04451 0.55836 0.51014 0.0
C1705 C 0.08133 0.49841 0.59959 0.0
N1706 N 0.06309 0.49051 0.58225 0.0
C1707 C 0.06899 0.45191 0.58238 0.0
C1708 C 0.09432 0.48319 0.60901 0.0
C1709 C 0.05672 0.46768 0.57357 0.0
C1710 C 0.08789 0.4597 0.60021 0.0
C1711 C 0.10726 0.53074 0.62446 0.0
C1712 C 0.08758 0.52185 0.60726 0.0
C1713 C 0.11994 0.51562 0.63428 0.0
C1714 C 0.1135 0.4919 0.62657 0.0
Eu1715 Eu 0.04322 0.51759 0.56755 0.0
N1716 N 0.07532 0.53607 0.59693 0.0
C1717 C 0.11412 0.55461 0.63073 0.0
C1718 C 0.08297 0.55948 0.60204 0.0
C1719 C 0.10207 0.56904 0.61924 0.0
H1720 H 0.04206 0.46156 0.55991 0.0
H1721 H 0.10777 0.5876 0.62323 0.0
H1722 H 0.04047 0.61295 0.52711 0.0
H1723 H 0.99356 0.49613 0.43568 0.0
H1724 H 0.07526 0.57118 0.59249 0.0
H1725 H 0.12913 0.56209 0.64381 0.0
H1726 H 0.02469 0.51025 0.46848 0.0
H1727 H 0.06388 0.4338 0.5754 0.0
H1728 H 0.13503 0.52215 0.64752 0.0
H1729 H 0.12367 0.48047 0.63402 0.0
H1730 H 1.01466 0.6395 0.51775 0.0
H1731 H 0.09747 0.44747 0.60693 0.0
H1732 H 0.96642 0.5208 0.42387 0.0
N1733 N 0.02193 0.58565 0.50088 0.0
C1734 C 1.00466 0.57901 0.48218 0.0
C1735 C 1.01152 0.62247 0.50774 0.0
C1736 C 0.9896 0.59374 0.47609 0.0
C1737 C 0.0259 0.60724 0.51324 0.0
C1738 C 0.99315 0.61561 0.48923 0.0
N1739 N 0.01596 0.54305 0.47627 0.0
C1740 C 1.01339 0.52152 0.46396 0.0
C1741 C 0.98334 0.54958 0.45047 0.0
C1742 C 1.00171 0.55723 0.46935 0.0
C1743 C 0.98038 0.52733 0.43837 0.0
C1744 C 0.99559 0.51333 0.44504 0.0
H1745 H 0.98195 0.62741 0.4851 0.0
H1746 H 0.95955 0.59719 0.45249 0.0
H1747 H 0.95396 0.55847 0.43021 0.0
O1748 O 0.07016 0.55684 0.48572 0.0
O1749 O 1.00726 0.54277 0.51198 0.0
O1750 O 0.02989 0.53242 0.53819 0.0
O1751 O 0.06586 0.58997 0.50201 0.0
O1752 O 0.05186 0.52092 0.50226 0.0
O1753 O 0.03933 0.4965 0.53067 0.0
O1754 O 0.01821 0.51927 0.59219 0.0
O1755 O 0.07657 0.52371 0.55293 0.0
O1756 O 0.06924 0.55748 0.54323 0.0
O1757 O 0.01492 0.48791 0.56762 0.0
O1758 O 0.03612 0.5537 0.57671 0.0
O1759 O 0.04207 0.57874 0.5473 0.0
C1760 C 1.00877 0.53124 0.52936 0.0
C1761 C 0.07342 0.58692 0.4622 0.0
C1762 C 0.08405 0.58389 0.42246 0.0
C1763 C 0.0721 0.60114 0.41691 0.0
C1764 C 0.06091 0.60385 0.45655 0.0
C1765 C 0.06032 0.61092 0.43392 0.0
C1766 C 0.08472 0.57688 0.44501 0.0
C1767 C 0.04647 0.50004 0.50962 0.0
C1768 C 0.07487 0.57912 0.48565 0.0
C1769 C 0.97138 0.58617 0.45727 0.0
C1770 C 0.96823 0.56414 0.44454 0.0
C1771 C 0.08314 0.54284 0.54401 0.0
C1772 C 1.0006 0.4846 0.60487 0.0
C1773 C 0.98235 0.48363 0.64107 0.0
C1774 C 0.98102 0.45962 0.63918 0.0
C1775 C 0.99941 0.46075 0.60322 0.0
C1776 C 0.99295 0.49593 0.62421 0.0
C1777 C 0.98993 0.4484 0.6206 0.0
C1778 C 0.03713 0.57421 0.56903 0.0
C1779 C 1.00723 0.49793 0.58568 0.0
H1780 H 0.07201 0.60705 0.39957 0.0
H1781 H 0.05176 0.61172 0.46952 0.0
H1782 H 0.05095 0.62414 0.42964 0.0
H1783 H 0.09458 0.56396 0.44934 0.0
H1784 H 0.97258 0.44929 0.65155 0.0
H1785 H 1.00528 0.45163 0.58837 0.0
H1786 H 0.99473 0.51447 0.62566 0.0
H1787 H 0.98876 0.42995 0.61924 0.0
Eu1788 Eu 0.81785 0.77539 0.28238 0.0
C1789 C 0.73575 0.81343 0.23397 0.0
N1790 N 0.75021 0.82412 0.25391 0.0
C1791 C 0.7509 0.86099 0.24061 0.0
C1792 C 0.72864 0.82635 0.21626 0.0
C1793 C 0.75744 0.84755 0.25774 0.0
C1794 C 0.73656 0.85035 0.21971 0.0
C1795 C 0.71315 0.7781 0.21052 0.0
C1796 C 0.72813 0.78944 0.23108 0.0
C1797 C 0.70617 0.79098 0.19285 0.0
C1798 C 0.71392 0.81499 0.19569 0.0
Eu1799 Eu 0.76024 0.7996 0.28108 0.0
N1800 N 0.7358 0.77715 0.24803 0.0
C1801 C 0.70564 0.75409 0.20826 0.0
C1802 C 0.72762 0.75395 0.24648 0.0
C1803 C 0.71272 0.74202 0.22644 0.0
H1804 H 0.76808 0.85594 0.27411 0.0
H1805 H 0.70653 0.72353 0.22513 0.0
H1806 H 0.80512 0.71854 0.28859 0.0
H1807 H 0.8864 0.84313 0.33233 0.0
H1808 H 0.73218 0.74459 0.26069 0.0
H1809 H 0.69412 0.74477 0.19272 0.0
H1810 H 0.85833 0.82314 0.29723 0.0
H1811 H 0.75686 0.87956 0.24356 0.0
H1812 H 0.69476 0.78252 0.17689 0.0
H1813 H 0.70836 0.82465 0.18187 0.0
H1814 H 0.81204 0.69366 0.31938 0.0
H1815 H 0.73154 0.86084 0.20646 0.0
H1816 H 0.89259 0.82255 0.3673 0.0
N1817 N 0.82551 0.74914 0.30911 0.0
C1818 C 0.8404 0.75833 0.32924 0.0
C1819 C 0.81998 0.71187 0.32246 0.0
C1820 C 0.84517 0.7447 0.34713 0.0
C1821 C 0.81588 0.7261 0.30515 0.0
C1822 C 0.83447 0.72126 0.34367 0.0
N1823 N 0.84676 0.79383 0.31379 0.0
C1824 C 0.85996 0.81509 0.31315 0.0
C1825 C 0.86786 0.79135 0.35159 0.0
C1826 C 0.85152 0.78135 0.33156 0.0
C1827 C 0.87987 0.8142 0.35224 0.0
C1828 C 0.87631 0.82594 0.33263 0.0
H1829 H 0.83766 0.71017 0.357 0.0
H1830 H 0.86444 0.74463 0.38173 0.0
H1831 H 0.88435 0.78548 0.38557 0.0
O1832 O 0.84108 0.78604 0.25625 0.0
O1833 O 0.80853 0.78973 0.31896 0.0
O1834 O 0.78523 0.81639 0.31414 0.0
O1835 O 0.84138 0.75385 0.27033 0.0
O1836 O 0.81946 0.8116 0.2712 0.0
O1837 O 0.79188 0.82906 0.28759 0.0
O1838 O 0.73215 0.78632 0.30166 0.0
O1839 O 0.7747 0.7912 0.24578 0.0
O1840 O 0.79044 0.75988 0.25088 0.0
O1841 O 0.73427 0.81943 0.28893 0.0
O1842 O 0.76413 0.76855 0.29987 0.0
O1843 O 0.78428 0.74781 0.27732 0.0
C1844 C 0.79875 0.80647 0.32774 0.0
C1845 C 0.87671 0.77354 0.25902 0.0
C1846 C 0.91253 0.78051 0.24035 0.0
C1847 C 0.92549 0.78302 0.26302 0.0
C1848 C 0.89013 0.77608 0.28136 0.0
C1849 C 0.91434 0.78084 0.2833 0.0
C1850 C 0.88798 0.77575 0.23851 0.0
C1851 C 0.81155 0.83005 0.27844 0.0
C1852 C 0.85104 0.76843 0.25695 0.0
C1853 C 0.86071 0.75479 0.36767 0.0
C1854 C 0.87204 0.77806 0.36989 0.0
C1855 C 0.78167 0.77281 0.23671 0.0
C1856 C 0.71688 0.81478 0.32398 0.0
C1857 C 0.6888 0.81448 0.35256 0.0
C1858 C 0.70044 0.83688 0.36256 0.0
C1859 C 0.72843 0.837 0.33468 0.0
C1860 C 0.69718 0.80336 0.33324 0.0
C1861 C 0.71995 0.84804 0.35356 0.0
C1862 C 0.76801 0.74864 0.29118 0.0
C1863 C 0.72351 0.80483 0.30154 0.0
H1864 H 0.94431 0.78612 0.26506 0.0
H1865 H 0.88193 0.77418 0.29731 0.0
H1866 H 0.92454 0.78258 0.3006 0.0
H1867 H 0.87765 0.77379 0.22121 0.0
H1868 H 0.69429 0.84589 0.37731 0.0
H1869 H 0.74354 0.84621 0.3279 0.0
H1870 H 0.68787 0.78642 0.32483 0.0
H1871 H 0.72818 0.86556 0.36096 0.0
Eu1872 Eu 0.77921 0.28705 0.81261 0.0
C1873 C 0.8395 0.25227 0.72281 0.0
N1874 N 0.84656 0.26814 0.74253 0.0
C1875 C 0.88332 0.2569 0.74775 0.0
C1876 C 0.85395 0.23748 0.71529 0.0
C1877 C 0.86833 0.27106 0.75465 0.0
C1878 C 0.87602 0.23987 0.72814 0.0
C1879 C 0.80966 0.23412 0.68994 0.0
C1880 C 0.81769 0.25075 0.71014 0.0
C1881 C 0.82385 0.21909 0.68267 0.0
C1882 C 0.84594 0.2208 0.69526 0.0
Eu1883 Eu 0.8195 0.29009 0.75387 0.0
N1884 N 0.804 0.265 0.71815 0.0
C1885 C 0.78754 0.23299 0.67775 0.0
C1886 C 0.78292 0.26474 0.70558 0.0
C1887 C 0.77424 0.24855 0.68546 0.0
H1888 H 0.87427 0.28443 0.76961 0.0
H1889 H 0.75732 0.24815 0.67585 0.0
H1890 H 0.7296 0.29991 0.78962 0.0
H1891 H 0.83456 0.32504 0.89609 0.0
H1892 H 0.77273 0.27701 0.71072 0.0
H1893 H 0.78071 0.22039 0.66222 0.0
H1894 H 0.81653 0.29408 0.86332 0.0
H1895 H 0.90049 0.25913 0.75759 0.0
H1896 H 0.81792 0.2061 0.66729 0.0
H1897 H 0.85673 0.20915 0.68935 0.0
H1898 H 0.70836 0.33154 0.79438 0.0
H1899 H 0.88763 0.22883 0.72292 0.0
H1900 H 0.81962 0.36106 0.90044 0.0
N1901 N 0.75647 0.31521 0.81783 0.0
C1902 C 0.76455 0.33282 0.83576 0.0
C1903 C 0.72423 0.33218 0.80605 0.0
C1904 C 0.75319 0.35135 0.83903 0.0
C1905 C 0.73632 0.31432 0.80335 0.0
C1906 C 0.73282 0.3509 0.82381 0.0
N1907 N 0.79431 0.31367 0.84732 0.0
C1908 C 0.81106 0.3103 0.86416 0.0
C1909 C 0.79324 0.34998 0.86974 0.0
C1910 C 0.78436 0.33221 0.85074 0.0
C1911 C 0.8122 0.34777 0.88564 0.0
C1912 C 0.82077 0.32754 0.88317 0.0
H1913 H 0.7235 0.36478 0.82576 0.0
H1914 H 0.75414 0.38415 0.86 0.0
H1915 H 0.78924 0.38293 0.88695 0.0
O1916 O 0.77681 0.26411 0.8393 0.0
O1917 O 0.78893 0.32158 0.80006 0.0
O1918 O 0.82058 0.31117 0.78885 0.0
O1919 O 0.74591 0.26386 0.81504 0.0
O1920 O 0.81696 0.28131 0.82201 0.0
O1921 O 0.83984 0.28547 0.7902 0.0
O1922 O 0.81727 0.31809 0.73262 0.0
O1923 O 0.8032 0.25272 0.75323 0.0
O1924 O 0.79515 0.27152 0.78398 0.0
O1925 O 0.85097 0.31235 0.74631 0.0
O1926 O 0.78217 0.29825 0.74983 0.0
O1927 O 0.75877 0.27817 0.775 0.0
C1928 C 0.80844 0.32693 0.79137 0.0
C1929 C 0.74154 0.25234 0.85364 0.0
C1930 C 0.74093 0.2411 0.89317 0.0
C1931 C 0.7184 0.24512 0.89343 0.0
C1932 C 0.71887 0.25617 0.85367 0.0
C1933 C 0.70733 0.25243 0.87357 0.0
C1934 C 0.75221 0.24435 0.87326 0.0
C1935 C 0.83688 0.28166 0.81265 0.0
C1936 C 0.75464 0.25574 0.83352 0.0
C1937 C 0.76247 0.3696 0.85734 0.0
C1938 C 0.7825 0.36894 0.87264 0.0
C1939 C 0.79326 0.25137 0.77199 0.0
C1940 C 0.84673 0.32415 0.70825 0.0
C1941 C 0.84461 0.34076 0.6713 0.0
C1942 C 0.85738 0.3253 0.66168 0.0
C1943 C 0.85942 0.30866 0.69851 0.0
C1944 C 0.83947 0.34018 0.69463 0.0
C1945 C 0.86479 0.30936 0.67531 0.0
C1946 C 0.76148 0.28864 0.75566 0.0
C1947 C 0.83964 0.32311 0.73197 0.0
H1948 H 0.70942 0.24242 0.90883 0.0
H1949 H 0.71016 0.262 0.83849 0.0
H1950 H 0.68983 0.2553 0.87364 0.0
H1951 H 0.76961 0.24097 0.87327 0.0
H1952 H 0.86169 0.32564 0.64369 0.0
H1953 H 0.86508 0.29596 0.70867 0.0
H1954 H 0.82922 0.35178 0.70199 0.0
H1955 H 0.87458 0.29745 0.66785 0.0
Eu1956 Eu 0.77833 0.76458 0.76993 0.0
C1957 C 0.86234 0.83547 0.82721 0.0
N1958 N 0.84101 0.8247 0.83195 0.0
C1959 C 0.85725 0.82234 0.87192 0.0
C1960 C 0.88199 0.83961 0.84475 0.0
C1961 C 0.83821 0.81884 0.85423 0.0
C1962 C 0.87925 0.83262 0.86714 0.0
C1963 C 0.88642 0.85469 0.80003 0.0
C1964 C 0.86458 0.84308 0.80498 0.0
C1965 C 0.90588 0.85859 0.81746 0.0
C1966 C 0.90368 0.85106 0.83971 0.0
Eu1967 Eu 0.81001 0.82392 0.80158 0.0
N1968 N 0.84553 0.83896 0.78813 0.0
C1969 C 0.88813 0.86205 0.77762 0.0
C1970 C 0.84702 0.84677 0.76655 0.0
C1971 C 0.86834 0.85805 0.76083 0.0
H1972 H 0.82125 0.81277 0.85918 0.0
H1973 H 0.86939 0.86408 0.74362 0.0
H1974 H 0.76475 0.77435 0.71244 0.0
H1975 H 0.72404 0.71915 0.82859 0.0
H1976 H 0.83179 0.8452 0.75395 0.0
H1977 H 0.90461 0.87096 0.77317 0.0
H1978 H 0.76025 0.74057 0.81691 0.0
H1979 H 0.85481 0.81771 0.88949 0.0
H1980 H 0.92275 0.86746 0.81393 0.0
H1981 H 0.91888 0.85439 0.85302 0.0
H1982 H 0.73061 0.76614 0.6823 0.0
H1983 H 0.8939 0.83564 0.88106 0.0
H1984 H 0.68772 0.71073 0.80034 0.0
N1985 N 0.74635 0.7609 0.73993 0.0
C1986 C 0.72575 0.74888 0.74513 0.0
C1987 C 0.72892 0.76154 0.70001 0.0
C1988 C 0.70585 0.74309 0.72785 0.0
C1989 C 0.74825 0.76672 0.71752 0.0
C1990 C 0.70761 0.74979 0.70521 0.0
N1991 N 0.74421 0.74638 0.78365 0.0
C1992 C 0.74433 0.73806 0.80505 0.0
C1993 C 0.70375 0.72836 0.77301 0.0
C1994 C 0.7247 0.74132 0.76745 0.0
C1995 C 0.70348 0.72074 0.79543 0.0
C1996 C 0.7239 0.72552 0.81147 0.0
H1997 H 0.69276 0.7455 0.69143 0.0
H1998 H 0.6696 0.72558 0.72029 0.0
H1999 H 0.66773 0.7129 0.75983 0.0
O2000 O 0.78766 0.73257 0.77835 0.0
O2001 O 0.75155 0.78319 0.78788 0.0
O2002 O 0.7704 0.8203 0.80344 0.0
O2003 O 0.77285 0.73547 0.74192 0.0
O2004 O 0.79986 0.76741 0.80596 0.0
O2005 O 0.79273 0.79922 0.82614 0.0
O2006 O 0.81111 0.85973 0.79666 0.0
O2007 O 0.83605 0.80126 0.78885 0.0
O2008 O 0.81541 0.77355 0.75899 0.0
O2009 O 0.81541 0.85027 0.83225 0.0
O2010 O 0.79394 0.8253 0.76294 0.0
O2011 O 0.79337 0.78895 0.74515 0.0
C2012 C 0.7511 0.80394 0.79875 0.0
C2013 C 0.78272 0.69916 0.74875 0.0
C2014 C 0.79776 0.66565 0.7571 0.0
C2015 C 0.78812 0.65453 0.73419 0.0
C2016 C 0.77303 0.68809 0.72588 0.0
C2017 C 0.77578 0.6658 0.71865 0.0
C2018 C 0.79511 0.68794 0.76417 0.0
C2019 C 0.79537 0.77785 0.82577 0.0
C2020 C 0.78114 0.72277 0.75641 0.0
C2021 C 0.68498 0.73024 0.73341 0.0
C2022 C 0.68392 0.72297 0.75592 0.0
C2023 C 0.83563 0.7852 0.77066 0.0
C2024 C 0.80036 0.88325 0.82787 0.0
C2025 C 0.77488 0.90938 0.81937 0.0
C2026 C 0.77963 0.91931 0.84343 0.0
C2027 C 0.80474 0.89304 0.85182 0.0
C2028 C 0.78483 0.89091 0.81191 0.0
C2029 C 0.79416 0.91085 0.85961 0.0
C2030 C 0.79416 0.81087 0.74377 0.0
C2031 C 0.81383 0.86676 0.81944 0.0
H2032 H 0.78993 0.63715 0.72843 0.0
H2033 H 0.76351 0.69668 0.7136 0.0
H2034 H 0.76837 0.65725 0.70101 0.0
H2035 H 0.80321 0.69677 0.78157 0.0
H2036 H 0.7728 0.93409 0.84969 0.0
H2037 H 0.8168 0.8873 0.86436 0.0
H2038 H 0.78108 0.88302 0.79351 0.0
H2039 H 0.79785 0.91863 0.87802 0.0
Eu2040 Eu 0.56795 0.55338 0.55304 0.0
C2041 C 0.49698 0.46732 0.48434 0.0
N2042 N 0.50859 0.48855 0.48088 0.0
C2043 C 0.51148 0.47413 0.44059 0.0
C2044 C 0.49313 0.44837 0.46628 0.0
C2045 C 0.51464 0.49244 0.45893 0.0
C2046 C 0.50118 0.45189 0.44446 0.0
C2047 C 0.47152 0.4443 0.50757 0.0
C2048 C 0.48635 0.46523 0.50477 0.0
C2049 C 0.46936 0.42488 0.49063 0.0
C2050 C 0.48015 0.42691 0.47 0.0
Eu2051 Eu 0.51507 0.51749 0.51437 0.0
N2052 N 0.48802 0.48447 0.52032 0.0
C2053 C 0.45802 0.444 0.52634 0.0
C2054 C 0.47272 0.48496 0.53659 0.0
C2055 C 0.45808 0.46462 0.54046 0.0
H2056 H 0.52184 0.5097 0.45543 0.0
H2057 H 0.44662 0.46496 0.55403 0.0
H2058 H 0.5647 0.56256 0.61229 0.0
H2059 H 0.6323 0.60555 0.50744 0.0
H2060 H 0.47172 0.50106 0.54667 0.0
H2061 H 0.44639 0.4283 0.52908 0.0
H2062 H 0.6088 0.56956 0.51666 0.0
H2063 H 0.51675 0.47724 0.42339 0.0
H2064 H 0.45835 0.40856 0.49267 0.0
H2065 H 0.47731 0.41209 0.45646 0.0
H2066 H 0.5707 0.59571 0.64377 0.0
H2067 H 0.49845 0.43781 0.4301 0.0
H2068 H 0.63369 0.64241 0.53252 0.0
N2069 N 0.57579 0.58312 0.58563 0.0
C2070 C 0.58697 0.60415 0.58119 0.0
C2071 C 0.57491 0.59841 0.62611 0.0
C2072 C 0.59148 0.62348 0.59887 0.0
C2073 C 0.57106 0.57974 0.6081 0.0
C2074 C 0.58464 0.62049 0.62131 0.0
N2075 N 0.59423 0.58616 0.5447 0.0
C2076 C 0.60817 0.58564 0.52702 0.0
C2077 C 0.61058 0.62662 0.55602 0.0
C2078 C 0.59647 0.60572 0.56001 0.0
C2079 C 0.62267 0.62671 0.53619 0.0
C2080 C 0.62195 0.60597 0.522 0.0
H2081 H 0.58791 0.63488 0.6354 0.0
H2082 H 0.60723 0.65988 0.60736 0.0
H2083 H 0.6239 0.66264 0.56977 0.0
O2084 O 0.59235 0.53125 0.54478 0.0
O2085 O 0.54628 0.57865 0.53842 0.0
O2086 O 0.52474 0.55568 0.5053 0.0
O2087 O 0.59902 0.55682 0.57755 0.0
O2088 O 0.56848 0.554 0.51294 0.0
O2089 O 0.54613 0.52048 0.49337 0.0
O2090 O 0.49071 0.5394 0.52243 0.0
O2091 O 0.53552 0.49202 0.53021 0.0
O2092 O 0.55803 0.51538 0.56259 0.0
O2093 O 0.48414 0.51438 0.48928 0.0
O2094 O 0.51288 0.51744 0.5546 0.0
O2095 O 0.53827 0.54887 0.57586 0.0
C2096 C 0.53286 0.57658 0.5178 0.0
C2097 C 0.62744 0.53381 0.57277 0.0
C2098 C 0.6604 0.51786 0.56355 0.0
C2099 C 0.67025 0.52342 0.58759 0.0
C2100 C 0.63724 0.53918 0.59677 0.0
C2101 C 0.65856 0.53386 0.60414 0.0
C2102 C 0.63881 0.52283 0.55633 0.0
C2103 C 0.5627 0.53868 0.49384 0.0
C2104 C 0.60589 0.54057 0.56473 0.0
C2105 C 0.60389 0.64478 0.59411 0.0
C2106 C 0.61339 0.64636 0.5727 0.0
C2107 C 0.5494 0.4944 0.55053 0.0
C2108 C 0.45521 0.53698 0.4954 0.0
C2109 C 0.4263 0.55879 0.50447 0.0
C2110 C 0.41207 0.54815 0.48338 0.0
C2111 C 0.44111 0.52646 0.47409 0.0
C2112 C 0.44781 0.55334 0.51041 0.0
C2113 C 0.41961 0.53212 0.46812 0.0
C2114 C 0.52032 0.53169 0.57454 0.0
C2115 C 0.47699 0.53014 0.50259 0.0
H2116 H 0.68716 0.52012 0.59354 0.0
H2117 H 0.62853 0.54762 0.60978 0.0
H2118 H 0.66619 0.53814 0.6226 0.0
H2119 H 0.63103 0.51848 0.53786 0.0
H2120 H 0.39518 0.55218 0.47887 0.0
H2121 H 0.44653 0.51368 0.46223 0.0
H2122 H 0.45838 0.56137 0.52706 0.0
H2123 H 0.40868 0.52387 0.45182 0.0
Eu2124 Eu 0.01494 0.54354 0.04249 0.0
C2125 C 0.10052 0.59056 0.9934 0.0
N2126 N 0.08529 0.56983 0.98791 0.0
C2127 C 0.07682 0.57805 0.94788 0.0
C2128 C 0.10356 0.60628 0.97655 0.0
C2129 C 0.07456 0.56293 0.96503 0.0
C2130 C 0.09103 0.59998 0.95377 0.0
C2131 C 0.13055 0.61663 0.02155 0.0
C2132 C 0.11408 0.59569 0.01554 0.0
C2133 C 0.13292 0.63265 1.00514 0.0
C2134 C 0.11948 0.62748 0.9827 0.0
Eu2135 Eu 0.08192 0.54704 0.01981 0.0
N2136 N 0.11137 0.58003 0.03118 0.0
C2137 C 0.14432 0.62072 0.04381 0.0
C2138 C 0.12533 0.58333 0.0524 0.0
C2139 C 0.14187 0.60386 0.0592 0.0
H2140 H 0.06451 0.54569 0.95945 0.0
H2141 H 0.15271 0.60666 0.07624 0.0
H2142 H 0.0196 0.55398 0.10291 0.0
H2143 H 0.95015 0.47854 0.98258 0.0
H2144 H 0.12359 0.5701 0.06402 0.0
H2145 H 0.15716 0.63662 0.0491 0.0
H2146 H 0.97801 0.51565 0.99412 0.0
H2147 H 0.06784 0.57263 0.92998 0.0
H2148 H 0.14538 0.64892 0.00947 0.0
H2149 H 0.12187 0.63981 0.97003 0.0
H2150 H 1.00822 0.53245 0.13607 0.0
H2151 H 0.09288 0.61157 0.94034 0.0
H2152 H 0.94079 0.45255 0.01291 0.0
N2153 N 1.00339 0.5262 0.07601 0.0
C2154 C 0.98882 0.50509 0.07089 0.0
C2155 C 1.00283 0.52449 0.11783 0.0
C2156 C 0.98163 0.49237 0.08929 0.0
C2157 C 1.0093 0.53657 0.09903 0.0
C2158 C 0.98931 0.50212 0.11295 0.0
N2159 N 0.98578 0.50997 0.02993 0.0
C2160 C 0.97455 0.50421 0.00723 0.0
C2161 C 0.96344 0.47565 0.04164 0.0
C2162 C 0.97965 0.49683 0.04729 0.0
C2163 C 0.95329 0.46873 0.01795 0.0
C2164 C 0.95853 0.48331 1.00076 0.0
H2165 H 0.98421 0.49285 0.12756 0.0
H2166 H 0.96094 0.46059 0.09747 0.0
H2167 H 0.94513 0.44593 0.05578 0.0
O2168 O 0.98564 0.55506 0.02369 0.0
O2169 O 0.02017 0.50723 0.02629 0.0
O2170 O 0.05881 0.51124 0.01937 0.0
O2171 O 0.99738 0.5673 0.06099 0.0
O2172 O 0.03281 0.55644 0.01263 0.0
O2173 O 0.0512 0.53285 0.99338 0.0
O2174 O 0.10774 0.52829 0.03352 0.0
O2175 O 0.07521 0.58167 0.03799 0.0
O2176 O 0.03944 0.57916 0.05309 0.0
O2177 O 0.10367 0.53307 0.99621 0.0
O2178 O 0.07998 0.54567 0.05836 0.0
O2179 O 0.0432 0.54251 0.07147 0.0
C2180 C 0.03818 0.49825 0.02083 0.0
C2181 C 0.95836 0.56642 0.04806 0.0
C2182 C 0.92643 0.586 0.05341 0.0
C2183 C 0.91564 0.5677 0.06465 0.0
C2184 C 0.94729 0.5482 0.05924 0.0
C2185 C 0.92597 0.54884 0.06741 0.0
C2186 C 0.94775 0.58524 0.04493 0.0
C2187 C 0.03331 0.54204 0.99416 0.0
C2188 C 0.98226 0.56758 0.04272 0.0
C2189 C 0.96639 0.47072 0.08358 0.0
C2190 C 0.95735 0.46238 0.05982 0.0
C2191 C 0.05986 0.59096 0.0491 0.0
C2192 C 0.13893 0.52414 0.01177 0.0
C2193 C 0.17013 0.5031 0.01416 0.0
C2194 C 0.18507 0.52201 0.00738 0.0
C2195 C 0.15392 0.54295 1.00502 0.0
C2196 C 0.14701 0.50421 0.01624 0.0
C2197 C 0.17695 0.54179 1.00275 0.0
C2198 C 0.06572 0.5438 0.0745 0.0
C2199 C 0.1144 0.52406 0.01275 0.0
H2200 H 0.8992 0.56805 0.0713 0.0
H2201 H 0.95541 0.53383 0.06224 0.0
H2202 H 0.91761 0.53487 0.07624 0.0
H2203 H 0.95642 0.59958 0.0367 0.0
H2204 H 0.20299 0.52138 1.00553 0.0
H2205 H 0.14777 0.55832 1.00126 0.0
H2206 H 0.13536 0.48962 0.02138 0.0
H2207 H 0.1885 0.55621 0.99733 0.0
H2208 H 0.99971 0.18749 0.95198 0.0
H2209 H 0.03765 0.23406 0.01345 0.0
H2210 H 0.04731 0.20101 0.03181 0.0
H2211 H 0.97608 0.14089 0.98677 0.0
H2212 H 0.97824 0.1175 0.96493 0.0
H2213 H 0.97417 0.14461 0.95567 0.0
H2214 H 1.01096 0.14743 0.93459 0.0
H2215 H 0.01514 0.12036 0.94384 0.0
H2216 H 0.03815 0.14573 0.95123 0.0
H2217 H 0.05301 0.16251 0.04504 0.0
H2218 H 0.0538 0.12278 0.05186 0.0
H2219 H 1.01339 0.09752 0.98275 0.0
C2220 C 1.01009 0.19082 0.9693 0.0
C2221 C 0.01779 0.21429 0.98098 0.0
C2222 C 0.03123 0.21696 1.00376 0.0
C2223 C 0.03693 0.19799 0.01449 0.0
C2224 C 0.02912 0.17546 1.00278 0.0
C2225 C 0.01586 0.17163 0.98066 0.0
C2226 C 1.00941 0.14523 0.97253 0.0
C2227 C 0.9829 0.13654 0.9698 0.0
C2228 C 0.01898 0.13934 0.94915 0.0
C2229 C 0.02142 0.13502 0.99321 0.0
C2230 C 0.03255 0.15303 0.01044 0.0
C2231 C 0.04442 0.14846 0.03143 0.0
C2232 C 0.045 0.12539 0.0351 0.0
C2233 C 0.03429 0.10603 0.01796 0.0
C2234 C 0.02211 0.11135 0.99652 0.0
H2235 H 0.16858 0.82329 0.15284 0.0
H2236 H 0.1142 0.78169 0.18461 0.0
H2237 H 0.14368 0.77213 0.21346 0.0
H2238 H 0.21219 0.78784 0.16083 0.0
H2239 H 0.23665 0.81172 0.16942 0.0
H2240 H 0.21165 0.81519 0.15019 0.0
H2241 H 0.20745 0.84986 0.17952 0.0
H2242 H 0.23252 0.8465 0.19874 0.0
H2243 H 0.20528 0.8463 0.21029 0.0
H2244 H 0.17824 0.76629 0.23909 0.0
H2245 H 0.21595 0.76592 0.26139 0.0
H2246 H 0.25062 0.81263 0.21649 0.0
C2247 C 0.16296 0.81209 0.16581 0.0
C2248 C 0.13871 0.8032 0.1662 0.0
C2249 C 0.13237 0.78886 0.1838 0.0
C2250 C 0.1491 0.78323 0.20034 0.0
C2251 C 0.1726 0.79226 0.19972 0.0
C2252 C 0.17972 0.8066 0.18314 0.0
C2253 C 0.20635 0.81457 0.18759 0.0
C2254 C 0.21736 0.80686 0.1657 0.0
C2255 C 0.21331 0.84087 0.19443 0.0
C2256 C 0.21289 0.80205 0.20876 0.0
C2257 C 0.19294 0.78933 0.21528 0.0
C2258 C 0.19395 0.7763 0.23417 0.0
C2259 C 0.2157 0.77628 0.24689 0.0
C2260 C 0.23674 0.78927 0.24113 0.0
C2261 C 0.23511 0.80234 0.22153 0.0
H2262 H 0.52818 0.86919 0.45384 0.0
H2263 H 0.50622 0.83712 0.51487 0.0
H2264 H 0.50873 0.87634 0.53662 0.0
H2265 H 0.56899 0.91898 0.48527 0.0
H2266 H 0.5614 0.93791 0.46445 0.0
H2267 H 0.5583 0.90761 0.45462 0.0
H2268 H 0.51502 0.90488 0.43893 0.0
H2269 H 0.51796 0.93514 0.44886 0.0
H2270 H 0.49599 0.91415 0.45887 0.0
H2271 H 0.51212 0.92154 0.55098 0.0
H2272 H 0.51862 0.96416 0.55688 0.0
H2273 H 0.53899 0.96612 0.48619 0.0
C2274 C 0.52395 0.87003 0.47189 0.0
C2275 C 0.51694 0.84925 0.48236 0.0
C2276 C 0.51176 0.85216 0.50614 0.0
C2277 C 0.51304 0.87461 0.51862 0.0
C2278 C 0.51957 0.89447 0.50738 0.0
C2279 C 0.52512 0.89216 0.48447 0.0
C2280 C 0.53148 0.9158 0.47582 0.0
C2281 C 0.55653 0.92033 0.46968 0.0
C2282 C 0.51408 0.91759 0.45435 0.0
C2283 C 0.52918 0.93218 0.49751 0.0
C2284 C 0.52195 0.91961 0.51549 0.0
C2285 C 0.51794 0.93118 0.5369 0.0
C2286 C 0.52161 0.95569 0.54008 0.0
C2287 C 0.52949 0.96917 0.52219 0.0
C2288 C 0.53323 0.95682 0.50054 0.0
H2289 H 0.49308 0.31067 0.6355 0.0
H2290 H 0.53723 0.27327 0.6744 0.0
H2291 H 0.50838 0.26566 0.70247 0.0
H2292 H 0.47279 0.3362 0.69075 0.0
H2293 H 0.44429 0.33532 0.67541 0.0
H2294 H 0.46931 0.33948 0.65957 0.0
H2295 H 0.44953 0.30412 0.62861 0.0
H2296 H 0.42448 0.29998 0.6442 0.0
H2297 H 0.43938 0.27668 0.63873 0.0
H2298 H 0.47304 0.25936 0.72438 0.0
H2299 H 0.43377 0.2541 0.73724 0.0
H2300 H 0.4131 0.29626 0.68479 0.0
C2301 C 0.49676 0.30117 0.65013 0.0
C2302 C 0.51742 0.29265 0.65285 0.0
C2303 C 0.52166 0.28025 0.6722 0.0
C2304 C 0.50536 0.27582 0.68824 0.0
C2305 C 0.48512 0.28441 0.68508 0.0
C2306 C 0.48091 0.29708 0.66668 0.0
C2307 C 0.45764 0.30405 0.66706 0.0
C2308 C 0.46121 0.33032 0.67358 0.0
C2309 C 0.44183 0.29568 0.64324 0.0
C2310 C 0.4485 0.29154 0.68707 0.0
C2311 C 0.46492 0.28096 0.6978 0.0
C2312 C 0.46018 0.26783 0.71629 0.0
C2313 C 0.4379 0.26498 0.72355 0.0
C2314 C 0.42057 0.27484 0.71202 0.0
C2315 C 0.42615 0.28867 0.69393 0.0
H2316 H 0.06738 0.84338 0.68911 0.0
H2317 H 1.00357 0.80047 0.65103 0.0
H2318 H 1.00235 0.82907 0.62239 0.0
H2319 H 0.05648 0.89916 0.68182 0.0
H2320 H 0.08574 0.9108 0.67652 0.0
H2321 H 0.08041 0.88794 0.69482 0.0
H2322 H 0.10095 0.8628 0.66778 0.0
H2323 H 0.10671 0.8857 0.64965 0.0
H2324 H 0.09139 0.85731 0.63619 0.0
H2325 H 1.0092 0.86307 0.59741 0.0
H2326 H 0.02623 0.89516 0.57581 0.0
H2327 H 0.08618 0.91361 0.63014 0.0
C2328 C 0.053 0.84003 0.67494 0.0
C2329 C 0.03539 0.81988 0.67249 0.0
C2330 C 0.01718 0.81591 0.65326 0.0
C2331 C 0.0163 0.83211 0.63704 0.0
C2332 C 0.03401 0.85192 0.64007 0.0
C2333 C 0.05225 0.85558 0.65834 0.0
C2334 C 0.07044 0.8768 0.65658 0.0
C2335 C 0.07342 0.89473 0.67875 0.0
C2336 C 0.09374 0.87025 0.65229 0.0
C2337 C 0.0594 0.88499 0.63483 0.0
C2338 C 0.03833 0.87061 0.6255 0.0
C2339 C 0.02566 0.87443 0.60466 0.0
C2340 C 0.03531 0.89278 0.59261 0.0
C2341 C 0.05746 0.9068 0.6014 0.0
C2342 C 0.06914 0.90322 0.62315 0.0
H2343 H 0.47671 0.84349 0.86906 0.0
H2344 H 0.49711 0.79706 0.81551 0.0
H2345 H 0.45659 0.78715 0.79514 0.0
H2346 H 0.42006 0.81193 0.87294 0.0
H2347 H 0.40585 0.83607 0.87463 0.0
H2348 H 0.43652 0.84044 0.88469 0.0
H2349 H 0.44573 0.87098 0.85563 0.0
H2350 H 0.4148 0.86701 0.84689 0.0
H2351 H 0.43366 0.86347 0.82467 0.0
H2352 H 0.41179 0.77895 0.78244 0.0
H2353 H 0.36939 0.77667 0.77606 0.0
H2354 H 0.37631 0.83105 0.83476 0.0
C2355 C 0.47278 0.83153 0.85279 0.0
C2356 C 0.49086 0.82133 0.84397 0.0
C2357 C 0.48429 0.80557 0.82268 0.0
C2358 C 0.46101 0.79969 0.81098 0.0
C2359 C 0.44376 0.80989 0.82016 0.0
C2360 C 0.4495 0.82601 0.84028 0.0
C2361 C 0.42757 0.83489 0.84592 0.0
C2362 C 0.42219 0.83057 0.87105 0.0
C2363 C 0.43066 0.86063 0.84315 0.0
C2364 C 0.40839 0.82044 0.82671 0.0
C2365 C 0.4183 0.80616 0.81203 0.0
C2366 C 0.40422 0.79048 0.79365 0.0
C2367 C 0.37987 0.78932 0.79008 0.0
C2368 C 0.36887 0.80391 0.80432 0.0
C2369 C 0.38375 0.81989 0.82297 0.0
H2370 H 0.50104 0.16611 0.16765 0.0
H2371 H 0.55249 0.22099 0.14796 0.0
H2372 H 0.5631 0.19335 0.11805 0.0
H2373 H 0.53395 0.12124 0.16128 0.0
H2374 H 0.50988 0.09836 0.14793 0.0
H2375 H 0.50485 0.12211 0.16758 0.0
H2376 H 0.47524 0.13195 0.13424 0.0
H2377 H 0.47932 0.10624 0.11704 0.0
H2378 H 0.48393 0.13293 0.10477 0.0
H2379 H 0.56864 0.1604 0.08992 0.0
H2380 H 0.56841 0.12418 0.06491 0.0
H2381 H 0.51408 0.08822 0.10125 0.0
C2382 C 0.51461 0.17219 0.15711 0.0
C2383 C 0.52609 0.19597 0.16051 0.0
C2384 C 0.54348 0.20308 0.14594 0.0
C2385 C 0.54963 0.18743 0.12877 0.0
C2386 C 0.53822 0.16431 0.12585 0.0
C2387 C 0.52089 0.15657 0.13937 0.0
C2388 C 0.51169 0.1305 0.1322 0.0
C2389 C 0.51533 0.11727 0.15353 0.0
C2390 C 0.48598 0.12516 0.1215 0.0
C2391 C 0.52678 0.12495 0.11301 0.0
C2392 C 0.54175 0.1449 0.1096 0.0
C2393 C 0.55688 0.14472 0.09243 0.0
C2394 C 0.55651 0.12388 0.07812 0.0
C2395 C 0.54118 0.10297 0.08073 0.0
C2396 C 0.52621 0.10366 0.09875 0.0
H2397 H 0.12643 0.30059 0.35804 0.0
H2398 H 0.11779 0.356 0.31638 0.0
H2399 H 0.15425 0.35387 0.30043 0.0
H2400 H 0.19109 0.31875 0.37101 0.0
H2401 H 0.19616 0.28982 0.36865 0.0
H2402 H 0.16936 0.29549 0.37789 0.0
H2403 H 0.14601 0.26497 0.34389 0.0
H2404 H 0.17275 0.25929 0.33456 0.0
H2405 H 0.1516 0.26732 0.31364 0.0
H2406 H 0.19346 0.34766 0.28923 0.0
H2407 H 0.22996 0.33559 0.28179 0.0
H2408 H 0.2152 0.28191 0.32706 0.0
C2409 C 0.13221 0.31243 0.34569 0.0
C2410 C 0.11837 0.3288 0.33901 0.0
C2411 C 0.12729 0.34346 0.32243 0.0
C2412 C 0.14835 0.34238 0.31304 0.0
C2413 C 0.16136 0.3264 0.3199 0.0
C2414 C 0.15365 0.31151 0.33579 0.0
C2415 C 0.17144 0.2959 0.33975 0.0
C2416 C 0.18267 0.30023 0.36588 0.0
C2417 C 0.15974 0.27035 0.33253 0.0
C2418 C 0.18975 0.30395 0.3232 0.0
C2419 C 0.18363 0.32198 0.31241 0.0
C2420 C 0.19811 0.33336 0.29745 0.0
C2421 C 0.21907 0.32634 0.29327 0.0
C2422 C 0.22593 0.30751 0.30329 0.0
C2423 C 0.21068 0.29613 0.31857 0.0
H2424 H 0.94691 0.03392 0.18652 0.0
H2425 H 1.00196 1.00799 0.22457 0.0
H2426 H 0.02321 1.0097 0.18995 0.0
H2427 H 0.94891 1.0054 0.12684 0.0
H2428 H 0.94564 0.02974 0.11148 0.0
H2429 H 0.93353 0.02631 0.13894 0.0
H2430 H 0.9565 0.0671 0.15693 0.0
H2431 H 0.9687 0.07059 0.12951 0.0
H2432 H 0.98761 0.07411 0.15723 0.0
H2433 H 0.03986 0.01501 0.15301 0.0
H2434 H 0.05128 0.02285 0.11448 0.0
H2435 H 0.9866 0.04491 0.09583 0.0
C2436 C 0.96334 0.02844 0.18741 0.0
C2437 C 0.97261 0.02067 0.20864 0.0
C2438 C 0.99438 0.01408 0.20893 0.0
C2439 C 1.00667 0.01495 0.18919 0.0
C2440 C 0.99739 0.02278 0.16885 0.0
C2441 C 0.97632 0.02957 0.1676 0.0
C2442 C 0.97136 0.03818 0.14339 0.0
C2443 C 0.94849 0.02405 0.12933 0.0
C2444 C 0.97101 0.06403 0.14698 0.0
C2445 C 0.9924 0.03414 0.13111 0.0
C2446 C 1.00718 0.0256 0.14662 0.0
C2447 C 0.02824 0.02138 0.1406 0.0
C2448 C 0.0345 0.02578 0.11825 0.0
C2449 C 0.01979 0.03396 0.10119 0.0
C2450 C 0.99826 0.0383 0.10797 0.0
H2451 H 0.29207 0.6548 0.476 0.0
H2452 H 0.27789 0.70474 0.53079 0.0
H2453 H 0.27465 0.73156 0.50176 0.0
H2454 H 0.3227 0.70276 0.44018 0.0
H2455 H 0.31104 0.68444 0.41259 0.0
H2456 H 0.31975 0.67197 0.43874 0.0
H2457 H 0.27877 0.64554 0.43448 0.0
H2458 H 0.26982 0.65792 0.40863 0.0
H2459 H 0.25352 0.65836 0.43364 0.0
H2460 H 0.26206 0.74765 0.467 0.0
H2461 H 0.24328 0.75312 0.42772 0.0
H2462 H 0.266 0.69406 0.39473 0.0
C2463 C 0.28929 0.67177 0.482 0.0
C2464 C 0.2851 0.67759 0.50549 0.0
C2465 C 0.28124 0.69984 0.51283 0.0
C2466 C 0.27955 0.71538 0.49651 0.0
C2467 C 0.28245 0.70868 0.47314 0.0
C2468 C 0.28784 0.68766 0.46591 0.0
C2469 C 0.28684 0.68347 0.43916 0.0
C2470 C 0.31155 0.6858 0.43225 0.0
C2471 C 0.27129 0.65995 0.42839 0.0
C2472 C 0.27637 0.70345 0.43251 0.0
C2473 C 0.27518 0.71844 0.4524 0.0
C2474 C 0.26356 0.73656 0.45118 0.0
C2475 C 0.25265 0.73931 0.42905 0.0
C2476 C 0.25308 0.72366 0.40886 0.0
C2477 C 0.26553 0.70598 0.41032 0.0
H2478 H 0.65213 0.0262 0.68039 0.0
H2479 H 0.67108 0.1004 0.69977 0.0
H2480 H 0.64473 0.10564 0.66508 0.0
H2481 H 0.64723 0.0293 0.61369 0.0
H2482 H 0.62361 1.00438 0.6079 0.0
H2483 H 0.64615 1.00673 0.63254 0.0
H2484 H 0.61457 1.00115 0.66102 0.0
H2485 H 0.59208 0.99941 0.63662 0.0
H2486 H 0.59479 0.02061 0.66234 0.0
H2487 H 0.61079 0.10212 0.63473 0.0
H2488 H 0.57745 0.0906 0.60264 0.0
H2489 H 0.58455 0.01936 0.59973 0.0
C2490 C 0.65122 0.04348 0.67669 0.0
C2491 C 0.6633 0.06294 0.69226 0.0
C2492 C 0.6619 0.08542 0.68752 0.0
C2493 C 0.647 0.08854 0.66805 0.0
C2494 C 0.63452 0.06897 0.65337 0.0
C2495 C 0.63714 0.04693 0.65682 0.0
C2496 C 0.62131 0.02887 0.63859 0.0
C2497 C 0.63542 0.01661 0.62221 0.0
C2498 C 0.60472 0.01151 0.65037 0.0
C2499 C 0.60844 0.04415 0.62546 0.0
C2500 C 0.61614 0.06719 0.63439 0.0
C2501 C 0.60506 0.08426 0.62695 0.0
C2502 C 0.58605 0.07758 0.60915 0.0
C2503 C 0.57912 0.05428 0.5989 0.0
C2504 C 0.59015 0.03735 0.6072 0.0
H2505 H 0.30054 0.39016 0.95032 0.0
H2506 H 0.3171 0.33488 0.98845 0.0
H2507 H 0.31523 0.3106 0.95007 0.0
H2508 H 0.25998 0.35349 0.9013 0.0
H2509 H 0.27007 0.37222 0.87994 0.0
H2510 H 0.27122 0.3839 0.9106 0.0
H2511 H 0.3153 0.40068 0.91052 0.0
H2512 H 0.31367 0.38777 0.88017 0.0
H2513 H 0.33415 0.3814 0.90299 0.0
H2514 H 0.3135 0.29285 0.90734 0.0
H2515 H 0.30937 0.28194 0.86397 0.0
H2516 H 0.29327 0.34829 0.85279 0.0
C2517 C 0.30353 0.37285 0.95071 0.0
C2518 C 0.30896 0.36454 0.97272 0.0
C2519 C 0.31283 0.34176 0.97208 0.0
C2520 C 0.31188 0.32782 0.95027 0.0
C2521 C 0.30692 0.33672 0.92904 0.0
C2522 C 0.30259 0.35864 0.92907 0.0
C2523 C 0.29792 0.36415 0.90371 0.0
C2524 C 0.2733 0.36868 0.89862 0.0
C2525 C 0.31636 0.38472 0.89908 0.0
C2526 C 0.30018 0.34186 0.88935 0.0
C2527 C 0.30559 0.32637 0.90439 0.0
C2528 C 0.30914 0.30483 0.89547 0.0
C2529 C 0.30691 0.29885 0.87067 0.0
C2530 C 0.30112 0.31422 0.85472 0.0
C2531 C 0.29763 0.33605 0.86436 0.0
H2532 H 0.96594 0.05485 0.36222 0.0
H2533 H 0.97348 0.98645 0.33462 0.0
H2534 H 0.992 0.98169 0.37414 0.0
H2535 H 0.02441 0.06787 0.40097 0.0
H2536 H 1.01466 0.08524 0.42407 0.0
H2537 H 1.00235 0.08385 0.39345 0.0
H2538 H 0.96117 0.07086 0.40513 0.0
H2539 H 0.97338 0.07194 0.4357 0.0
H2540 H 0.95486 0.04568 0.42025 0.0
H2541 H 1.00491 0.98201 0.41721 0.0
H2542 H 0.01819 0.98999 0.46007 0.0
H2543 H 1.00875 0.06002 0.46099 0.0
C2544 C 0.97194 0.03909 0.36448 0.0
C2545 C 0.96826 0.02096 0.34517 0.0
C2546 C 0.97638 1.00065 0.34889 0.0
C2547 C 0.98674 0.99771 0.37139 0.0
C2548 C 0.98978 0.01558 0.39008 0.0
C2549 C 0.9834 0.03622 0.38681 0.0
C2550 C 0.98996 0.05294 0.40998 0.0
C2551 C 1.00897 0.07371 0.40693 0.0
C2552 C 0.96855 0.06081 0.41825 0.0
C2553 C 0.99956 0.03787 0.42702 0.0
C2554 C 0.99925 0.01644 0.41492 0.0
C2555 C 1.00606 0.99904 0.42661 0.0
C2556 C 1.01405 1.00378 0.45104 0.0
C2557 C 0.01589 0.02576 0.46395 0.0
C2558 C 1.00801 0.04303 0.45171 0.0
H2559 H 0.25397 0.68098 0.63499 0.0
H2560 H 0.32512 0.67196 0.64047 0.0
H2561 H 0.33465 0.69853 0.67826 0.0
H2562 H 0.26636 0.73907 0.65187 0.0
H2563 H 0.24251 0.7402 0.6689 0.0
H2564 H 0.23992 0.71724 0.64497 0.0
H2565 H 0.23024 0.68705 0.67351 0.0
H2566 H 0.23273 0.70959 0.69796 0.0
H2567 H 0.24998 0.68781 0.70007 0.0
H2568 H 0.33731 0.7285 0.71195 0.0
H2569 H 0.33296 0.75953 0.74214 0.0
H2570 H 0.26041 0.75129 0.71335 0.0
C2571 C 0.2712 0.68383 0.64491 0.0
C2572 C 0.28872 0.67405 0.63582 0.0
C2573 C 0.31146 0.67881 0.64808 0.0
C2574 C 0.31699 0.69395 0.66928 0.0
C2575 C 0.2995 0.70406 0.67749 0.0
C2576 C 0.27702 0.6991 0.66586 0.0
C2577 C 0.26206 0.71381 0.67729 0.0
C2578 C 0.25216 0.72845 0.6597 0.0
C2579 C 0.24258 0.69868 0.68786 0.0
C2580 C 0.27996 0.72857 0.69656 0.0
C2581 C 0.30129 0.72231 0.69653 0.0
C2582 C 0.32067 0.73339 0.71243 0.0
C2583 C 0.31804 0.75098 0.72937 0.0
C2584 C 0.29633 0.75745 0.72987 0.0
C2585 C 0.27715 0.74655 0.71304 0.0
H2586 H 0.68269 0.08998 0.8371 0.0
H2587 H 0.65377 0.01795 0.81181 0.0
H2588 H 0.62527 0.01759 0.84108 0.0
H2589 H 0.67735 0.08794 0.89997 0.0
H2590 H 0.67004 0.11596 0.90337 0.0
H2591 H 0.6888 0.10942 0.88185 0.0
H2592 H 0.66126 0.12047 0.84851 0.0
H2593 H 0.64232 0.12697 0.86975 0.0
H2594 H 0.63092 0.10638 0.84364 0.0
H2595 H 0.59993 0.02632 0.87319 0.0
H2596 H 0.57782 0.04399 0.90226 0.0
H2597 H 0.62444 0.1102 0.90421 0.0
C2598 C 0.6712 0.07382 0.83856 0.0
C2599 C 0.67107 0.05367 0.82342 0.0
C2600 C 0.65438 0.03331 0.82405 0.0
C2601 C 0.63829 0.033 0.84054 0.0
C2602 C 0.63929 0.05327 0.85573 0.0
C2603 C 0.65529 0.07331 0.85463 0.0
C2604 C 0.65194 0.0934 0.87121 0.0
C2605 C 0.6733 0.10218 0.89023 0.0
C2606 C 0.64627 0.11293 0.85744 0.0
C2607 C 0.63126 0.08171 0.88176 0.0
C2608 C 0.62429 0.05852 0.87297 0.0
C2609 C 0.60519 0.04444 0.88013 0.0
C2610 C 0.59277 0.05453 0.89646 0.0
C2611 C 0.59942 0.07839 0.90476 0.0
C2612 C 0.61898 0.09198 0.89763 0.0
H2613 H 0.3102 0.38863 0.13519 0.0
H2614 H 0.30826 0.32485 0.08965 0.0
H2615 H 0.30255 0.30316 0.12344 0.0
H2616 H 0.34 0.37285 0.18916 0.0
H2617 H 0.32324 0.3854 0.20955 0.0
H2618 H 0.32784 0.39718 0.18214 0.0
H2619 H 0.28337 0.39156 0.17079 0.0
H2620 H 0.27868 0.37983 0.1982 0.0
H2621 H 0.26507 0.36341 0.17012 0.0
H2622 H 0.29988 0.28785 0.16173 0.0
H2623 H 0.29591 0.27881 0.20199 0.0
H2624 H 0.29449 0.35027 0.22522 0.0
C2625 C 0.30865 0.37012 0.1324 0.0
C2626 C 0.30992 0.35864 0.10934 0.0
C2627 C 0.30748 0.33431 0.10675 0.0
C2628 C 0.30425 0.32169 0.126 0.0
C2629 C 0.30314 0.3333 0.14823 0.0
C2630 C 0.30497 0.35691 0.15171 0.0
C2631 C 0.30238 0.36444 0.17779 0.0
C2632 C 0.32469 0.38096 0.1904 0.0
C2633 C 0.28111 0.37547 0.17931 0.0
C2634 C 0.29879 0.3414 0.18809 0.0
C2635 C 0.29972 0.32389 0.17055 0.0
C2636 C 0.29841 0.30133 0.17543 0.0
C2637 C 0.29575 0.29628 0.1986 0.0
C2638 C 0.2935 0.31335 0.21711 0.0
C2639 C 0.29537 0.33647 0.2116 0.0
H2640 H 0.24638 0.9439 0.01676 0.0
H2641 H 0.26422 0.99741 0.9715 0.0
H2642 H 0.23028 0.01298 0.98118 0.0
H2643 H 0.1821 0.93698 0.0076 0.0
H2644 H 0.18042 0.93398 0.03858 0.0
H2645 H 0.20275 0.92385 0.02392 0.0
H2646 H 0.23428 0.94906 0.05632 0.0
H2647 H 0.21229 0.95957 0.07098 0.0
H2648 H 0.23558 0.97966 0.06178 0.0
H2649 H 0.20173 0.02763 1.00262 0.0
H2650 H 0.177 0.03883 0.03158 0.0
H2651 H 0.17597 0.97437 0.06124 0.0
C2652 C 0.24277 0.9584 0.00814 0.0
C2653 C 0.25782 0.96952 0.9934 0.0
C2654 C 0.25273 0.98862 0.98277 0.0
C2655 C 0.23352 0.99753 0.98811 0.0
C2656 C 0.21975 0.98686 1.00379 0.0
C2657 C 0.22397 0.96757 0.01345 0.0
C2658 C 0.20889 0.96136 0.03247 0.0
C2659 C 0.19255 0.93764 0.02519 0.0
C2660 C 0.22365 0.96249 0.0568 0.0
C2661 C 0.19584 0.98057 0.03241 0.0
C2662 C 0.20238 0.99507 0.01578 0.0
C2663 C 0.19556 0.01594 0.01497 0.0
C2664 C 0.18147 0.02207 0.03153 0.0
C2665 C 0.17398 1.00708 0.04828 0.0
C2666 C 0.18116 0.98602 0.04852 0.0
H2667 H 0.71202 0.64951 0.04499 0.0
H2668 H 0.69555 0.65901 0.97144 0.0
H2669 H 0.66042 0.62769 0.96743 0.0
H2670 H 0.6891 0.59023 0.04618 0.0
H2671 H 0.67414 0.5939 0.07185 0.0
H2672 H 0.69952 0.61502 0.06847 0.0
H2673 H 0.67604 0.64729 0.07199 0.0
H2674 H 0.65061 0.6263 0.07563 0.0
H2675 H 0.64934 0.64444 0.05236 0.0
H2676 H 0.6291 0.59297 0.97073 0.0
H2677 H 0.59651 0.56611 0.98333 0.0
H2678 H 0.62799 0.58433 0.05687 0.0
C2679 C 0.70113 0.64465 0.02796 0.0
C2680 C 0.70762 0.65506 0.00771 0.0
C2681 C 0.69196 0.64982 0.98643 0.0
C2682 C 0.67183 0.63224 0.98415 0.0
C2683 C 0.66665 0.62122 1.00394 0.0
C2684 C 0.68008 0.62816 0.02583 0.0
C2685 C 0.66809 0.61663 0.04519 0.0
C2686 C 0.68366 0.60314 0.05871 0.0
C2687 C 0.66058 0.63473 0.06231 0.0
C2688 C 0.64696 0.60058 0.0304 0.0
C2689 C 0.64664 0.6035 0.0066 0.0
C2690 C 0.62903 0.59074 0.98933 0.0
C2691 C 0.61074 0.57532 0.9966 0.0
C2692 C 0.61002 0.57272 0.02093 0.0
C2693 C 0.62851 0.5854 0.03806 0.0
H2694 H 0.69917 0.50883 0.32483 0.0
H2695 H 0.64429 0.4926 0.26475 0.0
H2696 H 0.6584 0.4574 0.25165 0.0
H2697 H 0.7427 0.49408 0.29399 0.0
H2698 H 0.75673 0.48266 0.31833 0.0
H2699 H 0.74042 0.50461 0.32432 0.0
H2700 H 0.71523 0.47809 0.34919 0.0
H2701 H 0.73142 0.45596 0.34314 0.0
H2702 H 0.7002 0.44954 0.33589 0.0
H2703 H 0.68108 0.42577 0.24334 0.0
H2704 H 0.7109 0.40194 0.23981 0.0
H2705 H 0.75084 0.44002 0.30492 0.0
C2706 C 0.68965 0.49772 0.30917 0.0
C2707 C 0.67034 0.50346 0.29599 0.0
C2708 C 0.65884 0.48845 0.27539 0.0
C2709 C 0.66679 0.46844 0.26779 0.0
C2710 C 0.68617 0.46365 0.28105 0.0
C2711 C 0.69739 0.47793 0.30133 0.0
C2712 C 0.71887 0.47018 0.31153 0.0
C2713 C 0.74097 0.489 0.31205 0.0
C2714 C 0.71626 0.46301 0.33641 0.0
C2715 C 0.71843 0.44956 0.29349 0.0
C2716 C 0.69927 0.4458 0.2762 0.0
C2717 C 0.69593 0.4284 0.25696 0.0
C2718 C 0.71285 0.41494 0.25511 0.0
C2719 C 0.73282 0.41911 0.27228 0.0
C2720 C 0.73542 0.43632 0.29187 0.0
H2721 H 0.8926 0.44547 0.48843 0.0
H2722 H 0.86194 0.49216 0.53239 0.0
H2723 H 0.90105 0.51366 0.55032 0.0
H2724 H 0.94095 0.44291 0.53053 0.0
H2725 H 0.96134 0.44354 0.50911 0.0
H2726 H 0.93092 0.43128 0.49981 0.0
H2727 H 0.92884 0.45978 0.46784 0.0
H2728 H 0.95967 0.46977 0.47612 0.0
H2729 H 0.94092 0.49011 0.47702 0.0
H2730 H 0.94232 0.53003 0.56274 0.0
H2731 H 0.98406 0.54613 0.56227 0.0
H2732 H 0.98794 0.48859 0.5109 0.0
C2733 C 0.89435 0.46039 0.50164 0.0
C2734 C 0.87481 0.46757 0.50905 0.0
C2735 C 0.87713 0.48693 0.52638 0.0
C2736 C 0.89911 0.49891 0.53689 0.0
C2737 C 0.91822 0.491 0.52982 0.0
C2738 C 0.91613 0.4727 0.51209 0.0
C2739 C 0.93949 0.46902 0.50634 0.0
C2740 C 0.94339 0.44527 0.51179 0.0
C2741 C 0.94236 0.47236 0.48028 0.0
C2742 C 0.955 0.48824 0.52355 0.0
C2743 C 0.94236 0.50039 0.53731 0.0
C2744 C 0.95257 0.52051 0.5525 0.0
C2745 C 0.97616 0.5294 0.55232 0.0
C2746 C 0.9887 0.51798 0.53707 0.0
C2747 C 0.97852 0.49678 0.52341 0.0
H2748 H 0.35274 0.08872 0.34103 0.0
H2749 H 0.40009 0.07856 0.28962 0.0
H2750 H 0.39175 0.11187 0.27117 0.0
H2751 H 0.31021 0.09926 0.30462 0.0
H2752 H 0.30232 0.12186 0.32362 0.0
H2753 H 0.31634 0.1012 0.33657 0.0
H2754 H 0.34887 0.13427 0.35939 0.0
H2755 H 0.33492 0.15523 0.34644 0.0
H2756 H 0.3649 0.15509 0.34327 0.0
H2757 H 0.37179 0.1382 0.2526 0.0
H2758 H 0.34189 0.15781 0.23582 0.0
H2759 H 0.30896 0.1536 0.3 0.0
C2760 C 0.36193 0.09417 0.32646 0.0
C2761 C 0.37715 0.08145 0.31685 0.0
C2762 C 0.3887 0.08851 0.29752 0.0
C2763 C 0.38416 0.10744 0.28697 0.0
C2764 C 0.36855 0.11936 0.29641 0.0
C2765 C 0.35788 0.11331 0.31598 0.0
C2766 C 0.33967 0.12714 0.32069 0.0
C2767 C 0.31574 0.11141 0.32138 0.0
C2768 C 0.34756 0.14394 0.34382 0.0
C2769 C 0.33995 0.13988 0.29912 0.0
C2770 C 0.35729 0.1357 0.28579 0.0
C2771 C 0.35873 0.14244 0.26322 0.0
C2772 C 0.34165 0.15327 0.25373 0.0
C2773 C 0.32361 0.15709 0.2669 0.0
C2774 C 0.32312 0.15116 0.29009 0.0
H2775 H 0.34516 0.16721 0.49907 0.0
H2776 H 0.30661 0.15043 0.55765 0.0
H2777 H 0.33568 0.12873 0.57224 0.0
H2778 H 0.36438 0.1149 0.48795 0.0
H2779 H 0.39324 0.12809 0.48275 0.0
H2780 H 0.36947 0.14233 0.47664 0.0
H2781 H 0.39184 0.17893 0.50467 0.0
H2782 H 0.41587 0.16495 0.51036 0.0
H2783 H 0.4027 0.17629 0.53484 0.0
H2784 H 0.36737 0.10678 0.57884 0.0
H2785 H 0.40426 0.09282 0.58209 0.0
H2786 H 0.42399 0.12645 0.52135 0.0
C2787 C 0.34332 0.15952 0.51534 0.0
C2788 C 0.32409 0.16085 0.52765 0.0
C2789 C 0.32172 0.15011 0.5485 0.0
C2790 C 0.33789 0.13747 0.55666 0.0
C2791 C 0.3565 0.13607 0.54392 0.0
C2792 C 0.35972 0.14737 0.52415 0.0
C2793 C 0.38196 0.14415 0.51457 0.0
C2794 C 0.37694 0.13162 0.48896 0.0
C2795 C 0.39911 0.16746 0.51621 0.0
C2796 C 0.39052 0.12907 0.53186 0.0
C2797 C 0.37533 0.12421 0.54835 0.0
C2798 C 0.37948 0.11056 0.56612 0.0
C2799 C 0.40027 0.10254 0.56771 0.0
C2800 C 0.41658 0.10847 0.55182 0.0
C2801 C 0.41148 0.12149 0.53343 0.0
H2802 H 0.69764 0.61593 0.27886 0.0
H2803 H 0.66211 0.63872 0.33663 0.0
H2804 H 0.68809 0.67735 0.3413 0.0
H2805 H 0.75715 0.65126 0.29709 0.0
H2806 H 0.76018 0.65746 0.26728 0.0
H2807 H 0.74159 0.63096 0.2721 0.0
H2808 H 0.70817 0.64266 0.24535 0.0
H2809 H 0.72704 0.66959 0.2423 0.0
H2810 H 0.69984 0.66958 0.25385 0.0
H2811 H 0.71728 0.71311 0.33987 0.0
H2812 H 0.74418 0.7462 0.32924 0.0
H2813 H 0.75887 0.70293 0.26891 0.0
C2814 C 0.6958 0.62901 0.29283 0.0
C2815 C 0.67866 0.62412 0.30829 0.0
C2816 C 0.67569 0.64192 0.32531 0.0
C2817 C 0.69034 0.66389 0.32801 0.0
C2818 C 0.70728 0.66814 0.31281 0.0
C2819 C 0.70976 0.65143 0.29511 0.0
C2820 C 0.72708 0.66173 0.27904 0.0
C2821 C 0.74769 0.64959 0.27889 0.0
C2822 C 0.7148 0.66083 0.25363 0.0
C2823 C 0.7347 0.68652 0.29121 0.0
C2824 C 0.72302 0.68963 0.31068 0.0
C2825 C 0.72647 0.71091 0.32463 0.0
C2826 C 0.74186 0.72967 0.31837 0.0
C2827 C 0.75377 0.72735 0.29821 0.0
C2828 C 0.75031 0.70528 0.2846 0.0
H2829 H 0.85348 0.45958 0.7854 0.0
H2830 H 0.90122 0.46014 0.84873 0.0
H2831 H 0.88563 0.41856 0.84904 0.0
H2832 H 0.80382 0.4166 0.79127 0.0
H2833 H 0.80127 0.40401 0.76089 0.0
H2834 H 0.8146 0.43408 0.7692 0.0
H2835 H 0.8503 0.42403 0.74917 0.0
H2836 H 0.83662 0.39381 0.74385 0.0
H2837 H 0.86505 0.40305 0.76086 0.0
H2838 H 0.862 0.37924 0.84509 0.0
H2839 H 0.83738 0.34046 0.83199 0.0
H2840 H 0.80932 0.36394 0.76773 0.0
C2841 C 0.86015 0.45083 0.7995 0.0
C2842 C 0.87711 0.46278 0.81812 0.0
C2843 C 0.88724 0.45104 0.83522 0.0
C2844 C 0.87867 0.42758 0.83539 0.0
C2845 C 0.86117 0.4163 0.81736 0.0
C2846 C 0.85273 0.4272 0.79911 0.0
C2847 C 0.83645 0.41024 0.78012 0.0
C2848 C 0.81266 0.41671 0.77511 0.0
C2849 C 0.84778 0.40764 0.75715 0.0
C2850 C 0.83481 0.38879 0.79219 0.0
C2851 C 0.84953 0.39266 0.81347 0.0
C2852 C 0.85068 0.37577 0.8283 0.0
C2853 C 0.83658 0.35406 0.82091 0.0
C2854 C 0.82163 0.34989 0.79915 0.0
C2855 C 0.82063 0.36721 0.78455 0.0
H2856 H 0.06395 0.85984 0.05496 0.0
H2857 H 0.0714 0.87592 0.13173 0.0
H2858 H 0.06661 0.91565 0.12719 0.0
H2859 H 0.09743 0.91836 0.04661 0.0
H2860 H 0.08051 0.91908 0.01856 0.0
H2861 H 0.08441 0.89183 0.0276 0.0
H2862 H 0.03984 0.87734 0.02247 0.0
H2863 H 0.0358 0.90459 0.01363 0.0
H2864 H 0.02228 0.89373 0.03824 0.0
H2865 H 0.06051 0.95481 0.11433 0.0
H2866 H 0.05603 0.98908 0.09526 0.0
H2867 H 0.05258 0.95032 0.02582 0.0
C2868 C 0.06482 0.87176 0.0709 0.0
C2869 C 0.06836 0.86408 0.09396 0.0
C2870 C 0.06923 0.88079 0.11397 0.0
C2871 C 0.0663 0.90362 0.11148 0.0
C2872 C 0.06288 0.9105 0.08873 0.0
C2873 C 0.06253 0.89512 0.06872 0.0
C2874 C 0.05977 0.90755 0.04638 0.0
C2875 C 0.08183 0.90929 0.03404 0.0
C2876 C 0.03812 0.89505 0.02916 0.0
C2877 C 0.05723 0.93182 0.05674 0.0
C2878 C 0.0595 0.93307 0.08132 0.0
C2879 C 0.05879 0.95373 0.09512 0.0
C2880 C 0.05617 0.97343 0.08395 0.0
C2881 C 0.05372 0.97328 0.0588 0.0
C2882 C 0.05406 0.95162 0.04504 0.0
H2883 H 0.93163 0.29497 0.93097 0.0
H2884 H 0.9647 0.24826 0.88995 0.0
H2885 H 0.93417 0.24455 0.8559 0.0
H2886 H 0.87222 0.26136 0.90607 0.0
H2887 H 0.85897 0.28612 0.90625 0.0
H2888 H 0.88347 0.28623 0.92809 0.0
H2889 H 0.90946 0.32404 0.91366 0.0
H2890 H 0.88116 0.32368 0.89819 0.0
H2891 H 0.90516 0.32471 0.88174 0.0
H2892 H 0.90258 0.24894 0.82435 0.0
H2893 H 0.86807 0.25585 0.79999 0.0
H2894 H 0.85379 0.29873 0.86051 0.0
C2895 C 0.93225 0.28382 0.91488 0.0
C2896 C 0.95104 0.27223 0.91306 0.0
C2897 C 0.95085 0.25755 0.89176 0.0
C2898 C 0.93354 0.25536 0.87221 0.0
C2899 C 0.91593 0.26767 0.87405 0.0
C2900 C 0.91473 0.28125 0.89497 0.0
C2901 C 0.89253 0.29092 0.89243 0.0
C2902 C 0.8758 0.28053 0.90921 0.0
C2903 C 0.89753 0.3174 0.89688 0.0
C2904 C 0.88277 0.28219 0.8664 0.0
C2905 C 0.89649 0.26865 0.85626 0.0
C2906 C 0.89157 0.2593 0.83227 0.0
C2907 C 0.87204 0.2636 0.81839 0.0
C2908 C 0.85755 0.27743 0.82819 0.0
C2909 C 0.86338 0.28703 0.85257 0.0
H2910 H 0.55869 0.21842 0.62274 0.0
H2911 H 0.57676 0.24723 0.55899 0.0
H2912 H 0.5732 0.20773 0.53816 0.0
H2913 H 0.59153 0.17254 0.61567 0.0
H2914 H 0.57086 0.15204 0.62793 0.0
H2915 H 0.57436 0.18251 0.63726 0.0
H2916 H 0.53099 0.17885 0.62615 0.0
H2917 H 0.52609 0.14875 0.61459 0.0
H2918 H 0.51779 0.16945 0.59595 0.0
H2919 H 0.57063 0.16338 0.52507 0.0
H2920 H 0.56534 0.12081 0.52007 0.0
H2921 H 0.54743 0.11986 0.59179 0.0
C2922 C 0.56159 0.21647 0.60425 0.0
C2923 C 0.56691 0.23641 0.5923 0.0
C2924 C 0.57139 0.23262 0.56836 0.0
C2925 C 0.56982 0.21004 0.55647 0.0
C2926 C 0.56434 0.19084 0.56872 0.0
C2927 C 0.56035 0.19395 0.59219 0.0
C2928 C 0.55511 0.1706 0.60161 0.0
C2929 C 0.57409 0.16936 0.62182 0.0
C2930 C 0.53104 0.16658 0.61005 0.0
C2931 C 0.55593 0.15361 0.57966 0.0
C2932 C 0.562 0.16573 0.56104 0.0
C2933 C 0.56558 0.15395 0.53956 0.0
C2934 C 0.56266 0.12953 0.53689 0.0
C2935 C 0.55568 0.11638 0.55529 0.0
C2936 C 0.55236 0.12897 0.57705 0.0
H2937 H 0.57542 0.8225 0.41106 0.0
H2938 H 0.57539 0.75609 0.43569 0.0
H2939 H 0.6104 0.75334 0.41571 0.0
H2940 H 0.58934 0.80657 0.35342 0.0
H2941 H 0.60648 0.83473 0.35158 0.0
H2942 H 0.58276 0.83186 0.36915 0.0
H2943 H 0.61062 0.85369 0.40636 0.0
H2944 H 0.63432 0.85703 0.38881 0.0
H2945 H 0.6366 0.84367 0.41568 0.0
H2946 H 0.64529 0.75814 0.39076 0.0
H2947 H 0.67795 0.77183 0.36813 0.0
H2948 H 0.65164 0.83361 0.35889 0.0
C2949 C 0.58292 0.80746 0.41271 0.0
C2950 C 0.57277 0.78959 0.42519 0.0
C2951 C 0.58314 0.77022 0.42667 0.0
C2952 C 0.60278 0.76838 0.41504 0.0
C2953 C 0.6116 0.78597 0.40195 0.0
C2954 C 0.60195 0.8052 0.40098 0.0
C2955 C 0.61387 0.82166 0.38551 0.0
C2956 C 0.59711 0.82382 0.36363 0.0
C2957 C 0.62449 0.84541 0.39996 0.0
C2958 C 0.63237 0.80917 0.37837 0.0
C2959 C 0.63078 0.78845 0.38763 0.0
C2960 C 0.64661 0.77434 0.38351 0.0
C2961 C 0.66498 0.78212 0.3705 0.0
C2962 C 0.66735 0.80385 0.36201 0.0
C2963 C 0.65034 0.81702 0.36537 0.0
H2964 H 0.05196 0.27402 0.43124 0.0
H2965 H 0.04602 0.23603 0.36085 0.0
H2966 H 0.04255 0.19942 0.37888 0.0
H2967 H 0.08451 0.23976 0.46431 0.0
H2968 H 0.06866 0.24201 0.48948 0.0
H2969 H 0.0725 0.26489 0.47105 0.0
H2970 H 0.02781 0.26139 0.46367 0.0
H2971 H 0.02386 0.2387 0.48224 0.0
H2972 H 1.00929 0.23376 0.45213 0.0
H2973 H 0.03808 0.16655 0.40589 0.0
H2974 H 0.02946 0.14163 0.43754 0.0
H2975 H 0.03838 0.20265 0.48903 0.0
C2976 C 0.05031 0.25808 0.41952 0.0
C2977 C 0.04958 0.25789 0.39463 0.0
C2978 C 0.04675 0.23655 0.37998 0.0
C2979 C 0.04488 0.21574 0.39011 0.0
C2980 C 0.04568 0.21663 0.41485 0.0
C2981 C 0.04814 0.23737 0.42923 0.0
C2982 C 0.04667 0.234 0.45497 0.0
C2983 C 0.06945 0.24587 0.47088 0.0
C2984 C 0.02566 0.24246 0.46375 0.0
C2985 C 0.04309 0.20809 0.45307 0.0
C2986 C 0.04269 0.19819 0.42991 0.0
C2987 C 0.03846 0.17423 0.42405 0.0
C2988 C 0.03373 0.1602 0.44215 0.0
C2989 C 0.03306 0.17024 0.46571 0.0
C2990 C 0.03857 0.19447 0.47116 0.0
H2991 H 0.61719 0.27925 0.20048 0.0
H2992 H 0.58849 0.24933 0.25979 0.0
H2993 H 0.62815 0.24922 0.27844 0.0
H2994 H 0.66583 0.25109 0.19761 0.0
H2995 H 0.68657 0.2761 0.19264 0.0
H2996 H 0.65601 0.27361 0.18317 0.0
H2997 H 0.65738 0.31295 0.20783 0.0
H2998 H 0.68799 0.31556 0.21724 0.0
H2999 H 0.66834 0.31745 0.23911 0.0
H3000 H 0.67136 0.25085 0.29062 0.0
H3001 H 0.714 0.25771 0.29731 0.0
H3002 H 0.71767 0.28907 0.23217 0.0
C3003 C 0.61925 0.27272 0.21743 0.0
C3004 C 0.59912 0.26411 0.22847 0.0
C3005 C 0.60313 0.25608 0.25083 0.0
C3006 C 0.6258 0.25586 0.26159 0.0
C3007 C 0.64507 0.26432 0.25036 0.0
C3008 C 0.64216 0.27311 0.22899 0.0
C3009 C 0.66624 0.2824 0.22164 0.0
C3010 C 0.6688 0.27006 0.19731 0.0
C3011 C 0.67022 0.30864 0.22143 0.0
C3012 C 0.68297 0.27656 0.24159 0.0
C3013 C 0.67018 0.2661 0.25791 0.0
C3014 C 0.68136 0.25898 0.27782 0.0
C3015 C 0.70591 0.26267 0.28131 0.0
C3016 C 0.71992 0.27335 0.26512 0.0
C3017 C 0.70792 0.28061 0.24496 0.0
H3018 H 0.53221 0.88467 0.92085 0.0
H3019 H 0.59738 0.9113 0.89532 0.0
H3020 H 0.60272 0.94699 0.92365 0.0
H3021 H 0.51508 0.94091 0.92682 0.0
H3022 H 0.50063 0.93594 0.95266 0.0
H3023 H 0.50216 0.91192 0.93127 0.0
H3024 H 0.52123 0.89296 0.9647 0.0
H3025 H 0.51971 0.91692 0.98615 0.0
H3026 H 0.54724 0.90894 0.98327 0.0
H3027 H 0.60093 0.98056 0.954 0.0
H3028 H 0.59207 0.00983 0.98357 0.0
H3029 H 0.52756 0.96343 0.99072 0.0
C3030 C 0.54774 0.89794 0.92145 0.0
C3031 C 0.56464 0.89485 0.90586 0.0
C3032 C 0.5843 0.91301 0.90693 0.0
C3033 C 0.58746 0.93342 0.92308 0.0
C3034 C 0.57058 0.93601 0.93803 0.0
C3035 C 0.55093 0.91887 0.93726 0.0
C3036 C 0.53489 0.92689 0.95443 0.0
C3037 C 0.51182 0.92904 0.94047 0.0
C3038 C 0.53052 0.91044 0.97326 0.0
C3039 C 0.54909 0.95073 0.96571 0.0
C3040 C 0.56946 0.95562 0.9556 0.0
C3041 C 0.5851 0.97677 0.96208 0.0
C3042 C 0.57991 0.99339 0.97903 0.0
C3043 C 0.55937 0.98911 0.99004 0.0
C3044 C 0.54374 0.96723 0.98323 0.0
H3045 H 0.97409 0.80208 0.74653 0.0
H3046 H 0.95803 0.73001 0.71648 0.0
H3047 H 0.91743 0.7271 0.72492 0.0
H3048 H 0.93753 0.7984 0.79384 0.0
H3049 H 0.92758 0.82465 0.79005 0.0
H3050 H 0.95546 0.82141 0.78185 0.0
H3051 H 0.94328 0.8302 0.73953 0.0
H3052 H 0.91535 0.83346 0.74765 0.0
H3053 H 0.91696 0.81326 0.72235 0.0
H3054 H 0.87687 0.73184 0.73667 0.0
H3055 H 0.84194 0.74346 0.74987 0.0
H3056 H 0.88224 0.81261 0.77306 0.0
C3057 C 0.96212 0.78558 0.74174 0.0
C3058 C 0.97014 0.76613 0.73074 0.0
C3059 C 0.95313 0.74523 0.72474 0.0
C3060 C 0.92972 0.74342 0.72958 0.0
C3061 C 0.92254 0.76271 0.74034 0.0
C3062 C 0.93827 0.78354 0.74619 0.0
C3063 C 0.92566 0.80182 0.75689 0.0
C3064 C 0.93726 0.81218 0.78217 0.0
C3065 C 0.9253 0.82082 0.74065 0.0
C3066 C 0.90074 0.78787 0.75717 0.0
C3067 C 0.89934 0.76541 0.74711 0.0
C3068 C 0.87808 0.74943 0.74456 0.0
C3069 C 0.85803 0.7563 0.7522 0.0
C3070 C 0.8585 0.7791 0.76295 0.0
C3071 C 0.88066 0.795 0.76541 0.0
H3072 H 0.10801 0.08266 0.87433 0.0
H3073 H 0.12847 0.01713 0.86065 0.0
H3074 H 0.11168 1.00442 0.89613 0.0
H3075 H 0.12074 0.08837 0.93806 0.0
H3076 H 0.09647 0.10123 0.94408 0.0
H3077 H 0.10893 0.10483 0.91685 0.0
H3078 H 0.06842 0.08801 0.89258 0.0
H3079 H 0.05598 0.08435 0.91982 0.0
H3080 H 0.05261 0.06003 0.8971 0.0
H3081 H 0.09612 0.99994 0.93557 0.0
H3082 H 0.07975 1.00282 0.97377 0.0
H3083 H 0.0663 0.06985 0.96191 0.0
C3084 C 0.10817 0.06535 0.87836 0.0
C3085 C 0.11897 0.05058 0.86404 0.0
C3086 C 0.11979 0.0285 0.87078 0.0
C3087 C 0.11044 0.02119 0.89111 0.0
C3088 C 0.10022 0.03612 0.90501 0.0
C3089 C 0.09877 0.05768 0.89882 0.0
C3090 C 0.08742 0.0705 0.91744 0.0
C3091 C 0.1044 0.09254 0.92983 0.0
C3092 C 0.06475 0.07605 0.90606 0.0
C3093 C 0.08261 0.05276 0.93483 0.0
C3094 C 0.09054 0.03321 0.92746 0.0
C3095 C 0.0896 0.01508 0.9413 0.0
C3096 C 0.08036 0.01688 0.9631 0.0
C3097 C 0.07158 0.03641 0.97092 0.0
C3098 C 0.07255 0.0545 0.95632 0.0
H3099 H 0.799 0.38024 0.55112 0.0
H3100 H 0.81946 0.45082 0.58601 0.0
H3101 H 0.82618 0.43649 0.62478 0.0
H3102 H 0.77215 0.35363 0.60055 0.0
H3103 H 0.78387 0.32822 0.59442 0.0
H3104 H 0.77622 0.344 0.57051 0.0
H3105 H 0.81801 0.3481 0.55908 0.0
H3106 H 0.82586 0.3326 0.583 0.0
H3107 H 0.8425 0.36101 0.58126 0.0
H3108 H 0.83556 0.4146 0.65841 0.0
H3109 H 0.84778 0.38691 0.68402 0.0
H3110 H 0.82227 0.33118 0.6262 0.0
C3111 C 0.80401 0.3927 0.56701 0.0
C3112 C 0.80836 0.41657 0.56573 0.0
C3113 C 0.8157 0.4324 0.58677 0.0
C3114 C 0.81954 0.42443 0.60882 0.0
C3115 C 0.81588 0.40069 0.60933 0.0
C3116 C 0.80821 0.38508 0.58895 0.0
C3117 C 0.80847 0.36067 0.59355 0.0
C3118 C 0.7837 0.34575 0.58953 0.0
C3119 C 0.82468 0.35 0.57833 0.0
C3120 C 0.81821 0.36504 0.61953 0.0
C3121 C 0.82199 0.38814 0.62849 0.0
C3122 C 0.83236 0.39642 0.65172 0.0
C3123 C 0.83927 0.38065 0.66606 0.0
C3124 C 0.83608 0.35709 0.65684 0.0
C3125 C 0.82505 0.34919 0.6335 0.0
H3126 H 0.42899 1.00278 0.39101 0.0
H3127 H 0.42138 0.07375 0.39297 0.0
H3128 H 0.45661 0.08613 0.42292 0.0
H3129 H 0.44738 1.00483 0.45309 0.0
H3130 H 0.46664 0.98541 0.44755 0.0
H3131 H 0.44112 0.98383 0.42679 0.0
H3132 H 0.46816 0.98862 0.39359 0.0
H3133 H 0.49358 0.99165 0.41509 0.0
H3134 H 0.49126 0.01387 0.39636 0.0
H3135 H 0.49053 0.08994 0.45316 0.0
H3136 H 0.51797 0.08461 0.48689 0.0
H3137 H 0.50468 0.01127 0.46267 0.0
C3138 C 0.43453 0.02084 0.39828 0.0
C3139 C 0.42265 0.03742 0.39059 0.0
C3140 C 0.43023 0.06096 0.39961 0.0
C3141 C 0.45035 0.06809 0.41603 0.0
C3142 C 0.46232 0.05132 0.42263 0.0
C3143 C 0.45446 0.02816 0.41437 0.0
C3144 C 0.46948 0.01336 0.42526 0.0
C3145 C 0.4553 0.99586 0.43901 0.0
C3146 C 0.48132 1.00118 0.40644 0.0
C3147 C 0.48675 0.03181 0.44165 0.0
C3148 C 0.48257 0.05364 0.43951 0.0
C3149 C 0.4943 0.0731 0.45483 0.0
C3150 C 0.50968 0.06993 0.47383 0.0
C3151 C 0.51296 0.04755 0.47688 0.0
C3152 C 0.50256 0.02853 0.46004 0.0
H3153 H 0.78729 0.70009 0.10857 0.0
H3154 H 0.7587 0.75299 0.07644 0.0
H3155 H 0.75763 0.77298 0.11634 0.0
H3156 H 0.75695 0.69789 0.15998 0.0
H3157 H 0.78152 0.69596 0.18075 0.0
H3158 H 0.77997 0.68515 0.14975 0.0
H3159 H 0.82011 0.71124 0.14803 0.0
H3160 H 0.82178 0.72208 0.17908 0.0
H3161 H 0.82464 0.74183 0.15719 0.0
H3162 H 0.75934 0.78763 0.15932 0.0
H3163 H 0.7651 0.79692 0.20279 0.0
H3164 H 0.79316 0.73552 0.20945 0.0
C3165 C 0.78078 0.71586 0.11002 0.0
C3166 C 0.77291 0.7249 0.08917 0.0
C3167 C 0.76489 0.74576 0.09195 0.0
C3168 C 0.76415 0.75724 0.11462 0.0
C3169 C 0.772 0.74806 0.13473 0.0
C3170 C 0.78052 0.72804 0.13279 0.0
C3171 C 0.78896 0.72282 0.1576 0.0
C3172 C 0.77606 0.69904 0.16229 0.0
C3173 C 0.81544 0.72459 0.16065 0.0
C3174 C 0.78267 0.7423 0.17363 0.0
C3175 C 0.7732 0.75676 0.15988 0.0
C3176 C 0.76661 0.77632 0.17023 0.0
C3177 C 0.76977 0.78135 0.19517 0.0
C3178 C 0.77901 0.76676 0.21001 0.0
C3179 C 0.7857 0.74695 0.19885 0.0
H3180 H 0.09755 0.08258 0.7222 0.0
H3181 H 0.13563 0.02747 0.71993 0.0
H3182 H 0.12288 0.01783 0.67656 0.0
H3183 H 0.04867 0.0549 0.67804 0.0
H3184 H 0.04656 0.08056 0.66451 0.0
H3185 H 0.0582 0.08292 0.69544 0.0
H3186 H 0.09572 0.10998 0.68749 0.0
H3187 H 0.08415 0.10759 0.65652 0.0
H3188 H 0.11193 0.10047 0.6647 0.0
H3189 H 0.10409 0.0125 0.63365 0.0
H3190 H 0.08361 0.0138 0.5939 0.0
H3191 H 0.05992 0.07447 0.62153 0.0
C3192 C 0.10309 0.06844 0.71252 0.0
C3193 C 0.11739 0.05552 0.72466 0.0
C3194 C 0.12459 0.03747 0.71119 0.0
C3195 C 0.11741 0.03188 0.68648 0.0
C3196 C 0.1033 0.04479 0.67503 0.0
C3197 C 0.09647 0.06295 0.6875 0.0
C3198 C 0.08193 0.07449 0.67048 0.0
C3199 C 0.05738 0.07313 0.67754 0.0
C3200 C 0.09416 0.09963 0.66976 0.0
C3201 C 0.08121 0.05967 0.64667 0.0
C3202 C 0.09357 0.04255 0.64987 0.0
C3203 C 0.09461 0.026 0.63098 0.0
C3204 C 0.08279 0.02683 0.60835 0.0
C3205 C 0.07021 0.04429 0.60424 0.0
C3206 C 0.06966 0.06111 0.62381 0.0
H3207 H 0.82386 0.38634 0.44611 0.0
H3208 H 0.78026 0.42785 0.41273 0.0
H3209 H 0.76887 0.39782 0.37773 0.0
H3210 H 0.84652 0.36881 0.39468 0.0
H3211 H 0.84722 0.34011 0.40161 0.0
H3212 H 0.84959 0.36329 0.42527 0.0
H3213 H 0.81427 0.33991 0.44181 0.0
H3214 H 0.81176 0.31665 0.41807 0.0
H3215 H 0.78716 0.32952 0.42252 0.0
H3216 H 0.76015 0.36267 0.34884 0.0
H3217 H 0.76179 0.32857 0.32157 0.0
H3218 H 0.81723 0.31394 0.37012 0.0
C3219 C 0.81169 0.38887 0.43149 0.0
C3220 C 0.80255 0.40895 0.43187 0.0
C3221 C 0.7872 0.41232 0.41246 0.0
C3222 C 0.78051 0.39537 0.39279 0.0
C3223 C 0.78968 0.3756 0.39304 0.0
C3224 C 0.80531 0.37245 0.41156 0.0
C3225 C 0.81438 0.35074 0.40622 0.0
C3226 C 0.84101 0.35608 0.40697 0.0
C3227 C 0.80642 0.33317 0.42317 0.0
C3228 C 0.80212 0.34273 0.3813 0.0
C3229 C 0.78713 0.35676 0.37466 0.0
C3230 C 0.77243 0.35203 0.35336 0.0
C3231 C 0.77384 0.33291 0.33787 0.0
C3232 C 0.79103 0.32 0.34305 0.0
C3233 C 0.80468 0.32427 0.36543 0.0
H3234 H 0.4174 0.04057 0.24112 0.0
H3235 H 0.45935 1.00618 0.28664 0.0
H3236 H 0.48302 0.99988 0.25475 0.0
H3237 H 0.4136 1.00626 0.18882 0.0
H3238 H 0.4176 0.02859 0.16969 0.0
H3239 H 0.40616 0.03366 0.19726 0.0
H3240 H 0.43911 0.07001 0.20982 0.0
H3241 H 0.45099 0.06476 0.18235 0.0
H3242 H 0.46902 0.06746 0.21051 0.0
H3243 H 0.49775 0.99174 0.21778 0.0
H3244 H 0.50209 0.9809 0.17575 0.0
H3245 H 0.45297 0.02207 0.15339 0.0
C3246 C 0.43189 0.03217 0.24429 0.0
C3247 C 0.43693 0.02409 0.26617 0.0
C3248 C 0.4557 0.01289 0.27 0.0
C3249 C 0.4693 1.00934 0.2521 0.0
C3250 C 0.46421 0.01763 0.23072 0.0
C3251 C 0.44615 0.02899 0.22667 0.0
C3252 C 0.44366 0.0346 0.20135 0.0
C3253 C 0.41878 0.02518 0.18854 0.0
C3254 C 0.45114 0.06076 0.20098 0.0
C3255 C 0.46109 0.02203 0.19125 0.0
C3256 C 0.47343 0.01328 0.20884 0.0
C3257 C 0.48874 0.99897 0.20385 0.0
C3258 C 0.49099 0.99278 0.18007 0.0
C3259 C 0.47782 1.00078 0.16187 0.0
C3260 C 0.46333 0.01615 0.16736 0.0
H3261 H 0.76818 0.74137 0.95696 0.0
H3262 H 0.79871 0.68263 0.93681 0.0
H3263 H 0.80732 0.69754 0.89988 0.0
H3264 H 0.74184 0.74614 0.89827 0.0
H3265 H 0.74872 0.77721 0.90085 0.0
H3266 H 0.74544 0.76307 0.92711 0.0
H3267 H 0.78652 0.78516 0.9461 0.0
H3268 H 0.78992 0.79938 0.91988 0.0
H3269 H 0.81106 0.78342 0.93027 0.0
H3270 H 0.81137 0.71622 0.86416 0.0
H3271 H 0.81176 0.73908 0.831 0.0
H3272 H 0.7798 0.78803 0.87072 0.0
C3273 C 0.77702 0.73189 0.94495 0.0
C3274 C 0.78252 0.71049 0.95026 0.0
C3275 C 0.79395 0.69879 0.93362 0.0
C3276 C 0.79906 0.70718 0.91235 0.0
C3277 C 0.79307 0.72773 0.90741 0.0
C3278 C 0.78253 0.74023 0.92315 0.0
C3279 C 0.77804 0.76186 0.91253 0.0
C3280 C 0.75195 0.76208 0.90951 0.0
C3281 C 0.79222 0.78376 0.92813 0.0
C3282 C 0.787 0.75891 0.88825 0.0
C3283 C 0.79575 0.73907 0.88612 0.0
C3284 C 0.80474 0.73191 0.86568 0.0
C3285 C 0.80484 0.74516 0.84676 0.0
C3286 C 0.79592 0.76562 0.84783 0.0
C3287 C 0.78697 0.77266 0.86917 0.0
H3288 H 0.83602 0.12769 0.02192 0.0
H3289 H 0.83211 0.10667 0.09198 0.0
H3290 H 0.86781 0.09121 0.08943 0.0
H3291 H 0.84448 0.08025 0.99664 0.0
H3292 H 0.86416 0.09128 0.97649 0.0
H3293 H 0.84456 0.10815 0.98704 0.0
H3294 H 0.87899 0.14223 1.00351 0.0
H3295 H 0.899 0.12563 0.99262 0.0
H3296 H 0.90291 0.13766 0.02355 0.0
H3297 H 0.89466 0.06876 0.07465 0.0
H3298 H 0.91235 0.04234 0.04966 0.0
H3299 H 0.8986 0.07804 0.98896 0.0
C3300 C 0.84357 0.12081 0.03707 0.0
C3301 C 0.8321 0.11815 0.05706 0.0
C3302 C 0.84138 0.10883 0.07668 0.0
C3303 C 0.86158 0.10025 0.07539 0.0
C3304 C 0.87197 0.10173 0.05458 0.0
C3305 C 0.86346 0.11218 0.03589 0.0
C3306 C 0.87426 0.10743 0.01368 0.0
C3307 C 0.85576 0.0961 0.99226 0.0
C3308 C 0.88973 0.12956 0.00802 0.0
C3309 C 0.88848 0.09084 0.02198 0.0
C3310 C 0.88759 0.08831 0.04579 0.0
C3311 C 0.89623 0.07113 0.05627 0.0
C3312 C 0.90584 0.05606 0.04194 0.0
C3313 C 0.90622 0.05823 0.01749 0.0
C3314 C 0.89812 0.07612 0.00762 0.0
H3315 H 0.38558 0.44639 0.07608 0.0
H3316 H 0.38103 0.40121 0.01031 0.0
H3317 H 0.41639 0.42627 1.00021 0.0
H3318 H 0.41318 0.50259 0.06325 0.0
H3319 H 0.43349 0.50832 0.08987 0.0
H3320 H 0.40579 0.48885 0.08891 0.0
H3321 H 0.42985 0.4588 0.1026 0.0
H3322 H 0.45679 0.47859 0.10105 0.0
H3323 H 0.45045 0.45027 0.08416 0.0
H3324 H 0.44467 0.46297 0.99283 0.0
H3325 H 0.47895 0.49527 0.9971 0.0
H3326 H 0.47479 0.50836 0.07261 0.0
C3327 C 0.39199 0.44203 0.05945 0.0
C3328 C 0.37961 0.42297 0.04288 0.0
C3329 C 0.38954 0.41652 0.02242 0.0
C3330 C 0.40955 0.43065 0.01657 0.0
C3331 C 0.42024 0.45043 0.03215 0.0
C3332 C 0.41296 0.45514 0.05404 0.0
C3333 C 0.43089 0.47444 0.06954 0.0
C3334 C 0.42013 0.49469 0.07841 0.0
C3335 C 0.4427 0.46495 0.09058 0.0
C3336 C 0.44788 0.48131 0.05194 0.0
C3337 C 0.44077 0.46772 0.03021 0.0
C3338 C 0.45132 0.47282 0.0101 0.0
C3339 C 0.47065 0.49126 0.01265 0.0
C3340 C 0.48032 0.50325 0.03537 0.0
C3341 C 0.46837 0.49867 0.05521 0.0
H3342 H 0.39161 0.56504 0.75471 0.0
H3343 H 0.45333 0.5948 0.80451 0.0
H3344 H 0.43907 0.63109 0.81134 0.0
H3345 H 0.38088 0.62001 0.73191 0.0
H3346 H 0.34992 0.61041 0.7312 0.0
H3347 H 0.36778 0.58968 0.72547 0.0
H3348 H 0.35167 0.56757 0.75907 0.0
H3349 H 0.33399 0.58823 0.765 0.0
H3350 H 0.35422 0.58282 0.78864 0.0
H3351 H 0.41445 0.6611 0.81798 0.0
H3352 H 0.38215 0.68141 0.82371 0.0
H3353 H 0.33605 0.63017 0.77133 0.0
C3354 C 0.40271 0.57971 0.76596 0.0
C3355 C 0.42393 0.57761 0.7784 0.0
C3356 C 0.43754 0.5966 0.79401 0.0
C3357 C 0.4294 0.61712 0.79818 0.0
C3358 C 0.40768 0.6182 0.78652 0.0
C3359 C 0.39465 0.59998 0.77051 0.0
C3360 C 0.37052 0.60372 0.76298 0.0
C3361 C 0.36708 0.6061 0.7363 0.0
C3362 C 0.35152 0.58445 0.76932 0.0
C3363 C 0.37154 0.62638 0.77798 0.0
C3364 C 0.39322 0.63483 0.79108 0.0
C3365 C 0.39759 0.65482 0.80747 0.0
C3366 C 0.37923 0.66619 0.81066 0.0
C3367 C 0.35685 0.65712 0.79792 0.0
C3368 C 0.35313 0.63733 0.78113 0.0
H3369 H 0.19809 0.634 0.53468 0.0
H3370 H 0.2343 0.59155 0.57589 0.0
H3371 H 0.19801 0.56258 0.57354 0.0
H3372 H 0.14841 0.62481 0.56359 0.0
H3373 H 0.12758 0.62397 0.5378 0.0
H3374 H 0.15687 0.64022 0.53925 0.0
H3375 H 0.16258 0.61638 0.4992 0.0
H3376 H 0.13231 0.60286 0.49792 0.0
H3377 H 0.1536 0.5853 0.49629 0.0
H3378 H 0.15938 0.53897 0.56755 0.0
H3379 H 0.11752 0.52295 0.56246 0.0
H3380 H 0.10481 0.582 0.52825 0.0
C3381 C 0.19818 0.61836 0.54276 0.0
C3382 C 0.21871 0.61421 0.55463 0.0
C3383 C 0.21859 0.59429 0.566 0.0
C3384 C 0.1982 0.57783 0.56475 0.0
C3385 C 0.17825 0.58193 0.55235 0.0
C3386 C 0.17784 0.60172 0.54175 0.0
C3387 C 0.15333 0.60278 0.53197 0.0
C3388 C 0.14612 0.62421 0.54389 0.0
C3389 C 0.15036 0.60182 0.50473 0.0
C3390 C 0.14028 0.58075 0.53926 0.0
C3391 C 0.15514 0.5688 0.55039 0.0
C3392 C 0.14744 0.54796 0.55869 0.0
C3393 C 0.12364 0.53901 0.55561 0.0
C3394 C 0.10802 0.55122 0.5447 0.0
C3395 C 0.11643 0.57224 0.53632 0.0
H3396 H 0.70685 1.00294 0.79279 0.0
H3397 H 0.73819 1.00748 0.72777 0.0
H3398 H 0.74841 0.96932 0.73073 0.0
H3399 H 0.7496 0.98527 0.82241 0.0
H3400 H 0.73231 0.96656 0.83961 0.0
H3401 H 0.72167 0.99022 0.82886 0.0
H3402 H 0.68418 0.96231 0.80739 0.0
H3403 H 0.69452 0.93834 0.81829 0.0
H3404 H 0.68634 0.93791 0.7868 0.0
H3405 H 0.76421 0.93794 0.74688 0.0
H3406 H 0.78255 0.91472 0.77322 0.0
H3407 H 0.73746 0.92819 0.82605 0.0
C3408 C 0.71495 0.99525 0.77869 0.0
C3409 C 0.72176 1.00745 0.76003 0.0
C3410 C 0.73278 0.99778 0.74199 0.0
C3411 C 0.73849 0.97624 0.74354 0.0
C3412 C 0.73252 0.9649 0.76296 0.0
C3413 C 0.72062 0.97397 0.78002 0.0
C3414 C 0.71976 0.96089 0.80122 0.0
C3415 C 0.73154 0.97667 0.82435 0.0
C3416 C 0.6947 0.94915 0.80354 0.0
C3417 C 0.73384 0.94352 0.79397 0.0
C3418 C 0.74101 0.94598 0.77185 0.0
C3419 C 0.75791 0.93503 0.76369 0.0
C3420 C 0.76819 0.9218 0.77882 0.0
C3421 C 0.76128 0.91955 0.80172 0.0
C3422 C 0.74309 0.9296 0.8087 0.0
H3423 H 0.7309 0.89787 0.52517 0.0
H3424 H 0.7801 0.94736 0.57653 0.0
H3425 H 0.75083 0.97124 0.5812 0.0
H3426 H 0.70603 0.93287 0.49545 0.0
H3427 H 0.67619 0.91744 0.49224 0.0
H3428 H 0.69925 0.90217 0.49655 0.0
H3429 H 0.68266 0.88681 0.53355 0.0
H3430 H 0.65933 0.90206 0.52922 0.0
H3431 H 0.67771 0.90691 0.55741 0.0
H3432 H 0.71957 0.99358 0.57312 0.0
H3433 H 0.68779 0.0105 0.55512 0.0
H3434 H 0.65723 0.94482 0.51268 0.0
C3435 C 0.73492 0.91297 0.53845 0.0
C3436 C 0.75759 0.92077 0.5506 0.0
C3437 C 0.76272 0.94115 0.56712 0.0
C3438 C 0.74619 0.95478 0.56996 0.0
C3439 C 0.72423 0.94727 0.55688 0.0
C3440 C 0.71829 0.92642 0.54208 0.0
C3441 C 0.69404 0.92308 0.52885 0.0
C3442 C 0.69391 0.91866 0.50168 0.0
C3443 C 0.67745 0.90355 0.53778 0.0
C3444 C 0.68835 0.94619 0.53655 0.0
C3445 C 0.70568 0.95977 0.55321 0.0
C3446 C 0.70544 0.98281 0.56078 0.0
C3447 C 0.68732 0.99229 0.55059 0.0
C3448 C 0.67 0.97876 0.53291 0.0
C3449 C 0.67008 0.95527 0.52659 0.0
H3450 H 0.41837 0.44091 0.80287 0.0
H3451 H 0.38378 0.4681 0.74473 0.0
H3452 H 0.35213 0.4332 0.7382 0.0
H3453 H 0.40312 0.38149 0.77595 0.0
H3454 H 0.39852 0.36952 0.80324 0.0
H3455 H 0.41881 0.39652 0.8039 0.0
H3456 H 0.39614 0.41783 0.8336 0.0
H3457 H 0.37918 0.38942 0.83416 0.0
H3458 H 0.36455 0.41182 0.82696 0.0
H3459 H 0.32552 0.39315 0.73594 0.0
H3460 H 0.30414 0.35442 0.74221 0.0
H3461 H 0.3509 0.3584 0.80703 0.0
C3462 C 0.40405 0.43946 0.78888 0.0
C3463 C 0.40353 0.4571 0.77417 0.0
C3464 C 0.38449 0.45471 0.75609 0.0
C3465 C 0.36645 0.43495 0.75225 0.0
C3466 C 0.36743 0.41774 0.76688 0.0
C3467 C 0.38545 0.42005 0.78525 0.0
C3468 C 0.38219 0.39895 0.79839 0.0
C3469 C 0.40183 0.38585 0.79516 0.0
C3470 C 0.38047 0.40501 0.82487 0.0
C3471 C 0.35915 0.38517 0.78534 0.0
C3472 C 0.35136 0.3957 0.76657 0.0
C3473 C 0.33132 0.38506 0.75095 0.0
C3474 C 0.31911 0.36318 0.75476 0.0
C3475 C 0.32623 0.35273 0.7747 0.0
C3476 C 0.346 0.36452 0.79056 0.0
H3477 H 0.22118 0.62404 0.23963 0.0
H3478 H 0.19296 0.63116 0.30646 0.0
H3479 H 0.21496 0.67186 0.31516 0.0
H3480 H 0.27649 0.65946 0.25244 0.0
H3481 H 0.27469 0.67219 0.2254 0.0
H3482 H 0.25787 0.64372 0.22643 0.0
H3483 H 0.22106 0.65914 0.21131 0.0
H3484 H 0.23866 0.68762 0.21206 0.0
H3485 H 0.21407 0.68346 0.22849 0.0
H3486 H 0.25097 0.70493 0.32097 0.0
H3487 H 0.28115 0.73879 0.31534 0.0
H3488 H 0.27378 0.71484 0.2403 0.0
C3489 C 0.2195 0.63439 0.25592 0.0
C3490 C 0.20673 0.62479 0.27315 0.0
C3491 C 0.20354 0.63856 0.29366 0.0
C3492 C 0.21593 0.66141 0.2987 0.0
C3493 C 0.23 0.66999 0.2822 0.0
C3494 C 0.23048 0.65747 0.26048 0.0
C3495 C 0.2444 0.67176 0.24455 0.0
C3496 C 0.26451 0.66108 0.23675 0.0
C3497 C 0.22859 0.67575 0.22283 0.0
C3498 C 0.25323 0.6936 0.26157 0.0
C3499 C 0.24547 0.69192 0.28349 0.0
C3500 C 0.25528 0.7078 0.30339 0.0
C3501 C 0.27191 0.72702 0.30014 0.0
C3502 C 0.27719 0.73056 0.27718 0.0
C3503 C 0.2686 0.71322 0.25783 0.0
H3504 H 0.52581 0.71398 0.50842 0.0
H3505 H 0.50183 0.69221 0.43329 0.0
H3506 H 0.50496 0.65245 0.43869 0.0
H3507 H 0.56781 0.67591 0.51408 0.0
H3508 H 0.56203 0.66907 0.54322 0.0
H3509 H 0.55785 0.69621 0.53416 0.0
H3510 H 0.51536 0.6872 0.54314 0.0
H3511 H 0.51949 0.66009 0.55234 0.0
H3512 H 0.4962 0.66061 0.52938 0.0
H3513 H 0.50969 0.61331 0.45195 0.0
H3514 H 0.51673 0.5798 0.4713 0.0
H3515 H 0.5395 0.62421 0.53846 0.0
C3516 C 0.52118 0.7009 0.49304 0.0
C3517 C 0.51335 0.7071 0.47016 0.0
C3518 C 0.50775 0.68877 0.45095 0.0
C3519 C 0.5095 0.66576 0.45388 0.0
C3520 C 0.51709 0.6603 0.47632 0.0
C3521 C 0.52298 0.67738 0.49567 0.0
C3522 C 0.53079 0.66641 0.51782 0.0
C3523 C 0.55613 0.67757 0.52793 0.0
C3524 C 0.5145 0.66873 0.53681 0.0
C3525 C 0.52847 0.64075 0.5079 0.0
C3526 C 0.52032 0.63775 0.48387 0.0
C3527 C 0.51613 0.61573 0.47075 0.0
C3528 C 0.52018 0.59648 0.48208 0.0
C3529 C 0.52873 0.5985 0.50671 0.0
C3530 C 0.53302 0.62143 0.51965 0.0
H3531 H 0.66522 0.33562 0.67118 0.0
H3532 H 0.63047 0.26402 0.65101 0.0
H3533 H 0.66075 0.25197 0.67717 0.0
H3534 H 0.72476 0.3244 0.67247 0.0
H3535 H 0.73689 0.34623 0.6974 0.0
H3536 H 0.71235 0.34954 0.67738 0.0
H3537 H 0.68912 0.35403 0.71298 0.0
H3538 H 0.71356 0.35063 0.73306 0.0
H3539 H 0.68551 0.33188 0.73234 0.0
H3540 H 0.69323 0.24754 0.70816 0.0
H3541 H 0.72825 0.25067 0.73729 0.0
H3542 H 0.74574 0.32442 0.73505 0.0
C3543 C 0.6643 0.3174 0.67194 0.0
C3544 C 0.6455 0.30071 0.65854 0.0
C3545 C 0.64481 0.2771 0.66056 0.0
C3546 C 0.6619 0.27008 0.6756 0.0
C3547 C 0.68013 0.28679 0.68854 0.0
C3548 C 0.68178 0.30997 0.68654 0.0
C3549 C 0.70378 0.32418 0.70194 0.0
C3550 C 0.72044 0.33684 0.68637 0.0
C3551 C 0.69761 0.34119 0.72122 0.0
C3552 C 0.714 0.30546 0.71305 0.0
C3553 C 0.69976 0.28405 0.70532 0.0
C3554 C 0.70464 0.2642 0.71399 0.0
C3555 C 0.72458 0.26614 0.73068 0.0
C3556 C 0.74001 0.28767 0.73837 0.0
C3557 C 0.73455 0.30762 0.72929 0.0
H3558 H 1.00281 0.35411 1.00093 0.0
H3559 H 0.05272 0.36063 0.94999 0.0
H3560 H 0.0599 0.40246 0.95854 0.0
H3561 H 0.97925 0.40364 0.99375 0.0
H3562 H 0.98009 0.41453 0.02467 0.0
H3563 H 0.97826 0.38418 0.016 0.0
H3564 H 0.01521 0.38545 0.04513 0.0
H3565 H 0.01689 0.41574 0.05417 0.0
H3566 H 0.04139 0.40622 0.04331 0.0
H3567 H 0.05929 0.44328 0.96767 0.0
H3568 H 0.0578 0.48245 0.9838 0.0
H3569 H 1.01247 0.45533 0.03401 0.0
C3570 C 0.01581 0.36428 0.99217 0.0
C3571 C 0.02688 0.35315 0.97425 0.0
C3572 C 0.04361 0.36789 0.96344 0.0
C3573 C 0.04784 0.39203 0.96811 0.0
C3574 C 0.03611 0.40233 0.98466 0.0
C3575 C 0.02119 0.38919 0.99745 0.0
C3576 C 1.01261 0.4059 0.01554 0.0
C3577 C 0.98595 0.40181 0.01228 0.0
C3578 C 0.02206 0.40316 0.04106 0.0
C3579 C 0.02365 0.43002 0.0094 0.0
C3580 C 0.03719 0.42702 0.9915 0.0
C3581 C 0.04914 0.44582 0.98207 0.0
C3582 C 0.04813 0.46829 0.9915 0.0
C3583 C 0.03534 0.47277 0.01059 0.0
C3584 C 0.02246 0.45298 0.01943 0.0
H3585 H 0.0221 0.81792 0.17063 0.0
H3586 H 0.98669 0.76442 0.1136 0.0
H3587 H 0.95367 0.75544 0.13572 0.0
H3588 H 1.00261 0.7946 0.2209 0.0
H3589 H 0.99602 0.8206 0.23512 0.0
H3590 H 0.01788 0.82245 0.21533 0.0
H3591 H 0.99598 0.84721 0.19014 0.0
H3592 H 0.97388 0.84524 0.20979 0.0
H3593 H 0.96586 0.83621 0.1783 0.0
H3594 H 0.92481 0.75058 0.16459 0.0
H3595 H 0.90152 0.75175 0.19804 0.0
H3596 H 0.95207 0.81151 0.23439 0.0
C3597 C 1.00744 0.80428 0.16292 0.0
C3598 C 1.00769 0.7912 0.14071 0.0
C3599 C 0.98767 0.77408 0.13089 0.0
C3600 C 0.9685 0.76898 0.14324 0.0
C3601 C 0.9688 0.78196 0.165 0.0
C3602 C 0.9874 0.79969 0.17453 0.0
C3603 C 0.9821 0.81209 0.19735 0.0
C3604 C 1.00077 0.81243 0.21842 0.0
C3605 C 0.97931 0.83665 0.19369 0.0
C3606 C 0.95883 0.79709 0.20019 0.0
C3607 C 0.95122 0.78016 0.18099 0.0
C3608 C 0.93042 0.76396 0.17963 0.0
C3609 C 0.91721 0.76483 0.19866 0.0
C3610 C 0.92493 0.78167 0.21889 0.0
C3611 C 0.94581 0.79828 0.21929 0.0
H3612 H 0.55677 0.32939 0.18124 0.0
H3613 H 0.49237 0.29971 0.1342 0.0
H3614 H 0.49732 0.33323 0.11313 0.0
H3615 H 0.54614 0.38982 0.18339 0.0
H3616 H 0.5765 0.40272 0.18422 0.0
H3617 H 0.56808 0.37649 0.19718 0.0
H3618 H 0.59331 0.35651 0.17074 0.0
H3619 H 0.60168 0.38258 0.1576 0.0
H3620 H 0.58839 0.35596 0.13886 0.0
H3621 H 0.51067 0.36697 0.09335 0.0
H3622 H 0.53002 0.40206 0.079 0.0
H3623 H 0.58281 0.41471 0.14116 0.0
C3624 C 0.54352 0.33019 0.16688 0.0
C3625 C 0.52445 0.31135 0.15936 0.0
C3626 C 0.50751 0.31337 0.14032 0.0
C3627 C 0.51001 0.33252 0.12807 0.0
C3628 C 0.52918 0.35028 0.13526 0.0
C3629 C 0.5454 0.34977 0.15452 0.0
C3630 C 0.56417 0.37179 0.15821 0.0
C3631 C 0.5637 0.38605 0.18218 0.0
C3632 C 0.58831 0.36637 0.15623 0.0
C3633 C 0.55632 0.38389 0.13748 0.0
C3634 C 0.5361 0.37106 0.12453 0.0
C3635 C 0.52623 0.3776 0.1037 0.0
C3636 C 0.53735 0.3979 0.0958 0.0
C3637 C 0.55805 0.41187 0.10888 0.0
C3638 C 0.5673 0.40467 0.13029 0.0
H3639 H 0.9788 0.34979 0.35342 0.0
H3640 H 0.99272 0.28397 0.32624 0.0
H3641 H 0.95122 0.27049 0.30991 0.0
H3642 H 0.92244 0.33073 0.36909 0.0
H3643 H 0.90967 0.35343 0.35833 0.0
H3644 H 0.94058 0.35845 0.36736 0.0
H3645 H 0.94613 0.37152 0.32747 0.0
H3646 H 0.91597 0.364 0.31538 0.0
H3647 H 0.93681 0.35169 0.3003 0.0
H3648 H 0.90675 0.26262 0.29853 0.0
H3649 H 0.86492 0.26227 0.29015 0.0
H3650 H 0.87763 0.33374 0.32147 0.0
C3651 C 0.97341 0.33292 0.34309 0.0
C3652 C 0.98998 0.31838 0.34046 0.0
C3653 C 0.98119 0.29593 0.32792 0.0
C3654 C 0.95734 0.28799 0.31869 0.0
C3655 C 0.94168 0.30264 0.32145 0.0
C3656 C 0.94945 0.32491 0.33286 0.0
C3657 C 0.92864 0.33707 0.33292 0.0
C3658 C 0.92512 0.3454 0.35845 0.0
C3659 C 0.93213 0.35724 0.31809 0.0
C3660 C 0.90798 0.31795 0.32082 0.0
C3661 C 0.91608 0.29826 0.31435 0.0
C3662 C 0.90051 0.27814 0.3034 0.0
C3663 C 0.87645 0.27805 0.29884 0.0
C3664 C 0.86716 0.29781 0.30503 0.0
C3665 C 0.88361 0.31823 0.31609 0.0
H3666 H 0.023 0.70052 0.6303 0.0
H3667 H 0.03075 0.67375 0.69798 0.0
H3668 H 0.03374 0.63628 0.67687 0.0
H3669 H 0.98922 0.64686 0.59498 0.0
H3670 H 1.0036 0.65102 0.56894 0.0
H3671 H 1.00087 0.67564 0.58888 0.0
H3672 H 0.04546 0.69052 0.59379 0.0
H3673 H 0.04826 0.66588 0.57394 0.0
H3674 H 0.06437 0.672 0.60341 0.0
H3675 H 0.03588 0.60171 0.64903 0.0
H3676 H 0.03839 0.57228 0.61687 0.0
H3677 H 0.03109 0.62022 0.56545 0.0
C3678 C 0.02498 0.68665 0.64066 0.0
C3679 C 0.02627 0.69019 0.66604 0.0
C3680 C 0.02944 0.67163 0.67873 0.0
C3681 C 0.03121 0.65021 0.66681 0.0
C3682 C 0.03003 0.64737 0.642 0.0
C3683 C 0.02707 0.66505 0.62896 0.0
C3684 C 0.0272 0.65733 0.6024 0.0
C3685 C 1.00383 0.65774 0.58795 0.0
C3686 C 0.04753 0.67233 0.59283 0.0
C3687 C 0.03065 0.63258 0.60264 0.0
C3688 C 0.03207 0.62735 0.62576 0.0
C3689 C 0.03485 0.6057 0.63089 0.0
C3690 C 0.03622 0.58892 0.61216 0.0
C3691 C 0.03511 0.59344 0.58803 0.0
C3692 C 0.03227 0.61587 0.5834 0.0
H3693 H 0.62039 0.79372 0.84734 0.0
H3694 H 0.62687 0.8654 0.83611 0.0
H3695 H 0.66499 0.86538 0.82256 0.0
H3696 H 0.68307 0.79648 0.86678 0.0
H3697 H 0.68379 0.76885 0.85096 0.0
H3698 H 0.6571 0.77402 0.86093 0.0
H3699 H 0.63615 0.76248 0.81801 0.0
H3700 H 0.66281 0.75736 0.80796 0.0
H3701 H 0.64763 0.77707 0.79432 0.0
H3702 H 0.70421 0.85896 0.8111 0.0
H3703 H 0.73908 0.84599 0.80003 0.0
H3704 H 0.70955 0.77689 0.81406 0.0
C3705 C 0.62993 0.80957 0.84239 0.0
C3706 C 0.61989 0.82992 0.8436 0.0
C3707 C 0.63343 0.84967 0.83597 0.0
C3708 C 0.65546 0.84982 0.82808 0.0
C3709 C 0.66469 0.82987 0.82708 0.0
C3710 C 0.65229 0.80989 0.83377 0.0
C3711 C 0.6664 0.79068 0.82981 0.0
C3712 C 0.67298 0.78198 0.85353 0.0
C3713 C 0.65241 0.7707 0.81144 0.0
C3714 C 0.68851 0.80303 0.82012 0.0
C3715 C 0.68699 0.82576 0.81905 0.0
C3716 C 0.70525 0.84111 0.81172 0.0
C3717 C 0.72534 0.83346 0.80539 0.0
C3718 C 0.72791 0.81023 0.80561 0.0
C3719 C 0.70867 0.79475 0.81312 0.0
H3720 H 0.49283 0.54691 0.71276 0.0
H3721 H 0.44105 0.48331 0.69303 0.0
H3722 H 0.45212 0.48045 0.65243 0.0
H3723 H 0.48172 0.5689 0.65555 0.0
H3724 H 0.51169 0.58247 0.65498 0.0
H3725 H 0.50079 0.57923 0.68307 0.0
H3726 H 0.53338 0.55787 0.69532 0.0
H3727 H 0.54414 0.56084 0.66712 0.0
H3728 H 0.53638 0.53268 0.67644 0.0
H3729 H 0.4713 0.48203 0.61525 0.0
H3730 H 0.4917 0.49147 0.58129 0.0
H3731 H 0.52611 0.55799 0.62024 0.0
C3732 C 0.48392 0.53236 0.69987 0.0
C3733 C 0.46621 0.51504 0.70638 0.0
C3734 C 0.45469 0.49665 0.68872 0.0
C3735 C 0.46095 0.49483 0.66555 0.0
C3736 C 0.47847 0.51191 0.65973 0.0
C3737 C 0.48944 0.53069 0.67611 0.0
C3738 C 0.50661 0.54728 0.66429 0.0
C3739 C 0.49979 0.57087 0.66449 0.0
C3740 C 0.53161 0.54982 0.67652 0.0
C3741 C 0.50356 0.53477 0.63887 0.0
C3742 C 0.48763 0.51415 0.63703 0.0
C3743 C 0.48306 0.49859 0.61622 0.0
C3744 C 0.49447 0.50439 0.5966 0.0
C3745 C 0.50959 0.52611 0.59691 0.0
C3746 C 0.51441 0.54139 0.61879 0.0
H3747 H 0.77663 0.14992 0.97025 0.0
H3748 H 0.79178 0.20472 0.02996 0.0
H3749 H 0.79048 0.23334 1.00231 0.0
H3750 H 0.80803 0.18659 0.92674 0.0
H3751 H 0.78614 0.17228 0.90243 0.0
H3752 H 0.79444 0.15668 0.92627 0.0
H3753 H 0.75139 0.14556 0.93325 0.0
H3754 H 0.74291 0.16131 0.90986 0.0
H3755 H 0.73554 0.16799 0.93934 0.0
H3756 H 0.77767 0.25413 0.97085 0.0
H3757 H 0.75744 0.26664 0.93584 0.0
H3758 H 0.75205 0.19944 0.8958 0.0
C3759 C 0.7806 0.16801 0.97743 0.0
C3760 C 0.78417 0.17509 1.00216 0.0
C3761 C 0.78903 0.19888 0.01101 0.0
C3762 C 0.78847 0.21533 0.99545 0.0
C3763 C 0.78358 0.20772 0.97118 0.0
C3764 C 0.78024 0.18468 0.96211 0.0
C3765 C 0.7723 0.18077 0.93561 0.0
C3766 C 0.79137 0.17368 0.92195 0.0
C3767 C 0.74917 0.16287 0.92918 0.0
C3768 C 0.76935 0.2048 0.93182 0.0
C3769 C 0.77657 0.22019 0.95244 0.0
C3770 C 0.77262 0.24255 0.95435 0.0
C3771 C 0.76085 0.24938 0.93467 0.0
C3772 C 0.75321 0.23381 0.91364 0.0
C3773 C 0.75797 0.21152 0.9119 0.0
H3774 H 0.1688 0.56976 0.17949 0.0
H3775 H 0.13126 0.51145 0.2091 0.0
H3776 H 0.10142 0.50317 0.17404 0.0
H3777 H 0.1224 0.59047 0.15912 0.0
H3778 H 0.1318 0.59845 0.13151 0.0
H3779 H 0.153 0.59759 0.15632 0.0
H3780 H 0.17104 0.56887 0.13067 0.0
H3781 H 0.15038 0.57037 0.10554 0.0
H3782 H 0.15254 0.54281 0.1148 0.0
H3783 H 0.07298 0.50474 0.13979 0.0
H3784 H 0.05027 0.51249 0.10352 0.0
H3785 H 0.10538 0.57066 0.09765 0.0
C3786 C 0.15477 0.55475 0.17809 0.0
C3787 C 0.15208 0.54132 0.19685 0.0
C3788 C 0.13339 0.52201 0.19481 0.0
C3789 C 0.11641 0.51714 0.17502 0.0
C3790 C 0.11867 0.53161 0.1575 0.0
C3791 C 0.13762 0.54967 0.15844 0.0
C3792 C 0.13489 0.56353 0.13802 0.0
C3793 C 0.13555 0.58901 0.1468 0.0
C3794 C 0.1533 0.56124 0.12127 0.0
C3795 C 0.11094 0.55117 0.12642 0.0
C3796 C 0.102 0.53265 0.13771 0.0
C3797 C 0.07986 0.51897 0.13049 0.0
C3798 C 0.06696 0.5237 0.11028 0.0
C3799 C 0.07644 0.54196 0.09804 0.0
C3800 C 0.09823 0.55628 0.1066 0.0
H3801 H 0.79225 0.88603 0.44968 0.0
H3802 H 0.8152 0.83414 0.48875 0.0
H3803 H 0.81664 0.81069 0.45058 0.0
H3804 H 0.75599 0.84669 0.39979 0.0
H3805 H 0.76487 0.86652 0.37898 0.0
H3806 H 0.76399 0.87734 0.4095 0.0
H3807 H 0.80705 0.89855 0.4107 0.0
H3808 H 0.80739 0.88634 0.38046 0.0
H3809 H 0.82852 0.88203 0.40389 0.0
H3810 H 0.81752 0.79361 0.40703 0.0
H3811 H 0.81439 0.78324 0.36346 0.0
H3812 H 0.79022 0.846 0.35273 0.0
C3813 C 0.79721 0.86955 0.45035 0.0
C3814 C 0.80341 0.862 0.4726 0.0
C3815 C 0.81008 0.84037 0.47223 0.0
C3816 C 0.81112 0.82695 0.45051 0.0
C3817 C 0.8054 0.8352 0.42902 0.0
C3818 C 0.79835 0.85594 0.42885 0.0
C3819 C 0.79345 0.8612 0.40346 0.0
C3820 C 0.768 0.86301 0.39765 0.0
C3821 C 0.8101 0.88334 0.3994 0.0
C3822 C 0.79842 0.84005 0.38919 0.0
C3823 C 0.80563 0.82537 0.40427 0.0
C3824 C 0.81173 0.80499 0.39519 0.0
C3825 C 0.81003 0.79928 0.37026 0.0
C3826 C 0.80209 0.8137 0.35431 0.0
C3827 C 0.79631 0.83445 0.36419 0.0
H3828 H 0.4696 0.49302 0.85529 0.0
H3829 H 0.47927 0.56537 0.84625 0.0
H3830 H 0.4999 0.57592 0.88734 0.0
H3831 H 0.45713 0.49961 0.91507 0.0
H3832 H 0.47204 0.47792 0.92481 0.0
H3833 H 0.46002 0.47586 0.89403 0.0
H3834 H 0.50046 0.4745 0.88085 0.0
H3835 H 0.51198 0.47588 0.91164 0.0
H3836 H 0.5253 0.49673 0.89381 0.0
H3837 H 0.51769 0.57879 0.92993 0.0
H3838 H 0.5325 0.57418 0.97073 0.0
H3839 H 0.50984 0.49982 0.95406 0.0
C3840 C 0.47661 0.51104 0.86181 0.0
C3841 C 0.47344 0.52842 0.84732 0.0
C3842 C 0.48217 0.55182 0.85675 0.0
C3843 C 0.4937 0.55794 0.88016 0.0
C3844 C 0.49619 0.54047 0.89416 0.0
C3845 C 0.48798 0.51747 0.88535 0.0
C3846 C 0.49208 0.5022 0.90458 0.0
C3847 C 0.46894 0.48807 0.90994 0.0
C3848 C 0.50845 0.4864 0.89727 0.0
C3849 C 0.50373 0.52022 0.92563 0.0
C3850 C 0.50598 0.54215 0.91906 0.0
C3851 C 0.51613 0.56168 0.93518 0.0
C3852 C 0.5245 0.55884 0.95846 0.0
C3853 C 0.52263 0.53661 0.96585 0.0
C3854 C 0.51181 0.51704 0.9491 0.0
H3855 H 0.76548 0.16376 0.14685 0.0
H3856 H 0.83226 0.18966 0.12416 0.0
H3857 H 0.84221 0.21929 0.15918 0.0
H3858 H 0.7517 0.21293 0.16071 0.0
H3859 H 0.7387 0.20779 0.1874 0.0
H3860 H 0.73907 0.18393 0.16551 0.0
H3861 H 0.76068 0.16421 0.19682 0.0
H3862 H 0.75906 0.18745 0.21908 0.0
H3863 H 0.78678 0.18047 0.215 0.0
H3864 H 0.84094 0.25099 0.18958 0.0
H3865 H 0.83193 0.27879 0.22092 0.0
H3866 H 0.76493 0.2338 0.22144 0.0
C3867 C 0.78274 0.1747 0.15027 0.0
C3868 C 0.79824 0.17463 0.13332 0.0
C3869 C 0.82039 0.1896 0.13741 0.0
C3870 C 0.82614 0.20648 0.15711 0.0
C3871 C 0.8096 0.20768 0.17245 0.0
C3872 C 0.78865 0.19177 0.16982 0.0
C3873 C 0.77284 0.19868 0.18708 0.0
C3874 C 0.74921 0.20097 0.17438 0.0
C3875 C 0.76967 0.1817 0.2056 0.0
C3876 C 0.78734 0.2218 0.19812 0.0
C3877 C 0.80866 0.22647 0.18985 0.0
C3878 C 0.82458 0.24733 0.19675 0.0
C3879 C 0.81917 0.26316 0.21399 0.0
C3880 C 0.79801 0.25782 0.2235 0.0
C3881 C 0.78152 0.23757 0.21476 0.0
H3882 H 0.18621 0.59266 0.34519 0.0
H3883 H 0.15983 0.52108 0.31626 0.0
H3884 H 0.13078 0.518 0.34479 0.0
H3885 H 0.1771 0.58823 0.40799 0.0
H3886 H 0.16845 0.61564 0.41084 0.0
H3887 H 0.18937 0.61056 0.3912 0.0
H3888 H 0.16361 0.62147 0.35626 0.0
H3889 H 0.14238 0.62619 0.37552 0.0
H3890 H 0.13381 0.60606 0.34864 0.0
H3891 H 0.10322 0.52414 0.37451 0.0
H3892 H 0.07787 0.53951 0.40143 0.0
H3893 H 0.12211 0.6076 0.40783 0.0
C3894 C 0.17546 0.57598 0.34588 0.0
C3895 C 0.176 0.55679 0.32966 0.0
C3896 C 0.16004 0.53569 0.32939 0.0
C3897 C 0.14358 0.53384 0.34541 0.0
C3898 C 0.14339 0.55336 0.36113 0.0
C3899 C 0.15893 0.57403 0.36138 0.0
C3900 C 0.15343 0.59333 0.37753 0.0
C3901 C 0.17326 0.60246 0.39812 0.0
C3902 C 0.14798 0.61289 0.36364 0.0
C3903 C 0.13202 0.58044 0.38605 0.0
C3904 C 0.12666 0.55733 0.37679 0.0
C3905 C 0.10722 0.54217 0.38188 0.0
C3906 C 0.0929 0.551 0.39688 0.0
C3907 C 0.098 0.57472 0.40583 0.0
C3908 C 0.11778 0.58951 0.40056 0.0
H3909 H 0.79642 0.88778 0.63191 0.0
H3910 H 0.82655 0.8348 0.59663 0.0
H3911 H 0.8256 0.81471 0.63214 0.0
H3912 H 0.82452 0.88868 0.69264 0.0
H3913 H 0.79913 0.89089 0.70691 0.0
H3914 H 0.80269 0.90236 0.67918 0.0
H3915 H 0.76265 0.87741 0.66048 0.0
H3916 H 0.75906 0.86585 0.68817 0.0
H3917 H 0.75711 0.84665 0.66105 0.0
H3918 H 0.82156 0.79961 0.6704 0.0
H3919 H 0.81396 0.78945 0.70967 0.0
H3920 H 0.7849 0.85038 0.72314 0.0
C3921 C 0.80308 0.87212 0.63186 0.0
C3922 C 0.81189 0.86307 0.61127 0.0
C3923 C 0.81982 0.8422 0.61193 0.0
C3924 C 0.81937 0.8306 0.63214 0.0
C3925 C 0.81052 0.83967 0.6519 0.0
C3926 C 0.80229 0.85982 0.65207 0.0
C3927 C 0.79262 0.86469 0.67567 0.0
C3928 C 0.80552 0.88805 0.68941 0.0
C3929 C 0.7663 0.8636 0.67107 0.0
C3930 C 0.79757 0.84466 0.68885 0.0
C3931 C 0.8077 0.83046 0.67443 0.0
C3932 C 0.81361 0.81061 0.68182 0.0
C3933 C 0.80909 0.80495 0.70437 0.0
C3934 C 0.79868 0.81892 0.71995 0.0
C3935 C 0.79297 0.83929 0.71196 0.0
H3936 H 0.75533 0.45187 0.52652 0.0
H3937 H 0.75494 0.48498 0.46219 0.0
H3938 H 0.71969 0.49881 0.47134 0.0
H3939 H 0.69218 0.43576 0.52788 0.0
H3940 H 0.69554 0.4433 0.55975 0.0
H3941 H 0.71808 0.43268 0.54596 0.0
H3942 H 0.74827 0.46915 0.56587 0.0
H3943 H 0.72596 0.48002 0.57964 0.0
H3944 H 0.74315 0.49726 0.56115 0.0
H3945 H 0.68869 0.51332 0.49033 0.0
H3946 H 0.66442 0.52833 0.51821 0.0
H3947 H 0.68501 0.48458 0.56937 0.0
C3948 C 0.74729 0.46124 0.51384 0.0
C3949 C 0.75733 0.46707 0.49346 0.0
C3950 C 0.74712 0.48024 0.47779 0.0
C3951 C 0.72714 0.48802 0.48277 0.0
C3952 C 0.71794 0.4824 0.50341 0.0
C3953 C 0.72773 0.46935 0.5187 0.0
C3954 C 0.71672 0.46838 0.5413 0.0
C3955 C 0.70491 0.44355 0.54385 0.0
C3956 C 0.73459 0.47936 0.56326 0.0
C3957 C 0.69922 0.48302 0.5364 0.0
C3958 C 0.70009 0.49092 0.51447 0.0
C3959 C 0.68736 0.50683 0.50729 0.0
C3960 C 0.67362 0.51518 0.5232 0.0
C3961 C 0.6729 0.50749 0.54589 0.0
C3962 C 0.68535 0.49078 0.55218 0.0
H3963 H 0.18135 0.15646 0.48952 0.0
H3964 H 0.23183 0.13511 0.53861 0.0
H3965 H 0.20104 0.1049 0.54884 0.0
H3966 H 0.13434 0.14834 0.52335 0.0
H3967 H 0.11188 0.13626 0.49881 0.0
H3968 H 0.13789 0.15564 0.49383 0.0
H3969 H 0.14643 0.12467 0.4618 0.0
H3970 H 0.11934 0.10661 0.46614 0.0
H3971 H 0.14564 0.09586 0.46929 0.0
H3972 H 0.16481 0.07958 0.55685 0.0
H3973 H 0.12552 0.05695 0.55847 0.0
H3974 H 0.09766 0.09174 0.50233 0.0
C3975 C 0.18581 0.14521 0.5022 0.0
C3976 C 0.20898 0.14808 0.51327 0.0
C3977 C 0.21424 0.13308 0.52979 0.0
C3978 C 0.19685 0.11589 0.53578 0.0
C3979 C 0.17417 0.11359 0.52488 0.0
C3980 C 0.16857 0.12741 0.50803 0.0
C3981 C 0.14262 0.12092 0.49909 0.0
C3982 C 0.131 0.14152 0.50408 0.0
C3983 C 0.13829 0.11149 0.47248 0.0
C3984 C 0.13459 0.10192 0.51409 0.0
C3985 C 0.15315 0.09808 0.52885 0.0
C3986 C 0.15019 0.08206 0.54499 0.0
C3987 C 0.12777 0.06924 0.54576 0.0
C3988 C 0.10848 0.07209 0.5302 0.0
C3989 C 0.11203 0.08886 0.51426 0.0
H3990 H 0.19511 1.00692 0.82563 0.0
H3991 H 0.14772 0.9986 0.76012 0.0
H3992 H 0.16157 0.9636 0.74583 0.0
H3993 H 0.24187 0.99347 0.80053 0.0
H3994 H 0.25163 0.97839 0.82417 0.0
H3995 H 0.23558 1.00048 0.83039 0.0
H3996 H 0.20536 0.9714 0.84789 0.0
H3997 H 0.22133 0.94912 0.84158 0.0
H3998 H 0.19095 0.94458 0.83005 0.0
H3999 H 0.18431 0.93251 0.73681 0.0
H4000 H 0.21416 0.90874 0.73372 0.0
H4001 H 0.2462 0.9376 0.80522 0.0
C4002 C 0.18719 0.9975 0.80846 0.0
C4003 C 0.17016 1.00546 0.79405 0.0
C4004 C 0.16049 0.99267 0.77163 0.0
C4005 C 0.16831 0.9728 0.76337 0.0
C4006 C 0.18554 0.96582 0.77787 0.0
C4007 C 0.19471 0.97774 0.80004 0.0
C4008 C 0.21426 0.9679 0.81153 0.0
C4009 C 0.23717 0.98615 0.81695 0.0
C4010 C 0.20757 0.95763 0.8341 0.0
C4011 C 0.21547 0.94917 0.7919 0.0
C4012 C 0.1985 0.94793 0.77277 0.0
C4013 C 0.19735 0.93307 0.75184 0.0
C4014 C 0.2143 0.91965 0.75022 0.0
C4015 C 0.23211 0.9213 0.76936 0.0
C4016 C 0.23238 0.93579 0.7906 0.0
H4017 H 0.3778 0.97564 0.0369 0.0
H4018 H 0.37697 0.93516 0.969 0.0
H4019 H 0.41835 0.95348 0.96828 0.0
H4020 H 0.41366 0.02615 0.03428 0.0
H4021 H 0.4312 0.02904 0.06277 0.0
H4022 H 0.40191 0.01233 0.05833 0.0
H4023 H 0.41659 0.97646 0.07102 0.0
H4024 H 0.44574 0.99373 0.07627 0.0
H4025 H 0.4393 0.96687 0.05661 0.0
H4026 H 0.45549 0.9816 0.97161 0.0
H4027 H 0.49268 1.00933 0.98413 0.0
H4028 H 0.47173 0.02606 0.05335 0.0
C4029 C 0.38653 0.97085 0.02194 0.0
C4030 C 0.37448 0.95583 1.00196 0.0
C4031 C 0.38615 0.94805 0.9835 0.0
C4032 C 0.40948 0.95801 0.98317 0.0
C4033 C 0.42068 0.97408 1.00243 0.0
C4034 C 0.41008 0.97937 0.02214 0.0
C4035 C 0.42683 0.99531 0.04149 0.0
C4036 C 0.41784 0.01699 0.04965 0.0
C4037 C 0.43245 0.98231 0.06259 0.0
C4038 C 0.44745 1.00073 0.02816 0.0
C4039 C 0.44354 0.98802 1.00576 0.0
C4040 C 0.45919 0.99112 0.98933 0.0
C4041 C 0.47992 1.00711 0.99637 0.0
C4042 C 0.48438 0.01972 0.01939 0.0
C4043 C 0.46822 0.01656 0.03559 0.0
H4044 H 0.87446 0.57801 0.79038 0.0
H4045 H 0.85068 0.58225 0.85986 0.0
H4046 H 0.83387 0.61574 0.8507 0.0
H4047 H 0.88601 0.63994 0.78302 0.0
H4048 H 0.87409 0.63369 0.75198 0.0
H4049 H 0.88835 0.61347 0.76588 0.0
H4050 H 0.85158 0.58113 0.75259 0.0
H4051 H 0.83709 0.60107 0.73875 0.0
H4052 H 0.82399 0.58533 0.7609 0.0
H4053 H 0.8155 0.64437 0.83204 0.0
H4054 H 0.7947 0.66507 0.80457 0.0
H4055 H 0.83019 0.64095 0.74711 0.0
C4056 C 0.86656 0.58662 0.80406 0.0
C4057 C 0.86419 0.57822 0.82599 0.0
C4058 C 0.85279 0.58893 0.84308 0.0
C4059 C 0.84339 0.60791 0.83809 0.0
C4060 C 0.84556 0.61549 0.81595 0.0
C4061 C 0.85676 0.60507 0.79917 0.0
C4062 C 0.85352 0.61376 0.77543 0.0
C4063 C 0.87689 0.62596 0.7687 0.0
C4064 C 0.84079 0.59416 0.75579 0.0
C4065 C 0.83838 0.6305 0.78132 0.0
C4066 C 0.83424 0.63152 0.80483 0.0
C4067 C 0.81891 0.64411 0.81373 0.0
C4068 C 0.80718 0.6557 0.79802 0.0
C4069 C 0.81087 0.65435 0.77378 0.0
C4070 C 0.82699 0.64204 0.76552 0.0
H4071 H 0.8301 0.6439 0.99401 0.0
H4072 H 0.83395 0.68633 0.06162 0.0
H4073 H 0.86912 0.6726 0.07667 0.0
H4074 H 0.84341 0.5961 0.01655 0.0
H4075 H 0.86016 0.58857 0.99342 0.0
H4076 H 0.83765 0.60425 0.98725 0.0
H4077 H 0.86747 0.63642 0.97323 0.0
H4078 H 0.89016 0.62081 0.97945 0.0
H4079 H 0.89358 0.65026 0.99286 0.0
H4080 H 0.90046 0.64984 0.08577 0.0
H4081 H 0.92525 0.62083 0.08788 0.0
H4082 H 0.90095 0.59423 0.01393 0.0
C4083 C 0.83865 0.65081 0.01182 0.0
C4084 C 0.82941 0.66636 0.02662 0.0
C4085 C 0.84098 0.67476 0.04986 0.0
C4086 C 0.86087 0.66695 0.05854 0.0
C4087 C 0.8691 0.65106 0.04361 0.0
C4088 C 0.85842 0.64331 0.02063 0.0
C4089 C 0.86943 0.62507 0.00858 0.0
C4090 C 0.8516 0.60216 1.00103 0.0
C4091 C 0.88084 0.63366 0.98727 0.0
C4092 C 0.88751 0.62304 0.02866 0.0
C4093 C 0.88726 0.63833 0.04867 0.0
C4094 C 0.90112 0.63819 0.07006 0.0
C4095 C 0.91513 0.62173 0.07112 0.0
C4096 C 0.91516 0.60575 0.05094 0.0
C4097 C 0.90159 0.60674 0.02936 0.0
H4098 H 0.19083 0.11927 0.77608 0.0
H4099 H 0.16969 0.13937 0.84421 0.0
H4100 H 0.19857 0.17628 0.84863 0.0
H4101 H 0.25132 0.14715 0.78436 0.0
H4102 H 0.25067 0.15825 0.75609 0.0
H4103 H 0.23053 0.13221 0.7594 0.0
H4104 H 0.196 0.15025 0.74481 0.0
H4105 H 0.21605 0.17634 0.7414 0.0
H4106 H 0.19322 0.17758 0.75973 0.0
H4107 H 0.22976 0.21062 0.8459 0.0
H4108 H 0.25613 0.24348 0.83373 0.0
H4109 H 0.25429 0.20433 0.76464 0.0
C4110 C 0.19269 0.13135 0.79211 0.0
C4111 C 0.17921 0.12587 0.81071 0.0
C4112 C 0.18083 0.14267 0.83055 0.0
C4113 C 0.19706 0.16375 0.83305 0.0
C4114 C 0.21063 0.16839 0.81482 0.0
C4115 C 0.20801 0.15306 0.7943 0.0
C4116 C 0.22218 0.1639 0.77594 0.0
C4117 C 0.23973 0.14951 0.76853 0.0
C4118 C 0.2059 0.1672 0.75418 0.0
C4119 C 0.23434 0.18712 0.78995 0.0
C4120 C 0.22728 0.18922 0.81232 0.0
C4121 C 0.23531 0.2092 0.82841 0.0
C4122 C 0.25035 0.22779 0.82131 0.0
C4123 C 0.25745 0.2265 0.79831 0.0
C4124 C 0.2496 0.20567 0.78252 0.0
H4125 H 0.38518 0.94648 0.33448 0.0
H4126 H 0.34016 0.97705 0.28824 0.0
H4127 H 0.31489 0.93864 0.27461 0.0
H4128 H 0.38478 0.89857 0.29409 0.0
H4129 H 0.38485 0.87853 0.31567 0.0
H4130 H 0.39756 0.90865 0.3245 0.0
H4131 H 0.37021 0.9112 0.35752 0.0
H4132 H 0.35949 0.88067 0.3495 0.0
H4133 H 0.33941 0.89984 0.34959 0.0
H4134 H 0.29561 0.89726 0.26548 0.0
H4135 H 0.28291 0.85467 0.26187 0.0
H4136 H 0.34319 0.85165 0.31096 0.0
C4137 C 0.36965 0.94497 0.32194 0.0
C4138 C 0.36379 0.96432 0.31297 0.0
C4139 C 0.34408 0.96215 0.29589 0.0
C4140 C 0.32986 0.94053 0.28794 0.0
C4141 C 0.33619 0.92157 0.29696 0.0
C4142 C 0.35555 0.92357 0.31361 0.0
C4143 C 0.35941 0.90045 0.31929 0.0
C4144 C 0.38305 0.89632 0.31299 0.0
C4145 C 0.35696 0.89791 0.34554 0.0
C4146 C 0.33949 0.88512 0.30279 0.0
C4147 C 0.32609 0.89761 0.29032 0.0
C4148 C 0.30602 0.88718 0.27491 0.0
C4149 C 0.29907 0.86321 0.2728 0.0
C4150 C 0.31261 0.85044 0.28561 0.0
C4151 C 0.3332 0.86131 0.30037 0.0
H4152 H 0.56774 0.36089 0.55871 0.0
H4153 H 0.56899 0.3748 0.63505 0.0
H4154 H 0.56353 0.4144 0.63063 0.0
H4155 H 0.60089 0.42093 0.55408 0.0
H4156 H 0.58602 0.42163 0.52494 0.0
H4157 H 0.59031 0.39454 0.53408 0.0
H4158 H 0.54609 0.37809 0.52489 0.0
H4159 H 0.54166 0.40516 0.51593 0.0
H4160 H 0.52628 0.39299 0.53885 0.0
H4161 H 0.55692 0.45388 0.6175 0.0
H4162 H 0.55172 0.488 0.59792 0.0
H4163 H 0.55505 0.45032 0.5295 0.0
C4164 C 0.56721 0.37234 0.57461 0.0
C4165 C 0.56918 0.36413 0.5975 0.0
C4166 C 0.56814 0.38018 0.61746 0.0
C4167 C 0.5648 0.40292 0.61502 0.0
C4168 C 0.56293 0.41035 0.5924 0.0
C4169 C 0.56454 0.39558 0.57253 0.0
C4170 C 0.5631 0.40835 0.55038 0.0
C4171 C 0.58645 0.41153 0.54025 0.0
C4172 C 0.54308 0.39537 0.53139 0.0
C4173 C 0.55877 0.43194 0.5605 0.0
C4174 C 0.55928 0.43286 0.58494 0.0
C4175 C 0.55664 0.4531 0.5984 0.0
C4176 C 0.55373 0.47268 0.58701 0.0
C4177 C 0.55291 0.47257 0.56194 0.0
C4178 C 0.55534 0.45145 0.54862 0.0
H4179 H 0.42512 0.77908 0.43163 0.0
H4180 H 0.47085 0.75664 0.38379 0.0
H4181 H 0.44177 0.75637 0.34939 0.0
H4182 H 0.37291 0.73865 0.39197 0.0
H4183 H 0.35304 0.75674 0.39965 0.0
H4184 H 0.3774 0.75532 0.421 0.0
H4185 H 0.39126 0.79994 0.42488 0.0
H4186 H 0.36651 0.80087 0.40387 0.0
H4187 H 0.39535 0.8134 0.39831 0.0
H4188 H 0.41119 0.76499 0.31993 0.0
H4189 H 0.37571 0.76992 0.29682 0.0
H4190 H 0.34483 0.7804 0.36167 0.0
C4191 C 0.42891 0.77407 0.4139 0.0
C4192 C 0.45122 0.76963 0.41034 0.0
C4193 C 0.45471 0.76169 0.38695 0.0
C4194 C 0.43816 0.76129 0.36722 0.0
C4195 C 0.41731 0.76769 0.37101 0.0
C4196 C 0.41192 0.77262 0.39373 0.0
C4197 C 0.38667 0.77565 0.39225 0.0
C4198 C 0.37161 0.7554 0.4018 0.0
C4199 C 0.38488 0.79886 0.40564 0.0
C4200 C 0.37997 0.77446 0.36532 0.0
C4201 C 0.39805 0.76967 0.3536 0.0
C4202 C 0.39675 0.76834 0.32894 0.0
C4203 C 0.37642 0.77159 0.3158 0.0
C4204 C 0.3572 0.77633 0.32685 0.0
C4205 C 0.35906 0.77729 0.35223 0.0
H4206 H 0.04744 0.72577 0.06476 0.0
H4207 H 0.09937 0.73628 0.12692 0.0
H4208 H 0.10369 0.69653 0.11827 0.0
H4209 H 0.01975 0.66777 0.07308 0.0
H4210 H 1.01425 0.65583 0.04202 0.0
H4211 H 0.01538 0.68579 0.0504 0.0
H4212 H 0.04717 0.69809 0.02426 0.0
H4213 H 0.0457 0.668 0.0145 0.0
H4214 H 0.07311 0.68649 0.02731 0.0
H4215 H 0.10236 0.6539 0.10388 0.0
H4216 H 0.09355 0.61293 0.08568 0.0
H4217 H 0.04051 0.62739 0.03444 0.0
C4218 C 0.05954 0.72022 0.07682 0.0
C4219 C 0.07254 0.73554 0.09711 0.0
C4220 C 0.08866 0.72593 0.11142 0.0
C4221 C 0.09141 0.70294 0.10664 0.0
C4222 C 0.07791 0.6885 0.08724 0.0
C4223 C 0.06213 0.69669 0.07253 0.0
C4224 C 0.04928 0.67686 0.05323 0.0
C4225 C 0.02311 0.67122 0.05483 0.0
C4226 C 0.05409 0.68271 0.02834 0.0
C4227 C 0.06005 0.65656 0.05967 0.0
C4228 C 0.07682 0.66379 0.07922 0.0
C4229 C 0.08915 0.64821 0.0886 0.0
C4230 C 0.08404 0.62481 0.07811 0.0
C4231 C 0.06626 0.61656 0.05863 0.0
C4232 C 0.0542 0.63293 0.04933 0.0
H4233 H 0.07513 0.31908 0.90799 0.0
H4234 H 0.07508 0.25248 0.93202 0.0
H4235 H 0.11082 0.2504 0.913 0.0
H4236 H 0.09116 0.30473 0.85106 0.0
H4237 H 0.10836 0.33309 0.85017 0.0
H4238 H 0.08403 0.32966 0.86692 0.0
H4239 H 0.11084 0.3509 0.90503 0.0
H4240 H 0.13515 0.3548 0.8883 0.0
H4241 H 0.13668 0.34088 0.91486 0.0
H4242 H 0.14605 0.25565 0.88862 0.0
H4243 H 0.17905 0.26963 0.86653 0.0
H4244 H 0.15344 0.33197 0.85835 0.0
C4245 C 0.08285 0.30418 0.9097 0.0
C4246 C 0.0725 0.28601 0.9217 0.0
C4247 C 0.08302 0.26678 0.92334 0.0
C4248 C 0.10308 0.26535 0.91227 0.0
C4249 C 0.11219 0.28327 0.89967 0.0
C4250 C 0.10241 0.30241 0.89865 0.0
C4251 C 0.11481 0.31932 0.88388 0.0
C4252 C 0.09862 0.32183 0.8617 0.0
C4253 C 0.12498 0.34286 0.89892 0.0
C4254 C 0.13365 0.30711 0.87708 0.0
C4255 C 0.13181 0.28617 0.88594 0.0
C4256 C 0.14762 0.27206 0.88175 0.0
C4257 C 0.16617 0.28001 0.86905 0.0
C4258 C 0.1688 0.30193 0.86095 0.0
C4259 C 0.15192 0.31522 0.86452 0.0
H4260 H 0.53112 0.73991 0.88307 0.0
H4261 H 0.57989 0.78634 0.93793 0.0
H4262 H 0.57961 0.7551 0.96277 0.0
H4263 H 0.49645 0.71133 0.92101 0.0
H4264 H 0.49153 0.68292 0.90449 0.0
H4265 H 0.49771 0.70799 0.88936 0.0
H4266 H 0.53234 0.69348 0.87328 0.0
H4267 H 0.52634 0.66839 0.88858 0.0
H4268 H 0.55481 0.68706 0.89388 0.0
H4269 H 0.57164 0.7201 0.98374 0.0
H4270 H 0.55421 0.68452 0.99971 0.0
H4271 H 0.51086 0.66013 0.93201 0.0
C4272 C 0.54218 0.74328 0.90002 0.0
C4273 C 0.55566 0.76565 0.90836 0.0
C4274 C 0.56946 0.76942 0.93097 0.0
C4275 C 0.56953 0.75171 0.94528 0.0
C4276 C 0.55584 0.73002 0.93684 0.0
C4277 C 0.54245 0.72563 0.91472 0.0
C4278 C 0.52807 0.70111 0.91081 0.0
C4279 C 0.5019 0.70085 0.90616 0.0
C4280 C 0.53585 0.68666 0.89042 0.0
C4281 C 0.53452 0.69304 0.93461 0.0
C4282 C 0.55105 0.70976 0.94914 0.0
C4283 C 0.5589 0.70672 0.9724 0.0
C4284 C 0.54904 0.68639 0.98131 0.0
C4285 C 0.53122 0.66953 0.96714 0.0
C4286 C 0.52451 0.6727 0.94324 0.0
H4287 H 0.10913 0.78827 0.75755 0.0
H4288 H 0.10102 0.74085 0.69249 0.0
H4289 H 0.14108 0.73709 0.70123 0.0
H4290 H 0.16701 0.81836 0.75125 0.0
H4291 H 0.18075 0.82176 0.78165 0.0
H4292 H 0.15032 0.82072 0.77574 0.0
H4293 H 0.13758 0.787 0.79778 0.0
H4294 H 0.16795 0.78856 0.80755 0.0
H4295 H 0.14978 0.76173 0.79305 0.0
H4296 H 0.1834 0.73706 0.71658 0.0
H4297 H 0.2244 0.74484 0.73531 0.0
H4298 H 0.20962 0.79591 0.7881 0.0
C4299 C 0.11547 0.77754 0.74475 0.0
C4300 C 0.10042 0.76546 0.72369 0.0
C4301 C 0.11092 0.75087 0.70858 0.0
C4302 C 0.13419 0.7484 0.71341 0.0
C4303 C 0.1483 0.76081 0.7336 0.0
C4304 C 0.13953 0.77544 0.74899 0.0
C4305 C 0.15939 0.78735 0.76901 0.0
C4306 C 0.16469 0.81361 0.76933 0.0
C4307 C 0.15331 0.78077 0.7933 0.0
C4308 C 0.1803 0.77748 0.76203 0.0
C4309 C 0.17323 0.76169 0.74182 0.0
C4310 C 0.18901 0.74964 0.7323 0.0
C4311 C 0.21249 0.75412 0.74319 0.0
C4312 C 0.22087 0.7711 0.76326 0.0
C4313 C 0.20417 0.78286 0.77274 0.0
H4314 H 0.06621 0.41813 0.39122 0.0
H4315 H 0.05378 0.36165 0.43383 0.0
H4316 H 0.04878 0.3885 0.46747 0.0
H4317 H 0.09937 0.46113 0.44129 0.0
H4318 H 0.08763 0.48476 0.43143 0.0
H4319 H 0.09055 0.46131 0.41003 0.0
H4320 H 0.04673 0.45478 0.39434 0.0
H4321 H 0.04369 0.47805 0.4159 0.0
H4322 H 0.02559 0.44975 0.4148 0.0
H4323 H 0.04208 0.42013 0.49609 0.0
H4324 H 0.03837 0.45549 0.51966 0.0
H4325 H 0.05868 0.49471 0.46243 0.0
C4326 C 0.06278 0.41146 0.40773 0.0
C4327 C 0.06055 0.38735 0.40942 0.0
C4328 C 0.05582 0.37972 0.43158 0.0
C4329 C 0.05279 0.39494 0.451 0.0
C4330 C 0.05481 0.41825 0.44868 0.0
C4331 C 0.06009 0.42672 0.42783 0.0
C4332 C 0.06164 0.45291 0.4308 0.0
C4333 C 0.08627 0.46579 0.42823 0.0
C4334 C 0.04332 0.45924 0.41289 0.0
C4335 C 0.05622 0.4576 0.4564 0.0
C4336 C 0.05208 0.43712 0.46605 0.0
C4337 C 0.04572 0.43632 0.48883 0.0
C4338 C 0.04375 0.45683 0.50228 0.0
C4339 C 0.04853 0.47855 0.49358 0.0
C4340 C 0.05492 0.47871 0.47004 0.0
H4341 H 0.46574 0.26359 0.25133 0.0
H4342 H 0.43899 0.25678 0.17593 0.0
H4343 H 0.40234 0.26349 0.18586 0.0
H4344 H 0.40962 0.23609 0.26984 0.0
H4345 H 0.4118 0.25544 0.29691 0.0
H4346 H 0.43782 0.25022 0.28541 0.0
H4347 H 0.45215 0.29399 0.28524 0.0
H4348 H 0.42613 0.29932 0.29668 0.0
H4349 H 0.43382 0.30988 0.26949 0.0
H4350 H 0.36678 0.26925 0.2012 0.0
H4351 H 0.33436 0.2754 0.22265 0.0
H4352 H 0.37857 0.28147 0.28996 0.0
C4353 C 0.45226 0.26353 0.23688 0.0
C4354 C 0.45656 0.2591 0.21242 0.0
C4355 C 0.43755 0.25956 0.19474 0.0
C4356 C 0.41599 0.26353 0.20014 0.0
C4357 C 0.41232 0.26747 0.2237 0.0
C4358 C 0.42974 0.26775 0.24205 0.0
C4359 C 0.4198 0.27267 0.26581 0.0
C4360 C 0.41977 0.2524 0.28037 0.0
C4361 C 0.43382 0.29531 0.28016 0.0
C4362 C 0.3945 0.27489 0.25753 0.0
C4363 C 0.39097 0.27163 0.233 0.0
C4364 C 0.36941 0.27193 0.22047 0.0
C4365 C 0.35082 0.27543 0.23299 0.0
C4366 C 0.35314 0.279 0.25824 0.0
C4367 C 0.37577 0.27898 0.2707 0.0
H4368 H 0.61299 0.52305 0.36647 0.0
H4369 H 0.62201 0.59716 0.36843 0.0
H4370 H 0.60475 0.59924 0.406 0.0
H4371 H 0.55532 0.51612 0.39038 0.0
H4372 H 0.56052 0.49304 0.40687 0.0
H4373 H 0.57305 0.49689 0.37968 0.0
H4374 H 0.61402 0.49927 0.40211 0.0
H4375 H 0.60164 0.49546 0.42934 0.0
H4376 H 0.6244 0.52021 0.42819 0.0
H4377 H 0.59022 0.59411 0.44539 0.0
H4378 H 0.57496 0.58188 0.48158 0.0
H4379 H 0.57077 0.51028 0.45402 0.0
C4380 C 0.61072 0.5396 0.37452 0.0
C4381 C 0.61878 0.56003 0.36427 0.0
C4382 C 0.61585 0.58133 0.37569 0.0
C4383 C 0.6061 0.58267 0.39716 0.0
C4384 C 0.59866 0.56243 0.40701 0.0
C4385 C 0.60023 0.54117 0.39581 0.0
C4386 C 0.59029 0.52213 0.41025 0.0
C4387 C 0.5685 0.50609 0.39594 0.0
C4388 C 0.6087 0.50846 0.41792 0.0
C4389 C 0.58393 0.53612 0.43175 0.0
C4390 C 0.58902 0.55935 0.42938 0.0
C4391 C 0.5859 0.57594 0.44723 0.0
C4392 C 0.57734 0.56876 0.46794 0.0
C4393 C 0.57166 0.54508 0.47103 0.0
C4394 C 0.57479 0.52851 0.45235 0.0
H4395 H 0.30894 0.88294 0.05209 0.0
H4396 H 0.30804 0.94972 0.08996 0.0
H4397 H 0.31497 0.93443 0.12842 0.0
H4398 H 0.28426 0.84525 0.09331 0.0
H4399 H 0.30453 0.82665 0.08912 0.0
H4400 H 0.29546 0.84175 0.06522 0.0
H4401 H 0.33862 0.8597 0.06243 0.0
H4402 H 0.34783 0.84481 0.08638 0.0
H4403 H 0.35685 0.87573 0.08862 0.0
H4404 H 0.32536 0.91258 0.16193 0.0
H4405 H 0.34076 0.88701 0.18808 0.0
H4406 H 0.33659 0.83576 0.12681 0.0
C4407 C 0.30924 0.8941 0.06847 0.0
C4408 C 0.30722 0.91718 0.06838 0.0
C4409 C 0.30905 0.93178 0.08999 0.0
C4410 C 0.31295 0.92325 0.11175 0.0
C4411 C 0.31537 0.90039 0.11118 0.0
C4412 C 0.3138 0.88614 0.09004 0.0
C4413 C 0.32038 0.86352 0.0938 0.0
C4414 C 0.29992 0.84309 0.08485 0.0
C4415 C 0.3422 0.8608 0.08212 0.0
C4416 C 0.32562 0.86703 0.12048 0.0
C4417 C 0.32254 0.8883 0.13025 0.0
C4418 C 0.32766 0.89582 0.15453 0.0
C4419 C 0.33639 0.88124 0.16916 0.0
C4420 C 0.33998 0.85958 0.15927 0.0
C4421 C 0.33427 0.85236 0.13472 0.0
H4422 H 0.92729 0.55934 0.90616 0.0
H4423 H 0.92859 0.49243 0.86892 0.0
H4424 H 0.95903 0.48736 0.89968 0.0
H4425 H 0.98828 0.57609 0.92122 0.0
H4426 H 0.98749 0.59151 0.94999 0.0
H4427 H 0.96384 0.58896 0.92652 0.0
H4428 H 0.93468 0.57084 0.95383 0.0
H4429 H 0.9583 0.57335 0.97739 0.0
H4430 H 0.93931 0.54569 0.96714 0.0
H4431 H 0.99028 0.49043 0.93164 0.0
H4432 H 0.02233 0.50176 0.96473 0.0
H4433 H 1.00201 0.56727 0.98098 0.0
C4434 C 0.93381 0.54356 0.90499 0.0
C4435 C 0.92575 0.52601 0.88588 0.0
C4436 C 0.9347 0.50573 0.88398 0.0
C4437 C 0.95184 0.50272 0.90123 0.0
C4438 C 0.95976 0.52034 0.91993 0.0
C4439 C 0.95124 0.54041 0.92198 0.0
C4440 C 0.96431 0.55732 0.94286 0.0
C4441 C 0.97671 0.57979 0.93465 0.0
C4442 C 0.94818 0.56207 0.9614 0.0
C4443 C 0.98146 0.54358 0.95197 0.0
C4444 C 0.9784 0.52229 0.93851 0.0
C4445 C 0.99278 0.5069 0.94262 0.0
C4446 C 1.0109 0.51351 0.96125 0.0
C4447 C 1.01407 0.53514 0.97534 0.0
C4448 C 0.99936 0.55041 0.97066 0.0
H4449 H 0.28904 0.24593 0.59593 0.0
H4450 H 0.24867 0.17734 0.59898 0.0
H4451 H 0.24784 0.18731 0.64183 0.0
H4452 H 0.32363 0.24975 0.65339 0.0
H4453 H 0.32512 0.27998 0.66237 0.0
H4454 H 0.32252 0.26902 0.63124 0.0
H4455 H 0.28557 0.28461 0.62168 0.0
H4456 H 0.28798 0.2967 0.65244 0.0
H4457 H 0.26146 0.27741 0.63836 0.0
H4458 H 0.2517 0.20378 0.68457 0.0
H4459 H 0.26057 0.2259 0.72478 0.0
H4460 H 0.29746 0.28486 0.69597 0.0
C4461 C 0.27998 0.23306 0.60562 0.0
C4462 C 0.26881 0.21076 0.59377 0.0
C4463 C 0.25741 0.19445 0.60737 0.0
C4464 C 0.25678 0.19998 0.63185 0.0
C4465 C 0.26779 0.22196 0.64294 0.0
C4466 C 0.27933 0.23828 0.63041 0.0
C4467 C 0.29031 0.26039 0.6472 0.0
C4468 C 0.31698 0.26509 0.64865 0.0
C4469 C 0.28075 0.281 0.63945 0.0
C4470 C 0.28248 0.25413 0.67083 0.0
C4471 C 0.26974 0.23171 0.66786 0.0
C4472 C 0.26146 0.22142 0.68703 0.0
C4473 C 0.26648 0.23417 0.70984 0.0
C4474 C 0.27909 0.25729 0.71349 0.0
C4475 C 0.28716 0.26743 0.69362 0.0
H4476 H 0.59593 0.57779 0.22179 0.0
H4477 H 0.63688 0.52501 0.2185 0.0
H4478 H 0.6244 0.51581 0.17508 0.0
H4479 H 0.54761 0.54953 0.17686 0.0
H4480 H 0.54489 0.5753 0.1638 0.0
H4481 H 0.55619 0.57735 0.1948 0.0
H4482 H 0.59351 0.60562 0.18793 0.0
H4483 H 0.58191 0.60369 0.15706 0.0
H4484 H 0.61005 0.59725 0.16494 0.0
H4485 H 0.60804 0.5123 0.13227 0.0
H4486 H 0.59022 0.51548 0.09223 0.0
H4487 H 0.55933 0.57083 0.12105 0.0
C4488 C 0.60201 0.56415 0.21187 0.0
C4489 C 0.61714 0.55181 0.22362 0.0
C4490 C 0.62521 0.53451 0.20996 0.0
C4491 C 0.61818 0.52919 0.18527 0.0
C4492 C 0.60335 0.5416 0.17418 0.0
C4493 C 0.59549 0.5589 0.18691 0.0
C4494 C 0.58061 0.57027 0.1701 0.0
C4495 C 0.55585 0.56796 0.17679 0.0
C4496 C 0.59222 0.59572 0.17001 0.0
C4497 C 0.58068 0.55613 0.14613 0.0
C4498 C 0.59414 0.53985 0.14908 0.0
C4499 C 0.59751 0.52502 0.12983 0.0
C4500 C 0.58719 0.52695 0.10699 0.0
C4501 C 0.57323 0.54337 0.10305 0.0
C4502 C 0.5698 0.55807 0.12316 0.0
H4503 H 0.28768 0.91523 0.9089 0.0
H4504 H 0.32932 0.8898 0.96361 0.0
H4505 H 0.33172 0.8567 0.93537 0.0
H4506 H 0.25377 0.86052 0.88318 0.0
H4507 H 0.25308 0.86667 0.85281 0.0
H4508 H 0.25599 0.88978 0.87669 0.0
H4509 H 0.29381 0.91098 0.86242 0.0
H4510 H 0.29094 0.8878 0.83853 0.0
H4511 H 0.31731 0.89615 0.85923 0.0
H4512 H 0.33159 0.82825 0.90227 0.0
H4513 H 0.32484 0.80154 0.86533 0.0
H4514 H 0.27793 0.84104 0.83347 0.0
C4515 C 0.29729 0.90265 0.91467 0.0
C4516 C 0.30811 0.90464 0.93816 0.0
C4517 C 0.32063 0.88811 0.94556 0.0
C4518 C 0.32231 0.86946 0.92971 0.0
C4519 C 0.31128 0.8677 0.90671 0.0
C4520 C 0.2988 0.88352 0.89911 0.0
C4521 C 0.28766 0.87646 0.87361 0.0
C4522 C 0.26104 0.87315 0.87147 0.0
C4523 C 0.29805 0.89389 0.8575 0.0
C4524 C 0.2952 0.85385 0.86869 0.0
C4525 C 0.30953 0.84973 0.88778 0.0
C4526 C 0.32016 0.83097 0.88717 0.0
C4527 C 0.31609 0.81589 0.86618 0.0
C4528 C 0.30086 0.81935 0.8466 0.0
C4529 C 0.28987 0.83823 0.84806 0.0
H4530 H 0.93241 0.49981 0.76371 0.0
H4531 H 0.90998 0.56039 0.74232 0.0
H4532 H 0.92755 0.55551 0.70472 0.0
H4533 H 0.9871 0.50905 0.74191 0.0
H4534 H 0.98529 0.47892 0.73207 0.0
H4535 H 0.97079 0.48723 0.75677 0.0
H4536 H 0.93149 0.46241 0.73531 0.0
H4537 H 0.94592 0.45379 0.71065 0.0
H4538 H 0.92123 0.46701 0.70561 0.0
H4539 H 0.94533 0.54189 0.66903 0.0
H4540 H 0.96273 0.522 0.63813 0.0
H4541 H 0.97724 0.4729 0.68616 0.0
C4542 C 0.93132 0.51204 0.75104 0.0
C4543 C 0.92017 0.53045 0.75538 0.0
C4544 C 0.91862 0.5462 0.7388 0.0
C4545 C 0.92852 0.54355 0.71764 0.0
C4546 C 0.93963 0.52511 0.71385 0.0
C4547 C 0.94103 0.50965 0.73012 0.0
C4548 C 0.95349 0.49112 0.7219 0.0
C4549 C 0.97548 0.49164 0.73919 0.0
C4550 C 0.93705 0.46718 0.71815 0.0
C4551 C 0.95932 0.49872 0.69854 0.0
C4552 C 0.95089 0.51809 0.694 0.0
C4553 C 0.95246 0.52701 0.67257 0.0
C4554 C 0.96269 0.51563 0.65522 0.0
C4555 C 0.97188 0.4959 0.6597 0.0
C4556 C 0.97035 0.4877 0.68188 0.0
H4557 H 0.28096 0.18981 0.42739 0.0
H4558 H 0.26938 0.24602 0.47647 0.0
H4559 H 0.27334 0.27147 0.44488 0.0
H4560 H 0.32431 0.22431 0.398 0.0
H4561 H 0.31408 0.20815 0.36895 0.0
H4562 H 0.31027 0.19426 0.39528 0.0
H4563 H 0.266 0.18193 0.38143 0.0
H4564 H 0.26966 0.19585 0.35509 0.0
H4565 H 0.24968 0.20354 0.37474 0.0
H4566 H 0.27587 0.29024 0.40679 0.0
H4567 H 0.28019 0.3019 0.36708 0.0
H4568 H 0.29379 0.23486 0.34297 0.0
C4569 C 0.27938 0.20752 0.43166 0.0
C4570 C 0.27479 0.21576 0.45476 0.0
C4571 C 0.2729 0.23913 0.4592 0.0
C4572 C 0.27506 0.25375 0.44124 0.0
C4573 C 0.27933 0.24499 0.41874 0.0
C4574 C 0.28172 0.22245 0.41396 0.0
C4575 C 0.28648 0.2174 0.38831 0.0
C4576 C 0.3102 0.21064 0.3876 0.0
C4577 C 0.26679 0.19856 0.37406 0.0
C4578 C 0.28659 0.24067 0.37941 0.0
C4579 C 0.28203 0.25617 0.39719 0.0
C4580 C 0.27985 0.27831 0.39294 0.0
C4581 C 0.28247 0.28482 0.37016 0.0
C4582 C 0.28788 0.26964 0.35162 0.0
C4583 C 0.29001 0.24717 0.35659 0.0
H4584 H 0.32785 0.58949 0.56973 0.0
H4585 H 0.35331 0.65978 0.55738 0.0
H4586 H 0.3915 0.65081 0.55157 0.0
H4587 H 0.38797 0.57798 0.5955 0.0
H4588 H 0.37959 0.54887 0.58044 0.0
H4589 H 0.35807 0.56277 0.59244 0.0
H4590 H 0.33316 0.55425 0.55104 0.0
H4591 H 0.35449 0.54074 0.53881 0.0
H4592 H 0.34581 0.56446 0.52567 0.0
H4593 H 0.42065 0.63211 0.5353 0.0
H4594 H 0.43924 0.60543 0.51148 0.0
H4595 H 0.39467 0.54704 0.5337 0.0
C4596 C 0.34201 0.60319 0.56715 0.0
C4597 C 0.33818 0.62523 0.5642 0.0
C4598 C 0.35645 0.64291 0.56022 0.0
C4599 C 0.37811 0.63793 0.55691 0.0
C4600 C 0.381 0.6154 0.55822 0.0
C4601 C 0.36353 0.59839 0.56378 0.0
C4602 C 0.369 0.57474 0.55961 0.0
C4603 C 0.37397 0.56555 0.58342 0.0
C4604 C 0.34947 0.5576 0.54277 0.0
C4605 C 0.39086 0.58072 0.54818 0.0
C4606 C 0.39807 0.60433 0.54842 0.0
C4607 C 0.41578 0.61371 0.53576 0.0
C4608 C 0.42604 0.59856 0.52214 0.0
C4609 C 0.41807 0.57456 0.52109 0.0
C4610 C 0.40095 0.56551 0.53474 0.0
H4611 H 0.89176 0.91074 0.52247 0.0
H4612 H 0.86064 0.95167 0.57217 0.0
H4613 H 0.89517 0.98347 0.5764 0.0
H4614 H 0.95029 0.92979 0.55403 0.0
H4615 H 0.96455 0.93013 0.52761 0.0
H4616 H 0.9372 0.91038 0.52748 0.0
H4617 H 0.91728 0.92769 0.49116 0.0
H4618 H 0.94658 0.9433 0.49095 0.0
H4619 H 0.9238 0.95889 0.49265 0.0
H4620 H 0.93316 0.01109 0.57534 0.0
H4621 H 0.97234 0.03172 0.56957 0.0
H4622 H 0.97747 0.97433 0.51852 0.0
C4623 C 0.89235 0.92641 0.53422 0.0
C4624 C 0.87347 0.92896 0.54679 0.0
C4625 C 0.87486 0.94957 0.5622 0.0
C4626 C 0.89438 0.96771 0.56472 0.0
C4627 C 0.91255 0.96499 0.55179 0.0
C4628 C 0.91179 0.94489 0.53681 0.0
C4629 C 0.93425 0.94623 0.52582 0.0
C4630 C 0.94735 0.92805 0.53425 0.0
C4631 C 0.9301 0.94381 0.49851 0.0
C4632 C 0.94709 0.97045 0.53615 0.0
C4633 C 0.93448 0.98088 0.55134 0.0
C4634 C 0.9431 1.00313 0.56326 0.0
C4635 C 0.96525 0.01491 0.5596 0.0
C4636 C 0.9783 1.00472 0.54367 0.0
C4637 C 0.96868 0.98233 0.53157 0.0
H4638 H 0.91527 0.08723 0.25318 0.0
H4639 H 0.92948 0.07346 0.32595 0.0
H4640 H 0.90975 0.10397 0.33987 0.0
H4641 H 0.9262 0.15255 0.27236 0.0
H4642 H 0.90496 0.15606 0.24862 0.0
H4643 H 0.9214 0.13381 0.24451 0.0
H4644 H 0.88265 0.10368 0.2332 0.0
H4645 H 0.86616 0.1257 0.23826 0.0
H4646 H 0.86161 0.10081 0.25398 0.0
H4647 H 0.88266 0.12985 0.34506 0.0
H4648 H 0.86266 0.16243 0.34474 0.0
H4649 H 0.87059 0.16519 0.27024 0.0
C4650 C 0.91546 0.09167 0.27214 0.0
C4651 C 0.92419 0.07822 0.28857 0.0
C4652 C 0.92343 0.08397 0.3132 0.0
C4653 C 0.91178 0.10089 0.32122 0.0
C4654 C 0.90194 0.11273 0.30451 0.0
C4655 C 0.90487 0.10952 0.28073 0.0
C4656 C 0.89389 0.12618 0.26714 0.0
C4657 C 0.91273 0.14316 0.25759 0.0
C4658 C 0.87495 0.1133 0.24696 0.0
C4659 C 0.88351 0.13832 0.28687 0.0
C4660 C 0.88791 0.12968 0.30807 0.0
C4661 C 0.87962 0.13727 0.32878 0.0
C4662 C 0.86808 0.15554 0.32838 0.0
C4663 C 0.86531 0.1662 0.30758 0.0
C4664 C 0.8724 0.15708 0.28629 0.0
H4665 H 0.71723 0.09614 0.06526 0.0
H4666 H 0.70728 0.15757 0.03453 0.0
H4667 H 0.66476 0.14201 0.02717 0.0
H4668 H 0.6689 0.05178 0.03035 0.0
H4669 H 0.66371 0.03908 0.05685 0.0
H4670 H 0.69261 0.0541 0.05422 0.0
H4671 H 0.69031 0.07822 0.09496 0.0
H4672 H 0.66036 0.06416 0.09455 0.0
H4673 H 0.66821 0.09512 0.09637 0.0
H4674 H 0.6242 0.12241 0.02811 0.0
H4675 H 0.58752 0.098 0.03458 0.0
H4676 H 0.62421 0.04806 0.06099 0.0
C4677 C 0.70604 0.10585 0.05628 0.0
C4678 C 0.71497 0.1275 0.0496 0.0
C4679 C 0.70024 0.14067 0.0392 0.0
C4680 C 0.67632 0.13201 0.03497 0.0
C4681 C 0.66789 0.11058 0.04188 0.0
C4682 C 0.68222 0.09766 0.05238 0.0
C4683 C 0.66852 0.07667 0.06094 0.0
C4684 C 0.67388 0.05409 0.04987 0.0
C4685 C 0.67206 0.07869 0.08833 0.0
C4686 C 0.64447 0.07891 0.05177 0.0
C4687 C 0.64439 0.0989 0.04161 0.0
C4688 C 0.624 0.10599 0.03465 0.0
C4689 C 0.60312 0.09167 0.03754 0.0
C4690 C 0.60296 0.07014 0.04564 0.0
C4691 C 0.62389 0.06393 0.05335 0.0
H4692 H 0.24541 0.51968 0.30183 0.0
H4693 H 0.20879 0.49675 0.23046 0.0
H4694 H 0.2172 0.45779 0.23302 0.0
H4695 H 0.28983 0.486 0.30045 0.0
H4696 H 0.28801 0.48059 0.33082 0.0
H4697 H 0.28191 0.50695 0.32148 0.0
H4698 H 0.24149 0.49813 0.33626 0.0
H4699 H 0.24727 0.47172 0.34558 0.0
H4700 H 0.22164 0.47115 0.32514 0.0
H4701 H 0.22829 0.42108 0.24513 0.0
H4702 H 0.23835 0.38936 0.26664 0.0
H4703 H 0.26406 0.43802 0.33034 0.0
C4704 C 0.23976 0.50678 0.28633 0.0
C4705 C 0.22698 0.51115 0.26575 0.0
C4706 C 0.21897 0.49357 0.24627 0.0
C4707 C 0.22369 0.47156 0.24756 0.0
C4708 C 0.23609 0.4678 0.2685 0.0
C4709 C 0.24378 0.48498 0.28754 0.0
C4710 C 0.25419 0.47644 0.30914 0.0
C4711 C 0.28002 0.48817 0.31585 0.0
C4712 C 0.24031 0.47955 0.33025 0.0
C4713 C 0.25106 0.45153 0.29947 0.0
C4714 C 0.24095 0.44676 0.27593 0.0
C4715 C 0.23607 0.42455 0.26358 0.0
C4716 C 0.24157 0.40676 0.27584 0.0
C4717 C 0.25112 0.41161 0.3001 0.0
C4718 C 0.25613 0.43412 0.31191 0.0
H4719 H 0.26887 0.44487 0.06561 0.0
H4720 H 0.24038 0.3856 0.01285 0.0
H4721 H 0.20453 0.40065 1.00448 0.0
H4722 H 0.2114 0.45388 0.08548 0.0
H4723 H 0.22139 0.48475 0.08862 0.0
H4724 H 0.24179 0.46653 0.09452 0.0
H4725 H 0.2668 0.4849 0.06394 0.0
H4726 H 0.24653 0.503 0.05791 0.0
H4727 H 0.25344 0.48444 0.03385 0.0
H4728 H 0.17525 0.42605 0.99696 0.0
H4729 H 0.15587 0.45886 0.99138 0.0
H4730 H 0.20477 0.50153 0.04838 0.0
C4731 C 0.25446 0.43443 0.05336 0.0
C4732 C 0.25685 0.41369 0.04052 0.0
C4733 C 0.23831 0.40099 0.0236 0.0
C4734 C 0.21803 0.40958 0.01858 0.0
C4735 C 0.21664 0.43073 0.03085 0.0
C4736 C 0.23431 0.4428 0.04817 0.0
C4737 C 0.23025 0.46639 0.05669 0.0
C4738 C 0.22595 0.46798 0.08289 0.0
C4739 C 0.25045 0.48579 0.05284 0.0
C4740 C 0.20834 0.46638 0.0405 0.0
C4741 C 0.20031 0.44552 0.02609 0.0
C4742 C 0.18116 0.44225 0.0085 0.0
C4743 C 0.1703 0.46091 1.00541 0.0
C4744 C 0.17904 0.48254 0.01947 0.0
C4745 C 0.19785 0.48506 0.03752 0.0
H4746 H 0.91751 0.94085 0.29781 0.0
H4747 H 0.88044 0.96702 0.24053 0.0
H4748 H 0.84886 0.9322 0.23574 0.0
H4749 H 0.90149 0.88106 0.27114 0.0
H4750 H 0.89827 0.86915 0.29867 0.0
H4751 H 0.91833 0.89614 0.29854 0.0
H4752 H 0.89703 0.9179 0.32961 0.0
H4753 H 0.88089 0.88927 0.33098 0.0
H4754 H 0.86538 0.91123 0.32466 0.0
H4755 H 0.82211 0.89328 0.23557 0.0
H4756 H 0.80085 0.855 0.24289 0.0
H4757 H 0.85146 0.85734 0.30439 0.0
C4758 C 0.90268 0.93915 0.28433 0.0
C4759 C 0.90135 0.95656 0.26944 0.0
C4760 C 0.88173 0.95385 0.25204 0.0
C4761 C 0.86372 0.93414 0.24921 0.0
C4762 C 0.86541 0.91725 0.26408 0.0
C4763 C 0.8842 0.91966 0.2816 0.0
C4764 C 0.8817 0.8986 0.29489 0.0
C4765 C 0.9011 0.88546 0.29054 0.0
C4766 C 0.88129 0.90477 0.32164 0.0
C4767 C 0.85819 0.88479 0.28293 0.0
C4768 C 0.84945 0.8954 0.26467 0.0
C4769 C 0.82861 0.88511 0.2502 0.0
C4770 C 0.81643 0.86353 0.25469 0.0
C4771 C 0.82449 0.85294 0.2741 0.0
C4772 C 0.84538 0.86412 0.28866 0.0
H4773 H 0.72228 0.12341 0.74209 0.0
H4774 H 0.69949 0.1306 0.81173 0.0
H4775 H 0.72164 0.17131 0.8193 0.0
H4776 H 0.77759 0.15879 0.75243 0.0
H4777 H 0.77484 0.17206 0.72565 0.0
H4778 H 0.75834 0.14344 0.7266 0.0
H4779 H 0.72032 0.15735 0.71376 0.0
H4780 H 0.73707 0.18597 0.71317 0.0
H4781 H 0.71365 0.18173 0.73115 0.0
H4782 H 0.75849 0.20348 0.82253 0.0
H4783 H 0.78841 0.23638 0.81451 0.0
H4784 H 0.77202 0.21505 0.73927 0.0
C4785 C 0.72197 0.13373 0.75887 0.0
C4786 C 0.71097 0.12411 0.77721 0.0
C4787 C 0.70923 0.13788 0.79829 0.0
C4788 C 0.72154 0.16077 0.80259 0.0
C4789 C 0.73391 0.16935 0.78485 0.0
C4790 C 0.73279 0.15683 0.76279 0.0
C4791 C 0.74515 0.17106 0.74578 0.0
C4792 C 0.76514 0.16069 0.73712 0.0
C4793 C 0.72802 0.17423 0.72473 0.0
C4794 C 0.75429 0.19323 0.7622 0.0
C4795 C 0.74876 0.19137 0.785 0.0
C4796 C 0.76064 0.20672 0.80447 0.0
C4797 C 0.77684 0.22567 0.79999 0.0
C4798 C 0.77897 0.23006 0.77654 0.0
C4799 C 0.76865 0.21309 0.75736 0.0
loop_
_geom_bond_atom_site_label_1
_geom_bond_atom_site_label_2
_geom_bond_distance
_geom_bond_site_symmetry_2
_ccdc_geom_bond_type
Mn0 O5 2.095 . S
Mn0 O15 2.162 . S
Mn0 O16 2.297 . S
Mn0 O24 2.374 1_455 S
Mn0 O25 2.209 . S
Mn0 O26 2.094 . S
Mn1 O6 2.121 . S
Mn1 N8 2.257 . S
Mn1 N17 2.282 . S
Mn1 O25 2.215 . S
Mn1 O27 2.117 . S
C2 O24 1.231 1_455 S
C2 O25 1.283 . S
C3 O15 1.281 . S
C3 O16 1.236 . S
C4 O26 1.240 . S
C4 O27 1.264 . S
O5 Mn0 2.095 . S
O5 C14 1.250 . S
O6 Mn1 2.121 . S
O6 C14 1.258 . S
C7 N8 1.326 . S
C7 C11 1.460 . S
C7 H13 0.929 . S
N8 Mn1 2.257 . S
N8 C7 1.326 . S
N8 C12 1.362 . S
C9 C10 1.258 1_655 S
C9 C12 1.431 1_655 S
C9 C29 1.449 . S
C10 C9 1.258 1_455 S
C10 C11 1.477 . S
C10 H30 0.932 1_455 S
C11 C7 1.460 . S
C11 C10 1.477 . S
C11 H31 0.930 . S
C12 N8 1.362 . S
C12 C9 1.431 1_455 S
C12 C22 1.476 1_455 S
H13 C7 0.929 . S
C14 O5 1.250 . S
C14 O6 1.258 . S
O15 Mn0 2.162 . S
O15 C3 1.281 . S
O16 Mn0 2.297 . S
O16 C3 1.236 . S
N17 Mn1 2.282 . S
N17 C18 1.328 1_455 S
N17 C22 1.318 1_455 S
C18 N17 1.328 1_655 S
C18 C19 1.457 . S
C18 H23 0.929 1_655 S
C19 C18 1.457 . S
C19 C20 1.291 . S
C19 H32 0.931 . S
C20 C19 1.291 . S
C20 C21 1.373 . S
C20 H33 0.929 . S
C21 C20 1.373 . S
C21 C22 1.396 . S
C21 C28 1.403 . S
C22 C12 1.476 1_655 S
C22 N17 1.318 1_655 S
C22 C21 1.396 . S
H23 C18 0.929 1_455 S
O24 Mn0 2.374 1_655 S
O24 C2 1.231 1_655 S
O25 Mn0 2.209 . S
O25 Mn1 2.215 . S
O25 C2 1.283 . S
O26 Mn0 2.094 . S
O26 C4 1.240 . S
O27 Mn1 2.117 . S
O27 C4 1.264 . S
C28 C21 1.403 . S
C28 C29 1.399 . S
C28 H34 0.929 . S
C29 C9 1.449 . S
C29 C28 1.399 . S
C29 H35 0.930 . S
H30 C10 0.932 1_655 S
H31 C11 0.930 . S
H32 C19 0.931 . S
H33 C20 0.929 . S
H34 C28 0.929 . S
H35 C29 0.930 . S
Mn36 O41 2.095 1_455 S
Mn36 O51 2.162 . S
Mn36 O52 2.297 . S
Mn36 O60 2.385 . S
Mn36 O61 2.209 . S
Mn36 O62 2.094 . S
Mn37 O42 2.121 1_455 S
Mn37 N44 2.257 . S
Mn37 N53 2.282 . S
Mn37 O61 2.215 . S
Mn37 O63 2.117 . S
C38 O60 1.234 . S
C38 O61 1.283 . S
C39 O51 1.281 . S
C39 O52 1.236 . S
C40 O62 1.240 . S
C40 O63 1.264 . S
O41 Mn36 2.095 1_655 S
O41 C50 1.250 . S
O42 Mn37 2.121 1_655 S
O42 C50 1.258 . S
C43 N44 1.326 . S
C43 C47 1.460 . S
C43 H49 0.929 . S
N44 Mn37 2.257 . S
N44 C43 1.326 . S
N44 C48 1.362 . S
C45 C46 1.258 . S
C45 C48 1.431 . S
C45 C65 1.449 . S
C46 C45 1.258 . S
C46 C47 1.477 . S
C46 H66 0.931 . S
C47 C43 1.460 . S
C47 C46 1.477 . S
C47 H67 0.930 . S
C48 N44 1.362 . S
C48 C45 1.431 . S
C48 C58 1.476 . S
H49 C43 0.929 . S
C50 O41 1.250 . S
C50 O42 1.258 . S
O51 Mn36 2.162 . S
O51 C39 1.281 . S
O52 Mn36 2.297 . S
O52 C39 1.236 . S
N53 Mn37 2.282 . S
N53 C54 1.328 . S
N53 C58 1.318 . S
C54 N53 1.328 . S
C54 C55 1.457 . S
C54 H59 0.929 . S
C55 C54 1.457 . S
C55 C56 1.291 . S
C55 H68 0.931 . S
C56 C55 1.291 . S
C56 C57 1.373 . S
C56 H69 0.929 . S
C57 C56 1.373 . S
C57 C58 1.396 . S
C57 C64 1.403 . S
C58 C48 1.476 . S
C58 N53 1.318 . S
C58 C57 1.396 . S
H59 C54 0.929 . S
O60 Mn36 2.385 . S
O60 C38 1.234 . S
O61 Mn36 2.209 . S
O61 Mn37 2.215 . S
O61 C38 1.283 . S
O62 Mn36 2.094 . S
O62 C40 1.240 . S
O63 Mn37 2.117 . S
O63 C40 1.264 . S
C64 C57 1.403 . S
C64 C65 1.399 . S
C64 H70 0.929 . S
C65 C45 1.449 . S
C65 C64 1.399 . S
C65 H71 0.930 . S
H66 C46 0.931 . S
H67 C47 0.930 . S
H68 C55 0.931 . S
H69 C56 0.929 . S
H70 C64 0.929 . S
H71 C65 0.930 . S
Mn72 O77 2.095 . S
Mn72 O87 2.162 . S
Mn72 O88 2.297 . S
Mn72 O96 2.385 . S
Mn72 O97 2.209 . S
Mn72 O98 2.094 . S
Mn73 O78 2.121 . S
Mn73 N80 2.257 . S
Mn73 N89 2.282 . S
Mn73 O97 2.215 . S
Mn73 O99 2.117 . S
C74 O96 1.234 . S
C74 O97 1.283 . S
C75 O87 1.281 . S
C75 O88 1.236 . S
C76 O98 1.240 . S
C76 O99 1.264 . S
O77 Mn72 2.095 . S
O77 C86 1.250 . S
O78 Mn73 2.121 . S
O78 C86 1.258 . S
C79 N80 1.326 . S
C79 C83 1.460 . S
C79 H85 0.929 . S
N80 Mn73 2.257 . S
N80 C79 1.326 . S
N80 C84 1.362 . S
C81 C82 1.258 . S
C81 C84 1.431 . S
C81 C101 1.449 . S
C82 C81 1.258 . S
C82 C83 1.477 . S
C82 H102 0.931 . S
C83 C79 1.460 . S
C83 C82 1.477 . S
C83 H103 0.930 . S
C84 N80 1.362 . S
C84 C81 1.431 . S
C84 C94 1.476 . S
H85 C79 0.929 . S
C86 O77 1.250 . S
C86 O78 1.258 . S
O87 Mn72 2.162 . S
O87 C75 1.281 . S
O88 Mn72 2.297 . S
O88 C75 1.236 . S
N89 Mn73 2.282 . S
N89 C90 1.328 . S
N89 C94 1.318 . S
C90 N89 1.328 . S
C90 C91 1.457 . S
C90 H95 0.929 . S
C91 C90 1.457 . S
C91 C92 1.291 . S
C91 H104 0.931 . S
C92 C91 1.291 . S
C92 C93 1.373 . S
C92 H105 0.929 . S
C93 C92 1.373 . S
C93 C94 1.396 . S
C93 C100 1.403 . S
C94 C84 1.476 . S
C94 N89 1.318 . S
C94 C93 1.396 . S
H95 C90 0.929 . S
O96 Mn72 2.385 . S
O96 C74 1.234 . S
O97 Mn72 2.209 . S
O97 Mn73 2.215 . S
O97 C74 1.283 . S
O98 Mn72 2.094 . S
O98 C76 1.240 . S
O99 Mn73 2.117 . S
O99 C76 1.264 . S
C100 C93 1.403 . S
C100 C101 1.399 . S
C100 H106 0.929 . S
C101 C81 1.449 . S
C101 C100 1.399 . S
C101 H107 0.930 . S
H102 C82 0.931 . S
H103 C83 0.930 . S
H104 C91 0.931 . S
H105 C92 0.929 . S
H106 C100 0.929 . S
H107 C101 0.930 . S
Mn108 O113 2.095 . S
Mn108 O123 2.162 . S
Mn108 O124 2.297 . S
Mn108 O132 2.385 . S
Mn108 O133 2.209 . S
Mn108 O134 2.094 . S
Mn109 O114 2.121 . S
Mn109 N116 2.257 . S
Mn109 N125 2.282 . S
Mn109 O133 2.215 . S
Mn109 O135 2.117 . S
C110 O132 1.234 . S
C110 O133 1.283 . S
C111 O123 1.281 . S
C111 O124 1.236 . S
C112 O134 1.240 . S
C112 O135 1.264 . S
O113 Mn108 2.095 . S
O113 C122 1.250 . S
O114 Mn109 2.121 . S
O114 C122 1.258 . S
C115 N116 1.326 . S
C115 C119 1.460 . S
C115 H121 0.929 . S
N116 Mn109 2.257 . S
N116 C115 1.326 . S
N116 C120 1.362 . S
C117 C118 1.258 . S
C117 C120 1.431 . S
C117 C137 1.449 . S
C118 C117 1.258 . S
C118 C119 1.477 . S
C118 H138 0.931 . S
C119 C115 1.460 . S
C119 C118 1.477 . S
C119 H139 0.930 . S
C120 N116 1.362 . S
C120 C117 1.431 . S
C120 C130 1.476 . S
H121 C115 0.929 . S
C122 O113 1.250 . S
C122 O114 1.258 . S
O123 Mn108 2.162 . S
O123 C111 1.281 . S
O124 Mn108 2.297 . S
O124 C111 1.236 . S
N125 Mn109 2.282 . S
N125 C126 1.328 . S
N125 C130 1.318 . S
C126 N125 1.328 . S
C126 C127 1.457 . S
C126 H131 0.929 . S
C127 C126 1.457 . S
C127 C128 1.291 . S
C127 H140 0.931 . S
C128 C127 1.291 . S
C128 C129 1.373 . S
C128 H141 0.929 . S
C129 C128 1.373 . S
C129 C130 1.396 . S
C129 C136 1.403 . S
C130 C120 1.476 . S
C130 N125 1.318 . S
C130 C129 1.396 . S
H131 C126 0.929 . S
O132 Mn108 2.385 . S
O132 C110 1.234 . S
O133 Mn108 2.209 . S
O133 Mn109 2.215 . S
O133 C110 1.283 . S
O134 Mn108 2.094 . S
O134 C112 1.240 . S
O135 Mn109 2.117 . S
O135 C112 1.264 . S
C136 C129 1.403 . S
C136 C137 1.399 . S
C136 H142 0.929 . S
C137 C117 1.449 . S
C137 C136 1.399 . S
C137 H143 0.930 . S
H138 C118 0.931 . S
H139 C119 0.930 . S
H140 C127 0.931 . S
H141 C128 0.929 . S
H142 C136 0.929 . S
H143 C137 0.930 . S
Mn144 O149 2.095 . S
Mn144 O159 2.162 . S
Mn144 O160 2.297 . S
Mn144 O168 2.385 . S
Mn144 O169 2.209 . S
Mn144 O170 2.094 . S
Mn145 O150 2.121 . S
Mn145 N152 2.257 . S
Mn145 N161 2.298 . S
Mn145 O169 2.215 . S
Mn145 O171 2.117 . S
C146 O168 1.234 . S
C146 O169 1.283 . S
C147 O159 1.281 . S
C147 O160 1.236 . S
C148 O170 1.240 . S
C148 O171 1.264 . S
O149 Mn144 2.095 . S
O149 C158 1.250 . S
O150 Mn145 2.121 . S
O150 C158 1.258 . S
C151 N152 1.326 . S
C151 C155 1.460 1_554 S
C151 H157 0.929 . S
N152 Mn145 2.257 . S
N152 C151 1.326 . S
N152 C156 1.362 . S
C153 C154 1.258 1_554 S
C153 C156 1.431 . S
C153 C173 1.449 1_454 S
C154 C153 1.258 1_556 S
C154 C155 1.477 . S
C154 H174 0.931 . S
C155 C151 1.460 1_556 S
C155 C154 1.477 . S
C155 H175 0.930 . S
C156 N152 1.362 . S
C156 C153 1.431 . S
C156 C166 1.456 1_455 S
H157 C151 0.929 . S
C158 O149 1.250 . S
C158 O150 1.258 . S
O159 Mn144 2.162 . S
O159 C147 1.281 . S
O160 Mn144 2.297 . S
O160 C147 1.236 . S
N161 Mn145 2.298 . S
N161 C162 1.310 1_455 S
N161 C166 1.334 1_455 S
C162 N161 1.310 1_655 S
C162 C163 1.457 . S
C162 H167 0.929 . S
C163 C162 1.457 . S
C163 C164 1.291 . S
C163 H176 0.931 . S
C164 C163 1.291 . S
C164 C165 1.373 . S
C164 H177 0.929 . S
C165 C164 1.373 . S
C165 C166 1.411 . S
C165 C172 1.403 . S
C166 C156 1.456 1_655 S
C166 N161 1.334 1_655 S
C166 C165 1.411 . S
H167 C162 0.929 . S
O168 Mn144 2.385 . S
O168 C146 1.234 . S
O169 Mn144 2.209 . S
O169 Mn145 2.215 . S
O169 C146 1.283 . S
O170 Mn144 2.094 . S
O170 C148 1.240 . S
O171 Mn145 2.117 . S
O171 C148 1.264 . S
C172 C165 1.403 . S
C172 C173 1.399 1_554 S
C172 H178 0.929 . S
C173 C153 1.449 1_656 S
C173 C172 1.399 1_556 S
C173 H179 0.930 . S
H174 C154 0.931 . S
H175 C155 0.930 . S
H176 C163 0.931 . S
H177 C164 0.929 . S
H178 C172 0.929 . S
H179 C173 0.930 . S
Mn180 O185 2.095 . S
Mn180 O195 2.162 . S
Mn180 O196 2.297 . S
Mn180 O204 2.385 . S
Mn180 O205 2.209 . S
Mn180 O206 2.094 . S
Mn181 O186 2.121 . S
Mn181 N188 2.257 . S
Mn181 N197 2.282 . S
Mn181 O205 2.215 . S
Mn181 O207 2.117 . S
C182 O204 1.234 . S
C182 O205 1.283 . S
C183 O195 1.281 . S
C183 O196 1.236 . S
C184 O206 1.240 . S
C184 O207 1.264 . S
O185 Mn180 2.095 . S
O185 C194 1.250 . S
O186 Mn181 2.121 . S
O186 C194 1.258 . S
C187 N188 1.326 . S
C187 C191 1.460 . S
C187 H193 0.929 . S
N188 Mn181 2.257 . S
N188 C187 1.326 . S
N188 C192 1.362 . S
C189 C190 1.258 . S
C189 C192 1.431 . S
C189 C209 1.449 . S
C190 C189 1.258 . S
C190 C191 1.477 . S
C190 H210 0.931 . S
C191 C187 1.460 . S
C191 C190 1.477 . S
C191 H211 0.930 . S
C192 N188 1.362 . S
C192 C189 1.431 . S
C192 C202 1.476 . S
H193 C187 0.929 . S
C194 O185 1.250 . S
C194 O186 1.258 . S
O195 Mn180 2.162 . S
O195 C183 1.281 . S
O196 Mn180 2.297 . S
O196 C183 1.236 . S
N197 Mn181 2.282 . S
N197 C198 1.328 . S
N197 C202 1.318 . S
C198 N197 1.328 . S
C198 C199 1.457 . S
C198 H203 0.929 . S
C199 C198 1.457 . S
C199 C200 1.291 . S
C199 H212 0.931 . S
C200 C199 1.291 . S
C200 C201 1.373 . S
C200 H213 0.929 . S
C201 C200 1.373 . S
C201 C202 1.396 . S
C201 C208 1.403 . S
C202 C192 1.476 . S
C202 N197 1.318 . S
C202 C201 1.396 . S
H203 C198 0.929 . S
O204 Mn180 2.385 . S
O204 C182 1.234 . S
O205 Mn180 2.209 . S
O205 Mn181 2.215 . S
O205 C182 1.283 . S
O206 Mn180 2.094 . S
O206 C184 1.240 . S
O207 Mn181 2.117 . S
O207 C184 1.264 . S
C208 C201 1.403 . S
C208 C209 1.399 . S
C208 H214 0.929 . S
C209 C189 1.449 . S
C209 C208 1.399 . S
C209 H215 0.930 . S
H210 C190 0.931 . S
H211 C191 0.930 . S
H212 C199 0.931 . S
H213 C200 0.929 . S
H214 C208 0.929 . S
H215 C209 0.930 . S
Mn216 O221 2.095 . S
Mn216 O231 2.162 . S
Mn216 O232 2.297 . S
Mn216 O240 2.385 . S
Mn216 O241 2.209 . S
Mn216 O242 2.094 . S
Mn217 O222 2.121 . S
Mn217 N224 2.257 . S
Mn217 N233 2.282 . S
Mn217 O241 2.215 . S
Mn217 O243 2.117 . S
C218 O240 1.234 . S
C218 O241 1.283 . S
C219 O231 1.281 . S
C219 O232 1.236 . S
C220 O242 1.240 . S
C220 O243 1.264 . S
O221 Mn216 2.095 . S
O221 C230 1.250 . S
O222 Mn217 2.121 . S
O222 C230 1.258 . S
C223 N224 1.326 . S
C223 C227 1.460 . S
C223 H229 0.929 . S
N224 Mn217 2.257 . S
N224 C223 1.326 . S
N224 C228 1.362 . S
C225 C226 1.258 . S
C225 C228 1.431 . S
C225 C245 1.449 . S
C226 C225 1.258 . S
C226 C227 1.477 . S
C226 H246 0.931 . S
C227 C223 1.460 . S
C227 C226 1.477 . S
C227 H247 0.930 . S
C228 N224 1.362 . S
C228 C225 1.431 . S
C228 C238 1.476 . S
H229 C223 0.929 . S
C230 O221 1.250 . S
C230 O222 1.258 . S
O231 Mn216 2.162 . S
O231 C219 1.281 . S
O232 Mn216 2.297 . S
O232 C219 1.236 . S
N233 Mn217 2.282 . S
N233 C234 1.328 . S
N233 C238 1.318 . S
C234 N233 1.328 . S
C234 C235 1.457 . S
C234 H239 0.929 . S
C235 C234 1.457 . S
C235 C236 1.291 . S
C235 H248 0.931 . S
C236 C235 1.291 . S
C236 C237 1.373 . S
C236 H249 0.929 . S
C237 C236 1.373 . S
C237 C238 1.396 . S
C237 C244 1.403 . S
C238 C228 1.476 . S
C238 N233 1.318 . S
C238 C237 1.396 . S
H239 C234 0.929 . S
O240 Mn216 2.385 . S
O240 C218 1.234 . S
O241 Mn216 2.209 . S
O241 Mn217 2.215 . S
O241 C218 1.283 . S
O242 Mn216 2.094 . S
O242 C220 1.240 . S
O243 Mn217 2.117 . S
O243 C220 1.264 . S
C244 C237 1.403 . S
C244 C245 1.399 . S
C244 H250 0.929 . S
C245 C225 1.449 . S
C245 C244 1.399 . S
C245 H251 0.930 . S
H246 C226 0.931 . S
H247 C227 0.930 . S
H248 C235 0.931 . S
H249 C236 0.929 . S
H250 C244 0.929 . S
H251 C245 0.930 . S
Mn252 O257 2.071 1_655 S
Mn252 O267 2.159 1_655 S
Mn252 O268 2.294 . S
Mn252 O276 2.411 . S
Mn252 O277 2.220 . S
Mn252 O278 2.097 1_655 S
Mn253 O258 2.121 1_655 S
Mn253 N260 2.257 . S
Mn253 N269 2.282 . S
Mn253 O277 2.215 . S
Mn253 O279 2.117 1_655 S
C254 O276 1.234 . S
C254 O277 1.283 . S
C255 O267 1.281 1_655 S
C255 O268 1.236 . S
C256 O278 1.240 . S
C256 O279 1.264 . S
O257 Mn252 2.071 1_455 S
O257 C266 1.250 . S
O258 Mn253 2.121 1_455 S
O258 C266 1.258 . S
C259 N260 1.326 . S
C259 C263 1.460 . S
C259 H265 0.929 1_655 S
N260 Mn253 2.257 . S
N260 C259 1.326 . S
N260 C264 1.362 . S
C261 C262 1.258 . S
C261 C264 1.431 . S
C261 C281 1.449 . S
C262 C261 1.258 . S
C262 C263 1.477 . S
C262 H282 0.931 . S
C263 C259 1.460 . S
C263 C262 1.477 . S
C263 H283 0.930 . S
C264 N260 1.362 . S
C264 C261 1.431 . S
C264 C274 1.476 . S
H265 C259 0.929 1_455 S
C266 O257 1.250 . S
C266 O258 1.258 . S
O267 Mn252 2.159 1_455 S
O267 C255 1.281 1_455 S
O268 Mn252 2.294 . S
O268 C255 1.236 . S
N269 Mn253 2.282 . S
N269 C270 1.328 . S
N269 C274 1.318 . S
C270 N269 1.328 . S
C270 C271 1.457 . S
C270 H275 0.929 . S
C271 C270 1.457 . S
C271 C272 1.291 . S
C271 H284 0.931 . S
C272 C271 1.291 . S
C272 C273 1.373 . S
C272 H285 0.929 . S
C273 C272 1.373 . S
C273 C274 1.396 . S
C273 C280 1.403 . S
C274 C264 1.476 . S
C274 N269 1.318 . S
C274 C273 1.396 . S
H275 C270 0.929 . S
O276 Mn252 2.411 . S
O276 C254 1.234 . S
O277 Mn252 2.220 . S
O277 Mn253 2.215 . S
O277 C254 1.283 . S
O278 Mn252 2.097 1_455 S
O278 C256 1.240 . S
O279 Mn253 2.117 1_455 S
O279 C256 1.264 . S
C280 C273 1.403 . S
C280 C281 1.399 . S
C280 H286 0.929 . S
C281 C261 1.449 . S
C281 C280 1.399 . S
C281 H287 0.930 . S
H282 C262 0.931 . S
H283 C263 0.930 . S
H284 C271 0.931 . S
H285 C272 0.929 . S
H286 C280 0.929 . S
H287 C281 0.930 . S
Mn288 O293 2.095 . S
Mn288 O303 2.162 . S
Mn288 O304 2.297 . S
Mn288 O312 2.385 1_545 S
Mn288 O313 2.209 1_545 S
Mn288 O314 2.094 . S
Mn289 O294 2.121 . S
Mn289 N296 2.257 1_545 S
Mn289 N305 2.282 1_545 S
Mn289 O313 2.215 1_545 S
Mn289 O315 2.117 . S
C290 O312 1.234 . S
C290 O313 1.283 . S
C291 O303 1.281 . S
C291 O304 1.236 . S
C292 O314 1.240 . S
C292 O315 1.264 . S
O293 Mn288 2.095 . S
O293 C302 1.250 . S
O294 Mn289 2.121 . S
O294 C302 1.258 . S
C295 N296 1.326 . S
C295 C299 1.460 . S
C295 H301 0.929 1_565 S
N296 Mn289 2.257 1_565 S
N296 C295 1.326 . S
N296 C300 1.362 . S
C297 C298 1.258 . S
C297 C300 1.431 . S
C297 C317 1.449 . S
C298 C297 1.258 . S
C298 C299 1.477 . S
C298 H318 0.931 . S
C299 C295 1.460 . S
C299 C298 1.477 . S
C299 H319 0.930 . S
C300 N296 1.362 . S
C300 C297 1.431 . S
C300 C310 1.476 . S
H301 C295 0.929 1_545 S
C302 O293 1.250 . S
C302 O294 1.258 . S
O303 Mn288 2.162 . S
O303 C291 1.281 . S
O304 Mn288 2.297 . S
O304 C291 1.236 . S
N305 Mn289 2.282 1_565 S
N305 C306 1.328 . S
N305 C310 1.318 . S
C306 N305 1.328 . S
C306 C307 1.457 . S
C306 H311 0.929 . S
C307 C306 1.457 . S
C307 C308 1.291 . S
C307 H320 0.931 . S
C308 C307 1.291 . S
C308 C309 1.373 . S
C308 H321 0.929 . S
C309 C308 1.373 . S
C309 C310 1.396 . S
C309 C316 1.403 . S
C310 C300 1.476 . S
C310 N305 1.318 . S
C310 C309 1.396 . S
H311 C306 0.929 . S
O312 Mn288 2.385 1_565 S
O312 C290 1.234 . S
O313 Mn288 2.209 1_565 S
O313 Mn289 2.215 1_565 S
O313 C290 1.283 . S
O314 Mn288 2.094 . S
O314 C292 1.240 . S
O315 Mn289 2.117 . S
O315 C292 1.264 . S
C316 C309 1.403 . S
C316 C317 1.399 . S
C316 H322 0.929 . S
C317 C297 1.449 . S
C317 C316 1.399 . S
C317 H323 0.930 . S
H318 C298 0.931 . S
H319 C299 0.930 . S
H320 C307 0.931 . S
H321 C308 0.929 . S
H322 C316 0.929 . S
H323 C317 0.930 . S
Mn324 O329 2.095 . S
Mn324 O339 2.162 . S
Mn324 O340 2.297 . S
Mn324 O348 2.385 . S
Mn324 O349 2.209 . S
Mn324 O350 2.094 . S
Mn325 O330 2.121 . S
Mn325 N332 2.257 . S
Mn325 N341 2.282 . S
Mn325 O349 2.215 . S
Mn325 O351 2.117 . S
C326 O348 1.234 . S
C326 O349 1.283 . S
C327 O339 1.281 . S
C327 O340 1.236 . S
C328 O350 1.240 . S
C328 O351 1.264 . S
O329 Mn324 2.095 . S
O329 C338 1.250 . S
O330 Mn325 2.121 . S
O330 C338 1.258 . S
C331 N332 1.326 . S
C331 C335 1.460 . S
C331 H337 0.929 . S
N332 Mn325 2.257 . S
N332 C331 1.326 . S
N332 C336 1.362 . S
C333 C334 1.258 . S
C333 C336 1.431 . S
C333 C353 1.449 . S
C334 C333 1.258 . S
C334 C335 1.477 . S
C334 H354 0.931 . S
C335 C331 1.460 . S
C335 C334 1.477 . S
C335 H355 0.930 . S
C336 N332 1.362 . S
C336 C333 1.431 . S
C336 C346 1.476 . S
H337 C331 0.929 . S
C338 O329 1.250 . S
C338 O330 1.258 . S
O339 Mn324 2.162 . S
O339 C327 1.281 . S
O340 Mn324 2.297 . S
O340 C327 1.236 . S
N341 Mn325 2.282 . S
N341 C342 1.328 . S
N341 C346 1.318 . S
C342 N341 1.328 . S
C342 C343 1.457 . S
C342 H347 0.929 . S
C343 C342 1.457 . S
C343 C344 1.291 . S
C343 H356 0.931 . S
C344 C343 1.291 . S
C344 C345 1.373 . S
C344 H357 0.929 . S
C345 C344 1.373 . S
C345 C346 1.396 . S
C345 C352 1.403 . S
C346 C336 1.476 . S
C346 N341 1.318 . S
C346 C345 1.396 . S
H347 C342 0.929 . S
O348 Mn324 2.385 . S
O348 C326 1.234 . S
O349 Mn324 2.209 . S
O349 Mn325 2.215 . S
O349 C326 1.283 . S
O350 Mn324 2.094 . S
O350 C328 1.240 . S
O351 Mn325 2.117 . S
O351 C328 1.264 . S
C352 C345 1.403 . S
C352 C353 1.399 . S
C352 H358 0.929 . S
C353 C333 1.449 . S
C353 C352 1.399 . S
C353 H359 0.930 . S
H354 C334 0.931 . S
H355 C335 0.930 . S
H356 C343 0.931 . S
H357 C344 0.929 . S
H358 C352 0.929 . S
H359 C353 0.930 . S
Mn360 O365 2.095 . S
Mn360 O375 2.162 . S
Mn360 O376 2.297 . S
Mn360 O384 2.385 . S
Mn360 O385 2.209 . S
Mn360 O386 2.094 . S
Mn361 O366 2.121 . S
Mn361 N368 2.257 . S
Mn361 N377 2.282 . S
Mn361 O385 2.215 . S
Mn361 O387 2.117 . S
C362 O384 1.234 . S
C362 O385 1.283 . S
C363 O375 1.281 . S
C363 O376 1.236 . S
C364 O386 1.240 . S
C364 O387 1.264 . S
O365 Mn360 2.095 . S
O365 C374 1.250 . S
O366 Mn361 2.121 . S
O366 C374 1.258 . S
C367 N368 1.326 . S
C367 C371 1.460 . S
C367 H373 0.929 . S
N368 Mn361 2.257 . S
N368 C367 1.326 . S
N368 C372 1.362 . S
C369 C370 1.258 . S
C369 C372 1.431 . S
C369 C389 1.449 . S
C370 C369 1.258 . S
C370 C371 1.477 . S
C370 H390 0.931 . S
C371 C367 1.460 . S
C371 C370 1.477 . S
C371 H391 0.930 . S
C372 N368 1.362 . S
C372 C369 1.431 . S
C372 C382 1.476 . S
H373 C367 0.929 . S
C374 O365 1.250 . S
C374 O366 1.258 . S
O375 Mn360 2.162 . S
O375 C363 1.281 . S
O376 Mn360 2.297 . S
O376 C363 1.236 . S
N377 Mn361 2.282 . S
N377 C378 1.328 . S
N377 C382 1.318 . S
C378 N377 1.328 . S
C378 C379 1.457 . S
C378 H383 0.929 . S
C379 C378 1.457 . S
C379 C380 1.291 . S
C379 H392 0.931 . S
C380 C379 1.291 . S
C380 C381 1.373 . S
C380 H393 0.929 . S
C381 C380 1.373 . S
C381 C382 1.396 . S
C381 C388 1.403 . S
C382 C372 1.476 . S
C382 N377 1.318 . S
C382 C381 1.396 . S
H383 C378 0.929 . S
O384 Mn360 2.385 . S
O384 C362 1.234 . S
O385 Mn360 2.209 . S
O385 Mn361 2.215 . S
O385 C362 1.283 . S
O386 Mn360 2.094 . S
O386 C364 1.240 . S
O387 Mn361 2.117 . S
O387 C364 1.264 . S
C388 C381 1.403 . S
C388 C389 1.399 . S
C388 H394 0.929 . S
C389 C369 1.449 . S
C389 C388 1.399 . S
C389 H395 0.930 . S
H390 C370 0.931 . S
H391 C371 0.930 . S
H392 C379 0.931 . S
H393 C380 0.929 . S
H394 C388 0.929 . S
H395 C389 0.930 . S
Mn396 O401 2.095 1_554 S
Mn396 O411 2.162 . S
Mn396 O412 2.297 . S
Mn396 O420 2.385 . S
Mn396 O421 2.207 1_554 S
Mn396 O422 2.094 1_554 S
Mn397 O402 2.121 . S
Mn397 N404 2.221 1_565 S
Mn397 N413 2.282 . S
Mn397 O421 2.220 . S
Mn397 O423 2.117 . S
C398 O420 1.234 . S
C398 O421 1.282 1_554 S
C399 O411 1.281 . S
C399 O412 1.236 . S
C400 O422 1.240 . S
C400 O423 1.264 . S
O401 Mn396 2.095 1_556 S
O401 C410 1.250 . S
O402 Mn397 2.121 . S
O402 C410 1.258 . S
C403 N404 1.355 . S
C403 C407 1.460 . S
C403 H409 0.929 . S
N404 Mn397 2.221 1_545 S
N404 C403 1.355 . S
N404 C408 1.371 . S
C405 C406 1.258 . S
C405 C408 1.431 . S
C405 C425 1.449 . S
C406 C405 1.258 . S
C406 C407 1.477 . S
C406 H426 0.931 . S
C407 C403 1.460 . S
C407 C406 1.477 . S
C407 H427 0.930 . S
C408 N404 1.371 . S
C408 C405 1.431 . S
C408 C418 1.476 1_545 S
H409 C403 0.929 . S
C410 O401 1.250 . S
C410 O402 1.258 . S
O411 Mn396 2.162 . S
O411 C399 1.281 . S
O412 Mn396 2.297 . S
O412 C399 1.236 . S
N413 Mn397 2.282 . S
N413 C414 1.328 . S
N413 C418 1.318 . S
C414 N413 1.328 . S
C414 C415 1.457 . S
C414 H419 0.929 . S
C415 C414 1.457 . S
C415 C416 1.291 . S
C415 H428 0.931 . S
C416 C415 1.291 . S
C416 C417 1.401 . S
C416 H429 0.929 . S
C417 C416 1.401 . S
C417 C418 1.403 . S
C417 C424 1.370 1_565 S
C418 C408 1.476 1_565 S
C418 N413 1.318 . S
C418 C417 1.403 . S
H419 C414 0.929 . S
O420 Mn396 2.385 . S
O420 C398 1.234 . S
O421 Mn396 2.207 1_556 S
O421 Mn397 2.220 . S
O421 C398 1.282 1_556 S
O422 Mn396 2.094 1_556 S
O422 C400 1.240 . S
O423 Mn397 2.117 . S
O423 C400 1.264 . S
C424 C417 1.370 1_545 S
C424 C425 1.399 . S
C424 H430 0.929 . S
C425 C405 1.449 . S
C425 C424 1.399 . S
C425 H431 0.930 . S
H426 C406 0.931 . S
H427 C407 0.930 . S
H428 C415 0.931 . S
H429 C416 0.929 . S
H430 C424 0.929 . S
H431 C425 0.930 . S
Mn432 O437 2.095 . S
Mn432 O447 2.162 . S
Mn432 O448 2.297 . S
Mn432 O456 2.385 . S
Mn432 O457 2.209 . S
Mn432 O458 2.094 . S
Mn433 O438 2.121 . S
Mn433 N440 2.257 . S
Mn433 N449 2.282 1_554 S
Mn433 O457 2.215 . S
Mn433 O459 2.117 1_554 S
C434 O456 1.234 . S
C434 O457 1.283 . S
C435 O447 1.281 . S
C435 O448 1.236 . S
C436 O458 1.240 1_556 S
C436 O459 1.264 . S
O437 Mn432 2.095 . S
O437 C446 1.250 . S
O438 Mn433 2.121 . S
O438 C446 1.258 . S
C439 N440 1.326 . S
C439 C443 1.460 . S
C439 H445 0.929 . S
N440 Mn433 2.257 . S
N440 C439 1.326 . S
N440 C444 1.362 . S
C441 C442 1.258 . S
C441 C444 1.431 . S
C441 C461 1.449 . S
C442 C441 1.258 . S
C442 C443 1.477 . S
C442 H462 0.931 . S
C443 C439 1.460 . S
C443 C442 1.477 . S
C443 H463 0.930 . S
C444 N440 1.362 . S
C444 C441 1.431 . S
C444 C454 1.476 1_554 S
H445 C439 0.929 . S
C446 O437 1.250 . S
C446 O438 1.258 . S
O447 Mn432 2.162 . S
O447 C435 1.281 . S
O448 Mn432 2.297 . S
O448 C435 1.236 . S
N449 Mn433 2.282 1_556 S
N449 C450 1.328 . S
N449 C454 1.318 . S
C450 N449 1.328 . S
C450 C451 1.457 . S
C450 H455 0.929 . S
C451 C450 1.457 . S
C451 C452 1.291 . S
C451 H464 0.931 . S
C452 C451 1.291 . S
C452 C453 1.373 . S
C452 H465 0.929 . S
C453 C452 1.373 . S
C453 C454 1.396 . S
C453 C460 1.403 . S
C454 C444 1.476 1_556 S
C454 N449 1.318 . S
C454 C453 1.396 . S
H455 C450 0.929 . S
O456 Mn432 2.385 . S
O456 C434 1.234 . S
O457 Mn432 2.209 . S
O457 Mn433 2.215 . S
O457 C434 1.283 . S
O458 Mn432 2.094 . S
O458 C436 1.240 1_554 S
O459 Mn433 2.117 1_556 S
O459 C436 1.264 . S
C460 C453 1.403 . S
C460 C461 1.399 1_556 S
C460 H466 0.929 . S
C461 C441 1.449 . S
C461 C460 1.399 1_554 S
C461 H467 0.930 . S
H462 C442 0.931 . S
H463 C443 0.930 . S
H464 C451 0.931 . S
H465 C452 0.929 . S
H466 C460 0.929 . S
H467 C461 0.930 . S
Mn468 O473 2.095 . S
Mn468 O483 2.162 . S
Mn468 O484 2.297 . S
Mn468 O492 2.385 . S
Mn468 O493 2.209 . S
Mn468 O494 2.094 . S
Mn469 O474 2.121 . S
Mn469 N476 2.257 . S
Mn469 N485 2.270 1_554 S
Mn469 O493 2.215 . S
Mn469 O495 2.117 . S
C470 O492 1.234 . S
C470 O493 1.283 . S
C471 O483 1.281 . S
C471 O484 1.236 . S
C472 O494 1.240 . S
C472 O495 1.264 . S
O473 Mn468 2.095 . S
O473 C482 1.250 . S
O474 Mn469 2.121 . S
O474 C482 1.258 . S
C475 N476 1.326 . S
C475 C479 1.460 . S
C475 H481 0.929 . S
N476 Mn469 2.257 . S
N476 C475 1.326 . S
N476 C480 1.362 . S
C477 C478 1.258 . S
C477 C480 1.431 . S
C477 C497 1.449 1_554 S
C478 C477 1.258 . S
C478 C479 1.477 . S
C478 H498 0.931 1_545 S
C479 C475 1.460 . S
C479 C478 1.477 . S
C479 H499 0.930 . S
C480 N476 1.362 . S
C480 C477 1.431 . S
C480 C490 1.476 1_554 S
H481 C475 0.929 . S
C482 O473 1.250 . S
C482 O474 1.258 . S
O483 Mn468 2.162 . S
O483 C471 1.281 . S
O484 Mn468 2.297 . S
O484 C471 1.236 . S
N485 Mn469 2.270 1_556 S
N485 C486 1.342 . S
N485 C490 1.314 . S
C486 N485 1.342 . S
C486 C487 1.457 . S
C486 H491 0.929 . S
C487 C486 1.457 . S
C487 C488 1.291 . S
C487 H500 0.931 . S
C488 C487 1.291 . S
C488 C489 1.373 . S
C488 H501 0.929 . S
C489 C488 1.373 . S
C489 C490 1.396 . S
C489 C496 1.403 . S
C490 C480 1.476 1_556 S
C490 N485 1.314 . S
C490 C489 1.396 . S
H491 C486 0.929 . S
O492 Mn468 2.385 . S
O492 C470 1.234 . S
O493 Mn468 2.209 . S
O493 Mn469 2.215 . S
O493 C470 1.283 . S
O494 Mn468 2.094 . S
O494 C472 1.240 . S
O495 Mn469 2.117 . S
O495 C472 1.264 . S
C496 C489 1.403 . S
C496 C497 1.399 . S
C496 H502 0.929 . S
C497 C477 1.449 1_556 S
C497 C496 1.399 . S
C497 H503 0.930 . S
H498 C478 0.931 1_565 S
H499 C479 0.930 . S
H500 C487 0.931 . S
H501 C488 0.929 . S
H502 C496 0.929 . S
H503 C497 0.930 . S
Mn504 O509 2.095 . S
Mn504 O519 2.162 . S
Mn504 O520 2.297 . S
Mn504 O528 2.385 . S
Mn504 O529 2.209 . S
Mn504 O530 2.094 . S
Mn505 O510 2.121 . S
Mn505 N512 2.257 . S
Mn505 N521 2.282 . S
Mn505 O529 2.215 . S
Mn505 O531 2.117 . S
C506 O528 1.234 . S
C506 O529 1.283 . S
C507 O519 1.281 . S
C507 O520 1.236 . S
C508 O530 1.240 . S
C508 O531 1.264 . S
O509 Mn504 2.095 . S
O509 C518 1.250 . S
O510 Mn505 2.121 . S
O510 C518 1.258 . S
C511 N512 1.326 . S
C511 C515 1.460 . S
C511 H517 0.929 . S
N512 Mn505 2.257 . S
N512 C511 1.326 . S
N512 C516 1.362 . S
C513 C514 1.258 . S
C513 C516 1.431 . S
C513 C533 1.449 . S
C514 C513 1.258 . S
C514 C515 1.477 . S
C514 H534 0.931 . S
C515 C511 1.460 . S
C515 C514 1.477 . S
C515 H535 0.930 . S
C516 N512 1.362 . S
C516 C513 1.431 . S
C516 C526 1.476 . S
H517 C511 0.929 . S
C518 O509 1.250 . S
C518 O510 1.258 . S
O519 Mn504 2.162 . S
O519 C507 1.281 . S
O520 Mn504 2.297 . S
O520 C507 1.236 . S
N521 Mn505 2.282 . S
N521 C522 1.328 . S
N521 C526 1.318 . S
C522 N521 1.328 . S
C522 C523 1.457 . S
C522 H527 0.929 . S
C523 C522 1.457 . S
C523 C524 1.291 . S
C523 H536 0.931 . S
C524 C523 1.291 . S
C524 C525 1.373 . S
C524 H537 0.929 . S
C525 C524 1.373 . S
C525 C526 1.396 . S
C525 C532 1.403 . S
C526 C516 1.476 . S
C526 N521 1.318 . S
C526 C525 1.396 . S
H527 C522 0.929 . S
O528 Mn504 2.385 . S
O528 C506 1.234 . S
O529 Mn504 2.209 . S
O529 Mn505 2.215 . S
O529 C506 1.283 . S
O530 Mn504 2.094 . S
O530 C508 1.240 . S
O531 Mn505 2.117 . S
O531 C508 1.264 . S
C532 C525 1.403 . S
C532 C533 1.399 . S
C532 H538 0.929 . S
C533 C513 1.449 . S
C533 C532 1.399 . S
C533 H539 0.930 . S
H534 C514 0.931 . S
H535 C515 0.930 . S
H536 C523 0.931 . S
H537 C524 0.929 . S
H538 C532 0.929 . S
H539 C533 0.930 . S
Mn540 O545 2.095 . S
Mn540 O555 2.162 . S
Mn540 O556 2.297 . S
Mn540 O564 2.385 . S
Mn540 O565 2.209 . S
Mn540 O566 2.094 . S
Mn541 O546 2.121 . S
Mn541 N548 2.257 . S
Mn541 N557 2.282 . S
Mn541 O565 2.215 . S
Mn541 O567 2.117 . S
C542 O564 1.234 . S
C542 O565 1.283 . S
C543 O555 1.281 . S
C543 O556 1.236 . S
C544 O566 1.240 . S
C544 O567 1.264 . S
O545 Mn540 2.095 . S
O545 C554 1.250 . S
O546 Mn541 2.121 . S
O546 C554 1.258 . S
C547 N548 1.326 . S
C547 C551 1.460 . S
C547 H553 0.929 . S
N548 Mn541 2.257 . S
N548 C547 1.326 . S
N548 C552 1.362 . S
C549 C550 1.258 1_565 S
C549 C552 1.431 . S
C549 C569 1.449 . S
C550 C549 1.258 1_545 S
C550 C551 1.477 1_545 S
C550 H570 0.931 . S
C551 C547 1.460 . S
C551 C550 1.477 1_565 S
C551 H571 0.930 1_565 S
C552 N548 1.362 . S
C552 C549 1.431 . S
C552 C562 1.476 . S
H553 C547 0.929 . S
C554 O545 1.250 . S
C554 O546 1.258 . S
O555 Mn540 2.162 . S
O555 C543 1.281 . S
O556 Mn540 2.297 . S
O556 C543 1.236 . S
N557 Mn541 2.282 . S
N557 C558 1.328 . S
N557 C562 1.318 . S
C558 N557 1.328 . S
C558 C559 1.457 . S
C558 H563 0.929 . S
C559 C558 1.457 . S
C559 C560 1.291 . S
C559 H572 0.931 . S
C560 C559 1.291 . S
C560 C561 1.373 . S
C560 H573 0.929 . S
C561 C560 1.373 . S
C561 C562 1.396 . S
C561 C568 1.403 . S
C562 C552 1.476 . S
C562 N557 1.318 . S
C562 C561 1.396 . S
H563 C558 0.929 . S
O564 Mn540 2.385 . S
O564 C542 1.234 . S
O565 Mn540 2.209 . S
O565 Mn541 2.215 . S
O565 C542 1.283 . S
O566 Mn540 2.094 . S
O566 C544 1.240 . S
O567 Mn541 2.117 . S
O567 C544 1.264 . S
C568 C561 1.403 . S
C568 C569 1.399 . S
C568 H574 0.929 . S
C569 C549 1.449 . S
C569 C568 1.399 . S
C569 H575 0.930 1_565 S
H570 C550 0.931 . S
H571 C551 0.930 1_545 S
H572 C559 0.931 . S
H573 C560 0.929 . S
H574 C568 0.929 . S
H575 C569 0.930 1_545 S
Mn576 O581 2.095 . S
Mn576 O591 2.162 . S
Mn576 O592 2.297 . S
Mn576 O600 2.385 1_545 S
Mn576 O601 2.209 1_545 S
Mn576 O602 2.094 . S
Mn577 O582 2.121 . S
Mn577 N584 2.257 1_545 S
Mn577 N593 2.282 1_545 S
Mn577 O601 2.215 1_545 S
Mn577 O603 2.117 . S
C578 O600 1.234 . S
C578 O601 1.283 . S
C579 O591 1.281 . S
C579 O592 1.236 . S
C580 O602 1.240 . S
C580 O603 1.264 . S
O581 Mn576 2.095 . S
O581 C590 1.250 . S
O582 Mn577 2.121 . S
O582 C590 1.258 . S
C583 N584 1.326 1_545 S
C583 C587 1.460 1_545 S
C583 H589 0.929 . S
N584 Mn577 2.257 1_565 S
N584 C583 1.326 1_565 S
N584 C588 1.362 . S
C585 C586 1.258 . S
C585 C588 1.431 . S
C585 C605 1.449 . S
C586 C585 1.258 . S
C586 C587 1.477 . S
C586 H606 0.931 . S
C587 C583 1.460 1_565 S
C587 C586 1.477 . S
C587 H607 0.920 1_565 S
C588 N584 1.362 . S
C588 C585 1.431 . S
C588 C598 1.476 . S
H589 C583 0.929 . S
C590 O581 1.250 . S
C590 O582 1.258 . S
O591 Mn576 2.162 . S
O591 C579 1.281 . S
O592 Mn576 2.297 . S
O592 C579 1.236 . S
N593 Mn577 2.282 1_565 S
N593 C594 1.328 . S
N593 C598 1.318 . S
C594 N593 1.328 . S
C594 C595 1.457 . S
C594 H599 0.929 . S
C595 C594 1.457 . S
C595 C596 1.291 . S
C595 H608 0.931 . S
C596 C595 1.291 . S
C596 C597 1.373 . S
C596 H609 0.929 . S
C597 C596 1.373 . S
C597 C598 1.396 . S
C597 C604 1.403 . S
C598 C588 1.476 . S
C598 N593 1.318 . S
C598 C597 1.396 . S
H599 C594 0.929 . S
O600 Mn576 2.385 1_565 S
O600 C578 1.234 . S
O601 Mn576 2.209 1_565 S
O601 Mn577 2.215 1_565 S
O601 C578 1.283 . S
O602 Mn576 2.094 . S
O602 C580 1.240 . S
O603 Mn577 2.117 . S
O603 C580 1.264 . S
C604 C597 1.403 . S
C604 C605 1.399 . S
C604 H610 0.929 . S
C605 C585 1.449 . S
C605 C604 1.399 . S
C605 H611 0.930 . S
H606 C586 0.931 . S
H607 C587 0.920 1_545 S
H608 C595 0.931 . S
H609 C596 0.929 . S
H610 C604 0.929 . S
H611 C605 0.930 . S
Mn612 O617 2.095 . S
Mn612 O627 2.162 . S
Mn612 O628 2.297 . S
Mn612 O636 2.385 . S
Mn612 O637 2.209 . S
Mn612 O638 2.094 . S
Mn613 O618 2.121 . S
Mn613 N620 2.257 . S
Mn613 N629 2.282 . S
Mn613 O637 2.215 . S
Mn613 O639 2.117 . S
C614 O636 1.234 . S
C614 O637 1.283 . S
C615 O627 1.281 . S
C615 O628 1.236 . S
C616 O638 1.240 . S
C616 O639 1.264 . S
O617 Mn612 2.095 . S
O617 C626 1.250 . S
O618 Mn613 2.121 . S
O618 C626 1.258 . S
C619 N620 1.326 . S
C619 C623 1.460 . S
C619 H625 0.929 . S
N620 Mn613 2.257 . S
N620 C619 1.326 . S
N620 C624 1.362 . S
C621 C622 1.258 . S
C621 C624 1.431 . S
C621 C641 1.449 . S
C622 C621 1.258 . S
C622 C623 1.477 . S
C622 H642 0.931 . S
C623 C619 1.460 . S
C623 C622 1.477 . S
C623 H643 0.930 . S
C624 N620 1.362 . S
C624 C621 1.431 . S
C624 C634 1.476 . S
H625 C619 0.929 . S
C626 O617 1.250 . S
C626 O618 1.258 . S
O627 Mn612 2.162 . S
O627 C615 1.281 . S
O628 Mn612 2.297 . S
O628 C615 1.236 . S
N629 Mn613 2.282 . S
N629 C630 1.328 . S
N629 C634 1.318 . S
C630 N629 1.328 . S
C630 C631 1.457 . S
C630 H635 0.929 . S
C631 C630 1.457 . S
C631 C632 1.291 . S
C631 H644 0.931 . S
C632 C631 1.291 . S
C632 C633 1.373 . S
C632 H645 0.929 . S
C633 C632 1.373 . S
C633 C634 1.396 . S
C633 C640 1.403 . S
C634 C624 1.476 . S
C634 N629 1.318 . S
C634 C633 1.396 . S
H635 C630 0.929 . S
O636 Mn612 2.385 . S
O636 C614 1.234 . S
O637 Mn612 2.209 . S
O637 Mn613 2.215 . S
O637 C614 1.283 . S
O638 Mn612 2.094 . S
O638 C616 1.240 . S
O639 Mn613 2.117 . S
O639 C616 1.264 . S
C640 C633 1.403 . S
C640 C641 1.399 . S
C640 H646 0.929 . S
C641 C621 1.449 . S
C641 C640 1.399 . S
C641 H647 0.930 . S
H642 C622 0.931 . S
H643 C623 0.930 . S
H644 C631 0.931 . S
H645 C632 0.929 . S
H646 C640 0.929 . S
H647 C641 0.930 . S
Mn648 O653 2.095 . S
Mn648 O663 2.162 . S
Mn648 O664 2.297 . S
Mn648 O672 2.385 . S
Mn648 O673 2.209 . S
Mn648 O674 2.094 . S
Mn649 O654 2.121 . S
Mn649 N656 2.257 . S
Mn649 N665 2.282 . S
Mn649 O673 2.215 . S
Mn649 O675 2.117 . S
C650 O672 1.234 . S
C650 O673 1.283 . S
C651 O663 1.281 . S
C651 O664 1.236 . S
C652 O674 1.240 . S
C652 O675 1.264 . S
O653 Mn648 2.095 . S
O653 C662 1.250 . S
O654 Mn649 2.121 . S
O654 C662 1.258 . S
C655 N656 1.326 . S
C655 C659 1.460 . S
C655 H661 0.929 . S
N656 Mn649 2.257 . S
N656 C655 1.326 . S
N656 C660 1.362 . S
C657 C658 1.258 . S
C657 C660 1.431 . S
C657 C677 1.449 . S
C658 C657 1.258 . S
C658 C659 1.477 . S
C658 H678 0.931 . S
C659 C655 1.460 . S
C659 C658 1.477 . S
C659 H679 0.930 . S
C660 N656 1.362 . S
C660 C657 1.431 . S
C660 C670 1.476 . S
H661 C655 0.929 . S
C662 O653 1.250 . S
C662 O654 1.258 . S
O663 Mn648 2.162 . S
O663 C651 1.281 . S
O664 Mn648 2.297 . S
O664 C651 1.236 . S
N665 Mn649 2.282 . S
N665 C666 1.328 . S
N665 C670 1.318 . S
C666 N665 1.328 . S
C666 C667 1.457 . S
C666 H671 0.929 . S
C667 C666 1.457 . S
C667 C668 1.291 . S
C667 H680 0.931 . S
C668 C667 1.291 . S
C668 C669 1.373 . S
C668 H681 0.929 . S
C669 C668 1.373 . S
C669 C670 1.396 . S
C669 C676 1.403 . S
C670 C660 1.476 . S
C670 N665 1.318 . S
C670 C669 1.396 . S
H671 C666 0.929 . S
O672 Mn648 2.385 . S
O672 C650 1.234 . S
O673 Mn648 2.209 . S
O673 Mn649 2.215 . S
O673 C650 1.283 . S
O674 Mn648 2.094 . S
O674 C652 1.240 . S
O675 Mn649 2.117 . S
O675 C652 1.264 . S
C676 C669 1.403 . S
C676 C677 1.399 . S
C676 H682 0.929 . S
C677 C657 1.449 . S
C677 C676 1.399 . S
C677 H683 0.930 . S
H678 C658 0.931 . S
H679 C659 0.930 . S
H680 C667 0.931 . S
H681 C668 0.929 . S
H682 C676 0.929 . S
H683 C677 0.930 . S
Mn684 O689 2.095 . S
Mn684 O699 2.162 . S
Mn684 O700 2.297 . S
Mn684 O708 2.385 . S
Mn684 O709 2.209 . S
Mn684 O710 2.094 . S
Mn685 O690 2.121 . S
Mn685 N692 2.257 . S
Mn685 N701 2.282 . S
Mn685 O709 2.215 . S
Mn685 O711 2.117 . S
C686 O708 1.234 . S
C686 O709 1.283 . S
C687 O699 1.281 . S
C687 O700 1.236 . S
C688 O710 1.240 . S
C688 O711 1.264 . S
O689 Mn684 2.095 . S
O689 C698 1.250 . S
O690 Mn685 2.121 . S
O690 C698 1.258 . S
C691 N692 1.326 . S
C691 C695 1.460 . S
C691 H697 0.929 . S
N692 Mn685 2.257 . S
N692 C691 1.326 . S
N692 C696 1.362 . S
C693 C694 1.258 . S
C693 C696 1.431 . S
C693 C713 1.449 . S
C694 C693 1.258 . S
C694 C695 1.477 . S
C694 H714 0.931 . S
C695 C691 1.460 . S
C695 C694 1.477 . S
C695 H715 0.930 . S
C696 N692 1.362 . S
C696 C693 1.431 . S
C696 C706 1.476 . S
H697 C691 0.929 . S
C698 O689 1.250 . S
C698 O690 1.258 . S
O699 Mn684 2.162 . S
O699 C687 1.281 . S
O700 Mn684 2.297 . S
O700 C687 1.236 . S
N701 Mn685 2.282 . S
N701 C702 1.328 . S
N701 C706 1.318 . S
C702 N701 1.328 . S
C702 C703 1.457 . S
C702 H707 0.929 . S
C703 C702 1.457 . S
C703 C704 1.291 . S
C703 H716 0.931 . S
C704 C703 1.291 . S
C704 C705 1.373 . S
C704 H717 0.929 . S
C705 C704 1.373 . S
C705 C706 1.396 . S
C705 C712 1.403 . S
C706 C696 1.476 . S
C706 N701 1.318 . S
C706 C705 1.396 . S
H707 C702 0.929 . S
O708 Mn684 2.385 . S
O708 C686 1.234 . S
O709 Mn684 2.209 . S
O709 Mn685 2.215 . S
O709 C686 1.283 . S
O710 Mn684 2.094 . S
O710 C688 1.240 . S
O711 Mn685 2.117 . S
O711 C688 1.264 . S
C712 C705 1.403 . S
C712 C713 1.399 . S
C712 H718 0.929 . S
C713 C693 1.449 . S
C713 C712 1.399 . S
C713 H719 0.930 . S
H714 C694 0.931 . S
H715 C695 0.930 . S
H716 C703 0.931 . S
H717 C704 0.929 . S
H718 C712 0.929 . S
H719 C713 0.930 . S
Mn720 O725 2.095 . S
Mn720 O735 2.162 . S
Mn720 O736 2.297 . S
Mn720 O744 2.385 . S
Mn720 O745 2.209 . S
Mn720 O746 2.094 1_554 S
Mn721 O726 2.121 . S
Mn721 N728 2.257 . S
Mn721 N737 2.282 . S
Mn721 O745 2.215 1_556 S
Mn721 O747 2.117 . S
C722 O744 1.234 . S
C722 O745 1.283 . S
C723 O735 1.281 . S
C723 O736 1.236 . S
C724 O746 1.240 . S
C724 O747 1.264 . S
O725 Mn720 2.095 . S
O725 C734 1.250 . S
O726 Mn721 2.121 . S
O726 C734 1.258 1_556 S
C727 N728 1.326 . S
C727 C731 1.460 . S
C727 H733 0.929 . S
N728 Mn721 2.257 . S
N728 C727 1.326 . S
N728 C732 1.362 . S
C729 C730 1.258 . S
C729 C732 1.431 . S
C729 C749 1.449 . S
C730 C729 1.258 . S
C730 C731 1.477 . S
C730 H750 0.931 . S
C731 C727 1.460 . S
C731 C730 1.477 . S
C731 H751 0.930 . S
C732 N728 1.362 . S
C732 C729 1.431 . S
C732 C742 1.476 . S
H733 C727 0.929 . S
C734 O725 1.250 . S
C734 O726 1.258 1_554 S
O735 Mn720 2.162 . S
O735 C723 1.281 . S
O736 Mn720 2.297 . S
O736 C723 1.236 . S
N737 Mn721 2.282 . S
N737 C738 1.328 . S
N737 C742 1.318 . S
C738 N737 1.328 . S
C738 C739 1.457 . S
C738 H743 0.929 . S
C739 C738 1.457 . S
C739 C740 1.291 . S
C739 H752 0.931 . S
C740 C739 1.291 . S
C740 C741 1.373 . S
C740 H753 0.929 . S
C741 C740 1.373 . S
C741 C742 1.396 . S
C741 C748 1.403 . S
C742 C732 1.476 . S
C742 N737 1.318 . S
C742 C741 1.396 . S
H743 C738 0.929 . S
O744 Mn720 2.385 . S
O744 C722 1.234 . S
O745 Mn720 2.209 . S
O745 Mn721 2.215 1_554 S
O745 C722 1.283 . S
O746 Mn720 2.094 1_556 S
O746 C724 1.240 . S
O747 Mn721 2.117 . S
O747 C724 1.264 . S
C748 C741 1.403 . S
C748 C749 1.399 . S
C748 H754 0.929 . S
C749 C729 1.449 . S
C749 C748 1.399 . S
C749 H755 0.930 . S
H750 C730 0.931 . S
H751 C731 0.930 . S
H752 C739 0.931 . S
H753 C740 0.929 . S
H754 C748 0.929 . S
H755 C749 0.930 . S
Mn756 O761 2.095 . S
Mn756 O771 2.162 . S
Mn756 O772 2.297 . S
Mn756 O780 2.385 . S
Mn756 O781 2.209 . S
Mn756 O782 2.094 . S
Mn757 O762 2.121 . S
Mn757 N764 2.257 . S
Mn757 N773 2.282 . S
Mn757 O781 2.215 . S
Mn757 O783 2.117 . S
C758 O780 1.234 . S
C758 O781 1.283 . S
C759 O771 1.281 . S
C759 O772 1.236 . S
C760 O782 1.240 . S
C760 O783 1.264 . S
O761 Mn756 2.095 . S
O761 C770 1.250 . S
O762 Mn757 2.121 . S
O762 C770 1.258 . S
C763 N764 1.326 . S
C763 C767 1.460 . S
C763 H769 0.929 . S
N764 Mn757 2.257 . S
N764 C763 1.326 . S
N764 C768 1.362 . S
C765 C766 1.258 . S
C765 C768 1.431 . S
C765 C785 1.449 . S
C766 C765 1.258 . S
C766 C767 1.477 . S
C766 H786 0.931 . S
C767 C763 1.460 . S
C767 C766 1.477 . S
C767 H787 0.930 . S
C768 N764 1.362 . S
C768 C765 1.431 . S
C768 C778 1.476 . S
H769 C763 0.929 . S
C770 O761 1.250 . S
C770 O762 1.258 . S
O771 Mn756 2.162 . S
O771 C759 1.281 . S
O772 Mn756 2.297 . S
O772 C759 1.236 . S
N773 Mn757 2.282 . S
N773 C774 1.328 . S
N773 C778 1.318 . S
C774 N773 1.328 . S
C774 C775 1.457 . S
C774 H779 0.929 . S
C775 C774 1.457 . S
C775 C776 1.291 . S
C775 H788 0.931 . S
C776 C775 1.291 . S
C776 C777 1.373 . S
C776 H789 0.929 . S
C777 C776 1.373 . S
C777 C778 1.396 . S
C777 C784 1.403 . S
C778 C768 1.476 . S
C778 N773 1.318 . S
C778 C777 1.396 . S
H779 C774 0.929 . S
O780 Mn756 2.385 . S
O780 C758 1.234 . S
O781 Mn756 2.209 . S
O781 Mn757 2.215 . S
O781 C758 1.283 . S
O782 Mn756 2.094 . S
O782 C760 1.240 . S
O783 Mn757 2.117 . S
O783 C760 1.264 . S
C784 C777 1.403 . S
C784 C785 1.399 . S
C784 H790 0.929 . S
C785 C765 1.449 . S
C785 C784 1.399 . S
C785 H791 0.930 . S
H786 C766 0.931 . S
H787 C767 0.930 . S
H788 C775 0.931 . S
H789 C776 0.929 . S
H790 C784 0.929 . S
H791 C785 0.930 . S
Mn792 O797 2.095 . S
Mn792 O807 2.162 . S
Mn792 O808 2.297 . S
Mn792 O816 2.385 . S
Mn792 O817 2.209 . S
Mn792 O818 2.094 . S
Mn793 O798 2.121 . S
Mn793 N800 2.257 . S
Mn793 N809 2.282 . S
Mn793 O817 2.215 . S
Mn793 O819 2.117 . S
C794 O816 1.234 . S
C794 O817 1.283 . S
C795 O807 1.281 . S
C795 O808 1.236 . S
C796 O818 1.240 . S
C796 O819 1.264 . S
O797 Mn792 2.095 . S
O797 C806 1.250 . S
O798 Mn793 2.121 . S
O798 C806 1.258 . S
C799 N800 1.326 . S
C799 C803 1.460 . S
C799 H805 0.929 . S
N800 Mn793 2.257 . S
N800 C799 1.326 . S
N800 C804 1.362 . S
C801 C802 1.258 . S
C801 C804 1.431 . S
C801 C821 1.449 . S
C802 C801 1.258 . S
C802 C803 1.477 . S
C802 H822 0.931 . S
C803 C799 1.460 . S
C803 C802 1.477 . S
C803 H823 0.930 . S
C804 N800 1.362 . S
C804 C801 1.431 . S
C804 C814 1.476 . S
H805 C799 0.929 . S
C806 O797 1.250 . S
C806 O798 1.258 . S
O807 Mn792 2.162 . S
O807 C795 1.281 . S
O808 Mn792 2.297 . S
O808 C795 1.236 . S
N809 Mn793 2.282 . S
N809 C810 1.328 . S
N809 C814 1.318 . S
C810 N809 1.328 . S
C810 C811 1.457 . S
C810 H815 0.929 . S
C811 C810 1.457 . S
C811 C812 1.291 . S
C811 H824 0.931 . S
C812 C811 1.291 . S
C812 C813 1.373 . S
C812 H825 0.929 . S
C813 C812 1.373 . S
C813 C814 1.396 . S
C813 C820 1.403 . S
C814 C804 1.476 . S
C814 N809 1.318 . S
C814 C813 1.396 . S
H815 C810 0.929 . S
O816 Mn792 2.385 . S
O816 C794 1.234 . S
O817 Mn792 2.209 . S
O817 Mn793 2.215 . S
O817 C794 1.283 . S
O818 Mn792 2.094 . S
O818 C796 1.240 . S
O819 Mn793 2.117 . S
O819 C796 1.264 . S
C820 C813 1.403 . S
C820 C821 1.399 . S
C820 H826 0.929 . S
C821 C801 1.449 . S
C821 C820 1.399 . S
C821 H827 0.930 . S
H822 C802 0.931 . S
H823 C803 0.930 . S
H824 C811 0.931 . S
H825 C812 0.929 . S
H826 C820 0.929 . S
H827 C821 0.930 . S
Mn828 O833 2.095 . S
Mn828 O843 2.162 . S
Mn828 O844 2.297 . S
Mn828 O852 2.385 . S
Mn828 O853 2.209 . S
Mn828 O854 2.094 . S
Mn829 O834 2.121 . S
Mn829 N836 2.257 . S
Mn829 N845 2.282 . S
Mn829 O853 2.215 . S
Mn829 O855 2.117 . S
C830 O852 1.234 . S
C830 O853 1.283 . S
C831 O843 1.281 . S
C831 O844 1.236 . S
C832 O854 1.240 . S
C832 O855 1.264 . S
O833 Mn828 2.095 . S
O833 C842 1.250 . S
O834 Mn829 2.121 . S
O834 C842 1.258 . S
C835 N836 1.326 . S
C835 C839 1.460 . S
C835 H841 0.929 . S
N836 Mn829 2.257 . S
N836 C835 1.326 . S
N836 C840 1.362 . S
C837 C838 1.258 . S
C837 C840 1.431 . S
C837 C857 1.449 . S
C838 C837 1.258 . S
C838 C839 1.477 . S
C838 H858 0.931 . S
C839 C835 1.460 . S
C839 C838 1.477 . S
C839 H859 0.930 . S
C840 N836 1.362 . S
C840 C837 1.431 . S
C840 C850 1.476 . S
H841 C835 0.929 . S
C842 O833 1.250 . S
C842 O834 1.258 . S
O843 Mn828 2.162 . S
O843 C831 1.281 . S
O844 Mn828 2.297 . S
O844 C831 1.236 . S
N845 Mn829 2.282 . S
N845 C846 1.328 . S
N845 C850 1.318 . S
C846 N845 1.328 . S
C846 C847 1.457 . S
C846 H851 0.929 . S
C847 C846 1.457 . S
C847 C848 1.291 . S
C847 H860 0.931 . S
C848 C847 1.291 . S
C848 C849 1.373 . S
C848 H861 0.929 . S
C849 C848 1.373 . S
C849 C850 1.396 . S
C849 C856 1.403 . S
C850 C840 1.476 . S
C850 N845 1.318 . S
C850 C849 1.396 . S
H851 C846 0.929 . S
O852 Mn828 2.385 . S
O852 C830 1.234 . S
O853 Mn828 2.209 . S
O853 Mn829 2.215 . S
O853 C830 1.283 . S
O854 Mn828 2.094 . S
O854 C832 1.240 . S
O855 Mn829 2.117 . S
O855 C832 1.264 . S
C856 C849 1.403 . S
C856 C857 1.399 . S
C856 H862 0.929 . S
C857 C837 1.449 . S
C857 C856 1.399 . S
C857 H863 0.930 . S
H858 C838 0.931 . S
H859 C839 0.930 . S
H860 C847 0.931 . S
H861 C848 0.929 . S
H862 C856 0.929 . S
H863 C857 0.930 . S
Eu864 N893 2.600 . S
Eu864 N899 2.562 . S
Eu864 O908 2.462 . S
Eu864 O909 2.373 . S
Eu864 O911 2.432 . S
Eu864 O912 2.291 . S
Eu864 O916 2.335 1_545 S
Eu864 O919 2.372 . S
Eu864 C928 2.787 . S
C865 N866 1.365 . S
C865 C868 1.405 . S
C865 C872 1.448 1_556 S
N866 C865 1.365 . S
N866 C869 1.319 . S
N866 Eu875 2.600 1_566 S
C867 C869 1.397 . S
C867 C870 1.367 . S
C867 H887 0.931 . S
C868 C865 1.405 . S
C868 C870 1.403 . S
C868 C874 1.439 . S
C869 N866 1.319 . S
C869 C867 1.397 . S
C869 H880 0.930 . S
C870 C867 1.367 . S
C870 C868 1.403 . S
C870 H891 0.929 . S
C871 C872 1.430 . S
C871 C873 1.387 1_554 S
C871 C877 1.404 . S
C872 C865 1.448 1_554 S
C872 C871 1.430 . S
C872 N876 1.351 . S
C873 C871 1.387 1_556 S
C873 C874 1.374 . S
C873 H888 0.931 . S
C874 C868 1.439 . S
C874 C873 1.374 . S
C874 H889 0.931 . S
Eu875 N866 2.600 1_544 S
Eu875 N876 2.562 1_545 S
Eu875 O910 2.335 1_655 S
Eu875 O913 2.372 1_654 S
Eu875 O914 2.462 . S
Eu875 O915 2.373 1_645 S
Eu875 O917 2.432 1_554 S
Eu875 O918 2.291 1_655 S
Eu875 C939 2.787 . S
N876 C872 1.351 . S
N876 Eu875 2.562 1_565 S
N876 C878 1.325 . S
C877 C871 1.404 . S
C877 C879 1.366 . S
C877 H885 0.930 . S
C878 N876 1.325 . S
C878 C879 1.416 . S
C878 H884 0.929 . S
C879 C877 1.366 . S
C879 C878 1.416 . S
C879 H881 0.930 . S
H880 C869 0.930 . S
H881 C879 0.930 . S
H882 C897 0.930 . S
H883 C904 0.930 1_556 S
H884 C878 0.929 . S
H885 C877 0.930 . S
H886 C900 0.903 1_556 S
H887 C867 0.931 . S
H888 C873 0.931 . S
H889 C874 0.931 . S
H890 C895 0.931 . S
H891 C870 0.929 . S
H892 C903 0.930 . S
N893 Eu864 2.600 . S
N893 C894 1.365 . S
N893 C897 1.319 . S
C894 N893 1.365 . S
C894 C896 1.405 . S
C894 C902 1.448 . S
C895 H890 0.931 . S
C895 C897 1.397 . S
C895 C898 1.367 . S
C896 C894 1.405 . S
C896 C898 1.403 . S
C896 C929 1.439 . S
C897 H882 0.930 . S
C897 N893 1.319 . S
C897 C895 1.397 . S
C898 C895 1.367 . S
C898 C896 1.403 . S
C898 H905 0.929 . S
N899 Eu864 2.562 . S
N899 C900 1.325 . S
N899 C902 1.351 . S
C900 H886 0.903 1_554 S
C900 N899 1.325 . S
C900 C904 1.416 . S
C901 C902 1.430 . S
C901 C903 1.404 . S
C901 C930 1.387 . S
C902 C894 1.448 . S
C902 N899 1.351 . S
C902 C901 1.430 . S
C903 H892 0.930 . S
C903 C901 1.404 . S
C903 C904 1.366 . S
C904 H883 0.930 1_554 S
C904 C900 1.416 . S
C904 C903 1.366 . S
H905 C898 0.929 . S
H906 C929 0.931 . S
H907 C930 0.931 . S
O908 Eu864 2.462 . S
O908 C928 1.252 . S
O909 Eu864 2.373 . S
O909 C920 1.249 . S
O910 Eu875 2.335 1_455 S
O910 C920 1.264 . S
O911 Eu864 2.432 . S
O911 C928 1.268 . S
O912 Eu864 2.291 . S
O912 C927 1.255 1_554 S
O913 Eu875 2.372 1_456 S
O913 C927 1.257 . S
O914 Eu875 2.462 . S
O914 C939 1.252 . S
O915 Eu875 2.373 1_465 S
O915 C931 1.249 . S
O916 Eu864 2.335 1_565 S
O916 C931 1.264 . S
O917 Eu875 2.432 1_556 S
O917 C939 1.268 1_556 S
O918 Eu875 2.291 1_455 S
O918 C938 1.255 . S
O919 Eu864 2.372 . S
O919 C938 1.257 . S
C920 O909 1.249 . S
C920 O910 1.264 . S
C921 C924 1.382 . S
C921 C926 1.390 . S
C921 C928 1.506 . S
C922 C923 1.408 . S
C922 C926 1.390 . S
C923 C922 1.408 . S
C923 C925 1.387 . S
C923 H940 0.909 1_545 S
C924 C921 1.382 . S
C924 C925 1.390 . S
C924 H941 0.931 . S
C925 C923 1.387 . S
C925 C924 1.390 . S
C925 H942 0.929 . S
C926 C921 1.390 . S
C926 C922 1.390 . S
C926 H943 0.930 . S
C927 O912 1.255 1_556 S
C927 O913 1.257 . S
C928 Eu864 2.787 . S
C928 O908 1.252 . S
C928 O911 1.268 . S
C928 C921 1.506 . S
C929 C896 1.439 . S
C929 H906 0.931 . S
C929 C930 1.374 . S
C930 C901 1.387 . S
C930 H907 0.931 . S
C930 C929 1.374 . S
C931 O915 1.249 . S
C931 O916 1.264 . S
C932 C935 1.382 . S
C932 C936 1.390 1_556 S
C932 C939 1.506 1_556 S
C933 C934 1.398 1_554 S
C933 C936 1.392 . S
C934 C933 1.398 1_556 S
C934 C937 1.372 . S
C934 H944 0.931 . S
C935 C932 1.382 . S
C935 C937 1.390 . S
C935 H945 0.931 . S
C936 C932 1.390 1_554 S
C936 C933 1.392 . S
C936 H946 0.930 . S
C937 C934 1.372 . S
C937 C935 1.390 . S
C937 H947 0.929 . S
C938 O918 1.255 . S
C938 O919 1.257 . S
C939 Eu875 2.787 . S
C939 O914 1.252 . S
C939 O917 1.268 1_554 S
C939 C932 1.506 1_554 S
H940 C923 0.909 1_565 S
H941 C924 0.931 . S
H942 C925 0.929 . S
H943 C926 0.930 . S
H944 C934 0.931 . S
H945 C935 0.931 . S
H946 C936 0.930 . S
H947 C937 0.929 . S
Eu948 N977 2.600 . S
Eu948 N983 2.562 . S
Eu948 O992 2.462 . S
Eu948 O993 2.373 . S
Eu948 O995 2.432 . S
Eu948 O996 2.291 . S
Eu948 O1000 2.335 . S
Eu948 O1003 2.372 . S
Eu948 C1012 2.787 . S
C949 N950 1.365 . S
C949 C952 1.405 . S
C949 C956 1.448 . S
N950 C949 1.365 . S
N950 C953 1.319 . S
N950 Eu959 2.600 . S
C951 C953 1.397 . S
C951 C954 1.367 . S
C951 H971 0.931 . S
C952 C949 1.405 . S
C952 C954 1.403 . S
C952 C958 1.439 . S
C953 N950 1.319 . S
C953 C951 1.397 . S
C953 H964 0.930 . S
C954 C951 1.367 . S
C954 C952 1.403 . S
C954 H975 0.929 . S
C955 C956 1.430 . S
C955 C957 1.387 . S
C955 C961 1.404 . S
C956 C949 1.448 . S
C956 C955 1.430 . S
C956 N960 1.351 . S
C957 C955 1.387 . S
C957 C958 1.374 . S
C957 H972 0.931 . S
C958 C952 1.439 . S
C958 C957 1.374 . S
C958 H973 0.931 . S
Eu959 N950 2.600 . S
Eu959 N960 2.562 . S
Eu959 O994 2.335 . S
Eu959 O997 2.372 . S
Eu959 O998 2.462 . S
Eu959 O999 2.373 . S
Eu959 O1001 2.432 . S
Eu959 O1002 2.291 . S
Eu959 C1023 2.787 . S
N960 C956 1.351 . S
N960 Eu959 2.562 . S
N960 C962 1.325 . S
C961 C955 1.404 . S
C961 C963 1.366 . S
C961 H969 0.930 . S
C962 N960 1.325 . S
C962 C963 1.416 . S
C962 H968 0.929 . S
C963 C961 1.366 . S
C963 C962 1.416 . S
C963 H965 0.930 . S
H964 C953 0.930 . S
H965 C963 0.930 . S
H966 C981 0.930 . S
H967 C988 0.930 . S
H968 C962 0.929 . S
H969 C961 0.930 . S
H970 C984 0.929 . S
H971 C951 0.931 . S
H972 C957 0.931 . S
H973 C958 0.931 . S
H974 C979 0.931 . S
H975 C954 0.929 . S
H976 C987 0.930 . S
N977 Eu948 2.600 . S
N977 C978 1.365 . S
N977 C981 1.319 . S
C978 N977 1.365 . S
C978 C980 1.405 . S
C978 C986 1.448 . S
C979 H974 0.931 . S
C979 C981 1.397 . S
C979 C982 1.367 . S
C980 C978 1.405 . S
C980 C982 1.403 . S
C980 C1013 1.439 . S
C981 H966 0.930 . S
C981 N977 1.319 . S
C981 C979 1.397 . S
C982 C979 1.367 . S
C982 C980 1.403 . S
C982 H989 0.929 . S
N983 Eu948 2.562 . S
N983 C984 1.325 . S
N983 C986 1.351 . S
C984 H970 0.929 . S
C984 N983 1.325 . S
C984 C988 1.416 . S
C985 C986 1.430 . S
C985 C987 1.404 . S
C985 C1014 1.387 . S
C986 C978 1.448 . S
C986 N983 1.351 . S
C986 C985 1.430 . S
C987 H976 0.930 . S
C987 C985 1.404 . S
C987 C988 1.366 . S
C988 H967 0.930 . S
C988 C984 1.416 . S
C988 C987 1.366 . S
H989 C982 0.929 . S
H990 C1013 0.931 . S
H991 C1014 0.931 . S
O992 Eu948 2.462 . S
O992 C1012 1.252 . S
O993 Eu948 2.373 . S
O993 C1004 1.249 . S
O994 Eu959 2.335 . S
O994 C1004 1.264 . S
O995 Eu948 2.432 . S
O995 C1012 1.268 . S
O996 Eu948 2.291 . S
O996 C1011 1.255 . S
O997 Eu959 2.372 . S
O997 C1011 1.257 . S
O998 Eu959 2.462 . S
O998 C1023 1.252 . S
O999 Eu959 2.373 . S
O999 C1015 1.249 . S
O1000 Eu948 2.335 . S
O1000 C1015 1.264 . S
O1001 Eu959 2.432 . S
O1001 C1023 1.268 . S
O1002 Eu959 2.291 . S
O1002 C1022 1.255 . S
O1003 Eu948 2.372 . S
O1003 C1022 1.257 . S
C1004 O993 1.249 . S
C1004 O994 1.264 . S
C1005 C1008 1.382 . S
C1005 C1010 1.390 . S
C1005 C1012 1.506 . S
C1006 C1007 1.398 . S
C1006 C1010 1.392 . S
C1007 C1006 1.398 . S
C1007 C1009 1.372 . S
C1007 H1024 0.931 . S
C1008 C1005 1.382 . S
C1008 C1009 1.390 . S
C1008 H1025 0.931 . S
C1009 C1007 1.372 . S
C1009 C1008 1.390 . S
C1009 H1026 0.929 . S
C1010 C1005 1.390 . S
C1010 C1006 1.392 . S
C1010 H1027 0.930 . S
C1011 O996 1.255 . S
C1011 O997 1.257 . S
C1012 Eu948 2.787 . S
C1012 O992 1.252 . S
C1012 O995 1.268 . S
C1012 C1005 1.506 . S
C1013 C980 1.439 . S
C1013 H990 0.931 . S
C1013 C1014 1.374 . S
C1014 C985 1.387 . S
C1014 H991 0.931 . S
C1014 C1013 1.374 . S
C1015 O999 1.249 . S
C1015 O1000 1.264 . S
C1016 C1019 1.382 . S
C1016 C1020 1.390 . S
C1016 C1023 1.506 . S
C1017 C1018 1.398 . S
C1017 C1020 1.392 . S
C1018 C1017 1.398 . S
C1018 C1021 1.372 . S
C1018 H1028 0.931 . S
C1019 C1016 1.382 . S
C1019 C1021 1.390 . S
C1019 H1029 0.931 . S
C1020 C1016 1.390 . S
C1020 C1017 1.392 . S
C1020 H1030 0.930 . S
C1021 C1018 1.372 . S
C1021 C1019 1.390 . S
C1021 H1031 0.929 . S
C1022 O1002 1.255 . S
C1022 O1003 1.257 . S
C1023 Eu959 2.787 . S
C1023 O998 1.252 . S
C1023 O1001 1.268 . S
C1023 C1016 1.506 . S
H1024 C1007 0.931 . S
H1025 C1008 0.931 . S
H1026 C1009 0.929 . S
H1027 C1010 0.930 . S
H1028 C1018 0.931 . S
H1029 C1019 0.931 . S
H1030 C1020 0.930 . S
H1031 C1021 0.929 . S
Eu1032 N1061 2.600 . S
Eu1032 N1067 2.562 1_545 S
Eu1032 O1076 2.462 . S
Eu1032 O1077 2.373 1_545 S
Eu1032 O1079 2.432 . S
Eu1032 O1080 2.291 . S
Eu1032 O1084 2.335 . S
Eu1032 O1087 2.372 . S
Eu1032 C1096 2.787 . S
C1033 N1034 1.365 . S
C1033 C1036 1.405 . S
C1033 C1040 1.448 . S
N1034 C1033 1.365 . S
N1034 C1037 1.319 . S
N1034 Eu1043 2.600 . S
C1035 C1037 1.397 . S
C1035 C1038 1.367 . S
C1035 H1055 0.931 . S
C1036 C1033 1.405 . S
C1036 C1038 1.403 . S
C1036 C1042 1.439 . S
C1037 N1034 1.319 . S
C1037 C1035 1.397 . S
C1037 H1048 0.930 . S
C1038 C1035 1.367 . S
C1038 C1036 1.403 . S
C1038 H1059 0.929 . S
C1039 C1040 1.430 . S
C1039 C1041 1.387 . S
C1039 C1045 1.404 . S
C1040 C1033 1.448 . S
C1040 C1039 1.430 . S
C1040 N1044 1.351 . S
C1041 C1039 1.387 . S
C1041 C1042 1.374 . S
C1041 H1056 0.931 . S
C1042 C1036 1.439 . S
C1042 C1041 1.374 . S
C1042 H1057 0.931 . S
Eu1043 N1034 2.600 . S
Eu1043 N1044 2.562 . S
Eu1043 O1078 2.335 . S
Eu1043 O1081 2.372 . S
Eu1043 O1082 2.462 . S
Eu1043 O1083 2.373 . S
Eu1043 O1085 2.432 . S
Eu1043 O1086 2.291 . S
Eu1043 C1107 2.787 . S
N1044 C1040 1.351 . S
N1044 Eu1043 2.562 . S
N1044 C1046 1.325 . S
C1045 C1039 1.404 . S
C1045 C1047 1.366 . S
C1045 H1053 0.930 . S
C1046 N1044 1.325 . S
C1046 C1047 1.416 . S
C1046 H1052 0.929 . S
C1047 C1045 1.366 . S
C1047 C1046 1.416 . S
C1047 H1049 0.930 . S
H1048 C1037 0.930 . S
H1049 C1047 0.930 . S
H1050 C1065 0.930 . S
H1051 C1072 0.930 . S
H1052 C1046 0.929 . S
H1053 C1045 0.930 . S
H1054 C1068 0.929 1_545 S
H1055 C1035 0.931 . S
H1056 C1041 0.931 . S
H1057 C1042 0.931 . S
H1058 C1063 0.931 . S
H1059 C1038 0.929 . S
H1060 C1071 0.930 . S
N1061 Eu1032 2.600 . S
N1061 C1062 1.365 1_545 S
N1061 C1065 1.319 . S
C1062 N1061 1.365 1_565 S
C1062 C1064 1.405 . S
C1062 C1070 1.448 . S
C1063 H1058 0.931 . S
C1063 C1065 1.397 1_565 S
C1063 C1066 1.367 . S
C1064 C1062 1.405 . S
C1064 C1066 1.403 . S
C1064 C1097 1.439 . S
C1065 H1050 0.930 . S
C1065 N1061 1.319 . S
C1065 C1063 1.397 1_545 S
C1066 C1063 1.367 . S
C1066 C1064 1.403 . S
C1066 H1073 0.929 . S
N1067 Eu1032 2.562 1_565 S
N1067 C1068 1.325 . S
N1067 C1070 1.351 . S
C1068 H1054 0.929 1_565 S
C1068 N1067 1.325 . S
C1068 C1072 1.416 . S
C1069 C1070 1.430 . S
C1069 C1071 1.404 . S
C1069 C1098 1.387 . S
C1070 C1062 1.448 . S
C1070 N1067 1.351 . S
C1070 C1069 1.430 . S
C1071 H1060 0.930 . S
C1071 C1069 1.404 . S
C1071 C1072 1.366 . S
C1072 H1051 0.930 . S
C1072 C1068 1.416 . S
C1072 C1071 1.366 . S
H1073 C1066 0.929 . S
H1074 C1097 0.931 . S
H1075 C1098 0.931 . S
O1076 Eu1032 2.462 . S
O1076 C1096 1.252 . S
O1077 Eu1032 2.373 1_565 S
O1077 C1088 1.249 . S
O1078 Eu1043 2.335 . S
O1078 C1088 1.264 1_545 S
O1079 Eu1032 2.432 . S
O1079 C1096 1.268 . S
O1080 Eu1032 2.291 . S
O1080 C1095 1.255 . S
O1081 Eu1043 2.372 . S
O1081 C1095 1.257 . S
O1082 Eu1043 2.462 . S
O1082 C1107 1.252 . S
O1083 Eu1043 2.373 . S
O1083 C1099 1.249 . S
O1084 Eu1032 2.335 . S
O1084 C1099 1.264 . S
O1085 Eu1043 2.432 . S
O1085 C1107 1.268 . S
O1086 Eu1043 2.291 . S
O1086 C1106 1.255 . S
O1087 Eu1032 2.372 . S
O1087 C1106 1.257 . S
C1088 O1077 1.249 . S
C1088 O1078 1.264 1_565 S
C1089 C1092 1.382 . S
C1089 C1094 1.390 . S
C1089 C1096 1.506 . S
C1090 C1091 1.398 . S
C1090 C1094 1.392 . S
C1091 C1090 1.398 . S
C1091 C1093 1.372 . S
C1091 H1108 0.931 . S
C1092 C1089 1.382 . S
C1092 C1093 1.390 . S
C1092 H1109 0.931 . S
C1093 C1091 1.372 . S
C1093 C1092 1.390 . S
C1093 H1110 0.929 . S
C1094 C1089 1.390 . S
C1094 C1090 1.392 . S
C1094 H1111 0.930 . S
C1095 O1080 1.255 . S
C1095 O1081 1.257 . S
C1096 Eu1032 2.787 . S
C1096 O1076 1.252 . S
C1096 O1079 1.268 . S
C1096 C1089 1.506 . S
C1097 C1064 1.439 . S
C1097 H1074 0.931 . S
C1097 C1098 1.374 . S
C1098 C1069 1.387 . S
C1098 H1075 0.931 . S
C1098 C1097 1.374 . S
C1099 O1083 1.249 . S
C1099 O1084 1.264 . S
C1100 C1103 1.382 1_545 S
C1100 C1104 1.390 1_545 S
C1100 C1107 1.506 . S
C1101 C1102 1.398 . S
C1101 C1104 1.392 . S
C1102 C1101 1.398 . S
C1102 C1105 1.372 . S
C1102 H1112 0.931 . S
C1103 C1100 1.382 1_565 S
C1103 C1105 1.390 . S
C1103 H1113 0.931 1_565 S
C1104 C1100 1.390 1_565 S
C1104 C1101 1.392 . S
C1104 H1114 0.930 . S
C1105 C1102 1.372 . S
C1105 C1103 1.390 . S
C1105 H1115 0.929 . S
C1106 O1086 1.255 . S
C1106 O1087 1.257 . S
C1107 Eu1043 2.787 . S
C1107 O1082 1.252 . S
C1107 O1085 1.268 . S
C1107 C1100 1.506 . S
H1108 C1091 0.931 . S
H1109 C1092 0.931 . S
H1110 C1093 0.929 . S
H1111 C1094 0.930 . S
H1112 C1102 0.931 . S
H1113 C1103 0.931 1_545 S
H1114 C1104 0.930 . S
H1115 C1105 0.929 . S
Eu1116 N1145 2.600 . S
Eu1116 N1151 2.562 . S
Eu1116 O1160 2.462 . S
Eu1116 O1161 2.373 . S
Eu1116 O1163 2.432 . S
Eu1116 O1164 2.291 . S
Eu1116 O1168 2.335 . S
Eu1116 O1171 2.372 . S
Eu1116 C1180 2.787 . S
C1117 N1118 1.365 . S
C1117 C1120 1.405 . S
C1117 C1124 1.448 . S
N1118 C1117 1.365 . S
N1118 C1121 1.319 . S
N1118 Eu1127 2.600 . S
C1119 C1121 1.397 . S
C1119 C1122 1.367 . S
C1119 H1139 0.931 . S
C1120 C1117 1.405 . S
C1120 C1122 1.403 . S
C1120 C1126 1.439 . S
C1121 N1118 1.319 . S
C1121 C1119 1.397 . S
C1121 H1132 0.930 . S
C1122 C1119 1.367 . S
C1122 C1120 1.403 . S
C1122 H1143 0.929 . S
C1123 C1124 1.430 . S
C1123 C1125 1.387 . S
C1123 C1129 1.404 . S
C1124 C1117 1.448 . S
C1124 C1123 1.430 . S
C1124 N1128 1.351 . S
C1125 C1123 1.387 . S
C1125 C1126 1.374 . S
C1125 H1140 0.931 . S
C1126 C1120 1.439 . S
C1126 C1125 1.374 . S
C1126 H1141 0.931 . S
Eu1127 N1118 2.600 . S
Eu1127 N1128 2.562 . S
Eu1127 O1162 2.335 . S
Eu1127 O1165 2.372 . S
Eu1127 O1166 2.462 . S
Eu1127 O1167 2.373 . S
Eu1127 O1169 2.432 . S
Eu1127 O1170 2.291 . S
Eu1127 C1191 2.787 . S
N1128 C1124 1.351 . S
N1128 Eu1127 2.562 . S
N1128 C1130 1.325 . S
C1129 C1123 1.404 . S
C1129 C1131 1.366 . S
C1129 H1137 0.930 . S
C1130 N1128 1.325 . S
C1130 C1131 1.416 . S
C1130 H1136 0.929 . S
C1131 C1129 1.366 . S
C1131 C1130 1.416 . S
C1131 H1133 0.930 . S
H1132 C1121 0.930 . S
H1133 C1131 0.930 . S
H1134 C1149 0.930 . S
H1135 C1156 0.930 . S
H1136 C1130 0.929 . S
H1137 C1129 0.930 . S
H1138 C1152 0.929 . S
H1139 C1119 0.931 . S
H1140 C1125 0.931 . S
H1141 C1126 0.931 . S
H1142 C1147 0.931 . S
H1143 C1122 0.929 . S
H1144 C1155 0.930 . S
N1145 Eu1116 2.600 . S
N1145 C1146 1.365 . S
N1145 C1149 1.319 . S
C1146 N1145 1.365 . S
C1146 C1148 1.405 . S
C1146 C1154 1.448 . S
C1147 H1142 0.931 . S
C1147 C1149 1.397 . S
C1147 C1150 1.367 . S
C1148 C1146 1.405 . S
C1148 C1150 1.403 . S
C1148 C1181 1.439 . S
C1149 H1134 0.930 . S
C1149 N1145 1.319 . S
C1149 C1147 1.397 . S
C1150 C1147 1.367 . S
C1150 C1148 1.403 . S
C1150 H1157 0.929 . S
N1151 Eu1116 2.562 . S
N1151 C1152 1.325 . S
N1151 C1154 1.351 . S
C1152 H1138 0.929 . S
C1152 N1151 1.325 . S
C1152 C1156 1.416 . S
C1153 C1154 1.430 . S
C1153 C1155 1.404 . S
C1153 C1182 1.387 . S
C1154 C1146 1.448 . S
C1154 N1151 1.351 . S
C1154 C1153 1.430 . S
C1155 H1144 0.930 . S
C1155 C1153 1.404 . S
C1155 C1156 1.366 . S
C1156 H1135 0.930 . S
C1156 C1152 1.416 . S
C1156 C1155 1.366 . S
H1157 C1150 0.929 . S
H1158 C1181 0.931 . S
H1159 C1182 0.931 . S
O1160 Eu1116 2.462 . S
O1160 C1180 1.252 . S
O1161 Eu1116 2.373 . S
O1161 C1172 1.249 . S
O1162 Eu1127 2.335 . S
O1162 C1172 1.264 . S
O1163 Eu1116 2.432 . S
O1163 C1180 1.268 . S
O1164 Eu1116 2.291 . S
O1164 C1179 1.255 . S
O1165 Eu1127 2.372 . S
O1165 C1179 1.257 . S
O1166 Eu1127 2.462 . S
O1166 C1191 1.252 . S
O1167 Eu1127 2.373 . S
O1167 C1183 1.249 . S
O1168 Eu1116 2.335 . S
O1168 C1183 1.264 . S
O1169 Eu1127 2.432 . S
O1169 C1191 1.268 . S
O1170 Eu1127 2.291 . S
O1170 C1190 1.255 . S
O1171 Eu1116 2.372 . S
O1171 C1190 1.257 . S
C1172 O1161 1.249 . S
C1172 O1162 1.264 . S
C1173 C1176 1.382 . S
C1173 C1178 1.390 . S
C1173 C1180 1.506 . S
C1174 C1175 1.398 . S
C1174 C1178 1.392 . S
C1175 C1174 1.398 . S
C1175 C1177 1.372 . S
C1175 H1192 0.931 . S
C1176 C1173 1.382 . S
C1176 C1177 1.390 . S
C1176 H1193 0.931 . S
C1177 C1175 1.372 . S
C1177 C1176 1.390 . S
C1177 H1194 0.929 . S
C1178 C1173 1.390 . S
C1178 C1174 1.392 . S
C1178 H1195 0.930 . S
C1179 O1164 1.255 . S
C1179 O1165 1.257 . S
C1180 Eu1116 2.787 . S
C1180 O1160 1.252 . S
C1180 O1163 1.268 . S
C1180 C1173 1.506 . S
C1181 C1148 1.439 . S
C1181 H1158 0.931 . S
C1181 C1182 1.374 . S
C1182 C1153 1.387 . S
C1182 H1159 0.931 . S
C1182 C1181 1.374 . S
C1183 O1167 1.249 . S
C1183 O1168 1.264 . S
C1184 C1187 1.382 . S
C1184 C1188 1.390 . S
C1184 C1191 1.506 . S
C1185 C1186 1.398 . S
C1185 C1188 1.392 . S
C1186 C1185 1.398 . S
C1186 C1189 1.372 . S
C1186 H1196 0.931 . S
C1187 C1184 1.382 . S
C1187 C1189 1.390 . S
C1187 H1197 0.931 . S
C1188 C1184 1.390 . S
C1188 C1185 1.392 . S
C1188 H1198 0.930 . S
C1189 C1186 1.372 . S
C1189 C1187 1.390 . S
C1189 H1199 0.929 . S
C1190 O1170 1.255 . S
C1190 O1171 1.257 . S
C1191 Eu1127 2.787 . S
C1191 O1166 1.252 . S
C1191 O1169 1.268 . S
C1191 C1184 1.506 . S
H1192 C1175 0.931 . S
H1193 C1176 0.931 . S
H1194 C1177 0.929 . S
H1195 C1178 0.930 . S
H1196 C1186 0.931 . S
H1197 C1187 0.931 . S
H1198 C1188 0.930 . S
H1199 C1189 0.929 . S
Eu1200 N1229 2.600 1_545 S
Eu1200 N1235 2.562 1_545 S
Eu1200 O1244 2.462 1_545 S
Eu1200 O1245 2.373 . S
Eu1200 O1247 2.432 1_545 S
Eu1200 O1248 2.291 . S
Eu1200 O1252 2.335 . S
Eu1200 O1255 2.371 . S
Eu1200 C1264 2.787 1_545 S
C1201 N1202 1.365 1_455 S
C1201 C1204 1.405 1_455 S
C1201 C1208 1.448 . S
N1202 C1201 1.365 1_655 S
N1202 C1205 1.319 . S
N1202 Eu1211 2.600 1_655 S
C1203 C1205 1.397 . S
C1203 C1206 1.367 . S
C1203 H1223 0.931 . S
C1204 C1201 1.405 1_655 S
C1204 C1206 1.403 . S
C1204 C1210 1.439 1_655 S
C1205 N1202 1.319 . S
C1205 C1203 1.397 . S
C1205 H1216 0.930 . S
C1206 C1203 1.367 . S
C1206 C1204 1.403 . S
C1206 H1227 0.929 . S
C1207 C1208 1.430 . S
C1207 C1209 1.387 . S
C1207 C1213 1.404 . S
C1208 C1201 1.448 . S
C1208 C1207 1.430 . S
C1208 N1212 1.351 . S
C1209 C1207 1.387 . S
C1209 C1210 1.374 . S
C1209 H1224 0.931 . S
C1210 C1204 1.439 1_455 S
C1210 C1209 1.374 . S
C1210 H1225 0.931 1_455 S
Eu1211 N1202 2.600 1_455 S
Eu1211 N1212 2.562 . S
Eu1211 O1246 2.335 . S
Eu1211 O1249 2.372 1_455 S
Eu1211 O1250 2.462 . S
Eu1211 O1251 2.373 . S
Eu1211 O1253 2.432 1_455 S
Eu1211 O1254 2.291 . S
Eu1211 C1275 2.787 . S
N1212 C1208 1.351 . S
N1212 Eu1211 2.562 . S
N1212 C1214 1.325 . S
C1213 C1207 1.404 . S
C1213 C1215 1.366 . S
C1213 H1221 0.930 . S
C1214 N1212 1.325 . S
C1214 C1215 1.416 . S
C1214 H1220 0.929 . S
C1215 C1213 1.366 . S
C1215 C1214 1.416 . S
C1215 H1217 0.930 . S
H1216 C1205 0.930 . S
H1217 C1215 0.930 . S
H1218 C1233 0.930 1_545 S
H1219 C1240 0.930 . S
H1220 C1214 0.929 . S
H1221 C1213 0.930 . S
H1222 C1236 0.929 . S
H1223 C1203 0.931 . S
H1224 C1209 0.931 . S
H1225 C1210 0.931 1_655 S
H1226 C1231 0.934 . S
H1227 C1206 0.929 . S
H1228 C1239 0.930 . S
N1229 Eu1200 2.600 1_565 S
N1229 C1230 1.365 . S
N1229 C1233 1.319 . S
C1230 N1229 1.365 . S
C1230 C1232 1.405 . S
C1230 C1238 1.448 . S
C1231 H1226 0.934 . S
C1231 C1233 1.397 . S
C1231 C1234 1.367 . S
C1232 C1230 1.405 . S
C1232 C1234 1.403 . S
C1232 C1265 1.439 . S
C1233 H1218 0.930 1_565 S
C1233 N1229 1.319 . S
C1233 C1231 1.397 . S
C1234 C1231 1.367 . S
C1234 C1232 1.403 . S
C1234 H1241 0.929 . S
N1235 Eu1200 2.562 1_565 S
N1235 C1236 1.325 1_455 S
N1235 C1238 1.351 . S
C1236 H1222 0.929 . S
C1236 N1235 1.325 1_655 S
C1236 C1240 1.416 . S
C1237 C1238 1.430 . S
C1237 C1239 1.404 1_455 S
C1237 C1266 1.387 . S
C1238 C1230 1.448 . S
C1238 N1235 1.351 . S
C1238 C1237 1.430 . S
C1239 H1228 0.930 . S
C1239 C1237 1.404 1_655 S
C1239 C1240 1.366 . S
C1240 H1219 0.930 . S
C1240 C1236 1.416 . S
C1240 C1239 1.366 . S
H1241 C1234 0.929 . S
H1242 C1265 0.931 . S
H1243 C1266 0.931 . S
O1244 Eu1200 2.462 1_565 S
O1244 C1264 1.252 . S
O1245 Eu1200 2.373 . S
O1245 C1256 1.249 . S
O1246 Eu1211 2.335 . S
O1246 C1256 1.264 . S
O1247 Eu1200 2.432 1_565 S
O1247 C1264 1.268 . S
O1248 Eu1200 2.291 . S
O1248 C1263 1.255 1_455 S
O1249 Eu1211 2.372 1_655 S
O1249 C1263 1.257 . S
O1250 Eu1211 2.462 . S
O1250 C1275 1.252 . S
O1251 Eu1211 2.373 . S
O1251 C1267 1.249 . S
O1252 Eu1200 2.335 . S
O1252 C1267 1.264 . S
O1253 Eu1211 2.432 1_655 S
O1253 C1275 1.268 1_655 S
O1254 Eu1211 2.291 . S
O1254 C1274 1.255 . S
O1255 Eu1200 2.371 . S
O1255 C1274 1.257 . S
C1256 O1245 1.249 . S
C1256 O1246 1.264 . S
C1257 C1260 1.382 . S
C1257 C1262 1.390 . S
C1257 C1264 1.506 . S
C1258 C1259 1.398 . S
C1258 C1262 1.392 . S
C1259 C1258 1.398 . S
C1259 C1261 1.372 . S
C1259 H1276 0.931 . S
C1260 C1257 1.382 . S
C1260 C1261 1.390 . S
C1260 H1277 0.931 . S
C1261 C1259 1.372 . S
C1261 C1260 1.390 . S
C1261 H1278 0.929 . S
C1262 C1257 1.390 . S
C1262 C1258 1.392 . S
C1262 H1279 0.930 . S
C1263 O1248 1.255 1_655 S
C1263 O1249 1.257 . S
C1264 Eu1200 2.787 1_565 S
C1264 O1244 1.252 . S
C1264 O1247 1.268 . S
C1264 C1257 1.506 . S
C1265 C1232 1.439 . S
C1265 H1242 0.931 . S
C1265 C1266 1.374 . S
C1266 C1237 1.387 . S
C1266 H1243 0.931 . S
C1266 C1265 1.374 . S
C1267 O1251 1.249 . S
C1267 O1252 1.264 . S
C1268 C1271 1.382 1_455 S
C1268 C1272 1.390 . S
C1268 C1275 1.506 . S
C1269 C1270 1.398 1_455 S
C1269 C1272 1.392 . S
C1270 C1269 1.398 1_655 S
C1270 C1273 1.372 . S
C1270 H1280 0.931 . S
C1271 C1268 1.382 1_655 S
C1271 C1273 1.390 . S
C1271 H1281 0.931 . S
C1272 C1268 1.390 . S
C1272 C1269 1.392 . S
C1272 H1282 0.930 . S
C1273 C1270 1.372 . S
C1273 C1271 1.390 . S
C1273 H1283 0.929 . S
C1274 O1254 1.255 . S
C1274 O1255 1.257 . S
C1275 Eu1211 2.787 . S
C1275 O1250 1.252 . S
C1275 O1253 1.268 1_455 S
C1275 C1268 1.506 . S
H1276 C1259 0.931 . S
H1277 C1260 0.931 . S
H1278 C1261 0.929 . S
H1279 C1262 0.930 . S
H1280 C1270 0.931 . S
H1281 C1271 0.931 . S
H1282 C1272 0.930 . S
H1283 C1273 0.929 . S
Eu1284 N1313 2.600 . S
Eu1284 N1319 2.562 . S
Eu1284 O1328 2.462 . S
Eu1284 O1329 2.373 . S
Eu1284 O1331 2.432 . S
Eu1284 O1332 2.291 . S
Eu1284 O1336 2.335 . S
Eu1284 O1339 2.372 . S
Eu1284 C1348 2.787 . S
C1285 N1286 1.365 . S
C1285 C1288 1.405 . S
C1285 C1292 1.448 . S
N1286 C1285 1.365 . S
N1286 C1289 1.319 . S
N1286 Eu1295 2.600 . S
C1287 C1289 1.397 . S
C1287 C1290 1.367 . S
C1287 H1307 0.931 . S
C1288 C1285 1.405 . S
C1288 C1290 1.403 . S
C1288 C1294 1.439 . S
C1289 N1286 1.319 . S
C1289 C1287 1.397 . S
C1289 H1300 0.930 . S
C1290 C1287 1.367 . S
C1290 C1288 1.403 . S
C1290 H1311 0.929 . S
C1291 C1292 1.430 . S
C1291 C1293 1.387 . S
C1291 C1297 1.404 . S
C1292 C1285 1.448 . S
C1292 C1291 1.430 . S
C1292 N1296 1.351 . S
C1293 C1291 1.387 . S
C1293 C1294 1.374 . S
C1293 H1308 0.931 . S
C1294 C1288 1.439 . S
C1294 C1293 1.374 . S
C1294 H1309 0.931 . S
Eu1295 N1286 2.600 . S
Eu1295 N1296 2.562 . S
Eu1295 O1330 2.335 . S
Eu1295 O1333 2.372 . S
Eu1295 O1334 2.462 . S
Eu1295 O1335 2.373 . S
Eu1295 O1337 2.432 . S
Eu1295 O1338 2.291 . S
Eu1295 C1359 2.787 . S
N1296 C1292 1.351 . S
N1296 Eu1295 2.562 . S
N1296 C1298 1.325 . S
C1297 C1291 1.404 . S
C1297 C1299 1.366 . S
C1297 H1305 0.930 . S
C1298 N1296 1.325 . S
C1298 C1299 1.416 . S
C1298 H1304 0.929 . S
C1299 C1297 1.366 . S
C1299 C1298 1.416 . S
C1299 H1301 0.930 . S
H1300 C1289 0.930 . S
H1301 C1299 0.930 . S
H1302 C1317 0.930 . S
H1303 C1324 0.930 . S
H1304 C1298 0.929 . S
H1305 C1297 0.930 . S
H1306 C1320 0.929 . S
H1307 C1287 0.931 . S
H1308 C1293 0.931 . S
H1309 C1294 0.931 . S
H1310 C1315 0.931 . S
H1311 C1290 0.929 . S
H1312 C1323 0.930 . S
N1313 Eu1284 2.600 . S
N1313 C1314 1.365 . S
N1313 C1317 1.319 . S
C1314 N1313 1.365 . S
C1314 C1316 1.405 . S
C1314 C1322 1.448 . S
C1315 H1310 0.931 . S
C1315 C1317 1.397 . S
C1315 C1318 1.367 . S
C1316 C1314 1.405 . S
C1316 C1318 1.403 . S
C1316 C1349 1.439 . S
C1317 H1302 0.930 . S
C1317 N1313 1.319 . S
C1317 C1315 1.397 . S
C1318 C1315 1.367 . S
C1318 C1316 1.403 . S
C1318 H1325 0.929 . S
N1319 Eu1284 2.562 . S
N1319 C1320 1.325 . S
N1319 C1322 1.351 . S
C1320 H1306 0.929 . S
C1320 N1319 1.325 . S
C1320 C1324 1.416 . S
C1321 C1322 1.430 . S
C1321 C1323 1.404 . S
C1321 C1350 1.387 . S
C1322 C1314 1.448 . S
C1322 N1319 1.351 . S
C1322 C1321 1.430 . S
C1323 H1312 0.930 . S
C1323 C1321 1.404 . S
C1323 C1324 1.366 . S
C1324 H1303 0.930 . S
C1324 C1320 1.416 . S
C1324 C1323 1.366 . S
H1325 C1318 0.929 . S
H1326 C1349 0.931 . S
H1327 C1350 0.931 . S
O1328 Eu1284 2.462 . S
O1328 C1348 1.252 . S
O1329 Eu1284 2.373 . S
O1329 C1340 1.249 . S
O1330 Eu1295 2.335 . S
O1330 C1340 1.264 . S
O1331 Eu1284 2.432 . S
O1331 C1348 1.268 . S
O1332 Eu1284 2.291 . S
O1332 C1347 1.255 . S
O1333 Eu1295 2.372 . S
O1333 C1347 1.257 . S
O1334 Eu1295 2.462 . S
O1334 C1359 1.252 . S
O1335 Eu1295 2.373 . S
O1335 C1351 1.249 . S
O1336 Eu1284 2.335 . S
O1336 C1351 1.264 . S
O1337 Eu1295 2.432 . S
O1337 C1359 1.268 . S
O1338 Eu1295 2.291 . S
O1338 C1358 1.255 . S
O1339 Eu1284 2.372 . S
O1339 C1358 1.257 . S
C1340 O1329 1.249 . S
C1340 O1330 1.264 . S
C1341 C1344 1.382 . S
C1341 C1346 1.390 . S
C1341 C1348 1.506 . S
C1342 C1343 1.398 . S
C1342 C1346 1.392 . S
C1343 C1342 1.398 . S
C1343 C1345 1.372 . S
C1343 H1360 0.931 . S
C1344 C1341 1.382 . S
C1344 C1345 1.390 . S
C1344 H1361 0.931 . S
C1345 C1343 1.372 . S
C1345 C1344 1.390 . S
C1345 H1362 0.929 . S
C1346 C1341 1.390 . S
C1346 C1342 1.392 . S
C1346 H1363 0.930 . S
C1347 O1332 1.255 . S
C1347 O1333 1.257 . S
C1348 Eu1284 2.787 . S
C1348 O1328 1.252 . S
C1348 O1331 1.268 . S
C1348 C1341 1.506 . S
C1349 C1316 1.439 . S
C1349 H1326 0.931 . S
C1349 C1350 1.374 . S
C1350 C1321 1.387 . S
C1350 H1327 0.931 . S
C1350 C1349 1.374 . S
C1351 O1335 1.249 . S
C1351 O1336 1.264 . S
C1352 C1355 1.382 . S
C1352 C1356 1.390 . S
C1352 C1359 1.506 . S
C1353 C1354 1.398 . S
C1353 C1356 1.392 . S
C1354 C1353 1.398 . S
C1354 C1357 1.372 . S
C1354 H1364 0.931 . S
C1355 C1352 1.382 . S
C1355 C1357 1.390 . S
C1355 H1365 0.931 . S
C1356 C1352 1.390 . S
C1356 C1353 1.392 . S
C1356 H1366 0.930 . S
C1357 C1354 1.372 . S
C1357 C1355 1.390 . S
C1357 H1367 0.929 . S
C1358 O1338 1.255 . S
C1358 O1339 1.257 . S
C1359 Eu1295 2.787 . S
C1359 O1334 1.252 . S
C1359 O1337 1.268 . S
C1359 C1352 1.506 . S
H1360 C1343 0.931 . S
H1361 C1344 0.931 . S
H1362 C1345 0.929 . S
H1363 C1346 0.930 . S
H1364 C1354 0.931 . S
H1365 C1355 0.931 . S
H1366 C1356 0.930 . S
H1367 C1357 0.929 . S
Eu1368 N1397 2.600 . S
Eu1368 N1403 2.562 . S
Eu1368 O1412 2.462 . S
Eu1368 O1413 2.373 1_556 S
Eu1368 O1415 2.432 . S
Eu1368 O1416 2.291 1_556 S
Eu1368 O1420 2.335 1_556 S
Eu1368 O1423 2.372 1_556 S
Eu1368 C1432 2.787 . S
C1369 N1370 1.365 1_545 S
C1369 C1372 1.405 1_545 S
C1369 C1376 1.448 . S
N1370 C1369 1.365 1_565 S
N1370 C1373 1.319 . S
N1370 Eu1379 2.600 1_565 S
C1371 C1373 1.397 . S
C1371 C1374 1.367 . S
C1371 H1391 0.931 . S
C1372 C1369 1.405 1_565 S
C1372 C1374 1.403 . S
C1372 C1378 1.439 1_565 S
C1373 N1370 1.319 . S
C1373 C1371 1.397 . S
C1373 H1384 0.930 . S
C1374 C1371 1.367 . S
C1374 C1372 1.403 . S
C1374 H1395 0.929 . S
C1375 C1376 1.430 . S
C1375 C1377 1.387 . S
C1375 C1381 1.404 . S
C1376 C1369 1.448 . S
C1376 C1375 1.430 . S
C1376 N1380 1.351 . S
C1377 C1375 1.387 . S
C1377 C1378 1.374 . S
C1377 H1392 0.931 . S
C1378 C1372 1.439 1_545 S
C1378 C1377 1.374 . S
C1378 H1393 0.931 1_545 S
Eu1379 N1370 2.600 1_545 S
Eu1379 N1380 2.562 . S
Eu1379 O1414 2.335 . S
Eu1379 O1417 2.372 1_545 S
Eu1379 O1418 2.462 . S
Eu1379 O1419 2.373 . S
Eu1379 O1421 2.432 1_545 S
Eu1379 O1422 2.291 . S
Eu1379 C1443 2.787 . S
N1380 C1376 1.351 . S
N1380 Eu1379 2.562 . S
N1380 C1382 1.325 . S
C1381 C1375 1.404 . S
C1381 C1383 1.366 . S
C1381 H1389 0.930 . S
C1382 N1380 1.325 . S
C1382 C1383 1.416 . S
C1382 H1388 0.929 . S
C1383 C1381 1.366 . S
C1383 C1382 1.416 . S
C1383 H1385 0.930 . S
H1384 C1373 0.930 . S
H1385 C1383 0.930 . S
H1386 C1401 0.930 1_554 S
H1387 C1408 0.933 1_565 S
H1388 C1382 0.929 . S
H1389 C1381 0.930 . S
H1390 C1404 0.929 . S
H1391 C1371 0.931 . S
H1392 C1377 0.931 . S
H1393 C1378 0.931 1_565 S
H1394 C1399 0.934 . S
H1395 C1374 0.929 . S
H1396 C1407 0.930 . S
N1397 Eu1368 2.600 . S
N1397 C1398 1.365 . S
N1397 C1401 1.319 . S
C1398 N1397 1.365 . S
C1398 C1400 1.405 . S
C1398 C1406 1.448 . S
C1399 H1394 0.934 . S
C1399 C1401 1.397 . S
C1399 C1402 1.367 . S
C1400 C1398 1.405 . S
C1400 C1402 1.403 . S
C1400 C1433 1.439 . S
C1401 H1386 0.930 1_556 S
C1401 N1397 1.319 . S
C1401 C1399 1.397 . S
C1402 C1399 1.367 . S
C1402 C1400 1.403 . S
C1402 H1409 0.929 . S
N1403 Eu1368 2.562 . S
N1403 C1404 1.325 . S
N1403 C1406 1.351 . S
C1404 H1390 0.929 . S
C1404 N1403 1.325 . S
C1404 C1408 1.415 . S
C1405 C1406 1.430 . S
C1405 C1407 1.404 . S
C1405 C1434 1.387 . S
C1406 C1398 1.448 . S
C1406 N1403 1.351 . S
C1406 C1405 1.430 . S
C1407 H1396 0.930 . S
C1407 C1405 1.404 . S
C1407 C1408 1.364 . S
C1408 H1387 0.933 1_545 S
C1408 C1404 1.415 . S
C1408 C1407 1.364 . S
H1409 C1402 0.929 . S
H1410 C1433 0.931 . S
H1411 C1434 0.931 . S
O1412 Eu1368 2.462 . S
O1412 C1432 1.252 . S
O1413 Eu1368 2.373 1_554 S
O1413 C1424 1.249 . S
O1414 Eu1379 2.335 . S
O1414 C1424 1.264 . S
O1415 Eu1368 2.432 . S
O1415 C1432 1.268 . S
O1416 Eu1368 2.291 1_554 S
O1416 C1431 1.255 1_545 S
O1417 Eu1379 2.372 1_565 S
O1417 C1431 1.257 . S
O1418 Eu1379 2.462 . S
O1418 C1443 1.252 . S
O1419 Eu1379 2.373 . S
O1419 C1435 1.249 . S
O1420 Eu1368 2.335 1_554 S
O1420 C1435 1.264 . S
O1421 Eu1379 2.432 1_565 S
O1421 C1443 1.268 1_565 S
O1422 Eu1379 2.291 . S
O1422 C1442 1.255 . S
O1423 Eu1368 2.372 1_554 S
O1423 C1442 1.257 . S
C1424 O1413 1.249 . S
C1424 O1414 1.264 . S
C1425 C1428 1.382 . S
C1425 C1430 1.390 . S
C1425 C1432 1.506 . S
C1426 C1427 1.398 . S
C1426 C1430 1.392 . S
C1427 C1426 1.398 . S
C1427 C1429 1.372 . S
C1427 H1444 0.931 . S
C1428 C1425 1.382 . S
C1428 C1429 1.390 . S
C1428 H1445 0.931 . S
C1429 C1427 1.372 . S
C1429 C1428 1.390 . S
C1429 H1446 0.929 . S
C1430 C1425 1.390 . S
C1430 C1426 1.392 . S
C1430 H1447 0.930 . S
C1431 O1416 1.255 1_565 S
C1431 O1417 1.257 . S
C1432 Eu1368 2.787 . S
C1432 O1412 1.252 . S
C1432 O1415 1.268 . S
C1432 C1425 1.506 . S
C1433 C1400 1.439 . S
C1433 H1410 0.931 . S
C1433 C1434 1.374 . S
C1434 C1405 1.387 . S
C1434 H1411 0.931 . S
C1434 C1433 1.374 . S
C1435 O1419 1.249 . S
C1435 O1420 1.264 . S
C1436 C1439 1.382 . S
C1436 C1440 1.390 1_565 S
C1436 C1443 1.506 1_565 S
C1437 C1438 1.398 1_545 S
C1437 C1440 1.392 . S
C1438 C1437 1.398 1_565 S
C1438 C1441 1.372 . S
C1438 H1448 0.931 . S
C1439 C1436 1.382 . S
C1439 C1441 1.390 . S
C1439 H1449 0.931 . S
C1440 C1436 1.390 1_545 S
C1440 C1437 1.392 . S
C1440 H1450 0.930 . S
C1441 C1438 1.372 . S
C1441 C1439 1.390 . S
C1441 H1451 0.929 . S
C1442 O1422 1.255 . S
C1442 O1423 1.257 . S
C1443 Eu1379 2.787 . S
C1443 O1418 1.252 . S
C1443 O1421 1.268 1_545 S
C1443 C1436 1.506 1_545 S
H1444 C1427 0.931 . S
H1445 C1428 0.931 . S
H1446 C1429 0.929 . S
H1447 C1430 0.930 . S
H1448 C1438 0.931 . S
H1449 C1439 0.931 . S
H1450 C1440 0.930 . S
H1451 C1441 0.929 . S
Eu1452 N1481 2.600 . S
Eu1452 N1487 2.562 . S
Eu1452 O1496 2.462 . S
Eu1452 O1497 2.373 . S
Eu1452 O1499 2.432 . S
Eu1452 O1500 2.291 . S
Eu1452 O1504 2.335 . S
Eu1452 O1507 2.372 . S
Eu1452 C1516 2.787 . S
C1453 N1454 1.365 . S
C1453 C1456 1.405 . S
C1453 C1460 1.448 . S
N1454 C1453 1.365 . S
N1454 C1457 1.319 . S
N1454 Eu1463 2.600 . S
C1455 C1457 1.397 . S
C1455 C1458 1.367 . S
C1455 H1475 0.931 . S
C1456 C1453 1.405 . S
C1456 C1458 1.403 . S
C1456 C1462 1.439 . S
C1457 N1454 1.319 . S
C1457 C1455 1.397 . S
C1457 H1468 0.930 . S
C1458 C1455 1.367 . S
C1458 C1456 1.403 . S
C1458 H1479 0.929 . S
C1459 C1460 1.430 . S
C1459 C1461 1.387 . S
C1459 C1465 1.404 . S
C1460 C1453 1.448 . S
C1460 C1459 1.430 . S
C1460 N1464 1.351 . S
C1461 C1459 1.387 . S
C1461 C1462 1.374 . S
C1461 H1476 0.931 . S
C1462 C1456 1.439 . S
C1462 C1461 1.374 . S
C1462 H1477 0.931 . S
Eu1463 N1454 2.600 . S
Eu1463 N1464 2.562 . S
Eu1463 O1498 2.335 . S
Eu1463 O1501 2.372 . S
Eu1463 O1502 2.462 . S
Eu1463 O1503 2.373 . S
Eu1463 O1505 2.432 . S
Eu1463 O1506 2.291 . S
Eu1463 C1527 2.787 . S
N1464 C1460 1.351 . S
N1464 Eu1463 2.562 . S
N1464 C1466 1.325 . S
C1465 C1459 1.404 . S
C1465 C1467 1.366 . S
C1465 H1473 0.930 . S
C1466 N1464 1.325 . S
C1466 C1467 1.416 . S
C1466 H1472 0.929 . S
C1467 C1465 1.366 . S
C1467 C1466 1.416 . S
C1467 H1469 0.930 . S
H1468 C1457 0.930 . S
H1469 C1467 0.930 . S
H1470 C1485 0.930 . S
H1471 C1492 0.930 . S
H1472 C1466 0.929 . S
H1473 C1465 0.930 . S
H1474 C1488 0.929 . S
H1475 C1455 0.931 . S
H1476 C1461 0.931 . S
H1477 C1462 0.931 . S
H1478 C1483 0.931 . S
H1479 C1458 0.929 . S
H1480 C1491 0.930 . S
N1481 Eu1452 2.600 . S
N1481 C1482 1.365 . S
N1481 C1485 1.319 . S
C1482 N1481 1.365 . S
C1482 C1484 1.405 . S
C1482 C1490 1.448 . S
C1483 H1478 0.931 . S
C1483 C1485 1.397 . S
C1483 C1486 1.367 . S
C1484 C1482 1.405 . S
C1484 C1486 1.403 . S
C1484 C1517 1.439 . S
C1485 H1470 0.930 . S
C1485 N1481 1.319 . S
C1485 C1483 1.397 . S
C1486 C1483 1.367 . S
C1486 C1484 1.403 . S
C1486 H1493 0.929 . S
N1487 Eu1452 2.562 . S
N1487 C1488 1.325 . S
N1487 C1490 1.351 . S
C1488 H1474 0.929 . S
C1488 N1487 1.325 . S
C1488 C1492 1.416 . S
C1489 C1490 1.430 . S
C1489 C1491 1.404 . S
C1489 C1518 1.387 . S
C1490 C1482 1.448 . S
C1490 N1487 1.351 . S
C1490 C1489 1.430 . S
C1491 H1480 0.930 . S
C1491 C1489 1.404 . S
C1491 C1492 1.366 . S
C1492 H1471 0.930 . S
C1492 C1488 1.416 . S
C1492 C1491 1.366 . S
H1493 C1486 0.929 . S
H1494 C1517 0.931 . S
H1495 C1518 0.931 . S
O1496 Eu1452 2.462 . S
O1496 C1516 1.252 . S
O1497 Eu1452 2.373 . S
O1497 C1508 1.249 . S
O1498 Eu1463 2.335 . S
O1498 C1508 1.264 . S
O1499 Eu1452 2.432 . S
O1499 C1516 1.268 . S
O1500 Eu1452 2.291 . S
O1500 C1515 1.255 . S
O1501 Eu1463 2.372 . S
O1501 C1515 1.257 . S
O1502 Eu1463 2.462 . S
O1502 C1527 1.252 . S
O1503 Eu1463 2.373 . S
O1503 C1519 1.249 . S
O1504 Eu1452 2.335 . S
O1504 C1519 1.264 . S
O1505 Eu1463 2.432 . S
O1505 C1527 1.268 . S
O1506 Eu1463 2.291 . S
O1506 C1526 1.255 . S
O1507 Eu1452 2.372 . S
O1507 C1526 1.257 . S
C1508 O1497 1.249 . S
C1508 O1498 1.264 . S
C1509 C1512 1.382 . S
C1509 C1514 1.390 . S
C1509 C1516 1.506 . S
C1510 C1511 1.398 . S
C1510 C1514 1.392 . S
C1511 C1510 1.398 . S
C1511 C1513 1.372 . S
C1511 H1528 0.931 . S
C1512 C1509 1.382 . S
C1512 C1513 1.390 . S
C1512 H1529 0.931 . S
C1513 C1511 1.372 . S
C1513 C1512 1.390 . S
C1513 H1530 0.929 . S
C1514 C1509 1.390 . S
C1514 C1510 1.392 . S
C1514 H1531 0.930 . S
C1515 O1500 1.255 . S
C1515 O1501 1.257 . S
C1516 Eu1452 2.787 . S
C1516 O1496 1.252 . S
C1516 O1499 1.268 . S
C1516 C1509 1.506 . S
C1517 C1484 1.439 . S
C1517 H1494 0.931 . S
C1517 C1518 1.374 . S
C1518 C1489 1.387 . S
C1518 H1495 0.931 . S
C1518 C1517 1.374 . S
C1519 O1503 1.249 . S
C1519 O1504 1.264 . S
C1520 C1523 1.382 . S
C1520 C1524 1.390 . S
C1520 C1527 1.506 . S
C1521 C1522 1.398 . S
C1521 C1524 1.392 . S
C1522 C1521 1.398 . S
C1522 C1525 1.372 . S
C1522 H1532 0.931 . S
C1523 C1520 1.382 . S
C1523 C1525 1.390 . S
C1523 H1533 0.931 . S
C1524 C1520 1.390 . S
C1524 C1521 1.392 . S
C1524 H1534 0.930 . S
C1525 C1522 1.372 . S
C1525 C1523 1.390 . S
C1525 H1535 0.929 . S
C1526 O1506 1.255 . S
C1526 O1507 1.257 . S
C1527 Eu1463 2.787 . S
C1527 O1502 1.252 . S
C1527 O1505 1.268 . S
C1527 C1520 1.506 . S
H1528 C1511 0.931 . S
H1529 C1512 0.931 . S
H1530 C1513 0.929 . S
H1531 C1514 0.930 . S
H1532 C1522 0.931 . S
H1533 C1523 0.931 . S
H1534 C1524 0.930 . S
H1535 C1525 0.929 . S
Eu1536 N1565 2.600 1_554 S
Eu1536 N1571 2.562 1_554 S
Eu1536 O1580 2.462 . S
Eu1536 O1581 2.373 1_554 S
Eu1536 O1583 2.432 . S
Eu1536 O1584 2.291 . S
Eu1536 O1588 2.335 . S
Eu1536 O1591 2.372 . S
Eu1536 C1600 2.787 . S
C1537 N1538 1.365 . S
C1537 C1540 1.405 . S
C1537 C1544 1.448 . S
N1538 C1537 1.365 . S
N1538 C1541 1.319 . S
N1538 Eu1547 2.600 . S
C1539 C1541 1.397 . S
C1539 C1542 1.367 . S
C1539 H1559 0.931 . S
C1540 C1537 1.405 . S
C1540 C1542 1.403 . S
C1540 C1546 1.439 . S
C1541 N1538 1.319 . S
C1541 C1539 1.397 . S
C1541 H1552 0.930 . S
C1542 C1539 1.367 . S
C1542 C1540 1.403 . S
C1542 H1563 0.929 . S
C1543 C1544 1.430 . S
C1543 C1545 1.387 . S
C1543 C1549 1.404 . S
C1544 C1537 1.448 . S
C1544 C1543 1.430 . S
C1544 N1548 1.351 . S
C1545 C1543 1.387 . S
C1545 C1546 1.374 . S
C1545 H1560 0.931 . S
C1546 C1540 1.439 . S
C1546 C1545 1.374 . S
C1546 H1561 0.931 . S
Eu1547 N1538 2.600 . S
Eu1547 N1548 2.562 . S
Eu1547 O1582 2.335 1_554 S
Eu1547 O1585 2.372 . S
Eu1547 O1586 2.462 . S
Eu1547 O1587 2.373 . S
Eu1547 O1589 2.432 . S
Eu1547 O1590 2.291 . S
Eu1547 C1611 2.787 . S
N1548 C1544 1.351 . S
N1548 Eu1547 2.562 . S
N1548 C1550 1.325 . S
C1549 C1543 1.404 . S
C1549 C1551 1.366 . S
C1549 H1557 0.930 . S
C1550 N1548 1.325 . S
C1550 C1551 1.416 . S
C1550 H1556 0.929 . S
C1551 C1549 1.366 . S
C1551 C1550 1.416 . S
C1551 H1553 0.930 . S
H1552 C1541 0.930 . S
H1553 C1551 0.930 . S
H1554 C1569 0.930 1_554 S
H1555 C1576 0.930 . S
H1556 C1550 0.929 . S
H1557 C1549 0.930 . S
H1558 C1572 0.929 1_554 S
H1559 C1539 0.931 . S
H1560 C1545 0.931 . S
H1561 C1546 0.931 . S
H1562 C1567 0.931 . S
H1563 C1542 0.929 . S
H1564 C1575 0.930 . S
N1565 Eu1536 2.600 1_556 S
N1565 C1566 1.365 . S
N1565 C1569 1.319 . S
C1566 N1565 1.365 . S
C1566 C1568 1.405 . S
C1566 C1574 1.448 . S
C1567 H1562 0.931 . S
C1567 C1569 1.397 . S
C1567 C1570 1.367 . S
C1568 C1566 1.405 . S
C1568 C1570 1.403 . S
C1568 C1601 1.439 . S
C1569 H1554 0.930 1_556 S
C1569 N1565 1.319 . S
C1569 C1567 1.397 . S
C1570 C1567 1.367 . S
C1570 C1568 1.403 . S
C1570 H1577 0.929 . S
N1571 Eu1536 2.562 1_556 S
N1571 C1572 1.325 . S
N1571 C1574 1.351 . S
C1572 H1558 0.929 1_556 S
C1572 N1571 1.325 . S
C1572 C1576 1.416 . S
C1573 C1574 1.430 . S
C1573 C1575 1.404 . S
C1573 C1602 1.387 . S
C1574 C1566 1.448 . S
C1574 N1571 1.351 . S
C1574 C1573 1.430 . S
C1575 H1564 0.930 . S
C1575 C1573 1.404 . S
C1575 C1576 1.366 . S
C1576 H1555 0.930 . S
C1576 C1572 1.416 . S
C1576 C1575 1.366 . S
H1577 C1570 0.929 . S
H1578 C1601 0.931 . S
H1579 C1602 0.931 . S
O1580 Eu1536 2.462 . S
O1580 C1600 1.252 . S
O1581 Eu1536 2.373 1_556 S
O1581 C1592 1.249 . S
O1582 Eu1547 2.335 1_556 S
O1582 C1592 1.264 . S
O1583 Eu1536 2.432 . S
O1583 C1600 1.268 . S
O1584 Eu1536 2.291 . S
O1584 C1599 1.255 . S
O1585 Eu1547 2.372 . S
O1585 C1599 1.257 . S
O1586 Eu1547 2.462 . S
O1586 C1611 1.252 . S
O1587 Eu1547 2.373 . S
O1587 C1603 1.249 . S
O1588 Eu1536 2.335 . S
O1588 C1603 1.264 . S
O1589 Eu1547 2.432 . S
O1589 C1611 1.268 . S
O1590 Eu1547 2.291 . S
O1590 C1610 1.255 . S
O1591 Eu1536 2.372 . S
O1591 C1610 1.257 . S
C1592 O1581 1.249 . S
C1592 O1582 1.264 . S
C1593 C1596 1.382 . S
C1593 C1598 1.390 . S
C1593 C1600 1.506 . S
C1594 C1595 1.398 . S
C1594 C1598 1.392 . S
C1595 C1594 1.398 . S
C1595 C1597 1.372 . S
C1595 H1612 0.931 . S
C1596 C1593 1.382 . S
C1596 C1597 1.390 . S
C1596 H1613 0.931 . S
C1597 C1595 1.372 . S
C1597 C1596 1.390 . S
C1597 H1614 0.929 . S
C1598 C1593 1.390 . S
C1598 C1594 1.392 . S
C1598 H1615 0.930 . S
C1599 O1584 1.255 . S
C1599 O1585 1.257 . S
C1600 Eu1536 2.787 . S
C1600 O1580 1.252 . S
C1600 O1583 1.268 . S
C1600 C1593 1.506 . S
C1601 C1568 1.439 . S
C1601 H1578 0.931 . S
C1601 C1602 1.374 . S
C1602 C1573 1.387 . S
C1602 H1579 0.931 . S
C1602 C1601 1.374 . S
C1603 O1587 1.249 . S
C1603 O1588 1.264 . S
C1604 C1607 1.382 . S
C1604 C1608 1.390 . S
C1604 C1611 1.506 1_556 S
C1605 C1606 1.398 . S
C1605 C1608 1.392 . S
C1606 C1605 1.398 . S
C1606 C1609 1.372 . S
C1606 H1616 0.931 . S
C1607 C1604 1.382 . S
C1607 C1609 1.390 . S
C1607 H1617 0.931 . S
C1608 C1604 1.390 . S
C1608 C1605 1.392 . S
C1608 H1618 0.930 . S
C1609 C1606 1.372 . S
C1609 C1607 1.390 . S
C1609 H1619 0.929 . S
C1610 O1590 1.255 . S
C1610 O1591 1.257 . S
C1611 Eu1547 2.787 . S
C1611 O1586 1.252 . S
C1611 O1589 1.268 . S
C1611 C1604 1.506 1_554 S
H1612 C1595 0.931 . S
H1613 C1596 0.931 . S
H1614 C1597 0.929 . S
H1615 C1598 0.930 . S
H1616 C1606 0.931 . S
H1617 C1607 0.931 . S
H1618 C1608 0.930 . S
H1619 C1609 0.929 . S
Eu1620 N1649 2.600 . S
Eu1620 N1655 2.562 . S
Eu1620 O1664 2.462 . S
Eu1620 O1665 2.373 . S
Eu1620 O1667 2.432 . S
Eu1620 O1668 2.291 . S
Eu1620 O1672 2.335 . S
Eu1620 O1675 2.372 . S
Eu1620 C1684 2.787 . S
C1621 N1622 1.365 . S
C1621 C1624 1.405 . S
C1621 C1628 1.448 . S
N1622 C1621 1.365 . S
N1622 C1625 1.319 . S
N1622 Eu1631 2.600 . S
C1623 C1625 1.397 . S
C1623 C1626 1.367 . S
C1623 H1643 0.931 . S
C1624 C1621 1.405 . S
C1624 C1626 1.403 . S
C1624 C1630 1.439 . S
C1625 N1622 1.319 . S
C1625 C1623 1.397 . S
C1625 H1636 0.930 . S
C1626 C1623 1.367 . S
C1626 C1624 1.403 . S
C1626 H1647 0.929 . S
C1627 C1628 1.430 . S
C1627 C1629 1.387 . S
C1627 C1633 1.404 . S
C1628 C1621 1.448 . S
C1628 C1627 1.430 . S
C1628 N1632 1.351 . S
C1629 C1627 1.387 . S
C1629 C1630 1.374 . S
C1629 H1644 0.931 . S
C1630 C1624 1.439 . S
C1630 C1629 1.374 . S
C1630 H1645 0.931 . S
Eu1631 N1622 2.600 . S
Eu1631 N1632 2.562 . S
Eu1631 O1666 2.335 . S
Eu1631 O1669 2.372 . S
Eu1631 O1670 2.462 . S
Eu1631 O1671 2.373 . S
Eu1631 O1673 2.432 . S
Eu1631 O1674 2.291 . S
Eu1631 C1695 2.787 . S
N1632 C1628 1.351 . S
N1632 Eu1631 2.562 . S
N1632 C1634 1.325 . S
C1633 C1627 1.404 . S
C1633 C1635 1.366 . S
C1633 H1641 0.930 . S
C1634 N1632 1.325 . S
C1634 C1635 1.416 . S
C1634 H1640 0.929 . S
C1635 C1633 1.366 . S
C1635 C1634 1.416 . S
C1635 H1637 0.930 . S
H1636 C1625 0.930 . S
H1637 C1635 0.930 . S
H1638 C1653 0.930 . S
H1639 C1660 0.930 . S
H1640 C1634 0.929 . S
H1641 C1633 0.930 . S
H1642 C1656 0.929 . S
H1643 C1623 0.931 . S
H1644 C1629 0.931 . S
H1645 C1630 0.931 . S
H1646 C1651 0.931 . S
H1647 C1626 0.929 . S
H1648 C1659 0.930 . S
N1649 Eu1620 2.600 . S
N1649 C1650 1.365 . S
N1649 C1653 1.319 . S
C1650 N1649 1.365 . S
C1650 C1652 1.405 . S
C1650 C1658 1.448 . S
C1651 H1646 0.931 . S
C1651 C1653 1.397 . S
C1651 C1654 1.367 . S
C1652 C1650 1.405 . S
C1652 C1654 1.403 . S
C1652 C1685 1.439 . S
C1653 H1638 0.930 . S
C1653 N1649 1.319 . S
C1653 C1651 1.397 . S
C1654 C1651 1.367 . S
C1654 C1652 1.403 . S
C1654 H1661 0.929 . S
N1655 Eu1620 2.562 . S
N1655 C1656 1.325 . S
N1655 C1658 1.351 . S
C1656 H1642 0.929 . S
C1656 N1655 1.325 . S
C1656 C1660 1.416 . S
C1657 C1658 1.430 . S
C1657 C1659 1.404 . S
C1657 C1686 1.387 . S
C1658 C1650 1.448 . S
C1658 N1655 1.351 . S
C1658 C1657 1.430 . S
C1659 H1648 0.930 . S
C1659 C1657 1.404 . S
C1659 C1660 1.366 . S
C1660 H1639 0.930 . S
C1660 C1656 1.416 . S
C1660 C1659 1.366 . S
H1661 C1654 0.929 . S
H1662 C1685 0.931 . S
H1663 C1686 0.931 . S
O1664 Eu1620 2.462 . S
O1664 C1684 1.252 . S
O1665 Eu1620 2.373 . S
O1665 C1676 1.249 . S
O1666 Eu1631 2.335 . S
O1666 C1676 1.264 . S
O1667 Eu1620 2.432 . S
O1667 C1684 1.268 . S
O1668 Eu1620 2.291 . S
O1668 C1683 1.255 . S
O1669 Eu1631 2.372 . S
O1669 C1683 1.257 . S
O1670 Eu1631 2.462 . S
O1670 C1695 1.252 . S
O1671 Eu1631 2.373 . S
O1671 C1687 1.249 . S
O1672 Eu1620 2.335 . S
O1672 C1687 1.264 . S
O1673 Eu1631 2.432 . S
O1673 C1695 1.268 . S
O1674 Eu1631 2.291 . S
O1674 C1694 1.255 . S
O1675 Eu1620 2.372 . S
O1675 C1694 1.257 . S
C1676 O1665 1.249 . S
C1676 O1666 1.264 . S
C1677 C1680 1.382 . S
C1677 C1682 1.390 . S
C1677 C1684 1.506 . S
C1678 C1679 1.398 . S
C1678 C1682 1.392 . S
C1679 C1678 1.398 . S
C1679 C1681 1.372 . S
C1679 H1696 0.931 . S
C1680 C1677 1.382 . S
C1680 C1681 1.390 . S
C1680 H1697 0.931 . S
C1681 C1679 1.372 . S
C1681 C1680 1.390 . S
C1681 H1698 0.929 . S
C1682 C1677 1.390 . S
C1682 C1678 1.392 . S
C1682 H1699 0.930 . S
C1683 O1668 1.255 . S
C1683 O1669 1.257 . S
C1684 Eu1620 2.787 . S
C1684 O1664 1.252 . S
C1684 O1667 1.268 . S
C1684 C1677 1.506 . S
C1685 C1652 1.439 . S
C1685 H1662 0.931 . S
C1685 C1686 1.374 . S
C1686 C1657 1.387 . S
C1686 H1663 0.931 . S
C1686 C1685 1.374 . S
C1687 O1671 1.249 . S
C1687 O1672 1.264 . S
C1688 C1691 1.382 . S
C1688 C1692 1.390 . S
C1688 C1695 1.506 . S
C1689 C1690 1.398 . S
C1689 C1692 1.392 . S
C1690 C1689 1.398 . S
C1690 C1693 1.372 . S
C1690 H1700 0.931 . S
C1691 C1688 1.382 . S
C1691 C1693 1.390 . S
C1691 H1701 0.931 . S
C1692 C1688 1.390 . S
C1692 C1689 1.392 . S
C1692 H1702 0.930 . S
C1693 C1690 1.372 . S
C1693 C1691 1.390 . S
C1693 H1703 0.929 . S
C1694 O1674 1.255 . S
C1694 O1675 1.257 . S
C1695 Eu1631 2.787 . S
C1695 O1670 1.252 . S
C1695 O1673 1.268 . S
C1695 C1688 1.506 . S
H1696 C1679 0.931 . S
H1697 C1680 0.931 . S
H1698 C1681 0.929 . S
H1699 C1682 0.930 . S
H1700 C1690 0.931 . S
H1701 C1691 0.931 . S
H1702 C1692 0.930 . S
H1703 C1693 0.929 . S
Eu1704 N1733 2.601 . S
Eu1704 N1739 2.562 1_455 S
Eu1704 O1748 2.462 . S
Eu1704 O1749 2.373 1_455 S
Eu1704 O1751 2.432 . S
Eu1704 O1752 2.291 . S
Eu1704 O1756 2.335 . S
Eu1704 O1759 2.372 . S
Eu1704 C1768 2.787 . S
C1705 N1706 1.365 . S
C1705 C1708 1.405 . S
C1705 C1712 1.448 . S
N1706 C1705 1.365 . S
N1706 C1709 1.319 . S
N1706 Eu1715 2.600 . S
C1707 C1709 1.397 . S
C1707 C1710 1.367 . S
C1707 H1727 0.931 . S
C1708 C1705 1.405 . S
C1708 C1710 1.403 . S
C1708 C1714 1.439 . S
C1709 N1706 1.319 . S
C1709 C1707 1.397 . S
C1709 H1720 0.930 . S
C1710 C1707 1.367 . S
C1710 C1708 1.403 . S
C1710 H1731 0.929 . S
C1711 C1712 1.430 . S
C1711 C1713 1.387 . S
C1711 C1717 1.404 . S
C1712 C1705 1.448 . S
C1712 C1711 1.430 . S
C1712 N1716 1.351 . S
C1713 C1711 1.387 . S
C1713 C1714 1.374 . S
C1713 H1728 0.931 . S
C1714 C1708 1.439 . S
C1714 C1713 1.374 . S
C1714 H1729 0.931 . S
Eu1715 N1706 2.600 . S
Eu1715 N1716 2.562 . S
Eu1715 O1750 2.335 1_455 S
Eu1715 O1753 2.372 . S
Eu1715 O1754 2.462 . S
Eu1715 O1755 2.373 . S
Eu1715 O1757 2.432 . S
Eu1715 O1758 2.291 . S
Eu1715 C1779 2.787 . S
N1716 C1712 1.351 . S
N1716 Eu1715 2.562 . S
N1716 C1718 1.325 . S
C1717 C1711 1.404 . S
C1717 C1719 1.366 . S
C1717 H1725 0.930 . S
C1718 N1716 1.325 . S
C1718 C1719 1.416 . S
C1718 H1724 0.929 . S
C1719 C1717 1.366 . S
C1719 C1718 1.416 . S
C1719 H1721 0.930 . S
H1720 C1709 0.930 . S
H1721 C1719 0.930 . S
H1722 C1737 0.930 . S
H1723 C1744 0.930 . S
H1724 C1718 0.929 . S
H1725 C1717 0.930 . S
H1726 C1740 0.929 1_455 S
H1727 C1707 0.931 . S
H1728 C1713 0.931 . S
H1729 C1714 0.931 . S
H1730 C1735 0.931 . S
H1731 C1710 0.929 . S
H1732 C1743 0.930 . S
N1733 Eu1704 2.601 . S
N1733 C1734 1.364 1_455 S
N1733 C1737 1.319 . S
C1734 N1733 1.364 1_655 S
C1734 C1736 1.405 . S
C1734 C1742 1.448 . S
C1735 H1730 0.931 . S
C1735 C1737 1.397 1_655 S
C1735 C1738 1.367 . S
C1736 C1734 1.405 . S
C1736 C1738 1.403 . S
C1736 C1769 1.439 . S
C1737 H1722 0.930 . S
C1737 N1733 1.319 . S
C1737 C1735 1.397 1_455 S
C1738 C1735 1.367 . S
C1738 C1736 1.403 . S
C1738 H1745 0.929 . S
N1739 Eu1704 2.562 1_655 S
N1739 C1740 1.325 . S
N1739 C1742 1.351 . S
C1740 H1726 0.929 1_655 S
C1740 N1739 1.325 . S
C1740 C1744 1.416 . S
C1741 C1742 1.430 . S
C1741 C1743 1.404 . S
C1741 C1770 1.387 . S
C1742 C1734 1.448 . S
C1742 N1739 1.351 . S
C1742 C1741 1.430 . S
C1743 H1732 0.930 . S
C1743 C1741 1.404 . S
C1743 C1744 1.366 . S
C1744 H1723 0.930 . S
C1744 C1740 1.416 . S
C1744 C1743 1.366 . S
H1745 C1738 0.929 . S
H1746 C1769 0.931 . S
H1747 C1770 0.931 . S
O1748 Eu1704 2.462 . S
O1748 C1768 1.252 . S
O1749 Eu1704 2.373 1_655 S
O1749 C1760 1.249 . S
O1750 Eu1715 2.335 1_655 S
O1750 C1760 1.264 . S
O1751 Eu1704 2.432 . S
O1751 C1768 1.268 . S
O1752 Eu1704 2.291 . S
O1752 C1767 1.255 . S
O1753 Eu1715 2.372 . S
O1753 C1767 1.257 . S
O1754 Eu1715 2.462 . S
O1754 C1779 1.252 . S
O1755 Eu1715 2.373 . S
O1755 C1771 1.249 . S
O1756 Eu1704 2.335 . S
O1756 C1771 1.264 . S
O1757 Eu1715 2.432 . S
O1757 C1779 1.268 . S
O1758 Eu1715 2.291 . S
O1758 C1778 1.255 . S
O1759 Eu1704 2.372 . S
O1759 C1778 1.257 . S
C1760 O1749 1.249 . S
C1760 O1750 1.264 . S
C1761 C1764 1.382 . S
C1761 C1766 1.390 . S
C1761 C1768 1.506 . S
C1762 C1763 1.398 . S
C1762 C1766 1.392 . S
C1763 C1762 1.398 . S
C1763 C1765 1.372 . S
C1763 H1780 0.931 . S
C1764 C1761 1.382 . S
C1764 C1765 1.390 . S
C1764 H1781 0.931 . S
C1765 C1763 1.372 . S
C1765 C1764 1.390 . S
C1765 H1782 0.929 . S
C1766 C1761 1.390 . S
C1766 C1762 1.392 . S
C1766 H1783 0.930 . S
C1767 O1752 1.255 . S
C1767 O1753 1.257 . S
C1768 Eu1704 2.787 . S
C1768 O1748 1.252 . S
C1768 O1751 1.268 . S
C1768 C1761 1.506 . S
C1769 C1736 1.439 . S
C1769 H1746 0.931 . S
C1769 C1770 1.374 . S
C1770 C1741 1.387 . S
C1770 H1747 0.931 . S
C1770 C1769 1.374 . S
C1771 O1755 1.249 . S
C1771 O1756 1.264 . S
C1772 C1775 1.382 . S
C1772 C1776 1.390 . S
C1772 C1779 1.506 1_655 S
C1773 C1774 1.398 . S
C1773 C1776 1.392 . S
C1774 C1773 1.398 . S
C1774 C1777 1.372 . S
C1774 H1784 0.931 . S
C1775 C1772 1.382 . S
C1775 C1777 1.390 . S
C1775 H1785 0.931 . S
C1776 C1772 1.390 . S
C1776 C1773 1.392 . S
C1776 H1786 0.930 . S
C1777 C1774 1.372 . S
C1777 C1775 1.390 . S
C1777 H1787 0.929 . S
C1778 O1758 1.255 . S
C1778 O1759 1.257 . S
C1779 Eu1715 2.787 . S
C1779 O1754 1.252 . S
C1779 O1757 1.268 . S
C1779 C1772 1.506 1_455 S
H1780 C1763 0.931 . S
H1781 C1764 0.931 . S
H1782 C1765 0.929 . S
H1783 C1766 0.930 . S
H1784 C1774 0.931 . S
H1785 C1775 0.931 . S
H1786 C1776 0.930 . S
H1787 C1777 0.929 . S
Eu1788 N1817 2.600 . S
Eu1788 N1823 2.562 . S
Eu1788 O1832 2.462 . S
Eu1788 O1833 2.373 . S
Eu1788 O1835 2.432 . S
Eu1788 O1836 2.291 . S
Eu1788 O1840 2.335 . S
Eu1788 O1843 2.372 . S
Eu1788 C1852 2.787 . S
C1789 N1790 1.365 . S
C1789 C1792 1.405 . S
C1789 C1796 1.448 . S
N1790 C1789 1.365 . S
N1790 C1793 1.319 . S
N1790 Eu1799 2.600 . S
C1791 C1793 1.397 . S
C1791 C1794 1.367 . S
C1791 H1811 0.931 . S
C1792 C1789 1.405 . S
C1792 C1794 1.403 . S
C1792 C1798 1.439 . S
C1793 N1790 1.319 . S
C1793 C1791 1.397 . S
C1793 H1804 0.930 . S
C1794 C1791 1.367 . S
C1794 C1792 1.403 . S
C1794 H1815 0.929 . S
C1795 C1796 1.430 . S
C1795 C1797 1.387 . S
C1795 C1801 1.404 . S
C1796 C1789 1.448 . S
C1796 C1795 1.430 . S
C1796 N1800 1.351 . S
C1797 C1795 1.387 . S
C1797 C1798 1.374 . S
C1797 H1812 0.931 . S
C1798 C1792 1.439 . S
C1798 C1797 1.374 . S
C1798 H1813 0.931 . S
Eu1799 N1790 2.600 . S
Eu1799 N1800 2.562 . S
Eu1799 O1834 2.335 . S
Eu1799 O1837 2.372 . S
Eu1799 O1838 2.462 . S
Eu1799 O1839 2.373 . S
Eu1799 O1841 2.432 . S
Eu1799 O1842 2.291 . S
Eu1799 C1863 2.787 . S
N1800 C1796 1.351 . S
N1800 Eu1799 2.562 . S
N1800 C1802 1.325 . S
C1801 C1795 1.404 . S
C1801 C1803 1.366 . S
C1801 H1809 0.930 . S
C1802 N1800 1.325 . S
C1802 C1803 1.416 . S
C1802 H1808 0.929 . S
C1803 C1801 1.366 . S
C1803 C1802 1.416 . S
C1803 H1805 0.930 . S
H1804 C1793 0.930 . S
H1805 C1803 0.930 . S
H1806 C1821 0.930 . S
H1807 C1828 0.930 . S
H1808 C1802 0.929 . S
H1809 C1801 0.930 . S
H1810 C1824 0.929 . S
H1811 C1791 0.931 . S
H1812 C1797 0.931 . S
H1813 C1798 0.931 . S
H1814 C1819 0.931 . S
H1815 C1794 0.929 . S
H1816 C1827 0.930 . S
N1817 Eu1788 2.600 . S
N1817 C1818 1.365 . S
N1817 C1821 1.319 . S
C1818 N1817 1.365 . S
C1818 C1820 1.405 . S
C1818 C1826 1.448 . S
C1819 H1814 0.931 . S
C1819 C1821 1.397 . S
C1819 C1822 1.367 . S
C1820 C1818 1.405 . S
C1820 C1822 1.403 . S
C1820 C1853 1.439 . S
C1821 H1806 0.930 . S
C1821 N1817 1.319 . S
C1821 C1819 1.397 . S
C1822 C1819 1.367 . S
C1822 C1820 1.403 . S
C1822 H1829 0.929 . S
N1823 Eu1788 2.562 . S
N1823 C1824 1.325 . S
N1823 C1826 1.351 . S
C1824 H1810 0.929 . S
C1824 N1823 1.325 . S
C1824 C1828 1.416 . S
C1825 C1826 1.430 . S
C1825 C1827 1.404 . S
C1825 C1854 1.387 . S
C1826 C1818 1.448 . S
C1826 N1823 1.351 . S
C1826 C1825 1.430 . S
C1827 H1816 0.930 . S
C1827 C1825 1.404 . S
C1827 C1828 1.366 . S
C1828 H1807 0.930 . S
C1828 C1824 1.416 . S
C1828 C1827 1.366 . S
H1829 C1822 0.929 . S
H1830 C1853 0.931 . S
H1831 C1854 0.931 . S
O1832 Eu1788 2.462 . S
O1832 C1852 1.252 . S
O1833 Eu1788 2.373 . S
O1833 C1844 1.249 . S
O1834 Eu1799 2.335 . S
O1834 C1844 1.264 . S
O1835 Eu1788 2.432 . S
O1835 C1852 1.268 . S
O1836 Eu1788 2.291 . S
O1836 C1851 1.255 . S
O1837 Eu1799 2.372 . S
O1837 C1851 1.257 . S
O1838 Eu1799 2.462 . S
O1838 C1863 1.252 . S
O1839 Eu1799 2.373 . S
O1839 C1855 1.249 . S
O1840 Eu1788 2.335 . S
O1840 C1855 1.264 . S
O1841 Eu1799 2.432 . S
O1841 C1863 1.268 . S
O1842 Eu1799 2.291 . S
O1842 C1862 1.255 . S
O1843 Eu1788 2.372 . S
O1843 C1862 1.257 . S
C1844 O1833 1.249 . S
C1844 O1834 1.264 . S
C1845 C1848 1.382 . S
C1845 C1850 1.390 . S
C1845 C1852 1.506 . S
C1846 C1847 1.398 . S
C1846 C1850 1.392 . S
C1847 C1846 1.398 . S
C1847 C1849 1.372 . S
C1847 H1864 0.931 . S
C1848 C1845 1.382 . S
C1848 C1849 1.390 . S
C1848 H1865 0.931 . S
C1849 C1847 1.372 . S
C1849 C1848 1.390 . S
C1849 H1866 0.929 . S
C1850 C1845 1.390 . S
C1850 C1846 1.392 . S
C1850 H1867 0.930 . S
C1851 O1836 1.255 . S
C1851 O1837 1.257 . S
C1852 Eu1788 2.787 . S
C1852 O1832 1.252 . S
C1852 O1835 1.268 . S
C1852 C1845 1.506 . S
C1853 C1820 1.439 . S
C1853 H1830 0.931 . S
C1853 C1854 1.374 . S
C1854 C1825 1.387 . S
C1854 H1831 0.931 . S
C1854 C1853 1.374 . S
C1855 O1839 1.249 . S
C1855 O1840 1.264 . S
C1856 C1859 1.382 . S
C1856 C1860 1.390 . S
C1856 C1863 1.506 . S
C1857 C1858 1.398 . S
C1857 C1860 1.392 . S
C1858 C1857 1.398 . S
C1858 C1861 1.372 . S
C1858 H1868 0.931 . S
C1859 C1856 1.382 . S
C1859 C1861 1.390 . S
C1859 H1869 0.931 . S
C1860 C1856 1.390 . S
C1860 C1857 1.392 . S
C1860 H1870 0.930 . S
C1861 C1858 1.372 . S
C1861 C1859 1.390 . S
C1861 H1871 0.929 . S
C1862 O1842 1.255 . S
C1862 O1843 1.257 . S
C1863 Eu1799 2.787 . S
C1863 O1838 1.252 . S
C1863 O1841 1.268 . S
C1863 C1856 1.506 . S
H1864 C1847 0.931 . S
H1865 C1848 0.931 . S
H1866 C1849 0.929 . S
H1867 C1850 0.930 . S
H1868 C1858 0.931 . S
H1869 C1859 0.931 . S
H1870 C1860 0.930 . S
H1871 C1861 0.929 . S
Eu1872 N1901 2.600 . S
Eu1872 N1907 2.562 . S
Eu1872 O1916 2.462 . S
Eu1872 O1917 2.373 . S
Eu1872 O1919 2.432 . S
Eu1872 O1920 2.291 . S
Eu1872 O1924 2.335 . S
Eu1872 O1927 2.372 . S
Eu1872 C1936 2.787 . S
C1873 N1874 1.365 . S
C1873 C1876 1.405 . S
C1873 C1880 1.448 . S
N1874 C1873 1.365 . S
N1874 C1877 1.319 . S
N1874 Eu1883 2.600 . S
C1875 C1877 1.397 . S
C1875 C1878 1.367 . S
C1875 H1895 0.931 . S
C1876 C1873 1.405 . S
C1876 C1878 1.403 . S
C1876 C1882 1.439 . S
C1877 N1874 1.319 . S
C1877 C1875 1.397 . S
C1877 H1888 0.930 . S
C1878 C1875 1.367 . S
C1878 C1876 1.403 . S
C1878 H1899 0.929 . S
C1879 C1880 1.430 . S
C1879 C1881 1.387 . S
C1879 C1885 1.404 . S
C1880 C1873 1.448 . S
C1880 C1879 1.430 . S
C1880 N1884 1.351 . S
C1881 C1879 1.387 . S
C1881 C1882 1.374 . S
C1881 H1896 0.931 . S
C1882 C1876 1.439 . S
C1882 C1881 1.374 . S
C1882 H1897 0.931 . S
Eu1883 N1874 2.600 . S
Eu1883 N1884 2.562 . S
Eu1883 O1918 2.335 . S
Eu1883 O1921 2.372 . S
Eu1883 O1922 2.462 . S
Eu1883 O1923 2.373 . S
Eu1883 O1925 2.432 . S
Eu1883 O1926 2.291 . S
Eu1883 C1947 2.787 . S
N1884 C1880 1.351 . S
N1884 Eu1883 2.562 . S
N1884 C1886 1.325 . S
C1885 C1879 1.404 . S
C1885 C1887 1.366 . S
C1885 H1893 0.930 . S
C1886 N1884 1.325 . S
C1886 C1887 1.416 . S
C1886 H1892 0.929 . S
C1887 C1885 1.366 . S
C1887 C1886 1.416 . S
C1887 H1889 0.930 . S
H1888 C1877 0.930 . S
H1889 C1887 0.930 . S
H1890 C1905 0.930 . S
H1891 C1912 0.930 . S
H1892 C1886 0.929 . S
H1893 C1885 0.930 . S
H1894 C1908 0.929 . S
H1895 C1875 0.931 . S
H1896 C1881 0.931 . S
H1897 C1882 0.931 . S
H1898 C1903 0.931 . S
H1899 C1878 0.929 . S
H1900 C1911 0.930 . S
N1901 Eu1872 2.600 . S
N1901 C1902 1.365 . S
N1901 C1905 1.319 . S
C1902 N1901 1.365 . S
C1902 C1904 1.405 . S
C1902 C1910 1.448 . S
C1903 H1898 0.931 . S
C1903 C1905 1.397 . S
C1903 C1906 1.367 . S
C1904 C1902 1.405 . S
C1904 C1906 1.403 . S
C1904 C1937 1.439 . S
C1905 H1890 0.930 . S
C1905 N1901 1.319 . S
C1905 C1903 1.397 . S
C1906 C1903 1.367 . S
C1906 C1904 1.403 . S
C1906 H1913 0.929 . S
N1907 Eu1872 2.562 . S
N1907 C1908 1.325 . S
N1907 C1910 1.351 . S
C1908 H1894 0.929 . S
C1908 N1907 1.325 . S
C1908 C1912 1.416 . S
C1909 C1910 1.430 . S
C1909 C1911 1.404 . S
C1909 C1938 1.387 . S
C1910 C1902 1.448 . S
C1910 N1907 1.351 . S
C1910 C1909 1.430 . S
C1911 H1900 0.930 . S
C1911 C1909 1.404 . S
C1911 C1912 1.366 . S
C1912 H1891 0.930 . S
C1912 C1908 1.416 . S
C1912 C1911 1.366 . S
H1913 C1906 0.929 . S
H1914 C1937 0.931 . S
H1915 C1938 0.931 . S
O1916 Eu1872 2.462 . S
O1916 C1936 1.252 . S
O1917 Eu1872 2.373 . S
O1917 C1928 1.249 . S
O1918 Eu1883 2.335 . S
O1918 C1928 1.264 . S
O1919 Eu1872 2.432 . S
O1919 C1936 1.268 . S
O1920 Eu1872 2.291 . S
O1920 C1935 1.255 . S
O1921 Eu1883 2.372 . S
O1921 C1935 1.257 . S
O1922 Eu1883 2.462 . S
O1922 C1947 1.252 . S
O1923 Eu1883 2.373 . S
O1923 C1939 1.249 . S
O1924 Eu1872 2.335 . S
O1924 C1939 1.264 . S
O1925 Eu1883 2.432 . S
O1925 C1947 1.268 . S
O1926 Eu1883 2.291 . S
O1926 C1946 1.255 . S
O1927 Eu1872 2.372 . S
O1927 C1946 1.257 . S
C1928 O1917 1.249 . S
C1928 O1918 1.264 . S
C1929 C1932 1.382 . S
C1929 C1934 1.390 . S
C1929 C1936 1.506 . S
C1930 C1931 1.398 . S
C1930 C1934 1.392 . S
C1931 C1930 1.398 . S
C1931 C1933 1.372 . S
C1931 H1948 0.931 . S
C1932 C1929 1.382 . S
C1932 C1933 1.390 . S
C1932 H1949 0.931 . S
C1933 C1931 1.372 . S
C1933 C1932 1.390 . S
C1933 H1950 0.929 . S
C1934 C1929 1.390 . S
C1934 C1930 1.392 . S
C1934 H1951 0.930 . S
C1935 O1920 1.255 . S
C1935 O1921 1.257 . S
C1936 Eu1872 2.787 . S
C1936 O1916 1.252 . S
C1936 O1919 1.268 . S
C1936 C1929 1.506 . S
C1937 C1904 1.439 . S
C1937 H1914 0.931 . S
C1937 C1938 1.374 . S
C1938 C1909 1.387 . S
C1938 H1915 0.931 . S
C1938 C1937 1.374 . S
C1939 O1923 1.249 . S
C1939 O1924 1.264 . S
C1940 C1943 1.382 . S
C1940 C1944 1.390 . S
C1940 C1947 1.506 . S
C1941 C1942 1.398 . S
C1941 C1944 1.392 . S
C1942 C1941 1.398 . S
C1942 C1945 1.372 . S
C1942 H1952 0.931 . S
C1943 C1940 1.382 . S
C1943 C1945 1.390 . S
C1943 H1953 0.931 . S
C1944 C1940 1.390 . S
C1944 C1941 1.392 . S
C1944 H1954 0.930 . S
C1945 C1942 1.372 . S
C1945 C1943 1.390 . S
C1945 H1955 0.929 . S
C1946 O1926 1.255 . S
C1946 O1927 1.257 . S
C1947 Eu1883 2.787 . S
C1947 O1922 1.252 . S
C1947 O1925 1.268 . S
C1947 C1940 1.506 . S
H1948 C1931 0.931 . S
H1949 C1932 0.931 . S
H1950 C1933 0.929 . S
H1951 C1934 0.930 . S
H1952 C1942 0.931 . S
H1953 C1943 0.931 . S
H1954 C1944 0.930 . S
H1955 C1945 0.929 . S
Eu1956 N1985 2.600 . S
Eu1956 N1991 2.562 . S
Eu1956 O2000 2.462 . S
Eu1956 O2001 2.373 . S
Eu1956 O2003 2.432 . S
Eu1956 O2004 2.291 . S
Eu1956 O2008 2.335 . S
Eu1956 O2011 2.372 . S
Eu1956 C2020 2.787 . S
C1957 N1958 1.365 . S
C1957 C1960 1.405 . S
C1957 C1964 1.448 . S
N1958 C1957 1.365 . S
N1958 C1961 1.319 . S
N1958 Eu1967 2.600 . S
C1959 C1961 1.397 . S
C1959 C1962 1.367 . S
C1959 H1979 0.931 . S
C1960 C1957 1.405 . S
C1960 C1962 1.403 . S
C1960 C1966 1.439 . S
C1961 N1958 1.319 . S
C1961 C1959 1.397 . S
C1961 H1972 0.930 . S
C1962 C1959 1.367 . S
C1962 C1960 1.403 . S
C1962 H1983 0.929 . S
C1963 C1964 1.430 . S
C1963 C1965 1.387 . S
C1963 C1969 1.404 . S
C1964 C1957 1.448 . S
C1964 C1963 1.430 . S
C1964 N1968 1.351 . S
C1965 C1963 1.387 . S
C1965 C1966 1.374 . S
C1965 H1980 0.931 . S
C1966 C1960 1.439 . S
C1966 C1965 1.374 . S
C1966 H1981 0.931 . S
Eu1967 N1958 2.600 . S
Eu1967 N1968 2.562 . S
Eu1967 O2002 2.335 . S
Eu1967 O2005 2.372 . S
Eu1967 O2006 2.462 . S
Eu1967 O2007 2.373 . S
Eu1967 O2009 2.432 . S
Eu1967 O2010 2.291 . S
Eu1967 C2031 2.787 . S
N1968 C1964 1.351 . S
N1968 Eu1967 2.562 . S
N1968 C1970 1.325 . S
C1969 C1963 1.404 . S
C1969 C1971 1.366 . S
C1969 H1977 0.930 . S
C1970 N1968 1.325 . S
C1970 C1971 1.416 . S
C1970 H1976 0.929 . S
C1971 C1969 1.366 . S
C1971 C1970 1.416 . S
C1971 H1973 0.930 . S
H1972 C1961 0.930 . S
H1973 C1971 0.930 . S
H1974 C1989 0.930 . S
H1975 C1996 0.930 . S
H1976 C1970 0.929 . S
H1977 C1969 0.930 . S
H1978 C1992 0.929 . S
H1979 C1959 0.931 . S
H1980 C1965 0.931 . S
H1981 C1966 0.931 . S
H1982 C1987 0.931 . S
H1983 C1962 0.929 . S
H1984 C1995 0.930 . S
N1985 Eu1956 2.600 . S
N1985 C1986 1.365 . S
N1985 C1989 1.319 . S
C1986 N1985 1.365 . S
C1986 C1988 1.405 . S
C1986 C1994 1.448 . S
C1987 H1982 0.931 . S
C1987 C1989 1.397 . S
C1987 C1990 1.367 . S
C1988 C1986 1.405 . S
C1988 C1990 1.403 . S
C1988 C2021 1.439 . S
C1989 H1974 0.930 . S
C1989 N1985 1.319 . S
C1989 C1987 1.397 . S
C1990 C1987 1.367 . S
C1990 C1988 1.403 . S
C1990 H1997 0.929 . S
N1991 Eu1956 2.562 . S
N1991 C1992 1.325 . S
N1991 C1994 1.351 . S
C1992 H1978 0.929 . S
C1992 N1991 1.325 . S
C1992 C1996 1.416 . S
C1993 C1994 1.430 . S
C1993 C1995 1.404 . S
C1993 C2022 1.387 . S
C1994 C1986 1.448 . S
C1994 N1991 1.351 . S
C1994 C1993 1.430 . S
C1995 H1984 0.930 . S
C1995 C1993 1.404 . S
C1995 C1996 1.366 . S
C1996 H1975 0.930 . S
C1996 C1992 1.416 . S
C1996 C1995 1.366 . S
H1997 C1990 0.929 . S
H1998 C2021 0.931 . S
H1999 C2022 0.931 . S
O2000 Eu1956 2.462 . S
O2000 C2020 1.252 . S
O2001 Eu1956 2.373 . S
O2001 C2012 1.249 . S
O2002 Eu1967 2.335 . S
O2002 C2012 1.264 . S
O2003 Eu1956 2.432 . S
O2003 C2020 1.268 . S
O2004 Eu1956 2.291 . S
O2004 C2019 1.255 . S
O2005 Eu1967 2.372 . S
O2005 C2019 1.257 . S
O2006 Eu1967 2.462 . S
O2006 C2031 1.252 . S
O2007 Eu1967 2.373 . S
O2007 C2023 1.249 . S
O2008 Eu1956 2.335 . S
O2008 C2023 1.264 . S
O2009 Eu1967 2.432 . S
O2009 C2031 1.268 . S
O2010 Eu1967 2.291 . S
O2010 C2030 1.255 . S
O2011 Eu1956 2.372 . S
O2011 C2030 1.257 . S
C2012 O2001 1.249 . S
C2012 O2002 1.264 . S
C2013 C2016 1.382 . S
C2013 C2018 1.390 . S
C2013 C2020 1.506 . S
C2014 C2015 1.398 . S
C2014 C2018 1.392 . S
C2015 C2014 1.398 . S
C2015 C2017 1.372 . S
C2015 H2032 0.931 . S
C2016 C2013 1.382 . S
C2016 C2017 1.390 . S
C2016 H2033 0.931 . S
C2017 C2015 1.372 . S
C2017 C2016 1.390 . S
C2017 H2034 0.929 . S
C2018 C2013 1.390 . S
C2018 C2014 1.392 . S
C2018 H2035 0.930 . S
C2019 O2004 1.255 . S
C2019 O2005 1.257 . S
C2020 Eu1956 2.787 . S
C2020 O2000 1.252 . S
C2020 O2003 1.268 . S
C2020 C2013 1.506 . S
C2021 C1988 1.439 . S
C2021 H1998 0.931 . S
C2021 C2022 1.374 . S
C2022 C1993 1.387 . S
C2022 H1999 0.931 . S
C2022 C2021 1.374 . S
C2023 O2007 1.249 . S
C2023 O2008 1.264 . S
C2024 C2027 1.382 . S
C2024 C2028 1.390 . S
C2024 C2031 1.506 . S
C2025 C2026 1.398 . S
C2025 C2028 1.392 . S
C2026 C2025 1.398 . S
C2026 C2029 1.372 . S
C2026 H2036 0.931 . S
C2027 C2024 1.382 . S
C2027 C2029 1.390 . S
C2027 H2037 0.931 . S
C2028 C2024 1.390 . S
C2028 C2025 1.392 . S
C2028 H2038 0.930 . S
C2029 C2026 1.372 . S
C2029 C2027 1.390 . S
C2029 H2039 0.929 . S
C2030 O2010 1.255 . S
C2030 O2011 1.257 . S
C2031 Eu1967 2.787 . S
C2031 O2006 1.252 . S
C2031 O2009 1.268 . S
C2031 C2024 1.506 . S
H2032 C2015 0.931 . S
H2033 C2016 0.931 . S
H2034 C2017 0.929 . S
H2035 C2018 0.930 . S
H2036 C2026 0.931 . S
H2037 C2027 0.931 . S
H2038 C2028 0.930 . S
H2039 C2029 0.929 . S
Eu2040 N2069 2.600 . S
Eu2040 N2075 2.562 . S
Eu2040 O2084 2.462 . S
Eu2040 O2085 2.373 . S
Eu2040 O2087 2.432 . S
Eu2040 O2088 2.291 . S
Eu2040 O2092 2.335 . S
Eu2040 O2095 2.372 . S
Eu2040 C2104 2.787 . S
C2041 N2042 1.365 . S
C2041 C2044 1.405 . S
C2041 C2048 1.448 . S
N2042 C2041 1.365 . S
N2042 C2045 1.319 . S
N2042 Eu2051 2.600 . S
C2043 C2045 1.397 . S
C2043 C2046 1.367 . S
C2043 H2063 0.931 . S
C2044 C2041 1.405 . S
C2044 C2046 1.403 . S
C2044 C2050 1.439 . S
C2045 N2042 1.319 . S
C2045 C2043 1.397 . S
C2045 H2056 0.930 . S
C2046 C2043 1.367 . S
C2046 C2044 1.403 . S
C2046 H2067 0.929 . S
C2047 C2048 1.430 . S
C2047 C2049 1.387 . S
C2047 C2053 1.404 . S
C2048 C2041 1.448 . S
C2048 C2047 1.430 . S
C2048 N2052 1.351 . S
C2049 C2047 1.387 . S
C2049 C2050 1.374 . S
C2049 H2064 0.931 . S
C2050 C2044 1.439 . S
C2050 C2049 1.374 . S
C2050 H2065 0.931 . S
Eu2051 N2042 2.600 . S
Eu2051 N2052 2.562 . S
Eu2051 O2086 2.335 . S
Eu2051 O2089 2.372 . S
Eu2051 O2090 2.462 . S
Eu2051 O2091 2.373 . S
Eu2051 O2093 2.432 . S
Eu2051 O2094 2.291 . S
Eu2051 C2115 2.787 . S
N2052 C2048 1.351 . S
N2052 Eu2051 2.562 . S
N2052 C2054 1.325 . S
C2053 C2047 1.404 . S
C2053 C2055 1.366 . S
C2053 H2061 0.930 . S
C2054 N2052 1.325 . S
C2054 C2055 1.416 . S
C2054 H2060 0.929 . S
C2055 C2053 1.366 . S
C2055 C2054 1.416 . S
C2055 H2057 0.930 . S
H2056 C2045 0.930 . S
H2057 C2055 0.930 . S
H2058 C2073 0.930 . S
H2059 C2080 0.930 . S
H2060 C2054 0.929 . S
H2061 C2053 0.930 . S
H2062 C2076 0.929 . S
H2063 C2043 0.931 . S
H2064 C2049 0.931 . S
H2065 C2050 0.931 . S
H2066 C2071 0.931 . S
H2067 C2046 0.929 . S
H2068 C2079 0.930 . S
N2069 Eu2040 2.600 . S
N2069 C2070 1.365 . S
N2069 C2073 1.319 . S
C2070 N2069 1.365 . S
C2070 C2072 1.405 . S
C2070 C2078 1.448 . S
C2071 H2066 0.931 . S
C2071 C2073 1.397 . S
C2071 C2074 1.367 . S
C2072 C2070 1.405 . S
C2072 C2074 1.403 . S
C2072 C2105 1.439 . S
C2073 H2058 0.930 . S
C2073 N2069 1.319 . S
C2073 C2071 1.397 . S
C2074 C2071 1.367 . S
C2074 C2072 1.403 . S
C2074 H2081 0.929 . S
N2075 Eu2040 2.562 . S
N2075 C2076 1.325 . S
N2075 C2078 1.351 . S
C2076 H2062 0.929 . S
C2076 N2075 1.325 . S
C2076 C2080 1.416 . S
C2077 C2078 1.430 . S
C2077 C2079 1.404 . S
C2077 C2106 1.387 . S
C2078 C2070 1.448 . S
C2078 N2075 1.351 . S
C2078 C2077 1.430 . S
C2079 H2068 0.930 . S
C2079 C2077 1.404 . S
C2079 C2080 1.366 . S
C2080 H2059 0.930 . S
C2080 C2076 1.416 . S
C2080 C2079 1.366 . S
H2081 C2074 0.929 . S
H2082 C2105 0.931 . S
H2083 C2106 0.931 . S
O2084 Eu2040 2.462 . S
O2084 C2104 1.252 . S
O2085 Eu2040 2.373 . S
O2085 C2096 1.249 . S
O2086 Eu2051 2.335 . S
O2086 C2096 1.264 . S
O2087 Eu2040 2.432 . S
O2087 C2104 1.268 . S
O2088 Eu2040 2.291 . S
O2088 C2103 1.255 . S
O2089 Eu2051 2.372 . S
O2089 C2103 1.257 . S
O2090 Eu2051 2.462 . S
O2090 C2115 1.252 . S
O2091 Eu2051 2.373 . S
O2091 C2107 1.249 . S
O2092 Eu2040 2.335 . S
O2092 C2107 1.264 . S
O2093 Eu2051 2.432 . S
O2093 C2115 1.268 . S
O2094 Eu2051 2.291 . S
O2094 C2114 1.255 . S
O2095 Eu2040 2.372 . S
O2095 C2114 1.257 . S
C2096 O2085 1.249 . S
C2096 O2086 1.264 . S
C2097 C2100 1.382 . S
C2097 C2102 1.390 . S
C2097 C2104 1.506 . S
C2098 C2099 1.398 . S
C2098 C2102 1.392 . S
C2099 C2098 1.398 . S
C2099 C2101 1.372 . S
C2099 H2116 0.931 . S
C2100 C2097 1.382 . S
C2100 C2101 1.390 . S
C2100 H2117 0.931 . S
C2101 C2099 1.372 . S
C2101 C2100 1.390 . S
C2101 H2118 0.929 . S
C2102 C2097 1.390 . S
C2102 C2098 1.392 . S
C2102 H2119 0.930 . S
C2103 O2088 1.255 . S
C2103 O2089 1.257 . S
C2104 Eu2040 2.787 . S
C2104 O2084 1.252 . S
C2104 O2087 1.268 . S
C2104 C2097 1.506 . S
C2105 C2072 1.439 . S
C2105 H2082 0.931 . S
C2105 C2106 1.374 . S
C2106 C2077 1.387 . S
C2106 H2083 0.931 . S
C2106 C2105 1.374 . S
C2107 O2091 1.249 . S
C2107 O2092 1.264 . S
C2108 C2111 1.382 . S
C2108 C2112 1.390 . S
C2108 C2115 1.506 . S
C2109 C2110 1.398 . S
C2109 C2112 1.392 . S
C2110 C2109 1.398 . S
C2110 C2113 1.372 . S
C2110 H2120 0.931 . S
C2111 C2108 1.382 . S
C2111 C2113 1.390 . S
C2111 H2121 0.931 . S
C2112 C2108 1.390 . S
C2112 C2109 1.392 . S
C2112 H2122 0.930 . S
C2113 C2110 1.372 . S
C2113 C2111 1.390 . S
C2113 H2123 0.929 . S
C2114 O2094 1.255 . S
C2114 O2095 1.257 . S
C2115 Eu2051 2.787 . S
C2115 O2090 1.252 . S
C2115 O2093 1.268 . S
C2115 C2108 1.506 . S
H2116 C2099 0.931 . S
H2117 C2100 0.931 . S
H2118 C2101 0.929 . S
H2119 C2102 0.930 . S
H2120 C2110 0.931 . S
H2121 C2111 0.931 . S
H2122 C2112 0.930 . S
H2123 C2113 0.929 . S
Eu2124 N2153 2.590 1_455 S
Eu2124 N2159 2.538 1_455 S
Eu2124 O2168 2.429 1_455 S
Eu2124 O2169 2.394 . S
Eu2124 O2171 2.405 1_455 S
Eu2124 O2172 2.299 . S
Eu2124 O2176 2.347 . S
Eu2124 O2179 2.399 . S
Eu2124 C2188 2.753 1_455 S
C2125 N2126 1.365 . S
C2125 C2128 1.405 . S
C2125 C2132 1.448 1_556 S
N2126 C2125 1.365 . S
N2126 C2129 1.319 . S
N2126 Eu2135 2.600 1_556 S
C2127 C2129 1.397 . S
C2127 C2130 1.367 . S
C2127 H2147 0.931 . S
C2128 C2125 1.405 . S
C2128 C2130 1.403 . S
C2128 C2134 1.439 . S
C2129 N2126 1.319 . S
C2129 C2127 1.397 . S
C2129 H2140 0.930 . S
C2130 C2127 1.367 . S
C2130 C2128 1.403 . S
C2130 H2151 0.929 . S
C2131 C2132 1.430 . S
C2131 C2133 1.387 . S
C2131 C2137 1.404 . S
C2132 C2125 1.448 1_554 S
C2132 C2131 1.430 . S
C2132 N2136 1.351 . S
C2133 C2131 1.387 . S
C2133 C2134 1.374 1_554 S
C2133 H2148 0.931 . S
C2134 C2128 1.439 . S
C2134 C2133 1.374 1_556 S
C2134 H2149 0.931 . S
Eu2135 N2126 2.600 1_554 S
Eu2135 N2136 2.562 . S
Eu2135 O2170 2.335 . S
Eu2135 O2173 2.372 1_554 S
Eu2135 O2174 2.462 . S
Eu2135 O2175 2.373 . S
Eu2135 O2177 2.432 1_554 S
Eu2135 O2178 2.291 . S
Eu2135 C2199 2.787 . S
N2136 C2132 1.351 . S
N2136 Eu2135 2.562 . S
N2136 C2138 1.325 . S
C2137 C2131 1.404 . S
C2137 C2139 1.366 . S
C2137 H2145 0.930 . S
C2138 N2136 1.325 . S
C2138 C2139 1.416 . S
C2138 H2144 0.929 . S
C2139 C2137 1.366 . S
C2139 C2138 1.416 . S
C2139 H2141 0.930 . S
H2140 C2129 0.930 . S
H2141 C2139 0.930 . S
H2142 C2157 0.930 1_455 S
H2143 C2164 0.965 . S
H2144 C2138 0.929 . S
H2145 C2137 0.930 . S
H2146 C2160 0.929 1_556 S
H2147 C2127 0.931 . S
H2148 C2133 0.931 . S
H2149 C2134 0.931 . S
H2150 C2155 0.923 1_455 S
H2151 C2130 0.929 . S
H2152 C2163 0.930 . S
N2153 Eu2124 2.590 1_655 S
N2153 C2154 1.365 . S
N2153 C2157 1.319 . S
C2154 N2153 1.365 . S
C2154 C2156 1.405 . S
C2154 C2162 1.448 . S
C2155 H2150 0.923 1_655 S
C2155 C2157 1.397 . S
C2155 C2158 1.367 . S
C2156 C2154 1.405 . S
C2156 C2158 1.403 . S
C2156 C2189 1.439 . S
C2157 H2142 0.930 1_655 S
C2157 N2153 1.319 . S
C2157 C2155 1.397 . S
C2158 C2155 1.367 . S
C2158 C2156 1.403 . S
C2158 H2165 0.929 . S
N2159 Eu2124 2.538 1_655 S
N2159 C2160 1.325 . S
N2159 C2162 1.351 . S
C2160 H2146 0.929 1_554 S
C2160 N2159 1.325 . S
C2160 C2164 1.408 1_554 S
C2161 C2162 1.430 . S
C2161 C2163 1.404 . S
C2161 C2190 1.387 . S
C2162 C2154 1.448 . S
C2162 N2159 1.351 . S
C2162 C2161 1.430 . S
C2163 H2152 0.930 . S
C2163 C2161 1.404 . S
C2163 C2164 1.338 1_554 S
C2164 H2143 0.965 . S
C2164 C2160 1.408 1_556 S
C2164 C2163 1.338 1_556 S
H2165 C2158 0.929 . S
H2166 C2189 0.931 . S
H2167 C2190 0.931 . S
O2168 Eu2124 2.429 1_655 S
O2168 C2188 1.252 . S
O2169 Eu2124 2.394 . S
O2169 C2180 1.249 . S
O2170 Eu2135 2.335 . S
O2170 C2180 1.264 . S
O2171 Eu2124 2.405 1_655 S
O2171 C2188 1.268 . S
O2172 Eu2124 2.299 . S
O2172 C2187 1.255 1_554 S
O2173 Eu2135 2.372 1_556 S
O2173 C2187 1.257 . S
O2174 Eu2135 2.462 . S
O2174 C2199 1.252 . S
O2175 Eu2135 2.373 . S
O2175 C2191 1.249 . S
O2176 Eu2124 2.347 . S
O2176 C2191 1.264 . S
O2177 Eu2135 2.432 1_556 S
O2177 C2199 1.268 1_556 S
O2178 Eu2135 2.291 . S
O2178 C2198 1.255 . S
O2179 Eu2124 2.399 . S
O2179 C2198 1.257 . S
C2180 O2169 1.249 . S
C2180 O2170 1.264 . S
C2181 C2184 1.382 . S
C2181 C2186 1.390 . S
C2181 C2188 1.506 . S
C2182 C2183 1.398 . S
C2182 C2186 1.392 . S
C2183 C2182 1.398 . S
C2183 C2185 1.372 . S
C2183 H2200 0.931 . S
C2184 C2181 1.382 . S
C2184 C2185 1.390 . S
C2184 H2201 0.931 . S
C2185 C2183 1.372 . S
C2185 C2184 1.390 . S
C2185 H2202 0.929 . S
C2186 C2181 1.390 . S
C2186 C2182 1.392 . S
C2186 H2203 0.930 . S
C2187 O2172 1.255 1_556 S
C2187 O2173 1.257 . S
C2188 Eu2124 2.753 1_655 S
C2188 O2168 1.252 . S
C2188 O2171 1.268 . S
C2188 C2181 1.506 . S
C2189 C2156 1.439 . S
C2189 H2166 0.931 . S
C2189 C2190 1.374 . S
C2190 C2161 1.387 . S
C2190 H2167 0.931 . S
C2190 C2189 1.374 . S
C2191 O2175 1.249 . S
C2191 O2176 1.264 . S
C2192 C2195 1.382 . S
C2192 C2196 1.390 1_556 S
C2192 C2199 1.506 1_556 S
C2193 C2194 1.398 1_554 S
C2193 C2196 1.392 . S
C2194 C2193 1.398 1_556 S
C2194 C2197 1.372 . S
C2194 H2204 0.931 . S
C2195 C2192 1.382 . S
C2195 C2197 1.390 . S
C2195 H2205 0.931 . S
C2196 C2192 1.390 1_554 S
C2196 C2193 1.392 . S
C2196 H2206 0.930 . S
C2197 C2194 1.372 . S
C2197 C2195 1.390 . S
C2197 H2207 0.929 . S
C2198 O2178 1.255 . S
C2198 O2179 1.257 . S
C2199 Eu2135 2.787 . S
C2199 O2174 1.252 . S
C2199 O2177 1.268 1_554 S
C2199 C2192 1.506 1_554 S
H2200 C2183 0.931 . S
H2201 C2184 0.931 . S
H2202 C2185 0.929 . S
H2203 C2186 0.930 . S
H2204 C2194 0.931 . S
H2205 C2195 0.931 . S
H2206 C2196 0.930 . S
H2207 C2197 0.929 . S
H2208 C2220 0.930 . S
H2209 C2222 0.930 1_554 S
H2210 C2223 0.930 . S
H2211 C2227 0.959 . S
H2212 C2227 0.959 . S
H2213 C2227 0.961 . S
H2214 C2228 0.960 1_655 S
H2215 C2228 0.961 1_655 S
H2216 C2228 0.959 . S
H2217 C2231 0.929 . S
H2218 C2232 0.931 . S
H2219 C2234 0.930 1_655 S
C2220 H2208 0.930 . S
C2220 C2221 1.392 1_655 S
C2220 C2225 1.403 . S
C2221 C2220 1.392 1_455 S
C2221 C2222 1.410 . S
C2222 H2209 0.930 1_556 S
C2222 C2221 1.410 . S
C2222 C2223 1.388 1_556 S
C2223 H2210 0.930 . S
C2223 C2222 1.388 1_554 S
C2223 C2224 1.390 1_554 S
C2224 C2223 1.390 1_556 S
C2224 C2225 1.388 1_455 S
C2224 C2230 1.465 1_556 S
C2225 C2220 1.403 . S
C2225 C2224 1.388 1_655 S
C2225 C2226 1.516 . S
C2226 C2225 1.516 . S
C2226 C2227 1.502 . S
C2226 C2228 1.561 1_655 S
C2226 C2229 1.526 1_655 S
C2227 H2211 0.959 . S
C2227 H2212 0.959 . S
C2227 H2213 0.961 . S
C2227 C2226 1.502 . S
C2228 H2214 0.960 1_455 S
C2228 H2215 0.961 1_455 S
C2228 H2216 0.959 . S
C2228 C2226 1.561 1_455 S
C2229 C2226 1.526 1_455 S
C2229 C2230 1.396 1_556 S
C2229 C2234 1.390 . S
C2230 C2224 1.465 1_554 S
C2230 C2229 1.396 1_554 S
C2230 C2231 1.399 . S
C2231 H2217 0.929 . S
C2231 C2230 1.399 . S
C2231 C2232 1.385 . S
C2232 H2218 0.931 . S
C2232 C2231 1.385 . S
C2232 C2233 1.389 . S
C2233 C2232 1.389 . S
C2233 C2234 1.387 1_554 S
C2234 H2219 0.930 1_455 S
C2234 C2229 1.390 . S
C2234 C2233 1.387 1_556 S
H2235 C2247 0.930 . S
H2236 C2249 0.930 . S
H2237 C2250 0.930 . S
H2238 C2254 0.959 . S
H2239 C2254 0.959 . S
H2240 C2254 0.961 . S
H2241 C2255 0.960 . S
H2242 C2255 0.961 . S
H2243 C2255 0.959 . S
H2244 C2258 0.929 . S
H2245 C2259 0.931 . S
H2246 C2261 0.930 . S
C2247 H2235 0.930 . S
C2247 C2248 1.399 . S
C2247 C2252 1.399 . S
C2248 C2247 1.399 . S
C2248 C2249 1.376 . S
C2249 H2236 0.930 . S
C2249 C2248 1.376 . S
C2249 C2250 1.388 . S
C2250 H2237 0.930 . S
C2250 C2249 1.388 . S
C2250 C2251 1.390 . S
C2251 C2250 1.390 . S
C2251 C2252 1.394 . S
C2251 C2257 1.465 . S
C2252 C2247 1.399 . S
C2252 C2251 1.394 . S
C2252 C2253 1.516 . S
C2253 C2252 1.516 . S
C2253 C2254 1.502 . S
C2253 C2255 1.561 . S
C2253 C2256 1.526 . S
C2254 H2238 0.959 . S
C2254 H2239 0.959 . S
C2254 H2240 0.961 . S
C2254 C2253 1.502 . S
C2255 H2241 0.960 . S
C2255 H2242 0.961 . S
C2255 H2243 0.959 . S
C2255 C2253 1.561 . S
C2256 C2253 1.526 . S
C2256 C2257 1.396 . S
C2256 C2261 1.390 . S
C2257 C2251 1.465 . S
C2257 C2256 1.396 . S
C2257 C2258 1.399 . S
C2258 H2244 0.929 . S
C2258 C2257 1.399 . S
C2258 C2259 1.385 . S
C2259 H2245 0.931 . S
C2259 C2258 1.385 . S
C2259 C2260 1.389 . S
C2260 C2259 1.389 . S
C2260 C2261 1.387 . S
C2261 H2246 0.930 . S
C2261 C2256 1.390 . S
C2261 C2260 1.387 . S
H2262 C2274 0.930 . S
H2263 C2276 0.930 . S
H2264 C2277 0.930 . S
H2265 C2281 0.959 . S
H2266 C2281 0.959 . S
H2267 C2281 0.961 . S
H2268 C2282 0.960 . S
H2269 C2282 0.961 . S
H2270 C2282 0.959 . S
H2271 C2285 0.929 . S
H2272 C2286 0.931 . S
H2273 C2288 0.930 . S
C2274 H2262 0.930 . S
C2274 C2275 1.399 . S
C2274 C2279 1.399 . S
C2275 C2274 1.399 . S
C2275 C2276 1.376 . S
C2276 H2263 0.930 . S
C2276 C2275 1.376 . S
C2276 C2277 1.388 . S
C2277 H2264 0.930 . S
C2277 C2276 1.388 . S
C2277 C2278 1.390 . S
C2278 C2277 1.390 . S
C2278 C2279 1.394 . S
C2278 C2284 1.465 . S
C2279 C2274 1.399 . S
C2279 C2278 1.394 . S
C2279 C2280 1.516 . S
C2280 C2279 1.516 . S
C2280 C2281 1.502 . S
C2280 C2282 1.561 . S
C2280 C2283 1.526 . S
C2281 H2265 0.959 . S
C2281 H2266 0.959 . S
C2281 H2267 0.961 . S
C2281 C2280 1.502 . S
C2282 H2268 0.960 . S
C2282 H2269 0.961 . S
C2282 H2270 0.959 . S
C2282 C2280 1.561 . S
C2283 C2280 1.526 . S
C2283 C2284 1.396 . S
C2283 C2288 1.390 . S
C2284 C2278 1.465 . S
C2284 C2283 1.396 . S
C2284 C2285 1.399 . S
C2285 H2271 0.929 . S
C2285 C2284 1.399 . S
C2285 C2286 1.385 . S
C2286 H2272 0.931 . S
C2286 C2285 1.385 . S
C2286 C2287 1.389 . S
C2287 C2286 1.389 . S
C2287 C2288 1.387 . S
C2288 H2273 0.930 . S
C2288 C2283 1.390 . S
C2288 C2287 1.387 . S
H2289 C2301 0.930 . S
H2290 C2303 0.930 . S
H2291 C2304 0.930 . S
H2292 C2308 0.959 . S
H2293 C2308 0.959 . S
H2294 C2308 0.961 . S
H2295 C2309 0.960 . S
H2296 C2309 0.961 . S
H2297 C2309 0.959 . S
H2298 C2312 0.929 . S
H2299 C2313 0.931 . S
H2300 C2315 0.930 . S
C2301 H2289 0.930 . S
C2301 C2302 1.399 . S
C2301 C2306 1.399 . S
C2302 C2301 1.399 . S
C2302 C2303 1.376 . S
C2303 H2290 0.930 . S
C2303 C2302 1.376 . S
C2303 C2304 1.388 . S
C2304 H2291 0.930 . S
C2304 C2303 1.388 . S
C2304 C2305 1.390 . S
C2305 C2304 1.390 . S
C2305 C2306 1.394 . S
C2305 C2311 1.465 . S
C2306 C2301 1.399 . S
C2306 C2305 1.394 . S
C2306 C2307 1.516 . S
C2307 C2306 1.516 . S
C2307 C2308 1.502 . S
C2307 C2309 1.561 . S
C2307 C2310 1.526 . S
C2308 H2292 0.959 . S
C2308 H2293 0.959 . S
C2308 H2294 0.961 . S
C2308 C2307 1.502 . S
C2309 H2295 0.960 . S
C2309 H2296 0.961 . S
C2309 H2297 0.959 . S
C2309 C2307 1.561 . S
C2310 C2307 1.526 . S
C2310 C2311 1.396 . S
C2310 C2315 1.390 . S
C2311 C2305 1.465 . S
C2311 C2310 1.396 . S
C2311 C2312 1.399 . S
C2312 H2298 0.929 . S
C2312 C2311 1.399 . S
C2312 C2313 1.385 . S
C2313 H2299 0.931 . S
C2313 C2312 1.385 . S
C2313 C2314 1.389 . S
C2314 C2313 1.389 . S
C2314 C2315 1.387 . S
C2315 H2300 0.930 . S
C2315 C2310 1.390 . S
C2315 C2314 1.387 . S
H2316 C2328 0.930 . S
H2317 C2330 0.910 1_655 S
H2318 C2331 0.930 . S
H2319 C2335 0.959 . S
H2320 C2335 0.959 . S
H2321 C2335 0.961 . S
H2322 C2336 0.960 . S
H2323 C2336 0.961 . S
H2324 C2336 0.959 . S
H2325 C2339 0.929 . S
H2326 C2340 0.931 1_655 S
H2327 C2342 0.930 . S
C2328 H2316 0.930 . S
C2328 C2329 1.399 . S
C2328 C2333 1.399 . S
C2329 C2328 1.399 . S
C2329 C2330 1.404 . S
C2330 H2317 0.910 1_455 S
C2330 C2329 1.404 . S
C2330 C2331 1.381 1_455 S
C2331 H2318 0.930 . S
C2331 C2330 1.381 1_655 S
C2331 C2332 1.390 1_655 S
C2332 C2331 1.390 1_455 S
C2332 C2333 1.394 . S
C2332 C2338 1.465 . S
C2333 C2328 1.399 . S
C2333 C2332 1.394 . S
C2333 C2334 1.516 . S
C2334 C2333 1.516 . S
C2334 C2335 1.502 . S
C2334 C2336 1.561 . S
C2334 C2337 1.526 . S
C2335 H2319 0.959 . S
C2335 H2320 0.959 . S
C2335 H2321 0.961 . S
C2335 C2334 1.502 . S
C2336 H2322 0.960 . S
C2336 H2323 0.961 . S
C2336 H2324 0.959 . S
C2336 C2334 1.561 . S
C2337 C2334 1.526 . S
C2337 C2338 1.396 . S
C2337 C2342 1.390 . S
C2338 C2332 1.465 . S
C2338 C2337 1.396 . S
C2338 C2339 1.399 1_455 S
C2339 H2325 0.929 . S
C2339 C2338 1.399 1_655 S
C2339 C2340 1.385 1_655 S
C2340 H2326 0.931 1_455 S
C2340 C2339 1.385 1_455 S
C2340 C2341 1.389 . S
C2341 C2340 1.389 . S
C2341 C2342 1.387 . S
C2342 H2327 0.930 . S
C2342 C2337 1.390 . S
C2342 C2341 1.387 . S
H2343 C2355 0.930 . S
H2344 C2357 0.930 . S
H2345 C2358 0.930 . S
H2346 C2362 0.959 . S
H2347 C2362 0.959 . S
H2348 C2362 0.961 . S
H2349 C2363 0.960 . S
H2350 C2363 0.961 . S
H2351 C2363 0.959 . S
H2352 C2366 0.929 . S
H2353 C2367 0.931 . S
H2354 C2369 0.930 . S
C2355 H2343 0.930 . S
C2355 C2356 1.399 . S
C2355 C2360 1.399 . S
C2356 C2355 1.399 . S
C2356 C2357 1.376 . S
C2357 H2344 0.930 . S
C2357 C2356 1.376 . S
C2357 C2358 1.388 . S
C2358 H2345 0.930 . S
C2358 C2357 1.388 . S
C2358 C2359 1.390 . S
C2359 C2358 1.390 . S
C2359 C2360 1.394 . S
C2359 C2365 1.465 . S
C2360 C2355 1.399 . S
C2360 C2359 1.394 . S
C2360 C2361 1.516 . S
C2361 C2360 1.516 . S
C2361 C2362 1.502 . S
C2361 C2363 1.561 . S
C2361 C2364 1.526 . S
C2362 H2346 0.959 . S
C2362 H2347 0.959 . S
C2362 H2348 0.961 . S
C2362 C2361 1.502 . S
C2363 H2349 0.960 . S
C2363 H2350 0.961 . S
C2363 H2351 0.959 . S
C2363 C2361 1.561 . S
C2364 C2361 1.526 . S
C2364 C2365 1.396 . S
C2364 C2369 1.390 . S
C2365 C2359 1.465 . S
C2365 C2364 1.396 . S
C2365 C2366 1.399 . S
C2366 H2352 0.929 . S
C2366 C2365 1.399 . S
C2366 C2367 1.385 . S
C2367 H2353 0.931 . S
C2367 C2366 1.385 . S
C2367 C2368 1.389 . S
C2368 C2367 1.389 . S
C2368 C2369 1.387 . S
C2369 H2354 0.930 . S
C2369 C2364 1.390 . S
C2369 C2368 1.387 . S
H2370 C2382 0.930 . S
H2371 C2384 0.930 . S
H2372 C2385 0.930 . S
H2373 C2389 0.959 . S
H2374 C2389 0.959 . S
H2375 C2389 0.961 . S
H2376 C2390 0.960 . S
H2377 C2390 0.961 . S
H2378 C2390 0.959 . S
H2379 C2393 0.929 . S
H2380 C2394 0.931 . S
H2381 C2396 0.930 . S
C2382 H2370 0.930 . S
C2382 C2383 1.399 . S
C2382 C2387 1.399 . S
C2383 C2382 1.399 . S
C2383 C2384 1.376 . S
C2384 H2371 0.930 . S
C2384 C2383 1.376 . S
C2384 C2385 1.388 . S
C2385 H2372 0.930 . S
C2385 C2384 1.388 . S
C2385 C2386 1.390 . S
C2386 C2385 1.390 . S
C2386 C2387 1.394 . S
C2386 C2392 1.465 . S
C2387 C2382 1.399 . S
C2387 C2386 1.394 . S
C2387 C2388 1.516 . S
C2388 C2387 1.516 . S
C2388 C2389 1.502 . S
C2388 C2390 1.561 . S
C2388 C2391 1.526 . S
C2389 H2373 0.959 . S
C2389 H2374 0.959 . S
C2389 H2375 0.961 . S
C2389 C2388 1.502 . S
C2390 H2376 0.960 . S
C2390 H2377 0.961 . S
C2390 H2378 0.959 . S
C2390 C2388 1.561 . S
C2391 C2388 1.526 . S
C2391 C2392 1.396 . S
C2391 C2396 1.390 . S
C2392 C2386 1.465 . S
C2392 C2391 1.396 . S
C2392 C2393 1.399 . S
C2393 H2379 0.929 . S
C2393 C2392 1.399 . S
C2393 C2394 1.385 . S
C2394 H2380 0.931 . S
C2394 C2393 1.385 . S
C2394 C2395 1.389 . S
C2395 C2394 1.389 . S
C2395 C2396 1.387 . S
C2396 H2381 0.930 . S
C2396 C2391 1.390 . S
C2396 C2395 1.387 . S
H2397 C2409 0.930 . S
H2398 C2411 0.930 . S
H2399 C2412 0.930 . S
H2400 C2416 0.959 . S
H2401 C2416 0.959 . S
H2402 C2416 0.961 . S
H2403 C2417 0.960 . S
H2404 C2417 0.961 . S
H2405 C2417 0.959 . S
H2406 C2420 0.929 . S
H2407 C2421 0.931 . S
H2408 C2423 0.930 . S
C2409 H2397 0.930 . S
C2409 C2410 1.399 . S
C2409 C2414 1.399 . S
C2410 C2409 1.399 . S
C2410 C2411 1.376 . S
C2411 H2398 0.930 . S
C2411 C2410 1.376 . S
C2411 C2412 1.388 . S
C2412 H2399 0.930 . S
C2412 C2411 1.388 . S
C2412 C2413 1.390 . S
C2413 C2412 1.390 . S
C2413 C2414 1.394 . S
C2413 C2419 1.465 . S
C2414 C2409 1.399 . S
C2414 C2413 1.394 . S
C2414 C2415 1.516 . S
C2415 C2414 1.516 . S
C2415 C2416 1.502 . S
C2415 C2417 1.561 . S
C2415 C2418 1.526 . S
C2416 H2400 0.959 . S
C2416 H2401 0.959 . S
C2416 H2402 0.961 . S
C2416 C2415 1.502 . S
C2417 H2403 0.960 . S
C2417 H2404 0.961 . S
C2417 H2405 0.959 . S
C2417 C2415 1.561 . S
C2418 C2415 1.526 . S
C2418 C2419 1.396 . S
C2418 C2423 1.390 . S
C2419 C2413 1.465 . S
C2419 C2418 1.396 . S
C2419 C2420 1.399 . S
C2420 H2406 0.929 . S
C2420 C2419 1.399 . S
C2420 C2421 1.385 . S
C2421 H2407 0.931 . S
C2421 C2420 1.385 . S
C2421 C2422 1.389 . S
C2422 C2421 1.389 . S
C2422 C2423 1.387 . S
C2423 H2408 0.930 . S
C2423 C2418 1.390 . S
C2423 C2422 1.387 . S
H2424 C2436 0.930 . S
H2425 C2438 0.930 1_565 S
H2426 C2439 0.939 1_565 S
H2427 C2443 0.959 . S
H2428 C2443 0.959 . S
H2429 C2443 0.961 . S
H2430 C2444 0.960 . S
H2431 C2444 0.961 . S
H2432 C2444 0.959 . S
H2433 C2447 0.929 . S
H2434 C2448 0.931 . S
H2435 C2450 0.930 . S
C2436 H2424 0.930 . S
C2436 C2437 1.399 . S
C2436 C2441 1.399 . S
C2437 C2436 1.399 . S
C2437 C2438 1.376 . S
C2438 H2425 0.930 1_545 S
C2438 C2437 1.376 . S
C2438 C2439 1.388 . S
C2439 H2426 0.939 1_545 S
C2439 C2438 1.388 . S
C2439 C2440 1.390 . S
C2440 C2439 1.390 . S
C2440 C2441 1.394 . S
C2440 C2446 1.465 . S
C2441 C2436 1.399 . S
C2441 C2440 1.394 . S
C2441 C2442 1.516 . S
C2442 C2441 1.516 . S
C2442 C2443 1.502 . S
C2442 C2444 1.561 . S
C2442 C2445 1.526 . S
C2443 H2427 0.959 . S
C2443 H2428 0.959 . S
C2443 H2429 0.961 . S
C2443 C2442 1.502 . S
C2444 H2430 0.960 . S
C2444 H2431 0.961 . S
C2444 H2432 0.959 . S
C2444 C2442 1.561 . S
C2445 C2442 1.526 . S
C2445 C2446 1.396 . S
C2445 C2450 1.390 . S
C2446 C2440 1.465 . S
C2446 C2445 1.396 . S
C2446 C2447 1.399 1_655 S
C2447 H2433 0.929 . S
C2447 C2446 1.399 1_455 S
C2447 C2448 1.385 . S
C2448 H2434 0.931 . S
C2448 C2447 1.385 . S
C2448 C2449 1.389 . S
C2449 C2448 1.389 . S
C2449 C2450 1.387 1_455 S
C2450 H2435 0.930 . S
C2450 C2445 1.390 . S
C2450 C2449 1.387 1_655 S
H2451 C2463 0.930 . S
H2452 C2465 0.930 . S
H2453 C2466 0.930 . S
H2454 C2470 0.959 . S
H2455 C2470 0.959 . S
H2456 C2470 0.961 . S
H2457 C2471 0.960 . S
H2458 C2471 0.961 . S
H2459 C2471 0.959 . S
H2460 C2474 0.929 . S
H2461 C2475 0.931 . S
H2462 C2477 0.930 . S
C2463 H2451 0.930 . S
C2463 C2464 1.399 . S
C2463 C2468 1.399 . S
C2464 C2463 1.399 . S
C2464 C2465 1.376 . S
C2465 H2452 0.930 . S
C2465 C2464 1.376 . S
C2465 C2466 1.388 . S
C2466 H2453 0.930 . S
C2466 C2465 1.388 . S
C2466 C2467 1.390 . S
C2467 C2466 1.390 . S
C2467 C2468 1.394 . S
C2467 C2473 1.465 . S
C2468 C2463 1.399 . S
C2468 C2467 1.394 . S
C2468 C2469 1.516 . S
C2469 C2468 1.516 . S
C2469 C2470 1.502 . S
C2469 C2471 1.561 . S
C2469 C2472 1.526 . S
C2470 H2454 0.959 . S
C2470 H2455 0.959 . S
C2470 H2456 0.961 . S
C2470 C2469 1.502 . S
C2471 H2457 0.960 . S
C2471 H2458 0.961 . S
C2471 H2459 0.959 . S
C2471 C2469 1.561 . S
C2472 C2469 1.526 . S
C2472 C2473 1.396 . S
C2472 C2477 1.390 . S
C2473 C2467 1.465 . S
C2473 C2472 1.396 . S
C2473 C2474 1.399 . S
C2474 H2460 0.929 . S
C2474 C2473 1.399 . S
C2474 C2475 1.385 . S
C2475 H2461 0.931 . S
C2475 C2474 1.385 . S
C2475 C2476 1.389 . S
C2476 C2475 1.389 . S
C2476 C2477 1.387 . S
C2477 H2462 0.930 . S
C2477 C2472 1.390 . S
C2477 C2476 1.387 . S
H2478 C2490 0.930 . S
H2479 C2492 0.930 . S
H2480 C2493 0.930 . S
H2481 C2497 0.959 . S
H2482 C2497 0.959 1_565 S
H2483 C2497 0.961 1_565 S
H2484 C2498 0.960 . S
H2485 C2498 0.961 . S
H2486 C2498 0.959 1_545 S
H2487 C2501 0.929 . S
H2488 C2502 0.931 . S
H2489 C2504 0.930 . S
C2490 H2478 0.930 . S
C2490 C2491 1.399 . S
C2490 C2495 1.399 . S
C2491 C2490 1.399 . S
C2491 C2492 1.376 . S
C2492 H2479 0.930 . S
C2492 C2491 1.376 . S
C2492 C2493 1.388 . S
C2493 H2480 0.930 . S
C2493 C2492 1.388 . S
C2493 C2494 1.390 . S
C2494 C2493 1.390 . S
C2494 C2495 1.394 . S
C2494 C2500 1.465 . S
C2495 C2490 1.399 . S
C2495 C2494 1.394 . S
C2495 C2496 1.516 . S
C2496 C2495 1.516 . S
C2496 C2497 1.502 . S
C2496 C2498 1.561 1_545 S
C2496 C2499 1.526 . S
C2497 H2481 0.959 . S
C2497 H2482 0.959 1_545 S
C2497 H2483 0.961 1_545 S
C2497 C2496 1.502 . S
C2498 H2484 0.960 . S
C2498 H2485 0.961 . S
C2498 H2486 0.959 1_565 S
C2498 C2496 1.561 1_565 S
C2499 C2496 1.526 . S
C2499 C2500 1.396 . S
C2499 C2504 1.390 . S
C2500 C2494 1.465 . S
C2500 C2499 1.396 . S
C2500 C2501 1.399 . S
C2501 H2487 0.929 . S
C2501 C2500 1.399 . S
C2501 C2502 1.385 . S
C2502 H2488 0.931 . S
C2502 C2501 1.385 . S
C2502 C2503 1.389 . S
C2503 C2502 1.389 . S
C2503 C2504 1.387 . S
C2504 H2489 0.930 . S
C2504 C2499 1.390 . S
C2504 C2503 1.387 . S
H2505 C2517 0.930 . S
H2506 C2519 0.930 . S
H2507 C2520 0.930 . S
H2508 C2524 0.959 . S
H2509 C2524 0.959 . S
H2510 C2524 0.961 . S
H2511 C2525 0.960 . S
H2512 C2525 0.961 . S
H2513 C2525 0.959 . S
H2514 C2528 0.929 . S
H2515 C2529 0.931 . S
H2516 C2531 0.930 . S
C2517 H2505 0.930 . S
C2517 C2518 1.399 . S
C2517 C2522 1.399 . S
C2518 C2517 1.399 . S
C2518 C2519 1.376 . S
C2519 H2506 0.930 . S
C2519 C2518 1.376 . S
C2519 C2520 1.388 . S
C2520 H2507 0.930 . S
C2520 C2519 1.388 . S
C2520 C2521 1.390 . S
C2521 C2520 1.390 . S
C2521 C2522 1.394 . S
C2521 C2527 1.465 . S
C2522 C2517 1.399 . S
C2522 C2521 1.394 . S
C2522 C2523 1.516 . S
C2523 C2522 1.516 . S
C2523 C2524 1.502 . S
C2523 C2525 1.561 . S
C2523 C2526 1.526 . S
C2524 H2508 0.959 . S
C2524 H2509 0.959 . S
C2524 H2510 0.961 . S
C2524 C2523 1.502 . S
C2525 H2511 0.960 . S
C2525 H2512 0.961 . S
C2525 H2513 0.959 . S
C2525 C2523 1.561 . S
C2526 C2523 1.526 . S
C2526 C2527 1.396 . S
C2526 C2531 1.390 . S
C2527 C2521 1.465 . S
C2527 C2526 1.396 . S
C2527 C2528 1.399 . S
C2528 H2514 0.929 . S
C2528 C2527 1.399 . S
C2528 C2529 1.385 . S
C2529 H2515 0.931 . S
C2529 C2528 1.385 . S
C2529 C2530 1.389 . S
C2530 C2529 1.389 . S
C2530 C2531 1.387 . S
C2531 H2516 0.930 . S
C2531 C2526 1.390 . S
C2531 C2530 1.387 . S
H2532 C2544 0.930 . S
H2533 C2546 0.930 . S
H2534 C2547 0.930 . S
H2535 C2551 0.959 . S
H2536 C2551 0.959 . S
H2537 C2551 0.961 . S
H2538 C2552 0.960 . S
H2539 C2552 0.961 . S
H2540 C2552 0.959 . S
H2541 C2555 0.929 . S
H2542 C2556 0.896 1_565 S
H2543 C2558 0.930 . S
C2544 H2532 0.930 . S
C2544 C2545 1.399 . S
C2544 C2549 1.399 . S
C2545 C2544 1.399 . S
C2545 C2546 1.376 1_545 S
C2546 H2533 0.930 . S
C2546 C2545 1.376 1_565 S
C2546 C2547 1.388 . S
C2547 H2534 0.930 . S
C2547 C2546 1.388 . S
C2547 C2548 1.390 1_565 S
C2548 C2547 1.390 1_545 S
C2548 C2549 1.394 . S
C2548 C2554 1.465 . S
C2549 C2544 1.399 . S
C2549 C2548 1.394 . S
C2549 C2550 1.516 . S
C2550 C2549 1.516 . S
C2550 C2551 1.502 1_655 S
C2550 C2552 1.561 . S
C2550 C2553 1.526 . S
C2551 H2535 0.959 . S
C2551 H2536 0.959 . S
C2551 H2537 0.961 . S
C2551 C2550 1.502 1_455 S
C2552 H2538 0.960 . S
C2552 H2539 0.961 . S
C2552 H2540 0.959 . S
C2552 C2550 1.561 . S
C2553 C2550 1.526 . S
C2553 C2554 1.396 . S
C2553 C2558 1.390 1_655 S
C2554 C2548 1.465 . S
C2554 C2553 1.396 . S
C2554 C2555 1.399 1_545 S
C2555 H2541 0.929 . S
C2555 C2554 1.399 1_565 S
C2555 C2556 1.385 1_565 S
C2556 H2542 0.896 1_545 S
C2556 C2555 1.385 1_545 S
C2556 C2557 1.425 1_655 S
C2557 C2556 1.425 1_455 S
C2557 C2558 1.387 . S
C2558 H2543 0.930 . S
C2558 C2553 1.390 1_455 S
C2558 C2557 1.387 . S
H2559 C2571 0.930 . S
H2560 C2573 0.930 . S
H2561 C2574 0.930 . S
H2562 C2578 0.959 . S
H2563 C2578 0.959 . S
H2564 C2578 0.961 . S
H2565 C2579 0.960 . S
H2566 C2579 0.961 . S
H2567 C2579 0.959 . S
H2568 C2582 0.929 . S
H2569 C2583 0.931 . S
H2570 C2585 0.930 . S
C2571 H2559 0.930 . S
C2571 C2572 1.399 . S
C2571 C2576 1.399 . S
C2572 C2571 1.399 . S
C2572 C2573 1.376 . S
C2573 H2560 0.930 . S
C2573 C2572 1.376 . S
C2573 C2574 1.388 . S
C2574 H2561 0.930 . S
C2574 C2573 1.388 . S
C2574 C2575 1.390 . S
C2575 C2574 1.390 . S
C2575 C2576 1.394 . S
C2575 C2581 1.465 . S
C2576 C2571 1.399 . S
C2576 C2575 1.394 . S
C2576 C2577 1.516 . S
C2577 C2576 1.516 . S
C2577 C2578 1.502 . S
C2577 C2579 1.561 . S
C2577 C2580 1.526 . S
C2578 H2562 0.959 . S
C2578 H2563 0.959 . S
C2578 H2564 0.961 . S
C2578 C2577 1.502 . S
C2579 H2565 0.960 . S
C2579 H2566 0.961 . S
C2579 H2567 0.959 . S
C2579 C2577 1.561 . S
C2580 C2577 1.526 . S
C2580 C2581 1.396 . S
C2580 C2585 1.390 . S
C2581 C2575 1.465 . S
C2581 C2580 1.396 . S
C2581 C2582 1.399 . S
C2582 H2568 0.929 . S
C2582 C2581 1.399 . S
C2582 C2583 1.385 . S
C2583 H2569 0.931 . S
C2583 C2582 1.385 . S
C2583 C2584 1.389 . S
C2584 C2583 1.389 . S
C2584 C2585 1.387 . S
C2585 H2570 0.930 . S
C2585 C2580 1.390 . S
C2585 C2584 1.387 . S
H2586 C2598 0.930 . S
H2587 C2600 0.930 . S
H2588 C2601 0.930 . S
H2589 C2605 0.959 . S
H2590 C2605 0.959 . S
H2591 C2605 0.961 . S
H2592 C2606 0.960 . S
H2593 C2606 0.961 . S
H2594 C2606 0.959 . S
H2595 C2609 0.929 . S
H2596 C2610 0.931 . S
H2597 C2612 0.930 . S
C2598 H2586 0.930 . S
C2598 C2599 1.399 . S
C2598 C2603 1.399 . S
C2599 C2598 1.399 . S
C2599 C2600 1.376 . S
C2600 H2587 0.930 . S
C2600 C2599 1.376 . S
C2600 C2601 1.388 . S
C2601 H2588 0.930 . S
C2601 C2600 1.388 . S
C2601 C2602 1.390 . S
C2602 C2601 1.390 . S
C2602 C2603 1.394 . S
C2602 C2608 1.465 . S
C2603 C2598 1.399 . S
C2603 C2602 1.394 . S
C2603 C2604 1.516 . S
C2604 C2603 1.516 . S
C2604 C2605 1.502 . S
C2604 C2606 1.561 . S
C2604 C2607 1.526 . S
C2605 H2589 0.959 . S
C2605 H2590 0.959 . S
C2605 H2591 0.961 . S
C2605 C2604 1.502 . S
C2606 H2592 0.960 . S
C2606 H2593 0.961 . S
C2606 H2594 0.959 . S
C2606 C2604 1.561 . S
C2607 C2604 1.526 . S
C2607 C2608 1.396 . S
C2607 C2612 1.390 . S
C2608 C2602 1.465 . S
C2608 C2607 1.396 . S
C2608 C2609 1.399 . S
C2609 H2595 0.929 . S
C2609 C2608 1.399 . S
C2609 C2610 1.385 . S
C2610 H2596 0.931 . S
C2610 C2609 1.385 . S
C2610 C2611 1.389 . S
C2611 C2610 1.389 . S
C2611 C2612 1.387 . S
C2612 H2597 0.930 . S
C2612 C2607 1.390 . S
C2612 C2611 1.387 . S
H2613 C2625 0.930 . S
H2614 C2627 0.930 . S
H2615 C2628 0.930 . S
H2616 C2632 0.959 . S
H2617 C2632 0.959 . S
H2618 C2632 0.961 . S
H2619 C2633 0.960 . S
H2620 C2633 0.961 . S
H2621 C2633 0.959 . S
H2622 C2636 0.929 . S
H2623 C2637 0.931 . S
H2624 C2639 0.930 . S
C2625 H2613 0.930 . S
C2625 C2626 1.399 . S
C2625 C2630 1.399 . S
C2626 C2625 1.399 . S
C2626 C2627 1.376 . S
C2627 H2614 0.930 . S
C2627 C2626 1.376 . S
C2627 C2628 1.388 . S
C2628 H2615 0.930 . S
C2628 C2627 1.388 . S
C2628 C2629 1.390 . S
C2629 C2628 1.390 . S
C2629 C2630 1.394 . S
C2629 C2635 1.465 . S
C2630 C2625 1.399 . S
C2630 C2629 1.394 . S
C2630 C2631 1.516 . S
C2631 C2630 1.516 . S
C2631 C2632 1.502 . S
C2631 C2633 1.561 . S
C2631 C2634 1.526 . S
C2632 H2616 0.959 . S
C2632 H2617 0.959 . S
C2632 H2618 0.961 . S
C2632 C2631 1.502 . S
C2633 H2619 0.960 . S
C2633 H2620 0.961 . S
C2633 H2621 0.959 . S
C2633 C2631 1.561 . S
C2634 C2631 1.526 . S
C2634 C2635 1.396 . S
C2634 C2639 1.390 . S
C2635 C2629 1.465 . S
C2635 C2634 1.396 . S
C2635 C2636 1.399 . S
C2636 H2622 0.929 . S
C2636 C2635 1.399 . S
C2636 C2637 1.385 . S
C2637 H2623 0.931 . S
C2637 C2636 1.385 . S
C2637 C2638 1.389 . S
C2638 C2637 1.389 . S
C2638 C2639 1.387 . S
C2639 H2624 0.930 . S
C2639 C2634 1.390 . S
C2639 C2638 1.387 . S
H2640 C2652 0.930 . S
H2641 C2654 0.930 . S
H2642 C2655 0.930 . S
H2643 C2659 0.959 . S
H2644 C2659 0.959 . S
H2645 C2659 0.961 . S
H2646 C2660 0.960 . S
H2647 C2660 0.961 . S
H2648 C2660 0.959 . S
H2649 C2663 0.929 1_556 S
H2650 C2664 0.931 . S
H2651 C2666 0.930 . S
C2652 H2640 0.930 . S
C2652 C2653 1.363 1_554 S
C2652 C2657 1.399 . S
C2653 C2652 1.363 1_556 S
C2653 C2654 1.405 . S
C2654 H2641 0.930 . S
C2654 C2653 1.405 . S
C2654 C2655 1.388 . S
C2655 H2642 0.930 . S
C2655 C2654 1.388 . S
C2655 C2656 1.390 1_556 S
C2656 C2655 1.390 1_554 S
C2656 C2657 1.394 . S
C2656 C2662 1.465 . S
C2657 C2652 1.399 . S
C2657 C2656 1.394 . S
C2657 C2658 1.516 . S
C2658 C2657 1.516 . S
C2658 C2659 1.502 . S
C2658 C2660 1.561 . S
C2658 C2661 1.526 . S
C2659 H2643 0.959 . S
C2659 H2644 0.959 . S
C2659 H2645 0.961 . S
C2659 C2658 1.502 . S
C2660 H2646 0.960 . S
C2660 H2647 0.961 . S
C2660 H2648 0.959 . S
C2660 C2658 1.561 . S
C2661 C2658 1.526 . S
C2661 C2662 1.396 . S
C2661 C2666 1.390 . S
C2662 C2656 1.465 . S
C2662 C2661 1.396 . S
C2662 C2663 1.399 1_565 S
C2663 H2649 0.929 1_554 S
C2663 C2662 1.399 1_545 S
C2663 C2664 1.385 . S
C2664 H2650 0.931 . S
C2664 C2663 1.385 . S
C2664 C2665 1.389 1_545 S
C2665 C2664 1.389 1_565 S
C2665 C2666 1.387 . S
C2666 H2651 0.930 . S
C2666 C2661 1.390 . S
C2666 C2665 1.387 . S
H2667 C2679 0.930 . S
H2668 C2681 0.930 . S
H2669 C2682 0.930 . S
H2670 C2686 0.959 . S
H2671 C2686 0.959 . S
H2672 C2686 0.961 . S
H2673 C2687 0.960 . S
H2674 C2687 0.961 . S
H2675 C2687 0.959 . S
H2676 C2690 0.929 . S
H2677 C2691 0.931 . S
H2678 C2693 0.930 . S
C2679 H2667 0.930 . S
C2679 C2680 1.399 . S
C2679 C2684 1.399 . S
C2680 C2679 1.399 . S
C2680 C2681 1.376 1_554 S
C2681 H2668 0.930 . S
C2681 C2680 1.376 1_556 S
C2681 C2682 1.388 . S
C2682 H2669 0.930 . S
C2682 C2681 1.388 . S
C2682 C2683 1.390 1_556 S
C2683 C2682 1.390 1_554 S
C2683 C2684 1.394 . S
C2683 C2689 1.465 . S
C2684 C2679 1.399 . S
C2684 C2683 1.394 . S
C2684 C2685 1.516 . S
C2685 C2684 1.516 . S
C2685 C2686 1.502 . S
C2685 C2687 1.561 . S
C2685 C2688 1.526 . S
C2686 H2670 0.959 . S
C2686 H2671 0.959 . S
C2686 H2672 0.961 . S
C2686 C2685 1.502 . S
C2687 H2673 0.960 . S
C2687 H2674 0.961 . S
C2687 H2675 0.959 . S
C2687 C2685 1.561 . S
C2688 C2685 1.526 . S
C2688 C2689 1.396 . S
C2688 C2693 1.390 . S
C2689 C2683 1.465 . S
C2689 C2688 1.396 . S
C2689 C2690 1.399 1_554 S
C2690 H2676 0.929 . S
C2690 C2689 1.399 1_556 S
C2690 C2691 1.385 . S
C2691 H2677 0.931 . S
C2691 C2690 1.385 . S
C2691 C2692 1.389 1_556 S
C2692 C2691 1.389 1_554 S
C2692 C2693 1.387 . S
C2693 H2678 0.930 . S
C2693 C2688 1.390 . S
C2693 C2692 1.387 . S
H2694 C2706 0.930 . S
H2695 C2708 0.930 . S
H2696 C2709 0.930 . S
H2697 C2713 0.959 . S
H2698 C2713 0.959 . S
H2699 C2713 0.961 . S
H2700 C2714 0.960 . S
H2701 C2714 0.961 . S
H2702 C2714 0.959 . S
H2703 C2717 0.929 . S
H2704 C2718 0.931 . S
H2705 C2720 0.930 . S
C2706 H2694 0.930 . S
C2706 C2707 1.399 . S
C2706 C2711 1.399 . S
C2707 C2706 1.399 . S
C2707 C2708 1.376 . S
C2708 H2695 0.930 . S
C2708 C2707 1.376 . S
C2708 C2709 1.388 . S
C2709 H2696 0.930 . S
C2709 C2708 1.388 . S
C2709 C2710 1.390 . S
C2710 C2709 1.390 . S
C2710 C2711 1.394 . S
C2710 C2716 1.465 . S
C2711 C2706 1.399 . S
C2711 C2710 1.394 . S
C2711 C2712 1.516 . S
C2712 C2711 1.516 . S
C2712 C2713 1.502 . S
C2712 C2714 1.561 . S
C2712 C2715 1.526 . S
C2713 H2697 0.959 . S
C2713 H2698 0.959 . S
C2713 H2699 0.961 . S
C2713 C2712 1.502 . S
C2714 H2700 0.960 . S
C2714 H2701 0.961 . S
C2714 H2702 0.959 . S
C2714 C2712 1.561 . S
C2715 C2712 1.526 . S
C2715 C2716 1.396 . S
C2715 C2720 1.390 . S
C2716 C2710 1.465 . S
C2716 C2715 1.396 . S
C2716 C2717 1.399 . S
C2717 H2703 0.929 . S
C2717 C2716 1.399 . S
C2717 C2718 1.385 . S
C2718 H2704 0.931 . S
C2718 C2717 1.385 . S
C2718 C2719 1.389 . S
C2719 C2718 1.389 . S
C2719 C2720 1.387 . S
C2720 H2705 0.930 . S
C2720 C2715 1.390 . S
C2720 C2719 1.387 . S
H2721 C2733 0.930 . S
H2722 C2735 0.930 . S
H2723 C2736 0.930 . S
H2724 C2740 0.959 . S
H2725 C2740 0.959 . S
H2726 C2740 0.961 . S
H2727 C2741 0.960 . S
H2728 C2741 0.961 . S
H2729 C2741 0.959 . S
H2730 C2744 0.929 . S
H2731 C2745 0.931 . S
H2732 C2747 0.930 . S
C2733 H2721 0.930 . S
C2733 C2734 1.399 . S
C2733 C2738 1.399 . S
C2734 C2733 1.399 . S
C2734 C2735 1.376 . S
C2735 H2722 0.930 . S
C2735 C2734 1.376 . S
C2735 C2736 1.388 . S
C2736 H2723 0.930 . S
C2736 C2735 1.388 . S
C2736 C2737 1.390 . S
C2737 C2736 1.390 . S
C2737 C2738 1.394 . S
C2737 C2743 1.465 . S
C2738 C2733 1.399 . S
C2738 C2737 1.394 . S
C2738 C2739 1.516 . S
C2739 C2738 1.516 . S
C2739 C2740 1.502 . S
C2739 C2741 1.561 . S
C2739 C2742 1.526 . S
C2740 H2724 0.959 . S
C2740 H2725 0.959 . S
C2740 H2726 0.961 . S
C2740 C2739 1.502 . S
C2741 H2727 0.960 . S
C2741 H2728 0.961 . S
C2741 H2729 0.959 . S
C2741 C2739 1.561 . S
C2742 C2739 1.526 . S
C2742 C2743 1.396 . S
C2742 C2747 1.390 . S
C2743 C2737 1.465 . S
C2743 C2742 1.396 . S
C2743 C2744 1.399 . S
C2744 H2730 0.929 . S
C2744 C2743 1.399 . S
C2744 C2745 1.385 . S
C2745 H2731 0.931 . S
C2745 C2744 1.385 . S
C2745 C2746 1.389 . S
C2746 C2745 1.389 . S
C2746 C2747 1.387 . S
C2747 H2732 0.930 . S
C2747 C2742 1.390 . S
C2747 C2746 1.387 . S
H2748 C2760 0.930 . S
H2749 C2762 0.930 . S
H2750 C2763 0.930 . S
H2751 C2767 0.959 . S
H2752 C2767 0.959 . S
H2753 C2767 0.961 . S
H2754 C2768 0.960 . S
H2755 C2768 0.961 . S
H2756 C2768 0.959 . S
H2757 C2771 0.929 . S
H2758 C2772 0.931 . S
H2759 C2774 0.930 . S
C2760 H2748 0.930 . S
C2760 C2761 1.399 . S
C2760 C2765 1.399 . S
C2761 C2760 1.399 . S
C2761 C2762 1.376 . S
C2762 H2749 0.930 . S
C2762 C2761 1.376 . S
C2762 C2763 1.388 . S
C2763 H2750 0.930 . S
C2763 C2762 1.388 . S
C2763 C2764 1.390 . S
C2764 C2763 1.390 . S
C2764 C2765 1.394 . S
C2764 C2770 1.465 . S
C2765 C2760 1.399 . S
C2765 C2764 1.394 . S
C2765 C2766 1.516 . S
C2766 C2765 1.516 . S
C2766 C2767 1.502 . S
C2766 C2768 1.561 . S
C2766 C2769 1.526 . S
C2767 H2751 0.959 . S
C2767 H2752 0.959 . S
C2767 H2753 0.961 . S
C2767 C2766 1.502 . S
C2768 H2754 0.960 . S
C2768 H2755 0.961 . S
C2768 H2756 0.959 . S
C2768 C2766 1.561 . S
C2769 C2766 1.526 . S
C2769 C2770 1.396 . S
C2769 C2774 1.390 . S
C2770 C2764 1.465 . S
C2770 C2769 1.396 . S
C2770 C2771 1.399 . S
C2771 H2757 0.929 . S
C2771 C2770 1.399 . S
C2771 C2772 1.385 . S
C2772 H2758 0.931 . S
C2772 C2771 1.385 . S
C2772 C2773 1.389 . S
C2773 C2772 1.389 . S
C2773 C2774 1.387 . S
C2774 H2759 0.930 . S
C2774 C2769 1.390 . S
C2774 C2773 1.387 . S
H2775 C2787 0.930 . S
H2776 C2789 0.930 . S
H2777 C2790 0.930 . S
H2778 C2794 0.959 . S
H2779 C2794 0.959 . S
H2780 C2794 0.961 . S
H2781 C2795 0.960 . S
H2782 C2795 0.961 . S
H2783 C2795 0.959 . S
H2784 C2798 0.929 . S
H2785 C2799 0.931 . S
H2786 C2801 0.930 . S
C2787 H2775 0.930 . S
C2787 C2788 1.399 . S
C2787 C2792 1.399 . S
C2788 C2787 1.399 . S
C2788 C2789 1.376 . S
C2789 H2776 0.930 . S
C2789 C2788 1.376 . S
C2789 C2790 1.388 . S
C2790 H2777 0.930 . S
C2790 C2789 1.388 . S
C2790 C2791 1.390 . S
C2791 C2790 1.390 . S
C2791 C2792 1.394 . S
C2791 C2797 1.465 . S
C2792 C2787 1.399 . S
C2792 C2791 1.394 . S
C2792 C2793 1.516 . S
C2793 C2792 1.516 . S
C2793 C2794 1.502 . S
C2793 C2795 1.561 . S
C2793 C2796 1.526 . S
C2794 H2778 0.959 . S
C2794 H2779 0.959 . S
C2794 H2780 0.961 . S
C2794 C2793 1.502 . S
C2795 H2781 0.960 . S
C2795 H2782 0.961 . S
C2795 H2783 0.959 . S
C2795 C2793 1.561 . S
C2796 C2793 1.526 . S
C2796 C2797 1.396 . S
C2796 C2801 1.390 . S
C2797 C2791 1.465 . S
C2797 C2796 1.396 . S
C2797 C2798 1.399 . S
C2798 H2784 0.929 . S
C2798 C2797 1.399 . S
C2798 C2799 1.385 . S
C2799 H2785 0.931 . S
C2799 C2798 1.385 . S
C2799 C2800 1.389 . S
C2800 C2799 1.389 . S
C2800 C2801 1.387 . S
C2801 H2786 0.930 . S
C2801 C2796 1.390 . S
C2801 C2800 1.387 . S
H2802 C2814 0.930 . S
H2803 C2816 0.930 . S
H2804 C2817 0.930 . S
H2805 C2821 0.959 . S
H2806 C2821 0.959 . S
H2807 C2821 0.961 . S
H2808 C2822 0.960 . S
H2809 C2822 0.961 . S
H2810 C2822 0.959 . S
H2811 C2825 0.929 . S
H2812 C2826 0.931 . S
H2813 C2828 0.930 . S
C2814 H2802 0.930 . S
C2814 C2815 1.399 . S
C2814 C2819 1.399 . S
C2815 C2814 1.399 . S
C2815 C2816 1.376 . S
C2816 H2803 0.930 . S
C2816 C2815 1.376 . S
C2816 C2817 1.388 . S
C2817 H2804 0.930 . S
C2817 C2816 1.388 . S
C2817 C2818 1.390 . S
C2818 C2817 1.390 . S
C2818 C2819 1.394 . S
C2818 C2824 1.465 . S
C2819 C2814 1.399 . S
C2819 C2818 1.394 . S
C2819 C2820 1.516 . S
C2820 C2819 1.516 . S
C2820 C2821 1.502 . S
C2820 C2822 1.561 . S
C2820 C2823 1.526 . S
C2821 H2805 0.959 . S
C2821 H2806 0.959 . S
C2821 H2807 0.961 . S
C2821 C2820 1.502 . S
C2822 H2808 0.960 . S
C2822 H2809 0.961 . S
C2822 H2810 0.959 . S
C2822 C2820 1.561 . S
C2823 C2820 1.526 . S
C2823 C2824 1.396 . S
C2823 C2828 1.390 . S
C2824 C2818 1.465 . S
C2824 C2823 1.396 . S
C2824 C2825 1.399 . S
C2825 H2811 0.929 . S
C2825 C2824 1.399 . S
C2825 C2826 1.385 . S
C2826 H2812 0.931 . S
C2826 C2825 1.385 . S
C2826 C2827 1.389 . S
C2827 C2826 1.389 . S
C2827 C2828 1.387 . S
C2828 H2813 0.930 . S
C2828 C2823 1.390 . S
C2828 C2827 1.387 . S
H2829 C2841 0.930 . S
H2830 C2843 0.930 . S
H2831 C2844 0.930 . S
H2832 C2848 0.959 . S
H2833 C2848 0.959 . S
H2834 C2848 0.961 . S
H2835 C2849 0.960 . S
H2836 C2849 0.961 . S
H2837 C2849 0.959 . S
H2838 C2852 0.929 . S
H2839 C2853 0.931 . S
H2840 C2855 0.930 . S
C2841 H2829 0.930 . S
C2841 C2842 1.399 . S
C2841 C2846 1.399 . S
C2842 C2841 1.399 . S
C2842 C2843 1.376 . S
C2843 H2830 0.930 . S
C2843 C2842 1.376 . S
C2843 C2844 1.388 . S
C2844 H2831 0.930 . S
C2844 C2843 1.388 . S
C2844 C2845 1.390 . S
C2845 C2844 1.390 . S
C2845 C2846 1.394 . S
C2845 C2851 1.465 . S
C2846 C2841 1.399 . S
C2846 C2845 1.394 . S
C2846 C2847 1.516 . S
C2847 C2846 1.516 . S
C2847 C2848 1.502 . S
C2847 C2849 1.561 . S
C2847 C2850 1.526 . S
C2848 H2832 0.959 . S
C2848 H2833 0.959 . S
C2848 H2834 0.961 . S
C2848 C2847 1.502 . S
C2849 H2835 0.960 . S
C2849 H2836 0.961 . S
C2849 H2837 0.959 . S
C2849 C2847 1.561 . S
C2850 C2847 1.526 . S
C2850 C2851 1.396 . S
C2850 C2855 1.390 . S
C2851 C2845 1.465 . S
C2851 C2850 1.396 . S
C2851 C2852 1.399 . S
C2852 H2838 0.929 . S
C2852 C2851 1.399 . S
C2852 C2853 1.385 . S
C2853 H2839 0.931 . S
C2853 C2852 1.385 . S
C2853 C2854 1.389 . S
C2854 C2853 1.389 . S
C2854 C2855 1.387 . S
C2855 H2840 0.930 . S
C2855 C2850 1.390 . S
C2855 C2854 1.387 . S
H2856 C2868 0.930 . S
H2857 C2870 0.930 . S
H2858 C2871 0.930 . S
H2859 C2875 0.959 . S
H2860 C2875 0.959 . S
H2861 C2875 0.961 . S
H2862 C2876 0.960 . S
H2863 C2876 0.970 . S
H2864 C2876 0.959 . S
H2865 C2879 0.929 . S
H2866 C2880 0.931 . S
H2867 C2882 0.930 . S
C2868 H2856 0.930 . S
C2868 C2869 1.399 . S
C2868 C2873 1.399 . S
C2869 C2868 1.399 . S
C2869 C2870 1.376 . S
C2870 H2857 0.930 . S
C2870 C2869 1.376 . S
C2870 C2871 1.388 . S
C2871 H2858 0.930 . S
C2871 C2870 1.388 . S
C2871 C2872 1.390 . S
C2872 C2871 1.390 . S
C2872 C2873 1.394 . S
C2872 C2878 1.465 . S
C2873 C2868 1.399 . S
C2873 C2872 1.394 . S
C2873 C2874 1.516 . S
C2874 C2873 1.516 . S
C2874 C2875 1.502 . S
C2874 C2876 1.561 . S
C2874 C2877 1.526 . S
C2875 H2859 0.959 . S
C2875 H2860 0.959 . S
C2875 H2861 0.961 . S
C2875 C2874 1.502 . S
C2876 H2862 0.960 . S
C2876 H2863 0.970 . S
C2876 H2864 0.959 . S
C2876 C2874 1.561 . S
C2877 C2874 1.526 . S
C2877 C2878 1.396 . S
C2877 C2882 1.390 . S
C2878 C2872 1.465 . S
C2878 C2877 1.396 . S
C2878 C2879 1.399 . S
C2879 H2865 0.929 . S
C2879 C2878 1.399 . S
C2879 C2880 1.385 . S
C2880 H2866 0.931 . S
C2880 C2879 1.385 . S
C2880 C2881 1.389 . S
C2881 C2880 1.389 . S
C2881 C2882 1.387 . S
C2882 H2867 0.930 . S
C2882 C2877 1.390 . S
C2882 C2881 1.387 . S
H2883 C2895 0.930 . S
H2884 C2897 0.930 . S
H2885 C2898 0.930 . S
H2886 C2902 0.959 . S
H2887 C2902 0.959 . S
H2888 C2902 0.961 . S
H2889 C2903 0.960 . S
H2890 C2903 0.961 . S
H2891 C2903 0.959 . S
H2892 C2906 0.929 . S
H2893 C2907 0.931 . S
H2894 C2909 0.930 . S
C2895 H2883 0.930 . S
C2895 C2896 1.399 . S
C2895 C2900 1.399 . S
C2896 C2895 1.399 . S
C2896 C2897 1.376 . S
C2897 H2884 0.930 . S
C2897 C2896 1.376 . S
C2897 C2898 1.388 . S
C2898 H2885 0.930 . S
C2898 C2897 1.388 . S
C2898 C2899 1.390 . S
C2899 C2898 1.390 . S
C2899 C2900 1.394 . S
C2899 C2905 1.465 . S
C2900 C2895 1.399 . S
C2900 C2899 1.394 . S
C2900 C2901 1.516 . S
C2901 C2900 1.516 . S
C2901 C2902 1.502 . S
C2901 C2903 1.561 . S
C2901 C2904 1.526 . S
C2902 H2886 0.959 . S
C2902 H2887 0.959 . S
C2902 H2888 0.961 . S
C2902 C2901 1.502 . S
C2903 H2889 0.960 . S
C2903 H2890 0.961 . S
C2903 H2891 0.959 . S
C2903 C2901 1.561 . S
C2904 C2901 1.526 . S
C2904 C2905 1.396 . S
C2904 C2909 1.390 . S
C2905 C2899 1.465 . S
C2905 C2904 1.396 . S
C2905 C2906 1.399 . S
C2906 H2892 0.929 . S
C2906 C2905 1.399 . S
C2906 C2907 1.385 . S
C2907 H2893 0.931 . S
C2907 C2906 1.385 . S
C2907 C2908 1.389 . S
C2908 C2907 1.389 . S
C2908 C2909 1.387 . S
C2909 H2894 0.930 . S
C2909 C2904 1.390 . S
C2909 C2908 1.387 . S
H2910 C2922 0.930 . S
H2911 C2924 0.930 . S
H2912 C2925 0.930 . S
H2913 C2929 0.959 . S
H2914 C2929 0.959 . S
H2915 C2929 0.961 . S
H2916 C2930 0.960 . S
H2917 C2930 0.961 . S
H2918 C2930 0.959 . S
H2919 C2933 0.929 . S
H2920 C2934 0.931 . S
H2921 C2936 0.930 . S
C2922 H2910 0.930 . S
C2922 C2923 1.399 . S
C2922 C2927 1.399 . S
C2923 C2922 1.399 . S
C2923 C2924 1.376 . S
C2924 H2911 0.930 . S
C2924 C2923 1.376 . S
C2924 C2925 1.388 . S
C2925 H2912 0.930 . S
C2925 C2924 1.388 . S
C2925 C2926 1.390 . S
C2926 C2925 1.390 . S
C2926 C2927 1.394 . S
C2926 C2932 1.465 . S
C2927 C2922 1.399 . S
C2927 C2926 1.394 . S
C2927 C2928 1.516 . S
C2928 C2927 1.516 . S
C2928 C2929 1.502 . S
C2928 C2930 1.561 . S
C2928 C2931 1.526 . S
C2929 H2913 0.959 . S
C2929 H2914 0.959 . S
C2929 H2915 0.961 . S
C2929 C2928 1.502 . S
C2930 H2916 0.960 . S
C2930 H2917 0.961 . S
C2930 H2918 0.959 . S
C2930 C2928 1.561 . S
C2931 C2928 1.526 . S
C2931 C2932 1.396 . S
C2931 C2936 1.390 . S
C2932 C2926 1.465 . S
C2932 C2931 1.396 . S
C2932 C2933 1.399 . S
C2933 H2919 0.929 . S
C2933 C2932 1.399 . S
C2933 C2934 1.385 . S
C2934 H2920 0.931 . S
C2934 C2933 1.385 . S
C2934 C2935 1.389 . S
C2935 C2934 1.389 . S
C2935 C2936 1.387 . S
C2936 H2921 0.930 . S
C2936 C2931 1.390 . S
C2936 C2935 1.387 . S
H2937 C2949 0.930 . S
H2938 C2951 0.930 . S
H2939 C2952 0.930 . S
H2940 C2956 0.959 . S
H2941 C2956 0.959 . S
H2942 C2956 0.961 . S
H2943 C2957 0.960 . S
H2944 C2957 0.961 . S
H2945 C2957 0.959 . S
H2946 C2960 0.929 . S
H2947 C2961 0.931 . S
H2948 C2963 0.930 . S
C2949 H2937 0.930 . S
C2949 C2950 1.399 . S
C2949 C2954 1.399 . S
C2950 C2949 1.399 . S
C2950 C2951 1.376 . S
C2951 H2938 0.930 . S
C2951 C2950 1.376 . S
C2951 C2952 1.388 . S
C2952 H2939 0.930 . S
C2952 C2951 1.388 . S
C2952 C2953 1.390 . S
C2953 C2952 1.390 . S
C2953 C2954 1.394 . S
C2953 C2959 1.465 . S
C2954 C2949 1.399 . S
C2954 C2953 1.394 . S
C2954 C2955 1.516 . S
C2955 C2954 1.516 . S
C2955 C2956 1.502 . S
C2955 C2957 1.561 . S
C2955 C2958 1.526 . S
C2956 H2940 0.959 . S
C2956 H2941 0.959 . S
C2956 H2942 0.961 . S
C2956 C2955 1.502 . S
C2957 H2943 0.960 . S
C2957 H2944 0.961 . S
C2957 H2945 0.959 . S
C2957 C2955 1.561 . S
C2958 C2955 1.526 . S
C2958 C2959 1.396 . S
C2958 C2963 1.390 . S
C2959 C2953 1.465 . S
C2959 C2958 1.396 . S
C2959 C2960 1.399 . S
C2960 H2946 0.929 . S
C2960 C2959 1.399 . S
C2960 C2961 1.385 . S
C2961 H2947 0.931 . S
C2961 C2960 1.385 . S
C2961 C2962 1.389 . S
C2962 C2961 1.389 . S
C2962 C2963 1.387 . S
C2963 H2948 0.930 . S
C2963 C2958 1.390 . S
C2963 C2962 1.387 . S
H2964 C2976 0.930 . S
H2965 C2978 0.930 . S
H2966 C2979 0.930 . S
H2967 C2983 0.959 . S
H2968 C2983 0.959 . S
H2969 C2983 0.961 . S
H2970 C2984 0.960 . S
H2971 C2984 0.961 . S
H2972 C2984 0.959 1_655 S
H2973 C2987 0.929 . S
H2974 C2988 0.931 . S
H2975 C2990 0.930 . S
C2976 H2964 0.930 . S
C2976 C2977 1.399 . S
C2976 C2981 1.399 . S
C2977 C2976 1.399 . S
C2977 C2978 1.376 . S
C2978 H2965 0.930 . S
C2978 C2977 1.376 . S
C2978 C2979 1.388 . S
C2979 H2966 0.930 . S
C2979 C2978 1.388 . S
C2979 C2980 1.390 . S
C2980 C2979 1.390 . S
C2980 C2981 1.394 . S
C2980 C2986 1.465 . S
C2981 C2976 1.399 . S
C2981 C2980 1.394 . S
C2981 C2982 1.516 . S
C2982 C2981 1.516 . S
C2982 C2983 1.502 . S
C2982 C2984 1.561 . S
C2982 C2985 1.526 . S
C2983 H2967 0.959 . S
C2983 H2968 0.959 . S
C2983 H2969 0.961 . S
C2983 C2982 1.502 . S
C2984 H2970 0.960 . S
C2984 H2971 0.961 . S
C2984 H2972 0.959 1_455 S
C2984 C2982 1.561 . S
C2985 C2982 1.526 . S
C2985 C2986 1.396 . S
C2985 C2990 1.390 . S
C2986 C2980 1.465 . S
C2986 C2985 1.396 . S
C2986 C2987 1.399 . S
C2987 H2973 0.929 . S
C2987 C2986 1.399 . S
C2987 C2988 1.385 . S
C2988 H2974 0.931 . S
C2988 C2987 1.385 . S
C2988 C2989 1.389 . S
C2989 C2988 1.389 . S
C2989 C2990 1.387 . S
C2990 H2975 0.930 . S
C2990 C2985 1.390 . S
C2990 C2989 1.387 . S
H2991 C3003 0.930 . S
H2992 C3005 0.930 . S
H2993 C3006 0.930 . S
H2994 C3010 0.959 . S
H2995 C3010 0.959 . S
H2996 C3010 0.961 . S
H2997 C3011 0.960 . S
H2998 C3011 0.961 . S
H2999 C3011 0.959 . S
H3000 C3014 0.929 . S
H3001 C3015 0.931 . S
H3002 C3017 0.930 . S
C3003 H2991 0.930 . S
C3003 C3004 1.399 . S
C3003 C3008 1.399 . S
C3004 C3003 1.399 . S
C3004 C3005 1.376 . S
C3005 H2992 0.930 . S
C3005 C3004 1.376 . S
C3005 C3006 1.388 . S
C3006 H2993 0.930 . S
C3006 C3005 1.388 . S
C3006 C3007 1.390 . S
C3007 C3006 1.390 . S
C3007 C3008 1.394 . S
C3007 C3013 1.465 . S
C3008 C3003 1.399 . S
C3008 C3007 1.394 . S
C3008 C3009 1.516 . S
C3009 C3008 1.516 . S
C3009 C3010 1.502 . S
C3009 C3011 1.561 . S
C3009 C3012 1.526 . S
C3010 H2994 0.959 . S
C3010 H2995 0.959 . S
C3010 H2996 0.961 . S
C3010 C3009 1.502 . S
C3011 H2997 0.960 . S
C3011 H2998 0.961 . S
C3011 H2999 0.959 . S
C3011 C3009 1.561 . S
C3012 C3009 1.526 . S
C3012 C3013 1.396 . S
C3012 C3017 1.390 . S
C3013 C3007 1.465 . S
C3013 C3012 1.396 . S
C3013 C3014 1.399 . S
C3014 H3000 0.929 . S
C3014 C3013 1.399 . S
C3014 C3015 1.385 . S
C3015 H3001 0.931 . S
C3015 C3014 1.385 . S
C3015 C3016 1.389 . S
C3016 C3015 1.389 . S
C3016 C3017 1.387 . S
C3017 H3002 0.930 . S
C3017 C3012 1.390 . S
C3017 C3016 1.387 . S
H3018 C3030 0.930 . S
H3019 C3032 0.930 . S
H3020 C3033 0.930 . S
H3021 C3037 0.959 . S
H3022 C3037 0.959 . S
H3023 C3037 0.961 . S
H3024 C3038 0.960 . S
H3025 C3038 0.961 . S
H3026 C3038 0.959 . S
H3027 C3041 0.929 . S
H3028 C3042 0.931 . S
H3029 C3044 0.930 . S
C3030 H3018 0.930 . S
C3030 C3031 1.399 . S
C3030 C3035 1.399 . S
C3031 C3030 1.399 . S
C3031 C3032 1.376 . S
C3032 H3019 0.930 . S
C3032 C3031 1.376 . S
C3032 C3033 1.388 . S
C3033 H3020 0.930 . S
C3033 C3032 1.388 . S
C3033 C3034 1.390 . S
C3034 C3033 1.390 . S
C3034 C3035 1.394 . S
C3034 C3040 1.465 . S
C3035 C3030 1.399 . S
C3035 C3034 1.394 . S
C3035 C3036 1.516 . S
C3036 C3035 1.516 . S
C3036 C3037 1.502 . S
C3036 C3038 1.561 . S
C3036 C3039 1.526 . S
C3037 H3021 0.959 . S
C3037 H3022 0.959 . S
C3037 H3023 0.961 . S
C3037 C3036 1.502 . S
C3038 H3024 0.960 . S
C3038 H3025 0.961 . S
C3038 H3026 0.959 . S
C3038 C3036 1.561 . S
C3039 C3036 1.526 . S
C3039 C3040 1.396 . S
C3039 C3044 1.390 . S
C3040 C3034 1.465 . S
C3040 C3039 1.396 . S
C3040 C3041 1.399 . S
C3041 H3027 0.929 . S
C3041 C3040 1.399 . S
C3041 C3042 1.385 . S
C3042 H3028 0.931 . S
C3042 C3041 1.385 . S
C3042 C3043 1.389 . S
C3043 C3042 1.389 . S
C3043 C3044 1.387 . S
C3044 H3029 0.930 . S
C3044 C3039 1.390 . S
C3044 C3043 1.387 . S
H3045 C3057 0.930 . S
H3046 C3059 0.930 . S
H3047 C3060 0.930 . S
H3048 C3064 0.959 . S
H3049 C3064 0.959 . S
H3050 C3064 0.961 . S
H3051 C3065 0.960 . S
H3052 C3065 0.961 . S
H3053 C3065 0.959 . S
H3054 C3068 0.929 . S
H3055 C3069 0.931 . S
H3056 C3071 0.930 . S
C3057 H3045 0.930 . S
C3057 C3058 1.399 . S
C3057 C3062 1.399 . S
C3058 C3057 1.399 . S
C3058 C3059 1.376 . S
C3059 H3046 0.930 . S
C3059 C3058 1.376 . S
C3059 C3060 1.388 . S
C3060 H3047 0.930 . S
C3060 C3059 1.388 . S
C3060 C3061 1.390 . S
C3061 C3060 1.390 . S
C3061 C3062 1.394 . S
C3061 C3067 1.465 . S
C3062 C3057 1.399 . S
C3062 C3061 1.394 . S
C3062 C3063 1.516 . S
C3063 C3062 1.516 . S
C3063 C3064 1.502 . S
C3063 C3065 1.561 . S
C3063 C3066 1.526 . S
C3064 H3048 0.959 . S
C3064 H3049 0.959 . S
C3064 H3050 0.961 . S
C3064 C3063 1.502 . S
C3065 H3051 0.960 . S
C3065 H3052 0.961 . S
C3065 H3053 0.959 . S
C3065 C3063 1.561 . S
C3066 C3063 1.526 . S
C3066 C3067 1.396 . S
C3066 C3071 1.390 . S
C3067 C3061 1.465 . S
C3067 C3066 1.396 . S
C3067 C3068 1.399 . S
C3068 H3054 0.929 . S
C3068 C3067 1.399 . S
C3068 C3069 1.385 . S
C3069 H3055 0.931 . S
C3069 C3068 1.385 . S
C3069 C3070 1.389 . S
C3070 C3069 1.389 . S
C3070 C3071 1.387 . S
C3071 H3056 0.930 . S
C3071 C3066 1.390 . S
C3071 C3070 1.387 . S
H3072 C3084 0.930 . S
H3073 C3086 0.930 . S
H3074 C3087 0.930 1_565 S
H3075 C3091 0.959 . S
H3076 C3091 0.959 . S
H3077 C3091 0.961 . S
H3078 C3092 0.960 . S
H3079 C3092 0.961 . S
H3080 C3092 0.959 . S
H3081 C3095 0.929 . S
H3082 C3096 0.931 . S
H3083 C3098 0.930 . S
C3084 H3072 0.930 . S
C3084 C3085 1.399 . S
C3084 C3089 1.399 . S
C3085 C3084 1.399 . S
C3085 C3086 1.376 . S
C3086 H3073 0.930 . S
C3086 C3085 1.376 . S
C3086 C3087 1.388 . S
C3087 H3074 0.930 1_545 S
C3087 C3086 1.388 . S
C3087 C3088 1.390 . S
C3088 C3087 1.390 . S
C3088 C3089 1.394 . S
C3088 C3094 1.465 . S
C3089 C3084 1.399 . S
C3089 C3088 1.394 . S
C3089 C3090 1.516 . S
C3090 C3089 1.516 . S
C3090 C3091 1.502 . S
C3090 C3092 1.561 . S
C3090 C3093 1.526 . S
C3091 H3075 0.959 . S
C3091 H3076 0.959 . S
C3091 H3077 0.961 . S
C3091 C3090 1.502 . S
C3092 H3078 0.960 . S
C3092 H3079 0.961 . S
C3092 H3080 0.959 . S
C3092 C3090 1.561 . S
C3093 C3090 1.526 . S
C3093 C3094 1.396 . S
C3093 C3098 1.390 . S
C3094 C3088 1.465 . S
C3094 C3093 1.396 . S
C3094 C3095 1.399 1_545 S
C3095 H3081 0.929 . S
C3095 C3094 1.399 1_565 S
C3095 C3096 1.385 . S
C3096 H3082 0.931 . S
C3096 C3095 1.385 . S
C3096 C3097 1.389 1_565 S
C3097 C3096 1.389 1_545 S
C3097 C3098 1.387 . S
C3098 H3083 0.930 . S
C3098 C3093 1.390 . S
C3098 C3097 1.387 . S
H3099 C3111 0.930 . S
H3100 C3113 0.930 . S
H3101 C3114 0.930 . S
H3102 C3118 0.959 . S
H3103 C3118 0.959 . S
H3104 C3118 0.961 . S
H3105 C3119 0.960 . S
H3106 C3119 0.961 . S
H3107 C3119 0.959 . S
H3108 C3122 0.929 . S
H3109 C3123 0.931 . S
H3110 C3125 0.930 . S
C3111 H3099 0.930 . S
C3111 C3112 1.399 . S
C3111 C3116 1.399 . S
C3112 C3111 1.399 . S
C3112 C3113 1.376 . S
C3113 H3100 0.930 . S
C3113 C3112 1.376 . S
C3113 C3114 1.388 . S
C3114 H3101 0.930 . S
C3114 C3113 1.388 . S
C3114 C3115 1.390 . S
C3115 C3114 1.390 . S
C3115 C3116 1.394 . S
C3115 C3121 1.465 . S
C3116 C3111 1.399 . S
C3116 C3115 1.394 . S
C3116 C3117 1.516 . S
C3117 C3116 1.516 . S
C3117 C3118 1.502 . S
C3117 C3119 1.561 . S
C3117 C3120 1.526 . S
C3118 H3102 0.959 . S
C3118 H3103 0.959 . S
C3118 H3104 0.961 . S
C3118 C3117 1.502 . S
C3119 H3105 0.960 . S
C3119 H3106 0.961 . S
C3119 H3107 0.959 . S
C3119 C3117 1.561 . S
C3120 C3117 1.526 . S
C3120 C3121 1.396 . S
C3120 C3125 1.390 . S
C3121 C3115 1.465 . S
C3121 C3120 1.396 . S
C3121 C3122 1.399 . S
C3122 H3108 0.929 . S
C3122 C3121 1.399 . S
C3122 C3123 1.385 . S
C3123 H3109 0.931 . S
C3123 C3122 1.385 . S
C3123 C3124 1.389 . S
C3124 C3123 1.389 . S
C3124 C3125 1.387 . S
C3125 H3110 0.930 . S
C3125 C3120 1.390 . S
C3125 C3124 1.387 . S
H3126 C3138 0.930 1_565 S
H3127 C3140 0.930 . S
H3128 C3141 0.930 . S
H3129 C3145 0.959 1_545 S
H3130 C3145 0.959 . S
H3131 C3145 0.961 . S
H3132 C3146 0.960 . S
H3133 C3146 0.961 . S
H3134 C3146 0.959 . S
H3135 C3149 0.929 . S
H3136 C3150 0.931 . S
H3137 C3152 0.930 . S
C3138 H3126 0.930 1_545 S
C3138 C3139 1.399 . S
C3138 C3143 1.399 . S
C3139 C3138 1.399 . S
C3139 C3140 1.376 . S
C3140 H3127 0.930 . S
C3140 C3139 1.376 . S
C3140 C3141 1.388 . S
C3141 H3128 0.930 . S
C3141 C3140 1.388 . S
C3141 C3142 1.390 . S
C3142 C3141 1.390 . S
C3142 C3143 1.394 . S
C3142 C3148 1.465 . S
C3143 C3138 1.399 . S
C3143 C3142 1.394 . S
C3143 C3144 1.514 1_545 S
C3144 C3143 1.514 1_565 S
C3144 C3145 1.503 . S
C3144 C3146 1.563 . S
C3144 C3147 1.524 1_565 S
C3145 H3129 0.959 1_565 S
C3145 H3130 0.959 . S
C3145 H3131 0.961 . S
C3145 C3144 1.503 . S
C3146 H3132 0.960 . S
C3146 H3133 0.961 . S
C3146 H3134 0.959 . S
C3146 C3144 1.563 . S
C3147 C3144 1.524 1_545 S
C3147 C3148 1.396 . S
C3147 C3152 1.390 . S
C3148 C3142 1.465 . S
C3148 C3147 1.396 . S
C3148 C3149 1.399 . S
C3149 H3135 0.929 . S
C3149 C3148 1.399 . S
C3149 C3150 1.385 . S
C3150 H3136 0.931 . S
C3150 C3149 1.385 . S
C3150 C3151 1.389 . S
C3151 C3150 1.389 . S
C3151 C3152 1.387 . S
C3152 H3137 0.930 . S
C3152 C3147 1.390 . S
C3152 C3151 1.387 . S
H3153 C3165 0.930 . S
H3154 C3167 0.930 . S
H3155 C3168 0.930 . S
H3156 C3172 0.959 . S
H3157 C3172 0.959 . S
H3158 C3172 0.961 . S
H3159 C3173 0.960 . S
H3160 C3173 0.961 . S
H3161 C3173 0.959 . S
H3162 C3176 0.929 . S
H3163 C3177 0.931 . S
H3164 C3179 0.930 . S
C3165 H3153 0.930 . S
C3165 C3166 1.399 . S
C3165 C3170 1.399 . S
C3166 C3165 1.399 . S
C3166 C3167 1.376 . S
C3167 H3154 0.930 . S
C3167 C3166 1.376 . S
C3167 C3168 1.388 . S
C3168 H3155 0.930 . S
C3168 C3167 1.388 . S
C3168 C3169 1.390 . S
C3169 C3168 1.390 . S
C3169 C3170 1.394 . S
C3169 C3175 1.465 . S
C3170 C3165 1.399 . S
C3170 C3169 1.394 . S
C3170 C3171 1.516 . S
C3171 C3170 1.516 . S
C3171 C3172 1.502 . S
C3171 C3173 1.561 . S
C3171 C3174 1.526 . S
C3172 H3156 0.959 . S
C3172 H3157 0.959 . S
C3172 H3158 0.961 . S
C3172 C3171 1.502 . S
C3173 H3159 0.960 . S
C3173 H3160 0.961 . S
C3173 H3161 0.959 . S
C3173 C3171 1.561 . S
C3174 C3171 1.526 . S
C3174 C3175 1.396 . S
C3174 C3179 1.390 . S
C3175 C3169 1.465 . S
C3175 C3174 1.396 . S
C3175 C3176 1.399 . S
C3176 H3162 0.929 . S
C3176 C3175 1.399 . S
C3176 C3177 1.385 . S
C3177 H3163 0.931 . S
C3177 C3176 1.385 . S
C3177 C3178 1.389 . S
C3178 C3177 1.389 . S
C3178 C3179 1.387 . S
C3179 H3164 0.930 . S
C3179 C3174 1.390 . S
C3179 C3178 1.387 . S
H3180 C3192 0.930 . S
H3181 C3194 0.930 . S
H3182 C3195 0.930 . S
H3183 C3199 0.959 . S
H3184 C3199 0.959 . S
H3185 C3199 0.961 . S
H3186 C3200 0.960 . S
H3187 C3200 0.961 . S
H3188 C3200 0.959 . S
H3189 C3203 0.929 . S
H3190 C3204 0.931 . S
H3191 C3206 0.930 . S
C3192 H3180 0.930 . S
C3192 C3193 1.399 . S
C3192 C3197 1.399 . S
C3193 C3192 1.399 . S
C3193 C3194 1.376 . S
C3194 H3181 0.930 . S
C3194 C3193 1.376 . S
C3194 C3195 1.388 . S
C3195 H3182 0.930 . S
C3195 C3194 1.388 . S
C3195 C3196 1.390 . S
C3196 C3195 1.390 . S
C3196 C3197 1.394 . S
C3196 C3202 1.465 . S
C3197 C3192 1.399 . S
C3197 C3196 1.394 . S
C3197 C3198 1.516 . S
C3198 C3197 1.516 . S
C3198 C3199 1.502 . S
C3198 C3200 1.561 . S
C3198 C3201 1.526 . S
C3199 H3183 0.959 . S
C3199 H3184 0.959 . S
C3199 H3185 0.961 . S
C3199 C3198 1.502 . S
C3200 H3186 0.960 . S
C3200 H3187 0.961 . S
C3200 H3188 0.959 . S
C3200 C3198 1.561 . S
C3201 C3198 1.526 . S
C3201 C3202 1.396 . S
C3201 C3206 1.390 . S
C3202 C3196 1.465 . S
C3202 C3201 1.396 . S
C3202 C3203 1.399 . S
C3203 H3189 0.929 . S
C3203 C3202 1.399 . S
C3203 C3204 1.385 . S
C3204 H3190 0.931 . S
C3204 C3203 1.385 . S
C3204 C3205 1.389 . S
C3205 C3204 1.389 . S
C3205 C3206 1.387 . S
C3206 H3191 0.930 . S
C3206 C3201 1.390 . S
C3206 C3205 1.387 . S
H3207 C3219 0.930 . S
H3208 C3221 0.930 . S
H3209 C3222 0.930 . S
H3210 C3226 0.959 . S
H3211 C3226 0.959 . S
H3212 C3226 0.961 . S
H3213 C3227 0.960 . S
H3214 C3227 0.961 . S
H3215 C3227 0.959 . S
H3216 C3230 0.929 . S
H3217 C3231 0.931 . S
H3218 C3233 0.930 . S
C3219 H3207 0.930 . S
C3219 C3220 1.399 . S
C3219 C3224 1.399 . S
C3220 C3219 1.399 . S
C3220 C3221 1.376 . S
C3221 H3208 0.930 . S
C3221 C3220 1.376 . S
C3221 C3222 1.388 . S
C3222 H3209 0.930 . S
C3222 C3221 1.388 . S
C3222 C3223 1.390 . S
C3223 C3222 1.390 . S
C3223 C3224 1.394 . S
C3223 C3229 1.465 . S
C3224 C3219 1.399 . S
C3224 C3223 1.394 . S
C3224 C3225 1.516 . S
C3225 C3224 1.516 . S
C3225 C3226 1.502 . S
C3225 C3227 1.561 . S
C3225 C3228 1.526 . S
C3226 H3210 0.959 . S
C3226 H3211 0.959 . S
C3226 H3212 0.961 . S
C3226 C3225 1.502 . S
C3227 H3213 0.960 . S
C3227 H3214 0.961 . S
C3227 H3215 0.959 . S
C3227 C3225 1.561 . S
C3228 C3225 1.526 . S
C3228 C3229 1.396 . S
C3228 C3233 1.390 . S
C3229 C3223 1.465 . S
C3229 C3228 1.396 . S
C3229 C3230 1.399 . S
C3230 H3216 0.929 . S
C3230 C3229 1.399 . S
C3230 C3231 1.385 . S
C3231 H3217 0.931 . S
C3231 C3230 1.385 . S
C3231 C3232 1.389 . S
C3232 C3231 1.389 . S
C3232 C3233 1.387 . S
C3233 H3218 0.930 . S
C3233 C3228 1.390 . S
C3233 C3232 1.387 . S
H3234 C3246 0.930 . S
H3235 C3248 0.930 . S
H3236 C3249 0.930 . S
H3237 C3253 0.959 . S
H3238 C3253 0.959 . S
H3239 C3253 0.961 . S
H3240 C3254 0.960 . S
H3241 C3254 0.961 . S
H3242 C3254 0.959 . S
H3243 C3257 0.929 . S
H3244 C3258 0.931 . S
H3245 C3260 0.930 . S
C3246 H3234 0.930 . S
C3246 C3247 1.399 . S
C3246 C3251 1.399 . S
C3247 C3246 1.399 . S
C3247 C3248 1.376 1_545 S
C3248 H3235 0.930 . S
C3248 C3247 1.376 1_565 S
C3248 C3249 1.388 . S
C3249 H3236 0.930 . S
C3249 C3248 1.388 . S
C3249 C3250 1.390 1_565 S
C3250 C3249 1.390 1_545 S
C3250 C3251 1.394 . S
C3250 C3256 1.465 . S
C3251 C3246 1.399 . S
C3251 C3250 1.394 . S
C3251 C3252 1.516 . S
C3252 C3251 1.516 . S
C3252 C3253 1.502 . S
C3252 C3254 1.561 . S
C3252 C3255 1.526 . S
C3253 H3237 0.959 . S
C3253 H3238 0.959 . S
C3253 H3239 0.961 . S
C3253 C3252 1.502 . S
C3254 H3240 0.960 . S
C3254 H3241 0.961 . S
C3254 H3242 0.959 . S
C3254 C3252 1.561 . S
C3255 C3252 1.526 . S
C3255 C3256 1.396 . S
C3255 C3260 1.390 . S
C3256 C3250 1.465 . S
C3256 C3255 1.396 . S
C3256 C3257 1.399 1_545 S
C3257 H3243 0.929 . S
C3257 C3256 1.399 1_565 S
C3257 C3258 1.385 . S
C3258 H3244 0.931 . S
C3258 C3257 1.385 . S
C3258 C3259 1.389 1_565 S
C3259 C3258 1.389 1_545 S
C3259 C3260 1.387 . S
C3260 H3245 0.930 . S
C3260 C3255 1.390 . S
C3260 C3259 1.387 . S
H3261 C3273 0.930 . S
H3262 C3275 0.930 . S
H3263 C3276 0.930 . S
H3264 C3280 0.959 . S
H3265 C3280 0.959 . S
H3266 C3280 0.961 . S
H3267 C3281 0.960 . S
H3268 C3281 0.961 . S
H3269 C3281 0.959 . S
H3270 C3284 0.929 . S
H3271 C3285 0.931 . S
H3272 C3287 0.930 . S
C3273 H3261 0.930 . S
C3273 C3274 1.399 . S
C3273 C3278 1.399 . S
C3274 C3273 1.399 . S
C3274 C3275 1.376 . S
C3275 H3262 0.930 . S
C3275 C3274 1.376 . S
C3275 C3276 1.388 . S
C3276 H3263 0.930 . S
C3276 C3275 1.388 . S
C3276 C3277 1.390 . S
C3277 C3276 1.390 . S
C3277 C3278 1.394 . S
C3277 C3283 1.465 . S
C3278 C3273 1.399 . S
C3278 C3277 1.394 . S
C3278 C3279 1.516 . S
C3279 C3278 1.516 . S
C3279 C3280 1.502 . S
C3279 C3281 1.561 . S
C3279 C3282 1.526 . S
C3280 H3264 0.959 . S
C3280 H3265 0.959 . S
C3280 H3266 0.961 . S
C3280 C3279 1.502 . S
C3281 H3267 0.960 . S
C3281 H3268 0.961 . S
C3281 H3269 0.959 . S
C3281 C3279 1.561 . S
C3282 C3279 1.526 . S
C3282 C3283 1.396 . S
C3282 C3287 1.390 . S
C3283 C3277 1.465 . S
C3283 C3282 1.396 . S
C3283 C3284 1.399 . S
C3284 H3270 0.929 . S
C3284 C3283 1.399 . S
C3284 C3285 1.385 . S
C3285 H3271 0.931 . S
C3285 C3284 1.385 . S
C3285 C3286 1.389 . S
C3286 C3285 1.389 . S
C3286 C3287 1.387 . S
C3287 H3272 0.930 . S
C3287 C3282 1.390 . S
C3287 C3286 1.387 . S
H3288 C3300 0.930 . S
H3289 C3302 0.930 . S
H3290 C3303 0.930 . S
H3291 C3307 0.972 . S
H3292 C3307 0.959 . S
H3293 C3307 0.961 . S
H3294 C3308 0.960 . S
H3295 C3308 0.961 1_556 S
H3296 C3308 0.959 . S
H3297 C3311 0.929 . S
H3298 C3312 0.931 . S
H3299 C3314 0.930 1_556 S
C3300 H3288 0.930 . S
C3300 C3301 1.399 . S
C3300 C3305 1.399 . S
C3301 C3300 1.399 . S
C3301 C3302 1.376 . S
C3302 H3289 0.930 . S
C3302 C3301 1.376 . S
C3302 C3303 1.388 . S
C3303 H3290 0.930 . S
C3303 C3302 1.388 . S
C3303 C3304 1.390 . S
C3304 C3303 1.390 . S
C3304 C3305 1.394 . S
C3304 C3310 1.465 . S
C3305 C3300 1.399 . S
C3305 C3304 1.394 . S
C3305 C3306 1.516 . S
C3306 C3305 1.516 . S
C3306 C3307 1.502 1_554 S
C3306 C3308 1.561 . S
C3306 C3309 1.526 . S
C3307 H3291 0.972 . S
C3307 H3292 0.959 . S
C3307 H3293 0.961 . S
C3307 C3306 1.502 1_556 S
C3308 H3294 0.960 . S
C3308 H3295 0.961 1_554 S
C3308 H3296 0.959 . S
C3308 C3306 1.561 . S
C3309 C3306 1.526 . S
C3309 C3310 1.396 . S
C3309 C3314 1.390 . S
C3310 C3304 1.465 . S
C3310 C3309 1.396 . S
C3310 C3311 1.399 . S
C3311 H3297 0.929 . S
C3311 C3310 1.399 . S
C3311 C3312 1.385 . S
C3312 H3298 0.931 . S
C3312 C3311 1.385 . S
C3312 C3313 1.389 . S
C3313 C3312 1.389 . S
C3313 C3314 1.387 . S
C3314 H3299 0.930 1_554 S
C3314 C3309 1.390 . S
C3314 C3313 1.387 . S
H3315 C3327 0.930 . S
H3316 C3329 0.930 . S
H3317 C3330 0.880 1_556 S
H3318 C3334 0.959 . S
H3319 C3334 0.959 . S
H3320 C3334 0.961 . S
H3321 C3335 0.960 . S
H3322 C3335 0.961 . S
H3323 C3335 0.959 . S
H3324 C3338 0.929 1_556 S
H3325 C3339 0.945 . S
H3326 C3341 0.930 . S
C3327 H3315 0.930 . S
C3327 C3328 1.399 . S
C3327 C3332 1.399 . S
C3328 C3327 1.399 . S
C3328 C3329 1.376 . S
C3329 H3316 0.930 . S
C3329 C3328 1.376 . S
C3329 C3330 1.388 . S
C3330 H3317 0.880 1_554 S
C3330 C3329 1.388 . S
C3330 C3331 1.390 . S
C3331 C3330 1.390 . S
C3331 C3332 1.394 . S
C3331 C3337 1.465 . S
C3332 C3327 1.399 . S
C3332 C3331 1.394 . S
C3332 C3333 1.516 . S
C3333 C3332 1.516 . S
C3333 C3334 1.502 . S
C3333 C3335 1.561 . S
C3333 C3336 1.526 . S
C3334 H3318 0.959 . S
C3334 H3319 0.959 . S
C3334 H3320 0.961 . S
C3334 C3333 1.502 . S
C3335 H3321 0.960 . S
C3335 H3322 0.961 . S
C3335 H3323 0.959 . S
C3335 C3333 1.561 . S
C3336 C3333 1.526 . S
C3336 C3337 1.396 . S
C3336 C3341 1.390 . S
C3337 C3331 1.465 . S
C3337 C3336 1.396 . S
C3337 C3338 1.399 . S
C3338 H3324 0.929 1_554 S
C3338 C3337 1.399 . S
C3338 C3339 1.385 . S
C3339 H3325 0.945 . S
C3339 C3338 1.385 . S
C3339 C3340 1.389 . S
C3340 C3339 1.389 . S
C3340 C3341 1.387 . S
C3341 H3326 0.930 . S
C3341 C3336 1.390 . S
C3341 C3340 1.387 . S
H3342 C3354 0.930 . S
H3343 C3356 0.930 . S
H3344 C3357 0.930 . S
H3345 C3361 0.959 . S
H3346 C3361 0.959 . S
H3347 C3361 0.961 . S
H3348 C3362 0.960 . S
H3349 C3362 0.961 . S
H3350 C3362 0.959 . S
H3351 C3365 0.929 . S
H3352 C3366 0.931 . S
H3353 C3368 0.930 . S
C3354 H3342 0.930 . S
C3354 C3355 1.399 . S
C3354 C3359 1.399 . S
C3355 C3354 1.399 . S
C3355 C3356 1.376 . S
C3356 H3343 0.930 . S
C3356 C3355 1.376 . S
C3356 C3357 1.388 . S
C3357 H3344 0.930 . S
C3357 C3356 1.388 . S
C3357 C3358 1.390 . S
C3358 C3357 1.390 . S
C3358 C3359 1.394 . S
C3358 C3364 1.465 . S
C3359 C3354 1.399 . S
C3359 C3358 1.394 . S
C3359 C3360 1.516 . S
C3360 C3359 1.516 . S
C3360 C3361 1.502 . S
C3360 C3362 1.561 . S
C3360 C3363 1.526 . S
C3361 H3345 0.959 . S
C3361 H3346 0.959 . S
C3361 H3347 0.961 . S
C3361 C3360 1.502 . S
C3362 H3348 0.960 . S
C3362 H3349 0.961 . S
C3362 H3350 0.959 . S
C3362 C3360 1.561 . S
C3363 C3360 1.526 . S
C3363 C3364 1.396 . S
C3363 C3368 1.390 . S
C3364 C3358 1.465 . S
C3364 C3363 1.396 . S
C3364 C3365 1.399 . S
C3365 H3351 0.929 . S
C3365 C3364 1.399 . S
C3365 C3366 1.385 . S
C3366 H3352 0.931 . S
C3366 C3365 1.385 . S
C3366 C3367 1.389 . S
C3367 C3366 1.389 . S
C3367 C3368 1.387 . S
C3368 H3353 0.930 . S
C3368 C3363 1.390 . S
C3368 C3367 1.387 . S
H3369 C3381 0.930 . S
H3370 C3383 0.930 . S
H3371 C3384 0.930 . S
H3372 C3388 0.959 . S
H3373 C3388 0.959 . S
H3374 C3388 0.961 . S
H3375 C3389 0.960 . S
H3376 C3389 0.961 . S
H3377 C3389 0.959 . S
H3378 C3392 0.929 . S
H3379 C3393 0.931 . S
H3380 C3395 0.930 . S
C3381 H3369 0.930 . S
C3381 C3382 1.399 . S
C3381 C3386 1.399 . S
C3382 C3381 1.399 . S
C3382 C3383 1.376 . S
C3383 H3370 0.930 . S
C3383 C3382 1.376 . S
C3383 C3384 1.388 . S
C3384 H3371 0.930 . S
C3384 C3383 1.388 . S
C3384 C3385 1.390 . S
C3385 C3384 1.390 . S
C3385 C3386 1.394 . S
C3385 C3391 1.465 . S
C3386 C3381 1.399 . S
C3386 C3385 1.394 . S
C3386 C3387 1.516 . S
C3387 C3386 1.516 . S
C3387 C3388 1.502 . S
C3387 C3389 1.561 . S
C3387 C3390 1.526 . S
C3388 H3372 0.959 . S
C3388 H3373 0.959 . S
C3388 H3374 0.961 . S
C3388 C3387 1.502 . S
C3389 H3375 0.960 . S
C3389 H3376 0.961 . S
C3389 H3377 0.959 . S
C3389 C3387 1.561 . S
C3390 C3387 1.526 . S
C3390 C3391 1.396 . S
C3390 C3395 1.390 . S
C3391 C3385 1.465 . S
C3391 C3390 1.396 . S
C3391 C3392 1.399 . S
C3392 H3378 0.929 . S
C3392 C3391 1.399 . S
C3392 C3393 1.385 . S
C3393 H3379 0.931 . S
C3393 C3392 1.385 . S
C3393 C3394 1.389 . S
C3394 C3393 1.389 . S
C3394 C3395 1.387 . S
C3395 H3380 0.930 . S
C3395 C3390 1.390 . S
C3395 C3394 1.387 . S
H3396 C3408 0.930 1_545 S
H3397 C3410 0.947 . S
H3398 C3411 0.930 . S
H3399 C3415 0.959 . S
H3400 C3415 0.959 . S
H3401 C3415 0.961 . S
H3402 C3416 0.960 . S
H3403 C3416 0.961 . S
H3404 C3416 0.959 . S
H3405 C3419 0.929 . S
H3406 C3420 0.931 . S
H3407 C3422 0.930 . S
C3408 H3396 0.930 1_565 S
C3408 C3409 1.399 1_565 S
C3408 C3413 1.399 . S
C3409 C3408 1.399 1_545 S
C3409 C3410 1.376 1_545 S
C3410 H3397 0.947 . S
C3410 C3409 1.376 1_565 S
C3410 C3411 1.388 . S
C3411 H3398 0.930 . S
C3411 C3410 1.388 . S
C3411 C3412 1.390 . S
C3412 C3411 1.390 . S
C3412 C3413 1.394 . S
C3412 C3418 1.465 . S
C3413 C3408 1.399 . S
C3413 C3412 1.394 . S
C3413 C3414 1.516 . S
C3414 C3413 1.516 . S
C3414 C3415 1.502 . S
C3414 C3416 1.561 . S
C3414 C3417 1.526 . S
C3415 H3399 0.959 . S
C3415 H3400 0.959 . S
C3415 H3401 0.961 . S
C3415 C3414 1.502 . S
C3416 H3402 0.960 . S
C3416 H3403 0.961 . S
C3416 H3404 0.959 . S
C3416 C3414 1.561 . S
C3417 C3414 1.526 . S
C3417 C3418 1.396 . S
C3417 C3422 1.390 . S
C3418 C3412 1.465 . S
C3418 C3417 1.396 . S
C3418 C3419 1.399 . S
C3419 H3405 0.929 . S
C3419 C3418 1.399 . S
C3419 C3420 1.385 . S
C3420 H3406 0.931 . S
C3420 C3419 1.385 . S
C3420 C3421 1.389 . S
C3421 C3420 1.389 . S
C3421 C3422 1.387 . S
C3422 H3407 0.930 . S
C3422 C3417 1.390 . S
C3422 C3421 1.387 . S
H3423 C3435 0.930 . S
H3424 C3437 0.930 . S
H3425 C3438 0.930 . S
H3426 C3442 0.959 . S
H3427 C3442 0.959 . S
H3428 C3442 0.961 . S
H3429 C3443 0.960 . S
H3430 C3443 0.961 . S
H3431 C3443 0.959 . S
H3432 C3446 0.929 . S
H3433 C3447 0.931 1_545 S
H3434 C3449 0.930 . S
C3435 H3423 0.930 . S
C3435 C3436 1.399 . S
C3435 C3440 1.399 . S
C3436 C3435 1.399 . S
C3436 C3437 1.376 . S
C3437 H3424 0.930 . S
C3437 C3436 1.376 . S
C3437 C3438 1.388 . S
C3438 H3425 0.930 . S
C3438 C3437 1.388 . S
C3438 C3439 1.390 . S
C3439 C3438 1.390 . S
C3439 C3440 1.394 . S
C3439 C3445 1.465 . S
C3440 C3435 1.399 . S
C3440 C3439 1.394 . S
C3440 C3441 1.516 . S
C3441 C3440 1.516 . S
C3441 C3442 1.502 . S
C3441 C3443 1.561 . S
C3441 C3444 1.526 . S
C3442 H3426 0.959 . S
C3442 H3427 0.959 . S
C3442 H3428 0.961 . S
C3442 C3441 1.502 . S
C3443 H3429 0.960 . S
C3443 H3430 0.961 . S
C3443 H3431 0.959 . S
C3443 C3441 1.561 . S
C3444 C3441 1.526 . S
C3444 C3445 1.396 . S
C3444 C3449 1.390 . S
C3445 C3439 1.465 . S
C3445 C3444 1.396 . S
C3445 C3446 1.399 . S
C3446 H3432 0.929 . S
C3446 C3445 1.399 . S
C3446 C3447 1.385 . S
C3447 H3433 0.931 1_565 S
C3447 C3446 1.385 . S
C3447 C3448 1.389 . S
C3448 C3447 1.389 . S
C3448 C3449 1.387 . S
C3449 H3434 0.930 . S
C3449 C3444 1.390 . S
C3449 C3448 1.387 . S
H3450 C3462 0.930 . S
H3451 C3464 0.930 . S
H3452 C3465 0.930 . S
H3453 C3469 0.959 . S
H3454 C3469 0.959 . S
H3455 C3469 0.961 . S
H3456 C3470 0.960 . S
H3457 C3470 0.961 . S
H3458 C3470 0.959 . S
H3459 C3473 0.929 . S
H3460 C3474 0.931 . S
H3461 C3476 0.930 . S
C3462 H3450 0.930 . S
C3462 C3463 1.399 . S
C3462 C3467 1.399 . S
C3463 C3462 1.399 . S
C3463 C3464 1.376 . S
C3464 H3451 0.930 . S
C3464 C3463 1.376 . S
C3464 C3465 1.388 . S
C3465 H3452 0.930 . S
C3465 C3464 1.388 . S
C3465 C3466 1.390 . S
C3466 C3465 1.390 . S
C3466 C3467 1.394 . S
C3466 C3472 1.465 . S
C3467 C3462 1.399 . S
C3467 C3466 1.394 . S
C3467 C3468 1.516 . S
C3468 C3467 1.516 . S
C3468 C3469 1.502 . S
C3468 C3470 1.561 . S
C3468 C3471 1.526 . S
C3469 H3453 0.959 . S
C3469 H3454 0.959 . S
C3469 H3455 0.961 . S
C3469 C3468 1.502 . S
C3470 H3456 0.960 . S
C3470 H3457 0.961 . S
C3470 H3458 0.959 . S
C3470 C3468 1.561 . S
C3471 C3468 1.526 . S
C3471 C3472 1.396 . S
C3471 C3476 1.390 . S
C3472 C3466 1.465 . S
C3472 C3471 1.396 . S
C3472 C3473 1.399 . S
C3473 H3459 0.929 . S
C3473 C3472 1.399 . S
C3473 C3474 1.385 . S
C3474 H3460 0.931 . S
C3474 C3473 1.385 . S
C3474 C3475 1.389 . S
C3475 C3474 1.389 . S
C3475 C3476 1.387 . S
C3476 H3461 0.930 . S
C3476 C3471 1.390 . S
C3476 C3475 1.387 . S
H3477 C3489 0.930 . S
H3478 C3491 0.930 . S
H3479 C3492 0.930 . S
H3480 C3496 0.959 . S
H3481 C3496 0.959 . S
H3482 C3496 0.961 . S
H3483 C3497 0.960 . S
H3484 C3497 0.961 . S
H3485 C3497 0.959 . S
H3486 C3500 0.929 . S
H3487 C3501 0.931 . S
H3488 C3503 0.930 . S
C3489 H3477 0.930 . S
C3489 C3490 1.399 . S
C3489 C3494 1.399 . S
C3490 C3489 1.399 . S
C3490 C3491 1.376 . S
C3491 H3478 0.930 . S
C3491 C3490 1.376 . S
C3491 C3492 1.388 . S
C3492 H3479 0.930 . S
C3492 C3491 1.388 . S
C3492 C3493 1.390 . S
C3493 C3492 1.390 . S
C3493 C3494 1.394 . S
C3493 C3499 1.465 . S
C3494 C3489 1.399 . S
C3494 C3493 1.394 . S
C3494 C3495 1.516 . S
C3495 C3494 1.516 . S
C3495 C3496 1.502 . S
C3495 C3497 1.561 . S
C3495 C3498 1.526 . S
C3496 H3480 0.959 . S
C3496 H3481 0.959 . S
C3496 H3482 0.961 . S
C3496 C3495 1.502 . S
C3497 H3483 0.960 . S
C3497 H3484 0.961 . S
C3497 H3485 0.959 . S
C3497 C3495 1.561 . S
C3498 C3495 1.526 . S
C3498 C3499 1.396 . S
C3498 C3503 1.390 . S
C3499 C3493 1.465 . S
C3499 C3498 1.396 . S
C3499 C3500 1.399 . S
C3500 H3486 0.929 . S
C3500 C3499 1.399 . S
C3500 C3501 1.385 . S
C3501 H3487 0.931 . S
C3501 C3500 1.385 . S
C3501 C3502 1.389 . S
C3502 C3501 1.389 . S
C3502 C3503 1.387 . S
C3503 H3488 0.930 . S
C3503 C3498 1.390 . S
C3503 C3502 1.387 . S
H3504 C3516 0.930 . S
H3505 C3518 0.930 . S
H3506 C3519 0.930 . S
H3507 C3523 0.959 . S
H3508 C3523 0.959 . S
H3509 C3523 0.961 . S
H3510 C3524 0.960 . S
H3511 C3524 0.961 . S
H3512 C3524 0.959 . S
H3513 C3527 0.929 . S
H3514 C3528 0.931 . S
H3515 C3530 0.930 . S
C3516 H3504 0.930 . S
C3516 C3517 1.399 . S
C3516 C3521 1.399 . S
C3517 C3516 1.399 . S
C3517 C3518 1.376 . S
C3518 H3505 0.930 . S
C3518 C3517 1.376 . S
C3518 C3519 1.388 . S
C3519 H3506 0.930 . S
C3519 C3518 1.388 . S
C3519 C3520 1.390 . S
C3520 C3519 1.390 . S
C3520 C3521 1.394 . S
C3520 C3526 1.465 . S
C3521 C3516 1.399 . S
C3521 C3520 1.394 . S
C3521 C3522 1.516 . S
C3522 C3521 1.516 . S
C3522 C3523 1.502 . S
C3522 C3524 1.561 . S
C3522 C3525 1.526 . S
C3523 H3507 0.959 . S
C3523 H3508 0.959 . S
C3523 H3509 0.961 . S
C3523 C3522 1.502 . S
C3524 H3510 0.960 . S
C3524 H3511 0.961 . S
C3524 H3512 0.959 . S
C3524 C3522 1.561 . S
C3525 C3522 1.526 . S
C3525 C3526 1.396 . S
C3525 C3530 1.390 . S
C3526 C3520 1.465 . S
C3526 C3525 1.396 . S
C3526 C3527 1.399 . S
C3527 H3513 0.929 . S
C3527 C3526 1.399 . S
C3527 C3528 1.385 . S
C3528 H3514 0.931 . S
C3528 C3527 1.385 . S
C3528 C3529 1.389 . S
C3529 C3528 1.389 . S
C3529 C3530 1.387 . S
C3530 H3515 0.930 . S
C3530 C3525 1.390 . S
C3530 C3529 1.387 . S
H3531 C3543 0.930 . S
H3532 C3545 0.930 . S
H3533 C3546 0.930 . S
H3534 C3550 0.959 . S
H3535 C3550 0.959 . S
H3536 C3550 0.961 . S
H3537 C3551 0.960 . S
H3538 C3551 0.961 . S
H3539 C3551 0.959 . S
H3540 C3554 0.929 . S
H3541 C3555 0.931 . S
H3542 C3557 0.930 . S
C3543 H3531 0.930 . S
C3543 C3544 1.399 . S
C3543 C3548 1.399 . S
C3544 C3543 1.399 . S
C3544 C3545 1.376 . S
C3545 H3532 0.930 . S
C3545 C3544 1.376 . S
C3545 C3546 1.388 . S
C3546 H3533 0.930 . S
C3546 C3545 1.388 . S
C3546 C3547 1.390 . S
C3547 C3546 1.390 . S
C3547 C3548 1.394 . S
C3547 C3553 1.465 . S
C3548 C3543 1.399 . S
C3548 C3547 1.394 . S
C3548 C3549 1.516 . S
C3549 C3548 1.516 . S
C3549 C3550 1.502 . S
C3549 C3551 1.561 . S
C3549 C3552 1.526 . S
C3550 H3534 0.959 . S
C3550 H3535 0.959 . S
C3550 H3536 0.961 . S
C3550 C3549 1.502 . S
C3551 H3537 0.960 . S
C3551 H3538 0.961 . S
C3551 H3539 0.959 . S
C3551 C3549 1.561 . S
C3552 C3549 1.526 . S
C3552 C3553 1.396 . S
C3552 C3557 1.390 . S
C3553 C3547 1.465 . S
C3553 C3552 1.396 . S
C3553 C3554 1.399 . S
C3554 H3540 0.929 . S
C3554 C3553 1.399 . S
C3554 C3555 1.385 . S
C3555 H3541 0.931 . S
C3555 C3554 1.385 . S
C3555 C3556 1.389 . S
C3556 C3555 1.389 . S
C3556 C3557 1.387 . S
C3557 H3542 0.930 . S
C3557 C3552 1.390 . S
C3557 C3556 1.387 . S
H3558 C3570 0.930 1_554 S
H3559 C3572 0.930 . S
H3560 C3573 0.930 . S
H3561 C3577 0.959 . S
H3562 C3577 0.959 . S
H3563 C3577 0.961 . S
H3564 C3578 0.960 . S
H3565 C3578 0.961 . S
H3566 C3578 0.959 . S
H3567 C3581 0.929 . S
H3568 C3582 0.931 . S
H3569 C3584 0.930 . S
C3570 H3558 0.930 1_556 S
C3570 C3571 1.399 . S
C3570 C3575 1.399 1_556 S
C3571 C3570 1.399 . S
C3571 C3572 1.376 . S
C3572 H3559 0.930 . S
C3572 C3571 1.376 . S
C3572 C3573 1.388 . S
C3573 H3560 0.930 . S
C3573 C3572 1.388 . S
C3573 C3574 1.390 . S
C3574 C3573 1.390 . S
C3574 C3575 1.394 1_556 S
C3574 C3580 1.465 . S
C3575 C3570 1.399 1_554 S
C3575 C3574 1.394 1_554 S
C3575 C3576 1.516 . S
C3576 C3575 1.516 . S
C3576 C3577 1.502 1_455 S
C3576 C3578 1.561 . S
C3576 C3579 1.526 . S
C3577 H3561 0.959 . S
C3577 H3562 0.959 . S
C3577 H3563 0.961 . S
C3577 C3576 1.502 1_655 S
C3578 H3564 0.960 . S
C3578 H3565 0.961 . S
C3578 H3566 0.959 . S
C3578 C3576 1.561 . S
C3579 C3576 1.526 . S
C3579 C3580 1.396 1_554 S
C3579 C3584 1.390 . S
C3580 C3574 1.465 . S
C3580 C3579 1.396 1_556 S
C3580 C3581 1.399 . S
C3581 H3567 0.929 . S
C3581 C3580 1.399 . S
C3581 C3582 1.385 . S
C3582 H3568 0.931 . S
C3582 C3581 1.385 . S
C3582 C3583 1.389 1_556 S
C3583 C3582 1.389 1_554 S
C3583 C3584 1.387 . S
C3584 H3569 0.930 . S
C3584 C3579 1.390 . S
C3584 C3583 1.387 . S
H3585 C3597 0.949 . S
H3586 C3599 0.930 . S
H3587 C3600 0.930 . S
H3588 C3604 0.959 . S
H3589 C3604 0.959 . S
H3590 C3604 0.961 . S
H3591 C3605 0.960 . S
H3592 C3605 0.961 . S
H3593 C3605 0.959 . S
H3594 C3608 0.929 . S
H3595 C3609 0.931 . S
H3596 C3611 0.930 . S
C3597 H3585 0.949 . S
C3597 C3598 1.399 . S
C3597 C3602 1.399 . S
C3598 C3597 1.399 . S
C3598 C3599 1.376 . S
C3599 H3586 0.930 . S
C3599 C3598 1.376 . S
C3599 C3600 1.388 . S
C3600 H3587 0.930 . S
C3600 C3599 1.388 . S
C3600 C3601 1.390 . S
C3601 C3600 1.390 . S
C3601 C3602 1.394 . S
C3601 C3607 1.465 . S
C3602 C3597 1.399 . S
C3602 C3601 1.394 . S
C3602 C3603 1.516 . S
C3603 C3602 1.516 . S
C3603 C3604 1.502 . S
C3603 C3605 1.561 . S
C3603 C3606 1.526 . S
C3604 H3588 0.959 . S
C3604 H3589 0.959 . S
C3604 H3590 0.961 . S
C3604 C3603 1.502 . S
C3605 H3591 0.960 . S
C3605 H3592 0.961 . S
C3605 H3593 0.959 . S
C3605 C3603 1.561 . S
C3606 C3603 1.526 . S
C3606 C3607 1.396 . S
C3606 C3611 1.390 . S
C3607 C3601 1.465 . S
C3607 C3606 1.396 . S
C3607 C3608 1.399 . S
C3608 H3594 0.929 . S
C3608 C3607 1.399 . S
C3608 C3609 1.385 . S
C3609 H3595 0.931 . S
C3609 C3608 1.385 . S
C3609 C3610 1.389 . S
C3610 C3609 1.389 . S
C3610 C3611 1.387 . S
C3611 H3596 0.930 . S
C3611 C3606 1.390 . S
C3611 C3610 1.387 . S
H3612 C3624 0.930 . S
H3613 C3626 0.930 . S
H3614 C3627 0.930 . S
H3615 C3631 0.959 . S
H3616 C3631 0.959 . S
H3617 C3631 0.961 . S
H3618 C3632 0.960 . S
H3619 C3632 0.961 . S
H3620 C3632 0.959 . S
H3621 C3635 0.929 . S
H3622 C3636 0.931 . S
H3623 C3638 0.930 . S
C3624 H3612 0.930 . S
C3624 C3625 1.399 . S
C3624 C3629 1.399 . S
C3625 C3624 1.399 . S
C3625 C3626 1.376 . S
C3626 H3613 0.930 . S
C3626 C3625 1.376 . S
C3626 C3627 1.388 . S
C3627 H3614 0.930 . S
C3627 C3626 1.388 . S
C3627 C3628 1.390 . S
C3628 C3627 1.390 . S
C3628 C3629 1.394 . S
C3628 C3634 1.465 . S
C3629 C3624 1.399 . S
C3629 C3628 1.394 . S
C3629 C3630 1.516 . S
C3630 C3629 1.516 . S
C3630 C3631 1.502 . S
C3630 C3632 1.561 . S
C3630 C3633 1.526 . S
C3631 H3615 0.959 . S
C3631 H3616 0.959 . S
C3631 H3617 0.961 . S
C3631 C3630 1.502 . S
C3632 H3618 0.960 . S
C3632 H3619 0.961 . S
C3632 H3620 0.959 . S
C3632 C3630 1.561 . S
C3633 C3630 1.526 . S
C3633 C3634 1.396 . S
C3633 C3638 1.390 . S
C3634 C3628 1.465 . S
C3634 C3633 1.396 . S
C3634 C3635 1.399 . S
C3635 H3621 0.929 . S
C3635 C3634 1.399 . S
C3635 C3636 1.385 . S
C3636 H3622 0.931 . S
C3636 C3635 1.385 . S
C3636 C3637 1.389 . S
C3637 C3636 1.389 . S
C3637 C3638 1.387 . S
C3638 H3623 0.930 . S
C3638 C3633 1.390 . S
C3638 C3637 1.387 . S
H3639 C3651 0.930 . S
H3640 C3653 0.930 . S
H3641 C3654 0.930 . S
H3642 C3658 0.959 . S
H3643 C3658 0.959 . S
H3644 C3658 0.961 . S
H3645 C3659 0.960 . S
H3646 C3659 0.961 . S
H3647 C3659 0.959 . S
H3648 C3662 0.929 . S
H3649 C3663 0.931 . S
H3650 C3665 0.930 . S
C3651 H3639 0.930 . S
C3651 C3652 1.399 . S
C3651 C3656 1.399 . S
C3652 C3651 1.399 . S
C3652 C3653 1.376 . S
C3653 H3640 0.930 . S
C3653 C3652 1.376 . S
C3653 C3654 1.388 . S
C3654 H3641 0.930 . S
C3654 C3653 1.388 . S
C3654 C3655 1.390 . S
C3655 C3654 1.390 . S
C3655 C3656 1.394 . S
C3655 C3661 1.465 . S
C3656 C3651 1.399 . S
C3656 C3655 1.394 . S
C3656 C3657 1.516 . S
C3657 C3656 1.516 . S
C3657 C3658 1.502 . S
C3657 C3659 1.561 . S
C3657 C3660 1.526 . S
C3658 H3642 0.959 . S
C3658 H3643 0.959 . S
C3658 H3644 0.961 . S
C3658 C3657 1.502 . S
C3659 H3645 0.960 . S
C3659 H3646 0.961 . S
C3659 H3647 0.959 . S
C3659 C3657 1.561 . S
C3660 C3657 1.526 . S
C3660 C3661 1.396 . S
C3660 C3665 1.390 . S
C3661 C3655 1.465 . S
C3661 C3660 1.396 . S
C3661 C3662 1.399 . S
C3662 H3648 0.929 . S
C3662 C3661 1.399 . S
C3662 C3663 1.385 . S
C3663 H3649 0.931 . S
C3663 C3662 1.385 . S
C3663 C3664 1.389 . S
C3664 C3663 1.389 . S
C3664 C3665 1.387 . S
C3665 H3650 0.930 . S
C3665 C3660 1.390 . S
C3665 C3664 1.387 . S
H3666 C3678 0.930 . S
H3667 C3680 0.930 . S
H3668 C3681 0.930 . S
H3669 C3685 0.959 . S
H3670 C3685 0.959 . S
H3671 C3685 0.961 . S
H3672 C3686 0.960 . S
H3673 C3686 0.961 . S
H3674 C3686 0.959 . S
H3675 C3689 0.929 . S
H3676 C3690 0.931 . S
H3677 C3692 0.930 . S
C3678 H3666 0.930 . S
C3678 C3679 1.399 . S
C3678 C3683 1.399 . S
C3679 C3678 1.399 . S
C3679 C3680 1.376 . S
C3680 H3667 0.930 . S
C3680 C3679 1.376 . S
C3680 C3681 1.388 . S
C3681 H3668 0.930 . S
C3681 C3680 1.388 . S
C3681 C3682 1.390 . S
C3682 C3681 1.390 . S
C3682 C3683 1.394 . S
C3682 C3688 1.465 . S
C3683 C3678 1.399 . S
C3683 C3682 1.394 . S
C3683 C3684 1.516 . S
C3684 C3683 1.516 . S
C3684 C3685 1.502 1_455 S
C3684 C3686 1.561 . S
C3684 C3687 1.526 . S
C3685 H3669 0.959 . S
C3685 H3670 0.959 . S
C3685 H3671 0.961 . S
C3685 C3684 1.502 1_655 S
C3686 H3672 0.960 . S
C3686 H3673 0.961 . S
C3686 H3674 0.959 . S
C3686 C3684 1.561 . S
C3687 C3684 1.526 . S
C3687 C3688 1.396 . S
C3687 C3692 1.390 . S
C3688 C3682 1.465 . S
C3688 C3687 1.396 . S
C3688 C3689 1.399 . S
C3689 H3675 0.929 . S
C3689 C3688 1.399 . S
C3689 C3690 1.385 . S
C3690 H3676 0.931 . S
C3690 C3689 1.385 . S
C3690 C3691 1.389 . S
C3691 C3690 1.389 . S
C3691 C3692 1.387 . S
C3692 H3677 0.930 . S
C3692 C3687 1.390 . S
C3692 C3691 1.387 . S
H3693 C3705 0.930 . S
H3694 C3707 0.930 . S
H3695 C3708 0.930 . S
H3696 C3712 0.959 . S
H3697 C3712 0.959 . S
H3698 C3712 0.961 . S
H3699 C3713 0.960 . S
H3700 C3713 0.961 . S
H3701 C3713 0.959 . S
H3702 C3716 0.929 . S
H3703 C3717 0.931 . S
H3704 C3719 0.930 . S
C3705 H3693 0.930 . S
C3705 C3706 1.399 . S
C3705 C3710 1.399 . S
C3706 C3705 1.399 . S
C3706 C3707 1.376 . S
C3707 H3694 0.930 . S
C3707 C3706 1.376 . S
C3707 C3708 1.388 . S
C3708 H3695 0.930 . S
C3708 C3707 1.388 . S
C3708 C3709 1.390 . S
C3709 C3708 1.390 . S
C3709 C3710 1.394 . S
C3709 C3715 1.465 . S
C3710 C3705 1.399 . S
C3710 C3709 1.394 . S
C3710 C3711 1.516 . S
C3711 C3710 1.516 . S
C3711 C3712 1.502 . S
C3711 C3713 1.561 . S
C3711 C3714 1.526 . S
C3712 H3696 0.959 . S
C3712 H3697 0.959 . S
C3712 H3698 0.961 . S
C3712 C3711 1.502 . S
C3713 H3699 0.960 . S
C3713 H3700 0.961 . S
C3713 H3701 0.959 . S
C3713 C3711 1.561 . S
C3714 C3711 1.526 . S
C3714 C3715 1.396 . S
C3714 C3719 1.390 . S
C3715 C3709 1.465 . S
C3715 C3714 1.396 . S
C3715 C3716 1.399 . S
C3716 H3702 0.929 . S
C3716 C3715 1.399 . S
C3716 C3717 1.385 . S
C3717 H3703 0.931 . S
C3717 C3716 1.385 . S
C3717 C3718 1.389 . S
C3718 C3717 1.389 . S
C3718 C3719 1.387 . S
C3719 H3704 0.930 . S
C3719 C3714 1.390 . S
C3719 C3718 1.387 . S
H3720 C3732 0.930 . S
H3721 C3734 0.930 . S
H3722 C3735 0.930 . S
H3723 C3739 0.959 . S
H3724 C3739 0.959 . S
H3725 C3739 0.961 . S
H3726 C3740 0.960 . S
H3727 C3740 0.961 . S
H3728 C3740 0.959 . S
H3729 C3743 0.929 . S
H3730 C3744 0.931 . S
H3731 C3746 0.930 . S
C3732 H3720 0.930 . S
C3732 C3733 1.399 . S
C3732 C3737 1.399 . S
C3733 C3732 1.399 . S
C3733 C3734 1.376 . S
C3734 H3721 0.930 . S
C3734 C3733 1.376 . S
C3734 C3735 1.388 . S
C3735 H3722 0.930 . S
C3735 C3734 1.388 . S
C3735 C3736 1.390 . S
C3736 C3735 1.390 . S
C3736 C3737 1.394 . S
C3736 C3742 1.465 . S
C3737 C3732 1.399 . S
C3737 C3736 1.394 . S
C3737 C3738 1.516 . S
C3738 C3737 1.516 . S
C3738 C3739 1.502 . S
C3738 C3740 1.561 . S
C3738 C3741 1.526 . S
C3739 H3723 0.959 . S
C3739 H3724 0.959 . S
C3739 H3725 0.961 . S
C3739 C3738 1.502 . S
C3740 H3726 0.960 . S
C3740 H3727 0.961 . S
C3740 H3728 0.959 . S
C3740 C3738 1.561 . S
C3741 C3738 1.526 . S
C3741 C3742 1.396 . S
C3741 C3746 1.390 . S
C3742 C3736 1.465 . S
C3742 C3741 1.396 . S
C3742 C3743 1.399 . S
C3743 H3729 0.929 . S
C3743 C3742 1.399 . S
C3743 C3744 1.385 . S
C3744 H3730 0.931 . S
C3744 C3743 1.385 . S
C3744 C3745 1.389 . S
C3745 C3744 1.389 . S
C3745 C3746 1.387 . S
C3746 H3731 0.930 . S
C3746 C3741 1.390 . S
C3746 C3745 1.387 . S
H3747 C3759 0.930 . S
H3748 C3761 0.930 . S
H3749 C3762 0.930 . S
H3750 C3766 0.959 . S
H3751 C3766 0.959 . S
H3752 C3766 0.961 . S
H3753 C3767 0.960 . S
H3754 C3767 0.961 . S
H3755 C3767 0.959 . S
H3756 C3770 0.929 . S
H3757 C3771 0.931 . S
H3758 C3773 0.930 . S
C3759 H3747 0.930 . S
C3759 C3760 1.399 1_556 S
C3759 C3764 1.399 . S
C3760 C3759 1.399 1_554 S
C3760 C3761 1.376 . S
C3761 H3748 0.930 . S
C3761 C3760 1.376 . S
C3761 C3762 1.388 1_554 S
C3762 H3749 0.930 . S
C3762 C3761 1.388 1_556 S
C3762 C3763 1.390 . S
C3763 C3762 1.390 . S
C3763 C3764 1.394 . S
C3763 C3769 1.465 . S
C3764 C3759 1.399 . S
C3764 C3763 1.394 . S
C3764 C3765 1.516 . S
C3765 C3764 1.516 . S
C3765 C3766 1.502 . S
C3765 C3767 1.561 . S
C3765 C3768 1.526 . S
C3766 H3750 0.959 . S
C3766 H3751 0.959 . S
C3766 H3752 0.961 . S
C3766 C3765 1.502 . S
C3767 H3753 0.960 . S
C3767 H3754 0.961 . S
C3767 H3755 0.959 . S
C3767 C3765 1.561 . S
C3768 C3765 1.526 . S
C3768 C3769 1.396 . S
C3768 C3773 1.390 . S
C3769 C3763 1.465 . S
C3769 C3768 1.396 . S
C3769 C3770 1.399 . S
C3770 H3756 0.929 . S
C3770 C3769 1.399 . S
C3770 C3771 1.385 . S
C3771 H3757 0.931 . S
C3771 C3770 1.385 . S
C3771 C3772 1.389 . S
C3772 C3771 1.389 . S
C3772 C3773 1.387 . S
C3773 H3758 0.930 . S
C3773 C3768 1.390 . S
C3773 C3772 1.387 . S
H3774 C3786 0.930 . S
H3775 C3788 0.930 . S
H3776 C3789 0.930 . S
H3777 C3793 0.959 . S
H3778 C3793 0.959 . S
H3779 C3793 0.961 . S
H3780 C3794 0.960 . S
H3781 C3794 0.961 . S
H3782 C3794 0.959 . S
H3783 C3797 0.929 . S
H3784 C3798 0.931 . S
H3785 C3800 0.930 . S
C3786 H3774 0.930 . S
C3786 C3787 1.399 . S
C3786 C3791 1.399 . S
C3787 C3786 1.399 . S
C3787 C3788 1.376 . S
C3788 H3775 0.930 . S
C3788 C3787 1.376 . S
C3788 C3789 1.388 . S
C3789 H3776 0.930 . S
C3789 C3788 1.388 . S
C3789 C3790 1.390 . S
C3790 C3789 1.390 . S
C3790 C3791 1.394 . S
C3790 C3796 1.465 . S
C3791 C3786 1.399 . S
C3791 C3790 1.394 . S
C3791 C3792 1.516 . S
C3792 C3791 1.516 . S
C3792 C3793 1.502 . S
C3792 C3794 1.561 . S
C3792 C3795 1.526 . S
C3793 H3777 0.959 . S
C3793 H3778 0.959 . S
C3793 H3779 0.961 . S
C3793 C3792 1.502 . S
C3794 H3780 0.960 . S
C3794 H3781 0.961 . S
C3794 H3782 0.959 . S
C3794 C3792 1.561 . S
C3795 C3792 1.526 . S
C3795 C3796 1.396 . S
C3795 C3800 1.390 . S
C3796 C3790 1.465 . S
C3796 C3795 1.396 . S
C3796 C3797 1.399 . S
C3797 H3783 0.929 . S
C3797 C3796 1.399 . S
C3797 C3798 1.385 . S
C3798 H3784 0.931 . S
C3798 C3797 1.385 . S
C3798 C3799 1.389 . S
C3799 C3798 1.389 . S
C3799 C3800 1.387 . S
C3800 H3785 0.930 . S
C3800 C3795 1.390 . S
C3800 C3799 1.387 . S
H3801 C3813 0.930 . S
H3802 C3815 0.930 . S
H3803 C3816 0.930 . S
H3804 C3820 0.959 . S
H3805 C3820 0.959 . S
H3806 C3820 0.961 . S
H3807 C3821 0.960 . S
H3808 C3821 0.961 . S
H3809 C3821 0.959 . S
H3810 C3824 0.929 . S
H3811 C3825 0.931 . S
H3812 C3827 0.930 . S
C3813 H3801 0.930 . S
C3813 C3814 1.399 . S
C3813 C3818 1.399 . S
C3814 C3813 1.399 . S
C3814 C3815 1.376 . S
C3815 H3802 0.930 . S
C3815 C3814 1.376 . S
C3815 C3816 1.388 . S
C3816 H3803 0.930 . S
C3816 C3815 1.388 . S
C3816 C3817 1.390 . S
C3817 C3816 1.390 . S
C3817 C3818 1.394 . S
C3817 C3823 1.465 . S
C3818 C3813 1.399 . S
C3818 C3817 1.394 . S
C3818 C3819 1.516 . S
C3819 C3818 1.516 . S
C3819 C3820 1.502 . S
C3819 C3821 1.561 . S
C3819 C3822 1.526 . S
C3820 H3804 0.959 . S
C3820 H3805 0.959 . S
C3820 H3806 0.961 . S
C3820 C3819 1.502 . S
C3821 H3807 0.960 . S
C3821 H3808 0.961 . S
C3821 H3809 0.959 . S
C3821 C3819 1.561 . S
C3822 C3819 1.526 . S
C3822 C3823 1.396 . S
C3822 C3827 1.390 . S
C3823 C3817 1.465 . S
C3823 C3822 1.396 . S
C3823 C3824 1.399 . S
C3824 H3810 0.929 . S
C3824 C3823 1.399 . S
C3824 C3825 1.385 . S
C3825 H3811 0.931 . S
C3825 C3824 1.385 . S
C3825 C3826 1.389 . S
C3826 C3825 1.389 . S
C3826 C3827 1.387 . S
C3827 H3812 0.930 . S
C3827 C3822 1.390 . S
C3827 C3826 1.387 . S
H3828 C3840 0.930 . S
H3829 C3842 0.930 . S
H3830 C3843 0.930 . S
H3831 C3847 0.959 . S
H3832 C3847 0.959 . S
H3833 C3847 0.961 . S
H3834 C3848 0.960 . S
H3835 C3848 0.961 . S
H3836 C3848 0.959 . S
H3837 C3851 0.929 . S
H3838 C3852 0.931 . S
H3839 C3854 0.930 . S
C3840 H3828 0.930 . S
C3840 C3841 1.399 . S
C3840 C3845 1.399 . S
C3841 C3840 1.399 . S
C3841 C3842 1.376 . S
C3842 H3829 0.930 . S
C3842 C3841 1.376 . S
C3842 C3843 1.388 . S
C3843 H3830 0.930 . S
C3843 C3842 1.388 . S
C3843 C3844 1.390 . S
C3844 C3843 1.390 . S
C3844 C3845 1.394 . S
C3844 C3850 1.465 . S
C3845 C3840 1.399 . S
C3845 C3844 1.394 . S
C3845 C3846 1.516 . S
C3846 C3845 1.516 . S
C3846 C3847 1.502 . S
C3846 C3848 1.561 . S
C3846 C3849 1.526 . S
C3847 H3831 0.959 . S
C3847 H3832 0.959 . S
C3847 H3833 0.961 . S
C3847 C3846 1.502 . S
C3848 H3834 0.960 . S
C3848 H3835 0.961 . S
C3848 H3836 0.959 . S
C3848 C3846 1.561 . S
C3849 C3846 1.526 . S
C3849 C3850 1.396 . S
C3849 C3854 1.390 . S
C3850 C3844 1.465 . S
C3850 C3849 1.396 . S
C3850 C3851 1.399 . S
C3851 H3837 0.929 . S
C3851 C3850 1.399 . S
C3851 C3852 1.385 . S
C3852 H3838 0.931 . S
C3852 C3851 1.385 . S
C3852 C3853 1.389 . S
C3853 C3852 1.389 . S
C3853 C3854 1.387 . S
C3854 H3839 0.930 . S
C3854 C3849 1.390 . S
C3854 C3853 1.387 . S
H3855 C3867 0.930 . S
H3856 C3869 0.930 . S
H3857 C3870 0.930 . S
H3858 C3874 0.959 . S
H3859 C3874 0.959 . S
H3860 C3874 0.961 . S
H3861 C3875 0.960 . S
H3862 C3875 0.961 . S
H3863 C3875 0.959 . S
H3864 C3878 0.929 . S
H3865 C3879 0.931 . S
H3866 C3881 0.930 . S
C3867 H3855 0.930 . S
C3867 C3868 1.399 . S
C3867 C3872 1.399 . S
C3868 C3867 1.399 . S
C3868 C3869 1.376 . S
C3869 H3856 0.930 . S
C3869 C3868 1.376 . S
C3869 C3870 1.388 . S
C3870 H3857 0.930 . S
C3870 C3869 1.388 . S
C3870 C3871 1.390 . S
C3871 C3870 1.390 . S
C3871 C3872 1.394 . S
C3871 C3877 1.465 . S
C3872 C3867 1.399 . S
C3872 C3871 1.394 . S
C3872 C3873 1.516 . S
C3873 C3872 1.516 . S
C3873 C3874 1.502 . S
C3873 C3875 1.561 . S
C3873 C3876 1.526 . S
C3874 H3858 0.959 . S
C3874 H3859 0.959 . S
C3874 H3860 0.961 . S
C3874 C3873 1.502 . S
C3875 H3861 0.960 . S
C3875 H3862 0.961 . S
C3875 H3863 0.959 . S
C3875 C3873 1.561 . S
C3876 C3873 1.526 . S
C3876 C3877 1.396 . S
C3876 C3881 1.390 . S
C3877 C3871 1.465 . S
C3877 C3876 1.396 . S
C3877 C3878 1.399 . S
C3878 H3864 0.929 . S
C3878 C3877 1.399 . S
C3878 C3879 1.385 . S
C3879 H3865 0.931 . S
C3879 C3878 1.385 . S
C3879 C3880 1.389 . S
C3880 C3879 1.389 . S
C3880 C3881 1.387 . S
C3881 H3866 0.930 . S
C3881 C3876 1.390 . S
C3881 C3880 1.387 . S
H3882 C3894 0.930 . S
H3883 C3896 0.930 . S
H3884 C3897 0.930 . S
H3885 C3901 0.959 . S
H3886 C3901 0.959 . S
H3887 C3901 0.961 . S
H3888 C3902 0.960 . S
H3889 C3902 0.961 . S
H3890 C3902 0.959 . S
H3891 C3905 0.929 . S
H3892 C3906 0.931 . S
H3893 C3908 0.930 . S
C3894 H3882 0.930 . S
C3894 C3895 1.399 . S
C3894 C3899 1.399 . S
C3895 C3894 1.399 . S
C3895 C3896 1.376 . S
C3896 H3883 0.930 . S
C3896 C3895 1.376 . S
C3896 C3897 1.388 . S
C3897 H3884 0.930 . S
C3897 C3896 1.388 . S
C3897 C3898 1.390 . S
C3898 C3897 1.390 . S
C3898 C3899 1.394 . S
C3898 C3904 1.465 . S
C3899 C3894 1.399 . S
C3899 C3898 1.394 . S
C3899 C3900 1.516 . S
C3900 C3899 1.516 . S
C3900 C3901 1.502 . S
C3900 C3902 1.561 . S
C3900 C3903 1.526 . S
C3901 H3885 0.959 . S
C3901 H3886 0.959 . S
C3901 H3887 0.961 . S
C3901 C3900 1.502 . S
C3902 H3888 0.960 . S
C3902 H3889 0.961 . S
C3902 H3890 0.959 . S
C3902 C3900 1.561 . S
C3903 C3900 1.526 . S
C3903 C3904 1.396 . S
C3903 C3908 1.390 . S
C3904 C3898 1.465 . S
C3904 C3903 1.396 . S
C3904 C3905 1.399 . S
C3905 H3891 0.929 . S
C3905 C3904 1.399 . S
C3905 C3906 1.385 . S
C3906 H3892 0.931 . S
C3906 C3905 1.385 . S
C3906 C3907 1.389 . S
C3907 C3906 1.389 . S
C3907 C3908 1.387 . S
C3908 H3893 0.930 . S
C3908 C3903 1.390 . S
C3908 C3907 1.387 . S
H3909 C3921 0.930 . S
H3910 C3923 0.930 . S
H3911 C3924 0.930 . S
H3912 C3928 0.959 . S
H3913 C3928 0.959 . S
H3914 C3928 0.961 . S
H3915 C3929 0.960 . S
H3916 C3929 0.961 . S
H3917 C3929 0.959 . S
H3918 C3932 0.929 . S
H3919 C3933 0.931 . S
H3920 C3935 0.930 . S
C3921 H3909 0.930 . S
C3921 C3922 1.399 . S
C3921 C3926 1.399 . S
C3922 C3921 1.399 . S
C3922 C3923 1.376 . S
C3923 H3910 0.930 . S
C3923 C3922 1.376 . S
C3923 C3924 1.388 . S
C3924 H3911 0.930 . S
C3924 C3923 1.388 . S
C3924 C3925 1.390 . S
C3925 C3924 1.390 . S
C3925 C3926 1.394 . S
C3925 C3931 1.465 . S
C3926 C3921 1.399 . S
C3926 C3925 1.394 . S
C3926 C3927 1.516 . S
C3927 C3926 1.516 . S
C3927 C3928 1.502 . S
C3927 C3929 1.561 . S
C3927 C3930 1.526 . S
C3928 H3912 0.959 . S
C3928 H3913 0.959 . S
C3928 H3914 0.961 . S
C3928 C3927 1.502 . S
C3929 H3915 0.960 . S
C3929 H3916 0.961 . S
C3929 H3917 0.959 . S
C3929 C3927 1.561 . S
C3930 C3927 1.526 . S
C3930 C3931 1.396 . S
C3930 C3935 1.390 . S
C3931 C3925 1.465 . S
C3931 C3930 1.396 . S
C3931 C3932 1.399 . S
C3932 H3918 0.929 . S
C3932 C3931 1.399 . S
C3932 C3933 1.385 . S
C3933 H3919 0.931 . S
C3933 C3932 1.385 . S
C3933 C3934 1.389 . S
C3934 C3933 1.389 . S
C3934 C3935 1.387 . S
C3935 H3920 0.930 . S
C3935 C3930 1.390 . S
C3935 C3934 1.387 . S
H3936 C3948 0.930 . S
H3937 C3950 0.930 . S
H3938 C3951 0.930 . S
H3939 C3955 0.959 . S
H3940 C3955 0.959 . S
H3941 C3955 0.961 . S
H3942 C3956 0.960 . S
H3943 C3956 0.961 . S
H3944 C3956 0.959 . S
H3945 C3959 0.929 . S
H3946 C3960 0.931 . S
H3947 C3962 0.930 . S
C3948 H3936 0.930 . S
C3948 C3949 1.399 . S
C3948 C3953 1.399 . S
C3949 C3948 1.399 . S
C3949 C3950 1.376 . S
C3950 H3937 0.930 . S
C3950 C3949 1.376 . S
C3950 C3951 1.388 . S
C3951 H3938 0.930 . S
C3951 C3950 1.388 . S
C3951 C3952 1.390 . S
C3952 C3951 1.390 . S
C3952 C3953 1.394 . S
C3952 C3958 1.465 . S
C3953 C3948 1.399 . S
C3953 C3952 1.394 . S
C3953 C3954 1.516 . S
C3954 C3953 1.516 . S
C3954 C3955 1.502 . S
C3954 C3956 1.561 . S
C3954 C3957 1.526 . S
C3955 H3939 0.959 . S
C3955 H3940 0.959 . S
C3955 H3941 0.961 . S
C3955 C3954 1.502 . S
C3956 H3942 0.960 . S
C3956 H3943 0.961 . S
C3956 H3944 0.959 . S
C3956 C3954 1.561 . S
C3957 C3954 1.526 . S
C3957 C3958 1.396 . S
C3957 C3962 1.390 . S
C3958 C3952 1.465 . S
C3958 C3957 1.396 . S
C3958 C3959 1.399 . S
C3959 H3945 0.929 . S
C3959 C3958 1.399 . S
C3959 C3960 1.385 . S
C3960 H3946 0.931 . S
C3960 C3959 1.385 . S
C3960 C3961 1.389 . S
C3961 C3960 1.389 . S
C3961 C3962 1.387 . S
C3962 H3947 0.930 . S
C3962 C3957 1.390 . S
C3962 C3961 1.387 . S
H3963 C3975 0.930 . S
H3964 C3977 0.930 . S
H3965 C3978 0.930 . S
H3966 C3982 0.959 . S
H3967 C3982 0.959 . S
H3968 C3982 0.961 . S
H3969 C3983 0.960 . S
H3970 C3983 0.961 . S
H3971 C3983 0.959 . S
H3972 C3986 0.929 . S
H3973 C3987 0.931 . S
H3974 C3989 0.930 . S
C3975 H3963 0.930 . S
C3975 C3976 1.399 . S
C3975 C3980 1.399 . S
C3976 C3975 1.399 . S
C3976 C3977 1.376 . S
C3977 H3964 0.930 . S
C3977 C3976 1.376 . S
C3977 C3978 1.388 . S
C3978 H3965 0.930 . S
C3978 C3977 1.388 . S
C3978 C3979 1.390 . S
C3979 C3978 1.390 . S
C3979 C3980 1.394 . S
C3979 C3985 1.465 . S
C3980 C3975 1.399 . S
C3980 C3979 1.394 . S
C3980 C3981 1.516 . S
C3981 C3980 1.516 . S
C3981 C3982 1.502 . S
C3981 C3983 1.561 . S
C3981 C3984 1.526 . S
C3982 H3966 0.959 . S
C3982 H3967 0.959 . S
C3982 H3968 0.961 . S
C3982 C3981 1.502 . S
C3983 H3969 0.960 . S
C3983 H3970 0.961 . S
C3983 H3971 0.959 . S
C3983 C3981 1.561 . S
C3984 C3981 1.526 . S
C3984 C3985 1.396 . S
C3984 C3989 1.390 . S
C3985 C3979 1.465 . S
C3985 C3984 1.396 . S
C3985 C3986 1.399 . S
C3986 H3972 0.929 . S
C3986 C3985 1.399 . S
C3986 C3987 1.385 . S
C3987 H3973 0.931 . S
C3987 C3986 1.385 . S
C3987 C3988 1.389 . S
C3988 C3987 1.389 . S
C3988 C3989 1.387 . S
C3989 H3974 0.930 . S
C3989 C3984 1.390 . S
C3989 C3988 1.387 . S
H3990 C4002 0.930 . S
H3991 C4004 0.930 . S
H3992 C4005 0.930 . S
H3993 C4009 0.959 . S
H3994 C4009 0.959 . S
H3995 C4009 0.961 . S
H3996 C4010 0.960 . S
H3997 C4010 0.961 . S
H3998 C4010 0.959 . S
H3999 C4013 0.929 . S
H4000 C4014 0.931 . S
H4001 C4016 0.930 . S
C4002 H3990 0.930 . S
C4002 C4003 1.399 . S
C4002 C4007 1.399 . S
C4003 C4002 1.399 . S
C4003 C4004 1.376 . S
C4004 H3991 0.930 . S
C4004 C4003 1.376 . S
C4004 C4005 1.388 . S
C4005 H3992 0.930 . S
C4005 C4004 1.388 . S
C4005 C4006 1.390 . S
C4006 C4005 1.390 . S
C4006 C4007 1.394 . S
C4006 C4012 1.465 . S
C4007 C4002 1.399 . S
C4007 C4006 1.394 . S
C4007 C4008 1.516 . S
C4008 C4007 1.516 . S
C4008 C4009 1.502 . S
C4008 C4010 1.561 . S
C4008 C4011 1.526 . S
C4009 H3993 0.959 . S
C4009 H3994 0.959 . S
C4009 H3995 0.961 . S
C4009 C4008 1.502 . S
C4010 H3996 0.960 . S
C4010 H3997 0.961 . S
C4010 H3998 0.959 . S
C4010 C4008 1.561 . S
C4011 C4008 1.526 . S
C4011 C4012 1.396 . S
C4011 C4016 1.390 . S
C4012 C4006 1.465 . S
C4012 C4011 1.396 . S
C4012 C4013 1.399 . S
C4013 H3999 0.929 . S
C4013 C4012 1.399 . S
C4013 C4014 1.385 . S
C4014 H4000 0.931 . S
C4014 C4013 1.385 . S
C4014 C4015 1.389 . S
C4015 C4014 1.389 . S
C4015 C4016 1.387 . S
C4016 H4001 0.930 . S
C4016 C4011 1.390 . S
C4016 C4015 1.387 . S
H4017 C4029 0.930 . S
H4018 C4031 0.930 . S
H4019 C4032 0.930 . S
H4020 C4036 0.959 1_545 S
H4021 C4036 0.959 . S
H4022 C4036 0.961 . S
H4023 C4037 0.960 . S
H4024 C4037 0.961 . S
H4025 C4037 0.959 . S
H4026 C4040 0.929 . S
H4027 C4041 0.931 . S
H4028 C4043 0.930 . S
C4029 H4017 0.930 . S
C4029 C4030 1.399 . S
C4029 C4034 1.399 . S
C4030 C4029 1.399 . S
C4030 C4031 1.376 1_554 S
C4031 H4018 0.930 . S
C4031 C4030 1.376 1_556 S
C4031 C4032 1.388 . S
C4032 H4019 0.930 . S
C4032 C4031 1.388 . S
C4032 C4033 1.373 1_556 S
C4033 C4032 1.373 1_554 S
C4033 C4034 1.415 . S
C4033 C4039 1.465 . S
C4034 C4029 1.399 . S
C4034 C4033 1.415 . S
C4034 C4035 1.516 . S
C4035 C4034 1.516 . S
C4035 C4036 1.502 . S
C4035 C4037 1.561 . S
C4035 C4038 1.526 . S
C4036 H4020 0.959 1_565 S
C4036 H4021 0.959 . S
C4036 H4022 0.961 . S
C4036 C4035 1.502 . S
C4037 H4023 0.960 . S
C4037 H4024 0.961 . S
C4037 H4025 0.959 . S
C4037 C4035 1.561 . S
C4038 C4035 1.526 . S
C4038 C4039 1.396 . S
C4038 C4043 1.390 1_565 S
C4039 C4033 1.465 . S
C4039 C4038 1.396 . S
C4039 C4040 1.399 1_564 S
C4040 H4026 0.929 . S
C4040 C4039 1.399 1_546 S
C4040 C4041 1.385 . S
C4041 H4027 0.931 . S
C4041 C4040 1.385 . S
C4041 C4042 1.389 1_556 S
C4042 C4041 1.389 1_554 S
C4042 C4043 1.387 . S
C4043 H4028 0.930 . S
C4043 C4038 1.390 1_545 S
C4043 C4042 1.387 . S
H4044 C4056 0.930 . S
H4045 C4058 0.930 . S
H4046 C4059 0.930 . S
H4047 C4063 0.959 . S
H4048 C4063 0.959 . S
H4049 C4063 0.961 . S
H4050 C4064 0.960 . S
H4051 C4064 0.961 . S
H4052 C4064 0.959 . S
H4053 C4067 0.929 . S
H4054 C4068 0.931 . S
H4055 C4070 0.930 . S
C4056 H4044 0.930 . S
C4056 C4057 1.399 . S
C4056 C4061 1.399 . S
C4057 C4056 1.399 . S
C4057 C4058 1.376 . S
C4058 H4045 0.930 . S
C4058 C4057 1.376 . S
C4058 C4059 1.388 . S
C4059 H4046 0.930 . S
C4059 C4058 1.388 . S
C4059 C4060 1.390 . S
C4060 C4059 1.390 . S
C4060 C4061 1.394 . S
C4060 C4066 1.465 . S
C4061 C4056 1.399 . S
C4061 C4060 1.394 . S
C4061 C4062 1.516 . S
C4062 C4061 1.516 . S
C4062 C4063 1.502 . S
C4062 C4064 1.561 . S
C4062 C4065 1.526 . S
C4063 H4047 0.959 . S
C4063 H4048 0.959 . S
C4063 H4049 0.961 . S
C4063 C4062 1.502 . S
C4064 H4050 0.960 . S
C4064 H4051 0.961 . S
C4064 H4052 0.959 . S
C4064 C4062 1.561 . S
C4065 C4062 1.526 . S
C4065 C4066 1.396 . S
C4065 C4070 1.390 . S
C4066 C4060 1.465 . S
C4066 C4065 1.396 . S
C4066 C4067 1.399 . S
C4067 H4053 0.929 . S
C4067 C4066 1.399 . S
C4067 C4068 1.385 . S
C4068 H4054 0.931 . S
C4068 C4067 1.385 . S
C4068 C4069 1.389 . S
C4069 C4068 1.389 . S
C4069 C4070 1.387 . S
C4070 H4055 0.930 . S
C4070 C4065 1.390 . S
C4070 C4069 1.387 . S
H4071 C4083 0.930 1_556 S
H4072 C4085 0.930 . S
H4073 C4086 0.930 . S
H4074 C4090 0.959 . S
H4075 C4090 0.959 . S
H4076 C4090 0.961 . S
H4077 C4091 0.960 . S
H4078 C4091 0.961 . S
H4079 C4091 0.959 . S
H4080 C4094 0.929 . S
H4081 C4095 0.931 . S
H4082 C4097 0.937 . S
C4083 H4071 0.930 1_554 S
C4083 C4084 1.399 . S
C4083 C4088 1.399 . S
C4084 C4083 1.399 . S
C4084 C4085 1.376 . S
C4085 H4072 0.930 . S
C4085 C4084 1.376 . S
C4085 C4086 1.388 . S
C4086 H4073 0.930 . S
C4086 C4085 1.388 . S
C4086 C4087 1.390 . S
C4087 C4086 1.390 . S
C4087 C4088 1.394 . S
C4087 C4093 1.465 . S
C4088 C4083 1.399 . S
C4088 C4087 1.394 . S
C4088 C4089 1.516 1_554 S
C4089 C4088 1.516 1_556 S
C4089 C4090 1.502 . S
C4089 C4091 1.561 . S
C4089 C4092 1.526 1_556 S
C4090 H4074 0.959 . S
C4090 H4075 0.959 . S
C4090 H4076 0.961 . S
C4090 C4089 1.502 . S
C4091 H4077 0.960 . S
C4091 H4078 0.961 . S
C4091 H4079 0.959 . S
C4091 C4089 1.561 . S
C4092 C4089 1.526 1_554 S
C4092 C4093 1.396 . S
C4092 C4097 1.390 . S
C4093 C4087 1.465 . S
C4093 C4092 1.396 . S
C4093 C4094 1.399 . S
C4094 H4080 0.929 . S
C4094 C4093 1.399 . S
C4094 C4095 1.385 . S
C4095 H4081 0.931 . S
C4095 C4094 1.385 . S
C4095 C4096 1.389 . S
C4096 C4095 1.389 . S
C4096 C4097 1.387 . S
C4097 H4082 0.937 . S
C4097 C4092 1.390 . S
C4097 C4096 1.387 . S
H4098 C4110 0.930 . S
H4099 C4112 0.930 . S
H4100 C4113 0.930 . S
H4101 C4117 0.959 . S
H4102 C4117 0.959 . S
H4103 C4117 0.961 . S
H4104 C4118 0.960 . S
H4105 C4118 0.961 . S
H4106 C4118 0.959 . S
H4107 C4121 0.929 . S
H4108 C4122 0.931 . S
H4109 C4124 0.930 . S
C4110 H4098 0.930 . S
C4110 C4111 1.399 . S
C4110 C4115 1.399 . S
C4111 C4110 1.399 . S
C4111 C4112 1.376 . S
C4112 H4099 0.930 . S
C4112 C4111 1.376 . S
C4112 C4113 1.388 . S
C4113 H4100 0.930 . S
C4113 C4112 1.388 . S
C4113 C4114 1.390 . S
C4114 C4113 1.390 . S
C4114 C4115 1.394 . S
C4114 C4120 1.465 . S
C4115 C4110 1.399 . S
C4115 C4114 1.394 . S
C4115 C4116 1.516 . S
C4116 C4115 1.516 . S
C4116 C4117 1.502 . S
C4116 C4118 1.561 . S
C4116 C4119 1.526 . S
C4117 H4101 0.959 . S
C4117 H4102 0.959 . S
C4117 H4103 0.961 . S
C4117 C4116 1.502 . S
C4118 H4104 0.960 . S
C4118 H4105 0.961 . S
C4118 H4106 0.959 . S
C4118 C4116 1.561 . S
C4119 C4116 1.526 . S
C4119 C4120 1.396 . S
C4119 C4124 1.390 . S
C4120 C4114 1.465 . S
C4120 C4119 1.396 . S
C4120 C4121 1.399 . S
C4121 H4107 0.929 . S
C4121 C4120 1.399 . S
C4121 C4122 1.385 . S
C4122 H4108 0.931 . S
C4122 C4121 1.385 . S
C4122 C4123 1.389 . S
C4123 C4122 1.389 . S
C4123 C4124 1.387 . S
C4124 H4109 0.930 . S
C4124 C4119 1.390 . S
C4124 C4123 1.387 . S
H4125 C4137 0.930 . S
H4126 C4139 0.930 . S
H4127 C4140 0.930 . S
H4128 C4144 0.959 . S
H4129 C4144 0.959 . S
H4130 C4144 0.961 . S
H4131 C4145 0.960 . S
H4132 C4145 0.961 . S
H4133 C4145 0.959 . S
H4134 C4148 0.929 . S
H4135 C4149 0.931 . S
H4136 C4151 0.930 . S
C4137 H4125 0.930 . S
C4137 C4138 1.399 . S
C4137 C4142 1.399 . S
C4138 C4137 1.399 . S
C4138 C4139 1.376 . S
C4139 H4126 0.930 . S
C4139 C4138 1.376 . S
C4139 C4140 1.388 . S
C4140 H4127 0.930 . S
C4140 C4139 1.388 . S
C4140 C4141 1.390 . S
C4141 C4140 1.390 . S
C4141 C4142 1.394 . S
C4141 C4147 1.465 . S
C4142 C4137 1.399 . S
C4142 C4141 1.394 . S
C4142 C4143 1.516 . S
C4143 C4142 1.516 . S
C4143 C4144 1.502 . S
C4143 C4145 1.561 . S
C4143 C4146 1.526 . S
C4144 H4128 0.959 . S
C4144 H4129 0.959 . S
C4144 H4130 0.961 . S
C4144 C4143 1.502 . S
C4145 H4131 0.960 . S
C4145 H4132 0.961 . S
C4145 H4133 0.959 . S
C4145 C4143 1.561 . S
C4146 C4143 1.526 . S
C4146 C4147 1.396 . S
C4146 C4151 1.390 . S
C4147 C4141 1.465 . S
C4147 C4146 1.396 . S
C4147 C4148 1.399 . S
C4148 H4134 0.929 . S
C4148 C4147 1.399 . S
C4148 C4149 1.385 . S
C4149 H4135 0.931 . S
C4149 C4148 1.385 . S
C4149 C4150 1.389 . S
C4150 C4149 1.389 . S
C4150 C4151 1.387 . S
C4151 H4136 0.930 . S
C4151 C4146 1.390 . S
C4151 C4150 1.387 . S
H4152 C4164 0.930 . S
H4153 C4166 0.930 . S
H4154 C4167 0.930 . S
H4155 C4171 0.959 . S
H4156 C4171 0.959 . S
H4157 C4171 0.961 . S
H4158 C4172 0.960 . S
H4159 C4172 0.961 . S
H4160 C4172 0.959 . S
H4161 C4175 0.929 . S
H4162 C4176 0.931 . S
H4163 C4178 0.930 . S
C4164 H4152 0.930 . S
C4164 C4165 1.399 . S
C4164 C4169 1.399 . S
C4165 C4164 1.399 . S
C4165 C4166 1.376 . S
C4166 H4153 0.930 . S
C4166 C4165 1.376 . S
C4166 C4167 1.388 . S
C4167 H4154 0.930 . S
C4167 C4166 1.388 . S
C4167 C4168 1.390 . S
C4168 C4167 1.390 . S
C4168 C4169 1.394 . S
C4168 C4174 1.465 . S
C4169 C4164 1.399 . S
C4169 C4168 1.394 . S
C4169 C4170 1.516 . S
C4170 C4169 1.516 . S
C4170 C4171 1.502 . S
C4170 C4172 1.561 . S
C4170 C4173 1.526 . S
C4171 H4155 0.959 . S
C4171 H4156 0.959 . S
C4171 H4157 0.961 . S
C4171 C4170 1.502 . S
C4172 H4158 0.960 . S
C4172 H4159 0.961 . S
C4172 H4160 0.959 . S
C4172 C4170 1.561 . S
C4173 C4170 1.526 . S
C4173 C4174 1.396 . S
C4173 C4178 1.390 . S
C4174 C4168 1.465 . S
C4174 C4173 1.396 . S
C4174 C4175 1.399 . S
C4175 H4161 0.929 . S
C4175 C4174 1.399 . S
C4175 C4176 1.385 . S
C4176 H4162 0.931 . S
C4176 C4175 1.385 . S
C4176 C4177 1.389 . S
C4177 C4176 1.389 . S
C4177 C4178 1.387 . S
C4178 H4163 0.930 . S
C4178 C4173 1.390 . S
C4178 C4177 1.387 . S
H4179 C4191 0.930 . S
H4180 C4193 0.930 . S
H4181 C4194 0.930 . S
H4182 C4198 0.959 . S
H4183 C4198 0.959 . S
H4184 C4198 0.961 . S
H4185 C4199 0.960 . S
H4186 C4199 0.961 . S
H4187 C4199 0.959 . S
H4188 C4202 0.929 . S
H4189 C4203 0.931 . S
H4190 C4205 0.930 . S
C4191 H4179 0.930 . S
C4191 C4192 1.399 . S
C4191 C4196 1.399 . S
C4192 C4191 1.399 . S
C4192 C4193 1.376 . S
C4193 H4180 0.930 . S
C4193 C4192 1.376 . S
C4193 C4194 1.388 . S
C4194 H4181 0.930 . S
C4194 C4193 1.388 . S
C4194 C4195 1.390 . S
C4195 C4194 1.390 . S
C4195 C4196 1.394 . S
C4195 C4201 1.465 . S
C4196 C4191 1.399 . S
C4196 C4195 1.394 . S
C4196 C4197 1.516 . S
C4197 C4196 1.516 . S
C4197 C4198 1.502 . S
C4197 C4199 1.561 . S
C4197 C4200 1.526 . S
C4198 H4182 0.959 . S
C4198 H4183 0.959 . S
C4198 H4184 0.961 . S
C4198 C4197 1.502 . S
C4199 H4185 0.960 . S
C4199 H4186 0.961 . S
C4199 H4187 0.959 . S
C4199 C4197 1.561 . S
C4200 C4197 1.526 . S
C4200 C4201 1.396 . S
C4200 C4205 1.390 . S
C4201 C4195 1.465 . S
C4201 C4200 1.396 . S
C4201 C4202 1.399 . S
C4202 H4188 0.929 . S
C4202 C4201 1.399 . S
C4202 C4203 1.385 . S
C4203 H4189 0.931 . S
C4203 C4202 1.385 . S
C4203 C4204 1.389 . S
C4204 C4203 1.389 . S
C4204 C4205 1.387 . S
C4205 H4190 0.930 . S
C4205 C4200 1.390 . S
C4205 C4204 1.387 . S
H4206 C4218 0.930 . S
H4207 C4220 0.930 . S
H4208 C4221 0.930 . S
H4209 C4225 0.959 1_655 S
H4210 C4225 0.959 1_655 S
H4211 C4225 0.961 1_655 S
H4212 C4226 0.960 . S
H4213 C4226 0.961 . S
H4214 C4226 0.959 . S
H4215 C4229 0.929 . S
H4216 C4230 0.931 . S
H4217 C4232 0.930 . S
C4218 H4206 0.930 . S
C4218 C4219 1.399 . S
C4218 C4223 1.399 . S
C4219 C4218 1.399 . S
C4219 C4220 1.376 . S
C4220 H4207 0.930 . S
C4220 C4219 1.376 . S
C4220 C4221 1.388 . S
C4221 H4208 0.930 . S
C4221 C4220 1.388 . S
C4221 C4222 1.390 . S
C4222 C4221 1.390 . S
C4222 C4223 1.394 . S
C4222 C4228 1.465 . S
C4223 C4218 1.399 . S
C4223 C4222 1.394 . S
C4223 C4224 1.516 . S
C4224 C4223 1.516 . S
C4224 C4225 1.502 . S
C4224 C4226 1.561 . S
C4224 C4227 1.526 . S
C4225 H4209 0.959 1_455 S
C4225 H4210 0.959 1_455 S
C4225 H4211 0.961 1_455 S
C4225 C4224 1.502 . S
C4226 H4212 0.960 . S
C4226 H4213 0.961 . S
C4226 H4214 0.959 . S
C4226 C4224 1.561 . S
C4227 C4224 1.526 . S
C4227 C4228 1.396 . S
C4227 C4232 1.390 . S
C4228 C4222 1.465 . S
C4228 C4227 1.396 . S
C4228 C4229 1.399 . S
C4229 H4215 0.929 . S
C4229 C4228 1.399 . S
C4229 C4230 1.385 . S
C4230 H4216 0.931 . S
C4230 C4229 1.385 . S
C4230 C4231 1.389 . S
C4231 C4230 1.389 . S
C4231 C4232 1.387 . S
C4232 H4217 0.930 . S
C4232 C4227 1.390 . S
C4232 C4231 1.387 . S
H4233 C4245 0.930 . S
H4234 C4247 0.930 . S
H4235 C4248 0.930 . S
H4236 C4252 0.959 . S
H4237 C4252 0.959 . S
H4238 C4252 0.961 . S
H4239 C4253 0.960 . S
H4240 C4253 0.961 . S
H4241 C4253 0.959 . S
H4242 C4256 0.929 . S
H4243 C4257 0.931 . S
H4244 C4259 0.930 . S
C4245 H4233 0.930 . S
C4245 C4246 1.399 . S
C4245 C4250 1.399 . S
C4246 C4245 1.399 . S
C4246 C4247 1.376 . S
C4247 H4234 0.930 . S
C4247 C4246 1.376 . S
C4247 C4248 1.388 . S
C4248 H4235 0.930 . S
C4248 C4247 1.388 . S
C4248 C4249 1.390 . S
C4249 C4248 1.390 . S
C4249 C4250 1.394 . S
C4249 C4255 1.465 . S
C4250 C4245 1.399 . S
C4250 C4249 1.394 . S
C4250 C4251 1.516 . S
C4251 C4250 1.516 . S
C4251 C4252 1.502 . S
C4251 C4253 1.561 . S
C4251 C4254 1.526 . S
C4252 H4236 0.959 . S
C4252 H4237 0.959 . S
C4252 H4238 0.961 . S
C4252 C4251 1.502 . S
C4253 H4239 0.960 . S
C4253 H4240 0.961 . S
C4253 H4241 0.959 . S
C4253 C4251 1.561 . S
C4254 C4251 1.526 . S
C4254 C4255 1.396 . S
C4254 C4259 1.390 . S
C4255 C4249 1.465 . S
C4255 C4254 1.396 . S
C4255 C4256 1.399 . S
C4256 H4242 0.929 . S
C4256 C4255 1.399 . S
C4256 C4257 1.385 . S
C4257 H4243 0.931 . S
C4257 C4256 1.385 . S
C4257 C4258 1.389 . S
C4258 C4257 1.389 . S
C4258 C4259 1.387 . S
C4259 H4244 0.930 . S
C4259 C4254 1.390 . S
C4259 C4258 1.387 . S
H4260 C4272 0.930 . S
H4261 C4274 0.930 . S
H4262 C4275 0.930 . S
H4263 C4279 0.959 . S
H4264 C4279 0.959 . S
H4265 C4279 0.961 . S
H4266 C4280 0.960 . S
H4267 C4280 0.961 . S
H4268 C4280 0.959 . S
H4269 C4283 0.929 . S
H4270 C4284 0.931 . S
H4271 C4286 0.930 . S
C4272 H4260 0.930 . S
C4272 C4273 1.399 . S
C4272 C4277 1.399 . S
C4273 C4272 1.399 . S
C4273 C4274 1.376 . S
C4274 H4261 0.930 . S
C4274 C4273 1.376 . S
C4274 C4275 1.388 . S
C4275 H4262 0.930 . S
C4275 C4274 1.388 . S
C4275 C4276 1.390 . S
C4276 C4275 1.390 . S
C4276 C4277 1.394 . S
C4276 C4282 1.465 . S
C4277 C4272 1.399 . S
C4277 C4276 1.394 . S
C4277 C4278 1.516 . S
C4278 C4277 1.516 . S
C4278 C4279 1.502 . S
C4278 C4280 1.561 . S
C4278 C4281 1.526 . S
C4279 H4263 0.959 . S
C4279 H4264 0.959 . S
C4279 H4265 0.961 . S
C4279 C4278 1.502 . S
C4280 H4266 0.960 . S
C4280 H4267 0.961 . S
C4280 H4268 0.959 . S
C4280 C4278 1.561 . S
C4281 C4278 1.526 . S
C4281 C4282 1.396 . S
C4281 C4286 1.390 . S
C4282 C4276 1.465 . S
C4282 C4281 1.396 . S
C4282 C4283 1.399 . S
C4283 H4269 0.929 . S
C4283 C4282 1.399 . S
C4283 C4284 1.385 . S
C4284 H4270 0.931 . S
C4284 C4283 1.385 . S
C4284 C4285 1.389 . S
C4285 C4284 1.389 . S
C4285 C4286 1.387 . S
C4286 H4271 0.930 . S
C4286 C4281 1.390 . S
C4286 C4285 1.387 . S
H4287 C4299 0.930 . S
H4288 C4301 0.930 . S
H4289 C4302 0.930 . S
H4290 C4306 0.959 . S
H4291 C4306 0.959 . S
H4292 C4306 0.961 . S
H4293 C4307 0.960 . S
H4294 C4307 0.961 . S
H4295 C4307 0.959 . S
H4296 C4310 0.929 . S
H4297 C4311 0.931 . S
H4298 C4313 0.930 . S
C4299 H4287 0.930 . S
C4299 C4300 1.399 . S
C4299 C4304 1.399 . S
C4300 C4299 1.399 . S
C4300 C4301 1.376 . S
C4301 H4288 0.930 . S
C4301 C4300 1.376 . S
C4301 C4302 1.388 . S
C4302 H4289 0.930 . S
C4302 C4301 1.388 . S
C4302 C4303 1.390 . S
C4303 C4302 1.390 . S
C4303 C4304 1.394 . S
C4303 C4309 1.465 . S
C4304 C4299 1.399 . S
C4304 C4303 1.394 . S
C4304 C4305 1.516 . S
C4305 C4304 1.516 . S
C4305 C4306 1.502 . S
C4305 C4307 1.561 . S
C4305 C4308 1.526 . S
C4306 H4290 0.959 . S
C4306 H4291 0.959 . S
C4306 H4292 0.961 . S
C4306 C4305 1.502 . S
C4307 H4293 0.960 . S
C4307 H4294 0.961 . S
C4307 H4295 0.959 . S
C4307 C4305 1.561 . S
C4308 C4305 1.526 . S
C4308 C4309 1.396 . S
C4308 C4313 1.390 . S
C4309 C4303 1.465 . S
C4309 C4308 1.396 . S
C4309 C4310 1.399 . S
C4310 H4296 0.929 . S
C4310 C4309 1.399 . S
C4310 C4311 1.385 . S
C4311 H4297 0.931 . S
C4311 C4310 1.385 . S
C4311 C4312 1.389 . S
C4312 C4311 1.389 . S
C4312 C4313 1.387 . S
C4313 H4298 0.930 . S
C4313 C4308 1.390 . S
C4313 C4312 1.387 . S
H4314 C4326 0.930 . S
H4315 C4328 0.930 . S
H4316 C4329 0.930 . S
H4317 C4333 0.959 . S
H4318 C4333 0.959 . S
H4319 C4333 0.961 . S
H4320 C4334 0.960 . S
H4321 C4334 0.961 . S
H4322 C4334 0.959 . S
H4323 C4337 0.929 . S
H4324 C4338 0.931 . S
H4325 C4340 0.930 . S
C4326 H4314 0.930 . S
C4326 C4327 1.399 . S
C4326 C4331 1.399 . S
C4327 C4326 1.399 . S
C4327 C4328 1.376 . S
C4328 H4315 0.930 . S
C4328 C4327 1.376 . S
C4328 C4329 1.388 . S
C4329 H4316 0.930 . S
C4329 C4328 1.388 . S
C4329 C4330 1.390 . S
C4330 C4329 1.390 . S
C4330 C4331 1.394 . S
C4330 C4336 1.465 . S
C4331 C4326 1.399 . S
C4331 C4330 1.394 . S
C4331 C4332 1.516 . S
C4332 C4331 1.516 . S
C4332 C4333 1.502 . S
C4332 C4334 1.561 . S
C4332 C4335 1.526 . S
C4333 H4317 0.959 . S
C4333 H4318 0.959 . S
C4333 H4319 0.961 . S
C4333 C4332 1.502 . S
C4334 H4320 0.960 . S
C4334 H4321 0.961 . S
C4334 H4322 0.959 . S
C4334 C4332 1.561 . S
C4335 C4332 1.526 . S
C4335 C4336 1.396 . S
C4335 C4340 1.390 . S
C4336 C4330 1.465 . S
C4336 C4335 1.396 . S
C4336 C4337 1.399 . S
C4337 H4323 0.929 . S
C4337 C4336 1.399 . S
C4337 C4338 1.385 . S
C4338 H4324 0.931 . S
C4338 C4337 1.385 . S
C4338 C4339 1.389 . S
C4339 C4338 1.389 . S
C4339 C4340 1.387 . S
C4340 H4325 0.930 . S
C4340 C4335 1.390 . S
C4340 C4339 1.387 . S
H4341 C4353 0.930 . S
H4342 C4355 0.930 . S
H4343 C4356 0.930 . S
H4344 C4360 0.959 . S
H4345 C4360 0.959 . S
H4346 C4360 0.961 . S
H4347 C4361 0.960 . S
H4348 C4361 0.961 . S
H4349 C4361 0.959 . S
H4350 C4364 0.929 . S
H4351 C4365 0.931 . S
H4352 C4367 0.930 . S
C4353 H4341 0.930 . S
C4353 C4354 1.399 . S
C4353 C4358 1.399 . S
C4354 C4353 1.399 . S
C4354 C4355 1.376 . S
C4355 H4342 0.930 . S
C4355 C4354 1.376 . S
C4355 C4356 1.388 . S
C4356 H4343 0.930 . S
C4356 C4355 1.388 . S
C4356 C4357 1.390 . S
C4357 C4356 1.390 . S
C4357 C4358 1.394 . S
C4357 C4363 1.465 . S
C4358 C4353 1.399 . S
C4358 C4357 1.394 . S
C4358 C4359 1.516 . S
C4359 C4358 1.516 . S
C4359 C4360 1.502 . S
C4359 C4361 1.561 . S
C4359 C4362 1.526 . S
C4360 H4344 0.959 . S
C4360 H4345 0.959 . S
C4360 H4346 0.961 . S
C4360 C4359 1.502 . S
C4361 H4347 0.960 . S
C4361 H4348 0.961 . S
C4361 H4349 0.959 . S
C4361 C4359 1.561 . S
C4362 C4359 1.526 . S
C4362 C4363 1.396 . S
C4362 C4367 1.390 . S
C4363 C4357 1.465 . S
C4363 C4362 1.396 . S
C4363 C4364 1.399 . S
C4364 H4350 0.929 . S
C4364 C4363 1.399 . S
C4364 C4365 1.385 . S
C4365 H4351 0.931 . S
C4365 C4364 1.385 . S
C4365 C4366 1.389 . S
C4366 C4365 1.389 . S
C4366 C4367 1.387 . S
C4367 H4352 0.930 . S
C4367 C4362 1.390 . S
C4367 C4366 1.387 . S
H4368 C4380 0.930 . S
H4369 C4382 0.930 . S
H4370 C4383 0.930 . S
H4371 C4387 0.959 . S
H4372 C4387 0.959 . S
H4373 C4387 0.961 . S
H4374 C4388 0.960 . S
H4375 C4388 0.961 . S
H4376 C4388 0.959 . S
H4377 C4391 0.929 . S
H4378 C4392 0.931 . S
H4379 C4394 0.930 . S
C4380 H4368 0.930 . S
C4380 C4381 1.399 . S
C4380 C4385 1.399 . S
C4381 C4380 1.399 . S
C4381 C4382 1.376 . S
C4382 H4369 0.930 . S
C4382 C4381 1.376 . S
C4382 C4383 1.388 . S
C4383 H4370 0.930 . S
C4383 C4382 1.388 . S
C4383 C4384 1.390 . S
C4384 C4383 1.390 . S
C4384 C4385 1.394 . S
C4384 C4390 1.465 . S
C4385 C4380 1.399 . S
C4385 C4384 1.394 . S
C4385 C4386 1.516 . S
C4386 C4385 1.516 . S
C4386 C4387 1.502 . S
C4386 C4388 1.561 . S
C4386 C4389 1.526 . S
C4387 H4371 0.959 . S
C4387 H4372 0.959 . S
C4387 H4373 0.961 . S
C4387 C4386 1.502 . S
C4388 H4374 0.960 . S
C4388 H4375 0.961 . S
C4388 H4376 0.959 . S
C4388 C4386 1.561 . S
C4389 C4386 1.526 . S
C4389 C4390 1.396 . S
C4389 C4394 1.390 . S
C4390 C4384 1.465 . S
C4390 C4389 1.396 . S
C4390 C4391 1.399 . S
C4391 H4377 0.929 . S
C4391 C4390 1.399 . S
C4391 C4392 1.385 . S
C4392 H4378 0.931 . S
C4392 C4391 1.385 . S
C4392 C4393 1.389 . S
C4393 C4392 1.389 . S
C4393 C4394 1.387 . S
C4394 H4379 0.930 . S
C4394 C4389 1.390 . S
C4394 C4393 1.387 . S
H4395 C4407 0.930 . S
H4396 C4409 0.930 . S
H4397 C4410 0.930 . S
H4398 C4414 0.959 . S
H4399 C4414 0.959 . S
H4400 C4414 0.961 . S
H4401 C4415 0.960 . S
H4402 C4415 0.961 . S
H4403 C4415 0.959 . S
H4404 C4418 0.929 . S
H4405 C4419 0.931 . S
H4406 C4421 0.930 . S
C4407 H4395 0.930 . S
C4407 C4408 1.399 . S
C4407 C4412 1.399 . S
C4408 C4407 1.399 . S
C4408 C4409 1.376 . S
C4409 H4396 0.930 . S
C4409 C4408 1.376 . S
C4409 C4410 1.388 . S
C4410 H4397 0.930 . S
C4410 C4409 1.388 . S
C4410 C4411 1.390 . S
C4411 C4410 1.390 . S
C4411 C4412 1.394 . S
C4411 C4417 1.465 . S
C4412 C4407 1.399 . S
C4412 C4411 1.394 . S
C4412 C4413 1.516 . S
C4413 C4412 1.516 . S
C4413 C4414 1.502 . S
C4413 C4415 1.561 . S
C4413 C4416 1.526 . S
C4414 H4398 0.959 . S
C4414 H4399 0.959 . S
C4414 H4400 0.961 . S
C4414 C4413 1.502 . S
C4415 H4401 0.960 . S
C4415 H4402 0.961 . S
C4415 H4403 0.959 . S
C4415 C4413 1.561 . S
C4416 C4413 1.526 . S
C4416 C4417 1.396 . S
C4416 C4421 1.390 . S
C4417 C4411 1.465 . S
C4417 C4416 1.396 . S
C4417 C4418 1.399 . S
C4418 H4404 0.929 . S
C4418 C4417 1.399 . S
C4418 C4419 1.385 . S
C4419 H4405 0.931 . S
C4419 C4418 1.385 . S
C4419 C4420 1.389 . S
C4420 C4419 1.389 . S
C4420 C4421 1.387 . S
C4421 H4406 0.930 . S
C4421 C4416 1.390 . S
C4421 C4420 1.387 . S
H4422 C4434 0.930 . S
H4423 C4436 0.930 . S
H4424 C4437 0.930 . S
H4425 C4441 0.959 . S
H4426 C4441 0.959 . S
H4427 C4441 0.961 . S
H4428 C4442 0.960 . S
H4429 C4442 0.961 . S
H4430 C4442 0.959 . S
H4431 C4445 0.929 . S
H4432 C4446 0.931 1_455 S
H4433 C4448 0.930 . S
C4434 H4422 0.930 . S
C4434 C4435 1.399 . S
C4434 C4439 1.399 . S
C4435 C4434 1.399 . S
C4435 C4436 1.376 . S
C4436 H4423 0.930 . S
C4436 C4435 1.376 . S
C4436 C4437 1.388 . S
C4437 H4424 0.930 . S
C4437 C4436 1.388 . S
C4437 C4438 1.390 . S
C4438 C4437 1.390 . S
C4438 C4439 1.394 . S
C4438 C4444 1.465 . S
C4439 C4434 1.399 . S
C4439 C4438 1.394 . S
C4439 C4440 1.516 . S
C4440 C4439 1.516 . S
C4440 C4441 1.502 . S
C4440 C4442 1.561 . S
C4440 C4443 1.526 . S
C4441 H4425 0.959 . S
C4441 H4426 0.959 . S
C4441 H4427 0.961 . S
C4441 C4440 1.502 . S
C4442 H4428 0.960 . S
C4442 H4429 0.961 . S
C4442 H4430 0.959 . S
C4442 C4440 1.561 . S
C4443 C4440 1.526 . S
C4443 C4444 1.396 . S
C4443 C4448 1.390 . S
C4444 C4438 1.465 . S
C4444 C4443 1.396 . S
C4444 C4445 1.399 . S
C4445 H4431 0.929 . S
C4445 C4444 1.399 . S
C4445 C4446 1.385 . S
C4446 H4432 0.931 1_655 S
C4446 C4445 1.385 . S
C4446 C4447 1.389 . S
C4447 C4446 1.389 . S
C4447 C4448 1.387 . S
C4448 H4433 0.930 . S
C4448 C4443 1.390 . S
C4448 C4447 1.387 . S
H4449 C4461 0.930 . S
H4450 C4463 0.930 . S
H4451 C4464 0.930 . S
H4452 C4468 0.959 . S
H4453 C4468 0.959 . S
H4454 C4468 0.961 . S
H4455 C4469 0.960 . S
H4456 C4469 0.961 . S
H4457 C4469 0.959 . S
H4458 C4472 0.929 . S
H4459 C4473 0.931 . S
H4460 C4475 0.930 . S
C4461 H4449 0.930 . S
C4461 C4462 1.399 . S
C4461 C4466 1.399 . S
C4462 C4461 1.399 . S
C4462 C4463 1.376 . S
C4463 H4450 0.930 . S
C4463 C4462 1.376 . S
C4463 C4464 1.388 . S
C4464 H4451 0.930 . S
C4464 C4463 1.388 . S
C4464 C4465 1.390 . S
C4465 C4464 1.390 . S
C4465 C4466 1.394 . S
C4465 C4471 1.465 . S
C4466 C4461 1.399 . S
C4466 C4465 1.394 . S
C4466 C4467 1.516 . S
C4467 C4466 1.516 . S
C4467 C4468 1.502 . S
C4467 C4469 1.561 . S
C4467 C4470 1.526 . S
C4468 H4452 0.959 . S
C4468 H4453 0.959 . S
C4468 H4454 0.961 . S
C4468 C4467 1.502 . S
C4469 H4455 0.960 . S
C4469 H4456 0.961 . S
C4469 H4457 0.959 . S
C4469 C4467 1.561 . S
C4470 C4467 1.526 . S
C4470 C4471 1.396 . S
C4470 C4475 1.390 . S
C4471 C4465 1.465 . S
C4471 C4470 1.396 . S
C4471 C4472 1.399 . S
C4472 H4458 0.929 . S
C4472 C4471 1.399 . S
C4472 C4473 1.385 . S
C4473 H4459 0.931 . S
C4473 C4472 1.385 . S
C4473 C4474 1.389 . S
C4474 C4473 1.389 . S
C4474 C4475 1.387 . S
C4475 H4460 0.930 . S
C4475 C4470 1.390 . S
C4475 C4474 1.387 . S
H4476 C4488 0.930 . S
H4477 C4490 0.930 . S
H4478 C4491 0.930 . S
H4479 C4495 0.959 . S
H4480 C4495 0.959 . S
H4481 C4495 0.961 . S
H4482 C4496 0.960 . S
H4483 C4496 0.961 . S
H4484 C4496 0.959 . S
H4485 C4499 0.929 . S
H4486 C4500 0.931 . S
H4487 C4502 0.930 . S
C4488 H4476 0.930 . S
C4488 C4489 1.399 . S
C4488 C4493 1.399 . S
C4489 C4488 1.399 . S
C4489 C4490 1.376 . S
C4490 H4477 0.930 . S
C4490 C4489 1.376 . S
C4490 C4491 1.388 . S
C4491 H4478 0.930 . S
C4491 C4490 1.388 . S
C4491 C4492 1.390 . S
C4492 C4491 1.390 . S
C4492 C4493 1.394 . S
C4492 C4498 1.465 . S
C4493 C4488 1.399 . S
C4493 C4492 1.394 . S
C4493 C4494 1.516 . S
C4494 C4493 1.516 . S
C4494 C4495 1.502 . S
C4494 C4496 1.561 . S
C4494 C4497 1.526 . S
C4495 H4479 0.959 . S
C4495 H4480 0.959 . S
C4495 H4481 0.961 . S
C4495 C4494 1.502 . S
C4496 H4482 0.960 . S
C4496 H4483 0.961 . S
C4496 H4484 0.959 . S
C4496 C4494 1.561 . S
C4497 C4494 1.526 . S
C4497 C4498 1.396 . S
C4497 C4502 1.390 . S
C4498 C4492 1.465 . S
C4498 C4497 1.396 . S
C4498 C4499 1.399 . S
C4499 H4485 0.929 . S
C4499 C4498 1.399 . S
C4499 C4500 1.385 . S
C4500 H4486 0.931 . S
C4500 C4499 1.385 . S
C4500 C4501 1.389 . S
C4501 C4500 1.389 . S
C4501 C4502 1.387 . S
C4502 H4487 0.930 . S
C4502 C4497 1.390 . S
C4502 C4501 1.387 . S
H4503 C4515 0.930 . S
H4504 C4517 0.930 . S
H4505 C4518 0.930 . S
H4506 C4522 0.959 . S
H4507 C4522 0.959 . S
H4508 C4522 0.961 . S
H4509 C4523 0.960 . S
H4510 C4523 0.961 . S
H4511 C4523 0.959 . S
H4512 C4526 0.929 . S
H4513 C4527 0.931 . S
H4514 C4529 0.930 . S
C4515 H4503 0.930 . S
C4515 C4516 1.399 . S
C4515 C4520 1.399 . S
C4516 C4515 1.399 . S
C4516 C4517 1.376 . S
C4517 H4504 0.930 . S
C4517 C4516 1.376 . S
C4517 C4518 1.388 . S
C4518 H4505 0.930 . S
C4518 C4517 1.388 . S
C4518 C4519 1.390 . S
C4519 C4518 1.390 . S
C4519 C4520 1.394 . S
C4519 C4525 1.465 . S
C4520 C4515 1.399 . S
C4520 C4519 1.394 . S
C4520 C4521 1.516 . S
C4521 C4520 1.516 . S
C4521 C4522 1.502 . S
C4521 C4523 1.561 . S
C4521 C4524 1.526 . S
C4522 H4506 0.959 . S
C4522 H4507 0.959 . S
C4522 H4508 0.961 . S
C4522 C4521 1.502 . S
C4523 H4509 0.960 . S
C4523 H4510 0.961 . S
C4523 H4511 0.959 . S
C4523 C4521 1.561 . S
C4524 C4521 1.526 . S
C4524 C4525 1.396 . S
C4524 C4529 1.390 . S
C4525 C4519 1.465 . S
C4525 C4524 1.396 . S
C4525 C4526 1.399 . S
C4526 H4512 0.929 . S
C4526 C4525 1.399 . S
C4526 C4527 1.385 . S
C4527 H4513 0.931 . S
C4527 C4526 1.385 . S
C4527 C4528 1.389 . S
C4528 C4527 1.389 . S
C4528 C4529 1.387 . S
C4529 H4514 0.930 . S
C4529 C4524 1.390 . S
C4529 C4528 1.387 . S
H4530 C4542 0.930 . S
H4531 C4544 0.930 . S
H4532 C4545 0.930 . S
H4533 C4549 0.959 . S
H4534 C4549 0.959 . S
H4535 C4549 0.961 . S
H4536 C4550 0.960 . S
H4537 C4550 0.961 . S
H4538 C4550 0.959 . S
H4539 C4553 0.929 . S
H4540 C4554 0.931 . S
H4541 C4556 0.930 . S
C4542 H4530 0.930 . S
C4542 C4543 1.399 . S
C4542 C4547 1.399 . S
C4543 C4542 1.399 . S
C4543 C4544 1.376 . S
C4544 H4531 0.930 . S
C4544 C4543 1.376 . S
C4544 C4545 1.388 . S
C4545 H4532 0.930 . S
C4545 C4544 1.388 . S
C4545 C4546 1.390 . S
C4546 C4545 1.390 . S
C4546 C4547 1.394 . S
C4546 C4552 1.465 . S
C4547 C4542 1.399 . S
C4547 C4546 1.394 . S
C4547 C4548 1.516 . S
C4548 C4547 1.516 . S
C4548 C4549 1.502 . S
C4548 C4550 1.561 . S
C4548 C4551 1.526 . S
C4549 H4533 0.959 . S
C4549 H4534 0.959 . S
C4549 H4535 0.961 . S
C4549 C4548 1.502 . S
C4550 H4536 0.960 . S
C4550 H4537 0.961 . S
C4550 H4538 0.959 . S
C4550 C4548 1.561 . S
C4551 C4548 1.526 . S
C4551 C4552 1.396 . S
C4551 C4556 1.390 . S
C4552 C4546 1.465 . S
C4552 C4551 1.396 . S
C4552 C4553 1.399 . S
C4553 H4539 0.929 . S
C4553 C4552 1.399 . S
C4553 C4554 1.385 . S
C4554 H4540 0.931 . S
C4554 C4553 1.385 . S
C4554 C4555 1.389 . S
C4555 C4554 1.389 . S
C4555 C4556 1.387 . S
C4556 H4541 0.930 . S
C4556 C4551 1.390 . S
C4556 C4555 1.387 . S
H4557 C4569 0.930 . S
H4558 C4571 0.930 . S
H4559 C4572 0.930 . S
H4560 C4576 0.959 . S
H4561 C4576 0.959 . S
H4562 C4576 0.961 . S
H4563 C4577 0.960 . S
H4564 C4577 0.961 . S
H4565 C4577 0.959 . S
H4566 C4580 0.929 . S
H4567 C4581 0.931 . S
H4568 C4583 0.930 . S
C4569 H4557 0.930 . S
C4569 C4570 1.399 . S
C4569 C4574 1.399 . S
C4570 C4569 1.399 . S
C4570 C4571 1.376 . S
C4571 H4558 0.930 . S
C4571 C4570 1.376 . S
C4571 C4572 1.388 . S
C4572 H4559 0.930 . S
C4572 C4571 1.388 . S
C4572 C4573 1.390 . S
C4573 C4572 1.390 . S
C4573 C4574 1.394 . S
C4573 C4579 1.465 . S
C4574 C4569 1.399 . S
C4574 C4573 1.394 . S
C4574 C4575 1.516 . S
C4575 C4574 1.516 . S
C4575 C4576 1.502 . S
C4575 C4577 1.561 . S
C4575 C4578 1.526 . S
C4576 H4560 0.959 . S
C4576 H4561 0.959 . S
C4576 H4562 0.961 . S
C4576 C4575 1.502 . S
C4577 H4563 0.960 . S
C4577 H4564 0.961 . S
C4577 H4565 0.959 . S
C4577 C4575 1.561 . S
C4578 C4575 1.526 . S
C4578 C4579 1.396 . S
C4578 C4583 1.390 . S
C4579 C4573 1.465 . S
C4579 C4578 1.396 . S
C4579 C4580 1.399 . S
C4580 H4566 0.929 . S
C4580 C4579 1.399 . S
C4580 C4581 1.385 . S
C4581 H4567 0.931 . S
C4581 C4580 1.385 . S
C4581 C4582 1.389 . S
C4582 C4581 1.389 . S
C4582 C4583 1.387 . S
C4583 H4568 0.930 . S
C4583 C4578 1.390 . S
C4583 C4582 1.387 . S
H4584 C4596 0.930 . S
H4585 C4598 0.930 . S
H4586 C4599 0.930 . S
H4587 C4603 0.959 . S
H4588 C4603 0.959 . S
H4589 C4603 0.961 . S
H4590 C4604 0.960 . S
H4591 C4604 0.961 . S
H4592 C4604 0.959 . S
H4593 C4607 0.929 . S
H4594 C4608 0.931 . S
H4595 C4610 0.930 . S
C4596 H4584 0.930 . S
C4596 C4597 1.399 . S
C4596 C4601 1.399 . S
C4597 C4596 1.399 . S
C4597 C4598 1.376 . S
C4598 H4585 0.930 . S
C4598 C4597 1.376 . S
C4598 C4599 1.388 . S
C4599 H4586 0.930 . S
C4599 C4598 1.388 . S
C4599 C4600 1.390 . S
C4600 C4599 1.390 . S
C4600 C4601 1.394 . S
C4600 C4606 1.465 . S
C4601 C4596 1.399 . S
C4601 C4600 1.394 . S
C4601 C4602 1.516 . S
C4602 C4601 1.516 . S
C4602 C4603 1.502 . S
C4602 C4604 1.561 . S
C4602 C4605 1.526 . S
C4603 H4587 0.959 . S
C4603 H4588 0.959 . S
C4603 H4589 0.961 . S
C4603 C4602 1.502 . S
C4604 H4590 0.960 . S
C4604 H4591 0.961 . S
C4604 H4592 0.959 . S
C4604 C4602 1.561 . S
C4605 C4602 1.526 . S
C4605 C4606 1.396 . S
C4605 C4610 1.390 . S
C4606 C4600 1.465 . S
C4606 C4605 1.396 . S
C4606 C4607 1.399 . S
C4607 H4593 0.929 . S
C4607 C4606 1.399 . S
C4607 C4608 1.385 . S
C4608 H4594 0.931 . S
C4608 C4607 1.385 . S
C4608 C4609 1.389 . S
C4609 C4608 1.389 . S
C4609 C4610 1.387 . S
C4610 H4595 0.930 . S
C4610 C4605 1.390 . S
C4610 C4609 1.387 . S
H4611 C4623 0.930 . S
H4612 C4625 0.930 . S
H4613 C4626 0.930 . S
H4614 C4630 0.959 . S
H4615 C4630 0.959 . S
H4616 C4630 0.961 . S
H4617 C4631 0.960 . S
H4618 C4631 0.961 . S
H4619 C4631 0.959 . S
H4620 C4634 0.929 . S
H4621 C4635 0.929 . S
H4622 C4637 0.930 . S
C4623 H4611 0.930 . S
C4623 C4624 1.399 . S
C4623 C4628 1.399 . S
C4624 C4623 1.399 . S
C4624 C4625 1.376 . S
C4625 H4612 0.930 . S
C4625 C4624 1.376 . S
C4625 C4626 1.388 . S
C4626 H4613 0.930 . S
C4626 C4625 1.388 . S
C4626 C4627 1.390 . S
C4627 C4626 1.390 . S
C4627 C4628 1.394 . S
C4627 C4633 1.465 . S
C4628 C4623 1.399 . S
C4628 C4627 1.394 . S
C4628 C4629 1.516 . S
C4629 C4628 1.516 . S
C4629 C4630 1.502 . S
C4629 C4631 1.561 . S
C4629 C4632 1.526 . S
C4630 H4614 0.959 . S
C4630 H4615 0.959 . S
C4630 H4616 0.961 . S
C4630 C4629 1.502 . S
C4631 H4617 0.960 . S
C4631 H4618 0.961 . S
C4631 H4619 0.959 . S
C4631 C4629 1.561 . S
C4632 C4629 1.526 . S
C4632 C4633 1.396 . S
C4632 C4637 1.390 . S
C4633 C4627 1.465 . S
C4633 C4632 1.396 . S
C4633 C4634 1.399 . S
C4634 H4620 0.929 . S
C4634 C4633 1.399 . S
C4634 C4635 1.386 1_565 S
C4635 H4621 0.929 . S
C4635 C4634 1.386 1_545 S
C4635 C4636 1.390 1_545 S
C4636 C4635 1.390 1_565 S
C4636 C4637 1.387 . S
C4637 H4622 0.930 . S
C4637 C4632 1.390 . S
C4637 C4636 1.387 . S
H4638 C4650 0.930 . S
H4639 C4652 0.930 . S
H4640 C4653 0.930 . S
H4641 C4657 0.959 . S
H4642 C4657 0.959 . S
H4643 C4657 0.961 . S
H4644 C4658 0.960 . S
H4645 C4658 0.961 . S
H4646 C4658 0.959 . S
H4647 C4661 0.929 . S
H4648 C4662 0.931 . S
H4649 C4664 0.930 . S
C4650 H4638 0.930 . S
C4650 C4651 1.399 . S
C4650 C4655 1.399 . S
C4651 C4650 1.399 . S
C4651 C4652 1.376 . S
C4652 H4639 0.930 . S
C4652 C4651 1.376 . S
C4652 C4653 1.388 . S
C4653 H4640 0.930 . S
C4653 C4652 1.388 . S
C4653 C4654 1.390 . S
C4654 C4653 1.390 . S
C4654 C4655 1.394 . S
C4654 C4660 1.465 . S
C4655 C4650 1.399 . S
C4655 C4654 1.394 . S
C4655 C4656 1.516 . S
C4656 C4655 1.516 . S
C4656 C4657 1.502 . S
C4656 C4658 1.561 . S
C4656 C4659 1.526 . S
C4657 H4641 0.959 . S
C4657 H4642 0.959 . S
C4657 H4643 0.961 . S
C4657 C4656 1.502 . S
C4658 H4644 0.960 . S
C4658 H4645 0.961 . S
C4658 H4646 0.959 . S
C4658 C4656 1.561 . S
C4659 C4656 1.526 . S
C4659 C4660 1.396 . S
C4659 C4664 1.390 . S
C4660 C4654 1.465 . S
C4660 C4659 1.396 . S
C4660 C4661 1.399 . S
C4661 H4647 0.929 . S
C4661 C4660 1.399 . S
C4661 C4662 1.385 . S
C4662 H4648 0.931 . S
C4662 C4661 1.385 . S
C4662 C4663 1.389 . S
C4663 C4662 1.389 . S
C4663 C4664 1.387 . S
C4664 H4649 0.930 . S
C4664 C4659 1.390 . S
C4664 C4663 1.387 . S
H4665 C4677 0.930 . S
H4666 C4679 0.930 . S
H4667 C4680 0.930 . S
H4668 C4684 0.959 . S
H4669 C4684 0.959 . S
H4670 C4684 0.961 . S
H4671 C4685 0.960 . S
H4672 C4685 0.961 . S
H4673 C4685 0.959 . S
H4674 C4688 0.929 . S
H4675 C4689 0.931 . S
H4676 C4691 0.930 . S
C4677 H4665 0.930 . S
C4677 C4678 1.399 . S
C4677 C4682 1.399 . S
C4678 C4677 1.399 . S
C4678 C4679 1.376 . S
C4679 H4666 0.930 . S
C4679 C4678 1.376 . S
C4679 C4680 1.388 . S
C4680 H4667 0.930 . S
C4680 C4679 1.388 . S
C4680 C4681 1.390 . S
C4681 C4680 1.390 . S
C4681 C4682 1.394 . S
C4681 C4687 1.465 . S
C4682 C4677 1.399 . S
C4682 C4681 1.394 . S
C4682 C4683 1.516 . S
C4683 C4682 1.516 . S
C4683 C4684 1.502 . S
C4683 C4685 1.561 . S
C4683 C4686 1.526 . S
C4684 H4668 0.959 . S
C4684 H4669 0.959 . S
C4684 H4670 0.961 . S
C4684 C4683 1.502 . S
C4685 H4671 0.960 . S
C4685 H4672 0.961 . S
C4685 H4673 0.959 . S
C4685 C4683 1.561 . S
C4686 C4683 1.526 . S
C4686 C4687 1.396 . S
C4686 C4691 1.390 . S
C4687 C4681 1.465 . S
C4687 C4686 1.396 . S
C4687 C4688 1.399 . S
C4688 H4674 0.929 . S
C4688 C4687 1.399 . S
C4688 C4689 1.385 . S
C4689 H4675 0.931 . S
C4689 C4688 1.385 . S
C4689 C4690 1.389 . S
C4690 C4689 1.389 . S
C4690 C4691 1.387 . S
C4691 H4676 0.930 . S
C4691 C4686 1.390 . S
C4691 C4690 1.387 . S
H4692 C4704 0.930 . S
H4693 C4706 0.930 . S
H4694 C4707 0.930 . S
H4695 C4711 0.959 . S
H4696 C4711 0.959 . S
H4697 C4711 0.961 . S
H4698 C4712 0.960 . S
H4699 C4712 0.961 . S
H4700 C4712 0.959 . S
H4701 C4715 0.929 . S
H4702 C4716 0.931 . S
H4703 C4718 0.930 . S
C4704 H4692 0.930 . S
C4704 C4705 1.399 . S
C4704 C4709 1.399 . S
C4705 C4704 1.399 . S
C4705 C4706 1.376 . S
C4706 H4693 0.930 . S
C4706 C4705 1.376 . S
C4706 C4707 1.388 . S
C4707 H4694 0.930 . S
C4707 C4706 1.388 . S
C4707 C4708 1.390 . S
C4708 C4707 1.390 . S
C4708 C4709 1.394 . S
C4708 C4714 1.465 . S
C4709 C4704 1.399 . S
C4709 C4708 1.394 . S
C4709 C4710 1.516 . S
C4710 C4709 1.516 . S
C4710 C4711 1.502 . S
C4710 C4712 1.561 . S
C4710 C4713 1.526 . S
C4711 H4695 0.959 . S
C4711 H4696 0.959 . S
C4711 H4697 0.961 . S
C4711 C4710 1.502 . S
C4712 H4698 0.960 . S
C4712 H4699 0.961 . S
C4712 H4700 0.959 . S
C4712 C4710 1.561 . S
C4713 C4710 1.526 . S
C4713 C4714 1.396 . S
C4713 C4718 1.390 . S
C4714 C4708 1.465 . S
C4714 C4713 1.396 . S
C4714 C4715 1.399 . S
C4715 H4701 0.929 . S
C4715 C4714 1.399 . S
C4715 C4716 1.385 . S
C4716 H4702 0.931 . S
C4716 C4715 1.385 . S
C4716 C4717 1.389 . S
C4717 C4716 1.389 . S
C4717 C4718 1.387 . S
C4718 H4703 0.930 . S
C4718 C4713 1.390 . S
C4718 C4717 1.387 . S
H4719 C4731 0.930 . S
H4720 C4733 0.930 . S
H4721 C4734 0.930 1_556 S
H4722 C4738 0.959 . S
H4723 C4738 0.959 . S
H4724 C4738 0.961 . S
H4725 C4739 0.960 . S
H4726 C4739 0.961 . S
H4727 C4739 0.959 . S
H4728 C4742 0.929 . S
H4729 C4743 0.955 . S
H4730 C4745 0.930 . S
C4731 H4719 0.930 . S
C4731 C4732 1.399 . S
C4731 C4736 1.399 . S
C4732 C4731 1.399 . S
C4732 C4733 1.376 . S
C4733 H4720 0.930 . S
C4733 C4732 1.376 . S
C4733 C4734 1.388 . S
C4734 H4721 0.930 1_554 S
C4734 C4733 1.388 . S
C4734 C4735 1.390 . S
C4735 C4734 1.390 . S
C4735 C4736 1.394 . S
C4735 C4741 1.465 . S
C4736 C4731 1.399 . S
C4736 C4735 1.394 . S
C4736 C4737 1.516 . S
C4737 C4736 1.516 . S
C4737 C4738 1.502 . S
C4737 C4739 1.561 . S
C4737 C4740 1.526 . S
C4738 H4722 0.959 . S
C4738 H4723 0.959 . S
C4738 H4724 0.961 . S
C4738 C4737 1.502 . S
C4739 H4725 0.960 . S
C4739 H4726 0.961 . S
C4739 H4727 0.959 . S
C4739 C4737 1.561 . S
C4740 C4737 1.526 . S
C4740 C4741 1.396 . S
C4740 C4745 1.390 . S
C4741 C4735 1.465 . S
C4741 C4740 1.396 . S
C4741 C4742 1.399 1_554 S
C4742 H4728 0.929 . S
C4742 C4741 1.399 1_556 S
C4742 C4743 1.389 . S
C4743 H4729 0.955 . S
C4743 C4742 1.389 . S
C4743 C4744 1.362 1_556 S
C4744 C4743 1.362 1_554 S
C4744 C4745 1.387 . S
C4745 H4730 0.930 . S
C4745 C4740 1.390 . S
C4745 C4744 1.387 . S
H4746 C4758 0.930 . S
H4747 C4760 0.930 . S
H4748 C4761 0.930 . S
H4749 C4765 0.959 . S
H4750 C4765 0.959 . S
H4751 C4765 0.961 . S
H4752 C4766 0.960 . S
H4753 C4766 0.961 . S
H4754 C4766 0.959 . S
H4755 C4769 0.929 . S
H4756 C4770 0.931 . S
H4757 C4772 0.930 . S
C4758 H4746 0.930 . S
C4758 C4759 1.399 . S
C4758 C4763 1.399 . S
C4759 C4758 1.399 . S
C4759 C4760 1.376 . S
C4760 H4747 0.930 . S
C4760 C4759 1.376 . S
C4760 C4761 1.388 . S
C4761 H4748 0.930 . S
C4761 C4760 1.388 . S
C4761 C4762 1.390 . S
C4762 C4761 1.390 . S
C4762 C4763 1.394 . S
C4762 C4768 1.465 . S
C4763 C4758 1.399 . S
C4763 C4762 1.394 . S
C4763 C4764 1.516 . S
C4764 C4763 1.516 . S
C4764 C4765 1.502 . S
C4764 C4766 1.561 . S
C4764 C4767 1.526 . S
C4765 H4749 0.959 . S
C4765 H4750 0.959 . S
C4765 H4751 0.961 . S
C4765 C4764 1.502 . S
C4766 H4752 0.960 . S
C4766 H4753 0.961 . S
C4766 H4754 0.959 . S
C4766 C4764 1.561 . S
C4767 C4764 1.526 . S
C4767 C4768 1.396 . S
C4767 C4772 1.390 . S
C4768 C4762 1.465 . S
C4768 C4767 1.396 . S
C4768 C4769 1.399 . S
C4769 H4755 0.929 . S
C4769 C4768 1.399 . S
C4769 C4770 1.385 . S
C4770 H4756 0.931 . S
C4770 C4769 1.385 . S
C4770 C4771 1.389 . S
C4771 C4770 1.389 . S
C4771 C4772 1.387 . S
C4772 H4757 0.930 . S
C4772 C4767 1.390 . S
C4772 C4771 1.387 . S
H4773 C4785 0.930 . S
H4774 C4787 0.930 . S
H4775 C4788 0.930 . S
H4776 C4792 0.959 . S
H4777 C4792 0.959 . S
H4778 C4792 0.961 . S
H4779 C4793 0.960 . S
H4780 C4793 0.961 . S
H4781 C4793 0.959 . S
H4782 C4796 0.929 . S
H4783 C4797 0.931 . S
H4784 C4799 0.930 . S
C4785 H4773 0.930 . S
C4785 C4786 1.399 . S
C4785 C4790 1.399 . S
C4786 C4785 1.399 . S
C4786 C4787 1.376 . S
C4787 H4774 0.930 . S
C4787 C4786 1.376 . S
C4787 C4788 1.388 . S
C4788 H4775 0.930 . S
C4788 C4787 1.388 . S
C4788 C4789 1.390 . S
C4789 C4788 1.390 . S
C4789 C4790 1.394 . S
C4789 C4795 1.465 . S
C4790 C4785 1.399 . S
C4790 C4789 1.394 . S
C4790 C4791 1.516 . S
C4791 C4790 1.516 . S
C4791 C4792 1.502 . S
C4791 C4793 1.561 . S
C4791 C4794 1.526 . S
C4792 H4776 0.959 . S
C4792 H4777 0.959 . S
C4792 H4778 0.961 . S
C4792 C4791 1.502 . S
C4793 H4779 0.960 . S
C4793 H4780 0.961 . S
C4793 H4781 0.959 . S
C4793 C4791 1.561 . S
C4794 C4791 1.526 . S
C4794 C4795 1.396 . S
C4794 C4799 1.390 . S
C4795 C4789 1.465 . S
C4795 C4794 1.396 . S
C4795 C4796 1.399 . S
C4796 H4782 0.929 . S
C4796 C4795 1.399 . S
C4796 C4797 1.385 . S
C4797 H4783 0.931 . S
C4797 C4796 1.385 . S
C4797 C4798 1.389 . S
C4798 C4797 1.389 . S
C4798 C4799 1.387 . S
C4799 H4784 0.930 . S
C4799 C4794 1.390 . S
C4799 C4798 1.387 . S
C2221 C255 2.028 1_455 S
C2233 C920 2.084 . S
C2248 C147 1.836 . S
C2260 C1022 1.849 . S
C2275 C184 1.788 . S
C2287 C1088 1.803 . S
C2314 C1174 1.326 . S
C2302 C220 1.489 . S
C2329 C40 1.467 . S
C2341 C1258 1.404 . S
C2368 C1340 1.898 . S
C2356 C74 1.880 . S
C2395 C1442 1.876 . S
C2383 C110 1.893 . S
C2410 C14 2.036 . S
C2422 C1508 2.044 . S
C2449 C938 1.693 . S
C2437 C579 1.756 . S
C2464 C616 0.946 . S
C2476 C1006 0.826 . S
C2503 C1106 1.152 . S
C2491 C687 1.175 . S
C2530 C1172 1.671 . S
C2518 C436 1.663 . S
C2545 C580 1.611 . S
C2557 C1256 1.654 . S
C2584 C1358 1.191 . S
C2572 C615 1.168 . S
C2611 C1426 0.974 . S
C2599 C688 0.955 . S
C2638 C1526 1.696 . S
C2626 C435 1.726 . S
C2665 C922 1.010 1_565 S
C2653 C410 0.995 . S
C2680 C722 1.728 . S
C2692 C1610 1.722 . S
C2719 C1678 1.301 . S
C2707 C842 1.430 . S
C2746 C1760 0.851 . S
C2734 C794 0.895 . S
C2761 C302 1.053 . S
C2773 C1510 0.937 . S
C2788 C338 1.390 . S
C2800 C1090 1.274 . S
C2815 C830 1.746 . S
C2827 C1862 1.751 . S
C2854 C1928 0.927 . S
C2842 C758 0.900 . S
C2881 C931 2.056 . S
C2869 C158 1.914 . S
C2908 C1935 1.846 . S
C2896 C254 1.847 . S
C2923 C218 1.806 . S
C2935 C1099 1.823 . S
C2950 C194 1.454 . S
C2962 C1857 1.418 . S
C2989 C1269 1.344 . S
C2977 C3 1.461 . S
C3004 C111 1.739 . S
C3016 C1687 1.733 . S
C3043 C1431 1.863 1_556 S
C3031 C76 1.860 . S
C3070 C2023 2.104 . S
C3058 C50 2.032 . S
C3097 C927 1.696 . S
C3085 C364 1.710 . S
C3124 C1941 0.841 . S
C3112 C795 0.934 . S
C3139 C292 1.142 . S
C3151 C1095 1.158 . S
C3166 C723 1.607 . S
C3178 C1855 1.606 . S
C3193 C363 1.618 . S
C3205 C1267 1.608 . S
C3232 C1683 1.162 . S
C3220 C796 1.171 . S
C3247 C291 0.911 . S
C3259 C1437 0.818 . S
C3274 C724 1.719 . S
C3286 C2019 1.707 . S
C3301 C482 1.032 . S
C3313 C933 1.036 . S
C3328 C434 1.667 . S
C3340 C1599 1.658 . S
C3355 C662 1.286 . S
C3367 C1353 1.281 . S
C3382 C614 0.881 . S
C3394 C1771 0.857 . S
C3421 C2025 1.051 . S
C3409 C698 1.047 . S
C3436 C554 1.312 . S
C3448 C1101 1.336 . S
C3475 C1179 1.691 . S
C3463 C650 1.704 . S
C3502 C1015 0.846 . S
C3490 C506 0.822 . S
C3517 C183 2.065 . S
C3529 C2096 2.073 . S
C3556 C1946 1.847 . S
C3544 C219 1.838 . S
C3571 C256 1.754 . S
C3583 C2180 1.800 . S
C3598 C148 1.488 1_655 S
C3610 C1846 1.331 . S
C3625 C122 1.426 . S
C3637 C1594 1.422 . S
C3664 C1676 1.831 . S
C3652 C2 1.810 1_655 S
C3691 C1778 1.801 . S
C3679 C39 1.800 . S
C3718 C2012 2.109 . S
C3706 C86 2.101 . S
C3745 C2114 1.710 . S
C3733 C651 1.777 . S
C3760 C472 0.950 . S
C3772 C1930 0.871 . S
C3799 C2198 1.185 . S
C3787 C507 1.151 . S
C3826 C1844 1.679 . S
C3814 C544 1.666 . S
C3853 C1592 1.631 . S
C3841 C652 1.645 . S
C3868 C471 1.133 . S
C3880 C1694 1.170 . S
C3907 C1762 0.971 . S
C3895 C508 0.950 . S
C3922 C543 1.753 . S
C3934 C2030 1.691 . S
C3961 C2098 1.043 . S
C3949 C806 0.991 . S
C3976 C326 1.698 . S
C3988 C1274 1.665 . S
C4015 C1342 1.276 . S
C4003 C374 1.410 1_565 S
C4042 C1424 0.881 . S
C4030 C398 0.866 . S
C4069 C2014 1.051 . S
C4057 C770 0.994 . S
C4084 C734 1.391 . S
C4096 C2182 1.258 . S
C4123 C1190 1.734 . S
C4111 C362 1.735 . S
C4150 C1004 0.926 . S
C4138 C290 0.964 . S
C4165 C230 1.908 . S
C4177 C2107 2.056 . S
C4204 C1011 1.828 . S
C4192 C182 1.833 . S
C4219 C146 1.772 . S
C4231 C2191 1.833 . S
C4246 C266 1.456 . S
C4258 C1185 1.420 . S
C4273 C75 1.461 . S
C4285 C1605 1.407 . S
C4312 C1351 1.893 . S
C4300 C38 1.826 . S
C4327 C4 1.764 . S
C4339 C1767 1.773 . S
C4354 C112 1.986 . S
C4366 C1519 2.018 . S
C4393 C2103 1.650 . S
C4381 C832 1.711 . S
C4408 C399 0.951 . S
C4420 C1017 0.898 . S
C4447 C2187 1.089 1_655 S
C4435 C760 1.139 . S
C4462 C327 1.601 . S
C4474 C1183 1.607 . S
C4489 C831 1.644 . S
C4501 C1603 1.636 . S
C4528 C1347 1.128 . S
C4516 C400 1.159 . S
C4543 C759 0.942 . S
C4555 C1773 0.971 . S
C4582 C1515 1.670 . S
C4570 C328 1.741 . S
C4609 C2109 0.930 . S
C4597 C626 0.892 . S
C4636 C1263 1.691 1_565 S
C4624 C542 1.706 . S
C4651 C590 1.259 . S
C4663 C1689 1.269 . S
C4690 C1435 0.869 . S
C4678 C470 0.815 . S
C4705 C518 1.020 . S
C4717 C1521 1.025 . S
C4732 C446 1.274 . S
C4744 C2193 1.269 . S
C4771 C1851 1.705 . S
C4759 C578 1.717 . S
C4798 C1939 0.825 . S
C4786 C686 0.797 . S
