# Generated by pormake.
# Topology nia, (6,6)-cn, num edge types: 1
# Building blocks:
#     Node 0, Type 0, BuildingBlock: NUHQIS_clean_sbu_0, # of connection points: 6
#     Node 1, Type 0, BuildingBlock: NUHQIS_clean_sbu_0, # of connection points: 6
#     Node 2, Type 1, BuildingBlock: MIDCAF_clean_sbu_0, # of connection points: 6
#     Node 3, Type 1, BuildingBlock: MIDCAF_clean_sbu_0, # of connection points: 6
#     Edge 4, Type (0, 1), BuildingBlock: XIVTED_clean_linker_0, # of connection points: 2
#     Edge 5, Type (0, 1), BuildingBlock: XIVTED_clean_linker_0, # of connection points: 2
#     Edge 6, Type (0, 1), BuildingBlock: XIVTED_clean_linker_0, # of connection points: 2
#     Edge 7, Type (0, 1), BuildingBlock: XIVTED_clean_linker_0, # of connection points: 2
#     Edge 8, Type (0, 1), BuildingBlock: XIVTED_clean_linker_0, # of connection points: 2
#     Edge 9, Type (0, 1), BuildingBlock: XIVTED_clean_linker_0, # of connection points: 2
#     Edge 10, Type (0, 1), BuildingBlock: XIVTED_clean_linker_0, # of connection points: 2
#     Edge 11, Type (0, 1), BuildingBlock: XIVTED_clean_linker_0, # of connection points: 2
#     Edge 12, Type (0, 1), BuildingBlock: XIVTED_clean_linker_0, # of connection points: 2
#     Edge 13, Type (0, 1), BuildingBlock: XIVTED_clean_linker_0, # of connection points: 2
#     Edge 14, Type (0, 1), BuildingBlock: XIVTED_clean_linker_0, # of connection points: 2
#     Edge 15, Type (0, 1), BuildingBlock: XIVTED_clean_linker_0, # of connection points: 2
# Relax obj value: 0.212
# Max RMSD: 0.279
# Mean RMSD: 0.215
data_MOF--net-nia--node1-NUHQIS_clean_sbu_0--node2-MIDCAF_clean_sbu_0--edge1-XIVTED_clean_linker_0
_symmetry_space_group_name_H-M    P1
_symmetry_Int_Tables_number       1
_symmetry_cell_setting            triclinic
loop_
_symmetry_equiv_pos_as_xyz
'x, y, z'
_cell_length_a     29.703877
_cell_length_b     29.743674
_cell_length_c     28.780782
_cell_angle_alpha  90.282543
_cell_angle_beta   90.659562
_cell_angle_gamma 134.4659
loop_
_atom_site_label
_atom_site_type_symbol
_atom_site_fract_x
_atom_site_fract_y
_atom_site_fract_z
_atom_type_partial_charge
Tb0 Tb 0.95287 -0.00064 1.03633 0.0
Eu1 Eu -0.00987 0.95981 0.12537 0.0
C2 C 0.08388 0.04178 1.04143 0.0
C3 C 0.93405 0.88129 1.03089 0.0
C4 C 0.89909 0.05524 0.95808 0.0
C5 C 0.86899 0.09207 0.90276 0.0
C6 C 0.89477 0.06782 0.91227 0.0
C7 C 0.87824 0.0679 0.99452 0.0
C8 C 0.85228 0.09198 0.98506 0.0
C9 C 0.84692 0.10385 0.93903 0.0
C10 C 0.92371 0.02724 0.96704 0.0
O11 O 0.88498 0.96865 0.08953 0.0
O12 O 0.88629 0.90166 0.12655 0.0
O13 O -0.00648 0.03267 0.15265 0.0
O14 O 0.00899 0.08053 0.08389 0.0
C15 C 0.85944 0.92168 0.11774 0.0
O16 O -0.03585 0.887 0.17132 0.0
O17 O 0.05058 -0.01527 0.18487 0.0
O18 O 0.07974 0.03473 0.08669 0.0
O19 O 0.03477 0.01806 1.01517 0.0
O20 O 0.9088 0.90341 1.02384 0.0
O21 O -0.02328 0.90453 1.06383 0.0
C22 C 0.0115 0.0807 0.1296 0.0
O23 O -0.01964 0.06454 0.98533 0.0
O24 O 0.88509 -0.02751 0.98678 0.0
C25 C 0.04617 0.90677 0.21125 0.0
C26 C 0.10321 0.86535 0.23863 0.0
C27 C 0.06746 0.86539 0.27016 0.0
C28 C 0.03936 0.88613 0.25658 0.0
C29 C 0.08157 0.90685 0.17948 0.0
C30 C 0.10997 0.88635 0.19309 0.0
C31 C 0.01461 0.92647 0.19768 0.0
H32 H 0.86494 0.10015 0.86696 0.0
H33 H 0.91058 0.05809 0.88377 0.0
H34 H 0.88151 0.0586 1.03013 0.0
H35 H 0.83652 0.10143 1.01379 0.0
H36 H 0.06134 0.84964 0.30536 0.0
H37 H 0.01194 0.88571 0.28144 0.0
H38 H 0.08673 0.92222 0.14418 0.0
H39 H 0.13615 0.88577 0.16765 0.0
Tb40 Tb 0.95082 0.00113 0.62358 0.0
Eu41 Eu -0.00673 0.96036 0.541 0.0
C42 C 0.91708 0.87436 0.6278 0.0
C43 C 0.07317 0.02784 0.63628 0.0
C44 C 0.89042 0.05688 0.69447 0.0
C45 C 0.80862 0.04859 0.72409 0.0
C46 C 0.83165 0.02166 0.71513 0.0
C47 C 0.92615 0.11985 0.68301 0.0
C48 C 0.90327 0.14701 0.69224 0.0
C49 C 0.8442 0.11167 0.71291 0.0
C50 C 0.91391 0.02724 0.68728 0.0
O51 O 0.02206 0.08643 0.58412 0.0
O52 O 0.00938 0.04139 0.51397 0.0
O53 O 0.89297 0.91089 0.52717 0.0
O54 O 0.89662 -0.01721 0.56182 0.0
C55 C 0.02989 0.08992 0.53892 0.0
O56 O 0.06035 -0.01366 0.48871 0.0
O57 O -0.02915 0.88895 0.49416 0.0
O58 O -0.03611 0.89656 0.60073 0.0
O59 O 0.89642 0.90143 0.63077 0.0
O60 O 0.02345 0.01041 0.6561 0.0
O61 O 0.07553 0.02272 0.59121 0.0
C62 C 0.87124 0.93669 0.53165 0.0
O63 O 0.87688 -0.02568 0.66367 0.0
O64 O -0.02712 0.06334 0.67637 0.0
C65 C 0.05729 0.90771 0.4677 0.0
C66 C 0.11469 0.86372 0.45418 0.0
C67 C 0.09781 0.87893 0.41598 0.0
C68 C 0.06919 0.90062 0.4227 0.0
C69 C 0.0751 0.89391 0.50609 0.0
C70 C 0.10356 0.87198 0.49938 0.0
C71 C 0.0253 0.92846 0.47388 0.0
H72 H 0.76254 0.01964 0.73928 0.0
H73 H 0.80344 -0.02692 0.72445 0.0
H74 H -0.02814 0.14828 0.66729 0.0
H75 H 0.93229 0.19595 0.68374 0.0
H76 H 0.10534 0.87259 0.38086 0.0
H77 H 0.05565 0.91113 0.39272 0.0
H78 H 0.06648 0.89959 0.54111 0.0
H79 H 0.11689 0.86155 0.52953 0.0
Zn80 Zn 0.31494 0.62611 0.24105 0.0
Zn81 Zn 0.34111 0.63497 0.41855 0.0
Zn82 Zn 0.32906 0.62446 0.33092 0.0
C83 C 0.46198 0.71827 0.38496 0.0
C84 C 0.27714 0.511 0.39761 0.0
O85 O 0.28822 0.66329 0.31376 0.0
O86 O 0.28597 0.66814 0.23709 0.0
C87 C 0.44136 0.69526 0.25585 0.0
O88 O 0.43097 0.6874 0.3471 0.0
O89 O 0.43321 0.70847 0.42138 0.0
O90 O 0.30869 0.55161 0.43005 0.0
O91 O 0.27456 0.5274 0.35699 0.0
O92 O 0.4026 0.67643 0.22318 0.0
O93 O 0.42287 0.68057 0.29824 0.0
O94 O 0.26393 0.52461 0.30827 0.0
O95 O 0.25125 0.53354 0.23399 0.0
C96 C 0.23797 0.49954 0.26797 0.0
O97 O 0.29564 0.66551 0.36216 0.0
O98 O 0.28915 0.64988 0.43789 0.0
C99 C 0.27596 0.67758 0.27663 0.0
C100 C 0.28106 0.66927 0.40313 0.0
Zn101 Zn 0.63431 0.34453 0.92202 0.0
Zn102 Zn 0.60942 0.3348 0.74502 0.0
Zn103 Zn 0.61753 0.33898 0.8346 0.0
C104 C 0.67498 0.45696 0.76868 0.0
C105 C 0.48648 0.24981 0.77871 0.0
O106 O 0.65718 0.29954 0.85376 0.0
O107 O 0.64755 0.28884 0.93002 0.0
C108 C 0.71852 0.46773 0.89375 0.0
O109 O 0.673 0.43599 0.8085 0.0
O110 O 0.6457 0.42019 0.73394 0.0
O111 O 0.51684 0.26368 0.74222 0.0
O112 O 0.51575 0.27641 0.81792 0.0
O113 O 0.7097 0.43605 0.92787 0.0
O114 O 0.68514 0.43959 0.8561 0.0
O115 O 0.52374 0.28559 0.86662 0.0
O116 O 0.55272 0.31288 0.9405 0.0
C117 C 0.51027 0.2852 0.90919 0.0
O118 O 0.65058 0.29736 0.8048 0.0
O119 O 0.65956 0.31611 0.72945 0.0
C120 C 0.66254 0.28122 0.89216 0.0
C121 C 0.6662 0.29498 0.76386 0.0
H122 H 0.05372 0.76449 0.2935 0.0
H123 H 0.33539 0.79116 0.24236 0.0
H124 H 0.21959 0.9143 0.21642 0.0
H125 H 0.16903 0.63632 0.31586 0.0
H126 H 0.29821 0.84279 0.24089 0.0
H127 H 0.10002 0.72342 0.3111 0.0
C128 C 0.1001 0.78914 0.28063 0.0
C129 C 0.13237 0.84239 0.25272 0.0
C130 C 0.26983 0.79776 0.25769 0.0
C131 C 0.18503 0.79502 0.27219 0.0
C132 C 0.29107 0.7684 0.25846 0.0
C133 C 0.25512 0.70986 0.27936 0.0
C134 C 0.21152 0.76771 0.2772 0.0
C135 C 0.19796 0.68175 0.29961 0.0
C136 C 0.12629 0.76539 0.29048 0.0
C137 C 0.19223 0.8722 0.23698 0.0
N138 N 0.17756 0.71084 0.29778 0.0
N139 N 0.21633 0.84783 0.24664 0.0
H140 H 0.10953 0.08608 0.72203 0.0
H141 H 0.41118 0.13648 0.73584 0.0
H142 H 0.16011 0.02416 0.61751 0.0
H143 H 0.4066 0.26059 0.80777 0.0
H144 H 0.3025 0.07221 0.70903 0.0
H145 H 0.20379 0.1304 0.76803 0.0
C146 C 0.14012 0.08133 0.70901 0.0
C147 C 0.12755 0.05209 0.66569 0.0
C148 C 0.32472 0.11279 0.7314 0.0
C149 C 0.23394 0.10129 0.71825 0.0
C150 C 0.38644 0.1491 0.74697 0.0
C151 C 0.41745 0.20363 0.77394 0.0
C152 C 0.29398 0.13159 0.74236 0.0
C153 C 0.38379 0.21846 0.78725 0.0
C154 C 0.19372 0.10662 0.7352 0.0
C155 C 0.16852 0.0471 0.65038 0.0
N156 N 0.32376 0.18295 0.77077 0.0
N157 N 0.2198 0.07142 0.67664 0.0
H158 H 0.06199 0.11685 0.21789 0.0
H159 H 0.13268 0.42963 0.21415 0.0
H160 H 0.01887 0.17327 0.10155 0.0
H161 H 0.24254 0.41547 0.29934 0.0
H162 H 0.06915 0.32208 0.18573 0.0
H163 H 0.10886 0.21398 0.25962 0.0
C164 C 0.06184 0.14936 0.2013 0.0
C165 C 0.03689 0.13729 0.15604 0.0
C166 C 0.10651 0.34206 0.21115 0.0
C167 C 0.08954 0.24751 0.20375 0.0
C168 C 0.14254 0.40321 0.22756 0.0
C169 C 0.19277 0.43118 0.25911 0.0
C170 C 0.12092 0.30853 0.22619 0.0
C171 C 0.20367 0.39511 0.27543 0.0
C172 C 0.08873 0.20471 0.2251 0.0
C173 C 0.03811 0.18102 0.13616 0.0
N174 N 0.16824 0.33549 0.25843 0.0
N175 N 0.06395 0.23415 0.16019 0.0
H176 H 0.77703 0.09394 0.78807 0.0
H177 H 0.76242 0.33941 0.70775 0.0
H178 H 0.85429 0.19408 0.65899 0.0
H179 H 0.62829 0.18916 0.80169 0.0
H180 H 0.80696 0.29554 0.69586 0.0
H181 H 0.73248 0.13762 0.80052 0.0
C182 C 0.78442 0.1248 0.76221 0.0
C183 C 0.81919 0.13995 0.72218 0.0
C184 C 0.76786 0.27222 0.71916 0.0
C185 C 0.76936 0.19093 0.73685 0.0
C186 C 0.74253 0.29719 0.72593 0.0
C187 C 0.69275 0.26849 0.75655 0.0
C188 C 0.74302 0.21809 0.7431 0.0
C189 C 0.66786 0.21344 0.77876 0.0
C190 C 0.75916 0.14985 0.76949 0.0
C191 C 0.82854 0.18158 0.69058 0.0
N192 N 0.6936 0.19014 0.77189 0.0
N193 N 0.80383 0.20564 0.69863 0.0
H194 H 0.79789 0.82847 0.18214 0.0
H195 H 0.50952 0.79801 0.2023 0.0
H196 H 0.78621 0.94628 0.10847 0.0
H197 H 0.5223 0.68347 0.27937 0.0
H198 H 0.61463 0.85793 0.17209 0.0
H199 H 0.70066 0.77918 0.22161 0.0
C200 C 0.77491 0.84402 0.17416 0.0
C201 C 0.80019 0.89143 0.1416 0.0
C202 C 0.59514 0.82044 0.1962 0.0
C203 C 0.68863 0.83508 0.18707 0.0
C204 C 0.53529 0.78643 0.21355 0.0
C205 C 0.50806 0.73664 0.24395 0.0
C206 C 0.62768 0.80386 0.20873 0.0
C207 C 0.54271 0.72282 0.25713 0.0
C208 C 0.71941 0.81591 0.19693 0.0
C209 C 0.76839 0.90977 0.13308 0.0
N210 N 0.6007 0.75598 0.23911 0.0
N211 N 0.71416 0.88138 0.15554 0.0
H212 H 0.95832 0.81762 0.64795 0.0
H213 H 0.63071 0.50689 0.74144 0.0
H214 H 0.80279 0.7998 0.66936 0.0
H215 H 0.80265 0.55705 0.77699 0.0
H216 H 0.69285 0.61359 0.71338 0.0
H217 H 0.90246 0.72097 0.69211 0.0
C218 C 0.91253 0.79346 0.66189 0.0
C219 C 0.88497 0.81656 0.65461 0.0
C220 C 0.71718 0.60183 0.72812 0.0
C221 C 0.82111 0.70637 0.70499 0.0
C222 C 0.68173 0.54114 0.7443 0.0
C223 C 0.71189 0.52388 0.76183 0.0
C224 C 0.78328 0.64491 0.72811 0.0
C225 C 0.77798 0.56923 0.76412 0.0
C226 C 0.88099 0.7387 0.6874 0.0
C227 C 0.82583 0.7837 0.67392 0.0
N228 N 0.8117 0.62763 0.74663 0.0
N229 N 0.79565 0.73001 0.69773 0.0
H230 H 0.20245 0.89911 0.39043 0.0
H231 H 0.18353 0.62566 0.45718 0.0
H232 H 0.0875 0.76709 0.50022 0.0
H233 H 0.32429 0.77782 0.36693 0.0
H234 H 0.14346 0.67375 0.46991 0.0
H235 H 0.24294 0.85159 0.37711 0.0
C236 C 0.18577 0.8602 0.41177 0.0
C237 C 0.1417 0.83723 0.44668 0.0
C238 C 0.18297 0.6966 0.44717 0.0
C239 C 0.18813 0.78301 0.43178 0.0
C240 C 0.20568 0.66913 0.4399 0.0
C241 C 0.25607 0.69725 0.41013 0.0
C242 C 0.21136 0.75288 0.42478 0.0
C243 C 0.28412 0.75401 0.38913 0.0
C244 C 0.20918 0.83336 0.40431 0.0
C245 C 0.12216 0.78703 0.47348 0.0
N246 N 0.26118 0.77996 0.39668 0.0
N247 N 0.14539 0.76153 0.46538 0.0
H248 H 0.10624 0.03761 0.94995 0.0
H249 H 0.47915 0.31676 0.98151 0.0
H250 H 0.20126 0.12568 0.08229 0.0
H251 H 0.39543 0.17794 0.87135 0.0
H252 H 0.37457 0.25773 1.0118 0.0
H253 H 0.20918 0.09805 0.91407 0.0
C254 C 0.14868 0.06965 0.97144 0.0
C255 C 0.14521 0.07663 1.01924 0.0
C256 C 0.37889 0.24042 0.9807 0.0
C257 C 0.26253 0.14617 0.97831 0.0
C258 C 0.43854 0.27417 0.96324 0.0
C259 C 0.44592 0.25261 0.9234 0.0
C260 C 0.32578 0.18455 0.9582 0.0
C261 C 0.3916 0.19716 0.90123 0.0
C262 C 0.20721 0.10386 0.95095 0.0
C263 C 0.20163 0.11856 1.04543 0.0
N264 N 0.33355 0.16481 0.91896 0.0
N265 N 0.2579 0.15204 1.02455 0.0
H266 H 0.11514 0.2079 0.57783 0.0
H267 H 0.16235 0.39981 0.36261 0.0
H268 H 0.02315 0.10977 0.44708 0.0
H269 H 0.3117 0.47329 0.4614 0.0
H270 H 0.10045 0.29352 0.39371 0.0
H271 H 0.17581 0.30807 0.53838 0.0
C272 C 0.10737 0.20742 0.54088 0.0
C273 C 0.06433 0.1505 0.51565 0.0
C274 C 0.14724 0.33303 0.40786 0.0
C275 C 0.13328 0.26493 0.47038 0.0
C276 C 0.18278 0.39334 0.38979 0.0
C277 C 0.24245 0.44525 0.40911 0.0
C278 C 0.17119 0.32555 0.44619 0.0
C279 C 0.2658 0.43467 0.44555 0.0
C280 C 0.14228 0.26455 0.51834 0.0
C281 C 0.05633 0.15274 0.46771 0.0
N282 N 0.22988 0.37637 0.46325 0.0
N283 N 0.09027 0.20915 0.44655 0.0
H284 H 0.74053 0.06465 0.97673 0.0
H285 H 0.76735 0.32137 0.85011 0.0
H286 H 0.88495 0.19535 0.87793 0.0
H287 H 0.61485 0.17727 0.93872 0.0
H288 H 0.81075 0.2754 0.85773 0.0
H289 H 0.69342 0.10504 0.96176 0.0
C290 C 0.76252 0.10212 0.95202 0.0
C291 C 0.81715 0.12714 0.92895 0.0
C292 C 0.76755 0.25358 0.87522 0.0
C293 C 0.7631 0.17344 0.91125 0.0
C294 C 0.74274 0.27958 0.87067 0.0
C295 C 0.68704 0.25218 0.89319 0.0
C296 C 0.73678 0.20056 0.90313 0.0
C297 C 0.65758 0.1992 0.92042 0.0
C298 C 0.73534 0.1249 0.94321 0.0
C299 C 0.84275 0.17466 0.89644 0.0
N300 N 0.6828 0.17512 0.92463 0.0
N301 N 0.81575 0.19662 0.88879 0.0
H302 H 0.81484 -0.01983 0.52708 0.0
H303 H 0.53499 0.69806 0.36072 0.0
H304 H 0.80686 0.8416 0.46629 0.0
H305 H 0.54325 0.83634 0.42144 0.0
H306 H 0.64432 0.76163 0.38653 0.0
H307 H 0.72405 0.93827 0.47853 0.0
C308 C 0.79416 0.94108 0.50346 0.0
C309 C 0.81791 0.91375 0.50133 0.0
C310 C 0.62287 0.779 0.39316 0.0
C311 C 0.71412 0.86567 0.44547 0.0
C312 C 0.56093 0.74325 0.37761 0.0
C313 C 0.53088 0.7627 0.38842 0.0
C314 C 0.65414 0.83384 0.42029 0.0
C315 C 0.56524 0.82009 0.41239 0.0
C316 C 0.74248 0.91734 0.47555 0.0
C317 C 0.78969 0.8637 0.46958 0.0
N318 N 0.62482 0.8533 0.42806 0.0
N319 N 0.73895 0.84092 0.44324 0.0
H320 H 0.8491 0.82339 0.95793 0.0
H321 H 0.82929 0.54306 0.94215 0.0
H322 H -0.03097 0.81719 1.03712 0.0
H323 H 0.70986 0.5478 0.86093 0.0
H324 H 0.89281 0.65189 0.96703 0.0
H325 H 0.80823 0.73074 0.91344 0.0
C326 C 0.86711 0.80276 0.96588 0.0
C327 C 0.91187 0.82754 1.00191 0.0
C328 C 0.85345 0.62973 0.94311 0.0
C329 C 0.86532 0.7215 0.95083 0.0
C330 C 0.81734 0.56769 0.92879 0.0
C331 C 0.7642 0.53657 0.89971 0.0
C332 C 0.83558 0.66055 0.92893 0.0
C333 C 0.75077 0.57041 0.88315 0.0
C334 C 0.84388 0.74997 0.94026 0.0
C335 C 0.93401 0.7993 1.0101 0.0
N336 N 0.78565 0.63044 0.89867 0.0
N337 N 0.91005 0.74744 0.98506 0.0
loop_
_geom_bond_atom_site_label_1
_geom_bond_atom_site_label_2
_geom_bond_distance
_geom_bond_site_symmetry_2
_ccdc_geom_bond_type
Tb0 C10 2.825 . S
Tb0 O11 2.347 1_546 S
Tb0 O14 2.362 1_656 S
Tb0 O19 2.418 1_655 S
Tb0 O20 2.384 1_545 S
Tb0 O23 2.479 . S
Tb0 O24 2.471 . S
Eu1 O12 2.418 1_455 S
Eu1 O13 2.384 1_565 S
Eu1 O16 2.479 . S
Eu1 O17 2.471 . S
Eu1 O18 2.347 1_564 S
Eu1 O21 2.366 1_455 S
Eu1 C31 2.825 . S
C2 O18 1.259 . S
C2 O19 1.265 . S
C3 O20 1.255 . S
C3 O21 1.265 1_556 S
C4 C6 1.380 . S
C4 C7 1.374 . S
C4 C10 1.507 . S
C5 C6 1.384 . S
C5 C9 1.387 . S
C5 H32 0.930 . S
C6 C4 1.380 . S
C6 C5 1.384 . S
C6 H33 0.931 . S
C7 C4 1.374 . S
C7 C8 1.390 . S
C7 H34 0.930 . S
C8 C7 1.390 . S
C8 C9 1.391 . S
C8 H35 0.930 . S
C9 C5 1.387 . S
C9 C8 1.391 . S
C10 Tb0 2.825 . S
C10 C4 1.507 . S
C10 O23 1.238 . S
C10 O24 1.247 . S
O11 Tb0 2.347 1_564 S
O11 C15 1.259 . S
O12 Eu1 2.418 1_655 S
O12 C15 1.265 . S
O13 Eu1 2.384 1_545 S
O13 C22 1.255 . S
O14 Tb0 2.362 1_454 S
O14 C22 1.272 . S
C15 O11 1.259 . S
C15 O12 1.265 . S
O16 Eu1 2.479 . S
O16 C31 1.238 . S
O17 Eu1 2.471 . S
O17 C31 1.247 . S
O18 Eu1 2.347 1_546 S
O18 C2 1.259 . S
O19 Tb0 2.418 1_455 S
O19 C2 1.265 . S
O20 Tb0 2.384 1_565 S
O20 C3 1.255 . S
O21 Eu1 2.366 1_655 S
O21 C3 1.265 1_554 S
C22 O13 1.255 . S
C22 O14 1.272 . S
O23 Tb0 2.479 . S
O23 C10 1.238 . S
O24 Tb0 2.471 . S
O24 C10 1.247 . S
C25 C28 1.380 . S
C25 C29 1.374 . S
C25 C31 1.507 . S
C26 C27 1.387 . S
C26 C30 1.391 . S
C27 C26 1.387 . S
C27 C28 1.384 . S
C27 H36 0.930 . S
C28 C25 1.380 . S
C28 C27 1.384 . S
C28 H37 0.931 . S
C29 C25 1.374 . S
C29 C30 1.390 . S
C29 H38 0.930 . S
C30 C26 1.391 . S
C30 C29 1.390 . S
C30 H39 0.930 . S
C31 Eu1 2.825 . S
C31 O16 1.238 . S
C31 O17 1.247 . S
C31 C25 1.507 . S
H32 C5 0.930 . S
H33 C6 0.931 . S
H34 C7 0.930 . S
H35 C8 0.930 . S
H36 C27 0.930 . S
H37 C28 0.931 . S
H38 C29 0.930 . S
H39 C30 0.930 . S
Tb40 C50 2.825 1_455 S
Tb40 O51 2.347 . S
Tb40 O54 2.366 1_445 S
Tb40 O59 2.418 1_445 S
Tb40 O60 2.384 . S
Tb40 O63 2.479 1_455 S
Tb40 O64 2.471 1_455 S
Eu41 O52 2.418 1_565 S
Eu41 O53 2.384 1_455 S
Eu41 O56 2.479 . S
Eu41 O57 2.471 . S
Eu41 O58 2.347 1_455 S
Eu41 O61 2.366 1_565 S
Eu41 C71 2.825 . S
C42 O58 1.259 . S
C42 O59 1.265 . S
C43 O60 1.255 . S
C43 O61 1.265 . S
C44 C46 1.380 . S
C44 C47 1.374 . S
C44 C50 1.507 . S
C45 C46 1.384 . S
C45 C49 1.387 . S
C45 H72 0.930 . S
C46 C44 1.380 . S
C46 C45 1.384 . S
C46 H73 0.931 . S
C47 C44 1.374 . S
C47 C48 1.390 . S
C47 H74 0.930 . S
C48 C47 1.390 . S
C48 C49 1.391 . S
C48 H75 0.930 . S
C49 C45 1.387 . S
C49 C48 1.391 . S
C50 Tb40 2.825 1_655 S
C50 C44 1.507 . S
C50 O63 1.238 . S
C50 O64 1.247 . S
O51 Tb40 2.347 . S
O51 C55 1.259 . S
O52 Eu41 2.418 1_545 S
O52 C55 1.265 . S
O53 Eu41 2.384 1_655 S
O53 C62 1.255 . S
O54 Tb40 2.366 1_665 S
O54 C62 1.265 . S
C55 O51 1.259 . S
C55 O52 1.265 . S
O56 Eu41 2.479 . S
O56 C71 1.238 . S
O57 Eu41 2.471 . S
O57 C71 1.247 . S
O58 Eu41 2.347 1_655 S
O58 C42 1.259 . S
O59 Tb40 2.418 1_665 S
O59 C42 1.265 . S
O60 Tb40 2.384 . S
O60 C43 1.255 . S
O61 Eu41 2.366 1_545 S
O61 C43 1.265 . S
C62 O53 1.255 . S
C62 O54 1.265 . S
O63 Tb40 2.479 1_655 S
O63 C50 1.238 . S
O64 Tb40 2.471 1_655 S
O64 C50 1.247 . S
C65 C68 1.380 . S
C65 C69 1.374 . S
C65 C71 1.507 . S
C66 C67 1.387 . S
C66 C70 1.391 . S
C67 C66 1.387 . S
C67 C68 1.384 . S
C67 H76 0.930 . S
C68 C65 1.380 . S
C68 C67 1.384 . S
C68 H77 0.931 . S
C69 C65 1.374 . S
C69 C70 1.390 . S
C69 H78 0.930 . S
C70 C66 1.391 . S
C70 C69 1.390 . S
C70 H79 0.930 . S
C71 Eu41 2.825 . S
C71 O56 1.238 . S
C71 O57 1.247 . S
C71 C65 1.507 . S
H72 C45 0.930 . S
H73 C46 0.931 . S
H74 C47 0.930 . S
H75 C48 0.930 . S
H76 C67 0.930 . S
H77 C68 0.931 . S
H78 C69 0.930 . S
H79 C70 0.930 . S
Zn80 O86 1.920 . S
Zn80 O92 1.898 . S
Zn80 O95 1.905 . S
Zn81 O89 1.905 . S
Zn81 O90 1.898 . S
Zn81 O98 1.920 . S
Zn82 O85 2.080 . S
Zn82 O88 2.114 . S
Zn82 O91 2.120 . S
Zn82 O93 2.120 . S
Zn82 O94 2.114 . S
Zn82 O97 2.080 . S
C83 O88 1.166 . S
C83 O89 1.182 . S
C84 O90 1.167 . S
C84 O91 1.299 . S
O85 Zn82 2.080 . S
O85 C99 1.305 . S
O86 Zn80 1.920 . S
O86 C99 1.234 . S
C87 O92 1.167 . S
C87 O93 1.299 . S
O88 Zn82 2.114 . S
O88 C83 1.166 . S
O89 Zn81 1.905 . S
O89 C83 1.182 . S
O90 Zn81 1.898 . S
O90 C84 1.167 . S
O91 Zn82 2.120 . S
O91 C84 1.299 . S
O92 Zn80 1.898 . S
O92 C87 1.167 . S
O93 Zn82 2.120 . S
O93 C87 1.299 . S
O94 Zn82 2.114 . S
O94 C96 1.166 . S
O95 Zn80 1.905 . S
O95 C96 1.182 . S
C96 O94 1.166 . S
C96 O95 1.182 . S
O97 Zn82 2.080 . S
O97 C100 1.305 . S
O98 Zn81 1.920 . S
O98 C100 1.234 . S
C99 O85 1.305 . S
C99 O86 1.234 . S
C100 O97 1.305 . S
C100 O98 1.234 . S
Zn101 O107 1.920 . S
Zn101 O113 1.898 . S
Zn101 O116 1.905 . S
Zn102 O110 1.905 . S
Zn102 O111 1.898 . S
Zn102 O119 1.920 . S
Zn103 O106 2.080 . S
Zn103 O109 2.114 . S
Zn103 O112 2.120 . S
Zn103 O114 2.120 . S
Zn103 O115 2.114 . S
Zn103 O118 2.080 . S
C104 O109 1.166 . S
C104 O110 1.182 . S
C105 O111 1.167 . S
C105 O112 1.299 . S
O106 Zn103 2.080 . S
O106 C120 1.305 . S
O107 Zn101 1.920 . S
O107 C120 1.234 . S
C108 O113 1.167 . S
C108 O114 1.299 . S
O109 Zn103 2.114 . S
O109 C104 1.166 . S
O110 Zn102 1.905 . S
O110 C104 1.182 . S
O111 Zn102 1.898 . S
O111 C105 1.167 . S
O112 Zn103 2.120 . S
O112 C105 1.299 . S
O113 Zn101 1.898 . S
O113 C108 1.167 . S
O114 Zn103 2.120 . S
O114 C108 1.299 . S
O115 Zn103 2.114 . S
O115 C117 1.166 . S
O116 Zn101 1.905 . S
O116 C117 1.182 . S
C117 O115 1.166 . S
C117 O116 1.182 . S
O118 Zn103 2.080 . S
O118 C121 1.305 . S
O119 Zn102 1.920 . S
O119 C121 1.234 . S
C120 O106 1.305 . S
C120 O107 1.234 . S
C121 O118 1.305 . S
C121 O119 1.234 . S
H122 C128 0.930 . S
H123 C132 0.930 . S
H124 C137 0.929 . S
H125 C135 0.929 . S
H126 C130 0.929 . S
H127 C136 0.929 . S
C128 H122 0.930 . S
C128 C129 1.367 . S
C128 C136 1.378 . S
C129 C128 1.367 . S
C129 C137 1.433 . S
C130 H126 0.929 . S
C130 C132 1.378 . S
C130 C134 1.350 . S
C131 C134 1.463 . S
C131 C136 1.350 . S
C131 N139 1.427 . S
C132 H123 0.930 . S
C132 C130 1.378 . S
C132 C133 1.367 . S
C133 C132 1.367 . S
C133 C135 1.433 . S
C134 C130 1.350 . S
C134 C131 1.463 . S
C134 N138 1.427 . S
C135 H125 0.929 . S
C135 C133 1.433 . S
C135 N138 1.384 . S
C136 H127 0.929 . S
C136 C128 1.378 . S
C136 C131 1.350 . S
C137 H124 0.929 . S
C137 C129 1.433 . S
C137 N139 1.384 . S
N138 C134 1.427 . S
N138 C135 1.384 . S
N139 C131 1.427 . S
N139 C137 1.384 . S
H140 C146 0.930 . S
H141 C150 0.930 . S
H142 C155 0.929 . S
H143 C153 0.929 . S
H144 C148 0.929 . S
H145 C154 0.929 . S
C146 H140 0.930 . S
C146 C147 1.367 . S
C146 C154 1.378 . S
C147 C146 1.367 . S
C147 C155 1.433 . S
C148 H144 0.929 . S
C148 C150 1.378 . S
C148 C152 1.350 . S
C149 C152 1.463 . S
C149 C154 1.350 . S
C149 N157 1.427 . S
C150 H141 0.930 . S
C150 C148 1.378 . S
C150 C151 1.367 . S
C151 C150 1.367 . S
C151 C153 1.433 . S
C152 C148 1.350 . S
C152 C149 1.463 . S
C152 N156 1.427 . S
C153 H143 0.929 . S
C153 C151 1.433 . S
C153 N156 1.384 . S
C154 H145 0.929 . S
C154 C146 1.378 . S
C154 C149 1.350 . S
C155 H142 0.929 . S
C155 C147 1.433 . S
C155 N157 1.384 . S
N156 C152 1.427 . S
N156 C153 1.384 . S
N157 C149 1.427 . S
N157 C155 1.384 . S
H158 C164 0.930 . S
H159 C168 0.930 . S
H160 C173 0.929 . S
H161 C171 0.929 . S
H162 C166 0.929 . S
H163 C172 0.929 . S
C164 H158 0.930 . S
C164 C165 1.367 . S
C164 C172 1.378 . S
C165 C164 1.367 . S
C165 C173 1.433 . S
C166 H162 0.929 . S
C166 C168 1.378 . S
C166 C170 1.350 . S
C167 C170 1.463 . S
C167 C172 1.350 . S
C167 N175 1.427 . S
C168 H159 0.930 . S
C168 C166 1.378 . S
C168 C169 1.367 . S
C169 C168 1.367 . S
C169 C171 1.433 . S
C170 C166 1.350 . S
C170 C167 1.463 . S
C170 N174 1.427 . S
C171 H161 0.929 . S
C171 C169 1.433 . S
C171 N174 1.384 . S
C172 H163 0.929 . S
C172 C164 1.378 . S
C172 C167 1.350 . S
C173 H160 0.929 . S
C173 C165 1.433 . S
C173 N175 1.384 . S
N174 C170 1.427 . S
N174 C171 1.384 . S
N175 C167 1.427 . S
N175 C173 1.384 . S
H176 C182 0.930 . S
H177 C186 0.930 . S
H178 C191 0.929 . S
H179 C189 0.929 . S
H180 C184 0.929 . S
H181 C190 0.929 . S
C182 H176 0.930 . S
C182 C183 1.367 . S
C182 C190 1.378 . S
C183 C182 1.367 . S
C183 C191 1.433 . S
C184 H180 0.929 . S
C184 C186 1.378 . S
C184 C188 1.350 . S
C185 C188 1.463 . S
C185 C190 1.350 . S
C185 N193 1.427 . S
C186 H177 0.930 . S
C186 C184 1.378 . S
C186 C187 1.367 . S
C187 C186 1.367 . S
C187 C189 1.433 . S
C188 C184 1.350 . S
C188 C185 1.463 . S
C188 N192 1.427 . S
C189 H179 0.929 . S
C189 C187 1.433 . S
C189 N192 1.384 . S
C190 H181 0.929 . S
C190 C182 1.378 . S
C190 C185 1.350 . S
C191 H178 0.929 . S
C191 C183 1.433 . S
C191 N193 1.384 . S
N192 C188 1.427 . S
N192 C189 1.384 . S
N193 C185 1.427 . S
N193 C191 1.384 . S
H194 C200 0.930 . S
H195 C204 0.930 . S
H196 C209 0.929 . S
H197 C207 0.929 . S
H198 C202 0.929 . S
H199 C208 0.929 . S
C200 H194 0.930 . S
C200 C201 1.367 . S
C200 C208 1.378 . S
C201 C200 1.367 . S
C201 C209 1.433 . S
C202 H198 0.929 . S
C202 C204 1.378 . S
C202 C206 1.350 . S
C203 C206 1.463 . S
C203 C208 1.350 . S
C203 N211 1.427 . S
C204 H195 0.930 . S
C204 C202 1.378 . S
C204 C205 1.367 . S
C205 C204 1.367 . S
C205 C207 1.433 . S
C206 C202 1.350 . S
C206 C203 1.463 . S
C206 N210 1.427 . S
C207 H197 0.929 . S
C207 C205 1.433 . S
C207 N210 1.384 . S
C208 H199 0.929 . S
C208 C200 1.378 . S
C208 C203 1.350 . S
C209 H196 0.929 . S
C209 C201 1.433 . S
C209 N211 1.384 . S
N210 C206 1.427 . S
N210 C207 1.384 . S
N211 C203 1.427 . S
N211 C209 1.384 . S
H212 C218 0.930 . S
H213 C222 0.930 . S
H214 C227 0.929 . S
H215 C225 0.929 . S
H216 C220 0.929 . S
H217 C226 0.929 . S
C218 H212 0.930 . S
C218 C219 1.367 . S
C218 C226 1.378 . S
C219 C218 1.367 . S
C219 C227 1.433 . S
C220 H216 0.929 . S
C220 C222 1.378 . S
C220 C224 1.350 . S
C221 C224 1.463 . S
C221 C226 1.350 . S
C221 N229 1.427 . S
C222 H213 0.930 . S
C222 C220 1.378 . S
C222 C223 1.367 . S
C223 C222 1.367 . S
C223 C225 1.433 . S
C224 C220 1.350 . S
C224 C221 1.463 . S
C224 N228 1.427 . S
C225 H215 0.929 . S
C225 C223 1.433 . S
C225 N228 1.384 . S
C226 H217 0.929 . S
C226 C218 1.378 . S
C226 C221 1.350 . S
C227 H214 0.929 . S
C227 C219 1.433 . S
C227 N229 1.384 . S
N228 C224 1.427 . S
N228 C225 1.384 . S
N229 C221 1.427 . S
N229 C227 1.384 . S
H230 C236 0.930 . S
H231 C240 0.930 . S
H232 C245 0.929 . S
H233 C243 0.929 . S
H234 C238 0.929 . S
H235 C244 0.929 . S
C236 H230 0.930 . S
C236 C237 1.367 . S
C236 C244 1.378 . S
C237 C236 1.367 . S
C237 C245 1.433 . S
C238 H234 0.929 . S
C238 C240 1.378 . S
C238 C242 1.350 . S
C239 C242 1.463 . S
C239 C244 1.350 . S
C239 N247 1.427 . S
C240 H231 0.930 . S
C240 C238 1.378 . S
C240 C241 1.367 . S
C241 C240 1.367 . S
C241 C243 1.433 . S
C242 C238 1.350 . S
C242 C239 1.463 . S
C242 N246 1.427 . S
C243 H233 0.929 . S
C243 C241 1.433 . S
C243 N246 1.384 . S
C244 H235 0.929 . S
C244 C236 1.378 . S
C244 C239 1.350 . S
C245 H232 0.929 . S
C245 C237 1.433 . S
C245 N247 1.384 . S
N246 C242 1.427 . S
N246 C243 1.384 . S
N247 C239 1.427 . S
N247 C245 1.384 . S
H248 C254 0.930 . S
H249 C258 0.930 . S
H250 C263 0.929 . S
H251 C261 0.929 . S
H252 C256 0.929 . S
H253 C262 0.929 . S
C254 H248 0.930 . S
C254 C255 1.367 . S
C254 C262 1.378 . S
C255 C254 1.367 . S
C255 C263 1.433 . S
C256 H252 0.929 . S
C256 C258 1.378 . S
C256 C260 1.350 . S
C257 C260 1.463 . S
C257 C262 1.350 . S
C257 N265 1.427 . S
C258 H249 0.930 . S
C258 C256 1.378 . S
C258 C259 1.367 . S
C259 C258 1.367 . S
C259 C261 1.433 . S
C260 C256 1.350 . S
C260 C257 1.463 . S
C260 N264 1.427 . S
C261 H251 0.929 . S
C261 C259 1.433 . S
C261 N264 1.384 . S
C262 H253 0.929 . S
C262 C254 1.378 . S
C262 C257 1.350 . S
C263 H250 0.929 . S
C263 C255 1.433 . S
C263 N265 1.384 . S
N264 C260 1.427 . S
N264 C261 1.384 . S
N265 C257 1.427 . S
N265 C263 1.384 . S
H266 C272 0.930 . S
H267 C276 0.930 . S
H268 C281 0.929 . S
H269 C279 0.929 . S
H270 C274 0.929 . S
H271 C280 0.929 . S
C272 H266 0.930 . S
C272 C273 1.367 . S
C272 C280 1.378 . S
C273 C272 1.367 . S
C273 C281 1.433 . S
C274 H270 0.929 . S
C274 C276 1.378 . S
C274 C278 1.350 . S
C275 C278 1.463 . S
C275 C280 1.350 . S
C275 N283 1.427 . S
C276 H267 0.930 . S
C276 C274 1.378 . S
C276 C277 1.367 . S
C277 C276 1.367 . S
C277 C279 1.433 . S
C278 C274 1.350 . S
C278 C275 1.463 . S
C278 N282 1.427 . S
C279 H269 0.929 . S
C279 C277 1.433 . S
C279 N282 1.384 . S
C280 H271 0.929 . S
C280 C272 1.378 . S
C280 C275 1.350 . S
C281 H268 0.929 . S
C281 C273 1.433 . S
C281 N283 1.384 . S
N282 C278 1.427 . S
N282 C279 1.384 . S
N283 C275 1.427 . S
N283 C281 1.384 . S
H284 C290 0.930 . S
H285 C294 0.930 . S
H286 C299 0.929 . S
H287 C297 0.929 . S
H288 C292 0.929 . S
H289 C298 0.929 . S
C290 H284 0.930 . S
C290 C291 1.367 . S
C290 C298 1.378 . S
C291 C290 1.367 . S
C291 C299 1.433 . S
C292 H288 0.929 . S
C292 C294 1.378 . S
C292 C296 1.350 . S
C293 C296 1.463 . S
C293 C298 1.350 . S
C293 N301 1.427 . S
C294 H285 0.930 . S
C294 C292 1.378 . S
C294 C295 1.367 . S
C295 C294 1.367 . S
C295 C297 1.433 . S
C296 C292 1.350 . S
C296 C293 1.463 . S
C296 N300 1.427 . S
C297 H287 0.929 . S
C297 C295 1.433 . S
C297 N300 1.384 . S
C298 H289 0.929 . S
C298 C290 1.378 . S
C298 C293 1.350 . S
C299 H286 0.929 . S
C299 C291 1.433 . S
C299 N301 1.384 . S
N300 C296 1.427 . S
N300 C297 1.384 . S
N301 C293 1.427 . S
N301 C299 1.384 . S
H302 C308 0.930 . S
H303 C312 0.930 . S
H304 C317 0.929 . S
H305 C315 0.929 . S
H306 C310 0.929 . S
H307 C316 0.929 . S
C308 H302 0.930 . S
C308 C309 1.367 . S
C308 C316 1.378 . S
C309 C308 1.367 . S
C309 C317 1.433 . S
C310 H306 0.929 . S
C310 C312 1.378 . S
C310 C314 1.350 . S
C311 C314 1.463 . S
C311 C316 1.350 . S
C311 N319 1.427 . S
C312 H303 0.930 . S
C312 C310 1.378 . S
C312 C313 1.367 . S
C313 C312 1.367 . S
C313 C315 1.433 . S
C314 C310 1.350 . S
C314 C311 1.463 . S
C314 N318 1.427 . S
C315 H305 0.929 . S
C315 C313 1.433 . S
C315 N318 1.384 . S
C316 H307 0.929 . S
C316 C308 1.378 . S
C316 C311 1.350 . S
C317 H304 0.929 . S
C317 C309 1.433 . S
C317 N319 1.384 . S
N318 C314 1.427 . S
N318 C315 1.384 . S
N319 C311 1.427 . S
N319 C317 1.384 . S
H320 C326 0.930 . S
H321 C330 0.930 . S
H322 C335 0.929 . S
H323 C333 0.929 . S
H324 C328 0.929 . S
H325 C334 0.929 . S
C326 H320 0.930 . S
C326 C327 1.367 . S
C326 C334 1.378 . S
C327 C326 1.367 . S
C327 C335 1.433 . S
C328 H324 0.929 . S
C328 C330 1.378 . S
C328 C332 1.350 . S
C329 C332 1.463 . S
C329 C334 1.350 . S
C329 N337 1.427 . S
C330 H321 0.930 . S
C330 C328 1.378 . S
C330 C331 1.367 . S
C331 C330 1.367 . S
C331 C333 1.433 . S
C332 C328 1.350 . S
C332 C329 1.463 . S
C332 N336 1.427 . S
C333 H323 0.929 . S
C333 C331 1.433 . S
C333 N336 1.384 . S
C334 H325 0.929 . S
C334 C326 1.378 . S
C334 C329 1.350 . S
C335 H322 0.929 . S
C335 C327 1.433 . S
C335 N337 1.384 . S
N336 C332 1.427 . S
N336 C333 1.384 . S
N337 C329 1.427 . S
N337 C335 1.384 . S
C129 C26 1.350 . S
C133 C99 1.277 . S
C147 C43 1.286 . S
C151 C105 1.164 . S
C165 C22 1.391 . S
C169 C96 1.263 . S
C183 C49 1.414 . S
C187 C121 1.333 . S
C201 C15 1.856 . S
C205 C87 1.691 . S
C223 C104 1.813 . S
C219 C42 1.938 . S
C237 C66 1.349 . S
C241 C100 1.277 . S
C259 C117 1.796 . S
C255 C2 1.930 . S
C277 C84 1.708 . S
C273 C55 1.864 . S
C295 C120 1.340 . S
C291 C9 1.414 . S
C313 C83 1.269 . S
C309 C62 1.395 . S
C331 C108 1.146 . S
C327 C3 1.283 . S
