# Generated by pormake.
# Topology gar, (4,6)-cn, num edge types: 1
# Building blocks:
#     Node 0, Type 0, BuildingBlock: AZAVOO_clean_sbu_0, # of connection points: 4
#     Node 1, Type 0, BuildingBlock: AZAVOO_clean_sbu_0, # of connection points: 4
#     Node 2, Type 0, BuildingBlock: AZAVOO_clean_sbu_0, # of connection points: 4
#     Node 3, Type 0, BuildingBlock: AZAVOO_clean_sbu_0, # of connection points: 4
#     Node 4, Type 0, BuildingBlock: AZAVOO_clean_sbu_0, # of connection points: 4
#     Node 5, Type 0, BuildingBlock: AZAVOO_clean_sbu_0, # of connection points: 4
#     Node 6, Type 0, BuildingBlock: AZAVOO_clean_sbu_0, # of connection points: 4
#     Node 7, Type 0, BuildingBlock: AZAVOO_clean_sbu_0, # of connection points: 4
#     Node 8, Type 0, BuildingBlock: AZAVOO_clean_sbu_0, # of connection points: 4
#     Node 9, Type 0, BuildingBlock: AZAVOO_clean_sbu_0, # of connection points: 4
#     Node 10, Type 0, BuildingBlock: AZAVOO_clean_sbu_0, # of connection points: 4
#     Node 11, Type 0, BuildingBlock: AZAVOO_clean_sbu_0, # of connection points: 4
#     Node 12, Type 0, BuildingBlock: AZAVOO_clean_sbu_0, # of connection points: 4
#     Node 13, Type 0, BuildingBlock: AZAVOO_clean_sbu_0, # of connection points: 4
#     Node 14, Type 0, BuildingBlock: AZAVOO_clean_sbu_0, # of connection points: 4
#     Node 15, Type 0, BuildingBlock: AZAVOO_clean_sbu_0, # of connection points: 4
#     Node 16, Type 0, BuildingBlock: AZAVOO_clean_sbu_0, # of connection points: 4
#     Node 17, Type 0, BuildingBlock: AZAVOO_clean_sbu_0, # of connection points: 4
#     Node 18, Type 0, BuildingBlock: AZAVOO_clean_sbu_0, # of connection points: 4
#     Node 19, Type 0, BuildingBlock: AZAVOO_clean_sbu_0, # of connection points: 4
#     Node 20, Type 0, BuildingBlock: AZAVOO_clean_sbu_0, # of connection points: 4
#     Node 21, Type 0, BuildingBlock: AZAVOO_clean_sbu_0, # of connection points: 4
#     Node 22, Type 0, BuildingBlock: AZAVOO_clean_sbu_0, # of connection points: 4
#     Node 23, Type 0, BuildingBlock: AZAVOO_clean_sbu_0, # of connection points: 4
#     Node 24, Type 1, BuildingBlock: NUHQIS_clean_sbu_0, # of connection points: 6
#     Node 25, Type 1, BuildingBlock: NUHQIS_clean_sbu_0, # of connection points: 6
#     Node 26, Type 1, BuildingBlock: NUHQIS_clean_sbu_0, # of connection points: 6
#     Node 27, Type 1, BuildingBlock: NUHQIS_clean_sbu_0, # of connection points: 6
#     Node 28, Type 1, BuildingBlock: NUHQIS_clean_sbu_0, # of connection points: 6
#     Node 29, Type 1, BuildingBlock: NUHQIS_clean_sbu_0, # of connection points: 6
#     Node 30, Type 1, BuildingBlock: NUHQIS_clean_sbu_0, # of connection points: 6
#     Node 31, Type 1, BuildingBlock: NUHQIS_clean_sbu_0, # of connection points: 6
#     Node 32, Type 1, BuildingBlock: NUHQIS_clean_sbu_0, # of connection points: 6
#     Node 33, Type 1, BuildingBlock: NUHQIS_clean_sbu_0, # of connection points: 6
#     Node 34, Type 1, BuildingBlock: NUHQIS_clean_sbu_0, # of connection points: 6
#     Node 35, Type 1, BuildingBlock: NUHQIS_clean_sbu_0, # of connection points: 6
#     Node 36, Type 1, BuildingBlock: NUHQIS_clean_sbu_0, # of connection points: 6
#     Node 37, Type 1, BuildingBlock: NUHQIS_clean_sbu_0, # of connection points: 6
#     Node 38, Type 1, BuildingBlock: NUHQIS_clean_sbu_0, # of connection points: 6
#     Node 39, Type 1, BuildingBlock: NUHQIS_clean_sbu_0, # of connection points: 6
#     Edge 40, Type (0, 1), BuildingBlock: TEMPAE_clean_linker_10, # of connection points: 2
#     Edge 41, Type (0, 1), BuildingBlock: TEMPAE_clean_linker_10, # of connection points: 2
#     Edge 42, Type (0, 1), BuildingBlock: TEMPAE_clean_linker_10, # of connection points: 2
#     Edge 43, Type (0, 1), BuildingBlock: TEMPAE_clean_linker_10, # of connection points: 2
#     Edge 44, Type (0, 1), BuildingBlock: TEMPAE_clean_linker_10, # of connection points: 2
#     Edge 45, Type (0, 1), BuildingBlock: TEMPAE_clean_linker_10, # of connection points: 2
#     Edge 46, Type (0, 1), BuildingBlock: TEMPAE_clean_linker_10, # of connection points: 2
#     Edge 47, Type (0, 1), BuildingBlock: TEMPAE_clean_linker_10, # of connection points: 2
#     Edge 48, Type (0, 1), BuildingBlock: TEMPAE_clean_linker_10, # of connection points: 2
#     Edge 49, Type (0, 1), BuildingBlock: TEMPAE_clean_linker_10, # of connection points: 2
#     Edge 50, Type (0, 1), BuildingBlock: TEMPAE_clean_linker_10, # of connection points: 2
#     Edge 51, Type (0, 1), BuildingBlock: TEMPAE_clean_linker_10, # of connection points: 2
#     Edge 52, Type (0, 1), BuildingBlock: TEMPAE_clean_linker_10, # of connection points: 2
#     Edge 53, Type (0, 1), BuildingBlock: TEMPAE_clean_linker_10, # of connection points: 2
#     Edge 54, Type (0, 1), BuildingBlock: TEMPAE_clean_linker_10, # of connection points: 2
#     Edge 55, Type (0, 1), BuildingBlock: TEMPAE_clean_linker_10, # of connection points: 2
#     Edge 56, Type (0, 1), BuildingBlock: TEMPAE_clean_linker_10, # of connection points: 2
#     Edge 57, Type (0, 1), BuildingBlock: TEMPAE_clean_linker_10, # of connection points: 2
#     Edge 58, Type (0, 1), BuildingBlock: TEMPAE_clean_linker_10, # of connection points: 2
#     Edge 59, Type (0, 1), BuildingBlock: TEMPAE_clean_linker_10, # of connection points: 2
#     Edge 60, Type (0, 1), BuildingBlock: TEMPAE_clean_linker_10, # of connection points: 2
#     Edge 61, Type (0, 1), BuildingBlock: TEMPAE_clean_linker_10, # of connection points: 2
#     Edge 62, Type (0, 1), BuildingBlock: TEMPAE_clean_linker_10, # of connection points: 2
#     Edge 63, Type (0, 1), BuildingBlock: TEMPAE_clean_linker_10, # of connection points: 2
#     Edge 64, Type (0, 1), BuildingBlock: TEMPAE_clean_linker_10, # of connection points: 2
#     Edge 65, Type (0, 1), BuildingBlock: TEMPAE_clean_linker_10, # of connection points: 2
#     Edge 66, Type (0, 1), BuildingBlock: TEMPAE_clean_linker_10, # of connection points: 2
#     Edge 67, Type (0, 1), BuildingBlock: TEMPAE_clean_linker_10, # of connection points: 2
#     Edge 68, Type (0, 1), BuildingBlock: TEMPAE_clean_linker_10, # of connection points: 2
#     Edge 69, Type (0, 1), BuildingBlock: TEMPAE_clean_linker_10, # of connection points: 2
#     Edge 70, Type (0, 1), BuildingBlock: TEMPAE_clean_linker_10, # of connection points: 2
#     Edge 71, Type (0, 1), BuildingBlock: TEMPAE_clean_linker_10, # of connection points: 2
#     Edge 72, Type (0, 1), BuildingBlock: TEMPAE_clean_linker_10, # of connection points: 2
#     Edge 73, Type (0, 1), BuildingBlock: TEMPAE_clean_linker_10, # of connection points: 2
#     Edge 74, Type (0, 1), BuildingBlock: TEMPAE_clean_linker_10, # of connection points: 2
#     Edge 75, Type (0, 1), BuildingBlock: TEMPAE_clean_linker_10, # of connection points: 2
#     Edge 76, Type (0, 1), BuildingBlock: TEMPAE_clean_linker_10, # of connection points: 2
#     Edge 77, Type (0, 1), BuildingBlock: TEMPAE_clean_linker_10, # of connection points: 2
#     Edge 78, Type (0, 1), BuildingBlock: TEMPAE_clean_linker_10, # of connection points: 2
#     Edge 79, Type (0, 1), BuildingBlock: TEMPAE_clean_linker_10, # of connection points: 2
#     Edge 80, Type (0, 1), BuildingBlock: TEMPAE_clean_linker_10, # of connection points: 2
#     Edge 81, Type (0, 1), BuildingBlock: TEMPAE_clean_linker_10, # of connection points: 2
#     Edge 82, Type (0, 1), BuildingBlock: TEMPAE_clean_linker_10, # of connection points: 2
#     Edge 83, Type (0, 1), BuildingBlock: TEMPAE_clean_linker_10, # of connection points: 2
#     Edge 84, Type (0, 1), BuildingBlock: TEMPAE_clean_linker_10, # of connection points: 2
#     Edge 85, Type (0, 1), BuildingBlock: TEMPAE_clean_linker_10, # of connection points: 2
#     Edge 86, Type (0, 1), BuildingBlock: TEMPAE_clean_linker_10, # of connection points: 2
#     Edge 87, Type (0, 1), BuildingBlock: TEMPAE_clean_linker_10, # of connection points: 2
#     Edge 88, Type (0, 1), BuildingBlock: TEMPAE_clean_linker_10, # of connection points: 2
#     Edge 89, Type (0, 1), BuildingBlock: TEMPAE_clean_linker_10, # of connection points: 2
#     Edge 90, Type (0, 1), BuildingBlock: TEMPAE_clean_linker_10, # of connection points: 2
#     Edge 91, Type (0, 1), BuildingBlock: TEMPAE_clean_linker_10, # of connection points: 2
#     Edge 92, Type (0, 1), BuildingBlock: TEMPAE_clean_linker_10, # of connection points: 2
#     Edge 93, Type (0, 1), BuildingBlock: TEMPAE_clean_linker_10, # of connection points: 2
#     Edge 94, Type (0, 1), BuildingBlock: TEMPAE_clean_linker_10, # of connection points: 2
#     Edge 95, Type (0, 1), BuildingBlock: TEMPAE_clean_linker_10, # of connection points: 2
#     Edge 96, Type (0, 1), BuildingBlock: TEMPAE_clean_linker_10, # of connection points: 2
#     Edge 97, Type (0, 1), BuildingBlock: TEMPAE_clean_linker_10, # of connection points: 2
#     Edge 98, Type (0, 1), BuildingBlock: TEMPAE_clean_linker_10, # of connection points: 2
#     Edge 99, Type (0, 1), BuildingBlock: TEMPAE_clean_linker_10, # of connection points: 2
#     Edge 100, Type (0, 1), BuildingBlock: TEMPAE_clean_linker_10, # of connection points: 2
#     Edge 101, Type (0, 1), BuildingBlock: TEMPAE_clean_linker_10, # of connection points: 2
#     Edge 102, Type (0, 1), BuildingBlock: TEMPAE_clean_linker_10, # of connection points: 2
#     Edge 103, Type (0, 1), BuildingBlock: TEMPAE_clean_linker_10, # of connection points: 2
#     Edge 104, Type (0, 1), BuildingBlock: TEMPAE_clean_linker_10, # of connection points: 2
#     Edge 105, Type (0, 1), BuildingBlock: TEMPAE_clean_linker_10, # of connection points: 2
#     Edge 106, Type (0, 1), BuildingBlock: TEMPAE_clean_linker_10, # of connection points: 2
#     Edge 107, Type (0, 1), BuildingBlock: TEMPAE_clean_linker_10, # of connection points: 2
#     Edge 108, Type (0, 1), BuildingBlock: TEMPAE_clean_linker_10, # of connection points: 2
#     Edge 109, Type (0, 1), BuildingBlock: TEMPAE_clean_linker_10, # of connection points: 2
#     Edge 110, Type (0, 1), BuildingBlock: TEMPAE_clean_linker_10, # of connection points: 2
#     Edge 111, Type (0, 1), BuildingBlock: TEMPAE_clean_linker_10, # of connection points: 2
#     Edge 112, Type (0, 1), BuildingBlock: TEMPAE_clean_linker_10, # of connection points: 2
#     Edge 113, Type (0, 1), BuildingBlock: TEMPAE_clean_linker_10, # of connection points: 2
#     Edge 114, Type (0, 1), BuildingBlock: TEMPAE_clean_linker_10, # of connection points: 2
#     Edge 115, Type (0, 1), BuildingBlock: TEMPAE_clean_linker_10, # of connection points: 2
#     Edge 116, Type (0, 1), BuildingBlock: TEMPAE_clean_linker_10, # of connection points: 2
#     Edge 117, Type (0, 1), BuildingBlock: TEMPAE_clean_linker_10, # of connection points: 2
#     Edge 118, Type (0, 1), BuildingBlock: TEMPAE_clean_linker_10, # of connection points: 2
#     Edge 119, Type (0, 1), BuildingBlock: TEMPAE_clean_linker_10, # of connection points: 2
#     Edge 120, Type (0, 1), BuildingBlock: TEMPAE_clean_linker_10, # of connection points: 2
#     Edge 121, Type (0, 1), BuildingBlock: TEMPAE_clean_linker_10, # of connection points: 2
#     Edge 122, Type (0, 1), BuildingBlock: TEMPAE_clean_linker_10, # of connection points: 2
#     Edge 123, Type (0, 1), BuildingBlock: TEMPAE_clean_linker_10, # of connection points: 2
#     Edge 124, Type (0, 1), BuildingBlock: TEMPAE_clean_linker_10, # of connection points: 2
#     Edge 125, Type (0, 1), BuildingBlock: TEMPAE_clean_linker_10, # of connection points: 2
#     Edge 126, Type (0, 1), BuildingBlock: TEMPAE_clean_linker_10, # of connection points: 2
#     Edge 127, Type (0, 1), BuildingBlock: TEMPAE_clean_linker_10, # of connection points: 2
#     Edge 128, Type (0, 1), BuildingBlock: TEMPAE_clean_linker_10, # of connection points: 2
#     Edge 129, Type (0, 1), BuildingBlock: TEMPAE_clean_linker_10, # of connection points: 2
#     Edge 130, Type (0, 1), BuildingBlock: TEMPAE_clean_linker_10, # of connection points: 2
#     Edge 131, Type (0, 1), BuildingBlock: TEMPAE_clean_linker_10, # of connection points: 2
#     Edge 132, Type (0, 1), BuildingBlock: TEMPAE_clean_linker_10, # of connection points: 2
#     Edge 133, Type (0, 1), BuildingBlock: TEMPAE_clean_linker_10, # of connection points: 2
#     Edge 134, Type (0, 1), BuildingBlock: TEMPAE_clean_linker_10, # of connection points: 2
#     Edge 135, Type (0, 1), BuildingBlock: TEMPAE_clean_linker_10, # of connection points: 2
# Relax obj value: 0.238
# Max RMSD: 0.346
# Mean RMSD: 0.184
data_MOF--net-gar--node1-AZAVOO_clean_sbu_0--node2-NUHQIS_clean_sbu_0--edge1-TEMPAE_clean_linker_10
_symmetry_space_group_name_H-M    P1
_symmetry_Int_Tables_number       1
_symmetry_cell_setting            triclinic
loop_
_symmetry_equiv_pos_as_xyz
'x, y, z'
_cell_length_a     60.154181
_cell_length_b     59.484219
_cell_length_c     58.129281
_cell_angle_alpha  95.699919
_cell_angle_beta   97.13106
_cell_angle_gamma 102.20076
loop_
_atom_site_label
_atom_site_type_symbol
_atom_site_fract_x
_atom_site_fract_y
_atom_site_fract_z
_atom_type_partial_charge
Mg0 Mg 0.07094 0.28684 0.39635 0.0
O1 O 0.07223 0.32583 0.41935 0.0
O2 O 0.04282 0.31893 0.43976 0.0
Mg3 Mg 0.01952 0.28134 0.42947 0.0
C4 C 0.05987 0.33321 0.43416 0.0
C5 C 0.11549 0.28407 0.36333 0.0
O6 O 0.09766 0.27286 0.34808 0.0
O7 O 0.0674 0.25078 0.41752 0.0
O8 O 0.03849 0.25132 0.43802 0.0
O9 O 0.04223 0.28501 0.36249 0.0
O10 O 0.03187 0.28233 0.39553 0.0
C11 C 0.05429 0.24146 0.43198 0.0
C12 C 0.02547 0.28343 0.37406 0.0
O13 O 0.11118 0.29157 0.38382 0.0
Mg14 Mg 0.05157 0.80484 0.66777 0.0
O15 O 0.04788 0.76748 0.64366 0.0
O16 O 0.01674 0.76187 0.61716 0.0
Mg17 Mg 0.99787 0.79303 0.62533 0.0
C18 C 0.03426 0.7548 0.62606 0.0
C19 C 0.10898 0.82056 0.69633 0.0
O20 O 0.10526 0.84088 0.70358 0.0
O21 O 0.05353 0.83877 0.64413 0.0
O22 O 0.02174 0.82838 0.61783 0.0
O23 O 0.02849 0.80819 0.69861 0.0
O24 O 1.01139 0.80034 0.66396 0.0
C25 C 0.04039 0.8434 0.62647 0.0
C26 C 1.00901 0.80385 0.68562 0.0
O27 O 0.09252 0.80583 0.68278 0.0
Mg28 Mg 0.56843 0.7844 0.89465 0.0
O29 O 0.57167 0.82202 0.92096 0.0
O30 O 0.53989 0.81521 0.9377 0.0
Mg31 Mg 0.51653 0.77771 0.92525 0.0
C32 C 0.55818 0.82937 0.93445 0.0
C33 C 0.61402 0.78199 0.86339 0.0
O34 O 0.5966 0.76823 0.84936 0.0
O35 O 0.57108 0.75374 0.92224 0.0
O36 O 0.53778 0.75022 0.9362 0.0
O37 O 0.54428 0.79753 0.86546 0.0
O38 O 0.5298 0.77842 0.89149 0.0
C39 C 0.55612 0.74288 0.93424 0.0
C40 C 0.5259 0.78886 0.87368 0.0
O41 O 0.6093 0.79134 0.88299 0.0
Mg42 Mg 0.55139 0.30706 0.16677 0.0
O43 O 0.5494 0.26687 0.14431 0.0
O44 O 0.53319 0.26894 0.10908 0.0
Mg45 Mg 0.52333 0.29385 0.13678 0.0
C46 C 0.54316 0.25738 0.12273 0.0
C47 C 0.60187 0.30743 0.20237 0.0
O48 O 0.58942 0.31125 0.21877 0.0
O49 O 0.56178 0.33826 0.14096 0.0
O50 O 0.52841 0.3282 0.11876 0.0
O51 O 0.52611 0.2925 0.19346 0.0
O52 O 0.5119 0.31133 0.16759 0.0
C53 C 0.54729 0.3433 0.12496 0.0
C54 C 0.5094 0.30177 0.18632 0.0
O55 O 0.59206 0.30524 0.18088 0.0
Mg56 Mg 0.10877 0.8829 0.18756 0.0
O57 O 0.09947 0.84705 0.16507 0.0
O58 O 0.06123 0.8349 0.15532 0.0
Mg59 Mg 0.05057 0.86889 0.15901 0.0
C60 C 0.08153 0.83145 0.15614 0.0
C61 C 0.1568 0.8897 0.2106 0.0
O62 O 0.14847 0.90348 0.22456 0.0
O63 O 0.11031 0.90147 0.15592 0.0
O64 O 0.07915 0.87649 0.13689 0.0
O65 O 0.09687 0.86458 0.21617 0.0
O66 O 0.0751 0.87989 0.19112 0.0
C67 C 0.09563 0.89397 0.13764 0.0
C68 C 0.0767 0.86668 0.20719 0.0
O69 O 0.14523 0.88082 0.19091 0.0
Mg70 Mg 0.51453 0.7133 0.37624 0.0
O71 O 0.51338 0.74859 0.39509 0.0
O72 O 0.47984 0.74683 0.40826 0.0
Mg73 Mg 0.45973 0.70943 0.39828 0.0
C74 C 0.49977 0.75807 0.40573 0.0
C75 C 0.55672 0.74611 0.36929 0.0
O76 O 0.53972 0.75572 0.36242 0.0
O77 O 0.52028 0.70239 0.4112 0.0
O78 O 0.48656 0.69915 0.42437 0.0
O79 O 0.50095 0.72225 0.34316 0.0
O80 O 0.47915 0.70671 0.36837 0.0
C81 C 0.50769 0.69816 0.42694 0.0
C82 C 0.48106 0.71736 0.35005 0.0
O83 O 0.55228 0.72647 0.37662 0.0
Mg84 Mg 0.6144 0.38106 0.69289 0.0
O85 O 0.60802 0.35007 0.66443 0.0
O86 O 0.57024 0.34079 0.65104 0.0
Mg87 Mg 0.55224 0.36439 0.6718 0.0
C88 C 0.59051 0.33741 0.65092 0.0
C89 C 0.6713 0.38713 0.69029 0.0
O90 O 0.68835 0.40074 0.6828 0.0
O91 O 0.60816 0.40349 0.66514 0.0
O92 O 0.56998 0.39403 0.65448 0.0
O93 O 0.60881 0.35561 0.71921 0.0
O94 O 0.5816 0.36904 0.69964 0.0
C95 C 0.58989 0.40594 0.65318 0.0
C96 C 0.58717 0.3545 0.71287 0.0
O97 O 0.65184 0.39233 0.68806 0.0
Mg98 Mg 1.01094 0.20997 0.86979 0.0
O99 O 0.01432 0.24544 0.8913 0.0
O100 O 0.98259 0.24451 0.90795 0.0
Mg101 Mg 0.95906 0.20884 0.89679 0.0
C102 C 1.00238 0.25497 0.90428 0.0
C103 C 0.05329 0.22813 0.84963 0.0
O104 O 0.03687 0.22568 0.83188 0.0
O105 O 0.01754 0.19482 0.90226 0.0
O106 O 0.98592 0.1945 0.91902 0.0
O107 O 0.99586 0.22337 0.84005 0.0
O108 O 0.97551 0.20532 0.86506 0.0
C109 C 1.00601 0.19068 0.91882 0.0
C110 C 0.97674 0.21798 0.84824 0.0
O111 O 0.0487 0.22057 0.86849 0.0
Mg112 Mg 0.53695 0.12171 0.31055 0.0
O113 O 0.51076 0.08646 0.30752 0.0
O114 O 0.50032 0.08197 0.34265 0.0
Mg115 Mg 0.51615 0.11592 0.36612 0.0
C116 C 0.49966 0.0744 0.32118 0.0
C117 C 0.55235 0.11221 0.26546 0.0
O118 O 0.57208 0.12077 0.27903 0.0
O119 O 0.5078 0.13927 0.3081 0.0
O120 O 0.4938 0.1332 0.34133 0.0
O121 O 0.56413 0.10388 0.32138 0.0
O122 O 0.54513 0.12094 0.34582 0.0
C123 C 0.49284 0.14074 0.32147 0.0
C124 C 0.55909 0.10762 0.34216 0.0
O125 O 0.53426 0.11655 0.272 0.0
Mg126 Mg 0.33039 0.1575 0.5177 0.0
O127 O 0.33236 0.18211 0.55461 0.0
O128 O 0.36486 0.20882 0.55973 0.0
Mg129 Mg 0.38441 0.20087 0.5275 0.0
C130 C 0.34619 0.19982 0.56712 0.0
C131 C 0.27447 0.12431 0.51018 0.0
O132 O 0.28267 0.11033 0.49629 0.0
O133 O 0.32652 0.18505 0.48811 0.0
O134 O 0.36084 0.20966 0.49502 0.0
O135 O 0.35324 0.13284 0.53459 0.0
O136 O 0.36961 0.16183 0.519 0.0
C137 C 0.34101 0.20241 0.48238 0.0
C138 C 0.3722 0.14383 0.52885 0.0
O139 O 0.28841 0.14349 0.51999 0.0
Mg140 Mg 0.19859 0.06969 0.86517 0.0
O141 O 0.23106 0.09187 0.8574 0.0
O142 O 0.25448 0.10529 0.89073 0.0
Mg143 Mg 0.24184 0.07773 0.91302 0.0
C144 C 0.24876 0.10564 0.86902 0.0
C145 C 0.18779 0.0808 0.81382 0.0
O146 O 0.19898 0.10207 0.82217 0.0
O147 O 0.2113 0.03851 0.85889 0.0
O148 O 0.24374 0.04824 0.88421 0.0
O149 O 0.19099 0.10146 0.87876 0.0
O150 O 0.20478 0.07769 0.9014 0.0
C151 C 0.23083 0.03533 0.86659 0.0
C152 C 0.1926 0.09311 0.89847 0.0
O153 O 0.18537 0.06524 0.82721 0.0
Mg154 Mg 0.32836 0.89382 0.04748 0.0
O155 O 0.32289 0.87067 0.01139 0.0
O156 O 0.35478 0.85704 0.01204 0.0
Mg157 Mg 0.37976 0.871 0.04622 0.0
C158 C 0.33536 0.85876 1.00153 0.0
C159 C 0.28929 0.91027 0.06259 0.0
O160 O 0.30596 0.91492 0.08045 0.0
O161 O 0.32184 0.86364 0.06915 0.0
O162 O 0.35616 0.85464 0.07157 0.0
O163 O 0.34502 0.92435 0.03206 0.0
O164 O 0.36391 0.90087 0.04896 0.0
C165 C 0.33641 0.85295 0.07815 0.0
C166 C 0.36438 0.91889 0.03833 0.0
O167 O 0.29175 0.8981 0.04422 0.0
Mg168 Mg 0.28962 0.42591 0.03809 0.0
O169 O 0.28831 0.40064 1.00011 0.0
O170 O 0.31595 0.38072 0.00569 0.0
Mg171 Mg 0.3405 0.39559 0.04096 0.0
C172 C 0.29935 0.38544 0.99239 0.0
C173 C 0.24301 0.45424 0.02805 0.0
O174 O 0.25822 0.46845 0.01881 0.0
O175 O 0.28867 0.4008 0.07123 0.0
O176 O 0.3188 0.38449 0.07027 0.0
O177 O 0.31883 0.45862 0.03205 0.0
O178 O 0.32834 0.42806 0.04104 0.0
C179 C 0.30161 0.38776 0.08006 0.0
C180 C 0.33536 0.44851 0.03614 0.0
O181 O 0.24943 0.43631 0.03578 0.0
Mg182 Mg 0.80077 0.19138 0.01368 0.0
O183 O 0.8065 0.21234 0.0506 0.0
O184 O 0.84082 0.23632 0.05455 0.0
Mg185 Mg 0.85691 0.22926 0.02109 0.0
C186 C 0.82251 0.22814 0.06279 0.0
C187 C 0.74835 0.17153 0.99935 0.0
O188 O 0.75314 0.17573 0.97854 0.0
O189 O 0.79448 0.22059 0.99296 0.0
O190 O 0.8306 0.24075 0.99448 0.0
O191 O 0.81585 0.16463 0.02832 0.0
O192 O 0.83582 0.19319 0.01246 0.0
C193 C 0.8092 0.23636 0.98612 0.0
C194 C 0.83502 0.17428 0.0218 0.0
O195 O 0.76373 0.17827 0.0171 0.0
Mg196 Mg 0.09159 0.46515 0.2466 0.0
O197 O 0.11487 0.49637 0.2342 0.0
O198 O 0.1389 0.51457 0.26653 0.0
Mg199 Mg 0.12926 0.49849 0.29865 0.0
C200 C 0.13178 0.51241 0.24464 0.0
C201 C 0.07943 0.45265 0.19118 0.0
O202 O 0.07466 0.43812 0.17177 0.0
O203 O 0.1217 0.44818 0.25133 0.0
O204 O 0.14314 0.46836 0.28409 0.0
O205 O 0.06627 0.48715 0.25108 0.0
O206 O 0.09523 0.48527 0.27795 0.0
C207 C 0.1392 0.45215 0.26708 0.0
C208 C 0.07932 0.49548 0.2708 0.0
O209 O 0.08135 0.44481 0.21059 0.0
Mg210 Mg 0.78997 0.92695 0.53695 0.0
O211 O 0.7896 0.90171 0.49901 0.0
O212 O 0.81693 0.88179 0.50633 0.0
Mg213 Mg 0.84055 0.89571 0.54199 0.0
C214 C 0.8009 0.88639 0.49213 0.0
C215 C 0.74522 0.95756 0.53134 0.0
O216 O 0.76237 0.9739 0.52769 0.0
O217 O 0.79024 0.90436 0.57166 0.0
O218 O 0.8181 0.88474 0.57102 0.0
O219 O 0.82075 0.96036 0.53589 0.0
O220 O 0.82881 0.92823 0.54042 0.0
C221 C 0.80152 0.89003 0.58058 0.0
C222 C 0.83669 0.94931 0.53807 0.0
O223 O 0.74997 0.93756 0.53475 0.0
Mg224 Mg 0.91188 0.02939 0.205 0.0
O225 O 0.89456 0.99162 0.20639 0.0
O226 O 0.88488 0.98768 0.24223 0.0
Mg227 Mg 0.88471 0.02373 0.25764 0.0
C228 C 0.88711 0.97933 0.22177 0.0
C229 C 0.9389 0.0311 0.17031 0.0
O230 O 0.94824 0.04682 0.18836 0.0
O231 O 0.87805 0.03838 0.19195 0.0
O232 O 0.86687 0.0212 0.22059 0.0
O233 O 0.94326 0.02391 0.22523 0.0
O234 O 0.91617 0.03618 0.24223 0.0
C235 C 0.86822 0.03884 0.20993 0.0
C236 C 0.93534 0.02959 0.24404 0.0
O237 O 0.91827 0.0201 0.1691 0.0
Mg238 Mg 0.30229 0.6927 0.51442 0.0
O239 O 0.30772 0.71258 0.55191 0.0
O240 O 0.34278 0.73546 0.55678 0.0
Mg241 Mg 0.36056 0.72699 0.52473 0.0
C242 C 0.32393 0.72795 0.56444 0.0
C243 C 0.25763 0.66011 0.50611 0.0
O244 O 0.27238 0.65003 0.49669 0.0
O245 O 0.29909 0.72378 0.49467 0.0
O246 O 0.33666 0.7387 0.4963 0.0
O247 O 0.3151 0.66355 0.5281 0.0
O248 O 0.33717 0.69251 0.51501 0.0
C249 C 0.31573 0.73692 0.48734 0.0
C250 C 0.33499 0.67283 0.52292 0.0
O251 O 0.26427 0.68121 0.51513 0.0
Mg252 Mg 0.41801 0.51627 0.70785 0.0
O253 O 0.3931 0.48173 0.69238 0.0
O254 O 0.39096 0.49374 0.72782 0.0
Mg255 Mg 0.39182 0.5077 0.76475 0.0
C256 C 0.38358 0.47847 0.71032 0.0
C257 C 0.44641 0.53432 0.67807 0.0
O258 O 0.45623 0.53979 0.69997 0.0
O259 O 0.38972 0.53533 0.70774 0.0
O260 O 0.38025 0.53516 0.74425 0.0
O261 O 0.44603 0.4998 0.72066 0.0
O262 O 0.41908 0.50646 0.74151 0.0
C263 C 0.37932 0.54212 0.72402 0.0
C264 C 0.43843 0.50065 0.74054 0.0
O265 O 0.42537 0.52423 0.67331 0.0
Mg266 Mg 0.58992 0.95669 0.74527 0.0
O267 O 0.61315 0.9915 0.73778 0.0
O268 O 0.63107 0.01089 0.77285 0.0
Mg269 Mg 0.62606 0.9881 0.80158 0.0
C270 C 0.62609 0.00948 0.75066 0.0
C271 C 0.57361 0.95143 0.68918 0.0
O272 O 0.56602 0.93801 0.6692 0.0
O273 O 0.62004 0.9385 0.74348 0.0
O274 O 0.63221 0.96222 0.77552 0.0
O275 O 0.56545 0.97804 0.75552 0.0
O276 O 0.59321 0.97117 0.7806 0.0
C277 C 0.6358 0.94727 0.76049 0.0
C278 C 0.57768 0.98241 0.77604 0.0
O279 O 0.57691 0.94212 0.70755 0.0
Mg280 Mg 0.82951 0.65913 0.01798 0.0
O281 O 0.83234 0.6824 0.05578 0.0
O282 O 0.86255 0.71195 0.05873 0.0
Mg283 Mg 0.88398 0.70412 0.02817 0.0
C284 C 0.845 0.70149 0.06711 0.0
C285 C 0.77736 0.62593 0.02279 0.0
O286 O 0.79099 0.61348 0.03187 0.0
O287 O 0.83051 0.68318 0.98467 0.0
O288 O 0.86133 0.71231 0.99473 0.0
O289 O 0.852 0.62999 0.01837 0.0
O290 O 0.87003 0.66487 0.02258 0.0
C291 C 0.8433 0.70228 0.98017 0.0
C292 C 0.87184 0.64357 0.02122 0.0
O293 O 0.78701 0.64472 0.01511 0.0
Mg294 Mg 0.03426 0.62335 0.80906 0.0
O295 O 1.0083 0.58729 0.80335 0.0
O296 O 0.99579 0.58281 0.83786 0.0
Mg297 Mg 0.01364 0.61393 0.86442 0.0
C298 C 0.9957 0.57571 0.81637 0.0
C299 C 0.03245 0.61409 0.75334 0.0
O300 O 0.0324 0.62146 0.73278 0.0
O301 O 1.00426 0.63939 0.80915 0.0
O302 O 0.99111 0.63348 0.84284 0.0
O303 O 0.06245 0.60561 0.81767 0.0
O304 O 0.04162 0.61862 0.84291 0.0
C305 C 0.98998 0.64118 0.82313 0.0
C306 C 0.05634 0.60655 0.83828 0.0
O307 O 0.03249 0.62822 0.77104 0.0
Mg308 Mg 0.82849 0.39161 0.54782 0.0
O309 O 0.82331 0.36906 0.51147 0.0
O310 O 0.85464 0.35455 0.51226 0.0
Mg311 Mg 0.87941 0.36811 0.54681 0.0
C312 C 0.83549 0.35685 0.5016 0.0
C313 C 0.79243 0.41397 0.55863 0.0
O314 O 0.78985 0.39558 0.54324 0.0
O315 O 0.82134 0.36124 0.56905 0.0
O316 O 0.85554 0.35191 0.57199 0.0
O317 O 0.84617 0.42239 0.53324 0.0
O318 O 0.86387 0.39813 0.55032 0.0
C319 C 0.83571 0.35047 0.57832 0.0
C320 C 0.86518 0.41656 0.54026 0.0
O321 O 0.79097 0.39616 0.54396 0.0
Mg322 Mg 0.69068 0.56074 0.35395 0.0
O323 O 0.71646 0.58445 0.33657 0.0
O324 O 0.74393 0.60285 0.36595 0.0
Mg325 Mg 0.73873 0.58446 0.39727 0.0
C326 C 0.73468 0.59984 0.34466 0.0
C327 C 0.66385 0.54212 0.29904 0.0
O328 O 0.65112 0.52349 0.28592 0.0
O329 O 0.71 0.53377 0.35365 0.0
O330 O 0.74334 0.55161 0.3752 0.0
O331 O 0.67824 0.5914 0.36053 0.0
O332 O 0.70049 0.57883 0.38754 0.0
C333 C 0.73089 0.53467 0.3609 0.0
C334 C 0.68578 0.59137 0.38237 0.0
O335 O 0.6704 0.54084 0.32025 0.0
Tb336 Tb 0.03426 0.035 0.00851 0.0
Eu337 Eu 0.08942 0.05255 0.03432 0.0
C338 C 0.07267 0.03297 0.97947 0.0
C339 C 0.06327 1.00092 0.02612 0.0
C340 C 0.97568 0.04156 0.9951 0.0
C341 C 0.94137 0.05382 0.97989 0.0
C342 C 0.95615 0.03863 0.97829 0.0
C343 C 0.98042 0.05992 0.01337 0.0
C344 C 0.966 0.0753 0.01475 0.0
C345 C 0.94615 0.07236 0.99818 0.0
C346 C 0.99206 0.02667 0.99287 0.0
O347 O 0.03719 0.05758 0.04051 0.0
O348 O 0.06542 0.04442 0.06027 0.0
O349 O 0.07722 0.0853 0.03204 0.0
O350 O 0.04978 0.06894 1.00015 0.0
C351 C 0.04643 0.05172 0.05974 0.0
O352 O 0.11367 0.05318 0.06554 0.0
O353 O 0.12612 0.0668 0.03513 0.0
O354 O 0.08707 0.0484 0.99531 0.0
O355 O 0.05252 0.02162 0.98293 0.0
O356 O 0.04371 0.00729 0.02638 0.0
O357 O 0.08143 0.01487 0.02141 0.0
C358 C 0.0618 0.087 0.01468 0.0
O359 O 1.00819 0.03397 0.98055 0.0
O360 O 1.00027 0.02009 0.01231 0.0
C361 C 0.148 0.04518 0.05635 0.0
C362 C 0.17801 0.01486 0.05982 0.0
C363 C 0.18395 0.03699 0.07303 0.0
C364 C 0.16899 0.05203 0.07133 0.0
C365 C 0.14199 0.02314 0.04318 0.0
C366 C 0.15685 0.00811 0.04488 0.0
C367 C 0.13162 0.06022 0.05545 0.0
H368 H 0.92611 0.05084 0.96697 0.0
H369 H 0.95238 0.02466 0.96394 0.0
H370 H 0.99555 0.06266 0.02641 0.0
H371 H 0.97064 0.08968 0.0287 0.0
H372 H 0.19998 0.04253 0.08494 0.0
H373 H 0.17369 0.06886 0.08187 0.0
H374 H 0.12574 0.01751 0.03165 0.0
H375 H 0.15187 0.9913 0.0343 0.0
Tb376 Tb 0.32432 0.82161 0.29337 0.0
Eu377 Eu 0.29968 0.76797 0.27023 0.0
C378 C 0.27372 0.80759 0.27377 0.0
C379 C 0.30339 0.78426 0.32525 0.0
C380 C 0.35982 0.88201 0.30176 0.0
C381 C 0.36836 0.91588 0.28135 0.0
C382 C 0.35254 0.8972 0.28696 0.0
C383 C 0.38336 0.88557 0.31032 0.0
C384 C 0.39918 0.90429 0.30474 0.0
C385 C 0.39179 0.91992 0.29056 0.0
C386 C 0.34285 0.86324 0.30907 0.0
O387 O 0.35172 0.8052 0.28526 0.0
O388 O 0.3336 0.76852 0.29014 0.0
O389 O 0.31889 0.7836 0.24275 0.0
O390 O 0.32134 0.82203 0.25549 0.0
C391 C 0.35226 0.78403 0.28918 0.0
O392 O 0.3008 0.73186 0.25985 0.0
O393 O 0.26942 0.7439 0.25125 0.0
O394 O 0.27861 0.79227 0.25886 0.0
O395 O 0.28758 0.81587 0.29323 0.0
O396 O 0.31949 0.80254 0.32325 0.0
O397 O 0.29071 0.77076 0.30685 0.0
C398 C 0.32199 0.80539 0.239 0.0
O399 O 0.32289 0.85663 0.29579 0.0
O400 O 0.35036 0.84565 0.31608 0.0
C401 C 0.26517 0.70463 0.25644 0.0
C402 C 0.23273 0.66356 0.25691 0.0
C403 C 0.25215 0.66316 0.24598 0.0
C404 C 0.26835 0.68363 0.24579 0.0
C405 C 0.24672 0.70472 0.26911 0.0
C406 C 0.23048 0.68419 0.26929 0.0
C407 C 0.27905 0.72621 0.25103 0.0
H408 H 0.36216 0.9275 0.27021 0.0
H409 H 0.33452 0.89498 0.28007 0.0
H410 H 0.38952 0.87425 0.32186 0.0
H411 H 0.41705 0.9071 0.31242 0.0
H412 H 0.25406 0.64723 0.23646 0.0
H413 H 0.28253 0.68328 0.23605 0.0
H414 H 0.24408 0.72081 0.2776 0.0
H415 H 0.2155 0.68466 0.27776 0.0
Tb416 Tb 0.54009 0.02167 0.52759 0.0
Eu417 Eu 0.57367 0.07186 0.54201 0.0
C418 C 0.5528 0.04419 0.5815 0.0
C419 C 0.51788 0.06804 0.53505 0.0
C420 C 0.51801 0.96138 0.50112 0.0
C421 C 0.51724 0.92035 0.49916 0.0
C422 C 0.51245 0.9403 0.51018 0.0
C423 C 0.52866 0.96232 0.4809 0.0
C424 C 0.53325 0.94227 0.46971 0.0
C425 C 0.52759 0.92112 0.47878 0.0
C426 C 0.51412 0.98241 0.51397 0.0
O427 O 0.55769 0.0293 0.49818 0.0
O428 O 0.55822 0.06733 0.50444 0.0
O429 O 0.59875 0.04717 0.53896 0.0
O430 O 0.57402 0.01137 0.53036 0.0
C431 C 0.55814 0.04899 0.49025 0.0
O432 O 0.58905 0.10427 0.52984 0.0
O433 O 0.60118 0.09719 0.56442 0.0
O434 O 0.56515 0.06349 0.57668 0.0
O435 O 0.54246 0.02683 0.56535 0.0
O436 O 0.51598 0.04629 0.52523 0.0
O437 O 0.53837 0.08038 0.54533 0.0
C438 C 0.59537 0.02428 0.53474 0.0
O439 O 0.52587 0.98829 0.53488 0.0
O440 O 0.51412 1.00025 0.50257 0.0
C441 C 0.60103 0.13561 0.55948 0.0
C442 C 0.59946 0.18033 0.57819 0.0
C443 C 0.61731 0.17687 0.56576 0.0
C444 C 0.61808 0.1546 0.55646 0.0
C445 C 0.58306 0.13892 0.57171 0.0
C446 C 0.58232 0.16118 0.58109 0.0
C447 C 0.60209 0.11243 0.54976 0.0
H448 H 0.51239 0.90418 0.50631 0.0
H449 H 0.5045 0.9393 0.5259 0.0
H450 H 0.53356 0.97851 0.4738 0.0
H451 H 0.5413 0.94329 0.45407 0.0
H452 H 0.63083 0.19135 0.56349 0.0
H453 H 0.632 0.15218 0.54699 0.0
H454 H 0.56968 0.1243 0.57399 0.0
H455 H 0.56824 0.16347 0.59037 0.0
Tb456 Tb 0.2898 0.28933 0.76893 0.0
Eu457 Eu 0.34191 0.28887 0.7889 0.0
C458 C 0.32941 0.32774 0.76115 0.0
C459 C 0.31957 0.26791 0.73315 0.0
C460 C 0.23277 0.29801 0.77066 0.0
C461 C 0.1944 0.30245 0.77405 0.0
C462 C 0.2122 0.30285 0.76081 0.0
C463 C 0.23607 0.2942 0.79416 0.0
C464 C 0.21843 0.29408 0.80745 0.0
C465 C 0.19729 0.29741 0.79717 0.0
C466 C 0.2507 0.2962 0.75654 0.0
O467 O 0.28414 0.25742 0.78428 0.0
O468 O 0.32136 0.25691 0.79879 0.0
O469 O 0.32948 0.30117 0.82257 0.0
O470 O 0.29544 0.30796 0.80569 0.0
C471 C 0.29934 0.24773 0.79502 0.0
O472 O 0.36814 0.26907 0.79465 0.0
O473 O 0.37666 0.3063 0.80501 0.0
O474 O 0.34189 0.32444 0.7799 0.0
O475 O 0.31205 0.3117 0.75068 0.0
O476 O 0.29906 0.27026 0.7378 0.0
O477 O 0.33799 0.27523 0.7494 0.0
C478 C 0.31097 0.30937 0.82452 0.0
O479 O 0.26913 0.31283 0.7623 0.0
O480 O 0.25545 0.27574 0.75405 0.0
C481 C 0.40376 0.28945 0.78862 0.0
C482 C 0.44063 0.29254 0.76347 0.0
C483 C 0.43981 0.2799 0.78262 0.0
C484 C 0.42141 0.27838 0.79516 0.0
C485 C 0.40398 0.30123 0.76887 0.0
C486 C 0.42242 0.30287 0.75642 0.0
C487 C 0.38446 0.28756 0.80158 0.0
H488 H 0.17798 0.30482 0.76592 0.0
H489 H 0.20962 0.30597 0.74273 0.0
H490 H 0.25189 0.29026 0.80188 0.0
H491 H 0.2207 0.28971 0.82513 0.0
H492 H 0.45379 0.27196 0.78842 0.0
H493 H 0.42108 0.26883 0.81009 0.0
H494 H 0.39005 0.30933 0.76327 0.0
H495 H 0.42266 0.31251 0.74155 0.0
Tb496 Tb 0.05312 0.0293 0.50525 0.0
Eu497 Eu 0.05866 0.05757 0.55365 0.0
C498 C 0.10348 0.05777 0.5292 0.0
C499 C 0.05932 1.00239 0.55233 0.0
C500 C 0.03947 0.00864 0.44301 0.0
C501 C 0.04191 0.00939 0.40187 0.0
C502 C 0.05097 1.00526 0.42391 0.0
C503 C 0.019 0.01649 0.44003 0.0
C504 C 1.00984 0.02037 0.41805 0.0
C505 C 0.02119 0.01684 0.39877 0.0
C506 C 0.0495 1.00526 0.46624 0.0
O507 O 0.01633 0.02607 0.50939 0.0
O508 O 0.02094 0.03815 0.54839 0.0
O509 O 0.05484 0.08495 0.52846 0.0
O510 O 0.048 0.06284 0.49287 0.0
C511 C 1.00755 0.02757 0.52907 0.0
O512 O 0.04544 0.06854 0.58516 0.0
O513 O 0.0786 0.08664 0.5785 0.0
O514 O 0.09578 0.05602 0.54931 0.0
O515 O 0.08858 0.05133 0.50988 0.0
O516 O 0.05959 1.0029 0.52948 0.0
O517 O 0.05924 0.0218 0.56549 0.0
C518 C 0.05123 0.08357 0.50537 0.0
O519 O 0.06791 0.02067 0.4756 0.0
O520 O 0.03515 1.00089 0.48104 0.0
C521 C 0.0754 0.07931 0.617 0.0
C522 C 0.09626 0.0672 0.65828 0.0
C523 C 0.07222 0.0619 0.65278 0.0
C524 C 0.06183 0.06794 0.63224 0.0
C525 C 0.09944 0.08518 0.62297 0.0
C526 C 0.10977 0.07908 0.64338 0.0
C527 C 0.06479 0.08295 0.59396 0.0
H528 H 0.05112 0.00686 0.38731 0.0
H529 H 0.067 0.99962 0.42608 0.0
H530 H 1.01001 0.0196 0.45465 0.0
H531 H 0.99369 0.0258 0.41609 0.0
H532 H 0.06152 0.0529 0.66421 0.0
H533 H 0.04325 0.06326 0.62806 0.0
H534 H 0.11038 0.09408 0.61167 0.0
H535 H 0.12835 0.08391 0.64765 0.0
Tb536 Tb 0.30714 0.7724 0.78569 0.0
Eu537 Eu 0.32453 0.82357 0.7761 0.0
C538 C 0.30998 0.81216 0.82583 0.0
C539 C 0.27002 0.80018 0.76685 0.0
C540 C 0.31022 0.71445 0.79066 0.0
C541 C 0.31498 0.67517 0.78808 0.0
C542 C 0.30249 0.69145 0.79436 0.0
C543 C 0.33108 0.72147 0.7821 0.0
C544 C 0.34334 0.70527 0.77562 0.0
C545 C 0.33495 0.68205 0.77801 0.0
C546 C 0.29621 0.73122 0.79365 0.0
O547 O 0.3223 0.76867 0.75324 0.0
O548 O 0.31615 0.80205 0.74081 0.0
O549 O 0.35792 0.81061 0.78178 0.0
O550 O 0.34377 0.78169 0.80254 0.0
C551 C 0.31945 0.78119 0.73615 0.0
O552 O 0.32298 0.84981 0.75272 0.0
O553 O 0.34634 0.85836 0.78537 0.0
O554 O 0.32392 0.82606 0.81507 0.0
O555 O 0.29738 0.79247 0.81468 0.0
O556 O 0.27606 0.78009 0.7662 0.0
O557 O 0.28554 0.8194 0.77522 0.0
C558 C 0.36154 0.79564 0.79632 0.0
O559 O 0.3054 0.74847 0.80991 0.0
O560 O 0.2888 0.73824 0.77422 0.0
C561 C 0.32411 0.88465 0.77489 0.0
C562 C 0.29643 0.91554 0.78522 0.0
C563 C 0.30643 0.91593 0.7646 0.0
C564 C 0.32022 0.90051 0.75947 0.0
C565 C 0.31398 0.88415 0.79537 0.0
C566 C 0.30045 0.89959 0.80059 0.0
C567 C 0.33564 0.86633 0.76818 0.0
H568 H 0.30833 0.65707 0.78964 0.0
H569 H 0.28643 0.68596 0.80101 0.0
H570 H 0.33725 0.73927 0.77925 0.0
H571 H 0.3586 0.71058 0.76756 0.0
H572 H 0.30339 0.92795 0.75238 0.0
H573 H 0.32737 0.90058 0.74326 0.0
H574 H 0.31621 0.87156 0.80721 0.0
H575 H 0.29333 0.89916 0.81681 0.0
Tb576 Tb 0.56849 0.03971 0.05216 0.0
Eu577 Eu 0.55137 0.05372 1.00302 0.0
C578 C 0.56259 1.00223 1.00466 0.0
C579 C 0.60364 0.06317 0.02195 0.0
C580 C 0.56944 0.017 0.10786 0.0
C581 C 0.56141 0.99021 0.13613 0.0
C582 C 0.57341 0.99764 0.11818 0.0
C583 C 0.55221 0.0278 0.1143 0.0
C584 C 0.54044 0.02061 0.1323 0.0
C585 C 0.54547 1.00223 0.14404 0.0
C586 C 0.58201 0.02478 0.08915 0.0
O587 O 0.55718 0.07204 0.06439 0.0
O588 O 0.55628 0.08665 0.02964 0.0
O589 O 0.51826 0.03787 0.01425 0.0
O590 O 0.53169 0.02676 0.04922 0.0
C591 C 0.55593 0.08976 0.0524 0.0
O592 O 0.5491 0.08404 0.98574 0.0
O593 O 0.53631 0.04978 0.96633 0.0
O594 O 0.55161 0.01528 0.99242 0.0
O595 O 0.57275 0.01063 0.02636 0.0
O596 O 0.59769 0.06317 0.04279 0.0
O597 O 0.58864 0.05439 1.00343 0.0
C598 C 0.51499 0.02746 0.03272 0.0
O599 O 0.57485 0.01182 0.06923 0.0
O600 O 0.58521 0.04676 0.0869 0.0
C601 C 0.55395 0.07981 0.94679 0.0
C602 C 0.57446 0.09006 0.90748 0.0
C603 C 0.55628 0.10007 0.9129 0.0
C604 C 0.54595 0.0948 0.93244 0.0
C605 C 0.57386 0.07214 0.9431 0.0
C606 C 0.58412 0.07726 0.92348 0.0
C607 C 0.54128 0.07207 0.96536 0.0
H608 H 0.56546 0.97586 0.14463 0.0
H609 H 0.58611 0.98861 0.1127 0.0
H610 H 0.54832 0.04229 0.10592 0.0
H611 H 0.52859 0.03063 0.13799 0.0
H612 H 0.54863 0.10999 0.90077 0.0
H613 H 0.53094 0.10133 0.93557 0.0
H614 H 0.58057 0.06104 0.95455 0.0
H615 H 0.598 0.06918 0.91959 0.0
Tb616 Tb 0.32464 0.32001 0.29406 0.0
Eu617 Eu 0.30685 0.26977 0.26807 0.0
C618 C 0.32666 0.27663 0.32389 0.0
C619 C 0.3605 0.29721 0.26715 0.0
C620 C 0.3207 0.37809 0.30926 0.0
C621 C 0.28824 0.39291 0.31994 0.0
C622 C 0.30716 0.38349 0.32612 0.0
C623 C 0.31621 0.38432 0.28669 0.0
C624 C 0.29733 0.39374 0.28054 0.0
C625 C 0.28268 0.39725 0.29685 0.0
C626 C 0.3351 0.36123 0.31342 0.0
O627 O 0.31461 0.32743 0.25771 0.0
O628 O 0.29672 0.29133 0.239 0.0
O629 O 0.27661 0.27551 0.28701 0.0
O630 O 0.28657 0.3149 0.29373 0.0
C631 C 0.30378 0.3139 0.23834 0.0
O632 O 0.30543 0.24373 0.23833 0.0
O633 O 0.28725 0.2341 0.26676 0.0
O634 O 0.32552 0.26391 0.3036 0.0
O635 O 0.32482 0.29841 0.32368 0.0
O636 O 0.35781 0.31242 0.2844 0.0
O637 O 0.34288 0.28019 0.25801 0.0
C638 C 0.27165 0.29523 0.29465 0.0
O639 O 0.32581 0.34389 0.32365 0.0
O640 O 0.34425 0.35409 0.29574 0.0
C641 C 0.31124 0.21033 0.25367 0.0
C642 C 0.35 0.19176 0.26402 0.0
C643 C 0.34117 0.19258 0.24068 0.0
C644 C 0.3219 0.20186 0.23554 0.0
C645 C 0.31909 0.2077 0.27686 0.0
C646 C 0.33831 0.19856 0.28197 0.0
C647 C 0.29647 0.22675 0.24919 0.0
H648 H 0.27715 0.39539 0.33285 0.0
H649 H 0.3101 0.37871 0.34356 0.0
H650 H 0.32628 0.38047 0.27322 0.0
H651 H 0.29365 0.39739 0.26274 0.0
H652 H 0.34998 0.18742 0.22658 0.0
H653 H 0.3164 0.20402 0.21759 0.0
H654 H 0.31144 0.21418 0.29132 0.0
H655 H 0.34464 0.19773 0.30008 0.0
Tb656 Tb 0.55319 0.53022 0.00704 0.0
Eu657 Eu 0.55745 0.55817 0.05653 0.0
C658 C 0.60389 0.55955 0.032 0.0
C659 C 0.55997 0.50248 0.05271 0.0
C660 C 0.54358 0.51536 0.94381 0.0
C661 C 0.55111 0.51747 0.90417 0.0
C662 C 0.55777 0.51319 0.9268 0.0
C663 C 0.52355 0.52361 0.93853 0.0
C664 C 0.51673 0.52757 0.91587 0.0
C665 C 0.53001 0.5236 0.89834 0.0
C666 C 0.54961 0.5087 0.96686 0.0
O667 O 0.51646 0.52347 0.01189 0.0
O668 O 0.51872 0.54241 0.04847 0.0
O669 O 0.55264 0.58597 0.03209 0.0
O670 O 0.55086 0.56523 0.99639 0.0
C671 C 0.50652 0.52858 0.03009 0.0
O672 O 0.54774 0.56088 0.09142 0.0
O673 O 0.57014 0.59007 0.08061 0.0
O674 O 0.59533 0.56414 0.05129 0.0
O675 O 0.59042 0.54677 0.01363 0.0
O676 O 0.55661 0.5023 0.02969 0.0
O677 O 0.56282 0.52246 0.0663 0.0
C678 C 0.5518 0.58538 0.00913 0.0
O679 O 0.5691 0.52023 0.97865 0.0
O680 O 0.53335 0.506 0.97976 0.0
C681 C 0.5771 0.58331 0.11948 0.0
C682 C 0.60652 0.58546 0.16109 0.0
C683 C 0.5851 0.59107 0.16162 0.0
C684 C 0.57043 0.59006 0.14084 0.0
C685 C 0.59848 0.57747 0.11896 0.0
C686 C 0.61321 0.57863 0.13975 0.0
C687 C 0.56124 0.58126 0.09791 0.0
H688 H 0.56178 0.51473 0.89092 0.0
H689 H 0.57357 0.50741 0.9308 0.0
H690 H 0.51259 0.52603 0.95159 0.0
H691 H 0.50033 0.53219 0.9118 0.0
H692 H 0.57968 0.596 0.17813 0.0
H693 H 0.55382 0.59424 0.14142 0.0
H694 H 0.60364 0.5718 0.10254 0.0
H695 H 0.62958 0.57386 0.13924 0.0
Tb696 Tb 0.80659 0.26982 0.28513 0.0
Eu697 Eu 0.82553 0.32147 0.27591 0.0
C698 C 0.8106 0.30997 0.32557 0.0
C699 C 0.76982 0.29796 0.26545 0.0
C700 C 0.80889 0.21158 0.29273 0.0
C701 C 0.81295 0.17242 0.29472 0.0
C702 C 0.80031 0.18926 0.29788 0.0
C703 C 0.83067 0.21743 0.28572 0.0
C704 C 0.84333 0.20068 0.28268 0.0
C705 C 0.83416 0.17794 0.28643 0.0
C706 C 0.79512 0.22881 0.29359 0.0
O707 O 0.82027 0.26565 0.25181 0.0
O708 O 0.81792 0.30066 0.24043 0.0
O709 O 0.85865 0.30829 0.28279 0.0
O710 O 0.84344 0.2776 0.30102 0.0
C711 C 0.81914 0.27914 0.23525 0.0
O712 O 0.82896 0.34767 0.25204 0.0
O713 O 0.8445 0.35697 0.28813 0.0
O714 O 0.82471 0.32357 0.31476 0.0
O715 O 0.79767 0.29041 0.31443 0.0
O716 O 0.77484 0.27761 0.26743 0.0
O717 O 0.78613 0.31713 0.27153 0.0
C718 C 0.86162 0.29216 0.29618 0.0
O719 O 0.80348 0.24635 0.30974 0.0
O720 O 0.78922 0.23538 0.27345 0.0
C721 C 0.82455 0.38205 0.2715 0.0
C722 C 0.79968 0.41541 0.28176 0.0
C723 C 0.8203 0.42159 0.27249 0.0
C724 C 0.83275 0.40485 0.26733 0.0
C725 C 0.80347 0.37581 0.27972 0.0
C726 C 0.79095 0.39225 0.2845 0.0
C727 C 0.83796 0.36455 0.26875 0.0
H728 H 0.80569 0.15481 0.29756 0.0
H729 H 0.78358 0.18469 0.30343 0.0
H730 H 0.83741 0.23467 0.28159 0.0
H731 H 0.85947 0.20509 0.2759 0.0
H732 H 0.82735 0.43948 0.27043 0.0
H733 H 0.84905 0.40984 0.261 0.0
H734 H 0.79713 0.35843 0.28349 0.0
H735 H 0.77499 0.38709 0.29144 0.0
Tb736 Tb 0.0678 0.54063 0.55538 0.0
Eu737 Eu 0.04832 0.5541 0.50539 0.0
C738 C 0.06292 0.5042 0.50703 0.0
C739 C 0.10275 0.56639 0.52449 0.0
C740 C 0.06823 0.51596 0.61091 0.0
C741 C 0.06852 0.50922 0.65126 0.0
C742 C 0.08038 0.51451 0.63262 0.0
C743 C 0.0441 0.51012 0.60732 0.0
C744 C 0.03224 0.50487 0.62591 0.0
C745 C 0.04442 0.50556 0.6483 0.0
C746 C 0.08064 0.52528 0.59265 0.0
O747 O 0.06361 0.57662 0.56642 0.0
O748 O 0.0446 0.58383 0.53223 0.0
O749 O 0.01953 0.52897 0.51535 0.0
O750 O 0.03084 0.53418 0.55488 0.0
C751 C 0.05322 0.59045 0.55451 0.0
O752 O 0.03995 0.58171 0.48647 0.0
O753 O 0.0313 0.5465 0.4692 0.0
O754 O 0.05998 0.52068 0.49399 0.0
O755 O 0.06397 0.50844 0.53006 0.0
O756 O 0.0994 0.55693 0.54357 0.0
O757 O 0.08604 0.56687 0.50804 0.0
C758 C 0.01548 0.52573 0.5364 0.0
O759 O 0.07493 0.51289 0.57229 0.0
O760 O 0.08189 0.54714 0.59104 0.0
C761 C 0.04568 0.57597 0.44786 0.0
C762 C 0.06897 0.58479 0.40989 0.0
C763 C 0.04558 0.58542 0.40847 0.0
C764 C 0.03397 0.58102 0.42744 0.0
C765 C 0.06934 0.57702 0.44991 0.0
C766 C 0.081 0.58163 0.43113 0.0
C767 C 0.03333 0.56832 0.46668 0.0
H768 H 0.0783 0.51028 0.66844 0.0
H769 H 0.09902 0.51884 0.63554 0.0
H770 H 0.03445 0.5109 0.59054 0.0
H771 H 0.01367 0.50231 0.6233 0.0
H772 H 0.0358 0.58745 0.39216 0.0
H773 H 0.0157 0.58037 0.42575 0.0
H774 H 0.07851 0.57312 0.46563 0.0
H775 H 0.09901 0.58107 0.43268 0.0
Tb776 Tb 0.7904 0.79002 0.26909 0.0
Eu777 Eu 0.84111 0.78892 0.28905 0.0
C778 C 0.83031 0.82846 0.26138 0.0
C779 C 0.82029 0.7707 0.23306 0.0
C780 C 0.73148 0.79286 0.27156 0.0
C781 C 0.69434 0.80051 0.27593 0.0
C782 C 0.71154 0.79921 0.26219 0.0
C783 C 0.7347 0.78896 0.29504 0.0
C784 C 0.71763 0.7903 0.30875 0.0
C785 C 0.69705 0.79542 0.29909 0.0
C786 C 0.74877 0.78961 0.25693 0.0
O787 O 0.79286 0.75463 0.27136 0.0
O788 O 0.81726 0.76317 0.30507 0.0
O789 O 0.83127 0.81359 0.31709 0.0
O790 O 0.79261 0.79909 0.30795 0.0
C791 C 0.80093 0.7486 0.29102 0.0
O792 O 0.86524 0.76748 0.29772 0.0
O793 O 0.87616 0.80512 0.30509 0.0
O794 O 0.8441 0.81439 0.26341 0.0
O795 O 0.81059 0.8245 0.26902 0.0
O796 O 0.80358 0.78168 0.23586 0.0
O797 O 0.83458 0.76868 0.25169 0.0
C798 C 0.81047 0.8116 0.32294 0.0
O799 O 0.76531 0.80772 0.25723 0.0
O800 O 0.7565 0.77101 0.25936 0.0
C801 C 0.90129 0.78494 0.28987 0.0
C802 C 0.93812 0.78789 0.26473 0.0
C803 C 0.94065 0.78313 0.28799 0.0
C804 C 0.92226 0.78169 0.30055 0.0
C805 C 0.89831 0.78843 0.26625 0.0
C806 C 0.91668 0.78989 0.2537 0.0
C807 C 0.88255 0.78541 0.30328 0.0
H808 H 0.6786 0.80466 0.26823 0.0
H809 H 0.70899 0.80244 0.24414 0.0
H810 H 0.74994 0.78383 0.3025 0.0
H811 H 0.71999 0.78596 0.32643 0.0
H812 H 0.95714 0.78155 0.29671 0.0
H813 H 0.9246 0.7788 0.31871 0.0
H814 H 0.88204 0.79087 0.25782 0.0
H815 H 0.91451 0.79392 0.23589 0.0
Tb816 Tb 0.8191 0.3215 0.79265 0.0
Eu817 Eu 0.79654 0.26615 0.77112 0.0
C818 C 0.76604 0.30366 0.77605 0.0
C819 C 0.79952 0.28402 0.82473 0.0
C820 C 0.85692 0.38146 0.80425 0.0
C821 C 0.8697 0.4195 0.79214 0.0
C822 C 0.85196 0.40125 0.79538 0.0
C823 C 0.88008 0.38016 0.80952 0.0
C824 C 0.89784 0.39857 0.80653 0.0
C825 C 0.8928 0.41849 0.798 0.0
C826 C 0.83785 0.36309 0.80901 0.0
O827 O 0.8475 0.30718 0.78377 0.0
O828 O 0.83199 0.27001 0.78959 0.0
O829 O 0.81473 0.28242 0.74317 0.0
O830 O 0.81558 0.32078 0.75478 0.0
C831 C 0.84963 0.28665 0.7884 0.0
O832 O 0.79575 0.22967 0.77363 0.0
O833 O 0.77593 0.23934 0.74396 0.0
O834 O 0.7691 0.28536 0.76345 0.0
O835 O 0.78219 0.31658 0.79219 0.0
O836 O 0.81629 0.30134 0.82211 0.0
O837 O 0.78582 0.27099 0.80676 0.0
C838 C 0.81699 0.304 0.73885 0.0
O839 O 0.8196 0.35702 0.79314 0.0
O840 O 0.84327 0.34518 0.81756 0.0
C841 C 0.76307 0.20197 0.75439 0.0
C842 C 0.7277 0.16232 0.75196 0.0
C843 C 0.74724 0.16112 0.74148 0.0
C844 C 0.76485 0.18081 0.74278 0.0
C845 C 0.74376 0.20321 0.76535 0.0
C846 C 0.72613 0.18335 0.76423 0.0
C847 C 0.78146 0.2224 0.75429 0.0
H848 H 0.86535 0.43481 0.78587 0.0
H849 H 0.83432 0.40282 0.79139 0.0
H850 H 0.88454 0.36515 0.81637 0.0
H851 H 0.91553 0.39737 0.81113 0.0
H852 H 0.74877 0.14494 0.73215 0.0
H853 H 0.77976 0.1796 0.73441 0.0
H854 H 0.74224 0.2195 0.77445 0.0
H855 H 0.71112 0.18448 0.77244 0.0
Tb856 Tb 0.82357 0.8209 0.79275 0.0
Eu857 Eu 0.80618 0.77072 0.76673 0.0
C858 C 0.82538 0.77806 0.82313 0.0
C859 C 0.85908 0.79777 0.76595 0.0
C860 C 0.82138 0.87977 0.80846 0.0
C861 C 0.7952 0.90197 0.82268 0.0
C862 C 0.81282 0.89027 0.82709 0.0
C863 C 0.81308 0.88244 0.78542 0.0
C864 C 0.79544 0.89392 0.78103 0.0
C865 C 0.78586 0.90321 0.79956 0.0
C866 C 0.83463 0.86204 0.8126 0.0
O867 O 0.8067 0.82815 0.7585 0.0
O868 O 0.80376 0.79333 0.73683 0.0
O869 O 0.77233 0.77727 0.77809 0.0
O870 O 0.78704 0.8129 0.79955 0.0
C871 C 0.80371 0.81558 0.73775 0.0
O872 O 0.80696 0.74631 0.7363 0.0
O873 O 0.78779 0.7344 0.76334 0.0
O874 O 0.81193 0.76454 0.80526 0.0
O875 O 0.83521 0.79962 0.82015 0.0
O876 O 0.85236 0.81686 0.77269 0.0
O877 O 0.84572 0.77768 0.76829 0.0
C878 C 0.76964 0.79473 0.7927 0.0
O879 O 0.82404 0.8448 0.82211 0.0
O880 O 0.844 0.85472 0.79517 0.0
C881 C 0.81364 0.71315 0.75098 0.0
C882 C 0.84879 0.68957 0.75987 0.0
C883 C 0.83465 0.68482 0.73804 0.0
C884 C 0.81701 0.69659 0.73361 0.0
C885 C 0.82804 0.71784 0.77264 0.0
C886 C 0.84535 0.70611 0.77707 0.0
C887 C 0.79803 0.72846 0.74601 0.0
H888 H 0.78828 0.90922 0.83731 0.0
H889 H 0.81873 0.88815 0.84496 0.0
H890 H 0.81909 0.87436 0.77061 0.0
H891 H 0.78838 0.89421 0.76301 0.0
H892 H 0.83735 0.67219 0.72453 0.0
H893 H 0.8065 0.69329 0.71657 0.0
H894 H 0.82641 0.73114 0.78599 0.0
H895 H 0.85647 0.71038 0.79381 0.0
Tb896 Tb 0.53433 0.53301 0.50891 0.0
Eu897 Eu 0.59065 0.55209 0.53401 0.0
C898 C 0.57423 0.53208 0.47887 0.0
C899 C 0.5652 0.50023 0.52636 0.0
C900 C 0.47587 0.54021 0.49581 0.0
C901 C 0.43961 0.55 0.4824 0.0
C902 C 0.45429 0.53458 0.48171 0.0
C903 C 0.48287 0.56168 0.51007 0.0
C904 C 0.46825 0.57697 0.51085 0.0
C905 C 0.44632 0.57117 0.49731 0.0
C906 C 0.4915 0.52424 0.49541 0.0
O907 O 0.53933 0.55639 0.54095 0.0
O908 O 0.56822 0.54394 0.56067 0.0
O909 O 0.57835 0.5844 0.52795 0.0
O910 O 0.54608 0.56761 0.50056 0.0
C911 C 0.54958 0.55159 0.56036 0.0
O912 O 0.61545 0.55205 0.56458 0.0
O913 O 0.62679 0.56886 0.53521 0.0
O914 O 0.59015 0.54307 0.4962 0.0
O915 O 0.55229 0.52471 0.4803 0.0
O916 O 0.54479 0.50496 0.52564 0.0
O917 O 0.58223 0.51461 0.52012 0.0
C918 C 0.56189 0.58561 0.5113 0.0
O919 O 0.50678 0.52822 0.48142 0.0
O920 O 0.50073 0.52067 0.51582 0.0
C921 C 0.65084 0.54772 0.55475 0.0
C922 C 0.68144 0.51809 0.55656 0.0
C923 C 0.67891 0.53135 0.577 0.0
C924 C 0.66379 0.54617 0.57607 0.0
C925 C 0.65334 0.53442 0.53426 0.0
C926 C 0.66874 0.51987 0.53514 0.0
C927 C 0.63296 0.56109 0.55471 0.0
H928 H 0.42279 0.54509 0.47181 0.0
H929 H 0.44874 0.51823 0.47037 0.0
H930 H 0.49964 0.56658 0.52076 0.0
H931 H 0.47405 0.59333 0.52217 0.0
H932 H 0.6886 0.53017 0.59367 0.0
H933 H 0.66173 0.55598 0.59209 0.0
H934 H 0.64306 0.53488 0.5177 0.0
H935 H 0.67033 0.50955 0.51923 0.0
Tb936 Tb 0.03902 0.52043 0.02343 0.0
Eu937 Eu 0.07258 0.57039 0.03983 0.0
C938 C 0.05195 0.54069 0.07776 0.0
C939 C 0.01699 0.56716 0.03166 0.0
C940 C 0.01561 0.45992 0.99653 0.0
C941 C 1.00826 0.41797 0.99234 0.0
C942 C 1.00537 0.43878 1.00351 0.0
C943 C 0.02937 0.46006 0.97862 0.0
C944 C 0.03231 0.43917 0.96748 0.0
C945 C 0.02156 0.41805 0.97417 0.0
C946 C 0.01242 0.48156 0.00877 0.0
O947 O 0.05689 0.52937 0.99453 0.0
O948 O 0.05808 0.56751 1.00217 0.0
O949 O 0.09741 0.54545 0.03649 0.0
O950 O 0.07275 0.50979 0.02598 0.0
C951 C 0.05754 0.54946 0.98735 0.0
O952 O 0.08955 0.60321 0.02961 0.0
O953 O 0.09963 0.59444 0.06403 0.0
O954 O 0.06147 0.56133 0.07341 0.0
O955 O 0.04384 0.52315 0.06121 0.0
O956 O 0.01494 0.54521 0.02234 0.0
O957 O 0.03743 0.57964 0.04178 0.0
C958 C 0.09409 0.52262 0.0314 0.0
O959 O 0.02323 0.48721 0.03006 0.0
O960 O 0.01411 0.49937 0.99716 0.0
C961 C 0.10025 0.63381 0.06089 0.0
C962 C 0.09714 0.6777 0.08104 0.0
C963 C 0.09316 0.67194 0.05665 0.0
C964 C 0.09478 0.65019 0.04664 0.0
C965 C 0.1045 0.63971 0.08529 0.0
C966 C 0.10289 0.66145 0.09527 0.0
C967 C 0.10132 0.61061 0.05036 0.0
H968 H 0.99998 0.40175 0.99777 0.0
H969 H 0.99507 0.43838 0.01755 0.0
H970 H 0.03773 0.47623 0.97319 0.0
H971 H 0.04256 0.43946 0.9534 0.0
H972 H 0.08849 0.68414 0.04532 0.0
H973 H 0.09155 0.64617 0.02777 0.0
H974 H 0.10899 0.62753 0.09673 0.0
H975 H 0.10636 0.66563 0.11413 0.0
C976 C 0.01378 0.18699 0.96104 0.0
C977 C 0.01621 0.1803 0.93791 0.0
C978 C 0.02367 0.17685 0.97922 0.0
C979 C 0.03539 0.15924 0.97376 0.0
C980 C 0.03797 0.15259 0.95034 0.0
C981 C 0.02871 0.16363 0.93272 0.0
C982 C 0.02057 0.18405 1.00402 0.0
C983 C 0.04896 0.1327 0.94359 0.0
C984 C 0.07178 0.12909 0.01107 0.0
C985 C 0.05539 0.10883 0.01182 0.0
C986 C 0.06493 0.14757 1.0012 0.0
C987 C 0.04156 0.1449 0.99154 0.0
C988 C 0.02477 0.12542 0.99488 0.0
C989 C 0.03201 0.10789 0.00562 0.0
C990 C 0.0829 0.16884 0.999 0.0
C991 C 0.99945 0.12165 0.98542 0.0
H992 H 1.00425 0.20012 0.96487 0.0
H993 H 0.03037 0.15848 0.91469 0.0
H994 H 1.00684 0.17079 0.00924 0.0
H995 H 0.03663 0.18524 0.01623 0.0
H996 H 0.01554 0.20099 0.00592 0.0
H997 H 0.04936 0.12977 0.92448 0.0
H998 H 0.06684 0.13606 0.95278 0.0
H999 H 0.03926 0.11647 0.94888 0.0
H1000 H 0.08987 0.12977 0.01632 0.0
H1001 H 0.01946 0.09232 0.0071 0.0
H1002 H 0.07604 0.18469 1.00155 0.0
H1003 H 0.08777 0.1675 0.98121 0.0
H1004 H 0.09866 0.17073 0.01187 0.0
H1005 H 0.99055 0.12851 0.99923 0.0
H1006 H 0.99134 0.10288 0.98075 0.0
H1007 H 0.99618 0.13034 0.96975 0.0
C1008 C 0.19427 0.89094 0.23444 0.0
C1009 C 0.17409 0.87817 0.22057 0.0
C1010 C 0.2104 0.87958 0.24454 0.0
C1011 C 0.20549 0.85504 0.24129 0.0
C1012 C 0.18465 0.84209 0.22804 0.0
C1013 C 0.16931 0.85388 0.21747 0.0
C1014 C 0.23292 0.89373 0.25802 0.0
C1015 C 0.1787 0.81585 0.22482 0.0
C1016 C 0.25442 0.82503 0.24308 0.0
C1017 C 0.25609 0.81948 0.26593 0.0
C1018 C 0.23818 0.83703 0.23499 0.0
C1019 C 0.22297 0.84289 0.25003 0.0
C1020 C 0.22433 0.8369 0.27305 0.0
C1021 C 0.24136 0.82556 0.28096 0.0
C1022 C 0.23744 0.84353 0.21045 0.0
C1023 C 0.20767 0.84217 0.28909 0.0
H1024 H 0.19761 0.90973 0.23692 0.0
H1025 H 0.15327 0.84408 0.20718 0.0
H1026 H 0.23546 0.88884 0.27592 0.0
H1027 H 0.24738 0.88998 0.24929 0.0
H1028 H 0.23381 0.91266 0.25933 0.0
H1029 H 0.16083 0.80853 0.21586 0.0
H1030 H 0.19066 0.80918 0.2143 0.0
H1031 H 0.18073 0.80933 0.24202 0.0
H1032 H 0.26621 0.82044 0.23169 0.0
H1033 H 0.24288 0.82101 0.29861 0.0
H1034 H 0.23914 0.86252 0.21091 0.0
H1035 H 0.22064 0.83488 0.19982 0.0
H1036 H 0.25131 0.83854 0.20152 0.0
H1037 H 0.2095 0.86118 0.29265 0.0
H1038 H 0.21044 0.83525 0.30603 0.0
H1039 H 0.18974 0.83456 0.28053 0.0
C1040 C 0.49322 0.79337 0.42828 0.0
C1041 C 0.5075 0.78276 0.41572 0.0
C1042 C 0.50016 0.81669 0.43792 0.0
C1043 C 0.52193 0.82977 0.4349 0.0
C1044 C 0.53659 0.81922 0.42245 0.0
C1045 C 0.5292 0.79578 0.41299 0.0
C1046 C 0.48407 0.82736 0.45122 0.0
C1047 C 0.55995 0.8327 0.41904 0.0
C1048 C 0.5228 0.89356 0.44241 0.0
C1049 C 0.53091 0.89947 0.46636 0.0
C1050 C 0.52161 0.87125 0.43131 0.0
C1051 C 0.52876 0.85463 0.44454 0.0
C1052 C 0.53894 0.86118 0.4682 0.0
C1053 C 0.53982 0.88358 0.47888 0.0
C1054 C 0.51079 0.8649 0.40599 0.0
C1055 C 0.54709 0.84404 0.48279 0.0
H1056 H 0.47652 0.78346 0.43061 0.0
H1057 H 0.54044 0.78771 0.40343 0.0
H1058 H 0.49261 0.83432 0.46931 0.0
H1059 H 0.47974 0.84209 0.44272 0.0
H1060 H 0.46782 0.8147 0.45212 0.0
H1061 H 0.56942 0.82181 0.4092 0.0
H1062 H 0.55803 0.84754 0.40942 0.0
H1063 H 0.57047 0.84001 0.43625 0.0
H1064 H 0.5159 0.90583 0.43271 0.0
H1065 H 0.54651 0.88834 0.49732 0.0
H1066 H 0.49334 0.85364 0.40491 0.0
H1067 H 0.52101 0.85495 0.39613 0.0
H1068 H 0.50919 0.88045 0.39736 0.0
H1069 H 0.53198 0.83196 0.48729 0.0
H1070 H 0.5582 0.8528 0.49931 0.0
H1071 H 0.55678 0.83349 0.47289 0.0
C1072 C 0.5504 0.32573 0.70115 0.0
C1073 C 0.56893 0.33628 0.71859 0.0
C1074 C 0.52948 0.31429 0.70678 0.0
C1075 C 0.52754 0.31253 0.73047 0.0
C1076 C 0.54715 0.32028 0.74789 0.0
C1077 C 0.56778 0.33238 0.74173 0.0
C1078 C 0.50891 0.30675 0.68768 0.0
C1079 C 0.54568 0.31793 0.77328 0.0
C1080 C 0.47191 0.31978 0.75008 0.0
C1081 C 0.46157 0.29696 0.75255 0.0
C1082 C 0.49328 0.32495 0.74249 0.0
C1083 C 0.50448 0.30678 0.73737 0.0
C1084 C 0.49369 0.28356 0.73888 0.0
C1085 C 0.47224 0.2789 0.74656 0.0
C1086 C 0.50409 0.34993 0.74053 0.0
C1087 C 0.50499 0.26382 0.7329 0.0
H1088 H 0.55164 0.32766 0.68314 0.0
H1089 H 0.58225 0.34032 0.75518 0.0
H1090 H 0.49789 0.28997 0.69014 0.0
H1091 H 0.49827 0.31988 0.6883 0.0
H1092 H 0.51415 0.30513 0.67003 0.0
H1093 H 0.56299 0.32103 0.78386 0.0
H1094 H 0.53651 0.33076 0.78044 0.0
H1095 H 0.53576 0.3004 0.77517 0.0
H1096 H 0.46369 0.33374 0.75497 0.0
H1097 H 0.46396 0.26122 0.74828 0.0
H1098 H 0.50826 0.35157 0.72262 0.0
H1099 H 0.52043 0.35574 0.75284 0.0
H1100 H 0.49266 0.36179 0.74447 0.0
H1101 H 0.50908 0.26373 0.71481 0.0
H1102 H 0.49394 0.24669 0.7344 0.0
H1103 H 0.52149 0.26622 0.74475 0.0
C1104 C 0.02782 0.87291 0.60024 0.0
C1105 C 0.04513 0.8671 0.61601 0.0
C1106 C 0.03065 0.89444 0.59046 0.0
C1107 C 0.05168 0.9117 0.59562 0.0
C1108 C 0.06942 0.90599 0.61136 0.0
C1109 C 0.06594 0.88437 0.62137 0.0
C1110 C 1.01063 0.89884 0.5746 0.0
C1111 C 0.09239 0.92287 0.61774 0.0
C1112 C 0.06291 0.95898 0.55195 0.0
C1113 C 0.05843 0.97932 0.56358 0.0
C1114 C 0.06149 0.93765 0.56218 0.0
C1115 C 0.05474 0.93535 0.58479 0.0
C1116 C 0.05004 0.95579 0.59649 0.0
C1117 C 0.05216 0.97704 0.58613 0.0
C1118 C 0.06735 0.91733 0.54858 0.0
C1119 C 0.04222 0.95516 0.62011 0.0
H1120 H 1.01145 0.86053 0.59561 0.0
H1121 H 0.07977 0.88098 0.63336 0.0
H1122 H 1.00628 0.91519 0.58154 0.0
H1123 H 0.01538 0.90104 0.557 0.0
H1124 H 0.99508 0.8845 0.57275 0.0
H1125 H 0.10536 0.91532 0.62769 0.0
H1126 H 0.09893 0.92854 0.60173 0.0
H1127 H 0.0904 0.93855 0.62858 0.0
H1128 H 0.06774 0.9597 0.53465 0.0
H1129 H 0.04833 0.99197 0.59574 0.0
H1130 H 0.05184 0.90295 0.5439 0.0
H1131 H 0.08045 0.91079 0.55953 0.0
H1132 H 0.07403 0.9219 0.53226 0.0
H1133 H 0.02654 0.94113 0.61901 0.0
H1134 H 0.0384 0.97184 0.62688 0.0
H1135 H 0.05571 0.95118 0.63285 0.0
C1136 C 0.48191 0.77391 0.86526 0.0
C1137 C 0.50175 0.79063 0.86301 0.0
C1138 C 0.45948 0.77449 0.8542 0.0
C1139 C 0.45602 0.7927 0.84092 0.0
C1140 C 0.47596 0.80992 0.83906 0.0
C1141 C 0.4983 0.80846 0.8496 0.0
C1142 C 0.4394 0.75519 0.85638 0.0
C1143 C 0.47371 0.83018 0.82599 0.0
C1144 C 0.40074 0.78522 0.79488 0.0
C1145 C 0.38592 0.7954 0.80731 0.0
C1146 C 0.42317 0.78407 0.80546 0.0
C1147 C 0.43177 0.79377 0.82918 0.0
C1148 C 0.41688 0.80439 0.84163 0.0
C1149 C 0.39434 0.80478 0.83079 0.0
C1150 C 0.43759 0.77203 0.79125 0.0
C1151 C 0.42481 0.81552 0.86658 0.0
H1152 H 0.48398 0.75984 0.87522 0.0
H1153 H 0.51316 0.8216 0.84755 0.0
H1154 H 0.42662 0.76233 0.86524 0.0
H1155 H 0.43064 0.7468 0.83873 0.0
H1156 H 0.44473 0.74175 0.86638 0.0
H1157 H 0.49042 0.84277 0.82695 0.0
H1158 H 0.46677 0.82389 0.80735 0.0
H1159 H 0.46135 0.83934 0.83325 0.0
H1160 H 0.3946 0.77768 0.77687 0.0
H1161 H 0.38326 0.81269 0.84074 0.0
H1162 H 0.44217 0.75759 0.80013 0.0
H1163 H 0.45391 0.78429 0.78991 0.0
H1164 H 0.42856 0.76494 0.77332 0.0
H1165 H 0.42816 0.80223 0.87783 0.0
H1166 H 0.41193 0.82412 0.87364 0.0
H1167 H 0.44122 0.82859 0.86777 0.0
C1168 C 0.52641 0.21526 0.1025 0.0
C1169 C 0.54561 0.23253 0.11396 0.0
C1170 C 0.52798 0.1922 0.09398 0.0
C1171 C 0.54954 0.18552 0.09561 0.0
C1172 C 0.56908 0.20303 0.10691 0.0
C1173 C 0.56686 0.2257 0.11623 0.0
C1174 C 0.50622 0.17479 0.0832 0.0
C1175 C 0.59271 0.19801 0.10865 0.0
C1176 C 0.55251 0.11918 0.088 0.0
C1177 C 0.55442 0.11413 0.06407 0.0
C1178 C 0.55098 0.14179 0.09831 0.0
C1179 C 0.55159 0.16082 0.08491 0.0
C1180 C 0.55375 0.15582 0.06085 0.0
C1181 C 0.55496 0.13308 0.05096 0.0
C1182 C 0.54839 0.14522 0.12379 0.0
C1183 C 0.55488 0.17473 0.04529 0.0
H1184 H 0.50976 0.21968 0.1005 0.0
H1185 H 0.58206 0.23842 0.12471 0.0
H1186 H 0.50666 0.17006 0.06435 0.0
H1187 H 0.50492 0.15866 0.09156 0.0
H1188 H 0.49058 0.18155 0.08501 0.0
H1189 H 0.60634 0.21315 0.11737 0.0
H1190 H 0.59337 0.18311 0.11856 0.0
H1191 H 0.59651 0.19306 0.09088 0.0
H1192 H 0.55202 0.10531 0.09881 0.0
H1193 H 0.55646 0.13022 0.03258 0.0
H1194 H 0.53248 0.15141 0.12572 0.0
H1195 H 0.56305 0.15878 0.13347 0.0
H1196 H 0.54764 0.12904 0.13198 0.0
H1197 H 0.53848 0.18054 0.04368 0.0
H1198 H 0.55808 0.16894 0.02748 0.0
H1199 H 0.56876 0.18999 0.05316 0.0
C1200 C 0.14152 0.27628 0.33284 0.0
C1201 C 0.13963 0.28713 0.3552 0.0
C1202 C 0.16272 0.27841 0.32361 0.0
C1203 C 0.18376 0.29182 0.33661 0.0
C1204 C 0.18221 0.30288 0.35925 0.0
C1205 C 0.16055 0.30049 0.36815 0.0
C1206 C 0.16248 0.26613 0.29955 0.0
C1207 C 0.20366 0.31732 0.37427 0.0
C1208 C 0.2404 0.27695 0.31827 0.0
C1209 C 0.24924 0.2949 0.30538 0.0
C1210 C 0.22013 0.27633 0.32907 0.0
C1211 C 0.20699 0.29357 0.32659 0.0
C1212 C 0.21569 0.31162 0.3133 0.0
C1213 C 0.2366 0.31233 0.30348 0.0
C1214 C 0.21281 0.257 0.34337 0.0
C1215 C 0.20256 0.33011 0.30891 0.0
H1216 H 0.12608 0.26581 0.32213 0.0
H1217 H 0.16007 0.30921 0.38529 0.0
H1218 H 0.17003 0.27876 0.28823 0.0
H1219 H 0.17323 0.25315 0.30069 0.0
H1220 H 0.14486 0.25711 0.29102 0.0
H1221 H 0.20019 0.32455 0.39148 0.0
H1222 H 0.21656 0.30664 0.3772 0.0
H1223 H 0.21142 0.33187 0.36514 0.0
H1224 H 0.24972 0.26339 0.32042 0.0
H1225 H 0.24275 0.32638 0.2937 0.0
H1226 H 0.19616 0.2457 0.33475 0.0
H1227 H 0.21018 0.26427 0.3609 0.0
H1228 H 0.22566 0.24614 0.34563 0.0
H1229 H 0.18518 0.32197 0.29918 0.0
H1230 H 0.21139 0.34319 0.2987 0.0
H1231 H 0.20016 0.33911 0.32576 0.0
C1232 C 0.97668 0.02812 0.16055 0.0
C1233 C 0.9531 0.02522 0.15327 0.0
C1234 C 0.99147 0.02658 0.14422 0.0
C1235 C 0.98221 0.02239 0.12028 0.0
C1236 C 0.95817 0.01665 0.11301 0.0
C1237 C 0.94368 0.01808 0.12983 0.0
C1238 C 0.0171 0.03203 0.15244 0.0
C1239 C 0.94798 0.01133 0.08749 0.0
C1240 C 0.0191 0.06009 0.08535 0.0
C1241 C 0.0311 0.04459 0.07618 0.0
C1242 C 1.00244 0.05274 0.09926 0.0
C1243 C 0.99763 0.02924 0.10345 0.0
C1244 C 1.00911 0.0133 0.09337 0.0
C1245 C 0.02594 0.0213 0.07987 0.0
C1246 C 0.9904 0.0702 0.10986 0.0
C1247 C 1.00413 0.98805 0.09712 0.0
H1248 H 0.98371 0.03274 0.17894 0.0
H1249 H 0.92528 0.01529 0.12448 0.0
H1250 H 0.02522 0.01943 0.1432 0.0
H1251 H 0.02496 0.04954 0.14838 0.0
H1252 H 0.02119 0.03177 0.17157 0.0
H1253 H 0.92935 1.00296 0.08504 0.0
H1254 H 0.95007 0.0277 0.0795 0.0
H1255 H 0.95706 0.99983 0.07795 0.0
H1256 H 0.02283 0.07791 0.08164 0.0
H1257 H 0.03439 0.00912 0.07152 0.0
H1258 H 0.99427 0.07208 0.12922 0.0
H1259 H 0.9715 0.0641 0.10495 0.0
H1260 H 0.99574 0.08756 0.10414 0.0
H1261 H 0.01483 0.98607 0.11344 0.0
H1262 H 1.00851 0.97704 0.08253 0.0
H1263 H 0.98582 0.98148 0.09888 0.0
C1264 C 0.32797 0.74584 0.44926 0.0
C1265 C 0.31152 0.74574 0.46445 0.0
C1266 C 0.32402 0.75147 0.42648 0.0
C1267 C 0.30335 0.75801 0.41868 0.0
C1268 C 0.28666 0.75818 0.43391 0.0
C1269 C 0.29073 0.75159 0.45649 0.0
C1270 C 0.34195 0.75015 0.41064 0.0
C1271 C 0.2646 0.76544 0.42638 0.0
C1272 C 0.31013 0.79453 0.36883 0.0
C1273 C 0.30062 0.77814 0.34911 0.0
C1274 C 0.30976 0.78853 0.39159 0.0
C1275 C 0.29998 0.76544 0.39486 0.0
C1276 C 0.28951 0.74902 0.37505 0.0
C1277 C 0.28982 0.7556 0.35245 0.0
C1278 C 0.3208 0.8067 0.41215 0.0
C1279 C 0.27927 0.7241 0.37756 0.0
H1280 H 0.3438 0.74065 0.4549 0.0
H1281 H 0.27779 0.75118 0.46794 0.0
H1282 H 0.33404 0.73868 0.39414 0.0
H1283 H 0.34894 0.76761 0.40593 0.0
H1284 H 0.35648 0.74345 0.41889 0.0
H1285 H 0.25338 0.76475 0.44022 0.0
H1286 H 0.26857 0.7834 0.42182 0.0
H1287 H 0.25493 0.75405 0.41045 0.0
H1288 H 0.31831 0.81206 0.36651 0.0
H1289 H 0.28249 0.74277 0.33736 0.0
H1290 H 0.33681 0.80257 0.42048 0.0
H1291 H 0.30914 0.80675 0.42552 0.0
H1292 H 0.3252 0.82437 0.4069 0.0
H1293 H 0.29335 0.71521 0.38219 0.0
H1294 H 0.26854 0.71459 0.36113 0.0
H1295 H 0.26859 0.72304 0.39182 0.0
C1296 C 0.59429 0.98594 0.67495 0.0
C1297 C 0.57867 0.97659 0.68922 0.0
C1298 C 0.59235 1.00613 0.66525 0.0
C1299 C 0.57416 0.01676 0.66998 0.0
C1300 C 0.56183 0.01026 0.68836 0.0
C1301 C 0.5638 0.98965 0.69754 0.0
C1302 C 0.60708 0.01346 0.64689 0.0
C1303 C 0.5442 0.02302 0.6957 0.0
C1304 C 0.56741 0.05633 0.62419 0.0
C1305 C 0.55305 0.04034 0.60621 0.0
C1306 C 0.57239 0.05002 0.64657 0.0
C1307 C 0.56317 0.02711 0.65069 0.0
C1308 C 0.5465 0.01196 0.63337 0.0
C1309 C 0.54145 0.01895 0.61148 0.0
C1310 C 0.58887 0.06741 0.66491 0.0
C1311 C 0.53579 0.98734 0.63682 0.0
H1312 H 0.60616 0.97596 0.66909 0.0
H1313 H 0.55196 0.98257 0.70899 0.0
H1314 H 0.59655 0.00877 0.62929 0.0
H1315 H 0.61383 0.0325 0.64967 0.0
H1316 H 0.62186 1.00497 0.64712 0.0
H1317 H 0.5418 0.02118 0.71412 0.0
H1318 H 0.54937 0.04172 0.69379 0.0
H1319 H 0.5274 0.0157 0.68447 0.0
H1320 H 0.57596 0.07325 0.62049 0.0
H1321 H 0.52977 0.00677 0.59789 0.0
H1322 H 0.60651 0.06982 0.66031 0.0
H1323 H 0.58901 0.06209 0.68268 0.0
H1324 H 0.58424 0.08454 0.66518 0.0
H1325 H 0.54933 0.97738 0.63958 0.0
H1326 H 0.52299 0.97806 0.6216 0.0
H1327 H 0.52699 0.98729 0.65247 0.0
C1328 C 0.29182 0.35031 0.96034 0.0
C1329 C 0.29575 0.37458 0.96653 0.0
C1330 C 0.29281 0.33987 0.93727 0.0
C1331 C 0.299 0.35368 0.91933 0.0
C1332 C 0.30305 0.37823 0.92549 0.0
C1333 C 0.30118 0.38819 0.94853 0.0
C1334 C 0.28772 0.31379 0.93228 0.0
C1335 C 0.31044 0.39422 0.90792 0.0
C1336 C 0.32577 0.32639 0.86792 0.0
C1337 C 0.30778 0.32088 0.84869 0.0
C1338 C 0.32328 0.33711 0.89037 0.0
C1339 C 0.30204 0.34254 0.89474 0.0
C1340 C 0.28375 0.33689 0.87544 0.0
C1341 C 0.28684 0.32651 0.85302 0.0
C1342 C 0.34367 0.34275 0.90956 0.0
C1343 C 0.26058 0.34159 0.87851 0.0
H1344 H 0.28826 0.33928 0.97382 0.0
H1345 H 0.30524 0.40689 0.9528 0.0
H1346 H 0.27508 0.30769 0.9161 0.0
H1347 H 0.30367 0.30814 0.9293 0.0
H1348 H 0.28081 0.30527 0.94688 0.0
H1349 H 0.31243 0.41275 0.91477 0.0
H1350 H 0.32711 0.39172 0.90306 0.0
H1351 H 0.29771 0.38994 0.89171 0.0
H1352 H 0.34217 0.32248 0.86541 0.0
H1353 H 0.27256 0.32255 0.83884 0.0
H1354 H 0.33953 0.33302 0.92438 0.0
H1355 H 0.34763 0.36149 0.91632 0.0
H1356 H 0.35925 0.33841 0.90355 0.0
H1357 H 0.25389 0.33258 0.89292 0.0
H1358 H 0.24782 0.33578 0.86236 0.0
H1359 H 0.26228 0.36043 0.88351 0.0
C1360 C 0.93731 0.01705 0.28349 0.0
C1361 C 0.9482 0.02845 0.26666 0.0
C1362 C 0.95003 0.01498 0.30471 0.0
C1363 C 0.97387 0.02531 0.30922 0.0
C1364 C 0.98482 0.03713 0.29232 0.0
C1365 C 0.97184 0.03819 0.27096 0.0
C1366 C 0.93806 1.00168 0.32221 0.0
C1367 C 1.01012 0.04876 0.29686 0.0
C1368 C 1.00065 0.03898 0.37258 0.0
C1369 C 1.01082 0.0201 0.3754 0.0
C1370 C 0.98878 0.04106 0.35095 0.0
C1371 C 0.98732 0.02395 0.33179 0.0
C1372 C 0.99827 1.00533 0.33428 0.0
C1373 C 1.00985 1.00357 0.35617 0.0
C1374 C 0.97739 0.06124 0.34873 0.0
C1375 C 0.99713 0.98689 0.31406 0.0
H1376 H 0.91906 0.00922 0.27979 0.0
H1377 H 0.98008 0.04697 0.25772 0.0
H1378 H 0.94671 0.98761 0.32667 0.0
H1379 H 0.93921 0.01337 0.33863 0.0
H1380 H 0.91963 0.99388 0.31555 0.0
H1381 H 0.01591 0.05736 0.28184 0.0
H1382 H 0.01374 0.06198 0.31253 0.0
H1383 H 0.02051 0.03585 0.30058 0.0
H1384 H 1.00175 0.05198 0.38739 0.0
H1385 H 0.0175 0.98883 0.35841 0.0
H1386 H 0.9585 0.05473 0.34415 0.0
H1387 H 0.9834 0.07083 0.33441 0.0
H1388 H 0.98097 0.07353 0.36514 0.0
H1389 H 0.97901 0.97743 0.30823 0.0
H1390 H 1.0075 0.97416 0.31872 0.0
H1391 H 1.00341 0.99498 0.29899 0.0
C1392 C 0.3043 0.72401 0.60049 0.0
C1393 C 0.32172 0.736 0.58924 0.0
C1394 C 0.30321 0.73036 0.62435 0.0
C1395 C 0.31981 0.74932 0.63748 0.0
C1396 C 0.33711 0.76176 0.62609 0.0
C1397 C 0.33792 0.75494 0.6023 0.0
C1398 C 0.28434 0.71664 0.63558 0.0
C1399 C 0.35498 0.78228 0.63912 0.0
C1400 C 0.30717 0.78115 0.69324 0.0
C1401 C 0.31906 0.77199 0.7111 0.0
C1402 C 0.30672 0.77348 0.66942 0.0
C1403 C 0.31892 0.75649 0.66295 0.0
C1404 C 0.33084 0.747 0.6809 0.0
C1405 C 0.33055 0.75464 0.7047 0.0
C1406 C 0.29329 0.78376 0.65114 0.0
C1407 C 0.34431 0.72907 0.67493 0.0
H1408 H 0.29173 0.70927 0.59078 0.0
H1409 H 0.35143 0.76444 0.59395 0.0
H1410 H 0.29197 0.70882 0.65031 0.0
H1411 H 0.27411 0.7283 0.64295 0.0
H1412 H 0.27258 0.70257 0.62303 0.0
H1413 H 0.36734 0.79015 0.62787 0.0
H1414 H 0.34647 0.79577 0.6461 0.0
H1415 H 0.36469 0.77685 0.65428 0.0
H1416 H 0.29795 0.79435 0.6979 0.0
H1417 H 0.33981 0.74746 0.71829 0.0
H1418 H 0.28085 0.76976 0.63915 0.0
H1419 H 0.30515 0.79331 0.64041 0.0
H1420 H 0.28369 0.79585 0.65898 0.0
H1421 H 0.33288 0.71385 0.66364 0.0
H1422 H 0.35236 0.7231 0.69075 0.0
H1423 H 0.35803 0.73642 0.66488 0.0
C1424 C 0.58383 1.00216 0.81612 0.0
C1425 C 0.5784 1.00303 0.79218 0.0
C1426 C 0.58754 0.02205 0.8322 0.0
C1427 C 0.58606 0.04339 0.82397 0.0
C1428 C 0.58217 0.04468 0.79969 0.0
C1429 C 0.57799 0.02428 0.78395 0.0
C1430 C 0.59187 0.01989 0.858 0.0
C1431 C 0.58206 0.06751 0.79053 0.0
C1432 C 0.55866 0.07478 0.86678 0.0
C1433 C 0.57793 0.08615 0.88297 0.0
C1434 C 0.56115 0.06252 0.84597 0.0
C1435 C 0.58353 0.06251 0.84086 0.0
C1436 C 0.603 0.07677 0.85552 0.0
C1437 C 0.6 0.08809 0.87688 0.0
C1438 C 0.53994 0.0468 0.83139 0.0
C1439 C 0.62707 0.07817 0.85002 0.0
H1440 H 0.58503 0.98576 0.82227 0.0
H1441 H 0.57501 0.025 0.76529 0.0
H1442 H 0.60822 0.03191 0.86632 0.0
H1443 H 0.57786 0.02472 0.86676 0.0
H1444 H 0.5929 1.00202 0.86127 0.0
H1445 H 0.58076 0.06589 0.77119 0.0
H1446 H 0.56735 0.07431 0.7957 0.0
H1447 H 0.59801 0.08049 0.79837 0.0
H1448 H 0.5416 0.07297 0.87165 0.0
H1449 H 0.6149 0.09699 0.88943 0.0
H1450 H 0.5401 0.02844 0.83332 0.0
H1451 H 0.53969 0.04877 0.81262 0.0
H1452 H 0.52378 0.05032 0.83676 0.0
H1453 H 0.6346 0.06513 0.85869 0.0
H1454 H 0.63825 0.09552 0.85685 0.0
H1455 H 0.62728 0.07476 0.83093 0.0
C1456 C 0.31927 0.3739 0.11722 0.0
C1457 C 0.29938 0.37768 0.10367 0.0
C1458 C 0.31891 0.36408 0.1387 0.0
C1459 C 0.29799 0.35688 0.1478 0.0
C1460 C 0.27772 0.36064 0.13437 0.0
C1461 C 0.27865 0.37107 0.11298 0.0
C1462 C 0.34129 0.36136 0.15174 0.0
C1463 C 0.25479 0.35329 0.14251 0.0
C1464 C 0.29654 0.31112 0.19282 0.0
C1465 C 0.30052 0.32458 0.21507 0.0
C1466 C 0.29532 0.32113 0.17129 0.0
C1467 C 0.29768 0.34554 0.17106 0.0
C1468 C 0.30119 0.35912 0.19347 0.0
C1469 C 0.30277 0.34873 0.21473 0.0
C1470 C 0.29199 0.30541 0.14855 0.0
C1471 C 0.30371 0.385 0.1951 0.0
H1472 H 0.33565 0.3789 0.11103 0.0
H1473 H 0.26295 0.37352 0.10328 0.0
H1474 H 0.34416 0.3706 0.16978 0.0
H1475 H 0.3405 0.34277 0.15322 0.0
H1476 H 0.35627 0.36821 0.14303 0.0
H1477 H 0.24051 0.35698 0.1305 0.0
H1478 H 0.25116 0.33443 0.14387 0.0
H1479 H 0.25524 0.36242 0.16022 0.0
H1480 H 0.29498 0.29258 0.19217 0.0
H1481 H 0.30587 0.35977 0.23131 0.0
H1482 H 0.30728 0.31007 0.13962 0.0
H1483 H 0.27694 0.30779 0.13673 0.0
H1484 H 0.28938 0.28683 0.15113 0.0
H1485 H 0.31952 0.39294 0.1882 0.0
H1486 H 0.30473 0.39316 0.21336 0.0
H1487 H 0.28894 0.38905 0.18418 0.0
C1488 C 0.25861 0.92638 0.04153 0.0
C1489 C 0.27047 0.92267 0.06263 0.0
C1490 C 0.24312 0.94101 0.04137 0.0
C1491 C 0.23918 0.95183 0.06282 0.0
C1492 C 0.25048 0.94749 0.08419 0.0
C1493 C 0.26611 0.93306 0.08383 0.0
C1494 C 0.23156 0.94552 0.01824 0.0
C1495 C 0.24648 0.95854 0.10741 0.0
C1496 C 0.21749 0.00718 0.06177 0.0
C1497 C 0.19383 0.99886 0.06142 0.0
C1498 C 0.23251 0.99208 0.06246 0.0
C1499 C 0.22362 0.96812 0.06286 0.0
C1500 C 0.19982 0.95968 0.06291 0.0
C1501 C 0.18521 0.97515 0.06208 0.0
C1502 C 0.25782 1.00172 0.06235 0.0
C1503 C 0.18977 0.93429 0.06364 0.0
H1504 H 0.26215 0.91864 0.02509 0.0
H1505 H 0.27528 0.93027 0.10018 0.0
H1506 H 0.2126 0.94095 0.01748 0.0
H1507 H 0.23654 0.96426 0.01649 0.0
H1508 H 0.23621 0.93548 1.00312 0.0
H1509 H 0.2558 0.9525 0.12246 0.0
H1510 H 0.25228 0.97768 0.10878 0.0
H1511 H 0.22785 0.95458 0.10871 0.0
H1512 H 0.22421 0.02544 0.06095 0.0
H1513 H 0.16699 0.96869 0.06198 0.0
H1514 H 0.26322 0.99366 0.04656 0.0
H1515 H 0.2681 0.99739 0.07779 0.0
H1516 H 0.26201 0.02085 0.06254 0.0
H1517 H 0.19258 0.92383 0.04781 0.0
H1518 H 0.17103 0.93069 0.06454 0.0
H1519 H 0.19861 0.92834 0.07901 0.0
C1520 C 0.73496 0.63065 0.01681 0.0
C1521 C 0.7513 0.61738 0.02242 0.0
C1522 C 0.71096 0.62227 0.01782 0.0
C1523 C 0.70253 0.59992 0.02454 0.0
C1524 C 0.71893 0.58646 0.02986 0.0
C1525 C 0.74264 0.59521 0.0288 0.0
C1526 C 0.69458 0.63752 0.01187 0.0
C1527 C 0.71145 0.56258 0.0369 0.0
C1528 C 0.64453 0.58363 0.04932 0.0
C1529 C 0.62924 0.56977 0.03031 0.0
C1530 C 0.6679 0.5938 0.04756 0.0
C1531 C 0.67687 0.59044 0.02621 0.0
C1532 C 0.66144 0.57665 0.0069 0.0
C1533 C 0.6382 0.56662 0.00916 0.0
C1534 C 0.68316 0.6081 0.06881 0.0
C1535 C 0.66955 0.5723 0.98368 0.0
H1536 H 0.74094 0.64775 0.01191 0.0
H1537 H 0.75455 0.5844 0.03315 0.0
H1538 H 0.68062 0.62819 0.99772 0.0
H1539 H 0.68638 0.64169 0.02734 0.0
H1540 H 0.70331 0.65399 0.00621 0.0
H1541 H 0.72603 0.55403 0.04033 0.0
H1542 H 0.70322 0.56374 0.0529 0.0
H1543 H 0.69843 0.55141 0.0229 0.0
H1544 H 0.63824 0.5866 0.06577 0.0
H1545 H 0.62694 0.55627 0.9941 0.0
H1546 H 0.69058 0.62569 0.06467 0.0
H1547 H 0.69773 0.60001 0.07395 0.0
H1548 H 0.67376 0.60983 0.08394 0.0
H1549 H 0.67686 0.58904 0.97763 0.0
H1550 H 0.65548 0.56216 0.97001 0.0
H1551 H 0.68346 0.56269 0.98564 0.0
C1552 C 0.72661 0.49778 0.33518 0.0
C1553 C 0.74113 0.51708 0.34942 0.0
C1554 C 0.73557 0.48215 0.32171 0.0
C1555 C 0.75963 0.48577 0.3228 0.0
C1556 C 0.77444 0.50526 0.33686 0.0
C1557 C 0.76498 0.52077 0.35011 0.0
C1558 C 0.71931 0.46146 0.30686 0.0
C1559 C 0.80025 0.50941 0.33824 0.0
C1560 C 0.78336 0.43266 0.31421 0.0
C1561 C 0.78874 0.43323 0.29149 0.0
C1562 C 0.77361 0.44963 0.32444 0.0
C1563 C 0.76934 0.46761 0.31162 0.0
C1564 C 0.77441 0.46817 0.28853 0.0
C1565 C 0.78423 0.45087 0.27869 0.0
C1566 C 0.76813 0.44844 0.34906 0.0
C1567 C 0.76956 0.48699 0.27436 0.0
H1568 H 0.7081 0.49491 0.33437 0.0
H1569 H 0.77621 0.53593 0.36065 0.0
H1570 H 0.72375 0.45951 0.28892 0.0
H1571 H 0.72092 0.44542 0.31451 0.0
H1572 H 0.70108 0.46285 0.30565 0.0
H1573 H 0.80926 0.52637 0.34846 0.0
H1574 H 0.80643 0.49544 0.3466 0.0
H1575 H 0.8051 0.50883 0.32043 0.0
H1576 H 0.7872 0.41912 0.32419 0.0
H1577 H 0.7883 0.45105 0.26104 0.0
H1578 H 0.7496 0.44782 0.34932 0.0
H1579 H 0.77799 0.46426 0.36066 0.0
H1580 H 0.77226 0.43302 0.35642 0.0
H1581 H 0.75113 0.48753 0.27316 0.0
H1582 H 0.77385 0.48441 0.25638 0.0
H1583 H 0.77971 0.50413 0.28319 0.0
C1584 C 0.8887 0.45231 0.52898 0.0
C1585 C 0.8876 0.43192 0.53939 0.0
C1586 C 0.90965 0.46832 0.53021 0.0
C1587 C 0.92988 0.46371 0.54204 0.0
C1588 C 0.92892 0.44318 0.55257 0.0
C1589 C 0.90774 0.42746 0.55107 0.0
C1590 C 0.91019 0.49008 0.5187 0.0
C1591 C 0.95027 0.43774 0.56522 0.0
C1592 C 0.98458 0.49139 0.52106 0.0
C1593 C 0.99386 0.51002 0.53869 0.0
C1594 C 0.96406 0.47582 0.52237 0.0
C1595 C 0.95231 0.47937 0.54152 0.0
C1596 C 0.9617 0.49804 0.55956 0.0
C1597 C 0.98269 0.51308 0.55807 0.0
C1598 C 0.95491 0.45568 0.50318 0.0
C1599 C 0.94934 0.50244 0.58002 0.0
H1600 H 0.87314 0.45591 0.52011 0.0
H1601 H 0.90694 0.41186 0.55941 0.0
H1602 H 0.9185 0.50561 0.53148 0.0
H1603 H 0.92061 0.48999 0.50425 0.0
H1604 H 0.89271 0.49176 0.51149 0.0
H1605 H 0.94637 0.42161 0.57353 0.0
H1606 H 0.96248 0.43572 0.55275 0.0
H1607 H 0.95914 0.45229 0.57893 0.0
H1608 H 0.99357 0.48877 0.50631 0.0
H1609 H 0.99005 0.52751 0.57168 0.0
H1610 H 0.93807 0.45716 0.49401 0.0
H1611 H 0.95204 0.43909 0.51076 0.0
H1612 H 0.96679 0.45487 0.49009 0.0
H1613 H 0.93302 0.50728 0.57374 0.0
H1614 H 0.95982 0.51659 0.59341 0.0
H1615 H 0.9448 0.48647 0.58841 0.0
C1616 C 0.45234 0.14408 0.32203 0.0
C1617 C 0.47285 0.14969 0.31263 0.0
C1618 C 0.43266 0.15091 0.31252 0.0
C1619 C 0.43369 0.16388 0.2934 0.0
C1620 C 0.45435 0.16974 0.2839 0.0
C1621 C 0.4737 0.16246 0.29358 0.0
C1622 C 0.41076 0.14423 0.32291 0.0
C1623 C 0.45606 0.18379 0.26366 0.0
C1624 C 0.37633 0.16494 0.25905 0.0
C1625 C 0.37217 0.18536 0.27 0.0
C1626 C 0.39676 0.15803 0.26594 0.0
C1627 C 0.41328 0.17204 0.28403 0.0
C1628 C 0.40961 0.19323 0.29434 0.0
C1629 C 0.38901 0.19961 0.28723 0.0
C1630 C 0.40023 0.13533 0.25458 0.0
C1631 C 0.42708 0.20875 0.31343 0.0
H1632 H 0.4515 0.13389 0.33649 0.0
H1633 H 0.48952 0.16677 0.28621 0.0
H1634 H 0.4056 0.16007 0.32998 0.0
H1635 H 0.39658 0.1345 0.30915 0.0
H1636 H 0.41262 0.13337 0.3372 0.0
H1637 H 0.4732 0.18614 0.2578 0.0
H1638 H 0.44271 0.17523 0.24865 0.0
H1639 H 0.45283 0.20115 0.26881 0.0
H1640 H 0.36327 0.15401 0.24568 0.0
H1641 H 0.38594 0.21569 0.29532 0.0
H1642 H 0.39993 0.12285 0.26758 0.0
H1643 H 0.41727 0.13784 0.24857 0.0
H1644 H 0.3867 0.12754 0.23943 0.0
H1645 H 0.42863 0.19977 0.32919 0.0
H1646 H 0.42233 0.22545 0.31838 0.0
H1647 H 0.44428 0.21251 0.30774 0.0
C1648 C 0.41322 0.14198 0.51866 0.0
C1649 C 0.3945 0.13402 0.53066 0.0
C1650 C 0.43288 0.13161 0.51887 0.0
C1651 C 0.43497 0.11261 0.53171 0.0
C1652 C 0.41628 0.10477 0.5441 0.0
C1653 C 0.39667 0.11515 0.54324 0.0
C1654 C 0.45141 0.14082 0.50478 0.0
C1655 C 0.41694 0.08513 0.55848 0.0
C1656 C 0.4761 0.07039 0.51791 0.0
C1657 C 0.4965 0.07923 0.53412 0.0
C1658 C 0.45662 0.08105 0.51664 0.0
C1659 C 0.45638 0.10113 0.53233 0.0
C1660 C 0.47683 0.1099 0.5489 0.0
C1661 C 0.49629 0.09931 0.54934 0.0
C1662 C 0.43618 0.0708 0.49808 0.0
C1663 C 0.47818 0.13062 0.5666 0.0
H1664 H 0.41232 0.15617 0.50851 0.0
H1665 H 0.38279 0.10828 0.5526 0.0
H1666 H 0.4681 0.14722 0.51642 0.0
H1667 H 0.45352 0.12663 0.49191 0.0
H1668 H 0.44749 0.15516 0.49529 0.0
H1669 H 0.40205 0.0816 0.56819 0.0
H1670 H 0.41692 0.06911 0.54696 0.0
H1671 H 0.43306 0.08922 0.57119 0.0
H1672 H 0.47542 0.05516 0.50573 0.0
H1673 H 0.51144 0.10675 0.56211 0.0
H1674 H 0.43228 0.08434 0.48741 0.0
H1675 H 0.42081 0.06448 0.50638 0.0
H1676 H 0.43909 0.05615 0.48631 0.0
H1677 H 0.47711 0.14599 0.55754 0.0
H1678 H 0.49437 0.13478 0.57925 0.0
H1679 H 0.46338 0.12737 0.57643 0.0
C1680 C 0.76663 0.62341 0.32892 0.0
C1681 C 0.74318 0.61759 0.33044 0.0
C1682 C 0.7761 0.64386 0.32034 0.0
C1683 C 0.76179 0.65903 0.3142 0.0
C1684 C 0.73791 0.65284 0.31506 0.0
C1685 C 0.72876 0.63183 0.32283 0.0
C1686 C 0.80156 0.64978 0.319 0.0
C1687 C 0.72239 0.66913 0.30947 0.0
C1688 C 0.79132 0.72232 0.32041 0.0
C1689 C 0.79166 0.72564 0.297 0.0
C1690 C 0.78125 0.70068 0.32629 0.0
C1691 C 0.7721 0.682 0.30824 0.0
C1692 C 0.77289 0.68521 0.28458 0.0
C1693 C 0.78244 0.7072 0.2792 0.0
C1694 C 0.78005 0.69795 0.3517 0.0
C1695 C 0.76374 0.66543 0.26505 0.0
H1696 H 0.77765 0.61238 0.33524 0.0
H1697 H 0.71069 0.62741 0.32473 0.0
H1698 H 0.80454 0.65498 0.30163 0.0
H1699 H 0.81027 0.66473 0.33233 0.0
H1700 H 0.80969 0.63501 0.32205 0.0
H1701 H 0.70402 0.66114 0.3099 0.0
H1702 H 0.72762 0.68505 0.32237 0.0
H1703 H 0.72407 0.67459 0.29196 0.0
H1704 H 0.7983 0.7368 0.33406 0.0
H1705 H 0.78294 0.70992 0.26108 0.0
H1706 H 0.78962 0.68486 0.35712 0.0
H1707 H 0.76191 0.6916 0.35419 0.0
H1708 H 0.78734 0.71449 0.36343 0.0
H1709 H 0.77233 0.65097 0.26798 0.0
H1710 H 0.76644 0.67074 0.24763 0.0
H1711 H 0.74506 0.65864 0.26487 0.0
C1712 C 0.99144 0.53476 0.79878 0.0
C1713 C 0.98144 0.55248 0.80735 0.0
C1714 C 0.97882 0.51157 0.79451 0.0
C1715 C 0.95577 0.50621 0.79893 0.0
C1716 C 0.94543 0.5243 0.80672 0.0
C1717 C 0.95846 0.54719 0.81099 0.0
C1718 C 0.99043 0.49277 0.78624 0.0
C1719 C 0.92092 0.51938 0.8117 0.0
C1720 C 0.91174 0.45011 0.77669 0.0
C1721 C 0.91139 0.43898 0.79684 0.0
C1722 C 0.92742 0.47125 0.77649 0.0
C1723 C 0.94268 0.48171 0.79712 0.0
C1724 C 0.94317 0.46991 0.81713 0.0
C1725 C 0.92762 0.44858 0.81668 0.0
C1726 C 0.92673 0.483 0.75466 0.0
C1727 C 0.959 0.48055 0.83957 0.0
H1728 H 1.00939 0.53888 0.79645 0.0
H1729 H 0.9509 0.56095 0.81792 0.0
H1730 H 0.99241 0.48154 0.80015 0.0
H1731 H 0.97968 0.48158 0.7707 0.0
H1732 H 1.0077 0.49997 0.78172 0.0
H1733 H 0.91512 0.5355 0.8166 0.0
H1734 H 0.90913 0.50937 0.79615 0.0
H1735 H 0.91937 0.50863 0.82622 0.0
H1736 H 0.89934 0.44255 0.76125 0.0
H1737 H 0.92727 0.44007 0.83232 0.0
H1738 H 0.9444 0.48959 0.75085 0.0
H1739 H 0.91885 0.49814 0.75735 0.0
H1740 H 0.91655 0.47113 0.73921 0.0
H1741 H 0.97687 0.48662 0.83612 0.0
H1742 H 0.959 0.46818 0.85268 0.0
H1743 H 0.95345 0.49592 0.84724 0.0
C1744 C 0.07142 0.90846 0.10856 0.0
C1745 C 0.09365 0.90832 0.11903 0.0
C1746 C 0.06793 0.92311 0.09212 0.0
C1747 C 0.08725 0.93754 0.08561 0.0
C1748 C 0.10985 0.93728 0.09564 0.0
C1749 C 0.11284 0.92273 0.11272 0.0
C1750 C 0.04354 0.92396 0.08268 0.0
C1751 C 0.13059 0.95266 0.08868 0.0
C1752 C 0.07138 0.96269 0.03093 0.0
C1753 C 0.06808 0.98385 0.0407 0.0
C1754 C 0.07902 0.94766 0.04546 0.0
C1755 C 0.08326 0.95437 0.06993 0.0
C1756 C 0.08044 0.97607 0.07968 0.0
C1757 C 0.07321 0.99072 0.06477 0.0
C1758 C 0.08205 0.92451 0.03484 0.0
C1759 C 0.08423 0.98352 0.1058 0.0
H1760 H 0.05651 0.89777 0.11399 0.0
H1761 H 0.12996 0.92263 0.12108 0.0
H1762 H 0.04058 0.94142 0.08792 0.0
H1763 H 0.04069 0.92089 0.0633 0.0
H1764 H 0.0305 0.91092 0.08919 0.0
H1765 H 0.14696 0.94874 0.09641 0.0
H1766 H 0.12941 0.95056 0.06936 0.0
H1767 H 0.13102 0.97112 0.09441 0.0
H1768 H 0.06817 0.95807 0.0121 0.0
H1769 H 0.072 0.00776 0.07202 0.0
H1770 H 0.06934 0.91033 0.04019 0.0
H1771 H 0.09943 0.92215 0.04141 0.0
H1772 H 0.07976 0.92275 0.01543 0.0
H1773 H 0.07195 0.97148 0.11418 0.0
H1774 H 0.08187 1.00139 0.11026 0.0
H1775 H 0.10182 0.98279 0.11353 0.0
C1776 C 0.96525 0.25297 0.8369 0.0
C1777 C 0.95883 0.23002 0.84151 0.0
C1778 C 0.94867 0.26475 0.82915 0.0
C1779 C 0.92532 0.25303 0.82566 0.0
C1780 C 0.9187 0.23002 0.8309 0.0
C1781 C 0.9357 0.21879 0.83915 0.0
C1782 C 0.95613 0.28949 0.82423 0.0
C1783 C 0.89381 0.21707 0.82709 0.0
C1784 C 0.87887 0.28643 0.82121 0.0
C1785 C 0.87195 0.28309 0.79705 0.0
C1786 C 0.89688 0.27728 0.83086 0.0
C1787 C 0.90785 0.26461 0.81577 0.0
C1788 C 0.90156 0.26221 0.79122 0.0
C1789 C 0.88338 0.27145 0.78209 0.0
C1790 C 0.90324 0.27999 0.85712 0.0
C1791 C 0.91308 0.24879 0.77475 0.0
H1792 H 0.98329 0.26171 0.83932 0.0
H1793 H 0.93102 0.20106 0.84292 0.0
H1794 H 0.95128 0.29049 0.80537 0.0
H1795 H 0.94716 0.30086 0.83409 0.0
H1796 H 0.97498 0.29641 0.82901 0.0
H1797 H 0.89164 0.1994 0.83242 0.0
H1798 H 0.88359 0.22685 0.83715 0.0
H1799 H 0.88656 0.21548 0.80834 0.0
H1800 H 0.86929 0.29496 0.83257 0.0
H1801 H 0.87729 0.26852 0.76343 0.0
H1802 H 0.92207 0.28667 0.86221 0.0
H1803 H 0.8987 0.26283 0.8634 0.0
H1804 H 0.89422 0.29191 0.86619 0.0
H1805 H 0.932 0.25554 0.77822 0.0
H1806 H 0.90694 0.24971 0.75611 0.0
H1807 H 0.90961 0.2303 0.77771 0.0
C1808 C 0.5737 0.30071 0.6241 0.0
C1809 C 0.59313 0.31617 0.63709 0.0
C1810 C 0.57511 0.27887 0.61386 0.0
C1811 C 0.5965 0.27244 0.61653 0.0
C1812 C 0.61638 0.2882 0.62881 0.0
C1813 C 0.61447 0.30994 0.63895 0.0
C1814 C 0.55355 0.26234 0.60093 0.0
C1815 C 0.63946 0.28179 0.63192 0.0
C1816 C 0.59454 0.20818 0.61108 0.0
C1817 C 0.5988 0.20391 0.58809 0.0
C1818 C 0.59403 0.23055 0.62071 0.0
C1819 C 0.59786 0.24892 0.60693 0.0
C1820 C 0.60224 0.24471 0.58374 0.0
C1821 C 0.60263 0.22218 0.57457 0.0
C1822 C 0.58928 0.23448 0.64554 0.0
C1823 C 0.60626 0.26393 0.56857 0.0
H1824 H 0.55712 0.3053 0.62258 0.0
H1825 H 0.62956 0.32172 0.64901 0.0
H1826 H 0.55622 0.25635 0.58301 0.0
H1827 H 0.54956 0.24676 0.61003 0.0
H1828 H 0.53843 0.27036 0.59967 0.0
H1829 H 0.65343 0.2964 0.64111 0.0
H1830 H 0.63861 0.26691 0.64213 0.0
H1831 H 0.64399 0.27622 0.61465 0.0
H1832 H 0.59184 0.19406 0.62161 0.0
H1833 H 0.60564 0.21878 0.55668 0.0
H1834 H 0.57357 0.24141 0.6458 0.0
H1835 H 0.60372 0.2476 0.65619 0.0
H1836 H 0.58688 0.21832 0.65392 0.0
H1837 H 0.59086 0.27143 0.56615 0.0
H1838 H 0.61 0.25781 0.55108 0.0
H1839 H 0.62088 0.2781 0.57726 0.0
C1840 C 0.58448 0.77891 0.35851 0.0
C1841 C 0.58004 0.75679 0.36566 0.0
C1842 C 0.60525 0.78779 0.35085 0.0
C1843 C 0.62182 0.77417 0.35053 0.0
C1844 C 0.61823 0.75268 0.35953 0.0
C1845 C 0.59725 0.7442 0.36708 0.0
C1846 C 0.6086 0.81076 0.34123 0.0
C1847 C 0.63569 0.73779 0.35938 0.0
C1848 C 0.65623 0.7786 0.30087 0.0
C1849 C 0.67744 0.79214 0.31207 0.0
C1850 C 0.63793 0.77278 0.31328 0.0
C1851 C 0.64107 0.78069 0.33747 0.0
C1852 C 0.66231 0.79467 0.34888 0.0
C1853 C 0.68038 0.80027 0.33596 0.0
C1854 C 0.61541 0.75776 0.30057 0.0
C1855 C 0.666 0.80327 0.3747 0.0
H1856 H 0.57129 0.78885 0.35776 0.0
H1857 H 0.59389 0.72717 0.3728 0.0
H1858 H 0.626 0.82164 0.34795 0.0
H1859 H 0.60712 0.80766 0.3219 0.0
H1860 H 0.59559 0.82057 0.34573 0.0
H1861 H 0.63158 0.72309 0.36969 0.0
H1862 H 0.63611 0.73061 0.34112 0.0
H1863 H 0.65316 0.74829 0.36652 0.0
H1864 H 0.65419 0.77181 0.28253 0.0
H1865 H 0.69689 0.81071 0.34457 0.0
H1866 H 0.60124 0.76676 0.3025 0.0
H1867 H 0.61126 0.74136 0.30834 0.0
H1868 H 0.61585 0.75339 0.28162 0.0
H1869 H 0.65292 0.81312 0.37874 0.0
H1870 H 0.68339 0.81457 0.38074 0.0
H1871 H 0.66379 0.7883 0.38483 0.0
C1872 C 0.03513 0.20367 0.44732 0.0
C1873 C 0.05522 0.21767 0.44121 0.0
C1874 C 0.03462 0.18206 0.45655 0.0
C1875 C 0.05484 0.17327 0.46094 0.0
C1876 C 0.07531 0.18725 0.45488 0.0
C1877 C 0.07522 0.20865 0.44498 0.0
C1878 C 1.01202 0.16851 0.46173 0.0
C1879 C 0.09768 0.17974 0.45929 0.0
C1880 C 0.05593 0.12847 0.5071 0.0
C1881 C 0.05169 0.10631 0.49363 0.0
C1882 C 0.0573 0.14977 0.49695 0.0
C1883 C 0.05441 0.15006 0.47219 0.0
C1884 C 0.05014 0.12777 0.45846 0.0
C1885 C 0.04893 0.10667 0.46909 0.0
C1886 C 0.06192 0.17227 0.51304 0.0
C1887 C 0.04668 0.1261 0.43219 0.0
H1888 H 0.01928 0.20959 0.44466 0.0
H1889 H 0.0911 0.21865 0.44077 0.0
H1890 H 1.0083 0.1505 0.45268 0.0
H1891 H 0.01308 0.16743 0.48076 0.0
H1892 H 0.99745 0.17649 0.45617 0.0
H1893 H 0.11223 0.19214 0.45418 0.0
H1894 H 0.10174 0.17809 0.47812 0.0
H1895 H 0.09608 0.1624 0.44939 0.0
H1896 H 0.05835 0.1293 0.52597 0.0
H1897 H 0.04581 0.09027 0.45794 0.0
H1898 H 0.04717 0.18065 0.51006 0.0
H1899 H 0.0773 0.1844 0.50911 0.0
H1900 H 0.06475 0.16975 0.53176 0.0
H1901 H 0.03178 0.13338 0.42613 0.0
H1902 H 0.04363 0.10793 0.42365 0.0
H1903 H 0.06202 0.13657 0.42636 0.0
C1904 C 0.64173 0.3003 0.19436 0.0
C1905 C 0.62691 0.30584 0.20998 0.0
C1906 C 0.66484 0.29874 0.20235 0.0
C1907 C 0.67394 0.3028 0.22669 0.0
C1908 C 0.65903 0.30837 0.24242 0.0
C1909 C 0.63617 0.30979 0.23403 0.0
C1910 C 0.6796 0.29264 0.18463 0.0
C1911 C 0.66722 0.31283 0.26843 0.0
C1912 C 0.72684 0.2794 0.25164 0.0
C1913 C 0.74525 0.2992 0.25564 0.0
C1914 C 0.704 0.28024 0.24214 0.0
C1915 C 0.69879 0.30134 0.23591 0.0
C1916 C 0.71735 0.32132 0.23976 0.0
C1917 C 0.73997 0.32007 0.24955 0.0
C1918 C 0.68527 0.25839 0.23902 0.0
C1919 C 0.71332 0.3443 0.23357 0.0
H1920 H 0.63528 0.29707 0.17581 0.0
H1921 H 0.62542 0.31409 0.24666 0.0
H1922 H 0.69553 0.30647 0.18634 0.0
H1923 H 0.68491 0.27636 0.18801 0.0
H1924 H 0.67053 0.29033 0.16642 0.0
H1925 H 0.65378 0.31695 0.27856 0.0
H1926 H 0.67254 0.29737 0.27447 0.0
H1927 H 0.68253 0.3275 0.27244 0.0
H1928 H 0.73023 0.26306 0.25611 0.0
H1929 H 0.75367 0.33559 0.25225 0.0
H1930 H 0.67699 0.25433 0.22049 0.0
H1931 H 0.67174 0.26102 0.24969 0.0
H1932 H 0.69186 0.24325 0.24419 0.0
H1933 H 0.70576 0.34246 0.21488 0.0
H1934 H 0.72941 0.35809 0.23673 0.0
H1935 H 0.70078 0.34989 0.24405 0.0
C1936 C 0.58044 0.87352 0.94369 0.0
C1937 C 0.56142 0.8553 0.94518 0.0
C1938 C 0.58191 0.89735 0.95301 0.0
C1939 C 0.56389 0.90411 0.9641 0.0
C1940 C 0.54474 0.88582 0.96551 0.0
C1941 C 0.54384 0.8623 0.95641 0.0
C1942 C 0.60296 0.91548 0.95092 0.0
C1943 C 0.52471 0.8911 0.97658 0.0
C1944 C 0.57316 0.96212 0.00736 0.0
C1945 C 0.56375 0.97745 0.99392 0.0
C1946 C 0.57368 0.93895 0.998 0.0
C1947 C 0.56474 0.92987 0.97416 0.0
C1948 C 0.55546 0.94535 0.96044 0.0
C1949 C 0.55501 0.9684 0.97028 0.0
C1950 C 0.58368 0.92395 0.01395 0.0
C1951 C 0.54561 0.93741 0.9351 0.0
H1952 H 0.5943 0.86924 0.93516 0.0
H1953 H 0.52874 0.8492 0.95789 0.0
H1954 H 0.59791 0.92898 0.94086 0.0
H1955 H 0.61136 0.92423 0.96856 0.0
H1956 H 0.61564 0.90801 0.94216 0.0
H1957 H 0.51091 0.87535 0.97638 0.0
H1958 H 0.53069 0.89914 0.99497 0.0
H1959 H 0.51729 0.90379 0.9672 0.0
H1960 H 0.57997 0.96815 0.02558 0.0
H1961 H 0.54762 0.97942 0.95926 0.0
H1962 H 0.59758 0.91758 0.00636 0.0
H1963 H 0.57021 0.90851 0.0156 0.0
H1964 H 0.59074 0.93336 0.0317 0.0
H1965 H 0.5587 0.93154 0.92564 0.0
H1966 H 0.53973 0.95132 0.9263 0.0
H1967 H 0.53081 0.92236 0.93372 0.0
C1968 C 0.98708 0.81066 0.72031 0.0
C1969 C 0.98627 0.80335 0.69617 0.0
C1970 C 0.96696 0.81011 0.73135 0.0
C1971 C 0.94439 0.8018 0.71851 0.0
C1972 C 0.94333 0.79449 0.69406 0.0
C1973 C 0.96387 0.79539 0.68334 0.0
C1974 C 0.96998 0.81844 0.75715 0.0
C1975 C 0.92024 0.78555 0.67905 0.0
C1976 C 0.89189 0.77992 0.75176 0.0
C1977 C 0.88134 0.79897 0.75447 0.0
C1978 C 0.91199 0.78064 0.74051 0.0
C1979 C 0.92232 0.80072 0.73068 0.0
C1980 C 0.91161 0.81995 0.73321 0.0
C1981 C 0.89183 0.81894 0.74502 0.0
C1982 C 0.92234 0.75967 0.7393 0.0
C1983 C 0.92097 0.84181 0.72316 0.0
H1984 H 1.00382 0.81697 0.7309 0.0
H1985 H 0.96229 0.78957 0.66483 0.0
H1986 H 0.96116 0.83283 0.76015 0.0
H1987 H 0.96191 0.8042 0.76648 0.0
H1988 H 0.98837 0.82461 0.76492 0.0
H1989 H 0.92179 0.78061 0.66048 0.0
H1990 H 0.91054 0.77019 0.68579 0.0
H1991 H 0.90998 0.799 0.67993 0.0
H1992 H 0.88448 0.76423 0.75868 0.0
H1993 H 0.88425 0.83391 0.74643 0.0
H1994 H 0.94047 0.76456 0.74806 0.0
H1995 H 0.9225 0.75314 0.72079 0.0
H1996 H 0.91278 0.74542 0.74771 0.0
H1997 H 0.93894 0.84942 0.73157 0.0
H1998 H 0.9106 0.85502 0.72561 0.0
H1999 H 0.92134 0.83769 0.70418 0.0
C2000 C 0.16828 0.08949 0.92981 0.0
C2001 C 0.17035 0.08665 0.90618 0.0
C2002 C 0.14785 0.07896 0.9373 0.0
C2003 C 0.12983 0.06472 0.92068 0.0
C2004 C 0.13172 0.06225 0.89675 0.0
C2005 C 0.15197 0.07347 0.88972 0.0
C2006 C 0.14597 0.08218 0.96304 0.0
C2007 C 0.11306 0.04655 0.87886 0.0
C2008 C 0.09526 0.02075 0.95122 0.0
C2009 C 0.07821 0.03229 0.95617 0.0
C2010 C 0.11117 0.02994 0.93722 0.0
C2011 C 0.10972 0.05112 0.92867 0.0
C2012 C 0.0905 0.06085 0.93095 0.0
C2013 C 0.07449 0.05083 0.94444 0.0
C2014 C 0.13117 0.01877 0.93438 0.0
C2015 C 0.08865 0.08363 0.92236 0.0
H2016 H 0.1828 0.09926 0.94236 0.0
H2017 H 0.15399 0.07066 0.87144 0.0
H2018 H 0.12957 0.08707 0.96567 0.0
H2019 H 0.14593 0.06561 0.9703 0.0
H2020 H 0.16046 0.09572 0.97312 0.0
H2021 H 0.11639 0.04822 0.86066 0.0
H2022 H 0.11193 0.02824 0.8819 0.0
H2023 H 0.09607 0.05041 0.88067 0.0
H2024 H 0.09796 1.0065 0.96071 0.0
H2025 H 0.06125 0.05972 0.94881 0.0
H2026 H 0.14656 0.02865 0.94661 0.0
H2027 H 0.13543 0.01902 0.91637 0.0
H2028 H 0.1275 1.00055 0.93828 0.0
H2029 H 0.10031 0.09803 0.93459 0.0
H2030 H 0.07087 0.08637 0.92155 0.0
H2031 H 0.09397 0.08462 0.90483 0.0
C2032 C 0.84835 0.33075 0.61222 0.0
C2033 C 0.8313 0.33982 0.59998 0.0
C2034 C 0.84654 0.32442 0.6347 0.0
C2035 C 0.82708 0.32692 0.64525 0.0
C2036 C 0.80945 0.33537 0.63279 0.0
C2037 C 0.81177 0.34174 0.61036 0.0
C2038 C 0.86588 0.31579 0.64746 0.0
C2039 C 0.78843 0.33831 0.64345 0.0
C2040 C 0.81298 0.29254 0.69558 0.0
C2041 C 0.8206 0.3096 0.71506 0.0
C2042 C 0.81496 0.29796 0.6728 0.0
C2043 C 0.82525 0.32087 0.66941 0.0
C2044 C 0.8336 0.33801 0.68909 0.0
C2045 C 0.83095 0.33223 0.71164 0.0
C2046 C 0.80564 0.27926 0.6523 0.0
C2047 C 0.84523 0.36251 0.68636 0.0
H2048 H 0.86364 0.32936 0.60461 0.0
H2049 H 0.7986 0.34896 0.60131 0.0
H2050 H 0.87354 0.32771 0.66374 0.0
H2051 H 0.85916 0.29848 0.65265 0.0
H2052 H 0.87968 0.31447 0.63669 0.0
H2053 H 0.77588 0.34432 0.63123 0.0
H2054 H 0.77976 0.32163 0.64872 0.0
H2055 H 0.7936 0.35109 0.65948 0.0
H2056 H 0.80485 0.27505 0.69807 0.0
H2057 H 0.8371 0.34544 0.72663 0.0
H2058 H 0.81949 0.27712 0.6419 0.0
H2059 H 0.79207 0.2844 0.6406 0.0
H2060 H 0.79825 0.26227 0.65785 0.0
H2061 H 0.86014 0.36237 0.67691 0.0
H2062 H 0.85136 0.37359 0.70346 0.0
H2063 H 0.83311 0.37048 0.67574 0.0
C2064 C 0.55051 0.07002 0.35715 0.0
C2065 C 0.56409 0.09254 0.35933 0.0
C2066 C 0.55054 0.05737 0.37615 0.0
C2067 C 0.56538 0.0673 0.39712 0.0
C2068 C 0.5815 0.08863 0.39803 0.0
C2069 C 0.58016 0.10144 0.37923 0.0
C2070 C 0.53282 0.0349 0.37461 0.0
C2071 C 0.59841 0.09911 0.41978 0.0
C2072 C 0.54527 0.06564 0.45541 0.0
C2073 C 0.55744 0.05059 0.46536 0.0
C2074 C 0.54627 0.06967 0.43234 0.0
C2075 C 0.56044 0.05888 0.41932 0.0
C2076 C 0.57167 0.04253 0.42883 0.0
C2077 C 0.56983 0.03836 0.4519 0.0
C2078 C 0.53327 0.08657 0.42245 0.0
C2079 C 0.5869 0.03077 0.41544 0.0
H2080 H 0.53859 0.06304 0.34128 0.0
H2081 H 0.59085 0.11879 0.38051 0.0
H2082 H 0.52695 0.02679 0.3562 0.0
H2083 H 0.53957 0.02233 0.38477 0.0
H2084 H 0.51764 0.0385 0.3821 0.0
H2085 H 0.61254 0.11298 0.41605 0.0
H2086 H 0.58935 0.10679 0.43295 0.0
H2087 H 0.60597 0.08561 0.42755 0.0
H2088 H 0.53531 0.07465 0.46586 0.0
H2089 H 0.57911 0.02661 0.45979 0.0
H2090 H 0.52374 0.07926 0.40479 0.0
H2091 H 0.54559 0.10283 0.42069 0.0
H2092 H 0.52084 0.09101 0.43379 0.0
H2093 H 0.5798 0.02647 0.3966 0.0
H2094 H 0.58933 0.01463 0.42252 0.0
H2095 H 0.60404 0.04272 0.41693 0.0
C2096 C 0.82444 0.69891 0.1039 0.0
C2097 C 0.84 0.71166 0.09099 0.0
C2098 C 0.82072 0.70802 0.12653 0.0
C2099 C 0.83245 0.73083 0.13713 0.0
C2100 C 0.84783 0.74389 0.124 0.0
C2101 C 0.8515 0.73426 0.10162 0.0
C2102 C 0.80431 0.69295 0.13933 0.0
C2103 C 0.86063 0.7683 0.13369 0.0
C2104 C 0.80884 0.76268 0.18804 0.0
C2105 C 0.82322 0.76044 0.20845 0.0
C2106 C 0.81152 0.75326 0.16516 0.0
C2107 C 0.82902 0.74087 0.16185 0.0
C2108 C 0.84353 0.73853 0.18241 0.0
C2109 C 0.84055 0.74822 0.20504 0.0
C2110 C 0.79558 0.75678 0.14435 0.0
C2111 C 0.86244 0.72568 0.18055 0.0
H2112 H 0.81535 0.68148 0.09647 0.0
H2113 H 0.86354 0.74468 0.09233 0.0
H2114 H 0.81343 0.69062 0.15643 0.0
H2115 H 0.79024 0.70155 0.14301 0.0
H2116 H 0.79664 0.6756 0.12924 0.0
H2117 H 0.87128 0.77673 0.12127 0.0
H2118 H 0.84827 0.77899 0.13792 0.0
H2119 H 0.87201 0.76814 0.15019 0.0
H2120 H 0.79535 0.77197 0.18987 0.0
H2121 H 0.85198 0.74614 0.22022 0.0
H2122 H 0.78603 0.73973 0.13478 0.0
H2123 H 0.80571 0.76605 0.13205 0.0
H2124 H 0.78297 0.76685 0.14945 0.0
H2125 H 0.8551 0.70779 0.17161 0.0
H2126 H 0.87199 0.7247 0.19792 0.0
H2127 H 0.8748 0.73442 0.16979 0.0
C2128 C 0.17866 0.09155 0.77398 0.0
C2129 C 0.17622 0.07501 0.78953 0.0
C2130 C 0.16585 0.08672 0.75157 0.0
C2131 C 0.15026 0.06494 0.74487 0.0
C2132 C 0.14859 0.04777 0.76002 0.0
C2133 C 0.16168 0.05299 0.78221 0.0
C2134 C 0.1682 0.10526 0.73549 0.0
C2135 C 0.13212 0.02437 0.75328 0.0
C2136 C 0.10016 0.06887 0.7013 0.0
C2137 C 0.1075 0.06204 0.68035 0.0
C2138 C 0.11334 0.06848 0.72269 0.0
C2139 C 0.13423 0.06111 0.72288 0.0
C2140 C 0.14072 0.05237 0.70186 0.0
C2141 C 0.12718 0.05295 0.68069 0.0
C2142 C 0.10579 0.07759 0.74494 0.0
C2143 C 0.16273 0.04404 0.70155 0.0
H2144 H 0.1901 0.10845 0.77948 0.0
H2145 H 0.15987 0.04001 0.79411 0.0
H2146 H 0.17152 0.09816 0.71819 0.0
H2147 H 0.15186 0.11114 0.73259 0.0
H2148 H 0.18232 0.12056 0.7427 0.0
H2149 H 0.13481 0.01209 0.76599 0.0
H2150 H 0.11417 0.02652 0.75241 0.0
H2151 H 0.13401 0.01658 0.73568 0.0
H2152 H 0.08495 0.07595 0.70093 0.0
H2153 H 0.13254 0.04731 0.66436 0.0
H2154 H 0.11762 0.09438 0.75249 0.0
H2155 H 0.10659 0.0654 0.7581 0.0
H2156 H 0.08801 0.08034 0.74188 0.0
H2157 H 0.17755 0.05923 0.70472 0.0
H2158 H 0.16307 0.03397 0.68449 0.0
H2159 H 0.16512 0.03309 0.71562 0.0
C2160 C 0.84469 0.33824 0.46417 0.0
C2161 C 0.82891 0.34723 0.4762 0.0
C2162 C 0.84024 0.33143 0.43984 0.0
C2163 C 0.81928 0.33328 0.42688 0.0
C2164 C 0.80289 0.34158 0.43893 0.0
C2165 C 0.80793 0.34858 0.46334 0.0
C2166 C 0.85838 0.32293 0.42789 0.0
C2167 C 0.78023 0.3436 0.42591 0.0
C2168 C 0.82044 0.33897 0.362 0.0
C2169 C 0.81061 0.31625 0.35117 0.0
C2170 C 0.82266 0.34483 0.3864 0.0
C2171 C 0.81515 0.32755 0.40064 0.0
C2172 C 0.80485 0.30464 0.3898 0.0
C2173 C 0.80258 0.2993 0.36526 0.0
C2174 C 0.83367 0.36949 0.39703 0.0
C2175 C 0.79689 0.28556 0.40422 0.0
H2176 H 0.86103 0.33717 0.47368 0.0
H2177 H 0.79556 0.35548 0.47227 0.0
H2178 H 0.85096 0.30565 0.41762 0.0
H2179 H 0.86458 0.33497 0.41545 0.0
H2180 H 0.87338 0.32163 0.4405 0.0
H2181 H 0.76879 0.34917 0.43784 0.0
H2182 H 0.78333 0.35635 0.41331 0.0
H2183 H 0.77121 0.3267 0.41565 0.0
H2184 H 0.82672 0.35223 0.35137 0.0
H2185 H 0.79522 0.28162 0.35721 0.0
H2186 H 0.84992 0.36994 0.4086 0.0
H2187 H 0.82216 0.37638 0.40799 0.0
H2188 H 0.83757 0.38115 0.38355 0.0
H2189 H 0.81188 0.28254 0.41566 0.0
H2190 H 0.78805 0.26899 0.39319 0.0
H2191 H 0.785 0.29077 0.41578 0.0
C2192 C 0.55694 0.08807 0.23012 0.0
C2193 C 0.54959 0.08971 0.25181 0.0
C2194 C 0.55317 0.06646 0.21661 0.0
C2195 C 0.54208 0.04621 0.22544 0.0
C2196 C 0.53558 0.04782 0.24793 0.0
C2197 C 0.53933 0.06971 0.26084 0.0
C2198 C 0.56056 0.06547 0.19268 0.0
C2199 C 0.52423 0.0267 0.25814 0.0
C2200 C 0.51779 1.00584 0.17179 0.0
C2201 C 0.53836 0.99994 0.16732 0.0
C2202 C 0.51701 0.01844 0.19318 0.0
C2203 C 0.53682 0.02377 0.21034 0.0
C2204 C 0.55476 0.01217 0.20804 0.0
C2205 C 0.55545 1.00034 0.18623 0.0
C2206 C 0.49709 0.02984 0.19541 0.0
C2207 C 0.57542 0.01609 0.22678 0.0
H2208 H 0.56509 0.10371 0.22355 0.0
H2209 H 0.53423 0.07122 0.27804 0.0
H2210 H 0.57273 0.05392 0.19141 0.0
H2211 H 0.54538 0.05827 0.17908 0.0
H2212 H 0.56907 0.08283 0.18871 0.0
H2213 H 0.52532 0.03023 0.27743 0.0
H2214 H 0.50581 0.02146 0.25051 0.0
H2215 H 0.53206 0.01179 0.25391 0.0
H2216 H 0.50395 1.00427 0.15744 0.0
H2217 H 0.57109 0.99493 0.18332 0.0
H2218 H 0.50172 0.0478 0.19094 0.0
H2219 H 0.49317 0.03092 0.21355 0.0
H2220 H 0.48139 0.02033 0.18335 0.0
H2221 H 0.5881 0.03186 0.22436 0.0
H2222 H 0.58389 1.00122 0.22563 0.0
H2223 H 0.57061 0.01874 0.2445 0.0
C2224 C 0.83108 0.70001 0.93492 0.0
C2225 C 0.83841 0.71322 0.95725 0.0
C2226 C 0.82933 0.71046 0.91359 0.0
C2227 C 0.83409 0.73513 0.91375 0.0
C2228 C 0.84071 0.74847 0.93635 0.0
C2229 C 0.84328 0.73761 0.95725 0.0
C2230 C 0.8229 0.69488 0.89059 0.0
C2231 C 0.84499 0.77455 0.93863 0.0
C2232 C 0.84963 0.7658 0.85836 0.0
C2233 C 0.82831 0.7685 0.84704 0.0
C2234 C 0.85167 0.75491 0.87938 0.0
C2235 C 0.83215 0.74686 0.89067 0.0
C2236 C 0.81073 0.75028 0.87961 0.0
C2237 C 0.80905 0.76029 0.85812 0.0
C2238 C 0.87492 0.75148 0.88922 0.0
C2239 C 0.78924 0.74339 0.89053 0.0
H2240 H 0.82755 0.68129 0.93394 0.0
H2241 H 0.84902 0.74848 0.97392 0.0
H2242 H 0.80618 0.69682 0.88162 0.0
H2243 H 0.83594 0.7 0.879 0.0
H2244 H 0.82152 0.67632 0.89282 0.0
H2245 H 0.8476 0.78254 0.95714 0.0
H2246 H 0.86049 0.78161 0.93082 0.0
H2247 H 0.83026 0.77984 0.92891 0.0
H2248 H 0.8648 0.77153 0.85031 0.0
H2249 H 0.79234 0.76195 0.85001 0.0
H2250 H 0.87375 0.73292 0.89126 0.0
H2251 H 0.88066 0.76155 0.90683 0.0
H2252 H 0.88815 0.75699 0.87794 0.0
H2253 H 0.78369 0.72422 0.88855 0.0
H2254 H 0.77486 0.75032 0.88231 0.0
H2255 H 0.79266 0.74971 0.90954 0.0
C2256 C 0.84575 0.1363 0.01665 0.0
C2257 C 0.85246 0.16058 0.01883 0.0
C2258 C 0.86087 0.12243 0.01103 0.0
C2259 C 0.88355 0.13309 0.00829 0.0
C2260 C 0.8905 0.15758 0.01041 0.0
C2261 C 0.87472 0.1711 0.01538 0.0
C2262 C 0.85257 0.09634 0.0081 0.0
C2263 C 0.91467 0.16944 0.00775 0.0
C2264 C 0.92664 0.09685 0.02267 0.0
C2265 C 0.9304 0.08837 1.00042 0.0
C2266 C 0.91209 0.11209 0.02537 0.0
C2267 C 0.90042 0.11853 1.00532 0.0
C2268 C 0.90389 0.10997 0.98276 0.0
C2269 C 0.91906 0.09515 0.98058 0.0
C2270 C 0.90888 0.12096 0.04973 0.0
C2271 C 0.8911 0.11583 0.96095 0.0
H2272 H 0.82834 0.12801 0.01861 0.0
H2273 H 0.87979 0.18983 0.01664 0.0
H2274 H 0.85611 0.08862 0.99114 0.0
H2275 H 0.86201 0.08909 0.02211 0.0
H2276 H 0.83385 0.09084 0.00878 0.0
H2277 H 0.91715 0.1886 0.00916 0.0
H2278 H 0.92711 0.16517 0.02146 0.0
H2279 H 0.91882 0.16302 0.99058 0.0
H2280 H 0.9348 0.09129 0.03811 0.0
H2281 H 0.92202 0.08892 0.96333 0.0
H2282 H 0.89087 0.11421 0.05245 0.0
H2283 H 0.91207 0.14018 0.05197 0.0
H2284 H 0.92054 0.11569 0.06349 0.0
H2285 H 0.8726 0.10724 0.95927 0.0
H2286 H 0.89772 0.11004 0.9449 0.0
H2287 H 0.89228 0.13478 0.96204 0.0
C2288 C 0.36645 0.48146 0.02634 0.0
C2289 C 0.3605 0.45981 0.03468 0.0
C2290 C 0.38968 0.4926 0.02522 0.0
C2291 C 0.40819 0.48233 0.03286 0.0
C2292 C 0.40232 0.46048 0.04137 0.0
C2293 C 0.37887 0.44958 0.04208 0.0
C2294 C 0.39442 0.51558 0.01578 0.0
C2295 C 0.42095 0.44859 0.04999 0.0
C2296 C 0.4676 0.50169 0.01147 0.0
C2297 C 0.48103 0.51753 0.03034 0.0
C2298 C 0.44429 0.4903 0.01205 0.0
C2299 C 0.43345 0.49444 0.03202 0.0
C2300 C 0.44689 0.51045 0.05108 0.0
C2301 C 0.47014 0.52163 0.05003 0.0
C2302 C 0.43122 0.47363 0.99114 0.0
C2303 C 0.4367 0.51574 0.07288 0.0
H2304 H 0.35279 0.48983 0.02055 0.0
H2305 H 0.37497 0.43306 0.04875 0.0
H2306 H 0.4056 0.52907 0.02933 0.0
H2307 H 0.40383 0.51432 1.00062 0.0
H2308 H 0.37841 0.52132 0.01018 0.0
H2309 H 0.41392 0.43182 0.05618 0.0
H2310 H 0.43105 0.44533 0.03579 0.0
H2311 H 0.43303 0.46002 0.06456 0.0
H2312 H 0.4754 0.49794 0.99613 0.0
H2313 H 0.47993 0.53353 0.06494 0.0
H2314 H 0.41553 0.47932 0.9843 0.0
H2315 H 0.42552 0.45614 0.99639 0.0
H2316 H 0.44171 0.47225 0.97684 0.0
H2317 H 0.42141 0.523 0.06844 0.0
H2318 H 0.44917 0.52828 0.08635 0.0
H2319 H 0.43082 0.49951 0.08048 0.0
C2320 C 0.38431 0.58226 0.71617 0.0
C2321 C 0.3699 0.56228 0.72138 0.0
C2322 C 0.37953 0.60391 0.72169 0.0
C2323 C 0.35962 0.60502 0.73187 0.0
C2324 C 0.34368 0.58457 0.73448 0.0
C2325 C 0.34925 0.56326 0.72948 0.0
C2326 C 0.39709 0.62548 0.71923 0.0
C2327 C 0.32198 0.58529 0.74484 0.0
C2328 C 0.35798 0.65243 0.77857 0.0
C2329 C 0.34438 0.6646 0.76598 0.0
C2330 C 0.36467 0.63378 0.76713 0.0
C2331 C 0.35689 0.62724 0.74287 0.0
C2332 C 0.34413 0.64035 0.72997 0.0
C2333 C 0.3381 0.65916 0.74178 0.0
C2334 C 0.37883 0.62031 0.7812 0.0
C2335 C 0.33546 0.63352 0.70417 0.0
H2336 H 0.4005 0.58124 0.71019 0.0
H2337 H 0.33833 0.54756 0.73344 0.0
H2338 H 0.38867 0.63916 0.71317 0.0
H2339 H 0.4075 0.63253 0.73657 0.0
H2340 H 0.40894 0.62175 0.70688 0.0
H2341 H 0.30994 0.56797 0.7423 0.0
H2342 H 0.32647 0.5912 0.7639 0.0
H2343 H 0.313 0.59776 0.73691 0.0
H2344 H 0.36276 0.6571 0.79732 0.0
H2345 H 0.3275 0.66894 0.73237 0.0
H2346 H 0.39341 0.61731 0.77228 0.0
H2347 H 0.36802 0.60308 0.78273 0.0
H2348 H 0.38576 0.62941 0.7991 0.0
H2349 H 0.34949 0.62998 0.69465 0.0
H2350 H 0.32819 0.64715 0.69626 0.0
H2351 H 0.32185 0.61729 0.7016 0.0
C2352 C 0.23012 0.62203 0.50358 0.0
C2353 C 0.23472 0.6463 0.50819 0.0
C2354 C 0.20897 0.60839 0.50662 0.0
C2355 C 0.19198 0.61933 0.51414 0.0
C2356 C 0.19634 0.64381 0.5185 0.0
C2357 C 0.2178 0.65706 0.51562 0.0
C2358 C 0.20486 0.58227 0.50193 0.0
C2359 C 0.17834 0.65598 0.52614 0.0
C2360 C 0.13036 0.58547 0.50004 0.0
C2361 C 0.12617 0.57832 0.52169 0.0
C2362 C 0.1517 0.59887 0.49738 0.0
C2363 C 0.16938 0.60507 0.5168 0.0
C2364 C 0.16556 0.59742 0.53857 0.0
C2365 C 0.14391 0.5841 0.54078 0.0
C2366 C 0.15518 0.60669 0.47387 0.0
C2367 C 0.18421 0.6036 0.55957 0.0
H2368 H 0.24319 0.6136 0.49797 0.0
H2369 H 0.22131 0.67581 0.51915 0.0
H2370 H 0.20064 0.5745 0.51787 0.0
H2371 H 0.18992 0.57536 0.48799 0.0
H2372 H 0.22003 0.57649 0.49648 0.0
H2373 H 0.1844 0.67516 0.52858 0.0
H2374 H 0.16257 0.65108 0.51294 0.0
H2375 H 0.17345 0.65043 0.54283 0.0
H2376 H 0.11686 0.58087 0.48512 0.0
H2377 H 0.14075 0.57871 0.55758 0.0
H2378 H 0.16956 0.60026 0.46735 0.0
H2379 H 0.15993 0.62591 0.47561 0.0
H2380 H 0.13955 0.60043 0.46058 0.0
H2381 H 0.19969 0.59763 0.55537 0.0
H2382 H 0.17863 0.59579 0.57508 0.0
H2383 H 0.18938 0.62272 0.56418 0.0
C2384 C 0.67625 0.95721 0.77859 0.0
C2385 C 0.6584 0.9417 0.76336 0.0
C2386 C 0.69751 0.95193 0.7842 0.0
C2387 C 0.70104 0.93064 0.77418 0.0
C2388 C 0.68345 0.91523 0.75807 0.0
C2389 C 0.66215 0.92101 0.75273 0.0
C2390 C 0.71583 0.96881 0.80146 0.0
C2391 C 0.68695 0.89242 0.74708 0.0
C2392 C 0.76246 0.9251 0.77582 0.0
C2393 C 0.76486 0.91211 0.79446 0.0
C2394 C 0.74164 0.93116 0.76891 0.0
C2395 C 0.72302 0.92432 0.78119 0.0
C2396 C 0.72551 0.91197 0.80055 0.0
C2397 C 0.74641 0.90583 0.80686 0.0
C2398 C 0.73944 0.94452 0.74826 0.0
C2399 C 0.706 0.90495 0.81432 0.0
H2400 H 0.67348 0.97346 0.78661 0.0
H2401 H 0.6483 0.90911 0.74097 0.0
H2402 H 0.71956 0.96075 0.8175 0.0
H2403 H 0.73206 0.97308 0.79397 0.0
H2404 H 0.71059 0.98521 0.80655 0.0
H2405 H 0.67194 0.88295 0.73407 0.0
H2406 H 0.70249 0.89537 0.73832 0.0
H2407 H 0.68984 0.88126 0.76085 0.0
H2408 H 0.77678 0.93024 0.7664 0.0
H2409 H 0.74804 0.89546 0.82103 0.0
H2410 H 0.73441 0.96096 0.75356 0.0
H2411 H 0.72564 0.93426 0.73442 0.0
H2412 H 0.75568 0.94868 0.74073 0.0
H2413 H 0.7001 0.92046 0.82104 0.0
H2414 H 0.711 0.89597 0.82935 0.0
H2415 H 0.69114 0.89322 0.80277 0.0
C2416 C 0.70326 0.95333 0.5427 0.0
C2417 C 0.72129 0.96405 0.53113 0.0
C2418 C 0.68253 0.96185 0.54381 0.0
C2419 C 0.67875 0.98157 0.53279 0.0
C2420 C 0.69665 0.99196 0.52068 0.0
C2421 C 0.7172 0.98345 0.52025 0.0
C2422 C 0.66473 0.94993 0.55735 0.0
C2423 C 0.69421 0.01245 0.50802 0.0
C2424 C 0.61642 0.99343 0.51839 0.0
C2425 C 0.61637 0.0128 0.53463 0.0
C2426 C 0.6361 0.98333 0.51755 0.0
C2427 C 0.6567 0.99168 0.53403 0.0
C2428 C 0.65643 0.01082 0.5509 0.0
C2429 C 0.63691 0.02125 0.55065 0.0
C2430 C 0.63496 0.96389 0.49844 0.0
C2431 C 0.67694 0.02039 0.56957 0.0
H2432 H 0.70557 0.93861 0.55155 0.0
H2433 H 0.73039 0.99235 0.51113 0.0
H2434 H 0.6608 0.96278 0.57053 0.0
H2435 H 0.64852 0.94211 0.54534 0.0
H2436 H 0.67044 0.93607 0.56638 0.0
H2437 H 0.70847 0.01765 0.49782 0.0
H2438 H 0.67767 0.00832 0.49594 0.0
H2439 H 0.69394 0.0275 0.52079 0.0
H2440 H 0.60113 0.98649 0.50565 0.0
H2441 H 0.63762 0.03598 0.56351 0.0
H2442 H 0.63673 0.94795 0.5062 0.0
H2443 H 0.64947 0.96845 0.48842 0.0
H2444 H 0.61856 0.96001 0.48614 0.0
H2445 H 0.68203 1.0061 0.57832 0.0
H2446 H 0.67345 0.03331 0.583 0.0
H2447 H 0.69178 0.02885 0.56152 0.0
C2448 C 0.35727 0.4553 0.73263 0.0
C2449 C 0.36784 0.45686 0.71253 0.0
C2450 C 0.34739 0.43377 0.73862 0.0
C2451 C 0.34807 0.41364 0.72393 0.0
C2452 C 0.35639 0.41521 0.70232 0.0
C2453 C 0.36627 0.43704 0.6968 0.0
C2454 C 0.33848 0.43258 0.76177 0.0
C2455 C 0.35702 0.39387 0.68625 0.0
C2456 C 0.35661 0.36357 0.75586 0.0
C2457 C 0.33443 0.34954 0.75149 0.0
C2458 C 0.36138 0.38442 0.74646 0.0
C2459 C 0.34334 0.39126 0.73284 0.0
C2460 C 0.32088 0.3772 0.72852 0.0
C2461 C 0.3167 0.35629 0.73781 0.0
C2462 C 0.38562 0.3992 0.75126 0.0
C2463 C 0.3013 0.38444 0.71447 0.0
H2464 H 0.35815 0.4708 0.74456 0.0
H2465 H 0.37431 0.43839 0.68115 0.0
H2466 H 0.32201 0.41949 0.7599 0.0
H2467 H 0.35108 0.42721 0.77447 0.0
H2468 H 0.33583 0.4496 0.76918 0.0
H2469 H 0.36071 0.39807 0.66871 0.0
H2470 H 0.37065 0.38571 0.69402 0.0
H2471 H 0.34045 0.38089 0.68412 0.0
H2472 H 0.37022 0.35812 0.76636 0.0
H2473 H 0.29943 0.34542 0.73471 0.0
H2474 H 0.38581 0.41625 0.76104 0.0
H2475 H 0.39201 0.40254 0.73454 0.0
H2476 H 0.39771 0.3909 0.76158 0.0
H2477 H 0.29874 0.40099 0.72314 0.0
H2478 H 0.28488 0.3712 0.71244 0.0
H2479 H 0.30551 0.38759 0.69686 0.0
C2480 C 0.16235 0.53668 0.22775 0.0
C2481 C 0.14007 0.53271 0.23333 0.0
C2482 C 0.1749 0.55937 0.22769 0.0
C2483 C 0.16507 0.57823 0.23429 0.0
C2484 C 0.14175 0.57415 0.23765 0.0
C2485 C 0.12933 0.55126 0.23663 0.0
C2486 C 0.19952 0.56316 0.22319 0.0
C2487 C 0.13078 0.59375 0.24514 0.0
C2488 C 0.2091 0.62873 0.26946 0.0
C2489 C 0.21352 0.64323 0.25235 0.0
C2490 C 0.19248 0.60784 0.26404 0.0
C2491 C 0.18016 0.60165 0.24101 0.0
C2492 C 0.18375 0.61704 0.22414 0.0
C2493 C 0.20059 0.63768 0.23001 0.0
C2494 C 0.18885 0.59194 0.28261 0.0
C2495 C 0.17072 0.61122 0.1996 0.0
H2496 H 0.17066 0.52226 0.22557 0.0
H2497 H 0.11213 0.54803 0.2413 0.0
H2498 H 0.20335 0.5771 0.21196 0.0
H2499 H 0.21125 0.56871 0.24004 0.0
H2500 H 0.2033 0.54711 0.21466 0.0
H2501 H 0.11173 0.58807 0.24301 0.0
H2502 H 0.1372 0.60021 0.26387 0.0
H2503 H 0.13542 0.6085 0.23507 0.0
H2504 H 0.21923 0.63332 0.28673 0.0
H2505 H 0.20414 0.64925 0.21695 0.0
H2506 H 0.19478 0.57592 0.27769 0.0
H2507 H 0.17029 0.58668 0.28399 0.0
H2508 H 0.19837 0.60019 0.30005 0.0
H2509 H 0.17683 0.59715 0.19006 0.0
H2510 H 0.17315 0.62641 0.18974 0.0
H2511 H 0.15206 0.60479 0.19988 0.0
C2512 C 0.5419 0.69473 0.45349 0.0
C2513 C 0.51789 0.69041 0.44807 0.0
C2514 C 0.55217 0.68272 0.46958 0.0
C2515 C 0.53796 0.66617 0.48035 0.0
C2516 C 0.51384 0.66406 0.4773 0.0
C2517 C 0.50401 0.67631 0.46105 0.0
C2518 C 0.57791 0.68524 0.47226 0.0
C2519 C 0.49819 0.64651 0.48859 0.0
C2520 C 0.55206 0.60796 0.4801 0.0
C2521 C 0.56006 0.60784 0.50368 0.0
C2522 C 0.54588 0.62734 0.47223 0.0
C2523 C 0.54719 0.64696 0.4886 0.0
C2524 C 0.55618 0.64746 0.51237 0.0
C2525 C 0.56281 0.62774 0.5197 0.0
C2526 C 0.53676 0.62615 0.44655 0.0
C2527 C 0.5574 0.66812 0.53015 0.0
H2528 H 0.55268 0.70617 0.44386 0.0
H2529 H 0.48543 0.67323 0.45708 0.0
H2530 H 0.58507 0.68404 0.4905 0.0
H2531 H 0.58181 0.67095 0.46079 0.0
H2532 H 0.58674 0.70197 0.46716 0.0
H2533 H 0.48097 0.65053 0.48871 0.0
H2534 H 0.49578 0.62904 0.47863 0.0
H2535 H 0.50582 0.64577 0.5068 0.0
H2536 H 0.54962 0.59244 0.46784 0.0
H2537 H 0.56868 0.62738 0.53804 0.0
H2538 H 0.54594 0.64136 0.4392 0.0
H2539 H 0.51824 0.62644 0.4444 0.0
H2540 H 0.53864 0.61017 0.43606 0.0
H2541 H 0.56462 0.68452 0.52344 0.0
H2542 H 0.56798 0.66725 0.54698 0.0
H2543 H 0.53977 0.66873 0.53352 0.0
C2544 C 0.66655 0.3611 0.72142 0.0
C2545 C 0.67569 0.36697 0.70124 0.0
C2546 C 0.67573 0.3462 0.73528 0.0
C2547 C 0.69456 0.33756 0.72879 0.0
C2548 C 0.70211 0.34158 0.70714 0.0
C2549 C 0.69247 0.35619 0.69359 0.0
C2550 C 0.66679 0.34157 0.75788 0.0
C2551 C 0.72213 0.33267 0.69944 0.0
C2552 C 0.74556 0.33538 0.77223 0.0
C2553 C 0.74493 0.31163 0.7694 0.0
C2554 C 0.72806 0.34398 0.76049 0.0
C2555 C 0.70931 0.32832 0.74605 0.0
C2556 C 0.7074 0.30415 0.7452 0.0
C2557 C 0.72543 0.29605 0.75675 0.0
C2558 C 0.73095 0.36995 0.76159 0.0
C2559 C 0.68727 0.28697 0.73064 0.0
H2560 H 0.65371 0.36963 0.72743 0.0
H2561 H 0.69925 0.36052 0.67775 0.0
H2562 H 0.66667 0.32353 0.76132 0.0
H2563 H 0.67824 0.35341 0.77259 0.0
H2564 H 0.64914 0.34452 0.75769 0.0
H2565 H 0.72416 0.33527 0.68108 0.0
H2566 H 0.73826 0.34198 0.71091 0.0
H2567 H 0.71995 0.31394 0.701 0.0
H2568 H 0.76066 0.34745 0.78195 0.0
H2569 H 0.72482 0.2776 0.75484 0.0
H2570 H 0.71498 0.37507 0.76543 0.0
H2571 H 0.73433 0.37533 0.74437 0.0
H2572 H 0.74543 0.37961 0.77509 0.0
H2573 H 0.67086 0.29112 0.73447 0.0
H2574 H 0.68716 0.26885 0.73385 0.0
H2575 H 0.68795 0.28812 0.7118 0.0
C2576 C 0.02144 0.29593 0.90178 0.0
C2577 C 1.01123 0.2792 0.91492 0.0
C2578 C 0.02668 0.31959 0.91061 0.0
C2579 C 0.02211 0.32638 0.93327 0.0
C2580 C 0.01343 0.30932 0.94722 0.0
C2581 C 1.00775 0.28592 0.93771 0.0
C2582 C 0.03552 0.33731 0.8951 0.0
C2583 C 1.00885 0.31585 0.97168 0.0
C2584 C 0.04321 0.38783 0.9645 0.0
C2585 C 0.02294 0.39589 0.96151 0.0
C2586 C 0.04359 0.3654 0.95461 0.0
C2587 C 0.0233 0.35112 0.94132 0.0
C2588 C 1.00316 0.35981 0.93735 0.0
C2589 C 1.00319 0.38206 0.94772 0.0
C2590 C 0.06526 0.35661 0.9594 0.0
C2591 C 0.98125 0.34524 0.92303 0.0
H2592 H 0.02403 0.29065 0.88409 0.0
H2593 H 1.00011 0.27286 0.94794 0.0
H2594 H 0.02175 0.34625 0.88942 0.0
H2595 H 0.05028 0.35072 0.90481 0.0
H2596 H 0.04094 0.32926 0.87928 0.0
H2597 H 1.00492 0.30053 0.98121 0.0
H2598 H 0.0239 0.32856 0.98187 0.0
H2599 H 0.99399 0.32422 0.97085 0.0
H2600 H 0.05841 0.39869 0.97533 0.0
H2601 H 0.98761 0.38853 0.94548 0.0
H2602 H 0.06955 0.34862 0.94295 0.0
H2603 H 0.06249 0.34293 0.97108 0.0
H2604 H 0.08017 0.37062 0.96788 0.0
H2605 H 0.98477 0.3379 0.9059 0.0
H2606 H 0.96785 0.35534 0.91986 0.0
H2607 H 0.97427 0.33047 0.93227 0.0
C2608 C 0.03448 0.85644 0.20516 0.0
C2609 C 0.0558 0.85106 0.21147 0.0
C2610 C 0.01423 0.84205 0.20918 0.0
C2611 C 0.01551 0.82198 0.2199 0.0
C2612 C 0.03673 0.81541 0.22446 0.0
C2613 C 0.0568 0.83022 0.22034 0.0
C2614 C 0.99183 0.84951 0.20394 0.0
C2615 C 0.03842 0.79369 0.23529 0.0
C2616 C 0.97671 0.81216 0.26533 0.0
C2617 C 0.95853 0.7946 0.25343 0.0
C2618 C 0.99552 0.82084 0.25457 0.0
C2619 C 0.99622 0.81144 0.23141 0.0
C2620 C 0.97818 0.79326 0.2194 0.0
C2621 C 0.95922 0.7852 0.23054 0.0
C2622 C 0.01424 0.84066 0.26775 0.0
C2623 C 0.97854 0.78285 0.19472 0.0
H2624 H 0.03367 0.87238 0.19788 0.0
H2625 H 0.07323 0.82564 0.22438 0.0
H2626 H 0.97787 0.8346 0.19552 0.0
H2627 H 0.98678 0.85622 0.22055 0.0
H2628 H 0.99323 0.86337 0.19236 0.0
H2629 H 0.05498 0.78873 0.2335 0.0
H2630 H 0.03712 0.79664 0.25418 0.0
H2631 H 0.02404 0.77902 0.22713 0.0
H2632 H 0.97577 0.81977 0.28283 0.0
H2633 H 0.94492 0.77173 0.22137 0.0
H2634 H 0.0157 0.85599 0.25814 0.0
H2635 H 0.03107 0.83568 0.26914 0.0
H2636 H 1.01094 0.84585 0.28567 0.0
H2637 H 0.97381 0.79469 0.18234 0.0
H2638 H 0.96613 0.76581 0.18998 0.0
H2639 H 0.99599 0.78056 0.19236 0.0
C2640 C 0.57125 0.37804 0.1071 0.0
C2641 C 0.55079 0.36711 0.11499 0.0
C2642 C 0.57346 0.39945 0.09687 0.0
C2643 C 0.55526 0.41165 0.09495 0.0
C2644 C 0.53486 0.40094 0.10352 0.0
C2645 C 0.53278 0.37913 0.11273 0.0
C2646 C 0.5954 0.40889 0.08763 0.0
C2647 C 0.51495 0.41268 0.10308 0.0
C2648 C 0.56715 0.47865 0.08747 0.0
C2649 C 0.55972 0.47928 0.06346 0.0
C2650 C 0.56624 0.45734 0.09759 0.0
C2651 C 0.55729 0.43511 0.08395 0.0
C2652 C 0.54971 0.43566 0.05972 0.0
C2653 C 0.55113 0.45719 0.04998 0.0
C2654 C 0.57476 0.45873 0.12329 0.0
C2655 C 0.53977 0.41322 0.04384 0.0
H2656 H 0.58547 0.36948 0.10826 0.0
H2657 H 0.51681 0.37156 0.11866 0.0
H2658 H 0.59147 0.41066 0.06881 0.0
H2659 H 0.60361 0.42645 0.09691 0.0
H2660 H 0.60784 0.39758 0.08966 0.0
H2661 H 0.50079 0.40327 0.11148 0.0
H2662 H 0.52087 0.43065 0.11224 0.0
H2663 H 0.50807 0.4139 0.08475 0.0
H2664 H 0.57383 0.49502 0.09859 0.0
H2665 H 0.545 0.45664 0.03156 0.0
H2666 H 0.58846 0.44893 0.12586 0.0
H2667 H 0.56051 0.45055 0.13229 0.0
H2668 H 0.58171 0.47689 0.13168 0.0
H2669 H 0.55236 0.40201 0.04442 0.0
H2670 H 0.53506 0.41603 0.02543 0.0
H2671 H 0.52418 0.40367 0.05002 0.0
C2672 C 0.99259 0.27506 0.33951 0.0
C2673 C 1.00103 0.28394 0.36314 0.0
C2674 C 0.9702 0.27591 0.32867 0.0
C2675 C 0.95553 0.28679 0.34116 0.0
C2676 C 0.9641 0.29611 0.36497 0.0
C2677 C 0.98627 0.29421 0.37565 0.0
C2678 C 0.96216 0.26496 0.30367 0.0
C2679 C 0.94995 0.30856 0.37915 0.0
C2680 C 0.90572 0.30769 0.30556 0.0
C2681 C 0.88584 0.29066 0.30707 0.0
C2682 C 0.92811 0.30676 0.3165 0.0
C2683 C 0.93139 0.28824 0.32941 0.0
C2684 C 0.9114 0.27091 0.33078 0.0
C2685 C 0.88923 0.27237 0.31987 0.0
C2686 C 0.94836 0.32588 0.31434 0.0
C2687 C 0.91339 0.25054 0.34377 0.0
H2688 H 1.00351 0.26705 0.32942 0.0
H2689 H 0.99235 0.30149 0.39375 0.0
H2690 H 0.94556 0.25215 0.30241 0.0
H2691 H 0.95911 0.27841 0.29251 0.0
H2692 H 0.97481 0.25607 0.29658 0.0
H2693 H 0.95905 0.31558 0.39707 0.0
H2694 H 0.94568 0.32309 0.37024 0.0
H2695 H 0.93346 0.29656 0.3805 0.0
H2696 H 0.9038 0.32206 0.29599 0.0
H2697 H 0.8744 0.25895 0.32141 0.0
H2698 H 0.96096 0.31856 0.30535 0.0
H2699 H 0.95726 0.3341 0.33199 0.0
H2700 H 0.9432 0.33946 0.30444 0.0
H2701 H 0.92544 0.2411 0.33631 0.0
H2702 H 0.89655 0.23822 0.34299 0.0
H2703 H 0.92059 0.25675 0.36238 0.0
C2704 C 0.01915 0.71238 0.60607 0.0
C2705 C 0.03795 0.73075 0.61624 0.0
C2706 C 0.02184 0.68986 0.59722 0.0
C2707 C 0.04406 0.68487 0.59728 0.0
C2708 C 0.06317 0.70347 0.6072 0.0
C2709 C 0.05993 0.7256 0.61683 0.0
C2710 C 1.00059 0.67115 0.58792 0.0
C2711 C 0.08733 0.7002 0.60715 0.0
C2712 C 0.05185 0.62024 0.59028 0.0
C2713 C 0.05133 0.61461 0.56596 0.0
C2714 C 0.0494 0.64247 0.60051 0.0
C2715 C 0.04712 0.66065 0.5866 0.0
C2716 C 0.04722 0.65519 0.56213 0.0
C2717 C 0.04885 0.63261 0.55229 0.0
C2718 C 0.04879 0.64634 0.62641 0.0
C2719 C 0.04571 0.6734 0.54608 0.0
H2720 H 1.00197 0.71544 0.60544 0.0
H2721 H 0.07484 0.73917 0.62434 0.0
H2722 H 0.99987 0.66639 0.56887 0.0
H2723 H 1.00122 0.65531 0.59636 0.0
H2724 H 0.98456 0.67668 0.59094 0.0
H2725 H 0.10049 0.71616 0.6147 0.0
H2726 H 0.09005 0.68593 0.61729 0.0
H2727 H 0.08999 0.69514 0.58897 0.0
H2728 H 0.05364 0.60698 0.60143 0.0
H2729 H 0.04857 0.62918 0.53358 0.0
H2730 H 0.03283 0.65189 0.62961 0.0
H2731 H 0.06351 0.66046 0.63492 0.0
H2732 H 0.04952 0.6305 0.63485 0.0
H2733 H 0.02844 0.67736 0.54489 0.0
H2734 H 0.04872 0.66773 0.52815 0.0
H2735 H 0.05852 0.68972 0.55319 0.0
C2736 C 0.64016 0.77273 0.83349 0.0
C2737 C 0.63808 0.78538 0.85489 0.0
C2738 C 0.66121 0.77477 0.82394 0.0
C2739 C 0.68197 0.78994 0.83562 0.0
C2740 C 0.68026 0.80285 0.8573 0.0
C2741 C 0.65873 0.80051 0.86653 0.0
C2742 C 0.66109 0.76052 0.80093 0.0
C2743 C 0.70139 0.81923 0.87093 0.0
C2744 C 0.73971 0.77673 0.81798 0.0
C2745 C 0.74696 0.79343 0.80315 0.0
C2746 C 0.71957 0.776 0.82911 0.0
C2747 C 0.70503 0.79183 0.82511 0.0
C2748 C 0.71218 0.80857 0.80986 0.0
C2749 C 0.73293 0.80947 0.79969 0.0
C2750 C 0.71397 0.75819 0.84549 0.0
C2751 C 0.69763 0.82552 0.80387 0.0
H2752 H 0.62498 0.76086 0.82376 0.0
H2753 H 0.65815 0.81064 0.8829 0.0
H2754 H 0.66753 0.77206 0.78817 0.0
H2755 H 0.67284 0.74859 0.80334 0.0
H2756 H 0.64367 0.75007 0.79337 0.0
H2757 H 0.69795 0.82754 0.88768 0.0
H2758 H 0.7152 0.80976 0.87468 0.0
H2759 H 0.70796 0.83301 0.86033 0.0
H2760 H 0.75022 0.76437 0.82142 0.0
H2761 H 0.73797 0.82264 0.78855 0.0
H2762 H 0.69763 0.74562 0.83812 0.0
H2763 H 0.71145 0.76676 0.86252 0.0
H2764 H 0.72771 0.74849 0.84864 0.0
H2765 H 0.6801 0.81592 0.79566 0.0
H2766 H 0.70503 0.83732 0.79172 0.0
H2767 H 0.6958 0.83612 0.82003 0.0
C2768 C 0.45775 0.54599 0.64126 0.0
C2769 C 0.46077 0.53376 0.66015 0.0
C2770 C 0.47278 0.54679 0.62483 0.0
C2771 C 0.49044 0.53445 0.62743 0.0
C2772 C 0.49255 0.52083 0.64575 0.0
C2773 C 0.47774 0.52096 0.66229 0.0
C2774 C 0.47037 0.56153 0.60533 0.0
C2775 C 0.51082 0.50688 0.64828 0.0
C2776 C 0.51752 0.52709 0.57381 0.0
C2777 C 0.53602 0.54628 0.57848 0.0
C2778 C 0.50288 0.52226 0.59019 0.0
C2779 C 0.50744 0.53695 0.61161 0.0
C2780 C 0.5272 0.55539 0.61705 0.0
C2781 C 0.54147 0.5599 0.60015 0.0
C2782 C 0.48208 0.50226 0.58415 0.0
C2783 C 0.53255 0.57096 0.64013 0.0
H2784 H 0.44428 0.55558 0.6399 0.0
H2785 H 0.47941 0.51115 0.67694 0.0
H2786 H 0.486 0.57574 0.60706 0.0
H2787 H 0.46886 0.55099 0.58812 0.0
H2788 H 0.45514 0.56932 0.60545 0.0
H2789 H 0.50787 0.49467 0.66145 0.0
H2790 H 0.5114 0.49683 0.63132 0.0
H2791 H 0.52795 0.51879 0.65378 0.0
H2792 H 0.51438 0.51607 0.55724 0.0
H2793 H 0.55635 0.57436 0.60352 0.0
H2794 H 0.46624 0.50907 0.58207 0.0
H2795 H 0.48089 0.49125 0.59846 0.0
H2796 H 0.48248 0.49126 0.56766 0.0
H2797 H 0.51896 0.58085 0.64158 0.0
H2798 H 0.54944 0.58346 0.64208 0.0
H2799 H 0.53263 0.56043 0.65485 0.0
C2800 C 0.78873 0.23033 0.94519 0.0
C2801 C 0.80257 0.24557 0.96406 0.0
C2802 C 0.78653 0.23666 0.92247 0.0
C2803 C 0.79776 0.25912 0.91859 0.0
C2804 C 0.81045 0.2751 0.93788 0.0
C2805 C 0.81315 0.26797 0.96026 0.0
C2806 C 0.77362 0.21872 0.90239 0.0
C2807 C 0.822 0.29947 0.93472 0.0
C2808 C 0.81643 0.26867 0.85931 0.0
C2809 C 0.79841 0.27712 0.84831 0.0
C2810 C 0.81615 0.26228 0.88192 0.0
C2811 C 0.79779 0.26525 0.89421 0.0
C2812 C 0.77965 0.27407 0.88315 0.0
C2813 C 0.78 0.27956 0.86013 0.0
C2814 C 0.83545 0.2522 0.89258 0.0
C2815 C 0.7601 0.27809 0.89577 0.0
H2816 H 0.78097 0.21277 0.94784 0.0
H2817 H 0.82402 0.27972 0.97471 0.0
H2818 H 0.76124 0.22588 0.89119 0.0
H2819 H 0.78598 0.21374 0.89128 0.0
H2820 H 0.76411 0.20283 0.90849 0.0
H2821 H 0.82853 0.31063 0.95172 0.0
H2822 H 0.8367 0.29905 0.92503 0.0
H2823 H 0.80981 0.30749 0.92423 0.0
H2824 H 0.83064 0.26679 0.85003 0.0
H2825 H 0.76618 0.28629 0.85159 0.0
H2826 H 0.82831 0.23505 0.89792 0.0
H2827 H 0.84498 0.26364 0.90853 0.0
H2828 H 0.84782 0.25 0.88029 0.0
H2829 H 0.75055 0.26146 0.90033 0.0
H2830 H 0.74783 0.28592 0.88511 0.0
H2831 H 0.767 0.28974 0.91239 0.0
C2832 C 0.06396 0.48803 0.1946 0.0
C2833 C 0.08184 0.47744 0.18976 0.0
C2834 C 0.06107 0.50779 0.18432 0.0
C2835 C 0.0759 0.51605 0.16847 0.0
C2836 C 0.09666 0.50855 0.16797 0.0
C2837 C 0.09916 0.48878 0.17827 0.0
C2838 C 0.04006 0.51721 0.18705 0.0
C2839 C 0.11415 0.51868 0.15315 0.0
C2840 C 0.04685 0.51297 0.10675 0.0
C2841 C 0.05363 0.53588 0.10225 0.0
C2842 C 0.05309 0.50666 0.12867 0.0
C2843 C 0.06592 0.52389 0.14693 0.0
C2844 C 0.07101 0.54745 0.14313 0.0
C2845 C 0.06483 0.55318 0.12071 0.0
C2846 C 0.04727 0.48115 0.13156 0.0
C2847 C 0.08353 0.56673 0.16211 0.0
H2848 H 0.05078 0.47942 0.20393 0.0
H2849 H 0.11341 0.48088 0.17527 0.0
H2850 H 0.04359 0.53608 0.18563 0.0
H2851 H 0.02586 0.50831 0.17293 0.0
H2852 H 0.03423 0.51417 0.20411 0.0
H2853 H 0.13108 0.51456 0.15845 0.0
H2854 H 0.10802 0.51135 0.13456 0.0
H2855 H 0.11645 0.53779 0.15449 0.0
H2856 H 0.03789 0.49954 0.0927 0.0
H2857 H 0.06977 0.57106 0.11749 0.0
H2858 H 0.03666 0.47829 0.14575 0.0
H2859 H 0.06324 0.47509 0.1363 0.0
H2860 H 0.03757 0.47013 0.11538 0.0
H2861 H 0.07145 0.5776 0.16679 0.0
H2862 H 0.09782 0.57813 0.15549 0.0
H2863 H 0.09055 0.56048 0.1782 0.0
C2864 C 0.78921 0.88373 0.44671 0.0
C2865 C 0.79811 0.87462 0.46653 0.0
C2866 C 0.79011 0.87409 0.42319 0.0
C2867 C 0.80002 0.85453 0.41861 0.0
C2868 C 0.80849 0.84504 0.43855 0.0
C2869 C 0.80752 0.85502 0.46168 0.0
C2870 C 0.78095 0.88535 0.40308 0.0
C2871 C 0.81915 0.82434 0.43552 0.0
C2872 C 0.78712 0.81624 0.35712 0.0
C2873 C 0.80736 0.82302 0.3471 0.0
C2874 C 0.78445 0.82626 0.37982 0.0
C2875 C 0.80213 0.84424 0.39342 0.0
C2876 C 0.82242 0.85143 0.38316 0.0
C2877 C 0.82485 0.84075 0.36069 0.0
C2878 C 0.76267 0.81714 0.38949 0.0
C2879 C 0.84185 0.87057 0.39605 0.0
H2880 H 0.78221 0.89896 0.44952 0.0
H2881 H 0.81466 0.84745 0.47626 0.0
H2882 H 0.79505 0.89189 0.39314 0.0
H2883 H 0.76764 0.87237 0.39086 0.0
H2884 H 0.77337 0.9 0.409 0.0
H2885 H 0.82383 0.818 0.45239 0.0
H2886 H 0.80707 0.80996 0.42365 0.0
H2887 H 0.83491 0.829 0.42731 0.0
H2888 H 0.77334 0.80261 0.34735 0.0
H2889 H 0.84063 0.84654 0.35363 0.0
H2890 H 0.75427 0.83153 0.39409 0.0
H2891 H 0.76686 0.80966 0.40579 0.0
H2892 H 0.75024 0.80359 0.37692 0.0
H2893 H 0.83528 0.88616 0.4011 0.0
H2894 H 0.85581 0.87546 0.38542 0.0
H2895 H 0.84922 0.865 0.4124 0.0
C2896 C 0.4436 0.49228 0.78137 0.0
C2897 C 0.45321 0.49971 0.76199 0.0
C2898 C 0.45709 0.49612 0.80336 0.0
C2899 C 0.48032 0.50837 0.80582 0.0
C2900 C 0.49014 0.51555 0.78618 0.0
C2901 C 0.4765 0.51071 0.7643 0.0
C2902 C 0.44636 0.48775 0.82402 0.0
C2903 C 0.51468 0.52932 0.78847 0.0
C2904 C 0.50753 0.53785 0.86618 0.0
C2905 C 0.5199 0.5218 0.87374 0.0
C2906 C 0.49476 0.53393 0.84379 0.0
C2907 C 0.4945 0.5135 0.82894 0.0
C2908 C 0.50755 0.49769 0.83621 0.0
C2909 C 0.52014 0.50205 0.85859 0.0
C2910 C 0.48107 0.55121 0.83629 0.0
C2911 C 0.50746 0.47569 0.82072 0.0
H2912 H 0.42545 0.48405 0.77939 0.0
H2913 H 0.48364 0.51701 0.74929 0.0
H2914 H 0.45703 0.47748 0.83345 0.0
H2915 H 0.4456 0.50284 0.8365 0.0
H2916 H 0.42865 0.4769 0.81871 0.0
H2917 H 0.51973 0.5333 0.77132 0.0
H2918 H 0.51681 0.54591 0.79998 0.0
H2919 H 0.52668 0.51964 0.79678 0.0
H2920 H 0.5074 0.55312 0.87798 0.0
H2921 H 0.52925 0.48934 0.86463 0.0
H2922 H 0.46243 0.543 0.83357 0.0
H2923 H 0.48538 0.55669 0.81937 0.0
H2924 H 0.48429 0.56687 0.84943 0.0
H2925 H 0.48974 0.46468 0.81679 0.0
H2926 H 0.51903 0.46548 0.82893 0.0
H2927 H 0.51293 0.47988 0.80382 0.0
C2928 C 0.80123 0.22669 0.09788 0.0
C2929 C 0.82072 0.23588 0.08778 0.0
C2930 C 0.80009 0.23283 0.12177 0.0
C2931 C 0.81894 0.24844 0.13618 0.0
C2932 C 0.83853 0.25791 0.12605 0.0
C2933 C 0.83916 0.25161 0.10213 0.0
C2934 C 0.77866 0.22259 0.13159 0.0
C2935 C 0.85902 0.27467 0.14056 0.0
C2936 C 0.81076 0.28282 0.19251 0.0
C2937 C 0.81866 0.27043 0.21003 0.0
C2938 C 0.81017 0.27552 0.16859 0.0
C2939 C 0.81806 0.25544 0.16166 0.0
C2940 C 0.8259 0.24269 0.1792 0.0
C2941 C 0.8259 0.25018 0.2031 0.0
C2942 C 0.80121 0.28947 0.1507 0.0
C2943 C 0.83469 0.22133 0.17271 0.0
H2944 H 0.78684 0.2145 0.08715 0.0
H2945 H 0.85436 0.25885 0.09475 0.0
H2946 H 0.78306 0.21275 0.14608 0.0
H2947 H 0.77111 0.23668 0.13898 0.0
H2948 H 0.76544 0.21081 0.11817 0.0
H2949 H 0.87316 0.28012 0.13028 0.0
H2950 H 0.85377 0.29037 0.14784 0.0
H2951 H 0.86569 0.26658 0.15556 0.0
H2952 H 0.80482 0.29833 0.19747 0.0
H2953 H 0.83201 0.24044 0.21638 0.0
H2954 H 0.78715 0.27811 0.13785 0.0
H2955 H 0.81511 0.29678 0.14086 0.0
H2956 H 0.7946 0.30397 0.15881 0.0
H2957 H 0.82123 0.20842 0.16058 0.0
H2958 H 0.8399 0.21312 0.18825 0.0
H2959 H 0.84971 0.22595 0.1634 0.0
C2960 C 0.09752 0.53542 0.28924 0.0
C2961 C 0.07789 0.5173 0.28379 0.0
C2962 C 0.09878 0.55382 0.30656 0.0
C2963 C 0.08001 0.55355 0.31889 0.0
C2964 C 0.05904 0.53688 0.31133 0.0
C2965 C 0.05822 0.51881 0.29364 0.0
C2966 C 0.12113 0.57174 0.31342 0.0
C2967 C 0.03847 0.53633 0.32388 0.0
C2968 C 0.08867 0.56275 0.38409 0.0
C2969 C 0.07887 0.58187 0.38817 0.0
C2970 C 0.09124 0.5546 0.3615 0.0
C2971 C 0.08396 0.56606 0.34271 0.0
C2972 C 0.07707 0.58716 0.34712 0.0
C2973 C 0.07439 0.59479 0.36996 0.0
C2974 C 0.09926 0.53226 0.35756 0.0
C2975 C 0.07048 0.60049 0.32761 0.0
H2976 H 0.11241 0.53469 0.281 0.0
H2977 H 0.04297 0.50484 0.28909 0.0
H2978 H 0.11828 0.58869 0.3207 0.0
H2979 H 0.13232 0.56572 0.32702 0.0
H2980 H 0.1305 0.57424 0.29823 0.0
H2981 H 0.02267 0.52462 0.31377 0.0
H2982 H 0.04191 0.53009 0.34106 0.0
H2983 H 0.03527 0.55397 0.32721 0.0
H2984 H 0.09214 0.55268 0.39812 0.0
H2985 H 0.06726 0.60988 0.37328 0.0
H2986 H 0.11313 0.53433 0.34652 0.0
H2987 H 0.08477 0.51828 0.34824 0.0
H2988 H 0.10581 0.52655 0.37422 0.0
H2989 H 0.08099 0.59905 0.31337 0.0
H2990 H 0.07248 0.61911 0.33413 0.0
H2991 H 0.05217 0.5933 0.32011 0.0
C2992 C 0.8135 0.89109 0.62485 0.0
C2993 C 0.79803 0.88098 0.60427 0.0
C2994 C 0.81364 0.88104 0.6463 0.0
C2995 C 0.79803 0.85978 0.64808 0.0
C2996 C 0.7822 0.84956 0.62738 0.0
C2997 C 0.78251 0.85999 0.60607 0.0
C2998 C 0.83128 0.89294 0.66702 0.0
C2999 C 0.76506 0.8271 0.62753 0.0
C3000 C 0.81281 0.82046 0.69595 0.0
C3001 C 0.80152 0.82671 0.71476 0.0
C3002 C 0.81211 0.83108 0.67484 0.0
C3003 C 0.79889 0.84807 0.67109 0.0
C3004 C 0.78697 0.85403 0.68982 0.0
C3005 C 0.78885 0.8439 0.71125 0.0
C3006 C 0.82612 0.82436 0.6566 0.0
C3007 C 0.7719 0.87115 0.68717 0.0
H3008 H 0.82617 0.90681 0.62401 0.0
H3009 H 0.77088 0.85124 0.59051 0.0
H3010 H 0.82266 0.89658 0.68232 0.0
H3011 H 0.84277 0.8813 0.67194 0.0
H3012 H 0.84194 0.9095 0.6634 0.0
H3013 H 0.75252 0.82225 0.61114 0.0
H3014 H 0.77424 0.81294 0.62964 0.0
H3015 H 0.75553 0.82846 0.64259 0.0
H3016 H 0.82296 0.80755 0.69803 0.0
H3017 H 0.77991 0.84918 0.72519 0.0
H3018 H 0.83788 0.84006 0.6526 0.0
H3019 H 0.81459 0.8163 0.64014 0.0
H3020 H 0.8365 0.81198 0.66231 0.0
H3021 H 0.78258 0.88848 0.68583 0.0
H3022 H 0.76222 0.87273 0.70211 0.0
H3023 H 0.75944 0.86577 0.67077 0.0
C3024 C 0.77883 0.44686 0.57595 0.0
C3025 C 0.77432 0.42703 0.5595 0.0
C3026 C 0.76337 0.46143 0.57652 0.0
C3027 C 0.74289 0.45586 0.56023 0.0
C3028 C 0.73793 0.43546 0.54394 0.0
C3029 C 0.75379 0.42125 0.5437 0.0
C3030 C 0.76928 0.48312 0.59404 0.0
C3031 C 0.71616 0.42901 0.52641 0.0
C3032 C 0.69455 0.48497 0.57243 0.0
C3033 C 0.69717 0.50223 0.55762 0.0
C3034 C 0.70928 0.46961 0.5734 0.0
C3035 C 0.72716 0.47193 0.55951 0.0
C3036 C 0.73003 0.4896 0.54479 0.0
C3037 C 0.71478 0.50441 0.54383 0.0
C3038 C 0.70562 0.45082 0.58912 0.0
C3039 C 0.74925 0.49292 0.53015 0.0
H3040 H 0.79482 0.45129 0.58806 0.0
H3041 H 0.75031 0.40594 0.53088 0.0
H3042 H 0.77103 0.49866 0.58473 0.0
H3043 H 0.75523 0.48341 0.60467 0.0
H3044 H 0.78555 0.48451 0.60601 0.0
H3045 H 0.71432 0.41197 0.51574 0.0
H3046 H 0.70094 0.42834 0.53553 0.0
H3047 H 0.71612 0.44245 0.51448 0.0
H3048 H 0.68075 0.48331 0.58295 0.0
H3049 H 0.71679 0.51796 0.53256 0.0
H3050 H 0.72133 0.45259 0.60199 0.0
H3051 H 0.70246 0.43354 0.57859 0.0
H3052 H 0.69087 0.45138 0.59876 0.0
H3053 H 0.7661 0.49576 0.54152 0.0
H3054 H 0.74941 0.50788 0.5201 0.0
H3055 H 0.7475 0.47705 0.51768 0.0
C3056 C 0.23472 0.09683 0.50019 0.0
C3057 C 0.24923 0.11666 0.51404 0.0
C3058 C 0.21152 0.08815 0.50337 0.0
C3059 C 0.20163 0.09921 0.52101 0.0
C3060 C 0.21602 0.11938 0.53503 0.0
C3061 C 0.23935 0.12779 0.53143 0.0
C3062 C 0.19755 0.06676 0.48775 0.0
C3063 C 0.20672 0.13216 0.55398 0.0
C3064 C 0.13446 0.08508 0.51237 0.0
C3065 C 0.12867 0.0688 0.52797 0.0
C3066 C 0.15772 0.09577 0.5108 0.0
C3067 C 0.17639 0.08958 0.52439 0.0
C3068 C 0.1706 0.07299 0.54007 0.0
C3069 C 0.14713 0.06332 0.54203 0.0
C3070 C 0.1623 0.11379 0.49442 0.0
C3071 C 0.18931 0.06488 0.55443 0.0
H3072 H 0.24156 0.08779 0.48659 0.0
H3073 H 0.24993 0.14298 0.54248 0.0
H3074 H 0.19117 0.05307 0.49852 0.0
H3075 H 0.18227 0.07084 0.47776 0.0
H3076 H 0.2076 0.05972 0.47514 0.0
H3077 H 0.21944 0.14791 0.56292 0.0
H3078 H 0.19096 0.13734 0.54646 0.0
H3079 H 0.20178 0.12056 0.56719 0.0
H3080 H 0.12063 0.08984 0.50151 0.0
H3081 H 0.14322 0.05079 0.5541 0.0
H3082 H 0.17065 0.10722 0.48001 0.0
H3083 H 0.17431 0.12974 0.50385 0.0
H3084 H 0.14628 0.11842 0.48673 0.0
H3085 H 0.19942 0.05677 0.54267 0.0
H3086 H 0.18234 0.05209 0.5659 0.0
H3087 H 0.20134 0.07988 0.56546 0.0
C3088 C 0.25787 0.00916 0.86254 0.0
C3089 C 0.2391 0.01741 0.85309 0.0
C3090 C 0.26575 0.99231 0.84933 0.0
C3091 C 0.25476 0.984 0.82615 0.0
C3092 C 0.23606 0.99252 0.81638 0.0
C3093 C 0.22834 0.00905 0.83004 0.0
C3094 C 0.28573 0.98331 0.86019 0.0
C3095 C 0.22422 0.98421 0.79156 0.0
C3096 C 0.29117 0.95598 0.78945 0.0
C3097 C 0.28303 0.93258 0.79172 0.0
C3098 C 0.28112 0.97295 0.79942 0.0
C3099 C 0.26286 0.96621 0.81222 0.0
C3100 C 0.2535 0.94251 0.81318 0.0
C3101 C 0.26359 0.92588 0.80263 0.0
C3102 C 0.29093 0.99813 0.79748 0.0
C3103 C 0.23387 0.93483 0.82662 0.0
H3104 H 0.26623 0.01569 0.88027 0.0
H3105 H 0.21401 0.01568 0.82245 0.0
H3106 H 0.28043 0.96425 0.8601 0.0
H3107 H 0.30005 0.98661 0.84975 0.0
H3108 H 0.29224 0.9915 0.87848 0.0
H3109 H 0.21101 0.99392 0.78609 0.0
H3110 H 0.237 0.98601 0.77925 0.0
H3111 H 0.21575 0.96553 0.78989 0.0
H3112 H 0.30623 0.9612 0.78107 0.0
H3113 H 0.25692 0.90769 0.80384 0.0
H3114 H 0.30001 0.00712 0.8148 0.0
H3115 H 0.27695 0.00692 0.79212 0.0
H3116 H 0.30326 1.00018 0.78469 0.0
H3117 H 0.23964 0.9408 0.84554 0.0
H3118 H 0.22757 0.91567 0.8242 0.0
H3119 H 0.21931 0.94277 0.82109 0.0
C3120 C 0.40687 0.92676 0.03861 0.0
C3121 C 0.38627 0.93428 0.03569 0.0
C3122 C 0.42797 0.94209 0.03823 0.0
C3123 C 0.42835 0.96552 0.03539 0.0
C3124 C 0.40761 0.97319 0.03245 0.0
C3125 C 0.38677 0.95738 0.03234 0.0
C3126 C 0.44981 0.93327 0.04091 0.0
C3127 C 0.40748 0.99819 0.02983 0.0
C3128 C 0.48454 0.00978 0.05502 0.0
C3129 C 0.49202 0.0134 0.03356 0.0
C3130 C 0.4636 0.99443 0.05592 0.0
C3131 C 0.45038 0.982 0.03488 0.0
C3132 C 0.45796 0.98554 0.01318 0.0
C3133 C 0.47857 1.00151 0.01276 0.0
C3134 C 0.4557 0.99146 0.07931 0.0
C3135 C 0.44459 0.97207 0.99048 0.0
H3136 H 0.40654 0.90894 0.04128 0.0
H3137 H 0.3709 0.96336 0.03041 0.0
H3138 H 0.45887 0.93648 0.02563 0.0
H3139 H 0.46159 0.94281 0.05667 0.0
H3140 H 0.44645 0.91443 0.04245 0.0
H3141 H 0.38991 1.00151 0.02861 0.0
H3142 H 0.41853 0.00977 0.04497 0.0
H3143 H 0.41474 1.00298 0.0139 0.0
H3144 H 0.4951 0.01893 0.07108 0.0
H3145 H 0.48466 1.00393 0.99618 0.0
H3146 H 0.4542 0.97323 0.08275 0.0
H3147 H 0.4384 0.99524 0.07915 0.0
H3148 H 0.46769 1.003 0.09391 0.0
H3149 H 0.44237 0.95318 0.99131 0.0
H3150 H 0.45323 0.97645 0.97517 0.0
H3151 H 0.42715 0.97563 0.98766 0.0
C3152 C 0.95359 0.63133 0.79637 0.0
C3153 C 0.96889 0.64727 0.81355 0.0
C3154 C 0.93366 0.63675 0.78563 0.0
C3155 C 0.92934 0.65877 0.7921 0.0
C3156 C 0.94499 0.67506 0.80928 0.0
C3157 C 0.96468 0.66899 0.82001 0.0
C3158 C 0.91718 0.61892 0.7676 0.0
C3159 C 0.94089 0.69879 0.81635 0.0
C3160 C 0.8866 0.68188 0.7531 0.0
C3161 C 0.86774 0.67808 0.76521 0.0
C3162 C 0.90677 0.67509 0.76129 0.0
C3163 C 0.90774 0.66428 0.78191 0.0
C3164 C 0.88826 0.65939 0.79344 0.0
C3165 C 0.86845 0.66645 0.78495 0.0
C3166 C 0.92734 0.6805 0.74864 0.0
C3167 C 0.88866 0.64767 0.81534 0.0
H3168 H 0.95727 0.61456 0.79141 0.0
H3169 H 0.9769 0.68125 0.83309 0.0
H3170 H 0.89998 0.61483 0.77324 0.0
H3171 H 0.91503 0.626 0.75071 0.0
H3172 H 0.92313 0.60256 0.76467 0.0
H3173 H 0.9552 0.70967 0.82933 0.0
H3174 H 0.93883 0.70791 0.80075 0.0
H3175 H 0.92471 0.69706 0.82402 0.0
H3176 H 0.88599 0.69127 0.73805 0.0
H3177 H 0.85376 0.66375 0.79428 0.0
H3178 H 0.93379 0.66464 0.74457 0.0
H3179 H 0.94149 0.6933 0.76007 0.0
H3180 H 0.92328 0.6877 0.7321 0.0
H3181 H 0.89421 0.63112 0.81225 0.0
H3182 H 0.87159 0.64397 0.82136 0.0
H3183 H 0.90131 0.65891 0.82959 0.0
C3184 C 0.91701 0.64752 0.02781 0.0
C3185 C 0.8942 0.63385 0.02289 0.0
C3186 C 0.93701 0.6375 0.02934 0.0
C3187 C 0.935 0.61288 0.02582 0.0
C3188 C 0.91203 0.59915 0.02079 0.0
C3189 C 0.89249 0.60953 0.01946 0.0
C3190 C 0.96055 0.65347 0.03469 0.0
C3191 C 0.90793 0.57307 0.01682 0.0
C3192 C 0.98556 0.58411 0.00879 0.0
C3193 C 0.99579 0.57849 0.0301 0.0
C3194 C 0.96662 0.59551 0.00727 0.0
C3195 C 0.95644 0.60141 0.02739 0.0
C3196 C 0.96656 0.59541 0.04888 0.0
C3197 C 0.98591 0.58462 0.05002 0.0
C3198 C 0.95755 0.60149 0.98385 0.0
C3199 C 0.95672 0.60023 0.07098 0.0
H3200 H 0.91935 0.6662 0.0306 0.0
H3201 H 0.87546 0.59823 0.01561 0.0
H3202 H 0.97026 0.64924 0.05057 0.0
H3203 H 0.97035 0.65084 0.02006 0.0
H3204 H 0.95976 0.67201 0.03748 0.0
H3205 H 0.88934 0.56452 0.01314 0.0
H3206 H 0.91629 0.56766 1.0019 0.0
H3207 H 0.91582 0.56673 0.03246 0.0
H3208 H 0.9927 0.57995 0.99311 0.0
H3209 H 0.99319 0.58064 0.06672 0.0
H3210 H 0.9585 0.62041 0.98503 0.0
H3211 H 0.93919 0.59253 0.97876 0.0
H3212 H 0.96732 0.59654 0.96989 0.0
H3213 H 0.95783 0.61911 0.07488 0.0
H3214 H 0.96581 0.5943 0.08624 0.0
H3215 H 0.93824 0.59139 0.06857 0.0
C3216 C 0.26991 0.14643 0.87067 0.0
C3217 C 0.26003 0.12482 0.85754 0.0
C3218 C 0.2763 0.16606 0.85955 0.0
C3219 C 0.27302 0.16375 0.83484 0.0
C3220 C 0.26409 0.1418 0.8215 0.0
C3221 C 0.2576 0.12253 0.83306 0.0
C3222 C 0.28568 0.1894 0.87418 0.0
C3223 C 0.26072 0.13884 0.79508 0.0
C3224 C 0.26907 0.21787 0.80734 0.0
C3225 C 0.29181 0.22547 0.80358 0.0
C3226 C 0.26249 0.19739 0.81715 0.0
C3227 C 0.27908 0.18438 0.82299 0.0
C3228 C 0.30181 0.19155 0.8184 0.0
C3229 C 0.30793 0.21209 0.80879 0.0
C3230 C 0.23807 0.19008 0.82194 0.0
C3231 C 0.3198 0.17783 0.82417 0.0
H3232 H 0.27145 0.14825 0.88958 0.0
H3233 H 0.24992 0.10576 0.82292 0.0
H3234 H 0.30281 0.19744 0.86991 0.0
H3235 H 0.27414 0.20123 0.87011 0.0
H3236 H 0.28737 0.18812 0.89323 0.0
H3237 H 0.25449 0.12037 0.78738 0.0
H3238 H 0.24805 0.14865 0.78843 0.0
H3239 H 0.27712 0.14602 0.7888 0.0
H3240 H 0.25664 0.22825 0.80329 0.0
H3241 H 0.32548 0.21776 0.80554 0.0
H3242 H 0.23801 0.19029 0.84104 0.0
H3243 H 0.2303 0.17206 0.81362 0.0
H3244 H 0.22709 0.20163 0.81539 0.0
H3245 H 0.32309 0.17765 0.84335 0.0
H3246 H 0.33634 0.18515 0.81817 0.0
H3247 H 0.31352 0.15956 0.81596 0.0
C3248 C 0.47881 0.04332 0.28842 0.0
C3249 C 0.48633 0.05051 0.31239 0.0
C3250 C 0.46469 0.02113 0.28051 0.0
C3251 C 0.45836 1.00581 0.29695 0.0
C3252 C 0.46709 0.01253 0.32096 0.0
C3253 C 0.48073 0.03482 0.32837 0.0
C3254 C 0.45583 0.01441 0.25475 0.0
C3255 C 0.46114 0.99658 0.33907 0.0
C3256 C 0.40138 0.96281 0.29039 0.0
C3257 C 0.40805 0.94162 0.28759 0.0
C3258 C 0.41736 0.9839 0.29151 0.0
C3259 C 0.44063 0.98383 0.28988 0.0
C3260 C 0.44715 0.9625 0.28527 0.0
C3261 C 0.43076 0.9416 0.28426 0.0
C3262 C 0.40965 1.00626 0.29635 0.0
C3263 C 0.47171 0.96168 0.2831 0.0
H3264 H 0.48331 0.05526 0.27593 0.0
H3265 H 0.48679 0.04007 0.34687 0.0
H3266 H 0.4599 0.99771 0.24853 0.0
H3267 H 0.43683 0.0118 0.25173 0.0
H3268 H 0.46327 0.02778 0.24409 0.0
H3269 H 0.47098 1.00365 0.35668 0.0
H3270 H 0.44251 0.99386 0.34025 0.0
H3271 H 0.46466 0.97936 0.33392 0.0
H3272 H 0.38394 0.96303 0.2932 0.0
H3273 H 0.43591 0.92524 0.28167 0.0
H3274 H 0.41624 0.01875 0.28449 0.0
H3275 H 0.41677 0.01432 0.31455 0.0
H3276 H 0.39061 1.00344 0.29424 0.0
H3277 H 0.47929 0.97498 0.27247 0.0
H3278 H 0.47306 0.94436 0.2751 0.0
H3279 H 0.48216 0.96551 0.30074 0.0
C3280 C 0.58038 0.43987 0.6373 0.0
C3281 C 0.5916 0.42166 0.63572 0.0
C3282 C 0.57805 0.45263 0.61865 0.0
C3283 C 0.58647 0.44622 0.59787 0.0
C3284 C 0.5986 0.42831 0.59656 0.0
C3285 C 0.60126 0.41629 0.61581 0.0
C3286 C 0.56586 0.47233 0.62089 0.0
C3287 C 0.60743 0.42095 0.57444 0.0
C3288 C 0.55524 0.46432 0.54511 0.0
C3289 C 0.57135 0.48395 0.54187 0.0
C3290 C 0.56059 0.45081 0.56249 0.0
C3291 C 0.58199 0.458 0.57739 0.0
C3292 C 0.5984 0.47758 0.57387 0.0
C3293 C 0.59306 0.49001 0.55576 0.0
C3294 C 0.54315 0.42936 0.56544 0.0
C3295 C 0.62095 0.48634 0.59011 0.0
H3296 H 0.57292 0.44367 0.65289 0.0
H3297 H 0.60961 0.40182 0.61478 0.0
H3298 H 0.57621 0.48816 0.61551 0.0
H3299 H 0.54913 0.46766 0.60914 0.0
H3300 H 0.56255 0.47648 0.63904 0.0
H3301 H 0.61822 0.40812 0.57703 0.0
H3302 H 0.59263 0.41308 0.56058 0.0
H3303 H 0.61769 0.43614 0.56795 0.0
H3304 H 0.53847 0.45978 0.53436 0.0
H3305 H 0.60548 0.5054 0.55349 0.0
H3306 H 0.53639 0.4321 0.58216 0.0
H3307 H 0.55142 0.41439 0.56627 0.0
H3308 H 0.52844 0.42488 0.55095 0.0
H3309 H 0.61752 0.49174 0.60791 0.0
H3310 H 0.63215 0.50137 0.58422 0.0
H3311 H 0.6305 0.47239 0.59149 0.0
C3312 C 0.44519 0.73161 0.35192 0.0
C3313 C 0.46302 0.72803 0.33972 0.0
C3314 C 0.4295 0.74405 0.34323 0.0
C3315 C 0.4315 0.75253 0.32155 0.0
C3316 C 0.44956 0.74927 0.30921 0.0
C3317 C 0.46518 0.73704 0.31849 0.0
C3318 C 0.41043 0.74755 0.35691 0.0
C3319 C 0.45192 0.75807 0.28593 0.0
C3320 C 0.37445 0.75398 0.28882 0.0
C3321 C 0.37408 0.77734 0.29392 0.0
C3322 C 0.39365 0.74592 0.29689 0.0
C3323 C 0.41281 0.76174 0.3103 0.0
C3324 C 0.41314 0.78567 0.31425 0.0
C3325 C 0.39358 0.79329 0.30585 0.0
C3326 C 0.39282 0.72026 0.29231 0.0
C3327 C 0.4334 0.80288 0.3286 0.0
H3328 H 0.44351 0.72504 0.36836 0.0
H3329 H 0.47909 0.73449 0.30905 0.0
H3330 H 0.40959 0.76608 0.35895 0.0
H3331 H 0.39364 0.73747 0.34723 0.0
H3332 H 0.41273 0.74194 0.37455 0.0
H3333 H 0.46821 0.75606 0.2797 0.0
H3334 H 0.4373 0.74836 0.27265 0.0
H3335 H 0.45126 0.77664 0.28717 0.0
H3336 H 0.35932 0.74179 0.27928 0.0
H3337 H 0.39306 0.81136 0.30981 0.0
H3338 H 0.3929 0.71272 0.30903 0.0
H3339 H 0.40823 0.7174 0.28482 0.0
H3340 H 0.37723 0.71068 0.28014 0.0
H3341 H 0.43348 0.80077 0.34736 0.0
H3342 H 0.43262 0.82106 0.32645 0.0
H3343 H 0.44985 0.79975 0.32375 0.0
C3344 C 0.06786 0.79655 0.12656 0.0
C3345 C 0.08443 0.80922 0.14498 0.0
C3346 C 0.07056 0.77566 0.11524 0.0
C3347 C 0.09005 0.76713 0.12288 0.0
C3348 C 0.10695 0.77991 0.14132 0.0
C3349 C 0.10404 0.80101 0.15205 0.0
C3350 C 0.05246 0.76262 0.09527 0.0
C3351 C 0.12783 0.77108 0.14998 0.0
C3352 C 0.0837 0.70244 0.11097 0.0
C3353 C 0.09532 0.70064 0.09167 0.0
C3354 C 0.08205 0.72409 0.12144 0.0
C3355 C 0.09217 0.74428 0.11223 0.0
C3356 C 0.10382 0.74259 0.09267 0.0
C3357 C 0.10531 0.7207 0.08262 0.0
C3358 C 0.0694 0.72535 0.14225 0.0
C3359 C 0.11461 0.76384 0.08234 0.0
H3360 H 0.05292 0.80314 0.12076 0.0
H3361 H 0.11689 0.81088 0.16623 0.0
H3362 H 0.06054 0.75896 0.07958 0.0
H3363 H 0.04395 0.74567 0.10009 0.0
H3364 H 0.03907 0.77238 0.09057 0.0
H3365 H 0.13974 0.78352 0.16399 0.0
H3366 H 0.12233 0.75439 0.15692 0.0
H3367 H 0.13735 0.76766 0.13534 0.0
H3368 H 0.07569 0.68686 0.11773 0.0
H3369 H 0.1145 0.71928 0.06783 0.0
H3370 H 0.05454 0.73333 0.13809 0.0
H3371 H 0.08091 0.73656 0.15734 0.0
H3372 H 0.06297 0.708 0.14756 0.0
H3373 H 0.10135 0.77346 0.07685 0.0
H3374 H 0.1229 0.75944 0.06697 0.0
H3375 H 0.12775 0.77571 0.09571 0.0
C3376 C 0.09577 0.23664 0.85896 0.0
C3377 C 0.07587 0.24237 0.84853 0.0
C3378 C 0.11736 0.24862 0.85516 0.0
C3379 C 0.11865 0.26688 0.84116 0.0
C3380 C 0.09864 0.27419 0.83273 0.0
C3381 C 0.07735 0.26155 0.83626 0.0
C3382 C 0.13842 0.2402 0.86402 0.0
C3383 C 0.09947 0.29384 0.81802 0.0
C3384 C 0.17572 0.30185 0.83056 0.0
C3385 C 0.17718 0.29066 0.80867 0.0
C3386 C 0.15671 0.2942 0.84175 0.0
C3387 C 0.13955 0.27468 0.83087 0.0
C3388 C 0.14144 0.26304 0.80901 0.0
C3389 C 0.16021 0.27137 0.79808 0.0
C3390 C 0.15476 0.30708 0.86486 0.0
C3391 C 0.12353 0.24196 0.79699 0.0
H3392 H 0.09438 0.2219 0.86871 0.0
H3393 H 0.06178 0.26627 0.82882 0.0
H3394 H 0.14379 0.23038 0.84925 0.0
H3395 H 0.15299 0.25501 0.87127 0.0
H3396 H 0.13509 0.22863 0.87768 0.0
H3397 H 0.08325 0.30005 0.81665 0.0
H3398 H 0.11402 0.30864 0.82539 0.0
H3399 H 0.10218 0.2878 0.80011 0.0
H3400 H 0.18926 0.31659 0.83869 0.0
H3401 H 0.16191 0.26252 0.78136 0.0
H3402 H 0.15353 0.29515 0.87838 0.0
H3403 H 0.13878 0.31367 0.86327 0.0
H3404 H 0.16966 0.32194 0.87094 0.0
H3405 H 0.12067 0.22856 0.80896 0.0
H3406 H 0.12856 0.23414 0.78082 0.0
H3407 H 0.10691 0.24684 0.79222 0.0
C3408 C 0.57798 0.71333 0.95367 0.0
C3409 C 0.55751 0.71958 0.94439 0.0
C3410 C 0.57788 0.69212 0.96406 0.0
C3411 C 0.55692 0.67554 0.965 0.0
C3412 C 0.5364 0.68157 0.95507 0.0
C3413 C 0.53694 0.70302 0.9455 0.0
C3414 C 0.60046 0.68761 0.97447 0.0
C3415 C 0.51343 0.66518 0.95455 0.0
C3416 C 0.55528 0.60968 0.97378 0.0
C3417 C 0.55265 0.60831 0.99757 0.0
C3418 C 0.55705 0.63092 0.96333 0.0
C3419 C 0.55614 0.65235 0.97642 0.0
C3420 C 0.55341 0.65104 1.00041 0.0
C3421 C 0.55187 0.62963 0.01047 0.0
C3422 C 0.55988 0.63033 0.93791 0.0
C3423 C 0.55204 0.67253 0.01573 0.0
H3424 H 0.5942 0.72534 0.95344 0.0
H3425 H 0.52076 0.70674 0.93847 0.0
H3426 H 0.60033 0.6858 0.99328 0.0
H3427 H 0.60287 0.67102 0.96576 0.0
H3428 H 0.6153 0.70174 0.97277 0.0
H3429 H 0.49902 0.67138 0.94533 0.0
H3430 H 0.51356 0.6478 0.94574 0.0
H3431 H 0.51018 0.66307 0.97267 0.0
H3432 H 0.55618 0.59398 0.96312 0.0
H3433 H 0.54999 0.62969 0.02876 0.0
H3434 H 0.57583 0.64291 0.93602 0.0
H3435 H 0.54528 0.63567 0.92803 0.0
H3436 H 0.56072 0.61284 0.9299 0.0
H3437 H 0.56759 0.68645 0.01579 0.0
H3438 H 0.5505 0.66934 0.03403 0.0
H3439 H 0.53696 0.67903 0.00859 0.0
C3440 C 0.13525 0.79286 0.70799 0.0
C3441 C 0.13232 0.81535 0.70486 0.0
C3442 C 0.15679 0.78884 0.71811 0.0
C3443 C 0.17651 0.80756 0.7249 0.0
C3444 C 0.17368 0.83012 0.72119 0.0
C3445 C 0.15191 0.83371 0.71172 0.0
C3446 C 0.15825 0.76452 0.72217 0.0
C3447 C 0.19382 0.85075 0.7273 0.0
C3448 C 0.22956 0.80622 0.77042 0.0
C3449 C 0.2458 0.80119 0.75639 0.0
C3450 C 0.20689 0.80724 0.76058 0.0
C3451 C 0.20002 0.80393 0.73586 0.0
C3452 C 0.21644 0.79869 0.72169 0.0
C3453 C 0.23872 0.79705 0.73203 0.0
C3454 C 0.19025 0.812 0.77681 0.0
C3455 C 0.21073 0.79545 0.69541 0.0
H3456 H 0.12047 0.77842 0.70326 0.0
H3457 H 0.15028 0.85121 0.70958 0.0
H3458 H 0.17177 0.75914 0.71302 0.0
H3459 H 0.16326 0.764 0.74111 0.0
H3460 H 0.14169 0.75176 0.71603 0.0
H3461 H 0.18943 0.86695 0.72216 0.0
H3462 H 0.19983 0.85341 0.7464 0.0
H3463 H 0.20839 0.84749 0.71847 0.0
H3464 H 0.23453 0.80918 0.78923 0.0
H3465 H 0.25093 0.79305 0.7209 0.0
H3466 H 0.17365 0.79903 0.772 0.0
H3467 H 0.18665 0.82933 0.77506 0.0
H3468 H 0.19702 0.81156 0.79539 0.0
H3469 H 0.19528 0.78119 0.68958 0.0
H3470 H 0.22511 0.79142 0.6867 0.0
H3471 H 0.20659 0.81147 0.68949 0.0
C3472 C 0.08326 0.37651 0.447 0.0
C3473 C 0.06255 0.35924 0.44372 0.0
C3474 C 0.08468 0.40012 0.45692 0.0
C3475 C 0.06491 0.40759 0.46347 0.0
C3476 C 0.04398 0.39032 0.45958 0.0
C3477 C 0.04317 0.36694 0.45025 0.0
C3478 C 0.10764 0.41713 0.4608 0.0
C3479 C 0.02207 0.39654 0.46531 0.0
C3480 C 0.06829 0.46217 0.50936 0.0
C3481 C 0.06436 0.47979 0.4957 0.0
C3482 C 0.06911 0.43935 0.49932 0.0
C3483 C 0.06581 0.43295 0.47457 0.0
C3484 C 0.06198 0.45069 0.46068 0.0
C3485 C 0.0614 0.47345 0.47119 0.0
C3486 C 0.07336 0.42187 0.51544 0.0
C3487 C 0.05805 0.44551 0.4344 0.0
H3488 H 0.09858 0.37152 0.44233 0.0
H3489 H 0.0268 0.35449 0.44781 0.0
H3490 H 0.10642 0.4323 0.45145 0.0
H3491 H 0.11259 0.42369 0.47969 0.0
H3492 H 0.12141 0.40926 0.45473 0.0
H3493 H 1.00691 0.38174 0.46043 0.0
H3494 H 0.02383 0.40233 0.48431 0.0
H3495 H 0.01878 0.4112 0.45601 0.0
H3496 H 0.07067 0.46615 0.52822 0.0
H3497 H 0.05829 0.48631 0.45999 0.0
H3498 H 0.08813 0.41467 0.51108 0.0
H3499 H 0.0581 0.40717 0.51299 0.0
H3500 H 0.07695 0.42947 0.53412 0.0
H3501 H 0.07275 0.43933 0.42835 0.0
H3502 H 0.05585 0.46091 0.42578 0.0
H3503 H 0.04245 0.43138 0.42865 0.0
C3504 C 0.48192 0.28636 0.21547 0.0
C3505 C 0.48827 0.30197 0.19929 0.0
C3506 C 0.46204 0.28602 0.22698 0.0
C3507 C 0.44768 0.30204 0.22315 0.0
C3508 C 0.4543 0.31813 0.20718 0.0
C3509 C 0.47392 0.31772 0.19548 0.0
C3510 C 0.45619 0.26811 0.2432 0.0
C3511 C 0.44049 0.33599 0.20233 0.0
C3512 C 0.38348 0.28623 0.23474 0.0
C3513 C 0.38332 0.29895 0.25665 0.0
C3514 C 0.40373 0.28733 0.22388 0.0
C3515 C 0.42546 0.30126 0.23487 0.0
C3516 C 0.42554 0.3142 0.25704 0.0
C3517 C 0.40482 0.3131 0.26739 0.0
C3518 C 0.40172 0.27341 0.20028 0.0
C3519 C 0.44776 0.32927 0.27005 0.0
H3520 H 0.49232 0.27391 0.21888 0.0
H3521 H 0.47818 0.33009 0.18333 0.0
H3522 H 0.45578 0.2768 0.26089 0.0
H3523 H 0.43877 0.25704 0.23685 0.0
H3524 H 0.4687 0.25681 0.24463 0.0
H3525 H 0.44804 0.34798 0.19041 0.0
H3526 H 0.42265 0.32722 0.19434 0.0
H3527 H 0.43942 0.34634 0.21895 0.0
H3528 H 0.3674 0.27536 0.22565 0.0
H3529 H 0.40558 0.32322 0.28414 0.0
H3530 H 0.41303 0.26092 0.20137 0.0
H3531 H 0.40762 0.28509 0.18743 0.0
H3532 H 0.38382 0.26366 0.19362 0.0
H3533 H 0.46024 0.31839 0.27415 0.0
H3534 H 0.44532 0.33883 0.28661 0.0
H3535 H 0.45549 0.34197 0.25889 0.0
C3536 C 0.67313 0.59226 0.42157 0.0
C3537 C 0.66773 0.59019 0.39721 0.0
C3538 C 0.65617 0.58374 0.43501 0.0
C3539 C 0.63412 0.57171 0.4234 0.0
C3540 C 0.62843 0.57042 0.39902 0.0
C3541 C 0.64499 0.58061 0.38639 0.0
C3542 C 0.66212 0.58659 0.4613 0.0
C3543 C 0.60549 0.55653 0.38595 0.0
C3544 C 0.599 0.52447 0.45085 0.0
C3545 C 0.58142 0.53503 0.45653 0.0
C3546 C 0.6166 0.53633 0.44007 0.0
C3547 C 0.6168 0.55947 0.43606 0.0
C3548 C 0.59852 0.56971 0.44094 0.0
C3549 C 0.58023 0.55665 0.44973 0.0
C3550 C 0.63534 0.52451 0.43387 0.0
C3551 C 0.59898 0.59481 0.43814 0.0
H3552 H 0.6907 0.59948 0.42989 0.0
H3553 H 0.64052 0.57862 0.36754 0.0
H3554 H 0.64785 0.5912 0.46976 0.0
H3555 H 0.66484 0.57001 0.467 0.0
H3556 H 0.67808 0.60017 0.46762 0.0
H3557 H 0.60435 0.55635 0.36671 0.0
H3558 H 0.60267 0.53833 0.38982 0.0
H3559 H 0.59124 0.56374 0.39169 0.0
H3560 H 0.60008 0.50797 0.45681 0.0
H3561 H 0.56679 0.56477 0.45478 0.0
H3562 H 0.65199 0.53351 0.44457 0.0
H3563 H 0.63735 0.52543 0.41524 0.0
H3564 H 0.63172 0.50602 0.43687 0.0
H3565 H 0.61538 0.60605 0.4475 0.0
H3566 H 0.58448 0.60075 0.44499 0.0
H3567 H 0.59815 0.59733 0.41944 0.0
C3568 C 0.31213 0.84212 0.10953 0.0
C3569 C 0.33227 0.84188 0.09966 0.0
C3570 C 0.30987 0.8353 0.13181 0.0
C3571 C 0.32824 0.82826 0.14469 0.0
C3572 C 0.34829 0.82732 0.13457 0.0
C3573 C 0.34999 0.83395 0.1122 0.0
C3574 C 0.28809 0.8363 0.1419 0.0
C3575 C 0.36839 0.82017 0.14776 0.0
C3576 C 0.33276 0.83411 0.21115 0.0
C3577 C 0.32446 0.81113 0.21499 0.0
C3578 C 0.3342 0.83991 0.18842 0.0
C3579 C 0.32678 0.82237 0.16896 0.0
C3580 C 0.31835 0.79914 0.17273 0.0
C3581 C 0.31747 0.79378 0.19567 0.0
C3582 C 0.3437 0.86482 0.18524 0.0
C3583 C 0.31005 0.77998 0.15249 0.0
H3584 H 0.29837 0.84834 0.10018 0.0
H3585 H 0.36573 0.8338 0.10497 0.0
H3586 H 0.28069 0.8193 0.14737 0.0
H3587 H 0.29206 0.84933 0.15774 0.0
H3588 H 0.27491 0.84095 0.12925 0.0
H3589 H 0.38256 0.81983 0.13724 0.0
H3590 H 0.37524 0.83244 0.16398 0.0
H3591 H 0.36271 0.80272 0.15306 0.0
H3592 H 0.33824 0.84762 0.22596 0.0
H3593 H 0.31079 0.776 0.19841 0.0
H3594 H 0.33053 0.87142 0.17449 0.0
H3595 H 0.35872 0.86597 0.17574 0.0
H3596 H 0.34914 0.8763 0.20218 0.0
H3597 H 0.29596 0.78403 0.14056 0.0
H3598 H 0.30369 0.76286 0.15832 0.0
H3599 H 0.32419 0.77867 0.14224 0.0
C3600 C 0.07942 0.59813 0.87299 0.0
C3601 C 0.06169 0.59049 0.85425 0.0
C3602 C 0.08013 0.58598 0.89236 0.0
C3603 C 0.06195 0.56669 0.89317 0.0
C3604 C 0.04521 0.55775 0.87328 0.0
C3605 C 0.0457 0.56958 0.8537 0.0
C3606 C 0.09878 0.59541 0.913 0.0
C3607 C 0.02505 0.53775 0.8735 0.0
C3608 C 0.06598 0.5375 0.94781 0.0
C3609 C 0.05654 0.55178 0.96254 0.0
C3610 C 0.067 0.54137 0.92455 0.0
C3611 C 0.05793 0.55955 0.9161 0.0
C3612 C 0.04678 0.57279 0.93052 0.0
C3613 C 0.04654 0.56894 0.95374 0.0
C3614 C 0.07878 0.52689 0.90946 0.0
C3615 C 0.03599 0.59171 0.92178 0.0
H3616 H 0.09174 0.61439 0.8732 0.0
H3617 H 0.03234 0.56355 0.83881 0.0
H3618 H 0.09186 0.60528 0.92656 0.0
H3619 H 0.1047 0.58108 0.92092 0.0
H3620 H 0.11378 0.60723 0.90794 0.0
H3621 H 0.01866 0.52827 0.85565 0.0
H3622 H 0.02937 0.52534 0.8854 0.0
H3623 H 1.01077 0.5447 0.87964 0.0
H3624 H 0.07348 0.52406 0.95473 0.0
H3625 H 0.03873 0.57956 0.96512 0.0
H3626 H 0.09523 0.53779 0.90627 0.0
H3627 H 0.06803 0.52049 0.89219 0.0
H3628 H 0.08252 0.51179 0.91776 0.0
H3629 H 0.04966 0.60649 0.91899 0.0
H3630 H 0.0256 0.59828 0.93433 0.0
H3631 H 0.02475 0.58526 0.90477 0.0
C3632 C 0.31903 0.20534 0.5979 0.0
C3633 C 0.34122 0.2098 0.59118 0.0
C3634 C 0.3146 0.21466 0.62021 0.0
C3635 C 0.3327 0.22864 0.63724 0.0
C3636 C 0.35512 0.233 0.63062 0.0
C3637 C 0.35898 0.22393 0.60805 0.0
C3638 C 0.29028 0.20955 0.62553 0.0
C3639 C 0.37533 0.24729 0.64761 0.0
C3640 C 0.32001 0.26977 0.68898 0.0
C3641 C 0.32224 0.25762 0.70852 0.0
C3642 C 0.32327 0.26075 0.66613 0.0
C3643 C 0.32844 0.23847 0.66183 0.0
C3644 C 0.33018 0.22597 0.68148 0.0
C3645 C 0.32743 0.23567 0.70425 0.0
C3646 C 0.32148 0.27537 0.64653 0.0
C3647 C 0.3351 0.20213 0.67851 0.0
H3648 H 0.30488 0.19468 0.58551 0.0
H3649 H 0.37629 0.22769 0.60376 0.0
H3650 H 0.28935 0.20034 0.64119 0.0
H3651 H 0.28488 0.22604 0.62965 0.0
H3652 H 0.27792 0.19881 0.61071 0.0
H3653 H 0.39176 0.24904 0.64035 0.0
H3654 H 0.37245 0.26486 0.65238 0.0
H3655 H 0.37701 0.23921 0.66395 0.0
H3656 H 0.31613 0.28674 0.69166 0.0
H3657 H 0.32914 0.22583 0.71884 0.0
H3658 H 0.30826 0.26566 0.63188 0.0
H3659 H 0.3381 0.27924 0.63968 0.0
H3660 H 0.31697 0.29202 0.65222 0.0
H3661 H 0.32206 0.19065 0.66474 0.0
H3662 H 0.33504 0.19406 0.69495 0.0
H3663 H 0.35213 0.20317 0.6727 0.0
C3664 C 0.65449 0.57837 0.28907 0.0
C3665 C 0.66955 0.56341 0.28851 0.0
C3666 C 0.64982 0.58978 0.26968 0.0
C3667 C 0.66033 0.58559 0.24969 0.0
C3668 C 0.67883 0.57432 0.25119 0.0
C3669 C 0.68327 0.56328 0.27083 0.0
C3670 C 0.63074 0.60268 0.26901 0.0
C3671 C 0.69091 0.57003 0.2305 0.0
C3672 C 0.61698 0.56606 0.19489 0.0
C3673 C 0.62122 0.58538 0.18301 0.0
C3674 C 0.62994 0.56592 0.2165 0.0
C3675 C 0.64741 0.58576 0.22638 0.0
C3676 C 0.652 0.60519 0.21408 0.0
C3677 C 0.63871 0.60476 0.19238 0.0
C3678 C 0.62462 0.54461 0.22884 0.0
C3679 C 0.67027 0.62665 0.22403 0.0
H3680 H 0.644 0.5785 0.30295 0.0
H3681 H 0.69504 0.55174 0.27068 0.0
H3682 H 0.63435 0.61754 0.25886 0.0
H3683 H 0.61441 0.5908 0.26029 0.0
H3684 H 0.62827 0.60914 0.2869 0.0
H3685 H 0.70812 0.56669 0.23611 0.0
H3686 H 0.68048 0.55451 0.2188 0.0
H3687 H 0.69292 0.58494 0.2203 0.0
H3688 H 0.60333 0.55117 0.18732 0.0
H3689 H 0.64168 0.61967 0.18292 0.0
H3690 H 0.61868 0.54914 0.24566 0.0
H3691 H 0.64034 0.53791 0.23285 0.0
H3692 H 0.61108 0.53046 0.21824 0.0
H3693 H 0.66309 0.63764 0.23635 0.0
H3694 H 0.67596 0.63702 0.21007 0.0
H3695 H 0.68549 0.62231 0.23385 0.0
C3696 C 0.34584 0.84335 0.96352 0.0
C3697 C 0.3289 0.84908 0.97619 0.0
C3698 C 0.34124 0.83655 0.93921 0.0
C3699 C 0.31897 0.83494 0.92698 0.0
C3700 C 0.30151 0.83987 0.9397 0.0
C3701 C 0.30672 0.84711 0.96407 0.0
C3702 C 0.36053 0.83175 0.92651 0.0
C3703 C 0.27743 0.83795 0.92746 0.0
C3704 C 0.31655 0.84118 0.86192 0.0
C3705 C 0.30987 0.81805 0.85138 0.0
C3706 C 0.31861 0.84691 0.88632 0.0
C3707 C 0.31442 0.82908 0.9008 0.0
C3708 C 0.30737 0.80567 0.89022 0.0
C3709 C 0.30495 0.80046 0.86568 0.0
C3710 C 0.32595 0.8721 0.89668 0.0
C3711 C 0.30322 0.78606 0.90489 0.0
H3712 H 0.36312 0.84497 0.97248 0.0
H3713 H 0.29346 0.85144 0.97356 0.0
H3714 H 0.35545 0.81416 0.91644 0.0
H3715 H 0.36405 0.84433 0.91381 0.0
H3716 H 0.37668 0.83302 0.93862 0.0
H3717 H 0.26549 0.84122 0.93987 0.0
H3718 H 0.27768 0.8506 0.91465 0.0
H3719 H 0.27062 0.8204 0.91754 0.0
H3720 H 0.32039 0.85488 0.85104 0.0
H3721 H 0.30012 0.7825 0.85778 0.0
H3722 H 0.34301 0.87531 0.90772 0.0
H3723 H 0.3136 0.87646 0.90812 0.0
H3724 H 0.32711 0.88395 0.88304 0.0
H3725 H 0.31958 0.78553 0.91576 0.0
H3726 H 0.29638 0.76894 0.89405 0.0
H3727 H 0.29093 0.78892 0.91702 0.0
C3728 C 0.0534 0.58311 0.75136 0.0
C3729 C 0.03325 0.58999 0.75518 0.0
C3730 C 0.05237 0.56047 0.74139 0.0
C3731 C 0.03056 0.54491 0.73514 0.0
C3732 C 1.0113 0.55034 0.74412 0.0
C3733 C 0.01264 0.57334 0.75343 0.0
C3734 C 0.07377 0.55482 0.73351 0.0
C3735 C 0.98842 0.53313 0.73978 0.0
C3736 C 0.02322 0.52879 0.67041 0.0
C3737 C 0.03337 0.50974 0.66903 0.0
C3738 C 0.02024 0.53932 0.69193 0.0
C3739 C 0.02658 0.52972 0.71255 0.0
C3740 C 0.03351 0.50839 0.71076 0.0
C3741 C 0.03746 0.4989 0.68895 0.0
C3742 C 0.01313 0.56232 0.69252 0.0
C3743 C 0.03849 0.49635 0.7318 0.0
H3744 H 0.06939 0.59611 0.75322 0.0
H3745 H 0.99706 0.57874 0.75666 0.0
H3746 H 0.07562 0.5376 0.73808 0.0
H3747 H 0.07246 0.55418 0.71422 0.0
H3748 H 0.08955 0.56792 0.74164 0.0
H3749 H 0.97626 0.53834 0.75103 0.0
H3750 H 0.98048 0.53181 0.72129 0.0
H3751 H 0.99086 0.51564 0.74289 0.0
H3752 H 0.02015 0.53719 0.65496 0.0
H3753 H 0.04503 0.48389 0.68775 0.0
H3754 H 0.02712 0.57631 0.70262 0.0
H3755 H 0.99757 0.56163 0.70103 0.0
H3756 H 1.00924 0.56726 0.67477 0.0
H3757 H 0.05725 0.49743 0.73563 0.0
H3758 H 0.02995 0.47764 0.72785 0.0
H3759 H 0.03255 0.50379 0.74757 0.0
C3760 C 0.32071 0.20236 0.43953 0.0
C3761 C 0.33642 0.21375 0.45959 0.0
C3762 C 0.31873 0.2121 0.41777 0.0
C3763 C 0.33251 0.23424 0.41514 0.0
C3764 C 0.34798 0.24596 0.43548 0.0
C3765 C 0.34984 0.23574 0.45682 0.0
C3766 C 0.30192 0.19836 0.39728 0.0
C3767 C 0.36309 0.26949 0.43468 0.0
C3768 C 0.34282 0.25032 0.35209 0.0
C3769 C 0.32862 0.26599 0.34732 0.0
C3770 C 0.34453 0.24044 0.37372 0.0
C3771 C 0.33096 0.24504 0.39147 0.0
C3772 C 0.31622 0.26047 0.38645 0.0
C3773 C 0.3156 0.27089 0.36513 0.0
C3774 C 0.36128 0.22514 0.3777 0.0
C3775 C 0.30062 0.26582 0.40361 0.0
H3776 H 0.3103 0.18534 0.44055 0.0
H3777 H 0.36221 0.24516 0.47158 0.0
H3778 H 0.28974 0.20882 0.39092 0.0
H3779 H 0.31126 0.19435 0.38265 0.0
H3780 H 0.29196 0.18183 0.40175 0.0
H3781 H 0.37404 0.27678 0.45171 0.0
H3782 H 0.37437 0.26824 0.4211 0.0
H3783 H 0.35234 0.28178 0.42973 0.0
H3784 H 0.35313 0.24607 0.33899 0.0
H3785 H 0.30424 0.28256 0.36212 0.0
H3786 H 0.35193 0.20756 0.3801 0.0
H3787 H 0.37354 0.23224 0.39396 0.0
H3788 H 0.3712 0.22361 0.36294 0.0
H3789 H 0.2895 0.24945 0.40705 0.0
H3790 H 0.28949 0.27727 0.39718 0.0
H3791 H 0.31102 0.27435 0.42053 0.0
C3792 C 0.34533 0.63447 0.5182 0.0
C3793 C 0.35221 0.65873 0.52021 0.0
C3794 C 0.36028 0.62038 0.51241 0.0
C3795 C 0.38287 0.63079 0.50911 0.0
C3796 C 0.38997 0.65526 0.51109 0.0
C3797 C 0.37446 0.66897 0.51644 0.0
C3798 C 0.35187 0.59433 0.50983 0.0
C3799 C 0.41396 0.66692 0.50767 0.0
C3800 C 0.4276 0.59585 0.52228 0.0
C3801 C 0.43022 0.5867 0.49987 0.0
C3802 C 0.41245 0.61042 0.52539 0.0
C3803 C 0.39959 0.61607 0.50561 0.0
C3804 C 0.4022 0.60703 0.48286 0.0
C3805 C 0.41744 0.59231 0.48026 0.0
C3806 C 0.40996 0.61952 0.54993 0.0
C3807 C 0.38865 0.61256 0.46134 0.0
H3808 H 0.32795 0.62639 0.52044 0.0
H3809 H 0.3797 0.68768 0.51754 0.0
H3810 H 0.35441 0.58647 0.49251 0.0
H3811 H 0.36202 0.58711 0.52332 0.0
H3812 H 0.33337 0.58898 0.51159 0.0
H3813 H 0.41651 0.68608 0.5089 0.0
H3814 H 0.42673 0.66275 0.5211 0.0
H3815 H 0.41756 0.66026 0.49033 0.0
H3816 H 0.43715 0.59124 0.53749 0.0
H3817 H 0.41952 0.58534 0.4629 0.0
H3818 H 0.39202 0.61318 0.55308 0.0
H3819 H 0.41355 0.63875 0.55211 0.0
H3820 H 0.42173 0.61404 0.56344 0.0
H3821 H 0.37021 0.60408 0.46038 0.0
H3822 H 0.39466 0.60648 0.44501 0.0
H3823 H 0.38989 0.63151 0.46223 0.0
C3824 C 0.86989 0.98465 0.53913 0.0
C3825 C 0.86198 0.96034 0.53707 0.0
C3826 C 0.89319 0.99545 0.5379 0.0
C3827 C 0.90963 0.98194 0.53409 0.0
C3828 C 0.90175 0.95735 0.53194 0.0
C3829 C 0.87838 0.94699 0.5336 0.0
C3830 C 0.90023 0.02157 0.54072 0.0
C3831 C 0.91808 0.94184 0.52776 0.0
C3832 C 0.9656 0.00957 0.50985 0.0
C3833 C 0.98231 0.01631 0.53004 0.0
C3834 C 0.94224 0.99865 0.51089 0.0
C3835 C 0.93487 0.99354 0.53258 0.0
C3836 C 0.95178 1.00001 0.55295 0.0
C3837 C 0.97485 0.01135 0.55147 0.0
C3838 C 0.92528 0.99264 0.48861 0.0
C3839 C 0.94552 0.99484 0.57651 0.0
H3840 H 0.85778 0.99543 0.54188 0.0
H3841 H 0.87288 0.92827 0.53179 0.0
H3842 H 0.9143 0.02788 0.55568 0.0
H3843 H 0.90699 0.02735 0.52485 0.0
H3844 H 0.88573 0.02982 0.54373 0.0
H3845 H 0.90959 0.92316 0.52627 0.0
H3846 H 0.92534 0.94516 0.51146 0.0
H3847 H 0.93271 0.94584 0.54229 0.0
H3848 H 0.97074 0.01304 0.49309 0.0
H3849 H 0.98728 0.01598 0.56731 0.0
H3850 H 0.91098 1.00154 0.49014 0.0
H3851 H 0.91767 0.97371 0.48565 0.0
H3852 H 0.93334 0.99767 0.47313 0.0
H3853 H 0.932 1.00393 0.58095 0.0
H3854 H 0.96053 1.00024 0.59064 0.0
H3855 H 0.93832 0.97598 0.57595 0.0
C3856 C 0.86422 0.06235 0.24622 0.0
C3857 C 0.87096 0.06146 0.22399 0.0
C3858 C 0.86527 0.08349 0.25939 0.0
C3859 C 0.87162 0.10411 0.24934 0.0
C3860 C 0.87987 0.10359 0.22761 0.0
C3861 C 0.87961 0.08215 0.21518 0.0
C3862 C 0.85687 0.08349 0.28283 0.0
C3863 C 0.88648 0.12536 0.21633 0.0
C3864 C 0.83094 0.14218 0.26032 0.0
C3865 C 0.84443 0.15938 0.27748 0.0
C3866 C 0.84008 0.12464 0.25037 0.0
C3867 C 0.86325 0.12428 0.25807 0.0
C3868 C 0.87721 0.14193 0.27506 0.0
C3869 C 0.86758 0.15958 0.28454 0.0
C3870 C 0.82468 0.10621 0.23201 0.0
C3871 C 0.90187 0.14175 0.28376 0.0
H3872 H 0.85702 0.04652 0.25297 0.0
H3873 H 0.88501 0.08162 0.19806 0.0
H3874 H 0.86717 0.09837 0.29542 0.0
H3875 H 0.83871 0.08514 0.28066 0.0
H3876 H 0.85768 0.06717 0.29035 0.0
H3877 H 0.89706 0.12287 0.20233 0.0
H3878 H 0.87064 0.13012 0.20841 0.0
H3879 H 0.89614 0.1401 0.22945 0.0
H3880 H 0.81321 0.14263 0.25449 0.0
H3881 H 0.87793 0.17326 0.29765 0.0
H3882 H 0.82176 0.08922 0.23881 0.0
H3883 H 0.83298 0.10437 0.21613 0.0
H3884 H 0.80767 0.11019 0.22684 0.0
H3885 H 0.9022 0.12824 0.29557 0.0
H3886 H 0.91143 0.15872 0.29359 0.0
H3887 H 0.91095 0.13737 0.26905 0.0
C3888 C 0.70611 0.15544 0.98922 0.0
C3889 C 0.72733 0.15475 1.00165 0.0
C3890 C 0.68606 0.13952 0.99189 0.0
C3891 C 0.68767 0.12212 0.00659 0.0
C3892 C 0.70928 0.12077 0.01832 0.0
C3893 C 0.72883 0.13741 0.01604 0.0
C3894 C 0.66313 0.14178 0.97967 0.0
C3895 C 0.71171 0.10191 0.03343 0.0
C3896 C 0.6362 0.09699 0.03457 0.0
C3897 C 0.62612 0.07688 0.01902 0.0
C3898 C 0.65617 0.112 0.03055 0.0
C3899 C 0.66663 0.10624 0.01096 0.0
C3900 C 0.65703 0.08541 0.99574 0.0
C3901 C 0.63654 0.07113 0.99973 0.0
C3902 C 0.66566 0.13433 0.04685 0.0
C3903 C 0.66823 0.07834 0.97518 0.0
H3904 H 0.70513 0.16883 0.97801 0.0
H3905 H 0.74542 0.13662 0.02523 0.0
H3906 H 0.65418 0.12533 0.96858 0.0
H3907 H 0.65199 0.14522 0.99285 0.0
H3908 H 0.66491 0.15601 0.96854 0.0
H3909 H 0.73 0.10201 0.03948 0.0
H3910 H 0.70308 0.10418 0.04901 0.0
H3911 H 0.70318 0.08464 0.02362 0.0
H3912 H 0.6279 0.10156 0.04932 0.0
H3913 H 0.62864 0.0555 0.98777 0.0
H3914 H 0.66663 0.14934 0.03681 0.0
H3915 H 0.68338 0.13479 0.05521 0.0
H3916 H 0.65497 0.13652 0.06083 0.0
H3917 H 0.66742 0.09067 0.96215 0.0
H3918 H 0.65975 0.06059 0.96644 0.0
H3919 H 0.68667 0.07898 0.98095 0.0
C3920 C 0.15691 0.41962 0.27564 0.0
C3921 C 0.15701 0.4394 0.2646 0.0
C3922 C 0.17648 0.41036 0.27807 0.0
C3923 C 0.19638 0.42149 0.26941 0.0
C3924 C 0.19588 0.44058 0.2568 0.0
C3925 C 0.17607 0.44941 0.25462 0.0
C3926 C 0.17644 0.38993 0.29153 0.0
C3927 C 0.21679 0.45281 0.2473 0.0
C3928 C 0.25375 0.42068 0.30354 0.0
C3929 C 0.26084 0.40388 0.28944 0.0
C3930 C 0.23269 0.42649 0.29718 0.0
C3931 C 0.2185 0.4152 0.2762 0.0
C3932 C 0.22554 0.39826 0.26182 0.0
C3933 C 0.24669 0.39275 0.26865 0.0
C3934 C 0.22565 0.44472 0.31291 0.0
C3935 C 0.21071 0.38598 0.23935 0.0
H3936 H 0.14204 0.41225 0.2835 0.0
H3937 H 0.17592 0.46494 0.24631 0.0
H3938 H 0.18424 0.37695 0.28242 0.0
H3939 H 0.18696 0.39593 0.309 0.0
H3940 H 0.15879 0.38132 0.29405 0.0
H3941 H 0.21262 0.46535 0.23542 0.0
H3942 H 0.22998 0.46242 0.26203 0.0
H3943 H 0.22453 0.44009 0.23771 0.0
H3944 H 0.26475 0.42938 0.31952 0.0
H3945 H 0.25197 0.37942 0.25793 0.0
H3946 H 0.20894 0.43734 0.31848 0.0
H3947 H 0.22328 0.4594 0.30322 0.0
H3948 H 0.23857 0.45158 0.32878 0.0
H3949 H 0.19367 0.3769 0.24302 0.0
H3950 H 0.21866 0.37313 0.23019 0.0
H3951 H 0.20761 0.39882 0.22742 0.0
C3952 C 0.21103 0.47375 0.01172 0.0
C3953 C 0.21908 0.46053 0.02865 0.0
C3954 C 0.19065 0.48256 0.0123 0.0
C3955 C 0.17714 0.47904 0.03066 0.0
C3956 C 0.18495 0.46559 0.04786 0.0
C3957 C 0.20533 0.45648 0.04659 0.0
C3958 C 0.18372 0.49609 0.99307 0.0
C3959 C 0.17204 0.46134 0.06819 0.0
C3960 C 0.13769 0.52327 0.04193 0.0
C3961 C 0.11519 0.51116 0.03162 0.0
C3962 C 0.15735 0.51303 0.04235 0.0
C3963 C 0.15547 0.4898 0.03182 0.0
C3964 C 0.1328 0.47752 0.02131 0.0
C3965 C 0.11334 0.48803 0.02154 0.0
C3966 C 0.18041 0.52735 0.05423 0.0
C3967 C 0.12906 0.45311 0.00927 0.0
H3968 H 0.22096 0.47747 0.99767 0.0
H3969 H 0.21092 0.44689 0.06025 0.0
H3970 H 0.16555 0.48867 0.98513 0.0
H3971 H 0.1849 0.5143 1.00043 0.0
H3972 H 0.19473 0.49612 0.97907 0.0
H3973 H 0.17963 0.45051 0.08005 0.0
H3974 H 0.17209 0.47817 0.07835 0.0
H3975 H 0.15381 0.45262 0.06173 0.0
H3976 H 0.14003 0.541 0.04998 0.0
H3977 H 0.09651 0.47806 0.01335 0.0
H3978 H 0.19233 0.53044 0.04118 0.0
H3979 H 0.18809 0.51779 0.06738 0.0
H3980 H 0.17917 0.54439 0.06305 0.0
H3981 H 0.13946 0.45294 0.99479 0.0
H3982 H 0.11071 0.44555 1.00205 0.0
H3983 H 0.13497 0.44187 0.02173 0.0
C3984 C 0.85355 0.94712 0.21218 0.0
C3985 C 0.87743 0.95486 0.21492 0.0
C3986 C 0.84371 0.92388 0.21308 0.0
C3987 C 0.85839 0.90858 0.21719 0.0
C3988 C 0.88233 0.91584 0.21686 0.0
C3989 C 0.89169 0.93923 0.21581 0.0
C3990 C 0.81809 0.91663 0.21307 0.0
C3991 C 0.89838 0.89983 0.22108 0.0
C3992 C 0.84399 0.87034 0.26335 0.0
C3993 C 0.83674 0.84873 0.24992 0.0
C3994 C 0.85093 0.89008 0.2527 0.0
C3995 C 0.84998 0.88783 0.22804 0.0
C3996 C 0.84172 0.86597 0.21435 0.0
C3997 C 0.83543 0.84641 0.22561 0.0
C3998 C 0.85967 0.91322 0.2679 0.0
C3999 C 0.83986 0.86325 0.18804 0.0
H4000 H 0.84274 0.95959 0.21141 0.0
H4001 H 0.9102 0.94561 0.21791 0.0
H4002 H 0.81108 0.89856 0.20454 0.0
H4003 H 0.81456 0.91745 0.23139 0.0
H4004 H 0.80881 0.92832 0.20403 0.0
H4005 H 0.91538 0.90658 0.2157 0.0
H4006 H 0.90115 0.89813 0.24001 0.0
H4007 H 0.89089 0.88226 0.21149 0.0
H4008 H 0.84466 0.87167 0.28219 0.0
H4009 H 0.82939 0.82937 0.21551 0.0
H4010 H 0.8491 0.92556 0.26265 0.0
H4011 H 0.87765 0.92076 0.2656 0.0
H4012 H 0.85925 0.91173 0.28675 0.0
H4013 H 0.83091 0.87606 0.18075 0.0
H4014 H 0.83047 0.84555 0.17992 0.0
H4015 H 0.85733 0.86668 0.18298 0.0
C4016 C 0.65769 0.03328 0.73436 0.0
C4017 C 0.63557 0.03028 0.74041 0.0
C4018 C 0.67079 0.05556 0.73323 0.0
C4019 C 0.66149 0.07513 0.73852 0.0
C4020 C 0.6384 0.07193 0.74264 0.0
C4021 C 0.62572 0.04946 0.74362 0.0
C4022 C 0.69531 0.05828 0.72859 0.0
C4023 C 0.62774 0.09223 0.74829 0.0
C4024 C 0.70509 0.12917 0.76819 0.0
C4025 C 0.70887 0.14154 0.7493 0.0
C4026 C 0.68922 0.10771 0.76501 0.0
C4027 C 0.67676 0.09874 0.74245 0.0
C4028 C 0.67984 0.11182 0.72359 0.0
C4029 C 0.69611 0.133 0.7272 0.0
C4030 C 0.68641 0.09426 0.78558 0.0
C4031 C 0.66647 0.10311 0.69949 0.0
H4032 H 0.66542 0.01842 0.73244 0.0
H4033 H 0.60876 0.04708 0.74878 0.0
H4034 H 0.69901 0.07057 0.71567 0.0
H4035 H 0.70724 0.06557 0.74503 0.0
H4036 H 0.699 0.04147 0.72199 0.0
H4037 H 0.60866 0.08696 0.74528 0.0
H4038 H 0.63337 0.09933 0.76699 0.0
H4039 H 0.63327 0.10633 0.73768 0.0
H4040 H 0.7152 0.13586 0.7852 0.0
H4041 H 0.6992 0.14276 0.71266 0.0
H4042 H 0.69166 0.0776 0.78209 0.0
H4043 H 0.66808 0.09004 0.78811 0.0
H4044 H 0.69686 0.10399 0.80206 0.0
H4045 H 0.67162 0.08735 0.69222 0.0
H4046 H 0.66941 0.11629 0.68726 0.0
H4047 H 0.64778 0.09816 0.70042 0.0
loop_
_geom_bond_atom_site_label_1
_geom_bond_atom_site_label_2
_geom_bond_distance
_geom_bond_site_symmetry_2
_ccdc_geom_bond_type
Mg0 O1 2.028 . S
Mg0 O7 1.986 . S
Mg0 O9 2.114 . S
Mg0 O10 2.251 . S
Mg0 O13 2.010 . S
O1 Mg0 2.028 . S
O1 C4 1.250 . S
O2 Mg3 2.028 . S
O2 C4 1.248 . S
Mg3 O2 2.028 . S
Mg3 O8 2.032 . S
Mg3 O10 2.079 . S
C4 O1 1.250 . S
C4 O2 1.248 . S
C5 O6 1.264 . S
C5 O13 1.249 . S
O6 C5 1.264 . S
O7 Mg0 1.986 . S
O7 C11 1.246 . S
O8 Mg3 2.032 . S
O8 C11 1.259 . S
O9 Mg0 2.114 . S
O9 C12 1.252 . S
O10 Mg0 2.251 . S
O10 Mg3 2.079 . S
O10 C12 1.273 . S
C11 O7 1.246 . S
C11 O8 1.259 . S
C12 O9 1.252 . S
C12 O10 1.273 . S
O13 Mg0 2.010 . S
O13 C5 1.249 . S
Mg14 O15 2.028 . S
Mg14 O21 1.986 . S
Mg14 O23 2.114 . S
Mg14 O24 2.251 . S
Mg14 O27 2.010 . S
O15 Mg14 2.028 . S
O15 C18 1.250 . S
O16 Mg17 2.052 . S
O16 C18 1.248 . S
Mg17 O16 2.052 . S
Mg17 O22 2.051 . S
Mg17 O24 2.084 . S
C18 O15 1.250 . S
C18 O16 1.248 . S
C19 O20 1.264 . S
C19 O27 1.249 . S
O20 C19 1.264 . S
O21 Mg14 1.986 . S
O21 C25 1.246 . S
O22 Mg17 2.051 . S
O22 C25 1.259 . S
O23 Mg14 2.114 . S
O23 C26 1.252 . S
O24 Mg14 2.251 . S
O24 Mg17 2.084 . S
O24 C26 1.273 . S
C25 O21 1.246 . S
C25 O22 1.259 . S
C26 O23 1.252 . S
C26 O24 1.273 . S
O27 Mg14 2.010 . S
O27 C19 1.249 . S
Mg28 O29 2.028 . S
Mg28 O35 1.986 . S
Mg28 O37 2.114 . S
Mg28 O38 2.251 . S
Mg28 O41 2.010 . S
O29 Mg28 2.028 . S
O29 C32 1.250 . S
O30 Mg31 2.028 . S
O30 C32 1.248 . S
Mg31 O30 2.028 . S
Mg31 O36 2.032 . S
Mg31 O38 2.079 . S
C32 O29 1.250 . S
C32 O30 1.248 . S
C33 O34 1.264 . S
C33 O41 1.249 . S
O34 C33 1.264 . S
O35 Mg28 1.986 . S
O35 C39 1.246 . S
O36 Mg31 2.032 . S
O36 C39 1.259 . S
O37 Mg28 2.114 . S
O37 C40 1.252 . S
O38 Mg28 2.251 . S
O38 Mg31 2.079 . S
O38 C40 1.273 . S
C39 O35 1.246 . S
C39 O36 1.259 . S
C40 O37 1.252 . S
C40 O38 1.273 . S
O41 Mg28 2.010 . S
O41 C33 1.249 . S
Mg42 O43 2.028 . S
Mg42 O49 1.986 . S
Mg42 O51 2.114 . S
Mg42 O52 2.251 . S
Mg42 O55 2.010 . S
O43 Mg42 2.028 . S
O43 C46 1.250 . S
O44 Mg45 2.028 . S
O44 C46 1.248 . S
Mg45 O44 2.028 . S
Mg45 O50 2.032 . S
Mg45 O52 2.079 . S
C46 O43 1.250 . S
C46 O44 1.248 . S
C47 O48 1.264 . S
C47 O55 1.249 . S
O48 C47 1.264 . S
O49 Mg42 1.986 . S
O49 C53 1.246 . S
O50 Mg45 2.032 . S
O50 C53 1.259 . S
O51 Mg42 2.114 . S
O51 C54 1.252 . S
O52 Mg42 2.251 . S
O52 Mg45 2.079 . S
O52 C54 1.273 . S
C53 O49 1.246 . S
C53 O50 1.259 . S
C54 O51 1.252 . S
C54 O52 1.273 . S
O55 Mg42 2.010 . S
O55 C47 1.249 . S
Mg56 O57 2.028 . S
Mg56 O63 1.986 . S
Mg56 O65 2.114 . S
Mg56 O66 2.251 . S
Mg56 O69 2.010 . S
O57 Mg56 2.028 . S
O57 C60 1.250 . S
O58 Mg59 2.028 . S
O58 C60 1.248 . S
Mg59 O58 2.028 . S
Mg59 O64 2.032 . S
Mg59 O66 2.079 . S
C60 O57 1.250 . S
C60 O58 1.248 . S
C61 O62 1.264 . S
C61 O69 1.249 . S
O62 C61 1.264 . S
O63 Mg56 1.986 . S
O63 C67 1.246 . S
O64 Mg59 2.032 . S
O64 C67 1.259 . S
O65 Mg56 2.114 . S
O65 C68 1.252 . S
O66 Mg56 2.251 . S
O66 Mg59 2.079 . S
O66 C68 1.273 . S
C67 O63 1.246 . S
C67 O64 1.259 . S
C68 O65 1.252 . S
C68 O66 1.273 . S
O69 Mg56 2.010 . S
O69 C61 1.249 . S
Mg70 O71 2.028 . S
Mg70 O77 1.986 . S
Mg70 O79 2.114 . S
Mg70 O80 2.251 . S
Mg70 O83 2.010 . S
O71 Mg70 2.028 . S
O71 C74 1.250 . S
O72 Mg73 2.028 . S
O72 C74 1.248 . S
Mg73 O72 2.028 . S
Mg73 O78 2.032 . S
Mg73 O80 2.079 . S
C74 O71 1.250 . S
C74 O72 1.248 . S
C75 O76 1.264 . S
C75 O83 1.249 . S
O76 C75 1.264 . S
O77 Mg70 1.986 . S
O77 C81 1.246 . S
O78 Mg73 2.032 . S
O78 C81 1.259 . S
O79 Mg70 2.114 . S
O79 C82 1.252 . S
O80 Mg70 2.251 . S
O80 Mg73 2.079 . S
O80 C82 1.273 . S
C81 O77 1.246 . S
C81 O78 1.259 . S
C82 O79 1.252 . S
C82 O80 1.273 . S
O83 Mg70 2.010 . S
O83 C75 1.249 . S
Mg84 O85 2.028 . S
Mg84 O91 1.986 . S
Mg84 O93 2.114 . S
Mg84 O94 2.251 . S
Mg84 O97 2.010 . S
O85 Mg84 2.028 . S
O85 C88 1.250 . S
O86 Mg87 2.028 . S
O86 C88 1.248 . S
Mg87 O86 2.028 . S
Mg87 O92 2.032 . S
Mg87 O94 2.079 . S
C88 O85 1.250 . S
C88 O86 1.248 . S
C89 O90 1.264 . S
C89 O97 1.249 . S
O90 C89 1.264 . S
O91 Mg84 1.986 . S
O91 C95 1.246 . S
O92 Mg87 2.032 . S
O92 C95 1.259 . S
O93 Mg84 2.114 . S
O93 C96 1.252 . S
O94 Mg84 2.251 . S
O94 Mg87 2.079 . S
O94 C96 1.273 . S
C95 O91 1.246 . S
C95 O92 1.259 . S
C96 O93 1.252 . S
C96 O94 1.273 . S
O97 Mg84 2.010 . S
O97 C89 1.249 . S
Mg98 O99 2.028 1_655 S
Mg98 O105 1.986 1_655 S
Mg98 O107 2.114 . S
Mg98 O108 2.251 . S
Mg98 O111 2.010 1_655 S
O99 Mg98 2.028 1_455 S
O99 C102 1.256 . S
O100 Mg101 2.028 . S
O100 C102 1.240 1_655 S
Mg101 O100 2.028 . S
Mg101 O106 2.032 . S
Mg101 O108 2.079 . S
C102 O99 1.256 . S
C102 O100 1.240 1_455 S
C103 O104 1.264 . S
C103 O111 1.249 . S
O104 C103 1.264 . S
O105 Mg98 1.986 1_455 S
O105 C109 1.246 1_455 S
O106 Mg101 2.032 . S
O106 C109 1.259 . S
O107 Mg98 2.114 . S
O107 C110 1.252 . S
O108 Mg98 2.251 . S
O108 Mg101 2.079 . S
O108 C110 1.273 . S
C109 O105 1.246 1_655 S
C109 O106 1.259 . S
C110 O107 1.252 . S
C110 O108 1.273 . S
O111 Mg98 2.010 1_455 S
O111 C103 1.249 . S
Mg112 O113 2.028 . S
Mg112 O119 1.986 . S
Mg112 O121 2.114 . S
Mg112 O122 2.251 . S
Mg112 O125 2.010 . S
O113 Mg112 2.028 . S
O113 C116 1.250 . S
O114 Mg115 2.028 . S
O114 C116 1.248 . S
Mg115 O114 2.028 . S
Mg115 O120 2.032 . S
Mg115 O122 2.079 . S
C116 O113 1.250 . S
C116 O114 1.248 . S
C117 O118 1.264 . S
C117 O125 1.249 . S
O118 C117 1.264 . S
O119 Mg112 1.986 . S
O119 C123 1.246 . S
O120 Mg115 2.032 . S
O120 C123 1.259 . S
O121 Mg112 2.114 . S
O121 C124 1.252 . S
O122 Mg112 2.251 . S
O122 Mg115 2.079 . S
O122 C124 1.273 . S
C123 O119 1.246 . S
C123 O120 1.259 . S
C124 O121 1.252 . S
C124 O122 1.273 . S
O125 Mg112 2.010 . S
O125 C117 1.249 . S
Mg126 O127 2.028 . S
Mg126 O133 1.986 . S
Mg126 O135 2.114 . S
Mg126 O136 2.251 . S
Mg126 O139 2.010 . S
O127 Mg126 2.028 . S
O127 C130 1.250 . S
O128 Mg129 2.028 . S
O128 C130 1.248 . S
Mg129 O128 2.028 . S
Mg129 O134 2.032 . S
Mg129 O136 2.079 . S
C130 O127 1.250 . S
C130 O128 1.248 . S
C131 O132 1.264 . S
C131 O139 1.249 . S
O132 C131 1.264 . S
O133 Mg126 1.986 . S
O133 C137 1.246 . S
O134 Mg129 2.032 . S
O134 C137 1.259 . S
O135 Mg126 2.114 . S
O135 C138 1.252 . S
O136 Mg126 2.251 . S
O136 Mg129 2.079 . S
O136 C138 1.273 . S
C137 O133 1.246 . S
C137 O134 1.259 . S
C138 O135 1.252 . S
C138 O136 1.273 . S
O139 Mg126 2.010 . S
O139 C131 1.249 . S
Mg140 O141 2.028 . S
Mg140 O147 1.986 . S
Mg140 O149 2.114 . S
Mg140 O150 2.251 . S
Mg140 O153 2.010 . S
O141 Mg140 2.028 . S
O141 C144 1.250 . S
O142 Mg143 2.028 . S
O142 C144 1.248 . S
Mg143 O142 2.028 . S
Mg143 O148 2.032 . S
Mg143 O150 2.079 . S
C144 O141 1.250 . S
C144 O142 1.248 . S
C145 O146 1.264 . S
C145 O153 1.249 . S
O146 C145 1.264 . S
O147 Mg140 1.986 . S
O147 C151 1.246 . S
O148 Mg143 2.032 . S
O148 C151 1.259 . S
O149 Mg140 2.114 . S
O149 C152 1.252 . S
O150 Mg140 2.251 . S
O150 Mg143 2.079 . S
O150 C152 1.273 . S
C151 O147 1.246 . S
C151 O148 1.259 . S
C152 O149 1.252 . S
C152 O150 1.273 . S
O153 Mg140 2.010 . S
O153 C145 1.249 . S
Mg154 O155 2.028 . S
Mg154 O161 1.986 . S
Mg154 O163 2.114 . S
Mg154 O164 2.251 . S
Mg154 O167 2.010 . S
O155 Mg154 2.028 . S
O155 C158 1.250 . S
O156 Mg157 2.028 . S
O156 C158 1.248 . S
Mg157 O156 2.028 . S
Mg157 O162 2.032 . S
Mg157 O164 2.079 . S
C158 O155 1.250 . S
C158 O156 1.248 . S
C159 O160 1.264 . S
C159 O167 1.249 . S
O160 C159 1.264 . S
O161 Mg154 1.986 . S
O161 C165 1.246 . S
O162 Mg157 2.032 . S
O162 C165 1.259 . S
O163 Mg154 2.114 . S
O163 C166 1.252 . S
O164 Mg154 2.251 . S
O164 Mg157 2.079 . S
O164 C166 1.273 . S
C165 O161 1.246 . S
C165 O162 1.259 . S
C166 O163 1.252 . S
C166 O164 1.273 . S
O167 Mg154 2.010 . S
O167 C159 1.249 . S
Mg168 O169 2.028 . S
Mg168 O175 1.986 . S
Mg168 O177 2.114 . S
Mg168 O178 2.251 . S
Mg168 O181 2.010 . S
O169 Mg168 2.028 . S
O169 C172 1.250 1_554 S
O170 Mg171 2.028 . S
O170 C172 1.248 1_554 S
Mg171 O170 2.028 . S
Mg171 O176 2.032 . S
Mg171 O178 2.079 . S
C172 O169 1.250 1_556 S
C172 O170 1.248 1_556 S
C173 O174 1.264 . S
C173 O181 1.249 . S
O174 C173 1.264 . S
O175 Mg168 1.986 . S
O175 C179 1.246 . S
O176 Mg171 2.032 . S
O176 C179 1.259 . S
O177 Mg168 2.114 . S
O177 C180 1.252 . S
O178 Mg168 2.251 . S
O178 Mg171 2.079 . S
O178 C180 1.273 . S
C179 O175 1.246 . S
C179 O176 1.259 . S
C180 O177 1.252 . S
C180 O178 1.273 . S
O181 Mg168 2.010 . S
O181 C173 1.249 . S
Mg182 O183 2.028 1_556 S
Mg182 O189 1.986 . S
Mg182 O191 2.114 1_556 S
Mg182 O192 2.251 . S
Mg182 O195 2.010 . S
O183 Mg182 2.028 1_554 S
O183 C186 1.250 . S
O184 Mg185 2.028 . S
O184 C186 1.248 . S
Mg185 O184 2.028 . S
Mg185 O190 2.032 1_554 S
Mg185 O192 2.079 1_554 S
C186 O183 1.250 . S
C186 O184 1.248 . S
C187 O188 1.264 . S
C187 O195 1.249 . S
O188 C187 1.264 . S
O189 Mg182 1.986 . S
O189 C193 1.246 . S
O190 Mg185 2.032 1_556 S
O190 C193 1.259 . S
O191 Mg182 2.114 1_554 S
O191 C194 1.252 . S
O192 Mg182 2.251 . S
O192 Mg185 2.079 1_556 S
O192 C194 1.273 1_556 S
C193 O189 1.246 . S
C193 O190 1.259 . S
C194 O191 1.252 . S
C194 O192 1.273 1_554 S
O195 Mg182 2.010 . S
O195 C187 1.249 . S
Mg196 O197 2.028 . S
Mg196 O203 1.986 . S
Mg196 O205 2.114 . S
Mg196 O206 2.251 . S
Mg196 O209 2.010 . S
O197 Mg196 2.028 . S
O197 C200 1.250 . S
O198 Mg199 2.028 . S
O198 C200 1.248 . S
Mg199 O198 2.028 . S
Mg199 O204 2.032 . S
Mg199 O206 2.079 . S
C200 O197 1.250 . S
C200 O198 1.248 . S
C201 O202 1.264 . S
C201 O209 1.249 . S
O202 C201 1.264 . S
O203 Mg196 1.986 . S
O203 C207 1.246 . S
O204 Mg199 2.032 . S
O204 C207 1.259 . S
O205 Mg196 2.114 . S
O205 C208 1.252 . S
O206 Mg196 2.251 . S
O206 Mg199 2.079 . S
O206 C208 1.273 . S
C207 O203 1.246 . S
C207 O204 1.259 . S
C208 O205 1.252 . S
C208 O206 1.273 . S
O209 Mg196 2.010 . S
O209 C201 1.249 . S
Mg210 O211 2.028 . S
Mg210 O217 1.986 . S
Mg210 O219 2.114 . S
Mg210 O220 2.251 . S
Mg210 O223 2.010 . S
O211 Mg210 2.028 . S
O211 C214 1.250 . S
O212 Mg213 2.028 . S
O212 C214 1.248 . S
Mg213 O212 2.028 . S
Mg213 O218 2.032 . S
Mg213 O220 2.079 . S
C214 O211 1.250 . S
C214 O212 1.248 . S
C215 O216 1.264 . S
C215 O223 1.249 . S
O216 C215 1.264 . S
O217 Mg210 1.986 . S
O217 C221 1.246 . S
O218 Mg213 2.032 . S
O218 C221 1.259 . S
O219 Mg210 2.114 . S
O219 C222 1.252 . S
O220 Mg210 2.251 . S
O220 Mg213 2.079 . S
O220 C222 1.273 . S
C221 O217 1.246 . S
C221 O218 1.259 . S
C222 O219 1.252 . S
C222 O220 1.273 . S
O223 Mg210 2.010 . S
O223 C215 1.249 . S
Mg224 O225 2.028 1_545 S
Mg224 O231 1.986 . S
Mg224 O233 2.090 1_545 S
Mg224 O234 2.251 . S
Mg224 O237 2.010 . S
O225 Mg224 2.028 1_565 S
O225 C228 1.250 . S
O226 Mg227 1.992 1_565 S
O226 C228 1.248 . S
Mg227 O226 1.992 1_545 S
Mg227 O232 2.071 . S
Mg227 O234 2.081 . S
C228 O225 1.250 . S
C228 O226 1.248 . S
C229 O230 1.264 . S
C229 O237 1.249 . S
O230 C229 1.264 . S
O231 Mg224 1.986 . S
O231 C235 1.246 . S
O232 Mg227 2.071 . S
O232 C235 1.259 . S
O233 Mg224 2.090 1_565 S
O233 C236 1.241 1_565 S
O234 Mg224 2.251 . S
O234 Mg227 2.081 . S
O234 C236 1.273 . S
C235 O231 1.246 . S
C235 O232 1.259 . S
C236 O233 1.241 1_545 S
C236 O234 1.273 . S
O237 Mg224 2.010 . S
O237 C229 1.249 . S
Mg238 O239 2.028 . S
Mg238 O245 1.986 . S
Mg238 O247 2.114 . S
Mg238 O248 2.251 . S
Mg238 O251 2.010 . S
O239 Mg238 2.028 . S
O239 C242 1.250 . S
O240 Mg241 2.028 . S
O240 C242 1.248 . S
Mg241 O240 2.028 . S
Mg241 O246 2.032 . S
Mg241 O248 2.079 . S
C242 O239 1.250 . S
C242 O240 1.248 . S
C243 O244 1.264 . S
C243 O251 1.249 . S
O244 C243 1.264 . S
O245 Mg238 1.986 . S
O245 C249 1.246 . S
O246 Mg241 2.032 . S
O246 C249 1.259 . S
O247 Mg238 2.114 . S
O247 C250 1.252 . S
O248 Mg238 2.251 . S
O248 Mg241 2.079 . S
O248 C250 1.273 . S
C249 O245 1.246 . S
C249 O246 1.259 . S
C250 O247 1.252 . S
C250 O248 1.273 . S
O251 Mg238 2.010 . S
O251 C243 1.249 . S
Mg252 O253 2.028 . S
Mg252 O259 1.986 . S
Mg252 O261 2.114 . S
Mg252 O262 2.251 . S
Mg252 O265 2.010 . S
O253 Mg252 2.028 . S
O253 C256 1.250 . S
O254 Mg255 2.028 . S
O254 C256 1.248 . S
Mg255 O254 2.028 . S
Mg255 O260 2.032 . S
Mg255 O262 2.079 . S
C256 O253 1.250 . S
C256 O254 1.248 . S
C257 O258 1.264 . S
C257 O265 1.249 . S
O258 C257 1.264 . S
O259 Mg252 1.986 . S
O259 C263 1.246 . S
O260 Mg255 2.032 . S
O260 C263 1.259 . S
O261 Mg252 2.114 . S
O261 C264 1.252 . S
O262 Mg252 2.251 . S
O262 Mg255 2.079 . S
O262 C264 1.273 . S
C263 O259 1.246 . S
C263 O260 1.259 . S
C264 O261 1.252 . S
C264 O262 1.273 . S
O265 Mg252 2.010 . S
O265 C257 1.249 . S
Mg266 O267 2.028 1_565 S
Mg266 O273 1.986 . S
Mg266 O275 2.114 1_565 S
Mg266 O276 2.251 . S
Mg266 O279 2.010 . S
O267 Mg266 2.028 1_545 S
O267 C270 1.250 . S
O268 Mg269 2.028 . S
O268 C270 1.248 . S
Mg269 O268 2.028 . S
Mg269 O274 2.032 1_545 S
Mg269 O276 2.079 1_545 S
C270 O267 1.250 . S
C270 O268 1.248 . S
C271 O272 1.264 . S
C271 O279 1.249 . S
O272 C271 1.264 . S
O273 Mg266 1.986 . S
O273 C277 1.246 . S
O274 Mg269 2.032 1_565 S
O274 C277 1.259 . S
O275 Mg266 2.114 1_545 S
O275 C278 1.252 . S
O276 Mg266 2.251 . S
O276 Mg269 2.079 1_565 S
O276 C278 1.272 1_565 S
C277 O273 1.246 . S
C277 O274 1.259 . S
C278 O275 1.252 . S
C278 O276 1.272 1_545 S
O279 Mg266 2.010 . S
O279 C271 1.249 . S
Mg280 O281 2.028 . S
Mg280 O287 1.986 1_554 S
Mg280 O289 2.114 . S
Mg280 O290 2.251 . S
Mg280 O293 2.010 . S
O281 Mg280 2.028 . S
O281 C284 1.250 . S
O282 Mg283 2.028 . S
O282 C284 1.248 . S
Mg283 O282 2.028 . S
Mg283 O288 2.032 1_554 S
Mg283 O290 2.079 . S
C284 O281 1.250 . S
C284 O282 1.248 . S
C285 O286 1.264 1_554 S
C285 O293 1.249 . S
O286 C285 1.264 1_556 S
O287 Mg280 1.986 1_556 S
O287 C291 1.246 . S
O288 Mg283 2.032 1_556 S
O288 C291 1.259 . S
O289 Mg280 2.114 . S
O289 C292 1.252 . S
O290 Mg280 2.251 . S
O290 Mg283 2.079 . S
O290 C292 1.273 . S
C291 O287 1.246 . S
C291 O288 1.259 . S
C292 O289 1.252 . S
C292 O290 1.273 . S
O293 Mg280 2.010 . S
O293 C285 1.249 . S
Mg294 O295 2.028 1_455 S
Mg294 O301 1.986 1_455 S
Mg294 O303 2.114 . S
Mg294 O304 2.251 . S
Mg294 O307 2.010 . S
O295 Mg294 2.028 1_655 S
O295 C298 1.250 . S
O296 Mg297 2.028 . S
O296 C298 1.248 . S
Mg297 O296 2.028 . S
Mg297 O302 2.032 . S
Mg297 O304 2.079 1_655 S
C298 O295 1.250 . S
C298 O296 1.248 . S
C299 O300 1.264 . S
C299 O307 1.249 . S
O300 C299 1.264 . S
O301 Mg294 1.986 1_655 S
O301 C305 1.246 . S
O302 Mg297 2.032 . S
O302 C305 1.259 . S
O303 Mg294 2.114 . S
O303 C306 1.252 . S
O304 Mg294 2.251 . S
O304 Mg297 2.079 1_455 S
O304 C306 1.273 . S
C305 O301 1.246 . S
C305 O302 1.259 . S
C306 O303 1.252 . S
C306 O304 1.273 . S
O307 Mg294 2.010 . S
O307 C299 1.249 . S
Mg308 O309 2.028 . S
Mg308 O315 1.986 . S
Mg308 O317 2.114 . S
Mg308 O318 2.251 . S
Mg308 O321 2.010 . S
O309 Mg308 2.028 . S
O309 C312 1.250 . S
O310 Mg311 2.028 . S
O310 C312 1.248 . S
Mg311 O310 2.028 . S
Mg311 O316 2.032 . S
Mg311 O318 2.079 . S
C312 O309 1.250 . S
C312 O310 1.248 . S
C313 O314 1.264 . S
C313 O321 1.249 . S
O314 C313 1.264 . S
O315 Mg308 1.986 . S
O315 C319 1.246 . S
O316 Mg311 2.032 . S
O316 C319 1.259 . S
O317 Mg308 2.114 . S
O317 C320 1.252 . S
O318 Mg308 2.251 . S
O318 Mg311 2.079 . S
O318 C320 1.273 . S
C319 O315 1.246 . S
C319 O316 1.259 . S
C320 O317 1.252 . S
C320 O318 1.273 . S
O321 Mg308 2.010 . S
O321 C313 1.249 . S
Mg322 O323 2.028 . S
Mg322 O329 1.986 . S
Mg322 O331 2.114 . S
Mg322 O332 2.251 . S
Mg322 O335 2.010 . S
O323 Mg322 2.028 . S
O323 C326 1.250 . S
O324 Mg325 2.028 . S
O324 C326 1.248 . S
Mg325 O324 2.028 . S
Mg325 O330 2.032 . S
Mg325 O332 2.079 . S
C326 O323 1.250 . S
C326 O324 1.248 . S
C327 O328 1.264 . S
C327 O335 1.249 . S
O328 C327 1.264 . S
O329 Mg322 1.986 . S
O329 C333 1.246 . S
O330 Mg325 2.032 . S
O330 C333 1.259 . S
O331 Mg322 2.114 . S
O331 C334 1.252 . S
O332 Mg322 2.251 . S
O332 Mg325 2.079 . S
O332 C334 1.273 . S
C333 O329 1.246 . S
C333 O330 1.259 . S
C334 O331 1.252 . S
C334 O332 1.273 . S
O335 Mg322 2.010 . S
O335 C327 1.249 . S
Tb336 C346 2.816 1_454 S
Tb336 O347 2.381 . S
Tb336 O350 2.355 1_554 S
Tb336 O355 2.385 1_554 S
Tb336 O356 2.397 1_545 S
Tb336 O359 2.454 1_454 S
Tb336 O360 2.479 1_455 S
Eu337 O348 2.418 . S
Eu337 O349 2.384 . S
Eu337 O352 2.479 . S
Eu337 O353 2.471 . S
Eu337 O354 2.385 . S
Eu337 O357 2.366 . S
Eu337 C367 2.825 . S
C338 O354 1.217 1_556 S
C338 O355 1.265 . S
C339 O356 1.255 . S
C339 O357 1.265 1_565 S
C340 C342 1.380 . S
C340 C343 1.374 . S
C340 C346 1.507 . S
C341 C342 1.384 . S
C341 C345 1.387 . S
C341 H368 0.930 . S
C342 C340 1.380 . S
C342 C341 1.384 . S
C342 H369 0.931 . S
C343 C340 1.374 . S
C343 C344 1.390 . S
C343 H370 0.930 1_556 S
C344 C343 1.390 . S
C344 C345 1.391 . S
C344 H371 0.930 . S
C345 C341 1.387 . S
C345 C344 1.391 . S
C346 Tb336 2.816 1_656 S
C346 C340 1.507 . S
C346 O359 1.238 . S
C346 O360 1.247 1_556 S
O347 Tb336 2.381 . S
O347 C351 1.259 . S
O348 Eu337 2.418 . S
O348 C351 1.265 . S
O349 Eu337 2.384 . S
O349 C358 1.255 . S
O350 Tb336 2.355 1_556 S
O350 C358 1.253 1_556 S
C351 O347 1.259 . S
C351 O348 1.265 . S
O352 Eu337 2.479 . S
O352 C367 1.238 . S
O353 Eu337 2.471 . S
O353 C367 1.247 . S
O354 Eu337 2.385 . S
O354 C338 1.217 1_554 S
O355 Tb336 2.385 1_556 S
O355 C338 1.265 . S
O356 Tb336 2.397 1_565 S
O356 C339 1.255 . S
O357 Eu337 2.366 . S
O357 C339 1.265 1_545 S
C358 O349 1.255 . S
C358 O350 1.253 1_554 S
O359 Tb336 2.454 1_656 S
O359 C346 1.238 . S
O360 Tb336 2.479 1_655 S
O360 C346 1.247 1_554 S
C361 C364 1.380 . S
C361 C365 1.374 . S
C361 C367 1.507 . S
C362 C363 1.387 . S
C362 C366 1.391 . S
C363 C362 1.387 . S
C363 C364 1.384 . S
C363 H372 0.930 . S
C364 C361 1.380 . S
C364 C363 1.384 . S
C364 H373 0.931 . S
C365 C361 1.374 . S
C365 C366 1.390 . S
C365 H374 0.930 . S
C366 C362 1.391 . S
C366 C365 1.390 . S
C366 H375 0.930 1_545 S
C367 Eu337 2.825 . S
C367 O352 1.238 . S
C367 O353 1.247 . S
C367 C361 1.507 . S
H368 C341 0.930 . S
H369 C342 0.931 . S
H370 C343 0.930 1_554 S
H371 C344 0.930 . S
H372 C363 0.930 . S
H373 C364 0.931 . S
H374 C365 0.930 . S
H375 C366 0.930 1_565 S
Tb376 C386 2.825 . S
Tb376 O387 2.347 . S
Tb376 O390 2.366 . S
Tb376 O395 2.418 . S
Tb376 O396 2.384 . S
Tb376 O399 2.479 . S
Tb376 O400 2.471 . S
Eu377 O388 2.418 . S
Eu377 O389 2.384 . S
Eu377 O392 2.479 . S
Eu377 O393 2.471 . S
Eu377 O394 2.347 . S
Eu377 O397 2.366 . S
Eu377 C407 2.825 . S
C378 O394 1.259 . S
C378 O395 1.265 . S
C379 O396 1.255 . S
C379 O397 1.265 . S
C380 C382 1.380 . S
C380 C383 1.374 . S
C380 C386 1.507 . S
C381 C382 1.384 . S
C381 C385 1.387 . S
C381 H408 0.930 . S
C382 C380 1.380 . S
C382 C381 1.384 . S
C382 H409 0.931 . S
C383 C380 1.374 . S
C383 C384 1.390 . S
C383 H410 0.930 . S
C384 C383 1.390 . S
C384 C385 1.391 . S
C384 H411 0.930 . S
C385 C381 1.387 . S
C385 C384 1.391 . S
C386 Tb376 2.825 . S
C386 C380 1.507 . S
C386 O399 1.238 . S
C386 O400 1.247 . S
O387 Tb376 2.347 . S
O387 C391 1.259 . S
O388 Eu377 2.418 . S
O388 C391 1.265 . S
O389 Eu377 2.384 . S
O389 C398 1.255 . S
O390 Tb376 2.366 . S
O390 C398 1.265 . S
C391 O387 1.259 . S
C391 O388 1.265 . S
O392 Eu377 2.479 . S
O392 C407 1.238 . S
O393 Eu377 2.471 . S
O393 C407 1.247 . S
O394 Eu377 2.347 . S
O394 C378 1.259 . S
O395 Tb376 2.418 . S
O395 C378 1.265 . S
O396 Tb376 2.384 . S
O396 C379 1.255 . S
O397 Eu377 2.366 . S
O397 C379 1.265 . S
C398 O389 1.255 . S
C398 O390 1.265 . S
O399 Tb376 2.479 . S
O399 C386 1.238 . S
O400 Tb376 2.471 . S
O400 C386 1.247 . S
C401 C404 1.380 . S
C401 C405 1.374 . S
C401 C407 1.507 . S
C402 C403 1.387 . S
C402 C406 1.391 . S
C403 C402 1.387 . S
C403 C404 1.384 . S
C403 H412 0.930 . S
C404 C401 1.380 . S
C404 C403 1.384 . S
C404 H413 0.931 . S
C405 C401 1.374 . S
C405 C406 1.390 . S
C405 H414 0.930 . S
C406 C402 1.391 . S
C406 C405 1.390 . S
C406 H415 0.930 . S
C407 Eu377 2.825 . S
C407 O392 1.238 . S
C407 O393 1.247 . S
C407 C401 1.507 . S
H408 C381 0.930 . S
H409 C382 0.931 . S
H410 C383 0.930 . S
H411 C384 0.930 . S
H412 C403 0.930 . S
H413 C404 0.931 . S
H414 C405 0.930 . S
H415 C406 0.930 . S
Tb416 C426 2.825 1_545 S
Tb416 O427 2.347 . S
Tb416 O430 2.366 . S
Tb416 O435 2.418 . S
Tb416 O436 2.384 . S
Tb416 O439 2.479 1_545 S
Tb416 O440 2.471 1_545 S
Eu417 O428 2.418 . S
Eu417 O429 2.384 . S
Eu417 O432 2.479 . S
Eu417 O433 2.471 . S
Eu417 O434 2.347 . S
Eu417 O437 2.366 . S
Eu417 C447 2.825 . S
C418 O434 1.259 . S
C418 O435 1.265 . S
C419 O436 1.255 . S
C419 O437 1.265 . S
C420 C422 1.380 . S
C420 C423 1.374 . S
C420 C426 1.507 . S
C421 C422 1.384 . S
C421 C425 1.387 . S
C421 H448 0.930 . S
C422 C420 1.380 . S
C422 C421 1.384 . S
C422 H449 0.931 . S
C423 C420 1.374 . S
C423 C424 1.390 . S
C423 H450 0.930 . S
C424 C423 1.390 . S
C424 C425 1.391 . S
C424 H451 0.930 . S
C425 C421 1.387 . S
C425 C424 1.391 . S
C426 Tb416 2.825 1_565 S
C426 C420 1.507 . S
C426 O439 1.238 . S
C426 O440 1.247 . S
O427 Tb416 2.347 . S
O427 C431 1.259 . S
O428 Eu417 2.418 . S
O428 C431 1.265 . S
O429 Eu417 2.384 . S
O429 C438 1.255 . S
O430 Tb416 2.366 . S
O430 C438 1.265 . S
C431 O427 1.259 . S
C431 O428 1.265 . S
O432 Eu417 2.479 . S
O432 C447 1.238 . S
O433 Eu417 2.471 . S
O433 C447 1.247 . S
O434 Eu417 2.347 . S
O434 C418 1.259 . S
O435 Tb416 2.418 . S
O435 C418 1.265 . S
O436 Tb416 2.384 . S
O436 C419 1.255 . S
O437 Eu417 2.366 . S
O437 C419 1.265 . S
C438 O429 1.255 . S
C438 O430 1.265 . S
O439 Tb416 2.479 1_565 S
O439 C426 1.238 . S
O440 Tb416 2.471 1_565 S
O440 C426 1.247 . S
C441 C444 1.380 . S
C441 C445 1.374 . S
C441 C447 1.507 . S
C442 C443 1.387 . S
C442 C446 1.391 . S
C443 C442 1.387 . S
C443 C444 1.384 . S
C443 H452 0.930 . S
C444 C441 1.380 . S
C444 C443 1.384 . S
C444 H453 0.931 . S
C445 C441 1.374 . S
C445 C446 1.390 . S
C445 H454 0.930 . S
C446 C442 1.391 . S
C446 C445 1.390 . S
C446 H455 0.930 . S
C447 Eu417 2.825 . S
C447 O432 1.238 . S
C447 O433 1.247 . S
C447 C441 1.507 . S
H448 C421 0.930 . S
H449 C422 0.931 . S
H450 C423 0.930 . S
H451 C424 0.930 . S
H452 C443 0.930 . S
H453 C444 0.931 . S
H454 C445 0.930 . S
H455 C446 0.930 . S
Tb456 C466 2.825 . S
Tb456 O467 2.347 . S
Tb456 O470 2.366 . S
Tb456 O475 2.418 . S
Tb456 O476 2.384 . S
Tb456 O479 2.479 . S
Tb456 O480 2.471 . S
Eu457 O468 2.418 . S
Eu457 O469 2.384 . S
Eu457 O472 2.479 . S
Eu457 O473 2.471 . S
Eu457 O474 2.347 . S
Eu457 O477 2.366 . S
Eu457 C487 2.825 . S
C458 O474 1.259 . S
C458 O475 1.265 . S
C459 O476 1.255 . S
C459 O477 1.265 . S
C460 C462 1.380 . S
C460 C463 1.374 . S
C460 C466 1.507 . S
C461 C462 1.384 . S
C461 C465 1.387 . S
C461 H488 0.930 . S
C462 C460 1.380 . S
C462 C461 1.384 . S
C462 H489 0.931 . S
C463 C460 1.374 . S
C463 C464 1.390 . S
C463 H490 0.930 . S
C464 C463 1.390 . S
C464 C465 1.391 . S
C464 H491 0.930 . S
C465 C461 1.387 . S
C465 C464 1.391 . S
C466 Tb456 2.825 . S
C466 C460 1.507 . S
C466 O479 1.238 . S
C466 O480 1.247 . S
O467 Tb456 2.347 . S
O467 C471 1.259 . S
O468 Eu457 2.418 . S
O468 C471 1.265 . S
O469 Eu457 2.384 . S
O469 C478 1.255 . S
O470 Tb456 2.366 . S
O470 C478 1.265 . S
C471 O467 1.259 . S
C471 O468 1.265 . S
O472 Eu457 2.479 . S
O472 C487 1.238 . S
O473 Eu457 2.471 . S
O473 C487 1.247 . S
O474 Eu457 2.347 . S
O474 C458 1.259 . S
O475 Tb456 2.418 . S
O475 C458 1.265 . S
O476 Tb456 2.384 . S
O476 C459 1.255 . S
O477 Eu457 2.366 . S
O477 C459 1.265 . S
C478 O469 1.255 . S
C478 O470 1.265 . S
O479 Tb456 2.479 . S
O479 C466 1.238 . S
O480 Tb456 2.471 . S
O480 C466 1.247 . S
C481 C484 1.380 . S
C481 C485 1.374 . S
C481 C487 1.507 . S
C482 C483 1.387 . S
C482 C486 1.391 . S
C483 C482 1.387 . S
C483 C484 1.384 . S
C483 H492 0.930 . S
C484 C481 1.380 . S
C484 C483 1.384 . S
C484 H493 0.931 . S
C485 C481 1.374 . S
C485 C486 1.390 . S
C485 H494 0.930 . S
C486 C482 1.391 . S
C486 C485 1.390 . S
C486 H495 0.930 . S
C487 Eu457 2.825 . S
C487 O472 1.238 . S
C487 O473 1.247 . S
C487 C481 1.507 . S
H488 C461 0.930 . S
H489 C462 0.931 . S
H490 C463 0.930 . S
H491 C464 0.930 . S
H492 C483 0.930 . S
H493 C484 0.931 . S
H494 C485 0.930 . S
H495 C486 0.930 . S
Tb496 C506 2.825 . S
Tb496 O507 2.347 . S
Tb496 O510 2.366 . S
Tb496 O515 2.418 . S
Tb496 O516 2.396 . S
Tb496 O519 2.479 . S
Tb496 O520 2.471 . S
Eu497 O508 2.418 . S
Eu497 O509 2.384 . S
Eu497 O512 2.479 . S
Eu497 O513 2.471 . S
Eu497 O514 2.347 . S
Eu497 O517 2.366 . S
Eu497 C527 2.825 . S
C498 O514 1.259 . S
C498 O515 1.265 . S
C499 O516 1.256 . S
C499 O517 1.265 . S
C500 C502 1.380 . S
C500 C503 1.374 1_455 S
C500 C506 1.507 . S
C501 C502 1.384 . S
C501 C505 1.387 1_455 S
C501 H528 0.930 . S
C502 C500 1.380 . S
C502 C501 1.384 . S
C502 H529 0.931 . S
C503 C500 1.374 1_655 S
C503 C504 1.390 . S
C503 H530 0.930 . S
C504 C503 1.390 . S
C504 C505 1.391 . S
C504 H531 0.930 . S
C505 C501 1.387 1_655 S
C505 C504 1.391 . S
C506 Tb496 2.825 . S
C506 C500 1.507 . S
C506 O519 1.238 . S
C506 O520 1.247 . S
O507 Tb496 2.347 . S
O507 C511 1.259 . S
O508 Eu497 2.418 . S
O508 C511 1.265 . S
O509 Eu497 2.384 . S
O509 C518 1.255 . S
O510 Tb496 2.366 . S
O510 C518 1.265 . S
C511 O507 1.259 . S
C511 O508 1.265 . S
O512 Eu497 2.479 . S
O512 C527 1.238 . S
O513 Eu497 2.471 . S
O513 C527 1.247 . S
O514 Eu497 2.347 . S
O514 C498 1.259 . S
O515 Tb496 2.418 . S
O515 C498 1.265 . S
O516 Tb496 2.396 . S
O516 C499 1.256 . S
O517 Eu497 2.366 . S
O517 C499 1.265 . S
C518 O509 1.255 . S
C518 O510 1.265 . S
O519 Tb496 2.479 . S
O519 C506 1.238 . S
O520 Tb496 2.471 . S
O520 C506 1.247 . S
C521 C524 1.380 . S
C521 C525 1.374 . S
C521 C527 1.507 . S
C522 C523 1.387 . S
C522 C526 1.391 . S
C523 C522 1.387 . S
C523 C524 1.384 . S
C523 H532 0.930 . S
C524 C521 1.380 . S
C524 C523 1.384 . S
C524 H533 0.931 . S
C525 C521 1.374 . S
C525 C526 1.390 . S
C525 H534 0.930 . S
C526 C522 1.391 . S
C526 C525 1.390 . S
C526 H535 0.930 . S
C527 Eu497 2.825 . S
C527 O512 1.238 . S
C527 O513 1.247 . S
C527 C521 1.507 . S
H528 C501 0.930 . S
H529 C502 0.931 . S
H530 C503 0.930 . S
H531 C504 0.930 . S
H532 C523 0.930 . S
H533 C524 0.931 . S
H534 C525 0.930 . S
H535 C526 0.930 . S
Tb536 C546 2.825 . S
Tb536 O547 2.347 . S
Tb536 O550 2.366 . S
Tb536 O555 2.418 . S
Tb536 O556 2.384 . S
Tb536 O559 2.479 . S
Tb536 O560 2.471 . S
Eu537 O548 2.418 . S
Eu537 O549 2.384 . S
Eu537 O552 2.479 . S
Eu537 O553 2.471 . S
Eu537 O554 2.347 . S
Eu537 O557 2.366 . S
Eu537 C567 2.825 . S
C538 O554 1.259 . S
C538 O555 1.265 . S
C539 O556 1.255 . S
C539 O557 1.265 . S
C540 C542 1.380 . S
C540 C543 1.374 . S
C540 C546 1.507 . S
C541 C542 1.384 . S
C541 C545 1.387 . S
C541 H568 0.930 . S
C542 C540 1.380 . S
C542 C541 1.384 . S
C542 H569 0.931 . S
C543 C540 1.374 . S
C543 C544 1.390 . S
C543 H570 0.930 . S
C544 C543 1.390 . S
C544 C545 1.391 . S
C544 H571 0.930 . S
C545 C541 1.387 . S
C545 C544 1.391 . S
C546 Tb536 2.825 . S
C546 C540 1.507 . S
C546 O559 1.238 . S
C546 O560 1.247 . S
O547 Tb536 2.347 . S
O547 C551 1.259 . S
O548 Eu537 2.418 . S
O548 C551 1.265 . S
O549 Eu537 2.384 . S
O549 C558 1.255 . S
O550 Tb536 2.366 . S
O550 C558 1.265 . S
C551 O547 1.259 . S
C551 O548 1.265 . S
O552 Eu537 2.479 . S
O552 C567 1.238 . S
O553 Eu537 2.471 . S
O553 C567 1.247 . S
O554 Eu537 2.347 . S
O554 C538 1.259 . S
O555 Tb536 2.418 . S
O555 C538 1.265 . S
O556 Tb536 2.384 . S
O556 C539 1.255 . S
O557 Eu537 2.366 . S
O557 C539 1.265 . S
C558 O549 1.255 . S
C558 O550 1.265 . S
O559 Tb536 2.479 . S
O559 C546 1.238 . S
O560 Tb536 2.471 . S
O560 C546 1.247 . S
C561 C564 1.380 . S
C561 C565 1.374 . S
C561 C567 1.507 . S
C562 C563 1.387 . S
C562 C566 1.391 . S
C563 C562 1.387 . S
C563 C564 1.384 . S
C563 H572 0.930 . S
C564 C561 1.380 . S
C564 C563 1.384 . S
C564 H573 0.931 . S
C565 C561 1.374 . S
C565 C566 1.390 . S
C565 H574 0.930 . S
C566 C562 1.391 . S
C566 C565 1.390 . S
C566 H575 0.930 . S
C567 Eu537 2.825 . S
C567 O552 1.238 . S
C567 O553 1.247 . S
C567 C561 1.507 . S
H568 C541 0.930 . S
H569 C542 0.931 . S
H570 C543 0.930 . S
H571 C544 0.930 . S
H572 C563 0.930 . S
H573 C564 0.931 . S
H574 C565 0.930 . S
H575 C566 0.930 . S
Tb576 C586 2.825 . S
Tb576 O587 2.347 . S
Tb576 O590 2.366 . S
Tb576 O595 2.418 1_545 S
Tb576 O596 2.384 . S
Tb576 O599 2.479 . S
Tb576 O600 2.471 . S
Eu577 O588 2.418 1_556 S
Eu577 O589 2.384 1_556 S
Eu577 O592 2.479 . S
Eu577 O593 2.471 . S
Eu577 O594 2.347 1_556 S
Eu577 O597 2.367 . S
Eu577 C607 2.825 . S
C578 O594 1.259 1_565 S
C578 O595 1.265 . S
C579 O596 1.255 . S
C579 O597 1.258 1_554 S
C580 C582 1.380 . S
C580 C583 1.374 . S
C580 C586 1.507 . S
C581 C582 1.393 . S
C581 C585 1.424 . S
C581 H608 0.886 1_545 S
C582 C580 1.380 . S
C582 C581 1.393 . S
C582 H609 0.931 1_545 S
C583 C580 1.374 . S
C583 C584 1.390 . S
C583 H610 0.930 . S
C584 C583 1.390 . S
C584 C585 1.391 . S
C584 H611 0.930 . S
C585 C581 1.424 . S
C585 C584 1.391 . S
C586 Tb576 2.825 . S
C586 C580 1.507 . S
C586 O599 1.238 . S
C586 O600 1.247 . S
O587 Tb576 2.347 . S
O587 C591 1.259 . S
O588 Eu577 2.418 1_554 S
O588 C591 1.265 . S
O589 Eu577 2.384 1_554 S
O589 C598 1.255 . S
O590 Tb576 2.366 . S
O590 C598 1.265 . S
C591 O587 1.259 . S
C591 O588 1.265 . S
O592 Eu577 2.479 . S
O592 C607 1.238 . S
O593 Eu577 2.471 . S
O593 C607 1.247 . S
O594 Eu577 2.347 1_554 S
O594 C578 1.259 1_545 S
O595 Tb576 2.418 1_565 S
O595 C578 1.265 . S
O596 Tb576 2.384 . S
O596 C579 1.255 . S
O597 Eu577 2.367 . S
O597 C579 1.258 1_556 S
C598 O589 1.255 . S
C598 O590 1.265 . S
O599 Tb576 2.479 . S
O599 C586 1.238 . S
O600 Tb576 2.471 . S
O600 C586 1.247 . S
C601 C604 1.380 . S
C601 C605 1.374 . S
C601 C607 1.507 . S
C602 C603 1.387 . S
C602 C606 1.391 . S
C603 C602 1.387 . S
C603 C604 1.384 . S
C603 H612 0.930 . S
C604 C601 1.380 . S
C604 C603 1.384 . S
C604 H613 0.931 . S
C605 C601 1.374 . S
C605 C606 1.390 . S
C605 H614 0.930 . S
C606 C602 1.391 . S
C606 C605 1.390 . S
C606 H615 0.930 . S
C607 Eu577 2.825 . S
C607 O592 1.238 . S
C607 O593 1.247 . S
C607 C601 1.507 . S
H608 C581 0.886 1_565 S
H609 C582 0.931 1_565 S
H610 C583 0.930 . S
H611 C584 0.930 . S
H612 C603 0.930 . S
H613 C604 0.931 . S
H614 C605 0.930 . S
H615 C606 0.930 . S
Tb616 C626 2.825 . S
Tb616 O627 2.347 . S
Tb616 O630 2.366 . S
Tb616 O635 2.418 . S
Tb616 O636 2.384 . S
Tb616 O639 2.479 . S
Tb616 O640 2.471 . S
Eu617 O628 2.418 . S
Eu617 O629 2.384 . S
Eu617 O632 2.479 . S
Eu617 O633 2.471 . S
Eu617 O634 2.347 . S
Eu617 O637 2.366 . S
Eu617 C647 2.825 . S
C618 O634 1.259 . S
C618 O635 1.265 . S
C619 O636 1.255 . S
C619 O637 1.265 . S
C620 C622 1.380 . S
C620 C623 1.374 . S
C620 C626 1.507 . S
C621 C622 1.384 . S
C621 C625 1.387 . S
C621 H648 0.930 . S
C622 C620 1.380 . S
C622 C621 1.384 . S
C622 H649 0.931 . S
C623 C620 1.374 . S
C623 C624 1.390 . S
C623 H650 0.930 . S
C624 C623 1.390 . S
C624 C625 1.391 . S
C624 H651 0.930 . S
C625 C621 1.387 . S
C625 C624 1.391 . S
C626 Tb616 2.825 . S
C626 C620 1.507 . S
C626 O639 1.238 . S
C626 O640 1.247 . S
O627 Tb616 2.347 . S
O627 C631 1.259 . S
O628 Eu617 2.418 . S
O628 C631 1.265 . S
O629 Eu617 2.384 . S
O629 C638 1.255 . S
O630 Tb616 2.366 . S
O630 C638 1.265 . S
C631 O627 1.259 . S
C631 O628 1.265 . S
O632 Eu617 2.479 . S
O632 C647 1.238 . S
O633 Eu617 2.471 . S
O633 C647 1.247 . S
O634 Eu617 2.347 . S
O634 C618 1.259 . S
O635 Tb616 2.418 . S
O635 C618 1.265 . S
O636 Tb616 2.384 . S
O636 C619 1.255 . S
O637 Eu617 2.366 . S
O637 C619 1.265 . S
C638 O629 1.255 . S
C638 O630 1.265 . S
O639 Tb616 2.479 . S
O639 C626 1.238 . S
O640 Tb616 2.471 . S
O640 C626 1.247 . S
C641 C644 1.380 . S
C641 C645 1.374 . S
C641 C647 1.507 . S
C642 C643 1.387 . S
C642 C646 1.391 . S
C643 C642 1.387 . S
C643 C644 1.384 . S
C643 H652 0.930 . S
C644 C641 1.380 . S
C644 C643 1.384 . S
C644 H653 0.931 . S
C645 C641 1.374 . S
C645 C646 1.390 . S
C645 H654 0.930 . S
C646 C642 1.391 . S
C646 C645 1.390 . S
C646 H655 0.930 . S
C647 Eu617 2.825 . S
C647 O632 1.238 . S
C647 O633 1.247 . S
C647 C641 1.507 . S
H648 C621 0.930 . S
H649 C622 0.931 . S
H650 C623 0.930 . S
H651 C624 0.930 . S
H652 C643 0.930 . S
H653 C644 0.931 . S
H654 C645 0.930 . S
H655 C646 0.930 . S
Tb656 C666 2.825 . S
Tb656 O667 2.347 1_556 S
Tb656 O670 2.366 . S
Tb656 O675 2.418 . S
Tb656 O676 2.384 1_556 S
Tb656 O679 2.479 . S
Tb656 O680 2.471 . S
Eu657 O668 2.418 . S
Eu657 O669 2.384 . S
Eu657 O672 2.479 . S
Eu657 O673 2.471 . S
Eu657 O674 2.347 . S
Eu657 O677 2.366 . S
Eu657 C687 2.825 . S
C658 O674 1.259 . S
C658 O675 1.265 1_554 S
C659 O676 1.255 . S
C659 O677 1.265 . S
C660 C662 1.380 . S
C660 C663 1.374 . S
C660 C666 1.507 . S
C661 C662 1.384 . S
C661 C665 1.387 . S
C661 H688 0.930 . S
C662 C660 1.380 . S
C662 C661 1.384 . S
C662 H689 0.931 . S
C663 C660 1.374 . S
C663 C664 1.390 . S
C663 H690 0.930 . S
C664 C663 1.390 . S
C664 C665 1.391 . S
C664 H691 0.930 . S
C665 C661 1.387 . S
C665 C664 1.391 . S
C666 Tb656 2.825 . S
C666 C660 1.507 . S
C666 O679 1.238 . S
C666 O680 1.247 . S
O667 Tb656 2.347 1_554 S
O667 C671 1.259 . S
O668 Eu657 2.418 . S
O668 C671 1.265 . S
O669 Eu657 2.384 . S
O669 C678 1.255 . S
O670 Tb656 2.366 . S
O670 C678 1.265 1_556 S
C671 O667 1.259 . S
C671 O668 1.265 . S
O672 Eu657 2.479 . S
O672 C687 1.238 . S
O673 Eu657 2.471 . S
O673 C687 1.247 . S
O674 Eu657 2.347 . S
O674 C658 1.259 . S
O675 Tb656 2.418 . S
O675 C658 1.265 1_556 S
O676 Tb656 2.384 1_554 S
O676 C659 1.255 . S
O677 Eu657 2.366 . S
O677 C659 1.265 . S
C678 O669 1.255 . S
C678 O670 1.265 1_554 S
O679 Tb656 2.479 . S
O679 C666 1.238 . S
O680 Tb656 2.471 . S
O680 C666 1.247 . S
C681 C684 1.380 . S
C681 C685 1.374 . S
C681 C687 1.507 . S
C682 C683 1.387 . S
C682 C686 1.391 . S
C683 C682 1.387 . S
C683 C684 1.384 . S
C683 H692 0.930 . S
C684 C681 1.380 . S
C684 C683 1.384 . S
C684 H693 0.931 . S
C685 C681 1.374 . S
C685 C686 1.390 . S
C685 H694 0.930 . S
C686 C682 1.391 . S
C686 C685 1.390 . S
C686 H695 0.930 . S
C687 Eu657 2.825 . S
C687 O672 1.238 . S
C687 O673 1.247 . S
C687 C681 1.507 . S
H688 C661 0.930 . S
H689 C662 0.931 . S
H690 C663 0.930 . S
H691 C664 0.930 . S
H692 C683 0.930 . S
H693 C684 0.931 . S
H694 C685 0.930 . S
H695 C686 0.930 . S
Tb696 C706 2.825 . S
Tb696 O707 2.347 . S
Tb696 O710 2.366 . S
Tb696 O715 2.418 . S
Tb696 O716 2.384 . S
Tb696 O719 2.479 . S
Tb696 O720 2.471 . S
Eu697 O708 2.418 . S
Eu697 O709 2.384 . S
Eu697 O712 2.479 . S
Eu697 O713 2.471 . S
Eu697 O714 2.347 . S
Eu697 O717 2.366 . S
Eu697 C727 2.825 . S
C698 O714 1.259 . S
C698 O715 1.265 . S
C699 O716 1.255 . S
C699 O717 1.265 . S
C700 C702 1.380 . S
C700 C703 1.374 . S
C700 C706 1.507 . S
C701 C702 1.384 . S
C701 C705 1.387 . S
C701 H728 0.930 . S
C702 C700 1.380 . S
C702 C701 1.384 . S
C702 H729 0.931 . S
C703 C700 1.374 . S
C703 C704 1.390 . S
C703 H730 0.930 . S
C704 C703 1.390 . S
C704 C705 1.391 . S
C704 H731 0.930 . S
C705 C701 1.387 . S
C705 C704 1.391 . S
C706 Tb696 2.825 . S
C706 C700 1.507 . S
C706 O719 1.238 . S
C706 O720 1.247 . S
O707 Tb696 2.347 . S
O707 C711 1.259 . S
O708 Eu697 2.418 . S
O708 C711 1.265 . S
O709 Eu697 2.384 . S
O709 C718 1.255 . S
O710 Tb696 2.366 . S
O710 C718 1.265 . S
C711 O707 1.259 . S
C711 O708 1.265 . S
O712 Eu697 2.479 . S
O712 C727 1.238 . S
O713 Eu697 2.471 . S
O713 C727 1.247 . S
O714 Eu697 2.347 . S
O714 C698 1.259 . S
O715 Tb696 2.418 . S
O715 C698 1.265 . S
O716 Tb696 2.384 . S
O716 C699 1.255 . S
O717 Eu697 2.366 . S
O717 C699 1.265 . S
C718 O709 1.255 . S
C718 O710 1.265 . S
O719 Tb696 2.479 . S
O719 C706 1.238 . S
O720 Tb696 2.471 . S
O720 C706 1.247 . S
C721 C724 1.380 . S
C721 C725 1.374 . S
C721 C727 1.507 . S
C722 C723 1.387 . S
C722 C726 1.391 . S
C723 C722 1.387 . S
C723 C724 1.384 . S
C723 H732 0.930 . S
C724 C721 1.380 . S
C724 C723 1.384 . S
C724 H733 0.931 . S
C725 C721 1.374 . S
C725 C726 1.390 . S
C725 H734 0.930 . S
C726 C722 1.391 . S
C726 C725 1.390 . S
C726 H735 0.930 . S
C727 Eu697 2.825 . S
C727 O712 1.238 . S
C727 O713 1.247 . S
C727 C721 1.507 . S
H728 C701 0.930 . S
H729 C702 0.931 . S
H730 C703 0.930 . S
H731 C704 0.930 . S
H732 C723 0.930 . S
H733 C724 0.931 . S
H734 C725 0.930 . S
H735 C726 0.930 . S
Tb736 C746 2.825 . S
Tb736 O747 2.347 . S
Tb736 O750 2.366 . S
Tb736 O755 2.418 . S
Tb736 O756 2.384 . S
Tb736 O759 2.479 . S
Tb736 O760 2.471 . S
Eu737 O748 2.418 . S
Eu737 O749 2.384 . S
Eu737 O752 2.479 . S
Eu737 O753 2.471 . S
Eu737 O754 2.347 . S
Eu737 O757 2.366 . S
Eu737 C767 2.825 . S
C738 O754 1.259 . S
C738 O755 1.265 . S
C739 O756 1.255 . S
C739 O757 1.265 . S
C740 C742 1.380 . S
C740 C743 1.374 . S
C740 C746 1.507 . S
C741 C742 1.384 . S
C741 C745 1.387 . S
C741 H768 0.930 . S
C742 C740 1.380 . S
C742 C741 1.384 . S
C742 H769 0.931 . S
C743 C740 1.374 . S
C743 C744 1.390 . S
C743 H770 0.930 . S
C744 C743 1.390 . S
C744 C745 1.391 . S
C744 H771 0.930 . S
C745 C741 1.387 . S
C745 C744 1.391 . S
C746 Tb736 2.825 . S
C746 C740 1.507 . S
C746 O759 1.238 . S
C746 O760 1.247 . S
O747 Tb736 2.347 . S
O747 C751 1.259 . S
O748 Eu737 2.418 . S
O748 C751 1.265 . S
O749 Eu737 2.384 . S
O749 C758 1.255 . S
O750 Tb736 2.366 . S
O750 C758 1.265 . S
C751 O747 1.259 . S
C751 O748 1.265 . S
O752 Eu737 2.479 . S
O752 C767 1.238 . S
O753 Eu737 2.471 . S
O753 C767 1.247 . S
O754 Eu737 2.347 . S
O754 C738 1.259 . S
O755 Tb736 2.418 . S
O755 C738 1.265 . S
O756 Tb736 2.384 . S
O756 C739 1.255 . S
O757 Eu737 2.366 . S
O757 C739 1.265 . S
C758 O749 1.255 . S
C758 O750 1.265 . S
O759 Tb736 2.479 . S
O759 C746 1.238 . S
O760 Tb736 2.471 . S
O760 C746 1.247 . S
C761 C764 1.380 . S
C761 C765 1.374 . S
C761 C767 1.507 . S
C762 C763 1.387 . S
C762 C766 1.391 . S
C763 C762 1.387 . S
C763 C764 1.384 . S
C763 H772 0.930 . S
C764 C761 1.380 . S
C764 C763 1.384 . S
C764 H773 0.931 . S
C765 C761 1.374 . S
C765 C766 1.390 . S
C765 H774 0.930 . S
C766 C762 1.391 . S
C766 C765 1.390 . S
C766 H775 0.930 . S
C767 Eu737 2.825 . S
C767 O752 1.238 . S
C767 O753 1.247 . S
C767 C761 1.507 . S
H768 C741 0.930 . S
H769 C742 0.931 . S
H770 C743 0.930 . S
H771 C744 0.930 . S
H772 C763 0.930 . S
H773 C764 0.931 . S
H774 C765 0.930 . S
H775 C766 0.930 . S
Tb776 C786 2.825 . S
Tb776 O787 2.347 . S
Tb776 O790 2.366 . S
Tb776 O795 2.418 . S
Tb776 O796 2.384 . S
Tb776 O799 2.479 . S
Tb776 O800 2.471 . S
Eu777 O788 2.418 . S
Eu777 O789 2.384 . S
Eu777 O792 2.479 . S
Eu777 O793 2.471 . S
Eu777 O794 2.347 . S
Eu777 O797 2.366 . S
Eu777 C807 2.825 . S
C778 O794 1.259 . S
C778 O795 1.265 . S
C779 O796 1.255 . S
C779 O797 1.265 . S
C780 C782 1.380 . S
C780 C783 1.374 . S
C780 C786 1.507 . S
C781 C782 1.384 . S
C781 C785 1.387 . S
C781 H808 0.930 . S
C782 C780 1.380 . S
C782 C781 1.384 . S
C782 H809 0.931 . S
C783 C780 1.374 . S
C783 C784 1.390 . S
C783 H810 0.930 . S
C784 C783 1.390 . S
C784 C785 1.391 . S
C784 H811 0.930 . S
C785 C781 1.387 . S
C785 C784 1.391 . S
C786 Tb776 2.825 . S
C786 C780 1.507 . S
C786 O799 1.238 . S
C786 O800 1.247 . S
O787 Tb776 2.347 . S
O787 C791 1.259 . S
O788 Eu777 2.418 . S
O788 C791 1.265 . S
O789 Eu777 2.384 . S
O789 C798 1.255 . S
O790 Tb776 2.366 . S
O790 C798 1.265 . S
C791 O787 1.259 . S
C791 O788 1.265 . S
O792 Eu777 2.479 . S
O792 C807 1.238 . S
O793 Eu777 2.471 . S
O793 C807 1.247 . S
O794 Eu777 2.347 . S
O794 C778 1.259 . S
O795 Tb776 2.418 . S
O795 C778 1.265 . S
O796 Tb776 2.384 . S
O796 C779 1.255 . S
O797 Eu777 2.366 . S
O797 C779 1.265 . S
C798 O789 1.255 . S
C798 O790 1.265 . S
O799 Tb776 2.479 . S
O799 C786 1.238 . S
O800 Tb776 2.471 . S
O800 C786 1.247 . S
C801 C804 1.380 . S
C801 C805 1.374 . S
C801 C807 1.507 . S
C802 C803 1.387 . S
C802 C806 1.391 . S
C803 C802 1.387 . S
C803 C804 1.384 . S
C803 H812 0.930 . S
C804 C801 1.380 . S
C804 C803 1.384 . S
C804 H813 0.931 . S
C805 C801 1.374 . S
C805 C806 1.390 . S
C805 H814 0.930 . S
C806 C802 1.391 . S
C806 C805 1.390 . S
C806 H815 0.930 . S
C807 Eu777 2.825 . S
C807 O792 1.238 . S
C807 O793 1.247 . S
C807 C801 1.507 . S
H808 C781 0.930 . S
H809 C782 0.931 . S
H810 C783 0.930 . S
H811 C784 0.930 . S
H812 C803 0.930 . S
H813 C804 0.931 . S
H814 C805 0.930 . S
H815 C806 0.930 . S
Tb816 C826 2.825 . S
Tb816 O827 2.347 . S
Tb816 O830 2.366 . S
Tb816 O835 2.418 . S
Tb816 O836 2.384 . S
Tb816 O839 2.479 . S
Tb816 O840 2.471 . S
Eu817 O828 2.418 . S
Eu817 O829 2.384 . S
Eu817 O832 2.479 . S
Eu817 O833 2.471 . S
Eu817 O834 2.347 . S
Eu817 O837 2.366 . S
Eu817 C847 2.825 . S
C818 O834 1.259 . S
C818 O835 1.265 . S
C819 O836 1.255 . S
C819 O837 1.265 . S
C820 C822 1.380 . S
C820 C823 1.374 . S
C820 C826 1.507 . S
C821 C822 1.384 . S
C821 C825 1.387 . S
C821 H848 0.930 . S
C822 C820 1.380 . S
C822 C821 1.384 . S
C822 H849 0.931 . S
C823 C820 1.374 . S
C823 C824 1.390 . S
C823 H850 0.930 . S
C824 C823 1.390 . S
C824 C825 1.391 . S
C824 H851 0.930 . S
C825 C821 1.387 . S
C825 C824 1.391 . S
C826 Tb816 2.825 . S
C826 C820 1.507 . S
C826 O839 1.238 . S
C826 O840 1.247 . S
O827 Tb816 2.347 . S
O827 C831 1.259 . S
O828 Eu817 2.418 . S
O828 C831 1.265 . S
O829 Eu817 2.384 . S
O829 C838 1.255 . S
O830 Tb816 2.366 . S
O830 C838 1.265 . S
C831 O827 1.259 . S
C831 O828 1.265 . S
O832 Eu817 2.479 . S
O832 C847 1.238 . S
O833 Eu817 2.471 . S
O833 C847 1.247 . S
O834 Eu817 2.347 . S
O834 C818 1.259 . S
O835 Tb816 2.418 . S
O835 C818 1.265 . S
O836 Tb816 2.384 . S
O836 C819 1.255 . S
O837 Eu817 2.366 . S
O837 C819 1.265 . S
C838 O829 1.255 . S
C838 O830 1.265 . S
O839 Tb816 2.479 . S
O839 C826 1.238 . S
O840 Tb816 2.471 . S
O840 C826 1.247 . S
C841 C844 1.380 . S
C841 C845 1.374 . S
C841 C847 1.507 . S
C842 C843 1.387 . S
C842 C846 1.391 . S
C843 C842 1.387 . S
C843 C844 1.384 . S
C843 H852 0.930 . S
C844 C841 1.380 . S
C844 C843 1.384 . S
C844 H853 0.931 . S
C845 C841 1.374 . S
C845 C846 1.390 . S
C845 H854 0.930 . S
C846 C842 1.391 . S
C846 C845 1.390 . S
C846 H855 0.930 . S
C847 Eu817 2.825 . S
C847 O832 1.238 . S
C847 O833 1.247 . S
C847 C841 1.507 . S
H848 C821 0.930 . S
H849 C822 0.931 . S
H850 C823 0.930 . S
H851 C824 0.930 . S
H852 C843 0.930 . S
H853 C844 0.931 . S
H854 C845 0.930 . S
H855 C846 0.930 . S
Tb856 C866 2.825 . S
Tb856 O867 2.347 . S
Tb856 O870 2.366 . S
Tb856 O875 2.418 . S
Tb856 O876 2.384 . S
Tb856 O879 2.479 . S
Tb856 O880 2.471 . S
Eu857 O868 2.418 . S
Eu857 O869 2.384 . S
Eu857 O872 2.479 . S
Eu857 O873 2.471 . S
Eu857 O874 2.347 . S
Eu857 O877 2.366 . S
Eu857 C887 2.825 . S
C858 O874 1.259 . S
C858 O875 1.265 . S
C859 O876 1.255 . S
C859 O877 1.265 . S
C860 C862 1.380 . S
C860 C863 1.374 . S
C860 C866 1.507 . S
C861 C862 1.384 . S
C861 C865 1.387 . S
C861 H888 0.930 . S
C862 C860 1.380 . S
C862 C861 1.384 . S
C862 H889 0.931 . S
C863 C860 1.374 . S
C863 C864 1.390 . S
C863 H890 0.930 . S
C864 C863 1.390 . S
C864 C865 1.391 . S
C864 H891 0.930 . S
C865 C861 1.387 . S
C865 C864 1.391 . S
C866 Tb856 2.825 . S
C866 C860 1.507 . S
C866 O879 1.238 . S
C866 O880 1.247 . S
O867 Tb856 2.347 . S
O867 C871 1.259 . S
O868 Eu857 2.418 . S
O868 C871 1.265 . S
O869 Eu857 2.384 . S
O869 C878 1.255 . S
O870 Tb856 2.366 . S
O870 C878 1.265 . S
C871 O867 1.259 . S
C871 O868 1.265 . S
O872 Eu857 2.479 . S
O872 C887 1.238 . S
O873 Eu857 2.471 . S
O873 C887 1.247 . S
O874 Eu857 2.347 . S
O874 C858 1.259 . S
O875 Tb856 2.418 . S
O875 C858 1.265 . S
O876 Tb856 2.384 . S
O876 C859 1.255 . S
O877 Eu857 2.366 . S
O877 C859 1.265 . S
C878 O869 1.255 . S
C878 O870 1.265 . S
O879 Tb856 2.479 . S
O879 C866 1.238 . S
O880 Tb856 2.471 . S
O880 C866 1.247 . S
C881 C884 1.380 . S
C881 C885 1.374 . S
C881 C887 1.507 . S
C882 C883 1.387 . S
C882 C886 1.391 . S
C883 C882 1.387 . S
C883 C884 1.384 . S
C883 H892 0.930 . S
C884 C881 1.380 . S
C884 C883 1.384 . S
C884 H893 0.931 . S
C885 C881 1.374 . S
C885 C886 1.390 . S
C885 H894 0.930 . S
C886 C882 1.391 . S
C886 C885 1.390 . S
C886 H895 0.930 . S
C887 Eu857 2.825 . S
C887 O872 1.238 . S
C887 O873 1.247 . S
C887 C881 1.507 . S
H888 C861 0.930 . S
H889 C862 0.931 . S
H890 C863 0.930 . S
H891 C864 0.930 . S
H892 C883 0.930 . S
H893 C884 0.931 . S
H894 C885 0.930 . S
H895 C886 0.930 . S
Tb896 C906 2.825 . S
Tb896 O907 2.347 . S
Tb896 O910 2.366 . S
Tb896 O915 2.418 . S
Tb896 O916 2.384 . S
Tb896 O919 2.479 . S
Tb896 O920 2.471 . S
Eu897 O908 2.418 . S
Eu897 O909 2.384 . S
Eu897 O912 2.479 . S
Eu897 O913 2.471 . S
Eu897 O914 2.347 . S
Eu897 O917 2.366 . S
Eu897 C927 2.825 . S
C898 O914 1.259 . S
C898 O915 1.265 . S
C899 O916 1.255 . S
C899 O917 1.265 . S
C900 C902 1.380 . S
C900 C903 1.374 . S
C900 C906 1.507 . S
C901 C902 1.384 . S
C901 C905 1.387 . S
C901 H928 0.930 . S
C902 C900 1.380 . S
C902 C901 1.384 . S
C902 H929 0.931 . S
C903 C900 1.374 . S
C903 C904 1.390 . S
C903 H930 0.930 . S
C904 C903 1.390 . S
C904 C905 1.391 . S
C904 H931 0.930 . S
C905 C901 1.387 . S
C905 C904 1.391 . S
C906 Tb896 2.825 . S
C906 C900 1.507 . S
C906 O919 1.238 . S
C906 O920 1.247 . S
O907 Tb896 2.347 . S
O907 C911 1.259 . S
O908 Eu897 2.418 . S
O908 C911 1.265 . S
O909 Eu897 2.384 . S
O909 C918 1.255 . S
O910 Tb896 2.366 . S
O910 C918 1.265 . S
C911 O907 1.259 . S
C911 O908 1.265 . S
O912 Eu897 2.479 . S
O912 C927 1.238 . S
O913 Eu897 2.471 . S
O913 C927 1.247 . S
O914 Eu897 2.347 . S
O914 C898 1.259 . S
O915 Tb896 2.418 . S
O915 C898 1.265 . S
O916 Tb896 2.384 . S
O916 C899 1.255 . S
O917 Eu897 2.366 . S
O917 C899 1.265 . S
C918 O909 1.255 . S
C918 O910 1.265 . S
O919 Tb896 2.479 . S
O919 C906 1.238 . S
O920 Tb896 2.471 . S
O920 C906 1.247 . S
C921 C924 1.380 . S
C921 C925 1.374 . S
C921 C927 1.507 . S
C922 C923 1.387 . S
C922 C926 1.391 . S
C923 C922 1.387 . S
C923 C924 1.384 . S
C923 H932 0.930 . S
C924 C921 1.380 . S
C924 C923 1.384 . S
C924 H933 0.931 . S
C925 C921 1.374 . S
C925 C926 1.390 . S
C925 H934 0.930 . S
C926 C922 1.391 . S
C926 C925 1.390 . S
C926 H935 0.930 . S
C927 Eu897 2.825 . S
C927 O912 1.238 . S
C927 O913 1.247 . S
C927 C921 1.507 . S
H928 C901 0.930 . S
H929 C902 0.931 . S
H930 C903 0.930 . S
H931 C904 0.930 . S
H932 C923 0.930 . S
H933 C924 0.931 . S
H934 C925 0.930 . S
H935 C926 0.930 . S
Tb936 C946 2.825 1_554 S
Tb936 O947 2.347 1_554 S
Tb936 O950 2.366 . S
Tb936 O955 2.418 . S
Tb936 O956 2.384 . S
Tb936 O959 2.479 . S
Tb936 O960 2.471 1_554 S
Eu937 O948 2.418 1_554 S
Eu937 O949 2.384 . S
Eu937 O952 2.479 . S
Eu937 O953 2.471 . S
Eu937 O954 2.347 . S
Eu937 O957 2.366 . S
Eu937 C967 2.825 . S
C938 O954 1.259 . S
C938 O955 1.265 . S
C939 O956 1.255 . S
C939 O957 1.265 . S
C940 C942 1.380 . S
C940 C943 1.374 . S
C940 C946 1.507 . S
C941 C942 1.384 . S
C941 C945 1.387 . S
C941 H968 0.930 . S
C942 C940 1.380 . S
C942 C941 1.384 . S
C942 H969 0.931 1_556 S
C943 C940 1.374 . S
C943 C944 1.390 . S
C943 H970 0.930 . S
C944 C943 1.390 . S
C944 C945 1.391 . S
C944 H971 0.930 . S
C945 C941 1.387 . S
C945 C944 1.391 . S
C946 Tb936 2.825 1_556 S
C946 C940 1.507 . S
C946 O959 1.238 1_556 S
C946 O960 1.247 . S
O947 Tb936 2.347 1_556 S
O947 C951 1.259 . S
O948 Eu937 2.418 1_556 S
O948 C951 1.265 . S
O949 Eu937 2.384 . S
O949 C958 1.255 . S
O950 Tb936 2.366 . S
O950 C958 1.265 . S
C951 O947 1.259 . S
C951 O948 1.265 . S
O952 Eu937 2.479 . S
O952 C967 1.238 . S
O953 Eu937 2.471 . S
O953 C967 1.247 . S
O954 Eu937 2.347 . S
O954 C938 1.259 . S
O955 Tb936 2.418 . S
O955 C938 1.265 . S
O956 Tb936 2.384 . S
O956 C939 1.255 . S
O957 Eu937 2.366 . S
O957 C939 1.265 . S
C958 O949 1.255 . S
C958 O950 1.265 . S
O959 Tb936 2.479 . S
O959 C946 1.238 1_554 S
O960 Tb936 2.471 1_556 S
O960 C946 1.247 . S
C961 C964 1.380 . S
C961 C965 1.374 . S
C961 C967 1.507 . S
C962 C963 1.387 . S
C962 C966 1.391 . S
C963 C962 1.387 . S
C963 C964 1.384 . S
C963 H972 0.930 . S
C964 C961 1.380 . S
C964 C963 1.384 . S
C964 H973 0.931 . S
C965 C961 1.374 . S
C965 C966 1.390 . S
C965 H974 0.930 . S
C966 C962 1.391 . S
C966 C965 1.390 . S
C966 H975 0.930 . S
C967 Eu937 2.825 . S
C967 O952 1.238 . S
C967 O953 1.247 . S
C967 C961 1.507 . S
H968 C941 0.930 . S
H969 C942 0.931 1_554 S
H970 C943 0.930 . S
H971 C944 0.930 . S
H972 C963 0.930 . S
H973 C964 0.931 . S
H974 C965 0.930 . S
H975 C966 0.930 . S
C976 C977 1.391 . S
C976 C978 1.394 1_655 S
C976 H992 0.931 . S
C977 C976 1.391 . S
C977 C981 1.376 1_655 S
C978 C976 1.394 1_455 S
C978 C979 1.369 . S
C978 C982 1.525 1_455 S
C979 C978 1.369 . S
C979 C980 1.410 . S
C979 C987 1.503 . S
C980 C979 1.410 . S
C980 C981 1.392 . S
C980 C983 1.511 . S
C981 C977 1.376 1_455 S
C981 C980 1.392 . S
C981 H993 0.929 . S
C982 C978 1.525 1_655 S
C982 H994 0.961 . S
C982 H995 0.946 1_655 S
C982 H996 0.980 . S
C983 C980 1.511 . S
C983 H997 0.961 . S
C983 H998 0.961 . S
C983 H999 0.961 . S
C984 C985 1.370 . S
C984 C986 1.363 . S
C984 H1000 0.931 1_556 S
C985 C984 1.370 . S
C985 C989 1.408 . S
C986 C984 1.363 . S
C986 C987 1.370 . S
C986 C990 1.524 . S
C987 C979 1.503 . S
C987 C986 1.370 . S
C987 C988 1.403 . S
C988 C987 1.403 . S
C988 C989 1.404 . S
C988 C991 1.539 1_455 S
C989 C985 1.408 . S
C989 C988 1.404 . S
C989 H1001 0.930 . S
C990 C986 1.524 . S
C990 H1002 0.956 . S
C990 H1003 0.961 . S
C990 H1004 0.961 . S
C991 C988 1.539 1_655 S
C991 H1005 0.958 . S
C991 H1006 0.961 . S
C991 H1007 0.960 . S
H992 C976 0.931 . S
H993 C981 0.929 . S
H994 C982 0.961 . S
H995 C982 0.946 1_455 S
H996 C982 0.980 . S
H997 C983 0.961 . S
H998 C983 0.961 . S
H999 C983 0.961 . S
H1000 C984 0.931 1_554 S
H1001 C989 0.930 . S
H1002 C990 0.956 . S
H1003 C990 0.961 . S
H1004 C990 0.961 . S
H1005 C991 0.958 . S
H1006 C991 0.961 . S
H1007 C991 0.960 . S
C1008 C1009 1.391 . S
C1008 C1010 1.394 . S
C1008 H1024 0.931 . S
C1009 C1008 1.391 . S
C1009 C1013 1.376 . S
C1010 C1008 1.394 . S
C1010 C1011 1.369 . S
C1010 C1014 1.531 . S
C1011 C1010 1.369 . S
C1011 C1012 1.410 . S
C1011 C1019 1.503 . S
C1012 C1011 1.410 . S
C1012 C1013 1.392 . S
C1012 C1015 1.511 . S
C1013 C1009 1.376 . S
C1013 C1012 1.392 . S
C1013 H1025 0.929 . S
C1014 C1010 1.531 . S
C1014 H1026 0.960 . S
C1014 H1027 0.962 . S
C1014 H1028 0.960 . S
C1015 C1012 1.511 . S
C1015 H1029 0.961 . S
C1015 H1030 0.961 . S
C1015 H1031 0.961 . S
C1016 C1017 1.370 . S
C1016 C1018 1.363 . S
C1016 H1032 0.931 . S
C1017 C1016 1.370 . S
C1017 C1021 1.408 . S
C1018 C1016 1.363 . S
C1018 C1019 1.370 . S
C1018 C1022 1.524 . S
C1019 C1011 1.503 . S
C1019 C1018 1.370 . S
C1019 C1020 1.403 . S
C1020 C1019 1.403 . S
C1020 C1021 1.404 . S
C1020 C1023 1.539 . S
C1021 C1017 1.408 . S
C1021 C1020 1.404 . S
C1021 H1033 0.930 . S
C1022 C1018 1.524 . S
C1022 H1034 0.956 . S
C1022 H1035 0.961 . S
C1022 H1036 0.961 . S
C1023 C1020 1.539 . S
C1023 H1037 0.958 . S
C1023 H1038 0.961 . S
C1023 H1039 0.960 . S
H1024 C1008 0.931 . S
H1025 C1013 0.929 . S
H1026 C1014 0.960 . S
H1027 C1014 0.962 . S
H1028 C1014 0.960 . S
H1029 C1015 0.961 . S
H1030 C1015 0.961 . S
H1031 C1015 0.961 . S
H1032 C1016 0.931 . S
H1033 C1021 0.930 . S
H1034 C1022 0.956 . S
H1035 C1022 0.961 . S
H1036 C1022 0.961 . S
H1037 C1023 0.958 . S
H1038 C1023 0.961 . S
H1039 C1023 0.960 . S
C1040 C1041 1.391 . S
C1040 C1042 1.394 . S
C1040 H1056 0.931 . S
C1041 C1040 1.391 . S
C1041 C1045 1.376 . S
C1042 C1040 1.394 . S
C1042 C1043 1.369 . S
C1042 C1046 1.531 . S
C1043 C1042 1.369 . S
C1043 C1044 1.410 . S
C1043 C1051 1.503 . S
C1044 C1043 1.410 . S
C1044 C1045 1.392 . S
C1044 C1047 1.511 . S
C1045 C1041 1.376 . S
C1045 C1044 1.392 . S
C1045 H1057 0.929 . S
C1046 C1042 1.531 . S
C1046 H1058 0.960 . S
C1046 H1059 0.962 . S
C1046 H1060 0.960 . S
C1047 C1044 1.511 . S
C1047 H1061 0.961 . S
C1047 H1062 0.961 . S
C1047 H1063 0.961 . S
C1048 C1049 1.370 . S
C1048 C1050 1.363 . S
C1048 H1064 0.931 . S
C1049 C1048 1.370 . S
C1049 C1053 1.408 . S
C1050 C1048 1.363 . S
C1050 C1051 1.370 . S
C1050 C1054 1.524 . S
C1051 C1043 1.503 . S
C1051 C1050 1.370 . S
C1051 C1052 1.403 . S
C1052 C1051 1.403 . S
C1052 C1053 1.404 . S
C1052 C1055 1.539 . S
C1053 C1049 1.408 . S
C1053 C1052 1.404 . S
C1053 H1065 0.930 . S
C1054 C1050 1.524 . S
C1054 H1066 0.956 . S
C1054 H1067 0.961 . S
C1054 H1068 0.961 . S
C1055 C1052 1.539 . S
C1055 H1069 0.958 . S
C1055 H1070 0.961 . S
C1055 H1071 0.960 . S
H1056 C1040 0.931 . S
H1057 C1045 0.929 . S
H1058 C1046 0.960 . S
H1059 C1046 0.962 . S
H1060 C1046 0.960 . S
H1061 C1047 0.961 . S
H1062 C1047 0.961 . S
H1063 C1047 0.961 . S
H1064 C1048 0.931 . S
H1065 C1053 0.930 . S
H1066 C1054 0.956 . S
H1067 C1054 0.961 . S
H1068 C1054 0.961 . S
H1069 C1055 0.958 . S
H1070 C1055 0.961 . S
H1071 C1055 0.960 . S
C1072 C1073 1.391 . S
C1072 C1074 1.394 . S
C1072 H1088 0.931 . S
C1073 C1072 1.391 . S
C1073 C1077 1.376 . S
C1074 C1072 1.394 . S
C1074 C1075 1.369 . S
C1074 C1078 1.531 . S
C1075 C1074 1.369 . S
C1075 C1076 1.410 . S
C1075 C1083 1.503 . S
C1076 C1075 1.410 . S
C1076 C1077 1.392 . S
C1076 C1079 1.511 . S
C1077 C1073 1.376 . S
C1077 C1076 1.392 . S
C1077 H1089 0.929 . S
C1078 C1074 1.531 . S
C1078 H1090 0.960 . S
C1078 H1091 0.962 . S
C1078 H1092 0.960 . S
C1079 C1076 1.511 . S
C1079 H1093 0.961 . S
C1079 H1094 0.961 . S
C1079 H1095 0.961 . S
C1080 C1081 1.370 . S
C1080 C1082 1.363 . S
C1080 H1096 0.931 . S
C1081 C1080 1.370 . S
C1081 C1085 1.408 . S
C1082 C1080 1.363 . S
C1082 C1083 1.370 . S
C1082 C1086 1.524 . S
C1083 C1075 1.503 . S
C1083 C1082 1.370 . S
C1083 C1084 1.403 . S
C1084 C1083 1.403 . S
C1084 C1085 1.404 . S
C1084 C1087 1.539 . S
C1085 C1081 1.408 . S
C1085 C1084 1.404 . S
C1085 H1097 0.930 . S
C1086 C1082 1.524 . S
C1086 H1098 0.956 . S
C1086 H1099 0.961 . S
C1086 H1100 0.961 . S
C1087 C1084 1.539 . S
C1087 H1101 0.958 . S
C1087 H1102 0.961 . S
C1087 H1103 0.960 . S
H1088 C1072 0.931 . S
H1089 C1077 0.929 . S
H1090 C1078 0.960 . S
H1091 C1078 0.962 . S
H1092 C1078 0.960 . S
H1093 C1079 0.961 . S
H1094 C1079 0.961 . S
H1095 C1079 0.961 . S
H1096 C1080 0.931 . S
H1097 C1085 0.930 . S
H1098 C1086 0.956 . S
H1099 C1086 0.961 . S
H1100 C1086 0.961 . S
H1101 C1087 0.958 . S
H1102 C1087 0.961 . S
H1103 C1087 0.960 . S
C1104 C1105 1.391 . S
C1104 C1106 1.394 . S
C1104 H1120 0.931 . S
C1105 C1104 1.391 . S
C1105 C1109 1.376 . S
C1106 C1104 1.394 . S
C1106 C1107 1.369 . S
C1106 C1110 1.531 . S
C1107 C1106 1.369 . S
C1107 C1108 1.410 . S
C1107 C1115 1.503 . S
C1108 C1107 1.410 . S
C1108 C1109 1.392 . S
C1108 C1111 1.511 . S
C1109 C1105 1.376 . S
C1109 C1108 1.392 . S
C1109 H1121 0.929 . S
C1110 C1106 1.531 . S
C1110 H1122 0.960 . S
C1110 H1123 0.962 . S
C1110 H1124 0.960 1_455 S
C1111 C1108 1.511 . S
C1111 H1125 0.961 . S
C1111 H1126 0.961 . S
C1111 H1127 0.961 . S
C1112 C1113 1.370 . S
C1112 C1114 1.363 . S
C1112 H1128 0.931 . S
C1113 C1112 1.370 . S
C1113 C1117 1.408 . S
C1114 C1112 1.363 . S
C1114 C1115 1.370 . S
C1114 C1118 1.524 . S
C1115 C1107 1.503 . S
C1115 C1114 1.370 . S
C1115 C1116 1.403 . S
C1116 C1115 1.403 . S
C1116 C1117 1.404 . S
C1116 C1119 1.539 . S
C1117 C1113 1.408 . S
C1117 C1116 1.404 . S
C1117 H1129 0.930 . S
C1118 C1114 1.524 . S
C1118 H1130 0.956 . S
C1118 H1131 0.961 . S
C1118 H1132 0.961 . S
C1119 C1116 1.539 . S
C1119 H1133 0.958 . S
C1119 H1134 0.961 . S
C1119 H1135 0.960 . S
H1120 C1104 0.931 . S
H1121 C1109 0.929 . S
H1122 C1110 0.960 . S
H1123 C1110 0.962 . S
H1124 C1110 0.960 1_655 S
H1125 C1111 0.961 . S
H1126 C1111 0.961 . S
H1127 C1111 0.961 . S
H1128 C1112 0.931 . S
H1129 C1117 0.930 . S
H1130 C1118 0.956 . S
H1131 C1118 0.961 . S
H1132 C1118 0.961 . S
H1133 C1119 0.958 . S
H1134 C1119 0.961 . S
H1135 C1119 0.960 . S
C1136 C1137 1.391 . S
C1136 C1138 1.394 . S
C1136 H1152 0.931 . S
C1137 C1136 1.391 . S
C1137 C1141 1.376 . S
C1138 C1136 1.394 . S
C1138 C1139 1.369 . S
C1138 C1142 1.531 . S
C1139 C1138 1.369 . S
C1139 C1140 1.410 . S
C1139 C1147 1.503 . S
C1140 C1139 1.410 . S
C1140 C1141 1.392 . S
C1140 C1143 1.511 . S
C1141 C1137 1.376 . S
C1141 C1140 1.392 . S
C1141 H1153 0.929 . S
C1142 C1138 1.531 . S
C1142 H1154 0.960 . S
C1142 H1155 0.962 . S
C1142 H1156 0.960 . S
C1143 C1140 1.511 . S
C1143 H1157 0.961 . S
C1143 H1158 0.961 . S
C1143 H1159 0.961 . S
C1144 C1145 1.370 . S
C1144 C1146 1.363 . S
C1144 H1160 0.931 . S
C1145 C1144 1.370 . S
C1145 C1149 1.408 . S
C1146 C1144 1.363 . S
C1146 C1147 1.370 . S
C1146 C1150 1.524 . S
C1147 C1139 1.503 . S
C1147 C1146 1.370 . S
C1147 C1148 1.403 . S
C1148 C1147 1.403 . S
C1148 C1149 1.404 . S
C1148 C1151 1.539 . S
C1149 C1145 1.408 . S
C1149 C1148 1.404 . S
C1149 H1161 0.930 . S
C1150 C1146 1.524 . S
C1150 H1162 0.956 . S
C1150 H1163 0.961 . S
C1150 H1164 0.961 . S
C1151 C1148 1.539 . S
C1151 H1165 0.958 . S
C1151 H1166 0.961 . S
C1151 H1167 0.960 . S
H1152 C1136 0.931 . S
H1153 C1141 0.929 . S
H1154 C1142 0.960 . S
H1155 C1142 0.962 . S
H1156 C1142 0.960 . S
H1157 C1143 0.961 . S
H1158 C1143 0.961 . S
H1159 C1143 0.961 . S
H1160 C1144 0.931 . S
H1161 C1149 0.930 . S
H1162 C1150 0.956 . S
H1163 C1150 0.961 . S
H1164 C1150 0.961 . S
H1165 C1151 0.958 . S
H1166 C1151 0.961 . S
H1167 C1151 0.960 . S
C1168 C1169 1.391 . S
C1168 C1170 1.394 . S
C1168 H1184 0.931 . S
C1169 C1168 1.391 . S
C1169 C1173 1.376 . S
C1170 C1168 1.394 . S
C1170 C1171 1.369 . S
C1170 C1174 1.531 . S
C1171 C1170 1.369 . S
C1171 C1172 1.410 . S
C1171 C1179 1.503 . S
C1172 C1171 1.410 . S
C1172 C1173 1.392 . S
C1172 C1175 1.511 . S
C1173 C1169 1.376 . S
C1173 C1172 1.392 . S
C1173 H1185 0.929 . S
C1174 C1170 1.531 . S
C1174 H1186 0.960 . S
C1174 H1187 0.962 . S
C1174 H1188 0.960 . S
C1175 C1172 1.511 . S
C1175 H1189 0.961 . S
C1175 H1190 0.961 . S
C1175 H1191 0.961 . S
C1176 C1177 1.370 . S
C1176 C1178 1.363 . S
C1176 H1192 0.931 . S
C1177 C1176 1.370 . S
C1177 C1181 1.408 . S
C1178 C1176 1.363 . S
C1178 C1179 1.370 . S
C1178 C1182 1.524 . S
C1179 C1171 1.503 . S
C1179 C1178 1.370 . S
C1179 C1180 1.403 . S
C1180 C1179 1.403 . S
C1180 C1181 1.404 . S
C1180 C1183 1.539 . S
C1181 C1177 1.408 . S
C1181 C1180 1.404 . S
C1181 H1193 0.930 . S
C1182 C1178 1.524 . S
C1182 H1194 0.956 . S
C1182 H1195 0.961 . S
C1182 H1196 0.961 . S
C1183 C1180 1.539 . S
C1183 H1197 0.958 . S
C1183 H1198 0.961 . S
C1183 H1199 0.960 . S
H1184 C1168 0.931 . S
H1185 C1173 0.929 . S
H1186 C1174 0.960 . S
H1187 C1174 0.962 . S
H1188 C1174 0.960 . S
H1189 C1175 0.961 . S
H1190 C1175 0.961 . S
H1191 C1175 0.961 . S
H1192 C1176 0.931 . S
H1193 C1181 0.930 . S
H1194 C1182 0.956 . S
H1195 C1182 0.961 . S
H1196 C1182 0.961 . S
H1197 C1183 0.958 . S
H1198 C1183 0.961 . S
H1199 C1183 0.960 . S
C1200 C1201 1.391 . S
C1200 C1202 1.394 . S
C1200 H1216 0.931 . S
C1201 C1200 1.391 . S
C1201 C1205 1.376 . S
C1202 C1200 1.394 . S
C1202 C1203 1.369 . S
C1202 C1206 1.531 . S
C1203 C1202 1.369 . S
C1203 C1204 1.410 . S
C1203 C1211 1.503 . S
C1204 C1203 1.410 . S
C1204 C1205 1.392 . S
C1204 C1207 1.511 . S
C1205 C1201 1.376 . S
C1205 C1204 1.392 . S
C1205 H1217 0.929 . S
C1206 C1202 1.531 . S
C1206 H1218 0.960 . S
C1206 H1219 0.962 . S
C1206 H1220 0.960 . S
C1207 C1204 1.511 . S
C1207 H1221 0.961 . S
C1207 H1222 0.961 . S
C1207 H1223 0.961 . S
C1208 C1209 1.370 . S
C1208 C1210 1.363 . S
C1208 H1224 0.931 . S
C1209 C1208 1.370 . S
C1209 C1213 1.408 . S
C1210 C1208 1.363 . S
C1210 C1211 1.370 . S
C1210 C1214 1.524 . S
C1211 C1203 1.503 . S
C1211 C1210 1.370 . S
C1211 C1212 1.403 . S
C1212 C1211 1.403 . S
C1212 C1213 1.404 . S
C1212 C1215 1.539 . S
C1213 C1209 1.408 . S
C1213 C1212 1.404 . S
C1213 H1225 0.930 . S
C1214 C1210 1.524 . S
C1214 H1226 0.956 . S
C1214 H1227 0.961 . S
C1214 H1228 0.961 . S
C1215 C1212 1.539 . S
C1215 H1229 0.958 . S
C1215 H1230 0.961 . S
C1215 H1231 0.960 . S
H1216 C1200 0.931 . S
H1217 C1205 0.929 . S
H1218 C1206 0.960 . S
H1219 C1206 0.962 . S
H1220 C1206 0.960 . S
H1221 C1207 0.961 . S
H1222 C1207 0.961 . S
H1223 C1207 0.961 . S
H1224 C1208 0.931 . S
H1225 C1213 0.930 . S
H1226 C1214 0.956 . S
H1227 C1214 0.961 . S
H1228 C1214 0.961 . S
H1229 C1215 0.958 . S
H1230 C1215 0.961 . S
H1231 C1215 0.960 . S
C1232 C1233 1.387 1_545 S
C1232 C1234 1.394 . S
C1232 H1248 0.931 . S
C1233 C1232 1.387 1_565 S
C1233 C1237 1.376 . S
C1234 C1232 1.394 . S
C1234 C1235 1.369 . S
C1234 C1238 1.531 1_655 S
C1235 C1234 1.369 . S
C1235 C1236 1.410 . S
C1235 C1243 1.503 . S
C1236 C1235 1.410 . S
C1236 C1237 1.392 1_545 S
C1236 C1239 1.511 1_545 S
C1237 C1233 1.376 . S
C1237 C1236 1.392 1_565 S
C1237 H1249 0.929 . S
C1238 C1234 1.531 1_455 S
C1238 H1250 0.960 . S
C1238 H1251 0.962 . S
C1238 H1252 0.960 . S
C1239 C1236 1.511 1_565 S
C1239 H1253 0.961 . S
C1239 H1254 0.961 1_565 S
C1239 H1255 0.961 . S
C1240 C1241 1.370 . S
C1240 C1242 1.363 1_455 S
C1240 H1256 0.931 . S
C1241 C1240 1.370 . S
C1241 C1245 1.408 . S
C1242 C1240 1.363 1_655 S
C1242 C1243 1.370 . S
C1242 C1246 1.524 . S
C1243 C1235 1.503 . S
C1243 C1242 1.370 . S
C1243 C1244 1.403 1_655 S
C1244 C1243 1.403 1_455 S
C1244 C1245 1.404 . S
C1244 C1247 1.539 1_445 S
C1245 C1241 1.408 . S
C1245 C1244 1.404 . S
C1245 H1257 0.930 . S
C1246 C1242 1.524 . S
C1246 H1258 0.956 . S
C1246 H1259 0.961 . S
C1246 H1260 0.961 . S
C1247 C1244 1.539 1_665 S
C1247 H1261 0.958 1_655 S
C1247 H1262 0.957 1_655 S
C1247 H1263 0.960 . S
H1248 C1232 0.931 . S
H1249 C1237 0.929 . S
H1250 C1238 0.960 . S
H1251 C1238 0.962 . S
H1252 C1238 0.960 . S
H1253 C1239 0.961 . S
H1254 C1239 0.961 1_545 S
H1255 C1239 0.961 . S
H1256 C1240 0.931 . S
H1257 C1245 0.930 . S
H1258 C1246 0.956 . S
H1259 C1246 0.961 . S
H1260 C1246 0.961 . S
H1261 C1247 0.958 1_455 S
H1262 C1247 0.957 1_455 S
H1263 C1247 0.960 . S
C1264 C1265 1.391 . S
C1264 C1266 1.394 . S
C1264 H1280 0.931 . S
C1265 C1264 1.391 . S
C1265 C1269 1.376 . S
C1266 C1264 1.394 . S
C1266 C1267 1.369 . S
C1266 C1270 1.531 . S
C1267 C1266 1.369 . S
C1267 C1268 1.410 . S
C1267 C1275 1.503 . S
C1268 C1267 1.410 . S
C1268 C1269 1.392 . S
C1268 C1271 1.511 . S
C1269 C1265 1.376 . S
C1269 C1268 1.392 . S
C1269 H1281 0.929 . S
C1270 C1266 1.531 . S
C1270 H1282 0.960 . S
C1270 H1283 0.962 . S
C1270 H1284 0.960 . S
C1271 C1268 1.511 . S
C1271 H1285 0.961 . S
C1271 H1286 0.961 . S
C1271 H1287 0.961 . S
C1272 C1273 1.370 . S
C1272 C1274 1.363 . S
C1272 H1288 0.931 . S
C1273 C1272 1.370 . S
C1273 C1277 1.408 . S
C1274 C1272 1.363 . S
C1274 C1275 1.370 . S
C1274 C1278 1.524 . S
C1275 C1267 1.503 . S
C1275 C1274 1.370 . S
C1275 C1276 1.403 . S
C1276 C1275 1.403 . S
C1276 C1277 1.404 . S
C1276 C1279 1.539 . S
C1277 C1273 1.408 . S
C1277 C1276 1.404 . S
C1277 H1289 0.930 . S
C1278 C1274 1.524 . S
C1278 H1290 0.956 . S
C1278 H1291 0.961 . S
C1278 H1292 0.961 . S
C1279 C1276 1.539 . S
C1279 H1293 0.958 . S
C1279 H1294 0.961 . S
C1279 H1295 0.960 . S
H1280 C1264 0.931 . S
H1281 C1269 0.929 . S
H1282 C1270 0.960 . S
H1283 C1270 0.962 . S
H1284 C1270 0.960 . S
H1285 C1271 0.961 . S
H1286 C1271 0.961 . S
H1287 C1271 0.961 . S
H1288 C1272 0.931 . S
H1289 C1277 0.930 . S
H1290 C1278 0.956 . S
H1291 C1278 0.961 . S
H1292 C1278 0.961 . S
H1293 C1279 0.958 . S
H1294 C1279 0.961 . S
H1295 C1279 0.960 . S
C1296 C1297 1.391 . S
C1296 C1298 1.394 . S
C1296 H1312 0.931 . S
C1297 C1296 1.391 . S
C1297 C1301 1.376 1_565 S
C1298 C1296 1.394 . S
C1298 C1299 1.369 1_565 S
C1298 C1302 1.531 . S
C1299 C1298 1.369 1_545 S
C1299 C1300 1.410 . S
C1299 C1307 1.503 . S
C1300 C1299 1.410 . S
C1300 C1301 1.392 . S
C1300 C1303 1.511 . S
C1301 C1297 1.376 1_545 S
C1301 C1300 1.392 . S
C1301 H1313 0.929 . S
C1302 C1298 1.531 . S
C1302 H1314 0.960 . S
C1302 H1315 0.962 . S
C1302 H1316 0.960 . S
C1303 C1300 1.511 . S
C1303 H1317 0.961 . S
C1303 H1318 0.961 . S
C1303 H1319 0.961 . S
C1304 C1305 1.370 . S
C1304 C1306 1.363 . S
C1304 H1320 0.931 . S
C1305 C1304 1.370 . S
C1305 C1309 1.408 . S
C1306 C1304 1.363 . S
C1306 C1307 1.370 . S
C1306 C1310 1.524 . S
C1307 C1299 1.503 . S
C1307 C1306 1.370 . S
C1307 C1308 1.403 . S
C1308 C1307 1.403 . S
C1308 C1309 1.404 . S
C1308 C1311 1.539 1_545 S
C1309 C1305 1.408 . S
C1309 C1308 1.404 . S
C1309 H1321 0.930 . S
C1310 C1306 1.524 . S
C1310 H1322 0.956 . S
C1310 H1323 0.961 . S
C1310 H1324 0.961 . S
C1311 C1308 1.539 1_565 S
C1311 H1325 0.958 . S
C1311 H1326 0.961 . S
C1311 H1327 0.960 . S
H1312 C1296 0.931 . S
H1313 C1301 0.929 . S
H1314 C1302 0.960 . S
H1315 C1302 0.962 . S
H1316 C1302 0.960 . S
H1317 C1303 0.961 . S
H1318 C1303 0.961 . S
H1319 C1303 0.961 . S
H1320 C1304 0.931 . S
H1321 C1309 0.930 . S
H1322 C1310 0.956 . S
H1323 C1310 0.961 . S
H1324 C1310 0.961 . S
H1325 C1311 0.958 . S
H1326 C1311 0.961 . S
H1327 C1311 0.960 . S
C1328 C1329 1.391 . S
C1328 C1330 1.394 . S
C1328 H1344 0.931 . S
C1329 C1328 1.391 . S
C1329 C1333 1.376 . S
C1330 C1328 1.394 . S
C1330 C1331 1.369 . S
C1330 C1334 1.531 . S
C1331 C1330 1.369 . S
C1331 C1332 1.410 . S
C1331 C1339 1.503 . S
C1332 C1331 1.410 . S
C1332 C1333 1.392 . S
C1332 C1335 1.511 . S
C1333 C1329 1.376 . S
C1333 C1332 1.392 . S
C1333 H1345 0.929 . S
C1334 C1330 1.531 . S
C1334 H1346 0.960 . S
C1334 H1347 0.962 . S
C1334 H1348 0.960 . S
C1335 C1332 1.511 . S
C1335 H1349 0.961 . S
C1335 H1350 0.961 . S
C1335 H1351 0.961 . S
C1336 C1337 1.370 . S
C1336 C1338 1.363 . S
C1336 H1352 0.931 . S
C1337 C1336 1.370 . S
C1337 C1341 1.408 . S
C1338 C1336 1.363 . S
C1338 C1339 1.370 . S
C1338 C1342 1.524 . S
C1339 C1331 1.503 . S
C1339 C1338 1.370 . S
C1339 C1340 1.403 . S
C1340 C1339 1.403 . S
C1340 C1341 1.404 . S
C1340 C1343 1.539 . S
C1341 C1337 1.408 . S
C1341 C1340 1.404 . S
C1341 H1353 0.930 . S
C1342 C1338 1.524 . S
C1342 H1354 0.956 . S
C1342 H1355 0.961 . S
C1342 H1356 0.961 . S
C1343 C1340 1.539 . S
C1343 H1357 0.958 . S
C1343 H1358 0.961 . S
C1343 H1359 0.960 . S
H1344 C1328 0.931 . S
H1345 C1333 0.929 . S
H1346 C1334 0.960 . S
H1347 C1334 0.962 . S
H1348 C1334 0.960 . S
H1349 C1335 0.961 . S
H1350 C1335 0.961 . S
H1351 C1335 0.961 . S
H1352 C1336 0.931 . S
H1353 C1341 0.930 . S
H1354 C1342 0.956 . S
H1355 C1342 0.961 . S
H1356 C1342 0.961 . S
H1357 C1343 0.958 . S
H1358 C1343 0.961 . S
H1359 C1343 0.960 . S
C1360 C1361 1.391 1_565 S
C1360 C1362 1.394 . S
C1360 H1376 0.931 . S
C1361 C1360 1.391 1_545 S
C1361 C1365 1.376 . S
C1362 C1360 1.394 . S
C1362 C1363 1.369 1_565 S
C1362 C1366 1.531 . S
C1363 C1362 1.369 1_545 S
C1363 C1364 1.410 . S
C1363 C1371 1.503 . S
C1364 C1363 1.410 . S
C1364 C1365 1.392 . S
C1364 C1367 1.511 . S
C1365 C1361 1.376 . S
C1365 C1364 1.392 . S
C1365 H1377 0.929 . S
C1366 C1362 1.531 . S
C1366 H1378 0.960 . S
C1366 H1379 0.962 . S
C1366 H1380 0.960 . S
C1367 C1364 1.511 . S
C1367 H1381 0.961 . S
C1367 H1382 0.961 . S
C1367 H1383 0.961 1_655 S
C1368 C1369 1.370 . S
C1368 C1370 1.363 . S
C1368 H1384 0.931 . S
C1369 C1368 1.370 . S
C1369 C1373 1.408 . S
C1370 C1368 1.363 . S
C1370 C1371 1.370 . S
C1370 C1374 1.524 . S
C1371 C1363 1.503 . S
C1371 C1370 1.370 . S
C1371 C1372 1.403 . S
C1372 C1371 1.403 . S
C1372 C1373 1.404 . S
C1372 C1375 1.539 1_545 S
C1373 C1369 1.408 . S
C1373 C1372 1.404 . S
C1373 H1385 0.930 1_655 S
C1374 C1370 1.524 . S
C1374 H1386 0.956 . S
C1374 H1387 0.961 . S
C1374 H1388 0.961 . S
C1375 C1372 1.539 1_565 S
C1375 H1389 0.958 . S
C1375 H1390 0.961 1_655 S
C1375 H1391 0.960 . S
H1376 C1360 0.931 . S
H1377 C1365 0.929 . S
H1378 C1366 0.960 . S
H1379 C1366 0.962 . S
H1380 C1366 0.960 . S
H1381 C1367 0.961 . S
H1382 C1367 0.961 . S
H1383 C1367 0.961 1_455 S
H1384 C1368 0.931 . S
H1385 C1373 0.930 1_455 S
H1386 C1374 0.956 . S
H1387 C1374 0.961 . S
H1388 C1374 0.961 . S
H1389 C1375 0.958 . S
H1390 C1375 0.961 1_455 S
H1391 C1375 0.960 . S
C1392 C1393 1.391 . S
C1392 C1394 1.394 . S
C1392 H1408 0.931 . S
C1393 C1392 1.391 . S
C1393 C1397 1.376 . S
C1394 C1392 1.394 . S
C1394 C1395 1.369 . S
C1394 C1398 1.531 . S
C1395 C1394 1.369 . S
C1395 C1396 1.410 . S
C1395 C1403 1.503 . S
C1396 C1395 1.410 . S
C1396 C1397 1.392 . S
C1396 C1399 1.511 . S
C1397 C1393 1.376 . S
C1397 C1396 1.392 . S
C1397 H1409 0.929 . S
C1398 C1394 1.531 . S
C1398 H1410 0.960 . S
C1398 H1411 0.962 . S
C1398 H1412 0.960 . S
C1399 C1396 1.511 . S
C1399 H1413 0.961 . S
C1399 H1414 0.961 . S
C1399 H1415 0.961 . S
C1400 C1401 1.370 . S
C1400 C1402 1.363 . S
C1400 H1416 0.931 . S
C1401 C1400 1.370 . S
C1401 C1405 1.408 . S
C1402 C1400 1.363 . S
C1402 C1403 1.370 . S
C1402 C1406 1.524 . S
C1403 C1395 1.503 . S
C1403 C1402 1.370 . S
C1403 C1404 1.403 . S
C1404 C1403 1.403 . S
C1404 C1405 1.404 . S
C1404 C1407 1.539 . S
C1405 C1401 1.408 . S
C1405 C1404 1.404 . S
C1405 H1417 0.930 . S
C1406 C1402 1.524 . S
C1406 H1418 0.956 . S
C1406 H1419 0.961 . S
C1406 H1420 0.961 . S
C1407 C1404 1.539 . S
C1407 H1421 0.958 . S
C1407 H1422 0.961 . S
C1407 H1423 0.960 . S
H1408 C1392 0.931 . S
H1409 C1397 0.929 . S
H1410 C1398 0.960 . S
H1411 C1398 0.962 . S
H1412 C1398 0.960 . S
H1413 C1399 0.961 . S
H1414 C1399 0.961 . S
H1415 C1399 0.961 . S
H1416 C1400 0.931 . S
H1417 C1405 0.930 . S
H1418 C1406 0.956 . S
H1419 C1406 0.961 . S
H1420 C1406 0.961 . S
H1421 C1407 0.958 . S
H1422 C1407 0.961 . S
H1423 C1407 0.960 . S
C1424 C1425 1.391 1_565 S
C1424 C1426 1.394 1_565 S
C1424 H1440 0.931 . S
C1425 C1424 1.391 1_545 S
C1425 C1429 1.376 . S
C1426 C1424 1.394 1_545 S
C1426 C1427 1.369 . S
C1426 C1430 1.529 1_545 S
C1427 C1426 1.369 . S
C1427 C1428 1.410 . S
C1427 C1435 1.503 . S
C1428 C1427 1.410 . S
C1428 C1429 1.392 . S
C1428 C1431 1.511 . S
C1429 C1425 1.376 . S
C1429 C1428 1.392 . S
C1429 H1441 0.929 . S
C1430 C1426 1.529 1_565 S
C1430 H1442 0.957 1_565 S
C1430 H1443 0.964 . S
C1430 H1444 0.963 . S
C1431 C1428 1.511 . S
C1431 H1445 0.961 . S
C1431 H1446 0.961 . S
C1431 H1447 0.961 . S
C1432 C1433 1.370 . S
C1432 C1434 1.363 . S
C1432 H1448 0.931 . S
C1433 C1432 1.370 . S
C1433 C1437 1.408 . S
C1434 C1432 1.363 . S
C1434 C1435 1.370 . S
C1434 C1438 1.524 . S
C1435 C1427 1.503 . S
C1435 C1434 1.370 . S
C1435 C1436 1.403 . S
C1436 C1435 1.403 . S
C1436 C1437 1.404 . S
C1436 C1439 1.539 . S
C1437 C1433 1.408 . S
C1437 C1436 1.404 . S
C1437 H1449 0.930 . S
C1438 C1434 1.524 . S
C1438 H1450 0.956 . S
C1438 H1451 0.961 . S
C1438 H1452 0.961 . S
C1439 C1436 1.539 . S
C1439 H1453 0.958 . S
C1439 H1454 0.961 . S
C1439 H1455 0.960 . S
H1440 C1424 0.931 . S
H1441 C1429 0.929 . S
H1442 C1430 0.957 1_545 S
H1443 C1430 0.964 . S
H1444 C1430 0.963 . S
H1445 C1431 0.961 . S
H1446 C1431 0.961 . S
H1447 C1431 0.961 . S
H1448 C1432 0.931 . S
H1449 C1437 0.930 . S
H1450 C1438 0.956 . S
H1451 C1438 0.961 . S
H1452 C1438 0.961 . S
H1453 C1439 0.958 . S
H1454 C1439 0.961 . S
H1455 C1439 0.960 . S
C1456 C1457 1.391 . S
C1456 C1458 1.394 . S
C1456 H1472 0.931 . S
C1457 C1456 1.391 . S
C1457 C1461 1.376 . S
C1458 C1456 1.394 . S
C1458 C1459 1.369 . S
C1458 C1462 1.531 . S
C1459 C1458 1.369 . S
C1459 C1460 1.410 . S
C1459 C1467 1.503 . S
C1460 C1459 1.410 . S
C1460 C1461 1.392 . S
C1460 C1463 1.511 . S
C1461 C1457 1.376 . S
C1461 C1460 1.392 . S
C1461 H1473 0.929 . S
C1462 C1458 1.531 . S
C1462 H1474 0.960 . S
C1462 H1475 0.962 . S
C1462 H1476 0.960 . S
C1463 C1460 1.511 . S
C1463 H1477 0.961 . S
C1463 H1478 0.961 . S
C1463 H1479 0.961 . S
C1464 C1465 1.370 . S
C1464 C1466 1.363 . S
C1464 H1480 0.931 . S
C1465 C1464 1.370 . S
C1465 C1469 1.408 . S
C1466 C1464 1.363 . S
C1466 C1467 1.370 . S
C1466 C1470 1.524 . S
C1467 C1459 1.503 . S
C1467 C1466 1.370 . S
C1467 C1468 1.403 . S
C1468 C1467 1.403 . S
C1468 C1469 1.404 . S
C1468 C1471 1.539 . S
C1469 C1465 1.408 . S
C1469 C1468 1.404 . S
C1469 H1481 0.930 . S
C1470 C1466 1.524 . S
C1470 H1482 0.956 . S
C1470 H1483 0.961 . S
C1470 H1484 0.961 . S
C1471 C1468 1.539 . S
C1471 H1485 0.958 . S
C1471 H1486 0.961 . S
C1471 H1487 0.960 . S
H1472 C1456 0.931 . S
H1473 C1461 0.929 . S
H1474 C1462 0.960 . S
H1475 C1462 0.962 . S
H1476 C1462 0.960 . S
H1477 C1463 0.961 . S
H1478 C1463 0.961 . S
H1479 C1463 0.961 . S
H1480 C1464 0.931 . S
H1481 C1469 0.930 . S
H1482 C1470 0.956 . S
H1483 C1470 0.961 . S
H1484 C1470 0.961 . S
H1485 C1471 0.958 . S
H1486 C1471 0.961 . S
H1487 C1471 0.960 . S
C1488 C1489 1.391 . S
C1488 C1490 1.394 . S
C1488 H1504 0.931 . S
C1489 C1488 1.391 . S
C1489 C1493 1.376 . S
C1490 C1488 1.394 . S
C1490 C1491 1.369 . S
C1490 C1494 1.531 . S
C1491 C1490 1.369 . S
C1491 C1492 1.410 . S
C1491 C1499 1.503 . S
C1492 C1491 1.410 . S
C1492 C1493 1.392 . S
C1492 C1495 1.511 . S
C1493 C1489 1.376 . S
C1493 C1492 1.392 . S
C1493 H1505 0.929 . S
C1494 C1490 1.531 . S
C1494 H1506 0.960 . S
C1494 H1507 0.962 . S
C1494 H1508 0.960 . S
C1495 C1492 1.511 . S
C1495 H1509 0.961 . S
C1495 H1510 0.961 . S
C1495 H1511 0.961 . S
C1496 C1497 1.365 1_545 S
C1496 C1498 1.338 1_545 S
C1496 H1512 0.963 . S
C1497 C1496 1.365 1_565 S
C1497 C1501 1.408 . S
C1498 C1496 1.338 1_565 S
C1498 C1499 1.370 . S
C1498 C1502 1.524 . S
C1499 C1491 1.503 . S
C1499 C1498 1.370 . S
C1499 C1500 1.403 . S
C1500 C1499 1.403 . S
C1500 C1501 1.404 . S
C1500 C1503 1.539 . S
C1501 C1497 1.408 . S
C1501 C1500 1.404 . S
C1501 H1513 0.930 . S
C1502 C1498 1.524 . S
C1502 H1514 0.956 . S
C1502 H1515 0.961 . S
C1502 H1516 0.961 1_565 S
C1503 C1500 1.539 . S
C1503 H1517 0.958 . S
C1503 H1518 0.961 . S
C1503 H1519 0.960 . S
H1504 C1488 0.931 . S
H1505 C1493 0.929 . S
H1506 C1494 0.960 . S
H1507 C1494 0.962 . S
H1508 C1494 0.960 . S
H1509 C1495 0.961 . S
H1510 C1495 0.961 . S
H1511 C1495 0.961 . S
H1512 C1496 0.963 . S
H1513 C1501 0.930 . S
H1514 C1502 0.956 . S
H1515 C1502 0.961 . S
H1516 C1502 0.961 1_545 S
H1517 C1503 0.958 . S
H1518 C1503 0.961 . S
H1519 C1503 0.960 . S
C1520 C1521 1.391 . S
C1520 C1522 1.394 . S
C1520 H1536 0.931 . S
C1521 C1520 1.391 . S
C1521 C1525 1.376 . S
C1522 C1520 1.394 . S
C1522 C1523 1.369 . S
C1522 C1526 1.531 . S
C1523 C1522 1.369 . S
C1523 C1524 1.410 . S
C1523 C1531 1.503 . S
C1524 C1523 1.410 . S
C1524 C1525 1.392 . S
C1524 C1527 1.511 . S
C1525 C1521 1.376 . S
C1525 C1524 1.392 . S
C1525 H1537 0.929 . S
C1526 C1522 1.531 . S
C1526 H1538 0.960 1_554 S
C1526 H1539 0.962 . S
C1526 H1540 0.960 1_554 S
C1527 C1524 1.511 . S
C1527 H1541 0.961 . S
C1527 H1542 0.961 . S
C1527 H1543 0.961 . S
C1528 C1529 1.370 . S
C1528 C1530 1.363 . S
C1528 H1544 0.931 . S
C1529 C1528 1.370 . S
C1529 C1533 1.408 1_554 S
C1530 C1528 1.363 . S
C1530 C1531 1.370 . S
C1530 C1534 1.524 . S
C1531 C1523 1.503 . S
C1531 C1530 1.370 . S
C1531 C1532 1.403 1_554 S
C1532 C1531 1.403 1_556 S
C1532 C1533 1.404 . S
C1532 C1535 1.539 . S
C1533 C1529 1.408 1_556 S
C1533 C1532 1.404 . S
C1533 H1545 0.930 . S
C1534 C1530 1.524 . S
C1534 H1546 0.956 . S
C1534 H1547 0.961 . S
C1534 H1548 0.961 . S
C1535 C1532 1.539 . S
C1535 H1549 0.958 . S
C1535 H1550 0.961 . S
C1535 H1551 0.960 . S
H1536 C1520 0.931 . S
H1537 C1525 0.929 . S
H1538 C1526 0.960 1_556 S
H1539 C1526 0.962 . S
H1540 C1526 0.960 1_556 S
H1541 C1527 0.961 . S
H1542 C1527 0.961 . S
H1543 C1527 0.961 . S
H1544 C1528 0.931 . S
H1545 C1533 0.930 . S
H1546 C1534 0.956 . S
H1547 C1534 0.961 . S
H1548 C1534 0.961 . S
H1549 C1535 0.958 . S
H1550 C1535 0.961 . S
H1551 C1535 0.960 . S
C1552 C1553 1.391 . S
C1552 C1554 1.394 . S
C1552 H1568 0.931 . S
C1553 C1552 1.391 . S
C1553 C1557 1.376 . S
C1554 C1552 1.394 . S
C1554 C1555 1.369 . S
C1554 C1558 1.531 . S
C1555 C1554 1.369 . S
C1555 C1556 1.410 . S
C1555 C1563 1.503 . S
C1556 C1555 1.410 . S
C1556 C1557 1.392 . S
C1556 C1559 1.511 . S
C1557 C1553 1.376 . S
C1557 C1556 1.392 . S
C1557 H1569 0.929 . S
C1558 C1554 1.531 . S
C1558 H1570 0.960 . S
C1558 H1571 0.962 . S
C1558 H1572 0.960 . S
C1559 C1556 1.511 . S
C1559 H1573 0.961 . S
C1559 H1574 0.961 . S
C1559 H1575 0.961 . S
C1560 C1561 1.370 . S
C1560 C1562 1.363 . S
C1560 H1576 0.931 . S
C1561 C1560 1.370 . S
C1561 C1565 1.408 . S
C1562 C1560 1.363 . S
C1562 C1563 1.370 . S
C1562 C1566 1.524 . S
C1563 C1555 1.503 . S
C1563 C1562 1.370 . S
C1563 C1564 1.403 . S
C1564 C1563 1.403 . S
C1564 C1565 1.404 . S
C1564 C1567 1.539 . S
C1565 C1561 1.408 . S
C1565 C1564 1.404 . S
C1565 H1577 0.930 . S
C1566 C1562 1.524 . S
C1566 H1578 0.956 . S
C1566 H1579 0.961 . S
C1566 H1580 0.961 . S
C1567 C1564 1.539 . S
C1567 H1581 0.958 . S
C1567 H1582 0.961 . S
C1567 H1583 0.960 . S
H1568 C1552 0.931 . S
H1569 C1557 0.929 . S
H1570 C1558 0.960 . S
H1571 C1558 0.962 . S
H1572 C1558 0.960 . S
H1573 C1559 0.961 . S
H1574 C1559 0.961 . S
H1575 C1559 0.961 . S
H1576 C1560 0.931 . S
H1577 C1565 0.930 . S
H1578 C1566 0.956 . S
H1579 C1566 0.961 . S
H1580 C1566 0.961 . S
H1581 C1567 0.958 . S
H1582 C1567 0.961 . S
H1583 C1567 0.960 . S
C1584 C1585 1.391 . S
C1584 C1586 1.394 . S
C1584 H1600 0.931 . S
C1585 C1584 1.391 . S
C1585 C1589 1.376 . S
C1586 C1584 1.394 . S
C1586 C1587 1.369 . S
C1586 C1590 1.531 . S
C1587 C1586 1.369 . S
C1587 C1588 1.410 . S
C1587 C1595 1.503 . S
C1588 C1587 1.410 . S
C1588 C1589 1.392 . S
C1588 C1591 1.511 . S
C1589 C1585 1.376 . S
C1589 C1588 1.392 . S
C1589 H1601 0.929 . S
C1590 C1586 1.531 . S
C1590 H1602 0.960 . S
C1590 H1603 0.962 . S
C1590 H1604 0.960 . S
C1591 C1588 1.511 . S
C1591 H1605 0.961 . S
C1591 H1606 0.961 . S
C1591 H1607 0.961 . S
C1592 C1593 1.370 . S
C1592 C1594 1.363 . S
C1592 H1608 0.931 . S
C1593 C1592 1.370 . S
C1593 C1597 1.408 . S
C1594 C1592 1.363 . S
C1594 C1595 1.370 . S
C1594 C1598 1.524 . S
C1595 C1587 1.503 . S
C1595 C1594 1.370 . S
C1595 C1596 1.403 . S
C1596 C1595 1.403 . S
C1596 C1597 1.404 . S
C1596 C1599 1.539 . S
C1597 C1593 1.408 . S
C1597 C1596 1.404 . S
C1597 H1609 0.930 . S
C1598 C1594 1.524 . S
C1598 H1610 0.956 . S
C1598 H1611 0.961 . S
C1598 H1612 0.961 . S
C1599 C1596 1.539 . S
C1599 H1613 0.958 . S
C1599 H1614 0.961 . S
C1599 H1615 0.960 . S
H1600 C1584 0.931 . S
H1601 C1589 0.929 . S
H1602 C1590 0.960 . S
H1603 C1590 0.962 . S
H1604 C1590 0.960 . S
H1605 C1591 0.961 . S
H1606 C1591 0.961 . S
H1607 C1591 0.961 . S
H1608 C1592 0.931 . S
H1609 C1597 0.930 . S
H1610 C1598 0.956 . S
H1611 C1598 0.961 . S
H1612 C1598 0.961 . S
H1613 C1599 0.958 . S
H1614 C1599 0.961 . S
H1615 C1599 0.960 . S
C1616 C1617 1.391 . S
C1616 C1618 1.394 . S
C1616 H1632 0.931 . S
C1617 C1616 1.391 . S
C1617 C1621 1.376 . S
C1618 C1616 1.394 . S
C1618 C1619 1.369 . S
C1618 C1622 1.531 . S
C1619 C1618 1.369 . S
C1619 C1620 1.410 . S
C1619 C1627 1.503 . S
C1620 C1619 1.410 . S
C1620 C1621 1.392 . S
C1620 C1623 1.511 . S
C1621 C1617 1.376 . S
C1621 C1620 1.392 . S
C1621 H1633 0.929 . S
C1622 C1618 1.531 . S
C1622 H1634 0.960 . S
C1622 H1635 0.962 . S
C1622 H1636 0.960 . S
C1623 C1620 1.511 . S
C1623 H1637 0.961 . S
C1623 H1638 0.961 . S
C1623 H1639 0.961 . S
C1624 C1625 1.370 . S
C1624 C1626 1.363 . S
C1624 H1640 0.931 . S
C1625 C1624 1.370 . S
C1625 C1629 1.408 . S
C1626 C1624 1.363 . S
C1626 C1627 1.370 . S
C1626 C1630 1.524 . S
C1627 C1619 1.503 . S
C1627 C1626 1.370 . S
C1627 C1628 1.403 . S
C1628 C1627 1.403 . S
C1628 C1629 1.404 . S
C1628 C1631 1.539 . S
C1629 C1625 1.408 . S
C1629 C1628 1.404 . S
C1629 H1641 0.930 . S
C1630 C1626 1.524 . S
C1630 H1642 0.956 . S
C1630 H1643 0.961 . S
C1630 H1644 0.961 . S
C1631 C1628 1.539 . S
C1631 H1645 0.958 . S
C1631 H1646 0.961 . S
C1631 H1647 0.960 . S
H1632 C1616 0.931 . S
H1633 C1621 0.929 . S
H1634 C1622 0.960 . S
H1635 C1622 0.962 . S
H1636 C1622 0.960 . S
H1637 C1623 0.961 . S
H1638 C1623 0.961 . S
H1639 C1623 0.961 . S
H1640 C1624 0.931 . S
H1641 C1629 0.930 . S
H1642 C1630 0.956 . S
H1643 C1630 0.961 . S
H1644 C1630 0.961 . S
H1645 C1631 0.958 . S
H1646 C1631 0.961 . S
H1647 C1631 0.960 . S
C1648 C1649 1.391 . S
C1648 C1650 1.394 . S
C1648 H1664 0.931 . S
C1649 C1648 1.391 . S
C1649 C1653 1.376 . S
C1650 C1648 1.394 . S
C1650 C1651 1.369 . S
C1650 C1654 1.531 . S
C1651 C1650 1.369 . S
C1651 C1652 1.410 . S
C1651 C1659 1.503 . S
C1652 C1651 1.410 . S
C1652 C1653 1.392 . S
C1652 C1655 1.511 . S
C1653 C1649 1.376 . S
C1653 C1652 1.392 . S
C1653 H1665 0.929 . S
C1654 C1650 1.531 . S
C1654 H1666 0.960 . S
C1654 H1667 0.962 . S
C1654 H1668 0.960 . S
C1655 C1652 1.511 . S
C1655 H1669 0.961 . S
C1655 H1670 0.961 . S
C1655 H1671 0.961 . S
C1656 C1657 1.370 . S
C1656 C1658 1.363 . S
C1656 H1672 0.931 . S
C1657 C1656 1.370 . S
C1657 C1661 1.408 . S
C1658 C1656 1.363 . S
C1658 C1659 1.370 . S
C1658 C1662 1.524 . S
C1659 C1651 1.503 . S
C1659 C1658 1.370 . S
C1659 C1660 1.403 . S
C1660 C1659 1.403 . S
C1660 C1661 1.404 . S
C1660 C1663 1.539 . S
C1661 C1657 1.408 . S
C1661 C1660 1.404 . S
C1661 H1673 0.930 . S
C1662 C1658 1.524 . S
C1662 H1674 0.956 . S
C1662 H1675 0.961 . S
C1662 H1676 0.961 . S
C1663 C1660 1.539 . S
C1663 H1677 0.958 . S
C1663 H1678 0.961 . S
C1663 H1679 0.960 . S
H1664 C1648 0.931 . S
H1665 C1653 0.929 . S
H1666 C1654 0.960 . S
H1667 C1654 0.962 . S
H1668 C1654 0.960 . S
H1669 C1655 0.961 . S
H1670 C1655 0.961 . S
H1671 C1655 0.961 . S
H1672 C1656 0.931 . S
H1673 C1661 0.930 . S
H1674 C1662 0.956 . S
H1675 C1662 0.961 . S
H1676 C1662 0.961 . S
H1677 C1663 0.958 . S
H1678 C1663 0.961 . S
H1679 C1663 0.960 . S
C1680 C1681 1.391 . S
C1680 C1682 1.394 . S
C1680 H1696 0.931 . S
C1681 C1680 1.391 . S
C1681 C1685 1.376 . S
C1682 C1680 1.394 . S
C1682 C1683 1.369 . S
C1682 C1686 1.531 . S
C1683 C1682 1.369 . S
C1683 C1684 1.410 . S
C1683 C1691 1.503 . S
C1684 C1683 1.410 . S
C1684 C1685 1.392 . S
C1684 C1687 1.511 . S
C1685 C1681 1.376 . S
C1685 C1684 1.392 . S
C1685 H1697 0.929 . S
C1686 C1682 1.531 . S
C1686 H1698 0.960 . S
C1686 H1699 0.962 . S
C1686 H1700 0.960 . S
C1687 C1684 1.511 . S
C1687 H1701 0.961 . S
C1687 H1702 0.961 . S
C1687 H1703 0.961 . S
C1688 C1689 1.370 . S
C1688 C1690 1.363 . S
C1688 H1704 0.931 . S
C1689 C1688 1.370 . S
C1689 C1693 1.408 . S
C1690 C1688 1.363 . S
C1690 C1691 1.370 . S
C1690 C1694 1.524 . S
C1691 C1683 1.503 . S
C1691 C1690 1.370 . S
C1691 C1692 1.403 . S
C1692 C1691 1.403 . S
C1692 C1693 1.404 . S
C1692 C1695 1.539 . S
C1693 C1689 1.408 . S
C1693 C1692 1.404 . S
C1693 H1705 0.930 . S
C1694 C1690 1.524 . S
C1694 H1706 0.956 . S
C1694 H1707 0.961 . S
C1694 H1708 0.961 . S
C1695 C1692 1.539 . S
C1695 H1709 0.958 . S
C1695 H1710 0.961 . S
C1695 H1711 0.960 . S
H1696 C1680 0.931 . S
H1697 C1685 0.929 . S
H1698 C1686 0.960 . S
H1699 C1686 0.962 . S
H1700 C1686 0.960 . S
H1701 C1687 0.961 . S
H1702 C1687 0.961 . S
H1703 C1687 0.961 . S
H1704 C1688 0.931 . S
H1705 C1693 0.930 . S
H1706 C1694 0.956 . S
H1707 C1694 0.961 . S
H1708 C1694 0.961 . S
H1709 C1695 0.958 . S
H1710 C1695 0.961 . S
H1711 C1695 0.960 . S
C1712 C1713 1.391 . S
C1712 C1714 1.394 . S
C1712 H1728 0.931 . S
C1713 C1712 1.391 . S
C1713 C1717 1.376 . S
C1714 C1712 1.394 . S
C1714 C1715 1.369 . S
C1714 C1718 1.531 . S
C1715 C1714 1.369 . S
C1715 C1716 1.410 . S
C1715 C1723 1.503 . S
C1716 C1715 1.410 . S
C1716 C1717 1.392 . S
C1716 C1719 1.511 . S
C1717 C1713 1.376 . S
C1717 C1716 1.392 . S
C1717 H1729 0.929 . S
C1718 C1714 1.531 . S
C1718 H1730 0.960 . S
C1718 H1731 0.962 . S
C1718 H1732 0.960 . S
C1719 C1716 1.511 . S
C1719 H1733 0.961 . S
C1719 H1734 0.961 . S
C1719 H1735 0.961 . S
C1720 C1721 1.370 . S
C1720 C1722 1.363 . S
C1720 H1736 0.931 . S
C1721 C1720 1.370 . S
C1721 C1725 1.408 . S
C1722 C1720 1.363 . S
C1722 C1723 1.370 . S
C1722 C1726 1.524 . S
C1723 C1715 1.503 . S
C1723 C1722 1.370 . S
C1723 C1724 1.403 . S
C1724 C1723 1.403 . S
C1724 C1725 1.404 . S
C1724 C1727 1.539 . S
C1725 C1721 1.408 . S
C1725 C1724 1.404 . S
C1725 H1737 0.930 . S
C1726 C1722 1.524 . S
C1726 H1738 0.956 . S
C1726 H1739 0.961 . S
C1726 H1740 0.961 . S
C1727 C1724 1.539 . S
C1727 H1741 0.958 . S
C1727 H1742 0.961 . S
C1727 H1743 0.960 . S
H1728 C1712 0.931 . S
H1729 C1717 0.929 . S
H1730 C1718 0.960 . S
H1731 C1718 0.962 . S
H1732 C1718 0.960 . S
H1733 C1719 0.961 . S
H1734 C1719 0.961 . S
H1735 C1719 0.961 . S
H1736 C1720 0.931 . S
H1737 C1725 0.930 . S
H1738 C1726 0.956 . S
H1739 C1726 0.961 . S
H1740 C1726 0.961 . S
H1741 C1727 0.958 . S
H1742 C1727 0.961 . S
H1743 C1727 0.960 . S
C1744 C1745 1.391 . S
C1744 C1746 1.394 . S
C1744 H1760 0.931 . S
C1745 C1744 1.391 . S
C1745 C1749 1.376 . S
C1746 C1744 1.394 . S
C1746 C1747 1.369 . S
C1746 C1750 1.531 . S
C1747 C1746 1.369 . S
C1747 C1748 1.410 . S
C1747 C1755 1.503 . S
C1748 C1747 1.410 . S
C1748 C1749 1.392 . S
C1748 C1751 1.511 . S
C1749 C1745 1.376 . S
C1749 C1748 1.392 . S
C1749 H1761 0.929 . S
C1750 C1746 1.531 . S
C1750 H1762 0.960 . S
C1750 H1763 0.962 . S
C1750 H1764 0.960 . S
C1751 C1748 1.511 . S
C1751 H1765 0.961 . S
C1751 H1766 0.961 . S
C1751 H1767 0.961 . S
C1752 C1753 1.370 . S
C1752 C1754 1.363 . S
C1752 H1768 0.931 . S
C1753 C1752 1.370 . S
C1753 C1757 1.408 . S
C1754 C1752 1.363 . S
C1754 C1755 1.370 . S
C1754 C1758 1.524 . S
C1755 C1747 1.503 . S
C1755 C1754 1.370 . S
C1755 C1756 1.403 . S
C1756 C1755 1.403 . S
C1756 C1757 1.404 . S
C1756 C1759 1.539 . S
C1757 C1753 1.408 . S
C1757 C1756 1.404 . S
C1757 H1769 0.930 . S
C1758 C1754 1.524 . S
C1758 H1770 0.956 . S
C1758 H1771 0.961 . S
C1758 H1772 0.961 . S
C1759 C1756 1.539 . S
C1759 H1773 0.958 . S
C1759 H1774 0.961 . S
C1759 H1775 0.960 . S
H1760 C1744 0.931 . S
H1761 C1749 0.929 . S
H1762 C1750 0.960 . S
H1763 C1750 0.962 . S
H1764 C1750 0.960 . S
H1765 C1751 0.961 . S
H1766 C1751 0.961 . S
H1767 C1751 0.961 . S
H1768 C1752 0.931 . S
H1769 C1757 0.930 . S
H1770 C1758 0.956 . S
H1771 C1758 0.961 . S
H1772 C1758 0.961 . S
H1773 C1759 0.958 . S
H1774 C1759 0.961 . S
H1775 C1759 0.960 . S
C1776 C1777 1.391 . S
C1776 C1778 1.394 . S
C1776 H1792 0.931 . S
C1777 C1776 1.391 . S
C1777 C1781 1.376 . S
C1778 C1776 1.394 . S
C1778 C1779 1.369 . S
C1778 C1782 1.531 . S
C1779 C1778 1.369 . S
C1779 C1780 1.410 . S
C1779 C1787 1.503 . S
C1780 C1779 1.410 . S
C1780 C1781 1.392 . S
C1780 C1783 1.511 . S
C1781 C1777 1.376 . S
C1781 C1780 1.392 . S
C1781 H1793 0.929 . S
C1782 C1778 1.531 . S
C1782 H1794 0.960 . S
C1782 H1795 0.962 . S
C1782 H1796 0.960 . S
C1783 C1780 1.511 . S
C1783 H1797 0.961 . S
C1783 H1798 0.961 . S
C1783 H1799 0.961 . S
C1784 C1785 1.370 . S
C1784 C1786 1.363 . S
C1784 H1800 0.931 . S
C1785 C1784 1.370 . S
C1785 C1789 1.408 . S
C1786 C1784 1.363 . S
C1786 C1787 1.370 . S
C1786 C1790 1.524 . S
C1787 C1779 1.503 . S
C1787 C1786 1.370 . S
C1787 C1788 1.403 . S
C1788 C1787 1.403 . S
C1788 C1789 1.404 . S
C1788 C1791 1.539 . S
C1789 C1785 1.408 . S
C1789 C1788 1.404 . S
C1789 H1801 0.930 . S
C1790 C1786 1.524 . S
C1790 H1802 0.956 . S
C1790 H1803 0.961 . S
C1790 H1804 0.961 . S
C1791 C1788 1.539 . S
C1791 H1805 0.958 . S
C1791 H1806 0.961 . S
C1791 H1807 0.960 . S
H1792 C1776 0.931 . S
H1793 C1781 0.929 . S
H1794 C1782 0.960 . S
H1795 C1782 0.962 . S
H1796 C1782 0.960 . S
H1797 C1783 0.961 . S
H1798 C1783 0.961 . S
H1799 C1783 0.961 . S
H1800 C1784 0.931 . S
H1801 C1789 0.930 . S
H1802 C1790 0.956 . S
H1803 C1790 0.961 . S
H1804 C1790 0.961 . S
H1805 C1791 0.958 . S
H1806 C1791 0.961 . S
H1807 C1791 0.960 . S
C1808 C1809 1.391 . S
C1808 C1810 1.394 . S
C1808 H1824 0.931 . S
C1809 C1808 1.391 . S
C1809 C1813 1.376 . S
C1810 C1808 1.394 . S
C1810 C1811 1.369 . S
C1810 C1814 1.531 . S
C1811 C1810 1.369 . S
C1811 C1812 1.410 . S
C1811 C1819 1.503 . S
C1812 C1811 1.410 . S
C1812 C1813 1.392 . S
C1812 C1815 1.511 . S
C1813 C1809 1.376 . S
C1813 C1812 1.392 . S
C1813 H1825 0.929 . S
C1814 C1810 1.531 . S
C1814 H1826 0.960 . S
C1814 H1827 0.962 . S
C1814 H1828 0.960 . S
C1815 C1812 1.511 . S
C1815 H1829 0.961 . S
C1815 H1830 0.961 . S
C1815 H1831 0.961 . S
C1816 C1817 1.370 . S
C1816 C1818 1.363 . S
C1816 H1832 0.931 . S
C1817 C1816 1.370 . S
C1817 C1821 1.408 . S
C1818 C1816 1.363 . S
C1818 C1819 1.370 . S
C1818 C1822 1.524 . S
C1819 C1811 1.503 . S
C1819 C1818 1.370 . S
C1819 C1820 1.403 . S
C1820 C1819 1.403 . S
C1820 C1821 1.404 . S
C1820 C1823 1.539 . S
C1821 C1817 1.408 . S
C1821 C1820 1.404 . S
C1821 H1833 0.930 . S
C1822 C1818 1.524 . S
C1822 H1834 0.956 . S
C1822 H1835 0.961 . S
C1822 H1836 0.961 . S
C1823 C1820 1.539 . S
C1823 H1837 0.958 . S
C1823 H1838 0.961 . S
C1823 H1839 0.960 . S
H1824 C1808 0.931 . S
H1825 C1813 0.929 . S
H1826 C1814 0.960 . S
H1827 C1814 0.962 . S
H1828 C1814 0.960 . S
H1829 C1815 0.961 . S
H1830 C1815 0.961 . S
H1831 C1815 0.961 . S
H1832 C1816 0.931 . S
H1833 C1821 0.930 . S
H1834 C1822 0.956 . S
H1835 C1822 0.961 . S
H1836 C1822 0.961 . S
H1837 C1823 0.958 . S
H1838 C1823 0.961 . S
H1839 C1823 0.960 . S
C1840 C1841 1.391 . S
C1840 C1842 1.394 . S
C1840 H1856 0.931 . S
C1841 C1840 1.391 . S
C1841 C1845 1.376 . S
C1842 C1840 1.394 . S
C1842 C1843 1.369 . S
C1842 C1846 1.531 . S
C1843 C1842 1.369 . S
C1843 C1844 1.410 . S
C1843 C1851 1.503 . S
C1844 C1843 1.410 . S
C1844 C1845 1.392 . S
C1844 C1847 1.511 . S
C1845 C1841 1.376 . S
C1845 C1844 1.392 . S
C1845 H1857 0.929 . S
C1846 C1842 1.531 . S
C1846 H1858 0.960 . S
C1846 H1859 0.962 . S
C1846 H1860 0.960 . S
C1847 C1844 1.511 . S
C1847 H1861 0.961 . S
C1847 H1862 0.961 . S
C1847 H1863 0.961 . S
C1848 C1849 1.370 . S
C1848 C1850 1.363 . S
C1848 H1864 0.931 . S
C1849 C1848 1.370 . S
C1849 C1853 1.408 . S
C1850 C1848 1.363 . S
C1850 C1851 1.370 . S
C1850 C1854 1.524 . S
C1851 C1843 1.503 . S
C1851 C1850 1.370 . S
C1851 C1852 1.403 . S
C1852 C1851 1.403 . S
C1852 C1853 1.404 . S
C1852 C1855 1.539 . S
C1853 C1849 1.408 . S
C1853 C1852 1.404 . S
C1853 H1865 0.930 . S
C1854 C1850 1.524 . S
C1854 H1866 0.956 . S
C1854 H1867 0.961 . S
C1854 H1868 0.961 . S
C1855 C1852 1.539 . S
C1855 H1869 0.958 . S
C1855 H1870 0.961 . S
C1855 H1871 0.960 . S
H1856 C1840 0.931 . S
H1857 C1845 0.929 . S
H1858 C1846 0.960 . S
H1859 C1846 0.962 . S
H1860 C1846 0.960 . S
H1861 C1847 0.961 . S
H1862 C1847 0.961 . S
H1863 C1847 0.961 . S
H1864 C1848 0.931 . S
H1865 C1853 0.930 . S
H1866 C1854 0.956 . S
H1867 C1854 0.961 . S
H1868 C1854 0.961 . S
H1869 C1855 0.958 . S
H1870 C1855 0.961 . S
H1871 C1855 0.960 . S
C1872 C1873 1.391 . S
C1872 C1874 1.394 . S
C1872 H1888 0.931 . S
C1873 C1872 1.391 . S
C1873 C1877 1.376 . S
C1874 C1872 1.394 . S
C1874 C1875 1.369 . S
C1874 C1878 1.531 1_455 S
C1875 C1874 1.369 . S
C1875 C1876 1.410 . S
C1875 C1883 1.503 . S
C1876 C1875 1.410 . S
C1876 C1877 1.392 . S
C1876 C1879 1.511 . S
C1877 C1873 1.376 . S
C1877 C1876 1.392 . S
C1877 H1889 0.929 . S
C1878 C1874 1.531 1_655 S
C1878 H1890 0.960 . S
C1878 H1891 0.962 . S
C1878 H1892 0.960 . S
C1879 C1876 1.511 . S
C1879 H1893 0.961 . S
C1879 H1894 0.961 . S
C1879 H1895 0.961 . S
C1880 C1881 1.370 . S
C1880 C1882 1.363 . S
C1880 H1896 0.931 . S
C1881 C1880 1.370 . S
C1881 C1885 1.408 . S
C1882 C1880 1.363 . S
C1882 C1883 1.370 . S
C1882 C1886 1.524 . S
C1883 C1875 1.503 . S
C1883 C1882 1.370 . S
C1883 C1884 1.403 . S
C1884 C1883 1.403 . S
C1884 C1885 1.404 . S
C1884 C1887 1.539 . S
C1885 C1881 1.408 . S
C1885 C1884 1.404 . S
C1885 H1897 0.930 . S
C1886 C1882 1.524 . S
C1886 H1898 0.956 . S
C1886 H1899 0.961 . S
C1886 H1900 0.961 . S
C1887 C1884 1.539 . S
C1887 H1901 0.958 . S
C1887 H1902 0.961 . S
C1887 H1903 0.960 . S
H1888 C1872 0.931 . S
H1889 C1877 0.929 . S
H1890 C1878 0.960 . S
H1891 C1878 0.962 . S
H1892 C1878 0.960 . S
H1893 C1879 0.961 . S
H1894 C1879 0.961 . S
H1895 C1879 0.961 . S
H1896 C1880 0.931 . S
H1897 C1885 0.930 . S
H1898 C1886 0.956 . S
H1899 C1886 0.961 . S
H1900 C1886 0.961 . S
H1901 C1887 0.958 . S
H1902 C1887 0.961 . S
H1903 C1887 0.960 . S
C1904 C1905 1.391 . S
C1904 C1906 1.394 . S
C1904 H1920 0.931 . S
C1905 C1904 1.391 . S
C1905 C1909 1.376 . S
C1906 C1904 1.394 . S
C1906 C1907 1.369 . S
C1906 C1910 1.531 . S
C1907 C1906 1.369 . S
C1907 C1908 1.410 . S
C1907 C1915 1.503 . S
C1908 C1907 1.410 . S
C1908 C1909 1.392 . S
C1908 C1911 1.511 . S
C1909 C1905 1.376 . S
C1909 C1908 1.392 . S
C1909 H1921 0.929 . S
C1910 C1906 1.531 . S
C1910 H1922 0.960 . S
C1910 H1923 0.962 . S
C1910 H1924 0.960 . S
C1911 C1908 1.511 . S
C1911 H1925 0.961 . S
C1911 H1926 0.961 . S
C1911 H1927 0.961 . S
C1912 C1913 1.370 . S
C1912 C1914 1.363 . S
C1912 H1928 0.931 . S
C1913 C1912 1.370 . S
C1913 C1917 1.408 . S
C1914 C1912 1.363 . S
C1914 C1915 1.370 . S
C1914 C1918 1.524 . S
C1915 C1907 1.503 . S
C1915 C1914 1.370 . S
C1915 C1916 1.403 . S
C1916 C1915 1.403 . S
C1916 C1917 1.404 . S
C1916 C1919 1.539 . S
C1917 C1913 1.408 . S
C1917 C1916 1.404 . S
C1917 H1929 0.930 . S
C1918 C1914 1.524 . S
C1918 H1930 0.956 . S
C1918 H1931 0.961 . S
C1918 H1932 0.961 . S
C1919 C1916 1.539 . S
C1919 H1933 0.958 . S
C1919 H1934 0.961 . S
C1919 H1935 0.960 . S
H1920 C1904 0.931 . S
H1921 C1909 0.929 . S
H1922 C1910 0.960 . S
H1923 C1910 0.962 . S
H1924 C1910 0.960 . S
H1925 C1911 0.961 . S
H1926 C1911 0.961 . S
H1927 C1911 0.961 . S
H1928 C1912 0.931 . S
H1929 C1917 0.930 . S
H1930 C1918 0.956 . S
H1931 C1918 0.961 . S
H1932 C1918 0.961 . S
H1933 C1919 0.958 . S
H1934 C1919 0.961 . S
H1935 C1919 0.960 . S
C1936 C1937 1.391 . S
C1936 C1938 1.394 . S
C1936 H1952 0.931 . S
C1937 C1936 1.391 . S
C1937 C1941 1.376 . S
C1938 C1936 1.394 . S
C1938 C1939 1.369 . S
C1938 C1942 1.531 . S
C1939 C1938 1.369 . S
C1939 C1940 1.410 . S
C1939 C1947 1.503 . S
C1940 C1939 1.410 . S
C1940 C1941 1.392 . S
C1940 C1943 1.511 . S
C1941 C1937 1.376 . S
C1941 C1940 1.392 . S
C1941 H1953 0.929 . S
C1942 C1938 1.531 . S
C1942 H1954 0.960 . S
C1942 H1955 0.962 . S
C1942 H1956 0.960 . S
C1943 C1940 1.511 . S
C1943 H1957 0.961 . S
C1943 H1958 0.961 . S
C1943 H1959 0.961 . S
C1944 C1945 1.354 1_554 S
C1944 C1946 1.348 1_554 S
C1944 H1960 0.965 . S
C1945 C1944 1.354 1_556 S
C1945 C1949 1.408 . S
C1946 C1944 1.348 1_556 S
C1946 C1947 1.370 . S
C1946 C1950 1.507 1_556 S
C1947 C1939 1.503 . S
C1947 C1946 1.370 . S
C1947 C1948 1.403 . S
C1948 C1947 1.403 . S
C1948 C1949 1.404 . S
C1948 C1951 1.539 . S
C1949 C1945 1.408 . S
C1949 C1948 1.404 . S
C1949 H1961 0.930 . S
C1950 C1946 1.507 1_554 S
C1950 H1962 0.944 1_554 S
C1950 H1963 0.959 1_554 S
C1950 H1964 0.992 . S
C1951 C1948 1.539 . S
C1951 H1965 0.958 . S
C1951 H1966 0.961 . S
C1951 H1967 0.960 . S
H1952 C1936 0.931 . S
H1953 C1941 0.929 . S
H1954 C1942 0.960 . S
H1955 C1942 0.962 . S
H1956 C1942 0.960 . S
H1957 C1943 0.961 . S
H1958 C1943 0.961 . S
H1959 C1943 0.961 . S
H1960 C1944 0.965 . S
H1961 C1949 0.930 . S
H1962 C1950 0.944 1_556 S
H1963 C1950 0.959 1_556 S
H1964 C1950 0.992 . S
H1965 C1951 0.958 . S
H1966 C1951 0.961 . S
H1967 C1951 0.960 . S
C1968 C1969 1.391 . S
C1968 C1970 1.394 . S
C1968 H1984 0.931 . S
C1969 C1968 1.391 . S
C1969 C1973 1.376 . S
C1970 C1968 1.394 . S
C1970 C1971 1.369 . S
C1970 C1974 1.531 . S
C1971 C1970 1.369 . S
C1971 C1972 1.410 . S
C1971 C1979 1.503 . S
C1972 C1971 1.410 . S
C1972 C1973 1.392 . S
C1972 C1975 1.511 . S
C1973 C1969 1.376 . S
C1973 C1972 1.392 . S
C1973 H1985 0.929 . S
C1974 C1970 1.531 . S
C1974 H1986 0.960 . S
C1974 H1987 0.962 . S
C1974 H1988 0.960 . S
C1975 C1972 1.511 . S
C1975 H1989 0.961 . S
C1975 H1990 0.961 . S
C1975 H1991 0.961 . S
C1976 C1977 1.370 . S
C1976 C1978 1.363 . S
C1976 H1992 0.931 . S
C1977 C1976 1.370 . S
C1977 C1981 1.408 . S
C1978 C1976 1.363 . S
C1978 C1979 1.370 . S
C1978 C1982 1.524 . S
C1979 C1971 1.503 . S
C1979 C1978 1.370 . S
C1979 C1980 1.403 . S
C1980 C1979 1.403 . S
C1980 C1981 1.404 . S
C1980 C1983 1.539 . S
C1981 C1977 1.408 . S
C1981 C1980 1.404 . S
C1981 H1993 0.930 . S
C1982 C1978 1.524 . S
C1982 H1994 0.956 . S
C1982 H1995 0.961 . S
C1982 H1996 0.961 . S
C1983 C1980 1.539 . S
C1983 H1997 0.958 . S
C1983 H1998 0.961 . S
C1983 H1999 0.960 . S
H1984 C1968 0.931 . S
H1985 C1973 0.929 . S
H1986 C1974 0.960 . S
H1987 C1974 0.962 . S
H1988 C1974 0.960 . S
H1989 C1975 0.961 . S
H1990 C1975 0.961 . S
H1991 C1975 0.961 . S
H1992 C1976 0.931 . S
H1993 C1981 0.930 . S
H1994 C1982 0.956 . S
H1995 C1982 0.961 . S
H1996 C1982 0.961 . S
H1997 C1983 0.958 . S
H1998 C1983 0.961 . S
H1999 C1983 0.960 . S
C2000 C2001 1.391 . S
C2000 C2002 1.394 . S
C2000 H2016 0.931 . S
C2001 C2000 1.391 . S
C2001 C2005 1.376 . S
C2002 C2000 1.394 . S
C2002 C2003 1.369 . S
C2002 C2006 1.531 . S
C2003 C2002 1.369 . S
C2003 C2004 1.410 . S
C2003 C2011 1.503 . S
C2004 C2003 1.410 . S
C2004 C2005 1.392 . S
C2004 C2007 1.511 . S
C2005 C2001 1.376 . S
C2005 C2004 1.392 . S
C2005 H2017 0.929 . S
C2006 C2002 1.531 . S
C2006 H2018 0.960 . S
C2006 H2019 0.962 . S
C2006 H2020 0.960 . S
C2007 C2004 1.511 . S
C2007 H2021 0.961 . S
C2007 H2022 0.961 . S
C2007 H2023 0.961 . S
C2008 C2009 1.370 . S
C2008 C2010 1.363 . S
C2008 H2024 0.931 . S
C2009 C2008 1.370 . S
C2009 C2013 1.408 . S
C2010 C2008 1.363 . S
C2010 C2011 1.370 . S
C2010 C2014 1.524 . S
C2011 C2003 1.503 . S
C2011 C2010 1.370 . S
C2011 C2012 1.403 . S
C2012 C2011 1.403 . S
C2012 C2013 1.404 . S
C2012 C2015 1.539 . S
C2013 C2009 1.408 . S
C2013 C2012 1.404 . S
C2013 H2025 0.930 . S
C2014 C2010 1.524 . S
C2014 H2026 0.956 . S
C2014 H2027 0.961 . S
C2014 H2028 0.961 . S
C2015 C2012 1.539 . S
C2015 H2029 0.958 . S
C2015 H2030 0.961 . S
C2015 H2031 0.960 . S
H2016 C2000 0.931 . S
H2017 C2005 0.929 . S
H2018 C2006 0.960 . S
H2019 C2006 0.962 . S
H2020 C2006 0.960 . S
H2021 C2007 0.961 . S
H2022 C2007 0.961 . S
H2023 C2007 0.961 . S
H2024 C2008 0.931 . S
H2025 C2013 0.930 . S
H2026 C2014 0.956 . S
H2027 C2014 0.961 . S
H2028 C2014 0.961 . S
H2029 C2015 0.958 . S
H2030 C2015 0.961 . S
H2031 C2015 0.960 . S
C2032 C2033 1.391 . S
C2032 C2034 1.394 . S
C2032 H2048 0.931 . S
C2033 C2032 1.391 . S
C2033 C2037 1.376 . S
C2034 C2032 1.394 . S
C2034 C2035 1.369 . S
C2034 C2038 1.531 . S
C2035 C2034 1.369 . S
C2035 C2036 1.410 . S
C2035 C2043 1.503 . S
C2036 C2035 1.410 . S
C2036 C2037 1.392 . S
C2036 C2039 1.511 . S
C2037 C2033 1.376 . S
C2037 C2036 1.392 . S
C2037 H2049 0.929 . S
C2038 C2034 1.531 . S
C2038 H2050 0.960 . S
C2038 H2051 0.962 . S
C2038 H2052 0.960 . S
C2039 C2036 1.511 . S
C2039 H2053 0.961 . S
C2039 H2054 0.961 . S
C2039 H2055 0.961 . S
C2040 C2041 1.370 . S
C2040 C2042 1.363 . S
C2040 H2056 0.931 . S
C2041 C2040 1.370 . S
C2041 C2045 1.408 . S
C2042 C2040 1.363 . S
C2042 C2043 1.370 . S
C2042 C2046 1.524 . S
C2043 C2035 1.503 . S
C2043 C2042 1.370 . S
C2043 C2044 1.403 . S
C2044 C2043 1.403 . S
C2044 C2045 1.404 . S
C2044 C2047 1.539 . S
C2045 C2041 1.408 . S
C2045 C2044 1.404 . S
C2045 H2057 0.930 . S
C2046 C2042 1.524 . S
C2046 H2058 0.956 . S
C2046 H2059 0.961 . S
C2046 H2060 0.961 . S
C2047 C2044 1.539 . S
C2047 H2061 0.958 . S
C2047 H2062 0.961 . S
C2047 H2063 0.960 . S
H2048 C2032 0.931 . S
H2049 C2037 0.929 . S
H2050 C2038 0.960 . S
H2051 C2038 0.962 . S
H2052 C2038 0.960 . S
H2053 C2039 0.961 . S
H2054 C2039 0.961 . S
H2055 C2039 0.961 . S
H2056 C2040 0.931 . S
H2057 C2045 0.930 . S
H2058 C2046 0.956 . S
H2059 C2046 0.961 . S
H2060 C2046 0.961 . S
H2061 C2047 0.958 . S
H2062 C2047 0.961 . S
H2063 C2047 0.960 . S
C2064 C2065 1.391 . S
C2064 C2066 1.394 . S
C2064 H2080 0.931 . S
C2065 C2064 1.391 . S
C2065 C2069 1.376 . S
C2066 C2064 1.394 . S
C2066 C2067 1.369 . S
C2066 C2070 1.531 . S
C2067 C2066 1.369 . S
C2067 C2068 1.410 . S
C2067 C2075 1.503 . S
C2068 C2067 1.410 . S
C2068 C2069 1.392 . S
C2068 C2071 1.511 . S
C2069 C2065 1.376 . S
C2069 C2068 1.392 . S
C2069 H2081 0.929 . S
C2070 C2066 1.531 . S
C2070 H2082 0.960 . S
C2070 H2083 0.962 . S
C2070 H2084 0.960 . S
C2071 C2068 1.511 . S
C2071 H2085 0.961 . S
C2071 H2086 0.961 . S
C2071 H2087 0.961 . S
C2072 C2073 1.370 . S
C2072 C2074 1.363 . S
C2072 H2088 0.931 . S
C2073 C2072 1.370 . S
C2073 C2077 1.408 . S
C2074 C2072 1.363 . S
C2074 C2075 1.370 . S
C2074 C2078 1.524 . S
C2075 C2067 1.503 . S
C2075 C2074 1.370 . S
C2075 C2076 1.403 . S
C2076 C2075 1.403 . S
C2076 C2077 1.404 . S
C2076 C2079 1.539 . S
C2077 C2073 1.408 . S
C2077 C2076 1.404 . S
C2077 H2089 0.930 . S
C2078 C2074 1.524 . S
C2078 H2090 0.956 . S
C2078 H2091 0.961 . S
C2078 H2092 0.961 . S
C2079 C2076 1.539 . S
C2079 H2093 0.958 . S
C2079 H2094 0.961 . S
C2079 H2095 0.960 . S
H2080 C2064 0.931 . S
H2081 C2069 0.929 . S
H2082 C2070 0.960 . S
H2083 C2070 0.962 . S
H2084 C2070 0.960 . S
H2085 C2071 0.961 . S
H2086 C2071 0.961 . S
H2087 C2071 0.961 . S
H2088 C2072 0.931 . S
H2089 C2077 0.930 . S
H2090 C2078 0.956 . S
H2091 C2078 0.961 . S
H2092 C2078 0.961 . S
H2093 C2079 0.958 . S
H2094 C2079 0.961 . S
H2095 C2079 0.960 . S
C2096 C2097 1.391 . S
C2096 C2098 1.394 . S
C2096 H2112 0.931 . S
C2097 C2096 1.391 . S
C2097 C2101 1.376 . S
C2098 C2096 1.394 . S
C2098 C2099 1.369 . S
C2098 C2102 1.531 . S
C2099 C2098 1.369 . S
C2099 C2100 1.410 . S
C2099 C2107 1.503 . S
C2100 C2099 1.410 . S
C2100 C2101 1.392 . S
C2100 C2103 1.511 . S
C2101 C2097 1.376 . S
C2101 C2100 1.392 . S
C2101 H2113 0.929 . S
C2102 C2098 1.531 . S
C2102 H2114 0.960 . S
C2102 H2115 0.962 . S
C2102 H2116 0.960 . S
C2103 C2100 1.511 . S
C2103 H2117 0.961 . S
C2103 H2118 0.961 . S
C2103 H2119 0.961 . S
C2104 C2105 1.370 . S
C2104 C2106 1.363 . S
C2104 H2120 0.931 . S
C2105 C2104 1.370 . S
C2105 C2109 1.408 . S
C2106 C2104 1.363 . S
C2106 C2107 1.370 . S
C2106 C2110 1.524 . S
C2107 C2099 1.503 . S
C2107 C2106 1.370 . S
C2107 C2108 1.403 . S
C2108 C2107 1.403 . S
C2108 C2109 1.404 . S
C2108 C2111 1.539 . S
C2109 C2105 1.408 . S
C2109 C2108 1.404 . S
C2109 H2121 0.930 . S
C2110 C2106 1.524 . S
C2110 H2122 0.956 . S
C2110 H2123 0.961 . S
C2110 H2124 0.961 . S
C2111 C2108 1.539 . S
C2111 H2125 0.958 . S
C2111 H2126 0.961 . S
C2111 H2127 0.960 . S
H2112 C2096 0.931 . S
H2113 C2101 0.929 . S
H2114 C2102 0.960 . S
H2115 C2102 0.962 . S
H2116 C2102 0.960 . S
H2117 C2103 0.961 . S
H2118 C2103 0.961 . S
H2119 C2103 0.961 . S
H2120 C2104 0.931 . S
H2121 C2109 0.930 . S
H2122 C2110 0.956 . S
H2123 C2110 0.961 . S
H2124 C2110 0.961 . S
H2125 C2111 0.958 . S
H2126 C2111 0.961 . S
H2127 C2111 0.960 . S
C2128 C2129 1.391 . S
C2128 C2130 1.394 . S
C2128 H2144 0.931 . S
C2129 C2128 1.391 . S
C2129 C2133 1.376 . S
C2130 C2128 1.394 . S
C2130 C2131 1.369 . S
C2130 C2134 1.531 . S
C2131 C2130 1.369 . S
C2131 C2132 1.410 . S
C2131 C2139 1.503 . S
C2132 C2131 1.410 . S
C2132 C2133 1.392 . S
C2132 C2135 1.511 . S
C2133 C2129 1.376 . S
C2133 C2132 1.392 . S
C2133 H2145 0.929 . S
C2134 C2130 1.531 . S
C2134 H2146 0.960 . S
C2134 H2147 0.962 . S
C2134 H2148 0.960 . S
C2135 C2132 1.511 . S
C2135 H2149 0.961 . S
C2135 H2150 0.961 . S
C2135 H2151 0.961 . S
C2136 C2137 1.370 . S
C2136 C2138 1.363 . S
C2136 H2152 0.931 . S
C2137 C2136 1.370 . S
C2137 C2141 1.408 . S
C2138 C2136 1.363 . S
C2138 C2139 1.370 . S
C2138 C2142 1.524 . S
C2139 C2131 1.503 . S
C2139 C2138 1.370 . S
C2139 C2140 1.403 . S
C2140 C2139 1.403 . S
C2140 C2141 1.404 . S
C2140 C2143 1.539 . S
C2141 C2137 1.408 . S
C2141 C2140 1.404 . S
C2141 H2153 0.930 . S
C2142 C2138 1.524 . S
C2142 H2154 0.956 . S
C2142 H2155 0.961 . S
C2142 H2156 0.961 . S
C2143 C2140 1.539 . S
C2143 H2157 0.958 . S
C2143 H2158 0.961 . S
C2143 H2159 0.960 . S
H2144 C2128 0.931 . S
H2145 C2133 0.929 . S
H2146 C2134 0.960 . S
H2147 C2134 0.962 . S
H2148 C2134 0.960 . S
H2149 C2135 0.961 . S
H2150 C2135 0.961 . S
H2151 C2135 0.961 . S
H2152 C2136 0.931 . S
H2153 C2141 0.930 . S
H2154 C2142 0.956 . S
H2155 C2142 0.961 . S
H2156 C2142 0.961 . S
H2157 C2143 0.958 . S
H2158 C2143 0.961 . S
H2159 C2143 0.960 . S
C2160 C2161 1.391 . S
C2160 C2162 1.394 . S
C2160 H2176 0.931 . S
C2161 C2160 1.391 . S
C2161 C2165 1.376 . S
C2162 C2160 1.394 . S
C2162 C2163 1.369 . S
C2162 C2166 1.531 . S
C2163 C2162 1.369 . S
C2163 C2164 1.410 . S
C2163 C2171 1.503 . S
C2164 C2163 1.410 . S
C2164 C2165 1.392 . S
C2164 C2167 1.511 . S
C2165 C2161 1.376 . S
C2165 C2164 1.392 . S
C2165 H2177 0.929 . S
C2166 C2162 1.531 . S
C2166 H2178 0.960 . S
C2166 H2179 0.962 . S
C2166 H2180 0.960 . S
C2167 C2164 1.511 . S
C2167 H2181 0.961 . S
C2167 H2182 0.961 . S
C2167 H2183 0.961 . S
C2168 C2169 1.370 . S
C2168 C2170 1.363 . S
C2168 H2184 0.931 . S
C2169 C2168 1.370 . S
C2169 C2173 1.408 . S
C2170 C2168 1.363 . S
C2170 C2171 1.370 . S
C2170 C2174 1.524 . S
C2171 C2163 1.503 . S
C2171 C2170 1.370 . S
C2171 C2172 1.403 . S
C2172 C2171 1.403 . S
C2172 C2173 1.404 . S
C2172 C2175 1.539 . S
C2173 C2169 1.408 . S
C2173 C2172 1.404 . S
C2173 H2185 0.930 . S
C2174 C2170 1.524 . S
C2174 H2186 0.956 . S
C2174 H2187 0.961 . S
C2174 H2188 0.961 . S
C2175 C2172 1.539 . S
C2175 H2189 0.958 . S
C2175 H2190 0.961 . S
C2175 H2191 0.960 . S
H2176 C2160 0.931 . S
H2177 C2165 0.929 . S
H2178 C2166 0.960 . S
H2179 C2166 0.962 . S
H2180 C2166 0.960 . S
H2181 C2167 0.961 . S
H2182 C2167 0.961 . S
H2183 C2167 0.961 . S
H2184 C2168 0.931 . S
H2185 C2173 0.930 . S
H2186 C2174 0.956 . S
H2187 C2174 0.961 . S
H2188 C2174 0.961 . S
H2189 C2175 0.958 . S
H2190 C2175 0.961 . S
H2191 C2175 0.960 . S
C2192 C2193 1.391 . S
C2192 C2194 1.394 . S
C2192 H2208 0.931 . S
C2193 C2192 1.391 . S
C2193 C2197 1.376 . S
C2194 C2192 1.394 . S
C2194 C2195 1.369 . S
C2194 C2198 1.531 . S
C2195 C2194 1.369 . S
C2195 C2196 1.410 . S
C2195 C2203 1.503 . S
C2196 C2195 1.410 . S
C2196 C2197 1.392 . S
C2196 C2199 1.511 . S
C2197 C2193 1.376 . S
C2197 C2196 1.392 . S
C2197 H2209 0.929 . S
C2198 C2194 1.531 . S
C2198 H2210 0.960 . S
C2198 H2211 0.962 . S
C2198 H2212 0.960 . S
C2199 C2196 1.511 . S
C2199 H2213 0.961 . S
C2199 H2214 0.961 . S
C2199 H2215 0.961 . S
C2200 C2201 1.370 . S
C2200 C2202 1.363 . S
C2200 H2216 0.931 . S
C2201 C2200 1.370 . S
C2201 C2205 1.408 . S
C2202 C2200 1.363 . S
C2202 C2203 1.370 . S
C2202 C2206 1.524 . S
C2203 C2195 1.503 . S
C2203 C2202 1.370 . S
C2203 C2204 1.403 . S
C2204 C2203 1.403 . S
C2204 C2205 1.404 . S
C2204 C2207 1.539 . S
C2205 C2201 1.408 . S
C2205 C2204 1.404 . S
C2205 H2217 0.930 1_545 S
C2206 C2202 1.524 . S
C2206 H2218 0.956 . S
C2206 H2219 0.961 . S
C2206 H2220 0.961 . S
C2207 C2204 1.539 . S
C2207 H2221 0.958 . S
C2207 H2222 0.961 . S
C2207 H2223 0.960 . S
H2208 C2192 0.931 . S
H2209 C2197 0.929 . S
H2210 C2198 0.960 . S
H2211 C2198 0.962 . S
H2212 C2198 0.960 . S
H2213 C2199 0.961 . S
H2214 C2199 0.961 . S
H2215 C2199 0.961 . S
H2216 C2200 0.931 . S
H2217 C2205 0.930 1_565 S
H2218 C2206 0.956 . S
H2219 C2206 0.961 . S
H2220 C2206 0.961 . S
H2221 C2207 0.958 . S
H2222 C2207 0.961 . S
H2223 C2207 0.960 . S
C2224 C2225 1.391 . S
C2224 C2226 1.394 . S
C2224 H2240 0.931 . S
C2225 C2224 1.391 . S
C2225 C2229 1.376 . S
C2226 C2224 1.394 . S
C2226 C2227 1.369 . S
C2226 C2230 1.531 . S
C2227 C2226 1.369 . S
C2227 C2228 1.410 . S
C2227 C2235 1.503 . S
C2228 C2227 1.410 . S
C2228 C2229 1.392 . S
C2228 C2231 1.511 . S
C2229 C2225 1.376 . S
C2229 C2228 1.392 . S
C2229 H2241 0.929 . S
C2230 C2226 1.531 . S
C2230 H2242 0.960 . S
C2230 H2243 0.962 . S
C2230 H2244 0.960 . S
C2231 C2228 1.511 . S
C2231 H2245 0.961 . S
C2231 H2246 0.961 . S
C2231 H2247 0.961 . S
C2232 C2233 1.370 . S
C2232 C2234 1.363 . S
C2232 H2248 0.931 . S
C2233 C2232 1.370 . S
C2233 C2237 1.408 . S
C2234 C2232 1.363 . S
C2234 C2235 1.370 . S
C2234 C2238 1.524 . S
C2235 C2227 1.503 . S
C2235 C2234 1.370 . S
C2235 C2236 1.403 . S
C2236 C2235 1.403 . S
C2236 C2237 1.404 . S
C2236 C2239 1.539 . S
C2237 C2233 1.408 . S
C2237 C2236 1.404 . S
C2237 H2249 0.930 . S
C2238 C2234 1.524 . S
C2238 H2250 0.956 . S
C2238 H2251 0.961 . S
C2238 H2252 0.961 . S
C2239 C2236 1.539 . S
C2239 H2253 0.958 . S
C2239 H2254 0.961 . S
C2239 H2255 0.960 . S
H2240 C2224 0.931 . S
H2241 C2229 0.929 . S
H2242 C2230 0.960 . S
H2243 C2230 0.962 . S
H2244 C2230 0.960 . S
H2245 C2231 0.961 . S
H2246 C2231 0.961 . S
H2247 C2231 0.961 . S
H2248 C2232 0.931 . S
H2249 C2237 0.930 . S
H2250 C2238 0.956 . S
H2251 C2238 0.961 . S
H2252 C2238 0.961 . S
H2253 C2239 0.958 . S
H2254 C2239 0.961 . S
H2255 C2239 0.960 . S
C2256 C2257 1.391 . S
C2256 C2258 1.394 . S
C2256 H2272 0.931 . S
C2257 C2256 1.391 . S
C2257 C2261 1.376 . S
C2258 C2256 1.394 . S
C2258 C2259 1.369 . S
C2258 C2262 1.531 . S
C2259 C2258 1.369 . S
C2259 C2260 1.410 . S
C2259 C2267 1.503 . S
C2260 C2259 1.410 . S
C2260 C2261 1.392 . S
C2260 C2263 1.511 . S
C2261 C2257 1.376 . S
C2261 C2260 1.392 . S
C2261 H2273 0.929 . S
C2262 C2258 1.531 . S
C2262 H2274 0.960 . S
C2262 H2275 0.962 . S
C2262 H2276 0.960 . S
C2263 C2260 1.511 . S
C2263 H2277 0.961 . S
C2263 H2278 0.961 . S
C2263 H2279 0.961 . S
C2264 C2265 1.370 . S
C2264 C2266 1.363 . S
C2264 H2280 0.931 . S
C2265 C2264 1.370 . S
C2265 C2269 1.408 . S
C2266 C2264 1.363 . S
C2266 C2267 1.370 . S
C2266 C2270 1.524 1_556 S
C2267 C2259 1.503 . S
C2267 C2266 1.370 . S
C2267 C2268 1.403 . S
C2268 C2267 1.403 . S
C2268 C2269 1.404 . S
C2268 C2271 1.539 . S
C2269 C2265 1.408 . S
C2269 C2268 1.404 . S
C2269 H2281 0.930 . S
C2270 C2266 1.524 1_554 S
C2270 H2282 0.956 . S
C2270 H2283 0.961 . S
C2270 H2284 0.961 . S
C2271 C2268 1.539 . S
C2271 H2285 0.958 . S
C2271 H2286 0.961 . S
C2271 H2287 0.960 . S
H2272 C2256 0.931 . S
H2273 C2261 0.929 . S
H2274 C2262 0.960 . S
H2275 C2262 0.962 . S
H2276 C2262 0.960 . S
H2277 C2263 0.961 . S
H2278 C2263 0.961 . S
H2279 C2263 0.961 . S
H2280 C2264 0.931 . S
H2281 C2269 0.930 . S
H2282 C2270 0.956 . S
H2283 C2270 0.961 . S
H2284 C2270 0.961 . S
H2285 C2271 0.958 . S
H2286 C2271 0.961 . S
H2287 C2271 0.960 . S
C2288 C2289 1.391 . S
C2288 C2290 1.394 . S
C2288 H2304 0.931 . S
C2289 C2288 1.391 . S
C2289 C2293 1.376 . S
C2290 C2288 1.394 . S
C2290 C2291 1.369 . S
C2290 C2294 1.531 . S
C2291 C2290 1.369 . S
C2291 C2292 1.410 . S
C2291 C2299 1.503 . S
C2292 C2291 1.410 . S
C2292 C2293 1.392 . S
C2292 C2295 1.511 . S
C2293 C2289 1.376 . S
C2293 C2292 1.392 . S
C2293 H2305 0.929 . S
C2294 C2290 1.531 . S
C2294 H2306 0.960 . S
C2294 H2307 0.962 1_554 S
C2294 H2308 0.960 . S
C2295 C2292 1.511 . S
C2295 H2309 0.961 . S
C2295 H2310 0.961 . S
C2295 H2311 0.961 . S
C2296 C2297 1.370 . S
C2296 C2298 1.363 . S
C2296 H2312 0.931 1_554 S
C2297 C2296 1.370 . S
C2297 C2301 1.408 . S
C2298 C2296 1.363 . S
C2298 C2299 1.370 . S
C2298 C2302 1.524 1_554 S
C2299 C2291 1.503 . S
C2299 C2298 1.370 . S
C2299 C2300 1.403 . S
C2300 C2299 1.403 . S
C2300 C2301 1.404 . S
C2300 C2303 1.539 . S
C2301 C2297 1.408 . S
C2301 C2300 1.404 . S
C2301 H2313 0.930 . S
C2302 C2298 1.524 1_556 S
C2302 H2314 0.956 . S
C2302 H2315 0.979 . S
C2302 H2316 0.961 . S
C2303 C2300 1.539 . S
C2303 H2317 0.958 . S
C2303 H2318 0.961 . S
C2303 H2319 0.960 . S
H2304 C2288 0.931 . S
H2305 C2293 0.929 . S
H2306 C2294 0.960 . S
H2307 C2294 0.962 1_556 S
H2308 C2294 0.960 . S
H2309 C2295 0.961 . S
H2310 C2295 0.961 . S
H2311 C2295 0.961 . S
H2312 C2296 0.931 1_556 S
H2313 C2301 0.930 . S
H2314 C2302 0.956 . S
H2315 C2302 0.979 . S
H2316 C2302 0.961 . S
H2317 C2303 0.958 . S
H2318 C2303 0.961 . S
H2319 C2303 0.960 . S
C2320 C2321 1.391 . S
C2320 C2322 1.394 . S
C2320 H2336 0.931 . S
C2321 C2320 1.391 . S
C2321 C2325 1.376 . S
C2322 C2320 1.394 . S
C2322 C2323 1.369 . S
C2322 C2326 1.531 . S
C2323 C2322 1.369 . S
C2323 C2324 1.410 . S
C2323 C2331 1.503 . S
C2324 C2323 1.410 . S
C2324 C2325 1.392 . S
C2324 C2327 1.511 . S
C2325 C2321 1.376 . S
C2325 C2324 1.392 . S
C2325 H2337 0.929 . S
C2326 C2322 1.531 . S
C2326 H2338 0.960 . S
C2326 H2339 0.962 . S
C2326 H2340 0.960 . S
C2327 C2324 1.511 . S
C2327 H2341 0.961 . S
C2327 H2342 0.961 . S
C2327 H2343 0.961 . S
C2328 C2329 1.370 . S
C2328 C2330 1.363 . S
C2328 H2344 0.931 . S
C2329 C2328 1.370 . S
C2329 C2333 1.408 . S
C2330 C2328 1.363 . S
C2330 C2331 1.370 . S
C2330 C2334 1.524 . S
C2331 C2323 1.503 . S
C2331 C2330 1.370 . S
C2331 C2332 1.403 . S
C2332 C2331 1.403 . S
C2332 C2333 1.404 . S
C2332 C2335 1.539 . S
C2333 C2329 1.408 . S
C2333 C2332 1.404 . S
C2333 H2345 0.930 . S
C2334 C2330 1.524 . S
C2334 H2346 0.956 . S
C2334 H2347 0.961 . S
C2334 H2348 0.961 . S
C2335 C2332 1.539 . S
C2335 H2349 0.958 . S
C2335 H2350 0.961 . S
C2335 H2351 0.960 . S
H2336 C2320 0.931 . S
H2337 C2325 0.929 . S
H2338 C2326 0.960 . S
H2339 C2326 0.962 . S
H2340 C2326 0.960 . S
H2341 C2327 0.961 . S
H2342 C2327 0.961 . S
H2343 C2327 0.961 . S
H2344 C2328 0.931 . S
H2345 C2333 0.930 . S
H2346 C2334 0.956 . S
H2347 C2334 0.961 . S
H2348 C2334 0.961 . S
H2349 C2335 0.958 . S
H2350 C2335 0.961 . S
H2351 C2335 0.960 . S
C2352 C2353 1.391 . S
C2352 C2354 1.394 . S
C2352 H2368 0.931 . S
C2353 C2352 1.391 . S
C2353 C2357 1.376 . S
C2354 C2352 1.394 . S
C2354 C2355 1.369 . S
C2354 C2358 1.531 . S
C2355 C2354 1.369 . S
C2355 C2356 1.410 . S
C2355 C2363 1.503 . S
C2356 C2355 1.410 . S
C2356 C2357 1.392 . S
C2356 C2359 1.511 . S
C2357 C2353 1.376 . S
C2357 C2356 1.392 . S
C2357 H2369 0.929 . S
C2358 C2354 1.531 . S
C2358 H2370 0.960 . S
C2358 H2371 0.962 . S
C2358 H2372 0.960 . S
C2359 C2356 1.511 . S
C2359 H2373 0.961 . S
C2359 H2374 0.961 . S
C2359 H2375 0.961 . S
C2360 C2361 1.370 . S
C2360 C2362 1.363 . S
C2360 H2376 0.931 . S
C2361 C2360 1.370 . S
C2361 C2365 1.408 . S
C2362 C2360 1.363 . S
C2362 C2363 1.370 . S
C2362 C2366 1.524 . S
C2363 C2355 1.503 . S
C2363 C2362 1.370 . S
C2363 C2364 1.403 . S
C2364 C2363 1.403 . S
C2364 C2365 1.404 . S
C2364 C2367 1.539 . S
C2365 C2361 1.408 . S
C2365 C2364 1.404 . S
C2365 H2377 0.930 . S
C2366 C2362 1.524 . S
C2366 H2378 0.956 . S
C2366 H2379 0.961 . S
C2366 H2380 0.961 . S
C2367 C2364 1.539 . S
C2367 H2381 0.958 . S
C2367 H2382 0.961 . S
C2367 H2383 0.960 . S
H2368 C2352 0.931 . S
H2369 C2357 0.929 . S
H2370 C2358 0.960 . S
H2371 C2358 0.962 . S
H2372 C2358 0.960 . S
H2373 C2359 0.961 . S
H2374 C2359 0.961 . S
H2375 C2359 0.961 . S
H2376 C2360 0.931 . S
H2377 C2365 0.930 . S
H2378 C2366 0.956 . S
H2379 C2366 0.961 . S
H2380 C2366 0.961 . S
H2381 C2367 0.958 . S
H2382 C2367 0.961 . S
H2383 C2367 0.960 . S
C2384 C2385 1.391 . S
C2384 C2386 1.394 . S
C2384 H2400 0.931 . S
C2385 C2384 1.391 . S
C2385 C2389 1.376 . S
C2386 C2384 1.394 . S
C2386 C2387 1.369 . S
C2386 C2390 1.531 . S
C2387 C2386 1.369 . S
C2387 C2388 1.410 . S
C2387 C2395 1.503 . S
C2388 C2387 1.410 . S
C2388 C2389 1.392 . S
C2388 C2391 1.511 . S
C2389 C2385 1.376 . S
C2389 C2388 1.392 . S
C2389 H2401 0.929 . S
C2390 C2386 1.531 . S
C2390 H2402 0.960 . S
C2390 H2403 0.962 . S
C2390 H2404 0.960 . S
C2391 C2388 1.511 . S
C2391 H2405 0.961 . S
C2391 H2406 0.961 . S
C2391 H2407 0.961 . S
C2392 C2393 1.370 . S
C2392 C2394 1.363 . S
C2392 H2408 0.931 . S
C2393 C2392 1.370 . S
C2393 C2397 1.408 . S
C2394 C2392 1.363 . S
C2394 C2395 1.370 . S
C2394 C2398 1.524 . S
C2395 C2387 1.503 . S
C2395 C2394 1.370 . S
C2395 C2396 1.403 . S
C2396 C2395 1.403 . S
C2396 C2397 1.404 . S
C2396 C2399 1.539 . S
C2397 C2393 1.408 . S
C2397 C2396 1.404 . S
C2397 H2409 0.930 . S
C2398 C2394 1.524 . S
C2398 H2410 0.956 . S
C2398 H2411 0.961 . S
C2398 H2412 0.961 . S
C2399 C2396 1.539 . S
C2399 H2413 0.958 . S
C2399 H2414 0.961 . S
C2399 H2415 0.960 . S
H2400 C2384 0.931 . S
H2401 C2389 0.929 . S
H2402 C2390 0.960 . S
H2403 C2390 0.962 . S
H2404 C2390 0.960 . S
H2405 C2391 0.961 . S
H2406 C2391 0.961 . S
H2407 C2391 0.961 . S
H2408 C2392 0.931 . S
H2409 C2397 0.930 . S
H2410 C2398 0.956 . S
H2411 C2398 0.961 . S
H2412 C2398 0.961 . S
H2413 C2399 0.958 . S
H2414 C2399 0.961 . S
H2415 C2399 0.960 . S
C2416 C2417 1.391 . S
C2416 C2418 1.394 . S
C2416 H2432 0.931 . S
C2417 C2416 1.391 . S
C2417 C2421 1.376 . S
C2418 C2416 1.394 . S
C2418 C2419 1.369 . S
C2418 C2422 1.531 . S
C2419 C2418 1.369 . S
C2419 C2420 1.410 . S
C2419 C2427 1.503 . S
C2420 C2419 1.410 . S
C2420 C2421 1.392 . S
C2420 C2423 1.511 1_565 S
C2421 C2417 1.376 . S
C2421 C2420 1.392 . S
C2421 H2433 0.929 . S
C2422 C2418 1.531 . S
C2422 H2434 0.960 . S
C2422 H2435 0.962 . S
C2422 H2436 0.960 . S
C2423 C2420 1.511 1_545 S
C2423 H2437 0.961 . S
C2423 H2438 0.961 . S
C2423 H2439 0.961 . S
C2424 C2425 1.387 . S
C2424 C2426 1.363 . S
C2424 H2440 0.931 . S
C2425 C2424 1.387 . S
C2425 C2429 1.407 1_565 S
C2426 C2424 1.363 . S
C2426 C2427 1.370 . S
C2426 C2430 1.524 . S
C2427 C2419 1.503 . S
C2427 C2426 1.370 . S
C2427 C2428 1.403 . S
C2428 C2427 1.403 . S
C2428 C2429 1.404 1_565 S
C2428 C2431 1.539 1_565 S
C2429 C2425 1.407 1_545 S
C2429 C2428 1.404 1_545 S
C2429 H2441 0.930 . S
C2430 C2426 1.524 . S
C2430 H2442 0.956 . S
C2430 H2443 0.961 . S
C2430 H2444 0.961 . S
C2431 C2428 1.539 1_545 S
C2431 H2445 0.958 1_545 S
C2431 H2446 0.961 . S
C2431 H2447 0.960 . S
H2432 C2416 0.931 . S
H2433 C2421 0.929 . S
H2434 C2422 0.960 . S
H2435 C2422 0.962 . S
H2436 C2422 0.960 . S
H2437 C2423 0.961 . S
H2438 C2423 0.961 . S
H2439 C2423 0.961 . S
H2440 C2424 0.931 . S
H2441 C2429 0.930 . S
H2442 C2430 0.956 . S
H2443 C2430 0.961 . S
H2444 C2430 0.961 . S
H2445 C2431 0.958 1_565 S
H2446 C2431 0.961 . S
H2447 C2431 0.960 . S
C2448 C2449 1.391 . S
C2448 C2450 1.394 . S
C2448 H2464 0.931 . S
C2449 C2448 1.391 . S
C2449 C2453 1.376 . S
C2450 C2448 1.394 . S
C2450 C2451 1.369 . S
C2450 C2454 1.531 . S
C2451 C2450 1.369 . S
C2451 C2452 1.410 . S
C2451 C2459 1.503 . S
C2452 C2451 1.410 . S
C2452 C2453 1.392 . S
C2452 C2455 1.511 . S
C2453 C2449 1.376 . S
C2453 C2452 1.392 . S
C2453 H2465 0.929 . S
C2454 C2450 1.531 . S
C2454 H2466 0.960 . S
C2454 H2467 0.962 . S
C2454 H2468 0.960 . S
C2455 C2452 1.511 . S
C2455 H2469 0.961 . S
C2455 H2470 0.961 . S
C2455 H2471 0.961 . S
C2456 C2457 1.370 . S
C2456 C2458 1.363 . S
C2456 H2472 0.931 . S
C2457 C2456 1.370 . S
C2457 C2461 1.408 . S
C2458 C2456 1.363 . S
C2458 C2459 1.370 . S
C2458 C2462 1.524 . S
C2459 C2451 1.503 . S
C2459 C2458 1.370 . S
C2459 C2460 1.403 . S
C2460 C2459 1.403 . S
C2460 C2461 1.404 . S
C2460 C2463 1.539 . S
C2461 C2457 1.408 . S
C2461 C2460 1.404 . S
C2461 H2473 0.930 . S
C2462 C2458 1.524 . S
C2462 H2474 0.956 . S
C2462 H2475 0.961 . S
C2462 H2476 0.961 . S
C2463 C2460 1.539 . S
C2463 H2477 0.958 . S
C2463 H2478 0.961 . S
C2463 H2479 0.960 . S
H2464 C2448 0.931 . S
H2465 C2453 0.929 . S
H2466 C2454 0.960 . S
H2467 C2454 0.962 . S
H2468 C2454 0.960 . S
H2469 C2455 0.961 . S
H2470 C2455 0.961 . S
H2471 C2455 0.961 . S
H2472 C2456 0.931 . S
H2473 C2461 0.930 . S
H2474 C2462 0.956 . S
H2475 C2462 0.961 . S
H2476 C2462 0.961 . S
H2477 C2463 0.958 . S
H2478 C2463 0.961 . S
H2479 C2463 0.960 . S
C2480 C2481 1.391 . S
C2480 C2482 1.394 . S
C2480 H2496 0.931 . S
C2481 C2480 1.391 . S
C2481 C2485 1.376 . S
C2482 C2480 1.394 . S
C2482 C2483 1.369 . S
C2482 C2486 1.531 . S
C2483 C2482 1.369 . S
C2483 C2484 1.410 . S
C2483 C2491 1.503 . S
C2484 C2483 1.410 . S
C2484 C2485 1.392 . S
C2484 C2487 1.511 . S
C2485 C2481 1.376 . S
C2485 C2484 1.392 . S
C2485 H2497 0.929 . S
C2486 C2482 1.531 . S
C2486 H2498 0.960 . S
C2486 H2499 0.962 . S
C2486 H2500 0.960 . S
C2487 C2484 1.511 . S
C2487 H2501 0.961 . S
C2487 H2502 0.961 . S
C2487 H2503 0.961 . S
C2488 C2489 1.370 . S
C2488 C2490 1.363 . S
C2488 H2504 0.931 . S
C2489 C2488 1.370 . S
C2489 C2493 1.408 . S
C2490 C2488 1.363 . S
C2490 C2491 1.370 . S
C2490 C2494 1.524 . S
C2491 C2483 1.503 . S
C2491 C2490 1.370 . S
C2491 C2492 1.403 . S
C2492 C2491 1.403 . S
C2492 C2493 1.404 . S
C2492 C2495 1.539 . S
C2493 C2489 1.408 . S
C2493 C2492 1.404 . S
C2493 H2505 0.930 . S
C2494 C2490 1.524 . S
C2494 H2506 0.956 . S
C2494 H2507 0.961 . S
C2494 H2508 0.961 . S
C2495 C2492 1.539 . S
C2495 H2509 0.958 . S
C2495 H2510 0.961 . S
C2495 H2511 0.960 . S
H2496 C2480 0.931 . S
H2497 C2485 0.929 . S
H2498 C2486 0.960 . S
H2499 C2486 0.962 . S
H2500 C2486 0.960 . S
H2501 C2487 0.961 . S
H2502 C2487 0.961 . S
H2503 C2487 0.961 . S
H2504 C2488 0.931 . S
H2505 C2493 0.930 . S
H2506 C2494 0.956 . S
H2507 C2494 0.961 . S
H2508 C2494 0.961 . S
H2509 C2495 0.958 . S
H2510 C2495 0.961 . S
H2511 C2495 0.960 . S
C2512 C2513 1.391 . S
C2512 C2514 1.394 . S
C2512 H2528 0.931 . S
C2513 C2512 1.391 . S
C2513 C2517 1.376 . S
C2514 C2512 1.394 . S
C2514 C2515 1.369 . S
C2514 C2518 1.531 . S
C2515 C2514 1.369 . S
C2515 C2516 1.410 . S
C2515 C2523 1.503 . S
C2516 C2515 1.410 . S
C2516 C2517 1.392 . S
C2516 C2519 1.511 . S
C2517 C2513 1.376 . S
C2517 C2516 1.392 . S
C2517 H2529 0.929 . S
C2518 C2514 1.531 . S
C2518 H2530 0.960 . S
C2518 H2531 0.962 . S
C2518 H2532 0.960 . S
C2519 C2516 1.511 . S
C2519 H2533 0.961 . S
C2519 H2534 0.961 . S
C2519 H2535 0.961 . S
C2520 C2521 1.370 . S
C2520 C2522 1.363 . S
C2520 H2536 0.931 . S
C2521 C2520 1.370 . S
C2521 C2525 1.408 . S
C2522 C2520 1.363 . S
C2522 C2523 1.370 . S
C2522 C2526 1.524 . S
C2523 C2515 1.503 . S
C2523 C2522 1.370 . S
C2523 C2524 1.403 . S
C2524 C2523 1.403 . S
C2524 C2525 1.404 . S
C2524 C2527 1.539 . S
C2525 C2521 1.408 . S
C2525 C2524 1.404 . S
C2525 H2537 0.930 . S
C2526 C2522 1.524 . S
C2526 H2538 0.956 . S
C2526 H2539 0.961 . S
C2526 H2540 0.961 . S
C2527 C2524 1.539 . S
C2527 H2541 0.958 . S
C2527 H2542 0.961 . S
C2527 H2543 0.960 . S
H2528 C2512 0.931 . S
H2529 C2517 0.929 . S
H2530 C2518 0.960 . S
H2531 C2518 0.962 . S
H2532 C2518 0.960 . S
H2533 C2519 0.961 . S
H2534 C2519 0.961 . S
H2535 C2519 0.961 . S
H2536 C2520 0.931 . S
H2537 C2525 0.930 . S
H2538 C2526 0.956 . S
H2539 C2526 0.961 . S
H2540 C2526 0.961 . S
H2541 C2527 0.958 . S
H2542 C2527 0.961 . S
H2543 C2527 0.960 . S
C2544 C2545 1.391 . S
C2544 C2546 1.394 . S
C2544 H2560 0.931 . S
C2545 C2544 1.391 . S
C2545 C2549 1.376 . S
C2546 C2544 1.394 . S
C2546 C2547 1.369 . S
C2546 C2550 1.531 . S
C2547 C2546 1.369 . S
C2547 C2548 1.410 . S
C2547 C2555 1.503 . S
C2548 C2547 1.410 . S
C2548 C2549 1.392 . S
C2548 C2551 1.511 . S
C2549 C2545 1.376 . S
C2549 C2548 1.392 . S
C2549 H2561 0.929 . S
C2550 C2546 1.531 . S
C2550 H2562 0.960 . S
C2550 H2563 0.962 . S
C2550 H2564 0.960 . S
C2551 C2548 1.511 . S
C2551 H2565 0.961 . S
C2551 H2566 0.961 . S
C2551 H2567 0.961 . S
C2552 C2553 1.370 . S
C2552 C2554 1.363 . S
C2552 H2568 0.931 . S
C2553 C2552 1.370 . S
C2553 C2557 1.408 . S
C2554 C2552 1.363 . S
C2554 C2555 1.370 . S
C2554 C2558 1.524 . S
C2555 C2547 1.503 . S
C2555 C2554 1.370 . S
C2555 C2556 1.403 . S
C2556 C2555 1.403 . S
C2556 C2557 1.404 . S
C2556 C2559 1.539 . S
C2557 C2553 1.408 . S
C2557 C2556 1.404 . S
C2557 H2569 0.930 . S
C2558 C2554 1.524 . S
C2558 H2570 0.956 . S
C2558 H2571 0.961 . S
C2558 H2572 0.961 . S
C2559 C2556 1.539 . S
C2559 H2573 0.958 . S
C2559 H2574 0.961 . S
C2559 H2575 0.960 . S
H2560 C2544 0.931 . S
H2561 C2549 0.929 . S
H2562 C2550 0.960 . S
H2563 C2550 0.962 . S
H2564 C2550 0.960 . S
H2565 C2551 0.961 . S
H2566 C2551 0.961 . S
H2567 C2551 0.961 . S
H2568 C2552 0.931 . S
H2569 C2557 0.930 . S
H2570 C2558 0.956 . S
H2571 C2558 0.961 . S
H2572 C2558 0.961 . S
H2573 C2559 0.958 . S
H2574 C2559 0.961 . S
H2575 C2559 0.960 . S
C2576 C2577 1.391 . S
C2576 C2578 1.394 . S
C2576 H2592 0.931 . S
C2577 C2576 1.391 . S
C2577 C2581 1.376 . S
C2578 C2576 1.394 . S
C2578 C2579 1.369 . S
C2578 C2582 1.531 . S
C2579 C2578 1.369 . S
C2579 C2580 1.410 . S
C2579 C2587 1.503 . S
C2580 C2579 1.410 . S
C2580 C2581 1.392 . S
C2580 C2583 1.511 . S
C2581 C2577 1.376 . S
C2581 C2580 1.392 . S
C2581 H2593 0.929 1_455 S
C2582 C2578 1.531 . S
C2582 H2594 0.960 . S
C2582 H2595 0.962 . S
C2582 H2596 0.960 . S
C2583 C2580 1.511 . S
C2583 H2597 0.961 . S
C2583 H2598 0.961 . S
C2583 H2599 0.961 1_455 S
C2584 C2585 1.370 . S
C2584 C2586 1.363 . S
C2584 H2600 0.931 . S
C2585 C2584 1.370 . S
C2585 C2589 1.408 . S
C2586 C2584 1.363 . S
C2586 C2587 1.370 . S
C2586 C2590 1.524 . S
C2587 C2579 1.503 . S
C2587 C2586 1.370 . S
C2587 C2588 1.403 1_455 S
C2588 C2587 1.403 1_655 S
C2588 C2589 1.404 1_655 S
C2588 C2591 1.539 . S
C2589 C2585 1.408 . S
C2589 C2588 1.404 1_455 S
C2589 H2601 0.930 1_455 S
C2590 C2586 1.524 . S
C2590 H2602 0.956 . S
C2590 H2603 0.961 . S
C2590 H2604 0.961 . S
C2591 C2588 1.539 . S
C2591 H2605 0.958 . S
C2591 H2606 0.961 . S
C2591 H2607 0.960 . S
H2592 C2576 0.931 . S
H2593 C2581 0.929 1_655 S
H2594 C2582 0.960 . S
H2595 C2582 0.962 . S
H2596 C2582 0.960 . S
H2597 C2583 0.961 . S
H2598 C2583 0.961 . S
H2599 C2583 0.961 1_655 S
H2600 C2584 0.931 . S
H2601 C2589 0.930 1_655 S
H2602 C2590 0.956 . S
H2603 C2590 0.961 . S
H2604 C2590 0.961 . S
H2605 C2591 0.958 . S
H2606 C2591 0.961 . S
H2607 C2591 0.960 . S
C2608 C2609 1.391 . S
C2608 C2610 1.394 . S
C2608 H2624 0.931 . S
C2609 C2608 1.391 . S
C2609 C2613 1.376 . S
C2610 C2608 1.394 . S
C2610 C2611 1.369 . S
C2610 C2614 1.531 1_455 S
C2611 C2610 1.369 . S
C2611 C2612 1.410 . S
C2611 C2619 1.503 1_455 S
C2612 C2611 1.410 . S
C2612 C2613 1.392 . S
C2612 C2615 1.511 . S
C2613 C2609 1.376 . S
C2613 C2612 1.392 . S
C2613 H2625 0.929 . S
C2614 C2610 1.531 1_655 S
C2614 H2626 0.960 . S
C2614 H2627 0.962 . S
C2614 H2628 0.960 . S
C2615 C2612 1.511 . S
C2615 H2629 0.961 . S
C2615 H2630 0.961 . S
C2615 H2631 0.961 . S
C2616 C2617 1.370 . S
C2616 C2618 1.363 . S
C2616 H2632 0.931 . S
C2617 C2616 1.370 . S
C2617 C2621 1.408 . S
C2618 C2616 1.363 . S
C2618 C2619 1.370 . S
C2618 C2622 1.524 . S
C2619 C2611 1.503 1_655 S
C2619 C2618 1.370 . S
C2619 C2620 1.403 . S
C2620 C2619 1.403 . S
C2620 C2621 1.404 . S
C2620 C2623 1.539 . S
C2621 C2617 1.408 . S
C2621 C2620 1.404 . S
C2621 H2633 0.930 . S
C2622 C2618 1.524 . S
C2622 H2634 0.956 . S
C2622 H2635 0.961 1_655 S
C2622 H2636 0.961 . S
C2623 C2620 1.539 . S
C2623 H2637 0.958 . S
C2623 H2638 0.961 . S
C2623 H2639 0.960 . S
H2624 C2608 0.931 . S
H2625 C2613 0.929 . S
H2626 C2614 0.960 . S
H2627 C2614 0.962 . S
H2628 C2614 0.960 . S
H2629 C2615 0.961 . S
H2630 C2615 0.961 . S
H2631 C2615 0.961 . S
H2632 C2616 0.931 . S
H2633 C2621 0.930 . S
H2634 C2622 0.956 . S
H2635 C2622 0.961 1_455 S
H2636 C2622 0.961 . S
H2637 C2623 0.958 . S
H2638 C2623 0.961 . S
H2639 C2623 0.960 . S
C2640 C2641 1.391 . S
C2640 C2642 1.394 . S
C2640 H2656 0.931 . S
C2641 C2640 1.391 . S
C2641 C2645 1.376 . S
C2642 C2640 1.394 . S
C2642 C2643 1.369 . S
C2642 C2646 1.531 . S
C2643 C2642 1.369 . S
C2643 C2644 1.410 . S
C2643 C2651 1.503 . S
C2644 C2643 1.410 . S
C2644 C2645 1.392 . S
C2644 C2647 1.511 . S
C2645 C2641 1.376 . S
C2645 C2644 1.392 . S
C2645 H2657 0.929 . S
C2646 C2642 1.531 . S
C2646 H2658 0.960 . S
C2646 H2659 0.962 . S
C2646 H2660 0.960 . S
C2647 C2644 1.511 . S
C2647 H2661 0.961 . S
C2647 H2662 0.961 . S
C2647 H2663 0.961 . S
C2648 C2649 1.370 . S
C2648 C2650 1.363 . S
C2648 H2664 0.931 . S
C2649 C2648 1.370 . S
C2649 C2653 1.408 . S
C2650 C2648 1.363 . S
C2650 C2651 1.370 . S
C2650 C2654 1.524 . S
C2651 C2643 1.503 . S
C2651 C2650 1.370 . S
C2651 C2652 1.403 . S
C2652 C2651 1.403 . S
C2652 C2653 1.404 . S
C2652 C2655 1.539 . S
C2653 C2649 1.408 . S
C2653 C2652 1.404 . S
C2653 H2665 0.930 . S
C2654 C2650 1.524 . S
C2654 H2666 0.956 . S
C2654 H2667 0.961 . S
C2654 H2668 0.961 . S
C2655 C2652 1.539 . S
C2655 H2669 0.958 . S
C2655 H2670 0.961 . S
C2655 H2671 0.960 . S
H2656 C2640 0.931 . S
H2657 C2645 0.929 . S
H2658 C2646 0.960 . S
H2659 C2646 0.962 . S
H2660 C2646 0.960 . S
H2661 C2647 0.961 . S
H2662 C2647 0.961 . S
H2663 C2647 0.961 . S
H2664 C2648 0.931 . S
H2665 C2653 0.930 . S
H2666 C2654 0.956 . S
H2667 C2654 0.961 . S
H2668 C2654 0.961 . S
H2669 C2655 0.958 . S
H2670 C2655 0.961 . S
H2671 C2655 0.960 . S
C2672 C2673 1.391 . S
C2672 C2674 1.394 . S
C2672 H2688 0.931 . S
C2673 C2672 1.391 . S
C2673 C2677 1.376 . S
C2674 C2672 1.394 . S
C2674 C2675 1.369 . S
C2674 C2678 1.531 . S
C2675 C2674 1.369 . S
C2675 C2676 1.410 . S
C2675 C2683 1.503 . S
C2676 C2675 1.410 . S
C2676 C2677 1.392 . S
C2676 C2679 1.511 . S
C2677 C2673 1.376 . S
C2677 C2676 1.392 . S
C2677 H2689 0.929 . S
C2678 C2674 1.531 . S
C2678 H2690 0.960 . S
C2678 H2691 0.962 . S
C2678 H2692 0.960 . S
C2679 C2676 1.511 . S
C2679 H2693 0.961 . S
C2679 H2694 0.961 . S
C2679 H2695 0.961 . S
C2680 C2681 1.370 . S
C2680 C2682 1.363 . S
C2680 H2696 0.931 . S
C2681 C2680 1.370 . S
C2681 C2685 1.408 . S
C2682 C2680 1.363 . S
C2682 C2683 1.370 . S
C2682 C2686 1.524 . S
C2683 C2675 1.503 . S
C2683 C2682 1.370 . S
C2683 C2684 1.403 . S
C2684 C2683 1.403 . S
C2684 C2685 1.404 . S
C2684 C2687 1.539 . S
C2685 C2681 1.408 . S
C2685 C2684 1.404 . S
C2685 H2697 0.930 . S
C2686 C2682 1.524 . S
C2686 H2698 0.956 . S
C2686 H2699 0.961 . S
C2686 H2700 0.961 . S
C2687 C2684 1.539 . S
C2687 H2701 0.958 . S
C2687 H2702 0.961 . S
C2687 H2703 0.960 . S
H2688 C2672 0.931 . S
H2689 C2677 0.929 . S
H2690 C2678 0.960 . S
H2691 C2678 0.962 . S
H2692 C2678 0.960 . S
H2693 C2679 0.961 . S
H2694 C2679 0.961 . S
H2695 C2679 0.961 . S
H2696 C2680 0.931 . S
H2697 C2685 0.930 . S
H2698 C2686 0.956 . S
H2699 C2686 0.961 . S
H2700 C2686 0.961 . S
H2701 C2687 0.958 . S
H2702 C2687 0.961 . S
H2703 C2687 0.960 . S
C2704 C2705 1.391 . S
C2704 C2706 1.394 . S
C2704 H2720 0.931 . S
C2705 C2704 1.391 . S
C2705 C2709 1.376 . S
C2706 C2704 1.394 . S
C2706 C2707 1.369 . S
C2706 C2710 1.531 1_455 S
C2707 C2706 1.369 . S
C2707 C2708 1.410 . S
C2707 C2715 1.503 . S
C2708 C2707 1.410 . S
C2708 C2709 1.392 . S
C2708 C2711 1.511 . S
C2709 C2705 1.376 . S
C2709 C2708 1.392 . S
C2709 H2721 0.929 . S
C2710 C2706 1.531 1_655 S
C2710 H2722 0.973 . S
C2710 H2723 0.962 . S
C2710 H2724 0.960 . S
C2711 C2708 1.511 . S
C2711 H2725 0.961 . S
C2711 H2726 0.961 . S
C2711 H2727 0.961 . S
C2712 C2713 1.370 . S
C2712 C2714 1.363 . S
C2712 H2728 0.931 . S
C2713 C2712 1.370 . S
C2713 C2717 1.408 . S
C2714 C2712 1.363 . S
C2714 C2715 1.370 . S
C2714 C2718 1.524 . S
C2715 C2707 1.503 . S
C2715 C2714 1.370 . S
C2715 C2716 1.403 . S
C2716 C2715 1.403 . S
C2716 C2717 1.404 . S
C2716 C2719 1.539 . S
C2717 C2713 1.408 . S
C2717 C2716 1.404 . S
C2717 H2729 0.930 . S
C2718 C2714 1.524 . S
C2718 H2730 0.956 . S
C2718 H2731 0.961 . S
C2718 H2732 0.961 . S
C2719 C2716 1.539 . S
C2719 H2733 0.958 . S
C2719 H2734 0.961 . S
C2719 H2735 0.960 . S
H2720 C2704 0.931 . S
H2721 C2709 0.929 . S
H2722 C2710 0.973 . S
H2723 C2710 0.962 . S
H2724 C2710 0.960 . S
H2725 C2711 0.961 . S
H2726 C2711 0.961 . S
H2727 C2711 0.961 . S
H2728 C2712 0.931 . S
H2729 C2717 0.930 . S
H2730 C2718 0.956 . S
H2731 C2718 0.961 . S
H2732 C2718 0.961 . S
H2733 C2719 0.958 . S
H2734 C2719 0.961 . S
H2735 C2719 0.960 . S
C2736 C2737 1.391 . S
C2736 C2738 1.394 . S
C2736 H2752 0.931 . S
C2737 C2736 1.391 . S
C2737 C2741 1.376 . S
C2738 C2736 1.394 . S
C2738 C2739 1.369 . S
C2738 C2742 1.531 . S
C2739 C2738 1.369 . S
C2739 C2740 1.410 . S
C2739 C2747 1.503 . S
C2740 C2739 1.410 . S
C2740 C2741 1.392 . S
C2740 C2743 1.511 . S
C2741 C2737 1.376 . S
C2741 C2740 1.392 . S
C2741 H2753 0.929 . S
C2742 C2738 1.531 . S
C2742 H2754 0.960 . S
C2742 H2755 0.962 . S
C2742 H2756 0.960 . S
C2743 C2740 1.511 . S
C2743 H2757 0.961 . S
C2743 H2758 0.961 . S
C2743 H2759 0.961 . S
C2744 C2745 1.370 . S
C2744 C2746 1.363 . S
C2744 H2760 0.931 . S
C2745 C2744 1.370 . S
C2745 C2749 1.408 . S
C2746 C2744 1.363 . S
C2746 C2747 1.370 . S
C2746 C2750 1.524 . S
C2747 C2739 1.503 . S
C2747 C2746 1.370 . S
C2747 C2748 1.403 . S
C2748 C2747 1.403 . S
C2748 C2749 1.404 . S
C2748 C2751 1.539 . S
C2749 C2745 1.408 . S
C2749 C2748 1.404 . S
C2749 H2761 0.930 . S
C2750 C2746 1.524 . S
C2750 H2762 0.956 . S
C2750 H2763 0.961 . S
C2750 H2764 0.961 . S
C2751 C2748 1.539 . S
C2751 H2765 0.958 . S
C2751 H2766 0.961 . S
C2751 H2767 0.960 . S
H2752 C2736 0.931 . S
H2753 C2741 0.929 . S
H2754 C2742 0.960 . S
H2755 C2742 0.962 . S
H2756 C2742 0.960 . S
H2757 C2743 0.961 . S
H2758 C2743 0.961 . S
H2759 C2743 0.961 . S
H2760 C2744 0.931 . S
H2761 C2749 0.930 . S
H2762 C2750 0.956 . S
H2763 C2750 0.961 . S
H2764 C2750 0.961 . S
H2765 C2751 0.958 . S
H2766 C2751 0.961 . S
H2767 C2751 0.960 . S
C2768 C2769 1.391 . S
C2768 C2770 1.394 . S
C2768 H2784 0.931 . S
C2769 C2768 1.391 . S
C2769 C2773 1.376 . S
C2770 C2768 1.394 . S
C2770 C2771 1.369 . S
C2770 C2774 1.531 . S
C2771 C2770 1.369 . S
C2771 C2772 1.410 . S
C2771 C2779 1.503 . S
C2772 C2771 1.410 . S
C2772 C2773 1.392 . S
C2772 C2775 1.511 . S
C2773 C2769 1.376 . S
C2773 C2772 1.392 . S
C2773 H2785 0.929 . S
C2774 C2770 1.531 . S
C2774 H2786 0.960 . S
C2774 H2787 0.962 . S
C2774 H2788 0.960 . S
C2775 C2772 1.511 . S
C2775 H2789 0.961 . S
C2775 H2790 0.961 . S
C2775 H2791 0.961 . S
C2776 C2777 1.370 . S
C2776 C2778 1.363 . S
C2776 H2792 0.931 . S
C2777 C2776 1.370 . S
C2777 C2781 1.408 . S
C2778 C2776 1.363 . S
C2778 C2779 1.370 . S
C2778 C2782 1.524 . S
C2779 C2771 1.503 . S
C2779 C2778 1.370 . S
C2779 C2780 1.403 . S
C2780 C2779 1.403 . S
C2780 C2781 1.404 . S
C2780 C2783 1.539 . S
C2781 C2777 1.408 . S
C2781 C2780 1.404 . S
C2781 H2793 0.930 . S
C2782 C2778 1.524 . S
C2782 H2794 0.956 . S
C2782 H2795 0.961 . S
C2782 H2796 0.961 . S
C2783 C2780 1.539 . S
C2783 H2797 0.958 . S
C2783 H2798 0.961 . S
C2783 H2799 0.960 . S
H2784 C2768 0.931 . S
H2785 C2773 0.929 . S
H2786 C2774 0.960 . S
H2787 C2774 0.962 . S
H2788 C2774 0.960 . S
H2789 C2775 0.961 . S
H2790 C2775 0.961 . S
H2791 C2775 0.961 . S
H2792 C2776 0.931 . S
H2793 C2781 0.930 . S
H2794 C2782 0.956 . S
H2795 C2782 0.961 . S
H2796 C2782 0.961 . S
H2797 C2783 0.958 . S
H2798 C2783 0.961 . S
H2799 C2783 0.960 . S
C2800 C2801 1.391 . S
C2800 C2802 1.394 . S
C2800 H2816 0.931 . S
C2801 C2800 1.391 . S
C2801 C2805 1.376 . S
C2802 C2800 1.394 . S
C2802 C2803 1.369 . S
C2802 C2806 1.531 . S
C2803 C2802 1.369 . S
C2803 C2804 1.410 . S
C2803 C2811 1.503 . S
C2804 C2803 1.410 . S
C2804 C2805 1.392 . S
C2804 C2807 1.511 . S
C2805 C2801 1.376 . S
C2805 C2804 1.392 . S
C2805 H2817 0.929 . S
C2806 C2802 1.531 . S
C2806 H2818 0.960 . S
C2806 H2819 0.962 . S
C2806 H2820 0.960 . S
C2807 C2804 1.511 . S
C2807 H2821 0.961 . S
C2807 H2822 0.961 . S
C2807 H2823 0.961 . S
C2808 C2809 1.370 . S
C2808 C2810 1.363 . S
C2808 H2824 0.931 . S
C2809 C2808 1.370 . S
C2809 C2813 1.408 . S
C2810 C2808 1.363 . S
C2810 C2811 1.370 . S
C2810 C2814 1.524 . S
C2811 C2803 1.503 . S
C2811 C2810 1.370 . S
C2811 C2812 1.403 . S
C2812 C2811 1.403 . S
C2812 C2813 1.404 . S
C2812 C2815 1.539 . S
C2813 C2809 1.408 . S
C2813 C2812 1.404 . S
C2813 H2825 0.930 . S
C2814 C2810 1.524 . S
C2814 H2826 0.956 . S
C2814 H2827 0.961 . S
C2814 H2828 0.961 . S
C2815 C2812 1.539 . S
C2815 H2829 0.958 . S
C2815 H2830 0.961 . S
C2815 H2831 0.960 . S
H2816 C2800 0.931 . S
H2817 C2805 0.929 . S
H2818 C2806 0.960 . S
H2819 C2806 0.962 . S
H2820 C2806 0.960 . S
H2821 C2807 0.961 . S
H2822 C2807 0.961 . S
H2823 C2807 0.961 . S
H2824 C2808 0.931 . S
H2825 C2813 0.930 . S
H2826 C2814 0.956 . S
H2827 C2814 0.961 . S
H2828 C2814 0.961 . S
H2829 C2815 0.958 . S
H2830 C2815 0.961 . S
H2831 C2815 0.960 . S
C2832 C2833 1.391 . S
C2832 C2834 1.394 . S
C2832 H2848 0.931 . S
C2833 C2832 1.391 . S
C2833 C2837 1.376 . S
C2834 C2832 1.394 . S
C2834 C2835 1.369 . S
C2834 C2838 1.531 . S
C2835 C2834 1.369 . S
C2835 C2836 1.410 . S
C2835 C2843 1.503 . S
C2836 C2835 1.410 . S
C2836 C2837 1.392 . S
C2836 C2839 1.511 . S
C2837 C2833 1.376 . S
C2837 C2836 1.392 . S
C2837 H2849 0.929 . S
C2838 C2834 1.531 . S
C2838 H2850 0.960 . S
C2838 H2851 0.962 . S
C2838 H2852 0.960 . S
C2839 C2836 1.511 . S
C2839 H2853 0.961 . S
C2839 H2854 0.961 . S
C2839 H2855 0.961 . S
C2840 C2841 1.370 . S
C2840 C2842 1.363 . S
C2840 H2856 0.931 . S
C2841 C2840 1.370 . S
C2841 C2845 1.408 . S
C2842 C2840 1.363 . S
C2842 C2843 1.370 . S
C2842 C2846 1.524 . S
C2843 C2835 1.503 . S
C2843 C2842 1.370 . S
C2843 C2844 1.403 . S
C2844 C2843 1.403 . S
C2844 C2845 1.404 . S
C2844 C2847 1.539 . S
C2845 C2841 1.408 . S
C2845 C2844 1.404 . S
C2845 H2857 0.930 . S
C2846 C2842 1.524 . S
C2846 H2858 0.956 . S
C2846 H2859 0.961 . S
C2846 H2860 0.961 . S
C2847 C2844 1.539 . S
C2847 H2861 0.958 . S
C2847 H2862 0.961 . S
C2847 H2863 0.960 . S
H2848 C2832 0.931 . S
H2849 C2837 0.929 . S
H2850 C2838 0.960 . S
H2851 C2838 0.962 . S
H2852 C2838 0.960 . S
H2853 C2839 0.961 . S
H2854 C2839 0.961 . S
H2855 C2839 0.961 . S
H2856 C2840 0.931 . S
H2857 C2845 0.930 . S
H2858 C2846 0.956 . S
H2859 C2846 0.961 . S
H2860 C2846 0.961 . S
H2861 C2847 0.958 . S
H2862 C2847 0.961 . S
H2863 C2847 0.960 . S
C2864 C2865 1.391 . S
C2864 C2866 1.394 . S
C2864 H2880 0.931 . S
C2865 C2864 1.391 . S
C2865 C2869 1.376 . S
C2866 C2864 1.394 . S
C2866 C2867 1.369 . S
C2866 C2870 1.531 . S
C2867 C2866 1.369 . S
C2867 C2868 1.410 . S
C2867 C2875 1.503 . S
C2868 C2867 1.410 . S
C2868 C2869 1.392 . S
C2868 C2871 1.511 . S
C2869 C2865 1.376 . S
C2869 C2868 1.392 . S
C2869 H2881 0.929 . S
C2870 C2866 1.531 . S
C2870 H2882 0.960 . S
C2870 H2883 0.962 . S
C2870 H2884 0.960 . S
C2871 C2868 1.511 . S
C2871 H2885 0.961 . S
C2871 H2886 0.961 . S
C2871 H2887 0.961 . S
C2872 C2873 1.370 . S
C2872 C2874 1.363 . S
C2872 H2888 0.931 . S
C2873 C2872 1.370 . S
C2873 C2877 1.408 . S
C2874 C2872 1.363 . S
C2874 C2875 1.370 . S
C2874 C2878 1.524 . S
C2875 C2867 1.503 . S
C2875 C2874 1.370 . S
C2875 C2876 1.403 . S
C2876 C2875 1.403 . S
C2876 C2877 1.404 . S
C2876 C2879 1.539 . S
C2877 C2873 1.408 . S
C2877 C2876 1.404 . S
C2877 H2889 0.930 . S
C2878 C2874 1.524 . S
C2878 H2890 0.956 . S
C2878 H2891 0.961 . S
C2878 H2892 0.961 . S
C2879 C2876 1.539 . S
C2879 H2893 0.958 . S
C2879 H2894 0.961 . S
C2879 H2895 0.960 . S
H2880 C2864 0.931 . S
H2881 C2869 0.929 . S
H2882 C2870 0.960 . S
H2883 C2870 0.962 . S
H2884 C2870 0.960 . S
H2885 C2871 0.961 . S
H2886 C2871 0.961 . S
H2887 C2871 0.961 . S
H2888 C2872 0.931 . S
H2889 C2877 0.930 . S
H2890 C2878 0.956 . S
H2891 C2878 0.961 . S
H2892 C2878 0.961 . S
H2893 C2879 0.958 . S
H2894 C2879 0.961 . S
H2895 C2879 0.960 . S
C2896 C2897 1.391 . S
C2896 C2898 1.394 . S
C2896 H2912 0.931 . S
C2897 C2896 1.391 . S
C2897 C2901 1.376 . S
C2898 C2896 1.394 . S
C2898 C2899 1.369 . S
C2898 C2902 1.531 . S
C2899 C2898 1.369 . S
C2899 C2900 1.410 . S
C2899 C2907 1.503 . S
C2900 C2899 1.410 . S
C2900 C2901 1.392 . S
C2900 C2903 1.511 . S
C2901 C2897 1.376 . S
C2901 C2900 1.392 . S
C2901 H2913 0.929 . S
C2902 C2898 1.531 . S
C2902 H2914 0.960 . S
C2902 H2915 0.962 . S
C2902 H2916 0.960 . S
C2903 C2900 1.511 . S
C2903 H2917 0.961 . S
C2903 H2918 0.961 . S
C2903 H2919 0.961 . S
C2904 C2905 1.370 . S
C2904 C2906 1.363 . S
C2904 H2920 0.931 . S
C2905 C2904 1.370 . S
C2905 C2909 1.408 . S
C2906 C2904 1.363 . S
C2906 C2907 1.370 . S
C2906 C2910 1.524 . S
C2907 C2899 1.503 . S
C2907 C2906 1.370 . S
C2907 C2908 1.403 . S
C2908 C2907 1.403 . S
C2908 C2909 1.404 . S
C2908 C2911 1.539 . S
C2909 C2905 1.408 . S
C2909 C2908 1.404 . S
C2909 H2921 0.930 . S
C2910 C2906 1.524 . S
C2910 H2922 0.956 . S
C2910 H2923 0.961 . S
C2910 H2924 0.961 . S
C2911 C2908 1.539 . S
C2911 H2925 0.958 . S
C2911 H2926 0.961 . S
C2911 H2927 0.960 . S
H2912 C2896 0.931 . S
H2913 C2901 0.929 . S
H2914 C2902 0.960 . S
H2915 C2902 0.962 . S
H2916 C2902 0.960 . S
H2917 C2903 0.961 . S
H2918 C2903 0.961 . S
H2919 C2903 0.961 . S
H2920 C2904 0.931 . S
H2921 C2909 0.930 . S
H2922 C2910 0.956 . S
H2923 C2910 0.961 . S
H2924 C2910 0.961 . S
H2925 C2911 0.958 . S
H2926 C2911 0.961 . S
H2927 C2911 0.960 . S
C2928 C2929 1.391 . S
C2928 C2930 1.394 . S
C2928 H2944 0.931 . S
C2929 C2928 1.391 . S
C2929 C2933 1.376 . S
C2930 C2928 1.394 . S
C2930 C2931 1.369 . S
C2930 C2934 1.531 . S
C2931 C2930 1.369 . S
C2931 C2932 1.410 . S
C2931 C2939 1.503 . S
C2932 C2931 1.410 . S
C2932 C2933 1.392 . S
C2932 C2935 1.511 . S
C2933 C2929 1.376 . S
C2933 C2932 1.392 . S
C2933 H2945 0.929 . S
C2934 C2930 1.531 . S
C2934 H2946 0.960 . S
C2934 H2947 0.962 . S
C2934 H2948 0.960 . S
C2935 C2932 1.511 . S
C2935 H2949 0.961 . S
C2935 H2950 0.961 . S
C2935 H2951 0.961 . S
C2936 C2937 1.370 . S
C2936 C2938 1.363 . S
C2936 H2952 0.931 . S
C2937 C2936 1.370 . S
C2937 C2941 1.408 . S
C2938 C2936 1.363 . S
C2938 C2939 1.370 . S
C2938 C2942 1.524 . S
C2939 C2931 1.503 . S
C2939 C2938 1.370 . S
C2939 C2940 1.403 . S
C2940 C2939 1.403 . S
C2940 C2941 1.404 . S
C2940 C2943 1.539 . S
C2941 C2937 1.408 . S
C2941 C2940 1.404 . S
C2941 H2953 0.930 . S
C2942 C2938 1.524 . S
C2942 H2954 0.956 . S
C2942 H2955 0.961 . S
C2942 H2956 0.961 . S
C2943 C2940 1.539 . S
C2943 H2957 0.958 . S
C2943 H2958 0.961 . S
C2943 H2959 0.960 . S
H2944 C2928 0.931 . S
H2945 C2933 0.929 . S
H2946 C2934 0.960 . S
H2947 C2934 0.962 . S
H2948 C2934 0.960 . S
H2949 C2935 0.961 . S
H2950 C2935 0.961 . S
H2951 C2935 0.961 . S
H2952 C2936 0.931 . S
H2953 C2941 0.930 . S
H2954 C2942 0.956 . S
H2955 C2942 0.961 . S
H2956 C2942 0.961 . S
H2957 C2943 0.958 . S
H2958 C2943 0.961 . S
H2959 C2943 0.960 . S
C2960 C2961 1.391 . S
C2960 C2962 1.394 . S
C2960 H2976 0.931 . S
C2961 C2960 1.391 . S
C2961 C2965 1.376 . S
C2962 C2960 1.394 . S
C2962 C2963 1.369 . S
C2962 C2966 1.531 . S
C2963 C2962 1.369 . S
C2963 C2964 1.410 . S
C2963 C2971 1.503 . S
C2964 C2963 1.410 . S
C2964 C2965 1.392 . S
C2964 C2967 1.511 . S
C2965 C2961 1.376 . S
C2965 C2964 1.392 . S
C2965 H2977 0.929 . S
C2966 C2962 1.531 . S
C2966 H2978 0.960 . S
C2966 H2979 0.962 . S
C2966 H2980 0.960 . S
C2967 C2964 1.511 . S
C2967 H2981 0.961 . S
C2967 H2982 0.961 . S
C2967 H2983 0.961 . S
C2968 C2969 1.370 . S
C2968 C2970 1.363 . S
C2968 H2984 0.931 . S
C2969 C2968 1.370 . S
C2969 C2973 1.408 . S
C2970 C2968 1.363 . S
C2970 C2971 1.370 . S
C2970 C2974 1.524 . S
C2971 C2963 1.503 . S
C2971 C2970 1.370 . S
C2971 C2972 1.403 . S
C2972 C2971 1.403 . S
C2972 C2973 1.404 . S
C2972 C2975 1.539 . S
C2973 C2969 1.408 . S
C2973 C2972 1.404 . S
C2973 H2985 0.930 . S
C2974 C2970 1.524 . S
C2974 H2986 0.956 . S
C2974 H2987 0.961 . S
C2974 H2988 0.961 . S
C2975 C2972 1.539 . S
C2975 H2989 0.958 . S
C2975 H2990 0.961 . S
C2975 H2991 0.960 . S
H2976 C2960 0.931 . S
H2977 C2965 0.929 . S
H2978 C2966 0.960 . S
H2979 C2966 0.962 . S
H2980 C2966 0.960 . S
H2981 C2967 0.961 . S
H2982 C2967 0.961 . S
H2983 C2967 0.961 . S
H2984 C2968 0.931 . S
H2985 C2973 0.930 . S
H2986 C2974 0.956 . S
H2987 C2974 0.961 . S
H2988 C2974 0.961 . S
H2989 C2975 0.958 . S
H2990 C2975 0.961 . S
H2991 C2975 0.960 . S
C2992 C2993 1.391 . S
C2992 C2994 1.394 . S
C2992 H3008 0.931 . S
C2993 C2992 1.391 . S
C2993 C2997 1.376 . S
C2994 C2992 1.394 . S
C2994 C2995 1.369 . S
C2994 C2998 1.531 . S
C2995 C2994 1.369 . S
C2995 C2996 1.410 . S
C2995 C3003 1.503 . S
C2996 C2995 1.410 . S
C2996 C2997 1.392 . S
C2996 C2999 1.511 . S
C2997 C2993 1.376 . S
C2997 C2996 1.392 . S
C2997 H3009 0.929 . S
C2998 C2994 1.531 . S
C2998 H3010 0.960 . S
C2998 H3011 0.962 . S
C2998 H3012 0.960 . S
C2999 C2996 1.511 . S
C2999 H3013 0.961 . S
C2999 H3014 0.961 . S
C2999 H3015 0.961 . S
C3000 C3001 1.370 . S
C3000 C3002 1.363 . S
C3000 H3016 0.931 . S
C3001 C3000 1.370 . S
C3001 C3005 1.408 . S
C3002 C3000 1.363 . S
C3002 C3003 1.370 . S
C3002 C3006 1.524 . S
C3003 C2995 1.503 . S
C3003 C3002 1.370 . S
C3003 C3004 1.403 . S
C3004 C3003 1.403 . S
C3004 C3005 1.404 . S
C3004 C3007 1.539 . S
C3005 C3001 1.408 . S
C3005 C3004 1.404 . S
C3005 H3017 0.930 . S
C3006 C3002 1.524 . S
C3006 H3018 0.956 . S
C3006 H3019 0.961 . S
C3006 H3020 0.961 . S
C3007 C3004 1.539 . S
C3007 H3021 0.958 . S
C3007 H3022 0.961 . S
C3007 H3023 0.960 . S
H3008 C2992 0.931 . S
H3009 C2997 0.929 . S
H3010 C2998 0.960 . S
H3011 C2998 0.962 . S
H3012 C2998 0.960 . S
H3013 C2999 0.961 . S
H3014 C2999 0.961 . S
H3015 C2999 0.961 . S
H3016 C3000 0.931 . S
H3017 C3005 0.930 . S
H3018 C3006 0.956 . S
H3019 C3006 0.961 . S
H3020 C3006 0.961 . S
H3021 C3007 0.958 . S
H3022 C3007 0.961 . S
H3023 C3007 0.960 . S
C3024 C3025 1.391 . S
C3024 C3026 1.394 . S
C3024 H3040 0.931 . S
C3025 C3024 1.391 . S
C3025 C3029 1.376 . S
C3026 C3024 1.394 . S
C3026 C3027 1.369 . S
C3026 C3030 1.531 . S
C3027 C3026 1.369 . S
C3027 C3028 1.410 . S
C3027 C3035 1.503 . S
C3028 C3027 1.410 . S
C3028 C3029 1.392 . S
C3028 C3031 1.511 . S
C3029 C3025 1.376 . S
C3029 C3028 1.392 . S
C3029 H3041 0.929 . S
C3030 C3026 1.531 . S
C3030 H3042 0.960 . S
C3030 H3043 0.962 . S
C3030 H3044 0.960 . S
C3031 C3028 1.511 . S
C3031 H3045 0.961 . S
C3031 H3046 0.961 . S
C3031 H3047 0.961 . S
C3032 C3033 1.370 . S
C3032 C3034 1.363 . S
C3032 H3048 0.931 . S
C3033 C3032 1.370 . S
C3033 C3037 1.408 . S
C3034 C3032 1.363 . S
C3034 C3035 1.370 . S
C3034 C3038 1.524 . S
C3035 C3027 1.503 . S
C3035 C3034 1.370 . S
C3035 C3036 1.403 . S
C3036 C3035 1.403 . S
C3036 C3037 1.404 . S
C3036 C3039 1.539 . S
C3037 C3033 1.408 . S
C3037 C3036 1.404 . S
C3037 H3049 0.930 . S
C3038 C3034 1.524 . S
C3038 H3050 0.956 . S
C3038 H3051 0.961 . S
C3038 H3052 0.961 . S
C3039 C3036 1.539 . S
C3039 H3053 0.958 . S
C3039 H3054 0.961 . S
C3039 H3055 0.960 . S
H3040 C3024 0.931 . S
H3041 C3029 0.929 . S
H3042 C3030 0.960 . S
H3043 C3030 0.962 . S
H3044 C3030 0.960 . S
H3045 C3031 0.961 . S
H3046 C3031 0.961 . S
H3047 C3031 0.961 . S
H3048 C3032 0.931 . S
H3049 C3037 0.930 . S
H3050 C3038 0.956 . S
H3051 C3038 0.961 . S
H3052 C3038 0.961 . S
H3053 C3039 0.958 . S
H3054 C3039 0.961 . S
H3055 C3039 0.960 . S
C3056 C3057 1.391 . S
C3056 C3058 1.394 . S
C3056 H3072 0.931 . S
C3057 C3056 1.391 . S
C3057 C3061 1.376 . S
C3058 C3056 1.394 . S
C3058 C3059 1.369 . S
C3058 C3062 1.531 . S
C3059 C3058 1.369 . S
C3059 C3060 1.410 . S
C3059 C3067 1.503 . S
C3060 C3059 1.410 . S
C3060 C3061 1.392 . S
C3060 C3063 1.511 . S
C3061 C3057 1.376 . S
C3061 C3060 1.392 . S
C3061 H3073 0.929 . S
C3062 C3058 1.531 . S
C3062 H3074 0.960 . S
C3062 H3075 0.962 . S
C3062 H3076 0.960 . S
C3063 C3060 1.511 . S
C3063 H3077 0.961 . S
C3063 H3078 0.961 . S
C3063 H3079 0.961 . S
C3064 C3065 1.370 . S
C3064 C3066 1.363 . S
C3064 H3080 0.931 . S
C3065 C3064 1.370 . S
C3065 C3069 1.408 . S
C3066 C3064 1.363 . S
C3066 C3067 1.370 . S
C3066 C3070 1.524 . S
C3067 C3059 1.503 . S
C3067 C3066 1.370 . S
C3067 C3068 1.403 . S
C3068 C3067 1.403 . S
C3068 C3069 1.404 . S
C3068 C3071 1.539 . S
C3069 C3065 1.408 . S
C3069 C3068 1.404 . S
C3069 H3081 0.930 . S
C3070 C3066 1.524 . S
C3070 H3082 0.956 . S
C3070 H3083 0.961 . S
C3070 H3084 0.961 . S
C3071 C3068 1.539 . S
C3071 H3085 0.958 . S
C3071 H3086 0.961 . S
C3071 H3087 0.960 . S
H3072 C3056 0.931 . S
H3073 C3061 0.929 . S
H3074 C3062 0.960 . S
H3075 C3062 0.962 . S
H3076 C3062 0.960 . S
H3077 C3063 0.961 . S
H3078 C3063 0.961 . S
H3079 C3063 0.961 . S
H3080 C3064 0.931 . S
H3081 C3069 0.930 . S
H3082 C3070 0.956 . S
H3083 C3070 0.961 . S
H3084 C3070 0.961 . S
H3085 C3071 0.958 . S
H3086 C3071 0.961 . S
H3087 C3071 0.960 . S
C3088 C3089 1.391 . S
C3088 C3090 1.394 1_545 S
C3088 H3104 0.931 . S
C3089 C3088 1.391 . S
C3089 C3093 1.376 . S
C3090 C3088 1.394 1_565 S
C3090 C3091 1.369 . S
C3090 C3094 1.531 . S
C3091 C3090 1.369 . S
C3091 C3092 1.410 . S
C3091 C3099 1.503 . S
C3092 C3091 1.410 . S
C3092 C3093 1.392 1_565 S
C3092 C3095 1.511 . S
C3093 C3089 1.376 . S
C3093 C3092 1.392 1_545 S
C3093 H3105 0.929 . S
C3094 C3090 1.531 . S
C3094 H3106 0.960 . S
C3094 H3107 0.962 . S
C3094 H3108 0.960 . S
C3095 C3092 1.511 . S
C3095 H3109 0.961 . S
C3095 H3110 0.961 . S
C3095 H3111 0.961 . S
C3096 C3097 1.370 . S
C3096 C3098 1.363 . S
C3096 H3112 0.931 . S
C3097 C3096 1.370 . S
C3097 C3101 1.408 . S
C3098 C3096 1.363 . S
C3098 C3099 1.370 . S
C3098 C3102 1.524 . S
C3099 C3091 1.503 . S
C3099 C3098 1.370 . S
C3099 C3100 1.403 . S
C3100 C3099 1.403 . S
C3100 C3101 1.404 . S
C3100 C3103 1.539 . S
C3101 C3097 1.408 . S
C3101 C3100 1.404 . S
C3101 H3113 0.930 . S
C3102 C3098 1.524 . S
C3102 H3114 0.946 1_565 S
C3102 H3115 0.939 1_565 S
C3102 H3116 0.961 . S
C3103 C3100 1.539 . S
C3103 H3117 0.958 . S
C3103 H3118 0.961 . S
C3103 H3119 0.960 . S
H3104 C3088 0.931 . S
H3105 C3093 0.929 . S
H3106 C3094 0.960 . S
H3107 C3094 0.962 . S
H3108 C3094 0.960 . S
H3109 C3095 0.961 . S
H3110 C3095 0.961 . S
H3111 C3095 0.961 . S
H3112 C3096 0.931 . S
H3113 C3101 0.930 . S
H3114 C3102 0.946 1_545 S
H3115 C3102 0.939 1_545 S
H3116 C3102 0.961 . S
H3117 C3103 0.958 . S
H3118 C3103 0.961 . S
H3119 C3103 0.960 . S
C3120 C3121 1.391 . S
C3120 C3122 1.394 . S
C3120 H3136 0.931 . S
C3121 C3120 1.391 . S
C3121 C3125 1.376 . S
C3122 C3120 1.394 . S
C3122 C3123 1.369 . S
C3122 C3126 1.531 . S
C3123 C3122 1.369 . S
C3123 C3124 1.410 . S
C3123 C3131 1.503 . S
C3124 C3123 1.410 . S
C3124 C3125 1.392 . S
C3124 C3127 1.511 . S
C3125 C3121 1.376 . S
C3125 C3124 1.392 . S
C3125 H3137 0.929 . S
C3126 C3122 1.531 . S
C3126 H3138 0.960 . S
C3126 H3139 0.962 . S
C3126 H3140 0.960 . S
C3127 C3124 1.511 . S
C3127 H3141 0.961 . S
C3127 H3142 0.961 . S
C3127 H3143 0.961 . S
C3128 C3129 1.370 . S
C3128 C3130 1.363 1_545 S
C3128 H3144 0.931 . S
C3129 C3128 1.370 . S
C3129 C3133 1.408 1_545 S
C3130 C3128 1.363 1_565 S
C3130 C3131 1.370 . S
C3130 C3134 1.524 . S
C3131 C3123 1.503 . S
C3131 C3130 1.370 . S
C3131 C3132 1.403 . S
C3132 C3131 1.403 . S
C3132 C3133 1.404 . S
C3132 C3135 1.539 1_554 S
C3133 C3129 1.408 1_565 S
C3133 C3132 1.404 . S
C3133 H3145 0.930 . S
C3134 C3130 1.524 . S
C3134 H3146 0.956 . S
C3134 H3147 0.961 . S
C3134 H3148 0.961 . S
C3135 C3132 1.539 1_556 S
C3135 H3149 0.958 . S
C3135 H3150 0.961 . S
C3135 H3151 0.960 . S
H3136 C3120 0.931 . S
H3137 C3125 0.929 . S
H3138 C3126 0.960 . S
H3139 C3126 0.962 . S
H3140 C3126 0.960 . S
H3141 C3127 0.961 . S
H3142 C3127 0.961 . S
H3143 C3127 0.961 . S
H3144 C3128 0.931 . S
H3145 C3133 0.930 . S
H3146 C3134 0.956 . S
H3147 C3134 0.961 . S
H3148 C3134 0.961 . S
H3149 C3135 0.958 . S
H3150 C3135 0.961 . S
H3151 C3135 0.960 . S
C3152 C3153 1.391 . S
C3152 C3154 1.394 . S
C3152 H3168 0.931 . S
C3153 C3152 1.391 . S
C3153 C3157 1.376 . S
C3154 C3152 1.394 . S
C3154 C3155 1.369 . S
C3154 C3158 1.531 . S
C3155 C3154 1.369 . S
C3155 C3156 1.410 . S
C3155 C3163 1.503 . S
C3156 C3155 1.410 . S
C3156 C3157 1.392 . S
C3156 C3159 1.511 . S
C3157 C3153 1.376 . S
C3157 C3156 1.392 . S
C3157 H3169 0.929 . S
C3158 C3154 1.531 . S
C3158 H3170 0.960 . S
C3158 H3171 0.962 . S
C3158 H3172 0.960 . S
C3159 C3156 1.511 . S
C3159 H3173 0.961 . S
C3159 H3174 0.961 . S
C3159 H3175 0.961 . S
C3160 C3161 1.370 . S
C3160 C3162 1.363 . S
C3160 H3176 0.931 . S
C3161 C3160 1.370 . S
C3161 C3165 1.408 . S
C3162 C3160 1.363 . S
C3162 C3163 1.370 . S
C3162 C3166 1.524 . S
C3163 C3155 1.503 . S
C3163 C3162 1.370 . S
C3163 C3164 1.403 . S
C3164 C3163 1.403 . S
C3164 C3165 1.404 . S
C3164 C3167 1.539 . S
C3165 C3161 1.408 . S
C3165 C3164 1.404 . S
C3165 H3177 0.930 . S
C3166 C3162 1.524 . S
C3166 H3178 0.956 . S
C3166 H3179 0.961 . S
C3166 H3180 0.961 . S
C3167 C3164 1.539 . S
C3167 H3181 0.958 . S
C3167 H3182 0.961 . S
C3167 H3183 0.960 . S
H3168 C3152 0.931 . S
H3169 C3157 0.929 . S
H3170 C3158 0.960 . S
H3171 C3158 0.962 . S
H3172 C3158 0.960 . S
H3173 C3159 0.961 . S
H3174 C3159 0.961 . S
H3175 C3159 0.961 . S
H3176 C3160 0.931 . S
H3177 C3165 0.930 . S
H3178 C3166 0.956 . S
H3179 C3166 0.961 . S
H3180 C3166 0.961 . S
H3181 C3167 0.958 . S
H3182 C3167 0.961 . S
H3183 C3167 0.960 . S
C3184 C3185 1.391 . S
C3184 C3186 1.394 . S
C3184 H3200 0.931 . S
C3185 C3184 1.391 . S
C3185 C3189 1.376 . S
C3186 C3184 1.394 . S
C3186 C3187 1.369 . S
C3186 C3190 1.531 . S
C3187 C3186 1.369 . S
C3187 C3188 1.410 . S
C3187 C3195 1.503 . S
C3188 C3187 1.410 . S
C3188 C3189 1.392 . S
C3188 C3191 1.511 . S
C3189 C3185 1.376 . S
C3189 C3188 1.392 . S
C3189 H3201 0.929 . S
C3190 C3186 1.531 . S
C3190 H3202 0.960 . S
C3190 H3203 0.962 . S
C3190 H3204 0.960 . S
C3191 C3188 1.511 . S
C3191 H3205 0.961 . S
C3191 H3206 0.961 . S
C3191 H3207 0.961 . S
C3192 C3193 1.370 . S
C3192 C3194 1.363 . S
C3192 H3208 0.931 1_554 S
C3193 C3192 1.370 . S
C3193 C3197 1.408 . S
C3194 C3192 1.363 . S
C3194 C3195 1.370 . S
C3194 C3198 1.524 1_554 S
C3195 C3187 1.503 . S
C3195 C3194 1.370 . S
C3195 C3196 1.403 . S
C3196 C3195 1.403 . S
C3196 C3197 1.404 . S
C3196 C3199 1.539 . S
C3197 C3193 1.408 . S
C3197 C3196 1.404 . S
C3197 H3209 0.930 . S
C3198 C3194 1.524 1_556 S
C3198 H3210 0.956 . S
C3198 H3211 0.961 . S
C3198 H3212 0.961 . S
C3199 C3196 1.539 . S
C3199 H3213 0.958 . S
C3199 H3214 0.961 . S
C3199 H3215 0.960 . S
H3200 C3184 0.931 . S
H3201 C3189 0.929 . S
H3202 C3190 0.960 . S
H3203 C3190 0.962 . S
H3204 C3190 0.960 . S
H3205 C3191 0.961 . S
H3206 C3191 0.961 . S
H3207 C3191 0.961 . S
H3208 C3192 0.931 1_556 S
H3209 C3197 0.930 . S
H3210 C3198 0.956 . S
H3211 C3198 0.961 . S
H3212 C3198 0.961 . S
H3213 C3199 0.958 . S
H3214 C3199 0.961 . S
H3215 C3199 0.960 . S
C3216 C3217 1.391 . S
C3216 C3218 1.394 . S
C3216 H3232 0.931 . S
C3217 C3216 1.391 . S
C3217 C3221 1.376 . S
C3218 C3216 1.394 . S
C3218 C3219 1.369 . S
C3218 C3222 1.531 . S
C3219 C3218 1.369 . S
C3219 C3220 1.410 . S
C3219 C3227 1.503 . S
C3220 C3219 1.410 . S
C3220 C3221 1.392 . S
C3220 C3223 1.511 . S
C3221 C3217 1.376 . S
C3221 C3220 1.392 . S
C3221 H3233 0.929 . S
C3222 C3218 1.531 . S
C3222 H3234 0.960 . S
C3222 H3235 0.962 . S
C3222 H3236 0.960 . S
C3223 C3220 1.511 . S
C3223 H3237 0.961 . S
C3223 H3238 0.961 . S
C3223 H3239 0.961 . S
C3224 C3225 1.370 . S
C3224 C3226 1.363 . S
C3224 H3240 0.931 . S
C3225 C3224 1.370 . S
C3225 C3229 1.408 . S
C3226 C3224 1.363 . S
C3226 C3227 1.370 . S
C3226 C3230 1.524 . S
C3227 C3219 1.503 . S
C3227 C3226 1.370 . S
C3227 C3228 1.403 . S
C3228 C3227 1.403 . S
C3228 C3229 1.404 . S
C3228 C3231 1.539 . S
C3229 C3225 1.408 . S
C3229 C3228 1.404 . S
C3229 H3241 0.930 . S
C3230 C3226 1.524 . S
C3230 H3242 0.956 . S
C3230 H3243 0.961 . S
C3230 H3244 0.961 . S
C3231 C3228 1.539 . S
C3231 H3245 0.958 . S
C3231 H3246 0.961 . S
C3231 H3247 0.960 . S
H3232 C3216 0.931 . S
H3233 C3221 0.929 . S
H3234 C3222 0.960 . S
H3235 C3222 0.962 . S
H3236 C3222 0.960 . S
H3237 C3223 0.961 . S
H3238 C3223 0.961 . S
H3239 C3223 0.961 . S
H3240 C3224 0.931 . S
H3241 C3229 0.930 . S
H3242 C3230 0.956 . S
H3243 C3230 0.961 . S
H3244 C3230 0.961 . S
H3245 C3231 0.958 . S
H3246 C3231 0.961 . S
H3247 C3231 0.960 . S
C3248 C3249 1.391 . S
C3248 C3250 1.394 . S
C3248 H3264 0.931 . S
C3249 C3248 1.391 . S
C3249 C3253 1.376 . S
C3250 C3248 1.394 . S
C3250 C3251 1.369 1_545 S
C3250 C3254 1.531 1_545 S
C3251 C3250 1.369 1_565 S
C3251 C3252 1.410 . S
C3251 C3259 1.503 . S
C3252 C3251 1.410 . S
C3252 C3253 1.392 1_565 S
C3252 C3255 1.511 . S
C3253 C3249 1.376 . S
C3253 C3252 1.392 1_545 S
C3253 H3265 0.929 . S
C3254 C3250 1.531 1_565 S
C3254 H3266 0.960 . S
C3254 H3267 0.962 1_565 S
C3254 H3268 0.960 1_565 S
C3255 C3252 1.511 . S
C3255 H3269 0.961 . S
C3255 H3270 0.961 . S
C3255 H3271 0.961 . S
C3256 C3257 1.370 . S
C3256 C3258 1.363 . S
C3256 H3272 0.931 . S
C3257 C3256 1.370 . S
C3257 C3261 1.408 . S
C3258 C3256 1.363 . S
C3258 C3259 1.370 . S
C3258 C3262 1.524 . S
C3259 C3251 1.503 . S
C3259 C3258 1.370 . S
C3259 C3260 1.403 . S
C3260 C3259 1.403 . S
C3260 C3261 1.404 . S
C3260 C3263 1.539 . S
C3261 C3257 1.408 . S
C3261 C3260 1.404 . S
C3261 H3273 0.930 . S
C3262 C3258 1.524 . S
C3262 H3274 0.922 1_565 S
C3262 H3275 0.961 . S
C3262 H3276 0.961 . S
C3263 C3260 1.539 . S
C3263 H3277 0.958 . S
C3263 H3278 0.961 . S
C3263 H3279 0.960 . S
H3264 C3248 0.931 . S
H3265 C3253 0.929 . S
H3266 C3254 0.960 . S
H3267 C3254 0.962 1_545 S
H3268 C3254 0.960 1_545 S
H3269 C3255 0.961 . S
H3270 C3255 0.961 . S
H3271 C3255 0.961 . S
H3272 C3256 0.931 . S
H3273 C3261 0.930 . S
H3274 C3262 0.922 1_545 S
H3275 C3262 0.961 . S
H3276 C3262 0.961 . S
H3277 C3263 0.958 . S
H3278 C3263 0.961 . S
H3279 C3263 0.960 . S
C3280 C3281 1.391 . S
C3280 C3282 1.394 . S
C3280 H3296 0.931 . S
C3281 C3280 1.391 . S
C3281 C3285 1.376 . S
C3282 C3280 1.394 . S
C3282 C3283 1.369 . S
C3282 C3286 1.531 . S
C3283 C3282 1.369 . S
C3283 C3284 1.410 . S
C3283 C3291 1.503 . S
C3284 C3283 1.410 . S
C3284 C3285 1.392 . S
C3284 C3287 1.511 . S
C3285 C3281 1.376 . S
C3285 C3284 1.392 . S
C3285 H3297 0.929 . S
C3286 C3282 1.531 . S
C3286 H3298 0.960 . S
C3286 H3299 0.962 . S
C3286 H3300 0.960 . S
C3287 C3284 1.511 . S
C3287 H3301 0.961 . S
C3287 H3302 0.961 . S
C3287 H3303 0.961 . S
C3288 C3289 1.370 . S
C3288 C3290 1.363 . S
C3288 H3304 0.931 . S
C3289 C3288 1.370 . S
C3289 C3293 1.408 . S
C3290 C3288 1.363 . S
C3290 C3291 1.370 . S
C3290 C3294 1.524 . S
C3291 C3283 1.503 . S
C3291 C3290 1.370 . S
C3291 C3292 1.403 . S
C3292 C3291 1.403 . S
C3292 C3293 1.404 . S
C3292 C3295 1.539 . S
C3293 C3289 1.408 . S
C3293 C3292 1.404 . S
C3293 H3305 0.930 . S
C3294 C3290 1.524 . S
C3294 H3306 0.956 . S
C3294 H3307 0.961 . S
C3294 H3308 0.961 . S
C3295 C3292 1.539 . S
C3295 H3309 0.958 . S
C3295 H3310 0.961 . S
C3295 H3311 0.960 . S
H3296 C3280 0.931 . S
H3297 C3285 0.929 . S
H3298 C3286 0.960 . S
H3299 C3286 0.962 . S
H3300 C3286 0.960 . S
H3301 C3287 0.961 . S
H3302 C3287 0.961 . S
H3303 C3287 0.961 . S
H3304 C3288 0.931 . S
H3305 C3293 0.930 . S
H3306 C3294 0.956 . S
H3307 C3294 0.961 . S
H3308 C3294 0.961 . S
H3309 C3295 0.958 . S
H3310 C3295 0.961 . S
H3311 C3295 0.960 . S
C3312 C3313 1.391 . S
C3312 C3314 1.394 . S
C3312 H3328 0.931 . S
C3313 C3312 1.391 . S
C3313 C3317 1.376 . S
C3314 C3312 1.394 . S
C3314 C3315 1.369 . S
C3314 C3318 1.531 . S
C3315 C3314 1.369 . S
C3315 C3316 1.410 . S
C3315 C3323 1.503 . S
C3316 C3315 1.410 . S
C3316 C3317 1.392 . S
C3316 C3319 1.511 . S
C3317 C3313 1.376 . S
C3317 C3316 1.392 . S
C3317 H3329 0.929 . S
C3318 C3314 1.531 . S
C3318 H3330 0.960 . S
C3318 H3331 0.962 . S
C3318 H3332 0.960 . S
C3319 C3316 1.511 . S
C3319 H3333 0.961 . S
C3319 H3334 0.961 . S
C3319 H3335 0.961 . S
C3320 C3321 1.370 . S
C3320 C3322 1.363 . S
C3320 H3336 0.931 . S
C3321 C3320 1.370 . S
C3321 C3325 1.408 . S
C3322 C3320 1.363 . S
C3322 C3323 1.370 . S
C3322 C3326 1.524 . S
C3323 C3315 1.503 . S
C3323 C3322 1.370 . S
C3323 C3324 1.403 . S
C3324 C3323 1.403 . S
C3324 C3325 1.404 . S
C3324 C3327 1.539 . S
C3325 C3321 1.408 . S
C3325 C3324 1.404 . S
C3325 H3337 0.930 . S
C3326 C3322 1.524 . S
C3326 H3338 0.956 . S
C3326 H3339 0.961 . S
C3326 H3340 0.961 . S
C3327 C3324 1.539 . S
C3327 H3341 0.958 . S
C3327 H3342 0.961 . S
C3327 H3343 0.960 . S
H3328 C3312 0.931 . S
H3329 C3317 0.929 . S
H3330 C3318 0.960 . S
H3331 C3318 0.962 . S
H3332 C3318 0.960 . S
H3333 C3319 0.961 . S
H3334 C3319 0.961 . S
H3335 C3319 0.961 . S
H3336 C3320 0.931 . S
H3337 C3325 0.930 . S
H3338 C3326 0.956 . S
H3339 C3326 0.961 . S
H3340 C3326 0.961 . S
H3341 C3327 0.958 . S
H3342 C3327 0.961 . S
H3343 C3327 0.960 . S
C3344 C3345 1.391 . S
C3344 C3346 1.394 . S
C3344 H3360 0.931 . S
C3345 C3344 1.391 . S
C3345 C3349 1.376 . S
C3346 C3344 1.394 . S
C3346 C3347 1.369 . S
C3346 C3350 1.531 . S
C3347 C3346 1.369 . S
C3347 C3348 1.410 . S
C3347 C3355 1.503 . S
C3348 C3347 1.410 . S
C3348 C3349 1.392 . S
C3348 C3351 1.511 . S
C3349 C3345 1.376 . S
C3349 C3348 1.392 . S
C3349 H3361 0.929 . S
C3350 C3346 1.531 . S
C3350 H3362 0.960 . S
C3350 H3363 0.962 . S
C3350 H3364 0.960 . S
C3351 C3348 1.511 . S
C3351 H3365 0.961 . S
C3351 H3366 0.961 . S
C3351 H3367 0.961 . S
C3352 C3353 1.370 . S
C3352 C3354 1.363 . S
C3352 H3368 0.931 . S
C3353 C3352 1.370 . S
C3353 C3357 1.408 . S
C3354 C3352 1.363 . S
C3354 C3355 1.370 . S
C3354 C3358 1.524 . S
C3355 C3347 1.503 . S
C3355 C3354 1.370 . S
C3355 C3356 1.403 . S
C3356 C3355 1.403 . S
C3356 C3357 1.404 . S
C3356 C3359 1.539 . S
C3357 C3353 1.408 . S
C3357 C3356 1.404 . S
C3357 H3369 0.930 . S
C3358 C3354 1.524 . S
C3358 H3370 0.956 . S
C3358 H3371 0.961 . S
C3358 H3372 0.961 . S
C3359 C3356 1.539 . S
C3359 H3373 0.958 . S
C3359 H3374 0.961 . S
C3359 H3375 0.960 . S
H3360 C3344 0.931 . S
H3361 C3349 0.929 . S
H3362 C3350 0.960 . S
H3363 C3350 0.962 . S
H3364 C3350 0.960 . S
H3365 C3351 0.961 . S
H3366 C3351 0.961 . S
H3367 C3351 0.961 . S
H3368 C3352 0.931 . S
H3369 C3357 0.930 . S
H3370 C3358 0.956 . S
H3371 C3358 0.961 . S
H3372 C3358 0.961 . S
H3373 C3359 0.958 . S
H3374 C3359 0.961 . S
H3375 C3359 0.960 . S
C3376 C3377 1.391 . S
C3376 C3378 1.394 . S
C3376 H3392 0.931 . S
C3377 C3376 1.391 . S
C3377 C3381 1.376 . S
C3378 C3376 1.394 . S
C3378 C3379 1.369 . S
C3378 C3382 1.531 . S
C3379 C3378 1.369 . S
C3379 C3380 1.410 . S
C3379 C3387 1.503 . S
C3380 C3379 1.410 . S
C3380 C3381 1.392 . S
C3380 C3383 1.511 . S
C3381 C3377 1.376 . S
C3381 C3380 1.392 . S
C3381 H3393 0.929 . S
C3382 C3378 1.531 . S
C3382 H3394 0.960 . S
C3382 H3395 0.962 . S
C3382 H3396 0.960 . S
C3383 C3380 1.511 . S
C3383 H3397 0.961 . S
C3383 H3398 0.961 . S
C3383 H3399 0.961 . S
C3384 C3385 1.370 . S
C3384 C3386 1.363 . S
C3384 H3400 0.931 . S
C3385 C3384 1.370 . S
C3385 C3389 1.408 . S
C3386 C3384 1.363 . S
C3386 C3387 1.370 . S
C3386 C3390 1.524 . S
C3387 C3379 1.503 . S
C3387 C3386 1.370 . S
C3387 C3388 1.403 . S
C3388 C3387 1.403 . S
C3388 C3389 1.404 . S
C3388 C3391 1.539 . S
C3389 C3385 1.408 . S
C3389 C3388 1.404 . S
C3389 H3401 0.930 . S
C3390 C3386 1.524 . S
C3390 H3402 0.956 . S
C3390 H3403 0.961 . S
C3390 H3404 0.961 . S
C3391 C3388 1.539 . S
C3391 H3405 0.958 . S
C3391 H3406 0.961 . S
C3391 H3407 0.960 . S
H3392 C3376 0.931 . S
H3393 C3381 0.929 . S
H3394 C3382 0.960 . S
H3395 C3382 0.962 . S
H3396 C3382 0.960 . S
H3397 C3383 0.961 . S
H3398 C3383 0.961 . S
H3399 C3383 0.961 . S
H3400 C3384 0.931 . S
H3401 C3389 0.930 . S
H3402 C3390 0.956 . S
H3403 C3390 0.961 . S
H3404 C3390 0.961 . S
H3405 C3391 0.958 . S
H3406 C3391 0.961 . S
H3407 C3391 0.960 . S
C3408 C3409 1.391 . S
C3408 C3410 1.394 . S
C3408 H3424 0.931 . S
C3409 C3408 1.391 . S
C3409 C3413 1.376 . S
C3410 C3408 1.394 . S
C3410 C3411 1.369 . S
C3410 C3414 1.531 . S
C3411 C3410 1.369 . S
C3411 C3412 1.410 . S
C3411 C3419 1.503 . S
C3412 C3411 1.410 . S
C3412 C3413 1.392 . S
C3412 C3415 1.511 . S
C3413 C3409 1.376 . S
C3413 C3412 1.392 . S
C3413 H3425 0.929 . S
C3414 C3410 1.531 . S
C3414 H3426 0.960 . S
C3414 H3427 0.962 . S
C3414 H3428 0.960 . S
C3415 C3412 1.511 . S
C3415 H3429 0.961 . S
C3415 H3430 0.961 . S
C3415 H3431 0.961 . S
C3416 C3417 1.370 . S
C3416 C3418 1.363 . S
C3416 H3432 0.931 . S
C3417 C3416 1.370 . S
C3417 C3421 1.408 . S
C3418 C3416 1.363 . S
C3418 C3419 1.370 . S
C3418 C3422 1.524 . S
C3419 C3411 1.503 . S
C3419 C3418 1.370 . S
C3419 C3420 1.403 . S
C3420 C3419 1.403 . S
C3420 C3421 1.404 . S
C3420 C3423 1.539 1_556 S
C3421 C3417 1.408 . S
C3421 C3420 1.404 . S
C3421 H3433 0.930 1_556 S
C3422 C3418 1.524 . S
C3422 H3434 0.956 . S
C3422 H3435 0.961 . S
C3422 H3436 0.961 . S
C3423 C3420 1.539 1_554 S
C3423 H3437 0.958 . S
C3423 H3438 0.961 . S
C3423 H3439 0.960 1_554 S
H3424 C3408 0.931 . S
H3425 C3413 0.929 . S
H3426 C3414 0.960 . S
H3427 C3414 0.962 . S
H3428 C3414 0.960 . S
H3429 C3415 0.961 . S
H3430 C3415 0.961 . S
H3431 C3415 0.961 . S
H3432 C3416 0.931 . S
H3433 C3421 0.930 1_554 S
H3434 C3422 0.956 . S
H3435 C3422 0.961 . S
H3436 C3422 0.961 . S
H3437 C3423 0.958 . S
H3438 C3423 0.961 . S
H3439 C3423 0.960 1_556 S
C3440 C3441 1.391 . S
C3440 C3442 1.394 . S
C3440 H3456 0.931 . S
C3441 C3440 1.391 . S
C3441 C3445 1.376 . S
C3442 C3440 1.394 . S
C3442 C3443 1.369 . S
C3442 C3446 1.531 . S
C3443 C3442 1.369 . S
C3443 C3444 1.410 . S
C3443 C3451 1.503 . S
C3444 C3443 1.410 . S
C3444 C3445 1.392 . S
C3444 C3447 1.511 . S
C3445 C3441 1.376 . S
C3445 C3444 1.392 . S
C3445 H3457 0.929 . S
C3446 C3442 1.531 . S
C3446 H3458 0.960 . S
C3446 H3459 0.962 . S
C3446 H3460 0.960 . S
C3447 C3444 1.511 . S
C3447 H3461 0.961 . S
C3447 H3462 0.961 . S
C3447 H3463 0.961 . S
C3448 C3449 1.370 . S
C3448 C3450 1.363 . S
C3448 H3464 0.931 . S
C3449 C3448 1.370 . S
C3449 C3453 1.408 . S
C3450 C3448 1.363 . S
C3450 C3451 1.370 . S
C3450 C3454 1.524 . S
C3451 C3443 1.503 . S
C3451 C3450 1.370 . S
C3451 C3452 1.403 . S
C3452 C3451 1.403 . S
C3452 C3453 1.404 . S
C3452 C3455 1.539 . S
C3453 C3449 1.408 . S
C3453 C3452 1.404 . S
C3453 H3465 0.930 . S
C3454 C3450 1.524 . S
C3454 H3466 0.956 . S
C3454 H3467 0.961 . S
C3454 H3468 0.961 . S
C3455 C3452 1.539 . S
C3455 H3469 0.958 . S
C3455 H3470 0.961 . S
C3455 H3471 0.960 . S
H3456 C3440 0.931 . S
H3457 C3445 0.929 . S
H3458 C3446 0.960 . S
H3459 C3446 0.962 . S
H3460 C3446 0.960 . S
H3461 C3447 0.961 . S
H3462 C3447 0.961 . S
H3463 C3447 0.961 . S
H3464 C3448 0.931 . S
H3465 C3453 0.930 . S
H3466 C3454 0.956 . S
H3467 C3454 0.961 . S
H3468 C3454 0.961 . S
H3469 C3455 0.958 . S
H3470 C3455 0.961 . S
H3471 C3455 0.960 . S
C3472 C3473 1.391 . S
C3472 C3474 1.394 . S
C3472 H3488 0.931 . S
C3473 C3472 1.391 . S
C3473 C3477 1.376 . S
C3474 C3472 1.394 . S
C3474 C3475 1.369 . S
C3474 C3478 1.531 . S
C3475 C3474 1.369 . S
C3475 C3476 1.410 . S
C3475 C3483 1.503 . S
C3476 C3475 1.410 . S
C3476 C3477 1.392 . S
C3476 C3479 1.511 . S
C3477 C3473 1.376 . S
C3477 C3476 1.392 . S
C3477 H3489 0.929 . S
C3478 C3474 1.531 . S
C3478 H3490 0.960 . S
C3478 H3491 0.962 . S
C3478 H3492 0.960 . S
C3479 C3476 1.511 . S
C3479 H3493 0.961 . S
C3479 H3494 0.961 . S
C3479 H3495 0.961 . S
C3480 C3481 1.370 . S
C3480 C3482 1.363 . S
C3480 H3496 0.931 . S
C3481 C3480 1.370 . S
C3481 C3485 1.408 . S
C3482 C3480 1.363 . S
C3482 C3483 1.370 . S
C3482 C3486 1.524 . S
C3483 C3475 1.503 . S
C3483 C3482 1.370 . S
C3483 C3484 1.403 . S
C3484 C3483 1.403 . S
C3484 C3485 1.404 . S
C3484 C3487 1.539 . S
C3485 C3481 1.408 . S
C3485 C3484 1.404 . S
C3485 H3497 0.930 . S
C3486 C3482 1.524 . S
C3486 H3498 0.956 . S
C3486 H3499 0.961 . S
C3486 H3500 0.961 . S
C3487 C3484 1.539 . S
C3487 H3501 0.958 . S
C3487 H3502 0.961 . S
C3487 H3503 0.960 . S
H3488 C3472 0.931 . S
H3489 C3477 0.929 . S
H3490 C3478 0.960 . S
H3491 C3478 0.962 . S
H3492 C3478 0.960 . S
H3493 C3479 0.961 . S
H3494 C3479 0.961 . S
H3495 C3479 0.961 . S
H3496 C3480 0.931 . S
H3497 C3485 0.930 . S
H3498 C3486 0.956 . S
H3499 C3486 0.961 . S
H3500 C3486 0.961 . S
H3501 C3487 0.958 . S
H3502 C3487 0.961 . S
H3503 C3487 0.960 . S
C3504 C3505 1.391 . S
C3504 C3506 1.394 . S
C3504 H3520 0.931 . S
C3505 C3504 1.391 . S
C3505 C3509 1.376 . S
C3506 C3504 1.394 . S
C3506 C3507 1.369 . S
C3506 C3510 1.531 . S
C3507 C3506 1.369 . S
C3507 C3508 1.410 . S
C3507 C3515 1.503 . S
C3508 C3507 1.410 . S
C3508 C3509 1.392 . S
C3508 C3511 1.511 . S
C3509 C3505 1.376 . S
C3509 C3508 1.392 . S
C3509 H3521 0.929 . S
C3510 C3506 1.531 . S
C3510 H3522 0.960 . S
C3510 H3523 0.962 . S
C3510 H3524 0.960 . S
C3511 C3508 1.511 . S
C3511 H3525 0.961 . S
C3511 H3526 0.961 . S
C3511 H3527 0.961 . S
C3512 C3513 1.370 . S
C3512 C3514 1.363 . S
C3512 H3528 0.931 . S
C3513 C3512 1.370 . S
C3513 C3517 1.408 . S
C3514 C3512 1.363 . S
C3514 C3515 1.370 . S
C3514 C3518 1.524 . S
C3515 C3507 1.503 . S
C3515 C3514 1.370 . S
C3515 C3516 1.403 . S
C3516 C3515 1.403 . S
C3516 C3517 1.404 . S
C3516 C3519 1.539 . S
C3517 C3513 1.408 . S
C3517 C3516 1.404 . S
C3517 H3529 0.930 . S
C3518 C3514 1.524 . S
C3518 H3530 0.956 . S
C3518 H3531 0.961 . S
C3518 H3532 0.961 . S
C3519 C3516 1.539 . S
C3519 H3533 0.958 . S
C3519 H3534 0.961 . S
C3519 H3535 0.960 . S
H3520 C3504 0.931 . S
H3521 C3509 0.929 . S
H3522 C3510 0.960 . S
H3523 C3510 0.962 . S
H3524 C3510 0.960 . S
H3525 C3511 0.961 . S
H3526 C3511 0.961 . S
H3527 C3511 0.961 . S
H3528 C3512 0.931 . S
H3529 C3517 0.930 . S
H3530 C3518 0.956 . S
H3531 C3518 0.961 . S
H3532 C3518 0.961 . S
H3533 C3519 0.958 . S
H3534 C3519 0.961 . S
H3535 C3519 0.960 . S
C3536 C3537 1.391 . S
C3536 C3538 1.394 . S
C3536 H3552 0.931 . S
C3537 C3536 1.391 . S
C3537 C3541 1.376 . S
C3538 C3536 1.394 . S
C3538 C3539 1.369 . S
C3538 C3542 1.531 . S
C3539 C3538 1.369 . S
C3539 C3540 1.410 . S
C3539 C3547 1.503 . S
C3540 C3539 1.410 . S
C3540 C3541 1.392 . S
C3540 C3543 1.511 . S
C3541 C3537 1.376 . S
C3541 C3540 1.392 . S
C3541 H3553 0.929 . S
C3542 C3538 1.531 . S
C3542 H3554 0.960 . S
C3542 H3555 0.962 . S
C3542 H3556 0.960 . S
C3543 C3540 1.511 . S
C3543 H3557 0.961 . S
C3543 H3558 0.961 . S
C3543 H3559 0.961 . S
C3544 C3545 1.370 . S
C3544 C3546 1.363 . S
C3544 H3560 0.931 . S
C3545 C3544 1.370 . S
C3545 C3549 1.408 . S
C3546 C3544 1.363 . S
C3546 C3547 1.370 . S
C3546 C3550 1.524 . S
C3547 C3539 1.503 . S
C3547 C3546 1.370 . S
C3547 C3548 1.403 . S
C3548 C3547 1.403 . S
C3548 C3549 1.404 . S
C3548 C3551 1.539 . S
C3549 C3545 1.408 . S
C3549 C3548 1.404 . S
C3549 H3561 0.930 . S
C3550 C3546 1.524 . S
C3550 H3562 0.956 . S
C3550 H3563 0.961 . S
C3550 H3564 0.961 . S
C3551 C3548 1.539 . S
C3551 H3565 0.958 . S
C3551 H3566 0.961 . S
C3551 H3567 0.960 . S
H3552 C3536 0.931 . S
H3553 C3541 0.929 . S
H3554 C3542 0.960 . S
H3555 C3542 0.962 . S
H3556 C3542 0.960 . S
H3557 C3543 0.961 . S
H3558 C3543 0.961 . S
H3559 C3543 0.961 . S
H3560 C3544 0.931 . S
H3561 C3549 0.930 . S
H3562 C3550 0.956 . S
H3563 C3550 0.961 . S
H3564 C3550 0.961 . S
H3565 C3551 0.958 . S
H3566 C3551 0.961 . S
H3567 C3551 0.960 . S
C3568 C3569 1.391 . S
C3568 C3570 1.394 . S
C3568 H3584 0.931 . S
C3569 C3568 1.391 . S
C3569 C3573 1.376 . S
C3570 C3568 1.394 . S
C3570 C3571 1.369 . S
C3570 C3574 1.531 . S
C3571 C3570 1.369 . S
C3571 C3572 1.410 . S
C3571 C3579 1.503 . S
C3572 C3571 1.410 . S
C3572 C3573 1.392 . S
C3572 C3575 1.511 . S
C3573 C3569 1.376 . S
C3573 C3572 1.392 . S
C3573 H3585 0.929 . S
C3574 C3570 1.531 . S
C3574 H3586 0.960 . S
C3574 H3587 0.962 . S
C3574 H3588 0.960 . S
C3575 C3572 1.511 . S
C3575 H3589 0.961 . S
C3575 H3590 0.961 . S
C3575 H3591 0.961 . S
C3576 C3577 1.370 . S
C3576 C3578 1.363 . S
C3576 H3592 0.931 . S
C3577 C3576 1.370 . S
C3577 C3581 1.408 . S
C3578 C3576 1.363 . S
C3578 C3579 1.370 . S
C3578 C3582 1.524 . S
C3579 C3571 1.503 . S
C3579 C3578 1.370 . S
C3579 C3580 1.403 . S
C3580 C3579 1.403 . S
C3580 C3581 1.404 . S
C3580 C3583 1.539 . S
C3581 C3577 1.408 . S
C3581 C3580 1.404 . S
C3581 H3593 0.930 . S
C3582 C3578 1.524 . S
C3582 H3594 0.956 . S
C3582 H3595 0.961 . S
C3582 H3596 0.961 . S
C3583 C3580 1.539 . S
C3583 H3597 0.958 . S
C3583 H3598 0.961 . S
C3583 H3599 0.960 . S
H3584 C3568 0.931 . S
H3585 C3573 0.929 . S
H3586 C3574 0.960 . S
H3587 C3574 0.962 . S
H3588 C3574 0.960 . S
H3589 C3575 0.961 . S
H3590 C3575 0.961 . S
H3591 C3575 0.961 . S
H3592 C3576 0.931 . S
H3593 C3581 0.930 . S
H3594 C3582 0.956 . S
H3595 C3582 0.961 . S
H3596 C3582 0.961 . S
H3597 C3583 0.958 . S
H3598 C3583 0.961 . S
H3599 C3583 0.960 . S
C3600 C3601 1.391 . S
C3600 C3602 1.394 . S
C3600 H3616 0.931 . S
C3601 C3600 1.391 . S
C3601 C3605 1.376 . S
C3602 C3600 1.394 . S
C3602 C3603 1.369 . S
C3602 C3606 1.531 . S
C3603 C3602 1.369 . S
C3603 C3604 1.410 . S
C3603 C3611 1.503 . S
C3604 C3603 1.410 . S
C3604 C3605 1.392 . S
C3604 C3607 1.511 1_455 S
C3605 C3601 1.376 . S
C3605 C3604 1.392 . S
C3605 H3617 0.926 . S
C3606 C3602 1.531 . S
C3606 H3618 0.960 . S
C3606 H3619 0.962 . S
C3606 H3620 0.960 . S
C3607 C3604 1.511 1_655 S
C3607 H3621 0.961 . S
C3607 H3622 0.961 . S
C3607 H3623 0.961 . S
C3608 C3609 1.370 . S
C3608 C3610 1.363 . S
C3608 H3624 0.931 . S
C3609 C3608 1.370 . S
C3609 C3613 1.408 . S
C3610 C3608 1.363 . S
C3610 C3611 1.370 . S
C3610 C3614 1.524 . S
C3611 C3603 1.503 . S
C3611 C3610 1.370 . S
C3611 C3612 1.403 . S
C3612 C3611 1.403 . S
C3612 C3613 1.404 . S
C3612 C3615 1.539 . S
C3613 C3609 1.408 . S
C3613 C3612 1.404 . S
C3613 H3625 0.930 . S
C3614 C3610 1.524 . S
C3614 H3626 0.956 . S
C3614 H3627 0.961 . S
C3614 H3628 0.961 . S
C3615 C3612 1.539 . S
C3615 H3629 0.958 . S
C3615 H3630 0.961 . S
C3615 H3631 0.960 . S
H3616 C3600 0.931 . S
H3617 C3605 0.926 . S
H3618 C3606 0.960 . S
H3619 C3606 0.962 . S
H3620 C3606 0.960 . S
H3621 C3607 0.961 . S
H3622 C3607 0.961 . S
H3623 C3607 0.961 . S
H3624 C3608 0.931 . S
H3625 C3613 0.930 . S
H3626 C3614 0.956 . S
H3627 C3614 0.961 . S
H3628 C3614 0.961 . S
H3629 C3615 0.958 . S
H3630 C3615 0.961 . S
H3631 C3615 0.960 . S
C3632 C3633 1.391 . S
C3632 C3634 1.394 . S
C3632 H3648 0.931 . S
C3633 C3632 1.391 . S
C3633 C3637 1.376 . S
C3634 C3632 1.394 . S
C3634 C3635 1.369 . S
C3634 C3638 1.531 . S
C3635 C3634 1.369 . S
C3635 C3636 1.410 . S
C3635 C3643 1.503 . S
C3636 C3635 1.410 . S
C3636 C3637 1.392 . S
C3636 C3639 1.511 . S
C3637 C3633 1.376 . S
C3637 C3636 1.392 . S
C3637 H3649 0.929 . S
C3638 C3634 1.531 . S
C3638 H3650 0.960 . S
C3638 H3651 0.962 . S
C3638 H3652 0.960 . S
C3639 C3636 1.511 . S
C3639 H3653 0.961 . S
C3639 H3654 0.961 . S
C3639 H3655 0.961 . S
C3640 C3641 1.370 . S
C3640 C3642 1.363 . S
C3640 H3656 0.931 . S
C3641 C3640 1.370 . S
C3641 C3645 1.408 . S
C3642 C3640 1.363 . S
C3642 C3643 1.370 . S
C3642 C3646 1.524 . S
C3643 C3635 1.503 . S
C3643 C3642 1.370 . S
C3643 C3644 1.403 . S
C3644 C3643 1.403 . S
C3644 C3645 1.404 . S
C3644 C3647 1.539 . S
C3645 C3641 1.408 . S
C3645 C3644 1.404 . S
C3645 H3657 0.930 . S
C3646 C3642 1.524 . S
C3646 H3658 0.956 . S
C3646 H3659 0.961 . S
C3646 H3660 0.961 . S
C3647 C3644 1.539 . S
C3647 H3661 0.958 . S
C3647 H3662 0.961 . S
C3647 H3663 0.960 . S
H3648 C3632 0.931 . S
H3649 C3637 0.929 . S
H3650 C3638 0.960 . S
H3651 C3638 0.962 . S
H3652 C3638 0.960 . S
H3653 C3639 0.961 . S
H3654 C3639 0.961 . S
H3655 C3639 0.961 . S
H3656 C3640 0.931 . S
H3657 C3645 0.930 . S
H3658 C3646 0.956 . S
H3659 C3646 0.961 . S
H3660 C3646 0.961 . S
H3661 C3647 0.958 . S
H3662 C3647 0.961 . S
H3663 C3647 0.960 . S
C3664 C3665 1.391 . S
C3664 C3666 1.394 . S
C3664 H3680 0.931 . S
C3665 C3664 1.391 . S
C3665 C3669 1.376 . S
C3666 C3664 1.394 . S
C3666 C3667 1.369 . S
C3666 C3670 1.531 . S
C3667 C3666 1.369 . S
C3667 C3668 1.410 . S
C3667 C3675 1.503 . S
C3668 C3667 1.410 . S
C3668 C3669 1.392 . S
C3668 C3671 1.511 . S
C3669 C3665 1.376 . S
C3669 C3668 1.392 . S
C3669 H3681 0.929 . S
C3670 C3666 1.531 . S
C3670 H3682 0.960 . S
C3670 H3683 0.962 . S
C3670 H3684 0.960 . S
C3671 C3668 1.511 . S
C3671 H3685 0.961 . S
C3671 H3686 0.961 . S
C3671 H3687 0.961 . S
C3672 C3673 1.370 . S
C3672 C3674 1.363 . S
C3672 H3688 0.931 . S
C3673 C3672 1.370 . S
C3673 C3677 1.408 . S
C3674 C3672 1.363 . S
C3674 C3675 1.370 . S
C3674 C3678 1.524 . S
C3675 C3667 1.503 . S
C3675 C3674 1.370 . S
C3675 C3676 1.403 . S
C3676 C3675 1.403 . S
C3676 C3677 1.404 . S
C3676 C3679 1.539 . S
C3677 C3673 1.408 . S
C3677 C3676 1.404 . S
C3677 H3689 0.930 . S
C3678 C3674 1.524 . S
C3678 H3690 0.956 . S
C3678 H3691 0.961 . S
C3678 H3692 0.961 . S
C3679 C3676 1.539 . S
C3679 H3693 0.958 . S
C3679 H3694 0.961 . S
C3679 H3695 0.960 . S
H3680 C3664 0.931 . S
H3681 C3669 0.929 . S
H3682 C3670 0.960 . S
H3683 C3670 0.962 . S
H3684 C3670 0.960 . S
H3685 C3671 0.961 . S
H3686 C3671 0.961 . S
H3687 C3671 0.961 . S
H3688 C3672 0.931 . S
H3689 C3677 0.930 . S
H3690 C3678 0.956 . S
H3691 C3678 0.961 . S
H3692 C3678 0.961 . S
H3693 C3679 0.958 . S
H3694 C3679 0.961 . S
H3695 C3679 0.960 . S
C3696 C3697 1.391 . S
C3696 C3698 1.394 . S
C3696 H3712 0.931 . S
C3697 C3696 1.391 . S
C3697 C3701 1.376 . S
C3698 C3696 1.394 . S
C3698 C3699 1.369 . S
C3698 C3702 1.531 . S
C3699 C3698 1.369 . S
C3699 C3700 1.410 . S
C3699 C3707 1.503 . S
C3700 C3699 1.410 . S
C3700 C3701 1.392 . S
C3700 C3703 1.511 . S
C3701 C3697 1.376 . S
C3701 C3700 1.392 . S
C3701 H3713 0.929 . S
C3702 C3698 1.531 . S
C3702 H3714 0.960 . S
C3702 H3715 0.962 . S
C3702 H3716 0.960 . S
C3703 C3700 1.511 . S
C3703 H3717 0.961 . S
C3703 H3718 0.961 . S
C3703 H3719 0.961 . S
C3704 C3705 1.370 . S
C3704 C3706 1.363 . S
C3704 H3720 0.931 . S
C3705 C3704 1.370 . S
C3705 C3709 1.408 . S
C3706 C3704 1.363 . S
C3706 C3707 1.370 . S
C3706 C3710 1.524 . S
C3707 C3699 1.503 . S
C3707 C3706 1.370 . S
C3707 C3708 1.403 . S
C3708 C3707 1.403 . S
C3708 C3709 1.404 . S
C3708 C3711 1.539 . S
C3709 C3705 1.408 . S
C3709 C3708 1.404 . S
C3709 H3721 0.930 . S
C3710 C3706 1.524 . S
C3710 H3722 0.956 . S
C3710 H3723 0.961 . S
C3710 H3724 0.961 . S
C3711 C3708 1.539 . S
C3711 H3725 0.958 . S
C3711 H3726 0.961 . S
C3711 H3727 0.960 . S
H3712 C3696 0.931 . S
H3713 C3701 0.929 . S
H3714 C3702 0.960 . S
H3715 C3702 0.962 . S
H3716 C3702 0.960 . S
H3717 C3703 0.961 . S
H3718 C3703 0.961 . S
H3719 C3703 0.961 . S
H3720 C3704 0.931 . S
H3721 C3709 0.930 . S
H3722 C3710 0.956 . S
H3723 C3710 0.961 . S
H3724 C3710 0.961 . S
H3725 C3711 0.958 . S
H3726 C3711 0.961 . S
H3727 C3711 0.960 . S
C3728 C3729 1.391 . S
C3728 C3730 1.394 . S
C3728 H3744 0.931 . S
C3729 C3728 1.391 . S
C3729 C3733 1.376 . S
C3730 C3728 1.394 . S
C3730 C3731 1.369 . S
C3730 C3734 1.531 . S
C3731 C3730 1.369 . S
C3731 C3732 1.410 . S
C3731 C3739 1.503 . S
C3732 C3731 1.410 . S
C3732 C3733 1.392 . S
C3732 C3735 1.511 1_455 S
C3733 C3729 1.376 . S
C3733 C3732 1.392 . S
C3733 H3745 0.957 . S
C3734 C3730 1.531 . S
C3734 H3746 0.960 . S
C3734 H3747 0.962 . S
C3734 H3748 0.960 . S
C3735 C3732 1.511 1_655 S
C3735 H3749 0.961 . S
C3735 H3750 0.961 . S
C3735 H3751 0.961 . S
C3736 C3737 1.370 . S
C3736 C3738 1.363 . S
C3736 H3752 0.931 . S
C3737 C3736 1.370 . S
C3737 C3741 1.408 . S
C3738 C3736 1.363 . S
C3738 C3739 1.370 . S
C3738 C3742 1.524 . S
C3739 C3731 1.503 . S
C3739 C3738 1.370 . S
C3739 C3740 1.403 . S
C3740 C3739 1.403 . S
C3740 C3741 1.404 . S
C3740 C3743 1.539 . S
C3741 C3737 1.408 . S
C3741 C3740 1.404 . S
C3741 H3753 0.930 . S
C3742 C3738 1.524 . S
C3742 H3754 0.956 . S
C3742 H3755 1.000 . S
C3742 H3756 0.961 . S
C3743 C3740 1.539 . S
C3743 H3757 0.958 . S
C3743 H3758 0.961 . S
C3743 H3759 0.960 . S
H3744 C3728 0.931 . S
H3745 C3733 0.957 . S
H3746 C3734 0.960 . S
H3747 C3734 0.962 . S
H3748 C3734 0.960 . S
H3749 C3735 0.961 . S
H3750 C3735 0.961 . S
H3751 C3735 0.961 . S
H3752 C3736 0.931 . S
H3753 C3741 0.930 . S
H3754 C3742 0.956 . S
H3755 C3742 1.000 . S
H3756 C3742 0.961 . S
H3757 C3743 0.958 . S
H3758 C3743 0.961 . S
H3759 C3743 0.960 . S
C3760 C3761 1.391 . S
C3760 C3762 1.394 . S
C3760 H3776 0.931 . S
C3761 C3760 1.391 . S
C3761 C3765 1.376 . S
C3762 C3760 1.394 . S
C3762 C3763 1.369 . S
C3762 C3766 1.531 . S
C3763 C3762 1.369 . S
C3763 C3764 1.410 . S
C3763 C3771 1.503 . S
C3764 C3763 1.410 . S
C3764 C3765 1.392 . S
C3764 C3767 1.511 . S
C3765 C3761 1.376 . S
C3765 C3764 1.392 . S
C3765 H3777 0.929 . S
C3766 C3762 1.531 . S
C3766 H3778 0.960 . S
C3766 H3779 0.962 . S
C3766 H3780 0.960 . S
C3767 C3764 1.511 . S
C3767 H3781 0.961 . S
C3767 H3782 0.961 . S
C3767 H3783 0.961 . S
C3768 C3769 1.370 . S
C3768 C3770 1.363 . S
C3768 H3784 0.931 . S
C3769 C3768 1.370 . S
C3769 C3773 1.408 . S
C3770 C3768 1.363 . S
C3770 C3771 1.370 . S
C3770 C3774 1.524 . S
C3771 C3763 1.503 . S
C3771 C3770 1.370 . S
C3771 C3772 1.403 . S
C3772 C3771 1.403 . S
C3772 C3773 1.404 . S
C3772 C3775 1.539 . S
C3773 C3769 1.408 . S
C3773 C3772 1.404 . S
C3773 H3785 0.930 . S
C3774 C3770 1.524 . S
C3774 H3786 0.956 . S
C3774 H3787 0.961 . S
C3774 H3788 0.961 . S
C3775 C3772 1.539 . S
C3775 H3789 0.958 . S
C3775 H3790 0.961 . S
C3775 H3791 0.960 . S
H3776 C3760 0.931 . S
H3777 C3765 0.929 . S
H3778 C3766 0.960 . S
H3779 C3766 0.962 . S
H3780 C3766 0.960 . S
H3781 C3767 0.961 . S
H3782 C3767 0.961 . S
H3783 C3767 0.961 . S
H3784 C3768 0.931 . S
H3785 C3773 0.930 . S
H3786 C3774 0.956 . S
H3787 C3774 0.961 . S
H3788 C3774 0.961 . S
H3789 C3775 0.958 . S
H3790 C3775 0.961 . S
H3791 C3775 0.960 . S
C3792 C3793 1.391 . S
C3792 C3794 1.394 . S
C3792 H3808 0.931 . S
C3793 C3792 1.391 . S
C3793 C3797 1.376 . S
C3794 C3792 1.394 . S
C3794 C3795 1.369 . S
C3794 C3798 1.531 . S
C3795 C3794 1.369 . S
C3795 C3796 1.410 . S
C3795 C3803 1.503 . S
C3796 C3795 1.410 . S
C3796 C3797 1.392 . S
C3796 C3799 1.511 . S
C3797 C3793 1.376 . S
C3797 C3796 1.392 . S
C3797 H3809 0.929 . S
C3798 C3794 1.531 . S
C3798 H3810 0.960 . S
C3798 H3811 0.962 . S
C3798 H3812 0.960 . S
C3799 C3796 1.511 . S
C3799 H3813 0.961 . S
C3799 H3814 0.961 . S
C3799 H3815 0.961 . S
C3800 C3801 1.370 . S
C3800 C3802 1.363 . S
C3800 H3816 0.931 . S
C3801 C3800 1.370 . S
C3801 C3805 1.408 . S
C3802 C3800 1.363 . S
C3802 C3803 1.370 . S
C3802 C3806 1.524 . S
C3803 C3795 1.503 . S
C3803 C3802 1.370 . S
C3803 C3804 1.403 . S
C3804 C3803 1.403 . S
C3804 C3805 1.404 . S
C3804 C3807 1.539 . S
C3805 C3801 1.408 . S
C3805 C3804 1.404 . S
C3805 H3817 0.930 . S
C3806 C3802 1.524 . S
C3806 H3818 0.956 . S
C3806 H3819 0.961 . S
C3806 H3820 0.961 . S
C3807 C3804 1.539 . S
C3807 H3821 0.958 . S
C3807 H3822 0.961 . S
C3807 H3823 0.960 . S
H3808 C3792 0.931 . S
H3809 C3797 0.929 . S
H3810 C3798 0.960 . S
H3811 C3798 0.962 . S
H3812 C3798 0.960 . S
H3813 C3799 0.961 . S
H3814 C3799 0.961 . S
H3815 C3799 0.961 . S
H3816 C3800 0.931 . S
H3817 C3805 0.930 . S
H3818 C3806 0.956 . S
H3819 C3806 0.961 . S
H3820 C3806 0.961 . S
H3821 C3807 0.958 . S
H3822 C3807 0.961 . S
H3823 C3807 0.960 . S
C3824 C3825 1.391 . S
C3824 C3826 1.394 . S
C3824 H3840 0.931 . S
C3825 C3824 1.391 . S
C3825 C3829 1.376 . S
C3826 C3824 1.394 . S
C3826 C3827 1.369 . S
C3826 C3830 1.531 1_565 S
C3827 C3826 1.369 . S
C3827 C3828 1.410 . S
C3827 C3835 1.503 . S
C3828 C3827 1.410 . S
C3828 C3829 1.392 . S
C3828 C3831 1.511 . S
C3829 C3825 1.376 . S
C3829 C3828 1.392 . S
C3829 H3841 0.929 . S
C3830 C3826 1.531 1_545 S
C3830 H3842 0.960 . S
C3830 H3843 0.962 . S
C3830 H3844 0.960 . S
C3831 C3828 1.511 . S
C3831 H3845 0.961 . S
C3831 H3846 0.961 . S
C3831 H3847 0.961 . S
C3832 C3833 1.370 . S
C3832 C3834 1.363 1_545 S
C3832 H3848 0.931 . S
C3833 C3832 1.370 . S
C3833 C3837 1.407 1_545 S
C3834 C3832 1.363 1_565 S
C3834 C3835 1.370 . S
C3834 C3838 1.524 . S
C3835 C3827 1.503 . S
C3835 C3834 1.370 . S
C3835 C3836 1.403 . S
C3836 C3835 1.403 . S
C3836 C3837 1.404 . S
C3836 C3839 1.539 . S
C3837 C3833 1.407 1_565 S
C3837 C3836 1.404 . S
C3837 H3849 0.939 1_565 S
C3838 C3834 1.524 . S
C3838 H3850 0.956 1_565 S
C3838 H3851 0.961 . S
C3838 H3852 0.961 1_565 S
C3839 C3836 1.539 . S
C3839 H3853 0.958 . S
C3839 H3854 0.961 . S
C3839 H3855 0.960 . S
H3840 C3824 0.931 . S
H3841 C3829 0.929 . S
H3842 C3830 0.960 . S
H3843 C3830 0.962 . S
H3844 C3830 0.960 . S
H3845 C3831 0.961 . S
H3846 C3831 0.961 . S
H3847 C3831 0.961 . S
H3848 C3832 0.931 . S
H3849 C3837 0.939 1_545 S
H3850 C3838 0.956 1_545 S
H3851 C3838 0.961 . S
H3852 C3838 0.961 1_545 S
H3853 C3839 0.958 . S
H3854 C3839 0.961 . S
H3855 C3839 0.960 . S
C3856 C3857 1.391 . S
C3856 C3858 1.394 . S
C3856 H3872 0.931 . S
C3857 C3856 1.391 . S
C3857 C3861 1.376 . S
C3858 C3856 1.394 . S
C3858 C3859 1.369 . S
C3858 C3862 1.531 . S
C3859 C3858 1.369 . S
C3859 C3860 1.410 . S
C3859 C3867 1.503 . S
C3860 C3859 1.410 . S
C3860 C3861 1.392 . S
C3860 C3863 1.511 . S
C3861 C3857 1.376 . S
C3861 C3860 1.392 . S
C3861 H3873 0.929 . S
C3862 C3858 1.531 . S
C3862 H3874 0.960 . S
C3862 H3875 0.962 . S
C3862 H3876 0.960 . S
C3863 C3860 1.511 . S
C3863 H3877 0.961 . S
C3863 H3878 0.961 . S
C3863 H3879 0.961 . S
C3864 C3865 1.370 . S
C3864 C3866 1.363 . S
C3864 H3880 0.931 . S
C3865 C3864 1.370 . S
C3865 C3869 1.408 . S
C3866 C3864 1.363 . S
C3866 C3867 1.370 . S
C3866 C3870 1.524 . S
C3867 C3859 1.503 . S
C3867 C3866 1.370 . S
C3867 C3868 1.403 . S
C3868 C3867 1.403 . S
C3868 C3869 1.404 . S
C3868 C3871 1.539 . S
C3869 C3865 1.408 . S
C3869 C3868 1.404 . S
C3869 H3881 0.930 . S
C3870 C3866 1.524 . S
C3870 H3882 0.956 . S
C3870 H3883 0.961 . S
C3870 H3884 0.961 . S
C3871 C3868 1.539 . S
C3871 H3885 0.958 . S
C3871 H3886 0.961 . S
C3871 H3887 0.960 . S
H3872 C3856 0.931 . S
H3873 C3861 0.929 . S
H3874 C3862 0.960 . S
H3875 C3862 0.962 . S
H3876 C3862 0.960 . S
H3877 C3863 0.961 . S
H3878 C3863 0.961 . S
H3879 C3863 0.961 . S
H3880 C3864 0.931 . S
H3881 C3869 0.930 . S
H3882 C3870 0.956 . S
H3883 C3870 0.961 . S
H3884 C3870 0.961 . S
H3885 C3871 0.958 . S
H3886 C3871 0.961 . S
H3887 C3871 0.960 . S
C3888 C3889 1.391 . S
C3888 C3890 1.394 . S
C3888 H3904 0.931 . S
C3889 C3888 1.391 . S
C3889 C3893 1.376 1_556 S
C3890 C3888 1.394 . S
C3890 C3891 1.369 . S
C3890 C3894 1.531 . S
C3891 C3890 1.369 . S
C3891 C3892 1.410 1_556 S
C3891 C3899 1.503 1_556 S
C3892 C3891 1.410 1_554 S
C3892 C3893 1.392 . S
C3892 C3895 1.511 . S
C3893 C3889 1.376 1_554 S
C3893 C3892 1.392 . S
C3893 H3905 0.929 . S
C3894 C3890 1.531 . S
C3894 H3906 0.960 . S
C3894 H3907 0.962 . S
C3894 H3908 0.960 . S
C3895 C3892 1.511 . S
C3895 H3909 0.961 . S
C3895 H3910 0.961 . S
C3895 H3911 0.961 . S
C3896 C3897 1.370 . S
C3896 C3898 1.363 . S
C3896 H3912 0.931 . S
C3897 C3896 1.370 . S
C3897 C3901 1.408 1_554 S
C3898 C3896 1.363 . S
C3898 C3899 1.370 . S
C3898 C3902 1.524 . S
C3899 C3891 1.503 1_554 S
C3899 C3898 1.370 . S
C3899 C3900 1.403 1_554 S
C3900 C3899 1.403 1_556 S
C3900 C3901 1.404 . S
C3900 C3903 1.539 . S
C3901 C3897 1.408 1_556 S
C3901 C3900 1.404 . S
C3901 H3913 0.930 . S
C3902 C3898 1.524 . S
C3902 H3914 0.956 . S
C3902 H3915 0.961 . S
C3902 H3916 0.961 . S
C3903 C3900 1.539 . S
C3903 H3917 0.958 . S
C3903 H3918 0.961 . S
C3903 H3919 0.960 . S
H3904 C3888 0.931 . S
H3905 C3893 0.929 . S
H3906 C3894 0.960 . S
H3907 C3894 0.962 . S
H3908 C3894 0.960 . S
H3909 C3895 0.961 . S
H3910 C3895 0.961 . S
H3911 C3895 0.961 . S
H3912 C3896 0.931 . S
H3913 C3901 0.930 . S
H3914 C3902 0.956 . S
H3915 C3902 0.961 . S
H3916 C3902 0.961 . S
H3917 C3903 0.958 . S
H3918 C3903 0.961 . S
H3919 C3903 0.960 . S
C3920 C3921 1.391 . S
C3920 C3922 1.394 . S
C3920 H3936 0.931 . S
C3921 C3920 1.391 . S
C3921 C3925 1.376 . S
C3922 C3920 1.394 . S
C3922 C3923 1.369 . S
C3922 C3926 1.531 . S
C3923 C3922 1.369 . S
C3923 C3924 1.410 . S
C3923 C3931 1.503 . S
C3924 C3923 1.410 . S
C3924 C3925 1.392 . S
C3924 C3927 1.511 . S
C3925 C3921 1.376 . S
C3925 C3924 1.392 . S
C3925 H3937 0.929 . S
C3926 C3922 1.531 . S
C3926 H3938 0.960 . S
C3926 H3939 0.962 . S
C3926 H3940 0.960 . S
C3927 C3924 1.511 . S
C3927 H3941 0.961 . S
C3927 H3942 0.961 . S
C3927 H3943 0.961 . S
C3928 C3929 1.370 . S
C3928 C3930 1.363 . S
C3928 H3944 0.931 . S
C3929 C3928 1.370 . S
C3929 C3933 1.408 . S
C3930 C3928 1.363 . S
C3930 C3931 1.370 . S
C3930 C3934 1.524 . S
C3931 C3923 1.503 . S
C3931 C3930 1.370 . S
C3931 C3932 1.403 . S
C3932 C3931 1.403 . S
C3932 C3933 1.404 . S
C3932 C3935 1.539 . S
C3933 C3929 1.408 . S
C3933 C3932 1.404 . S
C3933 H3945 0.930 . S
C3934 C3930 1.524 . S
C3934 H3946 0.956 . S
C3934 H3947 0.961 . S
C3934 H3948 0.961 . S
C3935 C3932 1.539 . S
C3935 H3949 0.958 . S
C3935 H3950 0.961 . S
C3935 H3951 0.960 . S
H3936 C3920 0.931 . S
H3937 C3925 0.929 . S
H3938 C3926 0.960 . S
H3939 C3926 0.962 . S
H3940 C3926 0.960 . S
H3941 C3927 0.961 . S
H3942 C3927 0.961 . S
H3943 C3927 0.961 . S
H3944 C3928 0.931 . S
H3945 C3933 0.930 . S
H3946 C3934 0.956 . S
H3947 C3934 0.961 . S
H3948 C3934 0.961 . S
H3949 C3935 0.958 . S
H3950 C3935 0.961 . S
H3951 C3935 0.960 . S
C3952 C3953 1.387 . S
C3952 C3954 1.394 1_554 S
C3952 H3968 0.935 1_554 S
C3953 C3952 1.387 . S
C3953 C3957 1.376 . S
C3954 C3952 1.394 1_556 S
C3954 C3955 1.369 1_556 S
C3954 C3958 1.531 . S
C3955 C3954 1.369 1_554 S
C3955 C3956 1.410 . S
C3955 C3963 1.503 . S
C3956 C3955 1.410 . S
C3956 C3957 1.392 . S
C3956 C3959 1.511 . S
C3957 C3953 1.376 . S
C3957 C3956 1.392 . S
C3957 H3969 0.929 . S
C3958 C3954 1.531 . S
C3958 H3970 0.960 . S
C3958 H3971 0.962 . S
C3958 H3972 0.960 . S
C3959 C3956 1.511 . S
C3959 H3973 0.961 . S
C3959 H3974 0.961 . S
C3959 H3975 0.961 . S
C3960 C3961 1.370 . S
C3960 C3962 1.363 . S
C3960 H3976 0.931 . S
C3961 C3960 1.370 . S
C3961 C3965 1.408 . S
C3962 C3960 1.363 . S
C3962 C3963 1.370 . S
C3962 C3966 1.524 . S
C3963 C3955 1.503 . S
C3963 C3962 1.370 . S
C3963 C3964 1.403 . S
C3964 C3963 1.403 . S
C3964 C3965 1.404 . S
C3964 C3967 1.539 1_554 S
C3965 C3961 1.408 . S
C3965 C3964 1.404 . S
C3965 H3977 0.930 1_554 S
C3966 C3962 1.524 . S
C3966 H3978 0.956 . S
C3966 H3979 0.961 . S
C3966 H3980 0.961 . S
C3967 C3964 1.539 1_556 S
C3967 H3981 0.958 . S
C3967 H3982 0.961 . S
C3967 H3983 0.943 1_556 S
H3968 C3952 0.935 1_556 S
H3969 C3957 0.929 . S
H3970 C3958 0.960 . S
H3971 C3958 0.962 . S
H3972 C3958 0.960 . S
H3973 C3959 0.961 . S
H3974 C3959 0.961 . S
H3975 C3959 0.961 . S
H3976 C3960 0.931 . S
H3977 C3965 0.930 1_556 S
H3978 C3966 0.956 . S
H3979 C3966 0.961 . S
H3980 C3966 0.961 . S
H3981 C3967 0.958 . S
H3982 C3967 0.961 . S
H3983 C3967 0.943 1_554 S
C3984 C3985 1.391 . S
C3984 C3986 1.394 . S
C3984 H4000 0.931 . S
C3985 C3984 1.391 . S
C3985 C3989 1.376 . S
C3986 C3984 1.394 . S
C3986 C3987 1.369 . S
C3986 C3990 1.531 . S
C3987 C3986 1.369 . S
C3987 C3988 1.410 . S
C3987 C3995 1.503 . S
C3988 C3987 1.410 . S
C3988 C3989 1.392 . S
C3988 C3991 1.511 . S
C3989 C3985 1.376 . S
C3989 C3988 1.392 . S
C3989 H4001 0.929 . S
C3990 C3986 1.531 . S
C3990 H4002 0.960 . S
C3990 H4003 0.962 . S
C3990 H4004 0.960 . S
C3991 C3988 1.511 . S
C3991 H4005 0.961 . S
C3991 H4006 0.961 . S
C3991 H4007 0.961 . S
C3992 C3993 1.370 . S
C3992 C3994 1.363 . S
C3992 H4008 0.931 . S
C3993 C3992 1.370 . S
C3993 C3997 1.408 . S
C3994 C3992 1.363 . S
C3994 C3995 1.370 . S
C3994 C3998 1.524 . S
C3995 C3987 1.503 . S
C3995 C3994 1.370 . S
C3995 C3996 1.403 . S
C3996 C3995 1.403 . S
C3996 C3997 1.404 . S
C3996 C3999 1.539 . S
C3997 C3993 1.408 . S
C3997 C3996 1.404 . S
C3997 H4009 0.930 . S
C3998 C3994 1.524 . S
C3998 H4010 0.956 . S
C3998 H4011 0.961 . S
C3998 H4012 0.961 . S
C3999 C3996 1.539 . S
C3999 H4013 0.958 . S
C3999 H4014 0.961 . S
C3999 H4015 0.960 . S
H4000 C3984 0.931 . S
H4001 C3989 0.929 . S
H4002 C3990 0.960 . S
H4003 C3990 0.962 . S
H4004 C3990 0.960 . S
H4005 C3991 0.961 . S
H4006 C3991 0.961 . S
H4007 C3991 0.961 . S
H4008 C3992 0.931 . S
H4009 C3997 0.930 . S
H4010 C3998 0.956 . S
H4011 C3998 0.961 . S
H4012 C3998 0.961 . S
H4013 C3999 0.958 . S
H4014 C3999 0.961 . S
H4015 C3999 0.960 . S
C4016 C4017 1.391 . S
C4016 C4018 1.394 . S
C4016 H4032 0.931 . S
C4017 C4016 1.391 . S
C4017 C4021 1.376 . S
C4018 C4016 1.394 . S
C4018 C4019 1.369 . S
C4018 C4022 1.531 . S
C4019 C4018 1.369 . S
C4019 C4020 1.410 . S
C4019 C4027 1.503 . S
C4020 C4019 1.410 . S
C4020 C4021 1.392 . S
C4020 C4023 1.511 . S
C4021 C4017 1.376 . S
C4021 C4020 1.392 . S
C4021 H4033 0.929 . S
C4022 C4018 1.531 . S
C4022 H4034 0.960 . S
C4022 H4035 0.962 . S
C4022 H4036 0.960 . S
C4023 C4020 1.511 . S
C4023 H4037 0.961 . S
C4023 H4038 0.961 . S
C4023 H4039 0.961 . S
C4024 C4025 1.370 . S
C4024 C4026 1.363 . S
C4024 H4040 0.931 . S
C4025 C4024 1.370 . S
C4025 C4029 1.408 . S
C4026 C4024 1.363 . S
C4026 C4027 1.370 . S
C4026 C4030 1.524 . S
C4027 C4019 1.503 . S
C4027 C4026 1.370 . S
C4027 C4028 1.403 . S
C4028 C4027 1.403 . S
C4028 C4029 1.404 . S
C4028 C4031 1.539 . S
C4029 C4025 1.408 . S
C4029 C4028 1.404 . S
C4029 H4041 0.930 . S
C4030 C4026 1.524 . S
C4030 H4042 0.956 . S
C4030 H4043 0.961 . S
C4030 H4044 0.961 . S
C4031 C4028 1.539 . S
C4031 H4045 0.958 . S
C4031 H4046 0.961 . S
C4031 H4047 0.960 . S
H4032 C4016 0.931 . S
H4033 C4021 0.929 . S
H4034 C4022 0.960 . S
H4035 C4022 0.962 . S
H4036 C4022 0.960 . S
H4037 C4023 0.961 . S
H4038 C4023 0.961 . S
H4039 C4023 0.961 . S
H4040 C4024 0.931 . S
H4041 C4029 0.930 . S
H4042 C4030 0.956 . S
H4043 C4030 0.961 . S
H4044 C4030 0.961 . S
H4045 C4031 0.958 . S
H4046 C4031 0.961 . S
H4047 C4031 0.960 . S
C977 C109 1.679 . S
C985 C358 1.636 1_556 S
C1009 C61 1.069 . S
C1017 C378 1.133 . S
C1041 C74 0.756 . S
C1049 C425 0.739 . S
C1081 C482 1.105 . S
C1073 C96 1.071 . S
C1105 C25 2.453 . S
C1113 C499 2.473 1_565 S
C1145 C558 1.786 . S
C1137 C40 1.770 . S
C1177 C591 2.655 . S
C1169 C46 2.645 . S
C1201 C5 2.081 . S
C1209 C638 2.422 . S
C1241 C351 1.379 . S
C1233 C229 1.077 1_565 S
C1265 C249 1.368 . S
C1273 C379 1.385 . S
C1305 C418 0.473 . S
C1297 C271 0.439 . S
C1337 C478 2.231 . S
C1329 C172 2.147 . S
C1361 C236 0.450 . S
C1369 C505 0.411 . S
C1401 C551 2.463 . S
C1393 C242 2.425 . S
C1433 C602 0.576 . S
C1425 C278 0.367 . S
C1465 C631 2.327 . S
C1457 C179 2.305 . S
C1497 C362 1.719 1_565 S
C1489 C159 1.361 . S
C1521 C285 1.858 . S
C1529 C658 2.090 . S
C1561 C722 1.151 . S
C1553 C333 1.152 . S
C1593 C758 1.312 1_655 S
C1585 C320 1.311 . S
C1617 C123 1.294 . S
C1625 C642 1.232 . S
C1649 C138 2.583 . S
C1657 C419 2.582 . S
C1681 C326 1.409 . S
C1689 C791 1.413 . S
C1721 C825 0.340 . S
C1713 C298 0.338 . S
C1753 C339 1.663 . S
C1745 C67 1.637 . S
C1785 C831 1.053 . S
C1777 C110 1.087 . S
C1809 C88 0.762 . S
C1817 C442 0.741 . S
C1841 C75 1.041 . S
C1849 C785 1.025 . S
C1881 C518 2.385 . S
C1873 C11 2.379 . S
C1905 C47 1.611 . S
C1913 C699 1.821 . S
C1945 C578 2.560 1_556 S
C1937 C32 2.478 . S
C1977 C859 2.491 . S
C1969 C26 2.508 1_655 S
C2009 C338 1.533 . S
C2001 C152 1.528 . S
C2041 C838 1.401 . S
C2033 C319 1.388 . S
C2065 C124 0.510 . S
C2073 C431 0.527 . S
C2097 C284 2.209 . S
C2105 C779 2.225 . S
C2129 C145 0.735 . S
C2137 C522 0.386 . S
C2169 C698 2.349 . S
C2161 C312 2.334 . S
C2193 C117 0.379 . S
C2201 C585 0.568 . S
C2225 C291 2.242 . S
C2233 C858 2.240 . S
C2257 C194 1.876 1_556 S
C2265 C345 1.857 . S
C2289 C180 2.095 . S
C2297 C671 2.063 . S
C2321 C263 1.130 . S
C2329 C545 1.100 . S
C2353 C243 1.111 . S
C2361 C739 1.207 . S
C2393 C865 1.302 . S
C2385 C277 1.205 . S
C2417 C215 2.205 . S
C2425 C438 2.558 1_565 S
C2457 C458 1.308 . S
C2449 C256 1.217 . S
C2489 C402 0.414 . S
C2481 C200 0.617 . S
C2513 C81 1.671 . S
C2521 C918 1.666 . S
C2553 C818 1.142 . S
C2545 C89 1.142 . S
C2577 C102 0.687 . S
C2585 C945 0.718 . S
C2609 C68 1.079 . S
C2617 C802 1.111 . S
C2641 C53 2.450 . S
C2649 C659 2.467 . S
C2681 C718 1.791 . S
C2673 C12 1.783 1_655 S
C2713 C751 2.657 . S
C2705 C18 2.646 . S
C2745 C878 2.415 . S
C2737 C33 2.071 . S
C2777 C911 1.381 . S
C2769 C257 0.950 . S
C2801 C193 1.389 . S
C2809 C819 1.383 . S
C2841 C938 0.545 . S
C2833 C201 0.635 . S
C2873 C798 2.230 . S
C2865 C214 2.106 . S
C2905 C665 0.404 . S
C2897 C264 0.448 . S
C2929 C186 2.431 . S
C2937 C711 2.463 . S
C2969 C762 0.560 . S
C2961 C208 0.432 . S
C2993 C221 2.309 . S
C3001 C871 2.323 . S
C3033 C922 1.715 . S
C3025 C313 1.349 . S
C3057 C131 1.900 . S
C3065 C498 2.102 . S
C3097 C562 1.136 . S
C3089 C151 1.164 . S
C3129 C598 1.302 . S
C3121 C166 1.296 . S
C3161 C882 1.206 . S
C3153 C305 1.234 . S
C3185 C292 2.587 . S
C3193 C939 2.583 1_655 S
C3225 C471 1.408 . S
C3217 C144 1.415 . S
C3257 C385 0.400 . S
C3249 C116 0.466 . S
C3281 C95 1.662 . S
C3289 C899 1.670 . S
C3321 C391 1.052 . S
C3313 C82 0.997 . S
C3345 C60 0.778 . S
C3353 C962 0.740 . S
C3377 C103 0.914 . S
C3385 C465 0.969 . S
C3409 C39 2.372 . S
C3417 C678 2.385 1_556 S
C3449 C539 1.820 . S
C3441 C19 1.670 . S
C3473 C4 2.487 . S
C3481 C738 2.564 . S
C3505 C54 2.508 . S
C3513 C619 2.493 . S
C3545 C898 1.537 . S
C3537 C334 1.535 . S
C3569 C165 1.411 . S
C3577 C398 1.388 . S
C3609 C951 0.474 . S
C3601 C306 0.562 . S
C3633 C130 2.217 . S
C3641 C459 2.227 . S
C3665 C327 0.843 . S
C3673 C682 0.347 . S
C3705 C538 2.352 . S
C3697 C158 2.334 1_556 S
C3729 C299 0.429 . S
C3737 C745 0.597 . S
C3769 C618 2.239 . S
C3761 C137 2.241 . S
C3801 C905 1.862 . S
C3793 C250 1.883 . S
C3833 C511 2.069 1_655 S
C3825 C222 2.095 . S
C3857 C235 1.033 . S
C3865 C705 1.121 . S
C3897 C579 1.215 . S
C3889 C187 0.978 . S
C3921 C207 1.284 . S
C3929 C625 1.279 . S
C3953 C173 2.275 . S
C3961 C958 2.581 . S
C3993 C778 1.310 . S
C3985 C228 1.266 . S
C4025 C842 0.414 . S
C4017 C270 0.613 . S
