# Generated by pormake.
# Topology zzz, (3,6)-cn, num edge types: 1
# Building blocks:
#     Node 0, Type 0, BuildingBlock: OLANEW_clean_sbu_2, # of connection points: 3
#     Node 1, Type 0, BuildingBlock: OLANEW_clean_sbu_2, # of connection points: 3
#     Node 2, Type 0, BuildingBlock: OLANEW_clean_sbu_2, # of connection points: 3
#     Node 3, Type 0, BuildingBlock: OLANEW_clean_sbu_2, # of connection points: 3
#     Node 4, Type 0, BuildingBlock: OLANEW_clean_sbu_2, # of connection points: 3
#     Node 5, Type 0, BuildingBlock: OLANEW_clean_sbu_2, # of connection points: 3
#     Node 6, Type 0, BuildingBlock: OLANEW_clean_sbu_2, # of connection points: 3
#     Node 7, Type 0, BuildingBlock: OLANEW_clean_sbu_2, # of connection points: 3
#     Node 8, Type 1, BuildingBlock: BETDEL_clean_sbu_0, # of connection points: 6
#     Node 9, Type 1, BuildingBlock: BETDEL_clean_sbu_0, # of connection points: 6
#     Node 10, Type 1, BuildingBlock: BETDEL_clean_sbu_0, # of connection points: 6
#     Node 11, Type 1, BuildingBlock: BETDEL_clean_sbu_0, # of connection points: 6
#     Edge 12, Type (0, 1), BuildingBlock: XUDNAN_clean_linker_2, # of connection points: 2
#     Edge 13, Type (0, 1), BuildingBlock: XUDNAN_clean_linker_2, # of connection points: 2
#     Edge 14, Type (0, 1), BuildingBlock: XUDNAN_clean_linker_2, # of connection points: 2
#     Edge 15, Type (0, 1), BuildingBlock: XUDNAN_clean_linker_2, # of connection points: 2
#     Edge 16, Type (0, 1), BuildingBlock: XUDNAN_clean_linker_2, # of connection points: 2
#     Edge 17, Type (0, 1), BuildingBlock: XUDNAN_clean_linker_2, # of connection points: 2
#     Edge 18, Type (0, 1), BuildingBlock: XUDNAN_clean_linker_2, # of connection points: 2
#     Edge 19, Type (0, 1), BuildingBlock: XUDNAN_clean_linker_2, # of connection points: 2
#     Edge 20, Type (0, 1), BuildingBlock: XUDNAN_clean_linker_2, # of connection points: 2
#     Edge 21, Type (0, 1), BuildingBlock: XUDNAN_clean_linker_2, # of connection points: 2
#     Edge 22, Type (0, 1), BuildingBlock: XUDNAN_clean_linker_2, # of connection points: 2
#     Edge 23, Type (0, 1), BuildingBlock: XUDNAN_clean_linker_2, # of connection points: 2
#     Edge 24, Type (0, 1), BuildingBlock: XUDNAN_clean_linker_2, # of connection points: 2
#     Edge 25, Type (0, 1), BuildingBlock: XUDNAN_clean_linker_2, # of connection points: 2
#     Edge 26, Type (0, 1), BuildingBlock: XUDNAN_clean_linker_2, # of connection points: 2
#     Edge 27, Type (0, 1), BuildingBlock: XUDNAN_clean_linker_2, # of connection points: 2
#     Edge 28, Type (0, 1), BuildingBlock: XUDNAN_clean_linker_2, # of connection points: 2
#     Edge 29, Type (0, 1), BuildingBlock: XUDNAN_clean_linker_2, # of connection points: 2
#     Edge 30, Type (0, 1), BuildingBlock: XUDNAN_clean_linker_2, # of connection points: 2
#     Edge 31, Type (0, 1), BuildingBlock: XUDNAN_clean_linker_2, # of connection points: 2
#     Edge 32, Type (0, 1), BuildingBlock: XUDNAN_clean_linker_2, # of connection points: 2
#     Edge 33, Type (0, 1), BuildingBlock: XUDNAN_clean_linker_2, # of connection points: 2
#     Edge 34, Type (0, 1), BuildingBlock: XUDNAN_clean_linker_2, # of connection points: 2
#     Edge 35, Type (0, 1), BuildingBlock: XUDNAN_clean_linker_2, # of connection points: 2
# Relax obj value: 0.150
# Max RMSD: 0.173
# Mean RMSD: 0.121
data_MOF--net-zzz--node1-OLANEW_clean_sbu_2--node2-BETDEL_clean_sbu_0--edge1-XUDNAN_clean_linker_2
_symmetry_space_group_name_H-M    P1
_symmetry_Int_Tables_number       1
_symmetry_cell_setting            triclinic
loop_
_symmetry_equiv_pos_as_xyz
'x, y, z'
_cell_length_a     53.233063
_cell_length_b     53.260406
_cell_length_c     16.573026
_cell_angle_alpha  91.748022
_cell_angle_beta   88.599572
_cell_angle_gamma 95.848599
loop_
_atom_site_label
_atom_site_type_symbol
_atom_site_fract_x
_atom_site_fract_y
_atom_site_fract_z
_atom_type_partial_charge
O0 O 0.77935 0.56967 0.83976 0.0
Cd1 Cd 0.7414 0.58643 0.89551 0.0
O2 O 0.76729 0.53922 0.9222 0.0
Cd3 Cd 0.77573 0.50683 0.99014 0.0
O4 O 0.80035 0.48729 0.06379 0.0
C5 C 0.82371 0.49494 0.05818 0.0
O6 O 0.83105 0.51321 0.00882 0.0
C7 C 0.78303 0.54874 0.86982 0.0
C8 C 0.69835 0.55828 0.83806 0.0
O9 O 0.70536 0.58015 0.81046 0.0
O10 O 0.71141 0.54981 0.89305 0.0
O11 O 0.91535 0.7569 0.90934 0.0
Cd12 Cd 0.90201 0.71203 0.93103 0.0
O13 O 0.91123 0.7626 0.04045 0.0
Cd14 Cd 0.91492 0.7868 0.1495 0.0
O15 O 0.91685 0.81927 0.23349 0.0
C16 C 0.93362 0.83781 0.2243 0.0
O17 O 0.95037 0.83685 0.16503 0.0
C18 C 0.91604 0.77172 0.97105 0.0
C19 C 0.91875 0.67771 0.81572 0.0
O20 O 0.89868 0.68851 0.80522 0.0
O21 O 0.93126 0.68356 0.87989 0.0
O22 O 0.74313 0.94963 0.90616 0.0
Cd23 Cd 0.77103 0.9423 0.01512 0.0
O24 O 0.73682 0.9814 0.98785 0.0
Cd25 Cd 0.71774 0.01315 0.03577 0.0
O26 O 0.68555 0.01186 0.11907 0.0
C27 C 0.68015 0.98965 0.14447 0.0
O28 O 0.69434 0.97196 0.12018 0.0
C29 C 0.73176 0.96903 0.92239 0.0
C30 C 0.81548 0.97266 0.98742 0.0
O31 O 0.81371 0.94897 0.96943 0.0
O32 O 0.79646 0.98189 0.02133 0.0
O33 O 0.63694 0.737 0.85431 0.0
Cd34 Cd 0.64821 0.7821 0.8765 0.0
O35 O 0.62062 0.7388 0.97673 0.0
Cd36 Cd 0.59685 0.72166 0.07351 0.0
O37 O 0.57823 0.68815 0.12972 0.0
C38 C 0.58505 0.68114 0.19764 0.0
O39 O 0.60243 0.69539 0.23753 0.0
C40 C 0.6251 0.72599 0.91283 0.0
C41 C 0.61093 0.80936 0.8176 0.0
O42 O 0.63115 0.8066 0.77613 0.0
O43 O 0.60837 0.79937 0.88704 0.0
O44 O 0.24724 0.53618 0.13038 0.0
Cd45 Cd 0.29206 0.53756 0.09441 0.0
O46 O 0.24066 0.49497 0.11282 0.0
Cd47 Cd 0.21292 0.46292 0.08622 0.0
O48 O 0.18118 0.46871 0.01116 0.0
C49 C 0.18743 0.4854 0.95921 0.0
O50 O 0.21114 0.49501 0.9544 0.0
C51 C 0.23223 0.51605 0.12989 0.0
C52 C 0.3217 0.5353 0.22899 0.0
O53 O 0.31272 0.5558 0.21112 0.0
O54 O 0.31673 0.51569 0.18318 0.0
O55 O 0.07859 0.2299 0.23739 0.0
Cd56 Cd 0.08306 0.26902 0.16124 0.0
O57 O 0.11965 0.22774 0.23498 0.0
Cd58 Cd 0.12202 0.25013 0.12724 0.0
O59 O 0.09889 0.21865 0.06982 0.0
C60 C 0.10968 0.19979 0.04311 0.0
O61 O 0.13447 0.20122 0.04074 0.0
C62 C 0.09769 0.21967 0.26064 0.0
C63 C 0.07476 0.31148 0.25742 0.0
O64 O 0.0575 0.30105 0.21127 0.0
O65 O 0.09586 0.30189 0.25823 0.0
O66 O 0.25278 0.97634 0.23653 0.0
Cd67 Cd 0.21639 0.97844 0.15223 0.0
O68 O 0.27361 0.01082 0.19092 0.0
Cd69 Cd 0.30666 0.03819 0.1753 0.0
O70 O 0.3402 0.03756 0.09812 0.0
C71 C 0.33735 0.01916 0.04748 0.0
O72 O 0.31555 0.00513 0.04655 0.0
C73 C 0.27236 0.99203 0.23699 0.0
C74 C 0.17663 0.97419 0.26227 0.0
O75 O 0.18641 0.9546 0.23459 0.0
O76 O 0.18459 0.99577 0.23417 0.0
O77 O 0.45836 0.26415 0.20273 0.0
Cd78 Cd 0.44971 0.22077 0.15251 0.0
O79 O 0.42442 0.27338 0.14172 0.0
Cd80 Cd 0.39877 0.30112 0.11168 0.0
O81 O 0.38767 0.33552 0.06101 0.0
C82 C 0.39082 0.35654 0.0997 0.0
O83 O 0.39854 0.35713 0.17444 0.0
C84 C 0.44374 0.2803 0.18357 0.0
C85 C 0.45594 0.18606 0.27061 0.0
O86 O 0.47437 0.19378 0.22343 0.0
O87 O 0.43467 0.19488 0.26197 0.0
Dy88 Dy 0.00478 0.98642 0.76936 0.0
C89 C 0.04188 0.06316 0.53645 0.0
C90 C 0.98624 0.94414 0.84869 0.0
Dy91 Dy 0.0155 0.03021 0.63686 0.0
O92 O 0.98374 0.96714 0.8746 0.0
O93 O -0.00089 0.94453 0.78124 0.0
O94 O 0.04614 0.98151 0.76329 0.0
O95 O 0.02851 0.99371 0.66178 0.0
C96 C 0.04936 0.98964 0.69018 0.0
C97 C 0.97329 0.03449 0.72751 0.0
O98 O 0.99784 0.99789 0.56142 0.0
O99 O 0.97755 0.97613 0.66918 0.0
O100 O 0.01782 0.0559 0.53106 0.0
O101 O 0.05145 0.05196 0.59531 0.0
O102 O 0.97997 0.04986 0.66938 0.0
O103 O 0.98975 0.01953 0.73091 0.0
O104 O 0.01753 0.01954 0.85001 0.0
O105 O 0.0367 0.04465 0.74714 0.0
C106 C 0.981 0.98008 0.5906 0.0
C107 C 0.03216 0.03966 0.82462 0.0
Dy108 Dy 0.4798 0.9771 0.54722 0.0
C109 C 0.58039 0.00964 0.65592 0.0
C110 C 0.43136 0.96851 0.49616 0.0
Dy111 Dy 0.53054 0.00111 0.6193 0.0
O112 O 0.45083 0.97593 0.45126 0.0
O113 O 0.43838 0.96502 0.5693 0.0
O114 O 0.5016 0.95853 0.44953 0.0
O115 O 0.5157 0.99403 0.49899 0.0
C116 C 0.52037 0.97617 0.4511 0.0
C117 C 0.49007 0.99963 0.71825 0.0
O118 O 0.51852 0.03533 0.56382 0.0
O119 O 0.47634 0.01889 0.55904 0.0
O120 O 0.56171 0.0107 0.70738 0.0
O121 O 0.57178 0.00484 0.58385 0.0
O122 O 0.50853 0.01759 0.72309 0.0
O123 O 0.49526 0.98319 0.66637 0.0
O124 O 0.49138 0.94235 0.60193 0.0
O125 O 0.5332 0.95915 0.61944 0.0
C126 C 0.4943 0.03806 0.55452 0.0
C127 C 0.5153 0.93983 0.61814 0.0
Dy128 Dy 0.50013 0.52869 0.68717 0.0
C129 C 0.4725 0.44427 0.46636 0.0
C130 C 0.52286 0.56873 0.7738 0.0
Dy131 Dy 0.48943 0.48395 0.56501 0.0
O132 O 0.51976 0.54566 0.79877 0.0
O133 O 0.51302 0.56977 0.70344 0.0
O134 O 0.45985 0.53745 0.68841 0.0
O135 O 0.47534 0.52077 0.58466 0.0
C136 C 0.45521 0.52693 0.61779 0.0
C137 C 0.53506 0.48727 0.63126 0.0
O138 O 0.50466 0.51384 0.48103 0.0
O139 O 0.52558 0.53879 0.58023 0.0
O140 O 0.47376 0.46784 0.44724 0.0
O141 O 0.47999 0.44247 0.5397 0.0
O142 O 0.53037 0.47688 0.56087 0.0
O143 O 0.51485 0.49251 0.66586 0.0
O144 O 0.47956 0.50038 0.76886 0.0
O145 O 0.46091 0.47544 0.66435 0.0
C146 C 0.52102 0.53305 0.50323 0.0
C147 C 0.46257 0.48229 0.74181 0.0
Dy148 Dy 0.98704 0.49484 0.59753 0.0
C149 C 0.05816 0.50787 0.33059 0.0
C150 C 0.94811 0.49756 0.7063 0.0
Dy151 Dy 0.02021 0.50655 0.44481 0.0
O152 O 0.95575 0.47669 0.67665 0.0
O153 O 0.96238 0.51677 0.67875 0.0
O154 O 0.00725 0.46089 0.6194 0.0
O155 O 0.00257 0.47248 0.5001 0.0
C156 C 0.01296 0.4575 0.54314 0.0
C157 C 0.99424 0.54383 0.50218 0.0
O158 O 0.98602 0.48867 0.38306 0.0
O159 O 0.9594 0.49115 0.49594 0.0
O160 O 0.04301 0.5253 0.34305 0.0
O161 O 0.05232 0.48956 0.37976 0.0
O162 O -0.00088 0.54036 0.42565 0.0
O163 O 0.00504 0.52872 0.54303 0.0
O164 O 0.02239 0.508 0.66158 0.0
O165 O 0.04817 0.51103 0.54544 0.0
C166 C 0.96321 0.487 0.41741 0.0
C167 C 0.04487 0.51167 0.62524 0.0
H168 H 0.13431 0.9988 0.28776 0.0
H169 H 0.17981 0.94569 0.39291 0.0
H170 H 0.15338 0.9457 0.51758 0.0
H171 H 0.12125 0.03502 0.46591 0.0
H172 H 0.08882 0.03774 0.4418 0.0
H173 H 0.11186 0.03429 0.36197 0.0
H174 H 0.08412 0.99505 0.30511 0.0
H175 H 0.06114 0.99875 0.38502 0.0
H176 H 0.07457 0.96918 0.37044 0.0
H177 H 0.12426 0.954 0.63366 0.0
H178 H 0.08911 0.96379 0.72574 0.0
H179 H 0.05956 0.00729 0.53912 0.0
C180 C 0.13849 0.98708 0.337 0.0
C181 C 0.15901 0.97232 0.33159 0.0
C182 C 0.16397 0.95698 0.39631 0.0
C183 C 0.14925 0.95703 0.46739 0.0
C184 C 0.12936 0.9721 0.47162 0.0
C185 C 0.12348 0.98629 0.40746 0.0
C186 C 0.10005 0.99949 0.426 0.0
C187 C 0.10588 0.02835 0.4238 0.0
C188 C 0.07871 0.99004 0.36822 0.0
C189 C 0.09407 0.99088 0.51109 0.0
C190 C 0.11146 0.97548 0.53676 0.0
C191 C 0.11033 0.96582 0.61409 0.0
C192 C 0.09044 0.97159 0.66601 0.0
C193 C 0.07181 0.98639 0.63943 0.0
C194 C 0.07376 0.99622 0.56123 0.0
H195 H 0.49765 0.16126 0.29663 0.0
H196 H 0.42053 0.16712 0.38095 0.0
H197 H 0.42408 0.13287 0.47547 0.0
H198 H 0.49449 0.09579 0.29485 0.0
H199 H 0.52617 0.09408 0.32877 0.0
H200 H 0.51878 0.12112 0.27501 0.0
H201 H 0.53557 0.15059 0.39329 0.0
H202 H 0.54301 0.12357 0.44755 0.0
H203 H 0.52287 0.14538 0.49391 0.0
H204 H 0.43394 0.0951 0.54813 0.0
H205 H 0.4497 0.05622 0.59524 0.0
H206 H 0.52085 0.07517 0.46735 0.0
C207 C 0.48168 0.15568 0.3361 0.0
C208 C 0.45883 0.16691 0.33156 0.0
C209 C 0.43824 0.15884 0.38346 0.0
C210 C 0.4401 0.13946 0.43761 0.0
C211 C 0.46273 0.12851 0.43962 0.0
C212 C 0.48323 0.13638 0.39065 0.0
C213 C 0.50472 0.12019 0.40054 0.0
C214 C 0.51141 0.10702 0.32002 0.0
C215 C 0.52792 0.13587 0.43595 0.0
C216 C 0.49276 0.10145 0.46064 0.0
C217 C 0.46862 0.10677 0.48294 0.0
C218 C 0.45297 0.09099 0.53239 0.0
C219 C 0.46204 0.06893 0.55857 0.0
C220 C 0.48655 0.06293 0.53549 0.0
C221 C 0.50228 0.07968 0.48743 0.0
H222 H 0.3625 0.50868 0.24523 0.0
H223 H 0.31682 0.56085 0.37187 0.0
H224 H 0.34415 0.56114 0.4904 0.0
H225 H 0.37899 0.47327 0.42025 0.0
H226 H 0.411 0.47125 0.38458 0.0
H227 H 0.38616 0.4726 0.31336 0.0
H228 H 0.41106 0.5115 0.24861 0.0
H229 H 0.43592 0.51025 0.31961 0.0
H230 H 0.42086 0.53886 0.31123 0.0
H231 H 0.37679 0.55688 0.59272 0.0
H232 H 0.41525 0.55174 0.66819 0.0
H233 H 0.44182 0.50501 0.47144 0.0
C234 C 0.35805 0.51975 0.29863 0.0
C235 C 0.33744 0.53449 0.30036 0.0
C236 C 0.33251 0.54937 0.36995 0.0
C237 C 0.34781 0.54953 0.43752 0.0
C238 C 0.36816 0.53501 0.43382 0.0
C239 C 0.37352 0.5206 0.36593 0.0
C240 C 0.39797 0.50871 0.37483 0.0
C241 C 0.39323 0.47974 0.37318 0.0
C242 C 0.41761 0.5179 0.30972 0.0
C243 C 0.40558 0.51893 0.45793 0.0
C244 C 0.38786 0.53364 0.49141 0.0
C245 C 0.39081 0.54539 0.56727 0.0
C246 C 0.41268 0.54236 0.60962 0.0
C247 C 0.43145 0.52809 0.57528 0.0
C248 C 0.42771 0.51601 0.49892 0.0
H249 H 0.04351 0.34792 0.22932 0.0
H250 H 0.09611 0.32515 0.40216 0.0
H251 H 0.08733 0.36121 0.49245 0.0
H252 H 0.06074 0.41615 0.26111 0.0
H253 H 0.02892 0.42375 0.2477 0.0
H254 H 0.03982 0.3965 0.19603 0.0
H255 H 0.00239 0.36811 0.25901 0.0
H256 H 0.99144 0.39525 0.31089 0.0
H257 H 0.99786 0.36827 0.3672 0.0
H258 H 0.06978 0.39735 0.56893 0.0
H259 H 0.0475 0.43333 0.62096 0.0
H260 H 0.00927 0.43477 0.39338 0.0
C261 C 0.05324 0.35063 0.28605 0.0
C262 C 0.07033 0.3337 0.30929 0.0
C263 C 0.08296 0.33796 0.38338 0.0
C264 C 0.07808 0.35835 0.435 0.0
C265 C 0.06096 0.3746 0.41065 0.0
C266 C 0.04907 0.37125 0.3373 0.0
C267 C 0.03172 0.39161 0.32516 0.0
C268 C 0.04085 0.40797 0.25323 0.0
C269 C 0.00423 0.38011 0.315 0.0
C270 C 0.03504 0.40641 0.40428 0.0
C271 C 0.05194 0.39626 0.45288 0.0
C272 C 0.05683 0.40571 0.53092 0.0
C273 C 0.04406 0.42603 0.56006 0.0
C274 C 0.02692 0.43681 0.51082 0.0
C275 C 0.02261 0.42706 0.4317 0.0
H276 H 0.86361 0.95997 0.97611 0.0
H277 H 0.81816 0.0218 0.94327 0.0
H278 H 0.85523 0.04694 0.88293 0.0
H279 H 0.92184 0.00171 0.02566 0.0
H280 H 0.94277 0.98171 0.97481 0.0
H281 H 0.91397 0.96796 0.0225 0.0
H282 H 0.89855 0.94536 0.89115 0.0
H283 H 0.92747 0.95705 0.84099 0.0
H284 H 0.89764 0.96307 0.80038 0.0
H285 H 0.89565 0.06225 0.80674 0.0
H286 H 0.93702 0.06774 0.73338 0.0
H287 H 0.95549 0.99666 0.82341 0.0
C288 C 0.86166 0.97901 0.95782 0.0
C289 C 0.83819 0.98902 0.96391 0.0
C290 C 0.83617 0.01397 0.93957 0.0
C291 C 0.85706 0.02832 0.90512 0.0
C292 C 0.87985 0.01761 0.89767 0.0
C293 C 0.88237 0.99373 0.92514 0.0
C294 C 0.90859 0.98617 0.90827 0.0
C295 C 0.9226 0.98424 0.98753 0.0
C296 C 0.908 0.96147 0.85715 0.0
C297 C 0.91979 0.00861 0.86148 0.0
C298 C 0.9032 0.02682 0.85694 0.0
C299 C 0.90901 0.04839 0.81152 0.0
C300 C 0.9324 0.0513 0.76983 0.0
C301 C 0.94943 0.0327 0.77414 0.0
C302 C 0.94305 0.01136 0.82104 0.0
H303 H 0.61721 0.84683 0.70816 0.0
H304 H 0.56071 0.80563 0.85988 0.0
H305 H 0.52831 0.83155 0.81202 0.0
H306 H 0.59633 0.90627 0.75028 0.0
H307 H 0.60336 0.91812 0.65069 0.0
H308 H 0.62108 0.89423 0.68887 0.0
H309 H 0.60924 0.86544 0.5636 0.0
H310 H 0.59131 0.88927 0.52531 0.0
H311 H 0.57644 0.85773 0.5397 0.0
H312 H 0.50253 0.86359 0.75201 0.0
H313 H 0.48691 0.90175 0.69679 0.0
H314 H 0.56109 0.92278 0.59092 0.0
C315 C 0.59791 0.84295 0.73008 0.0
C316 C 0.59133 0.82408 0.7869 0.0
C317 C 0.56606 0.81998 0.816 0.0
C318 C 0.54753 0.83448 0.78881 0.0
C319 C 0.55467 0.85313 0.73313 0.0
C320 C 0.57934 0.85754 0.70476 0.0
C321 C 0.58277 0.88028 0.65169 0.0
C322 C 0.60201 0.90094 0.68756 0.0
C323 C 0.59039 0.87272 0.56493 0.0
C324 C 0.5563 0.88823 0.65563 0.0
C325 C 0.54018 0.8721 0.70146 0.0
C326 C 0.51494 0.87626 0.71557 0.0
C327 C 0.50619 0.89785 0.68374 0.0
C328 C 0.52283 0.91511 0.63989 0.0
C329 C 0.54798 0.90986 0.62437 0.0
H330 H 0.651 0.5726 0.82402 0.0
H331 H 0.69566 0.50961 0.78296 0.0
H332 H 0.65838 0.48393 0.72635 0.0
H333 H 0.59685 0.53311 0.89212 0.0
H334 H 0.57305 0.54984 0.84939 0.0
H335 H 0.60242 0.56682 0.88102 0.0
H336 H 0.61332 0.58506 0.74265 0.0
H337 H 0.58315 0.57128 0.70752 0.0
H338 H 0.61164 0.56464 0.65369 0.0
H339 H 0.61693 0.46653 0.66526 0.0
H340 H 0.57307 0.45698 0.61799 0.0
H341 H 0.55472 0.52967 0.71233 0.0
C342 C 0.65285 0.55345 0.80252 0.0
C343 C 0.67606 0.54302 0.80637 0.0
C344 C 0.67789 0.51778 0.7799 0.0
C345 C 0.65691 0.50315 0.7476 0.0
C346 C 0.63419 0.51395 0.74441 0.0
C347 C 0.63192 0.53836 0.77248 0.0
C348 C 0.60498 0.54482 0.76761 0.0
C349 C 0.5937 0.54896 0.85262 0.0
C350 C 0.60319 0.56781 0.71471 0.0
C351 C 0.59276 0.52078 0.72835 0.0
C352 C 0.6099 0.50317 0.7155 0.0
C353 C 0.60324 0.47999 0.67638 0.0
C354 C 0.57838 0.47474 0.64976 0.0
C355 C 0.56052 0.49237 0.66393 0.0
C356 C 0.56779 0.51556 0.70388 0.0
H357 H 0.9557 0.64595 0.83245 0.0
H358 H 0.8999 0.66596 0.66543 0.0
H359 H 0.91282 0.63353 0.5676 0.0
H360 H 0.0039 0.6336 0.68268 0.0
H361 H 0.01383 0.60741 0.73585 0.0
H362 H 0.00062 0.63276 0.79111 0.0
H363 H 0.96802 0.60031 0.85614 0.0
H364 H 0.97925 0.57435 0.79827 0.0
H365 H 0.94663 0.58049 0.79371 0.0
H366 H 0.9331 0.60013 0.48558 0.0
H367 H 0.9576 0.56636 0.42879 0.0
H368 H 0.99806 0.56622 0.65262 0.0
C369 C 0.94629 0.64364 0.7751 0.0
C370 C 0.92689 0.65862 0.75639 0.0
C371 C 0.91486 0.65476 0.68104 0.0
C372 C 0.92207 0.6364 0.62505 0.0
C373 C 0.94123 0.62192 0.64548 0.0
C374 C 0.95312 0.62527 0.71879 0.0
C375 C 0.97281 0.6069 0.72657 0.0
C376 C -0.00064 0.62102 0.7345 0.0
C377 C 0.96631 0.58945 0.79788 0.0
C378 C 0.97007 0.59263 0.64627 0.0
C379 C 0.95199 0.60182 0.59992 0.0
C380 C 0.94711 0.5926 0.52161 0.0
C381 C 0.96114 0.57353 0.48977 0.0
C382 C 0.97947 0.56367 0.53667 0.0
C383 C 0.98385 0.57323 0.61603 0.0
H384 H 0.05417 0.18839 0.28304 0.0
H385 H 0.13345 0.19845 0.34439 0.0
H386 H 0.12826 0.15806 0.41545 0.0
H387 H 0.03043 0.16065 0.46785 0.0
H388 H 0.00713 0.13883 0.41872 0.0
H389 H 0.01727 0.16863 0.3739 0.0
H390 H 0.02923 0.14507 0.24183 0.0
H391 H 0.01964 0.11508 0.28641 0.0
H392 H 0.05115 0.12147 0.24465 0.0
H393 H 0.11426 0.11704 0.48149 0.0
H394 H 0.09205 0.07893 0.54209 0.0
H395 H 0.02232 0.0949 0.43328 0.0
C396 C 0.07038 0.18228 0.31233 0.0
C397 C 0.09417 0.19668 0.30899 0.0
C398 C 0.11503 0.18777 0.34664 0.0
C399 C 0.11228 0.16482 0.38679 0.0
C400 C 0.08865 0.15091 0.38787 0.0
C401 C 0.06806 0.15931 0.35175 0.0
C402 C 0.04476 0.14072 0.36124 0.0
C403 C 0.02366 0.15294 0.40825 0.0
C404 C 0.03567 0.12995 0.27862 0.0
C405 C 0.05533 0.12079 0.40992 0.0
C406 C 0.08073 0.12695 0.42417 0.0
C407 C 0.09442 0.11192 0.47028 0.0
C408 C 0.08168 0.09031 0.50426 0.0
C409 C 0.05557 0.08395 0.49171 0.0
C410 C 0.04237 0.09916 0.44282 0.0
H411 H 0.3233 0.99924 0.20333 0.0
H412 H 0.26853 0.97311 0.38759 0.0
H413 H 0.30319 0.96308 0.4741 0.0
H414 H 0.36527 0.9528 0.22769 0.0
H415 H 0.39354 0.97383 0.21124 0.0
H416 H 0.36454 0.97984 0.16519 0.0
H417 H 0.36765 0.02463 0.23148 0.0
H418 H 0.39683 0.01897 0.27698 0.0
H419 H 0.37099 0.0284 0.33926 0.0
H420 H 0.34407 0.95641 0.54087 0.0
H421 H 0.38812 0.95359 0.5823 0.0
H422 H 0.41556 0.98325 0.35202 0.0
C423 C 0.31863 0.99214 0.2626 0.0
C424 C 0.29332 0.98755 0.28959 0.0
C425 C 0.2879 0.97696 0.3662 0.0
C426 C 0.30742 0.97121 0.41566 0.0
C427 C 0.33222 0.97595 0.38713 0.0
C428 C 0.33787 0.98619 0.31237 0.0
C429 C 0.36602 0.98898 0.295 0.0
C430 C 0.37272 0.9729 0.22037 0.0
C431 C 0.37595 0.0169 0.28515 0.0
C432 C 0.37533 0.9787 0.37172 0.0
C433 C 0.35559 0.97136 0.42431 0.0
C434 C 0.35969 0.96196 0.50003 0.0
C435 C 0.38468 0.96034 0.52297 0.0
C436 C 0.40509 0.96796 0.47001 0.0
C437 C 0.40026 0.97698 0.39329 0.0
H438 H 0.45375 0.29852 0.33585 0.0
H439 H 0.44606 0.32156 0.08994 0.0
H440 H 0.45369 0.36643 0.13467 0.0
H441 H 0.42071 0.3463 0.4302 0.0
H442 H 0.44084 0.35084 0.51642 0.0
H443 H 0.437 0.32061 0.4641 0.0
H444 H 0.48548 0.32194 0.44168 0.0
H445 H 0.48951 0.35204 0.49484 0.0
H446 H 0.50239 0.34877 0.39391 0.0
H447 H 0.45837 0.40879 0.20891 0.0
H448 H 0.46417 0.44537 0.30454 0.0
H449 H 0.46835 0.39441 0.50195 0.0
C450 C 0.45378 0.31309 0.29165 0.0
C451 C 0.44911 0.30685 0.20982 0.0
C452 C 0.44929 0.3262 0.15319 0.0
C453 C 0.45364 0.35165 0.17801 0.0
C454 C 0.45712 0.3573 0.25988 0.0
C455 C 0.45748 0.33857 0.31574 0.0
C456 C 0.46127 0.34964 0.40023 0.0
C457 C 0.4386 0.34135 0.456 0.0
C458 C 0.48614 0.34269 0.43466 0.0
C459 C 0.46259 0.3775 0.38342 0.0
C460 C 0.46014 0.38157 0.30216 0.0
C461 C 0.46036 0.40582 0.27252 0.0
C462 C 0.46357 0.42645 0.32724 0.0
C463 C 0.4667 0.42261 0.41033 0.0
C464 C 0.46598 0.39784 0.43863 0.0
H465 H 0.1987 0.48335 0.21222 0.0
H466 H 0.20436 0.55264 0.07957 0.0
H467 H 0.15861 0.55554 0.10304 0.0
H468 H 0.13493 0.45879 0.14193 0.0
H469 H 0.12594 0.44544 0.23836 0.0
H470 H 0.15852 0.44771 0.20444 0.0
H471 H 0.17173 0.47282 0.33585 0.0
H472 H 0.13929 0.47057 0.37012 0.0
H473 H 0.15714 0.50109 0.36291 0.0
H474 H 0.11318 0.55261 0.15081 0.0
H475 H 0.07216 0.54507 0.22393 0.0
H476 H 0.096 0.47694 0.32165 0.0
C477 C 0.19016 0.49877 0.18638 0.0
C478 C 0.20487 0.51754 0.14288 0.0
C479 C 0.1933 0.53802 0.1128 0.0
C480 C 0.16734 0.53969 0.12522 0.0
C481 C 0.15328 0.52072 0.16789 0.0
C482 C 0.1643 0.50064 0.19797 0.0
C483 C 0.14542 0.48364 0.24632 0.0
C484 C 0.14094 0.45733 0.20531 0.0
C485 C 0.1539 0.48195 0.33397 0.0
C486 C 0.12231 0.49786 0.24175 0.0
C487 C 0.12709 0.51898 0.19511 0.0
C488 C 0.10911 0.53594 0.18649 0.0
C489 C 0.08589 0.53153 0.22821 0.0
C490 C 0.08095 0.51038 0.27791 0.0
C491 C 0.09918 0.49306 0.2831 0.0
H492 H 0.95065 0.7954 0.86626 0.0
H493 H 0.89529 0.81004 0.05343 0.0
H494 H 0.90866 0.85574 0.04807 0.0
H495 H -0.0007 0.84288 0.92596 0.0
H496 H 0.00852 0.85164 0.82446 0.0
H497 H 0.9949 0.81999 0.84381 0.0
H498 H 0.9601 0.82426 0.73973 0.0
H499 H 0.97381 0.85582 0.71941 0.0
H500 H 0.94103 0.85032 0.75001 0.0
H501 H 0.92958 0.89989 0.02634 0.0
H502 H 0.9528 0.93939 0.97749 0.0
H503 H 0.9923 0.89603 0.79874 0.0
C504 C 0.94135 0.80827 0.90592 0.0
C505 C 0.92271 0.79916 0.96275 0.0
C506 C 0.91054 0.81656 0.01243 0.0
C507 C 0.91778 0.84257 0.00911 0.0
C508 C 0.93694 0.85091 0.95473 0.0
C509 C 0.94821 0.83432 0.90289 0.0
C510 C 0.96767 0.84825 0.84798 0.0
C511 C 0.99416 0.84021 0.8614 0.0
C512 C 0.9602 0.84444 0.75902 0.0
C513 C 0.96574 0.87517 0.87756 0.0
C514 C 0.94806 0.87634 0.9396 0.0
C515 C 0.94329 0.89923 0.97722 0.0
C516 C 0.95657 0.92156 0.94932 0.0
C517 C 0.97412 0.92075 0.8841 0.0
C518 C 0.97891 0.89722 0.84866 0.0
H519 H 0.68666 0.98688 0.96318 0.0
H520 H 0.73306 0.96647 0.75793 0.0
H521 H 0.70078 0.97867 0.66546 0.0
H522 H 0.62849 0.96351 0.88259 0.0
H523 H 0.61132 0.98827 0.92608 0.0
H524 H 0.63889 0.97967 0.97493 0.0
H525 H 0.65892 0.02598 0.97043 0.0
H526 H 0.63144 0.03481 0.92127 0.0
H527 H 0.66231 0.0416 0.8752 0.0
H528 H 0.66254 0.99128 0.59636 0.0
H529 H 0.6201 1.00055 0.55609 0.0
H530 H 0.59947 0.01365 0.80741 0.0
C531 C 0.69044 0.9858 0.89894 0.0
C532 C 0.71263 0.97648 0.86752 0.0
C533 C 0.71621 0.97383 0.78293 0.0
C534 C 0.6981 0.98085 0.73013 0.0
C535 C 0.67653 0.99035 0.76316 0.0
C536 C 0.67259 0.99269 0.84567 0.0
C537 C 0.64712 0.00177 0.86611 0.0
C538 C 0.63048 0.98213 0.91529 0.0
C539 C 0.65014 0.02758 0.91089 0.0
C540 C 0.63717 0.00392 0.78212 0.0
C541 C 0.65449 0.99746 0.7235 0.0
C542 C 0.64897 0.9967 0.64162 0.0
C543 C 0.62491 0.00214 0.61924 0.0
C544 C 0.60676 0.00819 0.67854 0.0
C545 C 0.61318 0.00954 0.76075 0.0
H546 H 0.60441 0.70213 0.77874 0.0
H547 H 0.62285 0.68953 0.02652 0.0
H548 H 0.59908 0.64715 0.01853 0.0
H549 H 0.54323 0.67398 0.77927 0.0
H550 H 0.54473 0.65904 0.6804 0.0
H551 H 0.56504 0.68731 0.70329 0.0
H552 H 0.60417 0.66439 0.66188 0.0
H553 H 0.58417 0.63584 0.63913 0.0
H554 H 0.6093 0.63541 0.70953 0.0
H555 H 0.56887 0.60818 0.98762 0.0
H556 H 0.53936 0.57351 0.92994 0.0
H557 H 0.54263 0.61137 0.70142 0.0
C558 C 0.60381 0.69024 0.83077 0.0
C559 C 0.61462 0.69932 0.9042 0.0
C560 C 0.61371 0.68322 0.97081 0.0
C561 C 0.60047 0.65907 0.96659 0.0
C562 C 0.58875 0.65117 0.89464 0.0
C563 C 0.59087 0.66603 0.82725 0.0
C564 C 0.57642 0.65324 0.75735 0.0
C565 C 0.55615 0.66936 0.72845 0.0
C566 C 0.5946 0.64685 0.68788 0.0
C567 C 0.56469 0.62959 0.79727 0.0
C568 C 0.57222 0.6285 0.87616 0.0
C569 C 0.56313 0.60866 0.92553 0.0
C570 C 0.54629 0.58919 0.89265 0.0
C571 C 0.53882 0.58985 0.81152 0.0
C572 C 0.54797 0.61044 0.76384 0.0
H573 H 0.83104 0.57102 0.84293 0.0
H574 H 0.78622 0.49835 0.84578 0.0
H575 H 0.82469 0.47691 0.81775 0.0
H576 H 0.87306 0.55647 0.68044 0.0
H577 H 0.90036 0.57403 0.7244 0.0
H578 H 0.86934 0.58325 0.74727 0.0
H579 H 0.87749 0.57987 0.9 0.0
H580 H 0.90834 0.57004 0.87758 0.0
H581 H 0.88599 0.55058 0.93794 0.0
H582 H 0.86789 0.46343 0.7881 0.0
H583 H 0.91198 0.45918 0.74333 0.0
H584 H 0.92843 0.54052 0.7575 0.0
C585 C 0.82939 0.55061 0.83737 0.0
C586 C 0.80584 0.53624 0.84806 0.0
C587 C 0.80427 0.5096 0.83985 0.0
C588 C 0.82597 0.49728 0.82375 0.0
C589 C 0.84907 0.51192 0.81606 0.0
C590 C 0.85091 0.53802 0.82165 0.0
C591 C 0.87793 0.54932 0.80856 0.0
C592 C 0.8803 0.56678 0.73583 0.0
C593 C 0.88803 0.56328 0.88559 0.0
C594 C 0.89078 0.52555 0.79174 0.0
C595 C 0.87393 0.50416 0.79816 0.0
C596 C 0.8813 0.48003 0.78321 0.0
C597 C 0.90637 0.47778 0.75822 0.0
C598 C 0.92356 0.49955 0.74774 0.0
C599 C 0.91576 0.52362 0.76652 0.0
H600 H 0.12149 0.1629 0.93523 0.0
H601 H 0.06442 0.18177 0.11172 0.0
H602 H 0.04072 0.13986 0.08737 0.0
H603 H 0.07828 0.13206 0.79535 0.0
H604 H 0.09893 0.10871 0.76324 0.0
H605 H 0.11206 0.13922 0.80024 0.0
H606 H 0.13675 0.11758 0.90697 0.0
H607 H 0.12329 0.08698 0.87103 0.0
H608 H 0.11979 0.0961 0.97601 0.0
H609 H 0.02302 0.09574 0.04176 0.0
H610 H 0.00958 0.0564 0.96357 0.0
H611 H 0.07737 0.06787 0.81352 0.0
C612 C 0.10406 0.15813 0.96897 0.0
C613 C 0.09475 0.17546 0.02527 0.0
C614 C 0.07174 0.16876 0.06771 0.0
C615 C 0.05832 0.14492 0.05503 0.0
C616 C 0.06811 0.12814 0.99931 0.0
C617 C 0.09024 0.13465 0.956 0.0
C618 C 0.09565 0.11419 0.89467 0.0
C619 C 0.09625 0.12414 0.8083 0.0
C620 C 0.12034 0.10305 0.91333 0.0
C621 C 0.07295 0.09528 0.90935 0.0
C622 C 0.05752 0.10333 0.97113 0.0
C623 C 0.03502 0.0892 0.99355 0.0
C624 C 0.02764 0.06679 0.94944 0.0
C625 C 0.04254 0.05915 0.88309 0.0
C626 C 0.06575 0.07324 0.86449 0.0
H627 H 0.38301 0.04693 0.01652 0.0
H628 H 0.33908 0.97562 0.95885 0.0
H629 H 0.37388 0.96299 0.87157 0.0
H630 H 0.41055 0.05594 0.81691 0.0
H631 H 0.4408 0.0695 0.85259 0.0
H632 H 0.41262 0.07304 0.9125 0.0
H633 H 0.43243 0.05326 0.03371 0.0
H634 H 0.46065 0.04959 0.97409 0.0
H635 H 0.44379 0.0226 0.0211 0.0
H636 H 0.41284 0.95747 0.79304 0.0
H637 H 0.45389 0.96016 0.72065 0.0
H638 H 0.47278 0.03555 0.82276 0.0
C639 C 0.38077 0.02867 0.9855 0.0
C640 C 0.35833 0.01226 0.99441 0.0
C641 C 0.35603 0.98856 0.95267 0.0
C642 C 0.37572 0.98115 0.90314 0.0
C643 C 0.39754 0.9977 0.89559 0.0
C644 C 0.40022 0.02102 0.93497 0.0
C645 C 0.42558 0.03531 0.91447 0.0
C646 C 0.42217 0.0599 0.87156 0.0
C647 C 0.44156 0.04048 0.99037 0.0
C648 C 0.43664 0.0163 0.85752 0.0
C649 C 0.42011 0.99471 0.84813 0.0
C650 C 0.42591 0.97432 0.79934 0.0
C651 C 0.44921 0.97608 0.75823 0.0
C652 C 0.46625 0.99818 0.76537 0.0
C653 C 0.46 0.01848 0.81617 0.0
H654 H 0.42395 0.39852 0.11775 0.0
H655 H 0.36077 0.36619 0.97612 0.0
H656 H 0.36798 0.40146 0.88226 0.0
H657 H 0.41975 0.46773 0.07508 0.0
H658 H 0.45365 0.4736 0.06644 0.0
H659 H 0.43945 0.45019 0.13457 0.0
H660 H 0.46519 0.41656 0.06438 0.0
H661 H 0.47933 0.4398 0.9964 0.0
H662 H 0.4628 0.41097 0.95697 0.0
H663 H 0.38644 0.4342 0.79145 0.0
H664 H 0.41531 0.46174 0.70678 0.0
H665 H 0.46852 0.47238 0.90201 0.0
C666 C 0.411 0.39956 0.06902 0.0
C667 C 0.39153 0.38 0.05469 0.0
C668 C 0.37553 0.38127 0.9885 0.0
C669 C 0.37947 0.40125 0.93516 0.0
C670 C 0.39963 0.41966 0.94859 0.0
C671 C 0.41516 0.41905 0.01401 0.0
C672 C 0.43804 0.4384 0.00691 0.0
C673 C 0.43769 0.45869 0.07478 0.0
C674 C 0.46278 0.42567 0.0061 0.0
C675 C 0.43354 0.44917 0.92549 0.0
C676 C 0.41095 0.43845 0.89401 0.0
C677 C 0.40388 0.44313 0.81608 0.0
C678 C 0.42052 0.45865 0.76822 0.0
C679 C 0.4441 0.4692 0.79807 0.0
C680 C 0.45036 0.46499 0.87849 0.0
H681 H 0.13566 0.47527 0.96677 0.0
H682 H 0.19683 0.51647 0.83231 0.0
H683 H 0.16609 0.53154 0.74146 0.0
H684 H 0.09905 0.45429 0.80008 0.0
H685 H 0.06897 0.45787 0.8491 0.0
H686 H 0.09558 0.45208 0.90822 0.0
H687 H 0.09009 0.49251 0.99531 0.0
H688 H 0.06346 0.49847 0.93612 0.0
H689 H 0.08983 0.52231 0.94681 0.0
H690 H 0.12991 0.53863 0.65746 0.0
H691 H 0.08993 0.5374 0.58475 0.0
H692 H 0.05149 0.49304 0.77468 0.0
C693 C 0.14254 0.48759 0.9185 0.0
C694 C 0.16865 0.49459 0.90632 0.0
C695 C 0.17692 0.51082 0.84278 0.0
C696 C 0.1596 0.51959 0.791 0.0
C697 C 0.13405 0.51222 0.80413 0.0
C698 C 0.12545 0.4967 0.86642 0.0
C699 C 0.09702 0.49067 0.86449 0.0
C700 C 0.08974 0.46203 0.85487 0.0
C701 C 0.08436 0.50165 0.94018 0.0
C702 C 0.09118 0.50441 0.78947 0.0
C703 C 0.11283 0.51693 0.75625 0.0
C704 C 0.11272 0.52931 0.68348 0.0
C705 C 0.08997 0.52844 0.64255 0.0
C706 C 0.06764 0.51539 0.67465 0.0
C707 C 0.06817 0.5037 0.7499 0.0
H708 H 0.96853 0.87957 0.2271 0.0
H709 H 0.90047 0.8463 0.34843 0.0
H710 H 0.90253 0.88241 0.44542 0.0
H711 H 0.00051 0.90105 0.40142 0.0
H712 H 0.01512 0.92996 0.35964 0.0
H713 H 0.00676 0.90299 0.29425 0.0
H714 H 0.98005 0.9299 0.20877 0.0
H715 H 0.9883 0.95697 0.27434 0.0
H716 H 0.95557 0.94632 0.25737 0.0
H717 H 0.91408 0.91931 0.53683 0.0
H718 H 0.93502 0.95433 0.6191 0.0
H719 H 0.99531 0.96455 0.43848 0.0
C720 C 0.95385 0.88005 0.27334 0.0
C721 C 0.93431 0.86009 0.2801 0.0
C722 C 0.91561 0.86134 0.34197 0.0
C723 C 0.91653 0.88185 0.39713 0.0
C724 C 0.93617 0.90106 0.38935 0.0
C725 C 0.95448 0.90042 0.329 0.0
C726 C 0.97454 0.92263 0.33769 0.0
C727 C 0.00077 0.91361 0.34895 0.0
C728 C 0.97461 0.93998 0.26523 0.0
C729 C 0.9651 0.93534 0.41403 0.0
C730 C 0.94274 0.92274 0.4421 0.0
C731 C 0.93134 0.92961 0.51484 0.0
C732 C 0.9434 0.94949 0.5612 0.0
C733 C 0.96662 0.96228 0.53467 0.0
C734 C 0.97725 0.95551 0.45917 0.0
H735 H 0.64838 0.02185 0.21621 0.0
H736 H 0.66112 0.94269 0.18998 0.0
H737 H 0.62273 0.93108 0.27173 0.0
H738 H 0.62448 0.01876 0.42343 0.0
H739 H 0.60083 0.04014 0.41022 0.0
H740 H 0.62975 0.04331 0.35082 0.0
H741 H 0.60508 0.03967 0.21835 0.0
H742 H 0.57585 0.03729 0.27584 0.0
H743 H 0.58178 0.01315 0.2012 0.0
H744 H 0.58157 0.92749 0.34567 0.0
H745 H 0.54061 0.93252 0.4144 0.0
H746 H 0.55522 0.01389 0.40002 0.0
C747 C 0.6432 0.00211 0.22831 0.0
C748 C 0.65774 0.98318 0.19672 0.0
C749 C 0.65033 0.95754 0.2137 0.0
C750 C 0.62855 0.95073 0.26012 0.0
C751 C 0.61454 0.96978 0.28979 0.0
C752 C 0.62159 0.99495 0.27525 0.0
C753 C 0.60276 0.01158 0.31297 0.0
C754 C 0.61519 0.02951 0.37827 0.0
C755 C 0.59065 0.02628 0.24822 0.0
C756 C 0.58383 0.99172 0.34954 0.0
C757 C 0.59101 0.96774 0.33519 0.0
C758 C 0.57586 0.94617 0.35824 0.0
C759 C 0.55263 0.94918 0.39667 0.0
C760 C 0.54502 0.97356 0.41229 0.0
C761 C 0.5609 0.99509 0.3894 0.0
H762 H 0.58708 0.66429 0.35175 0.0
H763 H 0.55971 0.64206 0.11277 0.0
H764 H 0.54367 0.60014 0.16251 0.0
H765 H 0.60592 0.60395 0.40812 0.0
H766 H 0.59465 0.60677 0.51112 0.0
H767 H 0.60542 0.6347 0.45645 0.0
H768 H 0.56289 0.65252 0.48676 0.0
H769 H 0.55113 0.62466 0.54019 0.0
H770 H 0.5339 0.63455 0.45671 0.0
H771 H 0.52953 0.5611 0.23897 0.0
H772 H 0.51543 0.52897 0.33905 0.0
H773 H 0.55149 0.57705 0.52831 0.0
C774 C 0.57789 0.65054 0.30978 0.0
C775 C 0.57482 0.65635 0.22829 0.0
C776 C 0.5623 0.638 0.17548 0.0
C777 C 0.55325 0.61408 0.20303 0.0
C778 C 0.55667 0.60891 0.28366 0.0
C779 C 0.56846 0.62669 0.33651 0.0
C780 C 0.5682 0.61693 0.42141 0.0
C781 C 0.59516 0.6155 0.45097 0.0
C782 C 0.55315 0.63313 0.47967 0.0
C783 C 0.55454 0.59087 0.40784 0.0
C784 C 0.54818 0.58654 0.32797 0.0
C785 C 0.53454 0.5642 0.30164 0.0
C786 C 0.52667 0.54603 0.35893 0.0
C787 C 0.5324 0.55042 0.44151 0.0
C788 C 0.54698 0.57295 0.4656 0.0
H789 H 0.87512 0.50408 0.05 0.0
H790 H 0.81372 0.46513 0.18921 0.0
H791 H 0.84417 0.4543 0.28929 0.0
H792 H 0.92364 0.46056 0.09571 0.0
H793 H 0.94836 0.48631 0.10077 0.0
H794 H 0.92226 0.48773 0.03428 0.0
H795 H 0.91304 0.53041 0.10189 0.0
H796 H 0.93889 0.52907 0.16888 0.0
H797 H 0.90766 0.53234 0.20966 0.0
H798 H 0.87968 0.45392 0.3841 0.0
H799 H 0.91855 0.46142 0.46326 0.0
H800 H 0.95739 0.49889 0.26021 0.0
C801 C 0.86814 0.49277 0.10058 0.0
C802 C 0.84207 0.48548 0.11205 0.0
C803 C 0.83364 0.47082 0.17912 0.0
C804 C 0.85079 0.46456 0.23622 0.0
C805 C 0.87629 0.47273 0.22447 0.0
C806 C 0.88502 0.48617 0.15767 0.0
C807 C 0.91307 0.49429 0.16221 0.0
C808 C 0.9277 0.48145 0.0942 0.0
C809 C 0.91846 0.52324 0.1606 0.0
C810 C 0.91852 0.48431 0.24382 0.0
C811 C 0.89708 0.47177 0.27841 0.0
C812 C 0.89674 0.46313 0.35694 0.0
C813 C 0.91883 0.4676 0.40154 0.0
C814 C 0.94094 0.48044 0.36724 0.0
C815 C 0.94089 0.48846 0.28695 0.0
loop_
_geom_bond_atom_site_label_1
_geom_bond_atom_site_label_2
_geom_bond_distance
_geom_bond_site_symmetry_2
_ccdc_geom_bond_type
O0 Cd1 2.302 . S
O0 C7 1.275 . S
Cd1 O0 2.302 . S
Cd1 O9 2.383 . S
Cd1 O10 2.378 1_556 S
O2 Cd3 2.385 . S
O2 C7 1.255 1_554 S
Cd3 O2 2.385 . S
Cd3 O4 2.317 . S
O4 Cd3 2.317 . S
O4 C5 1.232 . S
C5 O4 1.232 . S
C5 O6 1.218 . S
O6 C5 1.218 . S
C7 O0 1.275 . S
C7 O2 1.255 1_556 S
C8 O9 1.258 . S
C8 O10 1.256 1_556 S
O9 Cd1 2.383 . S
O9 C8 1.258 . S
O10 Cd1 2.378 1_554 S
O10 C8 1.256 1_554 S
O11 Cd12 2.300 . S
O11 C18 1.275 . S
Cd12 O11 2.300 . S
Cd12 O20 2.381 . S
Cd12 O21 2.378 1_556 S
O13 Cd14 2.385 1_656 S
O13 C18 1.255 . S
Cd14 O13 2.385 1_454 S
Cd14 O15 2.317 1_455 S
O15 Cd14 2.317 1_655 S
O15 C16 1.232 . S
C16 O15 1.232 . S
C16 O17 1.218 . S
O17 C16 1.218 . S
C18 O11 1.275 . S
C18 O13 1.255 . S
C19 O20 1.258 . S
C19 O21 1.256 1_556 S
O20 Cd12 2.381 . S
O20 C19 1.258 . S
O21 Cd12 2.378 1_554 S
O21 C19 1.256 1_554 S
O22 Cd23 2.300 1_565 S
O22 C29 1.275 . S
Cd23 O22 2.300 1_545 S
Cd23 O31 2.381 1_545 S
Cd23 O32 2.378 1_556 S
O24 Cd25 2.385 1_556 S
O24 C29 1.255 1_545 S
Cd25 O24 2.385 1_554 S
Cd25 O26 2.317 . S
O26 Cd25 2.317 . S
O26 C27 1.232 1_545 S
C27 O26 1.232 1_565 S
C27 O28 1.218 1_565 S
O28 C27 1.218 1_545 S
C29 O22 1.275 . S
C29 O24 1.255 1_565 S
C30 O31 1.258 . S
C30 O32 1.256 1_566 S
O31 Cd23 2.381 1_565 S
O31 C30 1.258 . S
O32 Cd23 2.378 1_554 S
O32 C30 1.256 1_544 S
O33 Cd34 2.300 1_556 S
O33 C40 1.275 . S
Cd34 O33 2.300 1_554 S
Cd34 O42 2.381 1_554 S
Cd34 O43 2.378 . S
O35 Cd36 2.385 . S
O35 C40 1.255 1_554 S
Cd36 O35 2.385 . S
Cd36 O37 2.317 . S
O37 Cd36 2.317 . S
O37 C38 1.232 . S
C38 O37 1.232 . S
C38 O39 1.218 . S
O39 C38 1.218 . S
C40 O33 1.275 . S
C40 O35 1.255 1_556 S
C41 O42 1.258 1_554 S
C41 O43 1.256 . S
O42 Cd34 2.381 1_556 S
O42 C41 1.258 1_556 S
O43 Cd34 2.378 . S
O43 C41 1.256 . S
O44 Cd45 2.300 . S
O44 C51 1.275 . S
Cd45 O44 2.300 . S
Cd45 O53 2.381 . S
Cd45 O54 2.378 . S
O46 Cd47 2.385 . S
O46 C51 1.255 . S
Cd47 O46 2.385 . S
Cd47 O48 2.317 1_554 S
O48 Cd47 2.317 1_556 S
O48 C49 1.232 . S
C49 O48 1.232 . S
C49 O50 1.218 . S
O50 C49 1.218 . S
C51 O44 1.275 . S
C51 O46 1.255 . S
C52 O53 1.258 . S
C52 O54 1.256 . S
O53 Cd45 2.381 . S
O53 C52 1.258 . S
O54 Cd45 2.378 . S
O54 C52 1.256 . S
O55 Cd56 2.300 . S
O55 C62 1.275 . S
Cd56 O55 2.300 . S
Cd56 O64 2.381 . S
Cd56 O65 2.378 . S
O57 Cd58 2.385 . S
O57 C62 1.255 . S
Cd58 O57 2.385 . S
Cd58 O59 2.325 . S
O59 Cd58 2.325 . S
O59 C60 1.227 1_554 S
C60 O59 1.227 1_556 S
C60 O61 1.218 . S
O61 C60 1.218 . S
C62 O55 1.275 . S
C62 O57 1.255 . S
C63 O64 1.258 . S
C63 O65 1.256 . S
O64 Cd56 2.381 . S
O64 C63 1.258 . S
O65 Cd56 2.378 . S
O65 C63 1.256 . S
O66 Cd67 2.300 . S
O66 C73 1.275 . S
Cd67 O66 2.300 . S
Cd67 O75 2.381 . S
Cd67 O76 2.378 . S
O68 Cd69 2.385 . S
O68 C73 1.255 . S
Cd69 O68 2.385 . S
Cd69 O70 2.317 . S
O70 Cd69 2.317 . S
O70 C71 1.232 1_554 S
C71 O70 1.232 1_556 S
C71 O72 1.218 . S
O72 C71 1.218 . S
C73 O66 1.275 . S
C73 O68 1.255 . S
C74 O75 1.258 . S
C74 O76 1.256 . S
O75 Cd67 2.381 . S
O75 C74 1.258 . S
O76 Cd67 2.378 . S
O76 C74 1.256 . S
O77 Cd78 2.300 . S
O77 C84 1.275 . S
Cd78 O77 2.300 . S
Cd78 O86 2.381 . S
Cd78 O87 2.378 . S
O79 Cd80 2.385 . S
O79 C84 1.255 . S
Cd80 O79 2.385 . S
Cd80 O81 2.317 1_554 S
O81 Cd80 2.317 1_556 S
O81 C82 1.232 . S
C82 O81 1.232 . S
C82 O83 1.218 . S
O83 C82 1.218 . S
C84 O77 1.275 . S
C84 O79 1.255 . S
C85 O86 1.258 . S
C85 O87 1.256 . S
O86 Cd78 2.381 . S
O86 C85 1.258 . S
O87 Cd78 2.378 . S
O87 C85 1.256 . S
Dy88 O92 2.398 . S
Dy88 O93 2.491 1_455 S
Dy88 O94 2.403 . S
Dy88 O95 2.664 1_565 S
Dy88 O99 2.326 . S
Dy88 O103 2.310 1_455 S
Dy88 O104 2.351 1_565 S
C89 O100 1.185 1_455 S
C89 O101 1.355 . S
C90 O92 1.185 . S
C90 O93 1.355 1_455 S
Dy91 O95 2.310 1_655 S
Dy91 O98 2.351 1_545 S
Dy91 O100 2.398 . S
Dy91 O101 2.491 1_655 S
Dy91 O102 2.403 . S
Dy91 O103 2.664 1_545 S
Dy91 O105 2.326 1_655 S
O92 Dy88 2.398 . S
O92 C90 1.185 . S
O93 Dy88 2.491 1_655 S
O93 C90 1.355 1_655 S
O94 Dy88 2.403 . S
O94 C96 1.225 1_565 S
O95 Dy88 2.664 1_545 S
O95 Dy91 2.310 1_455 S
O95 C96 1.287 . S
C96 O94 1.225 1_545 S
C96 O95 1.287 . S
C97 O102 1.254 . S
C97 O103 1.268 1_545 S
O98 Dy91 2.351 1_565 S
O98 C106 1.249 . S
O99 Dy88 2.326 . S
O99 C106 1.267 1_455 S
O100 C89 1.185 1_655 S
O100 Dy91 2.398 . S
O101 C89 1.355 . S
O101 Dy91 2.491 1_455 S
O102 Dy91 2.403 . S
O102 C97 1.254 . S
O103 Dy88 2.310 1_655 S
O103 Dy91 2.664 1_565 S
O103 C97 1.268 1_565 S
O104 Dy88 2.351 1_545 S
O104 C107 1.249 . S
O105 Dy91 2.326 1_455 S
O105 C107 1.267 . S
C106 O98 1.249 . S
C106 O99 1.267 1_655 S
C107 O104 1.249 . S
C107 O105 1.267 . S
Dy108 O112 2.398 . S
Dy108 O113 2.491 1_565 S
Dy108 O114 2.403 . S
Dy108 O115 2.672 . S
Dy108 O119 2.326 1_565 S
Dy108 O123 2.310 1_565 S
Dy108 O124 2.351 . S
C109 O120 1.185 . S
C109 O121 1.355 . S
C110 O112 1.185 . S
C110 O113 1.355 1_565 S
Dy111 O115 2.291 1_545 S
Dy111 O118 2.351 . S
Dy111 O120 2.398 . S
Dy111 O121 2.491 . S
Dy111 O122 2.403 . S
Dy111 O123 2.664 . S
Dy111 O125 2.326 1_545 S
O112 Dy108 2.398 . S
O112 C110 1.185 . S
O113 Dy108 2.491 1_545 S
O113 C110 1.355 1_545 S
O114 Dy108 2.403 . S
O114 C116 1.254 . S
O115 Dy108 2.672 . S
O115 Dy111 2.291 1_565 S
O115 C116 1.279 . S
C116 O114 1.254 . S
C116 O115 1.279 . S
C117 O122 1.254 . S
C117 O123 1.268 . S
O118 Dy111 2.351 . S
O118 C126 1.249 . S
O119 Dy108 2.326 1_545 S
O119 C126 1.267 . S
O120 C109 1.185 . S
O120 Dy111 2.398 . S
O121 C109 1.355 . S
O121 Dy111 2.491 . S
O122 Dy111 2.403 . S
O122 C117 1.254 . S
O123 Dy108 2.310 1_545 S
O123 Dy111 2.664 . S
O123 C117 1.268 . S
O124 Dy108 2.351 . S
O124 C127 1.249 . S
O125 Dy111 2.326 1_565 S
O125 C127 1.267 . S
C126 O118 1.249 . S
C126 O119 1.267 . S
C127 O124 1.249 . S
C127 O125 1.267 . S
Dy128 O132 2.398 . S
Dy128 O133 2.491 . S
Dy128 O134 2.403 . S
Dy128 O135 2.664 . S
Dy128 O139 2.326 . S
Dy128 O143 2.310 . S
Dy128 O144 2.351 . S
C129 O140 1.185 . S
C129 O141 1.355 . S
C130 O132 1.185 . S
C130 O133 1.355 . S
Dy131 O135 2.310 . S
Dy131 O138 2.351 . S
Dy131 O140 2.398 . S
Dy131 O141 2.491 . S
Dy131 O142 2.403 . S
Dy131 O143 2.664 . S
Dy131 O145 2.326 . S
O132 Dy128 2.398 . S
O132 C130 1.185 . S
O133 Dy128 2.491 . S
O133 C130 1.355 . S
O134 Dy128 2.403 . S
O134 C136 1.254 . S
O135 Dy128 2.664 . S
O135 Dy131 2.310 . S
O135 C136 1.268 . S
C136 O134 1.254 . S
C136 O135 1.268 . S
C137 O142 1.254 . S
C137 O143 1.268 . S
O138 Dy131 2.351 . S
O138 C146 1.249 . S
O139 Dy128 2.326 . S
O139 C146 1.267 . S
O140 C129 1.185 . S
O140 Dy131 2.398 . S
O141 C129 1.355 . S
O141 Dy131 2.491 . S
O142 Dy131 2.403 . S
O142 C137 1.254 . S
O143 Dy128 2.310 . S
O143 Dy131 2.664 . S
O143 C137 1.268 . S
O144 Dy128 2.351 . S
O144 C147 1.249 . S
O145 Dy131 2.326 . S
O145 C147 1.267 . S
C146 O138 1.249 . S
C146 O139 1.267 . S
C147 O144 1.249 . S
C147 O145 1.267 . S
Dy148 O152 2.398 . S
Dy148 O153 2.491 . S
Dy148 O154 2.403 . S
Dy148 O155 2.664 1_655 S
Dy148 O159 2.326 . S
Dy148 O163 2.310 . S
Dy148 O164 2.351 1_655 S
C149 O160 1.185 . S
C149 O161 1.355 . S
C150 O152 1.185 . S
C150 O153 1.355 . S
Dy151 O155 2.310 . S
Dy151 O158 2.351 1_455 S
Dy151 O160 2.398 . S
Dy151 O161 2.491 . S
Dy151 O162 2.403 . S
Dy151 O163 2.664 1_455 S
Dy151 O165 2.326 . S
O152 Dy148 2.398 . S
O152 C150 1.185 . S
O153 Dy148 2.491 . S
O153 C150 1.355 . S
O154 Dy148 2.403 . S
O154 C156 1.254 1_655 S
O155 Dy148 2.664 1_455 S
O155 Dy151 2.310 . S
O155 C156 1.268 . S
C156 O154 1.254 1_455 S
C156 O155 1.268 . S
C157 O162 1.254 . S
C157 O163 1.268 1_455 S
O158 Dy151 2.351 1_655 S
O158 C166 1.249 . S
O159 Dy148 2.326 . S
O159 C166 1.267 . S
O160 C149 1.185 . S
O160 Dy151 2.398 . S
O161 C149 1.355 . S
O161 Dy151 2.491 . S
O162 Dy151 2.403 . S
O162 C157 1.254 . S
O163 Dy148 2.310 . S
O163 Dy151 2.664 1_655 S
O163 C157 1.268 1_655 S
O164 Dy148 2.351 1_455 S
O164 C167 1.249 . S
O165 Dy151 2.326 . S
O165 C167 1.267 . S
C166 O158 1.249 . S
C166 O159 1.267 . S
C167 O164 1.249 . S
C167 O165 1.267 . S
H168 C180 0.930 . S
H169 C182 0.930 . S
H170 C183 0.930 . S
H171 C187 0.959 . S
H172 C187 0.959 . S
H173 C187 0.961 . S
H174 C188 0.960 . S
H175 C188 0.961 . S
H176 C188 0.959 . S
H177 C191 0.929 . S
H178 C192 0.931 . S
H179 C194 0.930 . S
C180 H168 0.930 . S
C180 C181 1.399 . S
C180 C185 1.399 . S
C181 C180 1.399 . S
C181 C182 1.376 1_545 S
C182 H169 0.930 . S
C182 C181 1.376 1_565 S
C182 C183 1.388 . S
C183 H170 0.930 . S
C183 C182 1.388 . S
C183 C184 1.369 1_565 S
C184 C183 1.369 1_545 S
C184 C185 1.421 . S
C184 C190 1.464 1_545 S
C185 C180 1.399 . S
C185 C184 1.421 . S
C185 C186 1.516 . S
C186 C185 1.516 . S
C186 C187 1.502 . S
C186 C188 1.561 . S
C186 C189 1.526 . S
C187 H171 0.959 . S
C187 H172 0.959 . S
C187 H173 0.961 . S
C187 C186 1.502 . S
C188 H174 0.960 . S
C188 H175 0.961 . S
C188 H176 0.959 . S
C188 C186 1.561 . S
C189 C186 1.526 . S
C189 C190 1.396 1_545 S
C189 C194 1.390 . S
C190 C184 1.464 1_565 S
C190 C189 1.396 1_565 S
C190 C191 1.399 . S
C191 H177 0.929 . S
C191 C190 1.399 . S
C191 C192 1.385 . S
C192 H178 0.931 . S
C192 C191 1.385 . S
C192 C193 1.389 1_565 S
C193 C192 1.389 1_545 S
C193 C194 1.387 . S
C194 H179 0.930 . S
C194 C189 1.390 . S
C194 C193 1.387 . S
H195 C207 0.930 . S
H196 C209 0.930 . S
H197 C210 0.930 . S
H198 C214 0.959 . S
H199 C214 0.959 . S
H200 C214 0.961 . S
H201 C215 0.960 . S
H202 C215 0.961 . S
H203 C215 0.959 . S
H204 C218 0.929 . S
H205 C219 0.931 . S
H206 C221 0.930 . S
C207 H195 0.930 . S
C207 C208 1.399 . S
C207 C212 1.399 . S
C208 C207 1.399 . S
C208 C209 1.376 . S
C209 H196 0.930 . S
C209 C208 1.376 . S
C209 C210 1.388 . S
C210 H197 0.930 . S
C210 C209 1.388 . S
C210 C211 1.390 . S
C211 C210 1.390 . S
C211 C212 1.394 . S
C211 C217 1.465 . S
C212 C207 1.399 . S
C212 C211 1.394 . S
C212 C213 1.516 . S
C213 C212 1.516 . S
C213 C214 1.502 . S
C213 C215 1.561 . S
C213 C216 1.526 . S
C214 H198 0.959 . S
C214 H199 0.959 . S
C214 H200 0.961 . S
C214 C213 1.502 . S
C215 H201 0.960 . S
C215 H202 0.961 . S
C215 H203 0.959 . S
C215 C213 1.561 . S
C216 C213 1.526 . S
C216 C217 1.396 . S
C216 C221 1.390 . S
C217 C211 1.465 . S
C217 C216 1.396 . S
C217 C218 1.399 . S
C218 H204 0.929 . S
C218 C217 1.399 . S
C218 C219 1.385 . S
C219 H205 0.931 . S
C219 C218 1.385 . S
C219 C220 1.389 . S
C220 C219 1.389 . S
C220 C221 1.387 . S
C221 H206 0.930 . S
C221 C216 1.390 . S
C221 C220 1.387 . S
H222 C234 0.930 . S
H223 C236 0.930 . S
H224 C237 0.930 . S
H225 C241 0.959 . S
H226 C241 0.959 . S
H227 C241 0.961 . S
H228 C242 0.960 . S
H229 C242 0.961 . S
H230 C242 0.959 . S
H231 C245 0.929 . S
H232 C246 0.931 . S
H233 C248 0.930 . S
C234 H222 0.930 . S
C234 C235 1.399 . S
C234 C239 1.399 . S
C235 C234 1.399 . S
C235 C236 1.376 . S
C236 H223 0.930 . S
C236 C235 1.376 . S
C236 C237 1.388 . S
C237 H224 0.930 . S
C237 C236 1.388 . S
C237 C238 1.390 . S
C238 C237 1.390 . S
C238 C239 1.394 . S
C238 C244 1.465 . S
C239 C234 1.399 . S
C239 C238 1.394 . S
C239 C240 1.516 . S
C240 C239 1.516 . S
C240 C241 1.502 . S
C240 C242 1.561 . S
C240 C243 1.526 . S
C241 H225 0.959 . S
C241 H226 0.959 . S
C241 H227 0.961 . S
C241 C240 1.502 . S
C242 H228 0.960 . S
C242 H229 0.961 . S
C242 H230 0.959 . S
C242 C240 1.561 . S
C243 C240 1.526 . S
C243 C244 1.396 . S
C243 C248 1.390 . S
C244 C238 1.465 . S
C244 C243 1.396 . S
C244 C245 1.399 . S
C245 H231 0.929 . S
C245 C244 1.399 . S
C245 C246 1.385 . S
C246 H232 0.931 . S
C246 C245 1.385 . S
C246 C247 1.389 . S
C247 C246 1.389 . S
C247 C248 1.387 . S
C248 H233 0.930 . S
C248 C243 1.390 . S
C248 C247 1.387 . S
H249 C261 0.930 . S
H250 C263 0.930 . S
H251 C264 0.930 . S
H252 C268 0.959 . S
H253 C268 0.959 . S
H254 C268 0.961 . S
H255 C269 0.959 . S
H256 C269 0.959 1_655 S
H257 C269 0.956 1_655 S
H258 C272 0.929 . S
H259 C273 0.931 . S
H260 C275 0.930 . S
C261 H249 0.930 . S
C261 C262 1.399 . S
C261 C266 1.399 . S
C262 C261 1.399 . S
C262 C263 1.376 . S
C263 H250 0.930 . S
C263 C262 1.376 . S
C263 C264 1.388 . S
C264 H251 0.930 . S
C264 C263 1.388 . S
C264 C265 1.390 . S
C265 C264 1.390 . S
C265 C266 1.394 . S
C265 C271 1.465 . S
C266 C261 1.399 . S
C266 C265 1.394 . S
C266 C267 1.516 . S
C267 C266 1.516 . S
C267 C268 1.502 . S
C267 C269 1.566 . S
C267 C270 1.526 . S
C268 H252 0.959 . S
C268 H253 0.959 . S
C268 H254 0.961 . S
C268 C267 1.502 . S
C269 H255 0.959 . S
C269 H256 0.959 1_455 S
C269 H257 0.956 1_455 S
C269 C267 1.566 . S
C270 C267 1.526 . S
C270 C271 1.396 . S
C270 C275 1.390 . S
C271 C265 1.465 . S
C271 C270 1.396 . S
C271 C272 1.399 . S
C272 H258 0.929 . S
C272 C271 1.399 . S
C272 C273 1.385 . S
C273 H259 0.931 . S
C273 C272 1.385 . S
C273 C274 1.389 . S
C274 C273 1.389 . S
C274 C275 1.387 . S
C275 H260 0.930 . S
C275 C270 1.390 . S
C275 C274 1.387 . S
H276 C288 0.930 . S
H277 C290 0.930 . S
H278 C291 0.930 . S
H279 C295 0.959 . S
H280 C295 0.959 . S
H281 C295 0.961 . S
H282 C296 0.960 . S
H283 C296 0.961 . S
H284 C296 0.959 . S
H285 C299 0.929 . S
H286 C300 0.931 . S
H287 C302 0.930 . S
C288 H276 0.930 . S
C288 C289 1.399 . S
C288 C293 1.399 . S
C289 C288 1.399 . S
C289 C290 1.376 1_565 S
C290 H277 0.930 . S
C290 C289 1.376 1_545 S
C290 C291 1.388 . S
C291 H278 0.930 . S
C291 C290 1.388 . S
C291 C292 1.390 . S
C292 C291 1.390 . S
C292 C293 1.394 1_545 S
C292 C298 1.465 . S
C293 C288 1.399 . S
C293 C292 1.394 1_565 S
C293 C294 1.516 . S
C294 C293 1.516 . S
C294 C295 1.502 . S
C294 C296 1.561 . S
C294 C297 1.526 . S
C295 H279 0.959 . S
C295 H280 0.959 . S
C295 H281 0.961 . S
C295 C294 1.502 . S
C296 H282 0.960 . S
C296 H283 0.961 . S
C296 H284 0.959 . S
C296 C294 1.561 . S
C297 C294 1.526 . S
C297 C298 1.396 1_565 S
C297 C302 1.390 . S
C298 C292 1.465 . S
C298 C297 1.396 1_545 S
C298 C299 1.399 . S
C299 H285 0.929 . S
C299 C298 1.399 . S
C299 C300 1.385 . S
C300 H286 0.931 . S
C300 C299 1.385 . S
C300 C301 1.389 . S
C301 C300 1.389 . S
C301 C302 1.387 1_545 S
C302 H287 0.930 . S
C302 C297 1.390 . S
C302 C301 1.387 1_565 S
H303 C315 0.930 . S
H304 C317 0.930 1_554 S
H305 C318 0.930 . S
H306 C322 0.959 . S
H307 C322 0.959 . S
H308 C322 0.961 . S
H309 C323 0.960 . S
H310 C323 0.961 . S
H311 C323 0.959 . S
H312 C326 0.929 . S
H313 C327 0.931 . S
H314 C329 0.930 . S
C315 H303 0.930 . S
C315 C316 1.399 . S
C315 C320 1.399 . S
C316 C315 1.399 . S
C316 C317 1.376 . S
C317 H304 0.930 1_556 S
C317 C316 1.376 . S
C317 C318 1.388 . S
C318 H305 0.930 . S
C318 C317 1.388 . S
C318 C319 1.390 . S
C319 C318 1.390 . S
C319 C320 1.394 . S
C319 C325 1.465 . S
C320 C315 1.399 . S
C320 C319 1.394 . S
C320 C321 1.516 . S
C321 C320 1.516 . S
C321 C322 1.502 . S
C321 C323 1.561 . S
C321 C324 1.526 . S
C322 H306 0.959 . S
C322 H307 0.959 . S
C322 H308 0.961 . S
C322 C321 1.502 . S
C323 H309 0.960 . S
C323 H310 0.961 . S
C323 H311 0.959 . S
C323 C321 1.561 . S
C324 C321 1.526 . S
C324 C325 1.396 . S
C324 C329 1.390 . S
C325 C319 1.465 . S
C325 C324 1.396 . S
C325 C326 1.399 . S
C326 H312 0.929 . S
C326 C325 1.399 . S
C326 C327 1.385 . S
C327 H313 0.931 . S
C327 C326 1.385 . S
C327 C328 1.389 . S
C328 C327 1.389 . S
C328 C329 1.387 . S
C329 H314 0.930 . S
C329 C324 1.390 . S
C329 C328 1.387 . S
H330 C342 0.930 . S
H331 C344 0.930 . S
H332 C345 0.930 . S
H333 C349 0.959 . S
H334 C349 0.959 . S
H335 C349 0.961 . S
H336 C350 0.960 . S
H337 C350 0.961 . S
H338 C350 0.959 . S
H339 C353 0.929 . S
H340 C354 0.931 . S
H341 C356 0.930 . S
C342 H330 0.930 . S
C342 C343 1.399 . S
C342 C347 1.399 . S
C343 C342 1.399 . S
C343 C344 1.376 . S
C344 H331 0.930 . S
C344 C343 1.376 . S
C344 C345 1.388 . S
C345 H332 0.930 . S
C345 C344 1.388 . S
C345 C346 1.390 . S
C346 C345 1.390 . S
C346 C347 1.394 . S
C346 C352 1.465 . S
C347 C342 1.399 . S
C347 C346 1.394 . S
C347 C348 1.516 . S
C348 C347 1.516 . S
C348 C349 1.502 . S
C348 C350 1.561 . S
C348 C351 1.526 . S
C349 H333 0.959 . S
C349 H334 0.959 . S
C349 H335 0.961 . S
C349 C348 1.502 . S
C350 H336 0.960 . S
C350 H337 0.961 . S
C350 H338 0.959 . S
C350 C348 1.561 . S
C351 C348 1.526 . S
C351 C352 1.396 . S
C351 C356 1.390 . S
C352 C346 1.465 . S
C352 C351 1.396 . S
C352 C353 1.399 . S
C353 H339 0.929 . S
C353 C352 1.399 . S
C353 C354 1.385 . S
C354 H340 0.931 . S
C354 C353 1.385 . S
C354 C355 1.389 . S
C355 C354 1.389 . S
C355 C356 1.387 . S
C356 H341 0.930 . S
C356 C351 1.390 . S
C356 C355 1.387 . S
H357 C369 0.930 . S
H358 C371 0.930 . S
H359 C372 0.930 . S
H360 C376 0.959 . S
H361 C376 0.959 . S
H362 C376 0.961 . S
H363 C377 0.959 1_455 S
H364 C377 0.953 1_455 S
H365 C377 0.969 . S
H366 C380 0.929 . S
H367 C381 0.931 . S
H368 C383 0.930 . S
C369 H357 0.930 . S
C369 C370 1.399 . S
C369 C374 1.399 . S
C370 C369 1.399 . S
C370 C371 1.376 . S
C371 H358 0.930 . S
C371 C370 1.376 . S
C371 C372 1.388 . S
C372 H359 0.930 . S
C372 C371 1.388 . S
C372 C373 1.390 . S
C373 C372 1.390 . S
C373 C374 1.394 . S
C373 C379 1.465 . S
C374 C369 1.399 . S
C374 C373 1.394 . S
C374 C375 1.516 1_655 S
C375 C374 1.516 1_455 S
C375 C376 1.502 . S
C375 C377 1.560 1_455 S
C375 C378 1.526 1_455 S
C376 H360 0.959 . S
C376 H361 0.959 . S
C376 H362 0.961 . S
C376 C375 1.502 . S
C377 H363 0.959 1_655 S
C377 H364 0.953 1_655 S
C377 H365 0.969 . S
C377 C375 1.560 1_655 S
C378 C375 1.526 1_655 S
C378 C379 1.396 . S
C378 C383 1.390 1_655 S
C379 C373 1.465 . S
C379 C378 1.396 . S
C379 C380 1.399 . S
C380 H366 0.929 . S
C380 C379 1.399 . S
C380 C381 1.385 . S
C381 H367 0.931 . S
C381 C380 1.385 . S
C381 C382 1.389 . S
C382 C381 1.389 . S
C382 C383 1.387 1_655 S
C383 H368 0.930 . S
C383 C378 1.390 1_455 S
C383 C382 1.387 1_455 S
H384 C396 0.930 . S
H385 C398 0.930 . S
H386 C399 0.930 . S
H387 C403 0.959 . S
H388 C403 0.959 . S
H389 C403 0.961 . S
H390 C404 0.960 . S
H391 C404 0.961 . S
H392 C404 0.959 . S
H393 C407 0.929 . S
H394 C408 0.931 . S
H395 C410 0.929 . S
C396 H384 0.930 . S
C396 C397 1.399 . S
C396 C401 1.399 . S
C397 C396 1.399 . S
C397 C398 1.376 . S
C398 H385 0.930 . S
C398 C397 1.376 . S
C398 C399 1.388 . S
C399 H386 0.930 . S
C399 C398 1.388 . S
C399 C400 1.390 . S
C400 C399 1.390 . S
C400 C401 1.394 . S
C400 C406 1.465 . S
C401 C396 1.399 . S
C401 C400 1.394 . S
C401 C402 1.516 . S
C402 C401 1.516 . S
C402 C403 1.502 1_455 S
C402 C404 1.561 . S
C402 C405 1.526 . S
C403 H387 0.959 . S
C403 H388 0.959 . S
C403 H389 0.961 . S
C403 C402 1.502 1_655 S
C404 H390 0.960 . S
C404 H391 0.961 . S
C404 H392 0.959 . S
C404 C402 1.561 . S
C405 C402 1.526 . S
C405 C406 1.396 . S
C405 C410 1.390 . S
C406 C400 1.465 . S
C406 C405 1.396 . S
C406 C407 1.399 . S
C407 H393 0.929 . S
C407 C406 1.399 . S
C407 C408 1.385 . S
C408 H394 0.931 . S
C408 C407 1.385 . S
C408 C409 1.389 . S
C409 C408 1.389 . S
C409 C410 1.387 . S
C410 H395 0.929 . S
C410 C405 1.390 . S
C410 C409 1.387 . S
H411 C423 0.930 1_565 S
H412 C425 0.930 . S
H413 C426 0.930 . S
H414 C430 0.959 . S
H415 C430 0.959 . S
H416 C430 0.961 . S
H417 C431 0.960 . S
H418 C431 0.961 1_565 S
H419 C431 0.959 . S
H420 C434 0.929 . S
H421 C435 0.931 . S
H422 C437 0.930 . S
C423 H411 0.930 1_545 S
C423 C424 1.399 . S
C423 C428 1.399 . S
C424 C423 1.399 . S
C424 C425 1.376 . S
C425 H412 0.930 . S
C425 C424 1.376 . S
C425 C426 1.388 . S
C426 H413 0.930 . S
C426 C425 1.388 . S
C426 C427 1.390 . S
C427 C426 1.390 . S
C427 C428 1.394 . S
C427 C433 1.465 . S
C428 C423 1.399 . S
C428 C427 1.394 . S
C428 C429 1.516 1_545 S
C429 C428 1.516 1_565 S
C429 C430 1.502 . S
C429 C431 1.561 1_565 S
C429 C432 1.521 1_565 S
C430 H414 0.959 . S
C430 H415 0.959 . S
C430 H416 0.961 . S
C430 C429 1.502 . S
C431 H417 0.960 . S
C431 H418 0.961 1_545 S
C431 H419 0.959 . S
C431 C429 1.561 1_545 S
C432 C429 1.521 1_545 S
C432 C433 1.423 . S
C432 C437 1.374 1_545 S
C433 C427 1.465 . S
C433 C432 1.423 . S
C433 C434 1.399 . S
C434 H420 0.929 . S
C434 C433 1.399 . S
C434 C435 1.385 . S
C435 H421 0.931 . S
C435 C434 1.385 . S
C435 C436 1.389 . S
C436 C435 1.389 . S
C436 C437 1.387 1_545 S
C437 H422 0.930 . S
C437 C432 1.374 1_565 S
C437 C436 1.387 1_565 S
H438 C450 0.930 . S
H439 C452 0.930 . S
H440 C453 0.930 . S
H441 C457 0.959 . S
H442 C457 0.959 . S
H443 C457 0.961 . S
H444 C458 0.960 . S
H445 C458 0.961 . S
H446 C458 0.959 . S
H447 C461 0.929 . S
H448 C462 0.931 . S
H449 C464 0.930 . S
C450 H438 0.930 . S
C450 C451 1.399 . S
C450 C455 1.399 . S
C451 C450 1.399 . S
C451 C452 1.376 . S
C452 H439 0.930 . S
C452 C451 1.376 . S
C452 C453 1.388 . S
C453 H440 0.930 . S
C453 C452 1.388 . S
C453 C454 1.390 . S
C454 C453 1.390 . S
C454 C455 1.394 . S
C454 C460 1.465 . S
C455 C450 1.399 . S
C455 C454 1.394 . S
C455 C456 1.516 . S
C456 C455 1.516 . S
C456 C457 1.502 . S
C456 C458 1.561 . S
C456 C459 1.526 . S
C457 H441 0.959 . S
C457 H442 0.959 . S
C457 H443 0.961 . S
C457 C456 1.502 . S
C458 H444 0.960 . S
C458 H445 0.961 . S
C458 H446 0.959 . S
C458 C456 1.561 . S
C459 C456 1.526 . S
C459 C460 1.396 . S
C459 C464 1.390 . S
C460 C454 1.465 . S
C460 C459 1.396 . S
C460 C461 1.399 . S
C461 H447 0.929 . S
C461 C460 1.399 . S
C461 C462 1.385 . S
C462 H448 0.931 . S
C462 C461 1.385 . S
C462 C463 1.389 . S
C463 C462 1.389 . S
C463 C464 1.387 . S
C464 H449 0.930 . S
C464 C459 1.390 . S
C464 C463 1.387 . S
H465 C477 0.930 . S
H466 C479 0.930 . S
H467 C480 0.930 . S
H468 C484 0.959 . S
H469 C484 0.959 . S
H470 C484 0.961 . S
H471 C485 0.960 . S
H472 C485 0.961 . S
H473 C485 0.959 . S
H474 C488 0.929 . S
H475 C489 0.931 . S
H476 C491 0.930 . S
C477 H465 0.930 . S
C477 C478 1.399 . S
C477 C482 1.399 . S
C478 C477 1.399 . S
C478 C479 1.376 . S
C479 H466 0.930 . S
C479 C478 1.376 . S
C479 C480 1.388 . S
C480 H467 0.930 . S
C480 C479 1.388 . S
C480 C481 1.390 . S
C481 C480 1.390 . S
C481 C482 1.394 . S
C481 C487 1.465 . S
C482 C477 1.399 . S
C482 C481 1.394 . S
C482 C483 1.516 . S
C483 C482 1.516 . S
C483 C484 1.502 . S
C483 C485 1.561 . S
C483 C486 1.526 . S
C484 H468 0.959 . S
C484 H469 0.959 . S
C484 H470 0.961 . S
C484 C483 1.502 . S
C485 H471 0.960 . S
C485 H472 0.961 . S
C485 H473 0.959 . S
C485 C483 1.561 . S
C486 C483 1.526 . S
C486 C487 1.396 . S
C486 C491 1.390 . S
C487 C481 1.465 . S
C487 C486 1.396 . S
C487 C488 1.399 . S
C488 H474 0.929 . S
C488 C487 1.399 . S
C488 C489 1.385 . S
C489 H475 0.931 . S
C489 C488 1.385 . S
C489 C490 1.389 . S
C490 C489 1.389 . S
C490 C491 1.387 . S
C491 H476 0.930 . S
C491 C486 1.390 . S
C491 C490 1.387 . S
H492 C504 0.930 . S
H493 C506 0.930 1_554 S
H494 C507 0.930 1_554 S
H495 C511 0.959 1_455 S
H496 C511 0.959 . S
H497 C511 0.961 . S
H498 C512 0.960 . S
H499 C512 0.961 . S
H500 C512 0.959 . S
H501 C515 0.929 . S
H502 C516 0.931 . S
H503 C518 0.930 . S
C504 H492 0.930 . S
C504 C505 1.399 . S
C504 C509 1.399 . S
C505 C504 1.399 . S
C505 C506 1.376 . S
C506 H493 0.930 1_556 S
C506 C505 1.376 . S
C506 C507 1.388 . S
C507 H494 0.930 1_556 S
C507 C506 1.388 . S
C507 C508 1.390 . S
C508 C507 1.390 . S
C508 C509 1.394 . S
C508 C514 1.465 . S
C509 C504 1.399 . S
C509 C508 1.394 . S
C509 C510 1.516 . S
C510 C509 1.516 . S
C510 C511 1.502 . S
C510 C512 1.561 . S
C510 C513 1.526 . S
C511 H495 0.959 1_655 S
C511 H496 0.959 . S
C511 H497 0.961 . S
C511 C510 1.502 . S
C512 H498 0.960 . S
C512 H499 0.961 . S
C512 H500 0.959 . S
C512 C510 1.561 . S
C513 C510 1.526 . S
C513 C514 1.396 . S
C513 C518 1.390 . S
C514 C508 1.465 . S
C514 C513 1.396 . S
C514 C515 1.399 1_655 S
C515 H501 0.929 . S
C515 C514 1.399 1_455 S
C515 C516 1.385 . S
C516 H502 0.931 . S
C516 C515 1.385 . S
C516 C517 1.389 . S
C517 C516 1.389 . S
C517 C518 1.387 1_455 S
C518 H503 0.930 . S
C518 C513 1.390 . S
C518 C517 1.387 1_655 S
H519 C531 0.930 . S
H520 C533 0.930 . S
H521 C534 0.930 . S
H522 C538 0.959 1_554 S
H523 C538 0.959 . S
H524 C538 0.961 1_554 S
H525 C539 0.960 . S
H526 C539 0.961 . S
H527 C539 0.959 . S
H528 C542 0.929 . S
H529 C543 0.931 . S
H530 C545 0.930 . S
C531 H519 0.930 . S
C531 C532 1.399 1_545 S
C531 C536 1.399 . S
C532 C531 1.399 1_565 S
C532 C533 1.376 . S
C533 H520 0.930 . S
C533 C532 1.376 . S
C533 C534 1.388 . S
C534 H521 0.930 . S
C534 C533 1.388 . S
C534 C535 1.390 . S
C535 C534 1.390 . S
C535 C536 1.394 1_565 S
C535 C541 1.465 . S
C536 C531 1.399 . S
C536 C535 1.394 1_545 S
C536 C537 1.516 . S
C537 C536 1.516 . S
C537 C538 1.502 . S
C537 C539 1.561 . S
C537 C540 1.526 . S
C538 H522 0.959 1_556 S
C538 H523 0.959 . S
C538 H524 0.961 1_556 S
C538 C537 1.502 . S
C539 H525 0.960 . S
C539 H526 0.961 . S
C539 H527 0.959 . S
C539 C537 1.561 . S
C540 C537 1.526 . S
C540 C541 1.396 1_545 S
C540 C545 1.390 . S
C541 C535 1.465 . S
C541 C540 1.396 1_565 S
C541 C542 1.399 . S
C542 H528 0.929 . S
C542 C541 1.399 . S
C542 C543 1.385 . S
C543 H529 0.931 . S
C543 C542 1.385 . S
C543 C544 1.389 1_565 S
C544 C543 1.389 1_545 S
C544 C545 1.387 . S
C545 H530 0.930 . S
C545 C540 1.390 . S
C545 C544 1.387 . S
H546 C558 0.930 . S
H547 C560 0.930 . S
H548 C561 0.930 1_554 S
H549 C565 0.959 . S
H550 C565 0.959 . S
H551 C565 0.961 . S
H552 C566 0.960 . S
H553 C566 0.961 . S
H554 C566 0.959 . S
H555 C569 0.929 . S
H556 C570 0.931 . S
H557 C572 0.930 . S
C558 H546 0.930 . S
C558 C559 1.399 . S
C558 C563 1.399 . S
C559 C558 1.399 . S
C559 C560 1.376 1_556 S
C560 H547 0.930 . S
C560 C559 1.376 1_554 S
C560 C561 1.388 1_554 S
C561 H548 0.930 1_556 S
C561 C560 1.388 1_556 S
C561 C562 1.390 . S
C562 C561 1.390 . S
C562 C563 1.394 . S
C562 C568 1.465 . S
C563 C558 1.399 . S
C563 C562 1.394 . S
C563 C564 1.516 . S
C564 C563 1.516 . S
C564 C565 1.502 . S
C564 C566 1.561 . S
C564 C567 1.526 . S
C565 H549 0.959 . S
C565 H550 0.959 . S
C565 H551 0.961 . S
C565 C564 1.502 . S
C566 H552 0.960 . S
C566 H553 0.961 . S
C566 H554 0.959 . S
C566 C564 1.561 . S
C567 C564 1.526 . S
C567 C568 1.396 . S
C567 C572 1.390 . S
C568 C562 1.465 . S
C568 C567 1.396 . S
C568 C569 1.399 . S
C569 H555 0.929 . S
C569 C568 1.399 . S
C569 C570 1.385 . S
C570 H556 0.931 . S
C570 C569 1.385 . S
C570 C571 1.389 . S
C571 C570 1.389 . S
C571 C572 1.387 . S
C572 H557 0.930 . S
C572 C567 1.390 . S
C572 C571 1.387 . S
H573 C585 0.930 . S
H574 C587 0.930 . S
H575 C588 0.930 . S
H576 C592 0.959 . S
H577 C592 0.959 . S
H578 C592 0.961 . S
H579 C593 0.960 . S
H580 C593 0.961 . S
H581 C593 0.959 . S
H582 C596 0.929 . S
H583 C597 0.931 . S
H584 C599 0.930 . S
C585 H573 0.930 . S
C585 C586 1.399 . S
C585 C590 1.399 . S
C586 C585 1.399 . S
C586 C587 1.376 . S
C587 H574 0.930 . S
C587 C586 1.376 . S
C587 C588 1.388 . S
C588 H575 0.930 . S
C588 C587 1.388 . S
C588 C589 1.390 . S
C589 C588 1.390 . S
C589 C590 1.394 . S
C589 C595 1.465 . S
C590 C585 1.399 . S
C590 C589 1.394 . S
C590 C591 1.516 . S
C591 C590 1.516 . S
C591 C592 1.502 . S
C591 C593 1.561 . S
C591 C594 1.526 . S
C592 H576 0.959 . S
C592 H577 0.959 . S
C592 H578 0.961 . S
C592 C591 1.502 . S
C593 H579 0.960 . S
C593 H580 0.961 . S
C593 H581 0.959 . S
C593 C591 1.561 . S
C594 C591 1.526 . S
C594 C595 1.396 . S
C594 C599 1.390 . S
C595 C589 1.465 . S
C595 C594 1.396 . S
C595 C596 1.399 . S
C596 H582 0.929 . S
C596 C595 1.399 . S
C596 C597 1.385 . S
C597 H583 0.931 . S
C597 C596 1.385 . S
C597 C598 1.389 . S
C598 C597 1.389 . S
C598 C599 1.387 . S
C599 H584 0.930 . S
C599 C594 1.390 . S
C599 C598 1.387 . S
H600 C612 0.930 . S
H601 C614 0.930 . S
H602 C615 0.930 . S
H603 C619 0.959 . S
H604 C619 0.959 . S
H605 C619 0.961 . S
H606 C620 0.960 1_554 S
H607 C620 0.961 . S
H608 C620 0.959 . S
H609 C623 0.929 1_655 S
H610 C624 0.931 1_655 S
H611 C626 0.930 . S
C612 H600 0.930 . S
C612 C613 1.399 . S
C612 C617 1.399 . S
C613 C612 1.399 . S
C613 C614 1.376 . S
C614 H601 0.930 . S
C614 C613 1.376 . S
C614 C615 1.388 . S
C615 H602 0.930 . S
C615 C614 1.388 . S
C615 C616 1.390 . S
C616 C615 1.390 . S
C616 C617 1.394 . S
C616 C622 1.465 . S
C617 C612 1.399 . S
C617 C616 1.394 . S
C617 C618 1.516 . S
C618 C617 1.516 . S
C618 C619 1.502 . S
C618 C620 1.561 . S
C618 C621 1.526 . S
C619 H603 0.959 . S
C619 H604 0.959 . S
C619 H605 0.961 . S
C619 C618 1.502 . S
C620 H606 0.960 1_556 S
C620 H607 0.961 . S
C620 H608 0.959 . S
C620 C618 1.561 . S
C621 C618 1.526 . S
C621 C622 1.396 . S
C621 C626 1.390 . S
C622 C616 1.465 . S
C622 C621 1.396 . S
C622 C623 1.399 . S
C623 H609 0.929 1_455 S
C623 C622 1.399 . S
C623 C624 1.385 . S
C624 H610 0.931 1_455 S
C624 C623 1.385 . S
C624 C625 1.389 . S
C625 C624 1.389 . S
C625 C626 1.387 . S
C626 H611 0.930 . S
C626 C621 1.390 . S
C626 C625 1.387 . S
H627 C639 0.930 . S
H628 C641 0.930 . S
H629 C642 0.930 . S
H630 C646 0.959 . S
H631 C646 0.959 . S
H632 C646 0.961 . S
H633 C647 0.960 1_554 S
H634 C647 0.961 . S
H635 C647 0.959 . S
H636 C650 0.929 . S
H637 C651 0.931 . S
H638 C653 0.930 . S
C639 H627 0.930 . S
C639 C640 1.399 . S
C639 C644 1.399 . S
C640 C639 1.399 . S
C640 C641 1.376 1_545 S
C641 H628 0.930 . S
C641 C640 1.376 1_565 S
C641 C642 1.388 . S
C642 H629 0.930 . S
C642 C641 1.388 . S
C642 C643 1.390 1_565 S
C643 C642 1.390 1_545 S
C643 C644 1.394 . S
C643 C649 1.465 . S
C644 C639 1.399 . S
C644 C643 1.394 . S
C644 C645 1.516 . S
C645 C644 1.516 . S
C645 C646 1.502 . S
C645 C647 1.561 . S
C645 C648 1.526 . S
C646 H630 0.959 . S
C646 H631 0.959 . S
C646 H632 0.961 . S
C646 C645 1.502 . S
C647 H633 0.960 1_556 S
C647 H634 0.961 . S
C647 H635 0.959 . S
C647 C645 1.561 . S
C648 C645 1.526 . S
C648 C649 1.396 . S
C648 C653 1.390 . S
C649 C643 1.465 . S
C649 C648 1.396 . S
C649 C650 1.399 1_545 S
C650 H636 0.929 . S
C650 C649 1.399 1_565 S
C650 C651 1.385 . S
C651 H637 0.931 . S
C651 C650 1.385 . S
C651 C652 1.389 1_565 S
C652 C651 1.389 1_545 S
C652 C653 1.387 . S
C653 H638 0.930 . S
C653 C648 1.390 . S
C653 C652 1.387 . S
H654 C666 0.930 . S
H655 C668 0.930 . S
H656 C669 0.930 . S
H657 C673 0.959 . S
H658 C673 0.959 . S
H659 C673 0.961 . S
H660 C674 0.960 . S
H661 C674 0.961 . S
H662 C674 0.959 . S
H663 C677 0.929 . S
H664 C678 0.931 . S
H665 C680 0.930 . S
C666 H654 0.930 . S
C666 C667 1.399 . S
C666 C671 1.399 . S
C667 C666 1.399 . S
C667 C668 1.376 . S
C668 H655 0.930 . S
C668 C667 1.376 . S
C668 C669 1.388 . S
C669 H656 0.930 . S
C669 C668 1.388 . S
C669 C670 1.390 . S
C670 C669 1.390 . S
C670 C671 1.394 . S
C670 C676 1.465 . S
C671 C666 1.399 . S
C671 C670 1.394 . S
C671 C672 1.516 . S
C672 C671 1.516 . S
C672 C673 1.502 . S
C672 C674 1.561 . S
C672 C675 1.526 . S
C673 H657 0.959 . S
C673 H658 0.959 . S
C673 H659 0.961 . S
C673 C672 1.502 . S
C674 H660 0.960 . S
C674 H661 0.961 . S
C674 H662 0.959 . S
C674 C672 1.561 . S
C675 C672 1.526 . S
C675 C676 1.396 . S
C675 C680 1.390 . S
C676 C670 1.465 . S
C676 C675 1.396 . S
C676 C677 1.399 . S
C677 H663 0.929 . S
C677 C676 1.399 . S
C677 C678 1.385 . S
C678 H664 0.931 . S
C678 C677 1.385 . S
C678 C679 1.389 . S
C679 C678 1.389 . S
C679 C680 1.387 . S
C680 H665 0.930 . S
C680 C675 1.390 . S
C680 C679 1.387 . S
H681 C693 0.930 . S
H682 C695 0.930 . S
H683 C696 0.930 . S
H684 C700 0.959 . S
H685 C700 0.959 . S
H686 C700 0.961 . S
H687 C701 0.960 . S
H688 C701 0.961 . S
H689 C701 0.959 . S
H690 C704 0.929 . S
H691 C705 0.931 . S
H692 C707 0.930 . S
C693 H681 0.930 . S
C693 C694 1.399 . S
C693 C698 1.399 . S
C694 C693 1.399 . S
C694 C695 1.376 . S
C695 H682 0.930 . S
C695 C694 1.376 . S
C695 C696 1.388 . S
C696 H683 0.930 . S
C696 C695 1.388 . S
C696 C697 1.390 . S
C697 C696 1.390 . S
C697 C698 1.394 . S
C697 C703 1.465 . S
C698 C693 1.399 . S
C698 C697 1.394 . S
C698 C699 1.516 . S
C699 C698 1.516 . S
C699 C700 1.502 . S
C699 C701 1.561 . S
C699 C702 1.526 . S
C700 H684 0.959 . S
C700 H685 0.959 . S
C700 H686 0.961 . S
C700 C699 1.502 . S
C701 H687 0.960 . S
C701 H688 0.961 . S
C701 H689 0.959 . S
C701 C699 1.561 . S
C702 C699 1.526 . S
C702 C703 1.396 . S
C702 C707 1.390 . S
C703 C697 1.465 . S
C703 C702 1.396 . S
C703 C704 1.399 . S
C704 H690 0.929 . S
C704 C703 1.399 . S
C704 C705 1.385 . S
C705 H691 0.931 . S
C705 C704 1.385 . S
C705 C706 1.389 . S
C706 C705 1.389 . S
C706 C707 1.387 . S
C707 H692 0.930 . S
C707 C702 1.390 . S
C707 C706 1.387 . S
H708 C720 0.930 . S
H709 C722 0.930 . S
H710 C723 0.930 . S
H711 C727 0.959 . S
H712 C727 0.959 . S
H713 C727 0.961 . S
H714 C728 0.960 . S
H715 C728 0.961 . S
H716 C728 0.959 . S
H717 C731 0.929 . S
H718 C732 0.931 . S
H719 C734 0.930 . S
C720 H708 0.930 . S
C720 C721 1.399 . S
C720 C725 1.399 . S
C721 C720 1.399 . S
C721 C722 1.376 . S
C722 H709 0.930 . S
C722 C721 1.376 . S
C722 C723 1.388 . S
C723 H710 0.930 . S
C723 C722 1.388 . S
C723 C724 1.390 . S
C724 C723 1.390 . S
C724 C725 1.394 . S
C724 C730 1.465 . S
C725 C720 1.399 . S
C725 C724 1.394 . S
C725 C726 1.516 . S
C726 C725 1.516 . S
C726 C727 1.502 1_655 S
C726 C728 1.561 . S
C726 C729 1.526 . S
C727 H711 0.959 . S
C727 H712 0.959 . S
C727 H713 0.961 . S
C727 C726 1.502 1_455 S
C728 H714 0.960 . S
C728 H715 0.961 . S
C728 H716 0.959 . S
C728 C726 1.561 . S
C729 C726 1.526 . S
C729 C730 1.396 . S
C729 C734 1.390 . S
C730 C724 1.465 . S
C730 C729 1.396 . S
C730 C731 1.399 . S
C731 H717 0.929 . S
C731 C730 1.399 . S
C731 C732 1.385 . S
C732 H718 0.931 . S
C732 C731 1.385 . S
C732 C733 1.389 . S
C733 C732 1.389 . S
C733 C734 1.387 . S
C734 H719 0.930 . S
C734 C729 1.390 . S
C734 C733 1.387 . S
H735 C747 0.930 . S
H736 C749 0.930 . S
H737 C750 0.930 . S
H738 C754 0.959 . S
H739 C754 0.959 . S
H740 C754 0.961 . S
H741 C755 0.960 . S
H742 C755 0.961 . S
H743 C755 0.959 . S
H744 C758 0.929 . S
H745 C759 0.931 . S
H746 C761 0.930 . S
C747 H735 0.930 . S
C747 C748 1.399 1_545 S
C747 C752 1.399 . S
C748 C747 1.399 1_565 S
C748 C749 1.376 . S
C749 H736 0.930 . S
C749 C748 1.376 . S
C749 C750 1.388 . S
C750 H737 0.930 . S
C750 C749 1.388 . S
C750 C751 1.390 . S
C751 C750 1.390 . S
C751 C752 1.394 1_565 S
C751 C757 1.465 . S
C752 C747 1.399 . S
C752 C751 1.394 1_545 S
C752 C753 1.516 . S
C753 C752 1.516 . S
C753 C754 1.502 . S
C753 C755 1.561 . S
C753 C756 1.526 . S
C754 H738 0.959 . S
C754 H739 0.959 . S
C754 H740 0.961 . S
C754 C753 1.502 . S
C755 H741 0.960 . S
C755 H742 0.961 . S
C755 H743 0.959 . S
C755 C753 1.561 . S
C756 C753 1.526 . S
C756 C757 1.396 1_545 S
C756 C761 1.390 . S
C757 C751 1.465 . S
C757 C756 1.396 1_565 S
C757 C758 1.399 . S
C758 H744 0.929 . S
C758 C757 1.399 . S
C758 C759 1.385 . S
C759 H745 0.931 . S
C759 C758 1.385 . S
C759 C760 1.389 . S
C760 C759 1.389 . S
C760 C761 1.387 1_565 S
C761 H746 0.930 . S
C761 C756 1.390 . S
C761 C760 1.387 1_545 S
H762 C774 0.930 . S
H763 C776 0.930 . S
H764 C777 0.930 . S
H765 C781 0.959 . S
H766 C781 0.959 . S
H767 C781 0.961 . S
H768 C782 0.960 . S
H769 C782 0.961 . S
H770 C782 0.959 . S
H771 C785 0.929 . S
H772 C786 0.931 . S
H773 C788 0.930 . S
C774 H762 0.930 . S
C774 C775 1.399 . S
C774 C779 1.399 . S
C775 C774 1.399 . S
C775 C776 1.376 . S
C776 H763 0.930 . S
C776 C775 1.376 . S
C776 C777 1.388 . S
C777 H764 0.930 . S
C777 C776 1.388 . S
C777 C778 1.390 . S
C778 C777 1.390 . S
C778 C779 1.394 . S
C778 C784 1.465 . S
C779 C774 1.399 . S
C779 C778 1.394 . S
C779 C780 1.516 . S
C780 C779 1.516 . S
C780 C781 1.502 . S
C780 C782 1.561 . S
C780 C783 1.526 . S
C781 H765 0.959 . S
C781 H766 0.959 . S
C781 H767 0.961 . S
C781 C780 1.502 . S
C782 H768 0.960 . S
C782 H769 0.961 . S
C782 H770 0.959 . S
C782 C780 1.561 . S
C783 C780 1.526 . S
C783 C784 1.396 . S
C783 C788 1.390 . S
C784 C778 1.465 . S
C784 C783 1.396 . S
C784 C785 1.399 . S
C785 H771 0.929 . S
C785 C784 1.399 . S
C785 C786 1.385 . S
C786 H772 0.931 . S
C786 C785 1.385 . S
C786 C787 1.389 . S
C787 C786 1.389 . S
C787 C788 1.387 . S
C788 H773 0.930 . S
C788 C783 1.390 . S
C788 C787 1.387 . S
H789 C801 0.930 . S
H790 C803 0.930 . S
H791 C804 0.930 . S
H792 C808 0.959 . S
H793 C808 0.959 . S
H794 C808 0.961 . S
H795 C809 0.960 . S
H796 C809 0.961 . S
H797 C809 0.959 . S
H798 C812 0.929 . S
H799 C813 0.931 . S
H800 C815 0.930 . S
C801 H789 0.930 . S
C801 C802 1.399 . S
C801 C806 1.399 . S
C802 C801 1.399 . S
C802 C803 1.376 . S
C803 H790 0.930 . S
C803 C802 1.376 . S
C803 C804 1.388 . S
C804 H791 0.930 . S
C804 C803 1.388 . S
C804 C805 1.390 . S
C805 C804 1.390 . S
C805 C806 1.394 . S
C805 C811 1.465 . S
C806 C801 1.399 . S
C806 C805 1.394 . S
C806 C807 1.516 . S
C807 C806 1.516 . S
C807 C808 1.502 . S
C807 C809 1.561 . S
C807 C810 1.526 . S
C808 H792 0.959 . S
C808 H793 0.959 . S
C808 H794 0.961 . S
C808 C807 1.502 . S
C809 H795 0.960 . S
C809 H796 0.961 . S
C809 H797 0.959 . S
C809 C807 1.561 . S
C810 C807 1.526 . S
C810 C811 1.396 . S
C810 C815 1.390 . S
C811 C805 1.465 . S
C811 C810 1.396 . S
C811 C812 1.399 . S
C812 H798 0.929 . S
C812 C811 1.399 . S
C812 C813 1.385 . S
C813 H799 0.931 . S
C813 C812 1.385 . S
C813 C814 1.389 . S
C814 C813 1.389 . S
C814 C815 1.387 . S
C815 H800 0.930 . S
C815 C810 1.390 . S
C815 C814 1.387 . S
C181 C74 1.585 . S
C193 C96 1.577 . S
C220 C126 1.885 . S
C208 C85 1.852 . S
C247 C136 1.455 . S
C235 C52 1.472 . S
C274 C156 1.368 . S
C262 C63 1.331 . S
C301 C97 1.570 . S
C289 C30 1.519 . S
C316 C41 1.819 1_556 S
C328 C127 1.861 . S
C343 C8 1.434 . S
C355 C137 1.453 . S
C370 C19 1.352 . S
C382 C157 1.380 1_655 S
C409 C89 0.932 . S
C397 C62 0.905 . S
C436 C110 0.532 1_545 S
C424 C73 0.513 . S
C463 C129 1.132 . S
C451 C84 1.164 . S
C478 C51 0.813 . S
C490 C149 0.826 . S
C505 C18 0.915 . S
C517 C90 0.878 . S
C544 C109 0.538 . S
C532 C29 0.623 . S
C571 C130 1.123 . S
C559 C40 1.121 . S
C586 C7 0.783 . S
C598 C150 0.787 . S
C613 C60 1.489 . S
C625 C107 1.659 . S
C640 C71 1.229 . S
C652 C117 1.429 . S
C679 C147 1.873 . S
C667 C82 1.663 . S
C706 C167 1.782 . S
C694 C49 1.425 . S
C721 C16 1.366 . S
C733 C106 1.682 . S
C760 C116 1.398 . S
C748 C27 1.142 . S
C787 C146 1.856 . S
C775 C38 1.298 . S
C802 C5 1.584 . S
C814 C166 1.799 . S
