# Generated by pormake.
# Topology ocu, (6,8)-cn, num edge types: 1
# Building blocks:
#     Node 0, Type 0, BuildingBlock: HISSIN_clean_sbu_0, # of connection points: 6
#     Node 1, Type 0, BuildingBlock: HISSIN_clean_sbu_0, # of connection points: 6
#     Node 2, Type 0, BuildingBlock: HISSIN_clean_sbu_0, # of connection points: 6
#     Node 3, Type 0, BuildingBlock: HISSIN_clean_sbu_0, # of connection points: 6
#     Node 4, Type 0, BuildingBlock: HISSIN_clean_sbu_0, # of connection points: 6
#     Node 5, Type 0, BuildingBlock: HISSIN_clean_sbu_0, # of connection points: 6
#     Node 6, Type 0, BuildingBlock: HISSIN_clean_sbu_0, # of connection points: 6
#     Node 7, Type 0, BuildingBlock: HISSIN_clean_sbu_0, # of connection points: 6
#     Node 8, Type 1, BuildingBlock: VETTIZ_charged_sbu_0, # of connection points: 8
#     Node 9, Type 1, BuildingBlock: VETTIZ_charged_sbu_0, # of connection points: 8
#     Node 10, Type 1, BuildingBlock: VETTIZ_charged_sbu_0, # of connection points: 8
#     Node 11, Type 1, BuildingBlock: VETTIZ_charged_sbu_0, # of connection points: 8
#     Node 12, Type 1, BuildingBlock: VETTIZ_charged_sbu_0, # of connection points: 8
#     Node 13, Type 1, BuildingBlock: VETTIZ_charged_sbu_0, # of connection points: 8
#     Edge 14, Type (0, 1), BuildingBlock: AJUNOK_clean_linker_0, # of connection points: 2
#     Edge 15, Type (0, 1), BuildingBlock: AJUNOK_clean_linker_0, # of connection points: 2
#     Edge 16, Type (0, 1), BuildingBlock: AJUNOK_clean_linker_0, # of connection points: 2
#     Edge 17, Type (0, 1), BuildingBlock: AJUNOK_clean_linker_0, # of connection points: 2
#     Edge 18, Type (0, 1), BuildingBlock: AJUNOK_clean_linker_0, # of connection points: 2
#     Edge 19, Type (0, 1), BuildingBlock: AJUNOK_clean_linker_0, # of connection points: 2
#     Edge 20, Type (0, 1), BuildingBlock: AJUNOK_clean_linker_0, # of connection points: 2
#     Edge 21, Type (0, 1), BuildingBlock: AJUNOK_clean_linker_0, # of connection points: 2
#     Edge 22, Type (0, 1), BuildingBlock: AJUNOK_clean_linker_0, # of connection points: 2
#     Edge 23, Type (0, 1), BuildingBlock: AJUNOK_clean_linker_0, # of connection points: 2
#     Edge 24, Type (0, 1), BuildingBlock: AJUNOK_clean_linker_0, # of connection points: 2
#     Edge 25, Type (0, 1), BuildingBlock: AJUNOK_clean_linker_0, # of connection points: 2
#     Edge 26, Type (0, 1), BuildingBlock: AJUNOK_clean_linker_0, # of connection points: 2
#     Edge 27, Type (0, 1), BuildingBlock: AJUNOK_clean_linker_0, # of connection points: 2
#     Edge 28, Type (0, 1), BuildingBlock: AJUNOK_clean_linker_0, # of connection points: 2
#     Edge 29, Type (0, 1), BuildingBlock: AJUNOK_clean_linker_0, # of connection points: 2
#     Edge 30, Type (0, 1), BuildingBlock: AJUNOK_clean_linker_0, # of connection points: 2
#     Edge 31, Type (0, 1), BuildingBlock: AJUNOK_clean_linker_0, # of connection points: 2
#     Edge 32, Type (0, 1), BuildingBlock: AJUNOK_clean_linker_0, # of connection points: 2
#     Edge 33, Type (0, 1), BuildingBlock: AJUNOK_clean_linker_0, # of connection points: 2
#     Edge 34, Type (0, 1), BuildingBlock: AJUNOK_clean_linker_0, # of connection points: 2
#     Edge 35, Type (0, 1), BuildingBlock: AJUNOK_clean_linker_0, # of connection points: 2
#     Edge 36, Type (0, 1), BuildingBlock: AJUNOK_clean_linker_0, # of connection points: 2
#     Edge 37, Type (0, 1), BuildingBlock: AJUNOK_clean_linker_0, # of connection points: 2
#     Edge 38, Type (0, 1), BuildingBlock: AJUNOK_clean_linker_0, # of connection points: 2
#     Edge 39, Type (0, 1), BuildingBlock: AJUNOK_clean_linker_0, # of connection points: 2
#     Edge 40, Type (0, 1), BuildingBlock: AJUNOK_clean_linker_0, # of connection points: 2
#     Edge 41, Type (0, 1), BuildingBlock: AJUNOK_clean_linker_0, # of connection points: 2
#     Edge 42, Type (0, 1), BuildingBlock: AJUNOK_clean_linker_0, # of connection points: 2
#     Edge 43, Type (0, 1), BuildingBlock: AJUNOK_clean_linker_0, # of connection points: 2
#     Edge 44, Type (0, 1), BuildingBlock: AJUNOK_clean_linker_0, # of connection points: 2
#     Edge 45, Type (0, 1), BuildingBlock: AJUNOK_clean_linker_0, # of connection points: 2
#     Edge 46, Type (0, 1), BuildingBlock: AJUNOK_clean_linker_0, # of connection points: 2
#     Edge 47, Type (0, 1), BuildingBlock: AJUNOK_clean_linker_0, # of connection points: 2
#     Edge 48, Type (0, 1), BuildingBlock: AJUNOK_clean_linker_0, # of connection points: 2
#     Edge 49, Type (0, 1), BuildingBlock: AJUNOK_clean_linker_0, # of connection points: 2
#     Edge 50, Type (0, 1), BuildingBlock: AJUNOK_clean_linker_0, # of connection points: 2
#     Edge 51, Type (0, 1), BuildingBlock: AJUNOK_clean_linker_0, # of connection points: 2
#     Edge 52, Type (0, 1), BuildingBlock: AJUNOK_clean_linker_0, # of connection points: 2
#     Edge 53, Type (0, 1), BuildingBlock: AJUNOK_clean_linker_0, # of connection points: 2
#     Edge 54, Type (0, 1), BuildingBlock: AJUNOK_clean_linker_0, # of connection points: 2
#     Edge 55, Type (0, 1), BuildingBlock: AJUNOK_clean_linker_0, # of connection points: 2
#     Edge 56, Type (0, 1), BuildingBlock: AJUNOK_clean_linker_0, # of connection points: 2
#     Edge 57, Type (0, 1), BuildingBlock: AJUNOK_clean_linker_0, # of connection points: 2
#     Edge 58, Type (0, 1), BuildingBlock: AJUNOK_clean_linker_0, # of connection points: 2
#     Edge 59, Type (0, 1), BuildingBlock: AJUNOK_clean_linker_0, # of connection points: 2
#     Edge 60, Type (0, 1), BuildingBlock: AJUNOK_clean_linker_0, # of connection points: 2
#     Edge 61, Type (0, 1), BuildingBlock: AJUNOK_clean_linker_0, # of connection points: 2
# Relax obj value: 0.150
# Max RMSD: 0.187
# Mean RMSD: 0.139
data_MOF--net-ocu--node1-HISSIN_clean_sbu_0--node2-VETTIZ_charged_sbu_0--edge1-AJUNOK_clean_linker_0
_symmetry_space_group_name_H-M    P1
_symmetry_Int_Tables_number       1
_symmetry_cell_setting            triclinic
loop_
_symmetry_equiv_pos_as_xyz
'x, y, z'
_cell_length_a     30.718338
_cell_length_b     31.786185
_cell_length_c     31.062948
_cell_angle_alpha  104.46795
_cell_angle_beta   76.827435
_cell_angle_gamma 106.43447
loop_
_atom_site_label
_atom_site_type_symbol
_atom_site_fract_x
_atom_site_fract_y
_atom_site_fract_z
_atom_type_partial_charge
Eu0 Eu 0.33407 0.28853 0.33582 0.0
Eu1 Eu 0.26531 0.26179 0.26159 0.0
C2 C 0.24727 0.20456 0.339 0.0
C3 C 0.40332 0.26396 0.4063 0.0
C4 C 0.39628 0.22048 0.37994 0.0
C5 C 0.44074 0.24058 0.45429 0.0
C6 C 0.41158 0.18741 0.39045 0.0
C7 C 0.42536 0.27376 0.44372 0.0
C8 C 0.43439 0.19718 0.42747 0.0
C9 C 0.38611 0.29811 0.39516 0.0
O10 O 0.25191 0.32526 0.30782 0.0
O11 O 0.27263 0.31806 0.37108 0.0
C12 C 0.24768 0.33307 0.35185 0.0
O13 O 0.35688 0.34869 0.30106 0.0
O14 O 0.19557 0.24871 0.24768 0.0
O15 O 0.25281 0.24957 0.1925 0.0
O16 O 0.3283 0.31165 0.23603 0.0
C17 C 0.35575 0.34563 0.25811 0.0
O18 O 0.3706 0.2516 0.27212 0.0
O19 O 0.30919 0.21088 0.23732 0.0
O20 O 0.22815 0.22215 0.31631 0.0
O21 O 0.40226 0.30682 0.35488 0.0
O22 O 0.34166 0.29327 0.40524 0.0
O23 O 0.29183 0.21768 0.33893 0.0
C24 C 0.19506 0.28389 0.18978 0.0
C25 C 0.21718 0.32945 0.20039 0.0
C26 C 0.14466 0.30309 0.1516 0.0
C27 C 0.20337 0.36155 0.18645 0.0
C28 C 0.15859 0.27093 0.16547 0.0
C29 C 0.1669 0.34878 0.16197 0.0
C30 C 0.20953 0.25044 0.20516 0.0
C31 C 0.35298 0.21905 0.24086 0.0
H32 H 0.37885 0.21209 0.35118 0.0
H33 H 0.45828 0.24902 0.48297 0.0
H34 H 0.4054 0.15411 0.3697 0.0
H35 H 0.43074 0.30699 0.46466 0.0
H36 H 0.24521 0.34018 0.21946 0.0
H37 H 0.11702 0.29213 0.13204 0.0
H38 H 0.22109 0.39643 0.19499 0.0
H39 H 0.14104 0.23598 0.15708 0.0
Eu40 Eu 0.82807 0.23594 0.27753 0.0
Eu41 Eu 0.76322 0.30855 0.30795 0.0
C42 C 0.85375 0.32733 0.35175 0.0
C43 C 0.89966 0.16552 0.29274 0.0
C44 C 0.89851 0.18977 0.33725 0.0
C45 C 0.9307 0.1116 0.31197 0.0
C46 C 0.91243 0.17461 0.36909 0.0
C47 C 0.9166 0.12681 0.27997 0.0
C48 C 0.92744 0.13477 0.35704 0.0
C49 C 0.8791 0.17873 0.26148 0.0
O50 O 0.82578 0.33614 0.26012 0.0
O51 O 0.84688 0.27209 0.21931 0.0
C52 C 0.84963 0.31505 0.22499 0.0
O53 O 0.76499 0.20162 0.24532 0.0
O54 O 0.7546 0.37672 0.31976 0.0
O55 O 0.69491 0.32193 0.32877 0.0
O56 O 0.74079 0.26321 0.24401 0.0
C57 C 0.73936 0.22029 0.2311 0.0
O58 O 0.79176 0.23093 0.34874 0.0
O59 O 0.72873 0.2551 0.34834 0.0
O60 O 0.81071 0.33085 0.36026 0.0
O61 O 0.83422 0.16738 0.26786 0.0
O62 O 0.89533 0.21996 0.25588 0.0
O63 O 0.86843 0.29867 0.31679 0.0
C64 C 0.68792 0.3786 0.29585 0.0
C65 C 0.67003 0.34865 0.25871 0.0
C66 C 0.67247 0.43951 0.27251 0.0
C67 C 0.65396 0.36421 0.2284 0.0
C68 C 0.68818 0.42394 0.30296 0.0
C69 C 0.65617 0.40993 0.23452 0.0
C70 C 0.70982 0.36375 0.32505 0.0
C71 C 0.74927 0.23401 0.36565 0.0
H72 H 0.88542 0.2197 0.34772 0.0
H73 H 0.9422 0.08081 0.30202 0.0
H74 H 0.91024 0.19334 0.40351 0.0
H75 H 0.91748 0.10764 0.24576 0.0
H76 H 0.66982 0.31349 0.25226 0.0
H77 H 0.67435 0.47495 0.27781 0.0
H78 H 0.64185 0.34097 0.19913 0.0
H79 H 0.70197 0.44755 0.33123 0.0
Eu80 Eu 0.81653 0.81643 0.27019 0.0
Eu81 Eu 0.7874 0.73922 0.33226 0.0
C82 C 0.73122 0.73034 0.25556 0.0
C83 C 0.79561 0.89419 0.20624 0.0
C84 C 0.7477 0.87651 0.21539 0.0
C85 C 0.78256 0.94085 0.1614 0.0
C86 C 0.71747 0.89057 0.1972 0.0
C87 C 0.81262 0.92694 0.17967 0.0
C88 C 0.73472 0.92235 0.16931 0.0
C89 C 0.82804 0.87813 0.22342 0.0
O90 O 0.83138 0.71348 0.26658 0.0
O91 O 0.87432 0.77919 0.24526 0.0
C92 C 0.86764 0.7357 0.24241 0.0
O93 O 0.84564 0.84645 0.33503 0.0
O94 O 0.76796 0.66911 0.33837 0.0
O95 O 0.7779 0.7214 0.39767 0.0
O96 O 0.85611 0.78231 0.34583 0.0
C97 C 0.86277 0.82574 0.35651 0.0
O98 O 0.7462 0.81994 0.31046 0.0
O99 O 0.74942 0.79326 0.37121 0.0
O100 O 0.72771 0.72396 0.29637 0.0
O101 O 0.82541 0.88643 0.26709 0.0
O102 O 0.83232 0.83749 0.20528 0.0
O103 O 0.76756 0.75691 0.23655 0.0
C104 C 0.80484 0.65787 0.39132 0.0
C105 C 0.85241 0.67434 0.37901 0.0
C106 C 0.81975 0.60344 0.42519 0.0
C107 C 0.88347 0.65633 0.39073 0.0
C108 C 0.78857 0.62208 0.4141 0.0
C109 C 0.86737 0.62087 0.41399 0.0
C110 C 0.77277 0.67872 0.38064 0.0
C111 C 0.73175 0.8164 0.35282 0.0
H112 H 0.73377 0.85119 0.23586 0.0
H113 H 0.79681 0.96554 0.14019 0.0
H114 H 0.68089 0.87547 0.20357 0.0
H115 H 0.84932 0.94125 0.17236 0.0
H116 H 0.86551 0.70151 0.36077 0.0
H117 H 0.8068 0.5762 0.44336 0.0
H118 H 0.92009 0.6701 0.38171 0.0
H119 H 0.75192 0.6089 0.42363 0.0
Eu120 Eu 0.33303 0.75687 0.28912 0.0
Eu121 Eu 0.2618 0.81576 0.30363 0.0
C122 C 0.24222 0.72003 0.24027 0.0
C123 C 0.42666 0.72821 0.21415 0.0
C124 C 0.40459 0.74269 0.18758 0.0
C125 C 0.49151 0.72763 0.15377 0.0
C126 C 0.42514 0.7486 0.1442 0.0
C127 C 0.47173 0.72398 0.19833 0.0
C128 C 0.46557 0.73441 0.12455 0.0
C129 C 0.40208 0.72156 0.25907 0.0
O130 O 0.23321 0.77547 0.35907 0.0
O131 O 0.28006 0.72604 0.34141 0.0
C132 C 0.24464 0.74101 0.36602 0.0
O133 O 0.33904 0.80208 0.35687 0.0
O134 O 0.22458 0.84582 0.27261 0.0
O135 O 0.22125 0.86211 0.34521 0.0
O136 O 0.32389 0.859 0.33552 0.0
C137 C 0.34371 0.84501 0.36087 0.0
O138 O 0.36751 0.8173 0.25876 0.0
O139 O 0.30514 0.81982 0.23491 0.0
O140 O 0.22272 0.74771 0.27232 0.0
O141 O 0.40465 0.75865 0.28903 0.0
O142 O 0.3598 0.69718 0.25997 0.0
O143 O 0.28687 0.72385 0.23529 0.0
C144 C 0.15298 0.84619 0.31685 0.0
C145 C 0.13309 0.80404 0.32801 0.0
C146 C 0.07629 0.8582 0.32022 0.0
C147 C 0.08576 0.78928 0.33809 0.0
C148 C 0.1256 0.87222 0.31133 0.0
C149 C 0.05787 0.81643 0.33637 0.0
C150 C 0.20285 0.86258 0.31137 0.0
C151 C 0.34977 0.82725 0.22966 0.0
H152 H 0.37001 0.74687 0.19931 0.0
H153 H 0.52467 0.7196 0.14123 0.0
H154 H 0.40555 0.75679 0.12385 0.0
H155 H 0.49042 0.71538 0.21922 0.0
H156 H 0.15442 0.78351 0.33138 0.0
H157 H 1.01508 0.89889 0.3275 0.0
H158 H 0.07098 0.75845 0.35054 0.0
H159 H 0.14276 0.9045 0.30249 0.0
Eu160 Eu 0.32616 0.73923 0.78084 0.0
Eu161 Eu 0.25921 0.81021 0.80248 0.0
C162 C 0.34783 0.83457 0.85168 0.0
C163 C 0.39937 0.6738 0.8049 0.0
C164 C 0.38429 0.68706 0.85129 0.0
C165 C 0.4498 0.63572 0.82194 0.0
C166 C 0.40086 0.67368 0.88273 0.0
C167 C 0.4329 0.64885 0.7904 0.0
C168 C 0.43303 0.64711 0.86828 0.0
C169 C 0.37896 0.6849 0.77196 0.0
O170 O 0.31966 0.83338 0.75052 0.0
O171 O 0.34486 0.76907 0.71859 0.0
C172 C 0.34343 0.80972 0.71768 0.0
O173 O 0.26363 0.7011 0.74763 0.0
O174 O 0.24693 0.87544 0.80513 0.0
O175 O 0.18935 0.81994 0.81801 0.0
O176 O 0.24333 0.76178 0.73857 0.0
C177 C 0.23939 0.71854 0.73002 0.0
O178 O 0.2856 0.73651 0.8507 0.0
O179 O 0.2225 0.75722 0.84366 0.0
O180 O 0.30509 0.83805 0.8561 0.0
O181 O 0.33415 0.67226 0.77664 0.0
O182 O 0.39457 0.72563 0.76481 0.0
O183 O 0.36415 0.80429 0.81976 0.0
C184 C 0.18047 0.86622 0.77412 0.0
C185 C 0.19382 0.84809 0.7284 0.0
C186 C 0.12362 0.89369 0.75308 0.0
C187 C 0.17219 0.85263 0.69528 0.0
C188 C 0.14492 0.88867 0.78627 0.0
C189 C 0.13709 0.8758 0.70721 0.0
C190 C 0.20236 0.85996 0.80897 0.0
C191 C 0.24211 0.73742 0.86346 0.0
H192 H 0.35876 0.70675 0.86313 0.0
H193 H 0.47441 0.615 0.81009 0.0
H194 H 0.38763 0.68301 0.9183 0.0
H195 H 0.4451 0.63857 0.75474 0.0
H196 H 0.22123 0.83062 0.71827 0.0
H197 H 0.09695 0.91208 0.76318 0.0
H198 H 0.18402 0.83938 0.6602 0.0
H199 H 0.1339 0.90262 0.82134 0.0
Eu200 Eu 0.30743 0.30378 0.74675 0.0
Eu201 Eu 0.27947 0.23471 0.81784 0.0
C202 C 0.23216 0.21159 0.72899 0.0
C203 C 0.29086 0.38294 0.68349 0.0
C204 C 0.24414 0.36128 0.68382 0.0
C205 C 0.27695 0.44742 0.66505 0.0
C206 C 0.21423 0.38224 0.67417 0.0
C207 C 0.307 0.42625 0.67441 0.0
C208 C 0.23033 0.42541 0.66435 0.0
C209 C 0.32205 0.36137 0.69501 0.0
O210 O 0.34875 0.22673 0.77608 0.0
O211 O 0.34819 0.25113 0.71271 0.0
C212 C 0.36398 0.22819 0.73307 0.0
O213 O 0.36694 0.32324 0.78429 0.0
O214 O 0.26686 0.16681 0.82949 0.0
O215 O 0.26858 0.22242 0.88608 0.0
O216 O 0.324 0.29941 0.84799 0.0
C217 C 0.36085 0.32385 0.82745 0.0
O218 O 0.25861 0.33168 0.80727 0.0
O219 O 0.22093 0.27088 0.83986 0.0
O220 O 0.24665 0.19625 0.75723 0.0
O221 O 0.3281 0.37285 0.73695 0.0
O222 O 0.31591 0.31828 0.6799 0.0
O223 O 0.24278 0.25439 0.72831 0.0
C224 C 0.30116 0.16423 0.88912 0.0
C225 C 0.34629 0.19006 0.8918 0.0
C226 C 0.31835 0.10667 0.91698 0.0
C227 C 0.37696 0.17458 0.90759 0.0
C228 C 0.28761 0.12227 0.90142 0.0
C229 C 0.3632 0.13285 0.92072 0.0
C230 C 0.26858 0.18017 0.87237 0.0
C231 C 0.22449 0.31215 0.83559 0.0
H232 H 0.23072 0.32813 0.69156 0.0
H233 H 0.29011 0.48113 0.65878 0.0
H234 H 0.17854 0.3644 0.67386 0.0
H235 H 0.34274 0.44381 0.6749 0.0
H236 H 0.35779 0.22225 0.88173 0.0
H237 H 0.30673 0.07445 0.92696 0.0
H238 H 0.41151 0.19517 0.90936 0.0
H239 H 0.25315 0.10163 0.89918 0.0
Eu240 Eu 0.83177 0.24504 0.78233 0.0
Eu241 Eu 0.76466 0.31001 0.80027 0.0
C242 C 0.74368 0.21639 0.72998 0.0
C243 C 0.94745 0.23429 0.73546 0.0
C244 C 0.94961 0.25938 0.70331 0.0
C245 C 1.03047 0.25064 0.72148 0.0
C246 C 0.99182 0.27707 0.6786 0.0
C247 C 0.98843 0.23389 0.74752 0.0
C248 C 1.03074 0.26312 0.68059 0.0
C249 C 0.9026 0.2113 0.75758 0.0
O250 O 0.73544 0.26342 0.84945 0.0
O251 O 0.7784 0.21118 0.83219 0.0
C252 C 0.74355 0.22737 0.85566 0.0
O253 O 0.84206 0.2899 0.84965 0.0
O254 O 0.69435 0.31629 0.80659 0.0
O255 O 0.74677 0.37444 0.82977 0.0
O256 O 0.82696 0.34966 0.83408 0.0
C257 C 0.8469 0.33317 0.85709 0.0
O258 O 0.86502 0.30488 0.74998 0.0
O259 O 0.8056 0.32422 0.73428 0.0
O260 O 0.73867 0.25745 0.74317 0.0
O261 O 0.89009 0.22981 0.79934 0.0
O262 O 0.86929 0.19957 0.73407 0.0
O263 O 0.775 0.20316 0.74248 0.0
C264 C 0.68349 0.34705 0.88248 0.0
C265 C 0.7123 0.34045 0.90826 0.0
C266 C 0.61804 0.32303 0.93837 0.0
C267 C 0.69426 0.32559 0.94852 0.0
C268 C 0.63585 0.33516 0.8964 0.0
C269 C 0.64799 0.3241 0.96768 0.0
C270 C 0.70326 0.35324 0.83624 0.0
C271 C 0.84882 0.32293 0.72549 0.0
H272 H 0.9187 0.26294 0.69502 0.0
H273 H 0.06119 0.24549 0.72876 0.0
H274 H 0.99171 0.29328 0.6519 0.0
H275 H 0.98787 0.21819 0.7749 0.0
H276 H 0.74908 0.34569 0.89682 0.0
H277 H 0.58117 0.31749 0.94936 0.0
H278 H 0.71792 0.32182 0.96751 0.0
H279 H 0.61259 0.3358 0.87521 0.0
Eu280 Eu 0.83236 0.78491 0.82869 0.0
Eu281 Eu 0.76432 0.75569 0.752 0.0
C282 C 0.74887 0.69379 0.82552 0.0
C283 C 0.904 0.76133 0.8983 0.0
C284 C 0.89008 0.7159 0.8785 0.0
C285 C 0.94767 0.74132 0.94309 0.0
C286 C 0.90422 0.68338 0.89135 0.0
C287 C 0.93333 0.77391 0.93029 0.0
C288 C 0.93257 0.69563 0.92432 0.0
C289 C 0.88661 0.79492 0.88626 0.0
O290 O 0.73719 0.81008 0.80413 0.0
O291 O 0.77367 0.81773 0.86378 0.0
C292 C 0.74174 0.82514 0.84665 0.0
O293 O 0.85222 0.84636 0.79726 0.0
O294 O 0.69597 0.73754 0.73327 0.0
O295 O 0.75648 0.74801 0.6821 0.0
O296 O 0.82569 0.81058 0.73085 0.0
C297 C 0.85137 0.84478 0.75472 0.0
O298 O 0.87038 0.75224 0.7638 0.0
O299 O 0.81137 0.7077 0.72738 0.0
O300 O 0.72966 0.70653 0.79875 0.0
O301 O 0.90157 0.80189 0.84527 0.0
O302 O 0.84231 0.79103 0.89762 0.0
O303 O 0.79084 0.71439 0.83304 0.0
C304 C 0.69434 0.77655 0.67884 0.0
C305 C 0.71898 0.82155 0.68227 0.0
C306 C 0.63305 0.79478 0.65486 0.0
C307 C 0.70105 0.85277 0.6715 0.0
C308 C 0.65114 0.7635 0.66536 0.0
C309 C 0.65805 0.83967 0.65732 0.0
C310 C 0.71211 0.74405 0.69229 0.0
C311 C 0.85468 0.71815 0.73297 0.0
H312 H 0.86781 0.7055 0.8534 0.0
H313 H 0.96946 0.7517 0.96864 0.0
H314 H 0.8927 0.64858 0.87571 0.0
H315 H 0.94453 0.80878 0.94587 0.0
H316 H 0.75203 0.83264 0.69349 0.0
H317 H 0.59924 0.78392 0.64529 0.0
H318 H 0.72102 0.88708 0.67386 0.0
H319 H 0.63115 0.72921 0.66345 0.0
Fe320 Fe 0.05598 0.07973 0.54414 0.0
O321 O 0.99827 0.03169 0.56986 0.0
Fe322 Fe 0.13187 1.00482 0.50718 0.0
Fe323 Fe 0.92768 0.02617 0.5833 0.0
O324 O 0.07046 1.01867 0.53067 0.0
O325 O 0.07186 1.01429 0.54214 0.0
O326 O 0.98569 1.01315 0.54647 0.0
Fe327 Fe 1.01313 0.96473 0.54675 0.0
C328 C 0.98855 0.1013 0.62359 0.0
O329 O 1.01027 0.07172 0.49898 0.0
O330 O 0.93445 0.06049 0.53306 0.0
O331 O 1.02612 0.95216 0.47825 0.0
O332 O 0.10065 0.94988 0.46099 0.0
O333 O 0.14445 0.04853 0.46229 0.0
O334 O 0.10941 0.10454 0.49662 0.0
O335 O 0.90912 0.96592 0.53901 0.0
O336 O 0.95103 0.91897 0.54203 0.0
C337 C 0.13751 0.08722 0.46481 0.0
O338 O 0.04835 0.91881 0.55069 0.0
O339 O 0.12083 0.96252 0.55115 0.0
O340 O 1.00861 0.07091 0.60174 0.0
O341 O 0.9455 0.08873 0.62626 0.0
C342 C 0.9675 0.07119 0.5007 0.0
C343 C 0.91965 0.92774 0.52685 0.0
C344 C 0.95419 0.97317 0.64111 0.0
O345 O 0.92501 0.99021 0.63169 0.0
O346 O 0.9948 0.97394 0.61741 0.0
C347 C 0.059 0.93671 0.45315 0.0
O348 O 0.1602 0.0588 0.55516 0.0
O349 O 0.10176 0.09346 0.58837 0.0
C350 C 0.08831 0.9296 0.56252 0.0
C351 C 0.14175 0.08723 0.58611 0.0
Fe352 Fe 0.54482 0.9712 1.03235 0.0
O353 O 0.58395 0.02496 1.00829 0.0
Fe354 Fe 0.44349 1.00746 0.08146 0.0
Fe355 Fe 0.65121 0.03944 0.99817 0.0
O356 O 0.51091 1.01664 0.07216 0.0
O357 O 0.51118 1.02221 0.07344 0.0
O358 O 0.5843 0.03015 1.00963 0.0
Fe359 Fe 0.5506 0.07567 0.04848 0.0
C360 C 0.62937 0.98196 0.07096 0.0
O361 O 0.58873 0.93174 0.98585 0.0
O362 O 0.64062 0.98376 0.94787 0.0
O363 O 0.51051 0.06402 0.99952 0.0
O364 O 0.44101 0.04933 0.04161 0.0
O365 O 0.4349 0.95482 1.02746 0.0
O366 O 0.50331 0.95686 0.98317 0.0
O367 O 0.64663 0.08461 0.96415 0.0
O368 O 0.59783 0.12484 1.01468 0.0
C369 C 0.45926 0.94561 0.98897 0.0
O370 O 0.50654 0.11515 0.09382 0.0
O371 O 0.45209 0.06406 0.13158 0.0
O372 O 0.58635 0.98095 0.08063 0.0
O373 O 0.65493 0.9973 1.03718 0.0
C374 C 0.62368 0.94319 0.95422 0.0
C375 C 0.63052 0.11994 0.97992 0.0
C376 C 0.63663 0.10418 0.09032 0.0
O377 O 0.66026 0.09196 0.05216 0.0
O378 O 0.59255 0.09201 0.09746 0.0
C379 C 0.46761 0.06225 1.00719 0.0
O380 O 0.44681 0.96157 0.11566 0.0
O381 O 0.49709 0.92215 0.06564 0.0
C382 C 0.47142 0.10456 0.12552 0.0
C383 C 0.46426 0.92692 0.10034 0.0
Fe384 Fe 0.05706 0.57757 0.05189 0.0
O385 O 1.01189 0.52582 0.07593 0.0
Fe386 Fe 0.15447 0.53206 1.00989 0.0
Fe387 Fe 0.94462 0.51557 0.07969 0.0
O388 O 0.08856 0.5288 1.01585 0.0
O389 O 0.08757 0.52326 1.01368 0.0
O390 O 1.01083 0.51983 0.07377 0.0
Fe391 Fe 1.04138 0.47118 1.03564 0.0
C392 C 0.97704 0.61261 0.12449 0.0
O393 O 1.02132 0.56838 1.00019 0.0
O394 O 0.94989 0.55911 1.03839 0.0
O395 O 0.08249 0.42759 0.99029 0.0
O396 O 0.14452 0.47685 0.95767 0.0
O397 O 0.15964 0.58067 0.97487 0.0
O398 O 0.10937 0.62356 1.01758 0.0
O399 O 0.93514 0.46257 1.02576 0.0
O400 O 1.00427 0.46119 0.98392 0.0
C401 C 0.14241 0.61541 0.98397 0.0
O402 O 0.07665 0.47668 0.08672 0.0
O403 O 0.14819 0.48619 0.04905 0.0
O404 O 1.01457 0.62117 0.09443 0.0
O405 O 0.95452 0.57246 0.12991 0.0
C406 C 0.98008 0.57197 1.00578 0.0
C407 C 0.96038 0.45154 0.98834 0.0
C408 C 0.95634 0.43216 0.10306 0.0
O409 O 0.94076 0.46813 0.11566 0.0
O410 O 0.98804 0.4243 0.06794 0.0
C411 C 0.11932 0.43665 0.95953 0.0
O412 O 0.16344 0.58302 0.06601 0.0
O413 O 0.09448 0.59181 0.1043 0.0
C414 C 0.11751 0.47199 0.08073 0.0
C415 C 0.13796 0.59809 0.10178 0.0
Fe416 Fe 0.55386 0.5126 0.9912 0.0
O417 O 0.58833 0.55324 1.03972 0.0
Fe418 Fe 0.44189 0.48885 0.04905 0.0
Fe419 Fe 0.6537 0.55722 0.04049 0.0
O420 O 0.50731 0.49384 0.04356 0.0
O421 O 0.50745 0.49225 0.04863 0.0
O422 O 0.5884 0.55186 0.04476 0.0
Fe423 Fe 0.54199 0.53269 0.09701 0.0
C424 C 0.62105 0.46323 0.99903 0.0
O425 O 0.60939 0.53908 0.94231 0.0
O426 O 0.66287 0.58612 0.98529 0.0
O427 O 0.51472 0.58226 0.09475 0.0
O428 O 0.44148 0.54842 0.09393 0.0
O429 O 0.45076 0.52328 0.99828 0.0
O430 O 0.5238 0.56183 0.98803 0.0
O431 O 0.64741 0.612 0.09088 0.0
O432 O 0.58456 0.58015 0.13965 0.0
C433 C 0.48198 0.55473 0.98337 0.0
O434 O 0.48727 0.50608 0.14606 0.0
O435 O 0.43425 0.45834 0.10302 0.0
O436 O 0.58113 0.46245 0.99399 0.0
O437 O 0.65399 0.49771 0.99606 0.0
C438 C 0.64611 0.57177 0.94801 0.0
C439 C 0.62098 0.61164 0.13009 0.0
C440 C 0.61332 0.49283 0.10747 0.0
O441 O 0.6443 0.5244 0.0926 0.0
O442 O 0.57221 0.48389 0.1003 0.0
C443 C 0.47482 0.5827 0.09135 0.0
O444 O 0.44783 0.43478 0.99784 0.0
O445 O 0.51001 0.46625 0.94833 0.0
C446 C 0.45249 0.47157 0.13946 0.0
C447 C 0.47121 0.43721 0.95763 0.0
Fe448 Fe 1.04559 0.47352 0.53411 0.0
O449 O 1.01595 0.52051 0.57626 0.0
Fe450 Fe 0.08591 0.51627 0.43644 0.0
Fe451 Fe 1.01066 0.53116 0.64243 0.0
O452 O 0.07955 0.52292 0.50159 0.0
O453 O 0.0806 0.52755 0.50261 0.0
O454 O 1.01697 0.52519 0.57727 0.0
Fe455 Fe 0.05178 0.57489 0.5454 0.0
C456 C 0.97103 0.43311 0.6083 0.0
O457 O 0.09797 0.49021 0.5708 0.0
O458 O 0.05789 0.49499 0.64045 0.0
O459 O 0.09283 0.62076 0.50518 0.0
O460 O 0.13199 0.57758 0.44609 0.0
O461 O 0.12877 0.47615 0.43567 0.0
O462 O 0.08394 0.43125 0.48553 0.0
O463 O 0.06211 0.58912 0.65064 0.0
O464 O 0.10469 0.59194 0.58257 0.0
C465 C 0.11868 0.44085 0.45331 0.0
O466 O 0.99983 0.56058 0.5092 0.0
O467 O 1.0377 0.55111 0.43821 0.0
O468 O 1.00507 0.42809 0.57511 0.0
O469 O 0.96375 0.47095 0.63225 0.0
C470 C 0.09425 0.48986 0.61231 0.0
C471 C 0.10015 0.60184 0.62542 0.0
C472 C 0.97932 0.60765 0.62678 0.0
O473 O 0.96874 0.57194 0.64372 0.0
O474 O 1.01421 0.61743 0.59473 0.0
C475 C 0.12577 0.61564 0.47084 0.0
O476 O 1.03525 0.45759 0.42868 0.0
O477 O 0.99259 0.45442 0.49655 0.0
C478 C 1.0031 0.55936 0.46747 0.0
C479 C 0.99729 0.44383 0.45364 0.0
Fe480 Fe 0.54095 0.96904 0.53516 0.0
O481 O 0.51564 1.01785 0.57931 0.0
Fe482 Fe 0.59083 1.01825 0.44168 0.0
Fe483 Fe 0.50745 0.02358 0.64508 0.0
O484 O 0.58129 1.01957 0.50654 0.0
O485 O 0.58232 0.02449 0.50765 0.0
O486 O 0.51643 1.02271 0.58027 0.0
Fe487 Fe 0.55638 0.07332 0.55134 0.0
C488 C 0.46064 0.9285 0.60603 0.0
O489 O 0.59009 0.97552 0.57282 0.0
O490 O 0.54751 0.97951 0.64131 0.0
O491 O 0.60343 0.11909 0.51327 0.0
O492 O 0.6426 0.07454 0.4557 0.0
O493 O 0.62549 0.96993 0.43793 0.0
O494 O 0.57516 0.92471 0.48478 0.0
O495 O 0.56282 0.07693 0.65685 0.0
O496 O 0.60681 0.08454 0.59021 0.0
C497 C 0.61086 0.93301 0.45319 0.0
O498 O 0.50727 0.06602 0.51272 0.0
O499 O 0.55171 0.06259 0.44529 0.0
O500 O 0.49415 0.9227 0.57239 0.0
O501 O 0.4561 0.96686 0.63126 0.0
C502 C 0.58097 0.9679 0.61253 0.0
C503 C 0.60094 0.09246 0.63315 0.0
C504 C 0.48568 0.10868 0.63429 0.0
O505 O 0.47209 0.07122 0.6487 0.0
O506 O 0.52081 0.11745 0.60195 0.0
C507 C 0.63741 0.1131 0.47999 0.0
O508 O 0.53404 0.96594 0.42988 0.0
O509 O 0.49067 0.95926 0.49697 0.0
C510 C 0.51678 0.07285 0.47255 0.0
C511 C 0.49525 0.95332 0.45424 0.0
C512 C 0.23595 0.14104 0.37944 0.0
C513 C 0.21778 0.17216 0.36803 0.0
C514 C 0.2094 0.11238 0.40913 0.0
C515 C 0.1639 0.11447 0.42977 0.0
H516 H 0.27115 0.13896 0.36553 0.0
H517 H 0.22524 0.08953 0.41717 0.0
S518 S 0.09988 0.19003 0.41142 0.0
N519 N 0.15074 0.20244 0.37941 0.0
N520 N 0.10185 0.15023 0.43583 0.0
C521 C 0.14531 0.14527 0.41834 0.0
C522 C 0.17189 0.17359 0.3874 0.0
C523 C 0.97905 0.1064 0.38909 0.0
C524 C 0.93645 0.11616 0.39242 0.0
C525 C 0.98851 0.09107 0.42382 0.0
C526 C 0.95564 0.0848 0.46308 0.0
H527 H 1.00557 0.11158 0.35992 0.0
H528 H 1.022 0.08439 0.41987 0.0
S529 S 0.83695 0.10207 0.48543 0.0
N530 N 0.85999 0.11569 0.43588 0.0
N531 N 0.87737 0.0875 0.50138 0.0
C532 C 0.91222 0.09316 0.46582 0.0
C533 C 0.90278 0.10874 0.4305 0.0
C534 C 0.88719 0.89706 0.41039 0.0
C535 C 0.88168 0.85049 0.39833 0.0
C536 C 0.8986 0.92102 0.4522 0.0
C537 C 0.90538 0.89968 0.48406 0.0
H538 H 0.88177 0.91534 0.38772 0.0
H539 H 0.90257 0.95693 0.45929 0.0
S540 S 0.89674 0.77845 0.46911 0.0
N541 N 0.88506 0.78379 0.42168 0.0
N542 N 0.9074 0.82947 0.50014 0.0
C543 C 0.90156 0.85337 0.47212 0.0
C544 C 0.88949 0.82866 0.42939 0.0
C545 C 1.00746 0.81392 0.4079 0.0
C546 C 1.01022 0.8107 0.36133 0.0
C547 C 1.02558 0.85461 0.43644 0.0
C548 C 1.0439 0.89548 0.42135 0.0
H549 H 0.99741 0.78334 0.42086 0.0
H550 H 1.02628 0.85367 0.47091 0.0
S551 S 0.06372 0.90162 0.27383 0.0
N552 N 1.01179 0.84315 0.29163 0.0
N553 N 0.07076 0.92947 0.34464 0.0
C554 C 1.03499 0.89683 0.38018 0.0
C555 C 0.99992 0.84429 0.3485 0.0
C556 C 0.12174 0.93151 0.6725 0.0
C557 C 0.11898 0.88651 0.67169 0.0
C558 C 0.10994 0.94402 0.63749 0.0
C559 C 0.09462 0.91233 0.60019 0.0
H560 H 0.13483 0.95757 0.69961 0.0
H561 H 0.11366 0.97916 0.63911 0.0
S562 S 0.07693 0.7896 0.5836 0.0
N563 N 0.0967 0.80941 0.63183 0.0
N564 N 0.07426 0.83352 0.56575 0.0
C565 C 0.08954 0.86694 0.59966 0.0
C566 C 0.102 0.85396 0.6354 0.0
C567 C 0.2097 0.19168 0.65247 0.0
C568 C 0.20759 0.17937 0.69361 0.0
C569 C 0.19008 0.16084 0.61696 0.0
C570 C 0.16782 0.11658 0.62119 0.0
H571 H 0.22715 0.22525 0.64734 0.0
H572 H 0.19172 0.17185 0.58618 0.0
S573 S 0.14833 0.06849 0.72287 0.0
N574 N 0.17876 0.12022 0.73708 0.0
N575 N 0.14125 0.06291 0.67043 0.0
C576 C 0.16433 0.10411 0.66226 0.0
C577 C 0.18448 0.1353 0.69841 0.0
C578 C 0.07845 0.20987 0.64313 0.0
C579 C 0.05469 0.2394 0.6371 0.0
C580 C 0.05475 0.16481 0.64149 0.0
C581 C 1.01377 0.14782 0.62318 0.0
H582 H 0.10738 0.22278 0.66107 0.0
H583 H 0.06719 0.14409 0.65647 0.0
S584 S 0.97508 0.20566 0.55446 0.0
N585 N 1.01534 0.24452 0.57913 0.0
N586 N 0.97018 0.15959 0.57259 0.0
C587 C 1.00265 0.17462 0.59966 0.0
C588 C 1.02702 0.22031 0.60318 0.0
C589 C 0.87888 0.92429 0.74184 0.0
C590 C 0.88339 0.87983 0.73065 0.0
C591 C 0.90418 0.9555 0.71435 0.0
C592 C 0.93602 0.94386 0.67542 0.0
H593 H 0.85381 0.93433 0.77054 0.0
H594 H 0.89751 0.98854 0.72269 0.0
S595 S 0.96201 0.83203 0.63318 0.0
N596 N 0.92289 0.82612 0.67894 0.0
N597 N 0.97138 0.88463 0.62858 0.0
C598 C 0.94245 0.90006 0.6655 0.0
C599 C 0.91587 0.86812 0.6927 0.0
C600 C 0.42977 0.19762 0.21569 0.0
C601 C 0.38406 0.19156 0.20902 0.0
C602 C 0.45935 0.17136 0.18722 0.0
C603 C 0.44451 0.13808 0.1508 0.0
H604 H 0.44268 0.22223 0.2438 0.0
H605 H 0.49334 0.17602 0.19476 0.0
S606 S 0.33032 0.11054 0.11571 0.0
N607 N 0.3272 0.15097 0.16071 0.0
N608 N 0.38225 0.10182 0.10813 0.0
C609 C 0.39969 0.13261 0.14284 0.0
C610 C 0.36967 0.15924 0.17159 0.0
C611 C 0.89035 0.32574 0.1465 0.0
C612 C 0.88252 0.34218 0.19346 0.0
C613 C 0.91702 0.35408 0.11663 0.0
C614 C 0.93661 0.39943 0.13308 0.0
H615 H 0.87396 0.29157 0.13268 0.0
H616 H 0.92021 0.34113 0.08062 0.0
S617 S 0.934 0.45603 0.25315 0.0
N618 N 0.90221 0.40486 0.25484 0.0
N619 N 0.95155 0.45756 0.19915 0.0
C620 C 0.93163 0.41506 0.17997 0.0
C621 C 0.90484 0.38656 0.21006 0.0
C622 C 0.66692 0.95282 0.16769 0.0
C623 C 0.70411 0.93352 0.14482 0.0
C624 C 0.64102 0.9669 0.14395 0.0
C625 C 0.65149 0.96198 0.0966 0.0
H626 H 0.65887 0.95849 0.20416 0.0
H627 H 0.614 0.98323 0.16284 0.0
S628 S 0.74011 0.906 1.02093 0.0
N629 N 0.74612 0.90545 0.0722 0.0
N630 N 0.69793 0.93094 1.02789 0.0
C631 C 0.68677 0.94013 0.0736 0.0
C632 C 0.71292 0.92617 0.09757 0.0
C633 C 0.17308 0.69382 0.20016 0.0
C634 C 0.21395 0.6865 0.20743 0.0
C635 C 0.14743 0.66428 0.16749 0.0
C636 C 0.16144 0.62602 0.1406 0.0
H637 H 0.16143 0.72338 0.21897 0.0
H638 H 0.11737 0.67241 0.16213 0.0
S639 S 0.26051 0.58675 0.15198 0.0
N640 N 0.26358 0.63479 0.18848 0.0
N641 N 0.21571 0.57963 0.12769 0.0
C642 C 0.2008 0.6171 0.14923 0.0
C643 C 0.2269 0.64715 0.18235 0.0
C644 C 0.36038 0.89356 0.92204 0.0
C645 C 0.37845 0.86474 0.88422 0.0
C646 C 0.38725 0.92012 0.9546 0.0
C647 C 0.43379 0.91957 0.95106 0.0
H648 H 0.32475 0.89512 0.9272 0.0
H649 H 0.37101 0.94107 0.98324 0.0
S650 S 0.49914 0.85181 0.85766 0.0
N651 N 0.44717 0.83867 0.84444 0.0
N652 N 0.49725 0.88874 0.90562 0.0
C653 C 0.45292 0.89205 0.9128 0.0
C654 C 0.42542 0.86462 0.87957 0.0
C655 C 0.16751 0.33163 0.90789 0.0
C656 C 0.1912 0.33948 0.86477 0.0
C657 C 0.14132 0.3611 0.93751 0.0
C658 C 0.13746 0.39972 0.92531 0.0
H659 H 0.17099 0.30369 0.91979 0.0
H660 H 0.1262 0.35492 0.9711 0.0
S661 S 0.18671 0.43222 0.81398 0.0
N662 N 0.20423 0.38668 0.81013 0.0
N663 N 0.15599 0.44117 0.86496 0.0
C664 C 0.1587 0.40627 0.88134 0.0
C665 C 0.18518 0.37655 0.85142 0.0
C666 C 0.73289 0.1894 0.91902 0.0
C667 C 0.71341 0.2061 0.89225 0.0
C668 C 0.70507 0.16607 0.95182 0.0
C669 C 0.65673 0.1577 0.95832 0.0
H670 H 0.76983 0.19338 0.9138 0.0
H671 H 0.72137 0.15159 0.97012 0.0
S672 S 0.58915 0.19885 0.90037 0.0
N673 N 0.64331 0.21733 0.87755 0.0
N674 N 0.59067 0.17128 0.93843 0.0
C675 C 0.63685 0.17693 0.93417 0.0
C676 C 0.66538 0.2016 0.90111 0.0
C677 C 0.99079 0.6639 0.94296 0.0
C678 C 0.94472 0.66083 0.94065 0.0
C679 C 1.00244 0.63317 0.96135 0.0
C680 C 0.96833 0.5986 0.9788 0.0
H681 H 1.01798 0.69073 0.93113 0.0
H682 H 1.03819 0.63791 0.96383 0.0
S683 S 0.84276 0.57476 0.9788 0.0
N684 N 0.86503 0.61936 0.95575 0.0
N685 N 0.88672 0.56181 0.99025 0.0
C686 C 0.9223 0.5943 0.97521 0.0
C687 C 0.91055 0.62532 0.95618 0.0
C688 C 0.1873 0.41321 0.12227 0.0
C689 C 0.15349 0.38284 0.14563 0.0
C690 C 0.17536 0.44326 0.10337 0.0
C691 C 0.12904 0.44448 0.10717 0.0
H692 H 0.22325 0.41271 0.11714 0.0
H693 H 0.20277 0.4649 0.08452 0.0
S694 S 1.02794 0.37508 0.16988 0.0
N695 N 0.07227 0.35828 0.17511 0.0
N696 N 0.04946 0.41449 0.13958 0.0
C697 C 0.09505 0.41571 0.13252 0.0
C698 C 0.10734 0.38492 0.15157 0.0
C699 C 0.19125 0.72305 0.9371 0.0
C700 C 0.21317 0.70711 0.89345 0.0
C701 C 0.16652 0.69331 0.96622 0.0
C702 C 0.1629 0.64687 0.95224 0.0
H703 H 0.19448 0.75866 0.94923 0.0
H704 H 0.15168 0.70685 1.00022 0.0
S705 S 0.2084 0.58882 0.83799 0.0
N706 N 0.22609 0.64251 0.83611 0.0
N707 N 0.17889 0.58658 0.88923 0.0
C708 C 0.18253 0.63083 0.90741 0.0
C709 C 0.20793 0.66097 0.87845 0.0
C710 C 0.40111 0.07315 0.92358 0.0
C711 C 0.3948 0.117 0.93962 0.0
C712 C 0.42746 0.05622 0.94371 0.0
C713 C 0.44855 0.08268 0.98034 0.0
H714 H 0.38469 0.05143 0.89592 0.0
H715 H 0.42987 1.02175 0.9317 0.0
S716 S 0.44219 0.19885 1.03588 0.0
N717 N 0.41179 0.18611 0.99487 0.0
N718 N 0.46146 0.15431 1.03212 0.0
C719 C 0.44343 0.12669 0.99608 0.0
C720 C 0.41663 0.14393 0.97577 0.0
C721 C 0.89643 0.40867 0.88803 0.0
C722 C 0.8769 0.36314 0.8901 0.0
C723 C 0.9256 0.43686 0.91833 0.0
C724 C 0.93645 0.42058 0.95178 0.0
H725 H 0.88914 0.4227 0.86283 0.0
H726 H 0.93878 0.47186 0.91632 0.0
S727 S 0.89292 0.30534 0.97367 0.0
N728 N 0.87008 0.30399 0.92995 0.0
N729 N 0.92422 0.35692 0.9864 0.0
C730 C 0.91711 0.37547 0.95441 0.0
C731 C 0.88766 0.34678 0.92368 0.0
C732 C 0.66291 0.839 0.88169 0.0
C733 C 0.7114 0.85406 0.87563 0.0
C734 C 0.63403 0.86691 0.90847 0.0
C735 C 0.65279 0.91132 0.92872 0.0
H736 H 0.64724 0.80535 0.86576 0.0
H737 H 0.59702 0.85417 0.91216 0.0
S738 S 0.77787 0.96657 0.92232 0.0
N739 N 0.77658 0.91553 0.89245 0.0
N740 N 0.72351 0.96853 0.94062 0.0
C741 C 0.70141 0.92644 0.92252 0.0
C742 C 0.73039 0.89773 0.89658 0.0
C743 C 0.94614 0.71812 0.20626 0.0
C744 C 0.89797 0.70897 0.20801 0.0
C745 C 0.97284 0.68849 0.1777 0.0
C746 C 0.95231 0.64874 0.14973 0.0
H747 H 0.96294 0.74721 0.22853 0.0
H748 H 1.00919 0.69572 0.17904 0.0
S749 S 0.82913 0.6136 0.13644 0.0
N750 N 0.83243 0.65979 0.17557 0.0
N751 N 0.88165 0.60535 0.12223 0.0
C752 C 0.90477 0.6411 0.1495 0.0
C753 C 0.87793 0.67074 0.17847 0.0
C754 C 0.42798 0.86348 0.19317 0.0
C755 C 0.38062 0.84594 0.19144 0.0
C756 C 0.45746 0.88536 0.15968 0.0
C757 C 0.44062 0.88964 0.12313 0.0
H758 H 0.44201 0.86251 0.22181 0.0
H759 H 0.49261 0.90199 0.16425 0.0
S760 S 0.32175 0.84377 0.09886 0.0
N761 N 0.31982 0.8298 0.14715 0.0
N762 N 0.3755 0.87101 0.08425 0.0
C763 C 0.39446 0.86911 0.119 0.0
C764 C 0.36431 0.84725 0.15322 0.0
C765 C 0.66443 0.17967 0.20337 0.0
C766 C 0.71287 0.19286 0.19517 0.0
C767 C 0.63975 0.15098 0.16962 0.0
C768 C 0.66267 0.1348 0.12634 0.0
H769 H 0.64559 0.19089 0.23631 0.0
H770 H 0.60253 0.14132 0.17762 0.0
S771 S 0.78997 0.16306 0.08806 0.0
N772 N 0.7828 0.18957 0.14111 0.0
N773 N 0.73773 0.13691 0.07752 0.0
C774 C 0.71143 0.14905 0.11794 0.0
C775 C 0.73614 0.1777 0.15236 0.0
C776 C 0.7436 0.64646 0.88128 0.0
C777 C 0.72251 0.65697 0.85078 0.0
C778 C 0.71905 0.61705 0.91031 0.0
C779 C 0.67196 0.59601 0.9105 0.0
H780 H 0.77928 0.66231 0.88419 0.0
H781 H 0.73713 0.61182 0.93395 0.0
S782 S 0.60125 0.60679 0.83337 0.0
N783 N 0.65207 0.64026 0.81981 0.0
N784 N 0.60625 0.58436 0.87407 0.0
C785 C 0.65097 0.60359 0.87816 0.0
C786 C 0.67604 0.63418 0.84857 0.0
C787 C 0.4911 0.63369 0.90553 0.0
C788 C 0.44504 0.6271 0.90092 0.0
C789 C 0.50272 0.61187 0.93395 0.0
C790 C 0.46879 0.58178 0.95778 0.0
H791 H 0.51829 0.65554 0.88673 0.0
H792 H 0.53863 0.61776 0.93631 0.0
S793 S 0.34257 0.55487 0.95801 0.0
N794 N 0.36519 0.59037 0.9236 0.0
N795 N 0.38644 0.54866 0.97609 0.0
C796 C 0.42232 0.57614 0.95424 0.0
C797 C 0.41063 0.59889 0.92597 0.0
C798 C 0.4386 0.35866 0.84959 0.0
C799 C 0.39148 0.35747 0.85571 0.0
C800 C 0.4656 0.38594 0.88187 0.0
C801 C 0.44571 0.41215 0.92079 0.0
H802 H 0.45395 0.33692 0.82105 0.0
H803 H 0.50135 0.38503 0.87744 0.0
S804 S 0.32569 0.42585 0.9475 0.0
N805 N 0.32768 0.38833 0.90003 0.0
N806 N 0.37785 0.43955 0.9603 0.0
C807 C 0.39939 0.41323 0.92527 0.0
C808 C 0.37233 0.38578 0.89277 0.0
C809 C 0.59261 0.35022 1.03141 0.0
C810 C 0.6371 0.34272 1.01753 0.0
C811 C 0.58681 0.39054 1.02522 0.0
C812 C 0.62609 0.42526 1.01512 0.0
H813 H 0.56294 0.32208 1.0329 0.0
H814 H 0.55236 0.39304 1.02524 0.0
S815 S 0.74157 0.43177 1.03744 0.0
N816 N 0.71237 0.37964 1.0392 0.0
N817 N 0.70619 0.45674 1.02612 0.0
C818 C 0.66797 0.42251 1.02404 0.0
C819 C 0.67124 0.3811 1.03117 0.0
C820 C 0.60199 0.41527 0.1875 0.0
C821 C 0.6461 0.42786 0.19927 0.0
C822 C 0.59179 0.43533 0.15664 0.0
C823 C 0.6255 0.46845 0.13645 0.0
H824 H 0.57492 0.39085 0.20328 0.0
H825 H 0.557 0.4256 0.1495 0.0
S826 S 0.74808 0.50819 0.15254 0.0
N827 N 0.72465 0.47157 0.18565 0.0
N828 N 0.7062 0.50981 0.12834 0.0
C829 C 0.67043 0.47946 0.14663 0.0
C830 C 0.68054 0.45903 0.17785 0.0
C831 C 0.66931 0.66206 0.23693 0.0
C832 C 0.69533 0.70428 0.22862 0.0
C833 C 0.64132 0.63323 0.20662 0.0
C834 C 0.63863 0.64596 0.16732 0.0
H835 H 0.67292 0.64996 0.26528 0.0
H836 H 0.62468 0.59963 0.21218 0.0
S837 S 0.69155 0.75651 0.13566 0.0
N838 N 0.71045 0.76015 0.18246 0.0
N839 N 0.65801 0.70565 0.12531 0.0
C840 C 0.6609 0.68955 0.16096 0.0
C841 C 0.68929 0.71886 0.19172 0.0
C842 C 0.51013 0.69594 0.05924 0.0
C843 C 0.46854 0.7087 0.07698 0.0
C844 C 0.51203 0.65351 0.063 0.0
C845 C 0.47112 0.62216 0.07694 0.0
H846 H 0.5421 0.72131 0.05571 0.0
H847 H 0.54567 0.64688 0.05847 0.0
S848 S 0.35432 0.63 0.07304 0.0
N849 N 0.3875 0.68037 0.06941 0.0
N850 N 0.38829 0.59962 0.07727 0.0
C851 C 0.42928 0.63032 0.0748 0.0
C852 C 0.42895 0.6737 0.07045 0.0
C853 C 0.39438 0.42572 0.24756 0.0
C854 C 0.38727 0.37905 0.23141 0.0
C855 C 0.41776 0.45641 0.21869 0.0
C856 C 0.43468 0.44131 0.17281 0.0
H857 H 0.37979 0.43849 0.28191 0.0
H858 H 0.42055 0.49184 0.23172 0.0
S859 S 0.43203 0.32324 0.11624 0.0
N860 N 0.40437 0.32013 0.16798 0.0
N861 N 0.44755 0.37701 0.11457 0.0
C862 C 0.43036 0.39502 0.15745 0.0
C863 C 0.40689 0.36414 0.18648 0.0
C864 C 0.88414 0.67051 0.65937 0.0
C865 C 0.88776 0.69155 0.70457 0.0
C866 C 0.91596 0.64577 0.63272 0.0
C867 C 0.95216 0.64101 0.65054 0.0
H868 H 0.85654 0.67308 0.64455 0.0
H869 H 0.91121 0.62892 0.5986 0.0
S870 S 0.97614 0.68783 0.76692 0.0
N871 N 0.93083 0.70533 0.76555 0.0
N872 N 0.98913 0.65828 0.71601 0.0
C873 C 0.95618 0.66196 0.69538 0.0
C874 C 0.92445 0.6874 0.72221 0.0
C875 C 0.35406 0.86317 0.66792 0.0
C876 C 0.37055 0.83139 0.67986 0.0
C877 C 0.38233 0.89154 0.6395 0.0
C878 C 0.42819 0.88926 0.62195 0.0
H879 H 0.31978 0.86785 0.68264 0.0
H880 H 0.3692 0.91757 0.63375 0.0
S881 S 0.48658 0.80886 0.63914 0.0
N882 N 0.43425 0.7964 0.66868 0.0
N883 N 0.48768 0.85021 0.61526 0.0
C884 C 0.44395 0.85515 0.63043 0.0
C885 C 0.41501 0.82606 0.65948 0.0
C886 C 0.15425 0.44536 0.67935 0.0
C887 C 0.1982 0.44664 0.65291 0.0
C888 C 0.12167 0.46134 0.66707 0.0
C889 C 0.13135 0.47846 0.62737 0.0
H890 H 0.14472 0.43138 0.70957 0.0
H891 H 0.0882 0.459 0.68829 0.0
S892 S 0.24349 0.49454 0.54956 0.0
N893 N 0.25116 0.4701 0.58736 0.0
N894 N 0.18999 0.50021 0.56428 0.0
C895 C 0.17601 0.48204 0.60184 0.0
C896 C 0.20937 0.46613 0.61461 0.0
C897 C 0.7195 0.15392 0.66492 0.0
C898 C 0.70814 0.18353 0.7054 0.0
C899 C 0.6849 0.1249 0.64092 0.0
C900 C 0.63788 0.12377 0.65735 0.0
H901 H 0.75524 0.15389 0.65131 0.0
H902 H 0.69494 0.10284 0.60971 0.0
S903 S 0.59058 0.19421 0.76247 0.0
N904 N 0.64683 0.20962 0.7609 0.0
N905 N 0.58234 0.15514 0.71681 0.0
C906 C 0.62642 0.15296 0.69812 0.0
C907 C 0.6614 0.18276 0.72187 0.0
C908 C 0.93555 0.36081 0.3626 0.0
C909 C 0.88836 0.35707 0.38013 0.0
C910 C 0.96982 0.38815 0.38708 0.0
C911 C 0.95895 0.413 0.43072 0.0
H912 H 0.94654 0.34286 0.32912 0.0
H913 H 1.00542 0.3898 0.37134 0.0
S914 S 0.84091 0.41542 0.4929 0.0
N915 N 0.83253 0.38088 0.4444 0.0
N916 N 0.89729 0.43208 0.49077 0.0
C917 C 0.91196 0.4093 0.44925 0.0
C918 C 0.8767 0.38162 0.42387 0.0
C919 C 0.69374 0.85664 0.42677 0.0
C920 C 0.69588 0.84056 0.37985 0.0
C921 C 0.66447 0.88495 0.45119 0.0
C922 C 0.6356 0.89739 0.4298 0.0
H923 H 0.71651 0.84924 0.44433 0.0
H924 H 0.66612 0.89891 0.48651 0.0
S925 S 0.6248 0.86155 0.30887 0.0
N926 N 0.6638 0.83726 0.31392 0.0
N927 N 0.60932 0.88989 0.35978 0.0
C928 C 0.63606 0.88014 0.38351 0.0
C929 C 0.66586 0.85175 0.35862 0.0
C930 C 0.23228 0.68362 0.41198 0.0
C931 C 0.216 0.71637 0.40142 0.0
C932 C 0.20363 0.65364 0.43835 0.0
C933 C 0.15765 0.65533 0.4556 0.0
H934 H 0.26679 0.67938 0.39789 0.0
H935 H 0.21684 0.62716 0.44306 0.0
S936 S 0.10018 0.73939 0.44507 0.0
N937 N 0.15248 0.75258 0.41572 0.0
N938 N 0.09849 0.69565 0.46562 0.0
C939 C 0.14202 0.69046 0.4493 0.0
C940 C 0.17127 0.72115 0.42206 0.0
C941 C 0.44282 0.15375 0.48129 0.0
C942 C 0.45254 0.16254 0.43746 0.0
C943 C 0.46163 0.12285 0.49187 0.0
C944 C 0.49141 0.09989 0.45913 0.0
H945 H 0.42069 0.17114 0.50771 0.0
H946 H 0.45379 0.11797 0.52632 0.0
S947 S 0.52537 0.10912 0.33835 0.0
N948 N 0.49218 0.14452 0.36059 0.0
N949 N 0.52713 0.08628 0.37996 0.0
C950 C 0.49989 0.1072 0.41464 0.0
C951 C 0.48064 0.13856 0.40396 0.0
C952 C 0.63891 0.91474 0.67362 0.0
C953 C 0.63952 0.87275 0.64488 0.0
C954 C 0.6205 0.94588 0.66284 0.0
C955 C 0.60321 0.93656 0.62242 0.0
H956 H 0.65181 0.92318 0.70514 0.0
H957 H 0.61973 0.97739 0.68624 0.0
S958 S 0.59517 0.83111 0.53662 0.0
N959 N 0.62038 0.82351 0.5747 0.0
N960 N 0.58604 0.88185 0.55459 0.0
C961 C 0.60381 0.89489 0.59341 0.0
C962 C 0.62187 0.86304 0.60461 0.0
C963 C 0.74141 0.18029 0.41541 0.0
C964 C 0.72275 0.21006 0.40255 0.0
C965 C 0.71454 0.15163 0.44433 0.0
C966 C 0.66823 0.15206 0.46212 0.0
H967 H 0.77623 0.17713 0.40108 0.0
H968 H 0.72936 0.12709 0.45074 0.0
S969 S 0.6041 0.22699 0.44368 0.0
N970 N 0.65589 0.24104 0.41372 0.0
N971 N 0.6058 0.18703 0.46803 0.0
C972 C 0.65014 0.18396 0.45257 0.0
C973 C 0.67729 0.21295 0.42274 0.0
C974 C 0.92995 0.63249 0.45741 0.0
C975 C 0.90063 0.60362 0.42802 0.0
C976 C 0.96272 0.61751 0.47048 0.0
C977 C 0.9679 0.5736 0.45361 0.0
H978 H 0.92734 0.66681 0.4705 0.0
H979 H 0.98466 0.6406 0.49334 0.0
S980 S 0.89941 0.48496 0.37631 0.0
N981 N 0.87805 0.52892 0.3833 0.0
N982 N 0.9412 0.50132 0.40659 0.0
C983 C 0.93904 0.54446 0.42413 0.0
C984 C 0.90487 0.55935 0.41168 0.0
C985 C 0.38166 0.87172 0.42951 0.0
C986 C 0.37927 0.87652 0.38634 0.0
C987 C 0.4183 0.89782 0.45199 0.0
C988 C 0.45477 0.92871 0.43151 0.0
H989 H 0.35528 0.84717 0.44578 0.0
H990 H 0.41882 0.89256 0.48499 0.0
S991 S 0.46489 0.95318 0.3182 0.0
N992 N 0.41615 0.91462 0.32404 0.0
N993 N 0.48544 0.96276 0.36537 0.0
C994 C 0.45243 0.93397 0.38838 0.0
C995 C 0.41462 0.90813 0.36604 0.0
C996 C 0.21915 0.38493 0.42235 0.0
C997 C 0.21265 0.3577 0.37978 0.0
C998 C 0.18717 0.41003 0.44754 0.0
C999 C 0.14716 0.40807 0.43157 0.0
H1000 H 0.24992 0.38813 0.43556 0.0
H1001 H 0.19447 0.43218 0.479 0.0
S1002 S 0.11088 0.33808 0.32516 0.0
N1003 N 0.1607 0.32771 0.32488 0.0
N1004 N 0.10117 0.37454 0.37235 0.0
C1005 C 0.13921 0.37951 0.39026 0.0
C1006 C 0.17174 0.35438 0.3644 0.0
C1007 C 0.40485 0.16804 0.72614 0.0
C1008 C 0.3984 0.20134 0.70732 0.0
C1009 C 0.43394 0.13978 0.70258 0.0
C1010 C 0.45882 0.14321 0.65882 0.0
H1011 H 0.38631 0.16273 0.75921 0.0
H1012 H 0.43646 0.11448 0.71905 0.0
S1013 S 0.45824 0.22779 0.59547 0.0
N1014 N 0.42194 0.23803 0.64282 0.0
N1015 N 0.47744 0.18534 0.59895 0.0
C1016 C 0.45449 0.17768 0.64017 0.0
C1017 C 0.42409 0.2064 0.66414 0.0
C1018 C 0.86693 0.35324 0.6548 0.0
C1019 C 0.88164 0.34681 0.69187 0.0
C1020 C 0.8978 0.37749 0.62369 0.0
C1021 C 0.94426 0.39493 0.62834 0.0
H1022 H 0.83119 0.34065 0.65058 0.0
H1023 H 0.88479 0.38484 0.59746 0.0
S1024 S 0.99959 0.38947 0.72017 0.0
N1025 N 0.94555 0.36186 0.73223 0.0
N1026 N 1.00352 0.40482 0.67219 0.0
C1027 C 0.95969 0.38719 0.66403 0.0
C1028 C 0.92833 0.36384 0.69632 0.0
C1029 C 0.21111 0.6479 0.67445 0.0
C1030 C 0.2052 0.6895 0.70117 0.0
C1031 C 0.17818 0.62035 0.64778 0.0
C1032 C 0.13802 0.63327 0.64755 0.0
H1033 H 0.24124 0.63651 0.67423 0.0
H1034 H 0.18338 0.58818 0.62848 0.0
S1035 S 0.10529 0.73785 0.71188 0.0
N1036 N 0.15527 0.74151 0.72559 0.0
N1037 N 0.09407 0.68978 0.67596 0.0
C1038 C 0.13185 0.67461 0.67379 0.0
C1039 C 0.16526 0.70273 0.70043 0.0
loop_
_geom_bond_atom_site_label_1
_geom_bond_atom_site_label_2
_geom_bond_distance
_geom_bond_site_symmetry_2
_ccdc_geom_bond_type
Eu0 C9 2.828 . S
Eu0 O11 2.392 . S
Eu0 O13 2.418 . S
Eu0 O18 2.373 . S
Eu0 O21 2.488 . S
Eu0 O22 2.471 . S
Eu0 O23 2.349 . S
Eu1 O10 2.373 . S
Eu1 O14 2.488 . S
Eu1 O15 2.471 . S
Eu1 O16 2.349 . S
Eu1 O19 2.392 . S
Eu1 O20 2.418 . S
Eu1 C30 2.828 . S
C2 O20 1.244 . S
C2 O23 1.265 . S
C3 C4 1.379 . S
C3 C7 1.373 . S
C3 C9 1.505 . S
C4 C3 1.379 . S
C4 C6 1.369 . S
C4 H32 0.930 . S
C5 C7 1.383 . S
C5 C8 1.382 . S
C5 H33 0.930 . S
C6 C4 1.369 . S
C6 C8 1.392 . S
C6 H34 0.930 . S
C7 C3 1.373 . S
C7 C5 1.383 . S
C7 H35 0.931 . S
C8 C5 1.382 . S
C8 C6 1.392 . S
C9 Eu0 2.828 . S
C9 C3 1.505 . S
C9 O21 1.249 . S
C9 O22 1.244 . S
O10 Eu1 2.373 . S
O10 C12 1.258 . S
O11 Eu0 2.392 . S
O11 C12 1.242 . S
C12 O10 1.258 . S
C12 O11 1.242 . S
O13 Eu0 2.418 . S
O13 C17 1.244 . S
O14 Eu1 2.488 . S
O14 C30 1.249 . S
O15 Eu1 2.471 . S
O15 C30 1.244 . S
O16 Eu1 2.349 . S
O16 C17 1.265 . S
C17 O13 1.244 . S
C17 O16 1.265 . S
O18 Eu0 2.373 . S
O18 C31 1.258 . S
O19 Eu1 2.392 . S
O19 C31 1.242 . S
O20 Eu1 2.418 . S
O20 C2 1.244 . S
O21 Eu0 2.488 . S
O21 C9 1.249 . S
O22 Eu0 2.471 . S
O22 C9 1.244 . S
O23 Eu0 2.349 . S
O23 C2 1.265 . S
C24 C25 1.379 . S
C24 C28 1.373 . S
C24 C30 1.505 . S
C25 C24 1.379 . S
C25 C27 1.369 . S
C25 H36 0.930 . S
C26 C28 1.383 . S
C26 C29 1.382 . S
C26 H37 0.930 . S
C27 C25 1.369 . S
C27 C29 1.392 . S
C27 H38 0.930 . S
C28 C24 1.373 . S
C28 C26 1.383 . S
C28 H39 0.931 . S
C29 C26 1.382 . S
C29 C27 1.392 . S
C30 Eu1 2.828 . S
C30 O14 1.249 . S
C30 O15 1.244 . S
C30 C24 1.505 . S
C31 O18 1.258 . S
C31 O19 1.242 . S
H32 C4 0.930 . S
H33 C5 0.930 . S
H34 C6 0.930 . S
H35 C7 0.931 . S
H36 C25 0.930 . S
H37 C26 0.930 . S
H38 C27 0.930 . S
H39 C28 0.931 . S
Eu40 C49 2.828 . S
Eu40 O51 2.392 . S
Eu40 O53 2.418 . S
Eu40 O58 2.373 . S
Eu40 O61 2.488 . S
Eu40 O62 2.471 . S
Eu40 O63 2.349 . S
Eu41 O50 2.373 . S
Eu41 O54 2.488 . S
Eu41 O55 2.471 . S
Eu41 O56 2.349 . S
Eu41 O59 2.392 . S
Eu41 O60 2.418 . S
Eu41 C70 2.828 . S
C42 O60 1.244 . S
C42 O63 1.265 . S
C43 C44 1.379 . S
C43 C47 1.373 . S
C43 C49 1.505 . S
C44 C43 1.379 . S
C44 C46 1.369 . S
C44 H72 0.930 . S
C45 C47 1.383 . S
C45 C48 1.382 . S
C45 H73 0.930 . S
C46 C44 1.369 . S
C46 C48 1.392 . S
C46 H74 0.930 . S
C47 C43 1.373 . S
C47 C45 1.383 . S
C47 H75 0.931 . S
C48 C45 1.382 . S
C48 C46 1.392 . S
C49 Eu40 2.828 . S
C49 C43 1.505 . S
C49 O61 1.249 . S
C49 O62 1.244 . S
O50 Eu41 2.373 . S
O50 C52 1.258 . S
O51 Eu40 2.392 . S
O51 C52 1.242 . S
C52 O50 1.258 . S
C52 O51 1.242 . S
O53 Eu40 2.418 . S
O53 C57 1.244 . S
O54 Eu41 2.488 . S
O54 C70 1.249 . S
O55 Eu41 2.471 . S
O55 C70 1.244 . S
O56 Eu41 2.349 . S
O56 C57 1.265 . S
C57 O53 1.244 . S
C57 O56 1.265 . S
O58 Eu40 2.373 . S
O58 C71 1.258 . S
O59 Eu41 2.392 . S
O59 C71 1.242 . S
O60 Eu41 2.418 . S
O60 C42 1.244 . S
O61 Eu40 2.488 . S
O61 C49 1.249 . S
O62 Eu40 2.471 . S
O62 C49 1.244 . S
O63 Eu40 2.349 . S
O63 C42 1.265 . S
C64 C65 1.379 . S
C64 C68 1.373 . S
C64 C70 1.505 . S
C65 C64 1.379 . S
C65 C67 1.369 . S
C65 H76 0.930 . S
C66 C68 1.383 . S
C66 C69 1.382 . S
C66 H77 0.930 . S
C67 C65 1.369 . S
C67 C69 1.392 . S
C67 H78 0.930 . S
C68 C64 1.373 . S
C68 C66 1.383 . S
C68 H79 0.931 . S
C69 C66 1.382 . S
C69 C67 1.392 . S
C70 Eu41 2.828 . S
C70 O54 1.249 . S
C70 O55 1.244 . S
C70 C64 1.505 . S
C71 O58 1.258 . S
C71 O59 1.242 . S
H72 C44 0.930 . S
H73 C45 0.930 . S
H74 C46 0.930 . S
H75 C47 0.931 . S
H76 C65 0.930 . S
H77 C66 0.930 . S
H78 C67 0.930 . S
H79 C68 0.931 . S
Eu80 C89 2.828 . S
Eu80 O91 2.392 . S
Eu80 O93 2.418 . S
Eu80 O98 2.373 . S
Eu80 O101 2.488 . S
Eu80 O102 2.471 . S
Eu80 O103 2.349 . S
Eu81 O90 2.373 . S
Eu81 O94 2.488 . S
Eu81 O95 2.471 . S
Eu81 O96 2.349 . S
Eu81 O99 2.392 . S
Eu81 O100 2.418 . S
Eu81 C110 2.828 . S
C82 O100 1.244 . S
C82 O103 1.265 . S
C83 C84 1.379 . S
C83 C87 1.373 . S
C83 C89 1.505 . S
C84 C83 1.379 . S
C84 C86 1.369 . S
C84 H112 0.930 . S
C85 C87 1.383 . S
C85 C88 1.382 . S
C85 H113 0.930 . S
C86 C84 1.369 . S
C86 C88 1.392 . S
C86 H114 0.930 . S
C87 C83 1.373 . S
C87 C85 1.383 . S
C87 H115 0.931 . S
C88 C85 1.382 . S
C88 C86 1.392 . S
C89 Eu80 2.828 . S
C89 C83 1.505 . S
C89 O101 1.249 . S
C89 O102 1.244 . S
O90 Eu81 2.373 . S
O90 C92 1.258 . S
O91 Eu80 2.392 . S
O91 C92 1.242 . S
C92 O90 1.258 . S
C92 O91 1.242 . S
O93 Eu80 2.418 . S
O93 C97 1.244 . S
O94 Eu81 2.488 . S
O94 C110 1.249 . S
O95 Eu81 2.471 . S
O95 C110 1.244 . S
O96 Eu81 2.349 . S
O96 C97 1.265 . S
C97 O93 1.244 . S
C97 O96 1.265 . S
O98 Eu80 2.373 . S
O98 C111 1.258 . S
O99 Eu81 2.392 . S
O99 C111 1.242 . S
O100 Eu81 2.418 . S
O100 C82 1.244 . S
O101 Eu80 2.488 . S
O101 C89 1.249 . S
O102 Eu80 2.471 . S
O102 C89 1.244 . S
O103 Eu80 2.349 . S
O103 C82 1.265 . S
C104 C105 1.379 . S
C104 C108 1.373 . S
C104 C110 1.505 . S
C105 C104 1.379 . S
C105 C107 1.369 . S
C105 H116 0.930 . S
C106 C108 1.383 . S
C106 C109 1.382 . S
C106 H117 0.930 . S
C107 C105 1.369 . S
C107 C109 1.392 . S
C107 H118 0.930 . S
C108 C104 1.373 . S
C108 C106 1.383 . S
C108 H119 0.931 . S
C109 C106 1.382 . S
C109 C107 1.392 . S
C110 Eu81 2.828 . S
C110 O94 1.249 . S
C110 O95 1.244 . S
C110 C104 1.505 . S
C111 O98 1.258 . S
C111 O99 1.242 . S
H112 C84 0.930 . S
H113 C85 0.930 . S
H114 C86 0.930 . S
H115 C87 0.931 . S
H116 C105 0.930 . S
H117 C106 0.930 . S
H118 C107 0.930 . S
H119 C108 0.931 . S
Eu120 C129 2.828 . S
Eu120 O131 2.392 . S
Eu120 O133 2.418 . S
Eu120 O138 2.373 . S
Eu120 O141 2.488 . S
Eu120 O142 2.471 . S
Eu120 O143 2.349 . S
Eu121 O130 2.373 . S
Eu121 O134 2.488 . S
Eu121 O135 2.471 . S
Eu121 O136 2.349 . S
Eu121 O139 2.392 . S
Eu121 O140 2.418 . S
Eu121 C150 2.828 . S
C122 O140 1.244 . S
C122 O143 1.265 . S
C123 C124 1.379 . S
C123 C127 1.373 . S
C123 C129 1.505 . S
C124 C123 1.379 . S
C124 C126 1.369 . S
C124 H152 0.930 . S
C125 C127 1.383 . S
C125 C128 1.382 . S
C125 H153 0.930 . S
C126 C124 1.369 . S
C126 C128 1.392 . S
C126 H154 0.930 . S
C127 C123 1.373 . S
C127 C125 1.383 . S
C127 H155 0.931 . S
C128 C125 1.382 . S
C128 C126 1.392 . S
C129 Eu120 2.828 . S
C129 C123 1.505 . S
C129 O141 1.249 . S
C129 O142 1.244 . S
O130 Eu121 2.373 . S
O130 C132 1.258 . S
O131 Eu120 2.392 . S
O131 C132 1.242 . S
C132 O130 1.258 . S
C132 O131 1.242 . S
O133 Eu120 2.418 . S
O133 C137 1.244 . S
O134 Eu121 2.488 . S
O134 C150 1.249 . S
O135 Eu121 2.471 . S
O135 C150 1.244 . S
O136 Eu121 2.349 . S
O136 C137 1.265 . S
C137 O133 1.244 . S
C137 O136 1.265 . S
O138 Eu120 2.373 . S
O138 C151 1.258 . S
O139 Eu121 2.392 . S
O139 C151 1.242 . S
O140 Eu121 2.418 . S
O140 C122 1.244 . S
O141 Eu120 2.488 . S
O141 C129 1.249 . S
O142 Eu120 2.471 . S
O142 C129 1.244 . S
O143 Eu120 2.349 . S
O143 C122 1.265 . S
C144 C145 1.379 . S
C144 C148 1.373 . S
C144 C150 1.505 . S
C145 C144 1.379 . S
C145 C147 1.369 . S
C145 H156 0.930 . S
C146 C148 1.383 . S
C146 C149 1.382 . S
C146 H157 0.930 . S
C147 C145 1.369 . S
C147 C149 1.392 . S
C147 H158 0.930 . S
C148 C144 1.373 . S
C148 C146 1.383 . S
C148 H159 0.931 . S
C149 C146 1.382 . S
C149 C147 1.392 . S
C150 Eu121 2.828 . S
C150 O134 1.249 . S
C150 O135 1.244 . S
C150 C144 1.505 . S
C151 O138 1.258 . S
C151 O139 1.242 . S
H152 C124 0.930 . S
H153 C125 0.930 . S
H154 C126 0.930 . S
H155 C127 0.931 . S
H156 C145 0.930 . S
H157 C146 0.930 . S
H158 C147 0.930 . S
H159 C148 0.931 . S
Eu160 C169 2.828 . S
Eu160 O171 2.392 . S
Eu160 O173 2.418 . S
Eu160 O178 2.373 . S
Eu160 O181 2.488 . S
Eu160 O182 2.471 . S
Eu160 O183 2.349 . S
Eu161 O170 2.373 . S
Eu161 O174 2.488 . S
Eu161 O175 2.471 . S
Eu161 O176 2.349 . S
Eu161 O179 2.392 . S
Eu161 O180 2.418 . S
Eu161 C190 2.828 . S
C162 O180 1.244 . S
C162 O183 1.265 . S
C163 C164 1.379 . S
C163 C167 1.373 . S
C163 C169 1.505 . S
C164 C163 1.379 . S
C164 C166 1.369 . S
C164 H192 0.930 . S
C165 C167 1.383 . S
C165 C168 1.382 . S
C165 H193 0.930 . S
C166 C164 1.369 . S
C166 C168 1.392 . S
C166 H194 0.930 . S
C167 C163 1.373 . S
C167 C165 1.383 . S
C167 H195 0.931 . S
C168 C165 1.382 . S
C168 C166 1.392 . S
C169 Eu160 2.828 . S
C169 C163 1.505 . S
C169 O181 1.249 . S
C169 O182 1.244 . S
O170 Eu161 2.373 . S
O170 C172 1.258 . S
O171 Eu160 2.392 . S
O171 C172 1.242 . S
C172 O170 1.258 . S
C172 O171 1.242 . S
O173 Eu160 2.418 . S
O173 C177 1.244 . S
O174 Eu161 2.488 . S
O174 C190 1.249 . S
O175 Eu161 2.471 . S
O175 C190 1.244 . S
O176 Eu161 2.349 . S
O176 C177 1.265 . S
C177 O173 1.244 . S
C177 O176 1.265 . S
O178 Eu160 2.373 . S
O178 C191 1.258 . S
O179 Eu161 2.392 . S
O179 C191 1.242 . S
O180 Eu161 2.418 . S
O180 C162 1.244 . S
O181 Eu160 2.488 . S
O181 C169 1.249 . S
O182 Eu160 2.471 . S
O182 C169 1.244 . S
O183 Eu160 2.349 . S
O183 C162 1.265 . S
C184 C185 1.379 . S
C184 C188 1.373 . S
C184 C190 1.505 . S
C185 C184 1.379 . S
C185 C187 1.369 . S
C185 H196 0.930 . S
C186 C188 1.383 . S
C186 C189 1.382 . S
C186 H197 0.930 . S
C187 C185 1.369 . S
C187 C189 1.392 . S
C187 H198 0.930 . S
C188 C184 1.373 . S
C188 C186 1.383 . S
C188 H199 0.931 . S
C189 C186 1.382 . S
C189 C187 1.392 . S
C190 Eu161 2.828 . S
C190 O174 1.249 . S
C190 O175 1.244 . S
C190 C184 1.505 . S
C191 O178 1.258 . S
C191 O179 1.242 . S
H192 C164 0.930 . S
H193 C165 0.930 . S
H194 C166 0.930 . S
H195 C167 0.931 . S
H196 C185 0.930 . S
H197 C186 0.930 . S
H198 C187 0.930 . S
H199 C188 0.931 . S
Eu200 C209 2.828 . S
Eu200 O211 2.392 . S
Eu200 O213 2.418 . S
Eu200 O218 2.373 . S
Eu200 O221 2.488 . S
Eu200 O222 2.471 . S
Eu200 O223 2.349 . S
Eu201 O210 2.373 . S
Eu201 O214 2.488 . S
Eu201 O215 2.471 . S
Eu201 O216 2.349 . S
Eu201 O219 2.392 . S
Eu201 O220 2.418 . S
Eu201 C230 2.828 . S
C202 O220 1.244 . S
C202 O223 1.265 . S
C203 C204 1.379 . S
C203 C207 1.373 . S
C203 C209 1.505 . S
C204 C203 1.379 . S
C204 C206 1.369 . S
C204 H232 0.930 . S
C205 C207 1.383 . S
C205 C208 1.382 . S
C205 H233 0.930 . S
C206 C204 1.369 . S
C206 C208 1.392 . S
C206 H234 0.930 . S
C207 C203 1.373 . S
C207 C205 1.383 . S
C207 H235 0.931 . S
C208 C205 1.382 . S
C208 C206 1.392 . S
C209 Eu200 2.828 . S
C209 C203 1.505 . S
C209 O221 1.249 . S
C209 O222 1.244 . S
O210 Eu201 2.373 . S
O210 C212 1.258 . S
O211 Eu200 2.392 . S
O211 C212 1.242 . S
C212 O210 1.258 . S
C212 O211 1.242 . S
O213 Eu200 2.418 . S
O213 C217 1.244 . S
O214 Eu201 2.488 . S
O214 C230 1.249 . S
O215 Eu201 2.471 . S
O215 C230 1.244 . S
O216 Eu201 2.349 . S
O216 C217 1.265 . S
C217 O213 1.244 . S
C217 O216 1.265 . S
O218 Eu200 2.373 . S
O218 C231 1.258 . S
O219 Eu201 2.392 . S
O219 C231 1.242 . S
O220 Eu201 2.418 . S
O220 C202 1.244 . S
O221 Eu200 2.488 . S
O221 C209 1.249 . S
O222 Eu200 2.471 . S
O222 C209 1.244 . S
O223 Eu200 2.349 . S
O223 C202 1.265 . S
C224 C225 1.379 . S
C224 C228 1.373 . S
C224 C230 1.505 . S
C225 C224 1.379 . S
C225 C227 1.369 . S
C225 H236 0.930 . S
C226 C228 1.383 . S
C226 C229 1.382 . S
C226 H237 0.930 . S
C227 C225 1.369 . S
C227 C229 1.392 . S
C227 H238 0.930 . S
C228 C224 1.373 . S
C228 C226 1.383 . S
C228 H239 0.931 . S
C229 C226 1.382 . S
C229 C227 1.392 . S
C230 Eu201 2.828 . S
C230 O214 1.249 . S
C230 O215 1.244 . S
C230 C224 1.505 . S
C231 O218 1.258 . S
C231 O219 1.242 . S
H232 C204 0.930 . S
H233 C205 0.930 . S
H234 C206 0.930 . S
H235 C207 0.931 . S
H236 C225 0.930 . S
H237 C226 0.930 . S
H238 C227 0.930 . S
H239 C228 0.931 . S
Eu240 C249 2.828 . S
Eu240 O251 2.392 . S
Eu240 O253 2.418 . S
Eu240 O258 2.373 . S
Eu240 O261 2.488 . S
Eu240 O262 2.471 . S
Eu240 O263 2.349 . S
Eu241 O250 2.373 . S
Eu241 O254 2.488 . S
Eu241 O255 2.471 . S
Eu241 O256 2.349 . S
Eu241 O259 2.392 . S
Eu241 O260 2.418 . S
Eu241 C270 2.828 . S
C242 O260 1.244 . S
C242 O263 1.265 . S
C243 C244 1.379 . S
C243 C247 1.373 . S
C243 C249 1.505 . S
C244 C243 1.379 . S
C244 C246 1.369 . S
C244 H272 0.930 . S
C245 C247 1.383 . S
C245 C248 1.382 . S
C245 H273 0.930 . S
C246 C244 1.369 . S
C246 C248 1.392 . S
C246 H274 0.930 . S
C247 C243 1.373 . S
C247 C245 1.383 . S
C247 H275 0.931 . S
C248 C245 1.382 . S
C248 C246 1.392 . S
C249 Eu240 2.828 . S
C249 C243 1.505 . S
C249 O261 1.249 . S
C249 O262 1.244 . S
O250 Eu241 2.373 . S
O250 C252 1.258 . S
O251 Eu240 2.392 . S
O251 C252 1.242 . S
C252 O250 1.258 . S
C252 O251 1.242 . S
O253 Eu240 2.418 . S
O253 C257 1.244 . S
O254 Eu241 2.488 . S
O254 C270 1.249 . S
O255 Eu241 2.471 . S
O255 C270 1.244 . S
O256 Eu241 2.349 . S
O256 C257 1.265 . S
C257 O253 1.244 . S
C257 O256 1.265 . S
O258 Eu240 2.373 . S
O258 C271 1.258 . S
O259 Eu241 2.392 . S
O259 C271 1.242 . S
O260 Eu241 2.418 . S
O260 C242 1.244 . S
O261 Eu240 2.488 . S
O261 C249 1.249 . S
O262 Eu240 2.471 . S
O262 C249 1.244 . S
O263 Eu240 2.349 . S
O263 C242 1.265 . S
C264 C265 1.379 . S
C264 C268 1.373 . S
C264 C270 1.505 . S
C265 C264 1.379 . S
C265 C267 1.369 . S
C265 H276 0.930 . S
C266 C268 1.383 . S
C266 C269 1.382 . S
C266 H277 0.930 . S
C267 C265 1.369 . S
C267 C269 1.392 . S
C267 H278 0.930 . S
C268 C264 1.373 . S
C268 C266 1.383 . S
C268 H279 0.931 . S
C269 C266 1.382 . S
C269 C267 1.392 . S
C270 Eu241 2.828 . S
C270 O254 1.249 . S
C270 O255 1.244 . S
C270 C264 1.505 . S
C271 O258 1.258 . S
C271 O259 1.242 . S
H272 C244 0.930 . S
H273 C245 0.930 . S
H274 C246 0.930 . S
H275 C247 0.931 . S
H276 C265 0.930 . S
H277 C266 0.930 . S
H278 C267 0.930 . S
H279 C268 0.931 . S
Eu280 C289 2.828 . S
Eu280 O291 2.392 . S
Eu280 O293 2.418 . S
Eu280 O298 2.373 . S
Eu280 O301 2.488 . S
Eu280 O302 2.471 . S
Eu280 O303 2.349 . S
Eu281 O290 2.373 . S
Eu281 O294 2.488 . S
Eu281 O295 2.471 . S
Eu281 O296 2.349 . S
Eu281 O299 2.392 . S
Eu281 O300 2.418 . S
Eu281 C310 2.828 . S
C282 O300 1.244 . S
C282 O303 1.265 . S
C283 C284 1.379 . S
C283 C287 1.373 . S
C283 C289 1.505 . S
C284 C283 1.379 . S
C284 C286 1.369 . S
C284 H312 0.930 . S
C285 C287 1.383 . S
C285 C288 1.382 . S
C285 H313 0.930 . S
C286 C284 1.369 . S
C286 C288 1.392 . S
C286 H314 0.930 . S
C287 C283 1.373 . S
C287 C285 1.383 . S
C287 H315 0.931 . S
C288 C285 1.382 . S
C288 C286 1.392 . S
C289 Eu280 2.828 . S
C289 C283 1.505 . S
C289 O301 1.249 . S
C289 O302 1.244 . S
O290 Eu281 2.373 . S
O290 C292 1.258 . S
O291 Eu280 2.392 . S
O291 C292 1.242 . S
C292 O290 1.258 . S
C292 O291 1.242 . S
O293 Eu280 2.418 . S
O293 C297 1.244 . S
O294 Eu281 2.488 . S
O294 C310 1.249 . S
O295 Eu281 2.471 . S
O295 C310 1.244 . S
O296 Eu281 2.349 . S
O296 C297 1.265 . S
C297 O293 1.244 . S
C297 O296 1.265 . S
O298 Eu280 2.373 . S
O298 C311 1.258 . S
O299 Eu281 2.392 . S
O299 C311 1.242 . S
O300 Eu281 2.418 . S
O300 C282 1.244 . S
O301 Eu280 2.488 . S
O301 C289 1.249 . S
O302 Eu280 2.471 . S
O302 C289 1.244 . S
O303 Eu280 2.349 . S
O303 C282 1.265 . S
C304 C305 1.379 . S
C304 C308 1.373 . S
C304 C310 1.505 . S
C305 C304 1.379 . S
C305 C307 1.369 . S
C305 H316 0.930 . S
C306 C308 1.383 . S
C306 C309 1.382 . S
C306 H317 0.930 . S
C307 C305 1.369 . S
C307 C309 1.392 . S
C307 H318 0.930 . S
C308 C304 1.373 . S
C308 C306 1.383 . S
C308 H319 0.931 . S
C309 C306 1.382 . S
C309 C307 1.392 . S
C310 Eu281 2.828 . S
C310 O294 1.249 . S
C310 O295 1.244 . S
C310 C304 1.505 . S
C311 O298 1.258 . S
C311 O299 1.242 . S
H312 C284 0.930 . S
H313 C285 0.930 . S
H314 C286 0.930 . S
H315 C287 0.931 . S
H316 C305 0.930 . S
H317 C306 0.930 . S
H318 C307 0.930 . S
H319 C308 0.931 . S
Fe320 O321 1.886 1_455 S
Fe320 O324 1.715 . S
Fe320 O329 2.077 1_455 S
Fe320 O334 1.935 . S
Fe320 O340 2.077 1_455 S
Fe320 O349 1.935 . S
O321 Fe320 1.886 1_655 S
O321 Fe323 1.715 1_545 S
Fe322 O324 1.886 . S
Fe322 O325 1.715 1_545 S
Fe322 O332 1.935 1_545 S
Fe322 O333 2.077 . S
Fe322 O339 1.935 1_545 S
Fe322 O348 2.077 . S
Fe323 O321 1.715 1_565 S
Fe323 O326 1.886 . S
Fe323 O330 1.935 1_565 S
Fe323 O335 2.077 . S
Fe323 O341 1.935 1_565 S
Fe323 O345 2.077 . S
O324 Fe320 1.715 . S
O324 Fe322 1.886 . S
O325 Fe322 1.715 1_565 S
O325 Fe327 1.886 1_455 S
O326 Fe323 1.886 . S
O326 Fe327 1.715 . S
Fe327 O325 1.886 1_655 S
Fe327 O326 1.715 . S
Fe327 O331 2.077 1_655 S
Fe327 O336 1.935 . S
Fe327 O338 2.077 1_655 S
Fe327 O346 1.935 . S
C328 O340 1.381 . S
C328 O341 1.421 . S
O329 Fe320 2.077 1_655 S
O329 C342 1.381 . S
O330 Fe323 1.935 1_545 S
O330 C342 1.421 . S
O331 Fe327 2.077 1_455 S
O331 C347 1.381 . S
O332 Fe322 1.935 1_565 S
O332 C347 1.421 . S
O333 Fe322 2.077 . S
O333 C337 1.381 . S
O334 Fe320 1.935 . S
O334 C337 1.421 . S
O335 Fe323 2.077 . S
O335 C343 1.381 . S
O336 Fe327 1.935 . S
O336 C343 1.421 . S
C337 O333 1.381 . S
C337 O334 1.421 . S
O338 Fe327 2.077 1_455 S
O338 C350 1.381 . S
O339 Fe322 1.935 1_565 S
O339 C350 1.421 . S
O340 Fe320 2.077 1_655 S
O340 C328 1.381 . S
O341 Fe323 1.935 1_545 S
O341 C328 1.421 . S
C342 O329 1.381 . S
C342 O330 1.421 . S
C343 O335 1.381 . S
C343 O336 1.421 . S
C344 O345 1.381 . S
C344 O346 1.421 . S
O345 Fe323 2.077 . S
O345 C344 1.381 . S
O346 Fe327 1.935 . S
O346 C344 1.421 . S
C347 O331 1.381 . S
C347 O332 1.421 . S
O348 Fe322 2.077 . S
O348 C351 1.381 . S
O349 Fe320 1.935 . S
O349 C351 1.421 . S
C350 O338 1.381 . S
C350 O339 1.421 . S
C351 O348 1.381 . S
C351 O349 1.421 . S
Fe352 O353 1.886 . S
Fe352 O356 1.715 . S
Fe352 O361 2.077 . S
Fe352 O366 1.935 . S
Fe352 O372 2.077 1_556 S
Fe352 O381 1.935 1_556 S
O353 Fe352 1.886 . S
O353 Fe355 1.715 1_565 S
Fe354 O356 1.886 1_554 S
Fe354 O357 1.715 1_565 S
Fe354 O364 1.935 1_564 S
Fe354 O365 2.077 1_554 S
Fe354 O371 1.935 1_565 S
Fe354 O380 2.077 . S
Fe355 O353 1.715 1_545 S
Fe355 O358 1.886 1_556 S
Fe355 O362 1.935 1_545 S
Fe355 O367 2.077 . S
Fe355 O373 1.935 1_546 S
Fe355 O377 2.077 1_556 S
O356 Fe352 1.715 . S
O356 Fe354 1.886 1_556 S
O357 Fe354 1.715 1_545 S
O357 Fe359 1.886 . S
O358 Fe355 1.886 1_554 S
O358 Fe359 1.715 . S
Fe359 O357 1.886 . S
Fe359 O358 1.715 . S
Fe359 O363 2.077 1_554 S
Fe359 O368 1.935 1_554 S
Fe359 O370 2.077 . S
Fe359 O378 1.935 . S
C360 O372 1.381 . S
C360 O373 1.421 . S
O361 Fe352 2.077 . S
O361 C374 1.381 . S
O362 Fe355 1.935 1_565 S
O362 C374 1.421 . S
O363 Fe359 2.077 1_556 S
O363 C379 1.381 . S
O364 Fe354 1.935 1_546 S
O364 C379 1.421 . S
O365 Fe354 2.077 1_556 S
O365 C369 1.381 . S
O366 Fe352 1.935 . S
O366 C369 1.421 . S
O367 Fe355 2.077 . S
O367 C375 1.381 . S
O368 Fe359 1.935 1_556 S
O368 C375 1.421 . S
C369 O365 1.381 . S
C369 O366 1.421 . S
O370 Fe359 2.077 . S
O370 C382 1.381 . S
O371 Fe354 1.935 1_545 S
O371 C382 1.421 . S
O372 Fe352 2.077 1_554 S
O372 C360 1.381 . S
O373 Fe355 1.935 1_564 S
O373 C360 1.421 . S
C374 O361 1.381 . S
C374 O362 1.421 . S
C375 O367 1.381 . S
C375 O368 1.421 . S
C376 O377 1.381 . S
C376 O378 1.421 . S
O377 Fe355 2.077 1_554 S
O377 C376 1.381 . S
O378 Fe359 1.935 . S
O378 C376 1.421 . S
C379 O363 1.381 . S
C379 O364 1.421 . S
O380 Fe354 2.077 . S
O380 C383 1.381 . S
O381 Fe352 1.935 1_554 S
O381 C383 1.421 . S
C382 O370 1.381 . S
C382 O371 1.421 . S
C383 O380 1.381 . S
C383 O381 1.421 . S
Fe384 O385 1.886 1_455 S
Fe384 O388 1.715 . S
Fe384 O393 2.077 1_454 S
Fe384 O398 1.935 1_554 S
Fe384 O404 2.077 1_455 S
Fe384 O413 1.935 . S
O385 Fe384 1.886 1_655 S
O385 Fe387 1.715 . S
Fe386 O388 1.886 1_556 S
Fe386 O389 1.715 . S
Fe386 O396 1.935 . S
Fe386 O397 2.077 . S
Fe386 O403 1.935 1_556 S
Fe386 O412 2.077 1_556 S
Fe387 O385 1.715 . S
Fe387 O390 1.886 1_554 S
Fe387 O394 1.935 1_554 S
Fe387 O399 2.077 1_554 S
Fe387 O405 1.935 . S
Fe387 O409 2.077 . S
O388 Fe384 1.715 . S
O388 Fe386 1.886 1_554 S
O389 Fe386 1.715 . S
O389 Fe391 1.886 1_455 S
O390 Fe387 1.886 1_556 S
O390 Fe391 1.715 . S
Fe391 O389 1.886 1_655 S
Fe391 O390 1.715 . S
Fe391 O395 2.077 1_655 S
Fe391 O400 1.935 . S
Fe391 O402 2.077 1_656 S
Fe391 O410 1.935 1_556 S
C392 O404 1.381 . S
C392 O405 1.421 . S
O393 Fe384 2.077 1_656 S
O393 C406 1.381 . S
O394 Fe387 1.935 1_556 S
O394 C406 1.421 . S
O395 Fe391 2.077 1_455 S
O395 C411 1.381 . S
O396 Fe386 1.935 . S
O396 C411 1.421 . S
O397 Fe386 2.077 . S
O397 C401 1.381 . S
O398 Fe384 1.935 1_556 S
O398 C401 1.421 . S
O399 Fe387 2.077 1_556 S
O399 C407 1.381 . S
O400 Fe391 1.935 . S
O400 C407 1.421 . S
C401 O397 1.381 . S
C401 O398 1.421 . S
O402 Fe391 2.077 1_454 S
O402 C414 1.381 . S
O403 Fe386 1.935 1_554 S
O403 C414 1.421 . S
O404 Fe384 2.077 1_655 S
O404 C392 1.381 . S
O405 Fe387 1.935 . S
O405 C392 1.421 . S
C406 O393 1.381 . S
C406 O394 1.421 . S
C407 O399 1.381 . S
C407 O400 1.421 . S
C408 O409 1.381 . S
C408 O410 1.421 . S
O409 Fe387 2.077 . S
O409 C408 1.381 . S
O410 Fe391 1.935 1_554 S
O410 C408 1.421 . S
C411 O395 1.381 . S
C411 O396 1.421 . S
O412 Fe386 2.077 1_554 S
O412 C415 1.381 . S
O413 Fe384 1.935 . S
O413 C415 1.421 . S
C414 O402 1.381 . S
C414 O403 1.421 . S
C415 O412 1.381 . S
C415 O413 1.421 . S
Fe416 O417 1.886 . S
Fe416 O420 1.715 . S
Fe416 O425 2.077 . S
Fe416 O430 1.935 . S
Fe416 O436 2.077 . S
Fe416 O445 1.935 . S
O417 Fe416 1.886 . S
O417 Fe419 1.715 . S
Fe418 O420 1.886 1_554 S
Fe418 O421 1.715 . S
Fe418 O428 1.935 . S
Fe418 O429 2.077 1_554 S
Fe418 O435 1.935 . S
Fe418 O444 2.077 1_554 S
Fe419 O417 1.715 . S
Fe419 O422 1.886 1_556 S
Fe419 O426 1.935 . S
Fe419 O431 2.077 1_556 S
Fe419 O437 1.935 . S
Fe419 O441 2.077 1_556 S
O420 Fe416 1.715 . S
O420 Fe418 1.886 1_556 S
O421 Fe418 1.715 . S
O421 Fe423 1.886 . S
O422 Fe419 1.886 1_554 S
O422 Fe423 1.715 . S
Fe423 O421 1.886 . S
Fe423 O422 1.715 . S
Fe423 O427 2.077 . S
Fe423 O432 1.935 . S
Fe423 O434 2.077 . S
Fe423 O442 1.935 . S
C424 O436 1.381 . S
C424 O437 1.421 . S
O425 Fe416 2.077 . S
O425 C438 1.381 . S
O426 Fe419 1.935 . S
O426 C438 1.421 . S
O427 Fe423 2.077 . S
O427 C443 1.381 . S
O428 Fe418 1.935 . S
O428 C443 1.421 . S
O429 Fe418 2.077 1_556 S
O429 C433 1.381 . S
O430 Fe416 1.935 . S
O430 C433 1.421 . S
O431 Fe419 2.077 1_554 S
O431 C439 1.381 . S
O432 Fe423 1.935 . S
O432 C439 1.421 . S
C433 O429 1.381 . S
C433 O430 1.421 . S
O434 Fe423 2.077 . S
O434 C446 1.381 . S
O435 Fe418 1.935 . S
O435 C446 1.421 . S
O436 Fe416 2.077 . S
O436 C424 1.381 . S
O437 Fe419 1.935 . S
O437 C424 1.421 . S
C438 O425 1.381 . S
C438 O426 1.421 . S
C439 O431 1.381 . S
C439 O432 1.421 . S
C440 O441 1.381 . S
C440 O442 1.421 . S
O441 Fe419 2.077 1_554 S
O441 C440 1.381 . S
O442 Fe423 1.935 . S
O442 C440 1.421 . S
C443 O427 1.381 . S
C443 O428 1.421 . S
O444 Fe418 2.077 1_556 S
O444 C447 1.381 . S
O445 Fe416 1.935 . S
O445 C447 1.421 . S
C446 O434 1.381 . S
C446 O435 1.421 . S
C447 O444 1.381 . S
C447 O445 1.421 . S
Fe448 O449 1.886 . S
Fe448 O452 1.715 . S
Fe448 O457 2.077 1_655 S
Fe448 O462 1.935 1_655 S
Fe448 O468 2.077 . S
Fe448 O477 1.935 . S
O449 Fe448 1.886 . S
O449 Fe451 1.715 . S
Fe450 O452 1.886 1_455 S
Fe450 O453 1.715 . S
Fe450 O460 1.935 . S
Fe450 O461 2.077 . S
Fe450 O467 1.935 1_455 S
Fe450 O476 2.077 1_455 S
Fe451 O449 1.715 . S
Fe451 O454 1.886 1_655 S
Fe451 O458 1.935 1_655 S
Fe451 O463 2.077 1_655 S
Fe451 O469 1.935 . S
Fe451 O473 2.077 . S
O452 Fe448 1.715 . S
O452 Fe450 1.886 1_655 S
O453 Fe450 1.715 . S
O453 Fe455 1.886 . S
O454 Fe451 1.886 1_455 S
O454 Fe455 1.715 . S
Fe455 O453 1.886 . S
Fe455 O454 1.715 . S
Fe455 O459 2.077 . S
Fe455 O464 1.935 . S
Fe455 O466 2.077 1_455 S
Fe455 O474 1.935 1_455 S
C456 O468 1.381 . S
C456 O469 1.421 . S
O457 Fe448 2.077 1_455 S
O457 C470 1.381 . S
O458 Fe451 1.935 1_455 S
O458 C470 1.421 . S
O459 Fe455 2.077 . S
O459 C475 1.381 . S
O460 Fe450 1.935 . S
O460 C475 1.421 . S
O461 Fe450 2.077 . S
O461 C465 1.381 . S
O462 Fe448 1.935 1_455 S
O462 C465 1.421 . S
O463 Fe451 2.077 1_455 S
O463 C471 1.381 . S
O464 Fe455 1.935 . S
O464 C471 1.421 . S
C465 O461 1.381 . S
C465 O462 1.421 . S
O466 Fe455 2.077 1_655 S
O466 C478 1.381 . S
O467 Fe450 1.935 1_655 S
O467 C478 1.421 . S
O468 Fe448 2.077 . S
O468 C456 1.381 . S
O469 Fe451 1.935 . S
O469 C456 1.421 . S
C470 O457 1.381 . S
C470 O458 1.421 . S
C471 O463 1.381 . S
C471 O464 1.421 . S
C472 O473 1.381 . S
C472 O474 1.421 . S
O473 Fe451 2.077 . S
O473 C472 1.381 . S
O474 Fe455 1.935 1_655 S
O474 C472 1.421 . S
C475 O459 1.381 . S
C475 O460 1.421 . S
O476 Fe450 2.077 1_655 S
O476 C479 1.381 . S
O477 Fe448 1.935 . S
O477 C479 1.421 . S
C478 O466 1.381 . S
C478 O467 1.421 . S
C479 O476 1.381 . S
C479 O477 1.421 . S
Fe480 O481 1.886 . S
Fe480 O484 1.715 . S
Fe480 O489 2.077 . S
Fe480 O494 1.935 . S
Fe480 O500 2.077 . S
Fe480 O509 1.935 . S
O481 Fe480 1.886 . S
O481 Fe483 1.715 1_565 S
Fe482 O484 1.886 . S
Fe482 O485 1.715 1_565 S
Fe482 O492 1.935 1_565 S
Fe482 O493 2.077 . S
Fe482 O499 1.935 1_565 S
Fe482 O508 2.077 . S
Fe483 O481 1.715 1_545 S
Fe483 O486 1.886 . S
Fe483 O490 1.935 1_545 S
Fe483 O495 2.077 . S
Fe483 O501 1.935 1_545 S
Fe483 O505 2.077 . S
O484 Fe480 1.715 . S
O484 Fe482 1.886 . S
O485 Fe482 1.715 1_545 S
O485 Fe487 1.886 . S
O486 Fe483 1.886 . S
O486 Fe487 1.715 . S
Fe487 O485 1.886 . S
Fe487 O486 1.715 . S
Fe487 O491 2.077 . S
Fe487 O496 1.935 . S
Fe487 O498 2.077 . S
Fe487 O506 1.935 . S
C488 O500 1.381 . S
C488 O501 1.421 . S
O489 Fe480 2.077 . S
O489 C502 1.381 . S
O490 Fe483 1.935 1_565 S
O490 C502 1.421 . S
O491 Fe487 2.077 . S
O491 C507 1.381 . S
O492 Fe482 1.935 1_545 S
O492 C507 1.421 . S
O493 Fe482 2.077 . S
O493 C497 1.381 . S
O494 Fe480 1.935 . S
O494 C497 1.421 . S
O495 Fe483 2.077 . S
O495 C503 1.381 . S
O496 Fe487 1.935 . S
O496 C503 1.421 . S
C497 O493 1.381 . S
C497 O494 1.421 . S
O498 Fe487 2.077 . S
O498 C510 1.381 . S
O499 Fe482 1.935 1_545 S
O499 C510 1.421 . S
O500 Fe480 2.077 . S
O500 C488 1.381 . S
O501 Fe483 1.935 1_565 S
O501 C488 1.421 . S
C502 O489 1.381 . S
C502 O490 1.421 . S
C503 O495 1.381 . S
C503 O496 1.421 . S
C504 O505 1.381 . S
C504 O506 1.421 . S
O505 Fe483 2.077 . S
O505 C504 1.381 . S
O506 Fe487 1.935 . S
O506 C504 1.421 . S
C507 O491 1.381 . S
C507 O492 1.421 . S
O508 Fe482 2.077 . S
O508 C511 1.381 . S
O509 Fe480 1.935 . S
O509 C511 1.421 . S
C510 O498 1.381 . S
C510 O499 1.421 . S
C511 O508 1.381 . S
C511 O509 1.421 . S
C512 C513 1.369 . S
C512 C514 1.419 . S
C512 H516 0.930 . S
C513 C512 1.369 . S
C513 C522 1.429 . S
C514 C512 1.419 . S
C514 C515 1.363 . S
C514 H517 0.929 . S
C515 C514 1.363 . S
C515 C521 1.428 . S
H516 C512 0.930 . S
H517 C514 0.929 . S
S518 N519 1.613 . S
S518 N520 1.610 . S
N519 S518 1.613 . S
N519 C522 1.350 . S
N520 S518 1.610 . S
N520 C521 1.351 . S
C521 C515 1.428 . S
C521 N520 1.351 . S
C521 C522 1.434 . S
C522 C513 1.429 . S
C522 N519 1.350 . S
C522 C521 1.434 . S
C523 C524 1.369 . S
C523 C525 1.419 . S
C523 H527 0.930 . S
C524 C523 1.369 . S
C524 C533 1.429 . S
C525 C523 1.419 . S
C525 C526 1.363 . S
C525 H528 0.929 . S
C526 C525 1.363 . S
C526 C532 1.428 . S
H527 C523 0.930 . S
H528 C525 0.929 . S
S529 N530 1.613 . S
S529 N531 1.610 . S
N530 S529 1.613 . S
N530 C533 1.350 . S
N531 S529 1.610 . S
N531 C532 1.351 . S
C532 C526 1.428 . S
C532 N531 1.351 . S
C532 C533 1.434 . S
C533 C524 1.429 . S
C533 N530 1.350 . S
C533 C532 1.434 . S
C534 C535 1.369 . S
C534 C536 1.419 . S
C534 H538 0.930 . S
C535 C534 1.369 . S
C535 C544 1.429 . S
C536 C534 1.419 . S
C536 C537 1.363 . S
C536 H539 0.929 . S
C537 C536 1.363 . S
C537 C543 1.428 . S
H538 C534 0.930 . S
H539 C536 0.929 . S
S540 N541 1.613 . S
S540 N542 1.610 . S
N541 S540 1.613 . S
N541 C544 1.350 . S
N542 S540 1.610 . S
N542 C543 1.351 . S
C543 C537 1.428 . S
C543 N542 1.351 . S
C543 C544 1.434 . S
C544 C535 1.429 . S
C544 N541 1.350 . S
C544 C543 1.434 . S
C545 C546 1.369 . S
C545 C547 1.419 . S
C545 H549 0.930 . S
C546 C545 1.369 . S
C546 C555 1.429 . S
C547 C545 1.419 . S
C547 C548 1.363 . S
C547 H550 0.929 . S
C548 C547 1.363 . S
C548 C554 1.428 . S
H549 C545 0.930 . S
H550 C547 0.929 . S
S551 N552 1.613 . S
S551 N553 1.610 . S
N552 S551 1.613 . S
N552 C555 1.350 . S
N553 S551 1.610 . S
N553 C554 1.351 . S
C554 C548 1.428 . S
C554 N553 1.351 . S
C554 C555 1.434 . S
C555 C546 1.429 . S
C555 N552 1.350 . S
C555 C554 1.434 . S
C556 C557 1.369 . S
C556 C558 1.419 . S
C556 H560 0.930 . S
C557 C556 1.369 . S
C557 C566 1.429 . S
C558 C556 1.419 . S
C558 C559 1.363 . S
C558 H561 0.929 . S
C559 C558 1.363 . S
C559 C565 1.428 . S
H560 C556 0.930 . S
H561 C558 0.929 . S
S562 N563 1.613 . S
S562 N564 1.610 . S
N563 S562 1.613 . S
N563 C566 1.350 . S
N564 S562 1.610 . S
N564 C565 1.351 . S
C565 C559 1.428 . S
C565 N564 1.351 . S
C565 C566 1.434 . S
C566 C557 1.429 . S
C566 N563 1.350 . S
C566 C565 1.434 . S
C567 C568 1.369 . S
C567 C569 1.419 . S
C567 H571 0.930 . S
C568 C567 1.369 . S
C568 C577 1.429 . S
C569 C567 1.419 . S
C569 C570 1.363 . S
C569 H572 0.929 . S
C570 C569 1.363 . S
C570 C576 1.428 . S
H571 C567 0.930 . S
H572 C569 0.929 . S
S573 N574 1.613 . S
S573 N575 1.610 . S
N574 S573 1.613 . S
N574 C577 1.350 . S
N575 S573 1.610 . S
N575 C576 1.351 . S
C576 C570 1.428 . S
C576 N575 1.351 . S
C576 C577 1.434 . S
C577 C568 1.429 . S
C577 N574 1.350 . S
C577 C576 1.434 . S
C578 C579 1.369 . S
C578 C580 1.419 . S
C578 H582 0.930 . S
C579 C578 1.369 . S
C579 C588 1.429 . S
C580 C578 1.419 . S
C580 C581 1.363 . S
C580 H583 0.929 . S
C581 C580 1.363 . S
C581 C587 1.428 . S
H582 C578 0.930 . S
H583 C580 0.929 . S
S584 N585 1.613 . S
S584 N586 1.610 . S
N585 S584 1.613 . S
N585 C588 1.350 . S
N586 S584 1.610 . S
N586 C587 1.351 . S
C587 C581 1.428 . S
C587 N586 1.351 . S
C587 C588 1.434 . S
C588 C579 1.429 . S
C588 N585 1.350 . S
C588 C587 1.434 . S
C589 C590 1.369 . S
C589 C591 1.419 . S
C589 H593 0.930 . S
C590 C589 1.369 . S
C590 C599 1.429 . S
C591 C589 1.419 . S
C591 C592 1.363 . S
C591 H594 0.929 . S
C592 C591 1.363 . S
C592 C598 1.428 . S
H593 C589 0.930 . S
H594 C591 0.929 . S
S595 N596 1.613 . S
S595 N597 1.610 . S
N596 S595 1.613 . S
N596 C599 1.350 . S
N597 S595 1.610 . S
N597 C598 1.351 . S
C598 C592 1.428 . S
C598 N597 1.351 . S
C598 C599 1.434 . S
C599 C590 1.429 . S
C599 N596 1.350 . S
C599 C598 1.434 . S
C600 C601 1.369 . S
C600 C602 1.419 . S
C600 H604 0.930 . S
C601 C600 1.369 . S
C601 C610 1.429 . S
C602 C600 1.419 . S
C602 C603 1.363 . S
C602 H605 0.929 . S
C603 C602 1.363 . S
C603 C609 1.428 . S
H604 C600 0.930 . S
H605 C602 0.929 . S
S606 N607 1.613 . S
S606 N608 1.610 . S
N607 S606 1.613 . S
N607 C610 1.350 . S
N608 S606 1.610 . S
N608 C609 1.351 . S
C609 C603 1.428 . S
C609 N608 1.351 . S
C609 C610 1.434 . S
C610 C601 1.429 . S
C610 N607 1.350 . S
C610 C609 1.434 . S
C611 C612 1.369 . S
C611 C613 1.419 . S
C611 H615 0.930 . S
C612 C611 1.369 . S
C612 C621 1.429 . S
C613 C611 1.419 . S
C613 C614 1.363 . S
C613 H616 0.929 . S
C614 C613 1.363 . S
C614 C620 1.428 . S
H615 C611 0.930 . S
H616 C613 0.929 . S
S617 N618 1.613 . S
S617 N619 1.610 . S
N618 S617 1.613 . S
N618 C621 1.350 . S
N619 S617 1.610 . S
N619 C620 1.351 . S
C620 C614 1.428 . S
C620 N619 1.351 . S
C620 C621 1.434 . S
C621 C612 1.429 . S
C621 N618 1.350 . S
C621 C620 1.434 . S
C622 C623 1.369 . S
C622 C624 1.419 . S
C622 H626 0.930 . S
C623 C622 1.369 . S
C623 C632 1.429 . S
C624 C622 1.419 . S
C624 C625 1.363 . S
C624 H627 0.929 . S
C625 C624 1.363 . S
C625 C631 1.428 . S
H626 C622 0.930 . S
H627 C624 0.929 . S
S628 N629 1.613 . S
S628 N630 1.610 . S
N629 S628 1.613 . S
N629 C632 1.350 . S
N630 S628 1.610 . S
N630 C631 1.351 . S
C631 C625 1.428 . S
C631 N630 1.351 . S
C631 C632 1.434 . S
C632 C623 1.429 . S
C632 N629 1.350 . S
C632 C631 1.434 . S
C633 C634 1.369 . S
C633 C635 1.419 . S
C633 H637 0.930 . S
C634 C633 1.369 . S
C634 C643 1.429 . S
C635 C633 1.419 . S
C635 C636 1.363 . S
C635 H638 0.929 . S
C636 C635 1.363 . S
C636 C642 1.428 . S
H637 C633 0.930 . S
H638 C635 0.929 . S
S639 N640 1.613 . S
S639 N641 1.610 . S
N640 S639 1.613 . S
N640 C643 1.350 . S
N641 S639 1.610 . S
N641 C642 1.351 . S
C642 C636 1.428 . S
C642 N641 1.351 . S
C642 C643 1.434 . S
C643 C634 1.429 . S
C643 N640 1.350 . S
C643 C642 1.434 . S
C644 C645 1.369 . S
C644 C646 1.419 . S
C644 H648 0.930 . S
C645 C644 1.369 . S
C645 C654 1.429 . S
C646 C644 1.419 . S
C646 C647 1.363 . S
C646 H649 0.929 . S
C647 C646 1.363 . S
C647 C653 1.428 . S
H648 C644 0.930 . S
H649 C646 0.929 . S
S650 N651 1.613 . S
S650 N652 1.610 . S
N651 S650 1.613 . S
N651 C654 1.350 . S
N652 S650 1.610 . S
N652 C653 1.351 . S
C653 C647 1.428 . S
C653 N652 1.351 . S
C653 C654 1.434 . S
C654 C645 1.429 . S
C654 N651 1.350 . S
C654 C653 1.434 . S
C655 C656 1.369 . S
C655 C657 1.419 . S
C655 H659 0.930 . S
C656 C655 1.369 . S
C656 C665 1.429 . S
C657 C655 1.419 . S
C657 C658 1.363 . S
C657 H660 0.929 . S
C658 C657 1.363 . S
C658 C664 1.428 . S
H659 C655 0.930 . S
H660 C657 0.929 . S
S661 N662 1.613 . S
S661 N663 1.610 . S
N662 S661 1.613 . S
N662 C665 1.350 . S
N663 S661 1.610 . S
N663 C664 1.351 . S
C664 C658 1.428 . S
C664 N663 1.351 . S
C664 C665 1.434 . S
C665 C656 1.429 . S
C665 N662 1.350 . S
C665 C664 1.434 . S
C666 C667 1.369 . S
C666 C668 1.419 . S
C666 H670 0.930 . S
C667 C666 1.369 . S
C667 C676 1.429 . S
C668 C666 1.419 . S
C668 C669 1.363 . S
C668 H671 0.929 . S
C669 C668 1.363 . S
C669 C675 1.428 . S
H670 C666 0.930 . S
H671 C668 0.929 . S
S672 N673 1.613 . S
S672 N674 1.610 . S
N673 S672 1.613 . S
N673 C676 1.350 . S
N674 S672 1.610 . S
N674 C675 1.351 . S
C675 C669 1.428 . S
C675 N674 1.351 . S
C675 C676 1.434 . S
C676 C667 1.429 . S
C676 N673 1.350 . S
C676 C675 1.434 . S
C677 C678 1.369 . S
C677 C679 1.419 . S
C677 H681 0.930 . S
C678 C677 1.369 . S
C678 C687 1.429 . S
C679 C677 1.419 . S
C679 C680 1.363 . S
C679 H682 0.929 . S
C680 C679 1.363 . S
C680 C686 1.428 . S
H681 C677 0.930 . S
H682 C679 0.929 . S
S683 N684 1.613 . S
S683 N685 1.610 . S
N684 S683 1.613 . S
N684 C687 1.350 . S
N685 S683 1.610 . S
N685 C686 1.351 . S
C686 C680 1.428 . S
C686 N685 1.351 . S
C686 C687 1.434 . S
C687 C678 1.429 . S
C687 N684 1.350 . S
C687 C686 1.434 . S
C688 C689 1.369 . S
C688 C690 1.419 . S
C688 H692 0.930 . S
C689 C688 1.369 . S
C689 C698 1.429 . S
C690 C688 1.419 . S
C690 C691 1.363 . S
C690 H693 0.929 . S
C691 C690 1.363 . S
C691 C697 1.428 . S
H692 C688 0.930 . S
H693 C690 0.929 . S
S694 N695 1.613 . S
S694 N696 1.610 . S
N695 S694 1.613 . S
N695 C698 1.350 1_655 S
N696 S694 1.610 . S
N696 C697 1.351 1_655 S
C697 C691 1.428 . S
C697 N696 1.351 1_455 S
C697 C698 1.434 . S
C698 C689 1.429 . S
C698 N695 1.350 1_455 S
C698 C697 1.434 . S
C699 C700 1.369 . S
C699 C701 1.419 . S
C699 H703 0.930 . S
C700 C699 1.369 . S
C700 C709 1.429 . S
C701 C699 1.419 . S
C701 C702 1.363 . S
C701 H704 0.929 . S
C702 C701 1.363 . S
C702 C708 1.428 . S
H703 C699 0.930 . S
H704 C701 0.929 . S
S705 N706 1.613 . S
S705 N707 1.610 . S
N706 S705 1.613 . S
N706 C709 1.350 . S
N707 S705 1.610 . S
N707 C708 1.351 . S
C708 C702 1.428 . S
C708 N707 1.351 . S
C708 C709 1.434 . S
C709 C700 1.429 . S
C709 N706 1.350 . S
C709 C708 1.434 . S
C710 C711 1.369 . S
C710 C712 1.419 . S
C710 H714 0.930 . S
C711 C710 1.369 . S
C711 C720 1.429 . S
C712 C710 1.419 . S
C712 C713 1.363 . S
C712 H715 0.929 . S
C713 C712 1.363 . S
C713 C719 1.428 . S
H714 C710 0.930 . S
H715 C712 0.929 . S
S716 N717 1.613 . S
S716 N718 1.610 . S
N717 S716 1.613 . S
N717 C720 1.350 . S
N718 S716 1.610 . S
N718 C719 1.351 . S
C719 C713 1.428 . S
C719 N718 1.351 . S
C719 C720 1.434 . S
C720 C711 1.429 . S
C720 N717 1.350 . S
C720 C719 1.434 . S
C721 C722 1.369 . S
C721 C723 1.419 . S
C721 H725 0.930 . S
C722 C721 1.369 . S
C722 C731 1.429 . S
C723 C721 1.419 . S
C723 C724 1.363 . S
C723 H726 0.929 . S
C724 C723 1.363 . S
C724 C730 1.428 . S
H725 C721 0.930 . S
H726 C723 0.929 . S
S727 N728 1.613 . S
S727 N729 1.610 . S
N728 S727 1.613 . S
N728 C731 1.350 . S
N729 S727 1.610 . S
N729 C730 1.351 . S
C730 C724 1.428 . S
C730 N729 1.351 . S
C730 C731 1.434 . S
C731 C722 1.429 . S
C731 N728 1.350 . S
C731 C730 1.434 . S
C732 C733 1.369 . S
C732 C734 1.419 . S
C732 H736 0.930 . S
C733 C732 1.369 . S
C733 C742 1.429 . S
C734 C732 1.419 . S
C734 C735 1.363 . S
C734 H737 0.929 . S
C735 C734 1.363 . S
C735 C741 1.428 . S
H736 C732 0.930 . S
H737 C734 0.929 . S
S738 N739 1.613 . S
S738 N740 1.610 . S
N739 S738 1.613 . S
N739 C742 1.350 . S
N740 S738 1.610 . S
N740 C741 1.351 . S
C741 C735 1.428 . S
C741 N740 1.351 . S
C741 C742 1.434 . S
C742 C733 1.429 . S
C742 N739 1.350 . S
C742 C741 1.434 . S
C743 C744 1.369 . S
C743 C745 1.419 . S
C743 H747 0.930 . S
C744 C743 1.369 . S
C744 C753 1.429 . S
C745 C743 1.419 . S
C745 C746 1.363 . S
C745 H748 0.929 . S
C746 C745 1.363 . S
C746 C752 1.428 . S
H747 C743 0.930 . S
H748 C745 0.929 . S
S749 N750 1.613 . S
S749 N751 1.610 . S
N750 S749 1.613 . S
N750 C753 1.350 . S
N751 S749 1.610 . S
N751 C752 1.351 . S
C752 C746 1.428 . S
C752 N751 1.351 . S
C752 C753 1.434 . S
C753 C744 1.429 . S
C753 N750 1.350 . S
C753 C752 1.434 . S
C754 C755 1.369 . S
C754 C756 1.419 . S
C754 H758 0.930 . S
C755 C754 1.369 . S
C755 C764 1.429 . S
C756 C754 1.419 . S
C756 C757 1.363 . S
C756 H759 0.929 . S
C757 C756 1.363 . S
C757 C763 1.428 . S
H758 C754 0.930 . S
H759 C756 0.929 . S
S760 N761 1.613 . S
S760 N762 1.610 . S
N761 S760 1.613 . S
N761 C764 1.350 . S
N762 S760 1.610 . S
N762 C763 1.351 . S
C763 C757 1.428 . S
C763 N762 1.351 . S
C763 C764 1.434 . S
C764 C755 1.429 . S
C764 N761 1.350 . S
C764 C763 1.434 . S
C765 C766 1.369 . S
C765 C767 1.419 . S
C765 H769 0.930 . S
C766 C765 1.369 . S
C766 C775 1.429 . S
C767 C765 1.419 . S
C767 C768 1.363 . S
C767 H770 0.929 . S
C768 C767 1.363 . S
C768 C774 1.428 . S
H769 C765 0.930 . S
H770 C767 0.929 . S
S771 N772 1.613 . S
S771 N773 1.610 . S
N772 S771 1.613 . S
N772 C775 1.350 . S
N773 S771 1.610 . S
N773 C774 1.351 . S
C774 C768 1.428 . S
C774 N773 1.351 . S
C774 C775 1.434 . S
C775 C766 1.429 . S
C775 N772 1.350 . S
C775 C774 1.434 . S
C776 C777 1.369 . S
C776 C778 1.419 . S
C776 H780 0.930 . S
C777 C776 1.369 . S
C777 C786 1.429 . S
C778 C776 1.419 . S
C778 C779 1.363 . S
C778 H781 0.929 . S
C779 C778 1.363 . S
C779 C785 1.428 . S
H780 C776 0.930 . S
H781 C778 0.929 . S
S782 N783 1.613 . S
S782 N784 1.610 . S
N783 S782 1.613 . S
N783 C786 1.350 . S
N784 S782 1.610 . S
N784 C785 1.351 . S
C785 C779 1.428 . S
C785 N784 1.351 . S
C785 C786 1.434 . S
C786 C777 1.429 . S
C786 N783 1.350 . S
C786 C785 1.434 . S
C787 C788 1.369 . S
C787 C789 1.419 . S
C787 H791 0.930 . S
C788 C787 1.369 . S
C788 C797 1.429 . S
C789 C787 1.419 . S
C789 C790 1.363 . S
C789 H792 0.929 . S
C790 C789 1.363 . S
C790 C796 1.428 . S
H791 C787 0.930 . S
H792 C789 0.929 . S
S793 N794 1.613 . S
S793 N795 1.610 . S
N794 S793 1.613 . S
N794 C797 1.350 . S
N795 S793 1.610 . S
N795 C796 1.351 . S
C796 C790 1.428 . S
C796 N795 1.351 . S
C796 C797 1.434 . S
C797 C788 1.429 . S
C797 N794 1.350 . S
C797 C796 1.434 . S
C798 C799 1.369 . S
C798 C800 1.419 . S
C798 H802 0.930 . S
C799 C798 1.369 . S
C799 C808 1.429 . S
C800 C798 1.419 . S
C800 C801 1.363 . S
C800 H803 0.929 . S
C801 C800 1.363 . S
C801 C807 1.428 . S
H802 C798 0.930 . S
H803 C800 0.929 . S
S804 N805 1.613 . S
S804 N806 1.610 . S
N805 S804 1.613 . S
N805 C808 1.350 . S
N806 S804 1.610 . S
N806 C807 1.351 . S
C807 C801 1.428 . S
C807 N806 1.351 . S
C807 C808 1.434 . S
C808 C799 1.429 . S
C808 N805 1.350 . S
C808 C807 1.434 . S
C809 C810 1.369 . S
C809 C811 1.419 . S
C809 H813 0.930 . S
C810 C809 1.369 . S
C810 C819 1.429 . S
C811 C809 1.419 . S
C811 C812 1.363 . S
C811 H814 0.929 . S
C812 C811 1.363 . S
C812 C818 1.428 . S
H813 C809 0.930 . S
H814 C811 0.929 . S
S815 N816 1.613 1_554 S
S815 N817 1.610 1_554 S
N816 S815 1.613 1_556 S
N816 C819 1.350 . S
N817 S815 1.610 1_556 S
N817 C818 1.351 . S
C818 C812 1.428 . S
C818 N817 1.351 . S
C818 C819 1.434 . S
C819 C810 1.429 . S
C819 N816 1.350 . S
C819 C818 1.434 . S
C820 C821 1.369 . S
C820 C822 1.419 . S
C820 H824 0.930 . S
C821 C820 1.369 . S
C821 C830 1.429 . S
C822 C820 1.419 . S
C822 C823 1.363 . S
C822 H825 0.929 . S
C823 C822 1.363 . S
C823 C829 1.428 . S
H824 C820 0.930 . S
H825 C822 0.929 . S
S826 N827 1.613 . S
S826 N828 1.610 . S
N827 S826 1.613 . S
N827 C830 1.350 . S
N828 S826 1.610 . S
N828 C829 1.351 . S
C829 C823 1.428 . S
C829 N828 1.351 . S
C829 C830 1.434 . S
C830 C821 1.429 . S
C830 N827 1.350 . S
C830 C829 1.434 . S
C831 C832 1.369 . S
C831 C833 1.419 . S
C831 H835 0.930 . S
C832 C831 1.369 . S
C832 C841 1.429 . S
C833 C831 1.419 . S
C833 C834 1.363 . S
C833 H836 0.929 . S
C834 C833 1.363 . S
C834 C840 1.428 . S
H835 C831 0.930 . S
H836 C833 0.929 . S
S837 N838 1.613 . S
S837 N839 1.610 . S
N838 S837 1.613 . S
N838 C841 1.350 . S
N839 S837 1.610 . S
N839 C840 1.351 . S
C840 C834 1.428 . S
C840 N839 1.351 . S
C840 C841 1.434 . S
C841 C832 1.429 . S
C841 N838 1.350 . S
C841 C840 1.434 . S
C842 C843 1.369 . S
C842 C844 1.419 . S
C842 H846 0.930 . S
C843 C842 1.369 . S
C843 C852 1.429 . S
C844 C842 1.419 . S
C844 C845 1.363 . S
C844 H847 0.929 . S
C845 C844 1.363 . S
C845 C851 1.428 . S
H846 C842 0.930 . S
H847 C844 0.929 . S
S848 N849 1.613 . S
S848 N850 1.610 . S
N849 S848 1.613 . S
N849 C852 1.350 . S
N850 S848 1.610 . S
N850 C851 1.351 . S
C851 C845 1.428 . S
C851 N850 1.351 . S
C851 C852 1.434 . S
C852 C843 1.429 . S
C852 N849 1.350 . S
C852 C851 1.434 . S
C853 C854 1.369 . S
C853 C855 1.419 . S
C853 H857 0.930 . S
C854 C853 1.369 . S
C854 C863 1.429 . S
C855 C853 1.419 . S
C855 C856 1.363 . S
C855 H858 0.929 . S
C856 C855 1.363 . S
C856 C862 1.428 . S
H857 C853 0.930 . S
H858 C855 0.929 . S
S859 N860 1.613 . S
S859 N861 1.610 . S
N860 S859 1.613 . S
N860 C863 1.350 . S
N861 S859 1.610 . S
N861 C862 1.351 . S
C862 C856 1.428 . S
C862 N861 1.351 . S
C862 C863 1.434 . S
C863 C854 1.429 . S
C863 N860 1.350 . S
C863 C862 1.434 . S
C864 C865 1.369 . S
C864 C866 1.419 . S
C864 H868 0.930 . S
C865 C864 1.369 . S
C865 C874 1.429 . S
C866 C864 1.419 . S
C866 C867 1.363 . S
C866 H869 0.929 . S
C867 C866 1.363 . S
C867 C873 1.428 . S
H868 C864 0.930 . S
H869 C866 0.929 . S
S870 N871 1.613 . S
S870 N872 1.610 . S
N871 S870 1.613 . S
N871 C874 1.350 . S
N872 S870 1.610 . S
N872 C873 1.351 . S
C873 C867 1.428 . S
C873 N872 1.351 . S
C873 C874 1.434 . S
C874 C865 1.429 . S
C874 N871 1.350 . S
C874 C873 1.434 . S
C875 C876 1.369 . S
C875 C877 1.419 . S
C875 H879 0.930 . S
C876 C875 1.369 . S
C876 C885 1.429 . S
C877 C875 1.419 . S
C877 C878 1.363 . S
C877 H880 0.929 . S
C878 C877 1.363 . S
C878 C884 1.428 . S
H879 C875 0.930 . S
H880 C877 0.929 . S
S881 N882 1.613 . S
S881 N883 1.610 . S
N882 S881 1.613 . S
N882 C885 1.350 . S
N883 S881 1.610 . S
N883 C884 1.351 . S
C884 C878 1.428 . S
C884 N883 1.351 . S
C884 C885 1.434 . S
C885 C876 1.429 . S
C885 N882 1.350 . S
C885 C884 1.434 . S
C886 C887 1.369 . S
C886 C888 1.419 . S
C886 H890 0.930 . S
C887 C886 1.369 . S
C887 C896 1.429 . S
C888 C886 1.419 . S
C888 C889 1.363 . S
C888 H891 0.929 . S
C889 C888 1.363 . S
C889 C895 1.428 . S
H890 C886 0.930 . S
H891 C888 0.929 . S
S892 N893 1.613 . S
S892 N894 1.610 . S
N893 S892 1.613 . S
N893 C896 1.350 . S
N894 S892 1.610 . S
N894 C895 1.351 . S
C895 C889 1.428 . S
C895 N894 1.351 . S
C895 C896 1.434 . S
C896 C887 1.429 . S
C896 N893 1.350 . S
C896 C895 1.434 . S
C897 C898 1.369 . S
C897 C899 1.419 . S
C897 H901 0.930 . S
C898 C897 1.369 . S
C898 C907 1.429 . S
C899 C897 1.419 . S
C899 C900 1.363 . S
C899 H902 0.929 . S
C900 C899 1.363 . S
C900 C906 1.428 . S
H901 C897 0.930 . S
H902 C899 0.929 . S
S903 N904 1.613 . S
S903 N905 1.610 . S
N904 S903 1.613 . S
N904 C907 1.350 . S
N905 S903 1.610 . S
N905 C906 1.351 . S
C906 C900 1.428 . S
C906 N905 1.351 . S
C906 C907 1.434 . S
C907 C898 1.429 . S
C907 N904 1.350 . S
C907 C906 1.434 . S
C908 C909 1.369 . S
C908 C910 1.419 . S
C908 H912 0.930 . S
C909 C908 1.369 . S
C909 C918 1.429 . S
C910 C908 1.419 . S
C910 C911 1.363 . S
C910 H913 0.929 . S
C911 C910 1.363 . S
C911 C917 1.428 . S
H912 C908 0.930 . S
H913 C910 0.929 . S
S914 N915 1.613 . S
S914 N916 1.610 . S
N915 S914 1.613 . S
N915 C918 1.350 . S
N916 S914 1.610 . S
N916 C917 1.351 . S
C917 C911 1.428 . S
C917 N916 1.351 . S
C917 C918 1.434 . S
C918 C909 1.429 . S
C918 N915 1.350 . S
C918 C917 1.434 . S
C919 C920 1.369 . S
C919 C921 1.419 . S
C919 H923 0.930 . S
C920 C919 1.369 . S
C920 C929 1.429 . S
C921 C919 1.419 . S
C921 C922 1.363 . S
C921 H924 0.929 . S
C922 C921 1.363 . S
C922 C928 1.428 . S
H923 C919 0.930 . S
H924 C921 0.929 . S
S925 N926 1.613 . S
S925 N927 1.610 . S
N926 S925 1.613 . S
N926 C929 1.350 . S
N927 S925 1.610 . S
N927 C928 1.351 . S
C928 C922 1.428 . S
C928 N927 1.351 . S
C928 C929 1.434 . S
C929 C920 1.429 . S
C929 N926 1.350 . S
C929 C928 1.434 . S
C930 C931 1.369 . S
C930 C932 1.419 . S
C930 H934 0.930 . S
C931 C930 1.369 . S
C931 C940 1.429 . S
C932 C930 1.419 . S
C932 C933 1.363 . S
C932 H935 0.929 . S
C933 C932 1.363 . S
C933 C939 1.428 . S
H934 C930 0.930 . S
H935 C932 0.929 . S
S936 N937 1.613 . S
S936 N938 1.610 . S
N937 S936 1.613 . S
N937 C940 1.350 . S
N938 S936 1.610 . S
N938 C939 1.351 . S
C939 C933 1.428 . S
C939 N938 1.351 . S
C939 C940 1.434 . S
C940 C931 1.429 . S
C940 N937 1.350 . S
C940 C939 1.434 . S
C941 C942 1.369 . S
C941 C943 1.419 . S
C941 H945 0.930 . S
C942 C941 1.369 . S
C942 C951 1.429 . S
C943 C941 1.419 . S
C943 C944 1.363 . S
C943 H946 0.929 . S
C944 C943 1.363 . S
C944 C950 1.428 . S
H945 C941 0.930 . S
H946 C943 0.929 . S
S947 N948 1.613 . S
S947 N949 1.610 . S
N948 S947 1.613 . S
N948 C951 1.350 . S
N949 S947 1.610 . S
N949 C950 1.351 . S
C950 C944 1.428 . S
C950 N949 1.351 . S
C950 C951 1.434 . S
C951 C942 1.429 . S
C951 N948 1.350 . S
C951 C950 1.434 . S
C952 C953 1.369 . S
C952 C954 1.419 . S
C952 H956 0.930 . S
C953 C952 1.369 . S
C953 C962 1.429 . S
C954 C952 1.419 . S
C954 C955 1.363 . S
C954 H957 0.929 . S
C955 C954 1.363 . S
C955 C961 1.428 . S
H956 C952 0.930 . S
H957 C954 0.929 . S
S958 N959 1.613 . S
S958 N960 1.610 . S
N959 S958 1.613 . S
N959 C962 1.350 . S
N960 S958 1.610 . S
N960 C961 1.351 . S
C961 C955 1.428 . S
C961 N960 1.351 . S
C961 C962 1.434 . S
C962 C953 1.429 . S
C962 N959 1.350 . S
C962 C961 1.434 . S
C963 C964 1.369 . S
C963 C965 1.419 . S
C963 H967 0.930 . S
C964 C963 1.369 . S
C964 C973 1.429 . S
C965 C963 1.419 . S
C965 C966 1.363 . S
C965 H968 0.929 . S
C966 C965 1.363 . S
C966 C972 1.428 . S
H967 C963 0.930 . S
H968 C965 0.929 . S
S969 N970 1.613 . S
S969 N971 1.610 . S
N970 S969 1.613 . S
N970 C973 1.350 . S
N971 S969 1.610 . S
N971 C972 1.351 . S
C972 C966 1.428 . S
C972 N971 1.351 . S
C972 C973 1.434 . S
C973 C964 1.429 . S
C973 N970 1.350 . S
C973 C972 1.434 . S
C974 C975 1.369 . S
C974 C976 1.419 . S
C974 H978 0.930 . S
C975 C974 1.369 . S
C975 C984 1.429 . S
C976 C974 1.419 . S
C976 C977 1.363 . S
C976 H979 0.929 . S
C977 C976 1.363 . S
C977 C983 1.428 . S
H978 C974 0.930 . S
H979 C976 0.929 . S
S980 N981 1.613 . S
S980 N982 1.610 . S
N981 S980 1.613 . S
N981 C984 1.350 . S
N982 S980 1.610 . S
N982 C983 1.351 . S
C983 C977 1.428 . S
C983 N982 1.351 . S
C983 C984 1.434 . S
C984 C975 1.429 . S
C984 N981 1.350 . S
C984 C983 1.434 . S
C985 C986 1.369 . S
C985 C987 1.419 . S
C985 H989 0.930 . S
C986 C985 1.369 . S
C986 C995 1.429 . S
C987 C985 1.419 . S
C987 C988 1.363 . S
C987 H990 0.929 . S
C988 C987 1.363 . S
C988 C994 1.428 . S
H989 C985 0.930 . S
H990 C987 0.929 . S
S991 N992 1.613 . S
S991 N993 1.610 . S
N992 S991 1.613 . S
N992 C995 1.350 . S
N993 S991 1.610 . S
N993 C994 1.351 . S
C994 C988 1.428 . S
C994 N993 1.351 . S
C994 C995 1.434 . S
C995 C986 1.429 . S
C995 N992 1.350 . S
C995 C994 1.434 . S
C996 C997 1.369 . S
C996 C998 1.419 . S
C996 H1000 0.930 . S
C997 C996 1.369 . S
C997 C1006 1.429 . S
C998 C996 1.419 . S
C998 C999 1.363 . S
C998 H1001 0.929 . S
C999 C998 1.363 . S
C999 C1005 1.428 . S
H1000 C996 0.930 . S
H1001 C998 0.929 . S
S1002 N1003 1.613 . S
S1002 N1004 1.610 . S
N1003 S1002 1.613 . S
N1003 C1006 1.350 . S
N1004 S1002 1.610 . S
N1004 C1005 1.351 . S
C1005 C999 1.428 . S
C1005 N1004 1.351 . S
C1005 C1006 1.434 . S
C1006 C997 1.429 . S
C1006 N1003 1.350 . S
C1006 C1005 1.434 . S
C1007 C1008 1.369 . S
C1007 C1009 1.419 . S
C1007 H1011 0.930 . S
C1008 C1007 1.369 . S
C1008 C1017 1.429 . S
C1009 C1007 1.419 . S
C1009 C1010 1.363 . S
C1009 H1012 0.929 . S
C1010 C1009 1.363 . S
C1010 C1016 1.428 . S
H1011 C1007 0.930 . S
H1012 C1009 0.929 . S
S1013 N1014 1.613 . S
S1013 N1015 1.610 . S
N1014 S1013 1.613 . S
N1014 C1017 1.350 . S
N1015 S1013 1.610 . S
N1015 C1016 1.351 . S
C1016 C1010 1.428 . S
C1016 N1015 1.351 . S
C1016 C1017 1.434 . S
C1017 C1008 1.429 . S
C1017 N1014 1.350 . S
C1017 C1016 1.434 . S
C1018 C1019 1.369 . S
C1018 C1020 1.419 . S
C1018 H1022 0.930 . S
C1019 C1018 1.369 . S
C1019 C1028 1.429 . S
C1020 C1018 1.419 . S
C1020 C1021 1.363 . S
C1020 H1023 0.929 . S
C1021 C1020 1.363 . S
C1021 C1027 1.428 . S
H1022 C1018 0.930 . S
H1023 C1020 0.929 . S
S1024 N1025 1.613 . S
S1024 N1026 1.610 . S
N1025 S1024 1.613 . S
N1025 C1028 1.350 . S
N1026 S1024 1.610 . S
N1026 C1027 1.351 . S
C1027 C1021 1.428 . S
C1027 N1026 1.351 . S
C1027 C1028 1.434 . S
C1028 C1019 1.429 . S
C1028 N1025 1.350 . S
C1028 C1027 1.434 . S
C1029 C1030 1.369 . S
C1029 C1031 1.419 . S
C1029 H1033 0.930 . S
C1030 C1029 1.369 . S
C1030 C1039 1.429 . S
C1031 C1029 1.419 . S
C1031 C1032 1.363 . S
C1031 H1034 0.929 . S
C1032 C1031 1.363 . S
C1032 C1038 1.428 . S
H1033 C1029 0.930 . S
H1034 C1031 0.929 . S
S1035 N1036 1.613 . S
S1035 N1037 1.610 . S
N1036 S1035 1.613 . S
N1036 C1039 1.350 . S
N1037 S1035 1.610 . S
N1037 C1038 1.351 . S
C1038 C1032 1.428 . S
C1038 N1037 1.351 . S
C1038 C1039 1.434 . S
C1039 C1030 1.429 . S
C1039 N1036 1.350 . S
C1039 C1038 1.434 . S
C515 C337 1.903 . S
C513 C2 1.919 . S
C526 C342 1.256 . S
C524 C48 1.270 . S
C537 C343 1.556 . S
C535 C97 1.562 . S
C546 C149 0.760 . S
C548 C347 0.805 . S
C557 C189 1.265 . S
C559 C350 1.261 . S
C570 C351 1.558 . S
C568 C202 1.562 . S
C579 C248 0.759 . S
C581 C328 0.804 . S
C590 C297 1.919 . S
C592 C344 1.903 . S
C603 C382 2.588 . S
C601 C31 2.705 . S
C612 C52 1.722 . S
C614 C408 1.689 . S
C625 C360 1.264 . S
C623 C88 1.288 . S
C636 C415 1.465 . S
C634 C122 1.451 . S
C645 C162 1.535 . S
C647 C369 1.518 . S
C658 C411 2.578 . S
C656 C231 2.686 . S
C667 C252 1.758 . S
C669 C375 1.733 . S
C678 C288 1.332 . S
C680 C406 1.348 . S
C689 C29 1.341 . S
C691 C414 1.341 . S
C700 C191 1.721 . S
C702 C401 1.692 . S
C713 C379 1.266 . S
C711 C229 1.284 . S
C724 C407 1.462 . S
C722 C257 1.451 . S
C733 C292 2.706 . S
C735 C374 2.589 . S
C744 C92 2.685 . S
C746 C392 2.574 . S
C757 C383 1.731 . S
C755 C151 1.755 . S
C766 C57 1.533 . S
C768 C376 1.511 . S
C777 C282 1.889 . S
C779 C438 1.824 . S
C788 C168 1.247 . S
C790 C433 1.202 . S
C801 C447 1.415 . S
C799 C217 1.537 . S
C812 C424 0.539 . S
C810 C269 0.795 . S
C821 C69 1.253 . S
C823 C440 1.193 . S
C834 C439 1.422 . S
C832 C82 1.536 . S
C843 C128 0.764 . S
C845 C443 0.562 . S
C854 C17 1.889 . S
C856 C446 1.824 . S
C865 C311 2.715 . S
C867 C472 2.699 . S
C878 C488 1.635 . S
C876 C172 1.720 . S
C887 C208 1.300 . S
C889 C470 1.320 . S
C898 C242 1.456 . S
C900 C503 1.450 . S
C911 C479 1.498 . S
C909 C42 1.519 . S
C920 C111 2.717 . S
C922 C497 2.654 . S
C933 C475 1.641 . S
C931 C132 1.736 . S
C944 C510 1.268 . S
C942 C8 1.353 . S
C955 C502 1.272 . S
C953 C309 1.348 . S
C964 C71 1.721 . S
C966 C507 1.639 . S
C975 C109 1.300 . S
C977 C478 1.320 . S
C988 C511 1.450 . S
C986 C137 1.454 . S
C997 C12 2.715 . S
C999 C465 2.699 . S
C1008 C212 2.717 . S
C1010 C504 2.653 . S
C1021 C456 1.642 . S
C1019 C271 1.731 . S
C1032 C471 1.494 . S
C1030 C177 1.521 . S
