# Generated by pormake.
# Topology gar, (4,6)-cn, num edge types: 1
# Building blocks:
#     Node 0, Type 0, BuildingBlock: KUFVIS_clean_sbu_0, # of connection points: 4
#     Node 1, Type 0, BuildingBlock: KUFVIS_clean_sbu_0, # of connection points: 4
#     Node 2, Type 0, BuildingBlock: KUFVIS_clean_sbu_0, # of connection points: 4
#     Node 3, Type 0, BuildingBlock: KUFVIS_clean_sbu_0, # of connection points: 4
#     Node 4, Type 0, BuildingBlock: KUFVIS_clean_sbu_0, # of connection points: 4
#     Node 5, Type 0, BuildingBlock: KUFVIS_clean_sbu_0, # of connection points: 4
#     Node 6, Type 0, BuildingBlock: KUFVIS_clean_sbu_0, # of connection points: 4
#     Node 7, Type 0, BuildingBlock: KUFVIS_clean_sbu_0, # of connection points: 4
#     Node 8, Type 0, BuildingBlock: KUFVIS_clean_sbu_0, # of connection points: 4
#     Node 9, Type 0, BuildingBlock: KUFVIS_clean_sbu_0, # of connection points: 4
#     Node 10, Type 0, BuildingBlock: KUFVIS_clean_sbu_0, # of connection points: 4
#     Node 11, Type 0, BuildingBlock: KUFVIS_clean_sbu_0, # of connection points: 4
#     Node 12, Type 0, BuildingBlock: KUFVIS_clean_sbu_0, # of connection points: 4
#     Node 13, Type 0, BuildingBlock: KUFVIS_clean_sbu_0, # of connection points: 4
#     Node 14, Type 0, BuildingBlock: KUFVIS_clean_sbu_0, # of connection points: 4
#     Node 15, Type 0, BuildingBlock: KUFVIS_clean_sbu_0, # of connection points: 4
#     Node 16, Type 0, BuildingBlock: KUFVIS_clean_sbu_0, # of connection points: 4
#     Node 17, Type 0, BuildingBlock: KUFVIS_clean_sbu_0, # of connection points: 4
#     Node 18, Type 0, BuildingBlock: KUFVIS_clean_sbu_0, # of connection points: 4
#     Node 19, Type 0, BuildingBlock: KUFVIS_clean_sbu_0, # of connection points: 4
#     Node 20, Type 0, BuildingBlock: KUFVIS_clean_sbu_0, # of connection points: 4
#     Node 21, Type 0, BuildingBlock: KUFVIS_clean_sbu_0, # of connection points: 4
#     Node 22, Type 0, BuildingBlock: KUFVIS_clean_sbu_0, # of connection points: 4
#     Node 23, Type 0, BuildingBlock: KUFVIS_clean_sbu_0, # of connection points: 4
#     Node 24, Type 1, BuildingBlock: PAMTOO_clean_sbu_0, # of connection points: 6
#     Node 25, Type 1, BuildingBlock: PAMTOO_clean_sbu_0, # of connection points: 6
#     Node 26, Type 1, BuildingBlock: PAMTOO_clean_sbu_0, # of connection points: 6
#     Node 27, Type 1, BuildingBlock: PAMTOO_clean_sbu_0, # of connection points: 6
#     Node 28, Type 1, BuildingBlock: PAMTOO_clean_sbu_0, # of connection points: 6
#     Node 29, Type 1, BuildingBlock: PAMTOO_clean_sbu_0, # of connection points: 6
#     Node 30, Type 1, BuildingBlock: PAMTOO_clean_sbu_0, # of connection points: 6
#     Node 31, Type 1, BuildingBlock: PAMTOO_clean_sbu_0, # of connection points: 6
#     Node 32, Type 1, BuildingBlock: PAMTOO_clean_sbu_0, # of connection points: 6
#     Node 33, Type 1, BuildingBlock: PAMTOO_clean_sbu_0, # of connection points: 6
#     Node 34, Type 1, BuildingBlock: PAMTOO_clean_sbu_0, # of connection points: 6
#     Node 35, Type 1, BuildingBlock: PAMTOO_clean_sbu_0, # of connection points: 6
#     Node 36, Type 1, BuildingBlock: PAMTOO_clean_sbu_0, # of connection points: 6
#     Node 37, Type 1, BuildingBlock: PAMTOO_clean_sbu_0, # of connection points: 6
#     Node 38, Type 1, BuildingBlock: PAMTOO_clean_sbu_0, # of connection points: 6
#     Node 39, Type 1, BuildingBlock: PAMTOO_clean_sbu_0, # of connection points: 6
#     Edge 40, Type (0, 1), BuildingBlock: EZIPEK_clean_linker_0, # of connection points: 2
#     Edge 41, Type (0, 1), BuildingBlock: EZIPEK_clean_linker_0, # of connection points: 2
#     Edge 42, Type (0, 1), BuildingBlock: EZIPEK_clean_linker_0, # of connection points: 2
#     Edge 43, Type (0, 1), BuildingBlock: EZIPEK_clean_linker_0, # of connection points: 2
#     Edge 44, Type (0, 1), BuildingBlock: EZIPEK_clean_linker_0, # of connection points: 2
#     Edge 45, Type (0, 1), BuildingBlock: EZIPEK_clean_linker_0, # of connection points: 2
#     Edge 46, Type (0, 1), BuildingBlock: EZIPEK_clean_linker_0, # of connection points: 2
#     Edge 47, Type (0, 1), BuildingBlock: EZIPEK_clean_linker_0, # of connection points: 2
#     Edge 48, Type (0, 1), BuildingBlock: EZIPEK_clean_linker_0, # of connection points: 2
#     Edge 49, Type (0, 1), BuildingBlock: EZIPEK_clean_linker_0, # of connection points: 2
#     Edge 50, Type (0, 1), BuildingBlock: EZIPEK_clean_linker_0, # of connection points: 2
#     Edge 51, Type (0, 1), BuildingBlock: EZIPEK_clean_linker_0, # of connection points: 2
#     Edge 52, Type (0, 1), BuildingBlock: EZIPEK_clean_linker_0, # of connection points: 2
#     Edge 53, Type (0, 1), BuildingBlock: EZIPEK_clean_linker_0, # of connection points: 2
#     Edge 54, Type (0, 1), BuildingBlock: EZIPEK_clean_linker_0, # of connection points: 2
#     Edge 55, Type (0, 1), BuildingBlock: EZIPEK_clean_linker_0, # of connection points: 2
#     Edge 56, Type (0, 1), BuildingBlock: EZIPEK_clean_linker_0, # of connection points: 2
#     Edge 57, Type (0, 1), BuildingBlock: EZIPEK_clean_linker_0, # of connection points: 2
#     Edge 58, Type (0, 1), BuildingBlock: EZIPEK_clean_linker_0, # of connection points: 2
#     Edge 59, Type (0, 1), BuildingBlock: EZIPEK_clean_linker_0, # of connection points: 2
#     Edge 60, Type (0, 1), BuildingBlock: EZIPEK_clean_linker_0, # of connection points: 2
#     Edge 61, Type (0, 1), BuildingBlock: EZIPEK_clean_linker_0, # of connection points: 2
#     Edge 62, Type (0, 1), BuildingBlock: EZIPEK_clean_linker_0, # of connection points: 2
#     Edge 63, Type (0, 1), BuildingBlock: EZIPEK_clean_linker_0, # of connection points: 2
#     Edge 64, Type (0, 1), BuildingBlock: EZIPEK_clean_linker_0, # of connection points: 2
#     Edge 65, Type (0, 1), BuildingBlock: EZIPEK_clean_linker_0, # of connection points: 2
#     Edge 66, Type (0, 1), BuildingBlock: EZIPEK_clean_linker_0, # of connection points: 2
#     Edge 67, Type (0, 1), BuildingBlock: EZIPEK_clean_linker_0, # of connection points: 2
#     Edge 68, Type (0, 1), BuildingBlock: EZIPEK_clean_linker_0, # of connection points: 2
#     Edge 69, Type (0, 1), BuildingBlock: EZIPEK_clean_linker_0, # of connection points: 2
#     Edge 70, Type (0, 1), BuildingBlock: EZIPEK_clean_linker_0, # of connection points: 2
#     Edge 71, Type (0, 1), BuildingBlock: EZIPEK_clean_linker_0, # of connection points: 2
#     Edge 72, Type (0, 1), BuildingBlock: EZIPEK_clean_linker_0, # of connection points: 2
#     Edge 73, Type (0, 1), BuildingBlock: EZIPEK_clean_linker_0, # of connection points: 2
#     Edge 74, Type (0, 1), BuildingBlock: EZIPEK_clean_linker_0, # of connection points: 2
#     Edge 75, Type (0, 1), BuildingBlock: EZIPEK_clean_linker_0, # of connection points: 2
#     Edge 76, Type (0, 1), BuildingBlock: EZIPEK_clean_linker_0, # of connection points: 2
#     Edge 77, Type (0, 1), BuildingBlock: EZIPEK_clean_linker_0, # of connection points: 2
#     Edge 78, Type (0, 1), BuildingBlock: EZIPEK_clean_linker_0, # of connection points: 2
#     Edge 79, Type (0, 1), BuildingBlock: EZIPEK_clean_linker_0, # of connection points: 2
#     Edge 80, Type (0, 1), BuildingBlock: EZIPEK_clean_linker_0, # of connection points: 2
#     Edge 81, Type (0, 1), BuildingBlock: EZIPEK_clean_linker_0, # of connection points: 2
#     Edge 82, Type (0, 1), BuildingBlock: EZIPEK_clean_linker_0, # of connection points: 2
#     Edge 83, Type (0, 1), BuildingBlock: EZIPEK_clean_linker_0, # of connection points: 2
#     Edge 84, Type (0, 1), BuildingBlock: EZIPEK_clean_linker_0, # of connection points: 2
#     Edge 85, Type (0, 1), BuildingBlock: EZIPEK_clean_linker_0, # of connection points: 2
#     Edge 86, Type (0, 1), BuildingBlock: EZIPEK_clean_linker_0, # of connection points: 2
#     Edge 87, Type (0, 1), BuildingBlock: EZIPEK_clean_linker_0, # of connection points: 2
#     Edge 88, Type (0, 1), BuildingBlock: EZIPEK_clean_linker_0, # of connection points: 2
#     Edge 89, Type (0, 1), BuildingBlock: EZIPEK_clean_linker_0, # of connection points: 2
#     Edge 90, Type (0, 1), BuildingBlock: EZIPEK_clean_linker_0, # of connection points: 2
#     Edge 91, Type (0, 1), BuildingBlock: EZIPEK_clean_linker_0, # of connection points: 2
#     Edge 92, Type (0, 1), BuildingBlock: EZIPEK_clean_linker_0, # of connection points: 2
#     Edge 93, Type (0, 1), BuildingBlock: EZIPEK_clean_linker_0, # of connection points: 2
#     Edge 94, Type (0, 1), BuildingBlock: EZIPEK_clean_linker_0, # of connection points: 2
#     Edge 95, Type (0, 1), BuildingBlock: EZIPEK_clean_linker_0, # of connection points: 2
#     Edge 96, Type (0, 1), BuildingBlock: EZIPEK_clean_linker_0, # of connection points: 2
#     Edge 97, Type (0, 1), BuildingBlock: EZIPEK_clean_linker_0, # of connection points: 2
#     Edge 98, Type (0, 1), BuildingBlock: EZIPEK_clean_linker_0, # of connection points: 2
#     Edge 99, Type (0, 1), BuildingBlock: EZIPEK_clean_linker_0, # of connection points: 2
#     Edge 100, Type (0, 1), BuildingBlock: EZIPEK_clean_linker_0, # of connection points: 2
#     Edge 101, Type (0, 1), BuildingBlock: EZIPEK_clean_linker_0, # of connection points: 2
#     Edge 102, Type (0, 1), BuildingBlock: EZIPEK_clean_linker_0, # of connection points: 2
#     Edge 103, Type (0, 1), BuildingBlock: EZIPEK_clean_linker_0, # of connection points: 2
#     Edge 104, Type (0, 1), BuildingBlock: EZIPEK_clean_linker_0, # of connection points: 2
#     Edge 105, Type (0, 1), BuildingBlock: EZIPEK_clean_linker_0, # of connection points: 2
#     Edge 106, Type (0, 1), BuildingBlock: EZIPEK_clean_linker_0, # of connection points: 2
#     Edge 107, Type (0, 1), BuildingBlock: EZIPEK_clean_linker_0, # of connection points: 2
#     Edge 108, Type (0, 1), BuildingBlock: EZIPEK_clean_linker_0, # of connection points: 2
#     Edge 109, Type (0, 1), BuildingBlock: EZIPEK_clean_linker_0, # of connection points: 2
#     Edge 110, Type (0, 1), BuildingBlock: EZIPEK_clean_linker_0, # of connection points: 2
#     Edge 111, Type (0, 1), BuildingBlock: EZIPEK_clean_linker_0, # of connection points: 2
#     Edge 112, Type (0, 1), BuildingBlock: EZIPEK_clean_linker_0, # of connection points: 2
#     Edge 113, Type (0, 1), BuildingBlock: EZIPEK_clean_linker_0, # of connection points: 2
#     Edge 114, Type (0, 1), BuildingBlock: EZIPEK_clean_linker_0, # of connection points: 2
#     Edge 115, Type (0, 1), BuildingBlock: EZIPEK_clean_linker_0, # of connection points: 2
#     Edge 116, Type (0, 1), BuildingBlock: EZIPEK_clean_linker_0, # of connection points: 2
#     Edge 117, Type (0, 1), BuildingBlock: EZIPEK_clean_linker_0, # of connection points: 2
#     Edge 118, Type (0, 1), BuildingBlock: EZIPEK_clean_linker_0, # of connection points: 2
#     Edge 119, Type (0, 1), BuildingBlock: EZIPEK_clean_linker_0, # of connection points: 2
#     Edge 120, Type (0, 1), BuildingBlock: EZIPEK_clean_linker_0, # of connection points: 2
#     Edge 121, Type (0, 1), BuildingBlock: EZIPEK_clean_linker_0, # of connection points: 2
#     Edge 122, Type (0, 1), BuildingBlock: EZIPEK_clean_linker_0, # of connection points: 2
#     Edge 123, Type (0, 1), BuildingBlock: EZIPEK_clean_linker_0, # of connection points: 2
#     Edge 124, Type (0, 1), BuildingBlock: EZIPEK_clean_linker_0, # of connection points: 2
#     Edge 125, Type (0, 1), BuildingBlock: EZIPEK_clean_linker_0, # of connection points: 2
#     Edge 126, Type (0, 1), BuildingBlock: EZIPEK_clean_linker_0, # of connection points: 2
#     Edge 127, Type (0, 1), BuildingBlock: EZIPEK_clean_linker_0, # of connection points: 2
#     Edge 128, Type (0, 1), BuildingBlock: EZIPEK_clean_linker_0, # of connection points: 2
#     Edge 129, Type (0, 1), BuildingBlock: EZIPEK_clean_linker_0, # of connection points: 2
#     Edge 130, Type (0, 1), BuildingBlock: EZIPEK_clean_linker_0, # of connection points: 2
#     Edge 131, Type (0, 1), BuildingBlock: EZIPEK_clean_linker_0, # of connection points: 2
#     Edge 132, Type (0, 1), BuildingBlock: EZIPEK_clean_linker_0, # of connection points: 2
#     Edge 133, Type (0, 1), BuildingBlock: EZIPEK_clean_linker_0, # of connection points: 2
#     Edge 134, Type (0, 1), BuildingBlock: EZIPEK_clean_linker_0, # of connection points: 2
#     Edge 135, Type (0, 1), BuildingBlock: EZIPEK_clean_linker_0, # of connection points: 2
# Relax obj value: 0.180
# Max RMSD: 0.281
# Mean RMSD: 0.166
data_MOF--net-gar--node1-KUFVIS_clean_sbu_0--node2-PAMTOO_clean_sbu_0--edge1-EZIPEK_clean_linker_0
_symmetry_space_group_name_H-M    P1
_symmetry_Int_Tables_number       1
_symmetry_cell_setting            triclinic
loop_
_symmetry_equiv_pos_as_xyz
'x, y, z'
_cell_length_a     44.311313
_cell_length_b     44.645567
_cell_length_c     43.524164
_cell_angle_alpha  97.746168
_cell_angle_beta   97.209253
_cell_angle_gamma 106.32295
loop_
_atom_site_label
_atom_site_type_symbol
_atom_site_fract_x
_atom_site_fract_y
_atom_site_fract_z
_atom_type_partial_charge
Mn0 Mn 0.07505 0.35237 0.39052 0.0
Mn1 Mn 0.07671 0.39804 0.3356 0.0
C2 C 1.02529 0.35794 0.36593 0.0
C3 C 0.07267 0.30566 0.41047 0.0
C4 C 0.08798 0.4249 0.40678 0.0
O5 O 0.12024 0.35532 0.37753 0.0
O6 O 0.11899 0.38598 0.34134 0.0
C7 C 0.07755 0.34959 0.28189 0.0
N8 N 0.06359 0.37049 0.29531 0.0
C9 C 1.01932 0.35317 0.25212 0.0
C10 C 0.03341 0.33175 0.23787 0.0
C11 C 0.06265 0.32998 0.25282 0.0
C12 C 0.0353 0.37221 0.28112 0.0
H13 H 0.09975 0.34754 0.29326 0.0
C14 C 0.13298 0.36855 0.35577 0.0
O15 O 0.08564 0.33349 0.42742 0.0
O16 O 0.06228 0.3045 0.38084 0.0
N17 N 0.039 0.41017 0.32486 0.0
C18 C 0.02981 0.434 0.34015 0.0
C19 C 1.00139 0.43941 0.32775 0.0
C20 C 0.98298 0.42072 0.29943 0.0
C21 C 0.99375 0.3975 0.28323 0.0
C22 C 1.02249 0.39344 0.29657 0.0
H23 H 0.04376 0.44862 0.36188 0.0
O24 O 0.02862 0.34927 0.39303 0.0
O25 O 0.05139 0.36236 0.35331 0.0
O26 O 0.089 0.39867 0.41455 0.0
O27 O 0.08686 0.42839 0.37775 0.0
C28 C 0.9772 0.37844 0.25423 0.0
C29 C 0.98991 0.35619 0.23875 0.0
H30 H 1.02194 0.31647 0.2155 0.0
H31 H 0.07361 0.31336 0.24205 0.0
H32 H 0.99362 0.45784 0.34012 0.0
H33 H 0.96091 0.42475 0.29008 0.0
H34 H 0.95473 0.38078 0.24356 0.0
H35 H 0.97695 0.34164 0.21646 0.0
Mn36 Mn 0.04391 0.76796 0.72355 0.0
Mn37 Mn 0.06989 0.82641 0.78723 0.0
C38 C 0.10038 0.78529 0.74824 0.0
C39 C 0.02836 0.71497 0.69175 0.0
C40 C 0.06249 0.8397 0.72092 0.0
O41 O 0.99923 0.7697 0.73881 0.0
O42 O 1.02087 0.81267 0.77676 0.0
C43 C 0.04367 0.78548 0.83191 0.0
N44 N 0.06908 0.80535 0.82282 0.0
C45 C 0.10545 0.79827 0.86525 0.0
C46 C 0.07962 0.77789 0.87513 0.0
C47 C 0.04861 0.77144 0.85835 0.0
C48 C 0.09909 0.81134 0.83856 0.0
H49 H 1.0198 0.78025 0.81906 0.0
C50 C 0.99577 0.79173 0.76 0.0
O51 O 1.02324 0.73911 0.6812 0.0
O52 O 0.03812 0.72026 0.72202 0.0
N53 N 0.11495 0.84316 0.8018 0.0
C54 C 0.13624 0.86725 0.79244 0.0
C55 C 0.16808 0.87814 0.80798 0.0
C56 C 0.17763 0.86453 0.83332 0.0
C57 C 0.15484 0.84119 0.84381 0.0
C58 C 0.12333 0.83165 0.82765 0.0
H59 H 0.129 0.87809 0.77322 0.0
O60 O 0.09035 0.77201 0.71919 0.0
O61 O 0.07671 0.78845 0.76279 0.0
O62 O 0.04793 0.81071 0.70902 0.0
O63 O 0.0731 0.849 0.75049 0.0
C64 C 0.16188 0.82794 0.87041 0.0
C65 C 0.13722 0.80635 0.88102 0.0
H66 H 0.0833 0.76716 0.89562 0.0
H67 H 0.02856 0.75568 0.86578 0.0
H68 H 0.18514 0.89696 0.80036 0.0
H69 H 0.20228 0.87287 0.84513 0.0
H70 H 0.18608 0.83462 0.8832 0.0
H71 H 0.14285 0.79657 0.9017 0.0
Mn72 Mn 0.56889 0.85039 0.89177 0.0
Mn73 Mn 0.57124 0.89607 0.83719 0.0
C74 C 0.5189 0.85521 0.86654 0.0
C75 C 0.5661 0.80307 0.91032 0.0
C76 C 0.58125 0.92309 0.90836 0.0
O77 O 0.61466 0.85374 0.87951 0.0
O78 O 0.61431 0.88502 0.84384 0.0
C79 C 0.57385 0.84808 0.78392 0.0
N80 N 0.5591 0.86842 0.79695 0.0
C81 C 0.51497 0.8496 0.75361 0.0
C82 C 0.52987 0.82872 0.73976 0.0
C83 C 0.55945 0.82801 0.75497 0.0
C84 C 0.53053 0.86921 0.78245 0.0
H85 H 0.59631 0.8468 0.79551 0.0
C86 C 0.62815 0.86747 0.85837 0.0
O87 O 0.57889 0.83047 0.92823 0.0
O88 O 0.55618 0.80276 0.88082 0.0
N89 N 0.53311 0.9073 0.82568 0.0
C90 C 0.52296 0.93056 0.8407 0.0
C91 C 0.49406 0.93487 0.828 0.0
C92 C 0.4761 0.9156 0.79976 0.0
C93 C 0.48775 0.89291 0.78392 0.0
C94 C 0.51696 0.88998 0.79749 0.0
H95 H 0.53653 0.94557 0.86242 0.0
O96 O 0.52223 0.84684 0.89378 0.0
O97 O 0.5454 0.86017 0.8544 0.0
O98 O 0.58206 0.89677 0.91627 0.0
O99 O 0.5804 0.92643 0.87928 0.0
C100 C 0.47158 0.87321 0.7551 0.0
C101 C 0.48513 0.85148 0.74001 0.0
H102 H 0.51877 0.81305 0.71752 0.0
H103 H 0.57104 0.81182 0.74451 0.0
H104 H 0.48551 0.95283 0.84013 0.0
H105 H 0.45363 0.91874 0.79023 0.0
H106 H 0.44876 0.87464 0.74427 0.0
H107 H 0.47246 0.83644 0.71786 0.0
Mn108 Mn 0.55064 0.2698 0.231 0.0
Mn109 Mn 0.49154 0.25389 0.16772 0.0
C110 C 0.52966 0.21681 0.19957 0.0
C111 C 0.60869 0.283 0.25184 0.0
C112 C 0.48034 0.27558 0.23507 0.0
O113 O 0.55643 0.313 0.21612 0.0
O114 O 0.52143 0.29742 0.16983 0.0
C115 C 0.52542 0.25308 0.1132 0.0
N116 N 0.50417 0.23751 0.13009 0.0
C117 C 0.49306 0.18839 0.0939 0.0
C118 C 0.51557 0.20373 0.0767 0.0
C119 C 0.53159 0.23629 0.08623 0.0
C120 C 0.48773 0.20644 0.12044 0.0
H121 H 0.53757 0.27811 0.12026 0.0
C122 C 0.54448 0.31806 0.18946 0.0
O123 O 0.58818 0.28845 0.269 0.0
O124 O 0.59588 0.27072 0.22296 0.0
N125 N 0.46322 0.21182 0.16425 0.0
C126 C 0.44296 0.20022 0.18393 0.0
C127 C 0.42474 0.16809 0.17739 0.0
C128 C 0.42768 0.14815 0.15084 0.0
C129 C 0.44873 0.16058 0.13099 0.0
C130 C 0.46599 0.19288 0.13846 0.0
H131 H 0.44081 0.21526 0.20459 0.0
O132 O 0.54218 0.22145 0.22912 0.0
O133 O 0.5262 0.24272 0.19147 0.0
O134 O 0.50735 0.27347 0.24917 0.0
O135 O 0.47393 0.2702 0.20491 0.0
C136 C 0.454 0.14192 0.10465 0.0
C137 C 0.47609 0.15581 0.08606 0.0
H138 H 0.52064 0.19076 0.05609 0.0
H139 H 0.54875 0.24839 0.0729 0.0
H140 H 0.4087 0.15864 0.19293 0.0
H141 H 0.41394 0.12327 0.14611 0.0
H142 H 0.44167 0.11672 0.09897 0.0
H143 H 0.48013 0.14114 0.06601 0.0
Mn144 Mn 0.12303 0.84006 0.14111 0.0
Mn145 Mn 0.064 0.81704 0.07804 0.0
C146 C 0.10414 0.78502 0.11586 0.0
C147 C 0.17691 0.8519 0.16906 0.0
C148 C 0.05082 0.82676 0.14485 0.0
O149 O 0.12278 0.885 0.12724 0.0
O150 O 0.08068 0.86551 0.08785 0.0
C151 C 0.10401 0.83918 0.03104 0.0
N152 N 0.08315 0.81529 0.04108 0.0
C153 C 0.08288 0.77769 0.99578 0.0
C154 C 0.10415 0.80195 0.98484 0.0
C155 C 0.11483 0.8328 1.0026 0.0
C156 C 0.0729 0.78548 0.02427 0.0
H157 H 0.11235 0.86291 0.04462 0.0
C158 C 0.10208 0.88954 0.10556 0.0
O159 O 0.15434 0.85838 0.18231 0.0
O160 O 0.16978 0.84394 0.13858 0.0
N161 N 0.04504 0.77217 0.06486 0.0
C162 C 1.02502 0.75128 0.07893 0.0
C163 C 1.01283 0.71923 0.06452 0.0
C164 C 1.02099 0.70901 0.03565 0.0
C165 C 0.04113 0.73103 0.02132 0.0
C166 C 0.05263 0.76268 0.0368 0.0
H167 H 1.01887 0.75888 0.10124 0.0
O168 O 0.11774 0.79432 0.14493 0.0
O169 O 0.10142 0.80877 0.10171 0.0
O170 O 0.0804 0.8367 0.15732 0.0
O171 O 0.042 0.81743 0.11518 0.0
C172 C 0.05053 0.72274 0.99244 0.0
C173 C 0.07142 0.74603 0.97968 0.0
H174 H 0.11257 0.79713 0.96292 0.0
H175 H 0.13137 0.85163 0.9944 0.0
H176 H 0.99725 0.70243 0.07568 0.0
H177 H 1.01172 0.68422 0.02472 0.0
H178 H 0.04213 0.69843 0.98007 0.0
H179 H 0.0787 0.7393 0.95759 0.0
Mn180 Mn 0.51834 0.79624 0.48539 0.0
Mn181 Mn 0.52085 0.83912 0.42488 0.0
C182 C 0.46921 0.7957 0.45115 0.0
C183 C 0.52493 0.74635 0.50478 0.0
C184 C 0.52988 0.87166 0.49357 0.0
O185 O 0.56568 0.80746 0.47924 0.0
O186 O 0.56151 0.83079 0.4369 0.0
C187 C 0.52656 0.78832 0.37674 0.0
N188 N 0.51185 0.81013 0.38603 0.0
C189 C 0.47883 0.79898 0.33513 0.0
C190 C 0.4937 0.77648 0.32492 0.0
C191 C 0.5175 0.77093 0.34593 0.0
C192 C 0.48823 0.81487 0.3664 0.0
H193 H 0.54509 0.78429 0.39271 0.0
C194 C 0.57728 0.82007 0.45686 0.0
O195 O 0.52899 0.77334 0.52285 0.0
O196 O 0.51529 0.74776 0.47568 0.0
N197 N 0.4839 0.84999 0.40917 0.0
C198 C 0.47368 0.87418 0.42199 0.0
C199 C 0.45151 0.88427 0.40346 0.0
C200 C 0.44036 0.86968 0.37183 0.0
C201 C 0.45163 0.84535 0.35898 0.0
C202 C 0.474 0.83654 0.37842 0.0
H203 H 0.48282 0.88618 0.44601 0.0
O204 O 0.46875 0.78577 0.47793 0.0
O205 O 0.49783 0.80446 0.44474 0.0
O206 O 0.52544 0.84584 0.50581 0.0
O207 O 0.52948 0.87073 0.464 0.0
C208 C 0.4424 0.83038 0.32725 0.0
C209 C 0.45548 0.80672 0.31543 0.0
H210 H 0.48713 0.76341 0.301 0.0
H211 H 0.52909 0.75358 0.33828 0.0
H212 H 0.44327 0.90338 0.41355 0.0
H213 H 0.42358 0.87752 0.35729 0.0
H214 H 0.4256 0.83736 0.31177 0.0
H215 H 0.44799 0.7952 0.29099 0.0
Mn216 Mn 0.62763 0.34235 0.64454 0.0
Mn217 Mn 0.56833 0.3188 0.58176 0.0
C218 C 0.60891 0.28696 0.61851 0.0
C219 C 0.68146 0.35688 0.67449 0.0
C220 C 0.55534 0.32482 0.64823 0.0
O221 O 0.62734 0.387 0.63073 0.0
O222 O 0.58278 0.36703 0.59437 0.0
C223 C 0.609 0.34725 0.5376 0.0
N224 N 0.58862 0.32147 0.54548 0.0
C225 C 0.59146 0.28803 0.49844 0.0
C226 C 0.61234 0.31424 0.48979 0.0
C227 C 0.62122 0.34397 0.50952 0.0
C228 C 0.58024 0.29268 0.52684 0.0
H229 H 0.61597 0.37018 0.55254 0.0
C230 C 0.60498 0.39119 0.61079 0.0
O231 O 0.65765 0.36192 0.68642 0.0
O232 O 0.67519 0.34725 0.64416 0.0
N233 N 0.55121 0.27438 0.5652 0.0
C234 C 0.53003 0.25167 0.57634 0.0
C235 C 0.51866 0.22059 0.5592 0.0
C236 C 0.52847 0.21335 0.53042 0.0
C237 C 0.54952 0.23731 0.51893 0.0
C238 C 0.56019 0.26783 0.53711 0.0
H239 H 0.52198 0.25718 0.59822 0.0
O240 O 0.62236 0.29615 0.64762 0.0
O241 O 0.60633 0.3109 0.60467 0.0
O242 O 0.58463 0.33909 0.66002 0.0
O243 O 0.54599 0.31432 0.61867 0.0
C244 C 0.56021 0.23224 0.49006 0.0
C245 C 0.58133 0.25748 0.47995 0.0
H246 H 0.62171 0.3118 0.46808 0.0
H247 H 0.63739 0.36434 0.50309 0.0
H248 H 0.50221 0.2023 0.56799 0.0
H249 H 0.51937 0.18939 0.51728 0.0
H250 H 0.55244 0.20909 0.47535 0.0
H251 H 0.58949 0.25317 0.4578 0.0
Mn252 Mn 1.02578 0.29862 0.98386 0.0
Mn253 Mn 0.03278 0.34212 0.92359 0.0
C254 C 0.97902 0.30022 0.94849 0.0
C255 C 0.02891 0.2482 1.00349 0.0
C256 C 0.03847 0.374 0.99186 0.0
O257 O 0.07356 0.3088 0.97994 0.0
O258 O 0.07242 0.33299 0.93791 0.0
C259 C 0.03927 0.29052 0.87696 0.0
N260 N 1.02514 0.31321 0.88488 0.0
C261 C 0.99527 0.30318 0.83253 0.0
C262 C 1.00955 0.27974 0.82372 0.0
C263 C 0.03144 0.27319 0.84612 0.0
C264 C 1.00322 0.31888 0.86387 0.0
H265 H 0.05644 0.28578 0.89403 0.0
C266 C 0.08673 0.32168 0.95845 0.0
O267 O 0.0339 0.27533 0.02166 0.0
O268 O 1.02085 0.24977 0.97415 0.0
N269 N 0.99749 0.35434 0.90552 0.0
C270 C 0.98806 0.37953 0.91714 0.0
C271 C 0.96779 0.39062 0.89736 0.0
C272 C 0.95801 0.37634 0.86553 0.0
C273 C 0.96893 0.35128 0.85369 0.0
C274 C 0.98932 0.34137 0.87454 0.0
H275 H 0.99631 0.39149 0.94127 0.0
O276 O 0.97673 0.28992 0.97497 0.0
O277 O 1.00786 0.30771 0.94268 0.0
O278 O 0.03337 0.34817 1.00406 0.0
O279 O 0.03965 0.3733 0.96255 0.0
C280 C 0.96102 0.33626 0.82187 0.0
C281 C 0.97381 0.31188 0.8114 0.0
H282 H 1.00397 0.26671 0.79981 0.0
H283 H 0.04255 0.25513 0.83953 0.0
H284 H 0.96027 0.41049 0.90666 0.0
H285 H 0.94261 0.38516 0.85026 0.0
H286 H 0.94515 0.34328 0.80525 0.0
H287 H 0.96733 0.3003 0.78695 0.0
Mn288 Mn 0.44625 0.06305 0.33398 0.0
Mn289 Mn 0.37647 0.04005 0.36088 0.0
C290 C 0.42314 1.01022 0.33649 0.0
C291 C 0.47795 0.07114 0.29635 0.0
C292 C 0.44034 0.07164 0.40313 0.0
O293 O 0.42922 0.10013 0.32937 0.0
O294 O 0.38367 0.08187 0.34803 0.0
C295 C 0.33426 0.03372 0.30036 0.0
N296 N 0.34336 0.02078 0.32523 0.0
C297 C 0.30098 0.97204 0.30599 0.0
C298 C 0.29104 0.98494 0.28033 0.0
C299 C 0.30799 1.01578 0.27732 0.0
C300 C 0.32809 0.9906 0.32759 0.0
H301 H 0.34681 0.0576 0.29811 0.0
C302 C 0.40256 0.10228 0.33572 0.0
O303 O 0.48797 0.08641 0.32497 0.0
O304 O 0.44813 0.0541 0.28871 0.0
N305 N 0.36486 0.99946 0.37361 0.0
C306 C 0.37312 0.99286 0.40262 0.0
C307 C 0.35781 0.96341 0.41004 0.0
C308 C 0.33249 0.94175 0.38843 0.0
C309 C 0.32248 0.94989 0.35974 0.0
C310 C 0.33925 0.97941 0.35334 0.0
H311 H 0.38998 1.01057 0.42078 0.0
O312 O 0.45359 0.02137 0.337 0.0
O313 O 0.40715 0.03044 0.33533 0.0
O314 O 0.45612 0.07622 0.38102 0.0
O315 O 0.41018 0.0583 0.39892 0.0
C316 C 0.29514 0.93084 0.33834 0.0
C317 C 0.2844 0.94193 0.31152 0.0
H318 H 0.27028 0.97151 0.26295 0.0
H319 H 0.30051 0.02589 0.25755 0.0
H320 H 0.36458 0.95798 0.43292 0.0
H321 H 0.31989 0.91976 0.39498 0.0
H322 H 0.2816 0.90804 0.34277 0.0
H323 H 0.26274 0.9275 0.29584 0.0
Mn324 Mn 0.29285 0.24301 0.54792 0.0
Mn325 Mn 0.28444 0.17866 0.4925 0.0
C326 C 0.24228 0.20499 0.52961 0.0
C327 C 0.29967 0.26674 0.6025 0.0
C328 C 0.3003 0.24609 0.47766 0.0
O329 O 0.33798 0.23737 0.55271 0.0
O330 O 0.3274 0.19084 0.51896 0.0
C331 C 0.28669 0.13062 0.53286 0.0
N332 N 0.27066 0.14076 0.5096 0.0
C333 C 0.22502 0.09444 0.50306 0.0
C334 C 0.24093 0.08369 0.52713 0.0
C335 C 0.27192 0.10184 0.54205 0.0
C336 C 0.2409 0.12337 0.49497 0.0
H337 H 0.31044 0.1445 0.54453 0.0
C338 C 0.34557 0.21295 0.54098 0.0
O339 O 0.30653 0.28369 0.58086 0.0
O340 O 0.29019 0.23646 0.59274 0.0
N341 N 0.24301 0.1644 0.46668 0.0
C342 C 0.2307 0.17825 0.44418 0.0
C343 C 0.20011 0.16275 0.42661 0.0
C344 C 0.18252 0.13314 0.43224 0.0
C345 C 0.19572 0.11925 0.45539 0.0
C346 C 0.22644 0.13569 0.47198 0.0
H347 H 0.2441 0.20092 0.43957 0.0
O348 O 0.24462 0.2341 0.54117 0.0
O349 O 0.26935 0.2005 0.52643 0.0
O350 O 0.29756 0.25964 0.50486 0.0
O351 O 0.29783 0.21652 0.47174 0.0
C352 C 0.17941 0.08995 0.46294 0.0
C353 C 0.19396 0.07767 0.48692 0.0
H354 H 0.22959 0.06153 0.53435 0.0
H355 H 0.28436 0.0937 0.56065 0.0
H356 H 0.19008 0.17364 0.4088 0.0
H357 H 0.15882 0.12137 0.41881 0.0
H358 H 0.1555 0.07685 0.45071 0.0
H359 H 0.18104 0.05529 0.49275 0.0
Mn360 Mn 0.14905 0.09654 0.81823 0.0
Mn361 Mn 0.2129 0.11342 0.8764 0.0
C362 C 0.1838 0.14858 0.8338 0.0
C363 C 0.12732 0.08601 0.76287 0.0
C364 C 0.14395 0.09267 0.88834 0.0
O365 O 0.15777 0.05347 0.81845 0.0
O366 O 0.20465 0.06997 0.85265 0.0
C367 C 0.26714 0.11154 0.84368 0.0
N368 N 0.25255 0.12835 0.86199 0.0
C369 C 0.29817 0.17502 0.87101 0.0
C370 C 0.3137 0.15815 0.85236 0.0
C371 C 0.29805 0.12633 0.83851 0.0
C372 C 0.26756 0.15889 0.8757 0.0
H373 H 0.25543 0.08694 0.83334 0.0
C374 C 0.18342 0.04897 0.83165 0.0
O375 O 0.10937 0.07925 0.78396 0.0
O376 O 0.15757 0.09671 0.77364 0.0
N377 N 0.22248 0.15591 0.89882 0.0
C378 C 0.20458 0.16862 0.91685 0.0
C379 C 0.21617 0.20076 0.9311 0.0
C380 C 0.24613 0.21944 0.92687 0.0
C381 C 0.2643 0.20575 0.90852 0.0
C382 C 0.25139 0.17366 0.8947 0.0
H383 H 0.18154 0.15444 0.92018 0.0
O384 O 0.15418 0.14346 0.82142 0.0
O385 O 0.19074 0.12344 0.83952 0.0
O386 O 0.13043 0.09321 0.86052 0.0
O387 O 0.1741 0.09848 0.89554 0.0
C388 C 0.29468 0.22271 0.90335 0.0
C389 C 0.31176 0.20726 0.8849 0.0
H390 H 0.33747 0.16953 0.84815 0.0
H391 H 0.30983 0.1132 0.82398 0.0
H392 H 0.20199 0.21112 0.94524 0.0
H393 H 0.25497 0.24423 0.93785 0.0
H394 H 0.30522 0.24759 0.91362 0.0
H395 H 0.33522 0.22046 0.88132 0.0
Mn396 Mn 0.30346 0.92422 0.02992 0.0
Mn397 Mn 0.32784 0.98559 0.99048 0.0
C398 C 0.3592 0.94686 0.02163 0.0
C399 C 0.32935 0.9143 0.07749 0.0
C400 C 0.28657 0.91813 0.96047 0.0
O401 O 0.26819 0.94562 0.02593 0.0
O402 O 0.29424 0.99196 1.01294 0.0
C403 C 0.35408 0.04384 0.03889 0.0
N404 N 0.35801 0.02359 0.01444 0.0
C405 C 0.40865 0.05991 1.01102 0.0
C406 C 0.40493 0.08129 0.03582 0.0
C407 C 0.37774 0.07309 0.05011 0.0
C408 C 0.38433 0.03114 1.00085 0.0
H409 H 0.33283 0.03792 0.04941 0.0
C410 C 0.27138 0.97451 0.02367 0.0
O411 O 0.33167 0.90064 0.04985 0.0
O412 O 0.31564 0.93622 0.0774 0.0
N413 N 0.36177 0.98195 0.96826 0.0
C414 C 0.36268 0.95796 0.94581 0.0
C415 C 0.3891 0.96172 0.93034 0.0
C416 C 0.41438 0.99015 0.9381 0.0
C417 C 0.41324 1.01429 0.96171 0.0
C418 C 0.38638 1.00905 0.97648 0.0
H419 H 0.34379 0.93587 0.94026 0.0
O420 O 0.34859 0.91829 0.02605 0.0
O421 O 0.33809 0.96079 0.02161 0.0
O422 O 0.29171 0.90474 0.9837 0.0
O423 O 0.29684 0.94815 0.96223 0.0
C424 C 0.4379 0.04318 0.97142 0.0
C425 C 0.43553 0.06608 0.99594 0.0
H426 H 0.42276 0.10411 0.0439 0.0
H427 H 0.37482 0.08948 0.06939 0.0
H428 H 0.39005 0.9427 0.91259 0.0
H429 H 0.43477 0.99297 0.92617 0.0
H430 H 0.4588 0.04791 0.96022 0.0
H431 H 0.45466 0.08822 1.00328 0.0
Mn432 Mn 0.3398 0.40566 0.0734 0.0
Mn433 Mn 0.35499 0.46125 0.02537 0.0
C434 C 0.39284 0.43654 0.07259 0.0
C435 C 0.32758 0.39024 0.12316 0.0
C436 C 0.33884 0.39032 1.00054 0.0
O437 O 0.29597 0.41326 0.06209 0.0
O438 O 0.31083 0.45169 0.03341 0.0
C439 C 0.3495 0.51461 0.0705 0.0
N440 N 0.36631 0.50253 0.05062 0.0
C441 C 0.40723 0.55277 0.05876 0.0
C442 C 0.39034 0.56579 0.07925 0.0
C443 C 0.36147 0.54654 0.08534 0.0
C444 C 0.39458 0.52056 0.04538 0.0
H445 H 0.32712 0.50001 0.07496 0.0
C446 C 0.29034 0.43438 0.04687 0.0
O447 O 0.32109 0.37 0.09708 0.0
O448 O 0.34046 0.41948 0.12037 0.0
N449 N 0.39687 0.47448 0.0148 0.0
C450 C 0.40895 0.45915 0.99246 0.0
C451 C 0.43702 0.47539 0.98255 0.0
C452 C 0.45195 0.50764 0.99493 0.0
C453 C 0.43838 0.52339 0.01679 0.0
C454 C 0.41042 0.5059 0.02589 0.0
H455 H 0.39668 0.43504 0.98138 0.0
O456 O 0.38701 0.41013 0.0834 0.0
O457 O 0.36772 0.44434 0.06287 0.0
O458 O 0.33617 0.3811 0.02723 0.0
O459 O 0.34458 0.41938 0.99748 0.0
C460 C 0.45105 0.55601 0.02925 0.0
C461 C 0.43586 0.57058 0.05071 0.0
H462 H 0.39925 0.59054 0.09036 0.0
H463 H 0.34829 0.55638 0.10116 0.0
H464 H 0.44685 0.46319 0.96505 0.0
H465 H 0.47353 0.52016 0.98713 0.0
H466 H 0.47241 0.57007 0.02231 0.0
H467 H 0.44607 0.59563 0.06039 0.0
Mn468 Mn 0.79995 0.1915 0.07723 0.0
Mn469 Mn 0.75559 0.12549 0.02258 0.0
C470 C 0.74215 0.1685 0.07279 0.0
C471 C 0.79999 0.20816 0.13105 0.0
C472 C 0.77209 0.19282 1.00964 0.0
O473 O 0.83292 0.17392 0.06057 0.0
O474 O 0.80177 0.13286 0.02454 0.0
C475 C 0.77647 0.08032 0.05787 0.0
N476 N 0.75253 0.08965 0.04325 0.0
C477 C 0.713 0.0443 0.05317 0.0
C478 C 0.73729 0.03428 0.06824 0.0
C479 C 0.76921 0.05253 0.07079 0.0
C480 C 0.72174 0.07286 0.04169 0.0
H481 H 0.80094 0.09384 0.05961 0.0
C482 C 0.82892 0.15019 0.03941 0.0
O483 O 0.78366 0.21724 0.10912 0.0
O484 O 0.81149 0.18558 0.12203 0.0
N485 N 0.70984 0.11185 0.01612 0.0
C486 C 0.68976 0.12021 0.99495 0.0
C487 C 0.65692 0.10441 0.9896 0.0
C488 C 0.64541 0.07803 1.00364 0.0
C489 C 0.66685 0.06658 0.02119 0.0
C490 C 0.69918 0.08433 0.02697 0.0
H491 H 0.69896 0.13695 0.98041 0.0
O492 O 0.75673 0.19745 0.08523 0.0
O493 O 0.76078 0.15272 0.06439 0.0
O494 O 0.78886 0.2053 0.03663 0.0
O495 O 0.75763 0.16291 1.00084 0.0
C496 C 0.65748 0.03761 0.03211 0.0
C497 C 0.68053 0.02666 0.04845 0.0
H498 H 0.73173 1.0125 0.07769 0.0
H499 H 0.78821 0.04503 0.08235 0.0
H500 H 0.64071 0.1115 0.97354 0.0
H501 H 0.62027 0.06592 0.99988 0.0
H502 H 0.63268 0.02339 0.02779 0.0
H503 H 0.67307 1.00438 0.05679 0.0
Mn504 Mn 0.17847 0.5729 0.27392 0.0
Mn505 Mn 0.21347 0.61213 0.34767 0.0
C506 C 0.19608 0.62809 0.28532 0.0
C507 C 0.17549 0.5515 0.22169 0.0
C508 C 0.14276 0.57773 0.32802 0.0
O509 O 0.19432 0.53984 0.29342 0.0
O510 O 0.22002 0.56983 0.34085 0.0
C511 C 0.28199 0.61984 0.34621 0.0
N512 N 0.25809 0.63292 0.35007 0.0
C513 C 0.29574 0.68531 0.36514 0.0
C514 C 0.32068 0.67234 0.36134 0.0
C515 C 0.31374 0.63948 0.35162 0.0
C516 C 0.26452 0.66457 0.35913 0.0
H517 H 0.27695 0.59459 0.33942 0.0
C518 C 0.21271 0.54463 0.31998 0.0
O519 O 0.15227 0.54221 0.23684 0.0
O520 O 0.20221 0.57023 0.23823 0.0
N521 N 0.20962 0.65402 0.35614 0.0
C522 C 0.18297 0.66287 0.35926 0.0
C523 C 0.18576 0.69511 0.3678 0.0
C524 C 0.21595 0.71787 0.37365 0.0
C525 C 0.24315 0.70819 0.37124 0.0
C526 C 0.23886 0.67574 0.36222 0.0
H527 H 0.15974 0.64554 0.35529 0.0
O528 O 0.17308 0.61334 0.26197 0.0
O529 O 0.20683 0.61025 0.30199 0.0
O530 O 0.14349 0.56871 0.29954 0.0
O531 O 0.16747 0.59294 0.34842 0.0
C532 C 0.27434 0.72946 0.37747 0.0
C533 C 0.30062 0.71803 0.37446 0.0
H534 H 0.34521 0.68738 0.36567 0.0
H535 H 0.33285 0.62927 0.34861 0.0
H536 H 0.16467 0.70238 0.36991 0.0
H537 H 0.21794 0.74267 0.38001 0.0
H538 H 0.27837 0.75467 0.38454 0.0
H539 H 0.32446 0.73464 0.37925 0.0
Mn540 Mn 0.83927 0.90743 0.57729 0.0
Mn541 Mn 0.85195 0.96277 0.52884 0.0
C542 C 0.89167 0.93936 0.57561 0.0
C543 C 0.82798 0.89158 0.62727 0.0
C544 C 0.83613 0.89198 0.5042 0.0
O545 O 0.79492 0.91426 0.5666 0.0
O546 O 0.80859 0.95425 0.53931 0.0
C547 C 0.84979 0.01788 0.5738 0.0
N548 N 0.86523 1.00453 0.55336 0.0
C549 C 0.90713 0.05383 0.5592 0.0
C550 C 0.89173 0.06808 0.58041 0.0
C551 C 0.86303 0.04996 0.58788 0.0
C552 C 0.8932 0.02156 0.54654 0.0
H553 H 0.82753 1.00417 0.57921 0.0
C554 C 0.78867 0.93595 0.5526 0.0
O555 O 0.82187 0.87154 0.6011 0.0
O556 O 0.84006 0.92097 0.62451 0.0
N557 N 0.89298 0.97433 0.51622 0.0
C558 C 0.90408 0.95746 0.49417 0.0
C559 C 0.93152 0.9726 0.48261 0.0
C560 C 0.94722 1.00502 0.49358 0.0
C561 C 0.93519 0.02203 0.51591 0.0
C562 C 0.90751 1.00575 0.52631 0.0
H563 H 0.89179 0.93276 0.48492 0.0
O564 O 0.88681 0.91314 0.58675 0.0
O565 O 0.86598 0.94633 0.56617 0.0
O566 O 0.83566 0.88286 0.5311 0.0
O567 O 0.83955 0.92073 0.50112 0.0
C568 C 0.94924 0.05466 0.5278 0.0
C569 C 0.93553 0.07044 0.54983 0.0
H570 H 0.90166 0.09292 0.591 0.0
H571 H 0.85096 0.06078 0.60419 0.0
H572 H 0.94049 0.95935 0.46517 0.0
H573 H 0.96844 0.0166 0.48468 0.0
H574 H 0.97063 0.06783 0.52016 0.0
H575 H 0.94676 0.09546 0.55906 0.0
Mn576 Mn 0.98047 0.04754 0.29103 0.0
Mn577 Mn 0.9234 0.03302 0.33821 0.0
C578 C 0.9496 0.995 0.29204 0.0
C579 C 0.99703 0.05861 0.24129 0.0
C580 C 0.99444 0.04973 0.36402 0.0
O581 O 0.97267 0.09124 0.30214 0.0
O582 O 0.93248 0.07643 0.32934 0.0
C583 C 0.86993 0.03614 0.29182 0.0
N584 N 0.8822 0.02042 0.31244 0.0
C585 C 0.83224 0.97892 0.30441 0.0
C586 C 0.81902 0.99466 0.28312 0.0
C587 C 0.83803 0.02327 0.27662 0.0
C588 C 0.86444 0.99241 0.31811 0.0
H589 H 0.88437 0.05833 0.28706 0.0
C590 C 0.95065 0.09681 0.31654 0.0
O591 O 1.01689 0.06544 0.26764 0.0
O592 O 0.96739 0.04634 0.24382 0.0
N593 N 0.91077 0.99195 0.34968 0.0
C594 C 0.92629 0.98115 0.37279 0.0
C595 C 0.91001 0.95404 0.38384 0.0
C596 C 0.87776 0.93837 0.3713 0.0
C597 C 0.86198 0.95036 0.34823 0.0
C598 C 0.87933 0.97774 0.33844 0.0
H599 H 0.95062 0.99367 0.38353 0.0
O600 O 0.97632 1.00074 0.28131 0.0
O601 O 0.94137 0.01994 0.30132 0.0
O602 O 1.00436 0.05152 0.33746 0.0
O603 O 0.96512 0.04476 0.36667 0.0
C604 C 0.8294 0.93676 0.33532 0.0
C605 C 0.81466 0.95065 0.31296 0.0
H606 H 0.79428 0.98505 0.27173 0.0
H607 H 0.82802 0.03555 0.26019 0.0
H608 H 0.92224 0.94535 0.40213 0.0
H609 H 0.86528 0.9174 0.37983 0.0
H610 H 0.81549 0.91577 0.3427 0.0
H611 H 0.78963 0.93978 0.30302 0.0
Mn612 Mn 0.30106 0.69112 0.59578 0.0
Mn613 Mn 0.26659 0.63981 0.52759 0.0
C614 C 0.24595 0.67273 0.58132 0.0
C615 C 0.3219 0.70567 0.64909 0.0
C616 C 0.29425 0.71018 0.53136 0.0
O617 O 0.3369 0.67391 0.58584 0.0
O618 O 0.31204 0.6421 0.53947 0.0
C619 C 0.27021 0.58079 0.5499 0.0
N620 N 0.25259 0.59792 0.53693 0.0
C621 C 0.20437 0.5545 0.53071 0.0
C622 C 0.22198 0.53655 0.54428 0.0
C623 C 0.25508 0.5498 0.55395 0.0
C624 C 0.22071 0.58546 0.52768 0.0
H625 H 0.29562 0.59054 0.55689 0.0
C626 C 0.33615 0.65412 0.5616 0.0
O627 O 0.33015 0.72432 0.62925 0.0
O628 O 0.3024 0.67748 0.63764 0.0
N629 N 0.22243 0.63417 0.51314 0.0
C630 C 0.20909 0.65366 0.49844 0.0
C631 C 0.17615 0.64364 0.48682 0.0
C632 C 0.15741 0.61344 0.48982 0.0
C633 C 0.17192 0.59331 0.50379 0.0
C634 C 0.20482 0.60451 0.5148 0.0
H635 H 0.22339 0.6768 0.49576 0.0
O636 O 0.25964 0.69934 0.60065 0.0
O637 O 0.26476 0.65749 0.57099 0.0
O638 O 0.30636 0.71604 0.56026 0.0
O639 O 0.27886 0.68241 0.51625 0.0
C640 C 0.15502 0.56256 0.50732 0.0
C641 C 0.17117 0.54298 0.52036 0.0
H642 H 0.21036 0.51258 0.5473 0.0
H643 H 0.26895 0.53609 0.56431 0.0
H644 H 0.16524 0.65916 0.47565 0.0
H645 H 0.13199 0.60587 0.48103 0.0
H646 H 0.12953 0.55406 0.50085 0.0
H647 H 0.15772 0.51934 0.52284 0.0
Mn648 Mn 0.48759 0.54733 0.79052 0.0
Mn649 Mn 0.43014 0.53725 0.83767 0.0
C650 C 0.45448 0.49596 0.79261 0.0
C651 C 0.50519 0.55719 0.74101 0.0
C652 C 0.50099 0.55139 0.8637 0.0
O653 O 0.48155 0.59178 0.79981 0.0
O654 O 0.44071 0.58009 0.82678 0.0
C655 C 0.37718 0.54103 0.79096 0.0
N656 N 0.38886 0.52528 0.81193 0.0
C657 C 0.33807 0.48495 0.80427 0.0
C658 C 0.32554 0.50074 0.78256 0.0
C659 C 0.34526 0.52881 0.77574 0.0
C660 C 0.37031 0.49785 0.81808 0.0
H661 H 0.39206 0.56278 0.78593 0.0
C662 C 0.45957 0.59891 0.81305 0.0
O663 O 0.52474 0.56339 0.76747 0.0
O664 O 0.47532 0.5457 0.74317 0.0
N665 N 0.41592 0.49683 0.85045 0.0
C666 C 0.43057 0.4861 0.8742 0.0
C667 C 0.41367 0.45917 0.88513 0.0
C668 C 0.38144 0.44395 0.87224 0.0
C669 C 0.36633 0.45616 0.84889 0.0
C670 C 0.38445 0.48312 0.83894 0.0
H671 H 0.45453 0.49874 0.88573 0.0
O672 O 0.48122 0.50002 0.78202 0.0
O673 O 0.44756 0.52184 0.80118 0.0
O674 O 0.51089 0.55152 0.83707 0.0
O675 O 0.47187 0.54825 0.8663 0.0
C676 C 0.33375 0.44312 0.83576 0.0
C677 C 0.31974 0.45717 0.81305 0.0
H678 H 0.30081 0.49159 0.7711 0.0
H679 H 0.33579 0.54118 0.75904 0.0
H680 H 0.42533 0.45046 0.9038 0.0
H681 H 0.36842 0.42322 0.8808 0.0
H682 H 0.31926 0.42237 0.84312 0.0
H683 H 0.29469 0.44675 0.80295 0.0
Mn684 Mn 0.69042 0.09508 0.78181 0.0
Mn685 Mn 0.74608 0.13149 0.84676 0.0
C686 C 0.71836 0.14827 0.78725 0.0
C687 C 0.67345 0.06714 0.73103 0.0
C688 C 0.67514 0.11871 0.84498 0.0
O689 O 0.69814 0.05784 0.79978 0.0
O690 O 0.73613 0.08475 0.8413 0.0
C691 C 0.79957 0.11175 0.82506 0.0
N692 N 0.78748 0.13511 0.8363 0.0
C693 C 0.83806 0.17475 0.84046 0.0
C694 C 0.85109 0.1511 0.82917 0.0
C695 C 0.83164 0.11945 0.82116 0.0
C696 C 0.80573 0.16571 0.84316 0.0
H697 H 0.78497 0.0874 0.81923 0.0
C698 C 0.71909 0.05904 0.82312 0.0
O699 O 0.65388 0.06696 0.75081 0.0
O700 O 0.70354 0.08141 0.74178 0.0
N701 N 0.75984 0.17694 0.85521 0.0
C702 C 0.74443 0.19705 0.86725 0.0
C703 C 0.76021 0.22978 0.87461 0.0
C704 C 0.79243 0.24126 0.87199 0.0
C705 C 0.80851 0.21999 0.8618 0.0
C706 C 0.79117 0.18781 0.85328 0.0
H707 H 0.72067 0.1882 0.87202 0.0
O708 O 0.69154 0.13587 0.76795 0.0
O709 O 0.7289 0.12881 0.80218 0.0
O710 O 0.66661 0.10472 0.81655 0.0
O711 O 0.70409 0.12952 0.85922 0.0
C712 C 0.84118 0.22952 0.86004 0.0
C713 C 0.856 0.20691 0.84939 0.0
H714 H 0.87596 0.15697 0.82653 0.0
H715 H 0.8414 0.10099 0.81232 0.0
H716 H 0.7478 0.24613 0.88269 0.0
H717 H 0.80474 0.2664 0.87804 0.0
H718 H 0.85496 0.25419 0.867 0.0
H719 H 0.88118 0.21433 0.84822 0.0
Mn720 Mn 0.79708 0.74022 0.05139 0.0
Mn721 Mn 0.78555 0.67843 0.99229 0.0
C722 C 0.74574 0.70406 0.03338 0.0
C723 C 0.80562 0.76086 0.10692 0.0
C724 C 0.80257 0.74743 0.98173 0.0
O725 O 0.8416 0.73377 0.05295 0.0
O726 O 0.82913 0.68829 0.01743 0.0
C727 C 0.78927 0.62493 0.02451 0.0
N728 N 0.77196 0.6384 1.00566 0.0
C729 C 0.72694 0.59107 0.99471 0.0
C730 C 0.74436 0.57667 0.01386 0.0
C731 C 0.77559 0.59374 0.02896 0.0
C732 C 0.74196 0.62207 0.99084 0.0
H733 H 0.81344 0.63774 0.03589 0.0
C734 C 0.84823 0.7093 0.03996 0.0
O735 O 0.81235 0.77923 0.08637 0.0
O736 O 0.7956 0.73085 0.09554 0.0
N737 N 0.74325 0.66683 0.9685 0.0
C738 C 0.72975 0.68392 0.95046 0.0
C739 C 0.69791 0.67083 0.93512 0.0
C740 C 0.68035 0.64021 0.93827 0.0
C741 C 0.69483 0.62293 0.95669 0.0
C742 C 0.72655 0.63733 0.97165 0.0
H743 H 0.74304 0.70744 0.94791 0.0
O744 O 0.74943 0.73306 0.04649 0.0
O745 O 0.77209 0.69845 0.02871 0.0
O746 O 0.80088 0.75978 1.00975 0.0
O747 O 0.79908 0.71785 0.97405 0.0
C748 C 0.67899 0.59202 0.96086 0.0
C749 C 0.69515 0.57596 0.97956 0.0
H750 H 0.73383 0.55268 0.0175 0.0
H751 H 0.78914 0.58285 0.04391 0.0
H752 H 0.68693 0.68433 0.92094 0.0
H753 H 0.65578 0.63021 0.92644 0.0
H754 H 0.65443 0.58032 0.94965 0.0
H755 H 0.6828 0.55213 0.98243 0.0
Mn756 Mn 0.96502 0.58158 0.83628 0.0
Mn757 Mn 0.89337 0.55574 0.85904 0.0
C758 C 0.94372 0.52894 0.84043 0.0
C759 C 0.99896 0.59076 0.8006 0.0
C760 C 0.95407 0.59315 0.90411 0.0
O761 O 0.94588 0.61696 0.82869 0.0
O762 O 0.89884 0.59611 0.84403 0.0
C763 C 0.85395 0.54378 0.7958 0.0
N764 N 0.8624 0.53327 0.82259 0.0
C765 C 0.82263 0.48253 0.80444 0.0
C766 C 0.81337 0.49286 0.77674 0.0
C767 C 0.82929 0.52353 0.7723 0.0
C768 C 0.8479 0.50349 0.82667 0.0
H769 H 0.86587 0.56745 0.7924 0.0
C770 C 0.918 0.61736 0.83288 0.0
O771 O 1.00729 0.60626 0.82923 0.0
O772 O 0.96974 0.57238 0.79175 0.0
N773 N 0.88396 0.51615 0.87368 0.0
C774 C 0.89502 0.51021 0.90216 0.0
C775 C 0.88073 0.4811 0.91094 0.0
C776 C 0.85495 0.45848 0.8905 0.0
C777 C 0.84375 0.46514 0.86141 0.0
C778 C 0.85887 0.49465 0.85402 0.0
H779 H 0.91463 0.52753 0.91806 0.0
O780 O 0.97426 0.5411 0.84216 0.0
O781 O 0.92669 0.54785 0.83668 0.0
O782 O 0.97138 0.596 0.88296 0.0
O783 O 0.92429 0.57787 0.89816 0.0
C784 C 0.81768 0.444 0.83978 0.0
C785 C 0.80746 0.45247 0.8111 0.0
H786 H 0.79399 0.47752 0.75881 0.0
H787 H 0.82234 0.53166 0.75096 0.0
H788 H 0.88949 0.47615 0.93346 0.0
H789 H 0.84391 0.43618 0.89751 0.0
H790 H 0.80525 0.42116 0.84496 0.0
H791 H 0.78754 0.4359 0.79459 0.0
Mn792 Mn 0.80958 0.42283 0.52883 0.0
Mn793 Mn 0.82815 0.49588 0.50956 0.0
C794 C 0.8614 0.44885 0.52373 0.0
C795 C 0.80412 0.38702 0.56247 0.0
C796 C 0.79324 0.43563 0.46271 0.0
O797 O 0.77234 0.43797 0.5398 0.0
O798 O 0.78839 0.48689 0.52752 0.0
C799 C 0.84099 0.53354 0.57394 0.0
N800 N 0.8508 0.52668 0.5461 0.0
C801 C 0.90049 0.56852 0.56296 0.0
C802 C 0.89084 0.57614 0.59171 0.0
C803 C 0.86105 0.55842 0.5973 0.0
C804 C 0.8797 0.54314 0.54077 0.0
H805 H 0.81804 0.52019 0.57831 0.0
C806 C 0.76951 0.46553 0.53889 0.0
O807 O 0.78826 0.37913 0.53405 0.0
O808 O 0.821 0.41652 0.57242 0.0
N809 N 0.86688 0.50834 0.49288 0.0
C810 C 0.87302 0.49751 0.46427 0.0
C811 C 0.90169 0.51288 0.45486 0.0
C812 C 0.92373 0.53934 0.47491 0.0
C813 C 0.91705 0.54996 0.50436 0.0
C814 C 0.88801 0.53373 0.5124 0.0
H815 H 0.85643 0.47702 0.44898 0.0
O816 O 0.85162 0.41816 0.52051 0.0
O817 O 0.84052 0.46327 0.52935 0.0
O818 O 0.79351 0.4175 0.48265 0.0
O819 O 0.8057 0.46571 0.46994 0.0
C820 C 0.93793 0.57616 0.52596 0.0
C821 C 0.92981 0.58524 0.55536 0.0
H822 H 0.90607 0.59556 0.60965 0.0
H823 H 0.85346 0.56409 0.61946 0.0
H824 H 0.90682 0.50431 0.43223 0.0
H825 H 0.94571 0.55115 0.46745 0.0
H826 H 0.96035 0.58948 0.52028 0.0
H827 H 0.94618 0.60529 0.57181 0.0
Mn828 Mn 0.65097 0.59232 0.31561 0.0
Mn829 Mn 0.71584 0.60191 0.3708 0.0
C830 C 0.68787 0.64304 0.33469 0.0
C831 C 0.6275 0.58513 0.26121 0.0
C832 C 0.64775 0.58457 0.38533 0.0
O833 O 0.65741 0.54788 0.31074 0.0
O834 O 0.70449 0.5595 0.34392 0.0
C835 C 0.76457 0.60112 0.33013 0.0
N836 N 0.75395 0.61654 0.35366 0.0
C837 C 0.79982 0.66267 0.36043 0.0
C838 C 0.81109 0.64738 0.33611 0.0
C839 C 0.79341 0.61645 0.32094 0.0
C840 C 0.77089 0.64623 0.36854 0.0
H841 H 0.75101 0.57743 0.31821 0.0
C842 C 0.68243 0.54104 0.32204 0.0
O843 O 0.61027 0.57793 0.28275 0.0
O844 O 0.65795 0.59515 0.27099 0.0
N845 N 0.72941 0.64293 0.39714 0.0
C846 C 0.7153 0.65444 0.42014 0.0
C847 C 0.73031 0.68488 0.43801 0.0
C848 C 0.75979 0.7031 0.43222 0.0
C849 C 0.77407 0.69064 0.40869 0.0
C850 C 0.7581 0.66005 0.39181 0.0
H851 H 0.69285 0.64048 0.42499 0.0
O852 O 0.65856 0.63999 0.32277 0.0
O853 O 0.6933 0.61649 0.33737 0.0
O854 O 0.63407 0.58723 0.35835 0.0
O855 O 0.67761 0.58761 0.39136 0.0
C856 C 0.80332 0.70755 0.40106 0.0
C857 C 0.81608 0.69365 0.37681 0.0
H858 H 0.83327 0.65916 0.32888 0.0
H859 H 0.80194 0.60449 0.30213 0.0
H860 H 0.71918 0.69429 0.45619 0.0
H861 H 0.77119 0.72667 0.4459 0.0
H862 H 0.81604 0.73138 0.41349 0.0
H863 H 0.83844 0.70699 0.37096 0.0
Dy864 Dy 0.09902 0.09369 0.07982 0.0
Dy865 Dy 0.03356 0.04978 0.0419 0.0
C866 C 0.08942 0.0708 1.0037 0.0
O867 O 0.07668 0.13297 0.07084 0.0
O868 O 0.03343 0.10112 0.03545 0.0
O869 O 0.14214 0.13299 0.08399 0.0
O870 O 0.13883 0.10141 0.11746 0.0
O871 O 1.02408 0.05587 0.09246 0.0
O872 O 0.0701 0.09316 0.1189 0.0
O873 O 0.05316 1.01044 0.0567 0.0
O874 O 0.10266 0.04225 0.08092 0.0
O875 O 0.98801 1.01377 0.03705 0.0
O876 O 0.99925 0.03865 0.99885 0.0
C877 C 0.05194 0.13029 0.04892 0.0
O878 O 0.10168 0.09399 0.0279 0.0
O879 O 0.06641 0.04603 1.0068 0.0
C880 C 0.18223 0.1089 0.0918 0.0
C881 C 0.21346 0.06555 0.07089 0.0
C882 C 0.18875 0.07022 0.05073 0.0
C883 C 0.17431 0.09249 0.06065 0.0
C884 C 0.20779 0.10535 0.11196 0.0
C885 C 0.22405 0.0843 0.10118 0.0
C886 C 0.15792 0.12125 0.10394 0.0
C887 C 0.04149 0.07397 0.11885 0.0
C888 C 0.08161 1.01324 0.07264 0.0
C889 C 0.95106 0.03614 0.01485 0.0
C890 C 0.90973 0.07303 0.01926 0.0
C891 C 0.93585 0.07841 0.04311 0.0
C892 C 0.9562 0.06015 0.04097 0.0
C893 C 0.92461 0.03005 0.99098 0.0
C894 C 0.90365 0.04833 0.99337 0.0
C895 C 0.97666 0.02202 1.01154 0.0
H896 H 0.18011 0.05611 0.02732 0.0
H897 H 0.15509 0.09481 0.04441 0.0
H898 H 0.21392 0.11734 0.13627 0.0
H899 H 0.24342 0.08117 0.11696 0.0
H900 H 0.94061 0.09703 0.06345 0.0
H901 H 0.97682 0.06572 0.05929 0.0
H902 H 0.92072 1.01197 0.97038 0.0
H903 H 0.88325 0.04375 0.97493 0.0
Dy904 Dy 0.33892 0.80642 0.28218 0.0
Dy905 Dy 0.29825 0.82754 0.33323 0.0
C906 C 0.35151 0.87846 0.31016 0.0
O907 O 0.36327 0.79549 0.32681 0.0
O908 O 0.33944 0.8177 0.3634 0.0
O909 O 0.38335 0.8047 0.2676 0.0
O910 O 0.33898 0.7827 0.23552 0.0
O911 O 0.27982 0.77517 0.32569 0.0
O912 O 0.29833 0.76336 0.27998 0.0
O913 O 0.26731 0.82514 0.28693 0.0
O914 O 0.30569 0.82921 0.25554 0.0
O915 O 0.25574 0.82412 0.35381 0.0
O916 O 0.29918 0.8624 0.37261 0.0
C917 C 0.36168 0.8045 0.35668 0.0
O918 O 0.36489 0.85678 0.3021 0.0
O919 O 0.32277 0.87144 0.31675 0.0
C920 C 0.38029 0.81478 0.21594 0.0
C921 C 0.37648 0.85588 0.17371 0.0
C922 C 0.38938 0.86831 0.20538 0.0
C923 C 0.39138 0.84785 0.22645 0.0
C924 C 0.37078 0.80269 0.18364 0.0
C925 C 0.36882 0.82323 0.16254 0.0
C926 C 0.36985 0.79401 0.23837 0.0
C927 C 0.27995 0.75544 0.30068 0.0
C928 C 0.27687 0.83007 0.26006 0.0
C929 C 0.27173 0.83667 0.40888 0.0
C930 C 0.28319 0.80421 0.45734 0.0
C931 C 0.25408 0.7931 0.43652 0.0
C932 C 0.24817 0.80949 0.41258 0.0
C933 C 0.29918 0.84977 0.43228 0.0
C934 C 0.3049 0.83352 0.45644 0.0
C935 C 0.27142 0.8463 0.37785 0.0
H936 H 0.39544 0.89354 0.21414 0.0
H937 H 0.39865 0.85787 0.25128 0.0
H938 H 0.36183 0.77732 0.17517 0.0
H939 H 0.35887 0.8135 0.13799 0.0
H940 H 0.23675 0.77088 0.43778 0.0
H941 H 0.22645 0.7994 0.3954 0.0
H942 H 0.31753 0.87108 0.43047 0.0
H943 H 0.32712 0.84262 0.47303 0.0
Dy944 Dy 0.53487 0.07472 0.57736 0.0
Dy945 Dy 0.60036 0.07976 0.54573 0.0
C946 C 0.53704 0.08538 0.50878 0.0
O947 O 0.52919 0.02287 0.55443 0.0
O948 O 0.58114 0.02782 0.54958 0.0
O949 O 0.48321 0.06025 0.56718 0.0
O950 O 0.50832 0.08538 0.61364 0.0
O951 O 0.61384 0.07567 0.59493 0.0
O952 O 0.56755 0.06618 0.61633 0.0
O953 O 0.60242 0.13258 0.5592 0.0
O954 O 0.56153 0.12767 0.58794 0.0
O955 O 0.65192 0.09472 0.5488 0.0
O956 O 0.62183 0.06443 0.50685 0.0
C957 C 0.55159 1.00958 0.54778 0.0
O958 O 0.5331 0.09811 0.53594 0.0
O959 O 0.55927 0.07151 0.50674 0.0
C960 C 0.46407 0.10065 0.59104 0.0
C961 C 0.43224 0.14633 0.58078 0.0
C962 C 0.4171 0.11396 0.56891 0.0
C963 C 0.43281 0.09136 0.57402 0.0
C964 C 0.47908 0.13315 0.60327 0.0
C965 C 0.46321 0.1557 0.59837 0.0
C966 C 0.4814 0.07666 0.59376 0.0
C967 C 0.59809 0.06909 0.61784 0.0
C968 C 0.58566 0.14592 0.57723 0.0
C969 C 0.668 0.05122 0.52694 0.0
C970 C 0.70103 1.00645 0.5376 0.0
C971 C 0.66776 0.99802 0.53531 0.0
C972 C 0.65151 0.02014 0.53011 0.0
C973 C 0.70134 0.05964 0.52919 0.0
C974 C 0.71771 0.03747 0.53448 0.0
C975 C 0.65062 0.07506 0.52328 0.0
H976 H 0.39317 0.1062 0.55535 0.0
H977 H 0.42073 0.06662 0.56415 0.0
H978 H 0.50327 0.14128 0.61625 0.0
H979 H 0.47516 0.18049 0.60812 0.0
H980 H 0.65438 0.97436 0.53779 0.0
H981 H 0.62603 1.01292 0.52894 0.0
H982 H 0.71475 0.08346 0.52721 0.0
H983 H 0.74343 0.04456 0.53632 0.0
Dy984 Dy 0.3462 0.30233 0.80366 0.0
Dy985 Dy 0.28849 0.33582 0.80506 0.0
C986 C 0.35896 0.37703 0.79709 0.0
O987 O 0.3418 0.312 0.85595 0.0
O988 O 0.31331 0.34799 0.85514 0.0
O989 O 0.39459 0.30248 0.81948 0.0
O990 O 0.36364 0.26472 0.78307 0.0
O991 O 0.27613 0.29163 0.82591 0.0
O992 O 0.29917 0.26331 0.79535 0.0
O993 O 0.28562 0.3162 0.7531 0.0
O994 O 0.33481 0.30841 0.75399 0.0
O995 O 0.23732 0.32735 0.7941 0.0
O996 O 0.268 0.37305 0.81919 0.0
C997 C 0.32981 0.33291 0.87075 0.0
O998 O 0.36919 0.35244 0.79956 0.0
O999 O 0.32897 0.37595 0.79748 0.0
C1000 C 0.417 0.28653 0.77535 0.0
C1001 C 0.4609 0.29931 0.73276 0.0
C1002 C 0.44968 0.32337 0.74688 0.0
C1003 C 0.42791 0.31704 0.76779 0.0
C1004 C 0.42808 0.26243 0.7611 0.0
C1005 C 0.44978 0.26874 0.74005 0.0
C1006 C 0.39304 0.27951 0.79672 0.0
C1007 C 0.27697 0.26401 0.81252 0.0
C1008 C 0.308 0.30951 0.73835 0.0
C1009 C 0.22011 0.35052 0.8383 0.0
C1010 C 0.18452 0.3403 0.88783 0.0
C1011 C 0.21771 0.3547 0.89448 0.0
C1012 C 0.23534 0.35964 0.87004 0.0
C1013 C 0.18689 0.33619 0.8317 0.0
C1014 C 0.16929 0.33109 0.8562 0.0
C1015 C 0.23891 0.35373 0.81221 0.0
H1016 H 0.45786 0.34712 0.74176 0.0
H1017 H 0.41956 0.33607 0.778 0.0
H1018 H 0.41987 0.23867 0.76618 0.0
H1019 H 0.45804 0.24977 0.72953 0.0
H1020 H 0.22991 0.36227 0.91863 0.0
H1021 H 0.26096 0.37035 0.87607 0.0
H1022 H 0.17459 0.32855 0.80755 0.0
H1023 H 0.14371 0.31988 0.85047 0.0
Dy1024 Dy 0.08655 0.03928 0.55808 0.0
Dy1025 Dy 0.05671 0.10088 0.56394 0.0
C1026 C 1.0136 0.03158 0.57165 0.0
O1027 O 0.07168 0.04436 0.50695 0.0
O1028 O 0.04059 0.07762 0.51345 0.0
O1029 O 0.0779 0.98907 0.54183 0.0
O1030 O 0.12209 0.0167 0.57252 0.0
O1031 O 0.10489 0.11805 0.54959 0.0
O1032 O 0.12838 0.07809 0.551 0.0
O1033 O 0.06965 0.09641 0.61487 0.0
O1034 O 0.0968 0.05926 0.60981 0.0
O1035 O 0.066 0.151 0.58108 0.0
O1036 O 1.02164 0.12431 0.55052 0.0
C1037 C 0.05202 0.05926 0.49514 0.0
O1038 O 0.03841 0.02123 0.57075 0.0
O1039 O 1.01471 0.06094 0.56916 0.0
C1040 C 0.09649 0.96633 0.58427 0.0
C1041 C 0.08622 0.92728 0.63089 0.0
C1042 C 0.06179 0.93845 0.61766 0.0
C1043 C 0.06688 0.95782 0.59473 0.0
C1044 C 0.12095 0.9553 0.59765 0.0
C1045 C 0.1159 0.93601 0.6207 0.0
C1046 C 0.10265 0.98831 0.56119 0.0
C1047 C 0.1293 0.10709 0.54734 0.0
C1048 C 0.08645 0.07939 0.62721 0.0
C1049 C 0.04714 0.17512 0.5406 0.0
C1050 C 0.05633 0.21451 0.49451 0.0
C1051 C 0.07601 0.1953 0.49983 0.0
C1052 C 0.07187 0.17637 0.52303 0.0
C1053 C 0.02735 0.1942 0.53535 0.0
C1054 C 0.03215 0.21403 0.51278 0.0
C1055 C 0.04098 0.15246 0.56273 0.0
H1056 H 0.03869 0.93204 0.62499 0.0
H1057 H 0.0476 0.96621 0.58529 0.0
H1058 H 0.14409 0.96176 0.59041 0.0
H1059 H 0.13511 0.9277 0.63047 0.0
H1060 H 0.09484 0.19519 0.4862 0.0
H1061 H 0.08782 0.16236 0.52694 0.0
H1062 H 1.00808 0.19362 0.54853 0.0
H1063 H 1.01672 0.22871 0.50925 0.0
Dy1064 Dy 0.31524 0.85175 0.78104 0.0
Dy1065 Dy 0.30678 0.7822 0.81461 0.0
C1066 C 0.29767 0.84172 0.8525 0.0
O1067 O 0.36676 0.85225 0.8022 0.0
O1068 O 0.36068 0.80662 0.82464 0.0
O1069 O 0.3334 0.90276 0.79465 0.0
O1070 O 0.30124 0.88178 0.75047 0.0
O1071 O 0.31548 0.80076 0.77327 0.0
O1072 O 0.32514 0.82548 0.73671 0.0
O1073 O 0.25495 0.78546 0.80403 0.0
O1074 O 0.26207 0.82072 0.76895 0.0
O1075 O 0.29749 0.73374 0.79183 0.0
O1076 O 0.31275 0.74707 0.84267 0.0
C1077 C 0.37912 0.83309 0.81766 0.0
O1078 O 0.29444 0.85204 0.82559 0.0
O1079 O 0.3062 0.81624 0.85587 0.0
C1080 C 0.29352 0.92642 0.78029 0.0
C1081 C 0.2509 0.96046 0.79608 0.0
C1082 C 0.25344 0.93508 0.81101 0.0
C1083 C 0.27484 0.91862 0.80353 0.0
C1084 C 0.29091 0.9516 0.76509 0.0
C1085 C 0.26996 0.96867 0.77311 0.0
C1086 C 0.31473 0.90757 0.77137 0.0
C1087 C 0.32209 0.7985 0.74536 0.0
C1088 C 0.24264 0.80112 0.78388 0.0
C1089 C 0.33521 0.71126 0.81543 0.0
C1090 C 0.38564 0.68414 0.81203 0.0
C1091 C 0.38452 0.70959 0.79657 0.0
C1092 C 0.3595 0.72299 0.79822 0.0
C1093 C 0.33666 0.68618 0.83125 0.0
C1094 C 0.36161 0.67272 0.82953 0.0
C1095 C 0.30892 0.72559 0.8176 0.0
H1096 H 0.23926 0.92837 0.82893 0.0
H1097 H 0.27645 0.89948 0.81572 0.0
H1098 H 0.30506 0.95805 0.74708 0.0
H1099 H 0.26858 0.98828 0.76138 0.0
H1100 H 0.40271 0.71873 0.78286 0.0
H1101 H 0.359 0.7424 0.7859 0.0
H1102 H 0.3184 0.67687 0.84481 0.0
H1103 H 0.36195 0.65306 0.84155 0.0
Dy1104 Dy 0.53963 0.08604 0.02966 0.0
Dy1105 Dy 0.55875 0.04537 0.08003 0.0
C1106 C 0.56282 0.02403 1.00594 0.0
O1107 O 0.49413 0.05685 0.04007 0.0
O1108 O 0.51251 1.01616 0.05105 0.0
O1109 O 0.51523 0.08944 0.98473 0.0
O1110 O 0.54093 0.13195 0.01853 0.0
O1111 O 0.54136 0.08158 0.11031 0.0
O1112 O 0.54031 0.11638 0.0763 0.0
O1113 O 0.59707 0.09123 0.089 0.0
O1114 O 0.59268 0.0978 0.03801 0.0
O1115 O 0.54334 1.01112 0.10952 0.0
O1116 O 0.59356 0.0289 0.10665 0.0
C1117 C 0.48905 0.0271 0.04257 0.0
O1118 O 0.54541 0.0427 0.99871 0.0
O1119 O 0.57493 0.02577 0.03581 0.0
C1120 C 0.54539 0.13224 0.96556 0.0
C1121 C 0.58118 0.1372 0.91726 0.0
C1122 C 0.59664 0.14522 0.94858 0.0
C1123 C 0.57887 0.14254 0.97263 0.0
C1124 C 0.52999 0.12778 0.93434 0.0
C1125 C 0.54796 0.13056 0.91011 0.0
C1126 C 0.52721 0.12021 0.98942 0.0
C1127 C 0.53891 0.10943 0.10475 0.0
C1128 C 0.6097 0.10308 0.06616 0.0
C1129 C 0.57871 0.02474 0.15615 0.0
C1130 C 0.56103 0.04712 0.21168 0.0
C1131 C 0.57853 0.06875 0.1952 0.0
C1132 C 0.58756 0.05756 0.1675 0.0
C1133 C 0.56531 1.00333 0.17506 0.0
C1134 C 0.55647 1.01455 0.20292 0.0
C1135 C 0.57254 1.01401 0.12221 0.0
H1136 H 0.62239 0.15137 0.95427 0.0
H1137 H 0.59137 0.14612 0.99647 0.0
H1138 H 0.50417 0.11977 0.92855 0.0
H1139 H 0.53591 0.12478 0.88586 0.0
H1140 H 0.58211 0.09394 0.20186 0.0
H1141 H 0.59765 0.07447 0.15304 0.0
H1142 H 0.55803 0.978 0.16643 0.0
H1143 H 0.54296 0.99772 0.21568 0.0
Dy1144 Dy 0.29035 0.29082 0.28655 0.0
Dy1145 Dy 0.3325 0.35765 0.32158 0.0
C1146 C 0.31451 0.30291 0.36212 0.0
O1147 O 0.25022 0.31387 0.29334 0.0
O1148 O 0.28117 0.35734 0.32898 0.0
O1149 O 0.25449 0.24636 0.28687 0.0
O1150 O 0.2808 0.2507 0.24865 0.0
O1151 O 0.31682 0.36715 0.27301 0.0
O1152 O 0.29818 0.31671 0.24532 0.0
O1153 O 0.37083 0.33913 0.30035 0.0
O1154 O 0.34198 0.28702 0.28834 0.0
O1155 O 0.36826 0.40292 0.32463 0.0
O1156 O 0.34388 0.39322 0.36377 0.0
C1157 C 0.2522 0.33906 0.31471 0.0
O1158 O 0.29082 0.28945 0.33865 0.0
O1159 O 0.33822 0.32663 0.35798 0.0
C1160 C 0.28226 0.20993 0.27626 0.0
C1161 C 0.32397 0.17624 0.29535 0.0
C1162 C 0.32677 0.20596 0.3124 0.0
C1163 C 0.30585 0.22226 0.30329 0.0
C1164 C 0.27918 0.18009 0.25892 0.0
C1165 C 0.29978 0.16303 0.26872 0.0
C1166 C 0.26525 0.23136 0.26513 0.0
C1167 C 0.30868 0.34751 0.24581 0.0
C1168 C 0.36953 0.30934 0.28982 0.0
C1169 C 0.34621 0.44102 0.34716 0.0
C1170 C 0.30523 0.47876 0.34347 0.0
C1171 C 0.30698 0.45864 0.31664 0.0
C1172 C 0.32746 0.44025 0.31837 0.0
C1173 C 0.34564 0.46223 0.37387 0.0
C1174 C 0.32558 0.48148 0.37191 0.0
C1175 C 0.36013 0.41508 0.3501 0.0
H1176 H 0.34525 0.21659 0.33288 0.0
H1177 H 0.30911 0.24527 0.31691 0.0
H1178 H 0.26155 0.17042 0.23768 0.0
H1179 H 0.29739 0.14 0.25525 0.0
H1180 H 0.29189 0.45666 0.29437 0.0
H1181 H 0.3273 0.42424 0.29736 0.0
H1182 H 0.35956 0.46285 0.39639 0.0
H1183 H 0.32493 0.49745 0.39271 0.0
Dy1184 Dy 0.58963 0.54009 0.05902 0.0
Dy1185 Dy 0.55688 0.59817 0.06102 0.0
C1186 C 0.51507 0.52774 0.06801 0.0
O1187 O 0.57766 0.54436 1.00712 0.0
O1188 O 0.54486 0.57636 1.00991 0.0
O1189 O 0.58863 0.49235 0.04019 0.0
O1190 O 0.62694 0.52116 0.07738 0.0
O1191 O 0.60078 0.61095 0.03886 0.0
O1192 O 0.62949 0.58643 0.06673 0.0
O1193 O 0.57711 0.59947 0.11219 0.0
O1194 O 0.58564 0.55083 0.10956 0.0
O1195 O 0.56611 0.64868 0.07556 0.0
O1196 O 0.51972 0.61973 0.0503 0.0
C1197 C 0.55798 0.55818 0.99339 0.0
O1198 O 0.54024 0.51794 0.06706 0.0
O1199 O 0.5159 0.55719 0.06624 0.0
C1200 C 0.60357 0.46746 0.08242 0.0
C1201 C 0.58886 0.42186 0.1225 0.0
C1202 C 0.56441 0.4284 0.10328 0.0
C1203 C 0.57163 0.45097 0.0836 0.0
C1204 C 0.62802 0.46104 0.10183 0.0
C1205 C 0.62076 0.43857 0.12171 0.0
C1206 C 0.61136 0.49246 0.0625 0.0
C1207 C 0.62868 0.60926 0.05077 0.0
C1208 C 0.58433 0.57711 0.12598 0.0
C1209 C 0.54169 0.66908 0.03562 0.0
C1210 C 0.54914 0.70865 0.98995 0.0
C1211 C 0.55479 0.67919 0.98453 0.0
C1212 C 0.55111 0.65962 1.00718 0.0
C1213 C 0.53584 0.69846 0.04106 0.0
C1214 C 0.53948 0.71812 0.01832 0.0
C1215 C 0.53906 0.64847 0.05961 0.0
H1216 H 0.53965 0.41593 0.10346 0.0
H1217 H 0.5521 0.45558 0.06941 0.0
H1218 H 0.65279 0.47356 0.10176 0.0
H1219 H 0.64006 0.43403 0.13633 0.0
H1220 H 0.56231 0.67156 0.96289 0.0
H1221 H 0.55587 0.63713 1.00268 0.0
H1222 H 0.52867 0.70625 0.06288 0.0
H1223 H 0.53498 0.74079 0.02289 0.0
Dy1224 Dy 0.82208 0.35742 0.2876 0.0
Dy1225 Dy 0.81608 0.29496 0.32198 0.0
C1226 C 0.80537 0.35825 0.35629 0.0
O1227 O 0.87379 0.36377 0.31158 0.0
O1228 O 0.86847 0.31266 0.31805 0.0
O1229 O 0.8375 0.40866 0.29302 0.0
O1230 O 0.81129 0.37991 0.24837 0.0
O1231 O 0.80857 0.27784 0.27047 0.0
O1232 O 0.83051 0.32283 0.25077 0.0
O1233 O 0.76362 0.29422 0.31166 0.0
O1234 O 0.76851 0.33019 0.27768 0.0
O1235 O 0.8006 0.24396 0.32018 0.0
O1236 O 0.83254 0.27479 0.36093 0.0
C1237 C 0.88695 0.3416 0.3186 0.0
O1238 O 0.80002 0.36594 0.32887 0.0
O1239 O 0.81622 0.33426 0.36036 0.0
C1240 C 0.79574 0.42461 0.26804 0.0
C1241 C 0.7497 0.45563 0.2799 0.0
C1242 C 0.74037 0.42265 0.27002 0.0
C1243 C 0.76316 0.40727 0.26423 0.0
C1244 C 0.80488 0.45772 0.27719 0.0
C1245 C 0.78204 0.4731 0.28301 0.0
C1246 C 0.82033 0.408 0.26612 0.0
C1247 C 0.81942 0.29196 0.24784 0.0
C1248 C 0.75035 0.30869 0.2914 0.0
C1249 C 0.84397 0.2274 0.34153 0.0
C1250 C 0.88704 0.19193 0.33157 0.0
C1251 C 0.85452 0.17654 0.33089 0.0
C1252 C 0.83321 0.19409 0.33579 0.0
C1253 C 0.87661 0.24278 0.34209 0.0
C1254 C 0.89791 0.22523 0.33722 0.0
C1255 C 0.82093 0.24581 0.34529 0.0
H1256 H 0.71556 0.40879 0.26745 0.0
H1257 H 0.75534 0.38169 0.25757 0.0
H1258 H 0.8298 0.47157 0.2807 0.0
H1259 H 0.78969 0.49859 0.29066 0.0
H1260 H 0.84566 0.15087 0.32668 0.0
H1261 H 0.80824 0.18161 0.33497 0.0
H1262 H 0.88574 0.26841 0.34622 0.0
H1263 H 0.92289 0.23761 0.33796 0.0
Dy1264 Dy 0.04096 0.58303 0.52681 0.0
Dy1265 Dy 0.06257 0.54518 0.57794 0.0
C1266 C 0.06741 0.52331 0.50449 0.0
O1267 O 0.99811 0.5549 0.54348 0.0
O1268 O 1.01707 0.51375 0.54893 0.0
O1269 O 1.00612 0.5814 0.48705 0.0
O1270 O 0.04389 0.62514 0.50658 0.0
O1271 O 0.04238 0.58056 0.60585 0.0
O1272 O 0.04361 0.61585 0.57197 0.0
O1273 O 0.10012 0.59142 0.58523 0.0
O1274 O 0.09438 0.5976 0.53405 0.0
O1275 O 0.09871 0.5311 0.60543 0.0
O1276 O 0.04893 0.51312 0.61 0.0
C1277 C 0.99306 0.52463 0.54309 0.0
O1278 O 0.04872 0.54057 0.49683 0.0
O1279 O 0.0796 0.52559 0.53442 0.0
C1280 C 0.03098 0.60947 0.45146 0.0
C1281 C 0.04947 0.59216 0.39442 0.0
C1282 C 0.0726 0.60862 0.42074 0.0
C1283 C 0.06348 0.61725 0.44908 0.0
C1284 C 1.00775 0.59498 0.42444 0.0
C1285 C 1.01699 0.58631 0.39587 0.0
C1286 C 1.02172 0.60944 0.48255 0.0
C1287 C 0.04059 0.60851 0.59997 0.0
C1288 C 0.11187 0.60359 0.5621 0.0
C1289 C 0.08562 0.53083 0.65617 0.0
C1290 C 0.07458 0.56078 0.71224 0.0
C1291 C 0.09366 0.57881 0.69392 0.0
C1292 C 0.09908 0.56387 0.66584 0.0
C1293 C 0.07028 0.51259 0.67669 0.0
C1294 C 0.0647 0.52757 0.70467 0.0
C1295 C 0.07855 0.51756 0.62255 0.0
H1296 H 0.0978 0.6135 0.41967 0.0
H1297 H 0.08197 0.62806 0.46951 0.0
H1298 H 0.98258 0.58846 0.42598 0.0
H1299 H 0.99903 0.57388 0.37545 0.0
H1300 H 0.10149 0.60448 0.69968 0.0
H1301 H 0.11073 0.5785 0.65022 0.0
H1302 H 0.05949 0.48719 0.66947 0.0
H1303 H 0.05009 0.51344 0.71887 0.0
Dy1304 Dy 0.85381 0.80064 0.31188 0.0
Dy1305 Dy 0.79159 0.82984 0.30762 0.0
C1306 C 0.86019 0.87301 0.29814 0.0
O1307 O 0.84578 0.81195 0.36278 0.0
O1308 O 0.81968 0.84882 0.35606 0.0
O1309 O 0.90437 0.80938 0.32813 0.0
O1310 O 0.87704 0.76591 0.29661 0.0
O1311 O 0.77537 0.78284 0.3231 0.0
O1312 O 0.81387 0.75828 0.31551 0.0
O1313 O 0.79312 0.81449 0.2561 0.0
O1314 O 0.83535 0.79354 0.26007 0.0
O1315 O 0.74049 0.82051 0.29472 0.0
O1316 O 0.76927 0.86519 0.32329 0.0
C1317 C 0.83365 0.83412 0.37464 0.0
O1318 O 0.87202 0.84991 0.303 0.0
O1319 O 0.8297 0.87035 0.29728 0.0
C1320 C 0.92764 0.79221 0.28542 0.0
C1321 C 0.96767 0.80453 0.23947 0.0
C1322 C 0.94261 0.81789 0.24102 0.0
C1323 C 0.92287 0.81181 0.2637 0.0
C1324 C 0.95274 0.77885 0.28397 0.0
C1325 C 0.97261 0.78498 0.26121 0.0
C1326 C 0.90555 0.78506 0.30844 0.0
C1327 C 0.78545 0.7578 0.32174 0.0
C1328 C 0.81248 0.80075 0.24318 0.0
C1329 C 0.7194 0.84129 0.33806 0.0
C1330 C 0.67633 0.83396 0.38259 0.0
C1331 C 0.68079 0.80744 0.36388 0.0
C1332 C 0.70101 0.81104 0.34135 0.0
C1333 C 0.71934 0.8673 0.36001 0.0
C1334 C 0.69929 0.86349 0.38267 0.0
C1335 C 0.74055 0.84575 0.3138 0.0
H1336 H 0.93821 0.83293 0.22451 0.0
H1337 H 0.90363 0.82226 0.26413 0.0
H1338 H 0.95684 0.76351 0.30026 0.0
H1339 H 0.99173 0.77434 0.26043 0.0
H1340 H 0.66899 0.78344 0.36642 0.0
H1341 H 0.70238 0.78996 0.32675 0.0
H1342 H 0.73526 0.8907 0.36003 0.0
H1343 H 0.7029 0.88405 0.40038 0.0
Dy1344 Dy 0.8576 0.32815 0.78118 0.0
Dy1345 Dy 0.81675 0.34521 0.83439 0.0
C1346 C 0.87521 0.39642 0.81929 0.0
O1347 O 0.88516 0.31926 0.82481 0.0
O1348 O 0.85577 0.33039 0.86181 0.0
O1349 O 0.88765 0.34235 0.74738 0.0
O1350 O 0.87364 0.29322 0.75398 0.0
O1351 O 0.80582 0.29294 0.82663 0.0
O1352 O 0.8139 0.28706 0.77577 0.0
O1353 O 0.78402 0.3411 0.78897 0.0
O1354 O 0.82054 0.34752 0.75545 0.0
O1355 O 0.77264 0.33975 0.85249 0.0
O1356 O 0.81595 0.37567 0.87702 0.0
C1357 C 0.8803 0.32153 0.85424 0.0
O1358 O 0.88727 0.37407 0.81 0.0
O1359 O 0.84513 0.39008 0.82178 0.0
C1360 C 0.8727 0.30405 0.7024 0.0
C1361 C 0.84077 0.31166 0.64609 0.0
C1362 C 0.8741 0.32406 0.6536 0.0
C1363 C 0.89009 0.32011 0.68168 0.0
C1364 C 0.83997 0.28778 0.69262 0.0
C1365 C 0.82405 0.29137 0.66429 0.0
C1366 C 0.88568 0.31311 0.73603 0.0
C1367 C 0.80128 0.27555 0.79884 0.0
C1368 C 0.79166 0.3465 0.76152 0.0
C1369 C 0.78478 0.34333 0.90643 0.0
C1370 C 0.77496 0.29742 0.94517 0.0
C1371 C 0.80296 0.30568 0.93234 0.0
C1372 C 0.80831 0.3292 0.91452 0.0
C1373 C 0.75716 0.33654 0.92015 0.0
C1374 C 0.75285 0.31444 0.94058 0.0
C1375 C 0.7871 0.35882 0.87892 0.0
H1376 H 0.88728 0.3395 0.63944 0.0
H1377 H 0.91526 0.33289 0.68892 0.0
H1378 H 0.826 0.27538 0.70835 0.0
H1379 H 0.79831 0.28149 0.65849 0.0
H1380 H 0.82076 0.29344 0.93556 0.0
H1381 H 0.83015 0.33467 0.90531 0.0
H1382 H 0.73862 0.34727 0.91417 0.0
H1383 H 0.73161 0.30939 0.95128 0.0
Dy1384 Dy 0.79087 0.79449 0.79155 0.0
Dy1385 Dy 0.8321 0.86134 0.82705 0.0
C1386 C 0.81554 0.80612 0.86735 0.0
O1387 O 0.74882 0.81392 0.80059 0.0
O1388 O 0.77941 0.86084 0.83117 0.0
O1389 O 0.75681 0.74869 0.79101 0.0
O1390 O 0.78308 0.75553 0.75289 0.0
O1391 O 0.827 0.86819 0.7759 0.0
O1392 O 0.78958 0.82166 0.7513 0.0
O1393 O 0.87371 0.844 0.81206 0.0
O1394 O 0.84356 0.79363 0.78958 0.0
O1395 O 0.8652 0.90823 0.83055 0.0
O1396 O 0.84092 0.89655 0.86922 0.0
C1397 C 0.75038 0.84055 0.81954 0.0
O1398 O 0.79225 0.79193 0.84361 0.0
O1399 O 0.83845 0.83083 0.86372 0.0
C1400 C 0.78627 0.71421 0.7789 0.0
C1401 C 0.83139 0.68338 0.79572 0.0
C1402 C 0.83137 0.71119 0.81468 0.0
C1403 C 0.80902 0.7262 0.80653 0.0
C1404 C 0.78554 0.68594 0.7599 0.0
C1405 C 0.80785 0.67026 0.76856 0.0
C1406 C 0.76816 0.73508 0.76875 0.0
C1407 C 0.80879 0.84983 0.75008 0.0
C1408 C 0.87219 0.81558 0.79673 0.0
C1409 C 0.83897 0.94284 0.8515 0.0
C1410 C 0.79788 0.98022 0.845 0.0
C1411 C 0.79594 0.95523 0.82095 0.0
C1412 C 0.81619 0.9368 0.82415 0.0
C1413 C 0.84155 0.96818 0.87559 0.0
C1414 C 0.82124 0.9871 0.87219 0.0
C1415 C 0.85573 0.91926 0.85565 0.0
H1416 H 0.84896 0.72153 0.83587 0.0
H1417 H 0.8107 0.74821 0.82128 0.0
H1418 H 0.76859 0.67665 0.73816 0.0
H1419 H 0.80742 0.64858 0.75372 0.0
H1420 H 0.77861 0.94996 0.79953 0.0
H1421 H 0.81329 0.91705 0.8055 0.0
H1422 H 0.8586 0.97282 0.89711 0.0
H1423 H 0.82334 1.00666 0.89082 0.0
Dy1424 Dy 0.60458 0.59216 0.57691 0.0
Dy1425 Dy 0.53654 0.5494 0.54205 0.0
C1426 C 0.59226 0.56933 0.5012 0.0
O1427 O 0.58466 0.63191 0.56236 0.0
O1428 O 0.53404 0.60074 0.54111 0.0
O1429 O 0.65378 0.61357 0.5732 0.0
O1430 O 0.63996 0.61511 0.61893 0.0
O1431 O 0.53007 0.55503 0.59317 0.0
O1432 O 0.57667 0.59299 0.61696 0.0
O1433 O 0.55523 0.50959 0.55711 0.0
O1434 O 0.6054 0.54055 0.58043 0.0
O1435 O 0.4918 0.51221 0.53735 0.0
O1436 O 0.49926 0.54181 0.50202 0.0
C1437 C 0.5556 0.62939 0.54759 0.0
O1438 O 0.60732 0.59174 0.5254 0.0
O1439 O 0.56727 0.54633 0.50436 0.0
C1440 C 0.68521 0.59855 0.611 0.0
C1441 C 0.71244 0.54959 0.59842 0.0
C1442 C 0.72737 0.57997 0.59261 0.0
C1443 C 0.71373 0.60434 0.59877 0.0
C1444 C 0.67299 0.56939 0.62084 0.0
C1445 C 0.68625 0.54488 0.61415 0.0
C1446 C 0.66348 0.61709 0.60328 0.0
C1447 C 0.54857 0.5737 0.61859 0.0
C1448 C 0.58358 0.51206 0.57306 0.0
C1449 C 0.4525 0.53597 0.52266 0.0
C1450 C 0.41471 0.57518 0.53687 0.0
C1451 C 0.43607 0.57036 0.56079 0.0
C1452 C 0.45447 0.55066 0.55384 0.0
C1453 C 0.43034 0.53991 0.49875 0.0
C1454 C 0.41122 0.55921 0.50589 0.0
C1455 C 0.47829 0.52321 0.51496 0.0
H1456 H 0.74776 0.58395 0.5806 0.0
H1457 H 0.72342 0.62648 0.59077 0.0
H1458 H 0.65113 0.5643 0.63055 0.0
H1459 H 0.67463 0.52162 0.619 0.0
H1460 H 0.43893 0.5824 0.58481 0.0
H1461 H 0.47148 0.54835 0.57276 0.0
H1462 H 0.42894 0.52937 0.47449 0.0
H1463 H 0.39464 0.56267 0.48719 0.0
Dy1464 Dy 0.03789 0.57289 0.07742 0.0
Dy1465 Dy 0.10213 0.58056 0.04418 0.0
C1466 C 0.03831 0.58865 1.00924 0.0
O1467 O 0.03093 0.52295 0.04947 0.0
O1468 O 0.08362 0.52892 0.04914 0.0
O1469 O 0.98641 0.5552 0.07138 0.0
O1470 O 1.01357 0.58461 0.11542 0.0
O1471 O 0.11787 0.58502 0.09516 0.0
O1472 O 0.07182 0.55918 0.11151 0.0
O1473 O 0.10264 0.63278 0.05641 0.0
O1474 O 0.06384 0.6261 0.08774 0.0
O1475 O 0.15368 0.59497 0.04675 0.0
O1476 O 0.12313 0.56433 1.00531 0.0
C1477 C 0.054 0.51021 0.04459 0.0
O1478 O 0.03184 0.59643 0.03691 0.0
O1479 O 0.06183 0.5768 1.00545 0.0
C1480 C 0.96675 0.59626 0.09289 0.0
C1481 C 0.93381 0.64049 0.0794 0.0
C1482 C 0.92216 0.60873 0.06394 0.0
C1483 C 0.93835 0.58688 0.07066 0.0
C1484 C 0.97812 0.62806 0.10872 0.0
C1485 C 0.96177 0.64985 0.10211 0.0
C1486 C 0.98562 0.57364 0.09708 0.0
C1487 C 0.10315 0.56931 0.11493 0.0
C1488 C 0.08623 0.64517 0.07563 0.0
C1489 C 0.16949 0.55111 0.02486 0.0
C1490 C 0.20249 0.50584 0.0335 0.0
C1491 C 0.21886 0.53652 0.02916 0.0
C1492 C 0.20251 0.55893 0.02486 0.0
C1493 C 0.15335 0.52041 0.02937 0.0
C1494 C 0.16953 0.49799 0.03339 0.0
C1495 C 0.15207 0.57501 0.02135 0.0
H1496 H 0.90063 0.60091 0.04638 0.0
H1497 H 0.92902 0.56272 0.05787 0.0
H1498 H 0.99999 0.63635 0.12581 0.0
H1499 H 0.9711 0.67414 0.11452 0.0
H1500 H 0.24431 0.5431 0.0291 0.0
H1501 H 0.21569 0.5824 0.0217 0.0
H1502 H 0.12819 0.51365 0.02999 0.0
H1503 H 0.15636 0.47455 0.03666 0.0
C1504 C 1.00909 0.1926 0.0214 0.0
C1505 C 0.03458 0.21788 0.01532 0.0
C1506 C 0.07079 0.18492 0.02885 0.0
C1507 C 0.04586 0.16089 0.03771 0.0
N1508 N 0.99184 0.14668 0.04716 0.0
N1509 N 0.09125 0.23872 0.01799 0.0
C1510 C 1.01515 0.1661 0.03496 0.0
C1511 C 0.06579 0.21407 0.02058 0.0
N1512 N 0.97859 0.19359 0.01388 0.0
N1513 N 0.09921 0.17927 0.02643 0.0
H1514 H 0.08873 0.25947 1.01103 0.0
H1515 H 0.11489 0.23968 0.02509 0.0
H1516 H 0.10386 0.15862 0.03125 0.0
H1517 H 0.11701 0.19343 0.01658 0.0
H1518 H 0.95849 0.17472 0.01404 0.0
H1519 H 0.9734 0.21254 1.00508 0.0
H1520 H 0.97001 0.15053 0.04917 0.0
H1521 H 0.99576 0.12857 0.05837 0.0
C1522 C 0.22843 0.87292 0.21046 0.0
C1523 C 0.20605 0.84724 0.18866 0.0
C1524 C 0.23113 0.81042 0.2128 0.0
C1525 C 0.25388 0.83619 0.23405 0.0
N1526 N 0.27793 0.89255 0.24842 0.0
N1527 N 0.19175 0.79185 0.1648 0.0
C1528 C 0.25363 0.86758 0.23134 0.0
C1529 C 0.20927 0.81615 0.18847 0.0
N1530 N 0.22525 0.90259 0.21178 0.0
N1531 N 0.22966 0.78012 0.21643 0.0
H1532 H 0.17571 0.79449 0.14659 0.0
H1533 H 0.19539 0.76968 0.16133 0.0
H1534 H 0.24585 0.77495 0.23286 0.0
H1535 H 0.21113 0.76022 0.20481 0.0
H1536 H 0.23796 0.92164 0.22955 0.0
H1537 H 0.2086 0.90775 0.19585 0.0
H1538 H 0.28227 0.91565 0.24416 0.0
H1539 H 0.29502 0.88969 0.26556 0.0
C1540 C 0.5599 0.93125 0.50325 0.0
C1541 C 0.5372 0.90591 0.51263 0.0
C1542 C 0.52487 0.94849 0.54852 0.0
C1543 C 0.54428 0.97333 0.53526 0.0
N1544 N 0.57096 0.98412 0.4911 0.0
N1545 N 0.49423 0.89238 0.54206 0.0
C1546 C 0.55916 0.96339 0.51019 0.0
C1547 C 0.51868 0.91513 0.53483 0.0
N1548 N 0.58309 0.92488 0.48797 0.0
N1549 N 0.51298 0.95644 0.57479 0.0
H1550 H 0.48915 0.86836 0.53293 0.0
H1551 H 0.47765 0.89762 0.55516 0.0
H1552 H 0.51708 0.97991 0.58543 0.0
H1553 H 0.5015 0.93978 0.58747 0.0
H1554 H 0.60182 0.9427 0.48301 0.0
H1555 H 0.58573 0.90228 0.48385 0.0
H1556 H 0.5796 0.97733 0.47092 0.0
H1557 H 0.56846 1.00681 0.49315 0.0
C1558 C 0.50091 0.32388 0.66257 0.0
C1559 C 0.53127 0.3191 0.67026 0.0
C1560 C 0.51664 0.30567 0.72083 0.0
C1561 C 0.48509 0.30637 0.71119 0.0
N1562 N 0.44565 0.31103 0.67016 0.0
N1563 N 0.56484 0.29865 0.70501 0.0
C1564 C 0.47679 0.31401 0.68125 0.0
C1565 C 0.53831 0.30822 0.69897 0.0
N1566 N 0.49548 0.33937 0.63842 0.0
N1567 N 0.52642 0.30353 0.7513 0.0
H1568 H 0.58133 0.29909 0.68995 0.0
H1569 H 0.56885 0.28707 0.72366 0.0
H1570 H 0.51152 0.30193 0.76815 0.0
H1571 H 0.55014 0.30658 0.76063 0.0
H1572 H 0.47504 0.34632 0.63382 0.0
H1573 H 0.51277 0.34845 0.62513 0.0
H1574 H 0.43759 0.31291 0.64717 0.0
H1575 H 0.42736 0.30377 0.68298 0.0
C1576 C 0.0787 0.85379 0.66929 0.0
C1577 C 0.06914 0.86287 0.69844 0.0
C1578 C 0.07513 0.91598 0.6849 0.0
C1579 C 0.08031 0.90526 0.65431 0.0
N1580 N 0.07978 0.86124 0.61532 0.0
N1581 N 0.05201 0.90158 0.73042 0.0
C1582 C 0.07991 0.87336 0.64592 0.0
C1583 C 0.06574 0.89377 0.70535 0.0
N1584 N 0.0884 0.82732 0.6642 0.0
N1585 N 0.08006 0.94757 0.69488 0.0
H1586 H 0.0433 0.88578 0.74509 0.0
H1587 H 0.04612 0.92261 0.7346 0.0
H1588 H 0.08714 0.96449 0.68074 0.0
H1589 H 0.08019 0.95715 0.71811 0.0
H1590 H 0.09872 0.82179 0.64481 0.0
H1591 H 0.08982 0.81283 0.68076 0.0
H1592 H 0.07594 0.83717 0.6073 0.0
H1593 H 0.0802 0.87453 0.59734 0.0
C1594 C 0.46722 0.87225 0.86433 0.0
C1595 C 0.4847 0.85309 0.85017 0.0
C1596 C 0.43369 0.82279 0.81302 0.0
C1597 C 0.41601 0.84121 0.82792 0.0
N1598 N 0.41629 0.88232 0.86968 0.0
N1599 N 0.48276 0.8078 0.81241 0.0
C1600 C 0.43311 0.86581 0.85394 0.0
C1601 C 0.46737 0.82801 0.8246 0.0
N1602 N 0.4837 0.8974 0.88759 0.0
N1603 N 0.41809 0.80003 0.78736 0.0
H1604 H 0.50703 0.81121 0.81937 0.0
H1605 H 0.4715 0.78679 0.79654 0.0
H1606 H 0.39355 0.794 0.7799 0.0
H1607 H 0.42931 0.78823 0.77247 0.0
H1608 H 0.47415 0.91427 0.89781 0.0
H1609 H 0.50825 0.90318 0.89487 0.0
H1610 H 0.42555 0.89834 0.89069 0.0
H1611 H 0.39198 0.87874 0.86254 0.0
C1612 C 0.51365 0.15677 0.17561 0.0
C1613 C 0.53209 0.18869 0.17584 0.0
C1614 C 0.55937 0.1669 0.13518 0.0
C1615 C 0.5377 0.1357 0.13147 0.0
N1616 N 0.49233 0.10193 0.14805 0.0
N1617 N 0.57213 0.22356 0.15308 0.0
C1618 C 0.5146 0.13091 0.15199 0.0
C1619 C 0.5547 0.19346 0.15474 0.0
N1620 N 0.49498 0.151 0.19811 0.0
N1621 N 0.58609 0.17097 0.12159 0.0
H1622 H 0.57136 0.24365 0.16763 0.0
H1623 H 0.58551 0.2289 0.13541 0.0
H1624 H 0.59157 0.15214 0.10913 0.0
H1625 H 0.60479 0.19207 0.12587 0.0
H1626 H 0.48351 0.12835 0.20167 0.0
H1627 H 0.4925 0.16901 0.21459 0.0
H1628 H 0.47198 0.09786 0.15844 0.0
H1629 H 0.49316 0.08234 0.13269 0.0
C1630 C 0.16817 0.33036 0.34323 0.0
C1631 C 0.16398 0.36142 0.3451 0.0
C1632 C 0.21545 0.37655 0.32238 0.0
C1633 C 0.2212 0.34664 0.32424 0.0
N1634 N 0.20366 0.2972 0.34259 0.0
N1635 N 0.18687 0.41481 0.33699 0.0
C1636 C 0.19764 0.32434 0.33639 0.0
C1637 C 0.1886 0.38456 0.33461 0.0
N1638 N 0.14291 0.30533 0.34552 0.0
N1639 N 0.2356 0.39741 0.30824 0.0
H1640 H 0.17061 0.42254 0.34872 0.0
H1641 H 0.20264 0.43311 0.32939 0.0
H1642 H 0.25466 0.39237 0.29915 0.0
H1643 H 0.23242 0.41852 0.30319 0.0
H1644 H 0.14301 0.28184 0.34113 0.0
H1645 H 0.12039 0.30732 0.34763 0.0
H1646 H 0.19 0.28191 0.3552 0.0
H1647 H 0.22405 0.29149 0.33783 0.0
C1648 C 0.03145 0.04873 0.19997 0.0
C1649 C 1.00803 0.0626 0.2096 0.0
C1650 C 1.00419 0.08151 0.15823 0.0
C1651 C 0.02978 0.07031 0.15013 0.0
N1652 N 0.07022 0.04608 0.16557 0.0
N1653 N 0.9754 0.09624 0.19905 0.0
C1654 C 0.04417 0.05493 0.17181 0.0
C1655 C 0.99513 0.07987 0.18885 0.0
N1656 N 0.04024 0.02782 0.2167 0.0
N1657 N 0.98844 0.09383 0.1366 0.0
H1658 H 0.96896 0.09627 0.22125 0.0
H1659 H 0.96771 0.11199 0.18683 0.0
H1660 H 0.99546 0.09704 0.11498 0.0
H1661 H 0.96727 0.09894 0.13915 0.0
H1662 H 0.0542 1.01399 0.20913 0.0
H1663 H 0.03093 0.02172 0.23663 0.0
H1664 H 0.08434 0.03856 0.18197 0.0
H1665 H 0.07915 0.04818 0.14465 0.0
C1666 C 0.28229 0.76118 0.52629 0.0
C1667 C 0.29612 0.73743 0.51508 0.0
C1668 C 0.30914 0.76363 0.47042 0.0
C1669 C 0.29111 0.78409 0.4792 0.0
N1670 N 0.25964 0.80256 0.5142 0.0
N1671 N 0.32347 0.71607 0.47716 0.0
C1672 C 0.27778 0.78318 0.50698 0.0
C1673 C 0.30996 0.73879 0.4874 0.0
N1674 N 0.27342 0.763 0.55532 0.0
N1675 N 0.32568 0.76822 0.44606 0.0
H1676 H 0.32703 0.69914 0.49036 0.0
H1677 H 0.33005 0.71312 0.45509 0.0
H1678 H 0.32482 0.78554 0.43241 0.0
H1679 H 0.34214 0.75653 0.44069 0.0
H1680 H 0.26753 0.78232 0.56618 0.0
H1681 H 0.27387 0.74659 0.56997 0.0
H1682 H 0.24518 0.79982 0.53136 0.0
H1683 H 0.25748 0.82044 0.50172 0.0
C1684 C 0.63069 0.03554 0.68617 0.0
C1685 C 0.66024 0.05968 0.69701 0.0
C1686 C 0.6469 0.09015 0.65822 0.0
C1687 C 0.6174 0.06613 0.64674 0.0
N1688 N 0.58495 1.01208 0.64427 0.0
N1689 N 0.70161 0.10079 0.68263 0.0
C1690 C 0.61028 0.03751 0.65901 0.0
C1691 C 0.67016 0.08391 0.67942 0.0
N1692 N 0.62215 1.01113 0.70228 0.0
N1693 N 0.65235 0.11935 0.64974 0.0
H1694 H 0.71967 0.09447 0.69537 0.0
H1695 H 0.7099 0.1177 0.66884 0.0
H1696 H 0.63513 0.12557 0.63552 0.0
H1697 H 0.67258 0.13835 0.65974 0.0
H1698 H 0.59944 0.99475 0.69806 0.0
H1699 H 0.63798 1.00807 0.72063 0.0
H1700 H 0.5805 0.98972 0.65048 0.0
H1701 H 0.56975 1.01263 0.62418 0.0
C1702 C 0.30668 0.34929 0.95228 0.0
C1703 C 0.33664 0.36709 0.97084 0.0
C1704 C 0.3632 0.35626 0.92558 0.0
C1705 C 0.33319 0.33971 0.90638 0.0
N1706 N 0.27761 0.3122 0.90443 0.0
N1707 N 0.39327 0.37661 0.97851 0.0
C1708 C 0.30528 0.33364 0.92076 0.0
C1709 C 0.36484 0.36709 0.95844 0.0
N1710 N 0.27959 0.34779 0.96468 0.0
N1711 N 0.39008 0.36318 0.91228 0.0
H1712 H 0.39448 0.3835 1.00255 0.0
H1713 H 0.41456 0.37473 0.97191 0.0
H1714 H 0.39004 0.35491 0.8887 0.0
H1715 H 0.41194 0.37866 0.92417 0.0
H1716 H 0.2566 0.33731 0.95206 0.0
H1717 H 0.28021 0.35783 0.98792 0.0
H1718 H 0.25682 0.30475 0.91375 0.0
H1719 H 0.27657 0.29923 0.8824 0.0
C1720 C 1.01946 0.02543 0.40614 0.0
C1721 C 1.01715 0.05304 0.39434 0.0
C1722 C 0.0441 0.08496 0.44658 0.0
C1723 C 0.04234 0.05679 0.45969 0.0
N1724 N 1.02385 0.9996 0.45145 0.0
N1725 N 0.02871 0.10944 0.40274 0.0
C1726 C 0.02926 0.02685 0.43919 0.0
C1727 C 0.03022 0.0829 0.41442 0.0
N1728 N 1.01258 0.99771 0.3854 0.0
N1729 N 0.05978 0.11397 0.46466 0.0
H1730 H 1.02231 0.10888 0.37872 0.0
H1731 H 0.03285 0.13158 0.41658 0.0
H1732 H 0.06957 0.11697 0.48822 0.0
H1733 H 0.06552 0.13502 0.45586 0.0
H1734 H 1.01637 0.97712 0.39148 0.0
H1735 H 1.00611 0.9966 0.36134 0.0
H1736 H 1.01091 0.97734 0.43841 0.0
H1737 H 0.02965 0.99938 0.47534 0.0
C1738 C 0.35673 0.74635 0.69295 0.0
C1739 C 0.32958 0.7195 0.6831 0.0
C1740 C 0.30107 0.74106 0.72019 0.0
C1741 C 0.32628 0.7702 0.72673 0.0
N1742 N 0.37918 0.80061 0.72094 0.0
N1743 N 0.28467 0.68472 0.69899 0.0
C1744 C 0.35483 0.77268 0.7141 0.0
C1745 C 0.30466 0.71458 0.70076 0.0
N1746 N 0.384 0.74621 0.68148 0.0
N1747 N 0.27253 0.7394 0.72981 0.0
H1748 H 0.28856 0.6649 0.6865 0.0
H1749 H 0.26727 0.67932 0.71313 0.0
H1750 H 0.26819 0.75849 0.74309 0.0
H1751 H 0.25229 0.71978 0.72249 0.0
H1752 H 0.40575 0.76394 0.68866 0.0
H1753 H 0.3851 0.72643 0.66633 0.0
H1754 H 0.39924 0.80509 0.71014 0.0
H1755 H 0.37924 0.81993 0.73736 0.0
C1756 C 0.64441 0.1535 0.86614 0.0
C1757 C 0.64952 0.12336 0.86163 0.0
C1758 C 0.60156 0.10088 0.88306 0.0
C1759 C 0.60026 0.13205 0.89292 0.0
N1760 N 0.62056 0.18844 0.89492 0.0
N1761 N 0.63394 0.06818 0.86649 0.0
C1762 C 0.62165 0.15852 0.88463 0.0
C1763 C 0.62814 0.09686 0.86996 0.0
N1764 N 0.66009 0.17677 0.85141 0.0
N1765 N 0.57742 0.07516 0.88612 0.0
H1766 H 0.65329 0.06436 0.85696 0.0
H1767 H 0.621 0.04879 0.87515 0.0
H1768 H 0.55821 0.0769 0.89702 0.0
H1769 H 0.57505 0.05209 0.87548 0.0
H1770 H 0.65514 0.19823 0.85132 0.0
H1771 H 0.67603 0.1732 0.83677 0.0
H1772 H 0.63815 0.20888 0.89297 0.0
H1773 H 0.60277 0.19275 0.90686 0.0
C1774 C 0.29132 0.36253 0.15953 0.0
C1775 C 0.32213 0.38026 0.1549 0.0
C1776 C 0.34273 0.38082 0.211 0.0
C1777 C 0.31266 0.36029 0.2149 0.0
N1778 N 0.25827 0.33094 0.19151 0.0
N1779 N 0.3784 0.40117 0.17536 0.0
C1780 C 0.28706 0.35085 0.18863 0.0
C1781 C 0.34801 0.38826 0.18054 0.0
N1782 N 0.26561 0.35822 0.13663 0.0
N1783 N 0.36677 0.39345 0.23632 0.0
H1784 H 0.38362 0.40642 0.15363 0.0
H1785 H 0.39874 0.40375 0.19159 0.0
H1786 H 0.36607 0.38683 0.25827 0.0
H1787 H 0.38705 0.41208 0.23605 0.0
H1788 H 0.24202 0.3487 0.1394 0.0
H1789 H 0.26764 0.36672 0.11558 0.0
H1790 H 0.24006 0.31945 0.17251 0.0
H1791 H 0.25287 0.32487 0.21291 0.0
C1792 C 0.24104 1.01143 0.01487 0.0
C1793 C 0.24834 0.99027 0.03384 0.0
C1794 C 0.22678 1.01484 0.07604 0.0
C1795 C 0.22701 0.04025 0.05949 0.0
N1796 N 0.24207 0.06559 0.01553 0.0
N1797 N 0.25071 0.97368 0.08476 0.0
C1798 C 0.23628 0.03936 0.02947 0.0
C1799 C 0.24165 0.99212 0.06504 0.0
N1800 N 0.23982 1.00527 0.98307 0.0
N1801 N 0.21157 1.01163 0.10138 0.0
H1802 H 0.26101 0.95618 0.0779 0.0
H1803 H 0.24972 0.97725 0.10873 0.0
H1804 H 0.19874 0.02663 0.10911 0.0
H1805 H 0.20876 0.99203 0.11254 0.0
H1806 H 0.23256 0.0192 0.96802 0.0
H1807 H 0.24274 0.98435 0.97176 0.0
H1808 H 0.2512 0.06637 0.9946 0.0
H1809 H 0.24126 0.08751 0.02663 0.0
C1810 C 0.71767 0.65292 0.05175 0.0
C1811 C 0.71607 0.6782 0.03539 0.0
C1812 C 0.65827 0.66201 0.03487 0.0
C1813 C 0.65899 0.63301 0.04533 0.0
N1814 N 0.69159 0.59851 0.05501 0.0
N1815 N 0.68268 0.70247 1.00597 0.0
C1816 C 0.68932 0.6277 0.05116 0.0
C1817 C 0.68563 0.68105 0.02487 0.0
N1818 N 0.74574 0.65322 0.06899 0.0
N1819 N 0.63306 0.67353 0.03734 0.0
H1820 H 0.70217 0.71704 0.99846 0.0
H1821 H 0.66054 0.70329 0.99535 0.0
H1822 H 0.61547 0.66464 0.05024 0.0
H1823 H 0.63263 0.69534 0.03157 0.0
H1824 H 0.74707 0.63691 0.08375 0.0
H1825 H 0.76697 0.67146 0.07147 0.0
H1826 H 0.71331 0.59399 0.05997 0.0
H1827 H 0.67245 0.57784 0.04832 0.0
C1828 C 0.6971 0.50982 0.27638 0.0
C1829 C 0.68959 0.51211 0.30734 0.0
C1830 C 0.71784 0.47357 0.31879 0.0
C1831 C 0.72592 0.47198 0.2882 0.0
N1832 N 0.71609 0.48128 0.23524 0.0
N1833 N 0.68528 0.4901 0.35457 0.0
C1834 C 0.71303 0.48763 0.2661 0.0
C1835 C 0.69744 0.49178 0.32732 0.0
N1836 N 0.6913 0.53042 0.25756 0.0
N1837 N 0.73086 0.45887 0.34016 0.0
H1838 H 0.67009 0.50305 0.36092 0.0
H1839 H 0.68763 0.4739 0.36911 0.0
H1840 H 0.74526 0.44474 0.33457 0.0
H1841 H 0.72905 0.46215 0.36392 0.0
H1842 H 0.70028 0.53291 0.23674 0.0
H1843 H 0.67904 0.54646 0.26348 0.0
H1844 H 0.70437 0.48928 0.2173 0.0
H1845 H 0.72804 0.46553 0.22713 0.0
C1846 C 0.91431 0.46278 0.50527 0.0
C1847 C 0.89595 0.4661 0.52928 0.0
C1848 C 0.94336 0.50312 0.56422 0.0
C1849 C 0.96032 0.50311 0.53879 0.0
N1850 N 0.96311 0.48411 0.48506 0.0
N1851 N 0.8929 0.48742 0.58259 0.0
C1852 C 0.9463 0.48289 0.50941 0.0
C1853 C 0.91049 0.48567 0.55908 0.0
N1854 N 0.90102 0.4408 0.47839 0.0
N1855 N 0.95923 0.51861 0.59364 0.0
H1856 H 0.8701 0.47209 0.58165 0.0
H1857 H 0.90041 0.50477 0.60279 0.0
H1858 H 0.98359 0.53081 0.5983 0.0
H1859 H 0.94925 0.51736 0.614 0.0
H1860 H 0.91398 0.43473 0.46151 0.0
H1861 H 0.87704 0.42729 0.47348 0.0
H1862 H 0.95325 0.47287 0.46198 0.0
H1863 H 0.98676 0.49815 0.48745 0.0
C1864 C 0.3867 0.13305 0.295 0.0
C1865 C 0.39029 0.12799 0.3267 0.0
C1866 C 0.34938 0.15301 0.33695 0.0
C1867 C 0.34691 0.15961 0.30591 0.0
N1868 N 0.37103 0.1653 0.25938 0.0
N1869 N 0.38327 0.14312 0.37994 0.0
C1870 C 0.36809 0.15268 0.28615 0.0
C1871 C 0.37449 0.14161 0.34841 0.0
N1872 N 0.39894 0.11767 0.27273 0.0
N1873 N 0.32687 0.15596 0.35496 0.0
H1874 H 0.40221 0.13542 0.38889 0.0
H1875 H 0.37415 0.15505 0.39698 0.0
H1876 H 0.30688 0.16245 0.34681 0.0
H1877 H 0.32628 0.14868 0.3767 0.0
H1878 H 0.39356 0.11804 0.24879 0.0
H1879 H 0.41232 0.10256 0.27743 0.0
H1880 H 0.38854 0.16344 0.24597 0.0
H1881 H 0.35836 0.18044 0.25249 0.0
C1882 C 0.39823 0.20287 0.53861 0.0
C1883 C 0.37425 0.20584 0.55648 0.0
C1884 C 0.39553 0.17805 0.59514 0.0
C1885 C 0.41542 0.17019 0.57431 0.0
N1886 N 0.43658 0.1753 0.52627 0.0
N1887 N 0.34911 0.19516 0.60162 0.0
C1888 C 0.41735 0.18304 0.54622 0.0
C1889 C 0.37311 0.19377 0.58512 0.0
N1890 N 0.40264 0.21929 0.51443 0.0
N1891 N 0.39792 0.17025 0.62446 0.0
H1892 H 0.33272 0.20704 0.5957 0.0
H1893 H 0.34421 0.18297 0.62008 0.0
H1894 H 0.4135 0.15806 0.63221 0.0
H1895 H 0.38662 0.17821 0.64203 0.0
H1896 H 0.42115 0.22039 0.50166 0.0
H1897 H 0.38938 0.2345 0.50936 0.0
H1898 H 0.43661 0.18092 0.50384 0.0
H1899 H 0.45157 0.1617 0.53159 0.0
C1900 C 0.7333 0.67104 0.30853 0.0
C1901 C 0.71415 0.67203 0.33254 0.0
C1902 C 0.74591 0.72763 0.35236 0.0
C1903 C 0.76261 0.72757 0.32649 0.0
N1904 N 0.76588 0.70079 0.27558 0.0
N1905 N 0.69843 0.70356 0.37334 0.0
C1906 C 0.75476 0.69966 0.30347 0.0
C1907 C 0.71911 0.70115 0.35304 0.0
N1908 N 0.7311 0.64294 0.29012 0.0
N1909 N 0.75683 0.75226 0.37721 0.0
H1910 H 0.67931 0.6844 0.37534 0.0
H1911 H 0.69899 0.72505 0.38653 0.0
H1912 H 0.77829 0.77013 0.37885 0.0
H1913 H 0.74702 0.7529 0.39772 0.0
H1914 H 0.74734 0.64059 0.27531 0.0
H1915 H 0.71513 0.62134 0.29143 0.0
H1916 H 0.75779 0.68217 0.25642 0.0
H1917 H 0.78049 0.72138 0.27005 0.0
C1918 C 0.93332 0.47639 0.8579 0.0
C1919 C 0.92898 0.4943 0.83414 0.0
C1920 C 0.89453 0.44621 0.7986 0.0
C1921 C 0.89512 0.42953 0.82393 0.0
N1922 N 0.91211 0.42841 0.87836 0.0
N1923 N 0.90617 0.49682 0.78134 0.0
C1924 C 0.91404 0.44438 0.85368 0.0
C1925 C 0.90985 0.47935 0.80427 0.0
N1926 N 0.95533 0.49008 0.88465 0.0
N1927 N 0.88021 0.43011 0.76895 0.0
H1928 H 0.91957 0.5204 0.78292 0.0
H1929 H 0.8888 0.48837 0.76116 0.0
H1930 H 0.86906 0.40568 0.764 0.0
H1931 H 0.88159 0.44025 0.7488 0.0
H1932 H 0.96185 0.47728 0.90126 0.0
H1933 H 0.96863 0.51401 0.88937 0.0
H1934 H 0.92195 0.43919 0.90158 0.0
H1935 H 0.89846 0.40478 0.87592 0.0
C1936 C 0.07282 0.93338 0.10733 0.0
C1937 C 0.09995 0.92361 0.1007 0.0
C1938 C 0.11582 0.97269 0.07544 0.0
C1939 C 0.08907 0.98281 0.08301 0.0
N1940 N 0.04611 0.97443 0.11274 0.0
N1941 N 0.1487 0.93659 0.07996 0.0
C1942 C 0.06875 0.96337 0.10063 0.0
C1943 C 0.1219 0.94433 0.08539 0.0
N1944 N 0.05008 0.91345 0.11983 0.0
N1945 N 0.13488 0.98956 0.0574 0.0
H1946 H 0.15332 0.91638 0.08628 0.0
H1947 H 0.16714 0.9506 0.0708 0.0
H1948 H 0.13118 1.00964 0.04985 0.0
H1949 H 0.15311 0.983 0.04825 0.0
H1950 H 0.02764 0.91607 0.12113 0.0
H1951 H 0.05291 0.89303 0.12732 0.0
H1952 H 0.03309 0.96418 0.12898 0.0
H1953 H 0.04239 0.99578 0.109 0.0
C1954 C 0.94088 0.2836 0.89569 0.0
C1955 C 0.95052 0.30264 0.92622 0.0
C1956 C 0.91098 0.33076 0.91184 0.0
C1957 C 0.90337 0.31388 0.87984 0.0
N1958 N 0.91132 0.27253 0.84251 0.0
N1959 N 0.94426 0.34385 0.96396 0.0
C1960 C 0.91838 0.28979 0.87229 0.0
C1961 C 0.93459 0.32529 0.93467 0.0
N1962 N 0.9524 0.25844 0.88941 0.0
N1963 N 0.89688 0.35338 0.92052 0.0
H1964 H 0.96089 0.34038 0.98117 0.0
H1965 H 0.93751 0.36385 0.97101 0.0
H1966 H 0.88657 0.3646 0.90473 0.0
H1967 H 0.89557 0.36146 0.94374 0.0
H1968 H 0.94434 0.24123 0.86912 0.0
H1969 H 0.96857 0.25319 0.90581 0.0
H1970 H 0.92554 0.25977 0.83339 0.0
H1971 H 0.89076 0.27023 0.82676 0.0
C1972 C 0.5849 0.22806 0.62159 0.0
C1973 C 0.60004 0.25103 0.60408 0.0
C1974 C 0.60426 0.20511 0.56633 0.0
C1975 C 0.59303 0.18279 0.58648 0.0
N1976 N 0.58331 0.17872 0.63946 0.0
N1977 N 0.63018 0.26017 0.56212 0.0
C1978 C 0.58631 0.19597 0.61578 0.0
C1979 C 0.61144 0.23913 0.5771 0.0
N1980 N 0.5681 0.23656 0.64363 0.0
N1981 N 0.60706 0.19425 0.53634 0.0
H1982 H 0.63577 0.28465 0.56901 0.0
H1983 H 0.64204 0.25332 0.54451 0.0
H1984 H 0.60149 0.1703 0.52695 0.0
H1985 H 0.61196 0.20897 0.51978 0.0
H1986 H 0.55423 0.2203 0.65526 0.0
H1987 H 0.56465 0.25884 0.64695 0.0
H1988 H 0.5809 0.18807 0.66197 0.0
H1989 H 0.58794 0.15698 0.63816 0.0
C1990 C 0.63113 0.85019 0.45069 0.0
C1991 C 0.60926 0.82012 0.44963 0.0
C1992 C 0.62634 0.80037 0.40155 0.0
C1993 C 0.65011 0.83017 0.4034 0.0
N1994 N 0.65344 0.8855 0.41709 0.0
N1995 N 0.59204 0.76451 0.42885 0.0
C1996 C 0.64755 0.85613 0.42501 0.0
C1997 C 0.60962 0.79446 0.42708 0.0
N1998 N 0.63432 0.87381 0.47533 0.0
N1999 N 0.61454 0.78058 0.37319 0.0
H2000 H 0.57916 0.75998 0.44711 0.0
H2001 H 0.593 0.74445 0.41413 0.0
H2002 H 0.62013 0.78769 0.35218 0.0
H2003 H 0.59538 0.7599 0.3699 0.0
H2004 H 0.65132 0.89602 0.47837 0.0
H2005 H 0.62193 0.86965 0.494 0.0
H2006 H 0.64984 0.9047 0.431 0.0
H2007 H 0.65562 0.88886 0.39411 0.0
C2008 C 0.09591 0.27652 0.44719 0.0
C2009 C 0.06922 0.27733 0.42598 0.0
C2010 C 0.036 0.2318 0.44482 0.0
C2011 C 0.06123 0.23525 0.46999 0.0
N2012 N 0.1142 0.26532 0.49779 0.0
N2013 N 1.01227 0.2575 0.40714 0.0
C2014 C 0.09107 0.25863 0.47176 0.0
C2015 C 0.03882 0.25521 0.42515 0.0
N2016 N 0.126 0.29286 0.44374 0.0
N2017 N 1.00959 0.20583 0.4392 0.0
H2018 H 1.01295 0.27408 0.39236 0.0
H2019 H 0.98914 0.24449 0.40871 0.0
H2020 H 1.00713 0.18757 0.45223 0.0
H2021 H 0.99175 0.20095 0.41963 0.0
H2022 H 0.14654 0.29092 0.4568 0.0
H2023 H 0.13031 0.30548 0.42539 0.0
H2024 H 0.13511 0.28428 0.50147 0.0
H2025 H 0.11115 0.25423 0.51727 0.0
C2026 C 0.65864 0.26399 0.26228 0.0
C2027 C 0.6447 0.28933 0.26419 0.0
C2028 C 0.69892 0.32606 0.28864 0.0
C2029 C 0.7135 0.30134 0.28367 0.0
N2030 N 0.70619 0.24649 0.26309 0.0
N2031 N 0.65343 0.34559 0.27603 0.0
C2032 C 0.69292 0.27021 0.26995 0.0
C2033 C 0.66543 0.3206 0.2767 0.0
N2034 N 0.63885 0.2335 0.25423 0.0
N2035 N 0.71681 0.35472 0.30622 0.0
H2036 H 0.62947 0.34272 0.26781 0.0
H2037 H 0.66756 0.3692 0.28117 0.0
H2038 H 0.74073 0.35946 0.31588 0.0
H2039 H 0.70732 0.37268 0.31389 0.0
H2040 H 0.64652 0.21366 0.25569 0.0
H2041 H 0.61409 0.22795 0.24869 0.0
H2042 H 0.69362 0.22446 0.24941 0.0
H2043 H 0.73049 0.24951 0.2692 0.0
C2044 C 0.5588 0.94158 0.95812 0.0
C2045 C 0.57753 0.94945 0.93388 0.0
C2046 C 0.58163 1.00611 0.95357 0.0
C2047 C 0.56715 0.99848 0.9803 0.0
N2048 N 0.54524 0.95712 1.00896 0.0
N2049 N 0.61307 0.99192 0.91509 0.0
C2050 C 0.5573 0.96578 0.98298 0.0
C2051 C 0.59063 0.98253 0.9335 0.0
N2052 N 0.53988 0.9112 0.95648 0.0
N2053 N 0.58643 0.03577 0.94659 0.0
H2054 H 0.62152 0.97599 0.90154 0.0
H2055 H 0.62615 1.01557 0.9164 0.0
H2056 H 0.57906 0.05317 0.9592 0.0
H2057 H 0.59532 0.04218 0.92664 0.0
H2058 H 0.52295 0.90503 0.97096 0.0
H2059 H 0.53759 0.89264 0.93844 0.0
H2060 H 0.54244 0.93466 0.01466 0.0
H2061 H 0.53955 0.97259 0.02576 0.0
C2062 C 0.94116 0.77453 0.78245 0.0
C2063 C 0.96193 0.79529 0.76618 0.0
C2064 C 0.92258 0.82744 0.76747 0.0
C2065 C 0.90335 0.80836 0.78622 0.0
N2066 N 0.89898 0.76547 0.81486 0.0
N2067 N 0.9722 0.84421 0.74627 0.0
C2068 C 0.91391 0.78218 0.79417 0.0
C2069 C 0.95239 0.82245 0.75978 0.0
N2070 N 0.94752 0.7471 0.78695 0.0
N2071 N 0.91153 0.84977 0.75531 0.0
H2072 H 0.99219 0.84051 0.73799 0.0
H2073 H 0.96989 0.86657 0.74482 0.0
H2074 H 0.89043 0.85407 0.75982 0.0
H2075 H 0.92151 0.86197 0.73846 0.0
H2076 H 0.93234 0.72906 0.79557 0.0
H2077 H 0.96706 0.74133 0.77968 0.0
H2078 H 0.90666 0.74834 0.82471 0.0
H2079 H 0.88042 0.77099 0.82446 0.0
C2080 C 0.12505 0.05696 0.92762 0.0
C2081 C 0.12477 0.08451 0.91449 0.0
C2082 C 0.09605 0.09958 0.95661 0.0
C2083 C 0.10018 0.07434 0.97202 0.0
N2084 N 0.12213 0.03089 0.97334 0.0
N2085 N 0.11222 0.13378 0.91862 0.0
C2086 C 0.11543 0.0534 0.95765 0.0
C2087 C 0.11065 0.10617 0.92949 0.0
N2088 N 0.13374 0.03359 0.91079 0.0
N2089 N 0.07709 0.11669 0.96721 0.0
H2090 H 0.12161 0.1389 0.89846 0.0
H2091 H 0.10623 0.15247 0.93069 0.0
H2092 H 0.06544 0.11208 0.9862 0.0
H2093 H 0.07041 0.13329 0.95549 0.0
H2094 H 0.13186 1.01163 0.91731 0.0
H2095 H 0.13967 0.035 0.88846 0.0
H2096 H 0.13651 0.01736 0.96614 0.0
H2097 H 0.11547 0.0275 0.99507 0.0
C2098 C 0.79839 0.36542 0.6117 0.0
C2099 C 0.8065 0.36264 0.58138 0.0
C2100 C 0.82574 0.31787 0.59089 0.0
C2101 C 0.82366 0.3251 0.623 0.0
N2102 N 0.81092 0.35829 0.66518 0.0
N2103 N 0.83054 0.33774 0.54225 0.0
C2104 C 0.81026 0.34919 0.63376 0.0
C2105 C 0.82033 0.33886 0.57064 0.0
N2106 N 0.77913 0.38336 0.61928 0.0
N2107 N 0.83339 0.29125 0.58002 0.0
H2108 H 0.82786 0.35299 0.52673 0.0
H2109 H 0.8441 0.32329 0.53511 0.0
H2110 H 0.83759 0.27562 0.59466 0.0
H2111 H 0.83248 0.28313 0.55624 0.0
H2112 H 0.76985 0.3836 0.64009 0.0
H2113 H 0.76956 0.39501 0.60318 0.0
H2114 H 0.80538 0.37855 0.67416 0.0
H2115 H 0.81953 0.34743 0.68258 0.0
C2116 C 0.4789 0.10568 0.44965 0.0
C2117 C 0.4601 0.07506 0.43398 0.0
C2118 C 0.49031 0.05123 0.46916 0.0
C2119 C 0.51186 0.08169 0.48182 0.0
N2120 N 0.52913 0.13778 0.4818 0.0
N2121 N 0.45216 0.01862 0.42482 0.0
C2122 C 0.50667 0.10897 0.47167 0.0
C2123 C 0.46663 0.04778 0.44293 0.0
N2124 N 0.47007 0.1315 0.44346 0.0
N2125 N 0.49215 0.02549 0.4822 0.0
H2126 H 0.43635 1.01525 0.40403 0.0
H2127 H 0.45822 0.99838 0.42871 0.0
H2128 H 0.51033 0.0264 0.50014 0.0
H2129 H 0.47425 1.00374 0.47677 0.0
H2130 H 0.48108 0.15433 0.45624 0.0
H2131 H 0.44968 0.12942 0.42739 0.0
H2132 H 0.52867 0.15745 0.47169 0.0
H2133 H 0.54975 0.14115 0.49799 0.0
C2134 C 0.83557 0.79367 0.16055 0.0
C2135 C 0.80685 0.77314 0.14145 0.0
C2136 C 0.78134 0.77072 0.18906 0.0
C2137 C 0.80933 0.79298 0.2077 0.0
N2138 N 0.86087 0.83058 0.20939 0.0
N2139 N 0.75026 0.7478 0.13688 0.0
C2140 C 0.83578 0.80587 0.19285 0.0
C2141 C 0.77914 0.7633 0.15558 0.0
N2142 N 0.86318 0.80035 0.14837 0.0
N2143 N 0.75728 0.75538 0.20342 0.0
H2144 H 0.74733 0.74261 0.1124 0.0
H2145 H 0.72873 0.74294 0.14531 0.0
H2146 H 0.75787 0.76 0.22766 0.0
H2147 H 0.73801 0.7362 0.19168 0.0
H2148 H 0.88556 0.81198 0.16199 0.0
H2149 H 0.86413 0.79178 0.12512 0.0
H2150 H 0.8794 0.84317 0.19923 0.0
H2151 H 0.86159 0.84056 0.23266 0.0
C2152 C 0.12498 0.11211 0.71438 0.0
C2153 C 0.11438 0.08482 0.72856 0.0
C2154 C 0.08052 0.05643 0.67739 0.0
C2155 C 0.09429 0.08236 0.66255 0.0
N2156 N 0.13287 0.13349 0.66648 0.0
N2157 N 0.08391 0.02978 0.72242 0.0
C2158 C 0.11731 0.10985 0.68099 0.0
C2159 C 0.09239 0.05672 0.70978 0.0
N2160 N 0.14121 0.14078 0.733 0.0
N2161 N 0.05563 0.03167 0.66055 0.0
H2162 H 0.09268 0.02873 0.74549 0.0
H2163 H 0.06999 1.00784 0.70955 0.0
H2164 H 0.0465 0.03071 0.63704 0.0
H2165 H 0.04219 1.01348 0.67037 0.0
H2166 H 0.14671 0.16207 0.72456 0.0
H2167 H 0.14619 0.14395 0.75747 0.0
H2168 H 0.15267 0.15228 0.67789 0.0
H2169 H 0.12761 0.13305 0.64234 0.0
C2170 C 0.80201 0.4321 0.40721 0.0
C2171 C 0.78382 0.41933 0.42918 0.0
C2172 C 0.77268 0.36599 0.3982 0.0
C2173 C 0.79851 0.37839 0.3826 0.0
N2174 N 0.83898 0.42397 0.37327 0.0
N2175 N 0.74314 0.37578 0.44014 0.0
C2176 C 0.81331 0.41174 0.38712 0.0
C2177 C 0.76595 0.38665 0.42253 0.0
N2178 N 0.80745 0.46323 0.40481 0.0
N2179 N 0.75435 0.33501 0.38926 0.0
H2180 H 0.73632 0.39141 0.45595 0.0
H2181 H 0.73132 0.35193 0.43942 0.0
H2182 H 0.75888 0.31936 0.37169 0.0
H2183 H 0.73365 0.32508 0.39789 0.0
H2184 H 0.81882 0.47321 0.38741 0.0
H2185 H 0.79701 0.47772 0.41785 0.0
H2186 H 0.85202 0.44798 0.37816 0.0
H2187 H 0.84914 0.40979 0.35949 0.0
C2188 C 0.49191 0.06802 0.24237 0.0
C2189 C 0.5008 0.06872 0.27495 0.0
C2190 C 0.55238 0.06258 0.26608 0.0
C2191 C 0.54166 0.0575 0.23343 0.0
N2192 N 0.49951 0.05059 0.1896 0.0
N2193 N 0.53597 0.05679 0.31603 0.0
C2194 C 0.51091 0.05891 0.22123 0.0
C2195 C 0.53026 0.06373 0.28658 0.0
N2196 N 0.46567 0.07652 0.23174 0.0
N2197 N 0.58343 0.06552 0.27748 0.0
H2198 H 0.51917 0.05321 0.33093 0.0
H2199 H 0.55592 0.05024 0.32411 0.0
H2200 H 0.6001 0.0641 0.26283 0.0
H2201 H 0.59319 0.07234 0.30135 0.0
H2202 H 0.45838 0.07718 0.20825 0.0
H2203 H 0.45265 0.08571 0.24682 0.0
H2204 H 0.47578 0.04694 0.1799 0.0
H2205 H 0.51306 0.0449 0.17307 0.0
C2206 C 0.83563 0.76935 0.9409 0.0
C2207 C 0.80829 0.76732 0.95568 0.0
C2208 C 0.78906 0.79597 0.91581 0.0
C2209 C 0.81445 0.79459 0.89897 0.0
N2210 N 0.86035 0.77675 0.89436 0.0
N2211 N 0.75711 0.77627 0.95471 0.0
C2212 C 0.83744 0.78062 0.91142 0.0
C2213 C 0.78465 0.78026 0.94256 0.0
N2214 N 0.8605 0.76125 0.95564 0.0
N2215 N 0.76954 0.81323 0.90678 0.0
H2216 H 0.75326 0.76575 0.97444 0.0
H2217 H 0.73718 0.78131 0.94401 0.0
H2218 H 0.77224 0.82526 0.88787 0.0
H2219 H 0.75264 0.81808 0.91962 0.0
H2220 H 0.88243 0.76487 0.94811 0.0
H2221 H 0.86025 0.75376 0.97733 0.0
H2222 H 0.87539 0.7633 0.89977 0.0
H2223 H 0.86278 0.7851 0.87328 0.0
C2224 C 0.86328 0.11987 0.05947 0.0
C2225 C 0.85552 0.13715 0.03628 0.0
C2226 C 0.88651 0.11479 1.00213 0.0
C2227 C 0.88886 0.09335 0.02297 0.0
N2228 N 0.87249 0.07071 0.06782 0.0
N2229 N 0.85775 0.14991 0.9844 0.0
C2230 C 0.87522 0.09453 0.05064 0.0
C2231 C 0.86659 0.13431 1.00719 0.0
N2232 N 0.85849 0.12691 0.08968 0.0
N2233 N 0.90407 0.11744 0.97843 0.0
H2234 H 0.84453 0.16566 0.98818 0.0
H2235 H 0.86216 0.14594 0.96148 0.0
H2236 H 0.91945 0.104 0.97439 0.0
H2237 H 0.9055 0.13493 0.96459 0.0
H2238 H 0.86649 0.11648 0.10781 0.0
H2239 H 0.84934 0.14512 0.09737 0.0
H2240 H 0.85991 0.06907 0.08654 0.0
H2241 H 0.87963 0.05076 0.06118 0.0
C2242 C 0.43493 0.48959 0.0936 0.0
C2243 C 0.42608 0.45842 0.07561 0.0
C2244 C 0.47539 0.47231 0.0538 0.0
C2245 C 0.48455 0.5039 0.07123 0.0
N2246 N 0.47683 0.53915 0.11476 0.0
N2247 N 0.44301 0.41799 0.04637 0.0
C2248 C 0.46535 0.51163 0.09315 0.0
C2249 C 0.44824 0.44908 0.05885 0.0
N2250 N 0.41425 0.49811 0.11123 0.0
N2251 N 0.49085 0.46357 0.03062 0.0
H2252 H 0.42454 0.39974 0.05096 0.0
H2253 H 0.4586 0.4104 0.03336 0.0
H2254 H 0.50894 0.47906 0.02219 0.0
H2255 H 0.50894 0.47906 0.02219 0.0
H2256 H 0.41702 0.52142 0.12139 0.0
H2257 H 0.39331 0.48194 0.11454 0.0
H2258 H 0.46542 0.54481 0.1332 0.0
H2259 H 0.49947 0.5551 0.11643 0.0
C2260 C 0.45534 0.65244 0.83455 0.0
C2261 C 0.45045 0.62792 0.80838 0.0
C2262 C 0.40707 0.64459 0.7818 0.0
C2263 C 0.41079 0.66798 0.80873 0.0
N2264 N 0.4434 0.69996 0.85682 0.0
N2265 N 0.42726 0.6053 0.75428 0.0
C2266 C 0.43669 0.67385 0.83382 0.0
C2267 C 0.42847 0.62597 0.7809 0.0
N2268 N 0.47683 0.65418 0.86065 0.0
N2269 N 0.38172 0.63866 0.75801 0.0
H2270 H 0.44096 0.58979 0.75361 0.0
H2271 H 0.41443 0.60491 0.73242 0.0
H2272 H 0.36588 0.65207 0.7575 0.0
H2273 H 0.37512 0.61937 0.7396 0.0
H2274 H 0.47913 0.66888 0.88206 0.0
H2275 H 0.49177 0.63979 0.86099 0.0
H2276 H 0.46368 0.70738 0.87415 0.0
H2277 H 0.43003 0.71583 0.85686 0.0
C2278 C 0.20135 0.6278 0.58947 0.0
C2279 C 0.21132 0.65695 0.57864 0.0
C2280 C 0.15533 0.65398 0.5623 0.0
C2281 C 0.14597 0.62237 0.56789 0.0
N2282 N 0.16053 0.57757 0.58334 0.0
N2283 N 0.19831 0.69844 0.55474 0.0
C2284 C 0.16906 0.60895 0.58092 0.0
C2285 C 0.18843 0.67053 0.5655 0.0
N2286 N 0.22261 0.61838 0.60851 0.0
N2287 N 0.13268 0.66847 0.55491 0.0
H2288 H 0.2223 0.71092 0.55648 0.0
H2289 H 0.183 0.7078 0.54171 0.0
H2290 H 0.10827 0.65714 0.55271 0.0
H2291 H 0.13801 0.69247 0.55368 0.0
H2292 H 0.21593 0.59894 0.61972 0.0
H2293 H 0.24641 0.6319 0.616 0.0
H2294 H 0.17683 0.56589 0.5903 0.0
H2295 H 0.13777 0.56207 0.57448 0.0
C2296 C 0.73205 0.01924 0.85365 0.0
C2297 C 0.73084 0.0314 0.82522 0.0
C2298 C 0.77595 1.01385 0.81299 0.0
C2299 C 0.77591 0.99949 0.84006 0.0
N2300 N 0.7493 0.98261 0.88279 0.0
N2301 N 0.74481 0.03042 0.77311 0.0
C2302 C 0.75256 1.00038 0.85951 0.0
C2303 C 0.75021 0.02502 0.80317 0.0
N2304 N 0.71396 0.0262 0.87515 0.0
N2305 N 0.80142 0.01829 0.79747 0.0
H2306 H 0.72568 0.03775 0.76437 0.0
H2307 H 0.75707 0.02379 0.75575 0.0
H2308 H 0.8217 1.01194 0.80496 0.0
H2309 H 0.80396 0.03155 0.77947 0.0
H2310 H 0.71642 0.02119 0.89786 0.0
H2311 H 0.69735 0.03829 0.87043 0.0
H2312 H 0.73077 0.98013 0.89571 0.0
H2313 H 0.7634 0.968 0.88729 0.0
C2314 C 0.75748 0.96761 0.57892 0.0
C2315 C 0.75837 0.94415 0.55385 0.0
C2316 C 0.71815 0.95829 0.51945 0.0
C2317 C 0.71851 0.98302 0.54393 0.0
N2318 N 0.73159 1.00563 0.59918 0.0
N2319 N 0.73231 0.91004 0.50492 0.0
C2320 C 0.7359 0.98577 0.57447 0.0
C2321 C 0.73614 0.93716 0.52562 0.0
N2322 N 0.77856 0.9736 0.60639 0.0
N2323 N 0.70194 0.95595 0.48993 0.0
H2324 H 0.74426 0.89388 0.51042 0.0
H2325 H 0.71504 0.90195 0.48464 0.0
H2326 H 0.68832 0.97076 0.48453 0.0
H2327 H 0.70365 0.94072 0.47034 0.0
H2328 H 0.78222 0.99288 0.62428 0.0
H2329 H 0.7936 0.95978 0.61059 0.0
H2330 H 0.74122 1.0067 0.62252 0.0
H2331 H 0.71611 0.01928 0.59661 0.0
C2332 C 0.40036 0.45562 0.77148 0.0
C2333 C 0.43122 0.46372 0.79016 0.0
C2334 C 0.41434 0.41596 0.81321 0.0
C2335 C 0.38337 0.40723 0.79444 0.0
N2336 N 0.34983 0.41514 0.74989 0.0
N2337 N 0.47028 0.44459 0.81838 0.0
C2338 C 0.37712 0.42606 0.7719 0.0
C2339 C 0.43914 0.44157 0.8075 0.0
N2340 N 0.39335 0.47606 0.75303 0.0
N2341 N 0.41974 0.4014 0.83814 0.0
H2342 H 0.48922 0.46226 0.81371 0.0
H2343 H 0.47735 0.42735 0.82871 0.0
H2344 H 0.40169 0.38506 0.84574 0.0
H2345 H 0.44114 0.40884 0.85408 0.0
H2346 H 0.37035 0.47389 0.74215 0.0
H2347 H 0.41048 0.49624 0.74968 0.0
H2348 H 0.34535 0.42615 0.73097 0.0
H2349 H 0.33272 0.39336 0.74857 0.0
C2350 C 0.20369 0.68675 0.28897 0.0
C2351 C 0.21623 0.6608 0.28551 0.0
C2352 C 0.27031 0.69701 0.29082 0.0
C2353 C 0.25792 0.72296 0.29484 0.0
N2354 N 0.21263 0.74298 0.28958 0.0
N2355 N 0.25944 0.64109 0.27222 0.0
C2356 C 0.22451 0.71801 0.29157 0.0
C2357 C 0.24893 0.66589 0.28304 0.0
N2358 N 0.17214 0.68163 0.29063 0.0
N2359 N 0.30257 0.70196 0.29575 0.0
H2360 H 0.24455 0.61792 0.26541 0.0
H2361 H 0.28214 0.64384 0.26668 0.0
H2362 H 0.31924 0.72439 0.30207 0.0
H2363 H 0.31297 0.68379 0.29647 0.0
H2364 H 0.1623 0.6996 0.29727 0.0
H2365 H 0.15599 0.65903 0.28713 0.0
H2366 H 0.18843 0.7405 0.28392 0.0
H2367 H 0.22709 0.76612 0.29074 0.0
C2368 C 0.51517 0.68417 0.501 0.0
C2369 C 0.53215 0.71619 0.5164 0.0
C2370 C 0.56043 0.69095 0.55512 0.0
C2371 C 0.54686 0.65937 0.53716 0.0
N2372 N 0.51553 0.62958 0.48708 0.0
N2373 N 0.57796 0.74782 0.55515 0.0
C2374 C 0.52537 0.65715 0.50853 0.0
C2375 C 0.55663 0.71879 0.54265 0.0
N2376 N 0.48803 0.67885 0.47969 0.0
N2377 N 0.57602 0.69481 0.58515 0.0
H2378 H 0.578 0.76824 0.54609 0.0
H2379 H 0.59804 0.75087 0.57194 0.0
H2380 H 0.57768 0.67578 0.596 0.0
H2381 H 0.58366 0.71654 0.60051 0.0
H2382 H 0.4729 0.65619 0.46989 0.0
H2383 H 0.47845 0.69682 0.47479 0.0
H2384 H 0.50295 0.62754 0.46462 0.0
H2385 H 0.52308 0.60993 0.48994 0.0
C2386 C 0.70887 0.3273 0.70992 0.0
C2387 C 0.71097 0.35454 0.69546 0.0
C2388 C 0.76709 0.3774 0.72414 0.0
C2389 C 0.76542 0.34894 0.73635 0.0
N2390 N 0.73647 0.29407 0.73386 0.0
N2391 N 0.74345 0.40483 0.68724 0.0
C2392 C 0.7368 0.32318 0.72709 0.0
C2393 C 0.74066 0.37929 0.70197 0.0
N2394 N 0.67978 0.30566 0.70859 0.0
N2395 N 0.79346 0.40312 0.7347 0.0
H2396 H 0.72448 0.40717 0.67193 0.0
H2397 H 0.76485 0.42253 0.68839 0.0
H2398 H 0.8127 0.40251 0.75077 0.0
H2399 H 0.79559 0.4255 0.72922 0.0
H2400 H 0.67618 0.28733 0.72153 0.0
H2401 H 0.65863 0.30796 0.69743 0.0
H2402 H 0.71759 0.27349 0.72495 0.0
H2403 H 0.75647 0.28983 0.74551 0.0
C2404 C 1.02478 0.41615 0.03236 0.0
C2405 C 0.0442 0.40794 1.01061 0.0
C2406 C 0.06384 0.46542 1.00766 0.0
C2407 C 0.04789 0.4744 0.0321 0.0
N2408 N 1.01671 0.45676 0.07143 0.0
N2409 N 0.09033 0.42875 0.9868 0.0
C2410 C 0.02931 0.44926 0.0455 0.0
C2411 C 0.06619 0.43389 1.00129 0.0
N2412 N 1.00111 0.39269 0.03974 0.0
N2413 N 0.07544 0.48654 0.98886 0.0
H2414 H 0.09425 0.40669 0.9833 0.0
H2415 H 0.10855 0.44715 0.98193 0.0
H2416 H 0.07226 0.50896 0.99098 0.0
H2417 H 0.08483 0.48036 0.96899 0.0
H2418 H 0.98389 0.39718 0.05236 0.0
H2419 H 0.99733 0.36875 0.03135 0.0
H2420 H 1.00585 0.43997 0.0843 0.0
H2421 H 1.01958 0.48012 0.0816 0.0
C2422 C 0.99525 0.80143 0.15921 0.0
C2423 C 1.02611 0.82467 0.16664 0.0
C2424 C 1.0169 0.83677 0.22134 0.0
C2425 C 0.98827 0.811 0.21468 0.0
N2426 N 0.95193 0.76623 0.17835 0.0
N2427 N 0.05797 0.87329 0.20095 0.0
C2428 C 0.97799 0.79266 0.18391 0.0
C2429 C 0.0347 0.84478 0.19679 0.0
N2430 N 0.98065 0.78993 0.12861 0.0
N2431 N 0.02759 0.85316 0.25146 0.0
H2432 H 0.06864 0.88174 0.18249 0.0
H2433 H 0.06371 0.89045 0.22123 0.0
H2434 H 1.01477 0.84872 0.26974 0.0
H2435 H 0.05019 0.86948 0.25894 0.0
H2436 H 0.95743 0.77468 0.12206 0.0
H2437 H 0.98889 0.79948 0.10967 0.0
H2438 H 0.94564 0.74942 0.15771 0.0
H2439 H 0.93818 0.75951 0.19547 0.0
C2440 C 0.58031 0.34427 0.15431 0.0
C2441 C 0.56109 0.34729 0.17757 0.0
C2442 C 0.56626 0.40202 0.16947 0.0
C2443 C 0.5809 0.39686 0.14272 0.0
N2444 N 0.59879 0.36136 0.10764 0.0
N2445 N 0.53703 0.37941 0.20896 0.0
C2446 C 0.58741 0.36763 0.13479 0.0
C2447 C 0.55462 0.37643 0.1858 0.0
N2448 N 0.59243 0.31926 0.15139 0.0
N2449 N 0.56432 0.43163 0.17972 0.0
H2450 H 0.53105 0.36228 0.22309 0.0
H2451 H 0.5278 0.39823 0.2137 0.0
H2452 H 0.57286 0.45079 0.16853 0.0
H2453 H 0.55658 0.43795 0.20055 0.0
H2454 H 0.60916 0.31723 0.13707 0.0
H2455 H 0.58807 0.30206 0.16568 0.0
H2456 H 0.60047 0.33912 0.0988 0.0
H2457 H 0.60396 0.37751 0.0924 0.0
C2458 C 0.97517 0.37711 0.36512 0.0
C2459 C 0.99161 0.35737 0.35022 0.0
C2460 C 0.94065 0.33017 0.31234 0.0
C2461 C 0.92366 0.34866 0.32837 0.0
N2462 N 0.92504 0.38706 0.37339 0.0
N2463 N 0.98781 0.31215 0.31145 0.0
C2464 C 0.94122 0.37163 0.35548 0.0
C2465 C 0.97372 0.33337 0.3241 0.0
N2466 N 0.99244 0.40197 0.38832 0.0
N2467 N 0.92517 0.30947 0.28527 0.0
H2468 H 1.01173 0.31404 0.31852 0.0
H2469 H 0.97554 0.29155 0.29534 0.0
H2470 H 0.9009 0.30455 0.27734 0.0
H2471 H 0.93657 0.29866 0.26969 0.0
H2472 H 0.98354 0.4195 0.39831 0.0
H2473 H 1.01698 0.40711 0.39508 0.0
H2474 H 0.93497 0.40113 0.3954 0.0
H2475 H 0.90067 0.38383 0.3675 0.0
C2476 C 1.00678 0.65655 0.66221 0.0
C2477 C 0.03109 0.68649 0.66926 0.0
C2478 C 0.06274 0.66316 0.63496 0.0
C2479 C 0.03765 0.63403 0.62585 0.0
N2480 N 0.98419 0.60397 0.62889 0.0
N2481 N 0.07871 0.71955 0.65498 0.0
C2482 C 1.00925 0.63097 0.63917 0.0
C2483 C 0.05804 0.69003 0.65358 0.0
N2484 N 0.9809 0.65292 0.677 0.0
N2485 N 0.09183 0.66508 0.62654 0.0
H2486 H 0.07587 0.74005 0.66696 0.0
H2487 H 0.09657 0.7242 0.64128 0.0
H2488 H 0.09647 0.64614 0.61332 0.0
H2489 H 0.11223 0.68422 0.6354 0.0
H2490 H 0.96275 0.6317 0.67471 0.0
H2491 H 0.97827 0.67123 0.69304 0.0
H2492 H 0.96187 0.60031 0.63544 0.0
H2493 H 0.9853 0.58545 0.61217 0.0
C2494 C 0.66491 0.83012 0.84682 0.0
C2495 C 0.65998 0.86093 0.84866 0.0
C2496 C 0.71198 0.87691 0.82695 0.0
C2497 C 0.7188 0.84752 0.8291 0.0
N2498 N 0.70173 0.79827 0.84801 0.0
N2499 N 0.68482 0.91531 0.84442 0.0
C2500 C 0.69514 0.82491 0.84101 0.0
C2501 C 0.68527 0.88462 0.83968 0.0
N2502 N 0.63986 0.80464 0.84848 0.0
N2503 N 0.73016 0.89732 0.81104 0.0
H2504 H 0.66747 0.92239 0.8549 0.0
H2505 H 0.70342 0.93417 0.84105 0.0
H2506 H 0.7486 0.89228 0.80075 0.0
H2507 H 0.72463 0.9172 0.80502 0.0
H2508 H 0.64058 0.78134 0.84415 0.0
H2509 H 0.61709 0.80614 0.85017 0.0
H2510 H 0.68778 0.78276 0.86022 0.0
H2511 H 0.72285 0.79341 0.84454 0.0
C2512 C 0.54009 0.54847 0.69976 0.0
C2513 C 0.51664 0.5621 0.70974 0.0
C2514 C 0.51292 0.58223 0.65913 0.0
C2515 C 0.53823 0.5709 0.6505 0.0
N2516 N 0.5792 0.54715 0.66544 0.0
N2517 N 0.48572 0.59765 0.70097 0.0
C2518 C 0.55288 0.5554 0.67181 0.0
C2519 C 0.50428 0.58037 0.68982 0.0
N2520 N 0.54891 0.52721 0.71594 0.0
N2521 N 0.49707 0.59497 0.63801 0.0
H2522 H 0.48053 0.59831 0.72367 0.0
H2523 H 0.47837 0.61386 0.68918 0.0
H2524 H 0.50383 0.59844 0.61633 0.0
H2525 H 0.47605 0.60018 0.64109 0.0
H2526 H 0.56295 0.51362 0.70801 0.0
H2527 H 0.53961 0.52068 0.73574 0.0
H2528 H 0.5933 0.53934 0.68159 0.0
H2529 H 0.58843 0.55024 0.6448 0.0
C2530 C 0.79954 0.24094 0.99049 0.0
C2531 C 0.77094 0.21607 0.98857 0.0
C2532 C 0.74285 0.24405 0.9563 0.0
C2533 C 0.77056 0.27103 0.96325 0.0
N2534 N 0.82099 0.29764 0.99788 0.0
N2535 N 0.71327 0.20059 0.97811 0.0
C2536 C 0.7975 0.27031 0.98405 0.0
C2537 C 0.74184 0.21915 0.97358 0.0
N2538 N 0.82861 0.23672 0.99883 0.0
N2539 N 0.71779 0.24151 0.93337 0.0
H2540 H 0.71203 0.18587 0.99462 0.0
H2541 H 0.6915 0.20362 0.96935 0.0
H2542 H 0.71722 0.25865 0.91953 0.0
H2543 H 0.69878 0.22066 0.92618 0.0
H2544 H 0.85001 0.25406 0.99866 0.0
H2545 H 0.83102 0.2148 1.00244 0.0
H2546 H 0.84014 0.29795 0.01465 0.0
H2547 H 0.81922 0.31998 0.9951 0.0
C2548 C 0.17488 0.57963 0.17684 0.0
C2549 C 0.16698 0.55036 0.18741 0.0
C2550 C 0.12021 0.53058 0.14523 0.0
C2551 C 0.12375 0.5624 0.1409 0.0
N2552 N 0.1533 0.61819 0.15627 0.0
N2553 N 0.13482 0.49599 0.17911 0.0
C2554 C 0.15095 0.58722 0.15757 0.0
C2555 C 0.14067 0.52502 0.17034 0.0
N2556 N 0.20506 0.60015 0.18528 0.0
N2557 N 0.09828 0.50577 0.12496 0.0
H2558 H 0.15095 0.49124 0.19602 0.0
H2559 H 0.11394 0.47735 0.17058 0.0
H2560 H 0.08301 0.50871 0.1062 0.0
H2561 H 0.09691 0.48213 0.12517 0.0
H2562 H 0.21241 0.62125 0.17667 0.0
H2563 H 0.22363 0.59379 0.19714 0.0
H2564 H 0.17149 0.6371 0.17022 0.0
H2565 H 0.13529 0.62504 0.14403 0.0
C2566 C 0.86016 0.86123 0.46541 0.0
C2567 C 0.83296 0.86909 0.47392 0.0
C2568 C 0.80448 0.8455 0.4196 0.0
C2569 C 0.83332 0.84266 0.4097 0.0
N2570 N 0.88997 0.85169 0.42376 0.0
N2571 N 0.77941 0.87008 0.45805 0.0
C2572 C 0.86146 0.85111 0.43288 0.0
C2573 C 0.80515 0.86136 0.45067 0.0
N2574 N 0.88493 0.8636 0.48854 0.0
N2575 N 0.776 0.83233 0.39952 0.0
H2576 H 0.77838 0.87973 0.4809 0.0
H2577 H 0.76005 0.86939 0.44139 0.0
H2578 H 0.77398 0.82037 0.37675 0.0
H2579 H 0.75396 0.8304 0.40641 0.0
H2580 H 0.90447 0.85592 0.48459 0.0
H2581 H 0.88402 0.87006 0.51222 0.0
H2582 H 0.91181 0.86111 0.4389 0.0
H2583 H 0.8922 0.84532 0.40043 0.0
C2584 C 0.52199 0.52426 0.90565 0.0
C2585 C 0.52323 0.55268 0.89372 0.0
C2586 C 0.55796 0.58253 0.94366 0.0
C2587 C 0.55054 0.55489 0.95782 0.0
N2588 N 0.524 0.49883 0.95149 0.0
N2589 N 0.54305 0.60954 0.90189 0.0
C2590 C 0.53252 0.52547 0.93844 0.0
C2591 C 0.54167 0.58202 0.91284 0.0
N2592 N 0.51128 0.49602 0.88533 0.0
N2593 N 0.58165 0.60892 0.95919 0.0
H2594 H 0.53254 0.60981 0.87913 0.0
H2595 H 0.55318 0.63191 0.91584 0.0
H2596 H 0.59506 0.60927 0.98075 0.0
H2597 H 0.59032 0.62888 0.9492 0.0
H2598 H 0.51223 0.47458 0.89166 0.0
H2599 H 0.50413 0.49492 0.86139 0.0
H2600 H 0.50759 0.47759 0.93943 0.0
H2601 H 0.53174 0.4986 0.97505 0.0
C2602 C 0.78074 0.22572 0.17891 0.0
C2603 C 0.80681 0.22546 0.16343 0.0
C2604 C 0.84189 0.27043 0.20252 0.0
C2605 C 0.81518 0.27174 0.21693 0.0
N2606 N 0.75806 0.25659 0.21392 0.0
N2607 N 0.8615 0.24897 0.15767 0.0
C2608 C 0.78426 0.25091 0.20385 0.0
C2609 C 0.83737 0.24792 0.17468 0.0
N2610 N 0.75263 0.20173 0.16972 0.0
N2611 N 0.87151 0.29067 0.21536 0.0
H2612 H 0.85962 0.23227 0.13777 0.0
H2613 H 0.88297 0.26725 0.16218 0.0
H2614 H 0.87513 0.31021 0.23289 0.0
H2615 H 0.89259 0.28783 0.20912 0.0
H2616 H 0.7336 0.19893 0.18201 0.0
H2617 H 0.74959 0.18286 0.15146 0.0
H2618 H 0.73469 0.24404 0.20328 0.0
H2619 H 0.75971 0.2763 0.23064 0.0
C2620 C 0.0968 0.59893 0.3303 0.0
C2621 C 0.11116 0.57519 0.33637 0.0
C2622 C 0.06892 0.55228 0.36481 0.0
C2623 C 0.06065 0.58079 0.36607 0.0
N2624 N 0.06229 0.62916 0.3471 0.0
N2625 N 0.10616 0.52392 0.35015 0.0
C2626 C 0.07258 0.60304 0.34708 0.0
C2627 C 0.09549 0.54983 0.35052 0.0
N2628 N 0.10615 0.61715 0.30838 0.0
N2629 N 0.05229 0.52876 0.37879 0.0
H2630 H 0.12561 0.52203 0.33962 0.0
H2631 H 0.09528 0.50384 0.35894 0.0
H2632 H 0.03256 0.53051 0.38888 0.0
H2633 H 0.05711 0.5074 0.37972 0.0
H2634 H 0.09501 0.63333 0.3013 0.0
H2635 H 0.12303 0.61364 0.29487 0.0
H2636 H 0.07304 0.64857 0.3372 0.0
H2637 H 0.04337 0.6317 0.35822 0.0
C2638 C 0.83639 0.85801 0.66937 0.0
C2639 C 0.82276 0.88106 0.65891 0.0
C2640 C 0.80128 0.88515 0.70918 0.0
C2641 C 0.81256 0.86014 0.71823 0.0
N2642 N 0.83795 0.8202 0.70453 0.0
N2643 N 0.78797 0.91308 0.66749 0.0
C2644 C 0.82906 0.84576 0.69745 0.0
C2645 C 0.80424 0.89383 0.67863 0.0
N2646 N 0.85814 0.84912 0.65353 0.0
N2647 N 0.78765 0.90076 0.72988 0.0
H2648 H 0.78887 0.9193 0.64531 0.0
H2649 H 0.77142 0.92064 0.67888 0.0
H2650 H 0.78327 0.89383 0.75126 0.0
H2651 H 0.78245 0.92161 0.72682 0.0
H2652 H 0.87184 0.83541 0.66173 0.0
H2653 H 0.86501 0.85806 0.63371 0.0
H2654 H 0.84634 0.80609 0.68879 0.0
H2655 H 0.83493 0.81163 0.72542 0.0
C2656 C 0.74939 0.4823 0.58732 0.0
C2657 C 0.7451 0.47581 0.55396 0.0
C2658 C 0.71234 0.51162 0.55048 0.0
C2659 C 0.72111 0.52193 0.58365 0.0
N2660 N 0.74724 0.51758 0.63408 0.0
N2661 N 0.71834 0.47863 0.5036 0.0
C2662 C 0.73878 0.50686 0.60231 0.0
C2663 C 0.72475 0.48846 0.53553 0.0
N2664 N 0.7642 0.46544 0.60456 0.0
N2665 N 0.69252 0.5244 0.5335 0.0
H2666 H 0.72597 0.46038 0.49279 0.0
H2667 H 0.70546 0.48782 0.48773 0.0
H2668 H 0.68243 0.54084 0.54384 0.0
H2669 H 0.68446 0.51788 0.50939 0.0
H2670 H 0.76558 0.46682 0.62877 0.0
H2671 H 0.77275 0.44774 0.59434 0.0
H2672 H 0.7632 0.51034 0.64873 0.0
H2673 H 0.73972 0.53539 0.64584 0.0
C2674 C 0.2162 0.16002 0.55728 0.0
C2675 C 0.21391 0.17832 0.53295 0.0
C2676 C 0.15841 0.14483 0.51474 0.0
C2677 C 0.1594 0.12948 0.5412 0.0
N2678 N 0.18818 0.12709 0.59113 0.0
N2679 N 0.18023 0.19149 0.49231 0.0
C2680 C 0.18808 0.13818 0.56333 0.0
C2681 C 0.18409 0.17195 0.51306 0.0
N2682 N 0.24507 0.16328 0.5749 0.0
N2683 N 0.13385 0.13202 0.49007 0.0
H2684 H 0.19874 0.2109 0.48964 0.0
H2685 H 0.1581 0.18965 0.47944 0.0
H2686 H 0.11749 0.10981 0.48907 0.0
H2687 H 0.13241 0.1409 0.46919 0.0
H2688 H 0.24844 0.14782 0.58999 0.0
H2689 H 0.26634 0.17933 0.57261 0.0
H2690 H 0.2072 0.1357 0.60989 0.0
H2691 H 0.16818 0.11144 0.59677 0.0
C2692 C 0.20971 1.00894 0.84544 0.0
C2693 C 0.19158 0.01903 0.82192 0.0
C2694 C 0.20473 0.98202 0.7823 0.0
C2695 C 0.229 0.97899 0.8052 0.0
N2696 N 0.25802 0.99532 0.85858 0.0
N2697 N 0.17365 1.0154 0.76589 0.0
C2698 C 0.23223 0.99369 0.83691 0.0
C2699 C 0.18905 1.0053 0.78971 0.0
N2700 N 0.20589 1.01455 0.8761 0.0
N2701 N 0.19624 0.96238 0.75368 0.0
H2702 H 0.16117 0.03174 0.76919 0.0
H2703 H 0.17499 1.0088 0.74232 0.0
H2704 H 0.20661 0.94456 0.74784 0.0
H2705 H 0.17663 0.96155 0.73724 0.0
H2706 H 0.21694 1.00563 0.89377 0.0
H2707 H 0.18891 0.02499 0.88293 0.0
H2708 H 0.26254 1.00815 0.8814 0.0
H2709 H 0.27681 0.98726 0.85271 0.0
C2710 C 0.40411 0.99164 0.05384 0.0
C2711 C 0.39349 0.96508 0.02873 0.0
C2712 C 0.44668 0.97776 0.01437 0.0
C2713 C 0.45631 1.00564 0.03781 0.0
N2714 N 0.44449 0.04051 0.07884 0.0
N2715 N 0.40593 0.92818 0.99041 0.0
C2716 C 0.43515 1.0129 0.0573 0.0
C2717 C 0.41527 0.95653 1.01077 0.0
N2718 N 0.38528 0.99533 0.07581 0.0
N2719 N 0.46672 0.97297 0.994 0.0
H2720 H 0.38269 0.91281 0.98612 0.0
H2721 H 0.42145 0.91884 0.97906 0.0
H2722 H 0.48944 0.9886 0.99512 0.0
H2723 H 0.46018 0.95503 0.97431 0.0
H2724 H 0.39298 1.01182 0.09665 0.0
H2725 H 0.36283 0.97977 0.07525 0.0
H2726 H 0.42881 0.04975 0.09006 0.0
H2727 H 0.4678 0.05554 0.08432 0.0
C2728 C 0.90004 0.64773 0.79315 0.0
C2729 C 0.90522 0.64292 0.82472 0.0
C2730 C 0.86118 0.66248 0.83607 0.0
C2731 C 0.85662 0.66886 0.80504 0.0
N2732 N 0.87884 0.67713 0.75772 0.0
N2733 N 0.89896 0.65692 0.87835 0.0
C2734 C 0.87829 0.66452 0.78462 0.0
C2735 C 0.88881 0.65467 0.84694 0.0
N2736 N 0.91425 0.63495 0.77094 0.0
N2737 N 0.83831 0.66192 0.85453 0.0
H2738 H 0.91949 0.65131 0.88671 0.0
H2739 H 0.88902 0.66739 0.89572 0.0
H2740 H 0.81637 0.66501 0.84658 0.0
H2741 H 0.8397 0.65481 0.87638 0.0
H2742 H 0.9081 0.63467 0.74696 0.0
H2743 H 0.93079 0.62301 0.77615 0.0
H2744 H 0.89622 0.677 0.74367 0.0
H2745 H 0.86419 0.6907 0.75131 0.0
C2746 C 0.88261 0.69703 0.08483 0.0
C2747 C 0.87784 0.70176 0.05305 0.0
C2748 C 0.91722 0.67383 0.04177 0.0
C2749 C 0.91673 0.66385 0.0714 0.0
N2750 N 0.89699 0.66407 0.12055 0.0
N2751 N 0.89292 0.69714 1.00182 0.0
C2752 C 0.89927 0.67533 0.09295 0.0
C2753 C 0.89621 0.69115 0.03183 0.0
N2754 N 0.87149 0.71322 0.10747 0.0
N2755 N 0.9381 0.66704 0.02333 0.0
H2756 H 0.88006 0.71209 0.99482 0.0
H2757 H 0.90203 0.68675 0.98375 0.0
H2758 H 0.95359 0.65433 0.02988 0.0
H2759 H 0.94204 0.67607 1.00287 0.0
H2760 H 0.87706 0.71295 0.13139 0.0
H2761 H 0.86017 0.73008 0.10327 0.0
H2762 H 0.88135 0.66833 0.13536 0.0
H2763 H 0.90866 0.64817 0.12745 0.0
C2764 C 0.20587 0.20808 0.84027 0.0
C2765 C 0.20879 0.17783 0.82985 0.0
C2766 C 0.25857 0.20382 0.81175 0.0
C2767 C 0.25332 0.23397 0.81812 0.0
N2768 N 0.21306 0.26008 0.82778 0.0
N2769 N 0.23314 0.14747 0.79568 0.0
C2770 C 0.22461 0.23497 0.82968 0.0
C2771 C 0.23358 0.17579 0.81243 0.0
N2772 N 0.18478 0.21129 0.85983 0.0
N2773 N 0.28761 0.20147 0.80642 0.0
H2774 H 0.21542 0.12626 0.79474 0.0
H2775 H 0.24873 0.14567 0.77997 0.0
H2776 H 0.30845 0.2205 0.81218 0.0
H2777 H 0.29215 0.17989 0.80114 0.0
H2778 H 0.18434 0.23338 0.87067 0.0
H2779 H 0.17021 0.19215 0.86769 0.0
H2780 H 0.19139 0.26076 0.83432 0.0
H2781 H 0.22179 0.27733 0.81468 0.0
C2782 C 0.41234 0.95551 0.34875 0.0
C2783 C 0.40709 0.97579 0.32783 0.0
C2784 C 0.37043 0.92972 0.29126 0.0
C2785 C 0.37055 0.91178 0.31563 0.0
N2786 N 0.38668 0.91006 0.37026 0.0
N2787 N 0.38117 0.98194 0.27758 0.0
C2788 C 0.38997 0.92538 0.34524 0.0
C2789 C 0.38597 0.96289 0.29857 0.0
N2790 N 0.43943 0.96387 0.37064 0.0
N2791 N 0.35674 0.91499 0.26111 0.0
H2792 H 0.39437 1.00574 0.28036 0.0
H2793 H 0.36299 0.97431 0.25802 0.0
H2794 H 0.34624 0.89048 0.25499 0.0
H2795 H 0.35843 0.92653 0.24184 0.0
H2796 H 0.44477 0.94838 0.38486 0.0
H2797 H 0.45817 0.9844 0.37167 0.0
H2798 H 0.39856 0.9209 0.39301 0.0
H2799 H 0.37012 0.88784 0.36866 0.0
C2800 C 0.57663 0.43563 0.61311 0.0
C2801 C 0.6028 0.42486 0.60522 0.0
C2802 C 0.61565 0.4702 0.57505 0.0
C2803 C 0.59062 0.48204 0.58437 0.0
N2804 N 0.55048 0.47725 0.61737 0.0
N2805 N 0.65036 0.43663 0.58222 0.0
C2806 C 0.57204 0.46489 0.60475 0.0
C2807 C 0.62321 0.44375 0.58738 0.0
N2808 N 0.5555 0.41751 0.6286 0.0
N2809 N 0.6311 0.48285 0.55245 0.0
H2810 H 0.65631 0.41769 0.59024 0.0
H2811 H 0.66819 0.45103 0.57256 0.0
H2812 H 0.62659 0.50179 0.5431 0.0
H2813 H 0.64578 0.47248 0.5408 0.0
H2814 H 0.53358 0.42077 0.63139 0.0
H2815 H 0.55928 0.39802 0.63741 0.0
H2816 H 0.53886 0.46879 0.63525 0.0
H2817 H 0.54611 0.49783 0.61187 0.0
C2818 C 0.42033 0.81553 0.43728 0.0
C2819 C 0.43892 0.79531 0.42893 0.0
C2820 C 0.40054 0.77486 0.3782 0.0
C2821 C 0.38619 0.79979 0.38345 0.0
N2822 N 0.38632 0.84625 0.42011 0.0
N2823 N 0.44565 0.75484 0.39038 0.0
C2824 C 0.39667 0.82033 0.41384 0.0
C2825 C 0.42864 0.77482 0.39905 0.0
N2826 N 0.42578 0.83107 0.46765 0.0
N2827 N 0.38599 0.74961 0.35447 0.0
H2828 H 0.46469 0.75237 0.40546 0.0
H2829 H 0.44232 0.74243 0.36754 0.0
H2830 H 0.36378 0.74663 0.34125 0.0
H2831 H 0.39345 0.72949 0.35082 0.0
H2832 H 0.41057 0.84274 0.47656 0.0
H2833 H 0.44398 0.82999 0.48473 0.0
H2834 H 0.39578 0.86369 0.44013 0.0
H2835 H 0.37124 0.85302 0.40423 0.0
C2836 C 0.10791 0.73792 0.07466 0.0
C2837 C 0.09634 0.7493 0.10172 0.0
C2838 C 0.08544 0.69467 0.11414 0.0
C2839 C 0.09194 0.68178 0.0846 0.0
N2840 N 0.10381 0.69335 0.03381 0.0
N2841 N 0.06657 0.73432 0.1428 0.0
C2842 C 0.10165 0.70409 0.06404 0.0
C2843 C 0.08269 0.72626 0.11986 0.0
N2844 N 0.12604 0.75927 0.05953 0.0
N2845 N 0.08427 0.67784 0.13817 0.0
H2846 H 0.06309 0.75657 0.14719 0.0
H2847 H 0.05357 0.71776 0.15473 0.0
H2848 H 0.0903 0.65681 0.13697 0.0
H2849 H 0.08209 0.68711 0.16079 0.0
H2850 H 0.13795 0.75274 0.04182 0.0
H2851 H 0.13123 0.7837 0.06644 0.0
H2852 H 0.10819 0.70811 0.01722 0.0
H2853 H 0.09789 0.66944 0.02431 0.0
C2854 C 0.12537 0.29744 0.93604 0.0
C2855 C 0.11996 0.32348 0.95445 0.0
C2856 C 0.16106 0.3605 0.93367 0.0
C2857 C 0.16548 0.33465 0.9138 0.0
N2858 N 0.15935 0.27871 0.9034 0.0
N2859 N 0.14086 0.37765 0.98015 0.0
C2860 C 0.15015 0.3031 0.91754 0.0
C2861 C 0.14106 0.35426 0.95663 0.0
N2862 N 0.10548 0.2676 0.93476 0.0
N2863 N 0.17367 0.39083 0.92902 0.0
H2864 H 0.12622 0.37287 0.99705 0.0
H2865 H 0.15723 0.40032 0.9846 0.0
H2866 H 0.18794 0.39658 0.91208 0.0
H2867 H 0.16775 0.40997 0.9403 0.0
H2868 H 0.10539 0.24792 0.91885 0.0
H2869 H 0.08815 0.26296 0.94913 0.0
H2870 H 0.15096 0.2555 0.90718 0.0
H2871 H 0.17771 0.28247 0.89018 0.0
C2872 C 0.52994 0.75688 0.92839 0.0
C2873 C 0.5611 0.77395 0.92448 0.0
C2874 C 0.58452 0.74687 0.96209 0.0
C2875 C 0.55336 0.72966 0.96589 0.0
N2876 N 0.49659 0.71254 0.94749 0.0
N2877 N 0.61729 0.78002 0.9313 0.0
C2878 C 0.5261 0.73283 0.94731 0.0
C2879 C 0.58816 0.76718 0.93933 0.0
N2880 N 0.50413 0.76487 0.91558 0.0
N2881 N 0.61059 0.74496 0.98125 0.0
H2882 H 0.62044 0.7947 0.91446 0.0
H2883 H 0.63758 0.77384 0.93894 0.0
H2884 H 0.60894 0.73037 0.99816 0.0
H2885 H 0.63373 0.75948 0.98205 0.0
H2886 H 0.4814 0.75633 0.92103 0.0
H2887 H 0.50568 0.7816 0.90083 0.0
H2888 H 0.47607 0.71161 0.93236 0.0
H2889 H 0.49297 0.69467 0.96104 0.0
C2890 C 0.14748 0.77139 0.77984 0.0
C2891 C 0.13652 0.79226 0.76222 0.0
C2892 C 0.19424 0.82137 0.76437 0.0
C2893 C 0.20556 0.79766 0.77735 0.0
N2894 N 0.18795 0.74503 0.79028 0.0
N2895 N 0.15204 0.83372 0.73204 0.0
C2896 C 0.18075 0.77142 0.78343 0.0
C2897 C 0.16075 0.81573 0.7524 0.0
N2898 N 0.12595 0.75078 0.79285 0.0
N2899 N 0.21486 0.85083 0.76568 0.0
H2900 H 0.12837 0.83276 0.72519 0.0
H2901 H 0.16835 0.84844 0.72105 0.0
H2902 H 0.23754 0.8584 0.77916 0.0
H2903 H 0.20781 0.86938 0.75807 0.0
H2904 H 0.1326 0.73726 0.80866 0.0
H2905 H 0.10191 0.74969 0.79021 0.0
H2906 H 0.17066 0.72436 0.7922 0.0
H2907 H 0.21028 0.74195 0.78978 0.0
C2908 C 0.06542 0.44219 0.45669 0.0
C2909 C 0.08403 0.45072 0.4325 0.0
C2910 C 0.08775 0.50702 0.4529 0.0
C2911 C 0.07288 0.49857 0.47918 0.0
N2912 N 0.05169 0.45679 0.50761 0.0
N2913 N 0.11974 0.49375 0.41463 0.0
C2914 C 0.06354 0.46589 0.48166 0.0
C2915 C 0.09698 0.48389 0.43256 0.0
N2916 N 0.04699 0.41161 0.45501 0.0
N2917 N 0.0933 0.53724 0.44713 0.0
H2918 H 0.12839 0.47804 0.40099 0.0
H2919 H 0.13257 0.5175 0.41609 0.0
H2920 H 0.08715 0.55471 0.4611 0.0
H2921 H 0.10222 0.54443 0.42742 0.0
H2922 H 0.03002 0.40508 0.46939 0.0
H2923 H 0.04506 0.39312 0.43711 0.0
H2924 H 0.04946 0.43437 0.5132 0.0
H2925 H 0.04574 0.47188 0.52456 0.0
C2926 C 0.43746 0.26794 0.27379 0.0
C2927 C 0.4544 0.28573 0.25274 0.0
C2928 C 0.41417 0.31649 0.2541 0.0
C2929 C 0.39912 0.30096 0.27745 0.0
N2930 N 0.40055 0.26327 0.31177 0.0
N2931 N 0.46014 0.33139 0.22763 0.0
C2932 C 0.41201 0.27701 0.28774 0.0
C2933 C 0.44296 0.31123 0.2445 0.0
N2934 N 0.44457 0.24116 0.27947 0.0
N2935 N 0.39956 0.33486 0.23896 0.0
H2936 H 0.48064 0.32854 0.21993 0.0
H2937 H 0.45593 0.35255 0.22395 0.0
H2938 H 0.37791 0.33763 0.24353 0.0
H2939 H 0.40671 0.34414 0.21941 0.0
H2940 H 0.43105 0.22468 0.29109 0.0
H2941 H 0.4627 0.23419 0.27033 0.0
H2942 H 0.41045 0.24818 0.32294 0.0
H2943 H 0.3826 0.26911 0.32226 0.0
C2944 C 0.62452 0.55003 0.42416 0.0
C2945 C 0.62897 0.57885 0.41215 0.0
C2946 C 0.60417 0.5988 0.45542 0.0
C2947 C 0.60324 0.5715 0.46949 0.0
N2948 N 0.61647 0.52268 0.46864 0.0
N2949 N 0.62548 0.6321 0.41842 0.0
C2950 C 0.61425 0.54741 0.45404 0.0
C2951 C 0.61919 0.60351 0.42825 0.0
N2952 N 0.62929 0.52468 0.40639 0.0
N2953 N 0.58977 0.61998 0.46751 0.0
H2954 H 0.63546 0.63622 0.39834 0.0
H2955 H 0.62293 0.6524 0.43128 0.0
H2956 H 0.57872 0.61753 0.48718 0.0
H2957 H 0.58625 0.63836 0.45657 0.0
H2958 H 0.62375 0.50204 0.41199 0.0
H2959 H 0.63572 0.52568 0.38423 0.0
H2960 H 0.62775 0.50633 0.46064 0.0
H2961 H 0.60934 0.51994 0.4903 0.0
C2962 C 0.3232 0.89365 0.12789 0.0
C2963 C 0.34339 0.90607 0.10674 0.0
C2964 C 0.38774 0.89251 0.13536 0.0
C2965 C 0.36628 0.87617 0.15322 0.0
N2966 N 0.3146 0.86193 0.16903 0.0
N2967 N 0.39551 0.92069 0.09196 0.0
C2968 C 0.33442 0.87745 0.15062 0.0
C2969 C 0.37597 0.9067 0.11118 0.0
N2970 N 0.29322 0.89684 0.12593 0.0
N2971 N 0.4194 0.8947 0.14194 0.0
H2972 H 0.3888 0.9348 0.0771 0.0
H2973 H 0.41803 0.9184 0.0905 0.0
H2974 H 0.42853 0.88406 0.15931 0.0
H2975 H 0.43715 0.90862 0.13189 0.0
H2976 H 0.27864 0.89152 0.14265 0.0
H2977 H 0.28315 0.90666 0.1085 0.0
H2978 H 0.29013 0.85846 0.16606 0.0
H2979 H 0.32239 0.85115 0.18698 0.0
C2980 C 0.96085 0.58507 0.95991 0.0
C2981 C 0.97176 0.60291 0.93707 0.0
C2982 C 1.02702 0.61573 0.96415 0.0
C2983 C 1.01638 0.59215 0.98253 0.0
N2984 N 0.97314 0.55202 0.99598 0.0
N2985 N 1.01204 0.64661 0.92601 0.0
C2986 C 0.98321 0.57643 0.98017 0.0
C2987 C 1.00406 0.62212 0.94215 0.0
N2988 N 0.92957 0.57793 0.96328 0.0
N2989 N 0.05888 0.63117 0.96716 0.0
H2990 H 0.99461 0.65233 0.91151 0.0
H2991 H 0.03477 0.66255 0.92863 0.0
H2992 H 0.07616 0.62638 0.9826 0.0
H2993 H 0.06858 0.64745 0.95336 0.0
H2994 H 0.92076 0.56699 0.9814 0.0
H2995 H 0.9136 0.58682 0.95044 0.0
H2996 H 0.9494 0.53805 0.99283 0.0
H2997 H 0.98894 0.54358 1.00959 0.0
C2998 C 0.27365 0.26979 0.65132 0.0
C2999 C 0.30066 0.28064 0.63653 0.0
C3000 C 0.32876 0.31606 0.68684 0.0
C3001 C 0.30355 0.30181 0.70268 0.0
N3002 N 0.25408 0.2603 0.69981 0.0
N3003 N 0.35602 0.31111 0.64222 0.0
C3004 C 0.27642 0.27754 0.68481 0.0
C3005 C 0.32871 0.30319 0.65479 0.0
N3006 N 0.24484 0.25271 0.63326 0.0
N3007 N 0.35263 0.34249 0.70223 0.0
H3008 H 0.35728 0.30192 0.61926 0.0
H3009 H 0.37815 0.32448 0.65542 0.0
H3010 H 0.3534 0.35289 0.72534 0.0
H3011 H 0.36982 0.35589 0.69115 0.0
H3012 H 0.22366 0.24689 0.64228 0.0
H3013 H 0.24143 0.24735 0.60876 0.0
H3014 H 0.2359 0.24001 0.68836 0.0
H3015 H 0.25535 0.26424 0.72413 0.0
C3016 C 0.59102 0.55614 0.209 0.0
C3017 C 0.61365 0.58405 0.22732 0.0
C3018 C 0.6168 0.60815 0.17932 0.0
C3019 C 0.59239 0.5812 0.16147 0.0
N3020 N 0.55128 0.53257 0.1618 0.0
N3021 N 0.64152 0.63963 0.2309 0.0
C3022 C 0.578 0.55615 0.17713 0.0
C3023 C 0.62453 0.61094 0.21273 0.0
N3024 N 0.58313 0.52896 0.22131 0.0
N3025 N 0.63415 0.63035 0.16436 0.0
H3026 H 0.64672 0.64309 0.2554 0.0
H3027 H 0.64734 0.66066 0.22199 0.0
H3028 H 0.63022 0.62902 0.14005 0.0
H3029 H 0.65454 0.64845 0.1758 0.0
H3030 H 0.56967 0.50699 0.20797 0.0
H3031 H 0.5925 0.52765 0.24411 0.0
H3032 H 0.53786 0.51542 0.17282 0.0
H3033 H 0.54061 0.53206 0.1389 0.0
C3034 C 0.28652 0.91125 0.90307 0.0
C3035 C 0.27516 0.89804 0.92855 0.0
C3036 C 0.26796 0.84534 0.89829 0.0
C3037 C 0.28954 0.86009 0.87926 0.0
N3038 N 0.32405 0.90893 0.86844 0.0
N3039 N 0.24646 0.85142 0.94674 0.0
C3040 C 0.29998 0.89364 0.88278 0.0
C3041 C 0.26292 0.86454 0.92493 0.0
N3042 N 0.28535 0.94059 0.89879 0.0
N3043 N 0.25143 0.81379 0.89026 0.0
H3044 H 0.23936 0.86523 0.96406 0.0
H3045 H 0.24018 0.82731 0.9477 0.0
H3046 H 0.25346 0.79949 0.87012 0.0
H3047 H 0.23349 0.8025 0.90184 0.0
H3048 H 0.29305 0.95041 0.87967 0.0
H3049 H 0.27285 0.95273 0.91188 0.0
H3050 H 0.33322 0.9336 0.87216 0.0
H3051 H 0.33728 0.89712 0.85608 0.0
C3052 C 1.01633 0.5959 0.74908 0.0
C3053 C 1.02282 0.59034 0.78003 0.0
C3054 C 0.07029 0.57651 0.76811 0.0
C3055 C 0.06012 0.57613 0.73599 0.0
N3056 N 1.02181 0.58296 0.69481 0.0
N3057 N 0.05418 0.57153 0.81855 0.0
C3058 C 0.03297 0.58563 0.72612 0.0
C3059 C 0.04969 0.58022 0.78976 0.0
N3060 N 0.99438 0.61116 0.74177 0.0
N3061 N 0.09936 0.57277 0.77772 0.0
H3062 H 0.03922 0.57246 0.83502 0.0
H3063 H 0.07125 0.56056 0.82509 0.0
H3064 H 0.11473 0.56974 0.76206 0.0
H3065 H 0.10942 0.5758 0.80131 0.0
H3066 H 0.99071 0.61834 0.72024 0.0
H3067 H 0.98227 0.61952 0.75841 0.0
H3068 H 0.99972 0.58541 0.68646 0.0
H3069 H 0.03331 0.57589 0.67697 0.0
C3070 C 0.33331 0.26604 0.43592 0.0
C3071 C 0.30598 0.26464 0.4506 0.0
C3072 C 0.28765 0.29345 0.41044 0.0
C3073 C 0.31307 0.29162 0.39381 0.0
N3074 N 0.35823 0.2725 0.3894 0.0
N3075 N 0.25467 0.27354 0.44846 0.0
C3076 C 0.33551 0.27711 0.40639 0.0
C3077 C 0.28262 0.27766 0.43703 0.0
N3078 N 0.35784 0.25755 0.45077 0.0
N3079 N 0.26869 0.31123 0.40139 0.0
H3080 H 0.25004 0.2624 0.46768 0.0
H3081 H 0.23505 0.27883 0.43739 0.0
H3082 H 0.27193 0.32347 0.38267 0.0
H3083 H 0.25185 0.31637 0.41415 0.0
H3084 H 0.37982 0.2609 0.4434 0.0
H3085 H 0.35721 0.2499 0.47233 0.0
H3086 H 0.37278 0.25862 0.39492 0.0
H3087 H 0.36088 0.28062 0.36825 0.0
C3088 C 0.38238 0.64572 0.53818 0.0
C3089 C 0.36208 0.63969 0.56073 0.0
C3090 C 0.37518 0.59103 0.56642 0.0
C3091 C 0.39653 0.59749 0.54478 0.0
N3092 N 0.42691 0.63518 0.51661 0.0
N3093 N 0.3465 0.61221 0.60308 0.0
C3094 C 0.40213 0.62615 0.53255 0.0
C3095 C 0.36123 0.61437 0.57734 0.0
N3096 N 0.38232 0.66978 0.52186 0.0
N3097 N 0.3667 0.56189 0.57512 0.0
H3098 H 0.33534 0.62854 0.61148 0.0
H3099 H 0.34788 0.59583 0.61773 0.0
H3100 H 0.37532 0.5435 0.56657 0.0
H3101 H 0.34864 0.55488 0.58822 0.0
H3102 H 0.39368 0.67299 0.50246 0.0
H3103 H 0.36955 0.6857 0.52699 0.0
H3104 H 0.4339 0.65731 0.50994 0.0
H3105 H 0.4424 0.62183 0.51266 0.0
C3106 C 0.9466 0.95295 0.56051 0.0
C3107 C 0.9245 0.96183 0.57782 0.0
C3108 C 0.96376 1.01491 0.59648 0.0
C3109 C 0.98292 1.00776 0.57439 0.0
N3110 N 0.9894 0.97055 0.53159 0.0
N3111 N 0.91264 1.00085 0.61436 0.0
C3112 C 0.97373 0.97677 0.55571 0.0
C3113 C 0.93331 0.99273 0.59646 0.0
N3114 N 0.94163 0.92181 0.54827 0.0
N3115 N 0.97536 0.04202 0.61861 0.0
H3116 H 0.89158 0.98459 0.61727 0.0
H3117 H 0.91553 0.02399 0.62513 0.0
H3118 H 0.99802 0.05797 0.62034 0.0
H3119 H 0.96399 0.04728 0.63722 0.0
H3120 H 0.95857 0.91358 0.53821 0.0
H3121 H 0.92212 0.90372 0.55125 0.0
H3122 H 0.98204 0.94926 0.51561 0.0
H3123 H 1.00704 0.98787 0.5246 0.0
C3124 C 0.92847 0.1364 0.29253 0.0
C3125 C 0.94386 0.12798 0.31925 0.0
C3126 C 0.92568 0.16515 0.35424 0.0
C3127 C 0.90971 0.17289 0.32748 0.0
N3128 N 0.90229 0.17231 0.27166 0.0
N3129 N 0.96188 0.13772 0.37508 0.0
C3130 C 0.91339 0.1607 0.29678 0.0
C3131 C 0.94424 0.1439 0.34998 0.0
N3132 N 0.92593 0.11939 0.26327 0.0
N3133 N 0.92211 0.17735 0.38366 0.0
H3134 H 0.976 0.12276 0.37226 0.0
H3135 H 0.96401 0.14817 0.39836 0.0
H3136 H 0.90957 0.19368 0.38758 0.0
H3137 H 0.93033 0.17063 0.40428 0.0
H3138 H 0.91165 0.12152 0.24329 0.0
H3139 H 0.93652 0.10149 0.25926 0.0
H3140 H 0.90696 0.16687 0.24907 0.0
H3141 H 0.89068 0.18964 0.27398 0.0
C3142 C 0.68482 0.16731 0.06185 0.0
C3143 C 0.70836 0.15436 0.07477 0.0
C3144 C 0.6674 0.11051 0.08685 0.0
C3145 C 0.64362 0.12222 0.07213 0.0
N3146 N 0.6295 0.16669 0.05578 0.0
N3147 N 0.72278 0.12162 0.11028 0.0
C3148 C 0.65226 0.15219 0.06268 0.0
C3149 C 0.69987 0.12864 0.09096 0.0
N3150 N 0.69338 0.19347 0.04803 0.0
N3151 N 0.65938 0.08095 0.09452 0.0
H3152 H 0.74691 0.13452 0.11397 0.0
H3153 H 0.7176 0.10521 0.12523 0.0
H3154 H 0.63653 0.06516 0.08825 0.0
H3155 H 0.67596 0.07034 0.10328 0.0
H3156 H 0.67707 0.20151 0.03473 0.0
H3157 H 0.71699 0.20617 0.04794 0.0
H3158 H 0.63461 0.18993 0.05184 0.0
H3159 H 0.60551 0.15659 0.05701 0.0
C3160 C 0.23123 0.50592 0.34826 0.0
C3161 C 0.23374 0.52458 0.32423 0.0
C3162 C 0.2864 0.51898 0.31936 0.0
C3163 C 0.28232 0.49727 0.34046 0.0
N3164 N 0.25074 0.46853 0.37453 0.0
N3165 N 0.26229 0.54662 0.28446 0.0
C3166 C 0.25479 0.49045 0.35506 0.0
C3167 C 0.26076 0.53014 0.30885 0.0
N3168 N 0.20633 0.50311 0.36444 0.0
N3169 N 0.31553 0.53016 0.3106 0.0
H3170 H 0.24541 0.55752 0.27725 0.0
H3171 H 0.27936 0.54776 0.26989 0.0
H3172 H 0.33528 0.52329 0.31882 0.0
H3173 H 0.32119 0.54867 0.29804 0.0
H3174 H 0.20456 0.49272 0.38441 0.0
H3175 H 0.18779 0.51256 0.35854 0.0
H3176 H 0.2305 0.4611 0.38468 0.0
H3177 H 0.26692 0.45606 0.37928 0.0
C3178 C 0.2542 0.46083 0.07248 0.0
C3179 C 0.25976 0.44252 0.04564 0.0
C3180 C 0.22435 0.46252 1.01117 0.0
C3181 C 0.21983 0.48185 0.03784 0.0
N3182 N 0.22388 0.49384 0.09413 0.0
N3183 N 0.24413 0.41941 0.99092 0.0
C3184 C 0.23249 0.47899 0.06861 0.0
C3185 C 0.24255 0.44115 0.01547 0.0
N3186 N 0.27137 0.46264 0.10139 0.0
N3187 N 0.21233 0.46557 0.98166 0.0
H3188 H 0.25699 0.40337 0.99394 0.0
H3189 H 0.23086 0.41538 0.96849 0.0
H3190 H 0.19779 0.4799 0.97765 0.0
H3191 H 0.21816 0.45539 0.96118 0.0
H3192 H 0.27191 0.47881 0.12121 0.0
H3193 H 0.28635 0.44875 0.10533 0.0
H3194 H 0.22951 0.49017 0.11699 0.0
H3195 H 0.20892 0.50808 0.09218 0.0
C3196 C 0.89706 0.95194 0.27118 0.0
C3197 C 0.92811 0.96195 0.28978 0.0
C3198 C 0.91458 0.9142 0.31327 0.0
C3199 C 0.88344 0.90356 0.29451 0.0
N3200 N 0.84927 0.90817 0.24872 0.0
N3201 N 0.96956 0.94589 0.31809 0.0
C3202 C 0.87578 0.92127 0.27146 0.0
C3203 C 0.93797 0.94077 0.30718 0.0
N3204 N 0.88799 0.97158 0.25294 0.0
N3205 N 0.9214 0.90067 0.33863 0.0
H3206 H 0.98751 0.96454 0.31341 0.0
H3207 H 0.9781 0.92948 0.32847 0.0
H3208 H 0.90423 0.88422 0.34713 0.0
H3209 H 0.94301 0.9093 0.35426 0.0
H3210 H 0.86453 0.96759 0.24212 0.0
H3211 H 0.90369 0.99283 0.24989 0.0
H3212 H 0.84395 0.91873 0.22967 0.0
H3213 H 0.83432 0.88511 0.24678 0.0
C3214 C 0.76947 0.18567 0.77943 0.0
C3215 C 0.7383 0.1809 0.78675 0.0
C3216 C 0.74688 0.23825 0.79611 0.0
C3217 C 0.77921 0.24302 0.79263 0.0
N3218 N 0.82232 0.22215 0.78235 0.0
N3219 N 0.69376 0.2019 0.79017 0.0
C3220 C 0.79068 0.21699 0.78406 0.0
C3221 C 0.72585 0.20692 0.79158 0.0
N3222 N 0.77814 0.16032 0.76645 0.0
N3223 N 0.73641 0.26375 0.80454 0.0
H3224 H 0.67707 0.17961 0.78672 0.0
H3225 H 0.68291 0.21972 0.78962 0.0
H3226 H 0.74979 0.28707 0.80476 0.0
H3227 H 0.71504 0.26206 0.81276 0.0
H3228 H 0.79935 0.16234 0.75783 0.0
H3229 H 0.76274 0.13717 0.76125 0.0
H3230 H 0.83304 0.20421 0.7798 0.0
H3231 H 0.83877 0.24471 0.78603 0.0
loop_
_geom_bond_atom_site_label_1
_geom_bond_atom_site_label_2
_geom_bond_distance
_geom_bond_site_symmetry_2
_ccdc_geom_bond_type
Mn0 O5 2.095 . S
Mn0 O15 2.162 . S
Mn0 O16 2.297 . S
Mn0 O24 2.385 1_455 S
Mn0 O25 2.209 . S
Mn0 O26 2.094 . S
Mn1 O6 2.121 . S
Mn1 N8 2.257 . S
Mn1 N17 2.282 . S
Mn1 O25 2.215 . S
Mn1 O27 2.117 . S
C2 O24 1.234 . S
C2 O25 1.283 1_655 S
C3 O15 1.281 . S
C3 O16 1.236 . S
C4 O26 1.240 . S
C4 O27 1.264 . S
O5 Mn0 2.095 . S
O5 C14 1.250 . S
O6 Mn1 2.121 . S
O6 C14 1.258 . S
C7 N8 1.326 . S
C7 C11 1.460 . S
C7 H13 0.929 . S
N8 Mn1 2.257 . S
N8 C7 1.326 . S
N8 C12 1.365 . S
C9 C10 1.258 . S
C9 C12 1.430 1_655 S
C9 C29 1.449 . S
C10 C9 1.258 . S
C10 C11 1.477 1_655 S
C10 H30 0.931 . S
C11 C7 1.460 . S
C11 C10 1.477 1_455 S
C11 H31 0.930 . S
C12 N8 1.365 . S
C12 C9 1.430 1_455 S
C12 C22 1.474 1_455 S
H13 C7 0.929 . S
C14 O5 1.250 . S
C14 O6 1.258 . S
O15 Mn0 2.162 . S
O15 C3 1.281 . S
O16 Mn0 2.297 . S
O16 C3 1.236 . S
N17 Mn1 2.282 . S
N17 C18 1.328 1_455 S
N17 C22 1.318 1_455 S
C18 N17 1.328 1_655 S
C18 C19 1.457 . S
C18 H23 0.936 . S
C19 C18 1.457 . S
C19 C20 1.291 . S
C19 H32 0.931 . S
C20 C19 1.291 . S
C20 C21 1.373 . S
C20 H33 0.929 . S
C21 C20 1.373 . S
C21 C22 1.396 . S
C21 C28 1.403 . S
C22 C12 1.474 1_655 S
C22 N17 1.318 1_655 S
C22 C21 1.396 . S
H23 C18 0.936 . S
O24 Mn0 2.385 1_655 S
O24 C2 1.234 . S
O25 Mn0 2.209 . S
O25 Mn1 2.215 . S
O25 C2 1.283 1_455 S
O26 Mn0 2.094 . S
O26 C4 1.240 . S
O27 Mn1 2.117 . S
O27 C4 1.264 . S
C28 C21 1.403 . S
C28 C29 1.399 . S
C28 H34 0.929 . S
C29 C9 1.449 . S
C29 C28 1.399 . S
C29 H35 0.930 . S
H30 C10 0.931 . S
H31 C11 0.930 . S
H32 C19 0.931 . S
H33 C20 0.929 . S
H34 C28 0.929 . S
H35 C29 0.930 . S
Mn36 O41 2.095 1_455 S
Mn36 O51 2.162 . S
Mn36 O52 2.297 . S
Mn36 O60 2.385 . S
Mn36 O61 2.209 . S
Mn36 O62 2.094 . S
Mn37 O42 2.121 . S
Mn37 N44 2.257 . S
Mn37 N53 2.282 . S
Mn37 O61 2.215 . S
Mn37 O63 2.117 . S
C38 O60 1.234 . S
C38 O61 1.283 . S
C39 O51 1.281 . S
C39 O52 1.236 . S
C40 O62 1.240 . S
C40 O63 1.264 . S
O41 Mn36 2.095 1_655 S
O41 C50 1.250 . S
O42 Mn37 2.121 . S
O42 C50 1.258 1_455 S
C43 N44 1.326 . S
C43 C47 1.460 . S
C43 H49 0.929 . S
N44 Mn37 2.257 . S
N44 C43 1.326 . S
N44 C48 1.362 . S
C45 C46 1.258 . S
C45 C48 1.431 . S
C45 C65 1.449 . S
C46 C45 1.258 . S
C46 C47 1.477 . S
C46 H66 0.931 . S
C47 C43 1.460 . S
C47 C46 1.477 . S
C47 H67 0.930 . S
C48 N44 1.362 . S
C48 C45 1.431 . S
C48 C58 1.476 . S
H49 C43 0.929 . S
C50 O41 1.250 . S
C50 O42 1.258 1_655 S
O51 Mn36 2.162 . S
O51 C39 1.281 . S
O52 Mn36 2.297 . S
O52 C39 1.236 . S
N53 Mn37 2.282 . S
N53 C54 1.328 . S
N53 C58 1.318 . S
C54 N53 1.328 . S
C54 C55 1.457 . S
C54 H59 0.929 . S
C55 C54 1.457 . S
C55 C56 1.291 . S
C55 H68 0.931 . S
C56 C55 1.291 . S
C56 C57 1.373 . S
C56 H69 0.929 . S
C57 C56 1.373 . S
C57 C58 1.396 . S
C57 C64 1.403 . S
C58 C48 1.476 . S
C58 N53 1.318 . S
C58 C57 1.396 . S
H59 C54 0.929 . S
O60 Mn36 2.385 . S
O60 C38 1.234 . S
O61 Mn36 2.209 . S
O61 Mn37 2.215 . S
O61 C38 1.283 . S
O62 Mn36 2.094 . S
O62 C40 1.240 . S
O63 Mn37 2.117 . S
O63 C40 1.264 . S
C64 C57 1.403 . S
C64 C65 1.399 . S
C64 H70 0.929 . S
C65 C45 1.449 . S
C65 C64 1.399 . S
C65 H71 0.930 . S
H66 C46 0.931 . S
H67 C47 0.930 . S
H68 C55 0.931 . S
H69 C56 0.929 . S
H70 C64 0.929 . S
H71 C65 0.930 . S
Mn72 O77 2.095 . S
Mn72 O87 2.162 . S
Mn72 O88 2.297 . S
Mn72 O96 2.385 . S
Mn72 O97 2.209 . S
Mn72 O98 2.094 . S
Mn73 O78 2.121 . S
Mn73 N80 2.257 . S
Mn73 N89 2.282 . S
Mn73 O97 2.215 . S
Mn73 O99 2.117 . S
C74 O96 1.234 . S
C74 O97 1.283 . S
C75 O87 1.281 . S
C75 O88 1.236 . S
C76 O98 1.240 . S
C76 O99 1.264 . S
O77 Mn72 2.095 . S
O77 C86 1.250 . S
O78 Mn73 2.121 . S
O78 C86 1.258 . S
C79 N80 1.326 . S
C79 C83 1.460 . S
C79 H85 0.929 . S
N80 Mn73 2.257 . S
N80 C79 1.326 . S
N80 C84 1.362 . S
C81 C82 1.258 . S
C81 C84 1.431 . S
C81 C101 1.449 . S
C82 C81 1.258 . S
C82 C83 1.477 . S
C82 H102 0.931 . S
C83 C79 1.460 . S
C83 C82 1.477 . S
C83 H103 0.930 . S
C84 N80 1.362 . S
C84 C81 1.431 . S
C84 C94 1.476 . S
H85 C79 0.929 . S
C86 O77 1.250 . S
C86 O78 1.258 . S
O87 Mn72 2.162 . S
O87 C75 1.281 . S
O88 Mn72 2.297 . S
O88 C75 1.236 . S
N89 Mn73 2.282 . S
N89 C90 1.328 . S
N89 C94 1.318 . S
C90 N89 1.328 . S
C90 C91 1.457 . S
C90 H95 0.929 . S
C91 C90 1.457 . S
C91 C92 1.291 . S
C91 H104 0.931 . S
C92 C91 1.291 . S
C92 C93 1.373 . S
C92 H105 0.929 . S
C93 C92 1.373 . S
C93 C94 1.396 . S
C93 C100 1.403 . S
C94 C84 1.476 . S
C94 N89 1.318 . S
C94 C93 1.396 . S
H95 C90 0.929 . S
O96 Mn72 2.385 . S
O96 C74 1.234 . S
O97 Mn72 2.209 . S
O97 Mn73 2.215 . S
O97 C74 1.283 . S
O98 Mn72 2.094 . S
O98 C76 1.240 . S
O99 Mn73 2.117 . S
O99 C76 1.264 . S
C100 C93 1.403 . S
C100 C101 1.399 . S
C100 H106 0.929 . S
C101 C81 1.449 . S
C101 C100 1.399 . S
C101 H107 0.930 . S
H102 C82 0.931 . S
H103 C83 0.930 . S
H104 C91 0.931 . S
H105 C92 0.929 . S
H106 C100 0.929 . S
H107 C101 0.930 . S
Mn108 O113 2.095 . S
Mn108 O123 2.162 . S
Mn108 O124 2.297 . S
Mn108 O132 2.385 . S
Mn108 O133 2.209 . S
Mn108 O134 2.094 . S
Mn109 O114 2.121 . S
Mn109 N116 2.257 . S
Mn109 N125 2.282 . S
Mn109 O133 2.215 . S
Mn109 O135 2.117 . S
C110 O132 1.234 . S
C110 O133 1.283 . S
C111 O123 1.281 . S
C111 O124 1.236 . S
C112 O134 1.240 . S
C112 O135 1.264 . S
O113 Mn108 2.095 . S
O113 C122 1.250 . S
O114 Mn109 2.121 . S
O114 C122 1.258 . S
C115 N116 1.326 . S
C115 C119 1.460 . S
C115 H121 0.929 . S
N116 Mn109 2.257 . S
N116 C115 1.326 . S
N116 C120 1.362 . S
C117 C118 1.258 . S
C117 C120 1.431 . S
C117 C137 1.449 . S
C118 C117 1.258 . S
C118 C119 1.477 . S
C118 H138 0.931 . S
C119 C115 1.460 . S
C119 C118 1.477 . S
C119 H139 0.930 . S
C120 N116 1.362 . S
C120 C117 1.431 . S
C120 C130 1.476 . S
H121 C115 0.929 . S
C122 O113 1.250 . S
C122 O114 1.258 . S
O123 Mn108 2.162 . S
O123 C111 1.281 . S
O124 Mn108 2.297 . S
O124 C111 1.236 . S
N125 Mn109 2.282 . S
N125 C126 1.328 . S
N125 C130 1.318 . S
C126 N125 1.328 . S
C126 C127 1.457 . S
C126 H131 0.929 . S
C127 C126 1.457 . S
C127 C128 1.291 . S
C127 H140 0.931 . S
C128 C127 1.291 . S
C128 C129 1.373 . S
C128 H141 0.929 . S
C129 C128 1.373 . S
C129 C130 1.396 . S
C129 C136 1.403 . S
C130 C120 1.476 . S
C130 N125 1.318 . S
C130 C129 1.396 . S
H131 C126 0.929 . S
O132 Mn108 2.385 . S
O132 C110 1.234 . S
O133 Mn108 2.209 . S
O133 Mn109 2.215 . S
O133 C110 1.283 . S
O134 Mn108 2.094 . S
O134 C112 1.240 . S
O135 Mn109 2.117 . S
O135 C112 1.264 . S
C136 C129 1.403 . S
C136 C137 1.399 . S
C136 H142 0.929 . S
C137 C117 1.449 . S
C137 C136 1.399 . S
C137 H143 0.930 . S
H138 C118 0.931 . S
H139 C119 0.930 . S
H140 C127 0.931 . S
H141 C128 0.929 . S
H142 C136 0.929 . S
H143 C137 0.930 . S
Mn144 O149 2.095 . S
Mn144 O159 2.162 . S
Mn144 O160 2.297 . S
Mn144 O168 2.385 . S
Mn144 O169 2.209 . S
Mn144 O170 2.094 . S
Mn145 O150 2.121 . S
Mn145 N152 2.257 . S
Mn145 N161 2.282 1_455 S
Mn145 O169 2.215 . S
Mn145 O171 2.117 . S
C146 O168 1.234 . S
C146 O169 1.283 . S
C147 O159 1.281 . S
C147 O160 1.236 . S
C148 O170 1.240 . S
C148 O171 1.264 . S
O149 Mn144 2.095 . S
O149 C158 1.250 . S
O150 Mn145 2.121 . S
O150 C158 1.258 . S
C151 N152 1.326 1_556 S
C151 C155 1.460 . S
C151 H157 0.929 . S
N152 Mn145 2.257 . S
N152 C151 1.326 1_554 S
N152 C156 1.362 1_554 S
C153 C154 1.258 . S
C153 C156 1.431 . S
C153 C173 1.449 1_455 S
C154 C153 1.258 . S
C154 C155 1.477 . S
C154 H174 0.931 . S
C155 C151 1.460 . S
C155 C154 1.477 . S
C155 H175 0.930 . S
C156 N152 1.362 1_556 S
C156 C153 1.431 . S
C156 C166 1.476 1_456 S
H157 C151 0.929 . S
C158 O149 1.250 . S
C158 O150 1.258 . S
O159 Mn144 2.162 . S
O159 C147 1.281 . S
O160 Mn144 2.297 . S
O160 C147 1.236 . S
N161 Mn145 2.282 1_655 S
N161 C162 1.328 . S
N161 C166 1.318 . S
C162 N161 1.328 . S
C162 C163 1.457 . S
C162 H167 0.929 . S
C163 C162 1.457 . S
C163 C164 1.291 . S
C163 H176 0.931 . S
C164 C163 1.291 . S
C164 C165 1.373 . S
C164 H177 0.929 . S
C165 C164 1.373 . S
C165 C166 1.396 . S
C165 C172 1.403 1_554 S
C166 C156 1.476 1_654 S
C166 N161 1.318 . S
C166 C165 1.396 . S
H167 C162 0.929 . S
O168 Mn144 2.385 . S
O168 C146 1.234 . S
O169 Mn144 2.209 . S
O169 Mn145 2.215 . S
O169 C146 1.283 . S
O170 Mn144 2.094 . S
O170 C148 1.240 . S
O171 Mn145 2.117 . S
O171 C148 1.264 . S
C172 C165 1.403 1_556 S
C172 C173 1.399 . S
C172 H178 0.929 . S
C173 C153 1.449 1_655 S
C173 C172 1.399 . S
C173 H179 0.930 . S
H174 C154 0.931 . S
H175 C155 0.930 . S
H176 C163 0.931 . S
H177 C164 0.929 . S
H178 C172 0.929 . S
H179 C173 0.930 . S
Mn180 O185 2.095 . S
Mn180 O195 2.162 . S
Mn180 O196 2.297 . S
Mn180 O204 2.385 . S
Mn180 O205 2.209 . S
Mn180 O206 2.094 . S
Mn181 O186 2.121 . S
Mn181 N188 2.257 . S
Mn181 N197 2.282 . S
Mn181 O205 2.215 . S
Mn181 O207 2.117 . S
C182 O204 1.234 . S
C182 O205 1.283 . S
C183 O195 1.281 . S
C183 O196 1.236 . S
C184 O206 1.240 . S
C184 O207 1.264 . S
O185 Mn180 2.095 . S
O185 C194 1.250 . S
O186 Mn181 2.121 . S
O186 C194 1.258 . S
C187 N188 1.326 . S
C187 C191 1.460 . S
C187 H193 0.929 . S
N188 Mn181 2.257 . S
N188 C187 1.326 . S
N188 C192 1.362 . S
C189 C190 1.258 . S
C189 C192 1.431 . S
C189 C209 1.449 . S
C190 C189 1.258 . S
C190 C191 1.477 . S
C190 H210 0.931 . S
C191 C187 1.460 . S
C191 C190 1.477 . S
C191 H211 0.930 . S
C192 N188 1.362 . S
C192 C189 1.431 . S
C192 C202 1.476 . S
H193 C187 0.929 . S
C194 O185 1.250 . S
C194 O186 1.258 . S
O195 Mn180 2.162 . S
O195 C183 1.281 . S
O196 Mn180 2.297 . S
O196 C183 1.236 . S
N197 Mn181 2.282 . S
N197 C198 1.328 . S
N197 C202 1.318 . S
C198 N197 1.328 . S
C198 C199 1.457 . S
C198 H203 0.929 . S
C199 C198 1.457 . S
C199 C200 1.291 . S
C199 H212 0.931 . S
C200 C199 1.291 . S
C200 C201 1.373 . S
C200 H213 0.929 . S
C201 C200 1.373 . S
C201 C202 1.396 . S
C201 C208 1.403 . S
C202 C192 1.476 . S
C202 N197 1.318 . S
C202 C201 1.396 . S
H203 C198 0.929 . S
O204 Mn180 2.385 . S
O204 C182 1.234 . S
O205 Mn180 2.209 . S
O205 Mn181 2.215 . S
O205 C182 1.283 . S
O206 Mn180 2.094 . S
O206 C184 1.240 . S
O207 Mn181 2.117 . S
O207 C184 1.264 . S
C208 C201 1.403 . S
C208 C209 1.399 . S
C208 H214 0.929 . S
C209 C189 1.449 . S
C209 C208 1.399 . S
C209 H215 0.930 . S
H210 C190 0.931 . S
H211 C191 0.930 . S
H212 C199 0.931 . S
H213 C200 0.929 . S
H214 C208 0.929 . S
H215 C209 0.930 . S
Mn216 O221 2.095 . S
Mn216 O231 2.162 . S
Mn216 O232 2.297 . S
Mn216 O240 2.385 . S
Mn216 O241 2.209 . S
Mn216 O242 2.094 . S
Mn217 O222 2.121 . S
Mn217 N224 2.257 . S
Mn217 N233 2.282 . S
Mn217 O241 2.215 . S
Mn217 O243 2.117 . S
C218 O240 1.234 . S
C218 O241 1.283 . S
C219 O231 1.281 . S
C219 O232 1.236 . S
C220 O242 1.240 . S
C220 O243 1.264 . S
O221 Mn216 2.095 . S
O221 C230 1.250 . S
O222 Mn217 2.121 . S
O222 C230 1.258 . S
C223 N224 1.326 . S
C223 C227 1.460 . S
C223 H229 0.929 . S
N224 Mn217 2.257 . S
N224 C223 1.326 . S
N224 C228 1.362 . S
C225 C226 1.258 . S
C225 C228 1.431 . S
C225 C245 1.449 . S
C226 C225 1.258 . S
C226 C227 1.477 . S
C226 H246 0.931 . S
C227 C223 1.460 . S
C227 C226 1.477 . S
C227 H247 0.930 . S
C228 N224 1.362 . S
C228 C225 1.431 . S
C228 C238 1.476 . S
H229 C223 0.929 . S
C230 O221 1.250 . S
C230 O222 1.258 . S
O231 Mn216 2.162 . S
O231 C219 1.281 . S
O232 Mn216 2.297 . S
O232 C219 1.236 . S
N233 Mn217 2.282 . S
N233 C234 1.328 . S
N233 C238 1.318 . S
C234 N233 1.328 . S
C234 C235 1.457 . S
C234 H239 0.929 . S
C235 C234 1.457 . S
C235 C236 1.291 . S
C235 H248 0.931 . S
C236 C235 1.291 . S
C236 C237 1.373 . S
C236 H249 0.929 . S
C237 C236 1.373 . S
C237 C238 1.396 . S
C237 C244 1.403 . S
C238 C228 1.476 . S
C238 N233 1.318 . S
C238 C237 1.396 . S
H239 C234 0.929 . S
O240 Mn216 2.385 . S
O240 C218 1.234 . S
O241 Mn216 2.209 . S
O241 Mn217 2.215 . S
O241 C218 1.283 . S
O242 Mn216 2.094 . S
O242 C220 1.240 . S
O243 Mn217 2.117 . S
O243 C220 1.264 . S
C244 C237 1.403 . S
C244 C245 1.399 . S
C244 H250 0.929 . S
C245 C225 1.449 . S
C245 C244 1.399 . S
C245 H251 0.930 . S
H246 C226 0.931 . S
H247 C227 0.930 . S
H248 C235 0.931 . S
H249 C236 0.929 . S
H250 C244 0.929 . S
H251 C245 0.930 . S
Mn252 O257 2.075 1_655 S
Mn252 O267 2.156 1_656 S
Mn252 O268 2.293 . S
Mn252 O276 2.407 . S
Mn252 O277 2.218 . S
Mn252 O278 2.098 1_656 S
Mn253 O258 2.115 1_655 S
Mn253 N260 2.258 . S
Mn253 N269 2.288 . S
Mn253 O277 2.217 . S
Mn253 O279 2.118 1_655 S
C254 O276 1.234 . S
C254 O277 1.283 . S
C255 O267 1.284 1_655 S
C255 O268 1.236 1_554 S
C256 O278 1.240 . S
C256 O279 1.264 1_554 S
O257 Mn252 2.075 1_455 S
O257 C266 1.250 . S
O258 Mn253 2.115 1_455 S
O258 C266 1.258 . S
C259 N260 1.326 . S
C259 C263 1.460 . S
C259 H265 0.929 1_655 S
N260 Mn253 2.258 . S
N260 C259 1.326 . S
N260 C264 1.362 . S
C261 C262 1.258 . S
C261 C264 1.431 . S
C261 C281 1.449 . S
C262 C261 1.258 . S
C262 C263 1.477 . S
C262 H282 0.931 . S
C263 C259 1.460 . S
C263 C262 1.477 . S
C263 H283 0.930 . S
C264 N260 1.362 . S
C264 C261 1.431 . S
C264 C274 1.476 . S
H265 C259 0.929 1_455 S
C266 O257 1.250 . S
C266 O258 1.258 . S
O267 Mn252 2.156 1_454 S
O267 C255 1.284 1_455 S
O268 Mn252 2.293 . S
O268 C255 1.236 1_556 S
N269 Mn253 2.288 . S
N269 C270 1.328 . S
N269 C274 1.318 . S
C270 N269 1.328 . S
C270 C271 1.457 . S
C270 H275 0.929 . S
C271 C270 1.457 . S
C271 C272 1.291 . S
C271 H284 0.931 . S
C272 C271 1.291 . S
C272 C273 1.373 . S
C272 H285 0.929 . S
C273 C272 1.373 . S
C273 C274 1.396 . S
C273 C280 1.403 . S
C274 C264 1.476 . S
C274 N269 1.318 . S
C274 C273 1.396 . S
H275 C270 0.929 . S
O276 Mn252 2.407 . S
O276 C254 1.234 . S
O277 Mn252 2.218 . S
O277 Mn253 2.217 . S
O277 C254 1.283 . S
O278 Mn252 2.098 1_454 S
O278 C256 1.240 . S
O279 Mn253 2.118 1_455 S
O279 C256 1.264 1_556 S
C280 C273 1.403 . S
C280 C281 1.399 . S
C280 H286 0.929 . S
C281 C261 1.449 . S
C281 C280 1.399 . S
C281 H287 0.930 . S
H282 C262 0.931 . S
H283 C263 0.930 . S
H284 C271 0.931 . S
H285 C272 0.929 . S
H286 C280 0.929 . S
H287 C281 0.930 . S
Mn288 O293 2.095 . S
Mn288 O303 2.162 . S
Mn288 O304 2.297 1_545 S
Mn288 O312 2.385 1_545 S
Mn288 O313 2.209 1_545 S
Mn288 O314 2.094 . S
Mn289 O294 2.121 1_565 S
Mn289 N296 2.257 . S
Mn289 N305 2.282 . S
Mn289 O313 2.215 . S
Mn289 O315 2.117 1_565 S
C290 O312 1.234 . S
C290 O313 1.283 . S
C291 O303 1.281 . S
C291 O304 1.236 1_545 S
C292 O314 1.240 . S
C292 O315 1.264 . S
O293 Mn288 2.095 . S
O293 C302 1.250 . S
O294 Mn289 2.121 1_545 S
O294 C302 1.258 . S
C295 N296 1.326 . S
C295 C299 1.460 . S
C295 H301 0.929 . S
N296 Mn289 2.257 . S
N296 C295 1.326 . S
N296 C300 1.362 . S
C297 C298 1.258 . S
C297 C300 1.431 . S
C297 C317 1.449 . S
C298 C297 1.258 . S
C298 C299 1.477 . S
C298 H318 0.931 . S
C299 C295 1.460 . S
C299 C298 1.477 . S
C299 H319 0.930 . S
C300 N296 1.362 . S
C300 C297 1.431 . S
C300 C310 1.476 . S
H301 C295 0.929 . S
C302 O293 1.250 . S
C302 O294 1.258 . S
O303 Mn288 2.162 . S
O303 C291 1.281 . S
O304 Mn288 2.297 1_565 S
O304 C291 1.236 1_565 S
N305 Mn289 2.282 . S
N305 C306 1.328 . S
N305 C310 1.318 . S
C306 N305 1.328 . S
C306 C307 1.457 . S
C306 H311 0.929 . S
C307 C306 1.457 . S
C307 C308 1.291 . S
C307 H320 0.931 . S
C308 C307 1.291 . S
C308 C309 1.373 . S
C308 H321 0.929 . S
C309 C308 1.373 . S
C309 C310 1.396 . S
C309 C316 1.403 . S
C310 C300 1.476 . S
C310 N305 1.318 . S
C310 C309 1.396 . S
H311 C306 0.929 . S
O312 Mn288 2.385 1_565 S
O312 C290 1.234 . S
O313 Mn288 2.209 1_565 S
O313 Mn289 2.215 . S
O313 C290 1.283 . S
O314 Mn288 2.094 . S
O314 C292 1.240 . S
O315 Mn289 2.117 1_545 S
O315 C292 1.264 . S
C316 C309 1.403 . S
C316 C317 1.399 . S
C316 H322 0.929 . S
C317 C297 1.449 . S
C317 C316 1.399 . S
C317 H323 0.930 . S
H318 C298 0.931 . S
H319 C299 0.930 . S
H320 C307 0.931 . S
H321 C308 0.929 . S
H322 C316 0.929 . S
H323 C317 0.930 . S
Mn324 O329 2.095 . S
Mn324 O339 2.162 . S
Mn324 O340 2.297 . S
Mn324 O348 2.385 . S
Mn324 O349 2.209 . S
Mn324 O350 2.094 . S
Mn325 O330 2.121 . S
Mn325 N332 2.257 . S
Mn325 N341 2.282 . S
Mn325 O349 2.215 . S
Mn325 O351 2.117 . S
C326 O348 1.234 . S
C326 O349 1.283 . S
C327 O339 1.281 . S
C327 O340 1.236 . S
C328 O350 1.240 . S
C328 O351 1.264 . S
O329 Mn324 2.095 . S
O329 C338 1.250 . S
O330 Mn325 2.121 . S
O330 C338 1.258 . S
C331 N332 1.326 . S
C331 C335 1.460 . S
C331 H337 0.929 . S
N332 Mn325 2.257 . S
N332 C331 1.326 . S
N332 C336 1.362 . S
C333 C334 1.258 . S
C333 C336 1.431 . S
C333 C353 1.449 . S
C334 C333 1.258 . S
C334 C335 1.477 . S
C334 H354 0.931 . S
C335 C331 1.460 . S
C335 C334 1.477 . S
C335 H355 0.930 . S
C336 N332 1.362 . S
C336 C333 1.431 . S
C336 C346 1.476 . S
H337 C331 0.929 . S
C338 O329 1.250 . S
C338 O330 1.258 . S
O339 Mn324 2.162 . S
O339 C327 1.281 . S
O340 Mn324 2.297 . S
O340 C327 1.236 . S
N341 Mn325 2.282 . S
N341 C342 1.328 . S
N341 C346 1.318 . S
C342 N341 1.328 . S
C342 C343 1.457 . S
C342 H347 0.929 . S
C343 C342 1.457 . S
C343 C344 1.291 . S
C343 H356 0.931 . S
C344 C343 1.291 . S
C344 C345 1.373 . S
C344 H357 0.929 . S
C345 C344 1.373 . S
C345 C346 1.396 . S
C345 C352 1.403 . S
C346 C336 1.476 . S
C346 N341 1.318 . S
C346 C345 1.396 . S
H347 C342 0.929 . S
O348 Mn324 2.385 . S
O348 C326 1.234 . S
O349 Mn324 2.209 . S
O349 Mn325 2.215 . S
O349 C326 1.283 . S
O350 Mn324 2.094 . S
O350 C328 1.240 . S
O351 Mn325 2.117 . S
O351 C328 1.264 . S
C352 C345 1.403 . S
C352 C353 1.399 . S
C352 H358 0.929 . S
C353 C333 1.449 . S
C353 C352 1.399 . S
C353 H359 0.930 . S
H354 C334 0.931 . S
H355 C335 0.930 . S
H356 C343 0.931 . S
H357 C344 0.929 . S
H358 C352 0.929 . S
H359 C353 0.930 . S
Mn360 O365 2.095 . S
Mn360 O375 2.162 . S
Mn360 O376 2.297 . S
Mn360 O384 2.385 . S
Mn360 O385 2.209 . S
Mn360 O386 2.094 . S
Mn361 O366 2.121 . S
Mn361 N368 2.257 . S
Mn361 N377 2.282 . S
Mn361 O385 2.215 . S
Mn361 O387 2.117 . S
C362 O384 1.234 . S
C362 O385 1.283 . S
C363 O375 1.281 . S
C363 O376 1.236 . S
C364 O386 1.240 . S
C364 O387 1.264 . S
O365 Mn360 2.095 . S
O365 C374 1.250 . S
O366 Mn361 2.121 . S
O366 C374 1.258 . S
C367 N368 1.326 . S
C367 C371 1.460 . S
C367 H373 0.929 . S
N368 Mn361 2.257 . S
N368 C367 1.326 . S
N368 C372 1.362 . S
C369 C370 1.258 . S
C369 C372 1.431 . S
C369 C389 1.449 . S
C370 C369 1.258 . S
C370 C371 1.477 . S
C370 H390 0.931 . S
C371 C367 1.460 . S
C371 C370 1.477 . S
C371 H391 0.930 . S
C372 N368 1.362 . S
C372 C369 1.431 . S
C372 C382 1.476 . S
H373 C367 0.929 . S
C374 O365 1.250 . S
C374 O366 1.258 . S
O375 Mn360 2.162 . S
O375 C363 1.281 . S
O376 Mn360 2.297 . S
O376 C363 1.236 . S
N377 Mn361 2.282 . S
N377 C378 1.328 . S
N377 C382 1.318 . S
C378 N377 1.328 . S
C378 C379 1.457 . S
C378 H383 0.929 . S
C379 C378 1.457 . S
C379 C380 1.291 . S
C379 H392 0.931 . S
C380 C379 1.291 . S
C380 C381 1.373 . S
C380 H393 0.929 . S
C381 C380 1.373 . S
C381 C382 1.396 . S
C381 C388 1.403 . S
C382 C372 1.476 . S
C382 N377 1.318 . S
C382 C381 1.396 . S
H383 C378 0.929 . S
O384 Mn360 2.385 . S
O384 C362 1.234 . S
O385 Mn360 2.209 . S
O385 Mn361 2.215 . S
O385 C362 1.283 . S
O386 Mn360 2.094 . S
O386 C364 1.240 . S
O387 Mn361 2.117 . S
O387 C364 1.264 . S
C388 C381 1.403 . S
C388 C389 1.399 . S
C388 H394 0.929 . S
C389 C369 1.449 . S
C389 C388 1.399 . S
C389 H395 0.930 . S
H390 C370 0.931 . S
H391 C371 0.930 . S
H392 C379 0.931 . S
H393 C380 0.929 . S
H394 C388 0.929 . S
H395 C389 0.930 . S
Mn396 O401 2.095 1_554 S
Mn396 O411 2.162 . S
Mn396 O412 2.297 . S
Mn396 O420 2.385 . S
Mn396 O421 2.209 . S
Mn396 O422 2.094 1_554 S
Mn397 O402 2.121 . S
Mn397 N404 2.257 1_565 S
Mn397 N413 2.282 . S
Mn397 O421 2.215 1_556 S
Mn397 O423 2.117 . S
C398 O420 1.234 . S
C398 O421 1.283 . S
C399 O411 1.281 . S
C399 O412 1.236 . S
C400 O422 1.240 . S
C400 O423 1.264 . S
O401 Mn396 2.095 1_556 S
O401 C410 1.250 . S
O402 Mn397 2.121 . S
O402 C410 1.258 . S
C403 N404 1.326 . S
C403 C407 1.460 . S
C403 H409 0.929 . S
N404 Mn397 2.257 1_545 S
N404 C403 1.326 . S
N404 C408 1.362 . S
C405 C406 1.258 . S
C405 C408 1.431 . S
C405 C425 1.449 . S
C406 C405 1.258 . S
C406 C407 1.477 . S
C406 H426 0.931 . S
C407 C403 1.460 . S
C407 C406 1.477 . S
C407 H427 0.930 1_556 S
C408 N404 1.362 . S
C408 C405 1.431 . S
C408 C418 1.476 . S
H409 C403 0.929 . S
C410 O401 1.250 . S
C410 O402 1.258 . S
O411 Mn396 2.162 . S
O411 C399 1.281 . S
O412 Mn396 2.297 . S
O412 C399 1.236 . S
N413 Mn397 2.282 . S
N413 C414 1.328 . S
N413 C418 1.318 1_565 S
C414 N413 1.328 . S
C414 C415 1.457 . S
C414 H419 0.929 . S
C415 C414 1.457 . S
C415 C416 1.291 1_565 S
C415 H428 0.931 . S
C416 C415 1.291 1_545 S
C416 C417 1.373 . S
C416 H429 0.929 . S
C417 C416 1.373 . S
C417 C418 1.396 . S
C417 C424 1.403 . S
C418 C408 1.476 . S
C418 N413 1.318 1_545 S
C418 C417 1.396 . S
H419 C414 0.929 . S
O420 Mn396 2.385 . S
O420 C398 1.234 . S
O421 Mn396 2.209 . S
O421 Mn397 2.215 1_554 S
O421 C398 1.283 . S
O422 Mn396 2.094 1_556 S
O422 C400 1.240 . S
O423 Mn397 2.117 . S
O423 C400 1.264 . S
C424 C417 1.403 . S
C424 C425 1.399 . S
C424 H430 0.929 . S
C425 C405 1.449 . S
C425 C424 1.399 . S
C425 H431 0.930 . S
H426 C406 0.931 . S
H427 C407 0.930 1_554 S
H428 C415 0.931 . S
H429 C416 0.929 . S
H430 C424 0.929 . S
H431 C425 0.930 . S
Mn432 O437 2.095 . S
Mn432 O447 2.162 . S
Mn432 O448 2.297 . S
Mn432 O456 2.385 . S
Mn432 O457 2.209 . S
Mn432 O458 2.094 . S
Mn433 O438 2.121 . S
Mn433 N440 2.257 . S
Mn433 N449 2.282 1_554 S
Mn433 O457 2.215 . S
Mn433 O459 2.117 1_554 S
C434 O456 1.234 . S
C434 O457 1.283 . S
C435 O447 1.281 . S
C435 O448 1.236 . S
C436 O458 1.240 1_556 S
C436 O459 1.264 . S
O437 Mn432 2.095 . S
O437 C446 1.250 . S
O438 Mn433 2.121 . S
O438 C446 1.258 . S
C439 N440 1.326 . S
C439 C443 1.460 . S
C439 H445 0.929 . S
N440 Mn433 2.257 . S
N440 C439 1.326 . S
N440 C444 1.362 . S
C441 C442 1.258 . S
C441 C444 1.431 . S
C441 C461 1.449 . S
C442 C441 1.258 . S
C442 C443 1.477 . S
C442 H462 0.931 . S
C443 C439 1.460 . S
C443 C442 1.477 . S
C443 H463 0.930 . S
C444 N440 1.362 . S
C444 C441 1.431 . S
C444 C454 1.476 1_554 S
H445 C439 0.929 . S
C446 O437 1.250 . S
C446 O438 1.258 . S
O447 Mn432 2.162 . S
O447 C435 1.281 . S
O448 Mn432 2.297 . S
O448 C435 1.236 . S
N449 Mn433 2.282 1_556 S
N449 C450 1.328 . S
N449 C454 1.318 . S
C450 N449 1.328 . S
C450 C451 1.457 . S
C450 H455 0.929 . S
C451 C450 1.457 . S
C451 C452 1.291 . S
C451 H464 0.931 . S
C452 C451 1.291 . S
C452 C453 1.373 . S
C452 H465 0.929 . S
C453 C452 1.373 . S
C453 C454 1.396 . S
C453 C460 1.403 . S
C454 C444 1.476 1_556 S
C454 N449 1.318 . S
C454 C453 1.396 . S
H455 C450 0.929 . S
O456 Mn432 2.385 . S
O456 C434 1.234 . S
O457 Mn432 2.209 . S
O457 Mn433 2.215 . S
O457 C434 1.283 . S
O458 Mn432 2.094 . S
O458 C436 1.240 1_554 S
O459 Mn433 2.117 1_556 S
O459 C436 1.264 . S
C460 C453 1.403 . S
C460 C461 1.399 1_556 S
C460 H466 0.929 . S
C461 C441 1.449 . S
C461 C460 1.399 1_554 S
C461 H467 0.930 . S
H462 C442 0.931 . S
H463 C443 0.930 . S
H464 C451 0.931 . S
H465 C452 0.929 . S
H466 C460 0.929 . S
H467 C461 0.930 . S
Mn468 O473 2.095 . S
Mn468 O483 2.162 . S
Mn468 O484 2.297 . S
Mn468 O492 2.385 . S
Mn468 O493 2.209 . S
Mn468 O494 2.094 . S
Mn469 O474 2.121 . S
Mn469 N476 2.257 . S
Mn469 N485 2.282 . S
Mn469 O493 2.215 . S
Mn469 O495 2.117 . S
C470 O492 1.234 . S
C470 O493 1.283 . S
C471 O483 1.281 . S
C471 O484 1.236 . S
C472 O494 1.240 . S
C472 O495 1.264 . S
O473 Mn468 2.095 . S
O473 C482 1.250 . S
O474 Mn469 2.121 . S
O474 C482 1.258 . S
C475 N476 1.326 . S
C475 C479 1.460 . S
C475 H481 0.929 . S
N476 Mn469 2.257 . S
N476 C475 1.326 . S
N476 C480 1.362 . S
C477 C478 1.258 . S
C477 C480 1.431 . S
C477 C497 1.447 1_554 S
C478 C477 1.258 . S
C478 C479 1.477 . S
C478 H498 0.931 1_545 S
C479 C475 1.460 . S
C479 C478 1.477 . S
C479 H499 0.930 . S
C480 N476 1.362 . S
C480 C477 1.431 . S
C480 C490 1.476 . S
H481 C475 0.929 . S
C482 O473 1.250 . S
C482 O474 1.258 . S
O483 Mn468 2.162 . S
O483 C471 1.281 . S
O484 Mn468 2.297 . S
O484 C471 1.236 . S
N485 Mn469 2.282 . S
N485 C486 1.318 1_554 S
N485 C490 1.318 . S
C486 N485 1.318 1_556 S
C486 C487 1.463 . S
C486 H491 0.932 1_556 S
C487 C486 1.463 . S
C487 C488 1.291 . S
C487 H500 0.931 . S
C488 C487 1.291 . S
C488 C489 1.373 . S
C488 H501 0.929 . S
C489 C488 1.373 . S
C489 C490 1.396 1_556 S
C489 C496 1.403 . S
C490 C480 1.476 . S
C490 N485 1.318 . S
C490 C489 1.396 1_554 S
H491 C486 0.932 1_554 S
O492 Mn468 2.385 . S
O492 C470 1.234 . S
O493 Mn468 2.209 . S
O493 Mn469 2.215 . S
O493 C470 1.283 . S
O494 Mn468 2.094 . S
O494 C472 1.240 . S
O495 Mn469 2.117 . S
O495 C472 1.264 . S
C496 C489 1.403 . S
C496 C497 1.402 . S
C496 H502 0.929 . S
C497 C477 1.447 1_556 S
C497 C496 1.402 . S
C497 H503 0.929 1_545 S
H498 C478 0.931 1_565 S
H499 C479 0.930 . S
H500 C487 0.931 . S
H501 C488 0.929 . S
H502 C496 0.929 . S
H503 C497 0.929 1_565 S
Mn504 O509 2.095 . S
Mn504 O519 2.162 . S
Mn504 O520 2.297 . S
Mn504 O528 2.385 . S
Mn504 O529 2.209 . S
Mn504 O530 2.094 . S
Mn505 O510 2.121 . S
Mn505 N512 2.257 . S
Mn505 N521 2.282 . S
Mn505 O529 2.215 . S
Mn505 O531 2.117 . S
C506 O528 1.234 . S
C506 O529 1.283 . S
C507 O519 1.281 . S
C507 O520 1.236 . S
C508 O530 1.240 . S
C508 O531 1.264 . S
O509 Mn504 2.095 . S
O509 C518 1.250 . S
O510 Mn505 2.121 . S
O510 C518 1.258 . S
C511 N512 1.326 . S
C511 C515 1.460 . S
C511 H517 0.929 . S
N512 Mn505 2.257 . S
N512 C511 1.326 . S
N512 C516 1.362 . S
C513 C514 1.258 . S
C513 C516 1.431 . S
C513 C533 1.449 . S
C514 C513 1.258 . S
C514 C515 1.477 . S
C514 H534 0.931 . S
C515 C511 1.460 . S
C515 C514 1.477 . S
C515 H535 0.930 . S
C516 N512 1.362 . S
C516 C513 1.431 . S
C516 C526 1.476 . S
H517 C511 0.929 . S
C518 O509 1.250 . S
C518 O510 1.258 . S
O519 Mn504 2.162 . S
O519 C507 1.281 . S
O520 Mn504 2.297 . S
O520 C507 1.236 . S
N521 Mn505 2.282 . S
N521 C522 1.328 . S
N521 C526 1.318 . S
C522 N521 1.328 . S
C522 C523 1.457 . S
C522 H527 0.929 . S
C523 C522 1.457 . S
C523 C524 1.291 . S
C523 H536 0.931 . S
C524 C523 1.291 . S
C524 C525 1.373 . S
C524 H537 0.929 . S
C525 C524 1.373 . S
C525 C526 1.396 . S
C525 C532 1.403 . S
C526 C516 1.476 . S
C526 N521 1.318 . S
C526 C525 1.396 . S
H527 C522 0.929 . S
O528 Mn504 2.385 . S
O528 C506 1.234 . S
O529 Mn504 2.209 . S
O529 Mn505 2.215 . S
O529 C506 1.283 . S
O530 Mn504 2.094 . S
O530 C508 1.240 . S
O531 Mn505 2.117 . S
O531 C508 1.264 . S
C532 C525 1.403 . S
C532 C533 1.399 . S
C532 H538 0.929 . S
C533 C513 1.449 . S
C533 C532 1.399 . S
C533 H539 0.930 . S
H534 C514 0.931 . S
H535 C515 0.930 . S
H536 C523 0.931 . S
H537 C524 0.929 . S
H538 C532 0.929 . S
H539 C533 0.930 . S
Mn540 O545 2.095 . S
Mn540 O555 2.162 . S
Mn540 O556 2.297 . S
Mn540 O564 2.385 . S
Mn540 O565 2.209 . S
Mn540 O566 2.094 . S
Mn541 O546 2.121 . S
Mn541 N548 2.257 . S
Mn541 N557 2.282 . S
Mn541 O565 2.215 . S
Mn541 O567 2.117 . S
C542 O564 1.234 . S
C542 O565 1.283 . S
C543 O555 1.281 . S
C543 O556 1.236 . S
C544 O566 1.240 . S
C544 O567 1.264 . S
O545 Mn540 2.095 . S
O545 C554 1.250 . S
O546 Mn541 2.121 . S
O546 C554 1.258 . S
C547 N548 1.326 1_545 S
C547 C551 1.460 . S
C547 H553 0.929 1_545 S
N548 Mn541 2.257 . S
N548 C547 1.326 1_565 S
N548 C552 1.362 . S
C549 C550 1.258 . S
C549 C552 1.431 1_545 S
C549 C569 1.449 . S
C550 C549 1.258 . S
C550 C551 1.477 . S
C550 H570 0.931 . S
C551 C547 1.460 . S
C551 C550 1.477 . S
C551 H571 0.930 . S
C552 N548 1.362 . S
C552 C549 1.431 1_565 S
C552 C562 1.476 . S
H553 C547 0.929 1_565 S
C554 O545 1.250 . S
C554 O546 1.258 . S
O555 Mn540 2.162 . S
O555 C543 1.281 . S
O556 Mn540 2.297 . S
O556 C543 1.236 . S
N557 Mn541 2.282 . S
N557 C558 1.328 . S
N557 C562 1.318 . S
C558 N557 1.328 . S
C558 C559 1.457 . S
C558 H563 0.929 . S
C559 C558 1.457 . S
C559 C560 1.291 . S
C559 H572 0.931 . S
C560 C559 1.291 . S
C560 C561 1.373 . S
C560 H573 0.929 . S
C561 C560 1.373 . S
C561 C562 1.396 . S
C561 C568 1.403 1_565 S
C562 C552 1.476 . S
C562 N557 1.318 . S
C562 C561 1.396 . S
H563 C558 0.929 . S
O564 Mn540 2.385 . S
O564 C542 1.234 . S
O565 Mn540 2.209 . S
O565 Mn541 2.215 . S
O565 C542 1.283 . S
O566 Mn540 2.094 . S
O566 C544 1.240 . S
O567 Mn541 2.117 . S
O567 C544 1.264 . S
C568 C561 1.403 1_545 S
C568 C569 1.399 . S
C568 H574 0.929 . S
C569 C549 1.449 . S
C569 C568 1.399 . S
C569 H575 0.930 . S
H570 C550 0.931 . S
H571 C551 0.930 . S
H572 C559 0.931 . S
H573 C560 0.929 . S
H574 C568 0.929 . S
H575 C569 0.930 . S
Mn576 O581 2.095 . S
Mn576 O591 2.162 . S
Mn576 O592 2.297 . S
Mn576 O600 2.385 1_545 S
Mn576 O601 2.213 . S
Mn576 O602 2.094 . S
Mn577 O582 2.121 . S
Mn577 N584 2.257 1_545 S
Mn577 N593 2.282 1_545 S
Mn577 O601 2.220 . S
Mn577 O603 2.117 . S
C578 O600 1.234 . S
C578 O601 1.271 1_565 S
C579 O591 1.281 . S
C579 O592 1.236 . S
C580 O602 1.240 . S
C580 O603 1.264 . S
O581 Mn576 2.095 . S
O581 C590 1.250 . S
O582 Mn577 2.121 . S
O582 C590 1.258 . S
C583 N584 1.326 1_545 S
C583 C587 1.460 1_545 S
C583 H589 0.929 . S
N584 Mn577 2.257 1_565 S
N584 C583 1.326 1_565 S
N584 C588 1.362 . S
C585 C586 1.258 . S
C585 C588 1.431 . S
C585 C605 1.449 . S
C586 C585 1.258 . S
C586 C587 1.477 . S
C586 H606 0.931 . S
C587 C583 1.460 1_565 S
C587 C586 1.477 . S
C587 H607 0.930 1_565 S
C588 N584 1.362 . S
C588 C585 1.431 . S
C588 C598 1.476 . S
H589 C583 0.929 . S
C590 O581 1.250 . S
C590 O582 1.258 . S
O591 Mn576 2.162 . S
O591 C579 1.281 . S
O592 Mn576 2.297 . S
O592 C579 1.236 . S
N593 Mn577 2.282 1_565 S
N593 C594 1.328 . S
N593 C598 1.318 . S
C594 N593 1.328 . S
C594 C595 1.457 . S
C594 H599 0.929 . S
C595 C594 1.457 . S
C595 C596 1.291 . S
C595 H608 0.931 . S
C596 C595 1.291 . S
C596 C597 1.373 . S
C596 H609 0.929 . S
C597 C596 1.373 . S
C597 C598 1.396 . S
C597 C604 1.403 . S
C598 C588 1.476 . S
C598 N593 1.318 . S
C598 C597 1.396 . S
H599 C594 0.929 . S
O600 Mn576 2.385 1_565 S
O600 C578 1.234 . S
O601 Mn576 2.213 . S
O601 Mn577 2.220 . S
O601 C578 1.271 1_545 S
O602 Mn576 2.094 . S
O602 C580 1.240 . S
O603 Mn577 2.117 . S
O603 C580 1.264 . S
C604 C597 1.403 . S
C604 C605 1.399 . S
C604 H610 0.929 . S
C605 C585 1.449 . S
C605 C604 1.399 . S
C605 H611 0.930 . S
H606 C586 0.931 . S
H607 C587 0.930 1_545 S
H608 C595 0.931 . S
H609 C596 0.929 . S
H610 C604 0.929 . S
H611 C605 0.930 . S
Mn612 O617 2.095 . S
Mn612 O627 2.162 . S
Mn612 O628 2.297 . S
Mn612 O636 2.385 . S
Mn612 O637 2.209 . S
Mn612 O638 2.094 . S
Mn613 O618 2.121 . S
Mn613 N620 2.257 . S
Mn613 N629 2.282 . S
Mn613 O637 2.215 . S
Mn613 O639 2.117 . S
C614 O636 1.234 . S
C614 O637 1.283 . S
C615 O627 1.281 . S
C615 O628 1.236 . S
C616 O638 1.240 . S
C616 O639 1.264 . S
O617 Mn612 2.095 . S
O617 C626 1.250 . S
O618 Mn613 2.121 . S
O618 C626 1.258 . S
C619 N620 1.326 . S
C619 C623 1.460 . S
C619 H625 0.929 . S
N620 Mn613 2.257 . S
N620 C619 1.326 . S
N620 C624 1.362 . S
C621 C622 1.258 . S
C621 C624 1.431 . S
C621 C641 1.449 . S
C622 C621 1.258 . S
C622 C623 1.477 . S
C622 H642 0.931 . S
C623 C619 1.460 . S
C623 C622 1.477 . S
C623 H643 0.930 . S
C624 N620 1.362 . S
C624 C621 1.431 . S
C624 C634 1.476 . S
H625 C619 0.929 . S
C626 O617 1.250 . S
C626 O618 1.258 . S
O627 Mn612 2.162 . S
O627 C615 1.281 . S
O628 Mn612 2.297 . S
O628 C615 1.236 . S
N629 Mn613 2.282 . S
N629 C630 1.328 . S
N629 C634 1.318 . S
C630 N629 1.328 . S
C630 C631 1.457 . S
C630 H635 0.929 . S
C631 C630 1.457 . S
C631 C632 1.291 . S
C631 H644 0.931 . S
C632 C631 1.291 . S
C632 C633 1.373 . S
C632 H645 0.929 . S
C633 C632 1.373 . S
C633 C634 1.396 . S
C633 C640 1.403 . S
C634 C624 1.476 . S
C634 N629 1.318 . S
C634 C633 1.396 . S
H635 C630 0.929 . S
O636 Mn612 2.385 . S
O636 C614 1.234 . S
O637 Mn612 2.209 . S
O637 Mn613 2.215 . S
O637 C614 1.283 . S
O638 Mn612 2.094 . S
O638 C616 1.240 . S
O639 Mn613 2.117 . S
O639 C616 1.264 . S
C640 C633 1.403 . S
C640 C641 1.399 . S
C640 H646 0.929 . S
C641 C621 1.449 . S
C641 C640 1.399 . S
C641 H647 0.930 . S
H642 C622 0.931 . S
H643 C623 0.930 . S
H644 C631 0.931 . S
H645 C632 0.929 . S
H646 C640 0.929 . S
H647 C641 0.930 . S
Mn648 O653 2.095 . S
Mn648 O663 2.162 . S
Mn648 O664 2.297 . S
Mn648 O672 2.385 . S
Mn648 O673 2.209 . S
Mn648 O674 2.094 . S
Mn649 O654 2.121 . S
Mn649 N656 2.257 . S
Mn649 N665 2.282 . S
Mn649 O673 2.215 . S
Mn649 O675 2.117 . S
C650 O672 1.234 . S
C650 O673 1.283 . S
C651 O663 1.281 . S
C651 O664 1.236 . S
C652 O674 1.240 . S
C652 O675 1.264 . S
O653 Mn648 2.095 . S
O653 C662 1.250 . S
O654 Mn649 2.121 . S
O654 C662 1.258 . S
C655 N656 1.326 . S
C655 C659 1.460 . S
C655 H661 0.929 . S
N656 Mn649 2.257 . S
N656 C655 1.326 . S
N656 C660 1.362 . S
C657 C658 1.258 . S
C657 C660 1.431 . S
C657 C677 1.449 . S
C658 C657 1.258 . S
C658 C659 1.477 . S
C658 H678 0.931 . S
C659 C655 1.460 . S
C659 C658 1.477 . S
C659 H679 0.930 . S
C660 N656 1.362 . S
C660 C657 1.431 . S
C660 C670 1.476 . S
H661 C655 0.929 . S
C662 O653 1.250 . S
C662 O654 1.258 . S
O663 Mn648 2.162 . S
O663 C651 1.281 . S
O664 Mn648 2.297 . S
O664 C651 1.236 . S
N665 Mn649 2.282 . S
N665 C666 1.328 . S
N665 C670 1.318 . S
C666 N665 1.328 . S
C666 C667 1.457 . S
C666 H671 0.929 . S
C667 C666 1.457 . S
C667 C668 1.291 . S
C667 H680 0.931 . S
C668 C667 1.291 . S
C668 C669 1.373 . S
C668 H681 0.929 . S
C669 C668 1.373 . S
C669 C670 1.396 . S
C669 C676 1.403 . S
C670 C660 1.476 . S
C670 N665 1.318 . S
C670 C669 1.396 . S
H671 C666 0.929 . S
O672 Mn648 2.385 . S
O672 C650 1.234 . S
O673 Mn648 2.209 . S
O673 Mn649 2.215 . S
O673 C650 1.283 . S
O674 Mn648 2.094 . S
O674 C652 1.240 . S
O675 Mn649 2.117 . S
O675 C652 1.264 . S
C676 C669 1.403 . S
C676 C677 1.399 . S
C676 H682 0.929 . S
C677 C657 1.449 . S
C677 C676 1.399 . S
C677 H683 0.930 . S
H678 C658 0.931 . S
H679 C659 0.930 . S
H680 C667 0.931 . S
H681 C668 0.929 . S
H682 C676 0.929 . S
H683 C677 0.930 . S
Mn684 O689 2.095 . S
Mn684 O699 2.162 . S
Mn684 O700 2.297 . S
Mn684 O708 2.385 . S
Mn684 O709 2.209 . S
Mn684 O710 2.094 . S
Mn685 O690 2.121 . S
Mn685 N692 2.257 . S
Mn685 N701 2.282 . S
Mn685 O709 2.215 . S
Mn685 O711 2.117 . S
C686 O708 1.234 . S
C686 O709 1.283 . S
C687 O699 1.281 . S
C687 O700 1.236 . S
C688 O710 1.240 . S
C688 O711 1.264 . S
O689 Mn684 2.095 . S
O689 C698 1.250 . S
O690 Mn685 2.121 . S
O690 C698 1.258 . S
C691 N692 1.326 . S
C691 C695 1.460 . S
C691 H697 0.929 . S
N692 Mn685 2.257 . S
N692 C691 1.326 . S
N692 C696 1.362 . S
C693 C694 1.258 . S
C693 C696 1.431 . S
C693 C713 1.449 . S
C694 C693 1.258 . S
C694 C695 1.477 . S
C694 H714 0.931 . S
C695 C691 1.460 . S
C695 C694 1.477 . S
C695 H715 0.930 . S
C696 N692 1.362 . S
C696 C693 1.431 . S
C696 C706 1.476 . S
H697 C691 0.929 . S
C698 O689 1.250 . S
C698 O690 1.258 . S
O699 Mn684 2.162 . S
O699 C687 1.281 . S
O700 Mn684 2.297 . S
O700 C687 1.236 . S
N701 Mn685 2.282 . S
N701 C702 1.328 . S
N701 C706 1.318 . S
C702 N701 1.328 . S
C702 C703 1.457 . S
C702 H707 0.929 . S
C703 C702 1.457 . S
C703 C704 1.291 . S
C703 H716 0.931 . S
C704 C703 1.291 . S
C704 C705 1.373 . S
C704 H717 0.929 . S
C705 C704 1.373 . S
C705 C706 1.396 . S
C705 C712 1.403 . S
C706 C696 1.476 . S
C706 N701 1.318 . S
C706 C705 1.396 . S
H707 C702 0.929 . S
O708 Mn684 2.385 . S
O708 C686 1.234 . S
O709 Mn684 2.209 . S
O709 Mn685 2.215 . S
O709 C686 1.283 . S
O710 Mn684 2.094 . S
O710 C688 1.240 . S
O711 Mn685 2.117 . S
O711 C688 1.264 . S
C712 C705 1.403 . S
C712 C713 1.399 . S
C712 H718 0.929 . S
C713 C693 1.449 . S
C713 C712 1.399 . S
C713 H719 0.930 . S
H714 C694 0.931 . S
H715 C695 0.930 . S
H716 C703 0.931 . S
H717 C704 0.929 . S
H718 C712 0.929 . S
H719 C713 0.930 . S
Mn720 O725 2.095 . S
Mn720 O735 2.162 . S
Mn720 O736 2.297 . S
Mn720 O744 2.385 . S
Mn720 O745 2.209 . S
Mn720 O746 2.094 . S
Mn721 O726 2.121 1_556 S
Mn721 N728 2.257 . S
Mn721 N737 2.282 . S
Mn721 O745 2.215 1_556 S
Mn721 O747 2.117 . S
C722 O744 1.234 . S
C722 O745 1.283 . S
C723 O735 1.281 . S
C723 O736 1.236 . S
C724 O746 1.240 1_556 S
C724 O747 1.264 . S
O725 Mn720 2.095 . S
O725 C734 1.250 . S
O726 Mn721 2.121 1_554 S
O726 C734 1.258 . S
C727 N728 1.326 . S
C727 C731 1.460 . S
C727 H733 0.929 1_556 S
N728 Mn721 2.257 . S
N728 C727 1.326 . S
N728 C732 1.362 . S
C729 C730 1.258 . S
C729 C732 1.431 . S
C729 C749 1.449 . S
C730 C729 1.258 . S
C730 C731 1.477 . S
C730 H750 0.931 . S
C731 C727 1.460 . S
C731 C730 1.477 . S
C731 H751 0.930 1_556 S
C732 N728 1.362 . S
C732 C729 1.431 . S
C732 C742 1.476 . S
H733 C727 0.929 1_554 S
C734 O725 1.250 . S
C734 O726 1.258 . S
O735 Mn720 2.162 . S
O735 C723 1.281 . S
O736 Mn720 2.297 . S
O736 C723 1.236 . S
N737 Mn721 2.282 . S
N737 C738 1.328 . S
N737 C742 1.318 . S
C738 N737 1.328 . S
C738 C739 1.457 . S
C738 H743 0.929 . S
C739 C738 1.457 . S
C739 C740 1.291 . S
C739 H752 0.931 . S
C740 C739 1.291 . S
C740 C741 1.373 . S
C740 H753 0.929 . S
C741 C740 1.373 . S
C741 C742 1.396 . S
C741 C748 1.403 . S
C742 C732 1.476 . S
C742 N737 1.318 . S
C742 C741 1.396 . S
H743 C738 0.929 . S
O744 Mn720 2.385 . S
O744 C722 1.234 . S
O745 Mn720 2.209 . S
O745 Mn721 2.215 1_554 S
O745 C722 1.283 . S
O746 Mn720 2.094 . S
O746 C724 1.240 1_554 S
O747 Mn721 2.117 . S
O747 C724 1.264 . S
C748 C741 1.403 . S
C748 C749 1.399 . S
C748 H754 0.929 . S
C749 C729 1.449 . S
C749 C748 1.399 . S
C749 H755 0.930 . S
H750 C730 0.931 . S
H751 C731 0.930 1_554 S
H752 C739 0.931 . S
H753 C740 0.929 . S
H754 C748 0.929 . S
H755 C749 0.930 . S
Mn756 O761 2.095 . S
Mn756 O771 2.162 . S
Mn756 O772 2.297 . S
Mn756 O780 2.385 . S
Mn756 O781 2.209 . S
Mn756 O782 2.094 . S
Mn757 O762 2.121 . S
Mn757 N764 2.257 . S
Mn757 N773 2.282 . S
Mn757 O781 2.215 . S
Mn757 O783 2.117 . S
C758 O780 1.234 . S
C758 O781 1.283 . S
C759 O771 1.281 . S
C759 O772 1.236 . S
C760 O782 1.240 . S
C760 O783 1.264 . S
O761 Mn756 2.095 . S
O761 C770 1.250 . S
O762 Mn757 2.121 . S
O762 C770 1.258 . S
C763 N764 1.326 . S
C763 C767 1.460 . S
C763 H769 0.929 . S
N764 Mn757 2.257 . S
N764 C763 1.326 . S
N764 C768 1.362 . S
C765 C766 1.258 . S
C765 C768 1.431 . S
C765 C785 1.449 . S
C766 C765 1.258 . S
C766 C767 1.477 . S
C766 H786 0.931 . S
C767 C763 1.460 . S
C767 C766 1.477 . S
C767 H787 0.930 . S
C768 N764 1.362 . S
C768 C765 1.431 . S
C768 C778 1.476 . S
H769 C763 0.929 . S
C770 O761 1.250 . S
C770 O762 1.258 . S
O771 Mn756 2.162 . S
O771 C759 1.281 . S
O772 Mn756 2.297 . S
O772 C759 1.236 . S
N773 Mn757 2.282 . S
N773 C774 1.328 . S
N773 C778 1.318 . S
C774 N773 1.328 . S
C774 C775 1.457 . S
C774 H779 0.929 . S
C775 C774 1.457 . S
C775 C776 1.291 . S
C775 H788 0.931 . S
C776 C775 1.291 . S
C776 C777 1.373 . S
C776 H789 0.929 . S
C777 C776 1.373 . S
C777 C778 1.396 . S
C777 C784 1.403 . S
C778 C768 1.476 . S
C778 N773 1.318 . S
C778 C777 1.396 . S
H779 C774 0.929 . S
O780 Mn756 2.385 . S
O780 C758 1.234 . S
O781 Mn756 2.209 . S
O781 Mn757 2.215 . S
O781 C758 1.283 . S
O782 Mn756 2.094 . S
O782 C760 1.240 . S
O783 Mn757 2.117 . S
O783 C760 1.264 . S
C784 C777 1.403 . S
C784 C785 1.399 . S
C784 H790 0.929 . S
C785 C765 1.449 . S
C785 C784 1.399 . S
C785 H791 0.930 . S
H786 C766 0.931 . S
H787 C767 0.930 . S
H788 C775 0.931 . S
H789 C776 0.929 . S
H790 C784 0.929 . S
H791 C785 0.930 . S
Mn792 O797 2.095 . S
Mn792 O807 2.162 . S
Mn792 O808 2.297 . S
Mn792 O816 2.385 . S
Mn792 O817 2.209 . S
Mn792 O818 2.094 . S
Mn793 O798 2.121 . S
Mn793 N800 2.257 . S
Mn793 N809 2.282 . S
Mn793 O817 2.215 . S
Mn793 O819 2.117 . S
C794 O816 1.234 . S
C794 O817 1.283 . S
C795 O807 1.281 . S
C795 O808 1.236 . S
C796 O818 1.240 . S
C796 O819 1.264 . S
O797 Mn792 2.095 . S
O797 C806 1.250 . S
O798 Mn793 2.121 . S
O798 C806 1.258 . S
C799 N800 1.326 . S
C799 C803 1.460 . S
C799 H805 0.929 . S
N800 Mn793 2.257 . S
N800 C799 1.326 . S
N800 C804 1.362 . S
C801 C802 1.258 . S
C801 C804 1.431 . S
C801 C821 1.449 . S
C802 C801 1.258 . S
C802 C803 1.477 . S
C802 H822 0.931 . S
C803 C799 1.460 . S
C803 C802 1.477 . S
C803 H823 0.930 . S
C804 N800 1.362 . S
C804 C801 1.431 . S
C804 C814 1.476 . S
H805 C799 0.929 . S
C806 O797 1.250 . S
C806 O798 1.258 . S
O807 Mn792 2.162 . S
O807 C795 1.281 . S
O808 Mn792 2.297 . S
O808 C795 1.236 . S
N809 Mn793 2.282 . S
N809 C810 1.328 . S
N809 C814 1.318 . S
C810 N809 1.328 . S
C810 C811 1.457 . S
C810 H815 0.929 . S
C811 C810 1.457 . S
C811 C812 1.291 . S
C811 H824 0.931 . S
C812 C811 1.291 . S
C812 C813 1.373 . S
C812 H825 0.929 . S
C813 C812 1.373 . S
C813 C814 1.396 . S
C813 C820 1.403 . S
C814 C804 1.476 . S
C814 N809 1.318 . S
C814 C813 1.396 . S
H815 C810 0.929 . S
O816 Mn792 2.385 . S
O816 C794 1.234 . S
O817 Mn792 2.209 . S
O817 Mn793 2.215 . S
O817 C794 1.283 . S
O818 Mn792 2.094 . S
O818 C796 1.240 . S
O819 Mn793 2.117 . S
O819 C796 1.264 . S
C820 C813 1.403 . S
C820 C821 1.399 . S
C820 H826 0.929 . S
C821 C801 1.449 . S
C821 C820 1.399 . S
C821 H827 0.930 . S
H822 C802 0.931 . S
H823 C803 0.930 . S
H824 C811 0.931 . S
H825 C812 0.929 . S
H826 C820 0.929 . S
H827 C821 0.930 . S
Mn828 O833 2.095 . S
Mn828 O843 2.162 . S
Mn828 O844 2.297 . S
Mn828 O852 2.385 . S
Mn828 O853 2.209 . S
Mn828 O854 2.094 . S
Mn829 O834 2.121 . S
Mn829 N836 2.257 . S
Mn829 N845 2.282 . S
Mn829 O853 2.215 . S
Mn829 O855 2.117 . S
C830 O852 1.234 . S
C830 O853 1.283 . S
C831 O843 1.281 . S
C831 O844 1.236 . S
C832 O854 1.240 . S
C832 O855 1.264 . S
O833 Mn828 2.095 . S
O833 C842 1.250 . S
O834 Mn829 2.121 . S
O834 C842 1.258 . S
C835 N836 1.326 . S
C835 C839 1.460 . S
C835 H841 0.929 . S
N836 Mn829 2.257 . S
N836 C835 1.326 . S
N836 C840 1.362 . S
C837 C838 1.258 . S
C837 C840 1.431 . S
C837 C857 1.449 . S
C838 C837 1.258 . S
C838 C839 1.477 . S
C838 H858 0.931 . S
C839 C835 1.460 . S
C839 C838 1.477 . S
C839 H859 0.930 . S
C840 N836 1.362 . S
C840 C837 1.431 . S
C840 C850 1.476 . S
H841 C835 0.929 . S
C842 O833 1.250 . S
C842 O834 1.258 . S
O843 Mn828 2.162 . S
O843 C831 1.281 . S
O844 Mn828 2.297 . S
O844 C831 1.236 . S
N845 Mn829 2.282 . S
N845 C846 1.328 . S
N845 C850 1.318 . S
C846 N845 1.328 . S
C846 C847 1.457 . S
C846 H851 0.929 . S
C847 C846 1.457 . S
C847 C848 1.291 . S
C847 H860 0.931 . S
C848 C847 1.291 . S
C848 C849 1.373 . S
C848 H861 0.929 . S
C849 C848 1.373 . S
C849 C850 1.396 . S
C849 C856 1.403 . S
C850 C840 1.476 . S
C850 N845 1.318 . S
C850 C849 1.396 . S
H851 C846 0.929 . S
O852 Mn828 2.385 . S
O852 C830 1.234 . S
O853 Mn828 2.209 . S
O853 Mn829 2.215 . S
O853 C830 1.283 . S
O854 Mn828 2.094 . S
O854 C832 1.240 . S
O855 Mn829 2.117 . S
O855 C832 1.264 . S
C856 C849 1.403 . S
C856 C857 1.399 . S
C856 H862 0.929 . S
C857 C837 1.449 . S
C857 C856 1.399 . S
C857 H863 0.930 . S
H858 C838 0.931 . S
H859 C839 0.930 . S
H860 C847 0.931 . S
H861 C848 0.929 . S
H862 C856 0.929 . S
H863 C857 0.930 . S
Dy864 O867 2.307 . S
Dy864 O869 2.395 . S
Dy864 O870 2.379 . S
Dy864 O872 2.339 . S
Dy864 O874 2.298 . S
Dy864 O878 2.275 . S
Dy864 C886 2.738 . S
Dy865 O868 2.298 1_655 S
Dy865 O871 2.275 1_655 S
Dy865 O873 2.307 1_645 S
Dy865 O875 2.395 . S
Dy865 O876 2.379 1_554 S
Dy865 O879 2.339 1_654 S
Dy865 C895 2.738 . S
C866 O878 1.254 1_556 S
C866 O879 1.257 . S
O867 Dy864 2.307 . S
O867 C877 1.266 . S
O868 Dy865 2.298 1_455 S
O868 C877 1.236 . S
O869 Dy864 2.395 . S
O869 C886 1.255 . S
O870 Dy864 2.379 . S
O870 C886 1.249 . S
O871 Dy865 2.275 1_455 S
O871 C887 1.254 . S
O872 Dy864 2.339 . S
O872 C887 1.257 . S
O873 Dy865 2.307 1_465 S
O873 C888 1.266 . S
O874 Dy864 2.298 . S
O874 C888 1.236 1_545 S
O875 Dy865 2.395 . S
O875 C895 1.255 . S
O876 Dy865 2.379 1_556 S
O876 C895 1.249 1_556 S
C877 O867 1.266 . S
C877 O868 1.236 . S
O878 Dy864 2.275 . S
O878 C866 1.254 1_554 S
O879 Dy865 2.339 1_456 S
O879 C866 1.257 . S
C880 C883 1.344 . S
C880 C884 1.328 . S
C880 C886 1.516 . S
C881 C882 1.304 . S
C881 C885 1.323 . S
C882 C881 1.304 . S
C882 C883 1.371 . S
C882 H896 0.949 . S
C883 C880 1.344 . S
C883 C882 1.371 . S
C883 H897 0.931 . S
C884 C880 1.328 . S
C884 C885 1.433 . S
C884 H898 0.931 . S
C885 C881 1.323 . S
C885 C884 1.433 . S
C885 H899 0.933 . S
C886 Dy864 2.738 . S
C886 O869 1.255 . S
C886 O870 1.249 . S
C886 C880 1.516 . S
C887 O871 1.254 . S
C887 O872 1.257 . S
C888 O873 1.266 . S
C888 O874 1.236 1_565 S
C889 C892 1.344 . S
C889 C893 1.328 1_554 S
C889 C895 1.516 . S
C890 C891 1.304 . S
C890 C894 1.323 1_554 S
C891 C890 1.304 . S
C891 C892 1.371 . S
C891 H900 0.930 . S
C892 C889 1.344 . S
C892 C891 1.371 . S
C892 H901 0.931 . S
C893 C889 1.328 1_556 S
C893 C894 1.433 . S
C893 H902 0.931 . S
C894 C890 1.323 1_556 S
C894 C893 1.433 . S
C894 H903 0.933 . S
C895 Dy865 2.738 . S
C895 O875 1.255 . S
C895 O876 1.249 1_554 S
C895 C889 1.516 . S
H896 C882 0.949 . S
H897 C883 0.931 . S
H898 C884 0.931 . S
H899 C885 0.933 . S
H900 C891 0.930 . S
H901 C892 0.931 . S
H902 C893 0.931 . S
H903 C894 0.933 . S
Dy904 O907 2.307 . S
Dy904 O909 2.395 . S
Dy904 O910 2.379 . S
Dy904 O912 2.339 . S
Dy904 O914 2.298 . S
Dy904 O918 2.275 . S
Dy904 C926 2.738 . S
Dy905 O908 2.298 . S
Dy905 O911 2.275 . S
Dy905 O913 2.307 . S
Dy905 O915 2.395 . S
Dy905 O916 2.379 . S
Dy905 O919 2.339 . S
Dy905 C935 2.738 . S
C906 O918 1.254 . S
C906 O919 1.257 . S
O907 Dy904 2.307 . S
O907 C917 1.266 . S
O908 Dy905 2.298 . S
O908 C917 1.236 . S
O909 Dy904 2.395 . S
O909 C926 1.255 . S
O910 Dy904 2.379 . S
O910 C926 1.249 . S
O911 Dy905 2.275 . S
O911 C927 1.254 . S
O912 Dy904 2.339 . S
O912 C927 1.257 . S
O913 Dy905 2.307 . S
O913 C928 1.266 . S
O914 Dy904 2.298 . S
O914 C928 1.236 . S
O915 Dy905 2.395 . S
O915 C935 1.255 . S
O916 Dy905 2.379 . S
O916 C935 1.249 . S
C917 O907 1.266 . S
C917 O908 1.236 . S
O918 Dy904 2.275 . S
O918 C906 1.254 . S
O919 Dy905 2.339 . S
O919 C906 1.257 . S
C920 C923 1.344 . S
C920 C924 1.328 . S
C920 C926 1.516 . S
C921 C922 1.304 . S
C921 C925 1.323 . S
C922 C921 1.304 . S
C922 C923 1.371 . S
C922 H936 0.930 . S
C923 C920 1.344 . S
C923 C922 1.371 . S
C923 H937 0.931 . S
C924 C920 1.328 . S
C924 C925 1.433 . S
C924 H938 0.931 . S
C925 C921 1.323 . S
C925 C924 1.433 . S
C925 H939 0.933 . S
C926 Dy904 2.738 . S
C926 O909 1.255 . S
C926 O910 1.249 . S
C926 C920 1.516 . S
C927 O911 1.254 . S
C927 O912 1.257 . S
C928 O913 1.266 . S
C928 O914 1.236 . S
C929 C932 1.344 . S
C929 C933 1.328 . S
C929 C935 1.516 . S
C930 C931 1.304 . S
C930 C934 1.323 . S
C931 C930 1.304 . S
C931 C932 1.371 . S
C931 H940 0.930 . S
C932 C929 1.344 . S
C932 C931 1.371 . S
C932 H941 0.931 . S
C933 C929 1.328 . S
C933 C934 1.433 . S
C933 H942 0.931 . S
C934 C930 1.323 . S
C934 C933 1.433 . S
C934 H943 0.933 . S
C935 Dy905 2.738 . S
C935 O915 1.255 . S
C935 O916 1.249 . S
C935 C929 1.516 . S
H936 C922 0.930 . S
H937 C923 0.931 . S
H938 C924 0.931 . S
H939 C925 0.933 . S
H940 C931 0.930 . S
H941 C932 0.931 . S
H942 C933 0.931 . S
H943 C934 0.933 . S
Dy944 O947 2.307 . S
Dy944 O949 2.395 . S
Dy944 O950 2.379 . S
Dy944 O952 2.339 . S
Dy944 O954 2.298 . S
Dy944 O958 2.275 . S
Dy944 C966 2.738 . S
Dy945 O948 2.298 . S
Dy945 O951 2.275 . S
Dy945 O953 2.307 . S
Dy945 O955 2.395 . S
Dy945 O956 2.379 . S
Dy945 O959 2.339 . S
Dy945 C975 2.738 . S
C946 O958 1.254 . S
C946 O959 1.257 . S
O947 Dy944 2.307 . S
O947 C957 1.258 1_545 S
O948 Dy945 2.298 . S
O948 C957 1.231 1_545 S
O949 Dy944 2.395 . S
O949 C966 1.255 . S
O950 Dy944 2.379 . S
O950 C966 1.249 . S
O951 Dy945 2.275 . S
O951 C967 1.254 . S
O952 Dy944 2.339 . S
O952 C967 1.257 . S
O953 Dy945 2.307 . S
O953 C968 1.266 . S
O954 Dy944 2.298 . S
O954 C968 1.236 . S
O955 Dy945 2.395 . S
O955 C975 1.255 . S
O956 Dy945 2.379 . S
O956 C975 1.249 . S
C957 O947 1.258 1_565 S
C957 O948 1.231 1_565 S
O958 Dy944 2.275 . S
O958 C946 1.254 . S
O959 Dy945 2.339 . S
O959 C946 1.257 . S
C960 C963 1.344 . S
C960 C964 1.328 . S
C960 C966 1.516 . S
C961 C962 1.304 . S
C961 C965 1.323 . S
C962 C961 1.304 . S
C962 C963 1.371 . S
C962 H976 0.930 . S
C963 C960 1.344 . S
C963 C962 1.371 . S
C963 H977 0.931 . S
C964 C960 1.328 . S
C964 C965 1.433 . S
C964 H978 0.931 . S
C965 C961 1.323 . S
C965 C964 1.433 . S
C965 H979 0.933 . S
C966 Dy944 2.738 . S
C966 O949 1.255 . S
C966 O950 1.249 . S
C966 C960 1.516 . S
C967 O951 1.254 . S
C967 O952 1.257 . S
C968 O953 1.266 . S
C968 O954 1.236 . S
C969 C972 1.344 . S
C969 C973 1.328 . S
C969 C975 1.516 . S
C970 C971 1.304 . S
C970 C974 1.323 . S
C971 C970 1.304 . S
C971 C972 1.371 1_565 S
C971 H980 0.930 . S
C972 C969 1.344 . S
C972 C971 1.371 1_545 S
C972 H981 0.931 . S
C973 C969 1.328 . S
C973 C974 1.433 1_545 S
C973 H982 0.931 . S
C974 C970 1.323 . S
C974 C973 1.433 1_565 S
C974 H983 0.933 . S
C975 Dy945 2.738 . S
C975 O955 1.255 . S
C975 O956 1.249 . S
C975 C969 1.516 . S
H976 C962 0.930 . S
H977 C963 0.931 . S
H978 C964 0.931 . S
H979 C965 0.933 . S
H980 C971 0.930 . S
H981 C972 0.931 . S
H982 C973 0.931 . S
H983 C974 0.933 . S
Dy984 O987 2.307 . S
Dy984 O989 2.395 . S
Dy984 O990 2.379 . S
Dy984 O992 2.339 . S
Dy984 O994 2.298 . S
Dy984 O998 2.275 . S
Dy984 C1006 2.738 . S
Dy985 O988 2.298 . S
Dy985 O991 2.275 . S
Dy985 O993 2.307 . S
Dy985 O995 2.395 . S
Dy985 O996 2.379 . S
Dy985 O999 2.339 . S
Dy985 C1015 2.738 . S
C986 O998 1.254 . S
C986 O999 1.257 . S
O987 Dy984 2.307 . S
O987 C997 1.266 . S
O988 Dy985 2.298 . S
O988 C997 1.236 . S
O989 Dy984 2.395 . S
O989 C1006 1.255 . S
O990 Dy984 2.379 . S
O990 C1006 1.249 . S
O991 Dy985 2.275 . S
O991 C1007 1.254 . S
O992 Dy984 2.339 . S
O992 C1007 1.257 . S
O993 Dy985 2.307 . S
O993 C1008 1.266 . S
O994 Dy984 2.298 . S
O994 C1008 1.236 . S
O995 Dy985 2.395 . S
O995 C1015 1.255 . S
O996 Dy985 2.379 . S
O996 C1015 1.249 . S
C997 O987 1.266 . S
C997 O988 1.236 . S
O998 Dy984 2.275 . S
O998 C986 1.254 . S
O999 Dy985 2.339 . S
O999 C986 1.257 . S
C1000 C1003 1.344 . S
C1000 C1004 1.328 . S
C1000 C1006 1.516 . S
C1001 C1002 1.304 . S
C1001 C1005 1.323 . S
C1002 C1001 1.304 . S
C1002 C1003 1.371 . S
C1002 H1016 0.930 . S
C1003 C1000 1.344 . S
C1003 C1002 1.371 . S
C1003 H1017 0.931 . S
C1004 C1000 1.328 . S
C1004 C1005 1.433 . S
C1004 H1018 0.931 . S
C1005 C1001 1.323 . S
C1005 C1004 1.433 . S
C1005 H1019 0.933 . S
C1006 Dy984 2.738 . S
C1006 O989 1.255 . S
C1006 O990 1.249 . S
C1006 C1000 1.516 . S
C1007 O991 1.254 . S
C1007 O992 1.257 . S
C1008 O993 1.266 . S
C1008 O994 1.236 . S
C1009 C1012 1.344 . S
C1009 C1013 1.328 . S
C1009 C1015 1.516 . S
C1010 C1011 1.304 . S
C1010 C1014 1.323 . S
C1011 C1010 1.304 . S
C1011 C1012 1.371 . S
C1011 H1020 0.930 . S
C1012 C1009 1.344 . S
C1012 C1011 1.371 . S
C1012 H1021 0.931 . S
C1013 C1009 1.328 . S
C1013 C1014 1.433 . S
C1013 H1022 0.931 . S
C1014 C1010 1.323 . S
C1014 C1013 1.433 . S
C1014 H1023 0.933 . S
C1015 Dy985 2.738 . S
C1015 O995 1.255 . S
C1015 O996 1.249 . S
C1015 C1009 1.516 . S
H1016 C1002 0.930 . S
H1017 C1003 0.931 . S
H1018 C1004 0.931 . S
H1019 C1005 0.933 . S
H1020 C1011 0.930 . S
H1021 C1012 0.931 . S
H1022 C1013 0.931 . S
H1023 C1014 0.933 . S
Dy1024 O1027 2.307 . S
Dy1024 O1029 2.395 1_545 S
Dy1024 O1030 2.379 1_545 S
Dy1024 O1032 2.339 . S
Dy1024 O1034 2.298 . S
Dy1024 O1038 2.275 . S
Dy1024 C1046 2.738 1_545 S
Dy1025 O1028 2.298 . S
Dy1025 O1031 2.275 . S
Dy1025 O1033 2.307 . S
Dy1025 O1035 2.395 . S
Dy1025 O1036 2.379 1_455 S
Dy1025 O1039 2.339 1_455 S
Dy1025 C1055 2.738 . S
C1026 O1038 1.254 1_655 S
C1026 O1039 1.257 . S
O1027 Dy1024 2.307 . S
O1027 C1037 1.266 . S
O1028 Dy1025 2.298 . S
O1028 C1037 1.236 . S
O1029 Dy1024 2.395 1_565 S
O1029 C1046 1.255 . S
O1030 Dy1024 2.379 1_565 S
O1030 C1046 1.249 . S
O1031 Dy1025 2.275 . S
O1031 C1047 1.254 . S
O1032 Dy1024 2.339 . S
O1032 C1047 1.257 . S
O1033 Dy1025 2.307 . S
O1033 C1048 1.266 . S
O1034 Dy1024 2.298 . S
O1034 C1048 1.236 . S
O1035 Dy1025 2.395 . S
O1035 C1055 1.255 . S
O1036 Dy1025 2.379 1_655 S
O1036 C1055 1.249 1_655 S
C1037 O1027 1.266 . S
C1037 O1028 1.236 . S
O1038 Dy1024 2.275 . S
O1038 C1026 1.254 1_455 S
O1039 Dy1025 2.339 1_655 S
O1039 C1026 1.257 . S
C1040 C1043 1.344 . S
C1040 C1044 1.328 . S
C1040 C1046 1.516 . S
C1041 C1042 1.304 . S
C1041 C1045 1.323 . S
C1042 C1041 1.304 . S
C1042 C1043 1.371 . S
C1042 H1056 0.930 . S
C1043 C1040 1.344 . S
C1043 C1042 1.371 . S
C1043 H1057 0.931 . S
C1044 C1040 1.328 . S
C1044 C1045 1.433 . S
C1044 H1058 0.931 . S
C1045 C1041 1.323 . S
C1045 C1044 1.433 . S
C1045 H1059 0.933 . S
C1046 Dy1024 2.738 1_565 S
C1046 O1029 1.255 . S
C1046 O1030 1.249 . S
C1046 C1040 1.516 . S
C1047 O1031 1.254 . S
C1047 O1032 1.257 . S
C1048 O1033 1.266 . S
C1048 O1034 1.236 . S
C1049 C1052 1.344 . S
C1049 C1053 1.328 1_455 S
C1049 C1055 1.516 . S
C1050 C1051 1.304 . S
C1050 C1054 1.323 1_455 S
C1051 C1050 1.304 . S
C1051 C1052 1.371 . S
C1051 H1060 0.930 . S
C1052 C1049 1.344 . S
C1052 C1051 1.371 . S
C1052 H1061 0.931 . S
C1053 C1049 1.328 1_655 S
C1053 C1054 1.433 . S
C1053 H1062 0.931 . S
C1054 C1050 1.323 1_655 S
C1054 C1053 1.433 . S
C1054 H1063 0.933 . S
C1055 Dy1025 2.738 . S
C1055 O1035 1.255 . S
C1055 O1036 1.249 1_455 S
C1055 C1049 1.516 . S
H1056 C1042 0.930 . S
H1057 C1043 0.931 . S
H1058 C1044 0.931 . S
H1059 C1045 0.933 . S
H1060 C1051 0.930 . S
H1061 C1052 0.931 . S
H1062 C1053 0.931 . S
H1063 C1054 0.933 . S
Dy1064 O1067 2.307 . S
Dy1064 O1069 2.395 . S
Dy1064 O1070 2.379 . S
Dy1064 O1072 2.339 . S
Dy1064 O1074 2.298 . S
Dy1064 O1078 2.275 . S
Dy1064 C1086 2.738 . S
Dy1065 O1068 2.298 . S
Dy1065 O1071 2.275 . S
Dy1065 O1073 2.307 . S
Dy1065 O1075 2.395 . S
Dy1065 O1076 2.379 . S
Dy1065 O1079 2.339 . S
Dy1065 C1095 2.738 . S
C1066 O1078 1.254 . S
C1066 O1079 1.257 . S
O1067 Dy1064 2.307 . S
O1067 C1077 1.266 . S
O1068 Dy1065 2.298 . S
O1068 C1077 1.236 . S
O1069 Dy1064 2.395 . S
O1069 C1086 1.255 . S
O1070 Dy1064 2.379 . S
O1070 C1086 1.249 . S
O1071 Dy1065 2.275 . S
O1071 C1087 1.254 . S
O1072 Dy1064 2.339 . S
O1072 C1087 1.257 . S
O1073 Dy1065 2.307 . S
O1073 C1088 1.266 . S
O1074 Dy1064 2.298 . S
O1074 C1088 1.236 . S
O1075 Dy1065 2.395 . S
O1075 C1095 1.255 . S
O1076 Dy1065 2.379 . S
O1076 C1095 1.249 . S
C1077 O1067 1.266 . S
C1077 O1068 1.236 . S
O1078 Dy1064 2.275 . S
O1078 C1066 1.254 . S
O1079 Dy1065 2.339 . S
O1079 C1066 1.257 . S
C1080 C1083 1.344 . S
C1080 C1084 1.328 . S
C1080 C1086 1.516 . S
C1081 C1082 1.304 . S
C1081 C1085 1.323 . S
C1082 C1081 1.304 . S
C1082 C1083 1.371 . S
C1082 H1096 0.930 . S
C1083 C1080 1.344 . S
C1083 C1082 1.371 . S
C1083 H1097 0.931 . S
C1084 C1080 1.328 . S
C1084 C1085 1.433 . S
C1084 H1098 0.931 . S
C1085 C1081 1.323 . S
C1085 C1084 1.433 . S
C1085 H1099 0.933 . S
C1086 Dy1064 2.738 . S
C1086 O1069 1.255 . S
C1086 O1070 1.249 . S
C1086 C1080 1.516 . S
C1087 O1071 1.254 . S
C1087 O1072 1.257 . S
C1088 O1073 1.266 . S
C1088 O1074 1.236 . S
C1089 C1092 1.344 . S
C1089 C1093 1.328 . S
C1089 C1095 1.516 . S
C1090 C1091 1.304 . S
C1090 C1094 1.323 . S
C1091 C1090 1.304 . S
C1091 C1092 1.371 . S
C1091 H1100 0.930 . S
C1092 C1089 1.344 . S
C1092 C1091 1.371 . S
C1092 H1101 0.931 . S
C1093 C1089 1.328 . S
C1093 C1094 1.433 . S
C1093 H1102 0.931 . S
C1094 C1090 1.323 . S
C1094 C1093 1.433 . S
C1094 H1103 0.933 . S
C1095 Dy1065 2.738 . S
C1095 O1075 1.255 . S
C1095 O1076 1.249 . S
C1095 C1089 1.516 . S
H1096 C1082 0.930 . S
H1097 C1083 0.931 . S
H1098 C1084 0.931 . S
H1099 C1085 0.933 . S
H1100 C1091 0.930 . S
H1101 C1092 0.931 . S
H1102 C1093 0.931 . S
H1103 C1094 0.933 . S
Dy1104 O1107 2.307 . S
Dy1104 O1109 2.395 1_554 S
Dy1104 O1110 2.379 1_554 S
Dy1104 O1112 2.339 . S
Dy1104 O1114 2.298 . S
Dy1104 O1118 2.275 . S
Dy1104 C1126 2.738 1_554 S
Dy1105 O1108 2.298 . S
Dy1105 O1111 2.275 . S
Dy1105 O1113 2.307 . S
Dy1105 O1115 2.395 . S
Dy1105 O1116 2.379 . S
Dy1105 O1119 2.345 . S
Dy1105 C1135 2.738 . S
C1106 O1118 1.254 . S
C1106 O1119 1.261 . S
O1107 Dy1104 2.307 . S
O1107 C1117 1.266 . S
O1108 Dy1105 2.298 . S
O1108 C1117 1.236 . S
O1109 Dy1104 2.395 1_556 S
O1109 C1126 1.255 . S
O1110 Dy1104 2.379 1_556 S
O1110 C1126 1.249 . S
O1111 Dy1105 2.275 . S
O1111 C1127 1.254 . S
O1112 Dy1104 2.339 . S
O1112 C1127 1.257 . S
O1113 Dy1105 2.307 . S
O1113 C1128 1.266 . S
O1114 Dy1104 2.298 . S
O1114 C1128 1.236 . S
O1115 Dy1105 2.395 . S
O1115 C1135 1.255 . S
O1116 Dy1105 2.379 . S
O1116 C1135 1.249 . S
C1117 O1107 1.266 . S
C1117 O1108 1.236 . S
O1118 Dy1104 2.275 . S
O1118 C1106 1.254 . S
O1119 Dy1105 2.345 . S
O1119 C1106 1.261 . S
C1120 C1123 1.344 . S
C1120 C1124 1.328 . S
C1120 C1126 1.516 . S
C1121 C1122 1.304 . S
C1121 C1125 1.323 . S
C1122 C1121 1.304 . S
C1122 C1123 1.371 . S
C1122 H1136 0.930 . S
C1123 C1120 1.344 . S
C1123 C1122 1.371 . S
C1123 H1137 0.931 . S
C1124 C1120 1.328 . S
C1124 C1125 1.433 . S
C1124 H1138 0.931 . S
C1125 C1121 1.323 . S
C1125 C1124 1.433 . S
C1125 H1139 0.933 . S
C1126 Dy1104 2.738 1_556 S
C1126 O1109 1.255 . S
C1126 O1110 1.249 . S
C1126 C1120 1.516 . S
C1127 O1111 1.254 . S
C1127 O1112 1.257 . S
C1128 O1113 1.266 . S
C1128 O1114 1.236 . S
C1129 C1132 1.344 . S
C1129 C1133 1.328 1_545 S
C1129 C1135 1.516 . S
C1130 C1131 1.304 1_565 S
C1130 C1134 1.323 . S
C1131 C1130 1.304 1_545 S
C1131 C1132 1.371 . S
C1131 H1140 0.930 . S
C1132 C1129 1.344 . S
C1132 C1131 1.371 . S
C1132 H1141 0.931 . S
C1133 C1129 1.328 1_565 S
C1133 C1134 1.433 . S
C1133 H1142 0.931 . S
C1134 C1130 1.323 . S
C1134 C1133 1.433 . S
C1134 H1143 0.933 . S
C1135 Dy1105 2.738 . S
C1135 O1115 1.255 . S
C1135 O1116 1.249 . S
C1135 C1129 1.516 . S
H1136 C1122 0.930 . S
H1137 C1123 0.931 . S
H1138 C1124 0.931 . S
H1139 C1125 0.933 . S
H1140 C1131 0.930 . S
H1141 C1132 0.931 . S
H1142 C1133 0.931 . S
H1143 C1134 0.933 . S
Dy1144 O1147 2.307 . S
Dy1144 O1149 2.395 . S
Dy1144 O1150 2.379 . S
Dy1144 O1152 2.339 . S
Dy1144 O1154 2.298 . S
Dy1144 O1158 2.275 . S
Dy1144 C1166 2.738 . S
Dy1145 O1148 2.298 . S
Dy1145 O1151 2.275 . S
Dy1145 O1153 2.307 . S
Dy1145 O1155 2.395 . S
Dy1145 O1156 2.379 . S
Dy1145 O1159 2.339 . S
Dy1145 C1175 2.738 . S
C1146 O1158 1.254 . S
C1146 O1159 1.257 . S
O1147 Dy1144 2.307 . S
O1147 C1157 1.266 . S
O1148 Dy1145 2.298 . S
O1148 C1157 1.236 . S
O1149 Dy1144 2.395 . S
O1149 C1166 1.255 . S
O1150 Dy1144 2.379 . S
O1150 C1166 1.249 . S
O1151 Dy1145 2.275 . S
O1151 C1167 1.254 . S
O1152 Dy1144 2.339 . S
O1152 C1167 1.257 . S
O1153 Dy1145 2.307 . S
O1153 C1168 1.266 . S
O1154 Dy1144 2.298 . S
O1154 C1168 1.236 . S
O1155 Dy1145 2.395 . S
O1155 C1175 1.255 . S
O1156 Dy1145 2.379 . S
O1156 C1175 1.249 . S
C1157 O1147 1.266 . S
C1157 O1148 1.236 . S
O1158 Dy1144 2.275 . S
O1158 C1146 1.254 . S
O1159 Dy1145 2.339 . S
O1159 C1146 1.257 . S
C1160 C1163 1.344 . S
C1160 C1164 1.328 . S
C1160 C1166 1.516 . S
C1161 C1162 1.304 . S
C1161 C1165 1.323 . S
C1162 C1161 1.304 . S
C1162 C1163 1.371 . S
C1162 H1176 0.930 . S
C1163 C1160 1.344 . S
C1163 C1162 1.371 . S
C1163 H1177 0.931 . S
C1164 C1160 1.328 . S
C1164 C1165 1.433 . S
C1164 H1178 0.931 . S
C1165 C1161 1.323 . S
C1165 C1164 1.433 . S
C1165 H1179 0.933 . S
C1166 Dy1144 2.738 . S
C1166 O1149 1.255 . S
C1166 O1150 1.249 . S
C1166 C1160 1.516 . S
C1167 O1151 1.254 . S
C1167 O1152 1.257 . S
C1168 O1153 1.266 . S
C1168 O1154 1.236 . S
C1169 C1172 1.344 . S
C1169 C1173 1.328 . S
C1169 C1175 1.516 . S
C1170 C1171 1.304 . S
C1170 C1174 1.323 . S
C1171 C1170 1.304 . S
C1171 C1172 1.371 . S
C1171 H1180 0.930 . S
C1172 C1169 1.344 . S
C1172 C1171 1.371 . S
C1172 H1181 0.931 . S
C1173 C1169 1.328 . S
C1173 C1174 1.433 . S
C1173 H1182 0.931 . S
C1174 C1170 1.323 . S
C1174 C1173 1.433 . S
C1174 H1183 0.933 . S
C1175 Dy1145 2.738 . S
C1175 O1155 1.255 . S
C1175 O1156 1.249 . S
C1175 C1169 1.516 . S
H1176 C1162 0.930 . S
H1177 C1163 0.931 . S
H1178 C1164 0.931 . S
H1179 C1165 0.933 . S
H1180 C1171 0.930 . S
H1181 C1172 0.931 . S
H1182 C1173 0.931 . S
H1183 C1174 0.933 . S
Dy1184 O1187 2.307 1_554 S
Dy1184 O1189 2.395 . S
Dy1184 O1190 2.379 . S
Dy1184 O1192 2.339 . S
Dy1184 O1194 2.298 . S
Dy1184 O1198 2.275 . S
Dy1184 C1206 2.738 . S
Dy1185 O1188 2.298 1_554 S
Dy1185 O1191 2.275 . S
Dy1185 O1193 2.307 . S
Dy1185 O1195 2.395 . S
Dy1185 O1196 2.379 . S
Dy1185 O1199 2.339 . S
Dy1185 C1215 2.738 . S
C1186 O1198 1.254 . S
C1186 O1199 1.257 . S
O1187 Dy1184 2.307 1_556 S
O1187 C1197 1.266 . S
O1188 Dy1185 2.298 1_556 S
O1188 C1197 1.236 . S
O1189 Dy1184 2.395 . S
O1189 C1206 1.255 . S
O1190 Dy1184 2.379 . S
O1190 C1206 1.249 . S
O1191 Dy1185 2.275 . S
O1191 C1207 1.254 . S
O1192 Dy1184 2.339 . S
O1192 C1207 1.257 . S
O1193 Dy1185 2.307 . S
O1193 C1208 1.266 . S
O1194 Dy1184 2.298 . S
O1194 C1208 1.236 . S
O1195 Dy1185 2.395 . S
O1195 C1215 1.255 . S
O1196 Dy1185 2.379 . S
O1196 C1215 1.249 . S
C1197 O1187 1.266 . S
C1197 O1188 1.236 . S
O1198 Dy1184 2.275 . S
O1198 C1186 1.254 . S
O1199 Dy1185 2.339 . S
O1199 C1186 1.257 . S
C1200 C1203 1.344 . S
C1200 C1204 1.328 . S
C1200 C1206 1.516 . S
C1201 C1202 1.304 . S
C1201 C1205 1.323 . S
C1202 C1201 1.304 . S
C1202 C1203 1.371 . S
C1202 H1216 0.930 . S
C1203 C1200 1.344 . S
C1203 C1202 1.371 . S
C1203 H1217 0.931 . S
C1204 C1200 1.328 . S
C1204 C1205 1.433 . S
C1204 H1218 0.931 . S
C1205 C1201 1.323 . S
C1205 C1204 1.433 . S
C1205 H1219 0.933 . S
C1206 Dy1184 2.738 . S
C1206 O1189 1.255 . S
C1206 O1190 1.249 . S
C1206 C1200 1.516 . S
C1207 O1191 1.254 . S
C1207 O1192 1.257 . S
C1208 O1193 1.266 . S
C1208 O1194 1.236 . S
C1209 C1212 1.344 . S
C1209 C1213 1.328 . S
C1209 C1215 1.516 1_556 S
C1210 C1211 1.304 . S
C1210 C1214 1.323 . S
C1211 C1210 1.304 . S
C1211 C1212 1.371 . S
C1211 H1220 0.930 . S
C1212 C1209 1.344 . S
C1212 C1211 1.371 . S
C1212 H1221 0.931 . S
C1213 C1209 1.328 . S
C1213 C1214 1.433 . S
C1213 H1222 0.931 1_556 S
C1214 C1210 1.323 . S
C1214 C1213 1.433 . S
C1214 H1223 0.933 . S
C1215 Dy1185 2.738 . S
C1215 O1195 1.255 . S
C1215 O1196 1.249 . S
C1215 C1209 1.516 1_554 S
H1216 C1202 0.930 . S
H1217 C1203 0.931 . S
H1218 C1204 0.931 . S
H1219 C1205 0.933 . S
H1220 C1211 0.930 . S
H1221 C1212 0.931 . S
H1222 C1213 0.931 1_554 S
H1223 C1214 0.933 . S
Dy1224 O1227 2.307 . S
Dy1224 O1229 2.395 . S
Dy1224 O1230 2.379 . S
Dy1224 O1232 2.339 . S
Dy1224 O1234 2.298 . S
Dy1224 O1238 2.275 . S
Dy1224 C1246 2.738 . S
Dy1225 O1228 2.298 . S
Dy1225 O1231 2.275 . S
Dy1225 O1233 2.307 . S
Dy1225 O1235 2.395 . S
Dy1225 O1236 2.379 . S
Dy1225 O1239 2.339 . S
Dy1225 C1255 2.738 . S
C1226 O1238 1.254 . S
C1226 O1239 1.257 . S
O1227 Dy1224 2.307 . S
O1227 C1237 1.266 . S
O1228 Dy1225 2.298 . S
O1228 C1237 1.236 . S
O1229 Dy1224 2.395 . S
O1229 C1246 1.255 . S
O1230 Dy1224 2.379 . S
O1230 C1246 1.249 . S
O1231 Dy1225 2.275 . S
O1231 C1247 1.254 . S
O1232 Dy1224 2.339 . S
O1232 C1247 1.257 . S
O1233 Dy1225 2.307 . S
O1233 C1248 1.266 . S
O1234 Dy1224 2.298 . S
O1234 C1248 1.236 . S
O1235 Dy1225 2.395 . S
O1235 C1255 1.255 . S
O1236 Dy1225 2.379 . S
O1236 C1255 1.249 . S
C1237 O1227 1.266 . S
C1237 O1228 1.236 . S
O1238 Dy1224 2.275 . S
O1238 C1226 1.254 . S
O1239 Dy1225 2.339 . S
O1239 C1226 1.257 . S
C1240 C1243 1.344 . S
C1240 C1244 1.328 . S
C1240 C1246 1.516 . S
C1241 C1242 1.304 . S
C1241 C1245 1.323 . S
C1242 C1241 1.304 . S
C1242 C1243 1.371 . S
C1242 H1256 0.930 . S
C1243 C1240 1.344 . S
C1243 C1242 1.371 . S
C1243 H1257 0.931 . S
C1244 C1240 1.328 . S
C1244 C1245 1.433 . S
C1244 H1258 0.931 . S
C1245 C1241 1.323 . S
C1245 C1244 1.433 . S
C1245 H1259 0.933 . S
C1246 Dy1224 2.738 . S
C1246 O1229 1.255 . S
C1246 O1230 1.249 . S
C1246 C1240 1.516 . S
C1247 O1231 1.254 . S
C1247 O1232 1.257 . S
C1248 O1233 1.266 . S
C1248 O1234 1.236 . S
C1249 C1252 1.344 . S
C1249 C1253 1.328 . S
C1249 C1255 1.516 . S
C1250 C1251 1.304 . S
C1250 C1254 1.323 . S
C1251 C1250 1.304 . S
C1251 C1252 1.371 . S
C1251 H1260 0.930 . S
C1252 C1249 1.344 . S
C1252 C1251 1.371 . S
C1252 H1261 0.931 . S
C1253 C1249 1.328 . S
C1253 C1254 1.433 . S
C1253 H1262 0.931 . S
C1254 C1250 1.323 . S
C1254 C1253 1.433 . S
C1254 H1263 0.933 . S
C1255 Dy1225 2.738 . S
C1255 O1235 1.255 . S
C1255 O1236 1.249 . S
C1255 C1249 1.516 . S
H1256 C1242 0.930 . S
H1257 C1243 0.931 . S
H1258 C1244 0.931 . S
H1259 C1245 0.933 . S
H1260 C1251 0.930 . S
H1261 C1252 0.931 . S
H1262 C1253 0.931 . S
H1263 C1254 0.933 . S
Dy1264 O1267 2.307 1_455 S
Dy1264 O1269 2.395 . S
Dy1264 O1270 2.379 . S
Dy1264 O1272 2.339 . S
Dy1264 O1274 2.298 . S
Dy1264 O1278 2.275 . S
Dy1264 C1286 2.738 . S
Dy1265 O1268 2.298 1_455 S
Dy1265 O1271 2.275 . S
Dy1265 O1273 2.307 . S
Dy1265 O1275 2.395 . S
Dy1265 O1276 2.379 . S
Dy1265 O1279 2.339 . S
Dy1265 C1295 2.738 . S
C1266 O1278 1.254 . S
C1266 O1279 1.257 . S
O1267 Dy1264 2.307 1_655 S
O1267 C1277 1.266 . S
O1268 Dy1265 2.298 1_655 S
O1268 C1277 1.236 . S
O1269 Dy1264 2.395 . S
O1269 C1286 1.255 . S
O1270 Dy1264 2.379 . S
O1270 C1286 1.249 . S
O1271 Dy1265 2.275 . S
O1271 C1287 1.254 . S
O1272 Dy1264 2.339 . S
O1272 C1287 1.257 . S
O1273 Dy1265 2.307 . S
O1273 C1288 1.266 . S
O1274 Dy1264 2.298 . S
O1274 C1288 1.236 . S
O1275 Dy1265 2.395 . S
O1275 C1295 1.255 . S
O1276 Dy1265 2.379 . S
O1276 C1295 1.249 . S
C1277 O1267 1.266 . S
C1277 O1268 1.236 . S
O1278 Dy1264 2.275 . S
O1278 C1266 1.254 . S
O1279 Dy1265 2.339 . S
O1279 C1266 1.257 . S
C1280 C1283 1.344 . S
C1280 C1284 1.328 . S
C1280 C1286 1.516 . S
C1281 C1282 1.304 . S
C1281 C1285 1.323 . S
C1282 C1281 1.304 . S
C1282 C1283 1.371 . S
C1282 H1296 0.930 . S
C1283 C1280 1.344 . S
C1283 C1282 1.371 . S
C1283 H1297 0.931 . S
C1284 C1280 1.328 . S
C1284 C1285 1.433 . S
C1284 H1298 0.931 . S
C1285 C1281 1.323 . S
C1285 C1284 1.433 . S
C1285 H1299 0.933 . S
C1286 Dy1264 2.738 . S
C1286 O1269 1.255 . S
C1286 O1270 1.249 . S
C1286 C1280 1.516 . S
C1287 O1271 1.254 . S
C1287 O1272 1.257 . S
C1288 O1273 1.266 . S
C1288 O1274 1.236 . S
C1289 C1292 1.344 . S
C1289 C1293 1.328 . S
C1289 C1295 1.516 1_655 S
C1290 C1291 1.304 . S
C1290 C1294 1.323 . S
C1291 C1290 1.304 . S
C1291 C1292 1.371 . S
C1291 H1300 0.930 . S
C1292 C1289 1.344 . S
C1292 C1291 1.371 . S
C1292 H1301 0.931 . S
C1293 C1289 1.328 . S
C1293 C1294 1.433 . S
C1293 H1302 0.931 . S
C1294 C1290 1.323 . S
C1294 C1293 1.433 . S
C1294 H1303 0.933 . S
C1295 Dy1265 2.738 . S
C1295 O1275 1.255 . S
C1295 O1276 1.249 . S
C1295 C1289 1.516 1_455 S
H1296 C1282 0.930 . S
H1297 C1283 0.931 . S
H1298 C1284 0.931 . S
H1299 C1285 0.933 . S
H1300 C1291 0.930 . S
H1301 C1292 0.931 . S
H1302 C1293 0.931 . S
H1303 C1294 0.933 . S
Dy1304 O1307 2.307 . S
Dy1304 O1309 2.395 . S
Dy1304 O1310 2.379 . S
Dy1304 O1312 2.339 . S
Dy1304 O1314 2.298 . S
Dy1304 O1318 2.275 . S
Dy1304 C1326 2.738 . S
Dy1305 O1308 2.298 . S
Dy1305 O1311 2.275 . S
Dy1305 O1313 2.307 . S
Dy1305 O1315 2.395 . S
Dy1305 O1316 2.379 . S
Dy1305 O1319 2.339 . S
Dy1305 C1335 2.738 . S
C1306 O1318 1.254 . S
C1306 O1319 1.257 . S
O1307 Dy1304 2.307 . S
O1307 C1317 1.266 . S
O1308 Dy1305 2.298 . S
O1308 C1317 1.236 . S
O1309 Dy1304 2.395 . S
O1309 C1326 1.255 . S
O1310 Dy1304 2.379 . S
O1310 C1326 1.249 . S
O1311 Dy1305 2.275 . S
O1311 C1327 1.254 . S
O1312 Dy1304 2.339 . S
O1312 C1327 1.257 . S
O1313 Dy1305 2.307 . S
O1313 C1328 1.266 . S
O1314 Dy1304 2.298 . S
O1314 C1328 1.236 . S
O1315 Dy1305 2.395 . S
O1315 C1335 1.255 . S
O1316 Dy1305 2.379 . S
O1316 C1335 1.249 . S
C1317 O1307 1.266 . S
C1317 O1308 1.236 . S
O1318 Dy1304 2.275 . S
O1318 C1306 1.254 . S
O1319 Dy1305 2.339 . S
O1319 C1306 1.257 . S
C1320 C1323 1.344 . S
C1320 C1324 1.328 . S
C1320 C1326 1.516 . S
C1321 C1322 1.304 . S
C1321 C1325 1.323 . S
C1322 C1321 1.304 . S
C1322 C1323 1.371 . S
C1322 H1336 0.930 . S
C1323 C1320 1.344 . S
C1323 C1322 1.371 . S
C1323 H1337 0.931 . S
C1324 C1320 1.328 . S
C1324 C1325 1.433 . S
C1324 H1338 0.931 . S
C1325 C1321 1.323 . S
C1325 C1324 1.433 . S
C1325 H1339 0.933 . S
C1326 Dy1304 2.738 . S
C1326 O1309 1.255 . S
C1326 O1310 1.249 . S
C1326 C1320 1.516 . S
C1327 O1311 1.254 . S
C1327 O1312 1.257 . S
C1328 O1313 1.266 . S
C1328 O1314 1.236 . S
C1329 C1332 1.344 . S
C1329 C1333 1.328 . S
C1329 C1335 1.516 . S
C1330 C1331 1.304 . S
C1330 C1334 1.323 . S
C1331 C1330 1.304 . S
C1331 C1332 1.371 . S
C1331 H1340 0.930 . S
C1332 C1329 1.344 . S
C1332 C1331 1.371 . S
C1332 H1341 0.931 . S
C1333 C1329 1.328 . S
C1333 C1334 1.433 . S
C1333 H1342 0.931 . S
C1334 C1330 1.323 . S
C1334 C1333 1.433 . S
C1334 H1343 0.933 . S
C1335 Dy1305 2.738 . S
C1335 O1315 1.255 . S
C1335 O1316 1.249 . S
C1335 C1329 1.516 . S
H1336 C1322 0.930 . S
H1337 C1323 0.931 . S
H1338 C1324 0.931 . S
H1339 C1325 0.933 . S
H1340 C1331 0.930 . S
H1341 C1332 0.931 . S
H1342 C1333 0.931 . S
H1343 C1334 0.933 . S
Dy1344 O1347 2.307 . S
Dy1344 O1349 2.395 . S
Dy1344 O1350 2.379 . S
Dy1344 O1352 2.339 . S
Dy1344 O1354 2.298 . S
Dy1344 O1358 2.275 . S
Dy1344 C1366 2.738 . S
Dy1345 O1348 2.298 . S
Dy1345 O1351 2.275 . S
Dy1345 O1353 2.307 . S
Dy1345 O1355 2.395 . S
Dy1345 O1356 2.379 . S
Dy1345 O1359 2.339 . S
Dy1345 C1375 2.738 . S
C1346 O1358 1.254 . S
C1346 O1359 1.257 . S
O1347 Dy1344 2.307 . S
O1347 C1357 1.266 . S
O1348 Dy1345 2.298 . S
O1348 C1357 1.236 . S
O1349 Dy1344 2.395 . S
O1349 C1366 1.255 . S
O1350 Dy1344 2.379 . S
O1350 C1366 1.249 . S
O1351 Dy1345 2.275 . S
O1351 C1367 1.254 . S
O1352 Dy1344 2.339 . S
O1352 C1367 1.257 . S
O1353 Dy1345 2.307 . S
O1353 C1368 1.266 . S
O1354 Dy1344 2.298 . S
O1354 C1368 1.236 . S
O1355 Dy1345 2.395 . S
O1355 C1375 1.255 . S
O1356 Dy1345 2.379 . S
O1356 C1375 1.249 . S
C1357 O1347 1.266 . S
C1357 O1348 1.236 . S
O1358 Dy1344 2.275 . S
O1358 C1346 1.254 . S
O1359 Dy1345 2.339 . S
O1359 C1346 1.257 . S
C1360 C1363 1.344 . S
C1360 C1364 1.328 . S
C1360 C1366 1.516 . S
C1361 C1362 1.304 . S
C1361 C1365 1.323 . S
C1362 C1361 1.304 . S
C1362 C1363 1.371 . S
C1362 H1376 0.930 . S
C1363 C1360 1.344 . S
C1363 C1362 1.371 . S
C1363 H1377 0.931 . S
C1364 C1360 1.328 . S
C1364 C1365 1.433 . S
C1364 H1378 0.931 . S
C1365 C1361 1.323 . S
C1365 C1364 1.433 . S
C1365 H1379 0.933 . S
C1366 Dy1344 2.738 . S
C1366 O1349 1.255 . S
C1366 O1350 1.249 . S
C1366 C1360 1.516 . S
C1367 O1351 1.254 . S
C1367 O1352 1.257 . S
C1368 O1353 1.266 . S
C1368 O1354 1.236 . S
C1369 C1372 1.344 . S
C1369 C1373 1.328 . S
C1369 C1375 1.516 . S
C1370 C1371 1.304 . S
C1370 C1374 1.323 . S
C1371 C1370 1.304 . S
C1371 C1372 1.371 . S
C1371 H1380 0.930 . S
C1372 C1369 1.344 . S
C1372 C1371 1.371 . S
C1372 H1381 0.931 . S
C1373 C1369 1.328 . S
C1373 C1374 1.433 . S
C1373 H1382 0.931 . S
C1374 C1370 1.323 . S
C1374 C1373 1.433 . S
C1374 H1383 0.933 . S
C1375 Dy1345 2.738 . S
C1375 O1355 1.255 . S
C1375 O1356 1.249 . S
C1375 C1369 1.516 . S
H1376 C1362 0.930 . S
H1377 C1363 0.931 . S
H1378 C1364 0.931 . S
H1379 C1365 0.933 . S
H1380 C1371 0.930 . S
H1381 C1372 0.931 . S
H1382 C1373 0.931 . S
H1383 C1374 0.933 . S
Dy1384 O1387 2.307 . S
Dy1384 O1389 2.395 . S
Dy1384 O1390 2.379 . S
Dy1384 O1392 2.339 . S
Dy1384 O1394 2.298 . S
Dy1384 O1398 2.275 . S
Dy1384 C1406 2.738 . S
Dy1385 O1388 2.298 . S
Dy1385 O1391 2.275 . S
Dy1385 O1393 2.307 . S
Dy1385 O1395 2.395 . S
Dy1385 O1396 2.379 . S
Dy1385 O1399 2.339 . S
Dy1385 C1415 2.738 . S
C1386 O1398 1.254 . S
C1386 O1399 1.257 . S
O1387 Dy1384 2.307 . S
O1387 C1397 1.266 . S
O1388 Dy1385 2.298 . S
O1388 C1397 1.236 . S
O1389 Dy1384 2.395 . S
O1389 C1406 1.255 . S
O1390 Dy1384 2.379 . S
O1390 C1406 1.249 . S
O1391 Dy1385 2.275 . S
O1391 C1407 1.254 . S
O1392 Dy1384 2.339 . S
O1392 C1407 1.257 . S
O1393 Dy1385 2.307 . S
O1393 C1408 1.266 . S
O1394 Dy1384 2.298 . S
O1394 C1408 1.236 . S
O1395 Dy1385 2.395 . S
O1395 C1415 1.255 . S
O1396 Dy1385 2.379 . S
O1396 C1415 1.249 . S
C1397 O1387 1.266 . S
C1397 O1388 1.236 . S
O1398 Dy1384 2.275 . S
O1398 C1386 1.254 . S
O1399 Dy1385 2.339 . S
O1399 C1386 1.257 . S
C1400 C1403 1.344 . S
C1400 C1404 1.328 . S
C1400 C1406 1.516 . S
C1401 C1402 1.304 . S
C1401 C1405 1.323 . S
C1402 C1401 1.304 . S
C1402 C1403 1.371 . S
C1402 H1416 0.930 . S
C1403 C1400 1.344 . S
C1403 C1402 1.371 . S
C1403 H1417 0.931 . S
C1404 C1400 1.328 . S
C1404 C1405 1.433 . S
C1404 H1418 0.931 . S
C1405 C1401 1.323 . S
C1405 C1404 1.433 . S
C1405 H1419 0.933 . S
C1406 Dy1384 2.738 . S
C1406 O1389 1.255 . S
C1406 O1390 1.249 . S
C1406 C1400 1.516 . S
C1407 O1391 1.254 . S
C1407 O1392 1.257 . S
C1408 O1393 1.266 . S
C1408 O1394 1.236 . S
C1409 C1412 1.344 . S
C1409 C1413 1.328 . S
C1409 C1415 1.516 . S
C1410 C1411 1.304 . S
C1410 C1414 1.323 . S
C1411 C1410 1.304 . S
C1411 C1412 1.371 . S
C1411 H1420 0.930 . S
C1412 C1409 1.344 . S
C1412 C1411 1.371 . S
C1412 H1421 0.931 . S
C1413 C1409 1.328 . S
C1413 C1414 1.433 . S
C1413 H1422 0.931 . S
C1414 C1410 1.323 . S
C1414 C1413 1.433 . S
C1414 H1423 0.933 . S
C1415 Dy1385 2.738 . S
C1415 O1395 1.255 . S
C1415 O1396 1.249 . S
C1415 C1409 1.516 . S
H1416 C1402 0.930 . S
H1417 C1403 0.931 . S
H1418 C1404 0.931 . S
H1419 C1405 0.933 . S
H1420 C1411 0.930 . S
H1421 C1412 0.931 . S
H1422 C1413 0.931 . S
H1423 C1414 0.933 . S
Dy1424 O1427 2.307 . S
Dy1424 O1429 2.395 . S
Dy1424 O1430 2.379 . S
Dy1424 O1432 2.339 . S
Dy1424 O1434 2.298 . S
Dy1424 O1438 2.275 . S
Dy1424 C1446 2.738 . S
Dy1425 O1428 2.298 . S
Dy1425 O1431 2.275 . S
Dy1425 O1433 2.307 . S
Dy1425 O1435 2.395 . S
Dy1425 O1436 2.379 . S
Dy1425 O1439 2.339 . S
Dy1425 C1455 2.738 . S
C1426 O1438 1.254 . S
C1426 O1439 1.257 . S
O1427 Dy1424 2.307 . S
O1427 C1437 1.266 . S
O1428 Dy1425 2.298 . S
O1428 C1437 1.236 . S
O1429 Dy1424 2.395 . S
O1429 C1446 1.255 . S
O1430 Dy1424 2.379 . S
O1430 C1446 1.249 . S
O1431 Dy1425 2.275 . S
O1431 C1447 1.254 . S
O1432 Dy1424 2.339 . S
O1432 C1447 1.257 . S
O1433 Dy1425 2.307 . S
O1433 C1448 1.266 . S
O1434 Dy1424 2.298 . S
O1434 C1448 1.236 . S
O1435 Dy1425 2.395 . S
O1435 C1455 1.255 . S
O1436 Dy1425 2.379 . S
O1436 C1455 1.249 . S
C1437 O1427 1.266 . S
C1437 O1428 1.236 . S
O1438 Dy1424 2.275 . S
O1438 C1426 1.254 . S
O1439 Dy1425 2.339 . S
O1439 C1426 1.257 . S
C1440 C1443 1.344 . S
C1440 C1444 1.328 . S
C1440 C1446 1.516 . S
C1441 C1442 1.304 . S
C1441 C1445 1.323 . S
C1442 C1441 1.304 . S
C1442 C1443 1.371 . S
C1442 H1456 0.930 . S
C1443 C1440 1.344 . S
C1443 C1442 1.371 . S
C1443 H1457 0.931 . S
C1444 C1440 1.328 . S
C1444 C1445 1.433 . S
C1444 H1458 0.931 . S
C1445 C1441 1.323 . S
C1445 C1444 1.433 . S
C1445 H1459 0.933 . S
C1446 Dy1424 2.738 . S
C1446 O1429 1.255 . S
C1446 O1430 1.249 . S
C1446 C1440 1.516 . S
C1447 O1431 1.254 . S
C1447 O1432 1.257 . S
C1448 O1433 1.266 . S
C1448 O1434 1.236 . S
C1449 C1452 1.344 . S
C1449 C1453 1.328 . S
C1449 C1455 1.516 . S
C1450 C1451 1.304 . S
C1450 C1454 1.323 . S
C1451 C1450 1.304 . S
C1451 C1452 1.371 . S
C1451 H1460 0.930 . S
C1452 C1449 1.344 . S
C1452 C1451 1.371 . S
C1452 H1461 0.931 . S
C1453 C1449 1.328 . S
C1453 C1454 1.433 . S
C1453 H1462 0.931 . S
C1454 C1450 1.323 . S
C1454 C1453 1.433 . S
C1454 H1463 0.933 . S
C1455 Dy1425 2.738 . S
C1455 O1435 1.255 . S
C1455 O1436 1.249 . S
C1455 C1449 1.516 . S
H1456 C1442 0.930 . S
H1457 C1443 0.931 . S
H1458 C1444 0.931 . S
H1459 C1445 0.933 . S
H1460 C1451 0.930 . S
H1461 C1452 0.931 . S
H1462 C1453 0.931 . S
H1463 C1454 0.933 . S
Dy1464 O1467 2.307 . S
Dy1464 O1469 2.395 1_455 S
Dy1464 O1470 2.379 1_455 S
Dy1464 O1472 2.339 . S
Dy1464 O1474 2.298 . S
Dy1464 O1478 2.275 . S
Dy1464 C1486 2.738 1_455 S
Dy1465 O1468 2.298 . S
Dy1465 O1471 2.275 . S
Dy1465 O1473 2.307 . S
Dy1465 O1475 2.395 . S
Dy1465 O1476 2.379 1_554 S
Dy1465 O1479 2.339 1_554 S
Dy1465 C1495 2.738 . S
C1466 O1478 1.254 1_556 S
C1466 O1479 1.257 . S
O1467 Dy1464 2.307 . S
O1467 C1477 1.266 . S
O1468 Dy1465 2.298 . S
O1468 C1477 1.236 . S
O1469 Dy1464 2.395 1_655 S
O1469 C1486 1.255 . S
O1470 Dy1464 2.379 1_655 S
O1470 C1486 1.249 . S
O1471 Dy1465 2.275 . S
O1471 C1487 1.254 . S
O1472 Dy1464 2.339 . S
O1472 C1487 1.257 . S
O1473 Dy1465 2.307 . S
O1473 C1488 1.266 . S
O1474 Dy1464 2.298 . S
O1474 C1488 1.236 . S
O1475 Dy1465 2.395 . S
O1475 C1495 1.255 . S
O1476 Dy1465 2.379 1_556 S
O1476 C1495 1.249 1_556 S
C1477 O1467 1.266 . S
C1477 O1468 1.236 . S
O1478 Dy1464 2.275 . S
O1478 C1466 1.254 1_554 S
O1479 Dy1465 2.339 1_556 S
O1479 C1466 1.257 . S
C1480 C1483 1.344 . S
C1480 C1484 1.328 . S
C1480 C1486 1.516 . S
C1481 C1482 1.304 . S
C1481 C1485 1.323 . S
C1482 C1481 1.304 . S
C1482 C1483 1.371 . S
C1482 H1496 0.930 . S
C1483 C1480 1.344 . S
C1483 C1482 1.371 . S
C1483 H1497 0.931 . S
C1484 C1480 1.328 . S
C1484 C1485 1.433 . S
C1484 H1498 0.931 . S
C1485 C1481 1.323 . S
C1485 C1484 1.433 . S
C1485 H1499 0.933 . S
C1486 Dy1464 2.738 1_655 S
C1486 O1469 1.255 . S
C1486 O1470 1.249 . S
C1486 C1480 1.516 . S
C1487 O1471 1.254 . S
C1487 O1472 1.257 . S
C1488 O1473 1.266 . S
C1488 O1474 1.236 . S
C1489 C1492 1.344 . S
C1489 C1493 1.328 1_554 S
C1489 C1495 1.516 . S
C1490 C1491 1.304 . S
C1490 C1494 1.323 1_554 S
C1491 C1490 1.304 . S
C1491 C1492 1.371 . S
C1491 H1500 0.930 . S
C1492 C1489 1.344 . S
C1492 C1491 1.371 . S
C1492 H1501 0.931 . S
C1493 C1489 1.328 1_556 S
C1493 C1494 1.433 . S
C1493 H1502 0.931 . S
C1494 C1490 1.323 1_556 S
C1494 C1493 1.433 . S
C1494 H1503 0.933 . S
C1495 Dy1465 2.738 . S
C1495 O1475 1.255 . S
C1495 O1476 1.249 1_554 S
C1495 C1489 1.516 . S
H1496 C1482 0.930 . S
H1497 C1483 0.931 . S
H1498 C1484 0.931 . S
H1499 C1485 0.933 . S
H1500 C1491 0.930 . S
H1501 C1492 0.931 . S
H1502 C1493 0.931 . S
H1503 C1494 0.933 . S
C1504 C1505 1.363 1_655 S
C1504 C1510 1.379 . S
C1504 N1512 1.356 . S
C1505 C1504 1.363 1_455 S
C1505 C1511 1.363 . S
C1506 C1507 1.363 . S
C1506 C1511 1.379 . S
C1506 N1513 1.356 . S
C1507 C1506 1.363 . S
C1507 C1510 1.363 1_455 S
N1508 C1510 1.356 . S
N1508 H1520 0.984 . S
N1508 H1521 0.985 . S
N1509 C1511 1.356 . S
N1509 H1514 0.984 . S
N1509 H1515 0.985 . S
C1510 C1504 1.379 . S
C1510 C1507 1.363 1_655 S
C1510 N1508 1.356 . S
C1511 C1505 1.363 . S
C1511 C1506 1.379 . S
C1511 N1509 1.356 . S
N1512 C1504 1.356 . S
N1512 H1518 0.984 . S
N1512 H1519 0.984 . S
N1513 C1506 1.356 . S
N1513 H1516 0.984 . S
N1513 H1517 0.985 . S
H1514 N1509 0.984 . S
H1515 N1509 0.985 . S
H1516 N1513 0.984 . S
H1517 N1513 0.985 . S
H1518 N1512 0.984 . S
H1519 N1512 0.984 . S
H1520 N1508 0.984 . S
H1521 N1508 0.985 . S
C1522 C1523 1.363 . S
C1522 C1528 1.379 . S
C1522 N1530 1.356 . S
C1523 C1522 1.363 . S
C1523 C1529 1.363 . S
C1524 C1525 1.363 . S
C1524 C1529 1.379 . S
C1524 N1531 1.356 . S
C1525 C1524 1.363 . S
C1525 C1528 1.363 . S
N1526 C1528 1.356 . S
N1526 H1538 0.984 . S
N1526 H1539 0.985 . S
N1527 C1529 1.356 . S
N1527 H1532 0.984 . S
N1527 H1533 0.985 . S
C1528 C1522 1.379 . S
C1528 C1525 1.363 . S
C1528 N1526 1.356 . S
C1529 C1523 1.363 . S
C1529 C1524 1.379 . S
C1529 N1527 1.356 . S
N1530 C1522 1.356 . S
N1530 H1536 0.984 . S
N1530 H1537 0.984 . S
N1531 C1524 1.356 . S
N1531 H1534 0.984 . S
N1531 H1535 0.985 . S
H1532 N1527 0.984 . S
H1533 N1527 0.985 . S
H1534 N1531 0.984 . S
H1535 N1531 0.985 . S
H1536 N1530 0.984 . S
H1537 N1530 0.984 . S
H1538 N1526 0.984 . S
H1539 N1526 0.985 . S
C1540 C1541 1.363 . S
C1540 C1546 1.379 . S
C1540 N1548 1.356 . S
C1541 C1540 1.363 . S
C1541 C1547 1.363 . S
C1542 C1543 1.363 . S
C1542 C1547 1.379 . S
C1542 N1549 1.356 . S
C1543 C1542 1.363 . S
C1543 C1546 1.363 . S
N1544 C1546 1.356 . S
N1544 H1556 0.984 . S
N1544 H1557 0.985 . S
N1545 C1547 1.356 . S
N1545 H1550 0.984 . S
N1545 H1551 0.985 . S
C1546 C1540 1.379 . S
C1546 C1543 1.363 . S
C1546 N1544 1.356 . S
C1547 C1541 1.363 . S
C1547 C1542 1.379 . S
C1547 N1545 1.356 . S
N1548 C1540 1.356 . S
N1548 H1554 0.984 . S
N1548 H1555 0.984 . S
N1549 C1542 1.356 . S
N1549 H1552 0.984 . S
N1549 H1553 0.985 . S
H1550 N1545 0.984 . S
H1551 N1545 0.985 . S
H1552 N1549 0.984 . S
H1553 N1549 0.985 . S
H1554 N1548 0.984 . S
H1555 N1548 0.984 . S
H1556 N1544 0.984 . S
H1557 N1544 0.985 . S
C1558 C1559 1.363 . S
C1558 C1564 1.379 . S
C1558 N1566 1.356 . S
C1559 C1558 1.363 . S
C1559 C1565 1.363 . S
C1560 C1561 1.363 . S
C1560 C1565 1.379 . S
C1560 N1567 1.356 . S
C1561 C1560 1.363 . S
C1561 C1564 1.363 . S
N1562 C1564 1.356 . S
N1562 H1574 0.984 . S
N1562 H1575 0.985 . S
N1563 C1565 1.356 . S
N1563 H1568 0.984 . S
N1563 H1569 0.985 . S
C1564 C1558 1.379 . S
C1564 C1561 1.363 . S
C1564 N1562 1.356 . S
C1565 C1559 1.363 . S
C1565 C1560 1.379 . S
C1565 N1563 1.356 . S
N1566 C1558 1.356 . S
N1566 H1572 0.984 . S
N1566 H1573 0.984 . S
N1567 C1560 1.356 . S
N1567 H1570 0.984 . S
N1567 H1571 0.985 . S
H1568 N1563 0.984 . S
H1569 N1563 0.985 . S
H1570 N1567 0.984 . S
H1571 N1567 0.985 . S
H1572 N1566 0.984 . S
H1573 N1566 0.984 . S
H1574 N1562 0.984 . S
H1575 N1562 0.985 . S
C1576 C1577 1.363 . S
C1576 C1582 1.379 . S
C1576 N1584 1.356 . S
C1577 C1576 1.363 . S
C1577 C1583 1.363 . S
C1578 C1579 1.363 . S
C1578 C1583 1.379 . S
C1578 N1585 1.356 . S
C1579 C1578 1.363 . S
C1579 C1582 1.363 . S
N1580 C1582 1.356 . S
N1580 H1592 0.984 . S
N1580 H1593 0.985 . S
N1581 C1583 1.356 . S
N1581 H1586 0.984 . S
N1581 H1587 0.985 . S
C1582 C1576 1.379 . S
C1582 C1579 1.363 . S
C1582 N1580 1.356 . S
C1583 C1577 1.363 . S
C1583 C1578 1.379 . S
C1583 N1581 1.356 . S
N1584 C1576 1.356 . S
N1584 H1590 0.984 . S
N1584 H1591 0.984 . S
N1585 C1578 1.356 . S
N1585 H1588 0.984 . S
N1585 H1589 0.985 . S
H1586 N1581 0.984 . S
H1587 N1581 0.985 . S
H1588 N1585 0.984 . S
H1589 N1585 0.985 . S
H1590 N1584 0.984 . S
H1591 N1584 0.984 . S
H1592 N1580 0.984 . S
H1593 N1580 0.985 . S
C1594 C1595 1.363 . S
C1594 C1600 1.379 . S
C1594 N1602 1.356 . S
C1595 C1594 1.363 . S
C1595 C1601 1.363 . S
C1596 C1597 1.363 . S
C1596 C1601 1.379 . S
C1596 N1603 1.356 . S
C1597 C1596 1.363 . S
C1597 C1600 1.363 . S
N1598 C1600 1.356 . S
N1598 H1610 0.984 . S
N1598 H1611 0.985 . S
N1599 C1601 1.356 . S
N1599 H1604 0.984 . S
N1599 H1605 0.985 . S
C1600 C1594 1.379 . S
C1600 C1597 1.363 . S
C1600 N1598 1.356 . S
C1601 C1595 1.363 . S
C1601 C1596 1.379 . S
C1601 N1599 1.356 . S
N1602 C1594 1.356 . S
N1602 H1608 0.984 . S
N1602 H1609 0.984 . S
N1603 C1596 1.356 . S
N1603 H1606 0.984 . S
N1603 H1607 0.985 . S
H1604 N1599 0.984 . S
H1605 N1599 0.985 . S
H1606 N1603 0.984 . S
H1607 N1603 0.985 . S
H1608 N1602 0.984 . S
H1609 N1602 0.984 . S
H1610 N1598 0.984 . S
H1611 N1598 0.985 . S
C1612 C1613 1.363 . S
C1612 C1618 1.379 . S
C1612 N1620 1.356 . S
C1613 C1612 1.363 . S
C1613 C1619 1.363 . S
C1614 C1615 1.363 . S
C1614 C1619 1.379 . S
C1614 N1621 1.356 . S
C1615 C1614 1.363 . S
C1615 C1618 1.363 . S
N1616 C1618 1.356 . S
N1616 H1628 0.984 . S
N1616 H1629 0.985 . S
N1617 C1619 1.356 . S
N1617 H1622 0.984 . S
N1617 H1623 0.985 . S
C1618 C1612 1.379 . S
C1618 C1615 1.363 . S
C1618 N1616 1.356 . S
C1619 C1613 1.363 . S
C1619 C1614 1.379 . S
C1619 N1617 1.356 . S
N1620 C1612 1.356 . S
N1620 H1626 0.984 . S
N1620 H1627 0.984 . S
N1621 C1614 1.356 . S
N1621 H1624 0.984 . S
N1621 H1625 0.985 . S
H1622 N1617 0.984 . S
H1623 N1617 0.985 . S
H1624 N1621 0.984 . S
H1625 N1621 0.985 . S
H1626 N1620 0.984 . S
H1627 N1620 0.984 . S
H1628 N1616 0.984 . S
H1629 N1616 0.985 . S
C1630 C1631 1.363 . S
C1630 C1636 1.379 . S
C1630 N1638 1.356 . S
C1631 C1630 1.363 . S
C1631 C1637 1.363 . S
C1632 C1633 1.363 . S
C1632 C1637 1.379 . S
C1632 N1639 1.356 . S
C1633 C1632 1.363 . S
C1633 C1636 1.363 . S
N1634 C1636 1.356 . S
N1634 H1646 0.984 . S
N1634 H1647 0.985 . S
N1635 C1637 1.356 . S
N1635 H1640 0.984 . S
N1635 H1641 0.985 . S
C1636 C1630 1.379 . S
C1636 C1633 1.363 . S
C1636 N1634 1.356 . S
C1637 C1631 1.363 . S
C1637 C1632 1.379 . S
C1637 N1635 1.356 . S
N1638 C1630 1.356 . S
N1638 H1644 0.984 . S
N1638 H1645 0.984 . S
N1639 C1632 1.356 . S
N1639 H1642 0.984 . S
N1639 H1643 0.985 . S
H1640 N1635 0.984 . S
H1641 N1635 0.985 . S
H1642 N1639 0.984 . S
H1643 N1639 0.985 . S
H1644 N1638 0.984 . S
H1645 N1638 0.984 . S
H1646 N1634 0.984 . S
H1647 N1634 0.985 . S
C1648 C1649 1.363 1_455 S
C1648 C1654 1.379 . S
C1648 N1656 1.356 1_445 S
C1649 C1648 1.363 1_655 S
C1649 C1655 1.363 . S
C1650 C1651 1.363 . S
C1650 C1655 1.379 1_455 S
C1650 N1657 1.356 . S
C1651 C1650 1.363 . S
C1651 C1654 1.363 . S
N1652 C1654 1.356 . S
N1652 H1664 0.984 1_545 S
N1652 H1665 0.985 . S
N1653 C1655 1.356 . S
N1653 H1658 0.984 . S
N1653 H1659 0.985 . S
C1654 C1648 1.379 . S
C1654 C1651 1.363 . S
C1654 N1652 1.356 . S
C1655 C1649 1.363 . S
C1655 C1650 1.379 1_655 S
C1655 N1653 1.356 . S
N1656 C1648 1.356 1_665 S
N1656 H1662 0.984 . S
N1656 H1663 0.984 . S
N1657 C1650 1.356 . S
N1657 H1660 0.984 . S
N1657 H1661 0.985 . S
H1658 N1653 0.984 . S
H1659 N1653 0.985 . S
H1660 N1657 0.984 . S
H1661 N1657 0.985 . S
H1662 N1656 0.984 . S
H1663 N1656 0.984 . S
H1664 N1652 0.984 1_565 S
H1665 N1652 0.985 . S
C1666 C1667 1.363 . S
C1666 C1672 1.379 . S
C1666 N1674 1.356 . S
C1667 C1666 1.363 . S
C1667 C1673 1.363 . S
C1668 C1669 1.363 . S
C1668 C1673 1.379 . S
C1668 N1675 1.356 . S
C1669 C1668 1.363 . S
C1669 C1672 1.363 . S
N1670 C1672 1.356 . S
N1670 H1682 0.984 . S
N1670 H1683 0.985 . S
N1671 C1673 1.356 . S
N1671 H1676 0.984 . S
N1671 H1677 0.985 . S
C1672 C1666 1.379 . S
C1672 C1669 1.363 . S
C1672 N1670 1.356 . S
C1673 C1667 1.363 . S
C1673 C1668 1.379 . S
C1673 N1671 1.356 . S
N1674 C1666 1.356 . S
N1674 H1680 0.984 . S
N1674 H1681 0.984 . S
N1675 C1668 1.356 . S
N1675 H1678 0.984 . S
N1675 H1679 0.985 . S
H1676 N1671 0.984 . S
H1677 N1671 0.985 . S
H1678 N1675 0.984 . S
H1679 N1675 0.985 . S
H1680 N1674 0.984 . S
H1681 N1674 0.984 . S
H1682 N1670 0.984 . S
H1683 N1670 0.985 . S
C1684 C1685 1.363 . S
C1684 C1690 1.379 . S
C1684 N1692 1.356 . S
C1685 C1684 1.363 . S
C1685 C1691 1.363 . S
C1686 C1687 1.363 . S
C1686 C1691 1.379 . S
C1686 N1693 1.356 . S
C1687 C1686 1.363 . S
C1687 C1690 1.363 . S
N1688 C1690 1.356 . S
N1688 H1700 0.984 . S
N1688 H1701 0.985 . S
N1689 C1691 1.356 . S
N1689 H1694 0.984 . S
N1689 H1695 0.985 . S
C1690 C1684 1.379 . S
C1690 C1687 1.363 . S
C1690 N1688 1.356 . S
C1691 C1685 1.363 . S
C1691 C1686 1.379 . S
C1691 N1689 1.356 . S
N1692 C1684 1.356 . S
N1692 H1698 0.984 . S
N1692 H1699 0.984 . S
N1693 C1686 1.356 . S
N1693 H1696 0.984 . S
N1693 H1697 0.985 . S
H1694 N1689 0.984 . S
H1695 N1689 0.985 . S
H1696 N1693 0.984 . S
H1697 N1693 0.985 . S
H1698 N1692 0.984 . S
H1699 N1692 0.984 . S
H1700 N1688 0.984 . S
H1701 N1688 0.985 . S
C1702 C1703 1.363 . S
C1702 C1708 1.379 . S
C1702 N1710 1.356 . S
C1703 C1702 1.363 . S
C1703 C1709 1.363 . S
C1704 C1705 1.363 . S
C1704 C1709 1.379 . S
C1704 N1711 1.356 . S
C1705 C1704 1.363 . S
C1705 C1708 1.363 . S
N1706 C1708 1.356 . S
N1706 H1718 0.984 . S
N1706 H1719 0.985 . S
N1707 C1709 1.356 . S
N1707 H1712 0.984 . S
N1707 H1713 0.985 . S
C1708 C1702 1.379 . S
C1708 C1705 1.363 . S
C1708 N1706 1.356 . S
C1709 C1703 1.363 . S
C1709 C1704 1.379 . S
C1709 N1707 1.356 . S
N1710 C1702 1.356 . S
N1710 H1716 0.984 . S
N1710 H1717 0.984 . S
N1711 C1704 1.356 . S
N1711 H1714 0.984 . S
N1711 H1715 0.985 . S
H1712 N1707 0.984 . S
H1713 N1707 0.985 . S
H1714 N1711 0.984 . S
H1715 N1711 0.985 . S
H1716 N1710 0.984 . S
H1717 N1710 0.984 . S
H1718 N1706 0.984 . S
H1719 N1706 0.985 . S
C1720 C1721 1.363 . S
C1720 C1726 1.379 . S
C1720 N1728 1.356 . S
C1721 C1720 1.363 . S
C1721 C1727 1.363 1_655 S
C1722 C1723 1.363 . S
C1722 C1727 1.379 . S
C1722 N1729 1.356 . S
C1723 C1722 1.363 . S
C1723 C1726 1.363 1_455 S
N1724 C1726 1.356 . S
N1724 H1736 0.984 1_545 S
N1724 H1737 0.985 . S
N1725 C1727 1.356 . S
N1725 H1730 0.984 . S
N1725 H1731 0.985 . S
C1726 C1720 1.379 . S
C1726 C1723 1.363 1_655 S
C1726 N1724 1.356 . S
C1727 C1721 1.363 1_455 S
C1727 C1722 1.379 . S
C1727 N1725 1.356 . S
N1728 C1720 1.356 . S
N1728 H1734 0.984 1_545 S
N1728 H1735 0.984 . S
N1729 C1722 1.356 . S
N1729 H1732 0.984 . S
N1729 H1733 0.985 . S
H1730 N1725 0.984 . S
H1731 N1725 0.985 . S
H1732 N1729 0.984 . S
H1733 N1729 0.985 . S
H1734 N1728 0.984 1_565 S
H1735 N1728 0.984 . S
H1736 N1724 0.984 1_565 S
H1737 N1724 0.985 . S
C1738 C1739 1.363 . S
C1738 C1744 1.379 . S
C1738 N1746 1.356 . S
C1739 C1738 1.363 . S
C1739 C1745 1.363 . S
C1740 C1741 1.363 . S
C1740 C1745 1.379 . S
C1740 N1747 1.356 . S
C1741 C1740 1.363 . S
C1741 C1744 1.363 . S
N1742 C1744 1.356 . S
N1742 H1754 0.984 . S
N1742 H1755 0.985 . S
N1743 C1745 1.356 . S
N1743 H1748 0.984 . S
N1743 H1749 0.985 . S
C1744 C1738 1.379 . S
C1744 C1741 1.363 . S
C1744 N1742 1.356 . S
C1745 C1739 1.363 . S
C1745 C1740 1.379 . S
C1745 N1743 1.356 . S
N1746 C1738 1.356 . S
N1746 H1752 0.984 . S
N1746 H1753 0.984 . S
N1747 C1740 1.356 . S
N1747 H1750 0.984 . S
N1747 H1751 0.985 . S
H1748 N1743 0.984 . S
H1749 N1743 0.985 . S
H1750 N1747 0.984 . S
H1751 N1747 0.985 . S
H1752 N1746 0.984 . S
H1753 N1746 0.984 . S
H1754 N1742 0.984 . S
H1755 N1742 0.985 . S
C1756 C1757 1.363 . S
C1756 C1762 1.379 . S
C1756 N1764 1.356 . S
C1757 C1756 1.363 . S
C1757 C1763 1.363 . S
C1758 C1759 1.363 . S
C1758 C1763 1.379 . S
C1758 N1765 1.356 . S
C1759 C1758 1.363 . S
C1759 C1762 1.363 . S
N1760 C1762 1.356 . S
N1760 H1772 0.984 . S
N1760 H1773 0.985 . S
N1761 C1763 1.356 . S
N1761 H1766 0.984 . S
N1761 H1767 0.985 . S
C1762 C1756 1.379 . S
C1762 C1759 1.363 . S
C1762 N1760 1.356 . S
C1763 C1757 1.363 . S
C1763 C1758 1.379 . S
C1763 N1761 1.356 . S
N1764 C1756 1.356 . S
N1764 H1770 0.984 . S
N1764 H1771 0.984 . S
N1765 C1758 1.356 . S
N1765 H1768 0.984 . S
N1765 H1769 0.985 . S
H1766 N1761 0.984 . S
H1767 N1761 0.985 . S
H1768 N1765 0.984 . S
H1769 N1765 0.985 . S
H1770 N1764 0.984 . S
H1771 N1764 0.984 . S
H1772 N1760 0.984 . S
H1773 N1760 0.985 . S
C1774 C1775 1.363 . S
C1774 C1780 1.379 . S
C1774 N1782 1.356 . S
C1775 C1774 1.363 . S
C1775 C1781 1.363 . S
C1776 C1777 1.363 . S
C1776 C1781 1.379 . S
C1776 N1783 1.356 . S
C1777 C1776 1.363 . S
C1777 C1780 1.363 . S
N1778 C1780 1.356 . S
N1778 H1790 0.984 . S
N1778 H1791 0.985 . S
N1779 C1781 1.356 . S
N1779 H1784 0.984 . S
N1779 H1785 0.985 . S
C1780 C1774 1.379 . S
C1780 C1777 1.363 . S
C1780 N1778 1.356 . S
C1781 C1775 1.363 . S
C1781 C1776 1.379 . S
C1781 N1779 1.356 . S
N1782 C1774 1.356 . S
N1782 H1788 0.984 . S
N1782 H1789 0.984 . S
N1783 C1776 1.356 . S
N1783 H1786 0.984 . S
N1783 H1787 0.985 . S
H1784 N1779 0.984 . S
H1785 N1779 0.985 . S
H1786 N1783 0.984 . S
H1787 N1783 0.985 . S
H1788 N1782 0.984 . S
H1789 N1782 0.984 . S
H1790 N1778 0.984 . S
H1791 N1778 0.985 . S
C1792 C1793 1.363 . S
C1792 C1798 1.373 1_565 S
C1792 N1800 1.356 1_554 S
C1793 C1792 1.363 . S
C1793 C1799 1.363 . S
C1794 C1795 1.354 1_565 S
C1794 C1799 1.387 . S
C1794 N1801 1.354 1_565 S
C1795 C1794 1.354 1_545 S
C1795 C1798 1.363 . S
N1796 C1798 1.364 . S
N1796 H1808 0.984 . S
N1796 H1809 0.985 . S
N1797 C1799 1.356 . S
N1797 H1802 0.984 . S
N1797 H1803 0.985 . S
C1798 C1792 1.373 1_545 S
C1798 C1795 1.363 . S
C1798 N1796 1.364 . S
C1799 C1793 1.363 . S
C1799 C1794 1.387 . S
C1799 N1797 1.356 . S
N1800 C1792 1.356 1_556 S
N1800 H1806 0.984 . S
N1800 H1807 0.984 . S
N1801 C1794 1.354 1_545 S
N1801 H1804 0.984 . S
N1801 H1805 0.985 . S
H1802 N1797 0.984 . S
H1803 N1797 0.985 . S
H1804 N1801 0.984 . S
H1805 N1801 0.985 . S
H1806 N1800 0.984 . S
H1807 N1800 0.984 . S
H1808 N1796 0.984 . S
H1809 N1796 0.985 . S
C1810 C1811 1.363 . S
C1810 C1816 1.379 . S
C1810 N1818 1.356 1_554 S
C1811 C1810 1.363 . S
C1811 C1817 1.363 . S
C1812 C1813 1.363 . S
C1812 C1817 1.379 . S
C1812 N1819 1.356 . S
C1813 C1812 1.363 . S
C1813 C1816 1.363 . S
N1814 C1816 1.356 1_556 S
N1814 H1826 0.984 . S
N1814 H1827 0.985 1_556 S
N1815 C1817 1.356 . S
N1815 H1820 0.984 . S
N1815 H1821 0.985 . S
C1816 C1810 1.379 . S
C1816 C1813 1.363 . S
C1816 N1814 1.356 1_554 S
C1817 C1811 1.363 . S
C1817 C1812 1.379 . S
C1817 N1815 1.356 . S
N1818 C1810 1.356 1_556 S
N1818 H1824 0.984 . S
N1818 H1825 0.984 . S
N1819 C1812 1.356 . S
N1819 H1822 0.984 . S
N1819 H1823 0.985 . S
H1820 N1815 0.984 . S
H1821 N1815 0.985 . S
H1822 N1819 0.984 . S
H1823 N1819 0.985 . S
H1824 N1818 0.984 . S
H1825 N1818 0.984 . S
H1826 N1814 0.984 . S
H1827 N1814 0.985 1_554 S
C1828 C1829 1.363 . S
C1828 C1834 1.379 . S
C1828 N1836 1.356 . S
C1829 C1828 1.363 . S
C1829 C1835 1.363 . S
C1830 C1831 1.363 . S
C1830 C1835 1.379 . S
C1830 N1837 1.356 . S
C1831 C1830 1.363 . S
C1831 C1834 1.363 . S
N1832 C1834 1.356 . S
N1832 H1844 0.984 . S
N1832 H1845 0.985 . S
N1833 C1835 1.356 . S
N1833 H1838 0.984 . S
N1833 H1839 0.985 . S
C1834 C1828 1.379 . S
C1834 C1831 1.363 . S
C1834 N1832 1.356 . S
C1835 C1829 1.363 . S
C1835 C1830 1.379 . S
C1835 N1833 1.356 . S
N1836 C1828 1.356 . S
N1836 H1842 0.984 . S
N1836 H1843 0.984 . S
N1837 C1830 1.356 . S
N1837 H1840 0.984 . S
N1837 H1841 0.985 . S
H1838 N1833 0.984 . S
H1839 N1833 0.985 . S
H1840 N1837 0.984 . S
H1841 N1837 0.985 . S
H1842 N1836 0.984 . S
H1843 N1836 0.984 . S
H1844 N1832 0.984 . S
H1845 N1832 0.985 . S
C1846 C1847 1.363 . S
C1846 C1852 1.379 . S
C1846 N1854 1.356 . S
C1847 C1846 1.363 . S
C1847 C1853 1.363 . S
C1848 C1849 1.363 . S
C1848 C1853 1.379 . S
C1848 N1855 1.356 . S
C1849 C1848 1.363 . S
C1849 C1852 1.363 . S
N1850 C1852 1.356 . S
N1850 H1862 0.984 . S
N1850 H1863 0.985 . S
N1851 C1853 1.356 . S
N1851 H1856 0.984 . S
N1851 H1857 0.985 . S
C1852 C1846 1.379 . S
C1852 C1849 1.363 . S
C1852 N1850 1.356 . S
C1853 C1847 1.363 . S
C1853 C1848 1.379 . S
C1853 N1851 1.356 . S
N1854 C1846 1.356 . S
N1854 H1860 0.984 . S
N1854 H1861 0.984 . S
N1855 C1848 1.356 . S
N1855 H1858 0.984 . S
N1855 H1859 0.985 . S
H1856 N1851 0.984 . S
H1857 N1851 0.985 . S
H1858 N1855 0.984 . S
H1859 N1855 0.985 . S
H1860 N1854 0.984 . S
H1861 N1854 0.984 . S
H1862 N1850 0.984 . S
H1863 N1850 0.985 . S
C1864 C1865 1.363 . S
C1864 C1870 1.379 . S
C1864 N1872 1.356 . S
C1865 C1864 1.363 . S
C1865 C1871 1.363 . S
C1866 C1867 1.363 . S
C1866 C1871 1.379 . S
C1866 N1873 1.356 . S
C1867 C1866 1.363 . S
C1867 C1870 1.363 . S
N1868 C1870 1.356 . S
N1868 H1880 0.984 . S
N1868 H1881 0.985 . S
N1869 C1871 1.356 . S
N1869 H1874 0.984 . S
N1869 H1875 0.985 . S
C1870 C1864 1.379 . S
C1870 C1867 1.363 . S
C1870 N1868 1.356 . S
C1871 C1865 1.363 . S
C1871 C1866 1.379 . S
C1871 N1869 1.356 . S
N1872 C1864 1.356 . S
N1872 H1878 0.984 . S
N1872 H1879 0.984 . S
N1873 C1866 1.356 . S
N1873 H1876 0.984 . S
N1873 H1877 0.985 . S
H1874 N1869 0.984 . S
H1875 N1869 0.985 . S
H1876 N1873 0.984 . S
H1877 N1873 0.985 . S
H1878 N1872 0.984 . S
H1879 N1872 0.984 . S
H1880 N1868 0.984 . S
H1881 N1868 0.985 . S
C1882 C1883 1.363 . S
C1882 C1888 1.379 . S
C1882 N1890 1.356 . S
C1883 C1882 1.363 . S
C1883 C1889 1.363 . S
C1884 C1885 1.363 . S
C1884 C1889 1.379 . S
C1884 N1891 1.356 . S
C1885 C1884 1.363 . S
C1885 C1888 1.363 . S
N1886 C1888 1.356 . S
N1886 H1898 0.984 . S
N1886 H1899 0.985 . S
N1887 C1889 1.356 . S
N1887 H1892 0.984 . S
N1887 H1893 0.985 . S
C1888 C1882 1.379 . S
C1888 C1885 1.363 . S
C1888 N1886 1.356 . S
C1889 C1883 1.363 . S
C1889 C1884 1.379 . S
C1889 N1887 1.356 . S
N1890 C1882 1.356 . S
N1890 H1896 0.984 . S
N1890 H1897 0.984 . S
N1891 C1884 1.356 . S
N1891 H1894 0.984 . S
N1891 H1895 0.985 . S
H1892 N1887 0.984 . S
H1893 N1887 0.985 . S
H1894 N1891 0.984 . S
H1895 N1891 0.985 . S
H1896 N1890 0.984 . S
H1897 N1890 0.984 . S
H1898 N1886 0.984 . S
H1899 N1886 0.985 . S
C1900 C1901 1.363 . S
C1900 C1906 1.379 . S
C1900 N1908 1.356 . S
C1901 C1900 1.363 . S
C1901 C1907 1.363 . S
C1902 C1903 1.363 . S
C1902 C1907 1.379 . S
C1902 N1909 1.356 . S
C1903 C1902 1.363 . S
C1903 C1906 1.363 . S
N1904 C1906 1.356 . S
N1904 H1916 0.984 . S
N1904 H1917 0.985 . S
N1905 C1907 1.356 . S
N1905 H1910 0.984 . S
N1905 H1911 0.985 . S
C1906 C1900 1.379 . S
C1906 C1903 1.363 . S
C1906 N1904 1.356 . S
C1907 C1901 1.363 . S
C1907 C1902 1.379 . S
C1907 N1905 1.356 . S
N1908 C1900 1.356 . S
N1908 H1914 0.984 . S
N1908 H1915 0.984 . S
N1909 C1902 1.356 . S
N1909 H1912 0.984 . S
N1909 H1913 0.985 . S
H1910 N1905 0.984 . S
H1911 N1905 0.985 . S
H1912 N1909 0.984 . S
H1913 N1909 0.985 . S
H1914 N1908 0.984 . S
H1915 N1908 0.984 . S
H1916 N1904 0.984 . S
H1917 N1904 0.985 . S
C1918 C1919 1.363 . S
C1918 C1924 1.379 . S
C1918 N1926 1.356 . S
C1919 C1918 1.363 . S
C1919 C1925 1.363 . S
C1920 C1921 1.363 . S
C1920 C1925 1.379 . S
C1920 N1927 1.356 . S
C1921 C1920 1.363 . S
C1921 C1924 1.363 . S
N1922 C1924 1.356 . S
N1922 H1934 0.984 . S
N1922 H1935 0.985 . S
N1923 C1925 1.356 . S
N1923 H1928 0.984 . S
N1923 H1929 0.985 . S
C1924 C1918 1.379 . S
C1924 C1921 1.363 . S
C1924 N1922 1.356 . S
C1925 C1919 1.363 . S
C1925 C1920 1.379 . S
C1925 N1923 1.356 . S
N1926 C1918 1.356 . S
N1926 H1932 0.984 . S
N1926 H1933 0.984 . S
N1927 C1920 1.356 . S
N1927 H1930 0.984 . S
N1927 H1931 0.985 . S
H1928 N1923 0.984 . S
H1929 N1923 0.985 . S
H1930 N1927 0.984 . S
H1931 N1927 0.985 . S
H1932 N1926 0.984 . S
H1933 N1926 0.984 . S
H1934 N1922 0.984 . S
H1935 N1922 0.985 . S
C1936 C1937 1.363 . S
C1936 C1942 1.379 . S
C1936 N1944 1.356 . S
C1937 C1936 1.363 . S
C1937 C1943 1.363 . S
C1938 C1939 1.363 . S
C1938 C1943 1.379 . S
C1938 N1945 1.379 . S
C1939 C1938 1.363 . S
C1939 C1942 1.363 . S
N1940 C1942 1.356 . S
N1940 H1952 0.984 . S
N1940 H1953 0.985 . S
N1941 C1943 1.356 . S
N1941 H1946 0.984 . S
N1941 H1947 1.004 . S
C1942 C1936 1.379 . S
C1942 C1939 1.363 . S
C1942 N1940 1.356 . S
C1943 C1937 1.363 . S
C1943 C1938 1.379 . S
C1943 N1941 1.356 . S
N1944 C1936 1.356 . S
N1944 H1950 0.984 . S
N1944 H1951 0.984 . S
N1945 C1938 1.379 . S
N1945 H1948 0.985 . S
N1945 H1949 0.963 1_554 S
H1946 N1941 0.984 . S
H1947 N1941 1.004 . S
H1948 N1945 0.985 . S
H1949 N1945 0.963 1_556 S
H1950 N1944 0.984 . S
H1951 N1944 0.984 . S
H1952 N1940 0.984 . S
H1953 N1940 0.985 . S
C1954 C1955 1.363 . S
C1954 C1960 1.379 . S
C1954 N1962 1.356 . S
C1955 C1954 1.363 . S
C1955 C1961 1.363 . S
C1956 C1957 1.363 . S
C1956 C1961 1.379 . S
C1956 N1963 1.356 . S
C1957 C1956 1.363 . S
C1957 C1960 1.363 . S
N1958 C1960 1.356 . S
N1958 H1970 0.984 . S
N1958 H1971 0.985 . S
N1959 C1961 1.356 . S
N1959 H1964 0.984 . S
N1959 H1965 0.985 . S
C1960 C1954 1.379 . S
C1960 C1957 1.363 . S
C1960 N1958 1.356 . S
C1961 C1955 1.363 . S
C1961 C1956 1.379 . S
C1961 N1959 1.356 . S
N1962 C1954 1.356 . S
N1962 H1968 0.984 . S
N1962 H1969 0.984 . S
N1963 C1956 1.356 . S
N1963 H1966 0.984 . S
N1963 H1967 0.985 . S
H1964 N1959 0.984 . S
H1965 N1959 0.985 . S
H1966 N1963 0.984 . S
H1967 N1963 0.985 . S
H1968 N1962 0.984 . S
H1969 N1962 0.984 . S
H1970 N1958 0.984 . S
H1971 N1958 0.985 . S
C1972 C1973 1.363 . S
C1972 C1978 1.379 . S
C1972 N1980 1.356 . S
C1973 C1972 1.363 . S
C1973 C1979 1.363 . S
C1974 C1975 1.363 . S
C1974 C1979 1.379 . S
C1974 N1981 1.356 . S
C1975 C1974 1.363 . S
C1975 C1978 1.363 . S
N1976 C1978 1.356 . S
N1976 H1988 0.984 . S
N1976 H1989 0.985 . S
N1977 C1979 1.356 . S
N1977 H1982 0.984 . S
N1977 H1983 0.985 . S
C1978 C1972 1.379 . S
C1978 C1975 1.363 . S
C1978 N1976 1.356 . S
C1979 C1973 1.363 . S
C1979 C1974 1.379 . S
C1979 N1977 1.356 . S
N1980 C1972 1.356 . S
N1980 H1986 0.984 . S
N1980 H1987 0.984 . S
N1981 C1974 1.356 . S
N1981 H1984 0.984 . S
N1981 H1985 0.985 . S
H1982 N1977 0.984 . S
H1983 N1977 0.985 . S
H1984 N1981 0.984 . S
H1985 N1981 0.985 . S
H1986 N1980 0.984 . S
H1987 N1980 0.984 . S
H1988 N1976 0.984 . S
H1989 N1976 0.985 . S
C1990 C1991 1.363 . S
C1990 C1996 1.379 . S
C1990 N1998 1.356 . S
C1991 C1990 1.363 . S
C1991 C1997 1.363 . S
C1992 C1993 1.363 . S
C1992 C1997 1.379 . S
C1992 N1999 1.356 . S
C1993 C1992 1.363 . S
C1993 C1996 1.363 . S
N1994 C1996 1.356 . S
N1994 H2006 0.984 . S
N1994 H2007 0.985 . S
N1995 C1997 1.356 . S
N1995 H2000 0.984 . S
N1995 H2001 0.985 . S
C1996 C1990 1.379 . S
C1996 C1993 1.363 . S
C1996 N1994 1.356 . S
C1997 C1991 1.363 . S
C1997 C1992 1.379 . S
C1997 N1995 1.356 . S
N1998 C1990 1.356 . S
N1998 H2004 0.984 . S
N1998 H2005 0.984 . S
N1999 C1992 1.356 . S
N1999 H2002 0.984 . S
N1999 H2003 0.985 . S
H2000 N1995 0.984 . S
H2001 N1995 0.985 . S
H2002 N1999 0.984 . S
H2003 N1999 0.985 . S
H2004 N1998 0.984 . S
H2005 N1998 0.984 . S
H2006 N1994 0.984 . S
H2007 N1994 0.985 . S
C2008 C2009 1.363 . S
C2008 C2014 1.379 . S
C2008 N2016 1.356 . S
C2009 C2008 1.363 . S
C2009 C2015 1.363 . S
C2010 C2011 1.363 1_655 S
C2010 C2015 1.379 1_655 S
C2010 N2017 1.356 . S
C2011 C2010 1.363 1_455 S
C2011 C2014 1.363 . S
N2012 C2014 1.356 . S
N2012 H2024 0.984 . S
N2012 H2025 0.985 . S
N2013 C2015 1.356 1_655 S
N2013 H2018 0.984 1_655 S
N2013 H2019 0.985 . S
C2014 C2008 1.379 . S
C2014 C2011 1.363 . S
C2014 N2012 1.356 . S
C2015 C2009 1.363 . S
C2015 C2010 1.379 1_455 S
C2015 N2013 1.356 1_455 S
N2016 C2008 1.356 . S
N2016 H2022 0.984 . S
N2016 H2023 0.984 . S
N2017 C2010 1.356 . S
N2017 H2020 0.984 . S
N2017 H2021 0.985 . S
H2018 N2013 0.984 1_455 S
H2019 N2013 0.985 . S
H2020 N2017 0.984 . S
H2021 N2017 0.985 . S
H2022 N2016 0.984 . S
H2023 N2016 0.984 . S
H2024 N2012 0.984 . S
H2025 N2012 0.985 . S
C2026 C2027 1.363 . S
C2026 C2032 1.379 . S
C2026 N2034 1.356 . S
C2027 C2026 1.363 . S
C2027 C2033 1.363 . S
C2028 C2029 1.363 . S
C2028 C2033 1.379 . S
C2028 N2035 1.356 . S
C2029 C2028 1.363 . S
C2029 C2032 1.363 . S
N2030 C2032 1.356 . S
N2030 H2042 0.984 . S
N2030 H2043 0.985 . S
N2031 C2033 1.356 . S
N2031 H2036 0.984 . S
N2031 H2037 0.985 . S
C2032 C2026 1.379 . S
C2032 C2029 1.363 . S
C2032 N2030 1.356 . S
C2033 C2027 1.363 . S
C2033 C2028 1.379 . S
C2033 N2031 1.356 . S
N2034 C2026 1.356 . S
N2034 H2040 0.984 . S
N2034 H2041 0.984 . S
N2035 C2028 1.356 . S
N2035 H2038 0.984 . S
N2035 H2039 0.985 . S
H2036 N2031 0.984 . S
H2037 N2031 0.985 . S
H2038 N2035 0.984 . S
H2039 N2035 0.985 . S
H2040 N2034 0.984 . S
H2041 N2034 0.984 . S
H2042 N2030 0.984 . S
H2043 N2030 0.985 . S
C2044 C2045 1.363 . S
C2044 C2050 1.379 . S
C2044 N2052 1.356 . S
C2045 C2044 1.363 . S
C2045 C2051 1.363 . S
C2046 C2047 1.363 . S
C2046 C2051 1.379 . S
C2046 N2053 1.356 1_565 S
C2047 C2046 1.363 . S
C2047 C2050 1.363 . S
N2048 C2050 1.356 1_554 S
N2048 H2060 0.984 . S
N2048 H2061 0.985 . S
N2049 C2051 1.356 . S
N2049 H2054 0.984 . S
N2049 H2055 0.985 . S
C2050 C2044 1.379 . S
C2050 C2047 1.363 . S
C2050 N2048 1.356 1_556 S
C2051 C2045 1.363 . S
C2051 C2046 1.379 . S
C2051 N2049 1.356 . S
N2052 C2044 1.356 . S
N2052 H2058 0.984 . S
N2052 H2059 0.984 . S
N2053 C2046 1.356 1_545 S
N2053 H2056 0.984 . S
N2053 H2057 0.985 . S
H2054 N2049 0.984 . S
H2055 N2049 0.985 . S
H2056 N2053 0.984 . S
H2057 N2053 0.985 . S
H2058 N2052 0.984 . S
H2059 N2052 0.984 . S
H2060 N2048 0.984 . S
H2061 N2048 0.985 . S
C2062 C2063 1.363 . S
C2062 C2068 1.379 . S
C2062 N2070 1.356 . S
C2063 C2062 1.363 . S
C2063 C2069 1.363 . S
C2064 C2065 1.363 . S
C2064 C2069 1.379 . S
C2064 N2071 1.356 . S
C2065 C2064 1.363 . S
C2065 C2068 1.363 . S
N2066 C2068 1.356 . S
N2066 H2078 0.984 . S
N2066 H2079 0.985 . S
N2067 C2069 1.356 . S
N2067 H2072 0.984 . S
N2067 H2073 0.985 . S
C2068 C2062 1.379 . S
C2068 C2065 1.363 . S
C2068 N2066 1.356 . S
C2069 C2063 1.363 . S
C2069 C2064 1.379 . S
C2069 N2067 1.356 . S
N2070 C2062 1.356 . S
N2070 H2076 0.984 . S
N2070 H2077 0.984 . S
N2071 C2064 1.356 . S
N2071 H2074 0.984 . S
N2071 H2075 0.985 . S
H2072 N2067 0.984 . S
H2073 N2067 0.985 . S
H2074 N2071 0.984 . S
H2075 N2071 0.985 . S
H2076 N2070 0.984 . S
H2077 N2070 0.984 . S
H2078 N2066 0.984 . S
H2079 N2066 0.985 . S
C2080 C2081 1.363 . S
C2080 C2086 1.379 . S
C2080 N2088 1.356 . S
C2081 C2080 1.363 . S
C2081 C2087 1.363 . S
C2082 C2083 1.363 . S
C2082 C2087 1.379 . S
C2082 N2089 1.356 . S
C2083 C2082 1.363 . S
C2083 C2086 1.363 . S
N2084 C2086 1.356 1_565 S
N2084 H2096 0.984 . S
N2084 H2097 0.984 . S
N2085 C2087 1.356 . S
N2085 H2090 0.984 . S
N2085 H2091 0.985 . S
C2086 C2080 1.379 . S
C2086 C2083 1.363 . S
C2086 N2084 1.356 1_545 S
C2087 C2081 1.363 . S
C2087 C2082 1.379 . S
C2087 N2085 1.356 . S
N2088 C2080 1.356 . S
N2088 H2094 0.984 1_545 S
N2088 H2095 0.984 . S
N2089 C2082 1.356 . S
N2089 H2092 0.984 . S
N2089 H2093 0.985 . S
H2090 N2085 0.984 . S
H2091 N2085 0.985 . S
H2092 N2089 0.984 . S
H2093 N2089 0.985 . S
H2094 N2088 0.984 1_565 S
H2095 N2088 0.984 . S
H2096 N2084 0.984 . S
H2097 N2084 0.984 . S
C2098 C2099 1.363 . S
C2098 C2104 1.379 . S
C2098 N2106 1.356 . S
C2099 C2098 1.363 . S
C2099 C2105 1.363 . S
C2100 C2101 1.363 . S
C2100 C2105 1.379 . S
C2100 N2107 1.356 . S
C2101 C2100 1.363 . S
C2101 C2104 1.363 . S
N2102 C2104 1.356 . S
N2102 H2114 0.984 . S
N2102 H2115 0.985 . S
N2103 C2105 1.356 . S
N2103 H2108 0.984 . S
N2103 H2109 0.985 . S
C2104 C2098 1.379 . S
C2104 C2101 1.363 . S
C2104 N2102 1.356 . S
C2105 C2099 1.363 . S
C2105 C2100 1.379 . S
C2105 N2103 1.356 . S
N2106 C2098 1.356 . S
N2106 H2112 0.984 . S
N2106 H2113 0.984 . S
N2107 C2100 1.356 . S
N2107 H2110 0.984 . S
N2107 H2111 0.985 . S
H2108 N2103 0.984 . S
H2109 N2103 0.985 . S
H2110 N2107 0.984 . S
H2111 N2107 0.985 . S
H2112 N2106 0.984 . S
H2113 N2106 0.984 . S
H2114 N2102 0.984 . S
H2115 N2102 0.985 . S
C2116 C2117 1.363 . S
C2116 C2122 1.379 . S
C2116 N2124 1.356 . S
C2117 C2116 1.363 . S
C2117 C2123 1.363 . S
C2118 C2119 1.363 . S
C2118 C2123 1.379 . S
C2118 N2125 1.356 . S
C2119 C2118 1.363 . S
C2119 C2122 1.363 . S
N2120 C2122 1.356 . S
N2120 H2132 0.984 . S
N2120 H2133 0.985 . S
N2121 C2123 1.356 1_565 S
N2121 H2126 0.984 . S
N2121 H2127 0.985 . S
C2122 C2116 1.379 . S
C2122 C2119 1.363 . S
C2122 N2120 1.356 . S
C2123 C2117 1.363 . S
C2123 C2118 1.379 . S
C2123 N2121 1.356 1_545 S
N2124 C2116 1.356 . S
N2124 H2130 0.984 . S
N2124 H2131 0.984 . S
N2125 C2118 1.356 . S
N2125 H2128 0.984 . S
N2125 H2129 0.985 1_545 S
H2126 N2121 0.984 . S
H2127 N2121 0.985 . S
H2128 N2125 0.984 . S
H2129 N2125 0.985 1_565 S
H2130 N2124 0.984 . S
H2131 N2124 0.984 . S
H2132 N2120 0.984 . S
H2133 N2120 0.985 . S
C2134 C2135 1.363 . S
C2134 C2140 1.379 . S
C2134 N2142 1.356 . S
C2135 C2134 1.363 . S
C2135 C2141 1.363 . S
C2136 C2137 1.363 . S
C2136 C2141 1.379 . S
C2136 N2143 1.356 . S
C2137 C2136 1.363 . S
C2137 C2140 1.363 . S
N2138 C2140 1.356 . S
N2138 H2150 0.984 . S
N2138 H2151 0.985 . S
N2139 C2141 1.356 . S
N2139 H2144 0.984 . S
N2139 H2145 0.985 . S
C2140 C2134 1.379 . S
C2140 C2137 1.363 . S
C2140 N2138 1.356 . S
C2141 C2135 1.363 . S
C2141 C2136 1.379 . S
C2141 N2139 1.356 . S
N2142 C2134 1.356 . S
N2142 H2148 0.984 . S
N2142 H2149 0.984 . S
N2143 C2136 1.356 . S
N2143 H2146 0.984 . S
N2143 H2147 0.985 . S
H2144 N2139 0.984 . S
H2145 N2139 0.985 . S
H2146 N2143 0.984 . S
H2147 N2143 0.985 . S
H2148 N2142 0.984 . S
H2149 N2142 0.984 . S
H2150 N2138 0.984 . S
H2151 N2138 0.985 . S
C2152 C2153 1.363 . S
C2152 C2158 1.379 . S
C2152 N2160 1.356 . S
C2153 C2152 1.363 . S
C2153 C2159 1.363 . S
C2154 C2155 1.363 . S
C2154 C2159 1.379 . S
C2154 N2161 1.356 . S
C2155 C2154 1.363 . S
C2155 C2158 1.363 . S
N2156 C2158 1.356 . S
N2156 H2168 0.984 . S
N2156 H2169 0.985 . S
N2157 C2159 1.356 . S
N2157 H2162 0.984 . S
N2157 H2163 0.985 . S
C2158 C2152 1.379 . S
C2158 C2155 1.363 . S
C2158 N2156 1.356 . S
C2159 C2153 1.363 . S
C2159 C2154 1.379 . S
C2159 N2157 1.356 . S
N2160 C2152 1.356 . S
N2160 H2166 0.984 . S
N2160 H2167 0.984 . S
N2161 C2154 1.356 . S
N2161 H2164 0.984 . S
N2161 H2165 0.985 . S
H2162 N2157 0.984 . S
H2163 N2157 0.985 . S
H2164 N2161 0.984 . S
H2165 N2161 0.985 . S
H2166 N2160 0.984 . S
H2167 N2160 0.984 . S
H2168 N2156 0.984 . S
H2169 N2156 0.985 . S
C2170 C2171 1.363 . S
C2170 C2176 1.379 . S
C2170 N2178 1.356 . S
C2171 C2170 1.363 . S
C2171 C2177 1.363 . S
C2172 C2173 1.363 . S
C2172 C2177 1.379 . S
C2172 N2179 1.356 . S
C2173 C2172 1.363 . S
C2173 C2176 1.363 . S
N2174 C2176 1.356 . S
N2174 H2186 0.984 . S
N2174 H2187 0.985 . S
N2175 C2177 1.356 . S
N2175 H2180 0.984 . S
N2175 H2181 0.985 . S
C2176 C2170 1.379 . S
C2176 C2173 1.363 . S
C2176 N2174 1.356 . S
C2177 C2171 1.363 . S
C2177 C2172 1.379 . S
C2177 N2175 1.356 . S
N2178 C2170 1.356 . S
N2178 H2184 0.984 . S
N2178 H2185 0.984 . S
N2179 C2172 1.356 . S
N2179 H2182 0.984 . S
N2179 H2183 0.985 . S
H2180 N2175 0.984 . S
H2181 N2175 0.985 . S
H2182 N2179 0.984 . S
H2183 N2179 0.985 . S
H2184 N2178 0.984 . S
H2185 N2178 0.984 . S
H2186 N2174 0.984 . S
H2187 N2174 0.985 . S
C2188 C2189 1.363 1_545 S
C2188 C2194 1.379 . S
C2188 N2196 1.356 . S
C2189 C2188 1.363 1_565 S
C2189 C2195 1.363 . S
C2190 C2191 1.363 . S
C2190 C2195 1.379 . S
C2190 N2197 1.356 . S
C2191 C2190 1.363 . S
C2191 C2194 1.363 1_565 S
N2192 C2194 1.356 . S
N2192 H2204 0.984 . S
N2192 H2205 1.004 . S
N2193 C2195 1.356 . S
N2193 H2198 0.984 . S
N2193 H2199 0.985 . S
C2194 C2188 1.379 . S
C2194 C2191 1.363 1_545 S
C2194 N2192 1.356 . S
C2195 C2189 1.363 . S
C2195 C2190 1.379 . S
C2195 N2193 1.356 . S
N2196 C2188 1.356 . S
N2196 H2202 0.984 . S
N2196 H2203 0.984 . S
N2197 C2190 1.356 . S
N2197 H2200 0.984 . S
N2197 H2201 0.985 . S
H2198 N2193 0.984 . S
H2199 N2193 0.985 . S
H2200 N2197 0.984 . S
H2201 N2197 0.985 . S
H2202 N2196 0.984 . S
H2203 N2196 0.984 . S
H2204 N2192 0.984 . S
H2205 N2192 1.004 . S
C2206 C2207 1.363 . S
C2206 C2212 1.379 . S
C2206 N2214 1.356 . S
C2207 C2206 1.363 . S
C2207 C2213 1.363 . S
C2208 C2209 1.363 . S
C2208 C2213 1.379 . S
C2208 N2215 1.356 . S
C2209 C2208 1.363 . S
C2209 C2212 1.363 . S
N2210 C2212 1.356 . S
N2210 H2222 0.984 . S
N2210 H2223 0.985 . S
N2211 C2213 1.356 . S
N2211 H2216 0.984 . S
N2211 H2217 0.985 . S
C2212 C2206 1.379 . S
C2212 C2209 1.363 . S
C2212 N2210 1.356 . S
C2213 C2207 1.363 . S
C2213 C2208 1.379 . S
C2213 N2211 1.356 . S
N2214 C2206 1.356 . S
N2214 H2220 0.984 . S
N2214 H2221 0.984 . S
N2215 C2208 1.356 . S
N2215 H2218 0.984 . S
N2215 H2219 0.985 . S
H2216 N2211 0.984 . S
H2217 N2211 0.985 . S
H2218 N2215 0.984 . S
H2219 N2215 0.985 . S
H2220 N2214 0.984 . S
H2221 N2214 0.984 . S
H2222 N2210 0.984 . S
H2223 N2210 0.985 . S
C2224 C2225 1.363 . S
C2224 C2230 1.379 . S
C2224 N2232 1.356 . S
C2225 C2224 1.363 . S
C2225 C2231 1.363 . S
C2226 C2227 1.363 . S
C2226 C2231 1.379 . S
C2226 N2233 1.356 1_554 S
C2227 C2226 1.363 . S
C2227 C2230 1.363 . S
N2228 C2230 1.356 . S
N2228 H2240 0.984 . S
N2228 H2241 0.985 . S
N2229 C2231 1.356 . S
N2229 H2234 0.984 . S
N2229 H2235 0.985 . S
C2230 C2224 1.379 . S
C2230 C2227 1.363 . S
C2230 N2228 1.356 . S
C2231 C2225 1.363 . S
C2231 C2226 1.379 . S
C2231 N2229 1.356 . S
N2232 C2224 1.356 . S
N2232 H2238 0.984 . S
N2232 H2239 0.984 . S
N2233 C2226 1.356 1_556 S
N2233 H2236 0.984 . S
N2233 H2237 0.985 . S
H2234 N2229 0.984 . S
H2235 N2229 0.985 . S
H2236 N2233 0.984 . S
H2237 N2233 0.985 . S
H2238 N2232 0.984 . S
H2239 N2232 0.984 . S
H2240 N2228 0.984 . S
H2241 N2228 0.985 . S
C2242 C2243 1.363 . S
C2242 C2248 1.379 . S
C2242 N2250 1.356 . S
C2243 C2242 1.363 . S
C2243 C2249 1.363 . S
C2244 C2245 1.363 . S
C2244 C2249 1.379 . S
C2244 N2251 1.356 . S
C2245 C2244 1.363 . S
C2245 C2248 1.363 . S
N2246 C2248 1.356 . S
N2246 H2258 0.984 . S
N2246 H2259 0.985 . S
N2247 C2249 1.356 . S
N2247 H2252 0.984 . S
N2247 H2253 0.985 1_554 S
C2248 C2242 1.379 . S
C2248 C2245 1.363 . S
C2248 N2246 1.356 . S
C2249 C2243 1.363 . S
C2249 C2244 1.379 . S
C2249 N2247 1.356 . S
N2250 C2242 1.356 . S
N2250 H2256 0.984 . S
N2250 H2257 0.984 . S
N2251 C2244 1.356 . S
N2251 H2254 0.984 . S
N2251 H2255 0.985 1_554 S
H2252 N2247 0.984 . S
H2253 N2247 0.985 1_556 S
H2254 N2251 0.984 . S
H2255 N2251 0.985 1_556 S
H2256 N2250 0.984 . S
H2257 N2250 0.984 . S
H2258 N2246 0.984 . S
H2259 N2246 0.985 . S
C2260 C2261 1.363 . S
C2260 C2266 1.379 . S
C2260 N2268 1.356 . S
C2261 C2260 1.363 . S
C2261 C2267 1.363 . S
C2262 C2263 1.363 . S
C2262 C2267 1.379 . S
C2262 N2269 1.356 . S
C2263 C2262 1.363 . S
C2263 C2266 1.363 . S
N2264 C2266 1.356 . S
N2264 H2276 0.984 . S
N2264 H2277 0.985 . S
N2265 C2267 1.356 . S
N2265 H2270 0.984 . S
N2265 H2271 0.985 . S
C2266 C2260 1.379 . S
C2266 C2263 1.363 . S
C2266 N2264 1.356 . S
C2267 C2261 1.363 . S
C2267 C2262 1.379 . S
C2267 N2265 1.356 . S
N2268 C2260 1.356 . S
N2268 H2274 0.984 . S
N2268 H2275 0.984 . S
N2269 C2262 1.356 . S
N2269 H2272 0.984 . S
N2269 H2273 0.985 . S
H2270 N2265 0.984 . S
H2271 N2265 0.985 . S
H2272 N2269 0.984 . S
H2273 N2269 0.985 . S
H2274 N2268 0.984 . S
H2275 N2268 0.984 . S
H2276 N2264 0.984 . S
H2277 N2264 0.985 . S
C2278 C2279 1.363 . S
C2278 C2284 1.379 . S
C2278 N2286 1.356 . S
C2279 C2278 1.363 . S
C2279 C2285 1.363 . S
C2280 C2281 1.363 . S
C2280 C2285 1.379 . S
C2280 N2287 1.356 . S
C2281 C2280 1.363 . S
C2281 C2284 1.363 . S
N2282 C2284 1.356 . S
N2282 H2294 0.984 . S
N2282 H2295 0.985 . S
N2283 C2285 1.356 . S
N2283 H2288 0.984 . S
N2283 H2289 0.985 . S
C2284 C2278 1.379 . S
C2284 C2281 1.363 . S
C2284 N2282 1.356 . S
C2285 C2279 1.363 . S
C2285 C2280 1.379 . S
C2285 N2283 1.356 . S
N2286 C2278 1.356 . S
N2286 H2292 0.984 . S
N2286 H2293 0.984 . S
N2287 C2280 1.356 . S
N2287 H2290 0.984 . S
N2287 H2291 0.985 . S
H2288 N2283 0.984 . S
H2289 N2283 0.985 . S
H2290 N2287 0.984 . S
H2291 N2287 0.985 . S
H2292 N2286 0.984 . S
H2293 N2286 0.984 . S
H2294 N2282 0.984 . S
H2295 N2282 0.985 . S
C2296 C2297 1.363 . S
C2296 C2302 1.379 . S
C2296 N2304 1.356 . S
C2297 C2296 1.363 . S
C2297 C2303 1.363 . S
C2298 C2299 1.369 . S
C2298 C2303 1.401 . S
C2298 N2305 1.326 1_545 S
C2299 C2298 1.369 . S
C2299 C2302 1.363 . S
N2300 C2302 1.356 . S
N2300 H2312 0.984 . S
N2300 H2313 0.985 . S
N2301 C2303 1.356 . S
N2301 H2306 0.984 . S
N2301 H2307 0.985 1_545 S
C2302 C2296 1.379 . S
C2302 C2299 1.363 . S
C2302 N2300 1.356 . S
C2303 C2297 1.363 . S
C2303 C2298 1.401 . S
C2303 N2301 1.356 . S
N2304 C2296 1.356 . S
N2304 H2310 0.984 . S
N2304 H2311 0.984 . S
N2305 C2298 1.326 1_565 S
N2305 H2308 0.984 . S
N2305 H2309 0.985 . S
H2306 N2301 0.984 . S
H2307 N2301 0.985 1_565 S
H2308 N2305 0.984 . S
H2309 N2305 0.985 . S
H2310 N2304 0.984 . S
H2311 N2304 0.984 . S
H2312 N2300 0.984 . S
H2313 N2300 0.985 . S
C2314 C2315 1.363 . S
C2314 C2320 1.379 . S
C2314 N2322 1.356 . S
C2315 C2314 1.363 . S
C2315 C2321 1.363 . S
C2316 C2317 1.363 . S
C2316 C2321 1.379 . S
C2316 N2323 1.356 . S
C2317 C2316 1.363 . S
C2317 C2320 1.363 . S
N2318 C2320 1.356 1_545 S
N2318 H2330 0.984 . S
N2318 H2331 0.985 . S
N2319 C2321 1.356 . S
N2319 H2324 0.984 . S
N2319 H2325 0.985 . S
C2320 C2314 1.379 . S
C2320 C2317 1.363 . S
C2320 N2318 1.356 1_565 S
C2321 C2315 1.363 . S
C2321 C2316 1.379 . S
C2321 N2319 1.356 . S
N2322 C2314 1.356 . S
N2322 H2328 0.984 . S
N2322 H2329 0.984 . S
N2323 C2316 1.356 . S
N2323 H2326 0.984 . S
N2323 H2327 0.985 . S
H2324 N2319 0.984 . S
H2325 N2319 0.985 . S
H2326 N2323 0.984 . S
H2327 N2323 0.985 . S
H2328 N2322 0.984 . S
H2329 N2322 0.984 . S
H2330 N2318 0.984 . S
H2331 N2318 0.985 . S
C2332 C2333 1.363 . S
C2332 C2338 1.379 . S
C2332 N2340 1.356 . S
C2333 C2332 1.363 . S
C2333 C2339 1.363 . S
C2334 C2335 1.363 . S
C2334 C2339 1.379 . S
C2334 N2341 1.356 . S
C2335 C2334 1.363 . S
C2335 C2338 1.363 . S
N2336 C2338 1.356 . S
N2336 H2348 0.984 . S
N2336 H2349 0.985 . S
N2337 C2339 1.356 . S
N2337 H2342 0.984 . S
N2337 H2343 0.985 . S
C2338 C2332 1.379 . S
C2338 C2335 1.363 . S
C2338 N2336 1.356 . S
C2339 C2333 1.363 . S
C2339 C2334 1.379 . S
C2339 N2337 1.356 . S
N2340 C2332 1.356 . S
N2340 H2346 0.984 . S
N2340 H2347 0.984 . S
N2341 C2334 1.356 . S
N2341 H2344 0.984 . S
N2341 H2345 0.985 . S
H2342 N2337 0.984 . S
H2343 N2337 0.985 . S
H2344 N2341 0.984 . S
H2345 N2341 0.985 . S
H2346 N2340 0.984 . S
H2347 N2340 0.984 . S
H2348 N2336 0.984 . S
H2349 N2336 0.985 . S
C2350 C2351 1.363 . S
C2350 C2356 1.379 . S
C2350 N2358 1.356 . S
C2351 C2350 1.363 . S
C2351 C2357 1.363 . S
C2352 C2353 1.363 . S
C2352 C2357 1.379 . S
C2352 N2359 1.356 . S
C2353 C2352 1.363 . S
C2353 C2356 1.363 . S
N2354 C2356 1.356 . S
N2354 H2366 0.984 . S
N2354 H2367 0.985 . S
N2355 C2357 1.356 . S
N2355 H2360 0.984 . S
N2355 H2361 0.985 . S
C2356 C2350 1.379 . S
C2356 C2353 1.363 . S
C2356 N2354 1.356 . S
C2357 C2351 1.363 . S
C2357 C2352 1.379 . S
C2357 N2355 1.356 . S
N2358 C2350 1.356 . S
N2358 H2364 0.984 . S
N2358 H2365 0.984 . S
N2359 C2352 1.356 . S
N2359 H2362 0.984 . S
N2359 H2363 0.985 . S
H2360 N2355 0.984 . S
H2361 N2355 0.985 . S
H2362 N2359 0.984 . S
H2363 N2359 0.985 . S
H2364 N2358 0.984 . S
H2365 N2358 0.984 . S
H2366 N2354 0.984 . S
H2367 N2354 0.985 . S
C2368 C2369 1.363 . S
C2368 C2374 1.379 . S
C2368 N2376 1.356 . S
C2369 C2368 1.363 . S
C2369 C2375 1.363 . S
C2370 C2371 1.363 . S
C2370 C2375 1.379 . S
C2370 N2377 1.356 . S
C2371 C2370 1.363 . S
C2371 C2374 1.363 . S
N2372 C2374 1.356 . S
N2372 H2384 0.984 . S
N2372 H2385 0.985 . S
N2373 C2375 1.356 . S
N2373 H2378 0.984 . S
N2373 H2379 0.985 . S
C2374 C2368 1.379 . S
C2374 C2371 1.363 . S
C2374 N2372 1.356 . S
C2375 C2369 1.363 . S
C2375 C2370 1.379 . S
C2375 N2373 1.356 . S
N2376 C2368 1.356 . S
N2376 H2382 0.984 . S
N2376 H2383 0.984 . S
N2377 C2370 1.356 . S
N2377 H2380 0.984 . S
N2377 H2381 0.985 . S
H2378 N2373 0.984 . S
H2379 N2373 0.985 . S
H2380 N2377 0.984 . S
H2381 N2377 0.985 . S
H2382 N2376 0.984 . S
H2383 N2376 0.984 . S
H2384 N2372 0.984 . S
H2385 N2372 0.985 . S
C2386 C2387 1.363 . S
C2386 C2392 1.379 . S
C2386 N2394 1.356 . S
C2387 C2386 1.363 . S
C2387 C2393 1.363 . S
C2388 C2389 1.363 . S
C2388 C2393 1.379 . S
C2388 N2395 1.356 . S
C2389 C2388 1.363 . S
C2389 C2392 1.363 . S
N2390 C2392 1.356 . S
N2390 H2402 0.984 . S
N2390 H2403 0.985 . S
N2391 C2393 1.356 . S
N2391 H2396 0.984 . S
N2391 H2397 0.985 . S
C2392 C2386 1.379 . S
C2392 C2389 1.363 . S
C2392 N2390 1.356 . S
C2393 C2387 1.363 . S
C2393 C2388 1.379 . S
C2393 N2391 1.356 . S
N2394 C2386 1.356 . S
N2394 H2400 0.984 . S
N2394 H2401 0.984 . S
N2395 C2388 1.356 . S
N2395 H2398 0.984 . S
N2395 H2399 0.985 . S
H2396 N2391 0.984 . S
H2397 N2391 0.985 . S
H2398 N2395 0.984 . S
H2399 N2395 0.985 . S
H2400 N2394 0.984 . S
H2401 N2394 0.984 . S
H2402 N2390 0.984 . S
H2403 N2390 0.985 . S
C2404 C2405 1.363 . S
C2404 C2410 1.379 . S
C2404 N2412 1.351 1_455 S
C2405 C2404 1.363 . S
C2405 C2411 1.363 . S
C2406 C2407 1.363 . S
C2406 C2411 1.379 . S
C2406 N2413 1.354 . S
C2407 C2406 1.363 . S
C2407 C2410 1.363 . S
N2408 C2410 1.356 . S
N2408 H2420 0.984 1_455 S
N2408 H2421 0.985 . S
N2409 C2411 1.356 1_556 S
N2409 H2414 0.984 . S
N2409 H2415 0.985 . S
C2410 C2404 1.379 . S
C2410 C2407 1.363 . S
C2410 N2408 1.356 . S
C2411 C2405 1.363 . S
C2411 C2406 1.379 . S
C2411 N2409 1.356 1_554 S
N2412 C2404 1.351 1_655 S
N2412 H2418 1.004 . S
N2412 H2419 0.976 . S
N2413 C2406 1.354 . S
N2413 H2416 0.983 . S
N2413 H2417 0.987 1_554 S
H2414 N2409 0.984 . S
H2415 N2409 0.985 . S
H2416 N2413 0.983 . S
H2417 N2413 0.987 1_556 S
H2418 N2412 1.004 . S
H2419 N2412 0.976 . S
H2420 N2408 0.984 1_655 S
H2421 N2408 0.985 . S
C2422 C2423 1.363 . S
C2422 C2428 1.379 . S
C2422 N2430 1.356 . S
C2423 C2422 1.363 . S
C2423 C2429 1.363 1_655 S
C2424 C2425 1.363 . S
C2424 C2429 1.379 1_655 S
C2424 N2431 1.356 . S
C2425 C2424 1.363 . S
C2425 C2428 1.363 . S
N2426 C2428 1.356 . S
N2426 H2438 0.984 . S
N2426 H2439 0.985 . S
N2427 C2429 1.356 . S
N2427 H2432 0.984 . S
N2427 H2433 0.985 . S
C2428 C2422 1.379 . S
C2428 C2425 1.363 . S
C2428 N2426 1.356 . S
C2429 C2423 1.363 1_455 S
C2429 C2424 1.379 1_455 S
C2429 N2427 1.356 . S
N2430 C2422 1.356 . S
N2430 H2436 0.984 . S
N2430 H2437 0.984 . S
N2431 C2424 1.356 . S
N2431 H2434 0.984 . S
N2431 H2435 0.985 1_655 S
H2432 N2427 0.984 . S
H2433 N2427 0.985 . S
H2434 N2431 0.984 . S
H2435 N2431 0.985 1_455 S
H2436 N2430 0.984 . S
H2437 N2430 0.984 . S
H2438 N2426 0.984 . S
H2439 N2426 0.985 . S
C2440 C2441 1.363 . S
C2440 C2446 1.379 . S
C2440 N2448 1.356 . S
C2441 C2440 1.363 . S
C2441 C2447 1.363 . S
C2442 C2443 1.363 . S
C2442 C2447 1.379 . S
C2442 N2449 1.356 . S
C2443 C2442 1.363 . S
C2443 C2446 1.363 . S
N2444 C2446 1.356 . S
N2444 H2456 0.984 . S
N2444 H2457 0.985 . S
N2445 C2447 1.356 . S
N2445 H2450 0.984 . S
N2445 H2451 0.985 . S
C2446 C2440 1.379 . S
C2446 C2443 1.363 . S
C2446 N2444 1.356 . S
C2447 C2441 1.363 . S
C2447 C2442 1.379 . S
C2447 N2445 1.356 . S
N2448 C2440 1.356 . S
N2448 H2454 0.984 . S
N2448 H2455 0.984 . S
N2449 C2442 1.356 . S
N2449 H2452 0.984 . S
N2449 H2453 0.985 . S
H2450 N2445 0.984 . S
H2451 N2445 0.985 . S
H2452 N2449 0.984 . S
H2453 N2449 0.985 . S
H2454 N2448 0.984 . S
H2455 N2448 0.984 . S
H2456 N2444 0.984 . S
H2457 N2444 0.985 . S
C2458 C2459 1.363 . S
C2458 C2464 1.379 . S
C2458 N2466 1.356 . S
C2459 C2458 1.363 . S
C2459 C2465 1.363 . S
C2460 C2461 1.363 . S
C2460 C2465 1.379 . S
C2460 N2467 1.356 . S
C2461 C2460 1.363 . S
C2461 C2464 1.363 . S
N2462 C2464 1.356 . S
N2462 H2474 0.984 . S
N2462 H2475 0.985 . S
N2463 C2465 1.356 . S
N2463 H2468 0.984 . S
N2463 H2469 0.985 . S
C2464 C2458 1.379 . S
C2464 C2461 1.363 . S
C2464 N2462 1.356 . S
C2465 C2459 1.363 . S
C2465 C2460 1.379 . S
C2465 N2463 1.356 . S
N2466 C2458 1.356 . S
N2466 H2472 0.984 . S
N2466 H2473 0.984 . S
N2467 C2460 1.356 . S
N2467 H2470 0.984 . S
N2467 H2471 0.985 . S
H2468 N2463 0.984 . S
H2469 N2463 0.985 . S
H2470 N2467 0.984 . S
H2471 N2467 0.985 . S
H2472 N2466 0.984 . S
H2473 N2466 0.984 . S
H2474 N2462 0.984 . S
H2475 N2462 0.985 . S
C2476 C2477 1.363 1_655 S
C2476 C2482 1.379 1_655 S
C2476 N2484 1.356 . S
C2477 C2476 1.363 1_455 S
C2477 C2483 1.363 . S
C2478 C2479 1.363 . S
C2478 C2483 1.379 . S
C2478 N2485 1.356 . S
C2479 C2478 1.363 . S
C2479 C2482 1.363 . S
N2480 C2482 1.356 1_655 S
N2480 H2492 0.984 . S
N2480 H2493 0.985 . S
N2481 C2483 1.356 . S
N2481 H2486 0.984 . S
N2481 H2487 0.985 . S
C2482 C2476 1.379 1_455 S
C2482 C2479 1.363 . S
C2482 N2480 1.356 1_455 S
C2483 C2477 1.363 . S
C2483 C2478 1.379 . S
C2483 N2481 1.356 . S
N2484 C2476 1.356 . S
N2484 H2490 0.984 . S
N2484 H2491 0.984 . S
N2485 C2478 1.356 . S
N2485 H2488 0.984 . S
N2485 H2489 0.985 . S
H2486 N2481 0.984 . S
H2487 N2481 0.985 . S
H2488 N2485 0.984 . S
H2489 N2485 0.985 . S
H2490 N2484 0.984 . S
H2491 N2484 0.984 . S
H2492 N2480 0.984 . S
H2493 N2480 0.985 . S
C2494 C2495 1.363 . S
C2494 C2500 1.379 . S
C2494 N2502 1.356 . S
C2495 C2494 1.363 . S
C2495 C2501 1.363 . S
C2496 C2497 1.363 . S
C2496 C2501 1.379 . S
C2496 N2503 1.356 . S
C2497 C2496 1.363 . S
C2497 C2500 1.363 . S
N2498 C2500 1.356 . S
N2498 H2510 0.984 . S
N2498 H2511 0.985 . S
N2499 C2501 1.356 . S
N2499 H2504 0.984 . S
N2499 H2505 0.985 . S
C2500 C2494 1.379 . S
C2500 C2497 1.363 . S
C2500 N2498 1.356 . S
C2501 C2495 1.363 . S
C2501 C2496 1.379 . S
C2501 N2499 1.356 . S
N2502 C2494 1.356 . S
N2502 H2508 0.984 . S
N2502 H2509 0.984 . S
N2503 C2496 1.356 . S
N2503 H2506 0.984 . S
N2503 H2507 0.985 . S
H2504 N2499 0.984 . S
H2505 N2499 0.985 . S
H2506 N2503 0.984 . S
H2507 N2503 0.985 . S
H2508 N2502 0.984 . S
H2509 N2502 0.984 . S
H2510 N2498 0.984 . S
H2511 N2498 0.985 . S
C2512 C2513 1.363 . S
C2512 C2518 1.379 . S
C2512 N2520 1.356 . S
C2513 C2512 1.363 . S
C2513 C2519 1.363 . S
C2514 C2515 1.363 . S
C2514 C2519 1.379 . S
C2514 N2521 1.356 . S
C2515 C2514 1.363 . S
C2515 C2518 1.363 . S
N2516 C2518 1.356 . S
N2516 H2528 0.984 . S
N2516 H2529 0.985 . S
N2517 C2519 1.356 . S
N2517 H2522 0.984 . S
N2517 H2523 0.985 . S
C2518 C2512 1.379 . S
C2518 C2515 1.363 . S
C2518 N2516 1.356 . S
C2519 C2513 1.363 . S
C2519 C2514 1.379 . S
C2519 N2517 1.356 . S
N2520 C2512 1.356 . S
N2520 H2526 0.984 . S
N2520 H2527 0.984 . S
N2521 C2514 1.356 . S
N2521 H2524 0.984 . S
N2521 H2525 0.985 . S
H2522 N2517 0.984 . S
H2523 N2517 0.985 . S
H2524 N2521 0.984 . S
H2525 N2521 0.985 . S
H2526 N2520 0.984 . S
H2527 N2520 0.984 . S
H2528 N2516 0.984 . S
H2529 N2516 0.985 . S
C2530 C2531 1.363 . S
C2530 C2536 1.379 . S
C2530 N2538 1.356 . S
C2531 C2530 1.363 . S
C2531 C2537 1.363 1_554 S
C2532 C2533 1.363 . S
C2532 C2537 1.379 . S
C2532 N2539 1.356 . S
C2533 C2532 1.363 . S
C2533 C2536 1.363 1_556 S
N2534 C2536 1.356 . S
N2534 H2546 0.984 . S
N2534 H2547 0.985 1_554 S
N2535 C2537 1.355 1_554 S
N2535 H2540 0.987 . S
N2535 H2541 0.983 1_554 S
C2536 C2530 1.379 . S
C2536 C2533 1.363 1_554 S
C2536 N2534 1.356 . S
C2537 C2531 1.363 1_556 S
C2537 C2532 1.379 . S
C2537 N2535 1.355 1_556 S
N2538 C2530 1.356 . S
N2538 H2544 0.984 . S
N2538 H2545 0.984 . S
N2539 C2532 1.356 . S
N2539 H2542 0.984 . S
N2539 H2543 0.985 . S
H2540 N2535 0.987 . S
H2541 N2535 0.983 1_556 S
H2542 N2539 0.984 . S
H2543 N2539 0.985 . S
H2544 N2538 0.984 . S
H2545 N2538 0.984 . S
H2546 N2534 0.984 . S
H2547 N2534 0.985 1_556 S
C2548 C2549 1.363 . S
C2548 C2554 1.379 . S
C2548 N2556 1.356 . S
C2549 C2548 1.363 . S
C2549 C2555 1.363 . S
C2550 C2551 1.363 . S
C2550 C2555 1.379 . S
C2550 N2557 1.356 . S
C2551 C2550 1.363 . S
C2551 C2554 1.363 . S
N2552 C2554 1.356 . S
N2552 H2564 0.984 . S
N2552 H2565 0.985 . S
N2553 C2555 1.356 . S
N2553 H2558 0.984 . S
N2553 H2559 0.985 . S
C2554 C2548 1.379 . S
C2554 C2551 1.363 . S
C2554 N2552 1.356 . S
C2555 C2549 1.363 . S
C2555 C2550 1.379 . S
C2555 N2553 1.356 . S
N2556 C2548 1.356 . S
N2556 H2562 0.984 . S
N2556 H2563 0.984 . S
N2557 C2550 1.356 . S
N2557 H2560 0.984 . S
N2557 H2561 0.985 . S
H2558 N2553 0.984 . S
H2559 N2553 0.985 . S
H2560 N2557 0.984 . S
H2561 N2557 0.985 . S
H2562 N2556 0.984 . S
H2563 N2556 0.984 . S
H2564 N2552 0.984 . S
H2565 N2552 0.985 . S
C2566 C2567 1.363 . S
C2566 C2572 1.379 . S
C2566 N2574 1.356 . S
C2567 C2566 1.363 . S
C2567 C2573 1.363 . S
C2568 C2569 1.363 . S
C2568 C2573 1.379 . S
C2568 N2575 1.356 . S
C2569 C2568 1.363 . S
C2569 C2572 1.363 . S
N2570 C2572 1.356 . S
N2570 H2582 0.984 . S
N2570 H2583 0.985 . S
N2571 C2573 1.356 . S
N2571 H2576 0.984 . S
N2571 H2577 0.985 . S
C2572 C2566 1.379 . S
C2572 C2569 1.363 . S
C2572 N2570 1.356 . S
C2573 C2567 1.363 . S
C2573 C2568 1.379 . S
C2573 N2571 1.356 . S
N2574 C2566 1.356 . S
N2574 H2580 0.984 . S
N2574 H2581 0.984 . S
N2575 C2568 1.356 . S
N2575 H2578 0.984 . S
N2575 H2579 0.985 . S
H2576 N2571 0.984 . S
H2577 N2571 0.985 . S
H2578 N2575 0.984 . S
H2579 N2575 0.985 . S
H2580 N2574 0.984 . S
H2581 N2574 0.984 . S
H2582 N2570 0.984 . S
H2583 N2570 0.985 . S
C2584 C2585 1.363 . S
C2584 C2590 1.379 . S
C2584 N2592 1.356 . S
C2585 C2584 1.363 . S
C2585 C2591 1.363 . S
C2586 C2587 1.363 . S
C2586 C2591 1.379 . S
C2586 N2593 1.356 . S
C2587 C2586 1.363 . S
C2587 C2590 1.363 . S
N2588 C2590 1.356 . S
N2588 H2600 0.984 . S
N2588 H2601 0.985 . S
N2589 C2591 1.356 . S
N2589 H2594 0.984 . S
N2589 H2595 0.985 . S
C2590 C2584 1.379 . S
C2590 C2587 1.363 . S
C2590 N2588 1.356 . S
C2591 C2585 1.363 . S
C2591 C2586 1.379 . S
C2591 N2589 1.356 . S
N2592 C2584 1.356 . S
N2592 H2598 0.984 . S
N2592 H2599 0.984 . S
N2593 C2586 1.356 . S
N2593 H2596 0.984 . S
N2593 H2597 0.985 . S
H2594 N2589 0.984 . S
H2595 N2589 0.985 . S
H2596 N2593 0.984 . S
H2597 N2593 0.985 . S
H2598 N2592 0.984 . S
H2599 N2592 0.984 . S
H2600 N2588 0.984 . S
H2601 N2588 0.985 . S
C2602 C2603 1.363 . S
C2602 C2608 1.379 . S
C2602 N2610 1.356 . S
C2603 C2602 1.363 . S
C2603 C2609 1.363 . S
C2604 C2605 1.363 . S
C2604 C2609 1.379 . S
C2604 N2611 1.356 . S
C2605 C2604 1.363 . S
C2605 C2608 1.363 . S
N2606 C2608 1.356 . S
N2606 H2618 0.984 . S
N2606 H2619 0.985 . S
N2607 C2609 1.356 . S
N2607 H2612 0.984 . S
N2607 H2613 0.985 . S
C2608 C2602 1.379 . S
C2608 C2605 1.363 . S
C2608 N2606 1.356 . S
C2609 C2603 1.363 . S
C2609 C2604 1.379 . S
C2609 N2607 1.356 . S
N2610 C2602 1.356 . S
N2610 H2616 0.984 . S
N2610 H2617 0.984 . S
N2611 C2604 1.356 . S
N2611 H2614 0.984 . S
N2611 H2615 0.985 . S
H2612 N2607 0.984 . S
H2613 N2607 0.985 . S
H2614 N2611 0.984 . S
H2615 N2611 0.985 . S
H2616 N2610 0.984 . S
H2617 N2610 0.984 . S
H2618 N2606 0.984 . S
H2619 N2606 0.985 . S
C2620 C2621 1.363 . S
C2620 C2626 1.379 . S
C2620 N2628 1.356 . S
C2621 C2620 1.363 . S
C2621 C2627 1.363 . S
C2622 C2623 1.363 . S
C2622 C2627 1.379 . S
C2622 N2629 1.356 . S
C2623 C2622 1.363 . S
C2623 C2626 1.363 . S
N2624 C2626 1.356 . S
N2624 H2636 0.984 . S
N2624 H2637 0.985 . S
N2625 C2627 1.356 . S
N2625 H2630 0.984 . S
N2625 H2631 0.985 . S
C2626 C2620 1.379 . S
C2626 C2623 1.363 . S
C2626 N2624 1.356 . S
C2627 C2621 1.363 . S
C2627 C2622 1.379 . S
C2627 N2625 1.356 . S
N2628 C2620 1.356 . S
N2628 H2634 0.984 . S
N2628 H2635 0.984 . S
N2629 C2622 1.356 . S
N2629 H2632 0.984 . S
N2629 H2633 0.985 . S
H2630 N2625 0.984 . S
H2631 N2625 0.985 . S
H2632 N2629 0.984 . S
H2633 N2629 0.985 . S
H2634 N2628 0.984 . S
H2635 N2628 0.984 . S
H2636 N2624 0.984 . S
H2637 N2624 0.985 . S
C2638 C2639 1.363 . S
C2638 C2644 1.379 . S
C2638 N2646 1.356 . S
C2639 C2638 1.363 . S
C2639 C2645 1.363 . S
C2640 C2641 1.363 . S
C2640 C2645 1.379 . S
C2640 N2647 1.356 . S
C2641 C2640 1.363 . S
C2641 C2644 1.363 . S
N2642 C2644 1.356 . S
N2642 H2654 0.984 . S
N2642 H2655 0.985 . S
N2643 C2645 1.356 . S
N2643 H2648 0.984 . S
N2643 H2649 0.985 . S
C2644 C2638 1.379 . S
C2644 C2641 1.363 . S
C2644 N2642 1.356 . S
C2645 C2639 1.363 . S
C2645 C2640 1.379 . S
C2645 N2643 1.356 . S
N2646 C2638 1.356 . S
N2646 H2652 0.984 . S
N2646 H2653 0.984 . S
N2647 C2640 1.356 . S
N2647 H2650 0.984 . S
N2647 H2651 0.985 . S
H2648 N2643 0.984 . S
H2649 N2643 0.985 . S
H2650 N2647 0.984 . S
H2651 N2647 0.985 . S
H2652 N2646 0.984 . S
H2653 N2646 0.984 . S
H2654 N2642 0.984 . S
H2655 N2642 0.985 . S
C2656 C2657 1.363 . S
C2656 C2662 1.379 . S
C2656 N2664 1.356 . S
C2657 C2656 1.363 . S
C2657 C2663 1.363 . S
C2658 C2659 1.363 . S
C2658 C2663 1.379 . S
C2658 N2665 1.356 . S
C2659 C2658 1.363 . S
C2659 C2662 1.363 . S
N2660 C2662 1.356 . S
N2660 H2672 0.984 . S
N2660 H2673 0.985 . S
N2661 C2663 1.356 . S
N2661 H2666 0.984 . S
N2661 H2667 0.985 . S
C2662 C2656 1.379 . S
C2662 C2659 1.363 . S
C2662 N2660 1.356 . S
C2663 C2657 1.363 . S
C2663 C2658 1.379 . S
C2663 N2661 1.356 . S
N2664 C2656 1.356 . S
N2664 H2670 0.984 . S
N2664 H2671 0.984 . S
N2665 C2658 1.356 . S
N2665 H2668 0.984 . S
N2665 H2669 0.985 . S
H2666 N2661 0.984 . S
H2667 N2661 0.985 . S
H2668 N2665 0.984 . S
H2669 N2665 0.985 . S
H2670 N2664 0.984 . S
H2671 N2664 0.984 . S
H2672 N2660 0.984 . S
H2673 N2660 0.985 . S
C2674 C2675 1.363 . S
C2674 C2680 1.379 . S
C2674 N2682 1.356 . S
C2675 C2674 1.363 . S
C2675 C2681 1.363 . S
C2676 C2677 1.363 . S
C2676 C2681 1.379 . S
C2676 N2683 1.356 . S
C2677 C2676 1.363 . S
C2677 C2680 1.363 . S
N2678 C2680 1.356 . S
N2678 H2690 0.984 . S
N2678 H2691 0.985 . S
N2679 C2681 1.356 . S
N2679 H2684 0.984 . S
N2679 H2685 0.985 . S
C2680 C2674 1.379 . S
C2680 C2677 1.363 . S
C2680 N2678 1.356 . S
C2681 C2675 1.363 . S
C2681 C2676 1.379 . S
C2681 N2679 1.356 . S
N2682 C2674 1.356 . S
N2682 H2688 0.984 . S
N2682 H2689 0.984 . S
N2683 C2676 1.356 . S
N2683 H2686 0.984 . S
N2683 H2687 0.985 . S
H2684 N2679 0.984 . S
H2685 N2679 0.985 . S
H2686 N2683 0.984 . S
H2687 N2683 0.985 . S
H2688 N2682 0.984 . S
H2689 N2682 0.984 . S
H2690 N2678 0.984 . S
H2691 N2678 0.985 . S
C2692 C2693 1.363 . S
C2692 C2698 1.379 1_545 S
C2692 N2700 1.356 . S
C2693 C2692 1.363 . S
C2693 C2699 1.363 1_545 S
C2694 C2695 1.363 . S
C2694 C2699 1.379 . S
C2694 N2701 1.356 . S
C2695 C2694 1.363 . S
C2695 C2698 1.363 . S
N2696 C2698 1.356 . S
N2696 H2708 0.984 1_565 S
N2696 H2709 0.985 . S
N2697 C2699 1.356 . S
N2697 H2702 0.984 1_565 S
N2697 H2703 0.985 . S
C2698 C2692 1.379 1_565 S
C2698 C2695 1.363 . S
C2698 N2696 1.356 . S
C2699 C2693 1.363 1_565 S
C2699 C2694 1.379 . S
C2699 N2697 1.356 . S
N2700 C2692 1.356 . S
N2700 H2706 0.984 . S
N2700 H2707 0.984 . S
N2701 C2694 1.356 . S
N2701 H2704 0.984 . S
N2701 H2705 0.985 . S
H2702 N2697 0.984 1_545 S
H2703 N2697 0.985 . S
H2704 N2701 0.984 . S
H2705 N2701 0.985 . S
H2706 N2700 0.984 . S
H2707 N2700 0.984 . S
H2708 N2696 0.984 1_545 S
H2709 N2696 0.985 . S
C2710 C2711 1.363 1_545 S
C2710 C2716 1.379 . S
C2710 N2718 1.356 1_545 S
C2711 C2710 1.363 1_565 S
C2711 C2717 1.363 1_554 S
C2712 C2713 1.363 . S
C2712 C2717 1.379 1_544 S
C2712 N2719 1.356 1_554 S
C2713 C2712 1.363 . S
C2713 C2716 1.363 . S
N2714 C2716 1.356 . S
N2714 H2726 0.984 . S
N2714 H2727 0.985 . S
N2715 C2717 1.356 . S
N2715 H2720 0.984 . S
N2715 H2721 0.985 . S
C2716 C2710 1.379 . S
C2716 C2713 1.363 . S
C2716 N2714 1.356 . S
C2717 C2711 1.363 1_556 S
C2717 C2712 1.379 1_566 S
C2717 N2715 1.356 . S
N2718 C2710 1.356 1_565 S
N2718 H2724 0.984 1_565 S
N2718 H2725 0.984 . S
N2719 C2712 1.356 1_556 S
N2719 H2722 0.984 1_556 S
N2719 H2723 0.985 . S
H2720 N2715 0.984 . S
H2721 N2715 0.985 . S
H2722 N2719 0.984 1_554 S
H2723 N2719 0.985 . S
H2724 N2718 0.984 1_545 S
H2725 N2718 0.984 . S
H2726 N2714 0.984 . S
H2727 N2714 0.985 . S
C2728 C2729 1.363 . S
C2728 C2734 1.379 . S
C2728 N2736 1.356 . S
C2729 C2728 1.363 . S
C2729 C2735 1.363 . S
C2730 C2731 1.363 . S
C2730 C2735 1.379 . S
C2730 N2737 1.356 . S
C2731 C2730 1.363 . S
C2731 C2734 1.363 . S
N2732 C2734 1.356 . S
N2732 H2744 0.984 . S
N2732 H2745 0.985 . S
N2733 C2735 1.356 . S
N2733 H2738 0.984 . S
N2733 H2739 0.985 . S
C2734 C2728 1.379 . S
C2734 C2731 1.363 . S
C2734 N2732 1.356 . S
C2735 C2729 1.363 . S
C2735 C2730 1.379 . S
C2735 N2733 1.356 . S
N2736 C2728 1.356 . S
N2736 H2742 0.984 . S
N2736 H2743 0.984 . S
N2737 C2730 1.356 . S
N2737 H2740 0.984 . S
N2737 H2741 0.985 . S
H2738 N2733 0.984 . S
H2739 N2733 0.985 . S
H2740 N2737 0.984 . S
H2741 N2737 0.985 . S
H2742 N2736 0.984 . S
H2743 N2736 0.984 . S
H2744 N2732 0.984 . S
H2745 N2732 0.985 . S
C2746 C2747 1.363 . S
C2746 C2752 1.379 . S
C2746 N2754 1.356 . S
C2747 C2746 1.363 . S
C2747 C2753 1.363 . S
C2748 C2749 1.363 . S
C2748 C2753 1.379 . S
C2748 N2755 1.356 . S
C2749 C2748 1.363 . S
C2749 C2752 1.363 . S
N2750 C2752 1.356 . S
N2750 H2762 0.984 . S
N2750 H2763 0.985 . S
N2751 C2753 1.356 . S
N2751 H2756 0.984 . S
N2751 H2757 0.985 . S
C2752 C2746 1.379 . S
C2752 C2749 1.363 . S
C2752 N2750 1.356 . S
C2753 C2747 1.363 . S
C2753 C2748 1.379 . S
C2753 N2751 1.356 . S
N2754 C2746 1.356 . S
N2754 H2760 0.984 . S
N2754 H2761 0.984 . S
N2755 C2748 1.356 . S
N2755 H2758 0.984 . S
N2755 H2759 0.985 . S
H2756 N2751 0.984 . S
H2757 N2751 0.985 . S
H2758 N2755 0.984 . S
H2759 N2755 0.985 . S
H2760 N2754 0.984 . S
H2761 N2754 0.984 . S
H2762 N2750 0.984 . S
H2763 N2750 0.985 . S
C2764 C2765 1.363 . S
C2764 C2770 1.379 . S
C2764 N2772 1.356 . S
C2765 C2764 1.363 . S
C2765 C2771 1.363 . S
C2766 C2767 1.363 . S
C2766 C2771 1.379 . S
C2766 N2773 1.356 . S
C2767 C2766 1.363 . S
C2767 C2770 1.363 . S
N2768 C2770 1.356 . S
N2768 H2780 0.984 . S
N2768 H2781 0.985 . S
N2769 C2771 1.356 . S
N2769 H2774 0.984 . S
N2769 H2775 0.985 . S
C2770 C2764 1.379 . S
C2770 C2767 1.363 . S
C2770 N2768 1.356 . S
C2771 C2765 1.363 . S
C2771 C2766 1.379 . S
C2771 N2769 1.356 . S
N2772 C2764 1.356 . S
N2772 H2778 0.984 . S
N2772 H2779 0.984 . S
N2773 C2766 1.356 . S
N2773 H2776 0.984 . S
N2773 H2777 0.985 . S
H2774 N2769 0.984 . S
H2775 N2769 0.985 . S
H2776 N2773 0.984 . S
H2777 N2773 0.985 . S
H2778 N2772 0.984 . S
H2779 N2772 0.984 . S
H2780 N2768 0.984 . S
H2781 N2768 0.985 . S
C2782 C2783 1.363 . S
C2782 C2788 1.379 . S
C2782 N2790 1.356 . S
C2783 C2782 1.363 . S
C2783 C2789 1.363 . S
C2784 C2785 1.363 . S
C2784 C2789 1.379 . S
C2784 N2791 1.356 . S
C2785 C2784 1.363 . S
C2785 C2788 1.363 . S
N2786 C2788 1.356 . S
N2786 H2798 0.984 . S
N2786 H2799 0.985 . S
N2787 C2789 1.356 . S
N2787 H2792 0.984 . S
N2787 H2793 0.985 . S
C2788 C2782 1.379 . S
C2788 C2785 1.363 . S
C2788 N2786 1.356 . S
C2789 C2783 1.363 . S
C2789 C2784 1.379 . S
C2789 N2787 1.356 . S
N2790 C2782 1.356 . S
N2790 H2796 0.984 . S
N2790 H2797 0.984 . S
N2791 C2784 1.356 . S
N2791 H2794 0.984 . S
N2791 H2795 0.985 . S
H2792 N2787 0.984 . S
H2793 N2787 0.985 . S
H2794 N2791 0.984 . S
H2795 N2791 0.985 . S
H2796 N2790 0.984 . S
H2797 N2790 0.984 . S
H2798 N2786 0.984 . S
H2799 N2786 0.985 . S
C2800 C2801 1.363 . S
C2800 C2806 1.379 . S
C2800 N2808 1.356 . S
C2801 C2800 1.363 . S
C2801 C2807 1.363 . S
C2802 C2803 1.363 . S
C2802 C2807 1.379 . S
C2802 N2809 1.356 . S
C2803 C2802 1.363 . S
C2803 C2806 1.363 . S
N2804 C2806 1.356 . S
N2804 H2816 0.984 . S
N2804 H2817 0.985 . S
N2805 C2807 1.356 . S
N2805 H2810 0.984 . S
N2805 H2811 0.985 . S
C2806 C2800 1.379 . S
C2806 C2803 1.363 . S
C2806 N2804 1.356 . S
C2807 C2801 1.363 . S
C2807 C2802 1.379 . S
C2807 N2805 1.356 . S
N2808 C2800 1.356 . S
N2808 H2814 0.984 . S
N2808 H2815 0.984 . S
N2809 C2802 1.356 . S
N2809 H2812 0.984 . S
N2809 H2813 0.985 . S
H2810 N2805 0.984 . S
H2811 N2805 0.985 . S
H2812 N2809 0.984 . S
H2813 N2809 0.985 . S
H2814 N2808 0.984 . S
H2815 N2808 0.984 . S
H2816 N2804 0.984 . S
H2817 N2804 0.985 . S
C2818 C2819 1.363 . S
C2818 C2824 1.379 . S
C2818 N2826 1.356 . S
C2819 C2818 1.363 . S
C2819 C2825 1.363 . S
C2820 C2821 1.363 . S
C2820 C2825 1.379 . S
C2820 N2827 1.356 . S
C2821 C2820 1.363 . S
C2821 C2824 1.363 . S
N2822 C2824 1.356 . S
N2822 H2834 0.984 . S
N2822 H2835 0.985 . S
N2823 C2825 1.356 . S
N2823 H2828 0.984 . S
N2823 H2829 0.985 . S
C2824 C2818 1.379 . S
C2824 C2821 1.363 . S
C2824 N2822 1.356 . S
C2825 C2819 1.363 . S
C2825 C2820 1.379 . S
C2825 N2823 1.356 . S
N2826 C2818 1.356 . S
N2826 H2832 0.984 . S
N2826 H2833 0.984 . S
N2827 C2820 1.356 . S
N2827 H2830 0.984 . S
N2827 H2831 0.985 . S
H2828 N2823 0.984 . S
H2829 N2823 0.985 . S
H2830 N2827 0.984 . S
H2831 N2827 0.985 . S
H2832 N2826 0.984 . S
H2833 N2826 0.984 . S
H2834 N2822 0.984 . S
H2835 N2822 0.985 . S
C2836 C2837 1.363 . S
C2836 C2842 1.379 . S
C2836 N2844 1.356 . S
C2837 C2836 1.363 . S
C2837 C2843 1.363 . S
C2838 C2839 1.363 . S
C2838 C2843 1.379 . S
C2838 N2845 1.356 . S
C2839 C2838 1.363 . S
C2839 C2842 1.363 . S
N2840 C2842 1.356 . S
N2840 H2852 0.984 1_554 S
N2840 H2853 0.985 . S
N2841 C2843 1.356 . S
N2841 H2846 0.984 . S
N2841 H2847 0.985 . S
C2842 C2836 1.379 . S
C2842 C2839 1.363 . S
C2842 N2840 1.356 . S
C2843 C2837 1.363 . S
C2843 C2838 1.379 . S
C2843 N2841 1.356 . S
N2844 C2836 1.356 . S
N2844 H2850 0.984 . S
N2844 H2851 0.984 . S
N2845 C2838 1.356 . S
N2845 H2848 0.984 . S
N2845 H2849 0.985 . S
H2846 N2841 0.984 . S
H2847 N2841 0.985 . S
H2848 N2845 0.984 . S
H2849 N2845 0.985 . S
H2850 N2844 0.984 . S
H2851 N2844 0.984 . S
H2852 N2840 0.984 1_556 S
H2853 N2840 0.985 . S
C2854 C2855 1.363 . S
C2854 C2860 1.379 . S
C2854 N2862 1.356 . S
C2855 C2854 1.363 . S
C2855 C2861 1.363 . S
C2856 C2857 1.363 . S
C2856 C2861 1.379 . S
C2856 N2863 1.356 . S
C2857 C2856 1.363 . S
C2857 C2860 1.363 . S
N2858 C2860 1.356 . S
N2858 H2870 0.984 . S
N2858 H2871 0.985 . S
N2859 C2861 1.356 . S
N2859 H2864 0.984 . S
N2859 H2865 0.985 . S
C2860 C2854 1.379 . S
C2860 C2857 1.363 . S
C2860 N2858 1.356 . S
C2861 C2855 1.363 . S
C2861 C2856 1.379 . S
C2861 N2859 1.356 . S
N2862 C2854 1.356 . S
N2862 H2868 0.984 . S
N2862 H2869 0.984 . S
N2863 C2856 1.356 . S
N2863 H2866 0.984 . S
N2863 H2867 0.985 . S
H2864 N2859 0.984 . S
H2865 N2859 0.985 . S
H2866 N2863 0.984 . S
H2867 N2863 0.985 . S
H2868 N2862 0.984 . S
H2869 N2862 0.984 . S
H2870 N2858 0.984 . S
H2871 N2858 0.985 . S
C2872 C2873 1.363 . S
C2872 C2878 1.379 . S
C2872 N2880 1.356 . S
C2873 C2872 1.363 . S
C2873 C2879 1.363 . S
C2874 C2875 1.363 . S
C2874 C2879 1.379 . S
C2874 N2881 1.356 . S
C2875 C2874 1.363 . S
C2875 C2878 1.363 . S
N2876 C2878 1.356 . S
N2876 H2888 0.984 . S
N2876 H2889 0.985 . S
N2877 C2879 1.356 . S
N2877 H2882 0.984 . S
N2877 H2883 0.985 . S
C2878 C2872 1.379 . S
C2878 C2875 1.363 . S
C2878 N2876 1.356 . S
C2879 C2873 1.363 . S
C2879 C2874 1.379 . S
C2879 N2877 1.356 . S
N2880 C2872 1.356 . S
N2880 H2886 0.984 . S
N2880 H2887 0.984 . S
N2881 C2874 1.356 . S
N2881 H2884 0.970 1_556 S
N2881 H2885 0.985 1_556 S
H2882 N2877 0.984 . S
H2883 N2877 0.985 . S
H2884 N2881 0.970 1_554 S
H2885 N2881 0.985 1_554 S
H2886 N2880 0.984 . S
H2887 N2880 0.984 . S
H2888 N2876 0.984 . S
H2889 N2876 0.985 . S
C2890 C2891 1.363 . S
C2890 C2896 1.379 . S
C2890 N2898 1.356 . S
C2891 C2890 1.363 . S
C2891 C2897 1.363 . S
C2892 C2893 1.363 . S
C2892 C2897 1.379 . S
C2892 N2899 1.356 . S
C2893 C2892 1.363 . S
C2893 C2896 1.363 . S
N2894 C2896 1.356 . S
N2894 H2906 0.984 . S
N2894 H2907 0.985 . S
N2895 C2897 1.356 . S
N2895 H2900 0.984 . S
N2895 H2901 0.985 . S
C2896 C2890 1.379 . S
C2896 C2893 1.363 . S
C2896 N2894 1.356 . S
C2897 C2891 1.363 . S
C2897 C2892 1.379 . S
C2897 N2895 1.356 . S
N2898 C2890 1.356 . S
N2898 H2904 0.984 . S
N2898 H2905 0.984 . S
N2899 C2892 1.356 . S
N2899 H2902 0.984 . S
N2899 H2903 0.985 . S
H2900 N2895 0.984 . S
H2901 N2895 0.985 . S
H2902 N2899 0.984 . S
H2903 N2899 0.985 . S
H2904 N2898 0.984 . S
H2905 N2898 0.984 . S
H2906 N2894 0.984 . S
H2907 N2894 0.985 . S
C2908 C2909 1.363 . S
C2908 C2914 1.379 . S
C2908 N2916 1.356 . S
C2909 C2908 1.363 . S
C2909 C2915 1.363 . S
C2910 C2911 1.363 . S
C2910 C2915 1.379 . S
C2910 N2917 1.356 . S
C2911 C2910 1.363 . S
C2911 C2914 1.363 . S
N2912 C2914 1.356 . S
N2912 H2924 0.984 . S
N2912 H2925 0.985 . S
N2913 C2915 1.356 . S
N2913 H2918 0.984 . S
N2913 H2919 0.985 . S
C2914 C2908 1.379 . S
C2914 C2911 1.363 . S
C2914 N2912 1.356 . S
C2915 C2909 1.363 . S
C2915 C2910 1.379 . S
C2915 N2913 1.356 . S
N2916 C2908 1.356 . S
N2916 H2922 0.984 . S
N2916 H2923 0.984 . S
N2917 C2910 1.356 . S
N2917 H2920 0.984 . S
N2917 H2921 0.985 . S
H2918 N2913 0.984 . S
H2919 N2913 0.985 . S
H2920 N2917 0.984 . S
H2921 N2917 0.985 . S
H2922 N2916 0.984 . S
H2923 N2916 0.984 . S
H2924 N2912 0.984 . S
H2925 N2912 0.985 . S
C2926 C2927 1.363 . S
C2926 C2932 1.379 . S
C2926 N2934 1.356 . S
C2927 C2926 1.363 . S
C2927 C2933 1.363 . S
C2928 C2929 1.363 . S
C2928 C2933 1.379 . S
C2928 N2935 1.356 . S
C2929 C2928 1.363 . S
C2929 C2932 1.363 . S
N2930 C2932 1.356 . S
N2930 H2942 0.984 . S
N2930 H2943 0.985 . S
N2931 C2933 1.356 . S
N2931 H2936 0.984 . S
N2931 H2937 0.985 . S
C2932 C2926 1.379 . S
C2932 C2929 1.363 . S
C2932 N2930 1.356 . S
C2933 C2927 1.363 . S
C2933 C2928 1.379 . S
C2933 N2931 1.356 . S
N2934 C2926 1.356 . S
N2934 H2940 0.984 . S
N2934 H2941 0.984 . S
N2935 C2928 1.356 . S
N2935 H2938 0.984 . S
N2935 H2939 0.985 . S
H2936 N2931 0.984 . S
H2937 N2931 0.985 . S
H2938 N2935 0.984 . S
H2939 N2935 0.985 . S
H2940 N2934 0.984 . S
H2941 N2934 0.984 . S
H2942 N2930 0.984 . S
H2943 N2930 0.985 . S
C2944 C2945 1.363 . S
C2944 C2950 1.379 . S
C2944 N2952 1.356 . S
C2945 C2944 1.363 . S
C2945 C2951 1.363 . S
C2946 C2947 1.363 . S
C2946 C2951 1.379 . S
C2946 N2953 1.356 . S
C2947 C2946 1.363 . S
C2947 C2950 1.363 . S
N2948 C2950 1.356 . S
N2948 H2960 0.984 . S
N2948 H2961 0.985 . S
N2949 C2951 1.356 . S
N2949 H2954 0.984 . S
N2949 H2955 0.985 . S
C2950 C2944 1.379 . S
C2950 C2947 1.363 . S
C2950 N2948 1.356 . S
C2951 C2945 1.363 . S
C2951 C2946 1.379 . S
C2951 N2949 1.356 . S
N2952 C2944 1.356 . S
N2952 H2958 0.984 . S
N2952 H2959 0.984 . S
N2953 C2946 1.356 . S
N2953 H2956 0.984 . S
N2953 H2957 0.985 . S
H2954 N2949 0.984 . S
H2955 N2949 0.985 . S
H2956 N2953 0.984 . S
H2957 N2953 0.985 . S
H2958 N2952 0.984 . S
H2959 N2952 0.984 . S
H2960 N2948 0.984 . S
H2961 N2948 0.985 . S
C2962 C2963 1.363 . S
C2962 C2968 1.379 . S
C2962 N2970 1.356 . S
C2963 C2962 1.363 . S
C2963 C2969 1.363 . S
C2964 C2965 1.363 . S
C2964 C2969 1.379 . S
C2964 N2971 1.356 . S
C2965 C2964 1.363 . S
C2965 C2968 1.363 . S
N2966 C2968 1.356 . S
N2966 H2978 0.984 . S
N2966 H2979 0.985 . S
N2967 C2969 1.356 . S
N2967 H2972 0.984 . S
N2967 H2973 0.985 . S
C2968 C2962 1.379 . S
C2968 C2965 1.363 . S
C2968 N2966 1.356 . S
C2969 C2963 1.363 . S
C2969 C2964 1.379 . S
C2969 N2967 1.356 . S
N2970 C2962 1.356 . S
N2970 H2976 0.984 . S
N2970 H2977 0.984 . S
N2971 C2964 1.356 . S
N2971 H2974 0.984 . S
N2971 H2975 0.985 . S
H2972 N2967 0.984 . S
H2973 N2967 0.985 . S
H2974 N2971 0.984 . S
H2975 N2971 0.985 . S
H2976 N2970 0.984 . S
H2977 N2970 0.984 . S
H2978 N2966 0.984 . S
H2979 N2966 0.985 . S
C2980 C2981 1.363 . S
C2980 C2986 1.379 . S
C2980 N2988 1.356 . S
C2981 C2980 1.363 . S
C2981 C2987 1.363 . S
C2982 C2983 1.363 . S
C2982 C2987 1.379 . S
C2982 N2989 1.356 1_655 S
C2983 C2982 1.363 . S
C2983 C2986 1.363 . S
N2984 C2986 1.356 1_554 S
N2984 H2996 0.984 . S
N2984 H2997 0.985 . S
N2985 C2987 1.356 . S
N2985 H2990 0.984 . S
N2985 H2991 0.985 . S
C2986 C2980 1.379 . S
C2986 C2983 1.363 . S
C2986 N2984 1.356 1_556 S
C2987 C2981 1.363 . S
C2987 C2982 1.379 . S
C2987 N2985 1.356 . S
N2988 C2980 1.356 . S
N2988 H2994 0.984 . S
N2988 H2995 0.984 . S
N2989 C2982 1.356 1_455 S
N2989 H2992 0.984 . S
N2989 H2993 0.985 . S
H2990 N2985 0.984 . S
H2991 N2985 0.985 . S
H2992 N2989 0.984 . S
H2993 N2989 0.985 . S
H2994 N2988 0.984 . S
H2995 N2988 0.984 . S
H2996 N2984 0.984 . S
H2997 N2984 0.985 . S
C2998 C2999 1.363 . S
C2998 C3004 1.379 . S
C2998 N3006 1.356 . S
C2999 C2998 1.363 . S
C2999 C3005 1.363 . S
C3000 C3001 1.363 . S
C3000 C3005 1.379 . S
C3000 N3007 1.356 . S
C3001 C3000 1.363 . S
C3001 C3004 1.363 . S
N3002 C3004 1.356 . S
N3002 H3014 0.984 . S
N3002 H3015 0.985 . S
N3003 C3005 1.356 . S
N3003 H3008 0.984 . S
N3003 H3009 0.985 . S
C3004 C2998 1.379 . S
C3004 C3001 1.363 . S
C3004 N3002 1.356 . S
C3005 C2999 1.363 . S
C3005 C3000 1.379 . S
C3005 N3003 1.356 . S
N3006 C2998 1.356 . S
N3006 H3012 0.984 . S
N3006 H3013 0.984 . S
N3007 C3000 1.356 . S
N3007 H3010 0.984 . S
N3007 H3011 0.985 . S
H3008 N3003 0.984 . S
H3009 N3003 0.985 . S
H3010 N3007 0.984 . S
H3011 N3007 0.985 . S
H3012 N3006 0.984 . S
H3013 N3006 0.984 . S
H3014 N3002 0.984 . S
H3015 N3002 0.985 . S
C3016 C3017 1.363 . S
C3016 C3022 1.379 . S
C3016 N3024 1.356 . S
C3017 C3016 1.363 . S
C3017 C3023 1.363 . S
C3018 C3019 1.363 . S
C3018 C3023 1.379 . S
C3018 N3025 1.356 . S
C3019 C3018 1.363 . S
C3019 C3022 1.363 . S
N3020 C3022 1.356 . S
N3020 H3032 0.984 . S
N3020 H3033 0.985 . S
N3021 C3023 1.356 . S
N3021 H3026 0.984 . S
N3021 H3027 0.985 . S
C3022 C3016 1.379 . S
C3022 C3019 1.363 . S
C3022 N3020 1.356 . S
C3023 C3017 1.363 . S
C3023 C3018 1.379 . S
C3023 N3021 1.356 . S
N3024 C3016 1.356 . S
N3024 H3030 0.984 . S
N3024 H3031 0.984 . S
N3025 C3018 1.356 . S
N3025 H3028 0.984 . S
N3025 H3029 0.985 . S
H3026 N3021 0.984 . S
H3027 N3021 0.985 . S
H3028 N3025 0.984 . S
H3029 N3025 0.985 . S
H3030 N3024 0.984 . S
H3031 N3024 0.984 . S
H3032 N3020 0.984 . S
H3033 N3020 0.985 . S
C3034 C3035 1.363 . S
C3034 C3040 1.379 . S
C3034 N3042 1.356 . S
C3035 C3034 1.363 . S
C3035 C3041 1.363 . S
C3036 C3037 1.363 . S
C3036 C3041 1.379 . S
C3036 N3043 1.356 . S
C3037 C3036 1.363 . S
C3037 C3040 1.363 . S
N3038 C3040 1.356 . S
N3038 H3050 0.984 . S
N3038 H3051 0.985 . S
N3039 C3041 1.356 . S
N3039 H3044 0.984 . S
N3039 H3045 0.985 . S
C3040 C3034 1.379 . S
C3040 C3037 1.363 . S
C3040 N3038 1.356 . S
C3041 C3035 1.363 . S
C3041 C3036 1.379 . S
C3041 N3039 1.356 . S
N3042 C3034 1.356 . S
N3042 H3048 0.984 . S
N3042 H3049 0.984 . S
N3043 C3036 1.356 . S
N3043 H3046 0.984 . S
N3043 H3047 0.985 . S
H3044 N3039 0.984 . S
H3045 N3039 0.985 . S
H3046 N3043 0.984 . S
H3047 N3043 0.985 . S
H3048 N3042 0.984 . S
H3049 N3042 0.984 . S
H3050 N3038 0.984 . S
H3051 N3038 0.985 . S
C3052 C3053 1.363 . S
C3052 C3058 1.379 . S
C3052 N3060 1.356 . S
C3053 C3052 1.363 . S
C3053 C3059 1.363 . S
C3054 C3055 1.363 . S
C3054 C3059 1.379 . S
C3054 N3061 1.356 . S
C3055 C3054 1.363 . S
C3055 C3058 1.363 . S
N3056 C3058 1.356 . S
N3056 H3068 0.984 . S
N3056 H3069 0.985 . S
N3057 C3059 1.356 . S
N3057 H3062 0.984 . S
N3057 H3063 0.985 . S
C3058 C3052 1.379 . S
C3058 C3055 1.363 . S
C3058 N3056 1.356 . S
C3059 C3053 1.363 . S
C3059 C3054 1.379 . S
C3059 N3057 1.356 . S
N3060 C3052 1.356 . S
N3060 H3066 0.984 . S
N3060 H3067 0.984 . S
N3061 C3054 1.356 . S
N3061 H3064 0.984 . S
N3061 H3065 0.985 1_655 S
H3062 N3057 0.984 . S
H3063 N3057 0.985 . S
H3064 N3061 0.984 . S
H3065 N3061 0.985 1_455 S
H3066 N3060 0.984 . S
H3067 N3060 0.984 . S
H3068 N3056 0.984 . S
H3069 N3056 0.985 . S
C3070 C3071 1.363 . S
C3070 C3076 1.379 . S
C3070 N3078 1.356 . S
C3071 C3070 1.363 . S
C3071 C3077 1.363 . S
C3072 C3073 1.363 . S
C3072 C3077 1.379 . S
C3072 N3079 1.356 . S
C3073 C3072 1.363 . S
C3073 C3076 1.363 . S
N3074 C3076 1.356 . S
N3074 H3086 0.984 . S
N3074 H3087 0.985 . S
N3075 C3077 1.356 . S
N3075 H3080 0.984 . S
N3075 H3081 0.985 . S
C3076 C3070 1.379 . S
C3076 C3073 1.363 . S
C3076 N3074 1.356 . S
C3077 C3071 1.363 . S
C3077 C3072 1.379 . S
C3077 N3075 1.356 . S
N3078 C3070 1.356 . S
N3078 H3084 0.984 . S
N3078 H3085 0.984 . S
N3079 C3072 1.356 . S
N3079 H3082 0.984 . S
N3079 H3083 0.985 . S
H3080 N3075 0.984 . S
H3081 N3075 0.985 . S
H3082 N3079 0.984 . S
H3083 N3079 0.985 . S
H3084 N3078 0.984 . S
H3085 N3078 0.984 . S
H3086 N3074 0.984 . S
H3087 N3074 0.985 . S
C3088 C3089 1.363 . S
C3088 C3094 1.379 . S
C3088 N3096 1.356 . S
C3089 C3088 1.363 . S
C3089 C3095 1.363 . S
C3090 C3091 1.363 . S
C3090 C3095 1.379 . S
C3090 N3097 1.356 . S
C3091 C3090 1.363 . S
C3091 C3094 1.363 . S
N3092 C3094 1.356 . S
N3092 H3104 0.984 . S
N3092 H3105 0.985 . S
N3093 C3095 1.356 . S
N3093 H3098 0.984 . S
N3093 H3099 0.985 . S
C3094 C3088 1.379 . S
C3094 C3091 1.363 . S
C3094 N3092 1.356 . S
C3095 C3089 1.363 . S
C3095 C3090 1.379 . S
C3095 N3093 1.356 . S
N3096 C3088 1.356 . S
N3096 H3102 0.984 . S
N3096 H3103 0.984 . S
N3097 C3090 1.356 . S
N3097 H3100 0.984 . S
N3097 H3101 0.985 . S
H3098 N3093 0.984 . S
H3099 N3093 0.985 . S
H3100 N3097 0.984 . S
H3101 N3097 0.985 . S
H3102 N3096 0.984 . S
H3103 N3096 0.984 . S
H3104 N3092 0.984 . S
H3105 N3092 0.985 . S
C3106 C3107 1.363 . S
C3106 C3112 1.379 . S
C3106 N3114 1.356 . S
C3107 C3106 1.363 . S
C3107 C3113 1.363 . S
C3108 C3109 1.356 1_545 S
C3108 C3113 1.362 1_545 S
C3108 N3115 1.382 . S
C3109 C3108 1.356 1_565 S
C3109 C3112 1.363 . S
N3110 C3112 1.356 . S
N3110 H3122 0.984 . S
N3110 H3123 0.985 . S
N3111 C3113 1.356 . S
N3111 H3116 0.984 . S
N3111 H3117 0.985 . S
C3112 C3106 1.379 . S
C3112 C3109 1.363 . S
C3112 N3110 1.356 . S
C3113 C3107 1.363 . S
C3113 C3108 1.362 1_565 S
C3113 N3111 1.356 . S
N3114 C3106 1.356 . S
N3114 H3120 0.984 . S
N3114 H3121 0.984 . S
N3115 C3108 1.382 . S
N3115 H3118 0.984 . S
N3115 H3119 0.985 . S
H3116 N3111 0.984 . S
H3117 N3111 0.985 . S
H3118 N3115 0.984 . S
H3119 N3115 0.985 . S
H3120 N3114 0.984 . S
H3121 N3114 0.984 . S
H3122 N3110 0.984 . S
H3123 N3110 0.985 . S
C3124 C3125 1.363 . S
C3124 C3130 1.379 . S
C3124 N3132 1.356 . S
C3125 C3124 1.363 . S
C3125 C3131 1.363 . S
C3126 C3127 1.363 . S
C3126 C3131 1.379 . S
C3126 N3133 1.356 . S
C3127 C3126 1.363 . S
C3127 C3130 1.363 . S
N3128 C3130 1.356 . S
N3128 H3140 0.984 . S
N3128 H3141 0.985 . S
N3129 C3131 1.356 . S
N3129 H3134 0.984 . S
N3129 H3135 0.985 . S
C3130 C3124 1.379 . S
C3130 C3127 1.363 . S
C3130 N3128 1.356 . S
C3131 C3125 1.363 . S
C3131 C3126 1.379 . S
C3131 N3129 1.356 . S
N3132 C3124 1.356 . S
N3132 H3138 0.984 . S
N3132 H3139 0.984 . S
N3133 C3126 1.356 . S
N3133 H3136 0.984 . S
N3133 H3137 0.985 . S
H3134 N3129 0.984 . S
H3135 N3129 0.985 . S
H3136 N3133 0.984 . S
H3137 N3133 0.985 . S
H3138 N3132 0.984 . S
H3139 N3132 0.984 . S
H3140 N3128 0.984 . S
H3141 N3128 0.985 . S
C3142 C3143 1.363 . S
C3142 C3148 1.379 . S
C3142 N3150 1.356 . S
C3143 C3142 1.363 . S
C3143 C3149 1.363 . S
C3144 C3145 1.363 . S
C3144 C3149 1.379 . S
C3144 N3151 1.356 . S
C3145 C3144 1.363 . S
C3145 C3148 1.363 . S
N3146 C3148 1.356 . S
N3146 H3158 0.984 . S
N3146 H3159 0.985 . S
N3147 C3149 1.356 . S
N3147 H3152 0.984 . S
N3147 H3153 0.985 . S
C3148 C3142 1.379 . S
C3148 C3145 1.363 . S
C3148 N3146 1.356 . S
C3149 C3143 1.363 . S
C3149 C3144 1.379 . S
C3149 N3147 1.356 . S
N3150 C3142 1.356 . S
N3150 H3156 0.984 . S
N3150 H3157 0.984 . S
N3151 C3144 1.356 . S
N3151 H3154 0.984 . S
N3151 H3155 0.985 . S
H3152 N3147 0.984 . S
H3153 N3147 0.985 . S
H3154 N3151 0.984 . S
H3155 N3151 0.985 . S
H3156 N3150 0.984 . S
H3157 N3150 0.984 . S
H3158 N3146 0.984 . S
H3159 N3146 0.985 . S
C3160 C3161 1.363 . S
C3160 C3166 1.379 . S
C3160 N3168 1.356 . S
C3161 C3160 1.363 . S
C3161 C3167 1.363 . S
C3162 C3163 1.363 . S
C3162 C3167 1.379 . S
C3162 N3169 1.356 . S
C3163 C3162 1.363 . S
C3163 C3166 1.363 . S
N3164 C3166 1.356 . S
N3164 H3176 0.984 . S
N3164 H3177 0.985 . S
N3165 C3167 1.356 . S
N3165 H3170 0.984 . S
N3165 H3171 0.985 . S
C3166 C3160 1.379 . S
C3166 C3163 1.363 . S
C3166 N3164 1.356 . S
C3167 C3161 1.363 . S
C3167 C3162 1.379 . S
C3167 N3165 1.356 . S
N3168 C3160 1.356 . S
N3168 H3174 0.984 . S
N3168 H3175 0.984 . S
N3169 C3162 1.356 . S
N3169 H3172 0.984 . S
N3169 H3173 0.985 . S
H3170 N3165 0.984 . S
H3171 N3165 0.985 . S
H3172 N3169 0.984 . S
H3173 N3169 0.985 . S
H3174 N3168 0.984 . S
H3175 N3168 0.984 . S
H3176 N3164 0.984 . S
H3177 N3164 0.985 . S
C3178 C3179 1.363 . S
C3178 C3184 1.379 . S
C3178 N3186 1.356 . S
C3179 C3178 1.363 . S
C3179 C3185 1.363 . S
C3180 C3181 1.363 1_556 S
C3180 C3185 1.379 1_556 S
C3180 N3187 1.356 . S
C3181 C3180 1.363 1_554 S
C3181 C3184 1.363 . S
N3182 C3184 1.356 . S
N3182 H3194 0.984 . S
N3182 H3195 0.985 . S
N3183 C3185 1.356 . S
N3183 H3188 0.984 . S
N3183 H3189 0.985 1_554 S
C3184 C3178 1.379 . S
C3184 C3181 1.363 . S
C3184 N3182 1.356 . S
C3185 C3179 1.363 . S
C3185 C3180 1.379 1_554 S
C3185 N3183 1.356 . S
N3186 C3178 1.356 . S
N3186 H3192 0.984 . S
N3186 H3193 0.984 . S
N3187 C3180 1.356 . S
N3187 H3190 0.984 . S
N3187 H3191 0.985 . S
H3188 N3183 0.984 . S
H3189 N3183 0.985 1_556 S
H3190 N3187 0.984 . S
H3191 N3187 0.985 . S
H3192 N3186 0.984 . S
H3193 N3186 0.984 . S
H3194 N3182 0.984 . S
H3195 N3182 0.985 . S
C3196 C3197 1.363 . S
C3196 C3202 1.379 . S
C3196 N3204 1.356 . S
C3197 C3196 1.363 . S
C3197 C3203 1.363 . S
C3198 C3199 1.363 . S
C3198 C3203 1.379 . S
C3198 N3205 1.356 . S
C3199 C3198 1.363 . S
C3199 C3202 1.363 . S
N3200 C3202 1.356 . S
N3200 H3212 0.984 . S
N3200 H3213 0.985 . S
N3201 C3203 1.356 . S
N3201 H3206 0.984 . S
N3201 H3207 0.985 . S
C3202 C3196 1.379 . S
C3202 C3199 1.363 . S
C3202 N3200 1.356 . S
C3203 C3197 1.363 . S
C3203 C3198 1.379 . S
C3203 N3201 1.356 . S
N3204 C3196 1.356 . S
N3204 H3210 0.984 . S
N3204 H3211 0.984 . S
N3205 C3198 1.356 . S
N3205 H3208 0.984 . S
N3205 H3209 0.985 . S
H3206 N3201 0.984 . S
H3207 N3201 0.985 . S
H3208 N3205 0.984 . S
H3209 N3205 0.985 . S
H3210 N3204 0.984 . S
H3211 N3204 0.984 . S
H3212 N3200 0.984 . S
H3213 N3200 0.985 . S
C3214 C3215 1.363 . S
C3214 C3220 1.379 . S
C3214 N3222 1.356 . S
C3215 C3214 1.363 . S
C3215 C3221 1.363 . S
C3216 C3217 1.363 . S
C3216 C3221 1.379 . S
C3216 N3223 1.356 . S
C3217 C3216 1.363 . S
C3217 C3220 1.363 . S
N3218 C3220 1.356 . S
N3218 H3230 0.984 . S
N3218 H3231 0.985 . S
N3219 C3221 1.356 . S
N3219 H3224 0.984 . S
N3219 H3225 0.985 . S
C3220 C3214 1.379 . S
C3220 C3217 1.363 . S
C3220 N3218 1.356 . S
C3221 C3215 1.363 . S
C3221 C3216 1.379 . S
C3221 N3219 1.356 . S
N3222 C3214 1.356 . S
N3222 H3228 0.984 . S
N3222 H3229 0.984 . S
N3223 C3216 1.356 . S
N3223 H3226 0.984 . S
N3223 H3227 0.985 . S
H3224 N3219 0.984 . S
H3225 N3219 0.985 . S
H3226 N3223 0.984 . S
H3227 N3223 0.985 . S
H3228 N3222 0.984 . S
H3229 N3222 0.984 . S
H3230 N3218 0.984 . S
H3231 N3218 0.985 . S
C1505 C255 2.333 1_455 S
C1507 C877 2.343 . S
C1523 C147 2.103 . S
C1525 C928 2.150 . S
C1541 C184 1.695 . S
C1543 C957 1.744 . S
C1561 C1001 1.437 . S
C1559 C220 1.519 . S
C1577 C40 1.398 . S
C1579 C1041 1.318 . S
C1597 C1077 1.815 . S
C1595 C74 1.783 . S
C1615 C1127 2.040 . S
C1613 C110 2.014 . S
C1631 C14 2.492 . S
C1633 C1157 2.435 . S
C1651 C887 2.084 . S
C1649 C579 2.106 . S
C1667 C616 0.836 . S
C1669 C930 0.817 . S
C1687 C967 1.431 . S
C1685 C687 1.392 . S
C1705 C997 1.571 . S
C1703 C436 1.543 . S
C1721 C580 1.560 . S
C1723 C1037 1.581 . S
C1741 C1087 1.015 . S
C1739 C615 1.002 . S
C1759 C1121 1.018 . S
C1757 C688 1.081 . S
C1777 C1167 2.068 . S
C1775 C435 2.093 . S
C1795 C881 1.379 . S
C1793 C410 1.531 1_554 S
C1811 C722 1.819 . S
C1813 C1207 1.826 . S
C1831 C1241 1.533 . S
C1829 C842 1.622 . S
C1849 C1277 0.871 . S
C1847 C794 0.881 . S
C1865 C302 1.747 . S
C1867 C1161 1.573 . S
C1883 C338 1.663 . S
C1885 C961 1.555 . S
C1901 C830 1.747 . S
C1903 C1327 1.754 . S
C1921 C1346 0.465 . S
C1919 C758 0.487 . S
C1939 C888 2.351 . S
C1937 C158 2.210 . S
C1957 C1357 2.119 . S
C1955 C254 2.119 . S
C1973 C218 1.714 . S
C1975 C968 1.751 . S
C1991 C194 1.372 . S
C1993 C1330 1.431 . S
C2011 C1050 1.323 . S
C2009 C3 1.398 . S
C2027 C111 1.672 . S
C2029 C1248 1.651 . S
C2047 C1106 2.011 1_566 S
C2045 C76 1.961 . S
C2065 C1408 2.502 . S
C2063 C50 2.367 . S
C2083 C866 2.052 . S
C2081 C364 2.085 . S
C2101 C1361 0.848 . S
C2099 C795 0.872 . S
C2117 C292 1.401 . S
C2119 C946 1.398 . S
C2135 C723 1.509 . S
C2137 C1328 1.499 . S
C2153 C363 1.566 . S
C2155 C1048 1.554 . S
C2173 C1226 1.020 . S
C2171 C796 1.022 . S
C2189 C291 1.029 1_565 S
C2191 C1130 0.975 . S
C2207 C724 2.094 . S
C2209 C1386 2.064 . S
C2225 C482 1.334 . S
C2227 C890 1.436 . S
C2243 C434 1.768 . S
C2245 C1186 1.781 . S
C2261 C662 1.452 . S
C2263 C1090 1.525 . S
C2279 C614 0.886 . S
C2281 C1288 0.874 . S
C2299 C1410 1.562 1_545 S
C2297 C698 1.457 . S
C2315 C554 1.508 . S
C2317 C970 1.587 . S
C2335 C986 1.733 . S
C2333 C650 1.718 . S
C2353 C927 0.421 . S
C2351 C506 0.379 . S
C2369 C183 2.336 . S
C2371 C1437 2.346 . S
C2389 C1368 2.147 . S
C2387 C219 2.100 . S
C2405 C256 1.693 . S
C2407 C1477 1.726 . S
C2423 C148 1.519 1_655 S
C2425 C1321 1.437 . S
C2441 C122 1.418 . S
C2443 C1201 1.349 . S
C2461 C1237 1.750 . S
C2459 C2 1.718 . S
C2479 C1287 1.978 . S
C2477 C39 1.892 . S
C2497 C1397 2.492 . S
C2495 C86 2.547 . S
C2515 C1447 2.092 . S
C2513 C651 2.114 . S
C2531 C472 0.826 . S
C2533 C1370 0.809 . S
C2551 C1487 1.411 . S
C2549 C507 1.375 . S
C2569 C1317 1.574 . S
C2567 C544 1.546 . S
C2587 C1197 1.576 . S
C2585 C652 1.557 . S
C2603 C471 0.994 . S
C2605 C1247 1.006 . S
C2623 C1281 0.991 . S
C2621 C508 1.044 . S
C2639 C543 2.109 . S
C2641 C1407 2.084 . S
C2659 C1441 1.395 . S
C2657 C806 1.553 . S
C2675 C326 1.792 . S
C2677 C1047 1.799 . S
C2695 C1081 1.512 . S
C2693 C374 1.601 . S
C2713 C1117 0.889 . S
C2711 C398 0.905 . S
C2731 C1401 1.562 . S
C2729 C770 1.728 . S
C2747 C734 1.652 . S
C2749 C1481 1.544 . S
C2767 C1007 1.738 . S
C2765 C362 1.731 . S
C2785 C906 0.482 . S
C2783 C290 0.500 . S
C2801 C230 2.208 . S
C2803 C1448 2.349 . S
C2821 C917 2.124 . S
C2819 C182 2.125 . S
C2837 C146 1.713 . S
C2839 C1488 1.753 . S
C2855 C266 1.375 . S
C2857 C1010 1.435 . S
C2873 C75 1.418 . S
C2875 C1210 1.343 . S
C2893 C1088 1.806 . S
C2891 C38 1.774 . S
C2909 C4 1.913 . S
C2911 C1266 1.968 . S
C2927 C112 2.417 . S
C2929 C1168 2.396 . S
C2947 C1426 2.051 . S
C2945 C832 2.083 . S
C2963 C399 0.890 . S
C2965 C921 0.859 . S
C2983 C1466 1.400 1_655 S
C2981 C760 1.404 . S
C2999 C327 1.506 . S
C3001 C1008 1.498 . S
C3017 C831 1.587 . S
C3019 C1208 1.575 . S
C3037 C1066 1.030 . S
C3035 C400 1.037 . S
C3053 C759 1.081 . S
C3055 C1290 1.012 . S
C3073 C1146 2.065 . S
C3071 C328 2.093 . S
C3091 C1450 1.442 . S
C3089 C626 1.337 . S
C3109 C1026 1.797 1_565 S
C3107 C542 1.784 . S
C3125 C590 1.430 . S
C3127 C1250 1.503 . S
C3145 C1128 0.881 . S
C3143 C470 0.889 . S
C3161 C518 1.433 . S
C3163 C1170 1.541 . S
C3179 C446 1.501 . S
C3181 C1490 1.579 . S
C3199 C1306 1.749 . S
C3197 C578 1.735 . S
C3217 C1367 0.402 . S
C3215 C686 0.358 . S
