# Generated by pormake.
# Topology gar, (4,6)-cn, num edge types: 1
# Building blocks:
#     Node 0, Type 0, BuildingBlock: AZAVOO_clean_sbu_0, # of connection points: 4
#     Node 1, Type 0, BuildingBlock: AZAVOO_clean_sbu_0, # of connection points: 4
#     Node 2, Type 0, BuildingBlock: AZAVOO_clean_sbu_0, # of connection points: 4
#     Node 3, Type 0, BuildingBlock: AZAVOO_clean_sbu_0, # of connection points: 4
#     Node 4, Type 0, BuildingBlock: AZAVOO_clean_sbu_0, # of connection points: 4
#     Node 5, Type 0, BuildingBlock: AZAVOO_clean_sbu_0, # of connection points: 4
#     Node 6, Type 0, BuildingBlock: AZAVOO_clean_sbu_0, # of connection points: 4
#     Node 7, Type 0, BuildingBlock: AZAVOO_clean_sbu_0, # of connection points: 4
#     Node 8, Type 0, BuildingBlock: AZAVOO_clean_sbu_0, # of connection points: 4
#     Node 9, Type 0, BuildingBlock: AZAVOO_clean_sbu_0, # of connection points: 4
#     Node 10, Type 0, BuildingBlock: AZAVOO_clean_sbu_0, # of connection points: 4
#     Node 11, Type 0, BuildingBlock: AZAVOO_clean_sbu_0, # of connection points: 4
#     Node 12, Type 0, BuildingBlock: AZAVOO_clean_sbu_0, # of connection points: 4
#     Node 13, Type 0, BuildingBlock: AZAVOO_clean_sbu_0, # of connection points: 4
#     Node 14, Type 0, BuildingBlock: AZAVOO_clean_sbu_0, # of connection points: 4
#     Node 15, Type 0, BuildingBlock: AZAVOO_clean_sbu_0, # of connection points: 4
#     Node 16, Type 0, BuildingBlock: AZAVOO_clean_sbu_0, # of connection points: 4
#     Node 17, Type 0, BuildingBlock: AZAVOO_clean_sbu_0, # of connection points: 4
#     Node 18, Type 0, BuildingBlock: AZAVOO_clean_sbu_0, # of connection points: 4
#     Node 19, Type 0, BuildingBlock: AZAVOO_clean_sbu_0, # of connection points: 4
#     Node 20, Type 0, BuildingBlock: AZAVOO_clean_sbu_0, # of connection points: 4
#     Node 21, Type 0, BuildingBlock: AZAVOO_clean_sbu_0, # of connection points: 4
#     Node 22, Type 0, BuildingBlock: AZAVOO_clean_sbu_0, # of connection points: 4
#     Node 23, Type 0, BuildingBlock: AZAVOO_clean_sbu_0, # of connection points: 4
#     Node 24, Type 1, BuildingBlock: MIFKUJ_clean_sbu_0, # of connection points: 6
#     Node 25, Type 1, BuildingBlock: MIFKUJ_clean_sbu_0, # of connection points: 6
#     Node 26, Type 1, BuildingBlock: MIFKUJ_clean_sbu_0, # of connection points: 6
#     Node 27, Type 1, BuildingBlock: MIFKUJ_clean_sbu_0, # of connection points: 6
#     Node 28, Type 1, BuildingBlock: MIFKUJ_clean_sbu_0, # of connection points: 6
#     Node 29, Type 1, BuildingBlock: MIFKUJ_clean_sbu_0, # of connection points: 6
#     Node 30, Type 1, BuildingBlock: MIFKUJ_clean_sbu_0, # of connection points: 6
#     Node 31, Type 1, BuildingBlock: MIFKUJ_clean_sbu_0, # of connection points: 6
#     Node 32, Type 1, BuildingBlock: MIFKUJ_clean_sbu_0, # of connection points: 6
#     Node 33, Type 1, BuildingBlock: MIFKUJ_clean_sbu_0, # of connection points: 6
#     Node 34, Type 1, BuildingBlock: MIFKUJ_clean_sbu_0, # of connection points: 6
#     Node 35, Type 1, BuildingBlock: MIFKUJ_clean_sbu_0, # of connection points: 6
#     Node 36, Type 1, BuildingBlock: MIFKUJ_clean_sbu_0, # of connection points: 6
#     Node 37, Type 1, BuildingBlock: MIFKUJ_clean_sbu_0, # of connection points: 6
#     Node 38, Type 1, BuildingBlock: MIFKUJ_clean_sbu_0, # of connection points: 6
#     Node 39, Type 1, BuildingBlock: MIFKUJ_clean_sbu_0, # of connection points: 6
#     Edge 40, Type (0, 1), BuildingBlock: ZUJKAS_clean_linker_0, # of connection points: 2
#     Edge 41, Type (0, 1), BuildingBlock: ZUJKAS_clean_linker_0, # of connection points: 2
#     Edge 42, Type (0, 1), BuildingBlock: ZUJKAS_clean_linker_0, # of connection points: 2
#     Edge 43, Type (0, 1), BuildingBlock: ZUJKAS_clean_linker_0, # of connection points: 2
#     Edge 44, Type (0, 1), BuildingBlock: ZUJKAS_clean_linker_0, # of connection points: 2
#     Edge 45, Type (0, 1), BuildingBlock: ZUJKAS_clean_linker_0, # of connection points: 2
#     Edge 46, Type (0, 1), BuildingBlock: ZUJKAS_clean_linker_0, # of connection points: 2
#     Edge 47, Type (0, 1), BuildingBlock: ZUJKAS_clean_linker_0, # of connection points: 2
#     Edge 48, Type (0, 1), BuildingBlock: ZUJKAS_clean_linker_0, # of connection points: 2
#     Edge 49, Type (0, 1), BuildingBlock: ZUJKAS_clean_linker_0, # of connection points: 2
#     Edge 50, Type (0, 1), BuildingBlock: ZUJKAS_clean_linker_0, # of connection points: 2
#     Edge 51, Type (0, 1), BuildingBlock: ZUJKAS_clean_linker_0, # of connection points: 2
#     Edge 52, Type (0, 1), BuildingBlock: ZUJKAS_clean_linker_0, # of connection points: 2
#     Edge 53, Type (0, 1), BuildingBlock: ZUJKAS_clean_linker_0, # of connection points: 2
#     Edge 54, Type (0, 1), BuildingBlock: ZUJKAS_clean_linker_0, # of connection points: 2
#     Edge 55, Type (0, 1), BuildingBlock: ZUJKAS_clean_linker_0, # of connection points: 2
#     Edge 56, Type (0, 1), BuildingBlock: ZUJKAS_clean_linker_0, # of connection points: 2
#     Edge 57, Type (0, 1), BuildingBlock: ZUJKAS_clean_linker_0, # of connection points: 2
#     Edge 58, Type (0, 1), BuildingBlock: ZUJKAS_clean_linker_0, # of connection points: 2
#     Edge 59, Type (0, 1), BuildingBlock: ZUJKAS_clean_linker_0, # of connection points: 2
#     Edge 60, Type (0, 1), BuildingBlock: ZUJKAS_clean_linker_0, # of connection points: 2
#     Edge 61, Type (0, 1), BuildingBlock: ZUJKAS_clean_linker_0, # of connection points: 2
#     Edge 62, Type (0, 1), BuildingBlock: ZUJKAS_clean_linker_0, # of connection points: 2
#     Edge 63, Type (0, 1), BuildingBlock: ZUJKAS_clean_linker_0, # of connection points: 2
#     Edge 64, Type (0, 1), BuildingBlock: ZUJKAS_clean_linker_0, # of connection points: 2
#     Edge 65, Type (0, 1), BuildingBlock: ZUJKAS_clean_linker_0, # of connection points: 2
#     Edge 66, Type (0, 1), BuildingBlock: ZUJKAS_clean_linker_0, # of connection points: 2
#     Edge 67, Type (0, 1), BuildingBlock: ZUJKAS_clean_linker_0, # of connection points: 2
#     Edge 68, Type (0, 1), BuildingBlock: ZUJKAS_clean_linker_0, # of connection points: 2
#     Edge 69, Type (0, 1), BuildingBlock: ZUJKAS_clean_linker_0, # of connection points: 2
#     Edge 70, Type (0, 1), BuildingBlock: ZUJKAS_clean_linker_0, # of connection points: 2
#     Edge 71, Type (0, 1), BuildingBlock: ZUJKAS_clean_linker_0, # of connection points: 2
#     Edge 72, Type (0, 1), BuildingBlock: ZUJKAS_clean_linker_0, # of connection points: 2
#     Edge 73, Type (0, 1), BuildingBlock: ZUJKAS_clean_linker_0, # of connection points: 2
#     Edge 74, Type (0, 1), BuildingBlock: ZUJKAS_clean_linker_0, # of connection points: 2
#     Edge 75, Type (0, 1), BuildingBlock: ZUJKAS_clean_linker_0, # of connection points: 2
#     Edge 76, Type (0, 1), BuildingBlock: ZUJKAS_clean_linker_0, # of connection points: 2
#     Edge 77, Type (0, 1), BuildingBlock: ZUJKAS_clean_linker_0, # of connection points: 2
#     Edge 78, Type (0, 1), BuildingBlock: ZUJKAS_clean_linker_0, # of connection points: 2
#     Edge 79, Type (0, 1), BuildingBlock: ZUJKAS_clean_linker_0, # of connection points: 2
#     Edge 80, Type (0, 1), BuildingBlock: ZUJKAS_clean_linker_0, # of connection points: 2
#     Edge 81, Type (0, 1), BuildingBlock: ZUJKAS_clean_linker_0, # of connection points: 2
#     Edge 82, Type (0, 1), BuildingBlock: ZUJKAS_clean_linker_0, # of connection points: 2
#     Edge 83, Type (0, 1), BuildingBlock: ZUJKAS_clean_linker_0, # of connection points: 2
#     Edge 84, Type (0, 1), BuildingBlock: ZUJKAS_clean_linker_0, # of connection points: 2
#     Edge 85, Type (0, 1), BuildingBlock: ZUJKAS_clean_linker_0, # of connection points: 2
#     Edge 86, Type (0, 1), BuildingBlock: ZUJKAS_clean_linker_0, # of connection points: 2
#     Edge 87, Type (0, 1), BuildingBlock: ZUJKAS_clean_linker_0, # of connection points: 2
#     Edge 88, Type (0, 1), BuildingBlock: ZUJKAS_clean_linker_0, # of connection points: 2
#     Edge 89, Type (0, 1), BuildingBlock: ZUJKAS_clean_linker_0, # of connection points: 2
#     Edge 90, Type (0, 1), BuildingBlock: ZUJKAS_clean_linker_0, # of connection points: 2
#     Edge 91, Type (0, 1), BuildingBlock: ZUJKAS_clean_linker_0, # of connection points: 2
#     Edge 92, Type (0, 1), BuildingBlock: ZUJKAS_clean_linker_0, # of connection points: 2
#     Edge 93, Type (0, 1), BuildingBlock: ZUJKAS_clean_linker_0, # of connection points: 2
#     Edge 94, Type (0, 1), BuildingBlock: ZUJKAS_clean_linker_0, # of connection points: 2
#     Edge 95, Type (0, 1), BuildingBlock: ZUJKAS_clean_linker_0, # of connection points: 2
#     Edge 96, Type (0, 1), BuildingBlock: ZUJKAS_clean_linker_0, # of connection points: 2
#     Edge 97, Type (0, 1), BuildingBlock: ZUJKAS_clean_linker_0, # of connection points: 2
#     Edge 98, Type (0, 1), BuildingBlock: ZUJKAS_clean_linker_0, # of connection points: 2
#     Edge 99, Type (0, 1), BuildingBlock: ZUJKAS_clean_linker_0, # of connection points: 2
#     Edge 100, Type (0, 1), BuildingBlock: ZUJKAS_clean_linker_0, # of connection points: 2
#     Edge 101, Type (0, 1), BuildingBlock: ZUJKAS_clean_linker_0, # of connection points: 2
#     Edge 102, Type (0, 1), BuildingBlock: ZUJKAS_clean_linker_0, # of connection points: 2
#     Edge 103, Type (0, 1), BuildingBlock: ZUJKAS_clean_linker_0, # of connection points: 2
#     Edge 104, Type (0, 1), BuildingBlock: ZUJKAS_clean_linker_0, # of connection points: 2
#     Edge 105, Type (0, 1), BuildingBlock: ZUJKAS_clean_linker_0, # of connection points: 2
#     Edge 106, Type (0, 1), BuildingBlock: ZUJKAS_clean_linker_0, # of connection points: 2
#     Edge 107, Type (0, 1), BuildingBlock: ZUJKAS_clean_linker_0, # of connection points: 2
#     Edge 108, Type (0, 1), BuildingBlock: ZUJKAS_clean_linker_0, # of connection points: 2
#     Edge 109, Type (0, 1), BuildingBlock: ZUJKAS_clean_linker_0, # of connection points: 2
#     Edge 110, Type (0, 1), BuildingBlock: ZUJKAS_clean_linker_0, # of connection points: 2
#     Edge 111, Type (0, 1), BuildingBlock: ZUJKAS_clean_linker_0, # of connection points: 2
#     Edge 112, Type (0, 1), BuildingBlock: ZUJKAS_clean_linker_0, # of connection points: 2
#     Edge 113, Type (0, 1), BuildingBlock: ZUJKAS_clean_linker_0, # of connection points: 2
#     Edge 114, Type (0, 1), BuildingBlock: ZUJKAS_clean_linker_0, # of connection points: 2
#     Edge 115, Type (0, 1), BuildingBlock: ZUJKAS_clean_linker_0, # of connection points: 2
#     Edge 116, Type (0, 1), BuildingBlock: ZUJKAS_clean_linker_0, # of connection points: 2
#     Edge 117, Type (0, 1), BuildingBlock: ZUJKAS_clean_linker_0, # of connection points: 2
#     Edge 118, Type (0, 1), BuildingBlock: ZUJKAS_clean_linker_0, # of connection points: 2
#     Edge 119, Type (0, 1), BuildingBlock: ZUJKAS_clean_linker_0, # of connection points: 2
#     Edge 120, Type (0, 1), BuildingBlock: ZUJKAS_clean_linker_0, # of connection points: 2
#     Edge 121, Type (0, 1), BuildingBlock: ZUJKAS_clean_linker_0, # of connection points: 2
#     Edge 122, Type (0, 1), BuildingBlock: ZUJKAS_clean_linker_0, # of connection points: 2
#     Edge 123, Type (0, 1), BuildingBlock: ZUJKAS_clean_linker_0, # of connection points: 2
#     Edge 124, Type (0, 1), BuildingBlock: ZUJKAS_clean_linker_0, # of connection points: 2
#     Edge 125, Type (0, 1), BuildingBlock: ZUJKAS_clean_linker_0, # of connection points: 2
#     Edge 126, Type (0, 1), BuildingBlock: ZUJKAS_clean_linker_0, # of connection points: 2
#     Edge 127, Type (0, 1), BuildingBlock: ZUJKAS_clean_linker_0, # of connection points: 2
#     Edge 128, Type (0, 1), BuildingBlock: ZUJKAS_clean_linker_0, # of connection points: 2
#     Edge 129, Type (0, 1), BuildingBlock: ZUJKAS_clean_linker_0, # of connection points: 2
#     Edge 130, Type (0, 1), BuildingBlock: ZUJKAS_clean_linker_0, # of connection points: 2
#     Edge 131, Type (0, 1), BuildingBlock: ZUJKAS_clean_linker_0, # of connection points: 2
#     Edge 132, Type (0, 1), BuildingBlock: ZUJKAS_clean_linker_0, # of connection points: 2
#     Edge 133, Type (0, 1), BuildingBlock: ZUJKAS_clean_linker_0, # of connection points: 2
#     Edge 134, Type (0, 1), BuildingBlock: ZUJKAS_clean_linker_0, # of connection points: 2
#     Edge 135, Type (0, 1), BuildingBlock: ZUJKAS_clean_linker_0, # of connection points: 2
# Relax obj value: 0.123
# Max RMSD: 0.275
# Mean RMSD: 0.176
data_MOF--net-gar--node1-AZAVOO_clean_sbu_0--node2-MIFKUJ_clean_sbu_0--edge1-ZUJKAS_clean_linker_0
_symmetry_space_group_name_H-M    P1
_symmetry_Int_Tables_number       1
_symmetry_cell_setting            triclinic
loop_
_symmetry_equiv_pos_as_xyz
'x, y, z'
_cell_length_a     72.796297
_cell_length_b     70.19038
_cell_length_c     69.281
_cell_angle_alpha  96.481848
_cell_angle_beta   94.174367
_cell_angle_gamma 99.451847
loop_
_atom_site_label
_atom_site_type_symbol
_atom_site_fract_x
_atom_site_fract_y
_atom_site_fract_z
_atom_type_partial_charge
Mg0 Mg 0.00547 0.26269 0.3877 0.0
O1 O 0.00798 0.29031 0.40994 0.0
O2 O 0.98126 0.28743 0.42424 0.0
Mg3 Mg 0.96166 0.25949 0.41098 0.0
C4 C 0.9975 0.29672 0.42229 0.0
C5 C 0.04299 0.27961 0.37207 0.0
O6 O 0.03147 0.28923 0.3634 0.0
O7 O 0.00951 0.24437 0.41234 0.0
O8 O 0.98174 0.24147 0.42454 0.0
O9 O 0.99255 0.27738 0.36454 0.0
O10 O 0.97648 0.26038 0.38453 0.0
C11 C 0.99825 0.23751 0.42417 0.0
C12 C 0.97656 0.27118 0.37069 0.0
O13 O 0.0368 0.26822 0.38406 0.0
Mg14 Mg 0.99216 0.77827 0.65851 0.0
O15 O 0.98581 0.74774 0.64138 0.0
O16 O 0.95677 0.74256 0.62659 0.0
Mg17 Mg 0.94504 0.77065 0.63337 0.0
C18 C 0.97223 0.7369 0.63063 0.0
C19 C 0.02756 0.76102 0.67017 0.0
O20 O 0.01444 0.74699 0.67377 0.0
O21 O 0.9965 0.79095 0.63011 0.0
O22 O 0.96725 0.78691 0.61605 0.0
O23 O 0.97945 0.76724 0.68431 0.0
O24 O 0.96378 0.77807 0.66056 0.0
C25 C 0.98482 0.793 0.61615 0.0
C26 C 0.96365 0.77034 0.67655 0.0
O27 O 0.02288 0.7758 0.66337 0.0
Mg28 Mg 0.50603 0.75217 0.87806 0.0
O29 O 0.50794 0.78021 0.89956 0.0
O30 O 0.48063 0.77823 0.91271 0.0
Mg31 Mg 0.46171 0.74962 0.90041 0.0
C32 C 0.49705 0.78725 0.91103 0.0
C33 C 0.54363 0.77092 0.86418 0.0
O34 O 0.53197 0.78081 0.85614 0.0
O35 O 0.50995 0.73488 0.90361 0.0
O36 O 0.48207 0.73294 0.91555 0.0
O37 O 0.49325 0.76599 0.85406 0.0
O38 O 0.47699 0.74946 0.87426 0.0
C39 C 0.49858 0.72891 0.91575 0.0
C40 C 0.4772 0.75991 0.86012 0.0
O41 O 0.53745 0.75841 0.87511 0.0
Mg42 Mg 0.49346 0.2675 0.15507 0.0
O43 O 0.48839 0.23694 0.13813 0.0
O44 O 0.46014 0.23122 0.12155 0.0
Mg45 Mg 0.4473 0.2588 0.12763 0.0
C46 C 0.47555 0.2259 0.12659 0.0
C47 C 0.52986 0.25518 0.17316 0.0
O48 O 0.51754 0.24538 0.18294 0.0
O49 O 0.4988 0.28038 0.12686 0.0
O50 O 0.47 0.27599 0.1116 0.0
O51 O 0.47921 0.25653 0.18038 0.0
O52 O 0.46482 0.26697 0.15558 0.0
C53 C 0.48757 0.28247 0.11252 0.0
C54 C 0.4638 0.25968 0.17176 0.0
O55 O 0.52429 0.26556 0.1608 0.0
Mg56 Mg 0.00501 0.77532 0.1563 0.0
O57 O 0.00531 0.74645 0.13723 0.0
O58 O 0.97673 0.73657 0.12176 0.0
Mg59 Mg 0.95831 0.75881 0.13099 0.0
C60 C 0.99361 0.73425 0.12539 0.0
C61 C 0.04407 0.79492 0.17423 0.0
O62 O 0.03334 0.80651 0.18189 0.0
O63 O 0.00551 0.791 0.12936 0.0
O64 O 0.97621 0.78168 0.1155 0.0
O65 O 0.9957 0.75974 0.18106 0.0
O66 O 0.97647 0.76776 0.15839 0.0
C67 C 0.99263 0.79169 0.11604 0.0
C68 C 0.97872 0.7594 0.17381 0.0
O69 O 0.03665 0.78057 0.1617 0.0
Mg70 Mg 0.48828 0.72832 0.38191 0.0
O71 O 0.48606 0.75652 0.40124 0.0
O72 O 0.45816 0.75243 0.41322 0.0
Mg73 Mg 0.44329 0.72126 0.40274 0.0
C74 C 0.4739 0.76288 0.41144 0.0
C75 C 0.52574 0.72956 0.36566 0.0
O76 O 0.51492 0.71425 0.35569 0.0
O77 O 0.49432 0.71404 0.40907 0.0
O78 O 0.46609 0.70914 0.42021 0.0
O79 O 0.47426 0.73872 0.35656 0.0
O80 O 0.45921 0.72127 0.37701 0.0
C81 C 0.48339 0.70757 0.42136 0.0
C82 C 0.45855 0.7309 0.36227 0.0
O83 O 0.51909 0.73916 0.37934 0.0
Mg84 Mg 0.50631 0.27849 0.65448 0.0
O85 O 0.50716 0.24952 0.63569 0.0
O86 O 0.47928 0.24046 0.61846 0.0
Mg87 Mg 0.46108 0.2634 0.62578 0.0
C88 C 0.49577 0.23757 0.6233 0.0
C89 C 0.5438 0.29662 0.67638 0.0
O90 O 0.53207 0.30689 0.68424 0.0
O91 O 0.50932 0.29452 0.62794 0.0
O92 O 0.48087 0.28606 0.61183 0.0
O93 O 0.49479 0.26267 0.67818 0.0
O94 O 0.47748 0.27147 0.65431 0.0
C95 C 0.49755 0.2957 0.61373 0.0
C96 C 0.47837 0.26264 0.6696 0.0
O97 O 0.53764 0.28336 0.66229 0.0
Mg98 Mg 0.98715 0.22845 0.87872 0.0
O99 O 0.98461 0.25759 0.89619 0.0
O100 O 0.95622 0.25476 0.90705 0.0
Mg101 Mg 0.94138 0.22347 0.89805 0.0
C102 C 0.97219 0.26475 0.90535 0.0
C103 C 0.0268 0.22742 0.86754 0.0
O104 O 0.01775 0.21 0.86038 0.0
O105 O 0.99196 0.21554 0.90694 0.0
O106 O 0.96343 0.21243 0.91751 0.0
O107 O 0.97421 0.23741 0.85197 0.0
O108 O 0.95817 0.22161 0.87294 0.0
C109 C 0.9806 0.21044 0.91938 0.0
C110 C 0.95817 0.23027 0.85749 0.0
O111 O 0.01817 0.23897 0.87728 0.0
Mg112 Mg 0.38858 0.03871 0.28135 0.0
O113 O 0.37195 0.00928 0.28633 0.0
O114 O 0.36254 0.01227 0.31633 0.0
Mg115 Mg 0.37325 0.0436 0.33038 0.0
C116 C 0.36333 0.00214 0.3 0.0
C117 C 0.40057 0.03834 0.24086 0.0
O118 O 0.41008 0.05449 0.25069 0.0
O119 O 0.36151 0.05048 0.27728 0.0
O120 O 0.35369 0.05459 0.30789 0.0
O121 O 0.41471 0.03066 0.29336 0.0
O122 O 0.3962 0.04576 0.31125 0.0
C123 C 0.35073 0.05599 0.2897 0.0
C124 C 0.41085 0.03764 0.31039 0.0
O125 O 0.3883 0.02806 0.24921 0.0
Mg126 Mg 0.27875 0.12547 0.49523 0.0
O127 O 0.27906 0.14453 0.52451 0.0
O128 O 0.30766 0.16232 0.53132 0.0
Mg129 Mg 0.32564 0.154 0.50694 0.0
C130 C 0.2909 0.15733 0.53557 0.0
C131 C 0.23932 0.10395 0.48071 0.0
O132 O 0.24989 0.09501 0.46947 0.0
O133 O 0.27841 0.15169 0.47871 0.0
O134 O 0.30787 0.16752 0.4849 0.0
O135 O 0.28779 0.102 0.51066 0.0
O136 O 0.30729 0.12533 0.50015 0.0
C137 C 0.29139 0.1656 0.4763 0.0
C138 C 0.30484 0.11024 0.50931 0.0
O139 O 0.24704 0.1183 0.49308 0.0
Mg140 Mg 0.1258 0.99891 0.79249 0.0
O141 O 0.14353 0.02922 0.79963 0.0
O142 O 0.1575 0.03256 0.82992 0.0
Mg143 Mg 0.14892 0.00345 0.84179 0.0
C144 C 0.15425 0.03924 0.81385 0.0
C145 C 0.10615 0.00499 0.75335 0.0
O146 O 0.09228 0.0038 0.76451 0.0
O147 O 0.15227 0.98661 0.78819 0.0
O148 O 0.16519 0.98835 0.81877 0.0
O149 O 0.10152 0.00912 0.8054 0.0
O150 O 0.12297 0.99694 0.82194 0.0
C151 C 0.16515 0.98359 0.80037 0.0
C152 C 0.10802 0.00455 0.82182 0.0
O153 O 0.12233 0.00354 0.76059 0.0
Mg154 Mg 0.25831 0.89859 0.01932 0.0
O155 O 0.25372 0.8769 0.99083 0.0
O156 O 0.2791 0.86263 0.99092 0.0
Mg157 Mg 0.29993 0.87557 0.01696 0.0
C158 C 0.26314 0.86457 0.98324 0.0
C159 C 0.22164 0.91195 0.00458 0.0
O160 O 0.23236 0.91675 0.99081 0.0
O161 O 0.25253 0.8733 0.03749 0.0
O162 O 0.27914 0.86139 0.03652 0.0
O163 O 0.27252 0.92235 0.00379 0.0
O164 O 0.28711 0.90179 0.01805 0.0
C165 C 0.26293 0.86132 0.04242 0.0
C166 C 0.28789 0.91596 0.00767 0.0
O167 O 0.2278 0.9028 0.01778 0.0
Mg168 Mg 0.27141 0.39556 0.05196 0.0
O169 O 0.2749 0.37723 0.02318 0.0
O170 O 0.30075 0.36438 0.02771 0.0
Mg171 Mg 0.31384 0.37454 0.05894 0.0
C172 C 0.28655 0.36678 0.0169 0.0
C173 C 0.2394 0.40683 0.02622 0.0
O174 O 0.25403 0.41297 0.01712 0.0
O175 O 0.26161 0.36805 0.06578 0.0
O176 O 0.28849 0.35724 0.07119 0.0
O177 O 0.2887 0.42151 0.04271 0.0
O178 O 0.30035 0.40042 0.05922 0.0
C179 C 0.27092 0.35597 0.07258 0.0
C180 C 0.30322 0.41562 0.05025 0.0
O181 O 0.24166 0.39793 0.04099 0.0
Mg182 Mg 0.77215 0.13159 0.02542 0.0
O183 O 0.79484 0.14928 0.04715 0.0
O184 O 0.82268 0.15527 0.03564 0.0
Mg185 Mg 0.81736 0.13785 0.00489 0.0
C186 C 0.81202 0.15705 0.04929 0.0
C187 C 0.73744 0.14044 0.05351 0.0
O188 O 0.73311 0.15403 0.06616 0.0
O189 O 0.77191 0.15732 0.00801 0.0
O190 O 0.79921 0.15947 0.99495 0.0
O191 O 0.77875 0.10432 0.03611 0.0
O192 O 0.7923 0.1177 0.0122 0.0
C193 C 0.78362 0.16518 0.99715 0.0
C194 C 0.7912 0.10438 0.02365 0.0
O195 O 0.75276 0.14417 0.0459 0.0
Mg196 Mg 0.1178 0.48638 0.26792 0.0
O197 O 0.13549 0.51724 0.27221 0.0
O198 O 0.14737 0.52315 0.3034 0.0
Mg199 Mg 0.13808 0.49661 0.31872 0.0
C200 C 0.14532 0.5284 0.28643 0.0
C201 C 0.09926 0.47666 0.22687 0.0
O202 O 0.08776 0.46724 0.23775 0.0
O203 O 0.14443 0.473 0.26754 0.0
O204 O 0.15509 0.47898 0.2991 0.0
O205 O 0.09302 0.49868 0.27734 0.0
O206 O 0.11343 0.48882 0.29741 0.0
C207 C 0.15637 0.47169 0.28159 0.0
C208 C 0.09896 0.49698 0.29501 0.0
O209 O 0.11474 0.48633 0.23496 0.0
Mg210 Mg 0.77016 0.89464 0.55465 0.0
O211 O 0.77282 0.87624 0.52558 0.0
O212 O 0.79935 0.86428 0.52897 0.0
Mg213 Mg 0.81293 0.87388 0.56008 0.0
C214 C 0.78465 0.86631 0.51874 0.0
C215 C 0.73711 0.90553 0.52977 0.0
O216 O 0.75107 0.91069 0.51938 0.0
O217 O 0.76092 0.86701 0.56851 0.0
O218 O 0.78793 0.8561 0.57252 0.0
O219 O 0.78716 0.92068 0.54503 0.0
O220 O 0.7992 0.89956 0.56113 0.0
C221 C 0.77045 0.85475 0.57456 0.0
C222 C 0.80183 0.91481 0.55224 0.0
O223 O 0.74015 0.89727 0.54483 0.0
Mg224 Mg 0.88998 0.02867 0.26816 0.0
O225 O 0.86855 4e-05 0.26559 0.0
O226 O 0.85589 0.00067 0.29412 0.0
Mg227 Mg 0.86907 0.02795 0.31453 0.0
C228 C 0.85712 0.99247 0.27695 0.0
C229 C 0.90533 0.03969 0.23145 0.0
O230 O 0.91204 0.05416 0.24518 0.0
O231 O 0.86635 0.04598 0.26475 0.0
O232 O 0.85528 0.04617 0.29402 0.0
O233 O 0.91221 0.01389 0.28008 0.0
O234 O 0.89377 0.02887 0.29814 0.0
C235 C 0.85516 0.05121 0.27686 0.0
C236 C 0.90673 0.0184 0.29711 0.0
O237 O 0.89359 0.02564 0.23572 0.0
Mg238 Mg 0.2839 0.6274 0.50455 0.0
O239 O 0.29196 0.6457 0.53427 0.0
O240 O 0.32177 0.6603 0.5356 0.0
Mg241 Mg 0.33302 0.64994 0.50689 0.0
C242 C 0.30628 0.65708 0.54321 0.0
C243 C 0.24466 0.60747 0.51011 0.0
O244 O 0.2537 0.59292 0.50651 0.0
O245 O 0.28342 0.65493 0.49059 0.0
O246 O 0.31373 0.66729 0.49054 0.0
O247 O 0.29222 0.60172 0.516 0.0
O248 O 0.31151 0.62322 0.50277 0.0
C249 C 0.29644 0.66778 0.4862 0.0
C250 C 0.30888 0.60769 0.51131 0.0
O251 O 0.25324 0.62473 0.50995 0.0
Mg252 Mg 0.38977 0.52687 0.76478 0.0
O253 O 0.36928 0.49746 0.76224 0.0
O254 O 0.35693 0.49753 0.79091 0.0
Mg255 Mg 0.36924 0.52506 0.81136 0.0
C256 C 0.35824 0.48944 0.77373 0.0
C257 C 0.40031 0.50988 0.72475 0.0
O258 O 0.40201 0.49555 0.73505 0.0
O259 O 0.36524 0.54319 0.76154 0.0
O260 O 0.35464 0.54278 0.791 0.0
O261 O 0.41295 0.51326 0.77679 0.0
O262 O 0.39383 0.52713 0.79482 0.0
C263 C 0.35404 0.54793 0.77389 0.0
C264 C 0.40739 0.51746 0.79382 0.0
O265 O 0.39351 0.52424 0.73228 0.0
Mg266 Mg 0.63116 0.98135 0.77053 0.0
O267 O 0.64605 0.01322 0.77279 0.0
O268 O 0.65646 0.02225 0.80422 0.0
Mg269 Mg 0.64811 0.99715 0.82171 0.0
C270 C 0.65466 0.02588 0.7866 0.0
C271 C 0.61781 0.9634 0.72967 0.0
O272 O 0.6095 0.95148 0.74095 0.0
O273 O 0.65929 0.9714 0.77372 0.0
O274 O 0.66807 0.98025 0.80549 0.0
O275 O 0.60456 0.99155 0.77607 0.0
O276 O 0.62488 0.98594 0.79918 0.0
C277 C 0.67083 0.97223 0.78871 0.0
C278 C 0.60978 0.99239 0.79445 0.0
O279 O 0.62983 0.97792 0.73757 0.0
Mg280 Mg 0.78048 0.62762 0.99684 0.0
O281 O 0.78098 0.64588 0.02664 0.0
O282 O 0.80963 0.66357 0.03356 0.0
Mg283 Mg 0.82715 0.65679 0.00833 0.0
C284 C 0.79296 0.65832 0.03793 0.0
C285 C 0.74149 0.60511 0.98277 0.0
O286 O 0.75226 0.59689 0.97118 0.0
O287 O 0.77915 0.65432 0.9814 0.0
O288 O 0.80845 0.67063 0.98746 0.0
O289 O 0.79049 0.60387 0.01108 0.0
O290 O 0.80915 0.62807 0.00091 0.0
C291 C 0.79181 0.66864 0.97925 0.0
C292 C 0.80731 0.61258 0.00948 0.0
O293 O 0.74888 0.61951 0.99523 0.0
Mg294 Mg 0.89262 0.52681 0.76259 0.0
O295 O 0.87442 0.50381 0.77661 0.0
O296 O 0.87469 0.51158 0.80881 0.0
Mg297 Mg 0.89267 0.54216 0.81497 0.0
C298 C 0.86928 0.49998 0.79314 0.0
C299 C 0.88152 0.50241 0.71807 0.0
O300 O 0.86783 0.49448 0.70471 0.0
O301 O 0.86999 0.54541 0.76477 0.0
O302 O 0.87044 0.5543 0.79679 0.0
O303 O 0.91773 0.51303 0.76942 0.0
O304 O 0.90841 0.53564 0.78941 0.0
C305 C 0.86374 0.55439 0.77923 0.0
C306 C 0.91946 0.52326 0.78643 0.0
O307 O 0.87745 0.51172 0.73352 0.0
Mg308 Mg 0.75911 0.38684 0.51372 0.0
O309 O 0.75416 0.3659 0.48479 0.0
O310 O 0.77871 0.35038 0.48468 0.0
Mg311 Mg 0.79945 0.36194 0.51122 0.0
C312 C 0.76311 0.35327 0.47691 0.0
C313 C 0.72468 0.40044 0.52799 0.0
O314 O 0.73632 0.402 0.54373 0.0
O315 O 0.75199 0.3614 0.53134 0.0
O316 O 0.77802 0.34838 0.53063 0.0
O317 O 0.77449 0.4105 0.49907 0.0
O318 O 0.78779 0.38888 0.51314 0.0
C319 C 0.76182 0.34896 0.53638 0.0
C320 C 0.78944 0.40349 0.50332 0.0
O321 O 0.72929 0.39282 0.51191 0.0
Mg322 Mg 0.62624 0.50173 0.29149 0.0
O323 O 0.64337 0.53237 0.29921 0.0
O324 O 0.65845 0.53457 0.32883 0.0
Mg325 Mg 0.6509 0.50506 0.33991 0.0
C326 C 0.65444 0.542 0.3134 0.0
C327 C 0.61867 0.49236 0.24707 0.0
O328 O 0.61951 0.47511 0.25238 0.0
O329 O 0.65277 0.49003 0.28576 0.0
O330 O 0.66692 0.49151 0.31579 0.0
O331 O 0.60213 0.5109 0.30554 0.0
O332 O 0.62454 0.49876 0.32072 0.0
C333 C 0.66627 0.48722 0.29728 0.0
C334 C 0.60944 0.50606 0.32149 0.0
O335 O 0.62142 0.50707 0.26005 0.0
Zn336 Zn 0.02601 0.00753 0.03211 0.0
Zn337 Zn 0.98464 0.00688 0.02008 0.0
C338 C 0.02397 0.97128 0.04475 0.0
O339 O 0.03519 0.98292 0.05843 0.0
C340 C 0.98753 0.04135 0.00422 0.0
O341 O 0.97783 0.0282 0.99065 0.0
O342 O 0.05425 0.00927 0.03639 0.0
O343 O 0.02045 0.01669 0.00626 0.0
O344 O 0.99564 0.9942 0.99678 0.0
C345 C 0.06345 0.00787 0.0215 0.0
O346 O 0.05501 0.00838 0.00421 0.0
O347 O 0.01693 0.97857 0.03056 0.0
C348 C 0.95049 0.0149 0.02968 0.0
O349 O 0.96272 0.0249 0.04355 0.0
O350 O 0.95633 0.00396 0.01638 0.0
O351 O 0.99015 0.99845 0.04635 0.0
O352 O 0.0153 0.02044 0.05537 0.0
O353 O 0.99291 0.036 0.02033 0.0
C354 C 0.01015 0.00527 0.99274 0.0
C355 C 0.0002 0.0105 0.05955 0.0
Zn356 Zn 0.24655 0.76578 0.2937 0.0
Zn357 Zn 0.25233 0.76541 0.25151 0.0
C358 C 0.22235 0.72958 0.29153 0.0
O359 O 0.21333 0.74095 0.30222 0.0
C360 C 0.27684 0.80145 0.25635 0.0
O361 O 0.28618 0.79036 0.24574 0.0
O362 O 0.24572 0.76875 0.32291 0.0
O363 O 0.27374 0.77217 0.289 0.0
O364 O 0.27162 0.75095 0.26271 0.0
C365 C 0.25953 0.77741 0.33471 0.0
O366 O 0.27416 0.787 0.32783 0.0
O367 O 0.23768 0.73697 0.2855 0.0
C368 C 0.24082 0.77412 0.21507 0.0
O369 O 0.23087 0.78329 0.22685 0.0
O370 O 0.25211 0.76416 0.22227 0.0
O371 O 0.2255 0.75737 0.25638 0.0
O372 O 0.22784 0.78013 0.28121 0.0
O373 O 0.26097 0.79399 0.26118 0.0
C374 C 0.28106 0.76035 0.27801 0.0
C375 C 0.2184 0.77026 0.26616 0.0
Zn376 Zn 0.49926 0.01017 0.52899 0.0
Zn377 Zn 0.53572 0.9993 0.51348 0.0
C378 C 0.51189 0.04406 0.55456 0.0
O379 O 0.5028 0.03232 0.5655 0.0
C380 C 0.51848 0.9649 0.48931 0.0
O381 O 0.52522 0.97563 0.47623 0.0
O382 O 0.47292 0.01352 0.53441 0.0
O383 O 0.49762 0.00317 0.49998 0.0
O384 O 0.52612 0.01618 0.49465 0.0
C385 C 0.46805 0.02721 0.52574 0.0
O386 O 0.47964 0.03585 0.51444 0.0
O387 O 0.51382 0.03743 0.5371 0.0
C388 C 0.56686 0.98257 0.51978 0.0
O389 O 0.55497 0.97503 0.53141 0.0
O390 O 0.56199 0.9949 0.50916 0.0
O391 O 0.53687 0.00854 0.54214 0.0
O392 O 0.50937 0.99218 0.54617 0.0
O393 O 0.52048 0.97216 0.50716 0.0
C394 C 0.50874 0.0117 0.48911 0.0
C395 C 0.52648 0.99808 0.55223 0.0
Zn396 Zn 0.27415 0.25236 0.7644 0.0
Zn397 Zn 0.23912 0.26891 0.78015 0.0
C398 C 0.26057 0.22587 0.73075 0.0
O399 O 0.26552 0.2141 0.74286 0.0
C400 C 0.25626 0.29384 0.81325 0.0
O401 O 0.24897 0.30577 0.80285 0.0
O402 O 0.29993 0.24628 0.76156 0.0
O403 O 0.27809 0.28162 0.77013 0.0
O404 O 0.24981 0.28689 0.76143 0.0
C405 C 0.30745 0.25351 0.74742 0.0
O406 O 0.29842 0.26445 0.73736 0.0
O407 O 0.26139 0.24373 0.73715 0.0
C408 C 0.2085 0.26506 0.80113 0.0
O409 O 0.21977 0.25462 0.80897 0.0
O410 O 0.21374 0.2741 0.787 0.0
O411 O 0.23432 0.23995 0.77214 0.0
O412 O 0.26206 0.23514 0.78298 0.0
O413 O 0.25502 0.27616 0.80597 0.0
C414 C 0.26746 0.29243 0.76333 0.0
C415 C 0.24454 0.22931 0.77983 0.0
Zn416 Zn 0.02613 0.98854 0.51714 0.0
Zn417 Zn 0.01721 0.02898 0.51663 0.0
C418 C 0.05243 0.99663 0.55031 0.0
O419 O 0.06264 0.9896 0.53729 0.0
C420 C 0.99185 0.01881 0.48361 0.0
O421 O 0.98234 0.02787 0.49599 0.0
O422 O 0.02961 0.96054 0.51413 0.0
O423 O 0.99834 0.98832 0.51458 0.0
O424 O 0.99893 0.01581 0.53358 0.0
C425 C 0.01713 0.94657 0.50595 0.0
O426 O 0.00183 0.95046 0.49716 0.0
O427 O 0.03568 0.99808 0.54507 0.0
C428 C 0.02608 0.06614 0.50582 0.0
O429 O 0.03762 0.05652 0.49674 0.0
O430 O 0.01496 0.05731 0.51657 0.0
O431 O 0.04465 0.02886 0.52202 0.0
O432 O 0.04326 0.00341 0.50019 0.0
O433 O 0.00847 0.01704 0.48906 0.0
C434 C 0.99038 0.99897 0.52623 0.0
C435 C 0.05215 0.01958 0.50883 0.0
Zn436 Zn 0.25747 0.78837 0.74883 0.0
Zn437 Zn 0.25893 0.74748 0.75772 0.0
C438 C 0.22301 0.77938 0.72542 0.0
O439 O 0.23385 0.78803 0.71347 0.0
C440 C 0.29286 0.7551 0.78094 0.0
O441 O 0.28153 0.74537 0.79174 0.0
O442 O 0.25907 0.81702 0.7467 0.0
O443 O 0.26437 0.78707 0.77721 0.0
O444 O 0.24506 0.75985 0.77874 0.0
C445 C 0.25005 0.8251 0.75938 0.0
O446 O 0.24124 0.81439 0.77136 0.0
O447 O 0.2301 0.77721 0.74217 0.0
C448 C 0.26723 0.71064 0.74731 0.0
O449 O 0.27573 0.72107 0.73492 0.0
O450 O 0.25777 0.71879 0.7595 0.0
O451 O 0.25176 0.74923 0.72942 0.0
O452 O 0.2722 0.7758 0.72896 0.0
O453 O 0.28632 0.7586 0.76444 0.0
C454 C 0.25338 0.77655 0.78674 0.0
C455 C 0.26385 0.75927 0.72062 0.0
Zn456 Zn 0.52281 0.01973 0.00272 0.0
Zn457 Zn 0.50845 0.00341 0.03804 0.0
C458 C 0.55826 0.04266 0.01475 0.0
O459 O 0.54903 0.05593 0.00903 0.0
C460 C 0.47574 0.98293 0.01676 0.0
O461 O 0.4822 0.96941 0.02555 0.0
O462 O 0.5247 0.0271 0.97573 0.0
O463 O 0.51467 0.99052 0.99857 0.0
O464 O 0.52482 0.9848 0.02765 0.0
C465 C 0.53752 0.02036 0.96713 0.0
O466 O 0.5472 0.00912 0.97602 0.0
O467 O 0.54949 0.02545 0.01478 0.0
C468 C 0.48481 0.00523 0.0669 0.0
O469 O 0.48067 0.01794 0.05548 0.0
O470 O 0.49779 0.99577 0.06272 0.0
O471 O 0.51954 0.03166 0.04507 0.0
O472 O 0.50822 0.0382 0.01688 0.0
O473 O 0.48532 1e-05 0.01901 0.0
C474 C 0.5212 0.97931 0.00945 0.0
C475 C 0.51277 0.04329 0.035 0.0
Zn476 Zn 0.25081 0.23885 0.26318 0.0
Zn477 Zn 0.2544 0.28175 0.28042 0.0
C478 C 0.28213 0.24051 0.24182 0.0
O479 O 0.26859 0.23116 0.22892 0.0
C480 C 0.22466 0.27932 0.30348 0.0
O481 O 0.23909 0.28776 0.31573 0.0
O482 O 0.24623 0.20974 0.25525 0.0
O483 O 0.24802 0.24297 0.29211 0.0
O484 O 0.2699 0.26895 0.29879 0.0
C485 C 0.23992 0.19741 0.2663 0.0
O486 O 0.23352 0.20357 0.28269 0.0
O487 O 0.27808 0.24646 0.25876 0.0
C488 C 0.2658 0.32304 0.27708 0.0
O489 O 0.27405 0.31677 0.26197 0.0
O490 O 0.25864 0.3109 0.28791 0.0
O491 O 0.25715 0.27785 0.25162 0.0
O492 O 0.23578 0.25158 0.24415 0.0
O493 O 0.22738 0.27419 0.28584 0.0
C494 C 0.26087 0.25352 0.30391 0.0
C495 C 0.24476 0.2672 0.2394 0.0
Zn496 Zn 0.52644 0.48534 0.01402 0.0
Zn497 Zn 0.52027 0.52682 0.01458 0.0
C498 C 0.55079 0.48988 0.04782 0.0
O499 O 0.56008 0.48139 0.03479 0.0
C500 C 0.49624 0.52051 0.98057 0.0
O501 O 0.48715 0.53002 0.99303 0.0
O502 O 0.52754 0.45656 0.01105 0.0
O503 O 0.4992 0.48736 0.00923 0.0
O504 O 0.50084 0.51362 0.03026 0.0
C505 C 0.51515 0.44653 0.01955 0.0
O506 O 0.50275 0.45526 0.02817 0.0
O507 O 0.53494 0.49386 0.04239 0.0
C508 C 0.53087 0.56499 0.00635 0.0
O509 O 0.54274 0.55584 0.99726 0.0
O510 O 0.51931 0.55552 0.01619 0.0
O511 O 0.54718 0.52492 0.02061 0.0
O512 O 0.5457 0.49955 0.99857 0.0
O513 O 0.5121 0.51682 0.98635 0.0
C514 C 0.49157 0.49765 0.02151 0.0
C515 C 0.55485 0.51536 0.00778 0.0
Zn516 Zn 0.76145 0.29192 0.23956 0.0
Zn517 Zn 0.765 0.2522 0.24954 0.0
C518 C 0.72804 0.27921 0.21376 0.0
O519 O 0.73778 0.29037 0.20277 0.0
C520 C 0.79561 0.26139 0.27796 0.0
O521 O 0.78294 0.25141 0.28721 0.0
O522 O 0.75981 0.31994 0.23705 0.0
O523 O 0.76575 0.29179 0.26839 0.0
O524 O 0.74774 0.26337 0.26776 0.0
C525 C 0.74549 0.32471 0.24447 0.0
O526 O 0.73429 0.31156 0.25215 0.0
O527 O 0.73563 0.27671 0.23018 0.0
C528 C 0.77496 0.21564 0.24181 0.0
O529 O 0.78554 0.22614 0.23095 0.0
O530 O 0.76373 0.22368 0.25186 0.0
O531 O 0.76254 0.25385 0.22054 0.0
O532 O 0.78035 0.28253 0.2227 0.0
O533 O 0.79127 0.26426 0.26055 0.0
C534 C 0.75453 0.2802 0.27666 0.0
C535 C 0.775 0.26548 0.21374 0.0
Zn536 Zn 0.018 0.52963 0.51245 0.0
Zn537 Zn 0.00992 0.51308 0.55117 0.0
C538 C 0.05024 0.55683 0.52746 0.0
O539 O 0.0396 0.56853 0.52084 0.0
C540 C 0.97709 0.48636 0.53356 0.0
O541 O 0.9873 0.4734 0.53795 0.0
O542 O 0.02074 0.53627 0.48513 0.0
O543 O 0.01246 0.50053 0.50909 0.0
O544 O 0.02661 0.49667 0.53718 0.0
C545 C 0.0347 0.53033 0.47799 0.0
O546 O 0.04504 0.52102 0.48865 0.0
O547 O 0.04357 0.53881 0.5265 0.0
C548 C 0.00722 0.49225 0.58658 0.0
O549 O 0.00582 0.47571 0.5752 0.0
O550 O 0.00931 0.50819 0.57927 0.0
O551 O 0.01506 0.54237 0.55356 0.0
O552 O 0.00032 0.54493 0.52535 0.0
O553 O 0.98377 0.50435 0.53797 0.0
C554 C 0.02161 0.49065 0.51925 0.0
C555 C 0.00511 0.55136 0.54319 0.0
Zn556 Zn 0.77652 0.75522 0.2685 0.0
Zn557 Zn 0.73917 0.76939 0.28015 0.0
C558 C 0.76886 0.72844 0.23451 0.0
O559 O 0.77586 0.71825 0.2471 0.0
C560 C 0.75615 0.79342 0.31462 0.0
O561 O 0.75161 0.80667 0.30408 0.0
O562 O 0.80299 0.75022 0.26922 0.0
O563 O 0.77887 0.78445 0.27326 0.0
O564 O 0.75058 0.78861 0.26299 0.0
C565 C 0.81317 0.75995 0.25834 0.0
O566 O 0.80604 0.7725 0.24868 0.0
O567 O 0.76642 0.74558 0.2405 0.0
C568 C 0.70673 0.76263 0.29812 0.0
O569 O 0.71729 0.75111 0.30522 0.0
O570 O 0.71306 0.77329 0.28557 0.0
O571 O 0.73625 0.74085 0.27052 0.0
O572 O 0.76276 0.73805 0.2861 0.0
O573 O 0.75318 0.77568 0.30708 0.0
C574 C 0.7681 0.7948 0.26587 0.0
C575 C 0.74583 0.73101 0.28022 0.0
Zn576 Zn 0.74394 0.26373 0.7962 0.0
Zn577 Zn 0.75143 0.26727 0.75379 0.0
C578 C 0.71807 0.22834 0.78721 0.0
O579 O 0.70718 0.23961 0.79513 0.0
C580 C 0.77743 0.30213 0.76236 0.0
O581 O 0.78749 0.29061 0.75335 0.0
O582 O 0.74276 0.26433 0.82533 0.0
O583 O 0.77132 0.27053 0.79252 0.0
O584 O 0.76983 0.2518 0.76458 0.0
C585 C 0.75415 0.2547 0.83288 0.0
O586 O 0.7648 0.24606 0.8215 0.0
O587 O 0.73501 0.23552 0.78562 0.0
C588 C 0.74119 0.2767 0.71706 0.0
O589 O 0.73105 0.28615 0.72838 0.0
O590 O 0.75203 0.26657 0.72471 0.0
O591 O 0.72442 0.25963 0.75779 0.0
O592 O 0.72604 0.27969 0.78475 0.0
O593 O 0.76051 0.29544 0.76459 0.0
C594 C 0.77881 0.25955 0.78075 0.0
C595 C 0.71724 0.27173 0.76856 0.0
Zn596 Zn 0.75065 0.73362 0.76581 0.0
Zn597 Zn 0.75804 0.77693 0.77748 0.0
C598 C 0.78331 0.73177 0.74725 0.0
O599 O 0.77045 0.72093 0.73453 0.0
C600 C 0.72761 0.78077 0.79872 0.0
O601 O 0.742 0.7901 0.81057 0.0
O602 O 0.74541 0.70417 0.76071 0.0
O603 O 0.7463 0.74137 0.79395 0.0
O604 O 0.7708 0.76478 0.79852 0.0
C605 C 0.74917 0.69494 0.77486 0.0
O606 O 0.75366 0.70467 0.79235 0.0
O607 O 0.77835 0.73963 0.76303 0.0
C608 C 0.7587 0.81452 0.76845 0.0
O609 O 0.74828 0.80376 0.75362 0.0
O610 O 0.76588 0.80609 0.78168 0.0
O611 O 0.76189 0.76897 0.74951 0.0
O612 O 0.73774 0.74525 0.74401 0.0
O613 O 0.73055 0.77305 0.78196 0.0
C614 C 0.75989 0.7515 0.80515 0.0
C615 C 0.74854 0.75901 0.73794 0.0
Zn616 Zn 0.54167 0.51563 0.54031 0.0
Zn617 Zn 0.50109 0.51159 0.53007 0.0
C618 C 0.54169 0.47779 0.54995 0.0
O619 O 0.55403 0.48827 0.56343 0.0
C620 C 0.4986 0.54578 0.515 0.0
O621 O 0.48812 0.53195 0.50268 0.0
O622 O 0.56988 0.51801 0.5437 0.0
O623 O 0.53521 0.52514 0.51476 0.0
O624 O 0.51216 0.50046 0.50633 0.0
C625 C 0.5768 0.5115 0.52845 0.0
O626 O 0.56595 0.50695 0.51203 0.0
O627 O 0.53351 0.48637 0.53754 0.0
C628 C 0.46604 0.515 0.54063 0.0
O629 O 0.47741 0.52421 0.55559 0.0
O630 O 0.47292 0.5061 0.52664 0.0
O631 O 0.50781 0.50302 0.55599 0.0
O632 O 0.53114 0.52721 0.56459 0.0
O633 O 0.50682 0.54104 0.53015 0.0
C634 C 0.52526 0.51292 0.50159 0.0
C635 C 0.51746 0.51536 0.56916 0.0
Zn636 Zn 0.00398 0.51649 0.00997 0.0
Zn637 Zn 0.04025 0.50251 0.99566 0.0
C638 C 0.01474 0.54875 0.03802 0.0
O639 O 0.00557 0.53571 0.04762 0.0
C640 C 0.02019 0.46851 0.97292 0.0
O641 O 0.02801 0.47774 0.95932 0.0
O642 O 0.97723 0.51804 0.01489 0.0
O643 O 0.0036 0.51184 0.98057 0.0
O644 O 0.03329 0.51884 0.97509 0.0
C645 C 0.97135 0.53164 0.00691 0.0
O646 O 0.98238 0.54162 0.99601 0.0
O647 O 0.01728 0.54376 0.02031 0.0
C648 C 0.06852 0.48179 0.00297 0.0
O649 O 0.05552 0.47528 0.01397 0.0
O650 O 0.06557 0.49495 0.99247 0.0
O651 O 0.04183 0.51357 0.02388 0.0
O652 O 0.01377 0.4982 0.02718 0.0
O653 O 0.02264 0.47666 0.99047 0.0
C654 C 0.01603 0.51679 0.96923 0.0
C655 C 0.03066 0.50416 0.03408 0.0
H656 H 0.0092 0.18966 0.92034 0.0
H657 H 0.01425 0.166 0.94262 0.0
H658 H 0.97124 0.18361 0.97671 0.0
H659 H 0.96558 0.20679 0.95405 0.0
H660 H 0.02184 0.16386 0.9823 0.0
H661 H 0.94923 0.12777 0.95497 0.0
H662 H 0.96137 0.148 0.94444 0.0
H663 H 0.95128 0.15207 0.96717 0.0
C664 C 0.00111 0.18884 0.93284 0.0
C665 C 0.98669 0.19975 0.9352 0.0
C666 C 0.00405 0.17533 0.94559 0.0
C667 C 0.99278 0.1727 0.96101 0.0
C668 C 0.97976 0.18507 0.9646 0.0
H669 H 0.99672 0.07456 0.03064 0.0
H670 H -0.00019 0.1084 0.02323 0.0
C671 C 0.97657 0.19832 0.95166 0.0
C672 C 0.99284 0.15534 0.97135 0.0
H673 H 0.96593 0.11182 0.97619 0.0
C674 C 0.00957 0.15256 0.98123 0.0
C675 C 0.97683 0.14053 0.96969 0.0
C676 C 0.9587 0.14208 0.95838 0.0
C677 C 0.01083 0.1351 0.98901 0.0
C678 C 0.99492 0.12024 0.98694 0.0
C679 C 0.97806 0.12335 0.97778 0.0
C680 C 0.99574 0.10044 0.99192 0.0
C681 C 0.02929 0.13219 0.99849 0.0
C682 C 0.99268 0.08492 0.97678 0.0
C683 C 0.99072 0.0658 0.98094 0.0
C684 C 0.99182 0.06176 0.00034 0.0
C685 C 0.99583 0.07731 0.01555 0.0
C686 C 0.99766 0.09659 0.01135 0.0
H687 H 0.04077 0.14443 0.99726 0.0
H688 H 0.02804 0.13095 0.01419 0.0
H689 H 0.03308 0.11843 0.99172 0.0
H690 H 0.99121 0.08761 0.9617 0.0
H691 H 0.98791 0.05414 0.96889 0.0
H692 H 0.06904 0.77104 0.16457 0.0
H693 H 0.1001 0.7718 0.18094 0.0
H694 H 0.09494 0.82386 0.2181 0.0
H695 H 0.06373 0.82311 0.20201 0.0
H696 H 0.13309 0.80049 0.18712 0.0
H697 H 0.10338 0.78488 0.25664 0.0
H698 H 0.08903 0.78212 0.2338 0.0
H699 H 0.09752 0.80595 0.24677 0.0
C700 C 0.07458 0.78279 0.17607 0.0
C701 C 0.06381 0.79687 0.18216 0.0
C702 C 0.09233 0.7832 0.18539 0.0
C703 C 0.09962 0.79767 0.20096 0.0
C704 C 0.08937 0.81236 0.20637 0.0
H705 H 0.20126 0.80075 0.27923 0.0
H706 H 0.17294 0.80983 0.26398 0.0
C707 C 0.07159 0.81194 0.19708 0.0
C708 C 0.11751 0.79668 0.21206 0.0
H709 H 0.13596 0.78761 0.25617 0.0
C710 C 0.13377 0.79784 0.20226 0.0
C711 C 0.11833 0.79329 0.23185 0.0
C712 C 0.10114 0.79133 0.24292 0.0
C713 C 0.15079 0.79532 0.21161 0.0
C714 C 0.15143 0.79121 0.23114 0.0
C715 C 0.13536 0.79078 0.24119 0.0
C716 C 0.1682 0.78568 0.24081 0.0
C717 C 0.16791 0.79685 0.20044 0.0
C718 C 0.17445 0.7688 0.23317 0.0
C719 C 0.19043 0.76354 0.24184 0.0
C720 C 0.20048 0.77504 0.2584 0.0
C721 C 0.19383 0.79161 0.26648 0.0
C722 C 0.17774 0.79686 0.25776 0.0
H723 H 0.16657 0.80556 0.18814 0.0
H724 H 0.18072 0.80357 0.21011 0.0
H725 H 0.16968 0.78205 0.19425 0.0
H726 H 0.167 0.75972 0.22038 0.0
H727 H 0.19507 0.7506 0.23531 0.0
H728 H 0.50819 0.7853 0.42268 0.0
H729 H 0.51496 0.81886 0.43875 0.0
H730 H 0.45581 0.82008 0.43749 0.0
H731 H 0.44898 0.78625 0.42233 0.0
H732 H 0.5085 0.8504 0.42639 0.0
H733 H 0.4711 0.84275 0.49244 0.0
H734 H 0.47485 0.82197 0.47637 0.0
H735 H 0.45564 0.83429 0.47075 0.0
C736 C 0.49664 0.79267 0.42602 0.0
C737 C 0.47805 0.78311 0.42135 0.0
C738 C 0.50051 0.81185 0.43522 0.0
C739 C 0.4859 0.82195 0.43972 0.0
C740 C 0.46733 0.81246 0.43482 0.0
H741 H 0.5016 0.948 0.45386 0.0
H742 H 0.49256 0.9132 0.4426 0.0
C743 C 0.46344 0.79315 0.42598 0.0
C744 C 0.49015 0.84273 0.44839 0.0
H745 H 0.47974 0.87531 0.4847 0.0
C746 C 0.50232 0.85578 0.43925 0.0
C747 C 0.48237 0.84979 0.46538 0.0
C748 C 0.47044 0.83641 0.47691 0.0
C749 C 0.50667 0.87565 0.44636 0.0
C750 C 0.49796 0.88291 0.46259 0.0
C751 C 0.48612 0.86983 0.47203 0.0
C752 C 0.50126 0.90398 0.47011 0.0
C753 C 0.52091 0.88853 0.43659 0.0
C754 C 0.50789 0.9104 0.48971 0.0
C755 C 0.51255 0.93033 0.49634 0.0
C756 C 0.51083 0.9441 0.48339 0.0
C757 C 0.5033 0.93766 0.46407 0.0
C758 C 0.4983 0.91779 0.45758 0.0
H759 H 0.53042 0.87999 0.42897 0.0
H760 H 0.51355 0.89553 0.42549 0.0
H761 H 0.52952 0.90011 0.4473 0.0
H762 H 0.51012 0.90002 0.4997 0.0
H763 H 0.51835 0.93492 0.5113 0.0
H764 H 0.47578 0.24354 0.70188 0.0
H765 H 0.44736 0.23249 0.71729 0.0
H766 H 0.4141 0.25096 0.67114 0.0
H767 H 0.44221 0.26182 0.65565 0.0
H768 H 0.42454 0.25689 0.73091 0.0
H769 H 0.38327 0.19888 0.67711 0.0
H770 H 0.40807 0.20688 0.67631 0.0
H771 H 0.39139 0.22 0.66574 0.0
C772 C 0.46236 0.24483 0.69479 0.0
C773 C 0.46124 0.25355 0.67752 0.0
C774 C 0.44616 0.2385 0.70361 0.0
C775 C 0.4286 0.24062 0.69521 0.0
C776 C 0.42743 0.24867 0.67761 0.0
H777 H 0.32445 0.26363 0.71556 0.0
H778 H 0.35418 0.25651 0.70541 0.0
C779 C 0.44357 0.25501 0.66882 0.0
C780 C 0.41173 0.23689 0.70584 0.0
H781 H 0.36534 0.21717 0.69857 0.0
C782 C 0.4117 0.24775 0.72415 0.0
C783 C 0.39504 0.22486 0.69703 0.0
C784 C 0.3945 0.21184 0.67806 0.0
C785 C 0.39505 0.24824 0.73305 0.0
C786 C 0.37813 0.2375 0.7234 0.0
C787 C 0.37838 0.22549 0.70584 0.0
C788 C 0.35988 0.24086 0.72971 0.0
C789 C 0.39539 0.26137 0.75193 0.0
C790 C 0.35326 0.23433 0.74674 0.0
C791 C 0.33616 0.23839 0.75264 0.0
C792 C 0.32557 0.2491 0.74159 0.0
C793 C 0.33228 0.25546 0.72448 0.0
C794 C 0.34923 0.25132 0.71858 0.0
H795 H 0.4096 0.26968 0.75694 0.0
H796 H 0.38567 0.27183 0.75014 0.0
H797 H 0.39054 0.25249 0.76346 0.0
H798 H 0.36131 0.22615 0.75544 0.0
H799 H 0.33129 0.23324 0.76584 0.0
H800 H 0.02104 0.80806 0.61067 0.0
H801 H 0.03162 0.82959 0.58679 0.0
H802 H 0.97471 0.82466 0.562 0.0
H803 H 0.964 0.8029 0.58552 0.0
H804 H 0.00154 0.82505 0.5338 0.0
H805 H 0.02101 0.88561 0.59478 0.0
H806 H 0.0319 0.86464 0.59681 0.0
H807 H 0.00707 0.8626 0.59784 0.0
C808 C 0.01078 0.81132 0.59998 0.0
C809 C 0.99162 0.80399 0.60025 0.0
C810 C 0.01687 0.82365 0.58636 0.0
C811 C 0.0039 0.82896 0.57288 0.0
C812 C 0.98493 0.82077 0.57234 0.0
H813 H 0.98936 0.9146 0.49928 0.0
H814 H 0.98909 0.88385 0.51258 0.0
C815 C 0.97884 0.80839 0.58588 0.0
C816 C 0.00967 0.84439 0.56056 0.0
H817 H 0.02469 0.89333 0.56319 0.0
C818 C 0.00682 0.83996 0.54017 0.0
C819 C 0.01652 0.86381 0.56895 0.0
C820 C 0.0192 0.86958 0.59078 0.0
C821 C 0.01034 0.85456 0.52794 0.0
C822 C 0.01657 0.87407 0.53638 0.0
C823 C 0.02003 0.87834 0.55673 0.0
C824 C 0.01799 0.89068 0.52479 0.0
C825 C 0.00725 0.84896 0.50614 0.0
C826 C 0.0344 0.90467 0.52693 0.0
C827 C 0.03453 0.92241 0.51957 0.0
C828 C 0.0182 0.92649 0.50995 0.0
C829 C 0.00219 0.91191 0.50657 0.0
C830 C 0.00204 0.89422 0.51406 0.0
H831 H 0.0089 0.83361 0.50202 0.0
H832 H 0.99276 0.8503 0.50104 0.0
H833 H 0.01711 0.85857 0.49844 0.0
H834 H 0.04685 0.90227 0.5352 0.0
H835 H 0.04713 0.93329 0.52232 0.0
H836 H 0.47307 0.781 0.82961 0.0
H837 H 0.44378 0.7876 0.81407 0.0
H838 H 0.41283 0.75673 0.85512 0.0
H839 H 0.44174 0.74978 0.87043 0.0
H840 H 0.41212 0.75709 0.79785 0.0
H841 H 0.39315 0.80956 0.85576 0.0
H842 H 0.41683 0.80527 0.85397 0.0
H843 H 0.40027 0.78852 0.86455 0.0
C844 C 0.46004 0.7758 0.83545 0.0
C845 C 0.45977 0.765 0.8514 0.0
C846 C 0.44336 0.77961 0.82657 0.0
C847 C 0.42624 0.77292 0.83368 0.0
C848 C 0.42596 0.76236 0.84969 0.0
H849 H 0.31037 0.74906 0.81515 0.0
H850 H 0.34362 0.75692 0.82586 0.0
C851 C 0.44255 0.75839 0.85843 0.0
C852 C 0.40835 0.77555 0.8237 0.0
H853 H 0.36811 0.79255 0.8325 0.0
C854 C 0.40259 0.76521 0.80515 0.0
C855 C 0.39608 0.78618 0.83333 0.0
C856 C 0.40192 0.79818 0.85294 0.0
C857 C 0.38428 0.76398 0.79659 0.0
C858 C 0.37163 0.7737 0.80676 0.0
C859 C 0.37782 0.78507 0.82477 0.0
C860 C 0.3514 0.77023 0.80027 0.0
C861 C 0.37826 0.75122 0.7774 0.0
C862 C 0.34467 0.77539 0.78242 0.0
C863 C 0.32556 0.77078 0.77615 0.0
C864 C 0.31292 0.76105 0.78772 0.0
C865 C 0.3197 0.75647 0.80583 0.0
C866 C 0.33872 0.76102 0.81203 0.0
H867 H 0.38886 0.74224 0.77307 0.0
H868 H 0.36482 0.74137 0.77821 0.0
H869 H 0.37611 0.76051 0.76579 0.0
H870 H 0.35421 0.78281 0.77329 0.0
H871 H 0.32073 0.77462 0.76218 0.0
H872 H 0.44981 0.19297 0.11435 0.0
H873 H 0.45575 0.16121 0.10025 0.0
H874 H 0.51485 0.18421 0.10438 0.0
H875 H 0.50908 0.21551 0.11954 0.0
H876 H 0.46848 0.14995 0.06837 0.0
H877 H 0.51747 0.13598 0.12765 0.0
H878 H 0.50459 0.1558 0.13044 0.0
H879 H 0.52612 0.15847 0.11886 0.0
C880 C 0.46408 0.19113 0.11244 0.0
C881 C 0.47899 0.20663 0.11823 0.0
C882 C 0.46747 0.173 0.10436 0.0
C883 C 0.48581 0.17011 0.10161 0.0
C884 C 0.50066 0.18576 0.107 0.0
H885 H 0.51072 0.07669 0.01883 0.0
H886 H 0.50426 0.10744 0.03495 0.0
C887 C 0.49733 0.20373 0.11553 0.0
C888 C 0.48933 0.151 0.09238 0.0
H889 H 0.517 0.1166 0.09678 0.0
C890 C 0.47896 0.14256 0.07471 0.0
C891 C 0.50275 0.14109 0.10076 0.0
C892 C 0.51319 0.14821 0.12058 0.0
C893 C 0.48183 0.12475 0.06505 0.0
C894 C 0.49611 0.1155 0.07279 0.0
C895 C 0.50626 0.12378 0.09063 0.0
C896 C 0.50052 0.09705 0.06294 0.0
C897 C 0.46914 0.11586 0.04696 0.0
C898 C 0.50153 0.08123 0.07349 0.0
C899 C 0.50589 0.06392 0.06448 0.0
C900 C 0.50899 0.06193 0.04463 0.0
C901 C 0.50813 0.07776 0.03408 0.0
C902 C 0.50425 0.09527 0.04325 0.0
H903 H 0.4555 0.12102 0.04689 0.0
H904 H 0.47581 0.12031 0.03389 0.0
H905 H 0.46642 0.09972 0.04573 0.0
H906 H 0.4988 0.0822 0.0887 0.0
H907 H 0.50645 0.05195 0.07298 0.0
H908 H 0.05963 0.30104 0.34554 0.0
H909 H 0.0902 0.29998 0.33351 0.0
H910 H 0.10058 0.25888 0.37305 0.0
H911 H 0.06984 0.2596 0.38501 0.0
H912 H 0.12557 0.30877 0.35261 0.0
H913 H 0.10957 0.23122 0.32023 0.0
H914 H 0.09169 0.24465 0.32795 0.0
H915 H 0.10587 0.23515 0.34561 0.0
C916 C 0.06842 0.29182 0.35177 0.0
C917 C 0.06222 0.28029 0.36616 0.0
C918 C 0.08588 0.29122 0.34484 0.0
C919 C 0.09749 0.27905 0.35209 0.0
C920 C 0.09164 0.26802 0.36692 0.0
H921 H 0.21549 0.28593 0.34071 0.0
H922 H 0.1844 0.28524 0.3518 0.0
C923 C 0.07414 0.26859 0.37386 0.0
C924 C 0.11576 0.2781 0.3442 0.0
H925 H 0.14117 0.2471 0.32111 0.0
C926 C 0.12897 0.2953 0.34569 0.0
C927 C 0.12003 0.26057 0.33486 0.0
C928 C 0.106 0.24187 0.33186 0.0
C929 C 0.14649 0.29537 0.33847 0.0
C930 C 0.15103 0.2777 0.32983 0.0
C931 C 0.13769 0.26058 0.32792 0.0
C932 C 0.16974 0.27675 0.32305 0.0
C933 C 0.15991 0.31442 0.33997 0.0
C934 C 0.17177 0.2714 0.30326 0.0
C935 C 0.1896 0.27165 0.29683 0.0
C936 C 0.20565 0.27721 0.31013 0.0
C937 C 0.20345 0.2818 0.33003 0.0
C938 C 0.18569 0.2815 0.33642 0.0
H939 H 0.15258 0.3271 0.34201 0.0
H940 H 0.17031 0.3155 0.35275 0.0
H941 H 0.16757 0.31535 0.32672 0.0
H942 H 0.15958 0.26753 0.29274 0.0
H943 H 0.19084 0.26798 0.28142 0.0
H944 H 0.93145 0.06695 0.21904 0.0
H945 H 0.9476 0.06392 0.18947 0.0
H946 H 0.91422 0.00715 0.17146 0.0
H947 H 0.89785 0.01007 0.20103 0.0
H948 H 0.96852 0.0343 0.1797 0.0
H949 H 0.9115 0.03478 0.1221 0.0
H950 H 0.91016 0.0434 0.14744 0.0
H951 H 0.90575 0.01773 0.13914 0.0
C952 C 0.92731 0.05392 0.20867 0.0
C953 C 0.91337 0.03872 0.21242 0.0
C954 C 0.9366 0.05222 0.1918 0.0
C955 C 0.93204 0.03538 0.17826 0.0
C956 C 0.91776 0.0204 0.18162 0.0
H957 H 0.97265 0.98707 0.07426 0.0
H958 H 0.95758 0.99409 0.10386 0.0
C959 C 0.90845 0.02207 0.19854 0.0
C960 C 0.94307 0.03296 0.1613 0.0
H961 H 0.93946 0.02545 0.11157 0.0
C962 C 0.96224 0.03252 0.16478 0.0
C963 C 0.93481 0.03069 0.14191 0.0
C964 C 0.91446 0.03184 0.13734 0.0
C965 C 0.97326 0.02919 0.14935 0.0
C966 C 0.96491 0.02657 0.12995 0.0
C967 C 0.94582 0.02741 0.12648 0.0
C968 C 0.97539 0.02197 0.11299 0.0
C969 C 0.99354 0.0278 0.15393 0.0
C970 C 0.99068 0.0352 0.10847 0.0
C971 C -0.00051 0.03115 0.09153 0.0
C972 C 0.99296 0.01392 0.07879 0.0
C973 C 0.97799 0.00052 0.08372 0.0
C974 C 0.96931 0.00451 0.10061 0.0
H975 H 0.99669 0.02582 0.16944 0.0
H976 H 0.99743 0.0155 0.14449 0.0
H977 H 0.00245 0.04143 0.15111 0.0
H978 H 0.99541 0.0489 0.11769 0.0
H979 H 0.01087 0.04182 0.08801 0.0
H980 H 0.2613 0.67433 0.47543 0.0
H981 H 0.25275 0.69756 0.45415 0.0
H982 H 0.31106 0.71921 0.44989 0.0
H983 H 0.31986 0.69614 0.47135 0.0
H984 H 0.28688 0.74887 0.45398 0.0
H985 H 0.26036 0.68766 0.39514 0.0
H986 H 0.25083 0.6856 0.41818 0.0
H987 H 0.2752 0.68492 0.41631 0.0
C988 C 0.27236 0.68414 0.47016 0.0
C989 C 0.29129 0.68316 0.4749 0.0
C990 C 0.26742 0.6974 0.45799 0.0
C991 C 0.28128 0.70987 0.45028 0.0
C992 C 0.30017 0.70965 0.4557 0.0
H993 H 0.29031 0.785 0.36125 0.0
H994 H 0.29396 0.7712 0.39176 0.0
C995 C 0.30515 0.6964 0.4679 0.0
C996 C 0.2761 0.72207 0.43539 0.0
H997 H 0.25734 0.71906 0.38838 0.0
C998 C 0.28032 0.74242 0.43965 0.0
C999 C 0.26757 0.71355 0.41675 0.0
C1000 C 0.26332 0.69174 0.41117 0.0
C1001 C 0.27618 0.75453 0.42568 0.0
C1002 C 0.26795 0.74597 0.40691 0.0
C1003 C 0.2635 0.72561 0.40283 0.0
C1004 C 0.26492 0.75755 0.3907 0.0
C1005 C 0.28055 0.7763 0.43119 0.0
C1006 C 0.24732 0.75474 0.38005 0.0
C1007 C 0.24524 0.76239 0.36242 0.0
C1008 C 0.26075 0.77299 0.35511 0.0
C1009 C 0.27806 0.77696 0.36648 0.0
C1010 C 0.28016 0.76917 0.38404 0.0
H1011 H 0.28081 0.78031 0.4472 0.0
H1012 H 0.2946 0.78191 0.42683 0.0
H1013 H 0.27018 0.78362 0.4237 0.0
H1014 H 0.23538 0.74579 0.3849 0.0
H1015 H 0.23169 0.75914 0.35405 0.0
H1016 H 0.58919 0.93676 0.7099 0.0
H1017 H 0.57386 0.93781 0.67758 0.0
H1018 H 0.61451 0.98794 0.67032 0.0
H1019 H 0.62998 0.98708 0.70268 0.0
H1020 H 0.55908 0.97188 0.6694 0.0
H1021 H 0.60935 0.95242 0.61712 0.0
H1022 H 0.60997 0.9458 0.6416 0.0
H1023 H 0.6193 0.97019 0.63752 0.0
C1024 C 0.59515 0.94777 0.70128 0.0
C1025 C 0.61072 0.96195 0.70892 0.0
C1026 C 0.58634 0.94832 0.68283 0.0
C1027 C 0.59311 0.96289 0.6716 0.0
C1028 C 0.60924 0.97642 0.6787 0.0
H1029 H 0.56058 0.01308 0.57136 0.0
H1030 H 0.57535 0.00271 0.60012 0.0
C1031 C 0.61802 0.97595 0.69722 0.0
C1032 C 0.58212 0.96536 0.65356 0.0
H1033 H 0.58449 0.96728 0.60485 0.0
C1034 C 0.56447 0.97063 0.6552 0.0
C1035 C 0.58931 0.96376 0.63518 0.0
C1036 C 0.60796 0.95757 0.63262 0.0
C1037 C 0.55412 0.97524 0.63903 0.0
C1038 C 0.56148 0.97406 0.62069 0.0
C1039 C 0.57889 0.96817 0.61895 0.0
C1040 C 0.55203 0.98022 0.60339 0.0
C1041 C 0.53586 0.98223 0.64196 0.0
C1042 C 0.53395 0.97103 0.59571 0.0
C1043 C 0.52532 0.97711 0.57933 0.0
C1044 C 0.53479 0.99227 0.57026 0.0
C1045 C 0.55289 0.00137 0.57801 0.0
C1046 C 0.5614 0.99541 0.59441 0.0
H1047 H 0.53441 0.98661 0.65762 0.0
H1048 H 0.53461 0.99481 0.63387 0.0
H1049 H 0.52408 0.97029 0.63634 0.0
H1050 H 0.52662 0.95901 0.60222 0.0
H1051 H 0.51145 0.96969 0.57354 0.0
H1052 H 0.30861 0.34397 0.99816 0.0
H1053 H 0.30509 0.33011 0.96387 0.0
H1054 H 0.25535 0.35501 0.95442 0.0
H1055 H 0.25861 0.36886 0.98878 0.0
H1056 H 0.25208 0.31559 0.93754 0.0
H1057 H 0.3158 0.36213 0.91824 0.0
H1058 H 0.31938 0.34888 0.93852 0.0
H1059 H 0.30516 0.36751 0.94049 0.0
C1060 C 0.29687 0.3465 0.98884 0.0
C1061 C 0.28395 0.35766 0.99626 0.0
C1062 C 0.29495 0.33863 0.96921 0.0
C1063 C 0.28014 0.34179 0.95656 0.0
C1064 C 0.26695 0.35249 0.96395 0.0
H1065 H 0.2629 0.33095 0.83182 0.0
H1066 H 0.26993 0.34147 0.86676 0.0
C1067 C 0.26885 0.36041 0.9836 0.0
C1068 C 0.27842 0.33401 0.93559 0.0
H1069 H 0.29993 0.33765 0.89363 0.0
C1070 C 0.26255 0.32034 0.92793 0.0
C1071 C 0.29205 0.3404 0.9231 0.0
C1072 C 0.309 0.35566 0.9304 0.0
C1073 C 0.25994 0.31286 0.90806 0.0
C1074 C 0.27369 0.31907 0.89561 0.0
C1075 C 0.28955 0.33275 0.90328 0.0
C1076 C 0.27115 0.31261 0.87433 0.0
C1077 C 0.24223 0.29883 0.90043 0.0
C1078 C 0.27011 0.29296 0.86693 0.0
C1079 C 0.26612 0.28687 0.84689 0.0
C1080 C 0.2631 0.30037 0.83397 0.0
C1081 C 0.26503 0.32016 0.84138 0.0
C1082 C 0.26907 0.32622 0.86135 0.0
H1083 H 0.23147 0.29856 0.91103 0.0
H1084 H 0.23624 0.30273 0.8865 0.0
H1085 H 0.24549 0.28393 0.89755 0.0
H1086 H 0.27199 0.28228 0.8767 0.0
H1087 H 0.26475 0.27153 0.84164 0.0
H1088 H 0.89874 0.02623 0.33479 0.0
H1089 H 0.9143 0.01741 0.36403 0.0
H1090 H 0.94937 0.98702 0.32867 0.0
H1091 H 0.93376 0.99568 0.29917 0.0
H1092 H 0.92051 0.97831 0.37425 0.0
H1093 H 0.98524 0.0309 0.36693 0.0
H1094 H 0.96302 0.03233 0.35431 0.0
H1095 H 0.97546 0.01331 0.34628 0.0
C1096 C 0.90953 0.01741 0.33314 0.0
C1097 C 0.91504 0.0117 0.31465 0.0
C1098 C 0.9184 0.01238 0.34987 0.0
C1099 C 0.93301 0.00169 0.34843 0.0
C1100 C 0.93817 0.99538 0.33001 0.0
H1101 H 0.00816 0.00158 0.45336 0.0
H1102 H 0.99455 0.99203 0.41952 0.0
C1103 C 0.92924 0.00035 0.31322 0.0
C1104 C 0.94354 0.99848 0.36643 0.0
H1105 H 0.98345 0.01699 0.396 0.0
C1106 C 0.93442 0.98646 0.37891 0.0
C1107 C 0.96174 0.009 0.37229 0.0
C1108 C 0.97202 0.02221 0.35937 0.0
C1109 C 0.94269 0.98542 0.39759 0.0
C1110 C 0.9603 0.99709 0.40403 0.0
C1111 C 0.96993 0.0081 0.39104 0.0
C1112 C 0.9678 0.00025 0.42477 0.0
C1113 C 0.93229 0.97223 0.41043 0.0
C1114 C 0.95725 0.008 0.43889 0.0
C1115 C 0.96495 0.01347 0.4581 0.0
C1116 C 0.98344 0.01151 0.46358 0.0
C1117 C 0.99387 0.00329 0.44956 0.0
C1118 C 0.98612 0.99778 0.43026 0.0
H1119 H 0.92329 0.95946 0.40154 0.0
H1120 H 0.94204 0.96694 0.42083 0.0
H1121 H 0.92304 0.98037 0.41888 0.0
H1122 H 0.94328 0.01056 0.43489 0.0
H1123 H 0.95653 0.01975 0.46854 0.0
H1124 H 0.27703 0.65123 0.56574 0.0
H1125 H 0.27307 0.66996 0.5966 0.0
H1126 H 0.32716 0.70545 0.59556 0.0
H1127 H 0.33134 0.68681 0.56458 0.0
H1128 H 0.29807 0.67721 0.63326 0.0
H1129 H 0.28881 0.74425 0.6003 0.0
H1130 H 0.28591 0.72067 0.5859 0.0
H1131 H 0.30891 0.7335 0.59469 0.0
C1132 C 0.28816 0.66295 0.57207 0.0
C1133 C 0.30447 0.66758 0.5626 0.0
C1134 C 0.28586 0.67361 0.58972 0.0
C1135 C 0.29973 0.68918 0.59818 0.0
C1136 C 0.31622 0.6936 0.58909 0.0
H1137 H 0.2939 0.77253 0.70105 0.0
H1138 H 0.30421 0.75607 0.67165 0.0
C1139 C 0.3186 0.68286 0.57145 0.0
C1140 C 0.29664 0.70093 0.61637 0.0
H1141 H 0.28652 0.74504 0.63407 0.0
C1142 C 0.29566 0.69208 0.63351 0.0
C1143 C 0.29364 0.72034 0.61659 0.0
C1144 C 0.29424 0.73032 0.59841 0.0
C1145 C 0.2915 0.70209 0.65089 0.0
C1146 C 0.28777 0.72126 0.65094 0.0
C1147 C 0.28932 0.73032 0.63394 0.0
C1148 C 0.28126 0.73171 0.66821 0.0
C1149 C 0.29117 0.69203 0.66904 0.0
C1150 C 0.26466 0.72377 0.67558 0.0
C1151 C 0.25877 0.73307 0.69228 0.0
C1152 C 0.26928 0.75064 0.70187 0.0
C1153 C 0.28551 0.75902 0.694 0.0
C1154 C 0.29145 0.74961 0.67727 0.0
H1155 H 0.29978 0.68033 0.6682 0.0
H1156 H 0.29637 0.70252 0.6823 0.0
H1157 H 0.27658 0.68522 0.67064 0.0
H1158 H 0.25632 0.71024 0.66849 0.0
H1159 H 0.2461 0.72632 0.69784 0.0
H1160 H 0.61611 0.99422 0.83388 0.0
H1161 H 0.59887 0.00887 0.85871 0.0
H1162 H 0.56262 0.02566 0.81402 0.0
H1163 H 0.57997 0.01106 0.78886 0.0
H1164 H 0.59115 0.04971 0.86419 0.0
H1165 H 0.52789 0.99151 0.84821 0.0
H1166 H 0.55013 0.9874 0.84024 0.0
H1167 H 0.53762 0.00371 0.82877 0.0
C1168 C 0.60463 0.0012 0.82927 0.0
C1169 C 0.59945 0.00153 0.80941 0.0
C1170 C 0.5948 0.00956 0.84347 0.0
C1171 C 0.57953 0.01831 0.83813 0.0
C1172 C 0.57435 0.0189 0.81836 0.0
H1173 H 0.51563 0.03438 0.93998 0.0
H1174 H 0.523 0.04032 0.90682 0.0
C1175 C 0.58426 0.01054 0.80406 0.0
C1176 C 0.56881 0.02586 0.85361 0.0
H1177 H 0.53186 0.01046 0.87881 0.0
C1178 C 0.57786 0.04157 0.86713 0.0
C1179 C 0.55137 0.01537 0.8572 0.0
C1180 C 0.54107 0.99852 0.84292 0.0
C1181 C 0.57084 0.04579 0.88511 0.0
C1182 C 0.55459 0.03378 0.88965 0.0
C1183 C 0.54439 0.01955 0.87526 0.0
C1184 C 0.55055 0.03266 0.91007 0.0
C1185 C 0.58161 0.0621 0.89968 0.0
C1186 C 0.56354 0.02624 0.92265 0.0
C1187 C 0.55931 0.02257 0.94126 0.0
C1188 C 0.54199 0.02529 0.94772 0.0
C1189 C 0.52911 0.03221 0.93533 0.0
C1190 C 0.53329 0.03566 0.91648 0.0
H1191 H 0.58916 0.07379 0.89219 0.0
H1192 H 0.57221 0.06846 0.90955 0.0
H1193 H 0.59217 0.05634 0.90866 0.0
H1194 H 0.57677 0.02341 0.91779 0.0
H1195 H 0.56956 0.01736 0.95051 0.0
H1196 H 0.28655 0.3287 0.09005 0.0
H1197 H 0.27317 0.30823 0.11328 0.0
H1198 H 0.22088 0.32883 0.10471 0.0
H1199 H 0.2344 0.34993 0.08167 0.0
H1200 H 0.23218 0.33294 0.14189 0.0
H1201 H 0.23776 0.25827 0.11223 0.0
H1202 H 0.25993 0.27374 0.11224 0.0
H1203 H 0.23993 0.27798 0.09741 0.0
C1204 C 0.27206 0.32864 0.09273 0.0
C1205 C 0.26163 0.34115 0.08407 0.0
C1206 C 0.26434 0.31669 0.10592 0.0
C1207 C 0.2459 0.3167 0.11058 0.0
C1208 C 0.2351 0.32846 0.10125 0.0
H1209 H 0.21921 0.24895 0.20877 0.0
H1210 H 0.21468 0.25941 0.17626 0.0
C1211 C 0.24286 0.34053 0.08807 0.0
C1212 C 0.2391 0.30666 0.12716 0.0
H1213 H 0.2403 0.26502 0.14806 0.0
C1214 C 0.23346 0.31791 0.14299 0.0
C1215 C 0.24034 0.28694 0.1286 0.0
C1216 C 0.24462 0.27352 0.11158 0.0
C1217 C 0.23074 0.31054 0.16075 0.0
C1218 C 0.23415 0.29158 0.16288 0.0
C1219 C 0.23805 0.2797 0.14655 0.0
C1220 C 0.23626 0.28502 0.1824 0.0
C1221 C 0.22501 0.32345 0.17735 0.0
C1222 C 0.25012 0.29568 0.19639 0.0
C1223 C 0.25274 0.2898 0.21476 0.0
C1224 C 0.24165 0.27297 0.21964 0.0
C1225 C 0.22792 0.26204 0.20551 0.0
C1226 C 0.2253 0.26799 0.18697 0.0
H1227 H 0.21669 0.33396 0.17182 0.0
H1228 H 0.21666 0.31478 0.18715 0.0
H1229 H 0.23773 0.33198 0.18602 0.0
H1230 H 0.25911 0.30855 0.19302 0.0
H1231 H 0.26362 0.29847 0.2251 0.0
H1232 H 0.19901 0.9102 0.03452 0.0
H1233 H 0.17186 0.92623 0.03884 0.0
H1234 H 0.17756 0.94771 0.9833 0.0
H1235 H 0.20458 0.9317 0.97879 0.0
H1236 H 0.17203 0.96703 0.03968 0.0
H1237 H 0.12172 0.92371 0.98056 0.0
H1238 H 0.14235 0.91529 0.98992 0.0
H1239 H 0.14416 0.93281 0.97283 0.0
C1240 C 0.19431 0.91806 0.02307 0.0
C1241 C 0.20396 0.91964 0.00628 0.0
C1242 C 0.17885 0.92729 0.02562 0.0
C1243 C 0.17264 0.93804 0.01134 0.0
C1244 C 0.18196 0.93925 0.99438 0.0
H1245 H 0.08811 0.00819 0.99381 0.0
H1246 H 0.11563 0.99249 0.99311 0.0
C1247 C 0.19744 0.93011 0.99185 0.0
C1248 C 0.15699 0.9488 0.01451 0.0
H1249 H 0.11375 0.95328 0.99497 0.0
C1250 C 0.1592 0.96395 0.03003 0.0
C1251 C 0.14031 0.94474 0.00187 0.0
C1252 C 0.13685 0.92814 0.98546 0.0
C1253 C 0.14539 0.97558 0.03287 0.0
C1254 C 0.12884 0.97171 0.02002 0.0
C1255 C 0.12652 0.95632 0.00473 0.0
C1256 C 0.11374 0.9835 0.02186 0.0
C1257 C 0.1489 0.99226 0.04919 0.0
C1258 C 0.10382 0.98414 0.0385 0.0
C1259 C 0.08812 0.99329 0.03902 0.0
C1260 C 0.08196 0.00172 0.02279 0.0
C1261 C 0.09245 0.00181 0.00654 0.0
C1262 C 0.10816 0.99278 0.00608 0.0
H1263 H 0.16396 0.99628 0.05451 0.0
H1264 H 0.14398 0.0053 0.04441 0.0
H1265 H 0.14106 0.98794 0.0616 0.0
H1266 H 0.10767 0.97679 0.05072 0.0
H1267 H 0.08022 0.99278 0.05167 0.0
H1268 H 0.71592 0.6169 0.00645 0.0
H1269 H 0.68393 0.60038 0.00841 0.0
H1270 H 0.69003 0.5569 0.96125 0.0
H1271 H 0.72199 0.5734 0.95901 0.0
H1272 H 0.65494 0.57039 0.95898 0.0
H1273 H 0.67324 0.54818 0.03137 0.0
H1274 H 0.67949 0.57383 0.03012 0.0
H1275 H 0.6907 0.55694 0.01574 0.0
C1276 C 0.71042 0.60393 0.99637 0.0
C1277 C 0.72157 0.59635 0.98271 0.0
C1278 C 0.69218 0.59446 0.99758 0.0
C1279 C 0.68481 0.57724 0.98522 0.0
C1280 C 0.69556 0.57011 0.971 0.0
H1281 H 0.57575 0.50018 0.98032 0.0
H1282 H 0.60755 0.51388 0.97355 0.0
C1283 C 0.71381 0.57956 0.96977 0.0
C1284 C 0.66609 0.56636 0.98759 0.0
H1285 H 0.64092 0.54315 0.02039 0.0
C1286 C 0.65186 0.56427 0.97232 0.0
C1287 C 0.66224 0.55827 0.00495 0.0
C1288 C 0.67725 0.55922 0.02143 0.0
C1289 C 0.6336 0.55497 0.97431 0.0
C1290 C 0.62966 0.54738 0.9919 0.0
C1291 C 0.64402 0.54903 0.00694 0.0
C1292 C 0.61049 0.53887 0.99562 0.0
C1293 C 0.61851 0.55397 0.95792 0.0
C1294 C 0.60184 0.5482 0.01047 0.0
C1295 C 0.58385 0.54042 0.01442 0.0
C1296 C 0.57412 0.52306 0.00363 0.0
C1297 C 0.58287 0.51359 0.98884 0.0
C1298 C 0.60096 0.52144 0.98488 0.0
H1299 H 0.62312 0.56349 0.94679 0.0
H1300 H 0.61471 0.53877 0.95063 0.0
H1301 H 0.60574 0.55829 0.96367 0.0
H1302 H 0.60901 0.56163 0.01896 0.0
H1303 H 0.57756 0.54812 0.02592 0.0
H1304 H 0.66381 0.46454 0.26221 0.0
H1305 H 0.68511 0.44286 0.2516 0.0
H1306 H 0.7231 0.46554 0.30278 0.0
H1307 H 0.70142 0.48672 0.31398 0.0
H1308 H 0.72153 0.44447 0.24371 0.0
H1309 H 0.70833 0.40935 0.31077 0.0
H1310 H 0.69565 0.42776 0.30355 0.0
H1311 H 0.7192 0.43449 0.31493 0.0
C1312 C 0.67684 0.46517 0.27108 0.0
C1313 C 0.68074 0.47699 0.28917 0.0
C1314 C 0.68905 0.45282 0.26494 0.0
C1315 C 0.70546 0.45224 0.27665 0.0
C1316 C 0.71026 0.46538 0.2938 0.0
H1317 H 0.77006 0.35865 0.24294 0.0
H1318 H 0.76368 0.39202 0.24978 0.0
C1319 C 0.69788 0.47749 0.30015 0.0
C1320 C 0.71602 0.43623 0.27204 0.0
H1321 H 0.72538 0.39438 0.28822 0.0
C1322 C 0.72268 0.43365 0.25354 0.0
C1323 C 0.71734 0.42206 0.28487 0.0
C1324 C 0.70964 0.42338 0.30457 0.0
C1325 C 0.7298 0.41681 0.24719 0.0
C1326 C 0.73045 0.40243 0.2598 0.0
C1327 C 0.72484 0.40554 0.27865 0.0
C1328 C 0.73433 0.38287 0.2531 0.0
C1329 C 0.73552 0.41391 0.22674 0.0
C1330 C 0.71991 0.36685 0.25245 0.0
C1331 C 0.72352 0.348 0.24881 0.0
C1332 C 0.74164 0.34475 0.24565 0.0
C1333 C 0.75595 0.36079 0.24527 0.0
C1334 C 0.75233 0.3798 0.24913 0.0
H1335 H 0.73258 0.42571 0.21818 0.0
H1336 H 0.75073 0.41354 0.22734 0.0
H1337 H 0.72804 0.39973 0.21899 0.0
H1338 H 0.70591 0.36895 0.25541 0.0
H1339 H 0.71217 0.33593 0.24899 0.0
H1340 H 0.82283 0.39116 0.50925 0.0
H1341 H 0.8538 0.4086 0.50518 0.0
H1342 H 0.82921 0.45414 0.48215 0.0
H1343 H 0.79792 0.43664 0.48603 0.0
H1344 H 0.87064 0.42551 0.47087 0.0
H1345 H 0.8628 0.47919 0.53428 0.0
H1346 H 0.8479 0.45563 0.52946 0.0
H1347 H 0.84493 0.47404 0.51412 0.0
C1348 C 0.82388 0.40463 0.5029 0.0
C1349 C 0.80789 0.41256 0.49809 0.0
C1350 C 0.84163 0.41458 0.50056 0.0
C1351 C 0.84372 0.43267 0.49352 0.0
C1352 C 0.82781 0.4402 0.4877 0.0
H1353 H 0.95271 0.50907 0.52066 0.0
H1354 H 0.92045 0.49824 0.50616 0.0
C1355 C 0.80998 0.43017 0.48992 0.0
C1356 C 0.86265 0.4443 0.49436 0.0
H1357 H 0.89266 0.48003 0.52379 0.0
C1358 C 0.87544 0.43771 0.48215 0.0
C1359 C 0.86874 0.46027 0.50901 0.0
C1360 C 0.85548 0.46777 0.52258 0.0
C1361 C 0.89445 0.4461 0.48485 0.0
C1362 C 0.90081 0.46107 0.5005 0.0
C1363 C 0.88777 0.4685 0.51185 0.0
C1364 C 0.92093 0.46758 0.50692 0.0
C1365 C 0.90759 0.43854 0.47121 0.0
C1366 C 0.93187 0.45395 0.51219 0.0
C1367 C 0.95025 0.46006 0.52042 0.0
C1368 C 0.95798 0.47997 0.52383 0.0
C1369 C 0.94712 0.49362 0.51827 0.0
C1370 C 0.92873 0.48747 0.50993 0.0
H1371 H 0.90025 0.4331 0.4565 0.0
H1372 H 0.91973 0.44995 0.46972 0.0
H1373 H 0.91285 0.42613 0.47698 0.0
H1374 H 0.926 0.43859 0.51059 0.0
H1375 H 0.9582 0.44918 0.52458 0.0
H1376 H 0.34083 0.06359 0.25272 0.0
H1377 H 0.31692 0.08219 0.24278 0.0
H1378 H 0.30113 0.08843 0.30163 0.0
H1379 H 0.32481 0.06972 0.31173 0.0
H1380 H 0.27012 0.08067 0.27123 0.0
H1381 H 0.32614 0.14176 0.26025 0.0
H1382 H 0.32701 0.11837 0.24714 0.0
H1383 H 0.33084 0.12197 0.27328 0.0
C1384 C 0.33214 0.0687 0.26352 0.0
C1385 C 0.33495 0.06537 0.2831 0.0
C1386 C 0.3185 0.07935 0.2578 0.0
C1387 C 0.30746 0.08689 0.27154 0.0
C1388 C 0.30955 0.08275 0.29082 0.0
H1389 H 0.23658 0.16988 0.29134 0.0
H1390 H 0.25003 0.14022 0.28906 0.0
C1391 C 0.32316 0.07212 0.29657 0.0
C1392 C 0.29481 0.10038 0.26634 0.0
H1393 H 0.29522 0.14669 0.25569 0.0
C1394 C 0.27553 0.09505 0.26761 0.0
C1395 C 0.30194 0.11908 0.26159 0.0
C1396 C 0.32261 0.12579 0.26059 0.0
C1397 C 0.2632 0.1081 0.26457 0.0
C1398 C 0.27044 0.12708 0.26058 0.0
C1399 C 0.28964 0.13211 0.25865 0.0
C1400 C 0.25893 0.14265 0.26015 0.0
C1401 C 0.24258 0.10145 0.26576 0.0
C1402 C 0.25918 0.15382 0.24456 0.0
C1403 C 0.25172 0.17099 0.24593 0.0
C1404 C 0.2439 0.17734 0.26298 0.0
C1405 C 0.24245 0.1654 0.27798 0.0
C1406 C 0.25003 0.14831 0.27664 0.0
H1407 H 0.23861 0.08543 0.26184 0.0
H1408 H 0.23922 0.10505 0.28097 0.0
H1409 H 0.23397 0.10873 0.25598 0.0
H1410 H 0.26601 0.14976 0.23171 0.0
H1411 H 0.253 0.17981 0.23408 0.0
H1412 H 0.34194 0.12221 0.5057 0.0
H1413 H 0.36795 0.10621 0.5152 0.0
H1414 H 0.33021 0.06374 0.54018 0.0
H1415 H 0.30399 0.07951 0.53046 0.0
H1416 H 0.38236 0.09744 0.55122 0.0
H1417 H 0.35389 0.03025 0.50007 0.0
H1418 H 0.34483 0.0526 0.49913 0.0
H1419 H 0.33882 0.0376 0.51787 0.0
C1420 C 0.33917 0.10962 0.51343 0.0
C1421 C 0.32087 0.10204 0.51718 0.0
C1422 C 0.35406 0.10048 0.51884 0.0
C1423 C 0.35095 0.0836 0.52808 0.0
C1424 C 0.33285 0.07653 0.53271 0.0
H1425 H 0.43815 0.01075 0.54414 0.0
H1426 H 0.4088 0.02324 0.54845 0.0
C1427 C 0.31791 0.08563 0.52724 0.0
C1428 C 0.36662 0.07307 0.53196 0.0
H1429 H 0.38338 0.03171 0.51681 0.0
C1430 C 0.38248 0.08296 0.54392 0.0
C1431 C 0.36671 0.05411 0.52249 0.0
C1432 C 0.35024 0.043 0.50905 0.0
C1433 C 0.3987 0.07472 0.54604 0.0
C1434 C 0.39911 0.05624 0.53577 0.0
C1435 C 0.38294 0.04587 0.5247 0.0
C1436 C 0.41686 0.04875 0.5341 0.0
C1437 C 0.41549 0.08612 0.55879 0.0
C1438 C 0.43085 0.05881 0.52437 0.0
C1439 C 0.44736 0.05168 0.52173 0.0
C1440 C 0.4503 0.03431 0.52878 0.0
C1441 C 0.43628 0.02419 0.53859 0.0
C1442 C 0.41957 0.0313 0.54108 0.0
H1443 H 0.41137 0.09687 0.56996 0.0
H1444 H 0.4233 0.07628 0.56625 0.0
H1445 H 0.42504 0.09423 0.54958 0.0
H1446 H 0.42887 0.0721 0.51854 0.0
H1447 H 0.45784 0.05988 0.51413 0.0
H1448 H 0.65268 0.56131 0.28132 0.0
H1449 H 0.66917 0.59373 0.27762 0.0
H1450 H 0.69342 0.6007 0.33718 0.0
H1451 H 0.67697 0.56824 0.34113 0.0
H1452 H 0.67779 0.6337 0.3249 0.0
H1453 H 0.72708 0.6071 0.27494 0.0
H1454 H 0.70278 0.59722 0.26816 0.0
H1455 H 0.71406 0.59168 0.29026 0.0
C1456 C 0.66144 0.56972 0.2937 0.0
C1457 C 0.66357 0.56209 0.3115 0.0
C1458 C 0.67092 0.58821 0.2915 0.0
C1459 C 0.68268 0.59942 0.30705 0.0
C1460 C 0.68447 0.59215 0.32499 0.0
H1461 H 0.76281 0.70427 0.29731 0.0
H1462 H 0.74797 0.67254 0.30529 0.0
C1463 C 0.67507 0.5736 0.32719 0.0
C1464 C 0.69313 0.61872 0.30448 0.0
H1465 H 0.72673 0.64109 0.27869 0.0
C1466 C 0.68857 0.63536 0.3149 0.0
C1467 C 0.70734 0.62074 0.29161 0.0
C1468 C 0.71328 0.60325 0.2807 0.0
C1469 C 0.69748 0.65407 0.3123 0.0
C1470 C 0.71116 0.6561 0.29884 0.0
C1471 C 0.71613 0.63945 0.28889 0.0
C1472 C 0.72007 0.67541 0.29442 0.0
C1473 C 0.69221 0.67153 0.32396 0.0
C1474 C 0.70929 0.68733 0.28545 0.0
C1475 C 0.71769 0.70536 0.2808 0.0
C1476 C 0.73706 0.7118 0.28502 0.0
C1477 C 0.74785 0.69976 0.29394 0.0
C1478 C 0.73942 0.68165 0.2985 0.0
H1479 H 0.68515 0.6675 0.33697 0.0
H1480 H 0.70474 0.68285 0.32882 0.0
H1481 H 0.68243 0.67797 0.31466 0.0
H1482 H 0.69438 0.6826 0.28188 0.0
H1483 H 0.70898 0.71427 0.27393 0.0
H1484 H 0.84249 0.48131 0.76519 0.0
H1485 H 0.82428 0.44871 0.76384 0.0
H1486 H 0.85052 0.44323 0.82039 0.0
H1487 H 0.86825 0.4764 0.82215 0.0
H1488 H 0.83906 0.41725 0.76234 0.0
H1489 H 0.79727 0.41975 0.82605 0.0
H1490 H 0.80899 0.44148 0.81747 0.0
H1491 H 0.82186 0.42792 0.83248 0.0
C1492 C 0.8441 0.4733 0.77752 0.0
C1493 C 0.85682 0.48129 0.79375 0.0
C1494 C 0.83369 0.45468 0.77674 0.0
C1495 C 0.83595 0.44351 0.79203 0.0
C1496 C 0.84821 0.4517 0.8086 0.0
H1497 H 0.81437 0.31757 0.76935 0.0
H1498 H 0.82844 0.35174 0.77853 0.0
C1499 C 0.85841 0.47059 0.80956 0.0
C1500 C 0.82696 0.42271 0.78946 0.0
H1501 H 0.79847 0.38819 0.80967 0.0
C1502 C 0.8301 0.41096 0.77266 0.0
C1503 C 0.81516 0.41452 0.80285 0.0
C1504 C 0.81045 0.42661 0.82062 0.0
C1505 C 0.8218 0.39132 0.76882 0.0
C1506 C 0.81058 0.38291 0.78255 0.0
C1507 C 0.80728 0.39463 0.79931 0.0
C1508 C 0.80202 0.36202 0.77944 0.0
C1509 C 0.82482 0.37991 0.74983 0.0
C1510 C 0.7825 0.35634 0.77796 0.0
C1511 C 0.77441 0.33672 0.77303 0.0
C1512 C 0.78575 0.32257 0.76936 0.0
C1513 C 0.80528 0.32821 0.77173 0.0
C1514 C 0.81334 0.34773 0.77693 0.0
H1515 H 0.82896 0.38966 0.73873 0.0
H1516 H 0.83625 0.37155 0.75242 0.0
H1517 H 0.81199 0.3695 0.74375 0.0
H1518 H 0.77353 0.36714 0.77996 0.0
H1519 H 0.75931 0.33274 0.7714 0.0
H1520 H 0.96959 0.79618 0.08439 0.0
H1521 H 0.97397 0.82211 0.06355 0.0
H1522 H 0.02785 0.8453 0.09486 0.0
H1523 H 0.02381 0.81929 0.11545 0.0
H1524 H 0.97685 0.85981 0.07674 0.0
H1525 H 0.03978 0.84988 0.03963 0.0
H1526 H 0.02703 0.83093 0.05152 0.0
H1527 H 0.04414 0.84993 0.06544 0.0
C1528 C 0.98256 0.80655 0.08659 0.0
C1529 C 0.99631 0.80569 0.1017 0.0
C1530 C 0.98503 0.82135 0.07463 0.0
C1531 C 0.00132 0.83552 0.07747 0.0
C1532 C 0.01537 0.83426 0.09204 0.0
H1533 H 0.04121 0.95165 0.07014 0.0
H1534 H 0.03419 0.91715 0.07364 0.0
C1535 C 0.01296 0.81943 0.10394 0.0
C1536 C 0.00273 0.85294 0.06703 0.0
H1537 H 0.03303 0.88287 0.04373 0.0
C1538 C 0.98888 0.86462 0.06905 0.0
C1539 C 0.01838 0.85915 0.05693 0.0
C1540 C 0.03306 0.84668 0.05307 0.0
C1541 C 0.99098 0.883 0.06256 0.0
C1542 C 0.00728 0.88976 0.05372 0.0
C1543 C 0.02057 0.87763 0.0506 0.0
C1544 C 0.01196 0.91029 0.05019 0.0
C1545 C 0.97641 0.89563 0.06637 0.0
C1546 C 0.00186 0.91778 0.03565 0.0
C1547 C 0.00586 0.93763 0.03358 0.0
C1548 C 0.01992 0.95017 0.0461 0.0
C1549 C 0.03019 0.94243 0.06035 0.0
C1550 C 0.02629 0.92269 0.06232 0.0
H1551 H 0.96537 0.88884 0.07495 0.0
H1552 H 0.98308 0.90999 0.07438 0.0
H1553 H 0.96966 0.89827 0.05226 0.0
H1554 H 0.99081 0.90834 0.0261 0.0
H1555 H 0.99776 0.94318 0.02242 0.0
H1556 H 0.95388 0.24887 0.82527 0.0
H1557 H 0.92459 0.25336 0.80818 0.0
H1558 H 0.8934 0.22234 0.84903 0.0
H1559 H 0.92249 0.21717 0.86572 0.0
H1560 H 0.87846 0.21111 0.81136 0.0
H1561 H 0.89213 0.29182 0.8279 0.0
H1562 H 0.9097 0.28177 0.81523 0.0
H1563 H 0.90607 0.27667 0.83965 0.0
C1564 C 0.94078 0.24301 0.83062 0.0
C1565 C 0.94052 0.23292 0.84705 0.0
C1566 C 0.92407 0.24568 0.82089 0.0
C1567 C 0.90685 0.23849 0.82756 0.0
C1568 C 0.90656 0.2281 0.84371 0.0
H1569 H 0.8 0.27132 0.81535 0.0
H1570 H 0.83146 0.26579 0.82433 0.0
C1571 C 0.92322 0.22529 0.85334 0.0
C1572 C 0.88905 0.24184 0.81793 0.0
H1573 H 0.86419 0.27752 0.80868 0.0
C1574 C 0.87534 0.22562 0.81064 0.0
C1575 C 0.88505 0.26081 0.81716 0.0
C1576 C 0.89892 0.27878 0.82554 0.0
C1577 C 0.85753 0.22783 0.80303 0.0
C1578 C 0.85352 0.2468 0.80232 0.0
C1579 C 0.86739 0.26301 0.80913 0.0
C1580 C 0.83453 0.2502 0.79629 0.0
C1581 C 0.84293 0.20988 0.79666 0.0
C1582 C 0.82585 0.2434 0.77745 0.0
C1583 C 0.80769 0.24638 0.77228 0.0
C1584 C 0.79806 0.25642 0.78584 0.0
C1585 C 0.80699 0.26351 0.80455 0.0
C1586 C 0.82501 0.2604 0.80972 0.0
H1587 H 0.84704 0.19672 0.80205 0.0
H1588 H 0.82925 0.21184 0.80197 0.0
H1589 H 0.84107 0.20725 0.78048 0.0
H1590 H 0.83312 0.23582 0.76675 0.0
H1591 H 0.80125 0.2409 0.7577 0.0
H1592 H 0.47319 0.20455 0.60534 0.0
H1593 H 0.48224 0.17407 0.59245 0.0
H1594 H 0.54038 0.19903 0.60801 0.0
H1595 H 0.53133 0.22949 0.62174 0.0
H1596 H 0.50255 0.16494 0.56382 0.0
H1597 H 0.53691 0.15037 0.63365 0.0
H1598 H 0.52338 0.1696 0.63244 0.0
H1599 H 0.54688 0.1728 0.62539 0.0
C1600 C 0.48792 0.20361 0.60604 0.0
C1601 C 0.50153 0.21942 0.61472 0.0
C1602 C 0.49309 0.18615 0.59862 0.0
C1603 C 0.51198 0.18411 0.59951 0.0
C1604 C 0.52569 0.20006 0.60762 0.0
H1605 H 0.53056 0.07314 0.53612 0.0
H1606 H 0.5349 0.10833 0.54637 0.0
C1607 C 0.5205 0.2175 0.61536 0.0
C1608 C 0.51697 0.1651 0.5921 0.0
H1609 H 0.53624 0.12712 0.60631 0.0
C1610 C 0.51007 0.15672 0.57305 0.0
C1611 C 0.52674 0.15437 0.60419 0.0
C1612 C 0.53378 0.16212 0.6251 0.0
C1613 C 0.51179 0.13759 0.56606 0.0
C1614 C 0.52133 0.12676 0.57824 0.0
C1615 C 0.52905 0.13549 0.59695 0.0
C1616 C 0.52126 0.10564 0.57293 0.0
C1617 C 0.50233 0.12881 0.54619 0.0
C1618 C 0.51317 0.09244 0.58497 0.0
C1619 C 0.51105 0.07244 0.57939 0.0
C1620 C 0.51683 0.06514 0.56152 0.0
C1621 C 0.52581 0.07832 0.54989 0.0
C1622 C 0.52815 0.09843 0.55564 0.0
H1623 H 0.49225 0.13763 0.54059 0.0
H1624 H 0.51306 0.12804 0.53568 0.0
H1625 H 0.49471 0.11382 0.54662 0.0
H1626 H 0.5078 0.09762 0.59841 0.0
H1627 H 0.50415 0.06274 0.58876 0.0
H1628 H 0.5498 0.76373 0.37878 0.0
H1629 H 0.58032 0.77517 0.36739 0.0
H1630 H 0.57503 0.72167 0.32849 0.0
H1631 H 0.54453 0.71035 0.33942 0.0
H1632 H 0.61226 0.76027 0.36878 0.0
H1633 H 0.58756 0.76174 0.29177 0.0
H1634 H 0.57179 0.75955 0.31066 0.0
H1635 H 0.57978 0.73839 0.29934 0.0
C1636 C 0.55516 0.75442 0.3678 0.0
C1637 C 0.54468 0.73619 0.3599 0.0
C1638 C 0.57255 0.761 0.36126 0.0
C1639 C 0.57971 0.74949 0.34671 0.0
C1640 C 0.56951 0.73107 0.33926 0.0
H1641 H 0.68883 0.73839 0.32129 0.0
H1642 H 0.65842 0.73881 0.33348 0.0
C1643 C 0.55214 0.72454 0.34568 0.0
C1644 C 0.59819 0.75619 0.33978 0.0
H1645 H 0.62033 0.76011 0.29825 0.0
C1646 C 0.614 0.76057 0.35339 0.0
C1647 C 0.60046 0.75708 0.31975 0.0
C1648 C 0.58395 0.75415 0.30458 0.0
C1649 C 0.63208 0.76447 0.34737 0.0
C1650 C 0.6344 0.76353 0.3272 0.0
C1651 C 0.61856 0.76051 0.31369 0.0
C1652 C 0.65301 0.76381 0.31978 0.0
C1653 C 0.64853 0.76922 0.3627 0.0
C1654 C 0.65982 0.77729 0.30734 0.0
C1655 C 0.67726 0.77695 0.30007 0.0
C1656 C 0.68806 0.76307 0.3051 0.0
C1657 C 0.681 0.74944 0.3173 0.0
C1658 C 0.66364 0.74974 0.32444 0.0
H1659 H 0.64454 0.77604 0.37668 0.0
H1660 H 0.65346 0.75557 0.36554 0.0
H1661 H 0.6603 0.7792 0.35789 0.0
H1662 H 0.65171 0.78811 0.30336 0.0
H1663 H 0.68232 0.7876 0.29068 0.0
H1664 H 0.9787 0.22116 0.45222 0.0
H1665 H 0.98589 0.19489 0.47011 0.0
H1666 H 0.03736 0.19536 0.44293 0.0
H1667 H 0.03024 0.22157 0.42474 0.0
H1668 H 0.0141 0.15899 0.43861 0.0
H1669 H 0.02369 0.192 0.51613 0.0
H1670 H 0.00266 0.19562 0.50287 0.0
H1671 H 0.02502 0.20643 0.49611 0.0
C1672 C 0.99173 0.21594 0.45025 0.0
C1673 C 0.00384 0.22342 0.43691 0.0
C1674 C 0.99587 0.201 0.46064 0.0
C1675 C 0.01224 0.19332 0.458 0.0
C1676 C 0.0247 0.20119 0.44525 0.0
H1677 H 0.05153 0.09004 0.48882 0.0
H1678 H 0.04873 0.12174 0.47884 0.0
C1679 C 0.0206 0.21618 0.43487 0.0
C1680 C 0.0153 0.17572 0.46684 0.0
H1681 H 0.02038 0.1574 0.51019 0.0
C1682 C 0.01566 0.15869 0.45426 0.0
C1683 C 0.01706 0.17533 0.48726 0.0
C1684 C 0.01726 0.19336 0.50141 0.0
C1685 C 0.01747 0.14119 0.46152 0.0
C1686 C 0.01935 0.14079 0.48193 0.0
C1687 C 0.01895 0.15779 0.49456 0.0
C1688 C 0.02198 0.1228 0.49023 0.0
C1689 C 0.01692 0.12313 0.44723 0.0
C1690 C 0.00825 0.11332 0.50076 0.0
C1691 C 0.00986 0.09517 0.50664 0.0
C1692 C 0.02522 0.08629 0.50202 0.0
C1693 C 0.03938 0.09636 0.49237 0.0
C1694 C 0.03782 0.11447 0.48662 0.0
H1695 H 0.01068 0.12472 0.4325 0.0
H1696 H 0.03139 0.12044 0.44584 0.0
H1697 H 0.00876 0.11018 0.45239 0.0
H1698 H 0.99597 0.11961 0.50376 0.0
H1699 H 0.99875 0.08778 0.5141 0.0
H1700 H 0.55842 0.27072 0.15304 0.0
H1701 H 0.5918 0.27038 0.15961 0.0
H1702 H 0.58045 0.23786 0.20789 0.0
H1703 H 0.54696 0.23812 0.20147 0.0
H1704 H 0.60904 0.27185 0.21633 0.0
H1705 H 0.62043 0.22413 0.15035 0.0
H1706 H 0.60828 0.24366 0.14553 0.0
H1707 H 0.59753 0.22475 0.1586 0.0
C1708 C 0.56298 0.26337 0.16498 0.0
C1709 C 0.55002 0.25444 0.17674 0.0
C1710 C 0.58205 0.26309 0.16863 0.0
C1711 C 0.58853 0.25387 0.18406 0.0
C1712 C 0.57567 0.24492 0.19581 0.0
H1713 H 0.70343 0.25706 0.23387 0.0
H1714 H 0.66944 0.24854 0.22676 0.0
C1715 C 0.55656 0.24509 0.19211 0.0
C1716 C 0.60885 0.2546 0.18857 0.0
H1717 H 0.6477 0.24193 0.16942 0.0
C1718 C 0.6175 0.26512 0.20621 0.0
C1719 C 0.61978 0.24585 0.17528 0.0
C1720 C 0.61105 0.23381 0.15644 0.0
C1721 C 0.63695 0.26778 0.21061 0.0
C1722 C 0.64795 0.25928 0.19717 0.0
C1723 C 0.63923 0.24839 0.1797 0.0
C1724 C 0.66863 0.26252 0.2005 0.0
C1725 C 0.64561 0.28035 0.22921 0.0
C1726 C 0.67951 0.27237 0.18759 0.0
C1727 C 0.69892 0.27709 0.19149 0.0
C1728 C 0.70784 0.27202 0.20839 0.0
C1729 C 0.69698 0.26131 0.22081 0.0
C1730 C 0.67755 0.25654 0.21685 0.0
H1731 H 0.63581 0.28935 0.2356 0.0
H1732 H 0.64942 0.2709 0.24011 0.0
H1733 H 0.65853 0.29018 0.22659 0.0
H1734 H 0.6729 0.27702 0.17483 0.0
H1735 H 0.70686 0.28528 0.18158 0.0
H1736 H 0.53266 0.80862 0.91748 0.0
H1737 H 0.54271 0.84036 0.93735 0.0
H1738 H 0.48578 0.84137 0.95026 0.0
H1739 H 0.47576 0.80967 0.93107 0.0
H1740 H 0.53362 0.87478 0.93318 0.0
H1741 H 0.51214 0.85498 0.00395 0.0
H1742 H 0.51324 0.83687 0.98358 0.0
H1743 H 0.49277 0.8481 0.98563 0.0
C1744 C 0.52232 0.81556 0.92468 0.0
C1745 C 0.50343 0.80651 0.92281 0.0
C1746 C 0.52809 0.83367 0.93606 0.0
C1747 C 0.51508 0.84303 0.94573 0.0
C1748 C 0.4962 0.83415 0.94354 0.0
H1749 H 0.50821 0.96128 0.97304 0.0
H1750 H 0.51027 0.92849 0.95891 0.0
C1751 C 0.49046 0.81605 0.93238 0.0
C1752 C 0.5208 0.8626 0.95715 0.0
H1753 H 0.51429 0.88915 -0.00028 0.0
C1754 C 0.52972 0.87786 0.94788 0.0
C1755 C 0.51621 0.86662 0.97654 0.0
C1756 C 0.50827 0.8507 0.98806 0.0
C1757 C 0.53292 0.89719 0.95692 0.0
C1758 C 0.52651 0.90142 0.97548 0.0
C1759 C 0.51887 0.88601 0.98533 0.0
C1760 C 0.52609 0.92167 0.98414 0.0
C1761 C 0.54291 0.91287 0.94633 0.0
C1762 C 0.53369 0.9286 0.00338 0.0
C1763 C 0.5322 0.94737 0.01172 0.0
C1764 C 0.52309 0.95949 0.00093 0.0
C1765 C 0.5155 0.95244 0.98171 0.0
C1766 C 0.51683 0.93371 0.97351 0.0
H1767 H 0.55283 0.90704 0.93675 0.0
H1768 H 0.5325 0.91835 0.93687 0.0
H1769 H 0.55076 0.92528 0.95666 0.0
H1770 H 0.54071 0.91948 0.01195 0.0
H1771 H 0.53817 0.95236 0.02656 0.0
H1772 H 0.95862 0.75296 0.70971 0.0
H1773 H 0.92954 0.74586 0.72532 0.0
H1774 H 0.89995 0.76873 0.67947 0.0
H1775 H 0.92888 0.77631 0.6641 0.0
H1776 H 0.89259 0.78301 0.71644 0.0
H1777 H 0.88483 0.70225 0.70755 0.0
H1778 H 0.90673 0.71526 0.7196 0.0
H1779 H 0.90076 0.71727 0.69439 0.0
C1780 C 0.94588 0.75635 0.70289 0.0
C1781 C 0.94603 0.76505 0.68556 0.0
C1782 C 0.92928 0.7522 0.71179 0.0
C1783 C 0.91257 0.75657 0.70342 0.0
C1784 C 0.9127 0.76519 0.68612 0.0
H1785 H 0.79739 0.71831 0.71405 0.0
H1786 H 0.82965 0.72456 0.7059 0.0
C1787 C 0.92924 0.7694 0.67728 0.0
C1788 C 0.89492 0.75266 0.71276 0.0
H1789 H 0.86205 0.71608 0.72409 0.0
C1790 C 0.88595 0.7684 0.71827 0.0
C1791 C 0.88631 0.73357 0.715 0.0
C1792 C 0.89502 0.71606 0.7087 0.0
C1793 C 0.86833 0.76552 0.72549 0.0
C1794 C 0.85965 0.74641 0.72761 0.0
C1795 C 0.86884 0.73072 0.72257 0.0
C1796 C 0.84034 0.74221 0.7333 0.0
C1797 C 0.8588 0.78285 0.72996 0.0
C1798 C 0.83568 0.74989 0.75155 0.0
C1799 C 0.81714 0.74645 0.75623 0.0
C1800 C 0.80304 0.73514 0.74279 0.0
C1801 C 0.80789 0.72713 0.72473 0.0
C1802 C 0.82634 0.73063 0.72005 0.0
H1803 H 0.86566 0.79585 0.72377 0.0
H1804 H 0.84387 0.77943 0.72409 0.0
H1805 H 0.85939 0.78664 0.746 0.0
H1806 H 0.84635 0.7586 0.7621 0.0
H1807 H 0.81386 0.75271 0.77031 0.0
H1808 H 0.07836 0.02331 0.82688 0.0
H1809 H 0.06018 0.02487 0.8552 0.0
H1810 H 0.09632 0.99208 0.88451 0.0
H1811 H 0.11482 0.99089 0.85652 0.0
H1812 H 0.0404 0.99496 0.87065 0.0
H1813 H 0.09525 0.03689 0.92605 0.0
H1814 H 0.09803 0.03488 0.90028 0.0
H1815 H 0.10214 0.01551 0.9141 0.0
C1816 C 0.08261 0.0167 0.83949 0.0
C1817 C 0.0981 0.00709 0.83953 0.0
C1818 C 0.07216 0.01753 0.85561 0.0
C1819 C 0.07701 0.00877 0.87204 0.0
C1820 C 0.09257 0.99931 0.87217 0.0
H1821 H 0.00772 0.97473 0.96385 0.0
H1822 H 0.02221 0.97555 0.93294 0.0
C1823 C 0.10311 0.99861 0.85613 0.0
C1824 C 0.0654 0.0089 0.88874 0.0
H1825 H 0.06757 0.02124 0.93797 0.0
C1826 C 0.04628 0.00085 0.88537 0.0
C1827 C 0.07306 0.01675 0.90787 0.0
C1828 C 0.0932 0.02667 0.91229 0.0
C1829 C 0.03467 0.00017 0.9007 0.0
C1830 C 0.04251 0.00736 0.91993 0.0
C1831 C 0.06157 0.01561 0.92322 0.0
C1832 C 0.03134 0.00684 0.93699 0.0
C1833 C 0.01411 0.99206 0.8961 0.0
C1834 C 0.03149 0.02411 0.94939 0.0
C1835 C 0.02358 0.02358 0.96707 0.0
C1836 C 0.01517 0.0058 0.97261 0.0
C1837 C 0.01394 0.98862 0.95973 0.0
C1838 C 0.02218 0.98911 0.94209 0.0
H1839 H 0.00945 0.99249 0.88055 0.0
H1840 H 0.01146 0.97663 0.89889 0.0
H1841 H 0.0055 0.00026 0.90542 0.0
H1842 H 0.0384 0.03795 0.94574 0.0
H1843 H 0.02459 0.03705 0.97674 0.0
H1844 H 0.73416 0.35224 0.56081 0.0
H1845 H 0.72785 0.33421 0.5886 0.0
H1846 H 0.76836 0.29833 0.57237 0.0
H1847 H 0.77495 0.31633 0.54479 0.0
H1848 H 0.71778 0.29311 0.59355 0.0
H1849 H 0.78907 0.3272 0.62709 0.0
H1850 H 0.77793 0.33573 0.6064 0.0
H1851 H 0.78808 0.31406 0.60312 0.0
C1852 C 0.74144 0.34025 0.56291 0.0
C1853 C 0.7553 0.33595 0.5508 0.0
C1854 C 0.73782 0.32998 0.57879 0.0
C1855 C 0.74794 0.31524 0.58271 0.0
C1856 C 0.76068 0.30992 0.56977 0.0
H1857 H 0.76275 0.26256 0.68982 0.0
H1858 H 0.76309 0.26872 0.65571 0.0
C1859 C 0.76439 0.32022 0.55401 0.0
C1860 C 0.74649 0.30673 0.60123 0.0
H1861 H 0.7713 0.30522 0.64459 0.0
C1862 C 0.72947 0.29565 0.6047 0.0
C1863 C 0.76181 0.3101 0.61571 0.0
C1864 C 0.78023 0.32254 0.61305 0.0
C1865 C 0.72737 0.28783 0.62237 0.0
C1866 C 0.7426 0.29152 0.63698 0.0
C1867 C 0.7597 0.3023 0.63331 0.0
C1868 C 0.74084 0.28572 0.65675 0.0
C1869 C 0.70891 0.27566 0.62522 0.0
C1870 C 0.72819 0.29318 0.66858 0.0
C1871 C 0.72799 0.28973 0.68801 0.0
C1872 C 0.74055 0.27887 0.69605 0.0
C1873 C 0.7529 0.27097 0.68405 0.0
C1874 C 0.7531 0.27446 0.66457 0.0
H1875 H 0.70105 0.26914 0.61102 0.0
H1876 H 0.71093 0.26379 0.63407 0.0
H1877 H 0.70021 0.28505 0.63299 0.0
H1878 H 0.71893 0.3023 0.66301 0.0
H1879 H 0.71827 0.29601 0.69684 0.0
H1880 H 0.40691 0.05079 0.34841 0.0
H1881 H 0.4269 0.04767 0.37745 0.0
H1882 H 0.46181 0.01779 0.34135 0.0
H1883 H 0.44175 0.02047 0.31234 0.0
H1884 H 0.45213 0.99909 0.37246 0.0
H1885 H 0.47929 0.0773 0.39663 0.0
H1886 H 0.45422 0.07168 0.39316 0.0
H1887 H 0.46764 0.06851 0.3726 0.0
C1888 C 0.41883 0.04355 0.34665 0.0
C1889 C 0.42271 0.03582 0.32809 0.0
C1890 C 0.43035 0.04196 0.36324 0.0
C1891 C 0.44602 0.03281 0.36149 0.0
C1892 C 0.44987 0.02504 0.34298 0.0
H1893 H 0.52769 0.02885 0.46075 0.0
H1894 H 0.51441 0.0341 0.42851 0.0
C1895 C 0.43835 0.02656 0.32643 0.0
C1896 C 0.45782 0.03036 0.37903 0.0
H1897 H 0.48391 0.05523 0.41983 0.0
C1898 C 0.45925 0.01138 0.3827 0.0
C1899 C 0.46737 0.04641 0.39219 0.0
C1900 C 0.46724 0.06713 0.38838 0.0
C1901 C 0.46928 0.00799 0.39964 0.0
C1902 C 0.47786 0.02399 0.41336 0.0
C1903 C 0.47718 0.04301 0.40931 0.0
C1904 C 0.48614 0.02112 0.43268 0.0
C1905 C 0.47037 0.98729 0.40289 0.0
C1906 C 0.47454 0.01242 0.44566 0.0
C1907 C 0.48199 0.00945 0.46392 0.0
C1908 C 0.50124 0.01519 0.46965 0.0
C1909 C 0.51285 0.02419 0.45672 0.0
C1910 C 0.5053 0.02721 0.43835 0.0
H1911 H 0.4678 0.97732 0.38895 0.0
H1912 H 0.48425 0.98627 0.41009 0.0
H1913 H 0.45954 0.9822 0.4125 0.0
H1914 H 0.45966 0.00795 0.44165 0.0
H1915 H 0.47258 0.00263 0.47354 0.0
H1916 H 0.81611 0.67735 0.06945 0.0
H1917 H 0.80748 0.68975 0.10122 0.0
H1918 H 0.74909 0.67119 0.08118 0.0
H1919 H 0.75765 0.65805 0.04948 0.0
H1920 H 0.78797 0.71716 0.1123 0.0
H1921 H 0.75183 0.64624 0.13032 0.0
H1922 H 0.76545 0.64808 0.10969 0.0
H1923 H 0.74208 0.65342 0.10829 0.0
C1924 C 0.80142 0.67588 0.07176 0.0
C1925 C 0.78758 0.66655 0.05695 0.0
C1926 C 0.7965 0.68301 0.08995 0.0
C1927 C 0.77764 0.68113 0.09375 0.0
C1928 C 0.76374 0.67235 0.0788 0.0
H1929 H 0.75365 0.74466 0.20413 0.0
H1930 H 0.75268 0.73348 0.16916 0.0
C1931 C 0.76866 0.66494 0.06064 0.0
C1932 C 0.77278 0.68834 0.11342 0.0
H1933 H 0.75176 0.67382 0.1531 0.0
C1934 C 0.77996 0.70771 0.1212 0.0
C1935 C 0.76243 0.67596 0.12507 0.0
C1936 C 0.75514 0.65473 0.11803 0.0
C1937 C 0.77761 0.7149 0.14045 0.0
C1938 C 0.76724 0.70253 0.15209 0.0
C1939 C 0.75956 0.68333 0.14411 0.0
C1940 C 0.76587 0.70852 0.17315 0.0
C1941 C 0.78709 0.73534 0.1484 0.0
C1942 C 0.77268 0.69768 0.18702 0.0
C1943 C 0.77291 0.7038 0.20693 0.0
C1944 C 0.76643 0.72099 0.21345 0.0
C1945 C 0.7589 0.73145 0.19957 0.0
C1946 C 0.75848 0.72516 0.17958 0.0
H1947 H 0.79802 0.74115 0.13917 0.0
H1948 H 0.77653 0.74509 0.1488 0.0
H1949 H 0.79368 0.73589 0.16346 0.0
H1950 H 0.77839 0.68476 0.18246 0.0
H1951 H 0.77878 0.69534 0.21718 0.0
H1952 H 0.07328 0.00869 0.73381 0.0
H1953 H 0.06717 0.01075 0.69904 0.0
H1954 H 0.12503 0.00873 0.69097 0.0
H1955 H 0.1313 0.0065 0.72578 0.0
H1956 H 0.08456 0.0385 0.67518 0.0
H1957 H 0.09491 0.96261 0.65256 0.0
H1958 H 0.09146 0.97124 0.67736 0.0
H1959 H 0.11368 0.97802 0.66808 0.0
C1960 C 0.08475 0.00875 0.72469 0.0
C1961 C 0.10275 0.00725 0.73252 0.0
C1962 C 0.08123 0.00999 0.70484 0.0
C1963 C 0.0956 0.00967 0.69248 0.0
C1964 C 0.11371 0.00873 0.70029 0.0
H1965 H 0.08821 0.99748 0.56561 0.0
H1966 H 0.1002 0.00322 0.60002 0.0
C1967 C 0.11726 0.0075 0.72016 0.0
C1968 C 0.09138 0.00969 0.67131 0.0
H1969 H 0.08761 0.98096 0.62761 0.0
C1970 C 0.08531 0.02599 0.66472 0.0
C1971 C 0.09243 0.99333 0.6578 0.0
C1972 C 0.09833 0.97521 0.66422 0.0
C1973 C 0.08015 0.02633 0.64487 0.0
C1974 C 0.08075 0.00978 0.63141 0.0
C1975 C 0.0872 0.99365 0.63798 0.0
C1976 C 0.07396 0.00838 0.61056 0.0
C1977 C 0.0742 0.04443 0.63849 0.0
C1978 C 0.05526 0.0095 0.60509 0.0
C1979 C 0.04838 0.0063 0.58543 0.0
C1980 C 0.06004 0.00167 0.57094 0.0
C1981 C 0.07886 0.00095 0.57644 0.0
C1982 C 0.08575 0.00425 0.59608 0.0
H1983 H 0.07993 0.0575 0.64913 0.0
H1984 H 0.07882 0.04703 0.62394 0.0
H1985 H 0.05872 0.04265 0.63752 0.0
H1986 H 0.04581 0.01221 0.61605 0.0
H1987 H 0.03379 0.00687 0.58167 0.0
H1988 H 0.74038 0.3637 0.44797 0.0
H1989 H 0.73374 0.34788 0.4142 0.0
H1990 H 0.76334 0.30217 0.42857 0.0
H1991 H 0.77041 0.31809 0.46204 0.0
H1992 H 0.77689 0.31905 0.39875 0.0
H1993 H 0.6997 0.30001 0.38511 0.0
H1994 H 0.70783 0.32501 0.39493 0.0
H1995 H 0.71158 0.30603 0.40939 0.0
C1996 C 0.74505 0.35003 0.44402 0.0
C1997 C 0.75608 0.34224 0.45759 0.0
C1998 C 0.74117 0.34094 0.42473 0.0
C1999 C 0.74796 0.32377 0.41886 0.0
C2000 C 0.75798 0.31541 0.43275 0.0
H2001 H 0.73743 0.25727 0.3022 0.0
H2002 H 0.73415 0.26698 0.33683 0.0
C2003 C 0.76204 0.32456 0.45187 0.0
C2004 C 0.74688 0.31587 0.39793 0.0
H2005 H 0.71699 0.29922 0.35691 0.0
C2006 C 0.76376 0.31453 0.38969 0.0
C2007 C 0.72975 0.30987 0.38611 0.0
C2008 C 0.71117 0.3101 0.39435 0.0
C2009 C 0.76403 0.3078 0.36993 0.0
C2010 C 0.74699 0.3026 0.35793 0.0
C2011 C 0.73003 0.3034 0.36616 0.0
C2012 C 0.74685 0.29706 0.33667 0.0
C2013 C 0.78261 0.30639 0.36199 0.0
C2014 C 0.75461 0.31088 0.32512 0.0
C2015 C 0.75657 0.30542 0.3055 0.0
C2016 C 0.75072 0.286 0.29699 0.0
C2017 C 0.74212 0.27232 0.30836 0.0
C2018 C 0.7402 0.27783 0.3281 0.0
H2019 H 0.79377 0.30634 0.37381 0.0
H2020 H 0.78155 0.293 0.35148 0.0
H2021 H 0.78689 0.31913 0.35419 0.0
H2022 H 0.75962 0.32584 0.33144 0.0
H2023 H 0.76303 0.31639 0.29711 0.0
H2024 H 0.38965 0.00202 0.22013 0.0
H2025 H 0.40253 0.98885 0.19073 0.0
H2026 H 0.43711 0.04469 0.18922 0.0
H2027 H 0.42461 0.05784 0.21859 0.0
H2028 H 0.40324 0.9996 0.15359 0.0
H2029 H 0.47513 0.00798 0.18887 0.0
H2030 H 0.45518 0.0096 0.20263 0.0
H2031 H 0.46628 0.03039 0.19217 0.0
C2032 C 0.39988 0.01152 0.21341 0.0
C2033 C 0.40627 0.03092 0.22179 0.0
C2034 C 0.40727 0.00395 0.19669 0.0
C2035 C 0.42116 0.01565 0.18818 0.0
C2036 C 0.42683 0.03525 0.19594 0.0
H2037 H 0.45688 0.02381 0.07844 0.0
H2038 H 0.44049 0.02103 0.10751 0.0
C2039 C 0.41954 0.04279 0.21264 0.0
C2040 C 0.42972 0.00769 0.171 0.0
H2041 H 0.47217 0.0061 0.15365 0.0
C2042 C 0.41828 0.00063 0.15367 0.0
C2043 C 0.44929 0.00846 0.17125 0.0
C2044 C 0.46215 0.01431 0.1898 0.0
C2045 C 0.42606 0.99593 0.13618 0.0
C2046 C 0.44575 0.99878 0.13604 0.0
C2047 C 0.45708 0.0042 0.1537 0.0
C2048 C 0.45487 0.99885 0.11762 0.0
C2049 C 0.41311 0.98851 0.11793 0.0
C2050 C 0.46885 0.98766 0.11385 0.0
C2051 C 0.47853 0.9894 0.09719 0.0
C2052 C 0.47444 0.00249 0.08422 0.0
C2053 C 0.46035 0.01351 0.08805 0.0
C2054 C 0.45077 0.01178 0.10459 0.0
H2055 H 0.39966 0.98025 0.12146 0.0
H2056 H 0.40987 0.00107 0.11073 0.0
H2057 H 0.41952 0.97898 0.10747 0.0
H2058 H 0.4724 0.97778 0.12389 0.0
H2059 H 0.48933 0.98073 0.09463 0.0
H2060 H 0.81494 0.70092 0.97071 0.0
H2061 H 0.8095 0.72078 0.9448 0.0
H2062 H 0.75418 0.68703 0.93005 0.0
H2063 H 0.75933 0.66727 0.95607 0.0
H2064 H 0.80309 0.70599 0.90636 0.0
H2065 H 0.74432 0.74209 0.92816 0.0
H2066 H 0.75803 0.73103 0.94509 0.0
H2067 H 0.73951 0.71625 0.92866 0.0
C2068 C 0.80146 0.69794 0.96223 0.0
C2069 C 0.78761 0.68239 0.96544 0.0
C2070 C 0.79838 0.70933 0.94742 0.0
C2071 C 0.78138 0.70552 0.9356 0.0
C2072 C 0.76726 0.69052 0.93924 0.0
H2073 H 0.73743 0.72631 0.82426 0.0
H2074 H 0.74355 0.71775 0.85701 0.0
C2075 C 0.7703 0.67914 0.95408 0.0
C2076 C 0.77915 0.71568 0.91816 0.0
H2077 H 0.75013 0.74079 0.89434 0.0
C2078 C 0.79171 0.7139 0.90387 0.0
C2079 C 0.76425 0.72592 0.91492 0.0
C2080 C 0.75087 0.72912 0.93011 0.0
C2081 C 0.78928 0.72131 0.88606 0.0
C2082 C 0.77405 0.73103 0.88258 0.0
C2083 C 0.76179 0.73332 0.89708 0.0
C2084 C 0.76988 0.73762 0.86343 0.0
C2085 C 0.80251 0.71786 0.87075 0.0
C2086 C 0.78249 0.75197 0.85635 0.0
C2087 C 0.77909 0.75686 0.83754 0.0
C2088 C 0.76299 0.74749 0.82555 0.0
C2089 C 0.75006 0.73367 0.83302 0.0
C2090 C 0.75348 0.72881 0.85178 0.0
H2091 H 0.81122 0.70689 0.87428 0.0
H2092 H 0.79467 0.71284 0.85622 0.0
H2093 H 0.81202 0.73171 0.86973 0.0
H2094 H 0.7951 0.75916 0.86526 0.0
H2095 H 0.78925 0.76767 0.83228 0.0
H2096 H 0.82357 0.10609 0.0057 0.0
H2097 H 0.84571 0.08387 0.00586 0.0
H2098 H 0.81035 0.04736 0.03935 0.0
H2099 H 0.78859 0.07059 0.04044 0.0
H2100 H 0.8436 0.04978 0.05356 0.0
H2101 H 0.84615 0.03397 0.97451 0.0
H2102 H 0.85172 0.0598 0.98083 0.0
H2103 H 0.82889 0.04693 0.98457 0.0
C2104 C 0.82042 0.09343 0.01316 0.0
C2105 C 0.80432 0.09028 0.02319 0.0
C2106 C 0.83302 0.08045 0.01294 0.0
C2107 C 0.82953 0.06352 0.02208 0.0
C2108 C 0.81334 0.0602 0.03201 0.0
H2109 H 0.91987 0.99477 0.00569 0.0
H2110 H 0.8878 0.0017 0.00434 0.0
C2111 C 0.80091 0.07351 0.03265 0.0
C2112 C 0.84359 0.0503 0.02248 0.0
H2113 H 0.87465 0.03139 0.99456 0.0
C2114 C 0.85007 0.04539 0.04054 0.0
C2115 C 0.85173 0.04381 0.0055 0.0
C2116 C 0.84405 0.04622 0.98527 0.0
C2117 C 0.86541 0.03572 0.04231 0.0
C2118 C 0.8751 0.03163 0.02574 0.0
C2119 C 0.86763 0.03497 0.00742 0.0
C2120 C 0.89395 0.026 0.02743 0.0
C2121 C 0.87119 0.03028 0.06204 0.0
C2122 C 0.9081 0.03735 0.04068 0.0
C2123 C 0.9262 0.03326 0.04166 0.0
C2124 C 0.93082 0.01799 0.02904 0.0
C2125 C 0.91673 0.00659 0.01564 0.0
C2126 C 0.89842 0.01055 0.01487 0.0
H2127 H 0.85878 0.02654 0.07021 0.0
H2128 H 0.87871 0.01772 0.06078 0.0
H2129 H 0.88045 0.04294 0.07075 0.0
H2130 H 0.90532 0.04982 0.04999 0.0
H2131 H 0.93672 0.04252 0.05201 0.0
H2132 H 0.33661 0.40594 0.06297 0.0
H2133 H 0.36804 0.42243 0.05878 0.0
H2134 H 0.34459 0.46486 0.02892 0.0
H2135 H 0.31308 0.44804 0.03244 0.0
H2136 H 0.37165 0.45211 0.0099 0.0
H2137 H 0.39699 0.47252 0.08795 0.0
H2138 H 0.38866 0.44686 0.0821 0.0
H2139 H 0.37265 0.46367 0.07982 0.0
C2140 C 0.33811 0.41873 0.05546 0.0
C2141 C 0.32232 0.42561 0.04796 0.0
C2142 C 0.35611 0.42829 0.05328 0.0
C2143 C 0.35867 0.4451 0.04388 0.0
C2144 C 0.34294 0.45198 0.03634 0.0
H2145 H 0.46914 0.51735 0.04362 0.0
H2146 H 0.43633 0.50619 0.04876 0.0
C2147 C 0.32494 0.44233 0.03836 0.0
C2148 C 0.37774 0.455 0.0411 0.0
H2149 H 0.42039 0.47467 0.06527 0.0
C2150 C 0.38225 0.45722 0.02203 0.0
C2151 C 0.39148 0.46201 0.05695 0.0
C2152 C 0.38716 0.46134 0.07786 0.0
C2153 C 0.40029 0.46559 0.01831 0.0
C2154 C 0.41433 0.47145 0.03406 0.0
C2155 C 0.40966 0.46994 0.05319 0.0
C2156 C 0.43409 0.4784 0.03088 0.0
C2157 C 0.40409 0.46812 0.99754 0.0
C2158 C 0.44374 0.46637 0.01939 0.0
C2159 C 0.46235 0.47273 0.01633 0.0
C2160 C 0.47182 0.49116 0.02495 0.0
C2161 C 0.46223 0.50309 0.03675 0.0
C2162 C 0.44351 0.49674 0.03971 0.0
H2163 H 0.39107 0.46892 0.98847 0.0
H2164 H 0.41444 0.48149 0.99687 0.0
H2165 H 0.40978 0.4554 0.99103 0.0
H2166 H 0.43691 0.45196 0.01287 0.0
H2167 H 0.46933 0.46308 0.00728 0.0
H2168 H 0.35244 0.56818 0.74228 0.0
H2169 H 0.33266 0.59247 0.73666 0.0
H2170 H 0.30547 0.58093 0.78839 0.0
H2171 H 0.32521 0.55687 0.7943 0.0
H2172 H 0.29257 0.59105 0.73303 0.0
H2173 H 0.32847 0.63936 0.79877 0.0
H2174 H 0.33766 0.61873 0.78791 0.0
H2175 H 0.31856 0.61514 0.80289 0.0
C2176 C 0.3421 0.57062 0.75233 0.0
C2177 C 0.34062 0.56078 0.76891 0.0
C2178 C 0.3308 0.58449 0.74908 0.0
C2179 C 0.31788 0.58871 0.76232 0.0
C2180 C 0.31563 0.57813 0.77822 0.0
H2181 H 0.25794 0.68686 0.77524 0.0
H2182 H 0.26706 0.65512 0.77824 0.0
C2183 C 0.32692 0.56436 0.78154 0.0
C2184 C 0.3076 0.605 0.76021 0.0
H2185 H 0.3037 0.65011 0.78188 0.0
C2186 C 0.29492 0.60394 0.74372 0.0
C2187 C 0.31069 0.62176 0.77423 0.0
C2188 C 0.32469 0.62399 0.79188 0.0
C2189 C 0.28524 0.6193 0.74085 0.0
C2190 C 0.28862 0.63621 0.7547 0.0
C2191 C 0.30103 0.63706 0.77137 0.0
C2192 C 0.28074 0.6539 0.75153 0.0
C2193 C 0.27147 0.61725 0.72308 0.0
C2194 C 0.28524 0.6636 0.73543 0.0
C2195 C 0.28008 0.68165 0.73369 0.0
C2196 C 0.27044 0.69047 0.74811 0.0
C2197 C 0.26532 0.68042 0.76388 0.0
C2198 C 0.27053 0.66232 0.76562 0.0
H2199 H 0.26605 0.6017 0.71758 0.0
H2200 H 0.25947 0.62465 0.72627 0.0
H2201 H 0.27859 0.62401 0.71128 0.0
H2202 H 0.29346 0.65761 0.72461 0.0
H2203 H 0.28422 0.68898 0.72134 0.0
H2204 H 0.22419 0.57266 0.51527 0.0
H2205 H 0.19153 0.56589 0.52204 0.0
H2206 H 0.18772 0.62652 0.52168 0.0
H2207 H 0.22068 0.63357 0.51523 0.0
H2208 H 0.17056 0.60936 0.55256 0.0
H2209 H 0.14802 0.5648 0.48084 0.0
H2210 H 0.16679 0.55691 0.49426 0.0
H2211 H 0.17051 0.5805 0.48597 0.0
C2212 C 0.21645 0.58459 0.51661 0.0
C2213 C 0.22495 0.60363 0.5145 0.0
C2214 C 0.19777 0.58067 0.52045 0.0
C2215 C 0.18718 0.59565 0.52202 0.0
C2216 C 0.19569 0.61477 0.52041 0.0
H2217 H 0.06908 0.59418 0.53018 0.0
H2218 H 0.10296 0.60464 0.53206 0.0
C2219 C 0.21447 0.61875 0.51666 0.0
C2220 C 0.16711 0.59112 0.52492 0.0
H2221 H 0.12592 0.56344 0.50444 0.0
C2222 C 0.16074 0.59943 0.54202 0.0
C2223 C 0.15438 0.57823 0.51105 0.0
C2224 C 0.1602 0.56973 0.49191 0.0
C2225 C 0.14196 0.59471 0.54586 0.0
C2226 C 0.1294 0.58147 0.53219 0.0
C2227 C 0.13573 0.57339 0.515 0.0
C2228 C 0.1094 0.57603 0.53493 0.0
C2229 C 0.13572 0.60356 0.56459 0.0
C2230 C 0.10192 0.55657 0.53633 0.0
C2231 C 0.08259 0.55052 0.53523 0.0
C2232 C 0.07046 0.56383 0.53246 0.0
C2233 C 0.07806 0.58356 0.53225 0.0
C2234 C 0.09741 0.58961 0.53343 0.0
H2235 H 0.14776 0.61052 0.57523 0.0
H2236 H 0.1273 0.61483 0.56134 0.0
H2237 H 0.12673 0.59231 0.5714 0.0
H2238 H 0.11102 0.54589 0.53739 0.0
H2239 H 0.07718 0.53523 0.53548 0.0
H2240 H 0.69887 0.97172 0.81709 0.0
H2241 H 0.72363 0.95215 0.81559 0.0
H2242 H 0.70486 0.93095 0.75535 0.0
H2243 H 0.68017 0.9506 0.75659 0.0
H2244 H 0.71485 0.9126 0.8084 0.0
H2245 H 0.76159 0.94003 0.7545 0.0
H2246 H 0.74595 0.95432 0.76602 0.0
H2247 H 0.73738 0.93621 0.74543 0.0
C2248 C 0.70021 0.96321 0.80337 0.0
C2249 C 0.68737 0.96256 0.787 0.0
C2250 C 0.71445 0.95211 0.80255 0.0
C2251 C 0.71621 0.94028 0.78532 0.0
C2252 C 0.70402 0.94033 0.76867 0.0
H2253 H 0.74516 0.83606 0.74233 0.0
H2254 H 0.74014 0.86953 0.74856 0.0
C2255 C 0.68977 0.95144 0.76947 0.0
C2256 C 0.72871 0.92567 0.78552 0.0
H2257 H 0.76109 0.90644 0.75993 0.0
C2258 C 0.72533 0.91149 0.79816 0.0
C2259 C 0.74233 0.92431 0.77214 0.0
C2260 C 0.74717 0.93966 0.75889 0.0
C2261 C 0.73411 0.89513 0.79677 0.0
C2262 C 0.747 0.89318 0.78262 0.0
C2263 C 0.75125 0.90799 0.77079 0.0
C2264 C 0.75376 0.87459 0.77795 0.0
C2265 C 0.7284 0.87938 0.80942 0.0
C2266 C 0.76392 0.86664 0.79209 0.0
C2267 C 0.76663 0.84731 0.78866 0.0
C2268 C 0.75934 0.8358 0.77097 0.0
C2269 C 0.7507 0.84443 0.75623 0.0
C2270 C 0.74791 0.86363 0.75971 0.0
H2271 H 0.71597 0.88174 0.81718 0.0
H2272 H 0.72515 0.86486 0.80052 0.0
H2273 H 0.7401 0.87921 0.82055 0.0
H2274 H 0.76889 0.87504 0.80612 0.0
H2275 H 0.77353 0.84112 0.80021 0.0
H2276 H 0.70627 0.90021 0.55022 0.0
H2277 H 0.67768 0.91383 0.54545 0.0
H2278 H 0.69824 0.93895 0.4955 0.0
H2279 H 0.7268 0.92523 0.50001 0.0
H2280 H 0.67747 0.95418 0.54661 0.0
H2281 H 0.64403 0.91336 0.4759 0.0
H2282 H 0.66198 0.90496 0.49041 0.0
H2283 H 0.66815 0.92441 0.47606 0.0
C2284 C 0.7046 0.90834 0.53801 0.0
C2285 C 0.71886 0.91167 0.52553 0.0
C2286 C 0.68826 0.91615 0.53534 0.0
C2287 C 0.6858 0.9273 0.52006 0.0
C2288 C 0.69973 0.93014 0.5072 0.0
H2289 H 0.59365 0.99063 0.49431 0.0
H2290 H 0.6237 0.97893 0.49352 0.0
C2291 C 0.71609 0.92235 0.50986 0.0
C2292 C 0.6693 0.93711 0.51857 0.0
H2293 H 0.62956 0.93876 0.48982 0.0
C2294 C 0.66702 0.95083 0.53418 0.0
C2295 C 0.65583 0.9329 0.50221 0.0
C2296 C 0.65746 0.91801 0.48522 0.0
C2297 C 0.65145 0.96024 0.53403 0.0
C2298 C 0.63766 0.95558 0.51798 0.0
C2299 C 0.6402 0.94231 0.50208 0.0
C2300 C 0.61977 0.96301 0.51833 0.0
C2301 C 0.64985 0.97505 0.55112 0.0
C2302 C 0.60765 0.95777 0.53238 0.0
C2303 C 0.59062 0.96436 0.53285 0.0
C2304 C 0.58528 0.97629 0.51921 0.0
C2305 C 0.59743 0.98155 0.50507 0.0
C2306 C 0.61453 0.97484 0.50457 0.0
H2307 H 0.66372 0.98109 0.55919 0.0
H2308 H 0.64347 0.98724 0.54628 0.0
H2309 H 0.64079 0.96794 0.5614 0.0
H2310 H 0.61128 0.9484 0.54292 0.0
H2311 H 0.58162 0.95998 0.54393 0.0
H2312 H 0.32907 0.47143 0.7912 0.0
H2313 H 0.31319 0.43774 0.78419 0.0
H2314 H 0.3461 0.42861 0.73582 0.0
H2315 H 0.36225 0.46263 0.74269 0.0
H2316 H 0.30428 0.41067 0.73052 0.0
H2317 H 0.34457 0.39382 0.7958 0.0
H2318 H 0.33329 0.41468 0.79984 0.0
H2319 H 0.3518 0.41515 0.78403 0.0
C2320 C 0.33288 0.4624 0.77892 0.0
C2321 C 0.34715 0.46969 0.76767 0.0
C2322 C 0.32373 0.44314 0.77493 0.0
C2323 C 0.32865 0.43069 0.75967 0.0
C2324 C 0.34216 0.43806 0.7477 0.0
H2325 H 0.30403 0.30557 0.75906 0.0
H2326 H 0.31875 0.33849 0.75507 0.0
C2327 C 0.35136 0.45746 0.75166 0.0
C2328 C 0.32062 0.4097 0.75744 0.0
H2329 H 0.31911 0.36973 0.78144 0.0
C2330 C 0.30761 0.4016 0.7415 0.0
C2331 C 0.32516 0.39793 0.77172 0.0
C2332 C 0.33958 0.40573 0.78875 0.0
C2333 C 0.29857 0.38207 0.73981 0.0
C2334 C 0.30254 0.37055 0.75458 0.0
C2335 C 0.31597 0.37859 0.77018 0.0
C2336 C 0.29301 0.35014 0.75442 0.0
C2337 C 0.28496 0.37393 0.72222 0.0
C2338 C 0.27355 0.34563 0.75515 0.0
C2339 C 0.26502 0.32669 0.75735 0.0
C2340 C 0.27587 0.31204 0.75915 0.0
C2341 C 0.29527 0.31653 0.75789 0.0
C2342 C 0.30372 0.33535 0.75554 0.0
H2343 H 0.2874 0.38259 0.70989 0.0
H2344 H 0.28598 0.35856 0.71729 0.0
H2345 H 0.27051 0.37438 0.72613 0.0
H2346 H 0.26504 0.35689 0.75475 0.0
H2347 H 0.25007 0.32371 0.75838 0.0
H2348 H 0.16407 0.55717 0.31407 0.0
H2349 H 0.17802 0.59018 0.30975 0.0
H2350 H 0.16165 0.57786 0.24792 0.0
H2351 H 0.14717 0.54469 0.25215 0.0
H2352 H 0.20617 0.6036 0.28805 0.0
H2353 H 0.13971 0.62658 0.26319 0.0
H2354 H 0.14018 0.6043 0.27375 0.0
H2355 H 0.14532 0.60566 0.24892 0.0
C2356 C 0.16339 0.56138 0.29951 0.0
C2357 C 0.15435 0.54826 0.28347 0.0
C2358 C 0.17144 0.5803 0.29707 0.0
C2359 C 0.17068 0.58656 0.27856 0.0
C2360 C 0.16207 0.57343 0.2624 0.0
H2361 H 0.23579 0.7021 0.2677 0.0
H2362 H 0.22372 0.66702 0.26155 0.0
C2363 C 0.15388 0.55446 0.26484 0.0
C2364 C 0.17878 0.60698 0.27657 0.0
H2365 H 0.16711 0.65009 0.26606 0.0
C2366 C 0.1977 0.61375 0.28305 0.0
C2367 C 0.16763 0.62019 0.27018 0.0
C2368 C 0.14705 0.61394 0.26375 0.0
C2369 C 0.20564 0.63349 0.28397 0.0
C2370 C 0.19444 0.64675 0.27779 0.0
C2371 C 0.17568 0.63986 0.27068 0.0
C2372 C 0.20134 0.66805 0.28037 0.0
C2373 C 0.22567 0.64012 0.29247 0.0
C2374 C 0.19241 0.68032 0.29247 0.0
C2375 C 0.19912 0.70031 0.29583 0.0
C2376 C 0.21495 0.70847 0.28719 0.0
C2377 C 0.22367 0.69622 0.27472 0.0
C2378 C 0.21685 0.67618 0.27126 0.0
H2379 H 0.23101 0.62889 0.30032 0.0
H2380 H 0.23465 0.64313 0.28052 0.0
H2381 H 0.22708 0.65373 0.30275 0.0
H2382 H 0.18041 0.67437 0.29964 0.0
H2383 H 0.19204 0.70931 0.30548 0.0
H2384 H 0.46359 0.68907 0.44795 0.0
H2385 H 0.47407 0.6676 0.46994 0.0
H2386 H 0.52979 0.67978 0.4518 0.0
H2387 H 0.51925 0.70101 0.4292 0.0
H2388 H 0.51816 0.64221 0.4488 0.0
H2389 H 0.50369 0.67295 0.52162 0.0
H2390 H 0.48321 0.67062 0.50498 0.0
H2391 H 0.50422 0.6868 0.50116 0.0
C2392 C 0.47818 0.68753 0.44884 0.0
C2393 C 0.49053 0.69669 0.43664 0.0
C2394 C 0.48422 0.67537 0.46166 0.0
C2395 C 0.50282 0.67229 0.46284 0.0
C2396 C 0.51541 0.68204 0.45127 0.0
H2397 H 0.52321 0.57804 0.53337 0.0
H2398 H 0.52855 0.61082 0.52299 0.0
C2399 C 0.50934 0.69416 0.43832 0.0
C2400 C 0.50818 0.65684 0.47399 0.0
H2401 H 0.50167 0.63736 0.51652 0.0
C2402 C 0.51506 0.64146 0.4638 0.0
C2403 C 0.5045 0.65587 0.49369 0.0
C2404 C 0.4987 0.67259 0.50602 0.0
C2405 C 0.51668 0.62446 0.47215 0.0
C2406 C 0.51096 0.62265 0.49102 0.0
C2407 C 0.50574 0.63866 0.50191 0.0
C2408 C 0.50768 0.60343 0.49823 0.0
C2409 C 0.52359 0.60814 0.46029 0.0
C2410 C 0.49386 0.58875 0.48809 0.0
C2411 C 0.49077 0.57027 0.49394 0.0
C2412 C 0.50138 0.566 0.51017 0.0
C2413 C 0.51486 0.5809 0.52079 0.0
C2414 C 0.51794 0.59957 0.51488 0.0
H2415 H 0.53282 0.61376 0.44936 0.0
H2416 H 0.53138 0.59985 0.46979 0.0
H2417 H 0.51144 0.59797 0.45228 0.0
H2418 H 0.48552 0.59157 0.47546 0.0
H2419 H 0.48014 0.55925 0.48552 0.0
H2420 H 0.56043 0.32206 0.70797 0.0
H2421 H 0.59148 0.32359 0.72475 0.0
H2422 H 0.60198 0.27783 0.68217 0.0
H2423 H 0.57107 0.2763 0.66519 0.0
H2424 H 0.60323 0.29286 0.74111 0.0
H2425 H 0.65018 0.31769 0.68617 0.0
H2426 H 0.62584 0.32024 0.6849 0.0
H2427 H 0.63241 0.29734 0.67639 0.0
C2428 C 0.56946 0.31254 0.70198 0.0
C2429 C 0.56327 0.29902 0.68526 0.0
C2430 C 0.58718 0.31344 0.7116 0.0
C2431 C 0.59908 0.30098 0.70458 0.0
C2432 C 0.59315 0.28785 0.6876 0.0
H2433 H 0.69459 0.25477 0.73621 0.0
H2434 H 0.6663 0.26452 0.72268 0.0
C2435 C 0.57544 0.28692 0.67798 0.0
C2436 C 0.617 0.30043 0.71585 0.0
H2437 H 0.66355 0.30194 0.71146 0.0
C2438 C 0.6165 0.2952 0.73481 0.0
C2439 C 0.63425 0.30357 0.70758 0.0
C2440 C 0.63578 0.31022 0.68771 0.0
C2441 C 0.63266 0.29186 0.74527 0.0
C2442 C 0.64973 0.29407 0.73659 0.0
C2443 C 0.65039 0.3002 0.71802 0.0
C2444 C 0.66663 0.28823 0.7456 0.0
C2445 C 0.6312 0.28497 0.76505 0.0
C2446 C 0.6761 0.29828 0.76312 0.0
C2447 C 0.69237 0.29267 0.77102 0.0
C2448 C 0.69937 0.27703 0.7614 0.0
C2449 C 0.68962 0.2669 0.744 0.0
C2450 C 0.67346 0.27248 0.73618 0.0
H2451 H 0.61644 0.2812 0.7684 0.0
H2452 H 0.63802 0.27201 0.7659 0.0
H2453 H 0.63855 0.29666 0.77645 0.0
H2454 H 0.67111 0.31062 0.77048 0.0
H2455 H 0.69964 0.30082 0.78437 0.0
H2456 H 0.00644 0.28718 0.91676 0.0
H2457 H 0.01314 0.32135 0.93105 0.0
H2458 H 0.95404 0.32328 0.92686 0.0
H2459 H 0.94724 0.28891 0.91348 0.0
H2460 H 0.00733 0.35201 0.91615 0.0
H2461 H 0.96792 0.34862 0.98129 0.0
H2462 H 0.97196 0.32703 0.96667 0.0
H2463 H 0.95306 0.33914 0.9594 0.0
C2464 C 0.99488 0.29486 0.91907 0.0
C2465 C 0.97632 0.28535 0.91411 0.0
C2466 C 0.99871 0.31437 0.92726 0.0
C2467 C 0.98408 0.32484 0.93041 0.0
C2468 C 0.96554 0.3154 0.92522 0.0
H2469 H 0.00246 0.45077 0.93813 0.0
H2470 H 0.99199 0.41584 0.92849 0.0
C2471 C 0.96168 0.29578 0.91739 0.0
C2472 C 0.98832 0.34589 0.93797 0.0
H2473 H 0.97747 0.38041 0.97205 0.0
C2474 C 0.0009 0.35817 0.92848 0.0
C2475 C 0.98016 0.35394 0.95426 0.0
C2476 C 0.96769 0.34145 0.96611 0.0
C2477 C 0.00537 0.37823 0.9346 0.0
C2478 C 0.99638 0.38644 0.95013 0.0
C2479 C 0.98406 0.37416 0.9599 0.0
C2480 C 4e-05 0.40769 0.95672 0.0
C2481 C 0.02005 0.39028 0.92459 0.0
C2482 C 0.00669 0.41481 0.97617 0.0
C2483 C 0.01216 0.43482 0.98185 0.0
C2484 C 0.01124 0.44796 0.96808 0.0
C2485 C 0.00353 0.4409 0.94894 0.0
C2486 C 0.99771 0.42095 0.94339 0.0
H2487 H 0.02947 0.3812 0.91758 0.0
H2488 H 0.01309 0.39699 0.91297 0.0
H2489 H 0.02872 0.40207 0.93503 0.0
H2490 H 0.00843 0.40484 0.98675 0.0
H2491 H 0.01809 0.4399 0.9967 0.0
H2492 H 0.97914 0.74412 0.20842 0.0
H2493 H 0.95247 0.73557 0.22727 0.0
H2494 H 0.91526 0.748 0.18081 0.0
H2495 H 0.94167 0.75649 0.16195 0.0
H2496 H 0.93093 0.76254 0.2393 0.0
H2497 H 0.88591 0.69844 0.19652 0.0
H2498 H 0.91036 0.70538 0.19301 0.0
H2499 H 0.89299 0.71703 0.18148 0.0
C2500 C 0.96521 0.74454 0.20201 0.0
C2501 C 0.96252 0.75104 0.1837 0.0
C2502 C 0.95001 0.73964 0.2128 0.0
C2503 C 0.93187 0.74092 0.20534 0.0
C2504 C 0.92907 0.74646 0.18666 0.0
H2505 H 0.84048 0.78337 0.24332 0.0
H2506 H 0.87071 0.77617 0.2347 0.0
C2507 C 0.94424 0.75144 0.17592 0.0
C2508 C 0.91624 0.73931 0.21791 0.0
H2509 H 0.87007 0.7197 0.21722 0.0
C2510 C 0.91776 0.7528 0.23478 0.0
C2511 C 0.89915 0.72646 0.21216 0.0
C2512 C 0.89705 0.71087 0.1949 0.0
C2513 C 0.90218 0.75491 0.24505 0.0
C2514 C 0.88468 0.74335 0.23816 0.0
C2515 C 0.8835 0.7287 0.22234 0.0
C2516 C 0.86714 0.74808 0.24533 0.0
C2517 C 0.90436 0.77013 0.26265 0.0
C2518 C 0.85511 0.73463 0.25415 0.0
C2519 C 0.83778 0.73877 0.25922 0.0
C2520 C 0.83216 0.75626 0.25514 0.0
C2521 C 0.84441 0.76979 0.24662 0.0
C2522 C 0.86174 0.76574 0.24179 0.0
H2523 H 0.919 0.7734 0.26949 0.0
H2524 H 0.90073 0.7838 0.25804 0.0
H2525 H 0.89489 0.76536 0.27371 0.0
H2526 H 0.85901 0.72084 0.2568 0.0
H2527 H 0.82853 0.72802 0.26564 0.0
H2528 H 0.4674 0.29383 0.08238 0.0
H2529 H 0.47847 0.31697 0.06046 0.0
H2530 H 0.53509 0.32092 0.08578 0.0
H2531 H 0.52402 0.29806 0.10832 0.0
H2532 H 0.52623 0.35566 0.08595 0.0
H2533 H 0.50499 0.31676 0.01211 0.0
H2534 H 0.48537 0.31457 0.02638 0.0
H2535 H 0.50553 0.30414 0.03342 0.0
C2536 C 0.48227 0.29926 0.08308 0.0
C2537 C 0.49479 0.29417 0.09726 0.0
C2538 C 0.48863 0.31239 0.07033 0.0
C2539 C 0.50767 0.32049 0.0712 0.0
C2540 C 0.52035 0.31476 0.08474 0.0
H2541 H 0.54489 0.42714 0.0169 0.0
H2542 H 0.54656 0.39472 0.0265 0.0
C2543 C 0.51398 0.3017 0.09763 0.0
C2544 C 0.51371 0.33685 0.05995 0.0
H2545 H 0.50664 0.35223 0.01536 0.0
C2546 C 0.52249 0.35474 0.07039 0.0
C2547 C 0.50892 0.3357 0.03961 0.0
C2548 C 0.50087 0.31667 0.02724 0.0
C2549 C 0.52519 0.37177 0.06138 0.0
C2550 C 0.51893 0.37086 0.04147 0.0
C2551 C 0.51132 0.35283 0.03068 0.0
C2552 C 0.51763 0.38886 0.0327 0.0
C2553 C 0.5335 0.39091 0.07347 0.0
C2554 C 0.50072 0.39592 0.03261 0.0
C2555 C 0.49977 0.41435 0.02737 0.0
C2556 C 0.5157 0.42599 0.02195 0.0
C2557 C 0.53239 0.41843 0.02093 0.0
C2558 C 0.53338 0.39997 0.02641 0.0
H2559 H 0.53809 0.38908 0.08869 0.0
H2560 H 0.54571 0.39811 0.0667 0.0
H2561 H 0.52301 0.40075 0.07383 0.0
H2562 H 0.48846 0.38752 0.0375 0.0
H2563 H 0.4867 0.41974 0.02819 0.0
H2564 H 0.941 0.25957 0.38011 0.0
H2565 H 0.91187 0.265 0.36363 0.0
H2566 H 0.94305 0.29867 0.32469 0.0
H2567 H 0.97241 0.29339 0.34118 0.0
H2568 H 0.89916 0.30158 0.35568 0.0
H2569 H 0.90801 0.25251 0.28917 0.0
H2570 H 0.92102 0.25233 0.31233 0.0
H2571 H 0.92707 0.27196 0.29821 0.0
C2572 C 0.94174 0.26839 0.36826 0.0
C2573 C 0.95904 0.27601 0.36194 0.0
C2574 C 0.92506 0.27147 0.35885 0.0
C2575 C 0.92536 0.28207 0.34287 0.0
C2576 C 0.94258 0.29029 0.33691 0.0
H2577 H 0.82599 0.2805 0.2625 0.0
H2578 H 0.85813 0.28964 0.2779 0.0
C2579 C 0.95931 0.28729 0.34637 0.0
C2580 C 0.90754 0.28345 0.3319 0.0
H2581 H 0.87989 0.26457 0.29001 0.0
C2582 C 0.89499 0.29371 0.34121 0.0
C2583 C 0.90227 0.27327 0.313 0.0
C2584 C 0.91519 0.26177 0.30253 0.0
C2585 C 0.87702 0.29359 0.33231 0.0
C2586 C 0.87137 0.28253 0.31385 0.0
C2587 C 0.88426 0.27303 0.30417 0.0
C2588 C 0.85171 0.27896 0.30518 0.0
C2589 C 0.86421 0.30513 0.34288 0.0
C2590 C 0.83749 0.26993 0.3154 0.0
C2591 C 0.8192 0.26472 0.30669 0.0
C2592 C 0.81477 0.26825 0.28747 0.0
C2593 C 0.82896 0.2776 0.27733 0.0
C2594 C 0.84731 0.28284 0.2861 0.0
H2595 H 0.8723 0.31773 0.3528 0.0
H2596 H 0.85456 0.31057 0.3325 0.0
H2597 H 0.85572 0.29566 0.35193 0.0
H2598 H 0.84064 0.26631 0.32992 0.0
H2599 H 0.80862 0.25751 0.3149 0.0
H2600 H 0.94531 0.7046 0.62028 0.0
H2601 H 0.94964 0.67212 0.60652 0.0
H2602 H 0.00887 0.69303 0.60691 0.0
H2603 H 0.00474 0.7251 0.62172 0.0
H2604 H 0.9605 0.65901 0.57406 0.0
H2605 H 0.01114 0.64582 0.63221 0.0
H2606 H 0.99898 0.6662 0.63486 0.0
H2607 H 0.01988 0.6676 0.62223 0.0
C2608 C 0.95927 0.70217 0.61758 0.0
C2609 C 0.97472 0.71729 0.62225 0.0
C2610 C 0.96174 0.68363 0.6097 0.0
C2611 C 0.97965 0.67995 0.60606 0.0
C2612 C 0.99501 0.69524 0.61024 0.0
H2613 H 0.00049 0.58319 0.52528 0.0
H2614 H 0.99361 0.61415 0.54043 0.0
C2615 C 0.99262 0.71363 0.61857 0.0
C2616 C 0.9822 0.66033 0.59731 0.0
H2617 H 0.00897 0.6252 0.60184 0.0
C2618 C 0.97096 0.65151 0.58027 0.0
C2619 C 0.99558 0.6503 0.60557 0.0
C2620 C 0.00691 0.65789 0.62484 0.0
C2621 C 0.97298 0.6332 0.57106 0.0
C2622 C 0.98722 0.6238 0.5786 0.0
C2623 C 0.99821 0.63246 0.59585 0.0
C2624 C 0.99095 0.60491 0.56908 0.0
C2625 C 0.95949 0.624 0.55366 0.0
C2626 C 0.99245 0.58961 0.58021 0.0
C2627 C 0.99704 0.57222 0.57173 0.0
C2628 C -0.00014 0.56963 0.55185 0.0
C2629 C 0.99811 0.58476 0.54059 0.0
C2630 C 0.99402 0.60239 0.54921 0.0
H2631 H 0.94602 0.62948 0.55406 0.0
H2632 H 0.9656 0.62786 0.54011 0.0
H2633 H 0.95653 0.6079 0.55295 0.0
H2634 H 0.99018 0.59115 0.59555 0.0
H2635 H 0.99826 0.56073 0.58071 0.0
H2636 H 0.57159 0.7527 0.87785 0.0
H2637 H 0.60321 0.75475 0.86742 0.0
H2638 H 0.59116 0.79515 0.82773 0.0
H2639 H 0.55978 0.79354 0.83832 0.0
H2640 H 0.61346 0.74495 0.83082 0.0
H2641 H 0.64054 0.82295 0.85614 0.0
H2642 H 0.61934 0.81015 0.86395 0.0
H2643 H 0.6191 0.81905 0.84059 0.0
C2644 C 0.57575 0.76221 0.86709 0.0
C2645 C 0.56318 0.77303 0.85899 0.0
C2646 C 0.5938 0.76331 0.8611 0.0
C2647 C 0.59962 0.77528 0.84697 0.0
C2648 C 0.58713 0.78615 0.83895 0.0
H2649 H 0.69396 0.76657 0.77715 0.0
H2650 H 0.66263 0.76472 0.78845 0.0
C2651 C 0.56914 0.78514 0.84498 0.0
C2652 C 0.61849 0.77585 0.84006 0.0
H2653 H 0.65874 0.80663 0.83474 0.0
C2654 C 0.62341 0.75841 0.83175 0.0
C2655 C 0.6315 0.7934 0.84145 0.0
C2656 C 0.62746 0.81242 0.85119 0.0
C2657 C 0.64094 0.75809 0.8246 0.0
C2658 C 0.65371 0.77574 0.82542 0.0
C2659 C 0.64884 0.79314 0.83391 0.0
C2660 C 0.67254 0.77648 0.81834 0.0
C2661 C 0.64575 0.73879 0.81663 0.0
C2662 C 0.68846 0.78408 0.83125 0.0
C2663 C 0.70627 0.78538 0.8248 0.0
C2664 C 0.70858 0.77908 0.80526 0.0
C2665 C 0.69264 0.77142 0.7923 0.0
C2666 C 0.67474 0.77025 0.79878 0.0
H2667 H 0.63665 0.72638 0.82169 0.0
H2668 H 0.64374 0.73705 0.80046 0.0
H2669 H 0.66057 0.73805 0.82104 0.0
H2670 H 0.6871 0.789 0.8464 0.0
H2671 H 0.71824 0.7913 0.83519 0.0
H2672 H 0.40905 0.54187 0.70571 0.0
H2673 H 0.42923 0.54516 0.67906 0.0
H2674 H 0.43373 0.48447 0.6765 0.0
H2675 H 0.41372 0.48104 0.70323 0.0
H2676 H 0.46787 0.53487 0.68176 0.0
H2677 H 0.4204 0.49481 0.61846 0.0
H2678 H 0.41186 0.50542 0.64031 0.0
H2679 H 0.42075 0.48303 0.6402 0.0
C2680 C 0.41401 0.52911 0.69923 0.0
C2681 C 0.40979 0.51117 0.70661 0.0
C2682 C 0.42563 0.53107 0.68409 0.0
C2683 C 0.43294 0.51507 0.67588 0.0
C2684 C 0.42811 0.49696 0.68261 0.0
H2685 H 0.50359 0.48585 0.58851 0.0
H2686 H 0.48471 0.48766 0.61615 0.0
C2687 C 0.41667 0.49503 0.69787 0.0
C2688 C 0.4465 0.51741 0.66105 0.0
H2689 H 0.45256 0.50247 0.61377 0.0
C2690 C 0.46454 0.52798 0.66682 0.0
C2691 C 0.44203 0.50838 0.64165 0.0
C2692 C 0.42268 0.49737 0.63464 0.0
C2693 C 0.47854 0.52905 0.65382 0.0
C2694 C 0.47419 0.51961 0.6345 0.0
C2695 C 0.45593 0.50958 0.62863 0.0
C2696 C 0.48837 0.51913 0.62019 0.0
C2697 C 0.498 0.5396 0.66109 0.0
C2698 C 0.49739 0.53628 0.6138 0.0
C2699 C 0.50856 0.53526 0.59818 0.0
C2700 C 0.51053 0.51707 0.5886 0.0
C2701 C 0.50235 0.50004 0.59574 0.0
C2702 C 0.49146 0.50106 0.61143 0.0
H2703 H 0.50011 0.54197 0.67728 0.0
H2704 H 0.5087 0.53136 0.65549 0.0
H2705 H 0.50028 0.55405 0.65576 0.0
H2706 H 0.49494 0.55036 0.62011 0.0
H2707 H 0.51442 0.54856 0.59266 0.0
H2708 H 0.80568 0.18634 0.97414 0.0
H2709 H 0.79669 0.20878 0.95242 0.0
H2710 H 0.74148 0.20168 0.9723 0.0
H2711 H 0.75028 0.17875 0.99401 0.0
H2712 H 0.74037 0.19584 0.93307 0.0
H2713 H 0.78862 0.26441 0.95943 0.0
H2714 H 0.80133 0.24465 0.95622 0.0
H2715 H 0.78453 0.24468 0.9741 0.0
C2716 C 0.7917 0.18974 0.9742 0.0
C2717 C 0.77868 0.18062 0.98578 0.0
C2718 C 0.78663 0.20278 0.96188 0.0
C2719 C 0.76851 0.20721 0.96097 0.0
C2720 C 0.75561 0.19862 0.97292 0.0
H2721 H 0.72829 0.26047 0.85906 0.0
H2722 H 0.72904 0.25258 0.89281 0.0
C2723 C 0.76067 0.18551 0.98531 0.0
C2724 C 0.76266 0.21891 0.94581 0.0
H2725 H 0.77796 0.2595 0.92462 0.0
C2726 C 0.74818 0.21005 0.93151 0.0
C2727 C 0.77278 0.23749 0.94384 0.0
C2728 C 0.78754 0.24842 0.95936 0.0
C2729 C 0.7447 0.21847 0.91447 0.0
C2730 C 0.75592 0.23624 0.91178 0.0
C2731 C 0.76944 0.24582 0.92671 0.0
C2732 C 0.75592 0.24327 0.89245 0.0
C2733 C 0.73006 0.20761 0.89877 0.0
C2734 C 0.77097 0.24109 0.88138 0.0
C2735 C 0.77053 0.24542 0.86224 0.0
C2736 C 0.75508 0.25219 0.8538 0.0
C2737 C 0.74036 0.25526 0.86519 0.0
C2738 C 0.74074 0.25073 0.88441 0.0
H2739 H 0.72333 0.19334 0.90267 0.0
H2740 H 0.71905 0.21651 0.89628 0.0
H2741 H 0.73645 0.20507 0.88484 0.0
H2742 H 0.7828 0.23534 0.88734 0.0
H2743 H 0.78217 0.24306 0.85391 0.0
H2744 H 0.06652 0.45849 0.20632 0.0
H2745 H 0.05543 0.46154 0.17289 0.0
H2746 H 0.10705 0.49955 0.16693 0.0
H2747 H 0.11837 0.49653 0.20046 0.0
H2748 H 0.05106 0.49731 0.15911 0.0
H2749 H 0.09961 0.4593 0.11719 0.0
H2750 H 0.09606 0.45616 0.14226 0.0
H2751 H 0.11057 0.47771 0.13662 0.0
C2752 C 0.07565 0.46733 0.19787 0.0
C2753 C 0.09335 0.47729 0.20608 0.0
C2754 C 0.06925 0.46906 0.17876 0.0
C2755 C 0.08046 0.48063 0.16741 0.0
C2756 C 0.0983 0.4903 0.17537 0.0
H2757 H 0.06543 0.5166 0.0531 0.0
H2758 H 0.0768 0.51059 0.08547 0.0
C2759 C 0.10471 0.48861 0.19454 0.0
C2760 C 0.07297 0.48348 0.14769 0.0
H2761 H 0.07979 0.47608 0.09939 0.0
C2762 C 0.05726 0.49259 0.14602 0.0
C2763 C 0.08115 0.47734 0.13071 0.0
C2764 C 0.09769 0.46693 0.13166 0.0
C2765 C 0.0497 0.49612 0.12781 0.0
C2766 C 0.05786 0.48996 0.11079 0.0
C2767 C 0.07354 0.48076 0.11247 0.0
C2768 C 0.05069 0.49344 0.09113 0.0
C2769 C 0.03342 0.50693 0.12705 0.0
C2770 C 0.03225 0.48563 0.08347 0.0
C2771 C 0.02562 0.48917 0.06497 0.0
C2772 C 0.03741 0.5004 0.05374 0.0
C2773 C 0.05594 0.50795 0.06138 0.0
C2774 C 0.0625 0.50449 0.07987 0.0
H2775 H 0.03203 0.51499 0.14147 0.0
H2776 H 0.03493 0.51742 0.11617 0.0
H2777 H 0.02029 0.49633 0.1227 0.0
H2778 H 0.02301 0.47671 0.09175 0.0
H2779 H 0.01133 0.48302 0.05944 0.0
H2780 H 0.75157 0.85653 0.49551 0.0
H2781 H 0.74671 0.84145 0.46149 0.0
H2782 H 0.806 0.84162 0.46119 0.0
H2783 H 0.81078 0.85574 0.49536 0.0
H2784 H 0.75787 0.85399 0.43017 0.0
H2785 H 0.78734 0.78725 0.43749 0.0
H2786 H 0.78299 0.80308 0.4584 0.0
H2787 H 0.80422 0.80849 0.44667 0.0
C2788 C 0.76353 0.85316 0.48823 0.0
C2789 C 0.78153 0.85716 0.49818 0.0
C2790 C 0.76074 0.84453 0.46878 0.0
C2791 C 0.77592 0.83995 0.45882 0.0
C2792 C 0.79395 0.84431 0.46867 0.0
H2793 H 0.77408 0.82863 0.33274 0.0
H2794 H 0.77967 0.83917 0.36784 0.0
C2795 C 0.79669 0.85256 0.4882 0.0
C2796 C 0.77307 0.83165 0.43787 0.0
H2797 H 0.78376 0.79592 0.40503 0.0
C2798 C 0.76339 0.84117 0.42473 0.0
C2799 C 0.77993 0.81469 0.43072 0.0
C2800 C 0.789 0.80268 0.44411 0.0
C2801 C 0.76076 0.83455 0.40468 0.0
C2802 C 0.76874 0.8184 0.39737 0.0
C2803 C 0.77798 0.80853 0.41054 0.0
C2804 C 0.76736 0.81139 0.37615 0.0
C2805 C 0.74908 0.84474 0.39167 0.0
C2806 C 0.75985 0.79188 0.36912 0.0
C2807 C 0.75719 0.78566 0.34904 0.0
C2808 C 0.76182 0.79892 0.33567 0.0
C2809 C 0.77019 0.81817 0.34274 0.0
C2810 C 0.77319 0.82426 0.36279 0.0
H2811 H 0.73922 0.85214 0.4 0.0
H2812 H 0.75841 0.85604 0.3853 0.0
H2813 H 0.74089 0.83437 0.37959 0.0
H2814 H 0.75541 0.78162 0.37914 0.0
H2815 H 0.75064 0.77076 0.34399 0.0
H2816 H 0.4366 0.49755 0.79614 0.0
H2817 H 0.45292 0.4899 0.82574 0.0
H2818 H 0.41487 0.5162 0.86069 0.0
H2819 H 0.39865 0.52403 0.8314 0.0
H2820 H 0.47013 0.51866 0.85674 0.0
H2821 H 0.41675 0.46417 0.8826 0.0
H2822 H 0.41595 0.4695 0.85766 0.0
H2823 H 0.40768 0.48515 0.87624 0.0
C2824 C 0.43154 0.50145 0.81012 0.0
C2825 C 0.41626 0.51133 0.81141 0.0
C2826 C 0.44086 0.49703 0.82697 0.0
C2827 C 0.43489 0.5022 0.84532 0.0
C2828 C 0.41941 0.51168 0.84661 0.0
H2829 H 0.46273 0.52639 0.96462 0.0
H2830 H 0.44963 0.51821 0.93078 0.0
C2831 C 0.41019 0.51621 0.82983 0.0
C2832 C 0.44576 0.49957 0.86338 0.0
H2833 H 0.44069 0.48198 0.90693 0.0
C2834 C 0.46394 0.51027 0.86759 0.0
C2835 C 0.43759 0.48855 0.87737 0.0
C2836 C 0.41848 0.47603 0.87319 0.0
C2837 C 0.47361 0.5115 0.88608 0.0
C2838 C 0.46493 0.50146 0.90051 0.0
C2839 C 0.44726 0.48972 0.89584 0.0
C2840 C 0.47279 0.50502 0.92114 0.0
C2841 C 0.49244 0.5246 0.89044 0.0
C2842 C 0.49007 0.50005 0.92697 0.0
C2843 C 0.49771 0.50484 0.94639 0.0
C2844 C 0.4881 0.51458 0.9602 0.0
C2845 C 0.47056 0.519 0.95434 0.0
C2846 C 0.46299 0.51426 0.93502 0.0
H2847 H 0.49587 0.53359 0.87856 0.0
H2848 H 0.49285 0.53446 0.90424 0.0
H2849 H 0.50346 0.51557 0.89228 0.0
H2850 H 0.4977 0.49267 0.9165 0.0
H2851 H 0.51119 0.50112 0.95052 0.0
H2852 H 0.83685 0.19158 0.05533 0.0
H2853 H 0.84178 0.21521 0.08513 0.0
H2854 H 0.80652 0.17419 0.11432 0.0
H2855 H 0.80164 0.15083 0.08493 0.0
H2856 H 0.81199 0.22974 0.10015 0.0
H2857 H 0.8477 0.19656 0.15715 0.0
H2858 H 0.8484 0.18893 0.13144 0.0
H2859 H 0.8289 0.17912 0.14408 0.0
C2860 C 0.83077 0.18743 0.06837 0.0
C2861 C 0.81885 0.16943 0.06788 0.0
C2862 C 0.83351 0.20093 0.08532 0.0
C2863 C 0.8247 0.19638 0.10203 0.0
C2864 C 0.81382 0.1779 0.10181 0.0
H2865 H 0.76658 0.22977 0.19212 0.0
H2866 H 0.78287 0.21689 0.16545 0.0
C2867 C 0.81092 0.16459 0.08494 0.0
C2868 C 0.82414 0.21149 0.11865 0.0
H2869 H 0.82512 0.2169 0.16829 0.0
C2870 C 0.81548 0.22739 0.11509 0.0
C2871 C 0.82872 0.20844 0.13812 0.0
C2872 C 0.83913 0.19243 0.1429 0.0
C2873 C 0.80961 0.23911 0.13043 0.0
C2874 C 0.81259 0.2348 0.14972 0.0
C2875 C 0.8227 0.22002 0.15342 0.0
C2876 C 0.80291 0.24334 0.1657 0.0
C2877 C 0.79889 0.25495 0.12587 0.0
C2878 C 0.80872 0.26259 0.17453 0.0
C2879 C 0.7994 0.27008 0.1899 0.0
C2880 C 0.78415 0.25837 0.19659 0.0
C2881 C 0.77825 0.23921 0.18739 0.0
C2882 C 0.78759 0.23177 0.17218 0.0
H2883 H 0.79741 0.2562 0.11001 0.0
H2884 H 0.78473 0.252 0.13102 0.0
H2885 H 0.80617 0.26914 0.13375 0.0
H2886 H 0.82056 0.27171 0.16971 0.0
H2887 H 0.80432 0.28487 0.19672 0.0
H2888 H 0.10765 0.49425 0.33344 0.0
H2889 H 0.093 0.50713 0.36143 0.0
H2890 H 0.05514 0.53015 0.32323 0.0
H2891 H 0.06997 0.51748 0.2949 0.0
H2892 H 0.08743 0.5497 0.371 0.0
H2893 H 0.02279 0.49314 0.35865 0.0
H2894 H 0.04421 0.48855 0.34889 0.0
H2895 H 0.03139 0.50531 0.33867 0.0
C2896 C 0.09638 0.50223 0.33091 0.0
C2897 C 0.09009 0.50497 0.31193 0.0
C2898 C 0.08799 0.50953 0.34694 0.0
C2899 C 0.07304 0.51955 0.34433 0.0
C2900 C 0.06666 0.52239 0.32546 0.0
H2901 H 0.01296 0.54148 0.44856 0.0
H2902 H 0.0204 0.54365 0.41471 0.0
C2903 C 0.07515 0.51516 0.30935 0.0
C2904 C 0.06414 0.52655 0.3616 0.0
H2905 H 0.02853 0.51252 0.38911 0.0
C2906 C 0.07433 0.5419 0.3748 0.0
C2907 C 0.04696 0.51647 0.36635 0.0
C2908 C 0.03559 0.4999 0.35249 0.0
C2909 C 0.06835 0.54662 0.39325 0.0
C2910 C 0.05203 0.53539 0.39869 0.0
C2911 C 0.04107 0.52106 0.3849 0.0
C2912 C 0.04788 0.53606 0.41931 0.0
C2913 C 0.08001 0.56303 0.40707 0.0
C2914 C 0.0608 0.53098 0.43297 0.0
C2915 C 0.05658 0.5296 0.45209 0.0
C2916 C 0.03929 0.53321 0.45799 0.0
C2917 C 0.02643 0.5387 0.44443 0.0
C2918 C 0.03064 0.53994 0.42514 0.0
H2919 H 0.08762 0.57417 0.39896 0.0
H2920 H 0.07125 0.57018 0.41711 0.0
H2921 H 0.09058 0.55716 0.41592 0.0
H2922 H 0.074 0.52748 0.42868 0.0
H2923 H 0.06681 0.52537 0.46216 0.0
H2924 H 0.78616 0.82585 0.58894 0.0
H2925 H 0.77367 0.8042 0.61164 0.0
H2926 H 0.72221 0.82709 0.60874 0.0
H2927 H 0.73481 0.84927 0.58618 0.0
H2928 H 0.7364 0.82892 0.64538 0.0
H2929 H 0.73659 0.75482 0.60951 0.0
H2930 H 0.75889 0.76979 0.6087 0.0
H2931 H 0.73834 0.77562 0.59615 0.0
C2932 C 0.77203 0.82607 0.59276 0.0
C2933 C 0.76157 0.83948 0.58582 0.0
C2934 C 0.7648 0.81346 0.60564 0.0
C2935 C 0.74687 0.81375 0.61172 0.0
C2936 C 0.73603 0.82648 0.60414 0.0
H2937 H 0.71952 0.74453 0.70931 0.0
H2938 H 0.71466 0.75592 0.67723 0.0
C2939 C 0.74327 0.83917 0.59124 0.0
C2940 C 0.7408 0.80285 0.62801 0.0
H2941 H 0.74092 0.75914 0.64531 0.0
C2942 C 0.73686 0.81352 0.64515 0.0
C2943 C 0.74111 0.78269 0.62776 0.0
C2944 C 0.74376 0.77005 0.60943 0.0
C2945 C 0.73489 0.80502 0.66242 0.0
C2946 C 0.73715 0.78543 0.66264 0.0
C2947 C 0.73944 0.77425 0.64516 0.0
C2948 C 0.74 0.77746 0.68131 0.0
C2949 C 0.7314 0.81738 0.6806 0.0
C2950 C 0.75605 0.78543 0.69385 0.0
C2951 C 0.75888 0.77898 0.71191 0.0
C2952 C 0.74572 0.76434 0.71795 0.0
C2953 C 0.72988 0.75585 0.70511 0.0
C2954 C 0.72707 0.76235 0.68683 0.0
H2955 H 0.72461 0.82976 0.67699 0.0
H2956 H 0.72245 0.8086 0.68986 0.0
H2957 H 0.74496 0.82346 0.68922 0.0
H2958 H 0.76635 0.79687 0.68971 0.0
H2959 H 0.77134 0.78576 0.72128 0.0
H2960 H 0.71073 0.41665 0.56019 0.0
H2961 H 0.68569 0.43594 0.56122 0.0
H2962 H 0.67653 0.42616 0.49841 0.0
H2963 H 0.70136 0.40654 0.49725 0.0
H2964 H 0.68502 0.4698 0.54513 0.0
H2965 H 0.62371 0.41413 0.51431 0.0
H2966 H 0.64571 0.40782 0.52276 0.0
H2967 H 0.64268 0.41568 0.49908 0.0
C2968 C 0.70319 0.41832 0.54659 0.0
C2969 C 0.70803 0.41003 0.52863 0.0
C2970 C 0.68893 0.42942 0.54722 0.0
C2971 C 0.67916 0.43239 0.52992 0.0
C2972 C 0.68365 0.42376 0.51197 0.0
H2973 H 0.59614 0.50029 0.49831 0.0
H2974 H 0.62245 0.48281 0.49961 0.0
C2975 C 0.69788 0.41258 0.51133 0.0
C2976 C 0.66502 0.44539 0.53061 0.0
H2977 H 0.61941 0.4472 0.51697 0.0
C2978 C 0.67063 0.46484 0.53911 0.0
C2979 C 0.64626 0.43887 0.52278 0.0
C2980 C 0.63915 0.41794 0.51439 0.0
C2981 C 0.65807 0.47806 0.53954 0.0
C2982 C 0.63944 0.47159 0.53139 0.0
C2983 C 0.63378 0.45212 0.52309 0.0
C2984 C 0.62548 0.48473 0.53108 0.0
C2985 C 0.66489 0.49893 0.54825 0.0
C2986 C 0.61885 0.49211 0.54842 0.0
C2987 C 0.60378 0.50219 0.54775 0.0
C2988 C 0.59506 0.50487 0.5297 0.0
C2989 C 0.60249 0.4984 0.51245 0.0
C2990 C 0.6175 0.48837 0.51314 0.0
H2991 H 0.6804 0.50247 0.55046 0.0
H2992 H 0.65974 0.50903 0.53876 0.0
H2993 H 0.65933 0.50148 0.56264 0.0
H2994 H 0.62471 0.48925 0.56241 0.0
H2995 H 0.59828 0.50684 0.56128 0.0
H2996 H 0.21391 0.11743 0.5036 0.0
H2997 H 0.18122 0.1026 0.50479 0.0
H2998 H 0.18626 0.05825 0.45803 0.0
H2999 H 0.21899 0.07283 0.45682 0.0
H3000 H 0.15034 0.09382 0.47513 0.0
H3001 H 0.16907 0.02749 0.50292 0.0
H3002 H 0.18595 0.04945 0.50305 0.0
H3003 H 0.1787 0.03343 0.48074 0.0
C3004 C 0.20804 0.10461 0.49346 0.0
C3005 C 0.21911 0.09619 0.48025 0.0
C3006 C 0.18936 0.09618 0.49415 0.0
C3007 C 0.18147 0.07917 0.48172 0.0
C3008 C 0.19223 0.07118 0.46798 0.0
H3009 H 0.0727 0.00405 0.48135 0.0
H3010 H 0.10362 0.01839 0.47277 0.0
C3011 C 0.2109 0.07959 0.46727 0.0
C3012 C 0.16215 0.0695 0.48359 0.0
H3013 H 0.13697 0.02851 0.49718 0.0
C3014 C 0.14738 0.07952 0.47987 0.0
C3015 C 0.15839 0.0508 0.48971 0.0
C3016 C 0.17384 0.03967 0.4945 0.0
C3017 C 0.12887 0.07135 0.48222 0.0
C3018 C 0.12516 0.05286 0.48881 0.0
C3019 C 0.13989 0.04266 0.49209 0.0
C3020 C 0.1063 0.04437 0.49353 0.0
C3021 C 0.11345 0.08256 0.47758 0.0
C3022 C 0.09777 0.05409 0.50825 0.0
C3023 C 0.08022 0.04597 0.51319 0.0
C3024 C 0.07087 0.02787 0.5036 0.0
C3025 C 0.07952 0.01803 0.48898 0.0
C3026 C 0.09715 0.0262 0.48404 0.0
H3027 H 0.11765 0.09329 0.46739 0.0
H3028 H 0.10048 0.07263 0.47103 0.0
H3029 H 0.11026 0.0907 0.49125 0.0
H3030 H 0.1048 0.0679 0.51608 0.0
H3031 H 0.07401 0.05391 0.52458 0.0
H3032 H 0.19022 0.96723 0.82151 0.0
H3033 H 0.21163 0.94661 0.80906 0.0
H3034 H 0.19523 0.9559 0.75022 0.0
H3035 H 0.17326 0.97614 0.76254 0.0
H3036 H 0.19236 0.91876 0.75281 0.0
H3037 H 0.2616 0.95406 0.7883 0.0
H3038 H 0.24528 0.95119 0.80633 0.0
H3039 H 0.24184 0.96661 0.7877 0.0
C3040 C 0.19141 0.96524 0.80594 0.0
C3041 C 0.17991 0.97323 0.79302 0.0
C3042 C 0.20384 0.95357 0.79884 0.0
C3043 C 0.20533 0.94995 0.77871 0.0
C3044 C 0.19443 0.95859 0.76582 0.0
H3045 H 0.25424 0.84894 0.73055 0.0
H3046 H 0.247 0.8821 0.73174 0.0
C3047 C 0.18183 0.97011 0.7729 0.0
C3048 C 0.21624 0.93508 0.77116 0.0
H3049 H 0.25718 0.91852 0.78022 0.0
C3050 C 0.20674 0.919 0.7583 0.0
C3051 C 0.23505 0.93541 0.77821 0.0
C3052 C 0.24656 0.95288 0.79072 0.0
C3053 C 0.21497 0.90255 0.7537 0.0
C3054 C 0.23315 0.90224 0.76214 0.0
C3055 C 0.24319 0.91882 0.77384 0.0
C3056 C 0.2404 0.88377 0.76177 0.0
C3057 C 0.20367 0.88501 0.74106 0.0
C3058 C 0.23953 0.87412 0.77838 0.0
C3059 C 0.24342 0.85531 0.77769 0.0
C3060 C 0.24845 0.84585 0.76041 0.0
C3061 C 0.2504 0.85594 0.74405 0.0
C3062 C 0.24627 0.8748 0.7447 0.0
H3063 H 0.18944 0.8874 0.73619 0.0
H3064 H 0.21099 0.88151 0.72796 0.0
H3065 H 0.20232 0.87218 0.74921 0.0
H3066 H 0.23498 0.88083 0.79166 0.0
H3067 H 0.24198 0.84796 0.79058 0.0
H3068 H 0.29518 0.9495 0.99078 0.0
H3069 H 0.32554 0.96535 0.982 0.0
H3070 H 0.35087 0.91798 -0.00024 0.0
H3071 H 0.32101 0.90237 0.00888 0.0
H3072 H 0.35838 0.97515 0.01098 0.0
H3073 H 0.37072 0.92746 0.94567 0.0
H3074 H 0.34757 0.929 0.95292 0.0
H3075 H 0.36183 0.91433 0.96481 0.0
C3076 C 0.30717 0.94232 0.99251 0.0
C3077 C 0.30564 0.92462 0.00051 0.0
C3078 C 0.32445 0.95138 0.98745 0.0
C3079 C 0.34031 0.94264 0.98994 0.0
C3080 C 0.33868 0.92473 0.99735 0.0
H3081 H 0.45242 0.94798 0.01001 0.0
H3082 H 0.41935 0.94172 0.99861 0.0
C3083 C 0.32156 0.91585 0.00266 0.0
C3084 C 0.35911 0.95296 0.98712 0.0
H3085 H 0.39821 0.94569 0.96512 0.0
C3086 C 0.36704 0.96916 0.00058 0.0
C3087 C 0.37023 0.94504 0.97351 0.0
C3088 C 0.36212 0.9281 0.95827 0.0
C3089 C 0.38629 0.97649 0.0021 0.0
C3090 C 0.39773 0.96759 0.98943 0.0
C3091 C 0.38944 0.95246 0.97484 0.0
C3092 C 0.41836 0.97137 0.99333 0.0
C3093 C 0.39442 0.9925 0.01837 0.0
C3094 C 0.42899 0.99 0.99348 0.0
C3095 C 0.448 0.9937 0.00024 0.0
C3096 C 0.45661 0.97876 0.00678 0.0
C3097 C 0.44619 0.95986 0.00529 0.0
C3098 C 0.42727 0.95623 0.99867 0.0
H3099 H 0.38396 0.99573 0.02862 0.0
H3100 H 0.40646 0.98846 0.02679 0.0
H3101 H 0.39953 0.00601 0.01206 0.0
H3102 H 0.42246 0.0018 0.98904 0.0
H3103 H 0.45572 0.00838 0.00106 0.0
H3104 H 0.8462 0.55877 0.74399 0.0
H3105 H 0.82123 0.57744 0.7381 0.0
H3106 H 0.82123 0.59326 0.80006 0.0
H3107 H 0.84606 0.57456 0.80619 0.0
H3108 H 0.78448 0.581 0.77867 0.0
H3109 H 0.83057 0.63791 0.74604 0.0
H3110 H 0.82955 0.61304 0.73571 0.0
H3111 H 0.83984 0.62102 0.76022 0.0
C3112 C 0.84089 0.56616 0.75638 0.0
C3113 C 0.84828 0.56528 0.77557 0.0
C3114 C 0.82663 0.57684 0.75298 0.0
C3115 C 0.81954 0.58684 0.76865 0.0
C3116 C 0.82655 0.58563 0.78778 0.0
H3117 H 0.75519 0.67096 0.80197 0.0
H3118 H 0.76841 0.64132 0.79718 0.0
C3119 C 0.8408 0.57499 0.79122 0.0
C3120 C 0.80533 0.59923 0.76527 0.0
H3121 H 0.79992 0.64265 0.74999 0.0
C3122 C 0.78773 0.59438 0.77218 0.0
C3123 C 0.80958 0.61654 0.75663 0.0
C3124 C 0.82843 0.62261 0.74931 0.0
C3125 C 0.77445 0.60674 0.77126 0.0
C3126 C 0.77909 0.62458 0.76359 0.0
C3127 C 0.79634 0.62893 0.7558 0.0
C3128 C 0.76752 0.64008 0.76575 0.0
C3129 C 0.75572 0.60072 0.77878 0.0
C3130 C 0.76233 0.64918 0.74964 0.0
C3131 C 0.75487 0.66633 0.75237 0.0
C3132 C 0.75269 0.67474 0.77129 0.0
C3133 C 0.75672 0.66488 0.78722 0.0
C3134 C 0.76415 0.64779 0.78448 0.0
H3135 H 0.75174 0.5846 0.77716 0.0
H3136 H 0.75657 0.60613 0.79456 0.0
H3137 H 0.74455 0.60679 0.77103 0.0
H3138 H 0.76493 0.64353 0.73507 0.0
H3139 H 0.75197 0.67361 0.73981 0.0
H3140 H 0.80781 0.58009 0.02781 0.0
H3141 H 0.83476 0.56443 0.03501 0.0
H3142 H 0.87072 0.61045 0.01275 0.0
H3143 H 0.84404 0.62627 0.00577 0.0
H3144 H 0.8558 0.55057 0.00772 0.0
H3145 H 0.90151 0.60478 0.062 0.0
H3146 H 0.87706 0.60567 0.05646 0.0
H3147 H 0.89424 0.6157 0.04122 0.0
C3148 C 0.82153 0.5871 0.02485 0.0
C3149 C 0.82379 0.60446 0.01624 0.0
C3150 C 0.8369 0.57811 0.02896 0.0
C3151 C 0.85479 0.5864 0.02468 0.0
C3152 C 0.85714 0.60404 0.01665 0.0
H3153 H 0.95694 0.56157 0.99364 0.0
H3154 H 0.92786 0.57247 0.00101 0.0
C3155 C 0.84182 0.61303 0.01256 0.0
C3156 C 0.87069 0.57576 0.02653 0.0
H3157 H 0.91702 0.58233 0.04251 0.0
C3158 C 0.86906 0.55727 0.01575 0.0
C3159 C 0.88795 0.58447 0.0371 0.0
C3160 C 0.89024 0.60366 0.05001 0.0
C3161 C 0.88462 0.54794 0.01408 0.0
C3162 C 0.90215 0.55734 0.02348 0.0
C3163 C 0.90354 0.57524 0.03523 0.0
C3164 C 0.91956 0.55012 0.01925 0.0
C3165 C 0.88258 0.5287 0.00129 0.0
C3166 C 0.92443 0.53383 0.02704 0.0
C3167 C 0.94117 0.52751 0.02288 0.0
C3168 C 0.95318 0.53739 0.01082 0.0
C3169 C 0.94804 0.55358 0.00295 0.0
C3170 C 0.93145 0.5599 0.00718 0.0
H3171 H 0.86809 0.52366 0.99435 0.0
H3172 H 0.89228 0.52998 0.98967 0.0
H3173 H 0.88644 0.51748 0.01014 0.0
H3174 H 0.91538 0.52616 0.03645 0.0
H3175 H 0.94477 0.51503 0.02921 0.0
H3176 H 0.16408 0.05206 0.77985 0.0
H3177 H 0.1808 0.08402 0.77514 0.0
H3178 H 0.18199 0.1031 0.83675 0.0
H3179 H 0.16619 0.07065 0.84169 0.0
H3180 H 0.17178 0.11756 0.7793 0.0
H3181 H 0.23513 0.12131 0.82974 0.0
H3182 H 0.21814 0.09929 0.82351 0.0
H3183 H 0.2143 0.11794 0.84214 0.0
C3184 C 0.16799 0.06304 0.79242 0.0
C3185 C 0.1639 0.05886 0.81116 0.0
C3186 C 0.17757 0.08132 0.78972 0.0
C3187 C 0.18301 0.09595 0.80563 0.0
C3188 C 0.17854 0.09192 0.82433 0.0
H3189 H 0.20858 0.21768 0.78749 0.0
H3190 H 0.19408 0.18569 0.7946 0.0
C3191 C 0.16934 0.07343 0.82712 0.0
C3192 C 0.19265 0.11555 0.80234 0.0
H3193 H 0.23058 0.15099 0.81784 0.0
C3194 C 0.18472 0.12478 0.78766 0.0
C3195 C 0.20973 0.12491 0.81298 0.0
C3196 C 0.21992 0.11525 0.82781 0.0
C3197 C 0.19324 0.14303 0.78339 0.0
C3198 C 0.20973 0.15287 0.79475 0.0
C3199 C 0.2178 0.1436 0.80931 0.0
C3200 C 0.2189 0.17269 0.79163 0.0
C3201 C 0.18469 0.15123 0.76631 0.0
C3202 C 0.23799 0.17643 0.78869 0.0
C3203 C 0.2465 0.19496 0.78526 0.0
C3204 C 0.23598 0.20998 0.78444 0.0
C3205 C 0.21699 0.20632 0.78777 0.0
C3206 C 0.20863 0.18796 0.79166 0.0
H3207 H 0.17642 0.13949 0.7555 0.0
H3208 H 0.17502 0.16091 0.77162 0.0
H3209 H 0.19556 0.15975 0.75876 0.0
H3210 H 0.24626 0.16493 0.78873 0.0
H3211 H 0.26117 0.19739 0.78276 0.0
H3212 H 0.35893 0.97684 0.26619 0.0
H3213 H 0.3427 0.94307 0.26072 0.0
H3214 H 0.32968 0.94693 0.32059 0.0
H3215 H 0.34593 0.98073 0.32632 0.0
H3216 H 0.34468 0.9131 0.30711 0.0
H3217 H 0.28524 0.92442 0.2573 0.0
H3218 H 0.30796 0.9342 0.25063 0.0
H3219 H 0.30008 0.94418 0.27296 0.0
C3220 C 0.35261 0.97056 0.27822 0.0
C3221 C 0.3537 0.98156 0.29669 0.0
C3222 C 0.34325 0.95129 0.27502 0.0
C3223 C 0.33478 0.94264 0.29018 0.0
C3224 C 0.33603 0.95342 0.30868 0.0
H3225 H 0.26009 0.82961 0.27511 0.0
H3226 H 0.27366 0.86403 0.28493 0.0
C3227 C 0.34532 0.97274 0.3119 0.0
C3228 C 0.32503 0.92216 0.28682 0.0
H3229 H 0.28871 0.89157 0.25958 0.0
C3230 C 0.33236 0.90839 0.29684 0.0
C3231 C 0.30883 0.91615 0.2736 0.0
C3232 C 0.29992 0.93051 0.26311 0.0
C3233 C 0.32427 0.8886 0.29347 0.0
C3234 C 0.30856 0.88248 0.27962 0.0
C3235 C 0.30084 0.89633 0.2701 0.0
C3236 C 0.30046 0.86165 0.27418 0.0
C3237 C 0.33262 0.87437 0.30467 0.0
C3238 C 0.311 0.84905 0.26474 0.0
C3239 C 0.30331 0.82949 0.25904 0.0
C3240 C 0.28489 0.82216 0.26266 0.0
C3241 C 0.27433 0.83482 0.27216 0.0
C3242 C 0.28204 0.85445 0.27776 0.0
H3243 H 0.34141 0.88181 0.31804 0.0
H3244 H 0.3215 0.8632 0.3089 0.0
H3245 H 0.34161 0.86679 0.29529 0.0
H3246 H 0.32514 0.85441 0.26157 0.0
H3247 H 0.31181 0.82015 0.25175 0.0
H3248 H 0.52964 0.32265 0.61596 0.0
H3249 H 0.5359 0.34959 0.59666 0.0
H3250 H 0.48383 0.32836 0.56117 0.0
H3251 H 0.4772 0.3015 0.58065 0.0
H3252 H 0.53833 0.353 0.55681 0.0
H3253 H 0.47762 0.38269 0.585 0.0
H3254 H 0.48668 0.36317 0.59511 0.0
H3255 H 0.47256 0.35845 0.57215 0.0
C3256 C 0.51961 0.32349 0.60389 0.0
C3257 C 0.50275 0.31008 0.60009 0.0
C3258 C 0.52324 0.3389 0.59283 0.0
C3259 C 0.51015 0.34117 0.57776 0.0
C3260 C 0.49393 0.32708 0.57302 0.0
H3261 H 0.51244 0.45213 0.52932 0.0
H3262 H 0.50422 0.41709 0.5313 0.0
C3263 C 0.49021 0.31171 0.58415 0.0
C3264 C 0.51292 0.35916 0.56826 0.0
H3265 H 0.49649 0.40177 0.56602 0.0
C3266 C 0.52905 0.36356 0.55855 0.0
C3267 C 0.50073 0.37288 0.57052 0.0
C3268 C 0.48349 0.36922 0.58137 0.0
C3269 C 0.53369 0.38164 0.55169 0.0
C3270 C 0.52202 0.3957 0.55487 0.0
C3271 C 0.50537 0.3909 0.56358 0.0
C3272 C 0.52794 0.41621 0.5517 0.0
C3273 C 0.55129 0.38571 0.54153 0.0
C3274 C 0.54392 0.42725 0.56256 0.0
C3275 C 0.54854 0.44716 0.5616 0.0
C3276 C 0.53722 0.45647 0.54978 0.0
C3277 C 0.52144 0.44533 0.53852 0.0
C3278 C 0.51675 0.42535 0.5396 0.0
H3279 H 0.55512 0.37203 0.53458 0.0
H3280 H 0.5497 0.39549 0.53021 0.0
H3281 H 0.56301 0.39293 0.55242 0.0
H3282 H 0.5525 0.42058 0.57233 0.0
H3283 H 0.56082 0.45532 0.57041 0.0
H3284 H 0.45276 0.75622 0.33621 0.0
H3285 H 0.42287 0.76089 0.32061 0.0
H3286 H 0.39386 0.71597 0.35049 0.0
H3287 H 0.42363 0.71163 0.36659 0.0
H3288 H 0.39637 0.73633 0.29633 0.0
H3289 H 0.36639 0.76022 0.36442 0.0
H3290 H 0.39071 0.7581 0.36388 0.0
H3291 H 0.37327 0.73682 0.36437 0.0
C3292 C 0.44 0.74741 0.33954 0.0
C3293 C 0.44051 0.73371 0.35279 0.0
C3294 C 0.42294 0.75005 0.33057 0.0
C3295 C 0.40611 0.739 0.33463 0.0
C3296 C 0.40663 0.72501 0.34753 0.0
H3297 H 0.29768 0.72891 0.26732 0.0
H3298 H 0.32852 0.72344 0.27985 0.0
C3299 C 0.42366 0.7225 0.35667 0.0
C3300 C 0.38803 0.74213 0.32532 0.0
H3301 H 0.34575 0.75368 0.33544 0.0
C3302 C 0.3853 0.7402 0.30486 0.0
C3303 C 0.37372 0.74741 0.33648 0.0
C3304 C 0.3762 0.75096 0.3585 0.0
C3305 C 0.36858 0.7433 0.29525 0.0
C3306 C 0.35405 0.74798 0.30642 0.0
C3307 C 0.35684 0.74995 0.32687 0.0
C3308 C 0.33603 0.7516 0.29742 0.0
C3309 C 0.36685 0.74202 0.27329 0.0
C3310 C 0.32994 0.76915 0.30321 0.0
C3311 C 0.31228 0.77213 0.29639 0.0
C3312 C 0.30036 0.75767 0.28349 0.0
C3313 C 0.30666 0.74036 0.27712 0.0
C3314 C 0.32431 0.73726 0.2842 0.0
H3315 H 0.38077 0.74382 0.26747 0.0
H3316 H 0.35898 0.72747 0.267 0.0
H3317 H 0.35918 0.75325 0.26825 0.0
H3318 H 0.33874 0.78044 0.31336 0.0
H3319 H 0.30786 0.78569 0.30146 0.0
H3320 H 0.02946 0.72731 0.12309 0.0
H3321 H 0.03937 0.6987 0.10615 0.0
H3322 H 0.98166 0.67311 0.08894 0.0
H3323 H 0.97169 0.70176 0.10525 0.0
H3324 H 0.03308 0.66174 0.11215 0.0
H3325 H 0.00329 0.66623 0.03766 0.0
H3326 H 0.0052 0.68606 0.0571 0.0
H3327 H 0.98556 0.66631 0.05428 0.0
C3328 C 0.01889 0.71564 0.11559 0.0
C3329 C -0.00022 0.7169 0.11541 0.0
C3330 C 0.02458 0.69931 0.10589 0.0
C3331 C 0.01129 0.68395 0.09586 0.0
C3332 C 0.99221 0.68504 0.096 0.0
H3333 H 0.00829 0.56357 0.07438 0.0
H3334 H 0.01177 0.59757 0.08778 0.0
C3335 C 0.98652 0.7014 0.10549 0.0
C3336 C 0.01713 0.66626 0.08612 0.0
H3337 H 0.00868 0.63431 0.04426 0.0
C3338 C 0.02804 0.65592 0.09718 0.0
C3339 C 0.01105 0.65888 0.06642 0.0
C3340 C 0.00082 0.6701 0.05314 0.0
C3341 C 0.03187 0.63775 0.08951 0.0
C3342 C 0.02412 0.62947 0.07049 0.0
C3343 C 0.01438 0.64046 0.05896 0.0
C3344 C 0.02421 0.60881 0.06299 0.0
C3345 C 0.04394 0.62754 0.10203 0.0
C3346 C 0.0298 0.60366 0.04439 0.0
C3347 C 0.0275 0.58406 0.03646 0.0
C3348 C 0.01952 0.56931 0.047 0.0
C3349 C 0.01457 0.57452 0.06587 0.0
C3350 C 0.01673 0.59403 0.07368 0.0
H3351 H 0.05437 0.63823 0.11199 0.0
H3352 H 0.03501 0.6187 0.11123 0.0
H3353 H 0.05148 0.61779 0.09306 0.0
H3354 H 0.03547 0.61482 0.0358 0.0
H3355 H 0.03141 0.58051 0.02187 0.0
H3356 H 0.04967 0.20554 0.84935 0.0
H3357 H 0.08048 0.21674 0.83891 0.0
H3358 H 0.07801 0.27553 0.86316 0.0
H3359 H 0.04727 0.26437 0.87405 0.0
H3360 H 0.08932 0.24338 0.81331 0.0
H3361 H 0.1292 0.26808 0.88582 0.0
H3362 H 0.10629 0.2531 0.88302 0.0
H3363 H 0.10874 0.27873 0.8813 0.0
C3364 C 0.05574 0.22082 0.85267 0.0
C3365 C 0.04604 0.23405 0.86258 0.0
C3366 C 0.07333 0.22721 0.84663 0.0
C3367 C 0.08158 0.24694 0.85035 0.0
C3368 C 0.07204 0.26019 0.86042 0.0
H3369 H 0.18138 0.28568 0.78965 0.0
H3370 H 0.15028 0.28467 0.80152 0.0
C3371 C 0.05446 0.25378 0.86659 0.0
C3372 C 0.09995 0.25349 0.84315 0.0
H3373 H 0.14565 0.27242 0.85815 0.0
C3374 C 0.10163 0.24988 0.82307 0.0
C3375 C 0.11594 0.26196 0.85596 0.0
C3376 C 0.11509 0.26559 0.87774 0.0
C3377 C 0.11902 0.25385 0.81549 0.0
C3378 C 0.13507 0.26202 0.82833 0.0
C3379 C 0.13327 0.26629 0.84833 0.0
C3380 C 0.15413 0.26397 0.82175 0.0
C3381 C 0.1202 0.24831 0.79397 0.0
C3382 C 0.16672 0.25314 0.82957 0.0
C3383 C 0.18441 0.25381 0.82299 0.0
C3384 C 0.18993 0.26534 0.80839 0.0
C3385 C 0.17747 0.27656 0.80081 0.0
C3386 C 0.15969 0.27594 0.80751 0.0
H3387 H 0.10718 0.23886 0.78682 0.0
H3388 H 0.1225 0.2617 0.78672 0.0
H3389 H 0.13212 0.24055 0.79158 0.0
H3390 H 0.16271 0.2438 0.84054 0.0
H3391 H 0.19363 0.245 0.8292 0.0
H3392 H 0.52945 0.71108 0.91681 0.0
H3393 H 0.53609 0.6865 0.9375 0.0
H3394 H 0.48698 0.69286 0.96715 0.0
H3395 H 0.48006 0.71719 0.94645 0.0
H3396 H 0.54089 0.68633 0.97911 0.0
H3397 H 0.4778 0.63505 0.94396 0.0
H3398 H 0.48728 0.65681 0.93392 0.0
H3399 H 0.47356 0.65836 0.9544 0.0
C3400 C 0.52018 0.70743 0.92788 0.0
C3401 C 0.50406 0.7159 0.92975 0.0
C3402 C 0.52401 0.6934 0.9397 0.0
C3403 C 0.51182 0.68764 0.95358 0.0
C3404 C 0.49635 0.69685 0.95625 0.0
H3405 H 0.50419 0.58647 0.01719 0.0
H3406 H 0.5003 0.61828 0.00772 0.0
C3407 C 0.49245 0.71078 0.94441 0.0
C3408 C 0.51462 0.67115 0.96438 0.0
H3409 H 0.49519 0.62451 0.96938 0.0
C3410 C 0.53089 0.67282 0.97707 0.0
C3411 C 0.5015 0.65358 0.96169 0.0
C3412 C 0.48412 0.65068 0.94765 0.0
C3413 C 0.53441 0.65732 0.98714 0.0
C3414 C 0.52146 0.63963 0.98415 0.0
C3415 C 0.50502 0.63813 0.97176 0.0
C3416 C 0.52524 0.62191 0.99236 0.0
C3417 C 0.55193 0.66001 0.00091 0.0
C3418 C 0.54065 0.61355 0.98706 0.0
C3419 C 0.54289 0.59543 0.99242 0.0
C3420 C 0.52968 0.58524 0.00307 0.0
C3421 C 0.51462 0.59397 0.00903 0.0
C3422 C 0.51238 0.61212 0.00362 0.0
H3423 H 0.55707 0.67564 0.00628 0.0
H3424 H 0.54952 0.65193 0.01364 0.0
H3425 H 0.56308 0.65438 0.99308 0.0
H3426 H 0.55052 0.62061 0.97802 0.0
H3427 H 0.55465 0.58912 0.98759 0.0
H3428 H 0.04241 0.73122 0.6839 0.0
H3429 H 0.0753 0.73087 0.69402 0.0
H3430 H 0.09064 0.78851 0.67786 0.0
H3431 H 0.05787 0.78906 0.66775 0.0
H3432 H 0.1078 0.73674 0.67176 0.0
H3433 H 0.11153 0.79246 0.73621 0.0
H3434 H 0.08963 0.77925 0.72392 0.0
H3435 H 0.10233 0.79931 0.71371 0.0
C3436 C 0.05279 0.7438 0.68243 0.0
C3437 C 0.04751 0.76024 0.67516 0.0
C3438 C 0.07155 0.74355 0.6882 0.0
C3439 C 0.08528 0.75977 0.68694 0.0
C3440 C 0.08015 0.77597 0.67922 0.0
H3441 H 0.20428 0.78001 0.69001 0.0
H3442 H 0.17056 0.77249 0.68128 0.0
C3443 C 0.06144 0.77621 0.67337 0.0
C3444 C 0.10501 0.75996 0.69388 0.0
H3445 H 0.14042 0.78442 0.72693 0.0
C3446 C 0.11493 0.74702 0.68392 0.0
C3447 C 0.11413 0.77318 0.70995 0.0
C3448 C 0.10385 0.78674 0.72172 0.0
C3449 C 0.13403 0.74755 0.68914 0.0
C3450 C 0.14337 0.76148 0.70457 0.0
C3451 C 0.13324 0.77384 0.71502 0.0
C3452 C 0.16384 0.76427 0.70946 0.0
C3453 C 0.14407 0.73329 0.67806 0.0
C3454 C 0.17123 0.76229 0.72826 0.0
C3455 C 0.19054 0.76665 0.73334 0.0
C3456 C 0.20274 0.77329 0.71975 0.0
C3457 C 0.19528 0.77492 0.70083 0.0
C3458 C 0.17601 0.77049 0.69575 0.0
H3459 H 0.13416 0.7203 0.67074 0.0
H3460 H 0.15144 0.74047 0.66663 0.0
H3461 H 0.15463 0.72842 0.68788 0.0
H3462 H 0.16202 0.75764 0.73908 0.0
H3463 H 0.19585 0.76527 0.74804 0.0
H3464 H 0.98151 0.31226 0.45343 0.0
H3465 H 0.98977 0.34496 0.47113 0.0
H3466 H 0.03577 0.35769 0.43614 0.0
H3467 H 0.02775 0.32473 0.41833 0.0
H3468 H 0.04365 0.37256 0.47752 0.0
H3469 H 0.97878 0.39185 0.4437 0.0
H3470 H 0.97499 0.37043 0.45583 0.0
H3471 H 0.98784 0.37046 0.43463 0.0
C3472 C 0.99349 0.3219 0.44953 0.0
C3473 C 0.00381 0.31593 0.43423 0.0
C3474 C 0.99818 0.34061 0.4597 0.0
C3475 C 0.01316 0.35382 0.45472 0.0
C3476 C 0.02409 0.34769 0.44013 0.0
H3477 H 0.02132 0.47818 0.48072 0.0
H3478 H 0.02204 0.44533 0.46542 0.0
C3479 C 0.01946 0.32887 0.42996 0.0
C3480 C 0.01653 0.37433 0.46394 0.0
H3481 H 0.99582 0.41457 0.46922 0.0
C3482 C 0.03328 0.38183 0.47567 0.0
C3483 C 0.00305 0.38642 0.46127 0.0
C3484 C 0.98522 0.37949 0.44804 0.0
C3485 C 0.03671 0.40107 0.48515 0.0
C3486 C 0.02292 0.41292 0.48298 0.0
C3487 C 0.00634 0.40544 0.47098 0.0
C3488 C 0.02528 0.43328 0.49262 0.0
C3489 C 0.05512 0.40861 0.49715 0.0
C3490 C 0.02727 0.43757 0.51306 0.0
C3491 C 0.02701 0.45649 0.52191 0.0
C3492 C 0.02445 0.47129 0.51041 0.0
C3493 C 0.02314 0.46706 0.48998 0.0
C3494 C 0.02359 0.44829 0.4812 0.0
H3495 H 0.06591 0.39972 0.49321 0.0
H3496 H 0.06038 0.42399 0.49525 0.0
H3497 H 0.05314 0.40796 0.51281 0.0
H3498 H 0.02821 0.42614 0.52217 0.0
H3499 H 0.02792 0.4593 0.53767 0.0
H3500 H 0.45652 0.24353 0.20531 0.0
H3501 H 0.42688 0.23959 0.22044 0.0
H3502 H 0.4008 0.26322 0.17285 0.0
H3503 H 0.43019 0.26741 0.15782 0.0
H3504 H 0.39529 0.28061 0.21072 0.0
H3505 H 0.37817 0.19965 0.20229 0.0
H3506 H 0.40111 0.21065 0.21344 0.0
H3507 H 0.39493 0.21257 0.18828 0.0
C3508 C 0.44441 0.24767 0.19797 0.0
C3509 C 0.4457 0.25567 0.18029 0.0
C3510 C 0.42749 0.24538 0.20662 0.0
C3511 C 0.41165 0.25102 0.19769 0.0
C3512 C 0.41287 0.25876 0.17996 0.0
H3513 H 0.29458 0.22833 0.20721 0.0
H3514 H 0.32678 0.23132 0.1988 0.0
C3515 C 0.42969 0.26103 0.17132 0.0
C3516 C 0.39382 0.24952 0.20693 0.0
H3517 H 0.35692 0.2169 0.2176 0.0
C3518 C 0.38696 0.26671 0.21242 0.0
C3519 C 0.38299 0.23134 0.20901 0.0
C3520 C 0.38952 0.21244 0.20285 0.0
C3521 C 0.36933 0.26619 0.21952 0.0
C3522 C 0.35839 0.248 0.22136 0.0
C3523 C 0.36543 0.23083 0.21628 0.0
C3524 C 0.33897 0.24638 0.22692 0.0
C3525 C 0.3622 0.28503 0.22423 0.0
C3526 C 0.33514 0.25389 0.24557 0.0
C3527 C 0.31665 0.25225 0.25046 0.0
C3528 C 0.30173 0.24302 0.23676 0.0
C3529 C 0.3057 0.23556 0.21811 0.0
C3530 C 0.32411 0.23718 0.21328 0.0
H3531 H 0.37095 0.29746 0.21881 0.0
H3532 H 0.34757 0.28374 0.21777 0.0
H3533 H 0.36232 0.28836 0.24029 0.0
H3534 H 0.34645 0.26086 0.25638 0.0
H3535 H 0.31407 0.25805 0.26498 0.0
H3536 H 0.61715 0.49042 0.35472 0.0
H3537 H 0.60068 0.49169 0.38415 0.0
H3538 H 0.56541 0.52827 0.35948 0.0
H3539 H 0.58143 0.52648 0.32963 0.0
H3540 H 0.59715 0.52101 0.4101 0.0
H3541 H 0.52683 0.48643 0.37522 0.0
H3542 H 0.54765 0.4868 0.36256 0.0
H3543 H 0.53639 0.50783 0.36494 0.0
C3544 C 0.60593 0.49879 0.35557 0.0
C3545 C 0.60051 0.50828 0.33984 0.0
C3546 C 0.5965 0.49946 0.37238 0.0
C3547 C 0.58155 0.50972 0.37384 0.0
C3548 C 0.57653 0.51978 0.35842 0.0
H3549 H 0.54143 0.54369 0.48483 0.0
H3550 H 0.55351 0.54307 0.45283 0.0
C3551 C 0.58581 0.51891 0.34147 0.0
C3552 C 0.57158 0.51015 0.39172 0.0
H3553 H 0.52846 0.50028 0.40845 0.0
C3554 C 0.58214 0.51643 0.40973 0.0
C3555 C 0.55202 0.50383 0.39123 0.0
C3556 C 0.54008 0.49565 0.37247 0.0
C3557 C 0.5737 0.51675 0.42726 0.0
C3558 C 0.55405 0.51129 0.42672 0.0
C3559 C 0.54348 0.50475 0.40876 0.0
C3560 C 0.54439 0.51207 0.44476 0.0
C3561 C 0.58601 0.52251 0.44623 0.0
C3562 C 0.53419 0.49507 0.45024 0.0
C3563 C 0.52694 0.49545 0.4684 0.0
C3564 C 0.52997 0.51283 0.4813 0.0
C3565 C 0.5392 0.53003 0.47526 0.0
C3566 C 0.54617 0.52969 0.45706 0.0
H3567 H 0.60071 0.52075 0.4444 0.0
H3568 H 0.58606 0.53806 0.45141 0.0
H3569 H 0.5808 0.51368 0.45767 0.0
H3570 H 0.53254 0.48136 0.44084 0.0
H3571 H 0.51985 0.48201 0.47275 0.0
H3572 H 0.2347 0.86225 0.06661 0.0
H3573 H 0.22813 0.84204 0.09282 0.0
H3574 H 0.27056 0.80904 0.07565 0.0
H3575 H 0.27736 0.82913 0.04969 0.0
H3576 H 0.21914 0.79962 0.09399 0.0
H3577 H 0.28826 0.83447 0.13252 0.0
H3578 H 0.27744 0.84432 0.11251 0.0
H3579 H 0.28882 0.82363 0.10785 0.0
C3580 C 0.2424 0.85048 0.06821 0.0
C3581 C 0.25678 0.84752 0.05629 0.0
C3582 C 0.23863 0.83896 0.08317 0.0
C3583 C 0.24912 0.82432 0.08632 0.0
C3584 C 0.26255 0.82049 0.07363 0.0
H3585 H 0.2635 0.76303 0.18748 0.0
H3586 H 0.26408 0.77182 0.15425 0.0
C3587 C 0.26641 0.83202 0.05881 0.0
C3588 C 0.24721 0.81414 0.10381 0.0
H3589 H 0.27074 0.80961 0.14699 0.0
C3590 C 0.2304 0.80172 0.10558 0.0
C3591 C 0.26198 0.81693 0.11885 0.0
C3592 C 0.28011 0.83067 0.11801 0.0
C3593 C 0.228 0.79193 0.12207 0.0
C3594 C 0.24269 0.79496 0.13723 0.0
C3595 C 0.25957 0.80717 0.13527 0.0
C3596 C 0.24052 0.78697 0.15599 0.0
C3597 C 0.20983 0.77836 0.12306 0.0
C3598 C 0.22695 0.79235 0.16785 0.0
C3599 C 0.22659 0.78737 0.18676 0.0
C3600 C 0.23993 0.77706 0.19426 0.0
C3601 C 0.25306 0.77098 0.18211 0.0
C3602 C 0.2534 0.77599 0.16314 0.0
H3603 H 0.20279 0.7728 0.10825 0.0
H3604 H 0.21209 0.76578 0.13076 0.0
H3605 H 0.20027 0.78639 0.13115 0.0
H3606 H 0.21715 0.8012 0.16283 0.0
H3607 H 0.21624 0.79222 0.19572 0.0
H3608 H 0.95573 0.51772 0.78515 0.0
H3609 H 0.97765 0.5142 0.81291 0.0
H3610 H 0.9339 0.51701 0.85133 0.0
H3611 H 0.91223 0.52037 0.82396 0.0
H3612 H 0.98559 0.54294 0.85063 0.0
H3613 H 0.95698 0.46691 0.86094 0.0
H3614 H 0.95397 0.47633 0.8379 0.0
H3615 H 0.93957 0.48186 0.85704 0.0
C3616 C 0.95085 0.51742 0.79953 0.0
C3617 C 0.93239 0.51969 0.80251 0.0
C3618 C 0.96334 0.51549 0.81532 0.0
C3619 C 0.95733 0.51534 0.83412 0.0
C3620 C 0.93878 0.51707 0.83692 0.0
H3621 H 0.98066 0.51653 0.95345 0.0
H3622 H 0.96982 0.5159 0.91928 0.0
C3623 C 0.92646 0.51923 0.8213 0.0
C3624 C 0.97028 0.5141 0.85124 0.0
H3625 H 0.97481 0.48689 0.88854 0.0
C3626 C 0.98366 0.53053 0.85874 0.0
C3627 C 0.96762 0.49788 0.86172 0.0
C3628 C 0.95387 0.47965 0.85394 0.0
C3629 C 0.9935 0.53169 0.8772 0.0
C3630 C 0.98995 0.5159 0.88821 0.0
C3631 C 0.97744 0.49902 0.88011 0.0
C3632 C 0.99728 0.51736 0.90896 0.0
C3633 C 0.00665 0.55022 0.88537 0.0
C3634 C 0.01643 0.51863 0.91455 0.0
C3635 C 0.02275 0.51906 0.93424 0.0
C3636 C 0.00999 0.5181 0.94857 0.0
C3637 C 0.9909 0.51721 0.94284 0.0
C3638 C 0.98464 0.51682 0.92328 0.0
H3639 H 0.00607 0.56197 0.87598 0.0
H3640 H 0.00325 0.55543 0.90021 0.0
H3641 H 0.02119 0.54731 0.88664 0.0
H3642 H 0.02639 0.51886 0.90367 0.0
H3643 H 0.03753 0.51962 0.93815 0.0
H3644 H 0.25811 0.14751 0.55218 0.0
H3645 H 0.24998 0.16061 0.58403 0.0
H3646 H 0.30263 0.20031 0.59309 0.0
H3647 H 0.31106 0.18708 0.56148 0.0
H3648 H 0.29626 0.1805 0.62383 0.0
H3649 H 0.23355 0.21159 0.60279 0.0
H3650 H 0.23199 0.1865 0.59307 0.0
H3651 H 0.24936 0.20471 0.58542 0.0
C3652 C 0.26789 0.15919 0.56083 0.0
C3653 C 0.28528 0.16619 0.55424 0.0
C3654 C 0.26314 0.16676 0.579 0.0
C3655 C 0.27558 0.18163 0.59085 0.0
C3656 C 0.29278 0.18889 0.58416 0.0
H3657 H 0.26039 0.24812 0.70063 0.0
H3658 H 0.26236 0.23727 0.66607 0.0
C3659 C 0.29758 0.18128 0.56606 0.0
C3660 C 0.27137 0.18863 0.61082 0.0
H3661 H 0.23967 0.20905 0.63666 0.0
C3662 C 0.28392 0.18681 0.6266 0.0
C3663 C 0.25536 0.19704 0.61443 0.0
C3664 C 0.24187 0.20027 0.59803 0.0
C3665 C 0.28079 0.19291 0.64588 0.0
C3666 C 0.26445 0.20066 0.64955 0.0
C3667 C 0.25204 0.20284 0.6338 0.0
C3668 C 0.26036 0.20683 0.66974 0.0
C3669 C 0.29519 0.19125 0.66215 0.0
C3670 C 0.25773 0.19319 0.68305 0.0
C3671 C 0.25665 0.19932 0.70276 0.0
C3672 C 0.25802 0.21921 0.70952 0.0
C3673 C 0.25928 0.2327 0.6959 0.0
C3674 C 0.26045 0.22654 0.67615 0.0
H3675 H 0.30887 0.18957 0.65665 0.0
H3676 H 0.29736 0.20426 0.67333 0.0
H3677 H 0.29021 0.17825 0.66933 0.0
H3678 H 0.25727 0.17786 0.6783 0.0
H3679 H 0.2555 0.18853 0.71282 0.0
H3680 H 0.61162 0.46377 0.21602 0.0
H3681 H 0.60076 0.46671 0.18246 0.0
H3682 H 0.60205 0.52818 0.19812 0.0
H3683 H 0.61316 0.52547 0.23172 0.0
H3684 H 0.56777 0.47943 0.17057 0.0
H3685 H 0.63047 0.5259 0.14897 0.0
H3686 H 0.63122 0.51312 0.17015 0.0
H3687 H 0.62159 0.53515 0.17102 0.0
C3688 C 0.60979 0.47797 0.21231 0.0
C3689 C 0.61326 0.49439 0.22653 0.0
C3690 C 0.60355 0.4796 0.19314 0.0
C3691 C 0.60075 0.49768 0.18782 0.0
C3692 C 0.60441 0.51416 0.20188 0.0
H3693 H 0.53505 0.50642 0.07886 0.0
H3694 H 0.54691 0.51055 0.11338 0.0
C3695 C 0.61069 0.51256 0.22108 0.0
C3696 C 0.59322 0.49897 0.1677 0.0
H3697 H 0.60374 0.51862 0.12615 0.0
C3698 C 0.57558 0.48805 0.16085 0.0
C3699 C 0.60352 0.51018 0.15512 0.0
C3700 C 0.62282 0.52165 0.16156 0.0
C3701 C 0.56803 0.48779 0.14161 0.0
C3702 C 0.5783 0.49905 0.12903 0.0
C3703 C 0.59585 0.51017 0.13594 0.0
C3704 C 0.57172 0.49819 0.1082 0.0
C3705 C 0.54946 0.47492 0.13471 0.0
C3706 C 0.58209 0.49051 0.0939 0.0
C3707 C 0.57545 0.48825 0.07424 0.0
C3708 C 0.5583 0.49366 0.06852 0.0
C3709 C 0.54823 0.50198 0.08284 0.0
C3710 C 0.55494 0.50428 0.10254 0.0
H3711 H 0.54531 0.46421 0.14493 0.0
H3712 H 0.53847 0.48409 0.1336 0.0
H3713 H 0.54994 0.46687 0.12006 0.0
H3714 H 0.5951 0.48578 0.09799 0.0
H3715 H 0.5836 0.48189 0.06359 0.0
H3716 H 0.27008 0.82864 0.97077 0.0
H3717 H 0.26349 0.81106 0.93789 0.0
H3718 H 0.23447 0.85588 0.91991 0.0
H3719 H 0.24065 0.87344 0.95314 0.0
H3720 H 0.21825 0.81678 0.90219 0.0
H3721 H 0.29469 0.83474 0.89651 0.0
H3722 H 0.28862 0.82179 0.91669 0.0
H3723 H 0.28344 0.84591 0.91606 0.0
C3724 C 0.262 0.83461 0.95992 0.0
C3725 C 0.25614 0.85258 0.96441 0.0
C3726 C 0.25826 0.82454 0.94115 0.0
C3727 C 0.24889 0.83241 0.9264 0.0
C3728 C 0.24182 0.84964 0.93111 0.0
H3729 H 0.26518 0.81331 0.80507 0.0
H3730 H 0.26186 0.82602 0.83848 0.0
C3731 C 0.24535 0.85964 0.95006 0.0
C3732 C 0.24831 0.82369 0.90582 0.0
H3733 H 0.27679 0.81372 0.87041 0.0
C3734 C 0.231 0.8161 0.89517 0.0
C3735 C 0.265 0.82307 0.89667 0.0
C3736 C 0.28399 0.83197 0.90697 0.0
C3737 C 0.22998 0.80772 0.87559 0.0
C3738 C 0.24672 0.80671 0.86664 0.0
C3739 C 0.26397 0.81436 0.87734 0.0
C3740 C 0.24693 0.79892 0.84585 0.0
C3741 C 0.21105 0.80047 0.86453 0.0
C3742 C 0.2395 0.77941 0.83876 0.0
C3743 C 0.24125 0.77204 0.81942 0.0
C3744 C 0.25068 0.78404 0.80701 0.0
C3745 C 0.2579 0.8036 0.81419 0.0
C3746 C 0.25599 0.81094 0.83333 0.0
H3747 H 0.19977 0.80636 0.87196 0.0
H3748 H 0.21085 0.80453 0.84949 0.0
H3749 H 0.20791 0.78436 0.86346 0.0
H3750 H 0.2328 0.76975 0.84829 0.0
H3751 H 0.2356 0.7569 0.81434 0.0
H3752 H 0.91406 0.52752 0.73207 0.0
H3753 H 0.94498 0.52724 0.71998 0.0
H3754 H 0.92315 0.4734 0.68307 0.0
H3755 H 0.89258 0.47348 0.69514 0.0
H3756 H 0.96165 0.47671 0.69951 0.0
H3757 H 0.94731 0.54042 0.66308 0.0
H3758 H 0.94757 0.54224 0.6892 0.0
H3759 H 0.92932 0.52569 0.67414 0.0
C3760 C 0.91607 0.51534 0.72186 0.0
C3761 C 0.90091 0.50064 0.71435 0.0
C3762 C 0.93368 0.51525 0.7149 0.0
C3763 C 0.93624 0.50042 0.70044 0.0
C3764 C 0.92148 0.48496 0.69421 0.0
H3765 H 0.98782 0.46303 0.60375 0.0
H3766 H 0.97567 0.46603 0.63565 0.0
C3767 C 0.90397 0.48511 0.70103 0.0
C3768 C 0.95301 0.50208 0.68945 0.0
H3769 H 0.97077 0.52443 0.65199 0.0
C3770 C 0.96402 0.48742 0.68943 0.0
C3771 C 0.95607 0.51609 0.67635 0.0
C3772 C 0.94445 0.53199 0.6755 0.0
C3773 C 0.97736 0.4858 0.67593 0.0
C3774 C 0.97934 0.49889 0.66179 0.0
C3775 C 0.96925 0.51435 0.66277 0.0
C3776 C 0.9899 0.49572 0.64446 0.0
C3777 C 0.98882 0.46982 0.67668 0.0
C3778 C 0.00207 0.51131 0.63872 0.0
C3779 C 0.00865 0.50976 0.62026 0.0
C3780 C 0.00332 0.49252 0.60725 0.0
C3781 C 0.99228 0.47645 0.61352 0.0
C3782 C 0.98544 0.47811 0.63187 0.0
H3783 H 0.99135 0.46661 0.6919 0.0
H3784 H 0.98099 0.4563 0.66798 0.0
H3785 H 0.00251 0.47369 0.67073 0.0
H3786 H 0.00569 0.52505 0.64813 0.0
H3787 H 0.01724 0.52237 0.61586 0.0
H3788 H 0.31488 0.19782 0.46812 0.0
H3789 H 0.31009 0.21777 0.4421 0.0
H3790 H 0.25528 0.18347 0.42547 0.0
H3791 H 0.25975 0.16368 0.45163 0.0
H3792 H 0.30498 0.20469 0.40355 0.0
H3793 H 0.24441 0.23801 0.42463 0.0
H3794 H 0.25783 0.22654 0.44142 0.0
H3795 H 0.23993 0.21204 0.42405 0.0
C3796 C 0.30166 0.1947 0.45916 0.0
C3797 C 0.28771 0.17908 0.46199 0.0
C3798 C 0.29896 0.20614 0.44428 0.0
C3799 C 0.28225 0.20228 0.43197 0.0
C3800 C 0.26812 0.18704 0.43506 0.0
H3801 H 0.24034 0.22492 0.32078 0.0
H3802 H 0.24667 0.21494 0.35284 0.0
C3803 C 0.27076 0.17564 0.44998 0.0
C3804 C 0.28024 0.21297 0.41483 0.0
H3805 H 0.25098 0.23789 0.39107 0.0
C3806 C 0.29336 0.21225 0.40098 0.0
C3807 C 0.26507 0.22283 0.41149 0.0
C3808 C 0.25112 0.22509 0.42629 0.0
C3809 C 0.29123 0.22031 0.38347 0.0
C3810 C 0.27568 0.22951 0.37983 0.0
C3811 C 0.26287 0.23079 0.39392 0.0
C3812 C 0.27169 0.23651 0.36083 0.0
C3813 C 0.30514 0.21815 0.3686 0.0
C3814 C 0.28356 0.25215 0.3548 0.0
C3815 C 0.27999 0.25794 0.33639 0.0
C3816 C 0.26451 0.24811 0.32372 0.0
C3817 C 0.25249 0.23271 0.33005 0.0
C3818 C 0.25601 0.22702 0.34843 0.0
H3819 H 0.31464 0.20795 0.37232 0.0
H3820 H 0.29778 0.21282 0.3539 0.0
H3821 H 0.3138 0.23257 0.36785 0.0
H3822 H 0.29563 0.2598 0.36429 0.0
H3823 H 0.28947 0.26991 0.33199 0.0
H3824 H 0.34675 0.61911 0.51076 0.0
H3825 H 0.37107 0.59936 0.51555 0.0
H3826 H 0.32899 0.55066 0.52365 0.0
H3827 H 0.30482 0.57054 0.51985 0.0
H3828 H 0.35722 0.55299 0.54909 0.0
H3829 H 0.38431 0.55839 0.47707 0.0
H3830 H 0.38567 0.58202 0.49051 0.0
H3831 H 0.36316 0.56695 0.48316 0.0
C3832 C 0.34272 0.60423 0.51365 0.0
C3833 C 0.32389 0.59638 0.51491 0.0
C3834 C 0.3566 0.59288 0.51618 0.0
C3835 C 0.35181 0.57335 0.51946 0.0
C3836 C 0.33303 0.56564 0.52102 0.0
H3837 H 0.43899 0.50126 0.51027 0.0
H3838 H 0.40861 0.51157 0.5052 0.0
C3839 C 0.31923 0.57706 0.51887 0.0
C3840 C 0.36635 0.56104 0.52175 0.0
H3841 H 0.40381 0.54687 0.50101 0.0
C3842 C 0.36727 0.55147 0.53845 0.0
C3843 C 0.37914 0.55854 0.50762 0.0
C3844 C 0.3779 0.56684 0.48849 0.0
C3845 C 0.38111 0.5402 0.54182 0.0
C3846 C 0.39484 0.53906 0.52849 0.0
C3847 C 0.39342 0.54789 0.51136 0.0
C3848 C 0.41165 0.53031 0.53273 0.0
C3849 C 0.3808 0.52963 0.55962 0.0
C3850 C 0.42324 0.53705 0.55003 0.0
C3851 C 0.44038 0.53097 0.55308 0.0
C3852 C 0.44652 0.51836 0.53867 0.0
C3853 C 0.43462 0.51098 0.52165 0.0
C3854 C 0.41731 0.51691 0.51871 0.0
H3855 H 0.36628 0.52559 0.56358 0.0
H3856 H 0.38701 0.51621 0.55732 0.0
H3857 H 0.38888 0.5394 0.57218 0.0
H3858 H 0.4195 0.54779 0.56083 0.0
H3859 H 0.4492 0.53699 0.56635 0.0
H3860 H 0.8353 0.90626 0.56614 0.0
H3861 H 0.86666 0.9232 0.56234 0.0
H3862 H 0.84294 0.96363 0.5298 0.0
H3863 H 0.81148 0.94642 0.53307 0.0
H3864 H 0.87139 0.95047 0.51239 0.0
H3865 H 0.8934 0.97515 0.59062 0.0
H3866 H 0.8855 0.94934 0.58577 0.0
H3867 H 0.86937 0.96565 0.58163 0.0
C3868 C 0.83672 0.9187 0.55811 0.0
C3869 C 0.82088 0.92494 0.54985 0.0
C3870 C 0.85468 0.92852 0.55615 0.0
C3871 C 0.85714 0.94492 0.54613 0.0
C3872 C 0.84136 0.95109 0.53772 0.0
H3873 H 0.96671 0.01927 0.54588 0.0
H3874 H 0.93384 0.00771 0.55053 0.0
C3875 C 0.82339 0.94123 0.5396 0.0
C3876 C 0.8762 0.95513 0.54375 0.0
H3877 H 0.91777 0.97688 0.56906 0.0
C3878 C 0.88147 0.95641 0.52479 0.0
C3879 C 0.88925 0.96321 0.55992 0.0
C3880 C 0.88405 0.96348 0.58063 0.0
C3881 C 0.89965 0.96485 0.52156 0.0
C3882 C 0.91302 0.97183 0.53772 0.0
C3883 C 0.90756 0.97129 0.55669 0.0
C3884 C 0.93292 0.9789 0.53519 0.0
C3885 C 0.90436 0.96621 0.50084 0.0
C3886 C 0.94337 0.96641 0.52541 0.0
C3887 C 0.96204 0.97295 0.52271 0.0
C3888 C 0.97076 0.99209 0.52991 0.0
C3889 C 0.9604 0.00447 0.54014 0.0
C3890 C 0.94163 0.9979 0.54279 0.0
H3891 H 0.89163 0.96594 0.49086 0.0
H3892 H 0.91441 0.97972 0.49984 0.0
H3893 H 0.91083 0.95354 0.49568 0.0
H3894 H 0.93707 0.95154 0.51987 0.0
H3895 H 0.96962 0.96294 0.51494 0.0
H3896 H 0.85514 0.07144 0.24523 0.0
H3897 H 0.83596 0.09589 0.23851 0.0
H3898 H 0.80656 0.08495 0.28905 0.0
H3899 H 0.82584 0.06078 0.29614 0.0
H3900 H 0.79697 0.09502 0.23246 0.0
H3901 H 0.82862 0.14299 0.30016 0.0
H3902 H 0.83818 0.12214 0.29054 0.0
H3903 H 0.81778 0.11892 0.30375 0.0
C3904 C 0.84448 0.07408 0.25482 0.0
C3905 C 0.84223 0.06437 0.2714 0.0
C3906 C 0.83351 0.08804 0.25094 0.0
C3907 C 0.82012 0.09247 0.26351 0.0
C3908 C 0.81712 0.08204 0.27942 0.0
H3909 H 0.7614 0.19201 0.26836 0.0
H3910 H 0.76889 0.1599 0.27297 0.0
C3911 C 0.82814 0.06819 0.28341 0.0
C3912 C 0.81007 0.10877 0.26058 0.0
H3913 H 0.80554 0.15412 0.28106 0.0
C3914 C 0.79873 0.1079 0.24312 0.0
C3915 C 0.81239 0.12553 0.27456 0.0
C3916 C 0.82501 0.12762 0.29324 0.0
C3917 C 0.7898 0.1235 0.23916 0.0
C3918 C 0.79252 0.14043 0.25293 0.0
C3919 C 0.8034 0.14104 0.27061 0.0
C3920 C 0.7858 0.15841 0.24861 0.0
C3921 C 0.77764 0.12178 0.22026 0.0
C3922 C 0.79273 0.16808 0.23332 0.0
C3923 C 0.78858 0.18637 0.23071 0.0
C3924 C 0.77746 0.1954 0.24341 0.0
C3925 C 0.76996 0.1854 0.25832 0.0
C3926 C 0.77422 0.16708 0.26097 0.0
H3927 H 0.77234 0.10631 0.21436 0.0
H3928 H 0.76554 0.12938 0.22219 0.0
H3929 H 0.78602 0.12858 0.20929 0.0
H3930 H 0.80202 0.16185 0.22387 0.0
H3931 H 0.79455 0.19368 0.21907 0.0
H3932 H 0.71014 0.12586 0.07479 0.0
H3933 H 0.68458 0.09907 0.06471 0.0
H3934 H 0.70876 0.08588 0.01077 0.0
H3935 H 0.7346 0.11339 0.02081 0.0
H3936 H 0.67369 0.09042 0.00396 0.0
H3937 H 0.67423 0.04124 0.06003 0.0
H3938 H 0.67676 0.06554 0.07217 0.0
H3939 H 0.69455 0.05892 0.05713 0.0
C3940 C 0.71032 0.11703 0.06095 0.0
C3941 C 0.72427 0.12185 0.04849 0.0
C3942 C 0.69577 0.10147 0.05531 0.0
C3943 C 0.69483 0.09018 0.03711 0.0
C3944 C 0.7093 0.09427 0.02498 0.0
H3945 H 0.5827 0.01696 0.01736 0.0
H3946 H 0.61697 0.02448 0.01964 0.0
C3947 C 0.72404 0.10995 0.03071 0.0
C3948 C 0.6772 0.0766 0.02993 0.0
H3949 H 0.64265 0.04572 0.04702 0.0
C3950 C 0.66712 0.08016 0.01305 0.0
C3951 C 0.66866 0.06281 0.04142 0.0
C3952 C 0.67927 0.05678 0.05856 0.0
C3953 C 0.64816 0.072 0.00862 0.0
C3954 C 0.63897 0.06044 0.0217 0.0
C3955 C 0.64954 0.05509 0.03732 0.0
C3956 C 0.61828 0.0556 0.02057 0.0
C3957 C 0.638 0.07652 0.99038 0.0
C3958 C 0.6077 0.07064 0.02106 0.0
C3959 C 0.58821 0.06642 0.01975 0.0
C3960 C 0.57888 0.04707 0.01822 0.0
C3961 C 0.5895 0.03204 0.01856 0.0
C3962 C 0.60906 0.03628 0.01974 0.0
H3963 H 0.64765 0.07884 0.97883 0.0
H3964 H 0.6262 0.06464 0.9846 0.0
H3965 H 0.63239 0.09017 0.99376 0.0
H3966 H 0.61453 0.08571 0.0224 0.0
H3967 H 0.58047 0.07834 0.01971 0.0
H3968 H 0.18617 0.46929 0.30695 0.0
H3969 H 0.2089 0.44765 0.30292 0.0
H3970 H 0.18409 0.42668 0.24437 0.0
H3971 H 0.16095 0.44822 0.24835 0.0
H3972 H 0.18687 0.39743 0.26679 0.0
H3973 H 0.25492 0.44726 0.27308 0.0
H3974 H 0.24107 0.45286 0.29266 0.0
H3975 H 0.23289 0.45526 0.26805 0.0
C3976 C 0.18566 0.46034 0.29306 0.0
C3977 C 0.1716 0.46041 0.27801 0.0
C3978 C 0.19884 0.44809 0.29073 0.0
C3979 C 0.19836 0.43573 0.27326 0.0
C3980 C 0.18478 0.43623 0.25793 0.0
H3981 H 0.27226 0.35042 0.25197 0.0
H3982 H 0.2575 0.37924 0.25063 0.0
C3983 C 0.17158 0.44855 0.26023 0.0
C3984 C 0.21057 0.42077 0.27203 0.0
H3985 H 0.25599 0.41425 0.27912 0.0
C3986 C 0.20199 0.40112 0.26919 0.0
C3987 C 0.23032 0.42559 0.27508 0.0
C3988 C 0.24036 0.4464 0.27719 0.0
C3989 C 0.21254 0.3862 0.27014 0.0
C3990 C 0.23218 0.39106 0.2743 0.0
C3991 C 0.24089 0.41063 0.27627 0.0
C3992 C 0.24363 0.37581 0.27689 0.0
C3993 C 0.20258 0.36531 0.2669 0.0
C3994 C 0.2414 0.36496 0.29261 0.0
C3995 C 0.2498 0.34853 0.29347 0.0
C3996 C 0.2606 0.34266 0.27858 0.0
C3997 C 0.26399 0.35448 0.26364 0.0
C3998 C 0.25555 0.37094 0.26281 0.0
H3999 H 0.18826 0.36388 0.25952 0.0
H4000 H 0.21056 0.35599 0.25799 0.0
H4001 H 0.20135 0.35976 0.28121 0.0
H4002 H 0.23244 0.36869 0.30375 0.0
H4003 H 0.247 0.33986 0.30525 0.0
H4004 H 0.20612 0.39625 0.04151 0.0
H4005 H 0.17682 0.40808 0.03471 0.0
H4006 H 0.20218 0.44222 0.99254 0.0
H4007 H 0.23136 0.43017 0.9989 0.0
H4008 H 0.17262 0.44625 0.04077 0.0
H4009 H 0.15246 0.41692 0.96296 0.0
H4010 H 0.16989 0.40812 0.9778 0.0
H4011 H 0.17579 0.43057 0.96765 0.0
C4012 C 0.20537 0.40602 0.03054 0.0
C4013 C 0.22109 0.41228 0.02076 0.0
C4014 C 0.18863 0.41278 0.0267 0.0
C4015 C 0.18725 0.42587 0.01298 0.0
C4016 C 0.20278 0.4318 0.00287 0.0
H4017 H 0.09968 0.4928 0.98388 0.0
H4018 H 0.12906 0.47985 0.98578 0.0
C4019 C 0.2195 0.42497 0.00662 0.0
C4020 C 0.17009 0.43449 0.01042 0.0
H4021 H 0.1352 0.44012 0.9769 0.0
C4022 C 0.1644 0.44483 0.02682 0.0
C4023 C 0.15951 0.43281 0.99215 0.0
C4024 C 0.1646 0.42136 0.97416 0.0
C4025 C 0.14843 0.45354 0.02548 0.0
C4026 C 0.13771 0.45163 0.00729 0.0
C4027 C 0.14351 0.44158 0.9908 0.0
C4028 C 0.11988 0.45911 0.00545 0.0
C4029 C 0.14324 0.46483 0.04353 0.0
C4030 C 0.10497 0.45146 0.01555 0.0
C4031 C 0.08831 0.45879 0.01454 0.0
C4032 C 0.08615 0.47388 0.00328 0.0
C4033 C 0.10095 0.48124 0.99274 0.0
C4034 C 0.11771 0.47385 0.99379 0.0
H4035 H 0.15537 0.4694 0.05471 0.0
H4036 H 0.13775 0.47799 0.03993 0.0
H4037 H 0.13215 0.45548 0.05003 0.0
H4038 H 0.10625 0.43982 0.02433 0.0
H4039 H 0.07715 0.45265 0.02271 0.0
H4040 H 0.82625 0.9761 0.293 0.0
H4041 H 0.80969 0.94261 0.28629 0.0
H4042 H 0.84502 0.93098 0.24062 0.0
H4043 H 0.86173 0.96476 0.24713 0.0
H4044 H 0.80452 0.91298 0.23282 0.0
H4045 H 0.83871 0.89949 0.30312 0.0
H4046 H 0.8267 0.91994 0.30484 0.0
H4047 H 0.84685 0.92049 0.29125 0.0
C4048 C 0.83041 0.96655 0.28135 0.0
C4049 C 0.84553 0.97302 0.2708 0.0
C4050 C 0.82088 0.94741 0.27753 0.0
C4051 C 0.82634 0.9343 0.2632 0.0
C4052 C 0.84066 0.94093 0.25179 0.0
H4053 H 0.80492 0.81016 0.26574 0.0
H4054 H 0.81866 0.84347 0.26226 0.0
C4055 C 0.85019 0.9602 0.25554 0.0
C4056 C 0.81818 0.91339 0.26151 0.0
H4057 H 0.81476 0.87455 0.28729 0.0
C4058 C 0.8068 0.90448 0.24463 0.0
C4059 C 0.8214 0.90236 0.27689 0.0
C4060 C 0.83421 0.91096 0.29499 0.0
C4061 C 0.79818 0.88482 0.24293 0.0
C4062 C 0.80091 0.874 0.25863 0.0
C4063 C 0.81258 0.8829 0.27532 0.0
C4064 C 0.79216 0.85332 0.25819 0.0
C4065 C 0.78646 0.87574 0.22431 0.0
C4066 C 0.77263 0.84768 0.2568 0.0
C4067 C 0.76466 0.82848 0.25867 0.0
C4068 C 0.77612 0.81471 0.2622 0.0
C4069 C 0.79565 0.82037 0.2631 0.0
C4070 C 0.80356 0.83943 0.26108 0.0
H4071 H 0.78969 0.88426 0.21203 0.0
H4072 H 0.78867 0.86058 0.22018 0.0
H4073 H 0.77146 0.87529 0.22652 0.0
H4074 H 0.76358 0.85827 0.25499 0.0
H4075 H 0.74958 0.82461 0.258 0.0
H4076 H 0.6798 0.05362 0.80979 0.0
H4077 H 0.68985 0.08741 0.80478 0.0
H4078 H 0.65649 0.07732 0.74938 0.0
H4079 H 0.64651 0.04316 0.7541 0.0
H4080 H 0.69214 0.10121 0.7492 0.0
H4081 H 0.65366 0.12635 0.81057 0.0
H4082 H 0.66973 0.11089 0.81736 0.0
H4083 H 0.65007 0.10125 0.79974 0.0
C4084 C 0.67466 0.05849 0.79645 0.0
C4085 C 0.66212 0.04576 0.78246 0.0
C4086 C 0.6804 0.07783 0.79364 0.0
C4087 C 0.67357 0.08492 0.77693 0.0
C4088 C 0.66179 0.0721 0.76245 0.0
H4089 H 0.6817 0.21027 0.78117 0.0
H4090 H 0.66984 0.17531 0.77481 0.0
C4091 C 0.65611 0.05262 0.76518 0.0
C4092 C 0.67815 0.10594 0.7752 0.0
H4093 H 0.67573 0.1505 0.79912 0.0
C4094 C 0.68841 0.11204 0.75995 0.0
C4095 C 0.67291 0.11999 0.78903 0.0
C4096 C 0.66082 0.11432 0.80498 0.0
C4097 C 0.69427 0.13193 0.75868 0.0
C4098 C 0.69003 0.14595 0.77325 0.0
C4099 C 0.67913 0.13977 0.78802 0.0
C4100 C 0.6972 0.16708 0.7741 0.0
C4101 C 0.70488 0.13768 0.74173 0.0
C4102 C 0.71652 0.17412 0.77548 0.0
C4103 C 0.72333 0.19413 0.7789 0.0
C4104 C 0.71093 0.20741 0.7814 0.0
C4105 C 0.69159 0.20037 0.77945 0.0
C4106 C 0.6848 0.18041 0.77578 0.0
H4107 H 0.70153 0.12623 0.72893 0.0
H4108 H 0.70172 0.15159 0.73728 0.0
H4109 H 0.72012 0.13957 0.74606 0.0
H4110 H 0.72639 0.16413 0.77476 0.0
H4111 H 0.73831 0.19913 0.78045 0.0
loop_
_geom_bond_atom_site_label_1
_geom_bond_atom_site_label_2
_geom_bond_distance
_geom_bond_site_symmetry_2
_ccdc_geom_bond_type
Mg0 O1 2.028 . S
Mg0 O7 1.986 . S
Mg0 O9 2.120 . S
Mg0 O10 2.251 1_455 S
Mg0 O13 2.010 . S
O1 Mg0 2.028 . S
O1 C4 1.250 . S
O2 Mg3 2.028 1_455 S
O2 C4 1.248 . S
Mg3 O2 2.028 1_655 S
Mg3 O8 2.032 . S
Mg3 O10 2.079 . S
C4 O1 1.250 . S
C4 O2 1.248 . S
C5 O6 1.264 . S
C5 O13 1.249 . S
O6 C5 1.264 . S
O7 Mg0 1.986 . S
O7 C11 1.246 . S
O8 Mg3 2.032 . S
O8 C11 1.259 1_655 S
O9 Mg0 2.120 . S
O9 C12 1.242 1_455 S
O10 Mg0 2.251 1_655 S
O10 Mg3 2.079 . S
O10 C12 1.273 . S
C11 O7 1.246 . S
C11 O8 1.259 1_455 S
C12 O9 1.242 1_655 S
C12 O10 1.273 . S
O13 Mg0 2.010 . S
O13 C5 1.249 . S
Mg14 O15 2.028 . S
Mg14 O21 1.986 . S
Mg14 O23 2.114 1_455 S
Mg14 O24 2.251 1_455 S
Mg14 O27 2.010 . S
O15 Mg14 2.028 . S
O15 C18 1.250 1_455 S
O16 Mg17 2.028 . S
O16 C18 1.248 . S
Mg17 O16 2.028 . S
Mg17 O22 2.032 . S
Mg17 O24 2.079 . S
C18 O15 1.250 1_655 S
C18 O16 1.248 . S
C19 O20 1.264 . S
C19 O27 1.249 . S
O20 C19 1.264 . S
O21 Mg14 1.986 . S
O21 C25 1.246 . S
O22 Mg17 2.032 . S
O22 C25 1.259 1_655 S
O23 Mg14 2.114 1_655 S
O23 C26 1.252 . S
O24 Mg14 2.251 1_655 S
O24 Mg17 2.079 . S
O24 C26 1.273 . S
C25 O21 1.246 . S
C25 O22 1.259 1_455 S
C26 O23 1.252 . S
C26 O24 1.273 . S
O27 Mg14 2.010 . S
O27 C19 1.249 . S
Mg28 O29 2.028 . S
Mg28 O35 1.986 . S
Mg28 O37 2.114 . S
Mg28 O38 2.251 . S
Mg28 O41 2.010 . S
O29 Mg28 2.028 . S
O29 C32 1.250 . S
O30 Mg31 2.028 . S
O30 C32 1.248 . S
Mg31 O30 2.028 . S
Mg31 O36 2.032 . S
Mg31 O38 2.079 . S
C32 O29 1.250 . S
C32 O30 1.248 . S
C33 O34 1.264 . S
C33 O41 1.249 . S
O34 C33 1.264 . S
O35 Mg28 1.986 . S
O35 C39 1.246 . S
O36 Mg31 2.032 . S
O36 C39 1.259 . S
O37 Mg28 2.114 . S
O37 C40 1.252 . S
O38 Mg28 2.251 . S
O38 Mg31 2.079 . S
O38 C40 1.273 . S
C39 O35 1.246 . S
C39 O36 1.259 . S
C40 O37 1.252 . S
C40 O38 1.273 . S
O41 Mg28 2.010 . S
O41 C33 1.249 . S
Mg42 O43 2.028 . S
Mg42 O49 1.986 . S
Mg42 O51 2.114 . S
Mg42 O52 2.251 . S
Mg42 O55 2.010 . S
O43 Mg42 2.028 . S
O43 C46 1.250 . S
O44 Mg45 2.028 . S
O44 C46 1.248 . S
Mg45 O44 2.028 . S
Mg45 O50 2.032 . S
Mg45 O52 2.079 . S
C46 O43 1.250 . S
C46 O44 1.248 . S
C47 O48 1.264 . S
C47 O55 1.249 . S
O48 C47 1.264 . S
O49 Mg42 1.986 . S
O49 C53 1.246 . S
O50 Mg45 2.032 . S
O50 C53 1.259 . S
O51 Mg42 2.114 . S
O51 C54 1.252 . S
O52 Mg42 2.251 . S
O52 Mg45 2.079 . S
O52 C54 1.273 . S
C53 O49 1.246 . S
C53 O50 1.259 . S
C54 O51 1.252 . S
C54 O52 1.273 . S
O55 Mg42 2.010 . S
O55 C47 1.249 . S
Mg56 O57 2.028 . S
Mg56 O63 1.986 . S
Mg56 O65 2.114 . S
Mg56 O66 2.251 1_455 S
Mg56 O69 2.010 . S
O57 Mg56 2.028 . S
O57 C60 1.250 . S
O58 Mg59 2.028 1_455 S
O58 C60 1.248 . S
Mg59 O58 2.028 1_655 S
Mg59 O64 2.032 1_655 S
Mg59 O66 2.079 . S
C60 O57 1.250 . S
C60 O58 1.248 . S
C61 O62 1.264 . S
C61 O69 1.249 . S
O62 C61 1.264 . S
O63 Mg56 1.986 . S
O63 C67 1.246 . S
O64 Mg59 2.032 1_455 S
O64 C67 1.259 . S
O65 Mg56 2.114 . S
O65 C68 1.252 1_455 S
O66 Mg56 2.251 1_655 S
O66 Mg59 2.079 . S
O66 C68 1.273 . S
C67 O63 1.246 . S
C67 O64 1.259 . S
C68 O65 1.252 1_655 S
C68 O66 1.273 . S
O69 Mg56 2.010 . S
O69 C61 1.249 . S
Mg70 O71 2.028 . S
Mg70 O77 1.986 . S
Mg70 O79 2.114 . S
Mg70 O80 2.251 . S
Mg70 O83 2.010 . S
O71 Mg70 2.028 . S
O71 C74 1.250 . S
O72 Mg73 2.028 . S
O72 C74 1.248 . S
Mg73 O72 2.028 . S
Mg73 O78 2.032 . S
Mg73 O80 2.079 . S
C74 O71 1.250 . S
C74 O72 1.248 . S
C75 O76 1.264 . S
C75 O83 1.249 . S
O76 C75 1.264 . S
O77 Mg70 1.986 . S
O77 C81 1.246 . S
O78 Mg73 2.032 . S
O78 C81 1.259 . S
O79 Mg70 2.114 . S
O79 C82 1.252 . S
O80 Mg70 2.251 . S
O80 Mg73 2.079 . S
O80 C82 1.273 . S
C81 O77 1.246 . S
C81 O78 1.259 . S
C82 O79 1.252 . S
C82 O80 1.273 . S
O83 Mg70 2.010 . S
O83 C75 1.249 . S
Mg84 O85 2.028 . S
Mg84 O91 1.986 . S
Mg84 O93 2.114 . S
Mg84 O94 2.251 . S
Mg84 O97 2.010 . S
O85 Mg84 2.028 . S
O85 C88 1.250 . S
O86 Mg87 2.028 . S
O86 C88 1.248 . S
Mg87 O86 2.028 . S
Mg87 O92 2.032 . S
Mg87 O94 2.079 . S
C88 O85 1.250 . S
C88 O86 1.248 . S
C89 O90 1.264 . S
C89 O97 1.249 . S
O90 C89 1.264 . S
O91 Mg84 1.986 . S
O91 C95 1.246 . S
O92 Mg87 2.032 . S
O92 C95 1.259 . S
O93 Mg84 2.114 . S
O93 C96 1.252 . S
O94 Mg84 2.251 . S
O94 Mg87 2.079 . S
O94 C96 1.273 . S
C95 O91 1.246 . S
C95 O92 1.259 . S
C96 O93 1.252 . S
C96 O94 1.273 . S
O97 Mg84 2.010 . S
O97 C89 1.249 . S
Mg98 O99 2.028 1_655 S
Mg98 O105 1.984 1_655 S
Mg98 O107 2.119 . S
Mg98 O108 2.261 . S
Mg98 O111 2.002 1_655 S
O99 Mg98 2.028 1_455 S
O99 C102 1.248 1_455 S
O100 Mg101 2.028 . S
O100 C102 1.251 . S
Mg101 O100 2.028 . S
Mg101 O106 2.032 . S
Mg101 O108 2.079 . S
C102 O99 1.248 1_655 S
C102 O100 1.251 . S
C103 O104 1.264 . S
C103 O111 1.249 . S
O104 C103 1.264 . S
O105 Mg98 1.984 1_455 S
O105 C109 1.246 1_455 S
O106 Mg101 2.032 . S
O106 C109 1.259 . S
O107 Mg98 2.119 . S
O107 C110 1.252 . S
O108 Mg98 2.261 . S
O108 Mg101 2.079 . S
O108 C110 1.273 . S
C109 O105 1.246 1_655 S
C109 O106 1.259 . S
C110 O107 1.252 . S
C110 O108 1.273 . S
O111 Mg98 2.002 1_455 S
O111 C103 1.249 . S
Mg112 O113 2.028 . S
Mg112 O119 1.986 . S
Mg112 O121 2.114 . S
Mg112 O122 2.251 . S
Mg112 O125 2.010 . S
O113 Mg112 2.028 . S
O113 C116 1.250 1_545 S
O114 Mg115 2.028 . S
O114 C116 1.248 1_545 S
Mg115 O114 2.028 . S
Mg115 O120 2.032 . S
Mg115 O122 2.079 . S
C116 O113 1.250 1_565 S
C116 O114 1.248 1_565 S
C117 O118 1.264 . S
C117 O125 1.249 . S
O118 C117 1.264 . S
O119 Mg112 1.986 . S
O119 C123 1.246 . S
O120 Mg115 2.032 . S
O120 C123 1.259 . S
O121 Mg112 2.114 . S
O121 C124 1.252 . S
O122 Mg112 2.251 . S
O122 Mg115 2.079 . S
O122 C124 1.273 . S
C123 O119 1.246 . S
C123 O120 1.259 . S
C124 O121 1.252 . S
C124 O122 1.273 . S
O125 Mg112 2.010 . S
O125 C117 1.249 . S
Mg126 O127 2.028 . S
Mg126 O133 1.986 . S
Mg126 O135 2.114 . S
Mg126 O136 2.251 . S
Mg126 O139 2.010 . S
O127 Mg126 2.028 . S
O127 C130 1.250 . S
O128 Mg129 2.028 . S
O128 C130 1.248 . S
Mg129 O128 2.028 . S
Mg129 O134 2.032 . S
Mg129 O136 2.079 . S
C130 O127 1.250 . S
C130 O128 1.248 . S
C131 O132 1.264 . S
C131 O139 1.249 . S
O132 C131 1.264 . S
O133 Mg126 1.986 . S
O133 C137 1.246 . S
O134 Mg129 2.032 . S
O134 C137 1.259 . S
O135 Mg126 2.114 . S
O135 C138 1.252 . S
O136 Mg126 2.251 . S
O136 Mg129 2.079 . S
O136 C138 1.273 . S
C137 O133 1.246 . S
C137 O134 1.259 . S
C138 O135 1.252 . S
C138 O136 1.273 . S
O139 Mg126 2.010 . S
O139 C131 1.249 . S
Mg140 O141 2.028 1_565 S
Mg140 O147 1.986 . S
Mg140 O149 2.114 1_565 S
Mg140 O150 2.251 1_565 S
Mg140 O153 2.010 . S
O141 Mg140 2.028 1_545 S
O141 C144 1.250 . S
O142 Mg143 2.028 . S
O142 C144 1.248 . S
Mg143 O142 2.028 . S
Mg143 O148 2.032 1_545 S
Mg143 O150 2.079 . S
C144 O141 1.250 . S
C144 O142 1.248 . S
C145 O146 1.264 . S
C145 O153 1.249 . S
O146 C145 1.264 . S
O147 Mg140 1.986 . S
O147 C151 1.246 . S
O148 Mg143 2.032 1_565 S
O148 C151 1.259 . S
O149 Mg140 2.114 1_545 S
O149 C152 1.252 . S
O150 Mg140 2.251 1_545 S
O150 Mg143 2.079 . S
O150 C152 1.273 . S
C151 O147 1.246 . S
C151 O148 1.259 . S
C152 O149 1.252 . S
C152 O150 1.273 . S
O153 Mg140 2.010 . S
O153 C145 1.249 . S
Mg154 O155 2.028 . S
Mg154 O161 1.986 . S
Mg154 O163 2.114 . S
Mg154 O164 2.251 . S
Mg154 O167 2.010 . S
O155 Mg154 2.028 . S
O155 C158 1.250 1_554 S
O156 Mg157 2.030 . S
O156 C158 1.247 1_554 S
Mg157 O156 2.030 . S
Mg157 O162 2.032 . S
Mg157 O164 2.079 . S
C158 O155 1.250 1_556 S
C158 O156 1.247 1_556 S
C159 O160 1.264 . S
C159 O167 1.249 . S
O160 C159 1.264 . S
O161 Mg154 1.986 . S
O161 C165 1.246 . S
O162 Mg157 2.032 . S
O162 C165 1.259 . S
O163 Mg154 2.114 . S
O163 C166 1.252 . S
O164 Mg154 2.251 . S
O164 Mg157 2.079 . S
O164 C166 1.273 . S
C165 O161 1.246 . S
C165 O162 1.259 . S
C166 O163 1.252 . S
C166 O164 1.273 . S
O167 Mg154 2.010 . S
O167 C159 1.249 . S
Mg168 O169 2.028 . S
Mg168 O175 1.986 . S
Mg168 O177 2.114 . S
Mg168 O178 2.251 . S
Mg168 O181 2.010 . S
O169 Mg168 2.028 . S
O169 C172 1.250 . S
O170 Mg171 2.028 . S
O170 C172 1.248 . S
Mg171 O170 2.028 . S
Mg171 O176 2.032 . S
Mg171 O178 2.079 . S
C172 O169 1.250 . S
C172 O170 1.248 . S
C173 O174 1.264 . S
C173 O181 1.249 . S
O174 C173 1.264 . S
O175 Mg168 1.986 . S
O175 C179 1.246 . S
O176 Mg171 2.032 . S
O176 C179 1.259 . S
O177 Mg168 2.114 . S
O177 C180 1.252 . S
O178 Mg168 2.251 . S
O178 Mg171 2.079 . S
O178 C180 1.273 . S
C179 O175 1.246 . S
C179 O176 1.259 . S
C180 O177 1.252 . S
C180 O178 1.273 . S
O181 Mg168 2.010 . S
O181 C173 1.249 . S
Mg182 O183 2.028 . S
Mg182 O189 1.986 1_554 S
Mg182 O191 2.114 . S
Mg182 O192 2.251 . S
Mg182 O195 2.010 . S
O183 Mg182 2.028 . S
O183 C186 1.250 . S
O184 Mg185 2.028 . S
O184 C186 1.248 . S
Mg185 O184 2.028 . S
Mg185 O190 2.039 . S
Mg185 O192 2.079 . S
C186 O183 1.250 . S
C186 O184 1.248 . S
C187 O188 1.240 1_554 S
C187 O195 1.249 . S
O188 C187 1.240 1_556 S
O189 Mg182 1.986 1_556 S
O189 C193 1.246 . S
O190 Mg185 2.039 . S
O190 C193 1.256 1_554 S
O191 Mg182 2.114 . S
O191 C194 1.252 . S
O192 Mg182 2.251 . S
O192 Mg185 2.079 . S
O192 C194 1.273 . S
C193 O189 1.246 . S
C193 O190 1.256 1_556 S
C194 O191 1.252 . S
C194 O192 1.273 . S
O195 Mg182 2.010 . S
O195 C187 1.249 . S
Mg196 O197 2.028 . S
Mg196 O203 1.986 . S
Mg196 O205 2.114 . S
Mg196 O206 2.251 . S
Mg196 O209 2.010 . S
O197 Mg196 2.028 . S
O197 C200 1.250 . S
O198 Mg199 2.028 . S
O198 C200 1.248 . S
Mg199 O198 2.028 . S
Mg199 O204 2.032 . S
Mg199 O206 2.079 . S
C200 O197 1.250 . S
C200 O198 1.248 . S
C201 O202 1.264 . S
C201 O209 1.249 . S
O202 C201 1.264 . S
O203 Mg196 1.986 . S
O203 C207 1.246 . S
O204 Mg199 2.032 . S
O204 C207 1.259 . S
O205 Mg196 2.114 . S
O205 C208 1.252 . S
O206 Mg196 2.251 . S
O206 Mg199 2.079 . S
O206 C208 1.273 . S
C207 O203 1.246 . S
C207 O204 1.259 . S
C208 O205 1.252 . S
C208 O206 1.273 . S
O209 Mg196 2.010 . S
O209 C201 1.249 . S
Mg210 O211 2.028 . S
Mg210 O217 1.986 . S
Mg210 O219 2.114 . S
Mg210 O220 2.251 . S
Mg210 O223 2.010 . S
O211 Mg210 2.028 . S
O211 C214 1.250 . S
O212 Mg213 2.028 . S
O212 C214 1.248 . S
Mg213 O212 2.028 . S
Mg213 O218 2.032 . S
Mg213 O220 2.079 . S
C214 O211 1.250 . S
C214 O212 1.248 . S
C215 O216 1.264 . S
C215 O223 1.249 . S
O216 C215 1.264 . S
O217 Mg210 1.986 . S
O217 C221 1.246 . S
O218 Mg213 2.032 . S
O218 C221 1.259 . S
O219 Mg210 2.114 . S
O219 C222 1.252 . S
O220 Mg210 2.251 . S
O220 Mg213 2.079 . S
O220 C222 1.273 . S
C221 O217 1.246 . S
C221 O218 1.259 . S
C222 O219 1.252 . S
C222 O220 1.273 . S
O223 Mg210 2.010 . S
O223 C215 1.249 . S
Mg224 O225 2.028 1_545 S
Mg224 O231 1.986 . S
Mg224 O233 2.114 . S
Mg224 O234 2.251 . S
Mg224 O237 2.010 . S
O225 Mg224 2.028 1_565 S
O225 C228 1.250 . S
O226 Mg227 2.028 1_565 S
O226 C228 1.248 . S
Mg227 O226 2.028 1_545 S
Mg227 O232 2.032 . S
Mg227 O234 2.079 . S
C228 O225 1.250 . S
C228 O226 1.248 . S
C229 O230 1.264 . S
C229 O237 1.249 . S
O230 C229 1.264 . S
O231 Mg224 1.986 . S
O231 C235 1.246 . S
O232 Mg227 2.032 . S
O232 C235 1.259 . S
O233 Mg224 2.114 . S
O233 C236 1.252 . S
O234 Mg224 2.251 . S
O234 Mg227 2.079 . S
O234 C236 1.273 . S
C235 O231 1.246 . S
C235 O232 1.259 . S
C236 O233 1.252 . S
C236 O234 1.273 . S
O237 Mg224 2.010 . S
O237 C229 1.249 . S
Mg238 O239 2.028 . S
Mg238 O245 1.986 . S
Mg238 O247 2.114 . S
Mg238 O248 2.251 . S
Mg238 O251 2.010 . S
O239 Mg238 2.028 . S
O239 C242 1.250 . S
O240 Mg241 2.028 . S
O240 C242 1.248 . S
Mg241 O240 2.028 . S
Mg241 O246 2.032 . S
Mg241 O248 2.079 . S
C242 O239 1.250 . S
C242 O240 1.248 . S
C243 O244 1.264 . S
C243 O251 1.249 . S
O244 C243 1.264 . S
O245 Mg238 1.986 . S
O245 C249 1.246 . S
O246 Mg241 2.032 . S
O246 C249 1.259 . S
O247 Mg238 2.114 . S
O247 C250 1.252 . S
O248 Mg238 2.251 . S
O248 Mg241 2.079 . S
O248 C250 1.273 . S
C249 O245 1.246 . S
C249 O246 1.259 . S
C250 O247 1.252 . S
C250 O248 1.273 . S
O251 Mg238 2.010 . S
O251 C243 1.249 . S
Mg252 O253 2.028 . S
Mg252 O259 1.986 . S
Mg252 O261 2.114 . S
Mg252 O262 2.251 . S
Mg252 O265 2.010 . S
O253 Mg252 2.028 . S
O253 C256 1.250 . S
O254 Mg255 2.028 . S
O254 C256 1.248 . S
Mg255 O254 2.028 . S
Mg255 O260 2.032 . S
Mg255 O262 2.079 . S
C256 O253 1.250 . S
C256 O254 1.248 . S
C257 O258 1.264 . S
C257 O265 1.249 . S
O258 C257 1.264 . S
O259 Mg252 1.986 . S
O259 C263 1.246 . S
O260 Mg255 2.032 . S
O260 C263 1.259 . S
O261 Mg252 2.114 . S
O261 C264 1.252 . S
O262 Mg252 2.251 . S
O262 Mg255 2.079 . S
O262 C264 1.273 . S
C263 O259 1.246 . S
C263 O260 1.259 . S
C264 O261 1.252 . S
C264 O262 1.273 . S
O265 Mg252 2.010 . S
O265 C257 1.249 . S
Mg266 O267 2.028 1_565 S
Mg266 O273 1.986 . S
Mg266 O275 2.114 1_565 S
Mg266 O276 2.251 . S
Mg266 O279 2.010 . S
O267 Mg266 2.028 1_545 S
O267 C270 1.250 . S
O268 Mg269 2.028 . S
O268 C270 1.248 . S
Mg269 O268 2.028 . S
Mg269 O274 2.032 1_545 S
Mg269 O276 2.079 1_545 S
C270 O267 1.250 . S
C270 O268 1.248 . S
C271 O272 1.264 . S
C271 O279 1.249 . S
O272 C271 1.264 . S
O273 Mg266 1.986 . S
O273 C277 1.246 . S
O274 Mg269 2.032 1_565 S
O274 C277 1.259 . S
O275 Mg266 2.114 1_545 S
O275 C278 1.252 . S
O276 Mg266 2.251 . S
O276 Mg269 2.079 1_565 S
O276 C278 1.273 1_565 S
C277 O273 1.246 . S
C277 O274 1.259 . S
C278 O275 1.252 . S
C278 O276 1.273 1_545 S
O279 Mg266 2.010 . S
O279 C271 1.249 . S
Mg280 O281 2.028 1_556 S
Mg280 O287 1.986 . S
Mg280 O289 2.114 1_556 S
Mg280 O290 2.251 . S
Mg280 O293 2.010 . S
O281 Mg280 2.028 1_554 S
O281 C284 1.250 . S
O282 Mg283 2.028 . S
O282 C284 1.248 . S
Mg283 O282 2.028 . S
Mg283 O288 2.032 1_554 S
Mg283 O290 2.079 1_554 S
C284 O281 1.250 . S
C284 O282 1.248 . S
C285 O286 1.264 . S
C285 O293 1.249 . S
O286 C285 1.264 . S
O287 Mg280 1.986 . S
O287 C291 1.246 . S
O288 Mg283 2.032 1_556 S
O288 C291 1.259 . S
O289 Mg280 2.114 1_554 S
O289 C292 1.252 . S
O290 Mg280 2.251 . S
O290 Mg283 2.079 1_556 S
O290 C292 1.273 1_556 S
C291 O287 1.246 . S
C291 O288 1.259 . S
C292 O289 1.252 . S
C292 O290 1.273 1_554 S
O293 Mg280 2.010 . S
O293 C285 1.249 . S
Mg294 O295 2.028 . S
Mg294 O301 1.986 . S
Mg294 O303 2.114 . S
Mg294 O304 2.251 . S
Mg294 O307 2.010 . S
O295 Mg294 2.028 . S
O295 C298 1.250 . S
O296 Mg297 2.028 . S
O296 C298 1.248 . S
Mg297 O296 2.028 . S
Mg297 O302 2.032 . S
Mg297 O304 2.079 . S
C298 O295 1.250 . S
C298 O296 1.248 . S
C299 O300 1.264 . S
C299 O307 1.249 . S
O300 C299 1.264 . S
O301 Mg294 1.986 . S
O301 C305 1.246 . S
O302 Mg297 2.032 . S
O302 C305 1.259 . S
O303 Mg294 2.114 . S
O303 C306 1.252 . S
O304 Mg294 2.251 . S
O304 Mg297 2.079 . S
O304 C306 1.273 . S
C305 O301 1.246 . S
C305 O302 1.259 . S
C306 O303 1.252 . S
C306 O304 1.273 . S
O307 Mg294 2.010 . S
O307 C299 1.249 . S
Mg308 O309 2.028 . S
Mg308 O315 1.986 . S
Mg308 O317 2.114 . S
Mg308 O318 2.251 . S
Mg308 O321 2.010 . S
O309 Mg308 2.028 . S
O309 C312 1.250 . S
O310 Mg311 2.028 . S
O310 C312 1.248 . S
Mg311 O310 2.028 . S
Mg311 O316 2.032 . S
Mg311 O318 2.079 . S
C312 O309 1.250 . S
C312 O310 1.248 . S
C313 O314 1.264 . S
C313 O321 1.249 . S
O314 C313 1.264 . S
O315 Mg308 1.986 . S
O315 C319 1.246 . S
O316 Mg311 2.032 . S
O316 C319 1.259 . S
O317 Mg308 2.114 . S
O317 C320 1.252 . S
O318 Mg308 2.251 . S
O318 Mg311 2.079 . S
O318 C320 1.273 . S
C319 O315 1.246 . S
C319 O316 1.259 . S
C320 O317 1.252 . S
C320 O318 1.273 . S
O321 Mg308 2.010 . S
O321 C313 1.249 . S
Mg322 O323 2.028 . S
Mg322 O329 1.986 . S
Mg322 O331 2.114 . S
Mg322 O332 2.251 . S
Mg322 O335 2.010 . S
O323 Mg322 2.028 . S
O323 C326 1.250 . S
O324 Mg325 2.028 . S
O324 C326 1.248 . S
Mg325 O324 2.028 . S
Mg325 O330 2.032 . S
Mg325 O332 2.079 . S
C326 O323 1.250 . S
C326 O324 1.248 . S
C327 O328 1.264 . S
C327 O335 1.249 . S
O328 C327 1.264 . S
O329 Mg322 1.986 . S
O329 C333 1.246 . S
O330 Mg325 2.032 . S
O330 C333 1.259 . S
O331 Mg322 2.114 . S
O331 C334 1.252 . S
O332 Mg322 2.251 . S
O332 Mg325 2.079 . S
O332 C334 1.273 . S
C333 O329 1.246 . S
C333 O330 1.259 . S
C334 O331 1.252 . S
C334 O332 1.273 . S
O335 Mg322 2.010 . S
O335 C327 1.249 . S
Zn336 O342 1.969 . S
Zn336 O343 1.965 1_565 S
Zn336 O347 2.024 . S
Zn336 O352 1.969 1_565 S
Zn337 O344 1.969 1_654 S
Zn337 O350 1.969 1_554 S
Zn337 O351 1.965 . S
Zn337 O353 2.024 1_655 S
C338 O339 1.229 . S
C338 O347 1.058 . S
O339 C338 1.229 . S
C340 O341 1.229 1_454 S
C340 O353 1.058 . S
O341 C340 1.229 1_656 S
O342 Zn336 1.969 . S
O342 C345 1.267 . S
O343 Zn336 1.965 1_545 S
O343 C354 1.260 1_554 S
O344 Zn337 1.969 1_456 S
O344 C354 1.258 . S
C345 O342 1.267 . S
C345 O346 1.228 . S
O346 C345 1.228 . S
O347 Zn336 2.024 . S
O347 C338 1.058 . S
C348 O349 1.228 . S
C348 O350 1.267 1_554 S
O349 C348 1.228 . S
O350 Zn337 1.969 1_556 S
O350 C348 1.267 1_556 S
O351 Zn337 1.965 . S
O351 C355 1.274 . S
O352 Zn336 1.969 1_545 S
O352 C355 1.234 1_455 S
O353 Zn337 2.024 1_455 S
O353 C340 1.058 . S
C354 O343 1.260 1_556 S
C354 O344 1.258 . S
C355 O351 1.274 . S
C355 O352 1.234 1_655 S
Zn356 O362 1.969 . S
Zn356 O363 1.965 . S
Zn356 O367 2.024 . S
Zn356 O372 1.969 . S
Zn357 O364 1.969 . S
Zn357 O370 1.969 . S
Zn357 O371 1.965 . S
Zn357 O373 2.024 . S
C358 O359 1.229 . S
C358 O367 1.058 . S
O359 C358 1.229 . S
C360 O361 1.229 . S
C360 O373 1.058 . S
O361 C360 1.229 . S
O362 Zn356 1.969 . S
O362 C365 1.267 . S
O363 Zn356 1.965 . S
O363 C374 1.260 . S
O364 Zn357 1.969 . S
O364 C374 1.258 . S
C365 O362 1.267 . S
C365 O366 1.228 . S
O366 C365 1.228 . S
O367 Zn356 2.024 . S
O367 C358 1.058 . S
C368 O369 1.228 . S
C368 O370 1.267 . S
O369 C368 1.228 . S
O370 Zn357 1.969 . S
O370 C368 1.267 . S
O371 Zn357 1.965 . S
O371 C375 1.260 . S
O372 Zn356 1.969 . S
O372 C375 1.258 . S
O373 Zn357 2.024 . S
O373 C360 1.058 . S
C374 O363 1.260 . S
C374 O364 1.258 . S
C375 O371 1.260 . S
C375 O372 1.258 . S
Zn376 O382 1.969 . S
Zn376 O383 1.965 . S
Zn376 O387 2.024 . S
Zn376 O392 1.969 . S
Zn377 O384 1.969 1_565 S
Zn377 O390 1.969 . S
Zn377 O391 1.965 1_565 S
Zn377 O393 2.024 . S
C378 O379 1.229 . S
C378 O387 1.058 . S
O379 C378 1.229 . S
C380 O381 1.229 . S
C380 O393 1.058 . S
O381 C380 1.229 . S
O382 Zn376 1.969 . S
O382 C385 1.267 . S
O383 Zn376 1.965 . S
O383 C394 1.260 . S
O384 Zn377 1.969 1_545 S
O384 C394 1.258 . S
C385 O382 1.267 . S
C385 O386 1.228 . S
O386 C385 1.228 . S
O387 Zn376 2.024 . S
O387 C378 1.058 . S
C388 O389 1.228 . S
C388 O390 1.267 . S
O389 C388 1.228 . S
O390 Zn377 1.969 . S
O390 C388 1.267 . S
O391 Zn377 1.965 1_545 S
O391 C395 1.260 . S
O392 Zn376 1.969 . S
O392 C395 1.258 . S
O393 Zn377 2.024 . S
O393 C380 1.058 . S
C394 O383 1.260 . S
C394 O384 1.258 . S
C395 O391 1.260 . S
C395 O392 1.258 . S
Zn396 O402 1.969 . S
Zn396 O403 1.965 . S
Zn396 O407 2.024 . S
Zn396 O412 1.969 . S
Zn397 O404 1.969 . S
Zn397 O410 1.969 . S
Zn397 O411 1.965 . S
Zn397 O413 2.024 . S
C398 O399 1.229 . S
C398 O407 1.058 . S
O399 C398 1.229 . S
C400 O401 1.229 . S
C400 O413 1.058 . S
O401 C400 1.229 . S
O402 Zn396 1.969 . S
O402 C405 1.267 . S
O403 Zn396 1.965 . S
O403 C414 1.260 . S
O404 Zn397 1.969 . S
O404 C414 1.258 . S
C405 O402 1.267 . S
C405 O406 1.228 . S
O406 C405 1.228 . S
O407 Zn396 2.024 . S
O407 C398 1.058 . S
C408 O409 1.228 . S
C408 O410 1.267 . S
O409 C408 1.228 . S
O410 Zn397 1.969 . S
O410 C408 1.267 . S
O411 Zn397 1.965 . S
O411 C415 1.260 . S
O412 Zn396 1.969 . S
O412 C415 1.258 . S
O413 Zn397 2.024 . S
O413 C400 1.058 . S
C414 O403 1.260 . S
C414 O404 1.258 . S
C415 O411 1.260 . S
C415 O412 1.258 . S
Zn416 O422 1.969 . S
Zn416 O423 1.965 1_455 S
Zn416 O427 2.024 1_565 S
Zn416 O432 1.969 1_565 S
Zn417 O424 1.969 . S
Zn417 O430 1.969 . S
Zn417 O431 1.965 1_655 S
Zn417 O433 2.025 . S
C418 O419 1.229 1_545 S
C418 O427 1.058 . S
O419 C418 1.229 1_565 S
C420 O421 1.229 . S
C420 O433 1.064 . S
O421 C420 1.229 . S
O422 Zn416 1.969 . S
O422 C425 1.267 . S
O423 Zn416 1.965 1_655 S
O423 C434 1.260 1_565 S
O424 Zn417 1.969 . S
O424 C434 1.258 . S
C425 O422 1.267 . S
C425 O426 1.235 . S
O426 C425 1.235 . S
O427 Zn416 2.024 1_545 S
O427 C418 1.058 . S
C428 O429 1.256 . S
C428 O430 1.251 1_455 S
O429 C428 1.256 . S
O430 Zn417 1.969 . S
O430 C428 1.251 1_655 S
O431 Zn417 1.965 1_455 S
O431 C435 1.260 . S
O432 Zn416 1.969 1_545 S
O432 C435 1.258 . S
O433 Zn417 2.025 . S
O433 C420 1.064 . S
C434 O423 1.260 1_545 S
C434 O424 1.258 . S
C435 O431 1.260 . S
C435 O432 1.258 . S
Zn436 O442 1.969 . S
Zn436 O443 1.965 . S
Zn436 O447 2.024 . S
Zn436 O452 1.969 . S
Zn437 O444 1.969 . S
Zn437 O450 1.969 . S
Zn437 O451 1.965 . S
Zn437 O453 2.024 . S
C438 O439 1.229 . S
C438 O447 1.058 . S
O439 C438 1.229 . S
C440 O441 1.229 . S
C440 O453 1.058 . S
O441 C440 1.229 . S
O442 Zn436 1.969 . S
O442 C445 1.267 . S
O443 Zn436 1.965 . S
O443 C454 1.260 . S
O444 Zn437 1.969 . S
O444 C454 1.258 . S
C445 O442 1.267 . S
C445 O446 1.228 . S
O446 C445 1.228 . S
O447 Zn436 2.024 . S
O447 C438 1.058 . S
C448 O449 1.228 . S
C448 O450 1.267 . S
O449 C448 1.228 . S
O450 Zn437 1.969 . S
O450 C448 1.267 . S
O451 Zn437 1.965 . S
O451 C455 1.260 . S
O452 Zn436 1.969 . S
O452 C455 1.258 . S
O453 Zn437 2.024 . S
O453 C440 1.058 . S
C454 O443 1.260 . S
C454 O444 1.258 . S
C455 O451 1.260 . S
C455 O452 1.258 . S
Zn456 O462 1.969 1_554 S
Zn456 O463 1.965 1_545 S
Zn456 O467 2.024 . S
Zn456 O472 1.969 . S
Zn457 O464 1.996 . S
Zn457 O470 1.983 . S
Zn457 O471 1.938 1_565 S
Zn457 O473 2.014 1_565 S
C458 O459 1.229 . S
C458 O467 1.058 . S
O459 C458 1.229 . S
C460 O461 1.229 . S
C460 O473 1.058 1_565 S
O461 C460 1.229 . S
O462 Zn456 1.969 1_556 S
O462 C465 1.267 . S
O463 Zn456 1.965 1_565 S
O463 C474 1.260 . S
O464 Zn457 1.996 . S
O464 C474 1.258 . S
C465 O462 1.267 . S
C465 O466 1.228 . S
O466 C465 1.228 . S
O467 Zn456 2.024 . S
O467 C458 1.058 . S
C468 O469 1.228 . S
C468 O470 1.267 1_545 S
O469 C468 1.228 . S
O470 Zn457 1.983 . S
O470 C468 1.267 1_565 S
O471 Zn457 1.938 1_545 S
O471 C475 1.260 . S
O472 Zn456 1.969 . S
O472 C475 1.258 . S
O473 Zn457 2.014 1_545 S
O473 C460 1.058 1_545 S
C474 O463 1.260 . S
C474 O464 1.258 . S
C475 O471 1.260 . S
C475 O472 1.258 . S
Zn476 O482 1.969 . S
Zn476 O483 1.965 . S
Zn476 O487 2.024 . S
Zn476 O492 1.969 . S
Zn477 O484 1.969 . S
Zn477 O490 1.969 . S
Zn477 O491 1.965 . S
Zn477 O493 2.024 . S
C478 O479 1.229 . S
C478 O487 1.058 . S
O479 C478 1.229 . S
C480 O481 1.229 . S
C480 O493 1.058 . S
O481 C480 1.229 . S
O482 Zn476 1.969 . S
O482 C485 1.267 . S
O483 Zn476 1.965 . S
O483 C494 1.260 . S
O484 Zn477 1.969 . S
O484 C494 1.258 . S
C485 O482 1.267 . S
C485 O486 1.228 . S
O486 C485 1.228 . S
O487 Zn476 2.024 . S
O487 C478 1.058 . S
C488 O489 1.228 . S
C488 O490 1.267 . S
O489 C488 1.228 . S
O490 Zn477 1.969 . S
O490 C488 1.267 . S
O491 Zn477 1.965 . S
O491 C495 1.260 . S
O492 Zn476 1.969 . S
O492 C495 1.258 . S
O493 Zn477 2.024 . S
O493 C480 1.058 . S
C494 O483 1.260 . S
C494 O484 1.258 . S
C495 O491 1.260 . S
C495 O492 1.258 . S
Zn496 O502 1.969 . S
Zn496 O503 1.965 . S
Zn496 O507 2.024 . S
Zn496 O512 1.969 . S
Zn497 O504 1.969 1_556 S
Zn497 O510 1.969 1_556 S
Zn497 O511 1.965 1_556 S
Zn497 O513 2.024 . S
C498 O499 1.229 . S
C498 O507 1.058 . S
O499 C498 1.229 . S
C500 O501 1.229 . S
C500 O513 1.058 . S
O501 C500 1.229 . S
O502 Zn496 1.969 . S
O502 C505 1.267 . S
O503 Zn496 1.965 . S
O503 C514 1.260 . S
O504 Zn497 1.969 1_554 S
O504 C514 1.258 . S
C505 O502 1.267 . S
C505 O506 1.228 . S
O506 C505 1.228 . S
O507 Zn496 2.024 . S
O507 C498 1.058 . S
C508 O509 1.228 . S
C508 O510 1.267 1_556 S
O509 C508 1.228 . S
O510 Zn497 1.969 1_554 S
O510 C508 1.267 1_554 S
O511 Zn497 1.965 1_554 S
O511 C515 1.260 . S
O512 Zn496 1.969 . S
O512 C515 1.258 . S
O513 Zn497 2.024 . S
O513 C500 1.058 . S
C514 O503 1.260 . S
C514 O504 1.258 . S
C515 O511 1.260 . S
C515 O512 1.258 . S
Zn516 O522 1.969 . S
Zn516 O523 1.965 . S
Zn516 O527 2.024 . S
Zn516 O532 1.969 . S
Zn517 O524 1.969 . S
Zn517 O530 1.969 . S
Zn517 O531 1.965 . S
Zn517 O533 2.024 . S
C518 O519 1.229 . S
C518 O527 1.058 . S
O519 C518 1.229 . S
C520 O521 1.229 . S
C520 O533 1.058 . S
O521 C520 1.229 . S
O522 Zn516 1.969 . S
O522 C525 1.267 . S
O523 Zn516 1.965 . S
O523 C534 1.260 . S
O524 Zn517 1.969 . S
O524 C534 1.258 . S
C525 O522 1.267 . S
C525 O526 1.228 . S
O526 C525 1.228 . S
O527 Zn516 2.024 . S
O527 C518 1.058 . S
C528 O529 1.228 . S
C528 O530 1.267 . S
O529 C528 1.228 . S
O530 Zn517 1.969 . S
O530 C528 1.267 . S
O531 Zn517 1.965 . S
O531 C535 1.260 . S
O532 Zn516 1.969 . S
O532 C535 1.258 . S
O533 Zn517 2.024 . S
O533 C520 1.058 . S
C534 O523 1.260 . S
C534 O524 1.258 . S
C535 O531 1.260 . S
C535 O532 1.258 . S
Zn536 O542 1.969 . S
Zn536 O543 1.965 . S
Zn536 O547 2.024 . S
Zn536 O552 1.969 . S
Zn537 O544 1.982 . S
Zn537 O550 1.969 . S
Zn537 O551 1.965 1_655 S
Zn537 O553 2.024 . S
C538 O539 1.229 . S
C538 O547 1.058 . S
O539 C538 1.229 . S
C540 O541 1.229 . S
C540 O553 1.058 . S
O541 C540 1.229 . S
O542 Zn536 1.969 . S
O542 C545 1.267 . S
O543 Zn536 1.965 . S
O543 C554 1.260 . S
O544 Zn537 1.982 . S
O544 C554 1.243 1_655 S
C545 O542 1.267 . S
C545 O546 1.228 . S
O546 C545 1.228 . S
O547 Zn536 2.024 . S
O547 C538 1.058 . S
C548 O549 1.228 . S
C548 O550 1.267 . S
O549 C548 1.228 . S
O550 Zn537 1.969 . S
O550 C548 1.267 . S
O551 Zn537 1.965 1_455 S
O551 C555 1.260 . S
O552 Zn536 1.969 . S
O552 C555 1.258 . S
O553 Zn537 2.024 . S
O553 C540 1.058 . S
C554 O543 1.260 . S
C554 O544 1.243 1_455 S
C555 O551 1.260 . S
C555 O552 1.258 . S
Zn556 O562 1.969 . S
Zn556 O563 1.965 . S
Zn556 O567 2.024 . S
Zn556 O572 1.969 . S
Zn557 O564 1.969 . S
Zn557 O570 1.969 . S
Zn557 O571 1.965 . S
Zn557 O573 2.024 . S
C558 O559 1.229 . S
C558 O567 1.058 . S
O559 C558 1.229 . S
C560 O561 1.229 . S
C560 O573 1.058 . S
O561 C560 1.229 . S
O562 Zn556 1.969 . S
O562 C565 1.267 . S
O563 Zn556 1.965 . S
O563 C574 1.260 . S
O564 Zn557 1.969 . S
O564 C574 1.258 . S
C565 O562 1.267 . S
C565 O566 1.228 . S
O566 C565 1.228 . S
O567 Zn556 2.024 . S
O567 C558 1.058 . S
C568 O569 1.228 . S
C568 O570 1.267 . S
O569 C568 1.228 . S
O570 Zn557 1.969 . S
O570 C568 1.267 . S
O571 Zn557 1.965 . S
O571 C575 1.260 . S
O572 Zn556 1.969 . S
O572 C575 1.258 . S
O573 Zn557 2.024 . S
O573 C560 1.058 . S
C574 O563 1.260 . S
C574 O564 1.258 . S
C575 O571 1.260 . S
C575 O572 1.258 . S
Zn576 O582 1.969 . S
Zn576 O583 1.965 . S
Zn576 O587 2.024 . S
Zn576 O592 1.969 . S
Zn577 O584 1.969 . S
Zn577 O590 1.969 . S
Zn577 O591 1.965 . S
Zn577 O593 2.024 . S
C578 O579 1.229 . S
C578 O587 1.058 . S
O579 C578 1.229 . S
C580 O581 1.229 . S
C580 O593 1.058 . S
O581 C580 1.229 . S
O582 Zn576 1.969 . S
O582 C585 1.267 . S
O583 Zn576 1.965 . S
O583 C594 1.260 . S
O584 Zn577 1.969 . S
O584 C594 1.258 . S
C585 O582 1.267 . S
C585 O586 1.228 . S
O586 C585 1.228 . S
O587 Zn576 2.024 . S
O587 C578 1.058 . S
C588 O589 1.228 . S
C588 O590 1.267 . S
O589 C588 1.228 . S
O590 Zn577 1.969 . S
O590 C588 1.267 . S
O591 Zn577 1.965 . S
O591 C595 1.260 . S
O592 Zn576 1.969 . S
O592 C595 1.258 . S
O593 Zn577 2.024 . S
O593 C580 1.058 . S
C594 O583 1.260 . S
C594 O584 1.258 . S
C595 O591 1.260 . S
C595 O592 1.258 . S
Zn596 O602 1.969 . S
Zn596 O603 1.965 . S
Zn596 O607 2.024 . S
Zn596 O612 1.969 . S
Zn597 O604 1.969 . S
Zn597 O610 1.969 . S
Zn597 O611 1.965 . S
Zn597 O613 2.024 . S
C598 O599 1.229 . S
C598 O607 1.058 . S
O599 C598 1.229 . S
C600 O601 1.229 . S
C600 O613 1.058 . S
O601 C600 1.229 . S
O602 Zn596 1.969 . S
O602 C605 1.267 . S
O603 Zn596 1.965 . S
O603 C614 1.260 . S
O604 Zn597 1.969 . S
O604 C614 1.258 . S
C605 O602 1.267 . S
C605 O606 1.228 . S
O606 C605 1.228 . S
O607 Zn596 2.024 . S
O607 C598 1.058 . S
C608 O609 1.228 . S
C608 O610 1.267 . S
O609 C608 1.228 . S
O610 Zn597 1.969 . S
O610 C608 1.267 . S
O611 Zn597 1.965 . S
O611 C615 1.260 . S
O612 Zn596 1.969 . S
O612 C615 1.258 . S
O613 Zn597 2.024 . S
O613 C600 1.058 . S
C614 O603 1.260 . S
C614 O604 1.258 . S
C615 O611 1.260 . S
C615 O612 1.258 . S
Zn616 O622 1.969 . S
Zn616 O623 1.965 . S
Zn616 O627 2.024 . S
Zn616 O632 1.969 . S
Zn617 O624 1.969 . S
Zn617 O630 1.969 . S
Zn617 O631 1.965 . S
Zn617 O633 2.024 . S
C618 O619 1.229 . S
C618 O627 1.058 . S
O619 C618 1.229 . S
C620 O621 1.229 . S
C620 O633 1.058 . S
O621 C620 1.229 . S
O622 Zn616 1.969 . S
O622 C625 1.267 . S
O623 Zn616 1.965 . S
O623 C634 1.260 . S
O624 Zn617 1.969 . S
O624 C634 1.258 . S
C625 O622 1.267 . S
C625 O626 1.228 . S
O626 C625 1.228 . S
O627 Zn616 2.024 . S
O627 C618 1.058 . S
C628 O629 1.228 . S
C628 O630 1.267 . S
O629 C628 1.228 . S
O630 Zn617 1.969 . S
O630 C628 1.267 . S
O631 Zn617 1.965 . S
O631 C635 1.260 . S
O632 Zn616 1.969 . S
O632 C635 1.258 . S
O633 Zn617 2.024 . S
O633 C620 1.058 . S
C634 O623 1.260 . S
C634 O624 1.258 . S
C635 O631 1.260 . S
C635 O632 1.258 . S
Zn636 O642 1.969 . S
Zn636 O643 1.965 . S
Zn636 O647 2.024 1_655 S
Zn636 O652 1.969 1_655 S
Zn637 O644 1.969 1_554 S
Zn637 O650 1.969 . S
Zn637 O651 1.965 . S
Zn637 O653 2.024 . S
C638 O639 1.229 1_455 S
C638 O647 1.058 . S
O639 C638 1.229 1_655 S
C640 O641 1.229 . S
C640 O653 1.058 1_556 S
O641 C640 1.229 . S
O642 Zn636 1.969 . S
O642 C645 1.267 . S
O643 Zn636 1.965 . S
O643 C654 1.236 1_654 S
O644 Zn637 1.969 1_556 S
O644 C654 1.291 . S
C645 O642 1.267 . S
C645 O646 1.228 . S
O646 C645 1.228 . S
O647 Zn636 2.024 1_455 S
O647 C638 1.058 . S
C648 O649 1.228 . S
C648 O650 1.267 . S
O649 C648 1.228 . S
O650 Zn637 1.969 . S
O650 C648 1.267 . S
O651 Zn637 1.965 . S
O651 C655 1.260 . S
O652 Zn636 1.969 1_455 S
O652 C655 1.258 . S
O653 Zn637 2.024 . S
O653 C640 1.058 1_554 S
C654 O643 1.236 1_456 S
C654 O644 1.291 . S
C655 O651 1.260 . S
C655 O652 1.258 . S
H656 C664 0.929 . S
H657 C666 0.930 . S
H658 C668 0.930 . S
H659 C671 0.929 . S
H660 C674 0.930 . S
H661 C676 0.960 . S
H662 C676 0.960 . S
H663 C676 0.960 . S
C664 H656 0.929 . S
C664 C665 1.377 1_455 S
C664 C666 1.384 . S
C665 C664 1.377 1_655 S
C665 C671 1.390 . S
C666 H657 0.930 . S
C666 C664 1.384 . S
C666 C667 1.372 . S
C667 C666 1.372 . S
C667 C668 1.400 1_455 S
C667 C672 1.490 . S
C668 H658 0.930 . S
C668 C667 1.400 1_655 S
C668 C671 1.386 . S
H669 C685 0.930 . S
H670 C686 0.931 . S
C671 H659 0.929 . S
C671 C665 1.390 . S
C671 C668 1.386 . S
C672 C667 1.490 . S
C672 C674 1.395 . S
C672 C675 1.403 1_455 S
H673 C679 0.930 . S
C674 H660 0.930 . S
C674 C672 1.395 . S
C674 C677 1.403 . S
C675 C672 1.403 1_655 S
C675 C676 1.524 . S
C675 C679 1.400 . S
C676 H661 0.960 . S
C676 H662 0.960 . S
C676 H663 0.960 . S
C676 C675 1.524 . S
C677 C674 1.403 . S
C677 C678 1.392 . S
C677 C681 1.491 . S
C678 C677 1.392 . S
C678 C679 1.385 1_455 S
C678 C680 1.478 . S
C679 H673 0.930 . S
C679 C675 1.400 . S
C679 C678 1.385 1_655 S
C680 C678 1.478 . S
C680 C682 1.381 . S
C680 C686 1.383 1_455 S
C681 C677 1.491 . S
C681 H687 0.959 1_556 S
C681 H688 0.965 1_556 S
C681 H689 0.958 . S
C682 C680 1.381 . S
C682 C683 1.394 . S
C682 H690 0.930 . S
C683 C682 1.394 . S
C683 C684 1.383 1_556 S
C683 H691 0.929 . S
C684 C683 1.383 1_554 S
C684 C685 1.377 1_455 S
C685 H669 0.930 . S
C685 C684 1.377 1_655 S
C685 C686 1.379 1_554 S
C686 H670 0.931 . S
C686 C680 1.383 1_655 S
C686 C685 1.379 1_556 S
H687 C681 0.959 1_554 S
H688 C681 0.965 1_554 S
H689 C681 0.958 . S
H690 C682 0.930 . S
H691 C683 0.929 . S
H692 C700 0.929 . S
H693 C702 0.930 . S
H694 C704 0.930 . S
H695 C707 0.929 . S
H696 C710 0.930 . S
H697 C712 0.960 . S
H698 C712 0.960 . S
H699 C712 0.960 . S
C700 H692 0.929 . S
C700 C701 1.377 . S
C700 C702 1.384 . S
C701 C700 1.377 . S
C701 C707 1.390 . S
C702 H693 0.930 . S
C702 C700 1.384 . S
C702 C703 1.372 . S
C703 C702 1.372 . S
C703 C704 1.400 . S
C703 C708 1.490 . S
C704 H694 0.930 . S
C704 C703 1.400 . S
C704 C707 1.386 . S
H705 C721 0.930 . S
H706 C722 0.931 . S
C707 H695 0.929 . S
C707 C701 1.390 . S
C707 C704 1.386 . S
C708 C703 1.490 . S
C708 C710 1.395 . S
C708 C711 1.403 . S
H709 C715 0.930 . S
C710 H696 0.930 . S
C710 C708 1.395 . S
C710 C713 1.403 . S
C711 C708 1.403 . S
C711 C712 1.524 . S
C711 C715 1.400 . S
C712 H697 0.960 . S
C712 H698 0.960 . S
C712 H699 0.960 . S
C712 C711 1.524 . S
C713 C710 1.403 . S
C713 C714 1.392 . S
C713 C717 1.495 . S
C714 C713 1.392 . S
C714 C715 1.385 . S
C714 C716 1.478 . S
C715 H709 0.930 . S
C715 C711 1.400 . S
C715 C714 1.385 . S
C716 C714 1.478 . S
C716 C718 1.381 . S
C716 C722 1.383 . S
C717 C713 1.495 . S
C717 H723 0.959 . S
C717 H724 0.961 . S
C717 H725 0.960 . S
C718 C716 1.381 . S
C718 C719 1.394 . S
C718 H726 0.930 . S
C719 C718 1.394 . S
C719 C720 1.383 . S
C719 H727 0.929 . S
C720 C719 1.383 . S
C720 C721 1.377 . S
C721 H705 0.930 . S
C721 C720 1.377 . S
C721 C722 1.379 . S
C722 H706 0.931 . S
C722 C716 1.383 . S
C722 C721 1.379 . S
H723 C717 0.959 . S
H724 C717 0.961 . S
H725 C717 0.960 . S
H726 C718 0.930 . S
H727 C719 0.929 . S
H728 C736 0.929 . S
H729 C738 0.930 . S
H730 C740 0.930 . S
H731 C743 0.929 . S
H732 C746 0.930 . S
H733 C748 0.960 . S
H734 C748 0.960 . S
H735 C748 0.960 . S
C736 H728 0.929 . S
C736 C737 1.377 . S
C736 C738 1.384 . S
C737 C736 1.377 . S
C737 C743 1.390 . S
C738 H729 0.930 . S
C738 C736 1.384 . S
C738 C739 1.372 . S
C739 C738 1.372 . S
C739 C740 1.400 . S
C739 C744 1.490 . S
C740 H730 0.930 . S
C740 C739 1.400 . S
C740 C743 1.386 . S
H741 C757 0.930 . S
H742 C758 0.931 . S
C743 H731 0.929 . S
C743 C737 1.390 . S
C743 C740 1.386 . S
C744 C739 1.490 . S
C744 C746 1.395 . S
C744 C747 1.403 . S
H745 C751 0.930 . S
C746 H732 0.930 . S
C746 C744 1.395 . S
C746 C749 1.403 . S
C747 C744 1.403 . S
C747 C748 1.524 . S
C747 C751 1.400 . S
C748 H733 0.960 . S
C748 H734 0.960 . S
C748 H735 0.960 . S
C748 C747 1.524 . S
C749 C746 1.403 . S
C749 C750 1.392 . S
C749 C753 1.495 . S
C750 C749 1.392 . S
C750 C751 1.385 . S
C750 C752 1.478 . S
C751 H745 0.930 . S
C751 C747 1.400 . S
C751 C750 1.385 . S
C752 C750 1.478 . S
C752 C754 1.381 . S
C752 C758 1.383 . S
C753 C749 1.495 . S
C753 H759 0.959 . S
C753 H760 0.961 . S
C753 H761 0.960 . S
C754 C752 1.381 . S
C754 C755 1.394 . S
C754 H762 0.930 . S
C755 C754 1.394 . S
C755 C756 1.383 . S
C755 H763 0.929 . S
C756 C755 1.383 . S
C756 C757 1.377 . S
C757 H741 0.930 . S
C757 C756 1.377 . S
C757 C758 1.379 . S
C758 H742 0.931 . S
C758 C752 1.383 . S
C758 C757 1.379 . S
H759 C753 0.959 . S
H760 C753 0.961 . S
H761 C753 0.960 . S
H762 C754 0.930 . S
H763 C755 0.929 . S
H764 C772 0.929 . S
H765 C774 0.930 . S
H766 C776 0.930 . S
H767 C779 0.929 . S
H768 C782 0.930 . S
H769 C784 0.960 . S
H770 C784 0.960 . S
H771 C784 0.960 . S
C772 H764 0.929 . S
C772 C773 1.377 . S
C772 C774 1.384 . S
C773 C772 1.377 . S
C773 C779 1.390 . S
C774 H765 0.930 . S
C774 C772 1.384 . S
C774 C775 1.372 . S
C775 C774 1.372 . S
C775 C776 1.400 . S
C775 C780 1.490 . S
C776 H766 0.930 . S
C776 C775 1.400 . S
C776 C779 1.386 . S
H777 C793 0.930 . S
H778 C794 0.931 . S
C779 H767 0.929 . S
C779 C773 1.390 . S
C779 C776 1.386 . S
C780 C775 1.490 . S
C780 C782 1.395 . S
C780 C783 1.403 . S
H781 C787 0.930 . S
C782 H768 0.930 . S
C782 C780 1.395 . S
C782 C785 1.403 . S
C783 C780 1.403 . S
C783 C784 1.524 . S
C783 C787 1.400 . S
C784 H769 0.960 . S
C784 H770 0.960 . S
C784 H771 0.960 . S
C784 C783 1.524 . S
C785 C782 1.403 . S
C785 C786 1.392 . S
C785 C789 1.495 . S
C786 C785 1.392 . S
C786 C787 1.385 . S
C786 C788 1.478 . S
C787 H781 0.930 . S
C787 C783 1.400 . S
C787 C786 1.385 . S
C788 C786 1.478 . S
C788 C790 1.381 . S
C788 C794 1.383 . S
C789 C785 1.495 . S
C789 H795 0.959 . S
C789 H796 0.961 . S
C789 H797 0.960 . S
C790 C788 1.381 . S
C790 C791 1.394 . S
C790 H798 0.930 . S
C791 C790 1.394 . S
C791 C792 1.383 . S
C791 H799 0.929 . S
C792 C791 1.383 . S
C792 C793 1.377 . S
C793 H777 0.930 . S
C793 C792 1.377 . S
C793 C794 1.379 . S
C794 H778 0.931 . S
C794 C788 1.383 . S
C794 C793 1.379 . S
H795 C789 0.959 . S
H796 C789 0.961 . S
H797 C789 0.960 . S
H798 C790 0.930 . S
H799 C791 0.929 . S
H800 C808 0.929 . S
H801 C810 0.930 . S
H802 C812 0.930 . S
H803 C815 0.929 . S
H804 C818 0.930 . S
H805 C820 0.960 . S
H806 C820 0.960 . S
H807 C820 0.960 . S
C808 H800 0.929 . S
C808 C809 1.377 . S
C808 C810 1.384 . S
C809 C808 1.377 . S
C809 C815 1.390 1_455 S
C810 H801 0.930 . S
C810 C808 1.384 . S
C810 C811 1.372 . S
C811 C810 1.372 . S
C811 C812 1.400 1_455 S
C811 C816 1.490 . S
C812 H802 0.930 . S
C812 C811 1.400 1_655 S
C812 C815 1.386 . S
H813 C829 0.918 1_655 S
H814 C830 0.909 1_655 S
C815 H803 0.929 . S
C815 C809 1.390 1_655 S
C815 C812 1.386 . S
C816 C811 1.490 . S
C816 C818 1.395 . S
C816 C819 1.403 1_455 S
H817 C823 0.971 . S
C818 H804 0.930 . S
C818 C816 1.395 . S
C818 C821 1.403 . S
C819 C816 1.403 1_655 S
C819 C820 1.524 . S
C819 C823 1.401 . S
C820 H805 0.960 . S
C820 H806 0.960 . S
C820 H807 0.960 . S
C820 C819 1.524 . S
C821 C818 1.403 . S
C821 C822 1.392 . S
C821 C825 1.495 . S
C822 C821 1.392 . S
C822 C823 1.346 1_455 S
C822 C824 1.478 . S
C823 H817 0.971 . S
C823 C819 1.401 . S
C823 C822 1.346 1_655 S
C824 C822 1.478 . S
C824 C826 1.381 . S
C824 C830 1.410 . S
C825 C821 1.495 . S
C825 H831 0.959 . S
C825 H832 0.961 . S
C825 H833 0.960 . S
C826 C824 1.381 . S
C826 C827 1.394 . S
C826 H834 0.930 . S
C827 C826 1.394 . S
C827 C828 1.383 . S
C827 H835 0.929 . S
C828 C827 1.383 . S
C828 C829 1.386 . S
C829 H813 0.918 1_455 S
C829 C828 1.386 . S
C829 C830 1.377 . S
C830 H814 0.909 1_455 S
C830 C824 1.410 . S
C830 C829 1.377 . S
H831 C825 0.959 . S
H832 C825 0.961 . S
H833 C825 0.960 . S
H834 C826 0.930 . S
H835 C827 0.929 . S
H836 C844 0.929 . S
H837 C846 0.930 . S
H838 C848 0.930 . S
H839 C851 0.929 . S
H840 C854 0.930 . S
H841 C856 0.960 . S
H842 C856 0.960 . S
H843 C856 0.960 . S
C844 H836 0.929 . S
C844 C845 1.377 . S
C844 C846 1.384 . S
C845 C844 1.377 . S
C845 C851 1.390 . S
C846 H837 0.930 . S
C846 C844 1.384 . S
C846 C847 1.372 . S
C847 C846 1.372 . S
C847 C848 1.400 . S
C847 C852 1.490 . S
C848 H838 0.930 . S
C848 C847 1.400 . S
C848 C851 1.386 . S
H849 C865 0.930 . S
H850 C866 0.931 . S
C851 H839 0.929 . S
C851 C845 1.390 . S
C851 C848 1.386 . S
C852 C847 1.490 . S
C852 C854 1.395 . S
C852 C855 1.403 . S
H853 C859 0.930 . S
C854 H840 0.930 . S
C854 C852 1.395 . S
C854 C857 1.403 . S
C855 C852 1.403 . S
C855 C856 1.524 . S
C855 C859 1.400 . S
C856 H841 0.960 . S
C856 H842 0.960 . S
C856 H843 0.960 . S
C856 C855 1.524 . S
C857 C854 1.403 . S
C857 C858 1.392 . S
C857 C861 1.495 . S
C858 C857 1.392 . S
C858 C859 1.385 . S
C858 C860 1.478 . S
C859 H853 0.930 . S
C859 C855 1.400 . S
C859 C858 1.385 . S
C860 C858 1.478 . S
C860 C862 1.381 . S
C860 C866 1.383 . S
C861 C857 1.495 . S
C861 H867 0.959 . S
C861 H868 0.961 . S
C861 H869 0.960 . S
C862 C860 1.381 . S
C862 C863 1.394 . S
C862 H870 0.930 . S
C863 C862 1.394 . S
C863 C864 1.383 . S
C863 H871 0.929 . S
C864 C863 1.383 . S
C864 C865 1.377 . S
C865 H849 0.930 . S
C865 C864 1.377 . S
C865 C866 1.379 . S
C866 H850 0.931 . S
C866 C860 1.383 . S
C866 C865 1.379 . S
H867 C861 0.959 . S
H868 C861 0.961 . S
H869 C861 0.960 . S
H870 C862 0.930 . S
H871 C863 0.929 . S
H872 C880 0.929 . S
H873 C882 0.930 . S
H874 C884 0.930 . S
H875 C887 0.929 . S
H876 C890 0.930 . S
H877 C892 0.960 . S
H878 C892 0.960 . S
H879 C892 0.960 . S
C880 H872 0.929 . S
C880 C881 1.377 . S
C880 C882 1.384 . S
C881 C880 1.377 . S
C881 C887 1.390 . S
C882 H873 0.930 . S
C882 C880 1.384 . S
C882 C883 1.372 . S
C883 C882 1.372 . S
C883 C884 1.400 . S
C883 C888 1.490 . S
C884 H874 0.930 . S
C884 C883 1.400 . S
C884 C887 1.386 . S
H885 C901 0.930 . S
H886 C902 0.931 . S
C887 H875 0.929 . S
C887 C881 1.390 . S
C887 C884 1.386 . S
C888 C883 1.490 . S
C888 C890 1.395 . S
C888 C891 1.403 . S
H889 C895 0.930 . S
C890 H876 0.930 . S
C890 C888 1.395 . S
C890 C893 1.403 . S
C891 C888 1.403 . S
C891 C892 1.524 . S
C891 C895 1.400 . S
C892 H877 0.960 . S
C892 H878 0.960 . S
C892 H879 0.960 . S
C892 C891 1.524 . S
C893 C890 1.403 . S
C893 C894 1.392 . S
C893 C897 1.495 . S
C894 C893 1.392 . S
C894 C895 1.385 . S
C894 C896 1.478 . S
C895 H889 0.930 . S
C895 C891 1.400 . S
C895 C894 1.385 . S
C896 C894 1.478 . S
C896 C898 1.381 . S
C896 C902 1.383 . S
C897 C893 1.495 . S
C897 H903 0.959 . S
C897 H904 0.961 . S
C897 H905 0.960 . S
C898 C896 1.381 . S
C898 C899 1.394 . S
C898 H906 0.930 . S
C899 C898 1.394 . S
C899 C900 1.383 . S
C899 H907 0.929 . S
C900 C899 1.383 . S
C900 C901 1.377 . S
C901 H885 0.930 . S
C901 C900 1.377 . S
C901 C902 1.379 . S
C902 H886 0.931 . S
C902 C896 1.383 . S
C902 C901 1.379 . S
H903 C897 0.959 . S
H904 C897 0.961 . S
H905 C897 0.960 . S
H906 C898 0.930 . S
H907 C899 0.929 . S
H908 C916 0.929 . S
H909 C918 0.930 . S
H910 C920 0.930 . S
H911 C923 0.929 . S
H912 C926 0.930 . S
H913 C928 0.960 . S
H914 C928 0.960 . S
H915 C928 0.960 . S
C916 H908 0.929 . S
C916 C917 1.377 . S
C916 C918 1.384 . S
C917 C916 1.377 . S
C917 C923 1.390 . S
C918 H909 0.930 . S
C918 C916 1.384 . S
C918 C919 1.372 . S
C919 C918 1.372 . S
C919 C920 1.400 . S
C919 C924 1.490 . S
C920 H910 0.930 . S
C920 C919 1.400 . S
C920 C923 1.386 . S
H921 C937 0.930 . S
H922 C938 0.931 . S
C923 H911 0.929 . S
C923 C917 1.390 . S
C923 C920 1.386 . S
C924 C919 1.490 . S
C924 C926 1.395 . S
C924 C927 1.403 . S
H925 C931 0.930 . S
C926 H912 0.930 . S
C926 C924 1.395 . S
C926 C929 1.403 . S
C927 C924 1.403 . S
C927 C928 1.524 . S
C927 C931 1.400 . S
C928 H913 0.960 . S
C928 H914 0.960 . S
C928 H915 0.960 . S
C928 C927 1.524 . S
C929 C926 1.403 . S
C929 C930 1.392 . S
C929 C933 1.495 . S
C930 C929 1.392 . S
C930 C931 1.385 . S
C930 C932 1.478 . S
C931 H925 0.930 . S
C931 C927 1.400 . S
C931 C930 1.385 . S
C932 C930 1.478 . S
C932 C934 1.381 . S
C932 C938 1.383 . S
C933 C929 1.495 . S
C933 H939 0.959 . S
C933 H940 0.961 . S
C933 H941 0.960 . S
C934 C932 1.381 . S
C934 C935 1.394 . S
C934 H942 0.930 . S
C935 C934 1.394 . S
C935 C936 1.383 . S
C935 H943 0.929 . S
C936 C935 1.383 . S
C936 C937 1.377 . S
C937 H921 0.930 . S
C937 C936 1.377 . S
C937 C938 1.379 . S
C938 H922 0.931 . S
C938 C932 1.383 . S
C938 C937 1.379 . S
H939 C933 0.959 . S
H940 C933 0.961 . S
H941 C933 0.960 . S
H942 C934 0.930 . S
H943 C935 0.929 . S
H944 C952 0.929 . S
H945 C954 0.930 . S
H946 C956 0.927 1_565 S
H947 C959 0.963 . S
H948 C962 0.930 . S
H949 C964 0.960 . S
H950 C964 0.960 . S
H951 C964 0.960 . S
C952 H944 0.929 . S
C952 C953 1.377 . S
C952 C954 1.384 . S
C953 C952 1.377 . S
C953 C959 1.362 1_545 S
C954 H945 0.930 . S
C954 C952 1.384 . S
C954 C955 1.372 . S
C955 C954 1.372 . S
C955 C956 1.404 . S
C955 C960 1.490 . S
C956 H946 0.927 1_545 S
C956 C955 1.404 . S
C956 C959 1.382 1_545 S
H957 C973 0.930 1_565 S
H958 C974 0.931 1_565 S
C959 H947 0.963 . S
C959 C953 1.362 1_565 S
C959 C956 1.382 1_565 S
C960 C955 1.490 . S
C960 C962 1.395 . S
C960 C963 1.403 . S
H961 C967 0.930 . S
C962 H948 0.930 . S
C962 C960 1.395 . S
C962 C965 1.403 . S
C963 C960 1.403 . S
C963 C964 1.524 . S
C963 C967 1.400 . S
C964 H949 0.960 . S
C964 H950 0.960 . S
C964 H951 0.960 . S
C964 C963 1.524 . S
C965 C962 1.403 . S
C965 C966 1.392 . S
C965 C969 1.495 . S
C966 C965 1.392 . S
C966 C967 1.385 . S
C966 C968 1.478 . S
C967 H961 0.930 . S
C967 C963 1.400 . S
C967 C966 1.385 . S
C968 C966 1.478 . S
C968 C970 1.381 . S
C968 C974 1.383 . S
C969 C965 1.495 . S
C969 H975 0.959 1_655 S
C969 H976 0.961 1_545 S
C969 H977 0.960 1_655 S
C970 C968 1.381 . S
C970 C971 1.394 1_655 S
C970 H978 0.930 . S
C971 C970 1.394 1_455 S
C971 C972 1.383 1_455 S
C971 H979 0.929 . S
C972 C971 1.383 1_655 S
C972 C973 1.377 . S
C973 H957 0.930 1_545 S
C973 C972 1.377 . S
C973 C974 1.379 . S
C974 H958 0.931 1_545 S
C974 C968 1.383 . S
C974 C973 1.379 . S
H975 C969 0.959 1_455 S
H976 C969 0.961 1_565 S
H977 C969 0.960 1_455 S
H978 C970 0.930 . S
H979 C971 0.929 . S
H980 C988 0.929 . S
H981 C990 0.930 . S
H982 C992 0.930 . S
H983 C995 0.929 . S
H984 C998 0.930 . S
H985 C1000 0.960 . S
H986 C1000 0.960 . S
H987 C1000 0.960 . S
C988 H980 0.929 . S
C988 C989 1.377 . S
C988 C990 1.384 . S
C989 C988 1.377 . S
C989 C995 1.390 . S
C990 H981 0.930 . S
C990 C988 1.384 . S
C990 C991 1.372 . S
C991 C990 1.372 . S
C991 C992 1.400 . S
C991 C996 1.490 . S
C992 H982 0.930 . S
C992 C991 1.400 . S
C992 C995 1.386 . S
H993 C1009 0.930 . S
H994 C1010 0.931 . S
C995 H983 0.929 . S
C995 C989 1.390 . S
C995 C992 1.386 . S
C996 C991 1.490 . S
C996 C998 1.395 . S
C996 C999 1.403 . S
H997 C1003 0.930 . S
C998 H984 0.930 . S
C998 C996 1.395 . S
C998 C1001 1.403 . S
C999 C996 1.403 . S
C999 C1000 1.524 . S
C999 C1003 1.400 . S
C1000 H985 0.960 . S
C1000 H986 0.960 . S
C1000 H987 0.960 . S
C1000 C999 1.524 . S
C1001 C998 1.403 . S
C1001 C1002 1.392 . S
C1001 C1005 1.495 . S
C1002 C1001 1.392 . S
C1002 C1003 1.385 . S
C1002 C1004 1.478 . S
C1003 H997 0.930 . S
C1003 C999 1.400 . S
C1003 C1002 1.385 . S
C1004 C1002 1.478 . S
C1004 C1006 1.381 . S
C1004 C1010 1.383 . S
C1005 C1001 1.495 . S
C1005 H1011 0.959 . S
C1005 H1012 0.961 . S
C1005 H1013 0.960 . S
C1006 C1004 1.381 . S
C1006 C1007 1.394 . S
C1006 H1014 0.930 . S
C1007 C1006 1.394 . S
C1007 C1008 1.383 . S
C1007 H1015 0.929 . S
C1008 C1007 1.383 . S
C1008 C1009 1.377 . S
C1009 H993 0.930 . S
C1009 C1008 1.377 . S
C1009 C1010 1.379 . S
C1010 H994 0.931 . S
C1010 C1004 1.383 . S
C1010 C1009 1.379 . S
H1011 C1005 0.959 . S
H1012 C1005 0.961 . S
H1013 C1005 0.960 . S
H1014 C1006 0.930 . S
H1015 C1007 0.929 . S
H1016 C1024 0.929 . S
H1017 C1026 0.930 . S
H1018 C1028 0.930 . S
H1019 C1031 0.929 . S
H1020 C1034 0.930 . S
H1021 C1036 0.960 . S
H1022 C1036 0.960 1_565 S
H1023 C1036 0.960 . S
C1024 H1016 0.929 . S
C1024 C1025 1.377 . S
C1024 C1026 1.384 . S
C1025 C1024 1.377 . S
C1025 C1031 1.390 1_565 S
C1026 H1017 0.930 . S
C1026 C1024 1.384 . S
C1026 C1027 1.372 . S
C1027 C1026 1.372 . S
C1027 C1028 1.400 1_565 S
C1027 C1032 1.495 . S
C1028 H1018 0.930 . S
C1028 C1027 1.400 1_545 S
C1028 C1031 1.386 . S
H1029 C1045 0.930 . S
H1030 C1046 0.931 . S
C1031 H1019 0.929 . S
C1031 C1025 1.390 1_545 S
C1031 C1028 1.386 . S
C1032 C1027 1.495 . S
C1032 C1034 1.392 . S
C1032 C1035 1.401 1_565 S
H1033 C1039 0.930 . S
C1034 H1020 0.930 . S
C1034 C1032 1.392 . S
C1034 C1037 1.415 . S
C1035 C1032 1.401 1_545 S
C1035 C1036 1.524 . S
C1035 C1039 1.400 . S
C1036 H1021 0.960 . S
C1036 H1022 0.960 1_545 S
C1036 H1023 0.960 . S
C1036 C1035 1.524 . S
C1037 C1034 1.415 . S
C1037 C1038 1.387 1_565 S
C1037 C1041 1.491 . S
C1038 C1037 1.387 1_545 S
C1038 C1039 1.385 . S
C1038 C1040 1.478 . S
C1039 H1033 0.930 . S
C1039 C1035 1.400 . S
C1039 C1038 1.385 . S
C1040 C1038 1.478 . S
C1040 C1042 1.381 1_545 S
C1040 C1046 1.383 . S
C1041 C1037 1.491 . S
C1041 H1047 0.959 . S
C1041 H1048 0.961 1_565 S
C1041 H1049 0.960 . S
C1042 C1040 1.381 1_565 S
C1042 C1043 1.394 . S
C1042 H1050 0.930 . S
C1043 C1042 1.394 . S
C1043 C1044 1.383 1_565 S
C1043 H1051 0.929 . S
C1044 C1043 1.383 1_545 S
C1044 C1045 1.377 . S
C1045 H1029 0.930 . S
C1045 C1044 1.377 . S
C1045 C1046 1.379 . S
C1046 H1030 0.931 . S
C1046 C1040 1.383 . S
C1046 C1045 1.379 . S
H1047 C1041 0.959 . S
H1048 C1041 0.961 1_545 S
H1049 C1041 0.960 . S
H1050 C1042 0.930 . S
H1051 C1043 0.929 . S
H1052 C1060 0.929 1_554 S
H1053 C1062 0.930 . S
H1054 C1064 0.930 . S
H1055 C1067 0.929 . S
H1056 C1070 0.930 . S
H1057 C1072 0.960 . S
H1058 C1072 0.960 . S
H1059 C1072 0.960 . S
C1060 H1052 0.929 1_556 S
C1060 C1061 1.377 . S
C1060 C1062 1.384 . S
C1061 C1060 1.377 . S
C1061 C1067 1.390 . S
C1062 H1053 0.930 . S
C1062 C1060 1.384 . S
C1062 C1063 1.372 . S
C1063 C1062 1.372 . S
C1063 C1064 1.400 . S
C1063 C1068 1.490 . S
C1064 H1054 0.930 . S
C1064 C1063 1.400 . S
C1064 C1067 1.386 . S
H1065 C1081 0.930 . S
H1066 C1082 0.931 . S
C1067 H1055 0.929 . S
C1067 C1061 1.390 . S
C1067 C1064 1.386 . S
C1068 C1063 1.490 . S
C1068 C1070 1.395 . S
C1068 C1071 1.403 . S
H1069 C1075 0.930 . S
C1070 H1056 0.930 . S
C1070 C1068 1.395 . S
C1070 C1073 1.403 . S
C1071 C1068 1.403 . S
C1071 C1072 1.524 . S
C1071 C1075 1.400 . S
C1072 H1057 0.960 . S
C1072 H1058 0.960 . S
C1072 H1059 0.960 . S
C1072 C1071 1.524 . S
C1073 C1070 1.403 . S
C1073 C1074 1.392 . S
C1073 C1077 1.495 . S
C1074 C1073 1.392 . S
C1074 C1075 1.385 . S
C1074 C1076 1.478 . S
C1075 H1069 0.930 . S
C1075 C1071 1.400 . S
C1075 C1074 1.385 . S
C1076 C1074 1.478 . S
C1076 C1078 1.381 . S
C1076 C1082 1.383 . S
C1077 C1073 1.495 . S
C1077 H1083 0.959 . S
C1077 H1084 0.961 . S
C1077 H1085 0.960 . S
C1078 C1076 1.381 . S
C1078 C1079 1.394 . S
C1078 H1086 0.930 . S
C1079 C1078 1.394 . S
C1079 C1080 1.383 . S
C1079 H1087 0.929 . S
C1080 C1079 1.383 . S
C1080 C1081 1.377 . S
C1081 H1065 0.930 . S
C1081 C1080 1.377 . S
C1081 C1082 1.379 . S
C1082 H1066 0.931 . S
C1082 C1076 1.383 . S
C1082 C1081 1.379 . S
H1083 C1077 0.959 . S
H1084 C1077 0.961 . S
H1085 C1077 0.960 . S
H1086 C1078 0.930 . S
H1087 C1079 0.929 . S
H1088 C1096 0.929 . S
H1089 C1098 0.930 . S
H1090 C1100 0.906 1_565 S
H1091 C1103 0.929 1_565 S
H1092 C1106 0.930 . S
H1093 C1108 0.960 . S
H1094 C1108 0.960 . S
H1095 C1108 0.973 . S
C1096 H1088 0.929 . S
C1096 C1097 1.377 . S
C1096 C1098 1.384 . S
C1097 C1096 1.377 . S
C1097 C1103 1.390 . S
C1098 H1089 0.930 . S
C1098 C1096 1.384 . S
C1098 C1099 1.372 . S
C1099 C1098 1.372 . S
C1099 C1100 1.418 . S
C1099 C1104 1.490 . S
C1100 H1090 0.906 1_545 S
C1100 C1099 1.418 . S
C1100 C1103 1.391 . S
H1101 C1117 0.930 . S
H1102 C1118 0.931 . S
C1103 H1091 0.929 1_545 S
C1103 C1097 1.390 . S
C1103 C1100 1.391 . S
C1104 C1099 1.490 . S
C1104 C1106 1.395 . S
C1104 C1107 1.403 . S
H1105 C1111 0.930 . S
C1106 H1092 0.930 . S
C1106 C1104 1.395 . S
C1106 C1109 1.403 . S
C1107 C1104 1.403 . S
C1107 C1108 1.524 . S
C1107 C1111 1.400 . S
C1108 H1093 0.960 . S
C1108 H1094 0.960 . S
C1108 H1095 0.973 . S
C1108 C1107 1.524 . S
C1109 C1106 1.403 . S
C1109 C1110 1.392 . S
C1109 C1113 1.495 . S
C1110 C1109 1.392 . S
C1110 C1111 1.385 . S
C1110 C1112 1.478 . S
C1111 H1105 0.930 . S
C1111 C1107 1.400 . S
C1111 C1110 1.385 . S
C1112 C1110 1.478 . S
C1112 C1114 1.381 . S
C1112 C1118 1.383 1_545 S
C1113 C1109 1.495 . S
C1113 H1119 0.959 . S
C1113 H1120 0.961 . S
C1113 H1121 0.960 . S
C1114 C1112 1.381 . S
C1114 C1115 1.394 . S
C1114 H1122 0.930 . S
C1115 C1114 1.394 . S
C1115 C1116 1.383 . S
C1115 H1123 0.929 . S
C1116 C1115 1.383 . S
C1116 C1117 1.377 1_545 S
C1117 H1101 0.930 . S
C1117 C1116 1.377 1_565 S
C1117 C1118 1.379 . S
C1118 H1102 0.931 . S
C1118 C1112 1.383 1_565 S
C1118 C1117 1.379 . S
H1119 C1113 0.959 . S
H1120 C1113 0.961 . S
H1121 C1113 0.960 . S
H1122 C1114 0.930 . S
H1123 C1115 0.929 . S
H1124 C1132 0.929 . S
H1125 C1134 0.930 . S
H1126 C1136 0.930 . S
H1127 C1139 0.929 . S
H1128 C1142 0.930 . S
H1129 C1144 0.960 . S
H1130 C1144 0.960 . S
H1131 C1144 0.960 . S
C1132 H1124 0.929 . S
C1132 C1133 1.377 . S
C1132 C1134 1.384 . S
C1133 C1132 1.377 . S
C1133 C1139 1.390 . S
C1134 H1125 0.930 . S
C1134 C1132 1.384 . S
C1134 C1135 1.372 . S
C1135 C1134 1.372 . S
C1135 C1136 1.400 . S
C1135 C1140 1.490 . S
C1136 H1126 0.930 . S
C1136 C1135 1.400 . S
C1136 C1139 1.386 . S
H1137 C1153 0.930 . S
H1138 C1154 0.931 . S
C1139 H1127 0.929 . S
C1139 C1133 1.390 . S
C1139 C1136 1.386 . S
C1140 C1135 1.490 . S
C1140 C1142 1.395 . S
C1140 C1143 1.403 . S
H1141 C1147 0.930 . S
C1142 H1128 0.930 . S
C1142 C1140 1.395 . S
C1142 C1145 1.403 . S
C1143 C1140 1.403 . S
C1143 C1144 1.524 . S
C1143 C1147 1.400 . S
C1144 H1129 0.960 . S
C1144 H1130 0.960 . S
C1144 H1131 0.960 . S
C1144 C1143 1.524 . S
C1145 C1142 1.403 . S
C1145 C1146 1.392 . S
C1145 C1149 1.495 . S
C1146 C1145 1.392 . S
C1146 C1147 1.385 . S
C1146 C1148 1.478 . S
C1147 H1141 0.930 . S
C1147 C1143 1.400 . S
C1147 C1146 1.385 . S
C1148 C1146 1.478 . S
C1148 C1150 1.381 . S
C1148 C1154 1.383 . S
C1149 C1145 1.495 . S
C1149 H1155 0.959 . S
C1149 H1156 0.961 . S
C1149 H1157 0.960 . S
C1150 C1148 1.381 . S
C1150 C1151 1.394 . S
C1150 H1158 0.930 . S
C1151 C1150 1.394 . S
C1151 C1152 1.383 . S
C1151 H1159 0.929 . S
C1152 C1151 1.383 . S
C1152 C1153 1.377 . S
C1153 H1137 0.930 . S
C1153 C1152 1.377 . S
C1153 C1154 1.379 . S
C1154 H1138 0.931 . S
C1154 C1148 1.383 . S
C1154 C1153 1.379 . S
H1155 C1149 0.959 . S
H1156 C1149 0.961 . S
H1157 C1149 0.960 . S
H1158 C1150 0.930 . S
H1159 C1151 0.929 . S
H1160 C1168 0.929 . S
H1161 C1170 0.930 . S
H1162 C1172 0.930 . S
H1163 C1175 0.929 . S
H1164 C1178 0.930 . S
H1165 C1180 0.960 . S
H1166 C1180 0.960 1_565 S
H1167 C1180 0.960 . S
C1168 H1160 0.929 . S
C1168 C1169 1.377 1_565 S
C1168 C1170 1.384 . S
C1169 C1168 1.377 1_545 S
C1169 C1175 1.390 . S
C1170 H1161 0.930 . S
C1170 C1168 1.384 . S
C1170 C1171 1.372 1_565 S
C1171 C1170 1.372 1_545 S
C1171 C1172 1.400 . S
C1171 C1176 1.490 . S
C1172 H1162 0.930 . S
C1172 C1171 1.400 . S
C1172 C1175 1.386 . S
H1173 C1189 0.930 . S
H1174 C1190 0.931 . S
C1175 H1163 0.929 . S
C1175 C1169 1.390 . S
C1175 C1172 1.386 . S
C1176 C1171 1.490 . S
C1176 C1178 1.395 . S
C1176 C1179 1.403 . S
H1177 C1183 0.930 . S
C1178 H1164 0.930 . S
C1178 C1176 1.395 . S
C1178 C1181 1.403 . S
C1179 C1176 1.403 . S
C1179 C1180 1.524 . S
C1179 C1183 1.400 . S
C1180 H1165 0.960 . S
C1180 H1166 0.960 1_545 S
C1180 H1167 0.960 . S
C1180 C1179 1.524 . S
C1181 C1178 1.403 . S
C1181 C1182 1.392 . S
C1181 C1185 1.495 . S
C1182 C1181 1.392 . S
C1182 C1183 1.385 . S
C1182 C1184 1.478 . S
C1183 H1177 0.930 . S
C1183 C1179 1.400 . S
C1183 C1182 1.385 . S
C1184 C1182 1.478 . S
C1184 C1186 1.343 1_545 S
C1184 C1190 1.383 . S
C1185 C1181 1.495 . S
C1185 H1191 0.959 . S
C1185 H1192 0.961 . S
C1185 H1193 0.960 1_545 S
C1186 C1184 1.343 1_565 S
C1186 C1187 1.390 1_565 S
C1186 H1194 0.974 . S
C1187 C1186 1.390 1_545 S
C1187 C1188 1.383 . S
C1187 H1195 0.929 1_545 S
C1188 C1187 1.383 . S
C1188 C1189 1.377 . S
C1189 H1173 0.930 . S
C1189 C1188 1.377 . S
C1189 C1190 1.379 . S
C1190 H1174 0.931 . S
C1190 C1184 1.383 . S
C1190 C1189 1.379 . S
H1191 C1185 0.959 . S
H1192 C1185 0.961 . S
H1193 C1185 0.960 1_565 S
H1194 C1186 0.974 . S
H1195 C1187 0.929 1_565 S
H1196 C1204 0.929 . S
H1197 C1206 0.930 . S
H1198 C1208 0.930 . S
H1199 C1211 0.929 . S
H1200 C1214 0.930 . S
H1201 C1216 0.960 . S
H1202 C1216 0.960 . S
H1203 C1216 0.960 . S
C1204 H1196 0.929 . S
C1204 C1205 1.377 . S
C1204 C1206 1.384 . S
C1205 C1204 1.377 . S
C1205 C1211 1.390 . S
C1206 H1197 0.930 . S
C1206 C1204 1.384 . S
C1206 C1207 1.372 . S
C1207 C1206 1.372 . S
C1207 C1208 1.400 . S
C1207 C1212 1.490 . S
C1208 H1198 0.930 . S
C1208 C1207 1.400 . S
C1208 C1211 1.386 . S
H1209 C1225 0.930 . S
H1210 C1226 0.931 . S
C1211 H1199 0.929 . S
C1211 C1205 1.390 . S
C1211 C1208 1.386 . S
C1212 C1207 1.490 . S
C1212 C1214 1.395 . S
C1212 C1215 1.403 . S
H1213 C1219 0.930 . S
C1214 H1200 0.930 . S
C1214 C1212 1.395 . S
C1214 C1217 1.403 . S
C1215 C1212 1.403 . S
C1215 C1216 1.524 . S
C1215 C1219 1.400 . S
C1216 H1201 0.960 . S
C1216 H1202 0.960 . S
C1216 H1203 0.960 . S
C1216 C1215 1.524 . S
C1217 C1214 1.403 . S
C1217 C1218 1.392 . S
C1217 C1221 1.495 . S
C1218 C1217 1.392 . S
C1218 C1219 1.385 . S
C1218 C1220 1.478 . S
C1219 H1213 0.930 . S
C1219 C1215 1.400 . S
C1219 C1218 1.385 . S
C1220 C1218 1.478 . S
C1220 C1222 1.381 . S
C1220 C1226 1.383 . S
C1221 C1217 1.495 . S
C1221 H1227 0.959 . S
C1221 H1228 0.961 . S
C1221 H1229 0.960 . S
C1222 C1220 1.381 . S
C1222 C1223 1.394 . S
C1222 H1230 0.930 . S
C1223 C1222 1.394 . S
C1223 C1224 1.383 . S
C1223 H1231 0.929 . S
C1224 C1223 1.383 . S
C1224 C1225 1.377 . S
C1225 H1209 0.930 . S
C1225 C1224 1.377 . S
C1225 C1226 1.379 . S
C1226 H1210 0.931 . S
C1226 C1220 1.383 . S
C1226 C1225 1.379 . S
H1227 C1221 0.959 . S
H1228 C1221 0.961 . S
H1229 C1221 0.960 . S
H1230 C1222 0.930 . S
H1231 C1223 0.929 . S
H1232 C1240 0.929 . S
H1233 C1242 0.930 . S
H1234 C1244 0.930 . S
H1235 C1247 0.929 . S
H1236 C1250 0.930 . S
H1237 C1252 0.960 . S
H1238 C1252 0.960 . S
H1239 C1252 0.960 . S
C1240 H1232 0.929 . S
C1240 C1241 1.377 . S
C1240 C1242 1.384 . S
C1241 C1240 1.377 . S
C1241 C1247 1.390 . S
C1242 H1233 0.930 . S
C1242 C1240 1.384 . S
C1242 C1243 1.372 . S
C1243 C1242 1.372 . S
C1243 C1244 1.400 . S
C1243 C1248 1.490 . S
C1244 H1234 0.930 . S
C1244 C1243 1.400 . S
C1244 C1247 1.386 . S
H1245 C1261 0.930 1_545 S
H1246 C1262 0.931 . S
C1247 H1235 0.929 . S
C1247 C1241 1.390 . S
C1247 C1244 1.386 . S
C1248 C1243 1.490 . S
C1248 C1250 1.395 . S
C1248 C1251 1.403 . S
H1249 C1255 0.930 . S
C1250 H1236 0.930 . S
C1250 C1248 1.395 . S
C1250 C1253 1.403 . S
C1251 C1248 1.403 . S
C1251 C1252 1.524 1_554 S
C1251 C1255 1.400 . S
C1252 H1237 0.960 . S
C1252 H1238 0.960 . S
C1252 H1239 0.960 . S
C1252 C1251 1.524 1_556 S
C1253 C1250 1.403 . S
C1253 C1254 1.392 . S
C1253 C1257 1.495 . S
C1254 C1253 1.392 . S
C1254 C1255 1.385 . S
C1254 C1256 1.478 . S
C1255 H1249 0.930 . S
C1255 C1251 1.400 . S
C1255 C1254 1.385 . S
C1256 C1254 1.478 . S
C1256 C1258 1.381 . S
C1256 C1262 1.383 . S
C1257 C1253 1.495 . S
C1257 H1263 0.959 . S
C1257 H1264 0.961 . S
C1257 H1265 0.960 . S
C1258 C1256 1.381 . S
C1258 C1259 1.394 . S
C1258 H1266 0.930 . S
C1259 C1258 1.394 . S
C1259 C1260 1.383 . S
C1259 H1267 0.929 . S
C1260 C1259 1.383 . S
C1260 C1261 1.377 . S
C1261 H1245 0.930 1_565 S
C1261 C1260 1.377 . S
C1261 C1262 1.379 . S
C1262 H1246 0.931 . S
C1262 C1256 1.383 . S
C1262 C1261 1.379 . S
H1263 C1257 0.959 . S
H1264 C1257 0.961 . S
H1265 C1257 0.960 . S
H1266 C1258 0.930 . S
H1267 C1259 0.929 . S
H1268 C1276 0.929 . S
H1269 C1278 0.930 . S
H1270 C1280 0.930 . S
H1271 C1283 0.929 . S
H1272 C1286 0.930 . S
H1273 C1288 0.960 . S
H1274 C1288 0.960 . S
H1275 C1288 0.960 . S
C1276 H1268 0.929 . S
C1276 C1277 1.373 1_556 S
C1276 C1278 1.384 . S
C1277 C1276 1.373 1_554 S
C1277 C1283 1.398 . S
C1278 H1269 0.930 . S
C1278 C1276 1.384 . S
C1278 C1279 1.372 1_556 S
C1279 C1278 1.372 1_554 S
C1279 C1280 1.400 . S
C1279 C1284 1.490 . S
C1280 H1270 0.930 . S
C1280 C1279 1.400 . S
C1280 C1283 1.386 . S
H1281 C1297 0.930 . S
H1282 C1298 0.931 . S
C1283 H1271 0.929 . S
C1283 C1277 1.398 . S
C1283 C1280 1.386 . S
C1284 C1279 1.490 . S
C1284 C1286 1.395 1_554 S
C1284 C1287 1.403 . S
H1285 C1291 0.930 . S
C1286 H1272 0.930 . S
C1286 C1284 1.395 1_556 S
C1286 C1289 1.403 . S
C1287 C1284 1.403 . S
C1287 C1288 1.524 . S
C1287 C1291 1.400 . S
C1288 H1273 0.960 . S
C1288 H1274 0.960 . S
C1288 H1275 0.960 . S
C1288 C1287 1.524 . S
C1289 C1286 1.403 . S
C1289 C1290 1.392 1_556 S
C1289 C1293 1.495 . S
C1290 C1289 1.392 1_554 S
C1290 C1291 1.385 . S
C1290 C1292 1.478 . S
C1291 H1285 0.930 . S
C1291 C1287 1.400 . S
C1291 C1290 1.385 . S
C1292 C1290 1.478 . S
C1292 C1294 1.381 . S
C1292 C1298 1.383 . S
C1293 C1289 1.495 . S
C1293 H1299 0.959 . S
C1293 H1300 0.961 . S
C1293 H1301 0.960 . S
C1294 C1292 1.381 . S
C1294 C1295 1.394 . S
C1294 H1302 0.930 1_554 S
C1295 C1294 1.394 . S
C1295 C1296 1.383 . S
C1295 H1303 0.929 . S
C1296 C1295 1.383 . S
C1296 C1297 1.377 . S
C1297 H1281 0.930 . S
C1297 C1296 1.377 . S
C1297 C1298 1.379 . S
C1298 H1282 0.931 . S
C1298 C1292 1.383 . S
C1298 C1297 1.379 . S
H1299 C1293 0.959 . S
H1300 C1293 0.961 . S
H1301 C1293 0.960 . S
H1302 C1294 0.930 1_556 S
H1303 C1295 0.929 . S
H1304 C1312 0.929 . S
H1305 C1314 0.930 . S
H1306 C1316 0.930 . S
H1307 C1319 0.929 . S
H1308 C1322 0.930 . S
H1309 C1324 0.960 . S
H1310 C1324 0.960 . S
H1311 C1324 0.960 . S
C1312 H1304 0.929 . S
C1312 C1313 1.377 . S
C1312 C1314 1.384 . S
C1313 C1312 1.377 . S
C1313 C1319 1.390 . S
C1314 H1305 0.930 . S
C1314 C1312 1.384 . S
C1314 C1315 1.372 . S
C1315 C1314 1.372 . S
C1315 C1316 1.400 . S
C1315 C1320 1.490 . S
C1316 H1306 0.930 . S
C1316 C1315 1.400 . S
C1316 C1319 1.386 . S
H1317 C1333 0.930 . S
H1318 C1334 0.931 . S
C1319 H1307 0.929 . S
C1319 C1313 1.390 . S
C1319 C1316 1.386 . S
C1320 C1315 1.490 . S
C1320 C1322 1.395 . S
C1320 C1323 1.403 . S
H1321 C1327 0.930 . S
C1322 H1308 0.930 . S
C1322 C1320 1.395 . S
C1322 C1325 1.403 . S
C1323 C1320 1.403 . S
C1323 C1324 1.524 . S
C1323 C1327 1.400 . S
C1324 H1309 0.960 . S
C1324 H1310 0.960 . S
C1324 H1311 0.960 . S
C1324 C1323 1.524 . S
C1325 C1322 1.403 . S
C1325 C1326 1.392 . S
C1325 C1329 1.495 . S
C1326 C1325 1.392 . S
C1326 C1327 1.385 . S
C1326 C1328 1.478 . S
C1327 H1321 0.930 . S
C1327 C1323 1.400 . S
C1327 C1326 1.385 . S
C1328 C1326 1.478 . S
C1328 C1330 1.381 . S
C1328 C1334 1.383 . S
C1329 C1325 1.495 . S
C1329 H1335 0.959 . S
C1329 H1336 0.961 . S
C1329 H1337 0.960 . S
C1330 C1328 1.381 . S
C1330 C1331 1.394 . S
C1330 H1338 0.930 . S
C1331 C1330 1.394 . S
C1331 C1332 1.383 . S
C1331 H1339 0.929 . S
C1332 C1331 1.383 . S
C1332 C1333 1.377 . S
C1333 H1317 0.930 . S
C1333 C1332 1.377 . S
C1333 C1334 1.379 . S
C1334 H1318 0.931 . S
C1334 C1328 1.383 . S
C1334 C1333 1.379 . S
H1335 C1329 0.959 . S
H1336 C1329 0.961 . S
H1337 C1329 0.960 . S
H1338 C1330 0.930 . S
H1339 C1331 0.929 . S
H1340 C1348 0.929 . S
H1341 C1350 0.930 . S
H1342 C1352 0.930 . S
H1343 C1355 0.929 . S
H1344 C1358 0.930 . S
H1345 C1360 0.960 . S
H1346 C1360 0.960 . S
H1347 C1360 0.960 . S
C1348 H1340 0.929 . S
C1348 C1349 1.377 . S
C1348 C1350 1.384 . S
C1349 C1348 1.377 . S
C1349 C1355 1.390 . S
C1350 H1341 0.930 . S
C1350 C1348 1.384 . S
C1350 C1351 1.372 . S
C1351 C1350 1.372 . S
C1351 C1352 1.400 . S
C1351 C1356 1.490 . S
C1352 H1342 0.930 . S
C1352 C1351 1.400 . S
C1352 C1355 1.386 . S
H1353 C1369 0.930 . S
H1354 C1370 0.931 . S
C1355 H1343 0.929 . S
C1355 C1349 1.390 . S
C1355 C1352 1.386 . S
C1356 C1351 1.490 . S
C1356 C1358 1.395 . S
C1356 C1359 1.403 . S
H1357 C1363 0.930 . S
C1358 H1344 0.930 . S
C1358 C1356 1.395 . S
C1358 C1361 1.403 . S
C1359 C1356 1.403 . S
C1359 C1360 1.524 . S
C1359 C1363 1.400 . S
C1360 H1345 0.960 . S
C1360 H1346 0.960 . S
C1360 H1347 0.960 . S
C1360 C1359 1.524 . S
C1361 C1358 1.403 . S
C1361 C1362 1.392 . S
C1361 C1365 1.495 . S
C1362 C1361 1.392 . S
C1362 C1363 1.385 . S
C1362 C1364 1.478 . S
C1363 H1357 0.930 . S
C1363 C1359 1.400 . S
C1363 C1362 1.385 . S
C1364 C1362 1.478 . S
C1364 C1366 1.381 . S
C1364 C1370 1.383 . S
C1365 C1361 1.495 . S
C1365 H1371 0.959 . S
C1365 H1372 0.961 . S
C1365 H1373 0.960 . S
C1366 C1364 1.381 . S
C1366 C1367 1.394 . S
C1366 H1374 0.930 . S
C1367 C1366 1.394 . S
C1367 C1368 1.383 . S
C1367 H1375 0.929 . S
C1368 C1367 1.383 . S
C1368 C1369 1.377 . S
C1369 H1353 0.930 . S
C1369 C1368 1.377 . S
C1369 C1370 1.379 . S
C1370 H1354 0.931 . S
C1370 C1364 1.383 . S
C1370 C1369 1.379 . S
H1371 C1365 0.959 . S
H1372 C1365 0.961 . S
H1373 C1365 0.960 . S
H1374 C1366 0.930 . S
H1375 C1367 0.929 . S
H1376 C1384 0.929 . S
H1377 C1386 0.930 . S
H1378 C1388 0.930 . S
H1379 C1391 0.929 . S
H1380 C1394 0.930 . S
H1381 C1396 0.960 . S
H1382 C1396 0.960 . S
H1383 C1396 0.960 . S
C1384 H1376 0.929 . S
C1384 C1385 1.377 . S
C1384 C1386 1.384 . S
C1385 C1384 1.377 . S
C1385 C1391 1.390 . S
C1386 H1377 0.930 . S
C1386 C1384 1.384 . S
C1386 C1387 1.372 . S
C1387 C1386 1.372 . S
C1387 C1388 1.400 . S
C1387 C1392 1.490 . S
C1388 H1378 0.930 . S
C1388 C1387 1.400 . S
C1388 C1391 1.386 . S
H1389 C1405 0.930 . S
H1390 C1406 0.931 . S
C1391 H1379 0.929 . S
C1391 C1385 1.390 . S
C1391 C1388 1.386 . S
C1392 C1387 1.490 . S
C1392 C1394 1.395 . S
C1392 C1395 1.403 . S
H1393 C1399 0.930 . S
C1394 H1380 0.930 . S
C1394 C1392 1.395 . S
C1394 C1397 1.403 . S
C1395 C1392 1.403 . S
C1395 C1396 1.524 . S
C1395 C1399 1.400 . S
C1396 H1381 0.960 . S
C1396 H1382 0.960 . S
C1396 H1383 0.960 . S
C1396 C1395 1.524 . S
C1397 C1394 1.403 . S
C1397 C1398 1.392 . S
C1397 C1401 1.495 . S
C1398 C1397 1.392 . S
C1398 C1399 1.385 . S
C1398 C1400 1.478 . S
C1399 H1393 0.930 . S
C1399 C1395 1.400 . S
C1399 C1398 1.385 . S
C1400 C1398 1.478 . S
C1400 C1402 1.381 . S
C1400 C1406 1.383 . S
C1401 C1397 1.495 . S
C1401 H1407 0.959 . S
C1401 H1408 0.961 . S
C1401 H1409 0.960 . S
C1402 C1400 1.381 . S
C1402 C1403 1.394 . S
C1402 H1410 0.930 . S
C1403 C1402 1.394 . S
C1403 C1404 1.383 . S
C1403 H1411 0.929 . S
C1404 C1403 1.383 . S
C1404 C1405 1.377 . S
C1405 H1389 0.930 . S
C1405 C1404 1.377 . S
C1405 C1406 1.379 . S
C1406 H1390 0.931 . S
C1406 C1400 1.383 . S
C1406 C1405 1.379 . S
H1407 C1401 0.959 . S
H1408 C1401 0.961 . S
H1409 C1401 0.960 . S
H1410 C1402 0.930 . S
H1411 C1403 0.929 . S
H1412 C1420 0.929 . S
H1413 C1422 0.930 . S
H1414 C1424 0.930 . S
H1415 C1427 0.929 . S
H1416 C1430 0.930 . S
H1417 C1432 0.960 . S
H1418 C1432 0.960 . S
H1419 C1432 0.960 . S
C1420 H1412 0.929 . S
C1420 C1421 1.377 . S
C1420 C1422 1.384 . S
C1421 C1420 1.377 . S
C1421 C1427 1.390 . S
C1422 H1413 0.930 . S
C1422 C1420 1.384 . S
C1422 C1423 1.372 . S
C1423 C1422 1.372 . S
C1423 C1424 1.400 . S
C1423 C1428 1.490 . S
C1424 H1414 0.930 . S
C1424 C1423 1.400 . S
C1424 C1427 1.386 . S
H1425 C1441 0.930 . S
H1426 C1442 0.931 . S
C1427 H1415 0.929 . S
C1427 C1421 1.390 . S
C1427 C1424 1.386 . S
C1428 C1423 1.490 . S
C1428 C1430 1.395 . S
C1428 C1431 1.403 . S
H1429 C1435 0.930 . S
C1430 H1416 0.930 . S
C1430 C1428 1.395 . S
C1430 C1433 1.403 . S
C1431 C1428 1.403 . S
C1431 C1432 1.524 . S
C1431 C1435 1.400 . S
C1432 H1417 0.960 . S
C1432 H1418 0.960 . S
C1432 H1419 0.960 . S
C1432 C1431 1.524 . S
C1433 C1430 1.403 . S
C1433 C1434 1.392 . S
C1433 C1437 1.495 . S
C1434 C1433 1.392 . S
C1434 C1435 1.385 . S
C1434 C1436 1.478 . S
C1435 H1429 0.930 . S
C1435 C1431 1.400 . S
C1435 C1434 1.385 . S
C1436 C1434 1.478 . S
C1436 C1438 1.381 . S
C1436 C1442 1.383 . S
C1437 C1433 1.495 . S
C1437 H1443 0.959 . S
C1437 H1444 0.961 . S
C1437 H1445 0.960 . S
C1438 C1436 1.381 . S
C1438 C1439 1.394 . S
C1438 H1446 0.930 . S
C1439 C1438 1.394 . S
C1439 C1440 1.383 . S
C1439 H1447 0.929 . S
C1440 C1439 1.383 . S
C1440 C1441 1.377 . S
C1441 H1425 0.930 . S
C1441 C1440 1.377 . S
C1441 C1442 1.379 . S
C1442 H1426 0.931 . S
C1442 C1436 1.383 . S
C1442 C1441 1.379 . S
H1443 C1437 0.959 . S
H1444 C1437 0.961 . S
H1445 C1437 0.960 . S
H1446 C1438 0.930 . S
H1447 C1439 0.929 . S
H1448 C1456 0.929 . S
H1449 C1458 0.930 . S
H1450 C1460 0.930 . S
H1451 C1463 0.929 . S
H1452 C1466 0.930 . S
H1453 C1468 0.960 . S
H1454 C1468 0.960 . S
H1455 C1468 0.960 . S
C1456 H1448 0.929 . S
C1456 C1457 1.377 . S
C1456 C1458 1.384 . S
C1457 C1456 1.377 . S
C1457 C1463 1.390 . S
C1458 H1449 0.930 . S
C1458 C1456 1.384 . S
C1458 C1459 1.372 . S
C1459 C1458 1.372 . S
C1459 C1460 1.400 . S
C1459 C1464 1.490 . S
C1460 H1450 0.930 . S
C1460 C1459 1.400 . S
C1460 C1463 1.386 . S
H1461 C1477 0.930 . S
H1462 C1478 0.931 . S
C1463 H1451 0.929 . S
C1463 C1457 1.390 . S
C1463 C1460 1.386 . S
C1464 C1459 1.490 . S
C1464 C1466 1.395 . S
C1464 C1467 1.403 . S
H1465 C1471 0.930 . S
C1466 H1452 0.930 . S
C1466 C1464 1.395 . S
C1466 C1469 1.403 . S
C1467 C1464 1.403 . S
C1467 C1468 1.524 . S
C1467 C1471 1.400 . S
C1468 H1453 0.960 . S
C1468 H1454 0.960 . S
C1468 H1455 0.960 . S
C1468 C1467 1.524 . S
C1469 C1466 1.403 . S
C1469 C1470 1.392 . S
C1469 C1473 1.495 . S
C1470 C1469 1.392 . S
C1470 C1471 1.385 . S
C1470 C1472 1.478 . S
C1471 H1465 0.930 . S
C1471 C1467 1.400 . S
C1471 C1470 1.385 . S
C1472 C1470 1.478 . S
C1472 C1474 1.381 . S
C1472 C1478 1.383 . S
C1473 C1469 1.495 . S
C1473 H1479 0.959 . S
C1473 H1480 0.961 . S
C1473 H1481 0.960 . S
C1474 C1472 1.381 . S
C1474 C1475 1.394 . S
C1474 H1482 0.930 . S
C1475 C1474 1.394 . S
C1475 C1476 1.383 . S
C1475 H1483 0.929 . S
C1476 C1475 1.383 . S
C1476 C1477 1.377 . S
C1477 H1461 0.930 . S
C1477 C1476 1.377 . S
C1477 C1478 1.379 . S
C1478 H1462 0.931 . S
C1478 C1472 1.383 . S
C1478 C1477 1.379 . S
H1479 C1473 0.959 . S
H1480 C1473 0.961 . S
H1481 C1473 0.960 . S
H1482 C1474 0.930 . S
H1483 C1475 0.929 . S
H1484 C1492 0.929 . S
H1485 C1494 0.930 . S
H1486 C1496 0.930 . S
H1487 C1499 0.929 . S
H1488 C1502 0.930 . S
H1489 C1504 0.960 . S
H1490 C1504 0.960 . S
H1491 C1504 0.960 . S
C1492 H1484 0.929 . S
C1492 C1493 1.377 . S
C1492 C1494 1.384 . S
C1493 C1492 1.377 . S
C1493 C1499 1.390 . S
C1494 H1485 0.930 . S
C1494 C1492 1.384 . S
C1494 C1495 1.372 . S
C1495 C1494 1.372 . S
C1495 C1496 1.400 . S
C1495 C1500 1.490 . S
C1496 H1486 0.930 . S
C1496 C1495 1.400 . S
C1496 C1499 1.386 . S
H1497 C1513 0.930 . S
H1498 C1514 0.931 . S
C1499 H1487 0.929 . S
C1499 C1493 1.390 . S
C1499 C1496 1.386 . S
C1500 C1495 1.490 . S
C1500 C1502 1.395 . S
C1500 C1503 1.403 . S
H1501 C1507 0.930 . S
C1502 H1488 0.930 . S
C1502 C1500 1.395 . S
C1502 C1505 1.403 . S
C1503 C1500 1.403 . S
C1503 C1504 1.524 . S
C1503 C1507 1.400 . S
C1504 H1489 0.960 . S
C1504 H1490 0.960 . S
C1504 H1491 0.960 . S
C1504 C1503 1.524 . S
C1505 C1502 1.403 . S
C1505 C1506 1.392 . S
C1505 C1509 1.495 . S
C1506 C1505 1.392 . S
C1506 C1507 1.385 . S
C1506 C1508 1.478 . S
C1507 H1501 0.930 . S
C1507 C1503 1.400 . S
C1507 C1506 1.385 . S
C1508 C1506 1.478 . S
C1508 C1510 1.381 . S
C1508 C1514 1.383 . S
C1509 C1505 1.495 . S
C1509 H1515 0.959 . S
C1509 H1516 0.961 . S
C1509 H1517 0.960 . S
C1510 C1508 1.381 . S
C1510 C1511 1.394 . S
C1510 H1518 0.930 . S
C1511 C1510 1.394 . S
C1511 C1512 1.383 . S
C1511 H1519 0.929 . S
C1512 C1511 1.383 . S
C1512 C1513 1.377 . S
C1513 H1497 0.930 . S
C1513 C1512 1.377 . S
C1513 C1514 1.379 . S
C1514 H1498 0.931 . S
C1514 C1508 1.383 . S
C1514 C1513 1.379 . S
H1515 C1509 0.959 . S
H1516 C1509 0.961 . S
H1517 C1509 0.960 . S
H1518 C1510 0.930 . S
H1519 C1511 0.929 . S
H1520 C1528 0.929 1_655 S
H1521 C1530 0.930 1_655 S
H1522 C1532 0.930 . S
H1523 C1535 0.929 . S
H1524 C1538 0.933 1_655 S
H1525 C1540 0.960 . S
H1526 C1540 0.960 . S
H1527 C1540 0.960 . S
C1528 H1520 0.929 1_455 S
C1528 C1529 1.377 . S
C1528 C1530 1.384 . S
C1529 C1528 1.377 . S
C1529 C1535 1.390 . S
C1530 H1521 0.930 1_455 S
C1530 C1528 1.384 . S
C1530 C1531 1.372 . S
C1531 C1530 1.372 . S
C1531 C1532 1.400 . S
C1531 C1536 1.490 . S
C1532 H1522 0.930 . S
C1532 C1531 1.400 . S
C1532 C1535 1.386 . S
H1533 C1549 0.930 . S
H1534 C1550 0.931 . S
C1535 H1523 0.929 . S
C1535 C1529 1.390 . S
C1535 C1532 1.386 . S
C1536 C1531 1.490 . S
C1536 C1538 1.395 . S
C1536 C1539 1.403 . S
H1537 C1543 0.930 . S
C1538 H1524 0.933 1_455 S
C1538 C1536 1.395 . S
C1538 C1541 1.403 . S
C1539 C1536 1.403 . S
C1539 C1540 1.524 . S
C1539 C1543 1.400 . S
C1540 H1525 0.960 . S
C1540 H1526 0.960 . S
C1540 H1527 0.960 . S
C1540 C1539 1.524 . S
C1541 C1538 1.403 . S
C1541 C1542 1.392 . S
C1541 C1545 1.495 1_455 S
C1542 C1541 1.392 . S
C1542 C1543 1.385 . S
C1542 C1544 1.478 . S
C1543 H1537 0.930 . S
C1543 C1539 1.400 . S
C1543 C1542 1.385 . S
C1544 C1542 1.478 . S
C1544 C1546 1.381 1_455 S
C1544 C1550 1.383 . S
C1545 C1541 1.495 1_655 S
C1545 H1551 0.959 . S
C1545 H1552 0.982 . S
C1545 H1553 0.960 . S
C1546 C1544 1.381 1_655 S
C1546 C1547 1.394 . S
C1546 H1554 0.930 . S
C1547 C1546 1.394 . S
C1547 C1548 1.383 1_655 S
C1547 H1555 0.929 . S
C1548 C1547 1.383 1_455 S
C1548 C1549 1.377 . S
C1549 H1533 0.930 . S
C1549 C1548 1.377 . S
C1549 C1550 1.379 . S
C1550 H1534 0.931 . S
C1550 C1544 1.383 . S
C1550 C1549 1.379 . S
H1551 C1545 0.959 . S
H1552 C1545 0.982 . S
H1553 C1545 0.960 . S
H1554 C1546 0.930 . S
H1555 C1547 0.929 . S
H1556 C1564 0.929 . S
H1557 C1566 0.930 . S
H1558 C1568 0.930 . S
H1559 C1571 0.929 . S
H1560 C1574 0.930 . S
H1561 C1576 0.960 . S
H1562 C1576 0.960 . S
H1563 C1576 0.960 . S
C1564 H1556 0.929 . S
C1564 C1565 1.377 . S
C1564 C1566 1.384 . S
C1565 C1564 1.377 . S
C1565 C1571 1.390 . S
C1566 H1557 0.930 . S
C1566 C1564 1.384 . S
C1566 C1567 1.372 . S
C1567 C1566 1.372 . S
C1567 C1568 1.400 . S
C1567 C1572 1.490 . S
C1568 H1558 0.930 . S
C1568 C1567 1.400 . S
C1568 C1571 1.386 . S
H1569 C1585 0.930 . S
H1570 C1586 0.931 . S
C1571 H1559 0.929 . S
C1571 C1565 1.390 . S
C1571 C1568 1.386 . S
C1572 C1567 1.490 . S
C1572 C1574 1.395 . S
C1572 C1575 1.403 . S
H1573 C1579 0.930 . S
C1574 H1560 0.930 . S
C1574 C1572 1.395 . S
C1574 C1577 1.403 . S
C1575 C1572 1.403 . S
C1575 C1576 1.524 . S
C1575 C1579 1.400 . S
C1576 H1561 0.960 . S
C1576 H1562 0.960 . S
C1576 H1563 0.960 . S
C1576 C1575 1.524 . S
C1577 C1574 1.403 . S
C1577 C1578 1.392 . S
C1577 C1581 1.495 . S
C1578 C1577 1.392 . S
C1578 C1579 1.385 . S
C1578 C1580 1.478 . S
C1579 H1573 0.930 . S
C1579 C1575 1.400 . S
C1579 C1578 1.385 . S
C1580 C1578 1.478 . S
C1580 C1582 1.381 . S
C1580 C1586 1.383 . S
C1581 C1577 1.495 . S
C1581 H1587 0.959 . S
C1581 H1588 0.961 . S
C1581 H1589 0.960 . S
C1582 C1580 1.381 . S
C1582 C1583 1.394 . S
C1582 H1590 0.930 . S
C1583 C1582 1.394 . S
C1583 C1584 1.383 . S
C1583 H1591 0.929 . S
C1584 C1583 1.383 . S
C1584 C1585 1.377 . S
C1585 H1569 0.930 . S
C1585 C1584 1.377 . S
C1585 C1586 1.379 . S
C1586 H1570 0.931 . S
C1586 C1580 1.383 . S
C1586 C1585 1.379 . S
H1587 C1581 0.959 . S
H1588 C1581 0.961 . S
H1589 C1581 0.960 . S
H1590 C1582 0.930 . S
H1591 C1583 0.929 . S
H1592 C1600 0.929 . S
H1593 C1602 0.930 . S
H1594 C1604 0.930 . S
H1595 C1607 0.929 . S
H1596 C1610 0.930 . S
H1597 C1612 0.960 . S
H1598 C1612 0.960 . S
H1599 C1612 0.960 . S
C1600 H1592 0.929 . S
C1600 C1601 1.377 . S
C1600 C1602 1.384 . S
C1601 C1600 1.377 . S
C1601 C1607 1.390 . S
C1602 H1593 0.930 . S
C1602 C1600 1.384 . S
C1602 C1603 1.372 . S
C1603 C1602 1.372 . S
C1603 C1604 1.400 . S
C1603 C1608 1.490 . S
C1604 H1594 0.930 . S
C1604 C1603 1.400 . S
C1604 C1607 1.386 . S
H1605 C1621 0.930 . S
H1606 C1622 0.931 . S
C1607 H1595 0.929 . S
C1607 C1601 1.390 . S
C1607 C1604 1.386 . S
C1608 C1603 1.490 . S
C1608 C1610 1.395 . S
C1608 C1611 1.403 . S
H1609 C1615 0.930 . S
C1610 H1596 0.930 . S
C1610 C1608 1.395 . S
C1610 C1613 1.403 . S
C1611 C1608 1.403 . S
C1611 C1612 1.524 . S
C1611 C1615 1.400 . S
C1612 H1597 0.960 . S
C1612 H1598 0.960 . S
C1612 H1599 0.960 . S
C1612 C1611 1.524 . S
C1613 C1610 1.403 . S
C1613 C1614 1.392 . S
C1613 C1617 1.495 . S
C1614 C1613 1.392 . S
C1614 C1615 1.385 . S
C1614 C1616 1.478 . S
C1615 H1609 0.930 . S
C1615 C1611 1.400 . S
C1615 C1614 1.385 . S
C1616 C1614 1.478 . S
C1616 C1618 1.381 . S
C1616 C1622 1.383 . S
C1617 C1613 1.495 . S
C1617 H1623 0.959 . S
C1617 H1624 0.961 . S
C1617 H1625 0.960 . S
C1618 C1616 1.381 . S
C1618 C1619 1.394 . S
C1618 H1626 0.930 . S
C1619 C1618 1.394 . S
C1619 C1620 1.383 . S
C1619 H1627 0.929 . S
C1620 C1619 1.383 . S
C1620 C1621 1.377 . S
C1621 H1605 0.930 . S
C1621 C1620 1.377 . S
C1621 C1622 1.379 . S
C1622 H1606 0.931 . S
C1622 C1616 1.383 . S
C1622 C1621 1.379 . S
H1623 C1617 0.959 . S
H1624 C1617 0.961 . S
H1625 C1617 0.960 . S
H1626 C1618 0.930 . S
H1627 C1619 0.929 . S
H1628 C1636 0.929 . S
H1629 C1638 0.930 . S
H1630 C1640 0.930 . S
H1631 C1643 0.929 . S
H1632 C1646 0.930 . S
H1633 C1648 0.960 . S
H1634 C1648 0.960 . S
H1635 C1648 0.960 . S
C1636 H1628 0.929 . S
C1636 C1637 1.377 . S
C1636 C1638 1.384 . S
C1637 C1636 1.377 . S
C1637 C1643 1.390 . S
C1638 H1629 0.930 . S
C1638 C1636 1.384 . S
C1638 C1639 1.372 . S
C1639 C1638 1.372 . S
C1639 C1640 1.400 . S
C1639 C1644 1.490 . S
C1640 H1630 0.930 . S
C1640 C1639 1.400 . S
C1640 C1643 1.386 . S
H1641 C1657 0.930 . S
H1642 C1658 0.931 . S
C1643 H1631 0.929 . S
C1643 C1637 1.390 . S
C1643 C1640 1.386 . S
C1644 C1639 1.490 . S
C1644 C1646 1.395 . S
C1644 C1647 1.403 . S
H1645 C1651 0.930 . S
C1646 H1632 0.930 . S
C1646 C1644 1.395 . S
C1646 C1649 1.403 . S
C1647 C1644 1.403 . S
C1647 C1648 1.524 . S
C1647 C1651 1.400 . S
C1648 H1633 0.960 . S
C1648 H1634 0.960 . S
C1648 H1635 0.960 . S
C1648 C1647 1.524 . S
C1649 C1646 1.403 . S
C1649 C1650 1.392 . S
C1649 C1653 1.495 . S
C1650 C1649 1.392 . S
C1650 C1651 1.385 . S
C1650 C1652 1.478 . S
C1651 H1645 0.930 . S
C1651 C1647 1.400 . S
C1651 C1650 1.385 . S
C1652 C1650 1.478 . S
C1652 C1654 1.381 . S
C1652 C1658 1.383 . S
C1653 C1649 1.495 . S
C1653 H1659 0.959 . S
C1653 H1660 0.961 . S
C1653 H1661 0.960 . S
C1654 C1652 1.381 . S
C1654 C1655 1.394 . S
C1654 H1662 0.930 . S
C1655 C1654 1.394 . S
C1655 C1656 1.383 . S
C1655 H1663 0.929 . S
C1656 C1655 1.383 . S
C1656 C1657 1.377 . S
C1657 H1641 0.930 . S
C1657 C1656 1.377 . S
C1657 C1658 1.379 . S
C1658 H1642 0.931 . S
C1658 C1652 1.383 . S
C1658 C1657 1.379 . S
H1659 C1653 0.959 . S
H1660 C1653 0.961 . S
H1661 C1653 0.960 . S
H1662 C1654 0.930 . S
H1663 C1655 0.929 . S
H1664 C1672 0.929 . S
H1665 C1674 0.930 . S
H1666 C1676 0.930 . S
H1667 C1679 0.929 . S
H1668 C1682 0.930 . S
H1669 C1684 0.960 . S
H1670 C1684 0.960 . S
H1671 C1684 0.960 . S
C1672 H1664 0.929 . S
C1672 C1673 1.377 1_655 S
C1672 C1674 1.384 . S
C1673 C1672 1.377 1_455 S
C1673 C1679 1.390 . S
C1674 H1665 0.930 . S
C1674 C1672 1.384 . S
C1674 C1675 1.372 1_655 S
C1675 C1674 1.372 1_455 S
C1675 C1676 1.400 . S
C1675 C1680 1.490 . S
C1676 H1666 0.930 . S
C1676 C1675 1.400 . S
C1676 C1679 1.386 . S
H1677 C1693 0.930 . S
H1678 C1694 0.931 . S
C1679 H1667 0.929 . S
C1679 C1673 1.390 . S
C1679 C1676 1.386 . S
C1680 C1675 1.490 . S
C1680 C1682 1.395 1_455 S
C1680 C1683 1.403 . S
H1681 C1687 0.930 . S
C1682 H1668 0.930 . S
C1682 C1680 1.395 1_655 S
C1682 C1685 1.403 . S
C1683 C1680 1.403 . S
C1683 C1684 1.524 . S
C1683 C1687 1.400 . S
C1684 H1669 0.960 . S
C1684 H1670 0.960 . S
C1684 H1671 0.960 . S
C1684 C1683 1.524 . S
C1685 C1682 1.403 . S
C1685 C1686 1.392 1_655 S
C1685 C1689 1.495 . S
C1686 C1685 1.392 1_455 S
C1686 C1687 1.385 . S
C1686 C1688 1.478 . S
C1687 H1681 0.930 . S
C1687 C1683 1.400 . S
C1687 C1686 1.385 . S
C1688 C1686 1.478 . S
C1688 C1690 1.381 1_455 S
C1688 C1694 1.383 . S
C1689 C1685 1.495 . S
C1689 H1695 0.959 . S
C1689 H1696 0.961 . S
C1689 H1697 0.960 . S
C1690 C1688 1.381 1_655 S
C1690 C1691 1.394 . S
C1690 H1698 0.930 . S
C1691 C1690 1.394 . S
C1691 C1692 1.431 . S
C1691 H1699 0.929 . S
C1692 C1691 1.431 . S
C1692 C1693 1.332 1_655 S
C1693 H1677 0.930 . S
C1693 C1692 1.332 1_455 S
C1693 C1694 1.379 . S
C1694 H1678 0.931 . S
C1694 C1688 1.383 . S
C1694 C1693 1.379 . S
H1695 C1689 0.959 . S
H1696 C1689 0.961 . S
H1697 C1689 0.960 . S
H1698 C1690 0.930 . S
H1699 C1691 0.929 . S
H1700 C1708 0.929 . S
H1701 C1710 0.930 . S
H1702 C1712 0.930 . S
H1703 C1715 0.929 . S
H1704 C1718 0.930 . S
H1705 C1720 0.960 . S
H1706 C1720 0.960 . S
H1707 C1720 0.960 . S
C1708 H1700 0.929 . S
C1708 C1709 1.377 . S
C1708 C1710 1.384 . S
C1709 C1708 1.377 . S
C1709 C1715 1.390 . S
C1710 H1701 0.930 . S
C1710 C1708 1.384 . S
C1710 C1711 1.372 . S
C1711 C1710 1.372 . S
C1711 C1712 1.400 . S
C1711 C1716 1.490 . S
C1712 H1702 0.930 . S
C1712 C1711 1.400 . S
C1712 C1715 1.386 . S
H1713 C1729 0.930 . S
H1714 C1730 0.931 . S
C1715 H1703 0.929 . S
C1715 C1709 1.390 . S
C1715 C1712 1.386 . S
C1716 C1711 1.490 . S
C1716 C1718 1.395 . S
C1716 C1719 1.403 . S
H1717 C1723 0.930 . S
C1718 H1704 0.930 . S
C1718 C1716 1.395 . S
C1718 C1721 1.403 . S
C1719 C1716 1.403 . S
C1719 C1720 1.524 . S
C1719 C1723 1.400 . S
C1720 H1705 0.960 . S
C1720 H1706 0.960 . S
C1720 H1707 0.960 . S
C1720 C1719 1.524 . S
C1721 C1718 1.403 . S
C1721 C1722 1.392 . S
C1721 C1725 1.495 . S
C1722 C1721 1.392 . S
C1722 C1723 1.385 . S
C1722 C1724 1.478 . S
C1723 H1717 0.930 . S
C1723 C1719 1.400 . S
C1723 C1722 1.385 . S
C1724 C1722 1.478 . S
C1724 C1726 1.381 . S
C1724 C1730 1.383 . S
C1725 C1721 1.495 . S
C1725 H1731 0.959 . S
C1725 H1732 0.961 . S
C1725 H1733 0.960 . S
C1726 C1724 1.381 . S
C1726 C1727 1.394 . S
C1726 H1734 0.930 . S
C1727 C1726 1.394 . S
C1727 C1728 1.383 . S
C1727 H1735 0.929 . S
C1728 C1727 1.383 . S
C1728 C1729 1.377 . S
C1729 H1713 0.930 . S
C1729 C1728 1.377 . S
C1729 C1730 1.379 . S
C1730 H1714 0.931 . S
C1730 C1724 1.383 . S
C1730 C1729 1.379 . S
H1731 C1725 0.959 . S
H1732 C1725 0.961 . S
H1733 C1725 0.960 . S
H1734 C1726 0.930 . S
H1735 C1727 0.929 . S
H1736 C1744 0.929 . S
H1737 C1746 0.930 . S
H1738 C1748 0.930 . S
H1739 C1751 0.929 . S
H1740 C1754 0.930 . S
H1741 C1756 0.960 . S
H1742 C1756 0.960 . S
H1743 C1756 0.960 . S
C1744 H1736 0.929 . S
C1744 C1745 1.377 . S
C1744 C1746 1.384 . S
C1745 C1744 1.377 . S
C1745 C1751 1.390 . S
C1746 H1737 0.930 . S
C1746 C1744 1.384 . S
C1746 C1747 1.372 . S
C1747 C1746 1.372 . S
C1747 C1748 1.400 . S
C1747 C1752 1.490 . S
C1748 H1738 0.930 . S
C1748 C1747 1.400 . S
C1748 C1751 1.386 . S
H1749 C1765 0.930 . S
H1750 C1766 0.931 . S
C1751 H1739 0.929 . S
C1751 C1745 1.390 . S
C1751 C1748 1.386 . S
C1752 C1747 1.490 . S
C1752 C1754 1.395 . S
C1752 C1755 1.403 . S
H1753 C1759 0.930 . S
C1754 H1740 0.930 . S
C1754 C1752 1.395 . S
C1754 C1757 1.403 . S
C1755 C1752 1.403 . S
C1755 C1756 1.524 . S
C1755 C1759 1.400 . S
C1756 H1741 0.960 . S
C1756 H1742 0.960 . S
C1756 H1743 0.960 . S
C1756 C1755 1.524 . S
C1757 C1754 1.403 . S
C1757 C1758 1.392 . S
C1757 C1761 1.495 . S
C1758 C1757 1.392 . S
C1758 C1759 1.385 . S
C1758 C1760 1.478 . S
C1759 H1753 0.930 . S
C1759 C1755 1.400 . S
C1759 C1758 1.385 . S
C1760 C1758 1.478 . S
C1760 C1762 1.381 1_556 S
C1760 C1766 1.383 . S
C1761 C1757 1.495 . S
C1761 H1767 0.959 . S
C1761 H1768 0.961 . S
C1761 H1769 0.960 . S
C1762 C1760 1.381 1_554 S
C1762 C1763 1.394 . S
C1762 H1770 0.930 . S
C1763 C1762 1.394 . S
C1763 C1764 1.383 . S
C1763 H1771 0.929 . S
C1764 C1763 1.383 . S
C1764 C1765 1.377 1_554 S
C1765 H1749 0.930 . S
C1765 C1764 1.377 1_556 S
C1765 C1766 1.379 . S
C1766 H1750 0.931 . S
C1766 C1760 1.383 . S
C1766 C1765 1.379 . S
H1767 C1761 0.959 . S
H1768 C1761 0.961 . S
H1769 C1761 0.960 . S
H1770 C1762 0.930 . S
H1771 C1763 0.929 . S
H1772 C1780 0.929 . S
H1773 C1782 0.930 . S
H1774 C1784 0.930 . S
H1775 C1787 0.929 . S
H1776 C1790 0.930 . S
H1777 C1792 0.960 . S
H1778 C1792 0.960 . S
H1779 C1792 0.960 . S
C1780 H1772 0.929 . S
C1780 C1781 1.377 . S
C1780 C1782 1.384 . S
C1781 C1780 1.377 . S
C1781 C1787 1.390 . S
C1782 H1773 0.930 . S
C1782 C1780 1.384 . S
C1782 C1783 1.372 . S
C1783 C1782 1.372 . S
C1783 C1784 1.400 . S
C1783 C1788 1.490 . S
C1784 H1774 0.930 . S
C1784 C1783 1.400 . S
C1784 C1787 1.386 . S
H1785 C1801 0.930 . S
H1786 C1802 0.931 . S
C1787 H1775 0.929 . S
C1787 C1781 1.390 . S
C1787 C1784 1.386 . S
C1788 C1783 1.490 . S
C1788 C1790 1.395 . S
C1788 C1791 1.403 . S
H1789 C1795 0.930 . S
C1790 H1776 0.930 . S
C1790 C1788 1.395 . S
C1790 C1793 1.403 . S
C1791 C1788 1.403 . S
C1791 C1792 1.524 . S
C1791 C1795 1.400 . S
C1792 H1777 0.960 . S
C1792 H1778 0.960 . S
C1792 H1779 0.960 . S
C1792 C1791 1.524 . S
C1793 C1790 1.403 . S
C1793 C1794 1.392 . S
C1793 C1797 1.495 . S
C1794 C1793 1.392 . S
C1794 C1795 1.385 . S
C1794 C1796 1.478 . S
C1795 H1789 0.930 . S
C1795 C1791 1.400 . S
C1795 C1794 1.385 . S
C1796 C1794 1.478 . S
C1796 C1798 1.381 . S
C1796 C1802 1.383 . S
C1797 C1793 1.495 . S
C1797 H1803 0.959 . S
C1797 H1804 0.961 . S
C1797 H1805 0.960 . S
C1798 C1796 1.381 . S
C1798 C1799 1.394 . S
C1798 H1806 0.930 . S
C1799 C1798 1.394 . S
C1799 C1800 1.383 . S
C1799 H1807 0.929 . S
C1800 C1799 1.383 . S
C1800 C1801 1.377 . S
C1801 H1785 0.930 . S
C1801 C1800 1.377 . S
C1801 C1802 1.379 . S
C1802 H1786 0.931 . S
C1802 C1796 1.383 . S
C1802 C1801 1.379 . S
H1803 C1797 0.959 . S
H1804 C1797 0.961 . S
H1805 C1797 0.960 . S
H1806 C1798 0.930 . S
H1807 C1799 0.929 . S
H1808 C1816 0.929 . S
H1809 C1818 0.930 . S
H1810 C1820 0.930 . S
H1811 C1823 0.929 . S
H1812 C1826 0.930 . S
H1813 C1828 0.960 . S
H1814 C1828 0.960 1_545 S
H1815 C1828 0.960 . S
C1816 H1808 0.929 . S
C1816 C1817 1.377 . S
C1816 C1818 1.384 . S
C1817 C1816 1.377 . S
C1817 C1823 1.390 1_545 S
C1818 H1809 0.930 . S
C1818 C1816 1.384 . S
C1818 C1819 1.372 . S
C1819 C1818 1.372 . S
C1819 C1820 1.400 1_545 S
C1819 C1824 1.490 . S
C1820 H1810 0.930 . S
C1820 C1819 1.400 1_565 S
C1820 C1823 1.386 . S
H1821 C1837 0.930 . S
H1822 C1838 0.931 . S
C1823 H1811 0.929 . S
C1823 C1817 1.390 1_565 S
C1823 C1820 1.386 . S
C1824 C1819 1.490 . S
C1824 C1826 1.395 . S
C1824 C1827 1.403 1_545 S
H1825 C1831 0.930 . S
C1826 H1812 0.930 . S
C1826 C1824 1.395 . S
C1826 C1829 1.403 . S
C1827 C1824 1.403 1_565 S
C1827 C1828 1.524 . S
C1827 C1831 1.400 . S
C1828 H1813 0.960 . S
C1828 H1814 0.960 1_565 S
C1828 H1815 0.960 . S
C1828 C1827 1.524 . S
C1829 C1826 1.403 . S
C1829 C1830 1.392 . S
C1829 C1833 1.495 . S
C1830 C1829 1.392 . S
C1830 C1831 1.385 1_545 S
C1830 C1832 1.478 . S
C1831 H1825 0.930 . S
C1831 C1827 1.400 . S
C1831 C1830 1.385 1_565 S
C1832 C1830 1.478 . S
C1832 C1834 1.381 . S
C1832 C1838 1.383 1_545 S
C1833 C1829 1.495 . S
C1833 H1839 0.959 . S
C1833 H1840 0.961 . S
C1833 H1841 0.960 . S
C1834 C1832 1.381 . S
C1834 C1835 1.394 . S
C1834 H1842 0.930 . S
C1835 C1834 1.394 . S
C1835 C1836 1.369 1_545 S
C1835 H1843 0.929 . S
C1836 C1835 1.369 1_565 S
C1836 C1837 1.390 . S
C1837 H1821 0.930 . S
C1837 C1836 1.390 . S
C1837 C1838 1.379 . S
C1838 H1822 0.931 . S
C1838 C1832 1.383 1_565 S
C1838 C1837 1.379 . S
H1839 C1833 0.959 . S
H1840 C1833 0.961 . S
H1841 C1833 0.960 . S
H1842 C1834 0.930 . S
H1843 C1835 0.929 . S
H1844 C1852 0.929 . S
H1845 C1854 0.930 . S
H1846 C1856 0.930 . S
H1847 C1859 0.929 . S
H1848 C1862 0.930 . S
H1849 C1864 0.960 . S
H1850 C1864 0.960 . S
H1851 C1864 0.960 . S
C1852 H1844 0.929 . S
C1852 C1853 1.377 . S
C1852 C1854 1.384 . S
C1853 C1852 1.377 . S
C1853 C1859 1.390 . S
C1854 H1845 0.930 . S
C1854 C1852 1.384 . S
C1854 C1855 1.372 . S
C1855 C1854 1.372 . S
C1855 C1856 1.400 . S
C1855 C1860 1.490 . S
C1856 H1846 0.930 . S
C1856 C1855 1.400 . S
C1856 C1859 1.386 . S
H1857 C1873 0.930 . S
H1858 C1874 0.931 . S
C1859 H1847 0.929 . S
C1859 C1853 1.390 . S
C1859 C1856 1.386 . S
C1860 C1855 1.490 . S
C1860 C1862 1.395 . S
C1860 C1863 1.403 . S
H1861 C1867 0.930 . S
C1862 H1848 0.930 . S
C1862 C1860 1.395 . S
C1862 C1865 1.403 . S
C1863 C1860 1.403 . S
C1863 C1864 1.524 . S
C1863 C1867 1.400 . S
C1864 H1849 0.960 . S
C1864 H1850 0.960 . S
C1864 H1851 0.960 . S
C1864 C1863 1.524 . S
C1865 C1862 1.403 . S
C1865 C1866 1.392 . S
C1865 C1869 1.495 . S
C1866 C1865 1.392 . S
C1866 C1867 1.385 . S
C1866 C1868 1.478 . S
C1867 H1861 0.930 . S
C1867 C1863 1.400 . S
C1867 C1866 1.385 . S
C1868 C1866 1.478 . S
C1868 C1870 1.381 . S
C1868 C1874 1.383 . S
C1869 C1865 1.495 . S
C1869 H1875 0.959 . S
C1869 H1876 0.961 . S
C1869 H1877 0.960 . S
C1870 C1868 1.381 . S
C1870 C1871 1.394 . S
C1870 H1878 0.930 . S
C1871 C1870 1.394 . S
C1871 C1872 1.383 . S
C1871 H1879 0.929 . S
C1872 C1871 1.383 . S
C1872 C1873 1.377 . S
C1873 H1857 0.930 . S
C1873 C1872 1.377 . S
C1873 C1874 1.379 . S
C1874 H1858 0.931 . S
C1874 C1868 1.383 . S
C1874 C1873 1.379 . S
H1875 C1869 0.959 . S
H1876 C1869 0.961 . S
H1877 C1869 0.960 . S
H1878 C1870 0.930 . S
H1879 C1871 0.929 . S
H1880 C1888 0.929 . S
H1881 C1890 0.930 . S
H1882 C1892 0.930 . S
H1883 C1895 0.929 . S
H1884 C1898 0.930 1_565 S
H1885 C1900 0.960 . S
H1886 C1900 0.960 . S
H1887 C1900 0.960 . S
C1888 H1880 0.929 . S
C1888 C1889 1.377 . S
C1888 C1890 1.384 . S
C1889 C1888 1.377 . S
C1889 C1895 1.390 . S
C1890 H1881 0.930 . S
C1890 C1888 1.384 . S
C1890 C1891 1.372 . S
C1891 C1890 1.372 . S
C1891 C1892 1.400 . S
C1891 C1896 1.490 . S
C1892 H1882 0.930 . S
C1892 C1891 1.400 . S
C1892 C1895 1.386 . S
H1893 C1909 0.930 . S
H1894 C1910 0.931 . S
C1895 H1883 0.929 . S
C1895 C1889 1.390 . S
C1895 C1892 1.386 . S
C1896 C1891 1.490 . S
C1896 C1898 1.395 . S
C1896 C1899 1.403 . S
H1897 C1903 0.930 . S
C1898 H1884 0.930 1_545 S
C1898 C1896 1.395 . S
C1898 C1901 1.423 . S
C1899 C1896 1.403 . S
C1899 C1900 1.524 . S
C1899 C1903 1.400 . S
C1900 H1885 0.960 . S
C1900 H1886 0.960 . S
C1900 H1887 0.960 . S
C1900 C1899 1.524 . S
C1901 C1898 1.423 . S
C1901 C1902 1.435 . S
C1901 C1905 1.436 1_545 S
C1902 C1901 1.435 . S
C1902 C1903 1.385 . S
C1902 C1904 1.478 . S
C1903 H1897 0.930 . S
C1903 C1899 1.400 . S
C1903 C1902 1.385 . S
C1904 C1902 1.478 . S
C1904 C1906 1.381 . S
C1904 C1910 1.383 . S
C1905 C1901 1.436 1_565 S
C1905 H1911 0.959 . S
C1905 H1912 0.961 . S
C1905 H1913 0.960 . S
C1906 C1904 1.381 . S
C1906 C1907 1.394 . S
C1906 H1914 0.930 . S
C1907 C1906 1.394 . S
C1907 C1908 1.383 . S
C1907 H1915 0.929 . S
C1908 C1907 1.383 . S
C1908 C1909 1.377 . S
C1909 H1893 0.930 . S
C1909 C1908 1.377 . S
C1909 C1910 1.379 . S
C1910 H1894 0.931 . S
C1910 C1904 1.383 . S
C1910 C1909 1.379 . S
H1911 C1905 0.959 . S
H1912 C1905 0.961 . S
H1913 C1905 0.960 . S
H1914 C1906 0.930 . S
H1915 C1907 0.929 . S
H1916 C1924 0.929 . S
H1917 C1926 0.930 . S
H1918 C1928 0.930 . S
H1919 C1931 0.929 . S
H1920 C1934 0.930 . S
H1921 C1936 0.960 . S
H1922 C1936 0.960 . S
H1923 C1936 0.960 . S
C1924 H1916 0.929 . S
C1924 C1925 1.377 . S
C1924 C1926 1.384 . S
C1925 C1924 1.377 . S
C1925 C1931 1.390 . S
C1926 H1917 0.930 . S
C1926 C1924 1.384 . S
C1926 C1927 1.372 . S
C1927 C1926 1.372 . S
C1927 C1928 1.400 . S
C1927 C1932 1.490 . S
C1928 H1918 0.930 . S
C1928 C1927 1.400 . S
C1928 C1931 1.386 . S
H1929 C1945 0.930 . S
H1930 C1946 0.931 . S
C1931 H1919 0.929 . S
C1931 C1925 1.390 . S
C1931 C1928 1.386 . S
C1932 C1927 1.490 . S
C1932 C1934 1.395 . S
C1932 C1935 1.403 . S
H1933 C1939 0.930 . S
C1934 H1920 0.930 . S
C1934 C1932 1.395 . S
C1934 C1937 1.403 . S
C1935 C1932 1.403 . S
C1935 C1936 1.524 . S
C1935 C1939 1.400 . S
C1936 H1921 0.960 . S
C1936 H1922 0.960 . S
C1936 H1923 0.960 . S
C1936 C1935 1.524 . S
C1937 C1934 1.403 . S
C1937 C1938 1.392 . S
C1937 C1941 1.495 . S
C1938 C1937 1.392 . S
C1938 C1939 1.385 . S
C1938 C1940 1.478 . S
C1939 H1933 0.930 . S
C1939 C1935 1.400 . S
C1939 C1938 1.385 . S
C1940 C1938 1.478 . S
C1940 C1942 1.381 . S
C1940 C1946 1.383 . S
C1941 C1937 1.495 . S
C1941 H1947 0.959 . S
C1941 H1948 0.961 . S
C1941 H1949 0.960 . S
C1942 C1940 1.381 . S
C1942 C1943 1.394 . S
C1942 H1950 0.930 . S
C1943 C1942 1.394 . S
C1943 C1944 1.383 . S
C1943 H1951 0.929 . S
C1944 C1943 1.383 . S
C1944 C1945 1.377 . S
C1945 H1929 0.930 . S
C1945 C1944 1.377 . S
C1945 C1946 1.379 . S
C1946 H1930 0.931 . S
C1946 C1940 1.383 . S
C1946 C1945 1.379 . S
H1947 C1941 0.959 . S
H1948 C1941 0.961 . S
H1949 C1941 0.960 . S
H1950 C1942 0.930 . S
H1951 C1943 0.929 . S
H1952 C1960 0.929 . S
H1953 C1962 0.930 . S
H1954 C1964 0.930 . S
H1955 C1967 0.929 . S
H1956 C1970 0.930 . S
H1957 C1972 0.960 . S
H1958 C1972 0.960 . S
H1959 C1972 0.960 . S
C1960 H1952 0.929 . S
C1960 C1961 1.377 1_565 S
C1960 C1962 1.384 . S
C1961 C1960 1.377 1_545 S
C1961 C1967 1.390 . S
C1962 H1953 0.930 . S
C1962 C1960 1.384 . S
C1962 C1963 1.372 1_565 S
C1963 C1962 1.372 1_545 S
C1963 C1964 1.400 . S
C1963 C1968 1.490 . S
C1964 H1954 0.930 . S
C1964 C1963 1.400 . S
C1964 C1967 1.386 . S
H1965 C1981 0.930 . S
H1966 C1982 0.931 . S
C1967 H1955 0.929 . S
C1967 C1961 1.390 . S
C1967 C1964 1.386 . S
C1968 C1963 1.490 . S
C1968 C1970 1.395 . S
C1968 C1971 1.403 1_545 S
H1969 C1975 0.930 1_565 S
C1970 H1956 0.930 . S
C1970 C1968 1.395 . S
C1970 C1973 1.403 . S
C1971 C1968 1.403 1_565 S
C1971 C1972 1.524 . S
C1971 C1975 1.400 1_565 S
C1972 H1957 0.960 . S
C1972 H1958 0.960 . S
C1972 H1959 0.960 . S
C1972 C1971 1.524 . S
C1973 C1970 1.403 . S
C1973 C1974 1.392 . S
C1973 C1977 1.495 . S
C1974 C1973 1.392 . S
C1974 C1975 1.385 . S
C1974 C1976 1.478 . S
C1975 H1969 0.930 1_545 S
C1975 C1971 1.400 1_545 S
C1975 C1974 1.385 . S
C1976 C1974 1.478 . S
C1976 C1978 1.381 . S
C1976 C1982 1.383 . S
C1977 C1973 1.495 . S
C1977 H1983 0.959 . S
C1977 H1984 0.961 . S
C1977 H1985 0.960 . S
C1978 C1976 1.381 . S
C1978 C1979 1.394 . S
C1978 H1986 0.930 1_545 S
C1979 C1978 1.394 . S
C1979 C1980 1.383 . S
C1979 H1987 0.917 1_545 S
C1980 C1979 1.383 . S
C1980 C1981 1.377 . S
C1981 H1965 0.930 . S
C1981 C1980 1.377 . S
C1981 C1982 1.379 . S
C1982 H1966 0.931 . S
C1982 C1976 1.383 . S
C1982 C1981 1.379 . S
H1983 C1977 0.959 . S
H1984 C1977 0.961 . S
H1985 C1977 0.960 . S
H1986 C1978 0.930 1_565 S
H1987 C1979 0.917 1_565 S
H1988 C1996 0.929 . S
H1989 C1998 0.930 . S
H1990 C2000 0.930 . S
H1991 C2003 0.929 . S
H1992 C2006 0.930 . S
H1993 C2008 0.960 . S
H1994 C2008 0.960 . S
H1995 C2008 0.960 . S
C1996 H1988 0.929 . S
C1996 C1997 1.377 . S
C1996 C1998 1.384 . S
C1997 C1996 1.377 . S
C1997 C2003 1.390 . S
C1998 H1989 0.930 . S
C1998 C1996 1.384 . S
C1998 C1999 1.372 . S
C1999 C1998 1.372 . S
C1999 C2000 1.400 . S
C1999 C2004 1.490 . S
C2000 H1990 0.930 . S
C2000 C1999 1.400 . S
C2000 C2003 1.386 . S
H2001 C2017 0.930 . S
H2002 C2018 0.931 . S
C2003 H1991 0.929 . S
C2003 C1997 1.390 . S
C2003 C2000 1.386 . S
C2004 C1999 1.490 . S
C2004 C2006 1.395 . S
C2004 C2007 1.403 . S
H2005 C2011 0.930 . S
C2006 H1992 0.930 . S
C2006 C2004 1.395 . S
C2006 C2009 1.403 . S
C2007 C2004 1.403 . S
C2007 C2008 1.524 . S
C2007 C2011 1.400 . S
C2008 H1993 0.960 . S
C2008 H1994 0.960 . S
C2008 H1995 0.960 . S
C2008 C2007 1.524 . S
C2009 C2006 1.403 . S
C2009 C2010 1.392 . S
C2009 C2013 1.495 . S
C2010 C2009 1.392 . S
C2010 C2011 1.385 . S
C2010 C2012 1.478 . S
C2011 H2005 0.930 . S
C2011 C2007 1.400 . S
C2011 C2010 1.385 . S
C2012 C2010 1.478 . S
C2012 C2014 1.381 . S
C2012 C2018 1.383 . S
C2013 C2009 1.495 . S
C2013 H2019 0.959 . S
C2013 H2020 0.961 . S
C2013 H2021 0.960 . S
C2014 C2012 1.381 . S
C2014 C2015 1.394 . S
C2014 H2022 0.930 . S
C2015 C2014 1.394 . S
C2015 C2016 1.383 . S
C2015 H2023 0.929 . S
C2016 C2015 1.383 . S
C2016 C2017 1.377 . S
C2017 H2001 0.930 . S
C2017 C2016 1.377 . S
C2017 C2018 1.379 . S
C2018 H2002 0.931 . S
C2018 C2012 1.383 . S
C2018 C2017 1.379 . S
H2019 C2013 0.959 . S
H2020 C2013 0.961 . S
H2021 C2013 0.960 . S
H2022 C2014 0.930 . S
H2023 C2015 0.929 . S
H2024 C2032 0.929 1_565 S
H2025 C2034 0.930 . S
H2026 C2036 0.930 . S
H2027 C2039 0.929 . S
H2028 C2042 0.924 1_565 S
H2029 C2044 0.960 . S
H2030 C2044 0.960 . S
H2031 C2044 0.960 . S
C2032 H2024 0.929 1_545 S
C2032 C2033 1.377 . S
C2032 C2034 1.384 1_545 S
C2033 C2032 1.377 . S
C2033 C2039 1.390 . S
C2034 H2025 0.930 . S
C2034 C2032 1.384 1_565 S
C2034 C2035 1.372 1_565 S
C2035 C2034 1.372 1_545 S
C2035 C2036 1.400 . S
C2035 C2040 1.490 . S
C2036 H2026 0.930 . S
C2036 C2035 1.400 . S
C2036 C2039 1.386 . S
H2037 C2053 0.930 . S
H2038 C2054 0.931 . S
C2039 H2027 0.929 . S
C2039 C2033 1.390 . S
C2039 C2036 1.386 . S
C2040 C2035 1.490 . S
C2040 C2042 1.395 . S
C2040 C2043 1.403 . S
H2041 C2047 0.930 . S
C2042 H2028 0.924 1_545 S
C2042 C2040 1.395 . S
C2042 C2045 1.402 1_545 S
C2043 C2040 1.403 . S
C2043 C2044 1.524 . S
C2043 C2047 1.400 . S
C2044 H2029 0.960 . S
C2044 H2030 0.960 . S
C2044 H2031 0.960 . S
C2044 C2043 1.524 . S
C2045 C2042 1.402 1_565 S
C2045 C2046 1.391 1_565 S
C2045 C2049 1.498 . S
C2046 C2045 1.391 1_545 S
C2046 C2047 1.385 . S
C2046 C2048 1.478 . S
C2047 H2041 0.930 . S
C2047 C2043 1.400 . S
C2047 C2046 1.385 . S
C2048 C2046 1.478 . S
C2048 C2050 1.381 1_545 S
C2048 C2054 1.383 . S
C2049 C2045 1.498 . S
C2049 H2055 0.959 . S
C2049 H2056 0.960 1_565 S
C2049 H2057 0.960 . S
C2050 C2048 1.381 1_565 S
C2050 C2051 1.394 . S
C2050 H2058 0.930 . S
C2051 C2050 1.394 . S
C2051 C2052 1.383 . S
C2051 H2059 0.929 . S
C2052 C2051 1.383 . S
C2052 C2053 1.377 1_565 S
C2053 H2037 0.930 . S
C2053 C2052 1.377 1_545 S
C2053 C2054 1.379 . S
C2054 H2038 0.931 . S
C2054 C2048 1.383 . S
C2054 C2053 1.379 . S
H2055 C2049 0.959 . S
H2056 C2049 0.960 1_545 S
H2057 C2049 0.960 . S
H2058 C2050 0.930 . S
H2059 C2051 0.929 . S
H2060 C2068 0.929 . S
H2061 C2070 0.930 . S
H2062 C2072 0.930 . S
H2063 C2075 0.929 . S
H2064 C2078 0.930 . S
H2065 C2080 0.960 . S
H2066 C2080 0.960 . S
H2067 C2080 0.960 . S
C2068 H2060 0.929 . S
C2068 C2069 1.377 . S
C2068 C2070 1.384 . S
C2069 C2068 1.377 . S
C2069 C2075 1.390 . S
C2070 H2061 0.930 . S
C2070 C2068 1.384 . S
C2070 C2071 1.372 . S
C2071 C2070 1.372 . S
C2071 C2072 1.400 . S
C2071 C2076 1.490 . S
C2072 H2062 0.930 . S
C2072 C2071 1.400 . S
C2072 C2075 1.386 . S
H2073 C2089 0.930 . S
H2074 C2090 0.931 . S
C2075 H2063 0.929 . S
C2075 C2069 1.390 . S
C2075 C2072 1.386 . S
C2076 C2071 1.490 . S
C2076 C2078 1.395 . S
C2076 C2079 1.403 . S
H2077 C2083 0.930 . S
C2078 H2064 0.930 . S
C2078 C2076 1.395 . S
C2078 C2081 1.403 . S
C2079 C2076 1.403 . S
C2079 C2080 1.524 . S
C2079 C2083 1.400 . S
C2080 H2065 0.960 . S
C2080 H2066 0.960 . S
C2080 H2067 0.960 . S
C2080 C2079 1.524 . S
C2081 C2078 1.403 . S
C2081 C2082 1.392 . S
C2081 C2085 1.495 . S
C2082 C2081 1.392 . S
C2082 C2083 1.385 . S
C2082 C2084 1.478 . S
C2083 H2077 0.930 . S
C2083 C2079 1.400 . S
C2083 C2082 1.385 . S
C2084 C2082 1.478 . S
C2084 C2086 1.381 . S
C2084 C2090 1.383 . S
C2085 C2081 1.495 . S
C2085 H2091 0.959 . S
C2085 H2092 0.961 . S
C2085 H2093 0.960 . S
C2086 C2084 1.381 . S
C2086 C2087 1.394 . S
C2086 H2094 0.930 . S
C2087 C2086 1.394 . S
C2087 C2088 1.383 . S
C2087 H2095 0.929 . S
C2088 C2087 1.383 . S
C2088 C2089 1.377 . S
C2089 H2073 0.930 . S
C2089 C2088 1.377 . S
C2089 C2090 1.379 . S
C2090 H2074 0.931 . S
C2090 C2084 1.383 . S
C2090 C2089 1.379 . S
H2091 C2085 0.959 . S
H2092 C2085 0.961 . S
H2093 C2085 0.960 . S
H2094 C2086 0.930 . S
H2095 C2087 0.929 . S
H2096 C2104 0.929 . S
H2097 C2106 0.930 . S
H2098 C2108 0.899 1_556 S
H2099 C2111 0.929 1_556 S
H2100 C2114 0.930 . S
H2101 C2116 0.960 . S
H2102 C2116 0.960 1_554 S
H2103 C2116 0.960 . S
C2104 H2096 0.929 . S
C2104 C2105 1.377 . S
C2104 C2106 1.384 . S
C2105 C2104 1.377 . S
C2105 C2111 1.390 . S
C2106 H2097 0.930 . S
C2106 C2104 1.384 . S
C2106 C2107 1.372 . S
C2107 C2106 1.372 . S
C2107 C2108 1.427 . S
C2107 C2112 1.490 . S
C2108 H2098 0.899 1_554 S
C2108 C2107 1.427 . S
C2108 C2111 1.390 . S
H2109 C2125 0.930 . S
H2110 C2126 0.931 . S
C2111 H2099 0.929 1_554 S
C2111 C2105 1.390 . S
C2111 C2108 1.390 . S
C2112 C2107 1.490 . S
C2112 C2114 1.395 . S
C2112 C2115 1.403 . S
H2113 C2119 0.930 1_556 S
C2114 H2100 0.930 . S
C2114 C2112 1.395 . S
C2114 C2117 1.403 . S
C2115 C2112 1.403 . S
C2115 C2116 1.524 1_554 S
C2115 C2119 1.400 . S
C2116 H2101 0.960 . S
C2116 H2102 0.960 1_556 S
C2116 H2103 0.960 . S
C2116 C2115 1.524 1_556 S
C2117 C2114 1.403 . S
C2117 C2118 1.392 . S
C2117 C2121 1.495 . S
C2118 C2117 1.392 . S
C2118 C2119 1.385 . S
C2118 C2120 1.478 . S
C2119 H2113 0.930 1_554 S
C2119 C2115 1.400 . S
C2119 C2118 1.385 . S
C2120 C2118 1.478 . S
C2120 C2122 1.381 . S
C2120 C2126 1.383 1_554 S
C2121 C2117 1.495 . S
C2121 H2127 0.959 . S
C2121 H2128 0.961 . S
C2121 H2129 0.960 . S
C2122 C2120 1.381 . S
C2122 C2123 1.394 . S
C2122 H2130 0.930 . S
C2123 C2122 1.394 . S
C2123 C2124 1.423 . S
C2123 H2131 0.929 . S
C2124 C2123 1.423 . S
C2124 C2125 1.346 1_554 S
C2125 H2109 0.930 . S
C2125 C2124 1.346 1_556 S
C2125 C2126 1.379 . S
C2126 H2110 0.931 . S
C2126 C2120 1.383 1_556 S
C2126 C2125 1.379 . S
H2127 C2121 0.959 . S
H2128 C2121 0.961 . S
H2129 C2121 0.960 . S
H2130 C2122 0.930 . S
H2131 C2123 0.929 . S
H2132 C2140 0.929 . S
H2133 C2142 0.930 . S
H2134 C2144 0.930 . S
H2135 C2147 0.929 . S
H2136 C2150 0.930 . S
H2137 C2152 0.960 . S
H2138 C2152 0.960 . S
H2139 C2152 0.960 . S
C2140 H2132 0.929 . S
C2140 C2141 1.377 . S
C2140 C2142 1.384 . S
C2141 C2140 1.377 . S
C2141 C2147 1.390 . S
C2142 H2133 0.930 . S
C2142 C2140 1.384 . S
C2142 C2143 1.372 . S
C2143 C2142 1.372 . S
C2143 C2144 1.400 . S
C2143 C2148 1.490 . S
C2144 H2134 0.930 . S
C2144 C2143 1.400 . S
C2144 C2147 1.386 . S
H2145 C2161 0.930 . S
H2146 C2162 0.931 . S
C2147 H2135 0.929 . S
C2147 C2141 1.390 . S
C2147 C2144 1.386 . S
C2148 C2143 1.490 . S
C2148 C2150 1.395 . S
C2148 C2151 1.403 . S
H2149 C2155 0.930 . S
C2150 H2136 0.930 . S
C2150 C2148 1.395 . S
C2150 C2153 1.403 . S
C2151 C2148 1.403 . S
C2151 C2152 1.524 . S
C2151 C2155 1.400 . S
C2152 H2137 0.960 . S
C2152 H2138 0.960 . S
C2152 H2139 0.960 . S
C2152 C2151 1.524 . S
C2153 C2150 1.403 . S
C2153 C2154 1.392 . S
C2153 C2157 1.495 1_554 S
C2154 C2153 1.392 . S
C2154 C2155 1.385 . S
C2154 C2156 1.478 . S
C2155 H2149 0.930 . S
C2155 C2151 1.400 . S
C2155 C2154 1.385 . S
C2156 C2154 1.478 . S
C2156 C2158 1.381 . S
C2156 C2162 1.383 . S
C2157 C2153 1.495 1_556 S
C2157 H2163 0.959 . S
C2157 H2164 0.961 . S
C2157 H2165 0.960 . S
C2158 C2156 1.381 . S
C2158 C2159 1.394 . S
C2158 H2166 0.930 . S
C2159 C2158 1.394 . S
C2159 C2160 1.383 . S
C2159 H2167 0.929 . S
C2160 C2159 1.383 . S
C2160 C2161 1.377 . S
C2161 H2145 0.930 . S
C2161 C2160 1.377 . S
C2161 C2162 1.379 . S
C2162 H2146 0.931 . S
C2162 C2156 1.383 . S
C2162 C2161 1.379 . S
H2163 C2157 0.959 . S
H2164 C2157 0.961 . S
H2165 C2157 0.960 . S
H2166 C2158 0.930 . S
H2167 C2159 0.929 . S
H2168 C2176 0.929 . S
H2169 C2178 0.930 . S
H2170 C2180 0.930 . S
H2171 C2183 0.929 . S
H2172 C2186 0.930 . S
H2173 C2188 0.960 . S
H2174 C2188 0.960 . S
H2175 C2188 0.960 . S
C2176 H2168 0.929 . S
C2176 C2177 1.377 . S
C2176 C2178 1.384 . S
C2177 C2176 1.377 . S
C2177 C2183 1.390 . S
C2178 H2169 0.930 . S
C2178 C2176 1.384 . S
C2178 C2179 1.372 . S
C2179 C2178 1.372 . S
C2179 C2180 1.400 . S
C2179 C2184 1.490 . S
C2180 H2170 0.930 . S
C2180 C2179 1.400 . S
C2180 C2183 1.386 . S
H2181 C2197 0.930 . S
H2182 C2198 0.931 . S
C2183 H2171 0.929 . S
C2183 C2177 1.390 . S
C2183 C2180 1.386 . S
C2184 C2179 1.490 . S
C2184 C2186 1.395 . S
C2184 C2187 1.403 . S
H2185 C2191 0.930 . S
C2186 H2172 0.930 . S
C2186 C2184 1.395 . S
C2186 C2189 1.403 . S
C2187 C2184 1.403 . S
C2187 C2188 1.524 . S
C2187 C2191 1.400 . S
C2188 H2173 0.960 . S
C2188 H2174 0.960 . S
C2188 H2175 0.960 . S
C2188 C2187 1.524 . S
C2189 C2186 1.403 . S
C2189 C2190 1.392 . S
C2189 C2193 1.495 . S
C2190 C2189 1.392 . S
C2190 C2191 1.385 . S
C2190 C2192 1.478 . S
C2191 H2185 0.930 . S
C2191 C2187 1.400 . S
C2191 C2190 1.385 . S
C2192 C2190 1.478 . S
C2192 C2194 1.381 . S
C2192 C2198 1.383 . S
C2193 C2189 1.495 . S
C2193 H2199 0.959 . S
C2193 H2200 0.961 . S
C2193 H2201 0.960 . S
C2194 C2192 1.381 . S
C2194 C2195 1.394 . S
C2194 H2202 0.930 . S
C2195 C2194 1.394 . S
C2195 C2196 1.383 . S
C2195 H2203 0.929 . S
C2196 C2195 1.383 . S
C2196 C2197 1.377 . S
C2197 H2181 0.930 . S
C2197 C2196 1.377 . S
C2197 C2198 1.379 . S
C2198 H2182 0.931 . S
C2198 C2192 1.383 . S
C2198 C2197 1.379 . S
H2199 C2193 0.959 . S
H2200 C2193 0.961 . S
H2201 C2193 0.960 . S
H2202 C2194 0.930 . S
H2203 C2195 0.929 . S
H2204 C2212 0.929 . S
H2205 C2214 0.930 . S
H2206 C2216 0.930 . S
H2207 C2219 0.929 . S
H2208 C2222 0.930 . S
H2209 C2224 0.960 . S
H2210 C2224 0.960 . S
H2211 C2224 0.960 . S
C2212 H2204 0.929 . S
C2212 C2213 1.377 . S
C2212 C2214 1.384 . S
C2213 C2212 1.377 . S
C2213 C2219 1.390 . S
C2214 H2205 0.930 . S
C2214 C2212 1.384 . S
C2214 C2215 1.372 . S
C2215 C2214 1.372 . S
C2215 C2216 1.400 . S
C2215 C2220 1.490 . S
C2216 H2206 0.930 . S
C2216 C2215 1.400 . S
C2216 C2219 1.386 . S
H2217 C2233 0.930 . S
H2218 C2234 0.931 . S
C2219 H2207 0.929 . S
C2219 C2213 1.390 . S
C2219 C2216 1.386 . S
C2220 C2215 1.490 . S
C2220 C2222 1.395 . S
C2220 C2223 1.403 . S
H2221 C2227 0.930 . S
C2222 H2208 0.930 . S
C2222 C2220 1.395 . S
C2222 C2225 1.403 . S
C2223 C2220 1.403 . S
C2223 C2224 1.524 . S
C2223 C2227 1.400 . S
C2224 H2209 0.960 . S
C2224 H2210 0.960 . S
C2224 H2211 0.960 . S
C2224 C2223 1.524 . S
C2225 C2222 1.403 . S
C2225 C2226 1.392 . S
C2225 C2229 1.495 . S
C2226 C2225 1.392 . S
C2226 C2227 1.385 . S
C2226 C2228 1.478 . S
C2227 H2221 0.930 . S
C2227 C2223 1.400 . S
C2227 C2226 1.385 . S
C2228 C2226 1.478 . S
C2228 C2230 1.381 . S
C2228 C2234 1.383 . S
C2229 C2225 1.495 . S
C2229 H2235 0.959 . S
C2229 H2236 0.961 . S
C2229 H2237 0.960 . S
C2230 C2228 1.381 . S
C2230 C2231 1.394 . S
C2230 H2238 0.930 . S
C2231 C2230 1.394 . S
C2231 C2232 1.383 . S
C2231 H2239 0.929 . S
C2232 C2231 1.383 . S
C2232 C2233 1.377 . S
C2233 H2217 0.930 . S
C2233 C2232 1.377 . S
C2233 C2234 1.379 . S
C2234 H2218 0.931 . S
C2234 C2228 1.383 . S
C2234 C2233 1.379 . S
H2235 C2229 0.959 . S
H2236 C2229 0.961 . S
H2237 C2229 0.960 . S
H2238 C2230 0.930 . S
H2239 C2231 0.929 . S
H2240 C2248 0.929 . S
H2241 C2250 0.930 . S
H2242 C2252 0.930 . S
H2243 C2255 0.929 . S
H2244 C2258 0.930 . S
H2245 C2260 0.960 . S
H2246 C2260 0.960 . S
H2247 C2260 0.960 . S
C2248 H2240 0.929 . S
C2248 C2249 1.377 . S
C2248 C2250 1.384 . S
C2249 C2248 1.377 . S
C2249 C2255 1.390 . S
C2250 H2241 0.930 . S
C2250 C2248 1.384 . S
C2250 C2251 1.372 . S
C2251 C2250 1.372 . S
C2251 C2252 1.400 . S
C2251 C2256 1.490 . S
C2252 H2242 0.930 . S
C2252 C2251 1.400 . S
C2252 C2255 1.386 . S
H2253 C2269 0.930 . S
H2254 C2270 0.931 . S
C2255 H2243 0.929 . S
C2255 C2249 1.390 . S
C2255 C2252 1.386 . S
C2256 C2251 1.490 . S
C2256 C2258 1.395 . S
C2256 C2259 1.403 . S
H2257 C2263 0.930 . S
C2258 H2244 0.930 . S
C2258 C2256 1.395 . S
C2258 C2261 1.403 . S
C2259 C2256 1.403 . S
C2259 C2260 1.524 . S
C2259 C2263 1.400 . S
C2260 H2245 0.960 . S
C2260 H2246 0.960 . S
C2260 H2247 0.960 . S
C2260 C2259 1.524 . S
C2261 C2258 1.403 . S
C2261 C2262 1.392 . S
C2261 C2265 1.495 . S
C2262 C2261 1.392 . S
C2262 C2263 1.385 . S
C2262 C2264 1.478 . S
C2263 H2257 0.930 . S
C2263 C2259 1.400 . S
C2263 C2262 1.385 . S
C2264 C2262 1.478 . S
C2264 C2266 1.381 . S
C2264 C2270 1.383 . S
C2265 C2261 1.495 . S
C2265 H2271 0.959 . S
C2265 H2272 0.961 . S
C2265 H2273 0.960 . S
C2266 C2264 1.381 . S
C2266 C2267 1.394 . S
C2266 H2274 0.930 . S
C2267 C2266 1.394 . S
C2267 C2268 1.383 . S
C2267 H2275 0.929 . S
C2268 C2267 1.383 . S
C2268 C2269 1.377 . S
C2269 H2253 0.930 . S
C2269 C2268 1.377 . S
C2269 C2270 1.379 . S
C2270 H2254 0.931 . S
C2270 C2264 1.383 . S
C2270 C2269 1.379 . S
H2271 C2265 0.959 . S
H2272 C2265 0.961 . S
H2273 C2265 0.960 . S
H2274 C2266 0.930 . S
H2275 C2267 0.929 . S
H2276 C2284 0.929 . S
H2277 C2286 0.930 . S
H2278 C2288 0.930 . S
H2279 C2291 0.929 . S
H2280 C2294 0.930 . S
H2281 C2296 0.960 . S
H2282 C2296 0.960 . S
H2283 C2296 0.960 . S
C2284 H2276 0.929 . S
C2284 C2285 1.377 . S
C2284 C2286 1.384 . S
C2285 C2284 1.377 . S
C2285 C2291 1.390 . S
C2286 H2277 0.930 . S
C2286 C2284 1.384 . S
C2286 C2287 1.372 . S
C2287 C2286 1.372 . S
C2287 C2288 1.400 . S
C2287 C2292 1.490 . S
C2288 H2278 0.930 . S
C2288 C2287 1.400 . S
C2288 C2291 1.386 . S
H2289 C2305 0.930 . S
H2290 C2306 0.931 . S
C2291 H2279 0.929 . S
C2291 C2285 1.390 . S
C2291 C2288 1.386 . S
C2292 C2287 1.490 . S
C2292 C2294 1.395 . S
C2292 C2295 1.403 . S
H2293 C2299 0.930 . S
C2294 H2280 0.930 . S
C2294 C2292 1.395 . S
C2294 C2297 1.403 . S
C2295 C2292 1.403 . S
C2295 C2296 1.524 . S
C2295 C2299 1.400 . S
C2296 H2281 0.960 . S
C2296 H2282 0.960 . S
C2296 H2283 0.960 . S
C2296 C2295 1.524 . S
C2297 C2294 1.403 . S
C2297 C2298 1.392 . S
C2297 C2301 1.495 . S
C2298 C2297 1.392 . S
C2298 C2299 1.385 . S
C2298 C2300 1.478 . S
C2299 H2293 0.930 . S
C2299 C2295 1.400 . S
C2299 C2298 1.385 . S
C2300 C2298 1.478 . S
C2300 C2302 1.381 . S
C2300 C2306 1.383 . S
C2301 C2297 1.495 . S
C2301 H2307 0.959 . S
C2301 H2308 0.961 . S
C2301 H2309 0.960 . S
C2302 C2300 1.381 . S
C2302 C2303 1.394 . S
C2302 H2310 0.930 . S
C2303 C2302 1.394 . S
C2303 C2304 1.383 . S
C2303 H2311 0.929 . S
C2304 C2303 1.383 . S
C2304 C2305 1.377 . S
C2305 H2289 0.930 . S
C2305 C2304 1.377 . S
C2305 C2306 1.379 . S
C2306 H2290 0.931 . S
C2306 C2300 1.383 . S
C2306 C2305 1.379 . S
H2307 C2301 0.959 . S
H2308 C2301 0.961 . S
H2309 C2301 0.960 . S
H2310 C2302 0.930 . S
H2311 C2303 0.929 . S
H2312 C2320 0.929 . S
H2313 C2322 0.930 . S
H2314 C2324 0.930 . S
H2315 C2327 0.929 . S
H2316 C2330 0.930 . S
H2317 C2332 0.960 . S
H2318 C2332 0.960 . S
H2319 C2332 0.960 . S
C2320 H2312 0.929 . S
C2320 C2321 1.377 . S
C2320 C2322 1.384 . S
C2321 C2320 1.377 . S
C2321 C2327 1.390 . S
C2322 H2313 0.930 . S
C2322 C2320 1.384 . S
C2322 C2323 1.372 . S
C2323 C2322 1.372 . S
C2323 C2324 1.400 . S
C2323 C2328 1.490 . S
C2324 H2314 0.930 . S
C2324 C2323 1.400 . S
C2324 C2327 1.386 . S
H2325 C2341 0.930 . S
H2326 C2342 0.931 . S
C2327 H2315 0.929 . S
C2327 C2321 1.390 . S
C2327 C2324 1.386 . S
C2328 C2323 1.490 . S
C2328 C2330 1.395 . S
C2328 C2331 1.403 . S
H2329 C2335 0.930 . S
C2330 H2316 0.930 . S
C2330 C2328 1.395 . S
C2330 C2333 1.403 . S
C2331 C2328 1.403 . S
C2331 C2332 1.524 . S
C2331 C2335 1.400 . S
C2332 H2317 0.960 . S
C2332 H2318 0.960 . S
C2332 H2319 0.960 . S
C2332 C2331 1.524 . S
C2333 C2330 1.403 . S
C2333 C2334 1.392 . S
C2333 C2337 1.495 . S
C2334 C2333 1.392 . S
C2334 C2335 1.385 . S
C2334 C2336 1.478 . S
C2335 H2329 0.930 . S
C2335 C2331 1.400 . S
C2335 C2334 1.385 . S
C2336 C2334 1.478 . S
C2336 C2338 1.381 . S
C2336 C2342 1.383 . S
C2337 C2333 1.495 . S
C2337 H2343 0.959 . S
C2337 H2344 0.961 . S
C2337 H2345 0.960 . S
C2338 C2336 1.381 . S
C2338 C2339 1.394 . S
C2338 H2346 0.930 . S
C2339 C2338 1.394 . S
C2339 C2340 1.383 . S
C2339 H2347 0.929 . S
C2340 C2339 1.383 . S
C2340 C2341 1.377 . S
C2341 H2325 0.930 . S
C2341 C2340 1.377 . S
C2341 C2342 1.379 . S
C2342 H2326 0.931 . S
C2342 C2336 1.383 . S
C2342 C2341 1.379 . S
H2343 C2337 0.959 . S
H2344 C2337 0.961 . S
H2345 C2337 0.960 . S
H2346 C2338 0.930 . S
H2347 C2339 0.929 . S
H2348 C2356 0.929 . S
H2349 C2358 0.930 . S
H2350 C2360 0.930 . S
H2351 C2363 0.929 . S
H2352 C2366 0.930 . S
H2353 C2368 0.960 . S
H2354 C2368 0.960 . S
H2355 C2368 0.960 . S
C2356 H2348 0.929 . S
C2356 C2357 1.377 . S
C2356 C2358 1.384 . S
C2357 C2356 1.377 . S
C2357 C2363 1.390 . S
C2358 H2349 0.930 . S
C2358 C2356 1.384 . S
C2358 C2359 1.372 . S
C2359 C2358 1.372 . S
C2359 C2360 1.400 . S
C2359 C2364 1.490 . S
C2360 H2350 0.930 . S
C2360 C2359 1.400 . S
C2360 C2363 1.386 . S
H2361 C2377 0.930 . S
H2362 C2378 0.931 . S
C2363 H2351 0.929 . S
C2363 C2357 1.390 . S
C2363 C2360 1.386 . S
C2364 C2359 1.490 . S
C2364 C2366 1.395 . S
C2364 C2367 1.403 . S
H2365 C2371 0.930 . S
C2366 H2352 0.930 . S
C2366 C2364 1.395 . S
C2366 C2369 1.403 . S
C2367 C2364 1.403 . S
C2367 C2368 1.524 . S
C2367 C2371 1.400 . S
C2368 H2353 0.960 . S
C2368 H2354 0.960 . S
C2368 H2355 0.960 . S
C2368 C2367 1.524 . S
C2369 C2366 1.403 . S
C2369 C2370 1.392 . S
C2369 C2373 1.495 . S
C2370 C2369 1.392 . S
C2370 C2371 1.385 . S
C2370 C2372 1.478 . S
C2371 H2365 0.930 . S
C2371 C2367 1.400 . S
C2371 C2370 1.385 . S
C2372 C2370 1.478 . S
C2372 C2374 1.381 . S
C2372 C2378 1.383 . S
C2373 C2369 1.495 . S
C2373 H2379 0.959 . S
C2373 H2380 0.961 . S
C2373 H2381 0.960 . S
C2374 C2372 1.381 . S
C2374 C2375 1.394 . S
C2374 H2382 0.930 . S
C2375 C2374 1.394 . S
C2375 C2376 1.383 . S
C2375 H2383 0.929 . S
C2376 C2375 1.383 . S
C2376 C2377 1.377 . S
C2377 H2361 0.930 . S
C2377 C2376 1.377 . S
C2377 C2378 1.379 . S
C2378 H2362 0.931 . S
C2378 C2372 1.383 . S
C2378 C2377 1.379 . S
H2379 C2373 0.959 . S
H2380 C2373 0.961 . S
H2381 C2373 0.960 . S
H2382 C2374 0.930 . S
H2383 C2375 0.929 . S
H2384 C2392 0.929 . S
H2385 C2394 0.930 . S
H2386 C2396 0.930 . S
H2387 C2399 0.929 . S
H2388 C2402 0.930 . S
H2389 C2404 0.960 . S
H2390 C2404 0.960 . S
H2391 C2404 0.960 . S
C2392 H2384 0.929 . S
C2392 C2393 1.377 . S
C2392 C2394 1.384 . S
C2393 C2392 1.377 . S
C2393 C2399 1.390 . S
C2394 H2385 0.930 . S
C2394 C2392 1.384 . S
C2394 C2395 1.372 . S
C2395 C2394 1.372 . S
C2395 C2396 1.400 . S
C2395 C2400 1.490 . S
C2396 H2386 0.930 . S
C2396 C2395 1.400 . S
C2396 C2399 1.386 . S
H2397 C2413 0.930 . S
H2398 C2414 0.931 . S
C2399 H2387 0.929 . S
C2399 C2393 1.390 . S
C2399 C2396 1.386 . S
C2400 C2395 1.490 . S
C2400 C2402 1.395 . S
C2400 C2403 1.403 . S
H2401 C2407 0.930 . S
C2402 H2388 0.930 . S
C2402 C2400 1.395 . S
C2402 C2405 1.403 . S
C2403 C2400 1.403 . S
C2403 C2404 1.524 . S
C2403 C2407 1.400 . S
C2404 H2389 0.960 . S
C2404 H2390 0.960 . S
C2404 H2391 0.960 . S
C2404 C2403 1.524 . S
C2405 C2402 1.403 . S
C2405 C2406 1.392 . S
C2405 C2409 1.495 . S
C2406 C2405 1.392 . S
C2406 C2407 1.385 . S
C2406 C2408 1.478 . S
C2407 H2401 0.930 . S
C2407 C2403 1.400 . S
C2407 C2406 1.385 . S
C2408 C2406 1.478 . S
C2408 C2410 1.381 . S
C2408 C2414 1.383 . S
C2409 C2405 1.495 . S
C2409 H2415 0.959 . S
C2409 H2416 0.961 . S
C2409 H2417 0.960 . S
C2410 C2408 1.381 . S
C2410 C2411 1.394 . S
C2410 H2418 0.930 . S
C2411 C2410 1.394 . S
C2411 C2412 1.383 . S
C2411 H2419 0.929 . S
C2412 C2411 1.383 . S
C2412 C2413 1.377 . S
C2413 H2397 0.930 . S
C2413 C2412 1.377 . S
C2413 C2414 1.379 . S
C2414 H2398 0.931 . S
C2414 C2408 1.383 . S
C2414 C2413 1.379 . S
H2415 C2409 0.959 . S
H2416 C2409 0.961 . S
H2417 C2409 0.960 . S
H2418 C2410 0.930 . S
H2419 C2411 0.929 . S
H2420 C2428 0.929 . S
H2421 C2430 0.930 . S
H2422 C2432 0.930 . S
H2423 C2435 0.929 . S
H2424 C2438 0.930 . S
H2425 C2440 0.960 . S
H2426 C2440 0.960 . S
H2427 C2440 0.960 . S
C2428 H2420 0.929 . S
C2428 C2429 1.377 . S
C2428 C2430 1.384 . S
C2429 C2428 1.377 . S
C2429 C2435 1.390 . S
C2430 H2421 0.930 . S
C2430 C2428 1.384 . S
C2430 C2431 1.372 . S
C2431 C2430 1.372 . S
C2431 C2432 1.400 . S
C2431 C2436 1.490 . S
C2432 H2422 0.930 . S
C2432 C2431 1.400 . S
C2432 C2435 1.386 . S
H2433 C2449 0.930 . S
H2434 C2450 0.931 . S
C2435 H2423 0.929 . S
C2435 C2429 1.390 . S
C2435 C2432 1.386 . S
C2436 C2431 1.490 . S
C2436 C2438 1.395 . S
C2436 C2439 1.403 . S
H2437 C2443 0.930 . S
C2438 H2424 0.930 . S
C2438 C2436 1.395 . S
C2438 C2441 1.403 . S
C2439 C2436 1.403 . S
C2439 C2440 1.524 . S
C2439 C2443 1.400 . S
C2440 H2425 0.960 . S
C2440 H2426 0.960 . S
C2440 H2427 0.960 . S
C2440 C2439 1.524 . S
C2441 C2438 1.403 . S
C2441 C2442 1.392 . S
C2441 C2445 1.495 . S
C2442 C2441 1.392 . S
C2442 C2443 1.385 . S
C2442 C2444 1.478 . S
C2443 H2437 0.930 . S
C2443 C2439 1.400 . S
C2443 C2442 1.385 . S
C2444 C2442 1.478 . S
C2444 C2446 1.381 . S
C2444 C2450 1.383 . S
C2445 C2441 1.495 . S
C2445 H2451 0.959 . S
C2445 H2452 0.961 . S
C2445 H2453 0.960 . S
C2446 C2444 1.381 . S
C2446 C2447 1.394 . S
C2446 H2454 0.930 . S
C2447 C2446 1.394 . S
C2447 C2448 1.383 . S
C2447 H2455 0.929 . S
C2448 C2447 1.383 . S
C2448 C2449 1.377 . S
C2449 H2433 0.930 . S
C2449 C2448 1.377 . S
C2449 C2450 1.379 . S
C2450 H2434 0.931 . S
C2450 C2444 1.383 . S
C2450 C2449 1.379 . S
H2451 C2445 0.959 . S
H2452 C2445 0.961 . S
H2453 C2445 0.960 . S
H2454 C2446 0.930 . S
H2455 C2447 0.929 . S
H2456 C2464 0.929 . S
H2457 C2466 0.930 . S
H2458 C2468 0.930 . S
H2459 C2471 0.929 . S
H2460 C2474 0.930 . S
H2461 C2476 0.960 . S
H2462 C2476 0.960 . S
H2463 C2476 0.960 . S
C2464 H2456 0.929 . S
C2464 C2465 1.377 . S
C2464 C2466 1.384 . S
C2465 C2464 1.377 . S
C2465 C2471 1.390 1_455 S
C2466 H2457 0.930 . S
C2466 C2464 1.384 . S
C2466 C2467 1.372 . S
C2467 C2466 1.372 . S
C2467 C2468 1.400 1_455 S
C2467 C2472 1.490 . S
C2468 H2458 0.930 . S
C2468 C2467 1.400 1_655 S
C2468 C2471 1.386 . S
H2469 C2485 0.930 . S
H2470 C2486 0.931 . S
C2471 H2459 0.929 . S
C2471 C2465 1.390 1_655 S
C2471 C2468 1.386 . S
C2472 C2467 1.490 . S
C2472 C2474 1.395 . S
C2472 C2475 1.403 1_455 S
H2473 C2479 0.930 . S
C2474 H2460 0.930 . S
C2474 C2472 1.395 . S
C2474 C2477 1.403 . S
C2475 C2472 1.403 1_655 S
C2475 C2476 1.524 . S
C2475 C2479 1.400 . S
C2476 H2461 0.960 . S
C2476 H2462 0.960 . S
C2476 H2463 0.960 . S
C2476 C2475 1.524 . S
C2477 C2474 1.403 . S
C2477 C2478 1.392 . S
C2477 C2481 1.495 . S
C2478 C2477 1.392 . S
C2478 C2479 1.385 1_455 S
C2478 C2480 1.478 . S
C2479 H2473 0.930 . S
C2479 C2475 1.400 . S
C2479 C2478 1.385 1_655 S
C2480 C2478 1.478 . S
C2480 C2482 1.381 . S
C2480 C2486 1.383 1_455 S
C2481 C2477 1.495 . S
C2481 H2487 0.959 . S
C2481 H2488 0.961 . S
C2481 H2489 0.960 . S
C2482 C2480 1.381 . S
C2482 C2483 1.378 1_556 S
C2482 H2490 0.930 . S
C2483 C2482 1.378 1_554 S
C2483 C2484 1.374 1_554 S
C2483 H2491 0.957 . S
C2484 C2483 1.374 1_556 S
C2484 C2485 1.377 1_455 S
C2485 H2469 0.930 . S
C2485 C2484 1.377 1_655 S
C2485 C2486 1.379 . S
C2486 H2470 0.931 . S
C2486 C2480 1.383 1_655 S
C2486 C2485 1.379 . S
H2487 C2481 0.959 . S
H2488 C2481 0.961 . S
H2489 C2481 0.960 . S
H2490 C2482 0.930 . S
H2491 C2483 0.957 . S
H2492 C2500 0.929 . S
H2493 C2502 0.930 . S
H2494 C2504 0.930 . S
H2495 C2507 0.929 . S
H2496 C2510 0.930 . S
H2497 C2512 0.960 . S
H2498 C2512 0.960 . S
H2499 C2512 0.960 . S
C2500 H2492 0.929 . S
C2500 C2501 1.377 . S
C2500 C2502 1.384 . S
C2501 C2500 1.377 . S
C2501 C2507 1.390 . S
C2502 H2493 0.930 . S
C2502 C2500 1.384 . S
C2502 C2503 1.372 . S
C2503 C2502 1.372 . S
C2503 C2504 1.400 . S
C2503 C2508 1.490 . S
C2504 H2494 0.930 . S
C2504 C2503 1.400 . S
C2504 C2507 1.386 . S
H2505 C2521 0.930 . S
H2506 C2522 0.931 . S
C2507 H2495 0.929 . S
C2507 C2501 1.390 . S
C2507 C2504 1.386 . S
C2508 C2503 1.490 . S
C2508 C2510 1.395 . S
C2508 C2511 1.403 . S
H2509 C2515 0.930 . S
C2510 H2496 0.930 . S
C2510 C2508 1.395 . S
C2510 C2513 1.403 . S
C2511 C2508 1.403 . S
C2511 C2512 1.524 . S
C2511 C2515 1.400 . S
C2512 H2497 0.960 . S
C2512 H2498 0.960 . S
C2512 H2499 0.960 . S
C2512 C2511 1.524 . S
C2513 C2510 1.403 . S
C2513 C2514 1.392 . S
C2513 C2517 1.495 . S
C2514 C2513 1.392 . S
C2514 C2515 1.385 . S
C2514 C2516 1.478 . S
C2515 H2509 0.930 . S
C2515 C2511 1.400 . S
C2515 C2514 1.385 . S
C2516 C2514 1.478 . S
C2516 C2518 1.381 . S
C2516 C2522 1.383 . S
C2517 C2513 1.495 . S
C2517 H2523 0.959 . S
C2517 H2524 0.961 . S
C2517 H2525 0.960 . S
C2518 C2516 1.381 . S
C2518 C2519 1.394 . S
C2518 H2526 0.930 . S
C2519 C2518 1.394 . S
C2519 C2520 1.383 . S
C2519 H2527 0.929 . S
C2520 C2519 1.383 . S
C2520 C2521 1.377 . S
C2521 H2505 0.930 . S
C2521 C2520 1.377 . S
C2521 C2522 1.379 . S
C2522 H2506 0.931 . S
C2522 C2516 1.383 . S
C2522 C2521 1.379 . S
H2523 C2517 0.959 . S
H2524 C2517 0.961 . S
H2525 C2517 0.960 . S
H2526 C2518 0.930 . S
H2527 C2519 0.929 . S
H2528 C2536 0.929 . S
H2529 C2538 0.930 . S
H2530 C2540 0.930 . S
H2531 C2543 0.929 . S
H2532 C2546 0.930 . S
H2533 C2548 0.960 . S
H2534 C2548 0.960 . S
H2535 C2548 0.960 . S
C2536 H2528 0.929 . S
C2536 C2537 1.377 . S
C2536 C2538 1.384 . S
C2537 C2536 1.377 . S
C2537 C2543 1.390 . S
C2538 H2529 0.930 . S
C2538 C2536 1.384 . S
C2538 C2539 1.372 . S
C2539 C2538 1.372 . S
C2539 C2540 1.400 . S
C2539 C2544 1.490 . S
C2540 H2530 0.930 . S
C2540 C2539 1.400 . S
C2540 C2543 1.386 . S
H2541 C2557 0.930 . S
H2542 C2558 0.931 . S
C2543 H2531 0.929 . S
C2543 C2537 1.390 . S
C2543 C2540 1.386 . S
C2544 C2539 1.490 . S
C2544 C2546 1.395 . S
C2544 C2547 1.403 . S
H2545 C2551 0.930 . S
C2546 H2532 0.930 . S
C2546 C2544 1.395 . S
C2546 C2549 1.403 . S
C2547 C2544 1.403 . S
C2547 C2548 1.524 . S
C2547 C2551 1.400 . S
C2548 H2533 0.960 . S
C2548 H2534 0.960 . S
C2548 H2535 0.960 . S
C2548 C2547 1.524 . S
C2549 C2546 1.403 . S
C2549 C2550 1.392 . S
C2549 C2553 1.495 . S
C2550 C2549 1.392 . S
C2550 C2551 1.385 . S
C2550 C2552 1.478 . S
C2551 H2545 0.930 . S
C2551 C2547 1.400 . S
C2551 C2550 1.385 . S
C2552 C2550 1.478 . S
C2552 C2554 1.381 . S
C2552 C2558 1.383 . S
C2553 C2549 1.495 . S
C2553 H2559 0.959 . S
C2553 H2560 0.961 . S
C2553 H2561 0.960 . S
C2554 C2552 1.381 . S
C2554 C2555 1.394 . S
C2554 H2562 0.930 . S
C2555 C2554 1.394 . S
C2555 C2556 1.383 . S
C2555 H2563 0.929 . S
C2556 C2555 1.383 . S
C2556 C2557 1.377 . S
C2557 H2541 0.930 . S
C2557 C2556 1.377 . S
C2557 C2558 1.379 . S
C2558 H2542 0.931 . S
C2558 C2552 1.383 . S
C2558 C2557 1.379 . S
H2559 C2553 0.959 . S
H2560 C2553 0.961 . S
H2561 C2553 0.960 . S
H2562 C2554 0.930 . S
H2563 C2555 0.929 . S
H2564 C2572 0.929 . S
H2565 C2574 0.930 . S
H2566 C2576 0.930 . S
H2567 C2579 0.929 . S
H2568 C2582 0.930 . S
H2569 C2584 0.960 . S
H2570 C2584 0.960 . S
H2571 C2584 0.960 . S
C2572 H2564 0.929 . S
C2572 C2573 1.377 . S
C2572 C2574 1.384 . S
C2573 C2572 1.377 . S
C2573 C2579 1.390 . S
C2574 H2565 0.930 . S
C2574 C2572 1.384 . S
C2574 C2575 1.372 . S
C2575 C2574 1.372 . S
C2575 C2576 1.400 . S
C2575 C2580 1.490 . S
C2576 H2566 0.930 . S
C2576 C2575 1.400 . S
C2576 C2579 1.386 . S
H2577 C2593 0.930 . S
H2578 C2594 0.931 . S
C2579 H2567 0.929 . S
C2579 C2573 1.390 . S
C2579 C2576 1.386 . S
C2580 C2575 1.490 . S
C2580 C2582 1.395 . S
C2580 C2583 1.403 . S
H2581 C2587 0.930 . S
C2582 H2568 0.930 . S
C2582 C2580 1.395 . S
C2582 C2585 1.403 . S
C2583 C2580 1.403 . S
C2583 C2584 1.524 . S
C2583 C2587 1.400 . S
C2584 H2569 0.960 . S
C2584 H2570 0.960 . S
C2584 H2571 0.960 . S
C2584 C2583 1.524 . S
C2585 C2582 1.403 . S
C2585 C2586 1.392 . S
C2585 C2589 1.495 . S
C2586 C2585 1.392 . S
C2586 C2587 1.385 . S
C2586 C2588 1.478 . S
C2587 H2581 0.930 . S
C2587 C2583 1.400 . S
C2587 C2586 1.385 . S
C2588 C2586 1.478 . S
C2588 C2590 1.381 . S
C2588 C2594 1.383 . S
C2589 C2585 1.495 . S
C2589 H2595 0.959 . S
C2589 H2596 0.961 . S
C2589 H2597 0.960 . S
C2590 C2588 1.381 . S
C2590 C2591 1.394 . S
C2590 H2598 0.930 . S
C2591 C2590 1.394 . S
C2591 C2592 1.383 . S
C2591 H2599 0.929 . S
C2592 C2591 1.383 . S
C2592 C2593 1.377 . S
C2593 H2577 0.930 . S
C2593 C2592 1.377 . S
C2593 C2594 1.379 . S
C2594 H2578 0.931 . S
C2594 C2588 1.383 . S
C2594 C2593 1.379 . S
H2595 C2589 0.959 . S
H2596 C2589 0.961 . S
H2597 C2589 0.960 . S
H2598 C2590 0.930 . S
H2599 C2591 0.929 . S
H2600 C2608 0.929 . S
H2601 C2610 0.930 . S
H2602 C2612 0.930 . S
H2603 C2615 0.929 . S
H2604 C2618 0.930 . S
H2605 C2620 0.960 . S
H2606 C2620 0.960 . S
H2607 C2620 0.960 . S
C2608 H2600 0.929 . S
C2608 C2609 1.377 1_655 S
C2608 C2610 1.384 . S
C2609 C2608 1.377 1_455 S
C2609 C2615 1.390 . S
C2610 H2601 0.930 . S
C2610 C2608 1.384 . S
C2610 C2611 1.372 1_655 S
C2611 C2610 1.372 1_455 S
C2611 C2612 1.400 . S
C2611 C2616 1.490 . S
C2612 H2602 0.930 . S
C2612 C2611 1.400 . S
C2612 C2615 1.386 . S
H2613 C2629 0.930 . S
H2614 C2630 0.931 . S
C2615 H2603 0.929 . S
C2615 C2609 1.390 . S
C2615 C2612 1.386 . S
C2616 C2611 1.490 . S
C2616 C2618 1.395 1_455 S
C2616 C2619 1.403 . S
H2617 C2623 0.930 . S
C2618 H2604 0.930 . S
C2618 C2616 1.395 1_655 S
C2618 C2621 1.403 . S
C2619 C2616 1.403 . S
C2619 C2620 1.524 . S
C2619 C2623 1.400 . S
C2620 H2605 0.960 . S
C2620 H2606 0.960 . S
C2620 H2607 0.960 . S
C2620 C2619 1.524 . S
C2621 C2618 1.403 . S
C2621 C2622 1.367 1_655 S
C2621 C2625 1.495 . S
C2622 C2621 1.367 1_455 S
C2622 C2623 1.406 . S
C2622 C2624 1.484 . S
C2623 H2617 0.930 . S
C2623 C2619 1.400 . S
C2623 C2622 1.406 . S
C2624 C2622 1.484 . S
C2624 C2626 1.381 1_455 S
C2624 C2630 1.383 . S
C2625 C2621 1.495 . S
C2625 H2631 0.959 . S
C2625 H2632 0.961 . S
C2625 H2633 0.960 . S
C2626 C2624 1.381 1_655 S
C2626 C2627 1.394 . S
C2626 H2634 0.930 . S
C2627 C2626 1.394 . S
C2627 C2628 1.383 1_655 S
C2627 H2635 0.929 . S
C2628 C2627 1.383 1_455 S
C2628 C2629 1.377 . S
C2629 H2613 0.930 . S
C2629 C2628 1.377 . S
C2629 C2630 1.379 . S
C2630 H2614 0.931 . S
C2630 C2624 1.383 . S
C2630 C2629 1.379 . S
H2631 C2625 0.959 . S
H2632 C2625 0.961 . S
H2633 C2625 0.960 . S
H2634 C2626 0.930 . S
H2635 C2627 0.929 . S
H2636 C2644 0.929 . S
H2637 C2646 0.930 . S
H2638 C2648 0.930 . S
H2639 C2651 0.929 . S
H2640 C2654 0.930 . S
H2641 C2656 0.960 . S
H2642 C2656 0.960 . S
H2643 C2656 0.960 . S
C2644 H2636 0.929 . S
C2644 C2645 1.377 . S
C2644 C2646 1.384 . S
C2645 C2644 1.377 . S
C2645 C2651 1.390 . S
C2646 H2637 0.930 . S
C2646 C2644 1.384 . S
C2646 C2647 1.372 . S
C2647 C2646 1.372 . S
C2647 C2648 1.400 . S
C2647 C2652 1.490 . S
C2648 H2638 0.930 . S
C2648 C2647 1.400 . S
C2648 C2651 1.386 . S
H2649 C2665 0.930 . S
H2650 C2666 0.931 . S
C2651 H2639 0.929 . S
C2651 C2645 1.390 . S
C2651 C2648 1.386 . S
C2652 C2647 1.490 . S
C2652 C2654 1.395 . S
C2652 C2655 1.403 . S
H2653 C2659 0.930 . S
C2654 H2640 0.930 . S
C2654 C2652 1.395 . S
C2654 C2657 1.403 . S
C2655 C2652 1.403 . S
C2655 C2656 1.524 . S
C2655 C2659 1.400 . S
C2656 H2641 0.960 . S
C2656 H2642 0.960 . S
C2656 H2643 0.960 . S
C2656 C2655 1.524 . S
C2657 C2654 1.403 . S
C2657 C2658 1.392 . S
C2657 C2661 1.495 . S
C2658 C2657 1.392 . S
C2658 C2659 1.385 . S
C2658 C2660 1.478 . S
C2659 H2653 0.930 . S
C2659 C2655 1.400 . S
C2659 C2658 1.385 . S
C2660 C2658 1.478 . S
C2660 C2662 1.381 . S
C2660 C2666 1.383 . S
C2661 C2657 1.495 . S
C2661 H2667 0.959 . S
C2661 H2668 0.961 . S
C2661 H2669 0.960 . S
C2662 C2660 1.381 . S
C2662 C2663 1.394 . S
C2662 H2670 0.930 . S
C2663 C2662 1.394 . S
C2663 C2664 1.383 . S
C2663 H2671 0.929 . S
C2664 C2663 1.383 . S
C2664 C2665 1.377 . S
C2665 H2649 0.930 . S
C2665 C2664 1.377 . S
C2665 C2666 1.379 . S
C2666 H2650 0.931 . S
C2666 C2660 1.383 . S
C2666 C2665 1.379 . S
H2667 C2661 0.959 . S
H2668 C2661 0.961 . S
H2669 C2661 0.960 . S
H2670 C2662 0.930 . S
H2671 C2663 0.929 . S
H2672 C2680 0.929 . S
H2673 C2682 0.930 . S
H2674 C2684 0.930 . S
H2675 C2687 0.929 . S
H2676 C2690 0.930 . S
H2677 C2692 0.960 . S
H2678 C2692 0.960 . S
H2679 C2692 0.960 . S
C2680 H2672 0.929 . S
C2680 C2681 1.377 . S
C2680 C2682 1.384 . S
C2681 C2680 1.377 . S
C2681 C2687 1.390 . S
C2682 H2673 0.930 . S
C2682 C2680 1.384 . S
C2682 C2683 1.372 . S
C2683 C2682 1.372 . S
C2683 C2684 1.400 . S
C2683 C2688 1.490 . S
C2684 H2674 0.930 . S
C2684 C2683 1.400 . S
C2684 C2687 1.386 . S
H2685 C2701 0.930 . S
H2686 C2702 0.931 . S
C2687 H2675 0.929 . S
C2687 C2681 1.390 . S
C2687 C2684 1.386 . S
C2688 C2683 1.490 . S
C2688 C2690 1.395 . S
C2688 C2691 1.403 . S
H2689 C2695 0.930 . S
C2690 H2676 0.930 . S
C2690 C2688 1.395 . S
C2690 C2693 1.403 . S
C2691 C2688 1.403 . S
C2691 C2692 1.524 . S
C2691 C2695 1.400 . S
C2692 H2677 0.960 . S
C2692 H2678 0.960 . S
C2692 H2679 0.960 . S
C2692 C2691 1.524 . S
C2693 C2690 1.403 . S
C2693 C2694 1.392 . S
C2693 C2697 1.495 . S
C2694 C2693 1.392 . S
C2694 C2695 1.385 . S
C2694 C2696 1.478 . S
C2695 H2689 0.930 . S
C2695 C2691 1.400 . S
C2695 C2694 1.385 . S
C2696 C2694 1.478 . S
C2696 C2698 1.381 . S
C2696 C2702 1.383 . S
C2697 C2693 1.495 . S
C2697 H2703 0.959 . S
C2697 H2704 0.961 . S
C2697 H2705 0.960 . S
C2698 C2696 1.381 . S
C2698 C2699 1.394 . S
C2698 H2706 0.930 . S
C2699 C2698 1.394 . S
C2699 C2700 1.383 . S
C2699 H2707 0.929 . S
C2700 C2699 1.383 . S
C2700 C2701 1.377 . S
C2701 H2685 0.930 . S
C2701 C2700 1.377 . S
C2701 C2702 1.379 . S
C2702 H2686 0.931 . S
C2702 C2696 1.383 . S
C2702 C2701 1.379 . S
H2703 C2697 0.959 . S
H2704 C2697 0.961 . S
H2705 C2697 0.960 . S
H2706 C2698 0.930 . S
H2707 C2699 0.929 . S
H2708 C2716 0.929 . S
H2709 C2718 0.930 . S
H2710 C2720 0.930 . S
H2711 C2723 0.929 . S
H2712 C2726 0.930 . S
H2713 C2728 0.960 . S
H2714 C2728 0.960 . S
H2715 C2728 0.960 . S
C2716 H2708 0.929 . S
C2716 C2717 1.377 . S
C2716 C2718 1.384 . S
C2717 C2716 1.377 . S
C2717 C2723 1.390 . S
C2718 H2709 0.930 . S
C2718 C2716 1.384 . S
C2718 C2719 1.372 . S
C2719 C2718 1.372 . S
C2719 C2720 1.400 . S
C2719 C2724 1.490 . S
C2720 H2710 0.930 . S
C2720 C2719 1.400 . S
C2720 C2723 1.386 . S
H2721 C2737 0.930 . S
H2722 C2738 0.931 . S
C2723 H2711 0.929 . S
C2723 C2717 1.390 . S
C2723 C2720 1.386 . S
C2724 C2719 1.490 . S
C2724 C2726 1.395 . S
C2724 C2727 1.403 . S
H2725 C2731 0.930 . S
C2726 H2712 0.930 . S
C2726 C2724 1.395 . S
C2726 C2729 1.403 . S
C2727 C2724 1.403 . S
C2727 C2728 1.524 . S
C2727 C2731 1.400 . S
C2728 H2713 0.960 . S
C2728 H2714 0.960 . S
C2728 H2715 0.960 . S
C2728 C2727 1.524 . S
C2729 C2726 1.403 . S
C2729 C2730 1.392 . S
C2729 C2733 1.495 . S
C2730 C2729 1.392 . S
C2730 C2731 1.385 . S
C2730 C2732 1.478 . S
C2731 H2725 0.930 . S
C2731 C2727 1.400 . S
C2731 C2730 1.385 . S
C2732 C2730 1.478 . S
C2732 C2734 1.381 . S
C2732 C2738 1.383 . S
C2733 C2729 1.495 . S
C2733 H2739 0.959 . S
C2733 H2740 0.961 . S
C2733 H2741 0.960 . S
C2734 C2732 1.381 . S
C2734 C2735 1.394 . S
C2734 H2742 0.930 . S
C2735 C2734 1.394 . S
C2735 C2736 1.383 . S
C2735 H2743 0.929 . S
C2736 C2735 1.383 . S
C2736 C2737 1.377 . S
C2737 H2721 0.930 . S
C2737 C2736 1.377 . S
C2737 C2738 1.379 . S
C2738 H2722 0.931 . S
C2738 C2732 1.383 . S
C2738 C2737 1.379 . S
H2739 C2733 0.959 . S
H2740 C2733 0.961 . S
H2741 C2733 0.960 . S
H2742 C2734 0.930 . S
H2743 C2735 0.929 . S
H2744 C2752 0.929 . S
H2745 C2754 0.930 . S
H2746 C2756 0.930 . S
H2747 C2759 0.929 . S
H2748 C2762 0.930 . S
H2749 C2764 0.960 . S
H2750 C2764 0.960 . S
H2751 C2764 0.960 . S
C2752 H2744 0.929 . S
C2752 C2753 1.377 . S
C2752 C2754 1.384 . S
C2753 C2752 1.377 . S
C2753 C2759 1.390 . S
C2754 H2745 0.930 . S
C2754 C2752 1.384 . S
C2754 C2755 1.372 . S
C2755 C2754 1.372 . S
C2755 C2756 1.400 . S
C2755 C2760 1.490 . S
C2756 H2746 0.930 . S
C2756 C2755 1.400 . S
C2756 C2759 1.386 . S
H2757 C2773 0.930 . S
H2758 C2774 0.931 . S
C2759 H2747 0.929 . S
C2759 C2753 1.390 . S
C2759 C2756 1.386 . S
C2760 C2755 1.490 . S
C2760 C2762 1.395 . S
C2760 C2763 1.403 . S
H2761 C2767 0.930 . S
C2762 H2748 0.930 . S
C2762 C2760 1.395 . S
C2762 C2765 1.403 . S
C2763 C2760 1.403 . S
C2763 C2764 1.524 . S
C2763 C2767 1.400 . S
C2764 H2749 0.960 . S
C2764 H2750 0.960 . S
C2764 H2751 0.960 . S
C2764 C2763 1.524 . S
C2765 C2762 1.403 . S
C2765 C2766 1.392 . S
C2765 C2769 1.495 . S
C2766 C2765 1.392 . S
C2766 C2767 1.385 . S
C2766 C2768 1.478 . S
C2767 H2761 0.930 . S
C2767 C2763 1.400 . S
C2767 C2766 1.385 . S
C2768 C2766 1.478 . S
C2768 C2770 1.381 . S
C2768 C2774 1.383 . S
C2769 C2765 1.495 . S
C2769 H2775 0.959 . S
C2769 H2776 0.961 . S
C2769 H2777 0.960 . S
C2770 C2768 1.381 . S
C2770 C2771 1.394 . S
C2770 H2778 0.930 . S
C2771 C2770 1.394 . S
C2771 C2772 1.383 . S
C2771 H2779 0.929 1_455 S
C2772 C2771 1.383 . S
C2772 C2773 1.377 . S
C2773 H2757 0.930 . S
C2773 C2772 1.377 . S
C2773 C2774 1.379 . S
C2774 H2758 0.931 . S
C2774 C2768 1.383 . S
C2774 C2773 1.379 . S
H2775 C2769 0.959 . S
H2776 C2769 0.961 . S
H2777 C2769 0.960 . S
H2778 C2770 0.930 . S
H2779 C2771 0.929 1_655 S
H2780 C2788 0.929 . S
H2781 C2790 0.930 . S
H2782 C2792 0.930 . S
H2783 C2795 0.929 . S
H2784 C2798 0.930 . S
H2785 C2800 0.960 . S
H2786 C2800 0.960 . S
H2787 C2800 0.960 . S
C2788 H2780 0.929 . S
C2788 C2789 1.377 . S
C2788 C2790 1.384 . S
C2789 C2788 1.377 . S
C2789 C2795 1.390 . S
C2790 H2781 0.930 . S
C2790 C2788 1.384 . S
C2790 C2791 1.372 . S
C2791 C2790 1.372 . S
C2791 C2792 1.400 . S
C2791 C2796 1.490 . S
C2792 H2782 0.930 . S
C2792 C2791 1.400 . S
C2792 C2795 1.386 . S
H2793 C2809 0.930 . S
H2794 C2810 0.931 . S
C2795 H2783 0.929 . S
C2795 C2789 1.390 . S
C2795 C2792 1.386 . S
C2796 C2791 1.490 . S
C2796 C2798 1.395 . S
C2796 C2799 1.403 . S
H2797 C2803 0.930 . S
C2798 H2784 0.930 . S
C2798 C2796 1.395 . S
C2798 C2801 1.403 . S
C2799 C2796 1.403 . S
C2799 C2800 1.524 . S
C2799 C2803 1.400 . S
C2800 H2785 0.960 . S
C2800 H2786 0.960 . S
C2800 H2787 0.960 . S
C2800 C2799 1.524 . S
C2801 C2798 1.403 . S
C2801 C2802 1.392 . S
C2801 C2805 1.495 . S
C2802 C2801 1.392 . S
C2802 C2803 1.385 . S
C2802 C2804 1.478 . S
C2803 H2797 0.930 . S
C2803 C2799 1.400 . S
C2803 C2802 1.385 . S
C2804 C2802 1.478 . S
C2804 C2806 1.381 . S
C2804 C2810 1.383 . S
C2805 C2801 1.495 . S
C2805 H2811 0.959 . S
C2805 H2812 0.961 . S
C2805 H2813 0.960 . S
C2806 C2804 1.381 . S
C2806 C2807 1.394 . S
C2806 H2814 0.930 . S
C2807 C2806 1.394 . S
C2807 C2808 1.383 . S
C2807 H2815 0.929 . S
C2808 C2807 1.383 . S
C2808 C2809 1.377 . S
C2809 H2793 0.930 . S
C2809 C2808 1.377 . S
C2809 C2810 1.379 . S
C2810 H2794 0.931 . S
C2810 C2804 1.383 . S
C2810 C2809 1.379 . S
H2811 C2805 0.959 . S
H2812 C2805 0.961 . S
H2813 C2805 0.960 . S
H2814 C2806 0.930 . S
H2815 C2807 0.929 . S
H2816 C2824 0.929 . S
H2817 C2826 0.930 . S
H2818 C2828 0.930 . S
H2819 C2831 0.929 . S
H2820 C2834 0.930 . S
H2821 C2836 0.960 . S
H2822 C2836 0.960 . S
H2823 C2836 0.960 . S
C2824 H2816 0.929 . S
C2824 C2825 1.377 . S
C2824 C2826 1.384 . S
C2825 C2824 1.377 . S
C2825 C2831 1.390 . S
C2826 H2817 0.930 . S
C2826 C2824 1.384 . S
C2826 C2827 1.372 . S
C2827 C2826 1.372 . S
C2827 C2828 1.400 . S
C2827 C2832 1.490 . S
C2828 H2818 0.930 . S
C2828 C2827 1.400 . S
C2828 C2831 1.386 . S
H2829 C2845 0.930 . S
H2830 C2846 0.931 . S
C2831 H2819 0.929 . S
C2831 C2825 1.390 . S
C2831 C2828 1.386 . S
C2832 C2827 1.490 . S
C2832 C2834 1.395 . S
C2832 C2835 1.403 . S
H2833 C2839 0.930 . S
C2834 H2820 0.930 . S
C2834 C2832 1.395 . S
C2834 C2837 1.403 . S
C2835 C2832 1.403 . S
C2835 C2836 1.524 . S
C2835 C2839 1.400 . S
C2836 H2821 0.960 . S
C2836 H2822 0.960 . S
C2836 H2823 0.960 . S
C2836 C2835 1.524 . S
C2837 C2834 1.403 . S
C2837 C2838 1.392 . S
C2837 C2841 1.495 . S
C2838 C2837 1.392 . S
C2838 C2839 1.385 . S
C2838 C2840 1.478 . S
C2839 H2833 0.930 . S
C2839 C2835 1.400 . S
C2839 C2838 1.385 . S
C2840 C2838 1.478 . S
C2840 C2842 1.381 . S
C2840 C2846 1.383 . S
C2841 C2837 1.495 . S
C2841 H2847 0.959 . S
C2841 H2848 0.961 . S
C2841 H2849 0.960 . S
C2842 C2840 1.381 . S
C2842 C2843 1.394 . S
C2842 H2850 0.930 . S
C2843 C2842 1.394 . S
C2843 C2844 1.383 . S
C2843 H2851 0.929 . S
C2844 C2843 1.383 . S
C2844 C2845 1.377 . S
C2845 H2829 0.930 . S
C2845 C2844 1.377 . S
C2845 C2846 1.379 . S
C2846 H2830 0.931 . S
C2846 C2840 1.383 . S
C2846 C2845 1.379 . S
H2847 C2841 0.959 . S
H2848 C2841 0.961 . S
H2849 C2841 0.960 . S
H2850 C2842 0.930 . S
H2851 C2843 0.929 . S
H2852 C2860 0.929 . S
H2853 C2862 0.930 . S
H2854 C2864 0.930 . S
H2855 C2867 0.929 . S
H2856 C2870 0.930 . S
H2857 C2872 0.960 . S
H2858 C2872 0.960 . S
H2859 C2872 0.960 . S
C2860 H2852 0.929 . S
C2860 C2861 1.377 . S
C2860 C2862 1.384 . S
C2861 C2860 1.377 . S
C2861 C2867 1.390 . S
C2862 H2853 0.930 . S
C2862 C2860 1.384 . S
C2862 C2863 1.372 . S
C2863 C2862 1.372 . S
C2863 C2864 1.400 . S
C2863 C2868 1.490 . S
C2864 H2854 0.930 . S
C2864 C2863 1.400 . S
C2864 C2867 1.386 . S
H2865 C2881 0.930 . S
H2866 C2882 0.931 . S
C2867 H2855 0.929 . S
C2867 C2861 1.390 . S
C2867 C2864 1.386 . S
C2868 C2863 1.490 . S
C2868 C2870 1.395 . S
C2868 C2871 1.403 . S
H2869 C2875 0.930 . S
C2870 H2856 0.930 . S
C2870 C2868 1.395 . S
C2870 C2873 1.403 . S
C2871 C2868 1.403 . S
C2871 C2872 1.524 . S
C2871 C2875 1.400 . S
C2872 H2857 0.960 . S
C2872 H2858 0.960 . S
C2872 H2859 0.960 . S
C2872 C2871 1.524 . S
C2873 C2870 1.403 . S
C2873 C2874 1.392 . S
C2873 C2877 1.495 . S
C2874 C2873 1.392 . S
C2874 C2875 1.385 . S
C2874 C2876 1.478 . S
C2875 H2869 0.930 . S
C2875 C2871 1.400 . S
C2875 C2874 1.385 . S
C2876 C2874 1.478 . S
C2876 C2878 1.381 . S
C2876 C2882 1.383 . S
C2877 C2873 1.495 . S
C2877 H2883 0.959 . S
C2877 H2884 0.961 . S
C2877 H2885 0.960 . S
C2878 C2876 1.381 . S
C2878 C2879 1.394 . S
C2878 H2886 0.930 . S
C2879 C2878 1.394 . S
C2879 C2880 1.383 . S
C2879 H2887 0.929 . S
C2880 C2879 1.383 . S
C2880 C2881 1.377 . S
C2881 H2865 0.930 . S
C2881 C2880 1.377 . S
C2881 C2882 1.379 . S
C2882 H2866 0.931 . S
C2882 C2876 1.383 . S
C2882 C2881 1.379 . S
H2883 C2877 0.959 . S
H2884 C2877 0.961 . S
H2885 C2877 0.960 . S
H2886 C2878 0.930 . S
H2887 C2879 0.929 . S
H2888 C2896 0.929 . S
H2889 C2898 0.930 . S
H2890 C2900 0.930 . S
H2891 C2903 0.929 . S
H2892 C2906 0.930 . S
H2893 C2908 0.960 . S
H2894 C2908 0.960 . S
H2895 C2908 0.960 . S
C2896 H2888 0.929 . S
C2896 C2897 1.377 . S
C2896 C2898 1.384 . S
C2897 C2896 1.377 . S
C2897 C2903 1.390 . S
C2898 H2889 0.930 . S
C2898 C2896 1.384 . S
C2898 C2899 1.372 . S
C2899 C2898 1.372 . S
C2899 C2900 1.400 . S
C2899 C2904 1.490 . S
C2900 H2890 0.930 . S
C2900 C2899 1.400 . S
C2900 C2903 1.386 . S
H2901 C2917 0.930 . S
H2902 C2918 0.931 . S
C2903 H2891 0.929 . S
C2903 C2897 1.390 . S
C2903 C2900 1.386 . S
C2904 C2899 1.490 . S
C2904 C2906 1.395 . S
C2904 C2907 1.403 . S
H2905 C2911 0.930 . S
C2906 H2892 0.930 . S
C2906 C2904 1.395 . S
C2906 C2909 1.403 . S
C2907 C2904 1.403 . S
C2907 C2908 1.524 . S
C2907 C2911 1.400 . S
C2908 H2893 0.960 . S
C2908 H2894 0.960 . S
C2908 H2895 0.960 . S
C2908 C2907 1.524 . S
C2909 C2906 1.403 . S
C2909 C2910 1.392 . S
C2909 C2913 1.495 . S
C2910 C2909 1.392 . S
C2910 C2911 1.385 . S
C2910 C2912 1.478 . S
C2911 H2905 0.930 . S
C2911 C2907 1.400 . S
C2911 C2910 1.385 . S
C2912 C2910 1.478 . S
C2912 C2914 1.381 . S
C2912 C2918 1.383 . S
C2913 C2909 1.495 . S
C2913 H2919 0.959 . S
C2913 H2920 0.961 . S
C2913 H2921 0.960 . S
C2914 C2912 1.381 . S
C2914 C2915 1.394 . S
C2914 H2922 0.930 . S
C2915 C2914 1.394 . S
C2915 C2916 1.383 . S
C2915 H2923 0.929 . S
C2916 C2915 1.383 . S
C2916 C2917 1.377 . S
C2917 H2901 0.930 . S
C2917 C2916 1.377 . S
C2917 C2918 1.379 . S
C2918 H2902 0.931 . S
C2918 C2912 1.383 . S
C2918 C2917 1.379 . S
H2919 C2913 0.959 . S
H2920 C2913 0.961 . S
H2921 C2913 0.960 . S
H2922 C2914 0.930 . S
H2923 C2915 0.929 . S
H2924 C2932 0.929 . S
H2925 C2934 0.930 . S
H2926 C2936 0.930 . S
H2927 C2939 0.929 . S
H2928 C2942 0.930 . S
H2929 C2944 0.960 . S
H2930 C2944 0.960 . S
H2931 C2944 0.960 . S
C2932 H2924 0.929 . S
C2932 C2933 1.377 . S
C2932 C2934 1.384 . S
C2933 C2932 1.377 . S
C2933 C2939 1.390 . S
C2934 H2925 0.930 . S
C2934 C2932 1.384 . S
C2934 C2935 1.372 . S
C2935 C2934 1.372 . S
C2935 C2936 1.400 . S
C2935 C2940 1.490 . S
C2936 H2926 0.930 . S
C2936 C2935 1.400 . S
C2936 C2939 1.386 . S
H2937 C2953 0.930 . S
H2938 C2954 0.931 . S
C2939 H2927 0.929 . S
C2939 C2933 1.390 . S
C2939 C2936 1.386 . S
C2940 C2935 1.490 . S
C2940 C2942 1.395 . S
C2940 C2943 1.403 . S
H2941 C2947 0.930 . S
C2942 H2928 0.930 . S
C2942 C2940 1.395 . S
C2942 C2945 1.403 . S
C2943 C2940 1.403 . S
C2943 C2944 1.524 . S
C2943 C2947 1.400 . S
C2944 H2929 0.960 . S
C2944 H2930 0.960 . S
C2944 H2931 0.960 . S
C2944 C2943 1.524 . S
C2945 C2942 1.403 . S
C2945 C2946 1.392 . S
C2945 C2949 1.495 . S
C2946 C2945 1.392 . S
C2946 C2947 1.385 . S
C2946 C2948 1.478 . S
C2947 H2941 0.930 . S
C2947 C2943 1.400 . S
C2947 C2946 1.385 . S
C2948 C2946 1.478 . S
C2948 C2950 1.381 . S
C2948 C2954 1.383 . S
C2949 C2945 1.495 . S
C2949 H2955 0.959 . S
C2949 H2956 0.961 . S
C2949 H2957 0.960 . S
C2950 C2948 1.381 . S
C2950 C2951 1.394 . S
C2950 H2958 0.930 . S
C2951 C2950 1.394 . S
C2951 C2952 1.383 . S
C2951 H2959 0.929 . S
C2952 C2951 1.383 . S
C2952 C2953 1.377 . S
C2953 H2937 0.930 . S
C2953 C2952 1.377 . S
C2953 C2954 1.379 . S
C2954 H2938 0.931 . S
C2954 C2948 1.383 . S
C2954 C2953 1.379 . S
H2955 C2949 0.959 . S
H2956 C2949 0.961 . S
H2957 C2949 0.960 . S
H2958 C2950 0.930 . S
H2959 C2951 0.929 . S
H2960 C2968 0.929 . S
H2961 C2970 0.930 . S
H2962 C2972 0.930 . S
H2963 C2975 0.929 . S
H2964 C2978 0.930 . S
H2965 C2980 0.960 . S
H2966 C2980 0.960 . S
H2967 C2980 0.960 . S
C2968 H2960 0.929 . S
C2968 C2969 1.377 . S
C2968 C2970 1.384 . S
C2969 C2968 1.377 . S
C2969 C2975 1.390 . S
C2970 H2961 0.930 . S
C2970 C2968 1.384 . S
C2970 C2971 1.372 . S
C2971 C2970 1.372 . S
C2971 C2972 1.400 . S
C2971 C2976 1.490 . S
C2972 H2962 0.930 . S
C2972 C2971 1.400 . S
C2972 C2975 1.386 . S
H2973 C2989 0.930 . S
H2974 C2990 0.931 . S
C2975 H2963 0.929 . S
C2975 C2969 1.390 . S
C2975 C2972 1.386 . S
C2976 C2971 1.490 . S
C2976 C2978 1.395 . S
C2976 C2979 1.403 . S
H2977 C2983 0.930 . S
C2978 H2964 0.930 . S
C2978 C2976 1.395 . S
C2978 C2981 1.403 . S
C2979 C2976 1.403 . S
C2979 C2980 1.524 . S
C2979 C2983 1.400 . S
C2980 H2965 0.960 . S
C2980 H2966 0.960 . S
C2980 H2967 0.960 . S
C2980 C2979 1.524 . S
C2981 C2978 1.403 . S
C2981 C2982 1.392 . S
C2981 C2985 1.495 . S
C2982 C2981 1.392 . S
C2982 C2983 1.385 . S
C2982 C2984 1.478 . S
C2983 H2977 0.930 . S
C2983 C2979 1.400 . S
C2983 C2982 1.385 . S
C2984 C2982 1.478 . S
C2984 C2986 1.381 . S
C2984 C2990 1.383 . S
C2985 C2981 1.495 . S
C2985 H2991 0.959 . S
C2985 H2992 0.961 . S
C2985 H2993 0.960 . S
C2986 C2984 1.381 . S
C2986 C2987 1.394 . S
C2986 H2994 0.930 . S
C2987 C2986 1.394 . S
C2987 C2988 1.383 . S
C2987 H2995 0.929 . S
C2988 C2987 1.383 . S
C2988 C2989 1.377 . S
C2989 H2973 0.930 . S
C2989 C2988 1.377 . S
C2989 C2990 1.379 . S
C2990 H2974 0.931 . S
C2990 C2984 1.383 . S
C2990 C2989 1.379 . S
H2991 C2985 0.959 . S
H2992 C2985 0.961 . S
H2993 C2985 0.960 . S
H2994 C2986 0.930 . S
H2995 C2987 0.929 . S
H2996 C3004 0.929 . S
H2997 C3006 0.930 . S
H2998 C3008 0.930 . S
H2999 C3011 0.929 . S
H3000 C3014 0.930 . S
H3001 C3016 0.960 . S
H3002 C3016 0.960 . S
H3003 C3016 0.960 . S
C3004 H2996 0.929 . S
C3004 C3005 1.377 . S
C3004 C3006 1.384 . S
C3005 C3004 1.377 . S
C3005 C3011 1.390 . S
C3006 H2997 0.930 . S
C3006 C3004 1.384 . S
C3006 C3007 1.372 . S
C3007 C3006 1.372 . S
C3007 C3008 1.400 . S
C3007 C3012 1.490 . S
C3008 H2998 0.930 . S
C3008 C3007 1.400 . S
C3008 C3011 1.386 . S
H3009 C3025 0.930 . S
H3010 C3026 0.931 . S
C3011 H2999 0.929 . S
C3011 C3005 1.390 . S
C3011 C3008 1.386 . S
C3012 C3007 1.490 . S
C3012 C3014 1.395 . S
C3012 C3015 1.403 . S
H3013 C3019 0.930 . S
C3014 H3000 0.930 . S
C3014 C3012 1.395 . S
C3014 C3017 1.403 . S
C3015 C3012 1.403 . S
C3015 C3016 1.524 . S
C3015 C3019 1.400 . S
C3016 H3001 0.960 . S
C3016 H3002 0.960 . S
C3016 H3003 0.960 . S
C3016 C3015 1.524 . S
C3017 C3014 1.403 . S
C3017 C3018 1.392 . S
C3017 C3021 1.495 . S
C3018 C3017 1.392 . S
C3018 C3019 1.385 . S
C3018 C3020 1.478 . S
C3019 H3013 0.930 . S
C3019 C3015 1.400 . S
C3019 C3018 1.385 . S
C3020 C3018 1.478 . S
C3020 C3022 1.381 . S
C3020 C3026 1.383 . S
C3021 C3017 1.495 . S
C3021 H3027 0.959 . S
C3021 H3028 0.961 . S
C3021 H3029 0.960 . S
C3022 C3020 1.381 . S
C3022 C3023 1.394 . S
C3022 H3030 0.930 . S
C3023 C3022 1.394 . S
C3023 C3024 1.383 . S
C3023 H3031 0.929 . S
C3024 C3023 1.383 . S
C3024 C3025 1.377 . S
C3025 H3009 0.930 . S
C3025 C3024 1.377 . S
C3025 C3026 1.379 . S
C3026 H3010 0.931 . S
C3026 C3020 1.383 . S
C3026 C3025 1.379 . S
H3027 C3021 0.959 . S
H3028 C3021 0.961 . S
H3029 C3021 0.960 . S
H3030 C3022 0.930 . S
H3031 C3023 0.929 . S
H3032 C3040 0.929 . S
H3033 C3042 0.930 . S
H3034 C3044 0.930 . S
H3035 C3047 0.929 . S
H3036 C3050 0.930 . S
H3037 C3052 0.960 . S
H3038 C3052 0.960 . S
H3039 C3052 0.960 . S
C3040 H3032 0.929 . S
C3040 C3041 1.377 . S
C3040 C3042 1.384 . S
C3041 C3040 1.377 . S
C3041 C3047 1.390 . S
C3042 H3033 0.930 . S
C3042 C3040 1.384 . S
C3042 C3043 1.372 . S
C3043 C3042 1.372 . S
C3043 C3044 1.400 . S
C3043 C3048 1.490 . S
C3044 H3034 0.930 . S
C3044 C3043 1.400 . S
C3044 C3047 1.386 . S
H3045 C3061 0.930 . S
H3046 C3062 0.931 . S
C3047 H3035 0.929 . S
C3047 C3041 1.390 . S
C3047 C3044 1.386 . S
C3048 C3043 1.490 . S
C3048 C3050 1.395 . S
C3048 C3051 1.403 . S
H3049 C3055 0.930 . S
C3050 H3036 0.930 . S
C3050 C3048 1.395 . S
C3050 C3053 1.403 . S
C3051 C3048 1.403 . S
C3051 C3052 1.524 . S
C3051 C3055 1.400 . S
C3052 H3037 0.960 . S
C3052 H3038 0.960 . S
C3052 H3039 0.960 . S
C3052 C3051 1.524 . S
C3053 C3050 1.403 . S
C3053 C3054 1.392 . S
C3053 C3057 1.495 . S
C3054 C3053 1.392 . S
C3054 C3055 1.385 . S
C3054 C3056 1.478 . S
C3055 H3049 0.930 . S
C3055 C3051 1.400 . S
C3055 C3054 1.385 . S
C3056 C3054 1.478 . S
C3056 C3058 1.381 . S
C3056 C3062 1.383 . S
C3057 C3053 1.495 . S
C3057 H3063 0.959 . S
C3057 H3064 0.961 . S
C3057 H3065 0.960 . S
C3058 C3056 1.381 . S
C3058 C3059 1.394 . S
C3058 H3066 0.930 . S
C3059 C3058 1.394 . S
C3059 C3060 1.383 . S
C3059 H3067 0.929 . S
C3060 C3059 1.383 . S
C3060 C3061 1.377 . S
C3061 H3045 0.930 . S
C3061 C3060 1.377 . S
C3061 C3062 1.379 . S
C3062 H3046 0.931 . S
C3062 C3056 1.383 . S
C3062 C3061 1.379 . S
H3063 C3057 0.959 . S
H3064 C3057 0.961 . S
H3065 C3057 0.960 . S
H3066 C3058 0.930 . S
H3067 C3059 0.929 . S
H3068 C3076 0.929 1_556 S
H3069 C3078 0.930 1_556 S
H3070 C3080 0.930 . S
H3071 C3083 0.929 . S
H3072 C3086 0.930 . S
H3073 C3088 0.960 . S
H3074 C3088 0.960 . S
H3075 C3088 0.960 . S
C3076 H3068 0.929 1_554 S
C3076 C3077 1.377 . S
C3076 C3078 1.384 . S
C3077 C3076 1.377 . S
C3077 C3083 1.390 . S
C3078 H3069 0.930 1_554 S
C3078 C3076 1.384 . S
C3078 C3079 1.372 . S
C3079 C3078 1.372 . S
C3079 C3080 1.400 . S
C3079 C3084 1.490 . S
C3080 H3070 0.930 . S
C3080 C3079 1.400 . S
C3080 C3083 1.386 . S
H3081 C3097 0.930 . S
H3082 C3098 0.931 . S
C3083 H3071 0.929 . S
C3083 C3077 1.390 . S
C3083 C3080 1.386 . S
C3084 C3079 1.490 . S
C3084 C3086 1.395 . S
C3084 C3087 1.403 . S
H3085 C3091 0.930 . S
C3086 H3072 0.930 . S
C3086 C3084 1.395 . S
C3086 C3089 1.403 . S
C3087 C3084 1.403 . S
C3087 C3088 1.524 . S
C3087 C3091 1.400 . S
C3088 H3073 0.960 . S
C3088 H3074 0.960 . S
C3088 H3075 0.960 . S
C3088 C3087 1.524 . S
C3089 C3086 1.403 . S
C3089 C3090 1.392 . S
C3089 C3093 1.495 . S
C3090 C3089 1.392 . S
C3090 C3091 1.385 . S
C3090 C3092 1.478 . S
C3091 H3085 0.930 . S
C3091 C3087 1.400 . S
C3091 C3090 1.385 . S
C3092 C3090 1.478 . S
C3092 C3094 1.388 . S
C3092 C3098 1.383 . S
C3093 C3089 1.495 . S
C3093 H3099 0.951 1_554 S
C3093 H3100 0.961 . S
C3093 H3101 0.960 1_554 S
C3094 C3092 1.388 . S
C3094 C3095 1.393 . S
C3094 H3102 0.924 1_554 S
C3095 C3094 1.393 . S
C3095 C3096 1.381 . S
C3095 H3103 0.932 1_554 S
C3096 C3095 1.381 . S
C3096 C3097 1.377 . S
C3097 H3081 0.930 . S
C3097 C3096 1.377 . S
C3097 C3098 1.379 . S
C3098 H3082 0.931 . S
C3098 C3092 1.383 . S
C3098 C3097 1.379 . S
H3099 C3093 0.951 1_556 S
H3100 C3093 0.961 . S
H3101 C3093 0.960 1_556 S
H3102 C3094 0.924 1_556 S
H3103 C3095 0.932 1_556 S
H3104 C3112 0.929 . S
H3105 C3114 0.930 . S
H3106 C3116 0.930 . S
H3107 C3119 0.929 . S
H3108 C3122 0.930 . S
H3109 C3124 0.960 . S
H3110 C3124 0.960 . S
H3111 C3124 0.960 . S
C3112 H3104 0.929 . S
C3112 C3113 1.377 . S
C3112 C3114 1.384 . S
C3113 C3112 1.377 . S
C3113 C3119 1.390 . S
C3114 H3105 0.930 . S
C3114 C3112 1.384 . S
C3114 C3115 1.372 . S
C3115 C3114 1.372 . S
C3115 C3116 1.400 . S
C3115 C3120 1.490 . S
C3116 H3106 0.930 . S
C3116 C3115 1.400 . S
C3116 C3119 1.386 . S
H3117 C3133 0.930 . S
H3118 C3134 0.931 . S
C3119 H3107 0.929 . S
C3119 C3113 1.390 . S
C3119 C3116 1.386 . S
C3120 C3115 1.490 . S
C3120 C3122 1.395 . S
C3120 C3123 1.403 . S
H3121 C3127 0.930 . S
C3122 H3108 0.930 . S
C3122 C3120 1.395 . S
C3122 C3125 1.403 . S
C3123 C3120 1.403 . S
C3123 C3124 1.524 . S
C3123 C3127 1.400 . S
C3124 H3109 0.960 . S
C3124 H3110 0.960 . S
C3124 H3111 0.960 . S
C3124 C3123 1.524 . S
C3125 C3122 1.403 . S
C3125 C3126 1.392 . S
C3125 C3129 1.495 . S
C3126 C3125 1.392 . S
C3126 C3127 1.385 . S
C3126 C3128 1.478 . S
C3127 H3121 0.930 . S
C3127 C3123 1.400 . S
C3127 C3126 1.385 . S
C3128 C3126 1.478 . S
C3128 C3130 1.381 . S
C3128 C3134 1.383 . S
C3129 C3125 1.495 . S
C3129 H3135 0.959 . S
C3129 H3136 0.961 . S
C3129 H3137 0.960 . S
C3130 C3128 1.381 . S
C3130 C3131 1.394 . S
C3130 H3138 0.930 . S
C3131 C3130 1.394 . S
C3131 C3132 1.383 . S
C3131 H3139 0.929 . S
C3132 C3131 1.383 . S
C3132 C3133 1.377 . S
C3133 H3117 0.930 . S
C3133 C3132 1.377 . S
C3133 C3134 1.379 . S
C3134 H3118 0.931 . S
C3134 C3128 1.383 . S
C3134 C3133 1.379 . S
H3135 C3129 0.959 . S
H3136 C3129 0.961 . S
H3137 C3129 0.960 . S
H3138 C3130 0.930 . S
H3139 C3131 0.929 . S
H3140 C3148 0.929 . S
H3141 C3150 0.930 . S
H3142 C3152 0.930 . S
H3143 C3155 0.929 . S
H3144 C3158 0.930 . S
H3145 C3160 0.960 . S
H3146 C3160 0.960 . S
H3147 C3160 0.960 . S
C3148 H3140 0.929 . S
C3148 C3149 1.377 . S
C3148 C3150 1.384 . S
C3149 C3148 1.377 . S
C3149 C3155 1.390 1_554 S
C3150 H3141 0.930 . S
C3150 C3148 1.384 . S
C3150 C3151 1.372 . S
C3151 C3150 1.372 . S
C3151 C3152 1.400 1_554 S
C3151 C3156 1.490 . S
C3152 H3142 0.930 . S
C3152 C3151 1.400 1_556 S
C3152 C3155 1.386 . S
H3153 C3169 0.930 1_556 S
H3154 C3170 0.931 1_556 S
C3155 H3143 0.929 . S
C3155 C3149 1.390 1_556 S
C3155 C3152 1.386 . S
C3156 C3151 1.490 . S
C3156 C3158 1.395 . S
C3156 C3159 1.403 . S
H3157 C3163 0.930 . S
C3158 H3144 0.930 . S
C3158 C3156 1.395 . S
C3158 C3161 1.403 . S
C3159 C3156 1.403 . S
C3159 C3160 1.524 . S
C3159 C3163 1.400 . S
C3160 H3145 0.960 . S
C3160 H3146 0.960 . S
C3160 H3147 0.960 . S
C3160 C3159 1.524 . S
C3161 C3158 1.403 . S
C3161 C3162 1.392 . S
C3161 C3165 1.495 . S
C3162 C3161 1.392 . S
C3162 C3163 1.385 . S
C3162 C3164 1.478 . S
C3163 H3157 0.930 . S
C3163 C3159 1.400 . S
C3163 C3162 1.385 . S
C3164 C3162 1.478 . S
C3164 C3166 1.381 . S
C3164 C3170 1.383 . S
C3165 C3161 1.495 . S
C3165 H3171 0.959 . S
C3165 H3172 0.961 . S
C3165 H3173 0.960 . S
C3166 C3164 1.381 . S
C3166 C3167 1.394 . S
C3166 H3174 0.930 . S
C3167 C3166 1.394 . S
C3167 C3168 1.383 . S
C3167 H3175 0.929 . S
C3168 C3167 1.383 . S
C3168 C3169 1.377 . S
C3169 H3153 0.930 1_554 S
C3169 C3168 1.377 . S
C3169 C3170 1.379 . S
C3170 H3154 0.931 1_554 S
C3170 C3164 1.383 . S
C3170 C3169 1.379 . S
H3171 C3165 0.959 . S
H3172 C3165 0.961 . S
H3173 C3165 0.960 . S
H3174 C3166 0.930 . S
H3175 C3167 0.929 . S
H3176 C3184 0.929 . S
H3177 C3186 0.930 . S
H3178 C3188 0.930 . S
H3179 C3191 0.929 . S
H3180 C3194 0.930 . S
H3181 C3196 0.960 . S
H3182 C3196 0.960 . S
H3183 C3196 0.960 . S
C3184 H3176 0.929 . S
C3184 C3185 1.377 . S
C3184 C3186 1.384 . S
C3185 C3184 1.377 . S
C3185 C3191 1.390 . S
C3186 H3177 0.930 . S
C3186 C3184 1.384 . S
C3186 C3187 1.372 . S
C3187 C3186 1.372 . S
C3187 C3188 1.400 . S
C3187 C3192 1.490 . S
C3188 H3178 0.930 . S
C3188 C3187 1.400 . S
C3188 C3191 1.386 . S
H3189 C3205 0.930 . S
H3190 C3206 0.931 . S
C3191 H3179 0.929 . S
C3191 C3185 1.390 . S
C3191 C3188 1.386 . S
C3192 C3187 1.490 . S
C3192 C3194 1.395 . S
C3192 C3195 1.403 . S
H3193 C3199 0.930 . S
C3194 H3180 0.930 . S
C3194 C3192 1.395 . S
C3194 C3197 1.403 . S
C3195 C3192 1.403 . S
C3195 C3196 1.524 . S
C3195 C3199 1.400 . S
C3196 H3181 0.960 . S
C3196 H3182 0.960 . S
C3196 H3183 0.960 . S
C3196 C3195 1.524 . S
C3197 C3194 1.403 . S
C3197 C3198 1.392 . S
C3197 C3201 1.495 . S
C3198 C3197 1.392 . S
C3198 C3199 1.385 . S
C3198 C3200 1.478 . S
C3199 H3193 0.930 . S
C3199 C3195 1.400 . S
C3199 C3198 1.385 . S
C3200 C3198 1.478 . S
C3200 C3202 1.381 . S
C3200 C3206 1.383 . S
C3201 C3197 1.495 . S
C3201 H3207 0.959 . S
C3201 H3208 0.961 . S
C3201 H3209 0.960 . S
C3202 C3200 1.381 . S
C3202 C3203 1.394 . S
C3202 H3210 0.930 . S
C3203 C3202 1.394 . S
C3203 C3204 1.383 . S
C3203 H3211 0.929 . S
C3204 C3203 1.383 . S
C3204 C3205 1.377 . S
C3205 H3189 0.930 . S
C3205 C3204 1.377 . S
C3205 C3206 1.379 . S
C3206 H3190 0.931 . S
C3206 C3200 1.383 . S
C3206 C3205 1.379 . S
H3207 C3201 0.959 . S
H3208 C3201 0.961 . S
H3209 C3201 0.960 . S
H3210 C3202 0.930 . S
H3211 C3203 0.929 . S
H3212 C3220 0.929 . S
H3213 C3222 0.930 . S
H3214 C3224 0.930 . S
H3215 C3227 0.929 . S
H3216 C3230 0.930 . S
H3217 C3232 0.960 . S
H3218 C3232 0.960 . S
H3219 C3232 0.960 . S
C3220 H3212 0.929 . S
C3220 C3221 1.377 . S
C3220 C3222 1.384 . S
C3221 C3220 1.377 . S
C3221 C3227 1.390 . S
C3222 H3213 0.930 . S
C3222 C3220 1.384 . S
C3222 C3223 1.372 . S
C3223 C3222 1.372 . S
C3223 C3224 1.400 . S
C3223 C3228 1.490 . S
C3224 H3214 0.930 . S
C3224 C3223 1.400 . S
C3224 C3227 1.386 . S
H3225 C3241 0.930 . S
H3226 C3242 0.931 . S
C3227 H3215 0.929 . S
C3227 C3221 1.390 . S
C3227 C3224 1.386 . S
C3228 C3223 1.490 . S
C3228 C3230 1.395 . S
C3228 C3231 1.403 . S
H3229 C3235 0.930 . S
C3230 H3216 0.930 . S
C3230 C3228 1.395 . S
C3230 C3233 1.403 . S
C3231 C3228 1.403 . S
C3231 C3232 1.524 . S
C3231 C3235 1.400 . S
C3232 H3217 0.960 . S
C3232 H3218 0.960 . S
C3232 H3219 0.960 . S
C3232 C3231 1.524 . S
C3233 C3230 1.403 . S
C3233 C3234 1.392 . S
C3233 C3237 1.495 . S
C3234 C3233 1.392 . S
C3234 C3235 1.385 . S
C3234 C3236 1.478 . S
C3235 H3229 0.930 . S
C3235 C3231 1.400 . S
C3235 C3234 1.385 . S
C3236 C3234 1.478 . S
C3236 C3238 1.381 . S
C3236 C3242 1.383 . S
C3237 C3233 1.495 . S
C3237 H3243 0.959 . S
C3237 H3244 0.961 . S
C3237 H3245 0.960 . S
C3238 C3236 1.381 . S
C3238 C3239 1.394 . S
C3238 H3246 0.930 . S
C3239 C3238 1.394 . S
C3239 C3240 1.383 . S
C3239 H3247 0.929 . S
C3240 C3239 1.383 . S
C3240 C3241 1.377 . S
C3241 H3225 0.930 . S
C3241 C3240 1.377 . S
C3241 C3242 1.379 . S
C3242 H3226 0.931 . S
C3242 C3236 1.383 . S
C3242 C3241 1.379 . S
H3243 C3237 0.959 . S
H3244 C3237 0.961 . S
H3245 C3237 0.960 . S
H3246 C3238 0.930 . S
H3247 C3239 0.929 . S
H3248 C3256 0.929 . S
H3249 C3258 0.930 . S
H3250 C3260 0.930 . S
H3251 C3263 0.929 . S
H3252 C3266 0.930 . S
H3253 C3268 0.960 . S
H3254 C3268 0.960 . S
H3255 C3268 0.960 . S
C3256 H3248 0.929 . S
C3256 C3257 1.377 . S
C3256 C3258 1.384 . S
C3257 C3256 1.377 . S
C3257 C3263 1.390 . S
C3258 H3249 0.930 . S
C3258 C3256 1.384 . S
C3258 C3259 1.372 . S
C3259 C3258 1.372 . S
C3259 C3260 1.400 . S
C3259 C3264 1.490 . S
C3260 H3250 0.930 . S
C3260 C3259 1.400 . S
C3260 C3263 1.386 . S
H3261 C3277 0.930 . S
H3262 C3278 0.931 . S
C3263 H3251 0.929 . S
C3263 C3257 1.390 . S
C3263 C3260 1.386 . S
C3264 C3259 1.490 . S
C3264 C3266 1.395 . S
C3264 C3267 1.403 . S
H3265 C3271 0.930 . S
C3266 H3252 0.930 . S
C3266 C3264 1.395 . S
C3266 C3269 1.403 . S
C3267 C3264 1.403 . S
C3267 C3268 1.524 . S
C3267 C3271 1.400 . S
C3268 H3253 0.960 . S
C3268 H3254 0.960 . S
C3268 H3255 0.960 . S
C3268 C3267 1.524 . S
C3269 C3266 1.403 . S
C3269 C3270 1.392 . S
C3269 C3273 1.495 . S
C3270 C3269 1.392 . S
C3270 C3271 1.385 . S
C3270 C3272 1.478 . S
C3271 H3265 0.930 . S
C3271 C3267 1.400 . S
C3271 C3270 1.385 . S
C3272 C3270 1.478 . S
C3272 C3274 1.381 . S
C3272 C3278 1.383 . S
C3273 C3269 1.495 . S
C3273 H3279 0.959 . S
C3273 H3280 0.961 . S
C3273 H3281 0.960 . S
C3274 C3272 1.381 . S
C3274 C3275 1.394 . S
C3274 H3282 0.930 . S
C3275 C3274 1.394 . S
C3275 C3276 1.383 . S
C3275 H3283 0.929 . S
C3276 C3275 1.383 . S
C3276 C3277 1.377 . S
C3277 H3261 0.930 . S
C3277 C3276 1.377 . S
C3277 C3278 1.379 . S
C3278 H3262 0.931 . S
C3278 C3272 1.383 . S
C3278 C3277 1.379 . S
H3279 C3273 0.959 . S
H3280 C3273 0.961 . S
H3281 C3273 0.960 . S
H3282 C3274 0.930 . S
H3283 C3275 0.929 . S
H3284 C3292 0.929 . S
H3285 C3294 0.930 . S
H3286 C3296 0.930 . S
H3287 C3299 0.929 . S
H3288 C3302 0.930 . S
H3289 C3304 0.960 . S
H3290 C3304 0.960 . S
H3291 C3304 0.960 . S
C3292 H3284 0.929 . S
C3292 C3293 1.377 . S
C3292 C3294 1.384 . S
C3293 C3292 1.377 . S
C3293 C3299 1.390 . S
C3294 H3285 0.930 . S
C3294 C3292 1.384 . S
C3294 C3295 1.372 . S
C3295 C3294 1.372 . S
C3295 C3296 1.400 . S
C3295 C3300 1.490 . S
C3296 H3286 0.930 . S
C3296 C3295 1.400 . S
C3296 C3299 1.386 . S
H3297 C3313 0.930 . S
H3298 C3314 0.931 . S
C3299 H3287 0.929 . S
C3299 C3293 1.390 . S
C3299 C3296 1.386 . S
C3300 C3295 1.490 . S
C3300 C3302 1.395 . S
C3300 C3303 1.403 . S
H3301 C3307 0.930 . S
C3302 H3288 0.930 . S
C3302 C3300 1.395 . S
C3302 C3305 1.403 . S
C3303 C3300 1.403 . S
C3303 C3304 1.524 . S
C3303 C3307 1.400 . S
C3304 H3289 0.960 . S
C3304 H3290 0.960 . S
C3304 H3291 0.960 . S
C3304 C3303 1.524 . S
C3305 C3302 1.403 . S
C3305 C3306 1.392 . S
C3305 C3309 1.495 . S
C3306 C3305 1.392 . S
C3306 C3307 1.385 . S
C3306 C3308 1.478 . S
C3307 H3301 0.930 . S
C3307 C3303 1.400 . S
C3307 C3306 1.385 . S
C3308 C3306 1.478 . S
C3308 C3310 1.381 . S
C3308 C3314 1.383 . S
C3309 C3305 1.495 . S
C3309 H3315 0.959 . S
C3309 H3316 0.961 . S
C3309 H3317 0.960 . S
C3310 C3308 1.381 . S
C3310 C3311 1.394 . S
C3310 H3318 0.930 . S
C3311 C3310 1.394 . S
C3311 C3312 1.383 . S
C3311 H3319 0.929 . S
C3312 C3311 1.383 . S
C3312 C3313 1.377 . S
C3313 H3297 0.930 . S
C3313 C3312 1.377 . S
C3313 C3314 1.379 . S
C3314 H3298 0.931 . S
C3314 C3308 1.383 . S
C3314 C3313 1.379 . S
H3315 C3309 0.959 . S
H3316 C3309 0.961 . S
H3317 C3309 0.960 . S
H3318 C3310 0.930 . S
H3319 C3311 0.929 . S
H3320 C3328 0.929 . S
H3321 C3330 0.930 . S
H3322 C3332 0.930 . S
H3323 C3335 0.929 . S
H3324 C3338 0.930 . S
H3325 C3340 0.960 . S
H3326 C3340 0.960 . S
H3327 C3340 0.960 . S
C3328 H3320 0.929 . S
C3328 C3329 1.377 . S
C3328 C3330 1.384 . S
C3329 C3328 1.377 . S
C3329 C3335 1.390 . S
C3330 H3321 0.930 . S
C3330 C3328 1.384 . S
C3330 C3331 1.372 . S
C3331 C3330 1.372 . S
C3331 C3332 1.400 . S
C3331 C3336 1.490 . S
C3332 H3322 0.930 . S
C3332 C3331 1.400 . S
C3332 C3335 1.386 . S
H3333 C3349 0.930 . S
H3334 C3350 0.931 . S
C3335 H3323 0.929 . S
C3335 C3329 1.390 . S
C3335 C3332 1.386 . S
C3336 C3331 1.490 . S
C3336 C3338 1.395 . S
C3336 C3339 1.403 . S
H3337 C3343 0.930 1_655 S
C3338 H3324 0.930 . S
C3338 C3336 1.395 . S
C3338 C3341 1.403 . S
C3339 C3336 1.403 . S
C3339 C3340 1.524 1_455 S
C3339 C3343 1.400 . S
C3340 H3325 0.960 . S
C3340 H3326 0.960 . S
C3340 H3327 0.960 . S
C3340 C3339 1.524 1_655 S
C3341 C3338 1.403 . S
C3341 C3342 1.392 . S
C3341 C3345 1.495 . S
C3342 C3341 1.392 . S
C3342 C3343 1.385 . S
C3342 C3344 1.478 . S
C3343 H3337 0.930 1_455 S
C3343 C3339 1.400 . S
C3343 C3342 1.385 . S
C3344 C3342 1.478 . S
C3344 C3346 1.381 . S
C3344 C3350 1.383 . S
C3345 C3341 1.495 . S
C3345 H3351 0.959 . S
C3345 H3352 0.961 . S
C3345 H3353 0.960 . S
C3346 C3344 1.381 . S
C3346 C3347 1.394 . S
C3346 H3354 0.930 . S
C3347 C3346 1.394 . S
C3347 C3348 1.383 . S
C3347 H3355 0.929 . S
C3348 C3347 1.383 . S
C3348 C3349 1.377 . S
C3349 H3333 0.930 . S
C3349 C3348 1.377 . S
C3349 C3350 1.379 . S
C3350 H3334 0.931 . S
C3350 C3344 1.383 . S
C3350 C3349 1.379 . S
H3351 C3345 0.959 . S
H3352 C3345 0.961 . S
H3353 C3345 0.960 . S
H3354 C3346 0.930 . S
H3355 C3347 0.929 . S
H3356 C3364 0.929 . S
H3357 C3366 0.930 . S
H3358 C3368 0.930 . S
H3359 C3371 0.929 . S
H3360 C3374 0.930 . S
H3361 C3376 0.960 . S
H3362 C3376 0.960 . S
H3363 C3376 0.960 . S
C3364 H3356 0.929 . S
C3364 C3365 1.377 . S
C3364 C3366 1.384 . S
C3365 C3364 1.377 . S
C3365 C3371 1.390 . S
C3366 H3357 0.930 . S
C3366 C3364 1.384 . S
C3366 C3367 1.372 . S
C3367 C3366 1.372 . S
C3367 C3368 1.400 . S
C3367 C3372 1.490 . S
C3368 H3358 0.930 . S
C3368 C3367 1.400 . S
C3368 C3371 1.386 . S
H3369 C3385 0.930 . S
H3370 C3386 0.931 . S
C3371 H3359 0.929 . S
C3371 C3365 1.390 . S
C3371 C3368 1.386 . S
C3372 C3367 1.490 . S
C3372 C3374 1.395 . S
C3372 C3375 1.403 . S
H3373 C3379 0.930 . S
C3374 H3360 0.930 . S
C3374 C3372 1.395 . S
C3374 C3377 1.403 . S
C3375 C3372 1.403 . S
C3375 C3376 1.524 . S
C3375 C3379 1.400 . S
C3376 H3361 0.960 . S
C3376 H3362 0.960 . S
C3376 H3363 0.960 . S
C3376 C3375 1.524 . S
C3377 C3374 1.403 . S
C3377 C3378 1.392 . S
C3377 C3381 1.495 . S
C3378 C3377 1.392 . S
C3378 C3379 1.385 . S
C3378 C3380 1.478 . S
C3379 H3373 0.930 . S
C3379 C3375 1.400 . S
C3379 C3378 1.385 . S
C3380 C3378 1.478 . S
C3380 C3382 1.381 . S
C3380 C3386 1.383 . S
C3381 C3377 1.495 . S
C3381 H3387 0.959 . S
C3381 H3388 0.961 . S
C3381 H3389 0.960 . S
C3382 C3380 1.381 . S
C3382 C3383 1.394 . S
C3382 H3390 0.930 . S
C3383 C3382 1.394 . S
C3383 C3384 1.383 . S
C3383 H3391 0.929 . S
C3384 C3383 1.383 . S
C3384 C3385 1.377 . S
C3385 H3369 0.930 . S
C3385 C3384 1.377 . S
C3385 C3386 1.379 . S
C3386 H3370 0.931 . S
C3386 C3380 1.383 . S
C3386 C3385 1.379 . S
H3387 C3381 0.959 . S
H3388 C3381 0.961 . S
H3389 C3381 0.960 . S
H3390 C3382 0.930 . S
H3391 C3383 0.929 . S
H3392 C3400 0.929 . S
H3393 C3402 0.930 . S
H3394 C3404 0.930 . S
H3395 C3407 0.929 . S
H3396 C3410 0.930 . S
H3397 C3412 0.960 . S
H3398 C3412 0.960 . S
H3399 C3412 0.960 . S
C3400 H3392 0.929 . S
C3400 C3401 1.377 . S
C3400 C3402 1.384 . S
C3401 C3400 1.377 . S
C3401 C3407 1.390 . S
C3402 H3393 0.930 . S
C3402 C3400 1.384 . S
C3402 C3403 1.372 . S
C3403 C3402 1.372 . S
C3403 C3404 1.400 . S
C3403 C3408 1.490 . S
C3404 H3394 0.930 . S
C3404 C3403 1.400 . S
C3404 C3407 1.386 . S
H3405 C3421 0.930 . S
H3406 C3422 0.930 1_554 S
C3407 H3395 0.929 . S
C3407 C3401 1.390 . S
C3407 C3404 1.386 . S
C3408 C3403 1.490 . S
C3408 C3410 1.395 . S
C3408 C3411 1.403 . S
H3409 C3415 0.930 . S
C3410 H3396 0.930 . S
C3410 C3408 1.395 . S
C3410 C3413 1.403 . S
C3411 C3408 1.403 . S
C3411 C3412 1.524 . S
C3411 C3415 1.400 . S
C3412 H3397 0.960 . S
C3412 H3398 0.960 . S
C3412 H3399 0.960 . S
C3412 C3411 1.524 . S
C3413 C3410 1.403 . S
C3413 C3414 1.392 . S
C3413 C3417 1.495 . S
C3414 C3413 1.392 . S
C3414 C3415 1.385 . S
C3414 C3416 1.478 . S
C3415 H3409 0.930 . S
C3415 C3411 1.400 . S
C3415 C3414 1.385 . S
C3416 C3414 1.478 . S
C3416 C3418 1.381 . S
C3416 C3422 1.383 . S
C3417 C3413 1.495 . S
C3417 H3423 0.959 . S
C3417 H3424 0.961 . S
C3417 H3425 0.960 . S
C3418 C3416 1.381 . S
C3418 C3419 1.394 . S
C3418 H3426 0.930 . S
C3419 C3418 1.394 . S
C3419 C3420 1.383 . S
C3419 H3427 0.929 . S
C3420 C3419 1.383 . S
C3420 C3421 1.377 1_556 S
C3421 H3405 0.930 . S
C3421 C3420 1.377 1_554 S
C3421 C3422 1.379 1_554 S
C3422 H3406 0.930 1_556 S
C3422 C3416 1.383 . S
C3422 C3421 1.379 1_556 S
H3423 C3417 0.959 . S
H3424 C3417 0.961 . S
H3425 C3417 0.960 . S
H3426 C3418 0.930 . S
H3427 C3419 0.929 . S
H3428 C3436 0.929 . S
H3429 C3438 0.930 . S
H3430 C3440 0.930 . S
H3431 C3443 0.929 . S
H3432 C3446 0.930 . S
H3433 C3448 0.960 . S
H3434 C3448 0.960 . S
H3435 C3448 0.960 . S
C3436 H3428 0.929 . S
C3436 C3437 1.377 . S
C3436 C3438 1.384 . S
C3437 C3436 1.377 . S
C3437 C3443 1.390 . S
C3438 H3429 0.930 . S
C3438 C3436 1.384 . S
C3438 C3439 1.372 . S
C3439 C3438 1.372 . S
C3439 C3440 1.400 . S
C3439 C3444 1.490 . S
C3440 H3430 0.930 . S
C3440 C3439 1.400 . S
C3440 C3443 1.386 . S
H3441 C3457 0.930 . S
H3442 C3458 0.931 . S
C3443 H3431 0.929 . S
C3443 C3437 1.390 . S
C3443 C3440 1.386 . S
C3444 C3439 1.490 . S
C3444 C3446 1.395 . S
C3444 C3447 1.403 . S
H3445 C3451 0.930 . S
C3446 H3432 0.930 . S
C3446 C3444 1.395 . S
C3446 C3449 1.403 . S
C3447 C3444 1.403 . S
C3447 C3448 1.524 . S
C3447 C3451 1.400 . S
C3448 H3433 0.960 . S
C3448 H3434 0.960 . S
C3448 H3435 0.960 . S
C3448 C3447 1.524 . S
C3449 C3446 1.403 . S
C3449 C3450 1.392 . S
C3449 C3453 1.495 . S
C3450 C3449 1.392 . S
C3450 C3451 1.385 . S
C3450 C3452 1.478 . S
C3451 H3445 0.930 . S
C3451 C3447 1.400 . S
C3451 C3450 1.385 . S
C3452 C3450 1.478 . S
C3452 C3454 1.381 . S
C3452 C3458 1.383 . S
C3453 C3449 1.495 . S
C3453 H3459 0.959 . S
C3453 H3460 0.961 . S
C3453 H3461 0.960 . S
C3454 C3452 1.381 . S
C3454 C3455 1.394 . S
C3454 H3462 0.930 . S
C3455 C3454 1.394 . S
C3455 C3456 1.383 . S
C3455 H3463 0.929 . S
C3456 C3455 1.383 . S
C3456 C3457 1.377 . S
C3457 H3441 0.930 . S
C3457 C3456 1.377 . S
C3457 C3458 1.379 . S
C3458 H3442 0.931 . S
C3458 C3452 1.383 . S
C3458 C3457 1.379 . S
H3459 C3453 0.959 . S
H3460 C3453 0.961 . S
H3461 C3453 0.960 . S
H3462 C3454 0.930 . S
H3463 C3455 0.929 . S
H3464 C3472 0.929 . S
H3465 C3474 0.930 . S
H3466 C3476 0.930 . S
H3467 C3479 0.929 . S
H3468 C3482 0.930 . S
H3469 C3484 0.960 . S
H3470 C3484 0.960 . S
H3471 C3484 0.960 1_455 S
C3472 H3464 0.929 . S
C3472 C3473 1.377 . S
C3472 C3474 1.384 . S
C3473 C3472 1.377 . S
C3473 C3479 1.390 . S
C3474 H3465 0.930 . S
C3474 C3472 1.384 . S
C3474 C3475 1.372 . S
C3475 C3474 1.372 . S
C3475 C3476 1.400 . S
C3475 C3480 1.490 . S
C3476 H3466 0.930 . S
C3476 C3475 1.400 . S
C3476 C3479 1.386 . S
H3477 C3493 0.930 . S
H3478 C3494 0.931 . S
C3479 H3467 0.929 . S
C3479 C3473 1.390 . S
C3479 C3476 1.386 . S
C3480 C3475 1.490 . S
C3480 C3482 1.395 . S
C3480 C3483 1.403 . S
H3481 C3487 0.930 . S
C3482 H3468 0.930 . S
C3482 C3480 1.395 . S
C3482 C3485 1.403 . S
C3483 C3480 1.403 . S
C3483 C3484 1.524 1_455 S
C3483 C3487 1.400 . S
C3484 H3469 0.960 . S
C3484 H3470 0.960 . S
C3484 H3471 0.960 1_655 S
C3484 C3483 1.524 1_655 S
C3485 C3482 1.403 . S
C3485 C3486 1.392 . S
C3485 C3489 1.495 . S
C3486 C3485 1.392 . S
C3486 C3487 1.385 . S
C3486 C3488 1.478 . S
C3487 H3481 0.930 . S
C3487 C3483 1.400 . S
C3487 C3486 1.385 . S
C3488 C3486 1.478 . S
C3488 C3490 1.381 . S
C3488 C3494 1.383 . S
C3489 C3485 1.495 . S
C3489 H3495 0.959 . S
C3489 H3496 0.961 . S
C3489 H3497 0.960 . S
C3490 C3488 1.381 . S
C3490 C3491 1.394 . S
C3490 H3498 0.930 . S
C3491 C3490 1.394 . S
C3491 C3492 1.383 . S
C3491 H3499 0.929 . S
C3492 C3491 1.383 . S
C3492 C3493 1.377 . S
C3493 H3477 0.930 . S
C3493 C3492 1.377 . S
C3493 C3494 1.379 . S
C3494 H3478 0.931 . S
C3494 C3488 1.383 . S
C3494 C3493 1.379 . S
H3495 C3489 0.959 . S
H3496 C3489 0.961 . S
H3497 C3489 0.960 . S
H3498 C3490 0.930 . S
H3499 C3491 0.929 . S
H3500 C3508 0.929 . S
H3501 C3510 0.930 . S
H3502 C3512 0.930 . S
H3503 C3515 0.929 . S
H3504 C3518 0.930 . S
H3505 C3520 0.960 . S
H3506 C3520 0.960 . S
H3507 C3520 0.960 . S
C3508 H3500 0.929 . S
C3508 C3509 1.377 . S
C3508 C3510 1.384 . S
C3509 C3508 1.377 . S
C3509 C3515 1.390 . S
C3510 H3501 0.930 . S
C3510 C3508 1.384 . S
C3510 C3511 1.372 . S
C3511 C3510 1.372 . S
C3511 C3512 1.400 . S
C3511 C3516 1.490 . S
C3512 H3502 0.930 . S
C3512 C3511 1.400 . S
C3512 C3515 1.386 . S
H3513 C3529 0.930 . S
H3514 C3530 0.931 . S
C3515 H3503 0.929 . S
C3515 C3509 1.390 . S
C3515 C3512 1.386 . S
C3516 C3511 1.490 . S
C3516 C3518 1.395 . S
C3516 C3519 1.403 . S
H3517 C3523 0.930 . S
C3518 H3504 0.930 . S
C3518 C3516 1.395 . S
C3518 C3521 1.403 . S
C3519 C3516 1.403 . S
C3519 C3520 1.524 . S
C3519 C3523 1.400 . S
C3520 H3505 0.960 . S
C3520 H3506 0.960 . S
C3520 H3507 0.960 . S
C3520 C3519 1.524 . S
C3521 C3518 1.403 . S
C3521 C3522 1.392 . S
C3521 C3525 1.495 . S
C3522 C3521 1.392 . S
C3522 C3523 1.385 . S
C3522 C3524 1.478 . S
C3523 H3517 0.930 . S
C3523 C3519 1.400 . S
C3523 C3522 1.385 . S
C3524 C3522 1.478 . S
C3524 C3526 1.381 . S
C3524 C3530 1.383 . S
C3525 C3521 1.495 . S
C3525 H3531 0.959 . S
C3525 H3532 0.961 . S
C3525 H3533 0.960 . S
C3526 C3524 1.381 . S
C3526 C3527 1.394 . S
C3526 H3534 0.930 . S
C3527 C3526 1.394 . S
C3527 C3528 1.383 . S
C3527 H3535 0.929 . S
C3528 C3527 1.383 . S
C3528 C3529 1.377 . S
C3529 H3513 0.930 . S
C3529 C3528 1.377 . S
C3529 C3530 1.379 . S
C3530 H3514 0.931 . S
C3530 C3524 1.383 . S
C3530 C3529 1.379 . S
H3531 C3525 0.959 . S
H3532 C3525 0.961 . S
H3533 C3525 0.960 . S
H3534 C3526 0.930 . S
H3535 C3527 0.929 . S
H3536 C3544 0.929 . S
H3537 C3546 0.930 . S
H3538 C3548 0.930 . S
H3539 C3551 0.929 . S
H3540 C3554 0.930 . S
H3541 C3556 0.960 . S
H3542 C3556 0.960 . S
H3543 C3556 0.960 . S
C3544 H3536 0.929 . S
C3544 C3545 1.377 . S
C3544 C3546 1.384 . S
C3545 C3544 1.377 . S
C3545 C3551 1.390 . S
C3546 H3537 0.930 . S
C3546 C3544 1.384 . S
C3546 C3547 1.372 . S
C3547 C3546 1.372 . S
C3547 C3548 1.400 . S
C3547 C3552 1.490 . S
C3548 H3538 0.930 . S
C3548 C3547 1.400 . S
C3548 C3551 1.386 . S
H3549 C3565 0.930 . S
H3550 C3566 0.931 . S
C3551 H3539 0.929 . S
C3551 C3545 1.390 . S
C3551 C3548 1.386 . S
C3552 C3547 1.490 . S
C3552 C3554 1.395 . S
C3552 C3555 1.403 . S
H3553 C3559 0.930 . S
C3554 H3540 0.930 . S
C3554 C3552 1.395 . S
C3554 C3557 1.403 . S
C3555 C3552 1.403 . S
C3555 C3556 1.524 . S
C3555 C3559 1.400 . S
C3556 H3541 0.960 . S
C3556 H3542 0.960 . S
C3556 H3543 0.960 . S
C3556 C3555 1.524 . S
C3557 C3554 1.403 . S
C3557 C3558 1.392 . S
C3557 C3561 1.495 . S
C3558 C3557 1.392 . S
C3558 C3559 1.385 . S
C3558 C3560 1.478 . S
C3559 H3553 0.930 . S
C3559 C3555 1.400 . S
C3559 C3558 1.385 . S
C3560 C3558 1.478 . S
C3560 C3562 1.381 . S
C3560 C3566 1.383 . S
C3561 C3557 1.495 . S
C3561 H3567 0.959 . S
C3561 H3568 0.961 . S
C3561 H3569 0.960 . S
C3562 C3560 1.381 . S
C3562 C3563 1.394 . S
C3562 H3570 0.930 . S
C3563 C3562 1.394 . S
C3563 C3564 1.383 . S
C3563 H3571 0.929 . S
C3564 C3563 1.383 . S
C3564 C3565 1.377 . S
C3565 H3549 0.930 . S
C3565 C3564 1.377 . S
C3565 C3566 1.379 . S
C3566 H3550 0.931 . S
C3566 C3560 1.383 . S
C3566 C3565 1.379 . S
H3567 C3561 0.959 . S
H3568 C3561 0.961 . S
H3569 C3561 0.960 . S
H3570 C3562 0.930 . S
H3571 C3563 0.929 . S
H3572 C3580 0.929 . S
H3573 C3582 0.930 . S
H3574 C3584 0.930 . S
H3575 C3587 0.929 . S
H3576 C3590 0.930 . S
H3577 C3592 0.960 . S
H3578 C3592 0.960 . S
H3579 C3592 0.960 . S
C3580 H3572 0.929 . S
C3580 C3581 1.377 . S
C3580 C3582 1.384 . S
C3581 C3580 1.377 . S
C3581 C3587 1.390 . S
C3582 H3573 0.930 . S
C3582 C3580 1.384 . S
C3582 C3583 1.372 . S
C3583 C3582 1.372 . S
C3583 C3584 1.400 . S
C3583 C3588 1.490 . S
C3584 H3574 0.930 . S
C3584 C3583 1.400 . S
C3584 C3587 1.386 . S
H3585 C3601 0.930 . S
H3586 C3602 0.931 . S
C3587 H3575 0.929 . S
C3587 C3581 1.390 . S
C3587 C3584 1.386 . S
C3588 C3583 1.490 . S
C3588 C3590 1.395 . S
C3588 C3591 1.403 . S
H3589 C3595 0.930 . S
C3590 H3576 0.930 . S
C3590 C3588 1.395 . S
C3590 C3593 1.403 . S
C3591 C3588 1.403 . S
C3591 C3592 1.524 . S
C3591 C3595 1.400 . S
C3592 H3577 0.960 . S
C3592 H3578 0.960 . S
C3592 H3579 0.960 . S
C3592 C3591 1.524 . S
C3593 C3590 1.403 . S
C3593 C3594 1.392 . S
C3593 C3597 1.495 . S
C3594 C3593 1.392 . S
C3594 C3595 1.385 . S
C3594 C3596 1.478 . S
C3595 H3589 0.930 . S
C3595 C3591 1.400 . S
C3595 C3594 1.385 . S
C3596 C3594 1.478 . S
C3596 C3598 1.381 . S
C3596 C3602 1.383 . S
C3597 C3593 1.495 . S
C3597 H3603 0.959 . S
C3597 H3604 0.961 . S
C3597 H3605 0.960 . S
C3598 C3596 1.381 . S
C3598 C3599 1.394 . S
C3598 H3606 0.930 . S
C3599 C3598 1.394 . S
C3599 C3600 1.383 . S
C3599 H3607 0.929 . S
C3600 C3599 1.383 . S
C3600 C3601 1.377 . S
C3601 H3585 0.930 . S
C3601 C3600 1.377 . S
C3601 C3602 1.379 . S
C3602 H3586 0.931 . S
C3602 C3596 1.383 . S
C3602 C3601 1.379 . S
H3603 C3597 0.959 . S
H3604 C3597 0.961 . S
H3605 C3597 0.960 . S
H3606 C3598 0.930 . S
H3607 C3599 0.929 . S
H3608 C3616 0.929 . S
H3609 C3618 0.930 . S
H3610 C3620 0.930 . S
H3611 C3623 0.929 . S
H3612 C3626 0.930 . S
H3613 C3628 0.960 . S
H3614 C3628 0.960 . S
H3615 C3628 0.960 . S
C3616 H3608 0.929 . S
C3616 C3617 1.377 . S
C3616 C3618 1.384 . S
C3617 C3616 1.377 . S
C3617 C3623 1.390 . S
C3618 H3609 0.930 . S
C3618 C3616 1.384 . S
C3618 C3619 1.372 . S
C3619 C3618 1.372 . S
C3619 C3620 1.400 . S
C3619 C3624 1.490 . S
C3620 H3610 0.930 . S
C3620 C3619 1.400 . S
C3620 C3623 1.386 . S
H3621 C3637 0.930 . S
H3622 C3638 0.931 . S
C3623 H3611 0.929 . S
C3623 C3617 1.390 . S
C3623 C3620 1.386 . S
C3624 C3619 1.490 . S
C3624 C3626 1.395 . S
C3624 C3627 1.403 . S
H3625 C3631 0.930 . S
C3626 H3612 0.930 . S
C3626 C3624 1.395 . S
C3626 C3629 1.403 . S
C3627 C3624 1.403 . S
C3627 C3628 1.524 . S
C3627 C3631 1.400 . S
C3628 H3613 0.960 . S
C3628 H3614 0.960 . S
C3628 H3615 0.960 . S
C3628 C3627 1.524 . S
C3629 C3626 1.403 . S
C3629 C3630 1.392 . S
C3629 C3633 1.495 . S
C3630 C3629 1.392 . S
C3630 C3631 1.385 . S
C3630 C3632 1.478 . S
C3631 H3625 0.930 . S
C3631 C3627 1.400 . S
C3631 C3630 1.385 . S
C3632 C3630 1.478 . S
C3632 C3634 1.381 . S
C3632 C3638 1.383 . S
C3633 C3629 1.495 . S
C3633 H3639 0.959 . S
C3633 H3640 0.961 . S
C3633 H3641 0.960 . S
C3634 C3632 1.381 . S
C3634 C3635 1.394 1_655 S
C3634 H3642 0.930 1_655 S
C3635 C3634 1.394 1_455 S
C3635 C3636 1.383 1_455 S
C3635 H3643 0.929 . S
C3636 C3635 1.383 1_655 S
C3636 C3637 1.377 . S
C3637 H3621 0.930 . S
C3637 C3636 1.377 . S
C3637 C3638 1.379 . S
C3638 H3622 0.931 . S
C3638 C3632 1.383 . S
C3638 C3637 1.379 . S
H3639 C3633 0.959 . S
H3640 C3633 0.961 . S
H3641 C3633 0.960 . S
H3642 C3634 0.930 1_455 S
H3643 C3635 0.929 . S
H3644 C3652 0.929 . S
H3645 C3654 0.930 . S
H3646 C3656 0.930 . S
H3647 C3659 0.929 . S
H3648 C3662 0.930 . S
H3649 C3664 0.960 . S
H3650 C3664 0.960 . S
H3651 C3664 0.960 . S
C3652 H3644 0.929 . S
C3652 C3653 1.377 . S
C3652 C3654 1.384 . S
C3653 C3652 1.377 . S
C3653 C3659 1.390 . S
C3654 H3645 0.930 . S
C3654 C3652 1.384 . S
C3654 C3655 1.372 . S
C3655 C3654 1.372 . S
C3655 C3656 1.400 . S
C3655 C3660 1.490 . S
C3656 H3646 0.930 . S
C3656 C3655 1.400 . S
C3656 C3659 1.386 . S
H3657 C3673 0.930 . S
H3658 C3674 0.931 . S
C3659 H3647 0.929 . S
C3659 C3653 1.390 . S
C3659 C3656 1.386 . S
C3660 C3655 1.490 . S
C3660 C3662 1.395 . S
C3660 C3663 1.403 . S
H3661 C3667 0.930 . S
C3662 H3648 0.930 . S
C3662 C3660 1.395 . S
C3662 C3665 1.403 . S
C3663 C3660 1.403 . S
C3663 C3664 1.524 . S
C3663 C3667 1.400 . S
C3664 H3649 0.960 . S
C3664 H3650 0.960 . S
C3664 H3651 0.960 . S
C3664 C3663 1.524 . S
C3665 C3662 1.403 . S
C3665 C3666 1.392 . S
C3665 C3669 1.495 . S
C3666 C3665 1.392 . S
C3666 C3667 1.385 . S
C3666 C3668 1.478 . S
C3667 H3661 0.930 . S
C3667 C3663 1.400 . S
C3667 C3666 1.385 . S
C3668 C3666 1.478 . S
C3668 C3670 1.381 . S
C3668 C3674 1.383 . S
C3669 C3665 1.495 . S
C3669 H3675 0.959 . S
C3669 H3676 0.961 . S
C3669 H3677 0.960 . S
C3670 C3668 1.381 . S
C3670 C3671 1.394 . S
C3670 H3678 0.930 . S
C3671 C3670 1.394 . S
C3671 C3672 1.383 . S
C3671 H3679 0.929 . S
C3672 C3671 1.383 . S
C3672 C3673 1.377 . S
C3673 H3657 0.930 . S
C3673 C3672 1.377 . S
C3673 C3674 1.379 . S
C3674 H3658 0.931 . S
C3674 C3668 1.383 . S
C3674 C3673 1.379 . S
H3675 C3669 0.959 . S
H3676 C3669 0.961 . S
H3677 C3669 0.960 . S
H3678 C3670 0.930 . S
H3679 C3671 0.929 . S
H3680 C3688 0.929 . S
H3681 C3690 0.930 . S
H3682 C3692 0.930 . S
H3683 C3695 0.929 . S
H3684 C3698 0.930 . S
H3685 C3700 0.960 . S
H3686 C3700 0.960 . S
H3687 C3700 0.960 . S
C3688 H3680 0.929 . S
C3688 C3689 1.377 . S
C3688 C3690 1.384 . S
C3689 C3688 1.377 . S
C3689 C3695 1.390 . S
C3690 H3681 0.930 . S
C3690 C3688 1.384 . S
C3690 C3691 1.372 . S
C3691 C3690 1.372 . S
C3691 C3692 1.400 . S
C3691 C3696 1.490 . S
C3692 H3682 0.930 . S
C3692 C3691 1.400 . S
C3692 C3695 1.386 . S
H3693 C3709 0.930 . S
H3694 C3710 0.931 . S
C3695 H3683 0.929 . S
C3695 C3689 1.390 . S
C3695 C3692 1.386 . S
C3696 C3691 1.490 . S
C3696 C3698 1.395 . S
C3696 C3699 1.403 . S
H3697 C3703 0.930 . S
C3698 H3684 0.930 . S
C3698 C3696 1.395 . S
C3698 C3701 1.403 . S
C3699 C3696 1.403 . S
C3699 C3700 1.524 . S
C3699 C3703 1.400 . S
C3700 H3685 0.960 . S
C3700 H3686 0.960 . S
C3700 H3687 0.960 . S
C3700 C3699 1.524 . S
C3701 C3698 1.403 . S
C3701 C3702 1.392 . S
C3701 C3705 1.495 . S
C3702 C3701 1.392 . S
C3702 C3703 1.385 . S
C3702 C3704 1.478 . S
C3703 H3697 0.930 . S
C3703 C3699 1.400 . S
C3703 C3702 1.385 . S
C3704 C3702 1.478 . S
C3704 C3706 1.381 . S
C3704 C3710 1.383 . S
C3705 C3701 1.495 . S
C3705 H3711 0.959 . S
C3705 H3712 0.961 . S
C3705 H3713 0.960 . S
C3706 C3704 1.381 . S
C3706 C3707 1.394 . S
C3706 H3714 0.930 . S
C3707 C3706 1.394 . S
C3707 C3708 1.383 . S
C3707 H3715 0.929 . S
C3708 C3707 1.383 . S
C3708 C3709 1.377 . S
C3709 H3693 0.930 . S
C3709 C3708 1.377 . S
C3709 C3710 1.379 . S
C3710 H3694 0.931 . S
C3710 C3704 1.383 . S
C3710 C3709 1.379 . S
H3711 C3705 0.959 . S
H3712 C3705 0.961 . S
H3713 C3705 0.960 . S
H3714 C3706 0.930 . S
H3715 C3707 0.929 . S
H3716 C3724 0.929 . S
H3717 C3726 0.930 . S
H3718 C3728 0.930 . S
H3719 C3731 0.929 . S
H3720 C3734 0.930 . S
H3721 C3736 0.960 . S
H3722 C3736 0.960 . S
H3723 C3736 0.960 . S
C3724 H3716 0.929 . S
C3724 C3725 1.377 . S
C3724 C3726 1.384 . S
C3725 C3724 1.377 . S
C3725 C3731 1.390 . S
C3726 H3717 0.930 . S
C3726 C3724 1.384 . S
C3726 C3727 1.372 . S
C3727 C3726 1.372 . S
C3727 C3728 1.400 . S
C3727 C3732 1.490 . S
C3728 H3718 0.930 . S
C3728 C3727 1.400 . S
C3728 C3731 1.386 . S
H3729 C3745 0.930 . S
H3730 C3746 0.931 . S
C3731 H3719 0.929 . S
C3731 C3725 1.390 . S
C3731 C3728 1.386 . S
C3732 C3727 1.490 . S
C3732 C3734 1.395 . S
C3732 C3735 1.403 . S
H3733 C3739 0.930 . S
C3734 H3720 0.930 . S
C3734 C3732 1.395 . S
C3734 C3737 1.403 . S
C3735 C3732 1.403 . S
C3735 C3736 1.524 . S
C3735 C3739 1.400 . S
C3736 H3721 0.960 . S
C3736 H3722 0.960 . S
C3736 H3723 0.960 . S
C3736 C3735 1.524 . S
C3737 C3734 1.403 . S
C3737 C3738 1.392 . S
C3737 C3741 1.495 . S
C3738 C3737 1.392 . S
C3738 C3739 1.385 . S
C3738 C3740 1.478 . S
C3739 H3733 0.930 . S
C3739 C3735 1.400 . S
C3739 C3738 1.385 . S
C3740 C3738 1.478 . S
C3740 C3742 1.381 . S
C3740 C3746 1.383 . S
C3741 C3737 1.495 . S
C3741 H3747 0.959 . S
C3741 H3748 0.961 . S
C3741 H3749 0.960 . S
C3742 C3740 1.381 . S
C3742 C3743 1.394 . S
C3742 H3750 0.930 . S
C3743 C3742 1.394 . S
C3743 C3744 1.383 . S
C3743 H3751 0.929 . S
C3744 C3743 1.383 . S
C3744 C3745 1.377 . S
C3745 H3729 0.930 . S
C3745 C3744 1.377 . S
C3745 C3746 1.379 . S
C3746 H3730 0.931 . S
C3746 C3740 1.383 . S
C3746 C3745 1.379 . S
H3747 C3741 0.959 . S
H3748 C3741 0.961 . S
H3749 C3741 0.960 . S
H3750 C3742 0.930 . S
H3751 C3743 0.929 . S
H3752 C3760 0.929 . S
H3753 C3762 0.930 . S
H3754 C3764 0.930 . S
H3755 C3767 0.929 . S
H3756 C3770 0.930 . S
H3757 C3772 0.960 . S
H3758 C3772 0.960 . S
H3759 C3772 0.960 . S
C3760 H3752 0.929 . S
C3760 C3761 1.377 . S
C3760 C3762 1.384 . S
C3761 C3760 1.377 . S
C3761 C3767 1.390 . S
C3762 H3753 0.930 . S
C3762 C3760 1.384 . S
C3762 C3763 1.372 . S
C3763 C3762 1.372 . S
C3763 C3764 1.400 . S
C3763 C3768 1.490 . S
C3764 H3754 0.930 . S
C3764 C3763 1.400 . S
C3764 C3767 1.386 . S
H3765 C3781 0.930 . S
H3766 C3782 0.931 . S
C3767 H3755 0.929 . S
C3767 C3761 1.390 . S
C3767 C3764 1.386 . S
C3768 C3763 1.490 . S
C3768 C3770 1.395 . S
C3768 C3771 1.403 . S
H3769 C3775 0.930 . S
C3770 H3756 0.930 . S
C3770 C3768 1.395 . S
C3770 C3773 1.403 . S
C3771 C3768 1.403 . S
C3771 C3772 1.524 . S
C3771 C3775 1.400 . S
C3772 H3757 0.960 . S
C3772 H3758 0.960 . S
C3772 H3759 0.960 . S
C3772 C3771 1.524 . S
C3773 C3770 1.403 . S
C3773 C3774 1.392 . S
C3773 C3777 1.495 . S
C3774 C3773 1.392 . S
C3774 C3775 1.385 . S
C3774 C3776 1.478 . S
C3775 H3769 0.930 . S
C3775 C3771 1.400 . S
C3775 C3774 1.385 . S
C3776 C3774 1.478 . S
C3776 C3778 1.381 . S
C3776 C3782 1.383 . S
C3777 C3773 1.495 . S
C3777 H3783 0.959 . S
C3777 H3784 0.961 . S
C3777 H3785 0.960 . S
C3778 C3776 1.381 . S
C3778 C3779 1.425 . S
C3778 H3786 0.952 . S
C3779 C3778 1.425 . S
C3779 C3780 1.418 . S
C3779 H3787 0.866 1_655 S
C3780 C3779 1.418 . S
C3780 C3781 1.377 . S
C3781 H3765 0.930 . S
C3781 C3780 1.377 . S
C3781 C3782 1.379 . S
C3782 H3766 0.931 . S
C3782 C3776 1.383 . S
C3782 C3781 1.379 . S
H3783 C3777 0.959 . S
H3784 C3777 0.961 . S
H3785 C3777 0.960 . S
H3786 C3778 0.952 . S
H3787 C3779 0.866 1_455 S
H3788 C3796 0.929 . S
H3789 C3798 0.930 . S
H3790 C3800 0.930 . S
H3791 C3803 0.929 . S
H3792 C3806 0.930 . S
H3793 C3808 0.960 . S
H3794 C3808 0.960 . S
H3795 C3808 0.960 . S
C3796 H3788 0.929 . S
C3796 C3797 1.377 . S
C3796 C3798 1.384 . S
C3797 C3796 1.377 . S
C3797 C3803 1.390 . S
C3798 H3789 0.930 . S
C3798 C3796 1.384 . S
C3798 C3799 1.372 . S
C3799 C3798 1.372 . S
C3799 C3800 1.400 . S
C3799 C3804 1.490 . S
C3800 H3790 0.930 . S
C3800 C3799 1.400 . S
C3800 C3803 1.386 . S
H3801 C3817 0.930 . S
H3802 C3818 0.931 . S
C3803 H3791 0.929 . S
C3803 C3797 1.390 . S
C3803 C3800 1.386 . S
C3804 C3799 1.490 . S
C3804 C3806 1.395 . S
C3804 C3807 1.403 . S
H3805 C3811 0.930 . S
C3806 H3792 0.930 . S
C3806 C3804 1.395 . S
C3806 C3809 1.403 . S
C3807 C3804 1.403 . S
C3807 C3808 1.524 . S
C3807 C3811 1.400 . S
C3808 H3793 0.960 . S
C3808 H3794 0.960 . S
C3808 H3795 0.960 . S
C3808 C3807 1.524 . S
C3809 C3806 1.403 . S
C3809 C3810 1.392 . S
C3809 C3813 1.495 . S
C3810 C3809 1.392 . S
C3810 C3811 1.385 . S
C3810 C3812 1.478 . S
C3811 H3805 0.930 . S
C3811 C3807 1.400 . S
C3811 C3810 1.385 . S
C3812 C3810 1.478 . S
C3812 C3814 1.381 . S
C3812 C3818 1.383 . S
C3813 C3809 1.495 . S
C3813 H3819 0.959 . S
C3813 H3820 0.961 . S
C3813 H3821 0.960 . S
C3814 C3812 1.381 . S
C3814 C3815 1.394 . S
C3814 H3822 0.930 . S
C3815 C3814 1.394 . S
C3815 C3816 1.383 . S
C3815 H3823 0.929 . S
C3816 C3815 1.383 . S
C3816 C3817 1.377 . S
C3817 H3801 0.930 . S
C3817 C3816 1.377 . S
C3817 C3818 1.379 . S
C3818 H3802 0.931 . S
C3818 C3812 1.383 . S
C3818 C3817 1.379 . S
H3819 C3813 0.959 . S
H3820 C3813 0.961 . S
H3821 C3813 0.960 . S
H3822 C3814 0.930 . S
H3823 C3815 0.929 . S
H3824 C3832 0.929 . S
H3825 C3834 0.930 . S
H3826 C3836 0.930 . S
H3827 C3839 0.929 . S
H3828 C3842 0.930 . S
H3829 C3844 0.960 . S
H3830 C3844 0.960 . S
H3831 C3844 0.960 . S
C3832 H3824 0.929 . S
C3832 C3833 1.377 . S
C3832 C3834 1.384 . S
C3833 C3832 1.377 . S
C3833 C3839 1.390 . S
C3834 H3825 0.930 . S
C3834 C3832 1.384 . S
C3834 C3835 1.372 . S
C3835 C3834 1.372 . S
C3835 C3836 1.400 . S
C3835 C3840 1.490 . S
C3836 H3826 0.930 . S
C3836 C3835 1.400 . S
C3836 C3839 1.386 . S
H3837 C3853 0.930 . S
H3838 C3854 0.931 . S
C3839 H3827 0.929 . S
C3839 C3833 1.390 . S
C3839 C3836 1.386 . S
C3840 C3835 1.490 . S
C3840 C3842 1.395 . S
C3840 C3843 1.403 . S
H3841 C3847 0.930 . S
C3842 H3828 0.930 . S
C3842 C3840 1.395 . S
C3842 C3845 1.403 . S
C3843 C3840 1.403 . S
C3843 C3844 1.524 . S
C3843 C3847 1.400 . S
C3844 H3829 0.960 . S
C3844 H3830 0.960 . S
C3844 H3831 0.960 . S
C3844 C3843 1.524 . S
C3845 C3842 1.403 . S
C3845 C3846 1.392 . S
C3845 C3849 1.495 . S
C3846 C3845 1.392 . S
C3846 C3847 1.385 . S
C3846 C3848 1.478 . S
C3847 H3841 0.930 . S
C3847 C3843 1.400 . S
C3847 C3846 1.385 . S
C3848 C3846 1.478 . S
C3848 C3850 1.381 . S
C3848 C3854 1.383 . S
C3849 C3845 1.495 . S
C3849 H3855 0.959 . S
C3849 H3856 0.961 . S
C3849 H3857 0.960 . S
C3850 C3848 1.381 . S
C3850 C3851 1.394 . S
C3850 H3858 0.930 . S
C3851 C3850 1.394 . S
C3851 C3852 1.383 . S
C3851 H3859 0.929 . S
C3852 C3851 1.383 . S
C3852 C3853 1.377 . S
C3853 H3837 0.930 . S
C3853 C3852 1.377 . S
C3853 C3854 1.379 . S
C3854 H3838 0.931 . S
C3854 C3848 1.383 . S
C3854 C3853 1.379 . S
H3855 C3849 0.959 . S
H3856 C3849 0.961 . S
H3857 C3849 0.960 . S
H3858 C3850 0.930 . S
H3859 C3851 0.929 . S
H3860 C3868 0.929 . S
H3861 C3870 0.930 . S
H3862 C3872 0.930 . S
H3863 C3875 0.929 . S
H3864 C3878 0.930 . S
H3865 C3880 0.960 . S
H3866 C3880 0.960 . S
H3867 C3880 0.960 . S
C3868 H3860 0.929 . S
C3868 C3869 1.377 . S
C3868 C3870 1.384 . S
C3869 C3868 1.377 . S
C3869 C3875 1.390 . S
C3870 H3861 0.930 . S
C3870 C3868 1.384 . S
C3870 C3871 1.372 . S
C3871 C3870 1.372 . S
C3871 C3872 1.400 . S
C3871 C3876 1.490 . S
C3872 H3862 0.930 . S
C3872 C3871 1.400 . S
C3872 C3875 1.386 . S
H3873 C3889 0.930 . S
H3874 C3890 0.964 . S
C3875 H3863 0.929 . S
C3875 C3869 1.390 . S
C3875 C3872 1.386 . S
C3876 C3871 1.490 . S
C3876 C3878 1.395 . S
C3876 C3879 1.403 . S
H3877 C3883 0.930 . S
C3878 H3864 0.930 . S
C3878 C3876 1.395 . S
C3878 C3881 1.403 . S
C3879 C3876 1.403 . S
C3879 C3880 1.524 . S
C3879 C3883 1.400 . S
C3880 H3865 0.960 . S
C3880 H3866 0.960 . S
C3880 H3867 0.960 . S
C3880 C3879 1.524 . S
C3881 C3878 1.403 . S
C3881 C3882 1.392 . S
C3881 C3885 1.495 . S
C3882 C3881 1.392 . S
C3882 C3883 1.385 . S
C3882 C3884 1.478 . S
C3883 H3877 0.930 . S
C3883 C3879 1.400 . S
C3883 C3882 1.385 . S
C3884 C3882 1.478 . S
C3884 C3886 1.381 . S
C3884 C3890 1.383 . S
C3885 C3881 1.495 . S
C3885 H3891 0.959 . S
C3885 H3892 0.961 . S
C3885 H3893 0.960 . S
C3886 C3884 1.381 . S
C3886 C3887 1.394 . S
C3886 H3894 0.930 . S
C3887 C3886 1.394 . S
C3887 C3888 1.383 . S
C3887 H3895 0.929 . S
C3888 C3887 1.383 . S
C3888 C3889 1.377 1_565 S
C3889 H3873 0.930 . S
C3889 C3888 1.377 1_545 S
C3889 C3890 1.379 1_545 S
C3890 H3874 0.964 . S
C3890 C3884 1.383 . S
C3890 C3889 1.379 1_565 S
H3891 C3885 0.959 . S
H3892 C3885 0.961 . S
H3893 C3885 0.960 . S
H3894 C3886 0.930 . S
H3895 C3887 0.929 . S
H3896 C3904 0.929 . S
H3897 C3906 0.930 . S
H3898 C3908 0.930 . S
H3899 C3911 0.929 . S
H3900 C3914 0.930 . S
H3901 C3916 0.960 . S
H3902 C3916 0.960 . S
H3903 C3916 0.960 . S
C3904 H3896 0.929 . S
C3904 C3905 1.377 . S
C3904 C3906 1.384 . S
C3905 C3904 1.377 . S
C3905 C3911 1.390 . S
C3906 H3897 0.930 . S
C3906 C3904 1.384 . S
C3906 C3907 1.372 . S
C3907 C3906 1.372 . S
C3907 C3908 1.400 . S
C3907 C3912 1.490 . S
C3908 H3898 0.930 . S
C3908 C3907 1.400 . S
C3908 C3911 1.386 . S
H3909 C3925 0.930 . S
H3910 C3926 0.931 . S
C3911 H3899 0.929 . S
C3911 C3905 1.390 . S
C3911 C3908 1.386 . S
C3912 C3907 1.490 . S
C3912 C3914 1.395 . S
C3912 C3915 1.403 . S
H3913 C3919 0.930 . S
C3914 H3900 0.930 . S
C3914 C3912 1.395 . S
C3914 C3917 1.403 . S
C3915 C3912 1.403 . S
C3915 C3916 1.524 . S
C3915 C3919 1.400 . S
C3916 H3901 0.960 . S
C3916 H3902 0.960 . S
C3916 H3903 0.960 . S
C3916 C3915 1.524 . S
C3917 C3914 1.403 . S
C3917 C3918 1.392 . S
C3917 C3921 1.495 . S
C3918 C3917 1.392 . S
C3918 C3919 1.385 . S
C3918 C3920 1.478 . S
C3919 H3913 0.930 . S
C3919 C3915 1.400 . S
C3919 C3918 1.385 . S
C3920 C3918 1.478 . S
C3920 C3922 1.381 . S
C3920 C3926 1.383 . S
C3921 C3917 1.495 . S
C3921 H3927 0.959 . S
C3921 H3928 0.961 . S
C3921 H3929 0.960 . S
C3922 C3920 1.381 . S
C3922 C3923 1.394 . S
C3922 H3930 0.930 . S
C3923 C3922 1.394 . S
C3923 C3924 1.383 . S
C3923 H3931 0.929 . S
C3924 C3923 1.383 . S
C3924 C3925 1.377 . S
C3925 H3909 0.930 . S
C3925 C3924 1.377 . S
C3925 C3926 1.379 . S
C3926 H3910 0.931 . S
C3926 C3920 1.383 . S
C3926 C3925 1.379 . S
H3927 C3921 0.959 . S
H3928 C3921 0.961 . S
H3929 C3921 0.960 . S
H3930 C3922 0.930 . S
H3931 C3923 0.929 . S
H3932 C3940 0.929 . S
H3933 C3942 0.930 . S
H3934 C3944 0.930 . S
H3935 C3947 0.929 . S
H3936 C3950 0.930 . S
H3937 C3952 0.960 . S
H3938 C3952 0.960 . S
H3939 C3952 0.960 . S
C3940 H3932 0.929 . S
C3940 C3941 1.377 . S
C3940 C3942 1.384 . S
C3941 C3940 1.377 . S
C3941 C3947 1.390 . S
C3942 H3933 0.930 . S
C3942 C3940 1.384 . S
C3942 C3943 1.372 . S
C3943 C3942 1.372 . S
C3943 C3944 1.400 . S
C3943 C3948 1.490 . S
C3944 H3934 0.930 . S
C3944 C3943 1.400 . S
C3944 C3947 1.386 . S
H3945 C3961 0.946 . S
H3946 C3962 0.912 1_556 S
C3947 H3935 0.929 . S
C3947 C3941 1.390 . S
C3947 C3944 1.386 . S
C3948 C3943 1.490 . S
C3948 C3950 1.395 . S
C3948 C3951 1.403 . S
H3949 C3955 0.930 . S
C3950 H3936 0.930 . S
C3950 C3948 1.395 . S
C3950 C3953 1.403 . S
C3951 C3948 1.403 . S
C3951 C3952 1.524 . S
C3951 C3955 1.400 . S
C3952 H3937 0.960 . S
C3952 H3938 0.960 . S
C3952 H3939 0.960 . S
C3952 C3951 1.524 . S
C3953 C3950 1.403 . S
C3953 C3954 1.392 . S
C3953 C3957 1.495 . S
C3954 C3953 1.392 . S
C3954 C3955 1.385 . S
C3954 C3956 1.478 . S
C3955 H3949 0.930 . S
C3955 C3951 1.400 . S
C3955 C3954 1.385 . S
C3956 C3954 1.478 . S
C3956 C3958 1.381 . S
C3956 C3962 1.383 . S
C3957 C3953 1.495 . S
C3957 H3963 0.954 1_554 S
C3957 H3964 0.961 1_554 S
C3957 H3965 0.960 . S
C3958 C3956 1.381 . S
C3958 C3959 1.394 . S
C3958 H3966 0.930 . S
C3959 C3958 1.394 . S
C3959 C3960 1.383 . S
C3959 H3967 0.929 . S
C3960 C3959 1.383 . S
C3960 C3961 1.377 . S
C3961 H3945 0.946 . S
C3961 C3960 1.377 . S
C3961 C3962 1.379 . S
C3962 H3946 0.912 1_554 S
C3962 C3956 1.383 . S
C3962 C3961 1.379 . S
H3963 C3957 0.954 1_556 S
H3964 C3957 0.961 1_556 S
H3965 C3957 0.960 . S
H3966 C3958 0.930 . S
H3967 C3959 0.929 . S
H3968 C3976 0.929 . S
H3969 C3978 0.930 . S
H3970 C3980 0.930 . S
H3971 C3983 0.929 . S
H3972 C3986 0.930 . S
H3973 C3988 0.960 . S
H3974 C3988 0.960 . S
H3975 C3988 0.960 . S
C3976 H3968 0.929 . S
C3976 C3977 1.377 . S
C3976 C3978 1.384 . S
C3977 C3976 1.377 . S
C3977 C3983 1.390 . S
C3978 H3969 0.930 . S
C3978 C3976 1.384 . S
C3978 C3979 1.372 . S
C3979 C3978 1.372 . S
C3979 C3980 1.400 . S
C3979 C3984 1.490 . S
C3980 H3970 0.930 . S
C3980 C3979 1.400 . S
C3980 C3983 1.386 . S
H3981 C3997 0.930 . S
H3982 C3998 0.931 . S
C3983 H3971 0.929 . S
C3983 C3977 1.390 . S
C3983 C3980 1.386 . S
C3984 C3979 1.490 . S
C3984 C3986 1.395 . S
C3984 C3987 1.403 . S
H3985 C3991 0.930 . S
C3986 H3972 0.930 . S
C3986 C3984 1.395 . S
C3986 C3989 1.403 . S
C3987 C3984 1.403 . S
C3987 C3988 1.524 . S
C3987 C3991 1.400 . S
C3988 H3973 0.960 . S
C3988 H3974 0.960 . S
C3988 H3975 0.960 . S
C3988 C3987 1.524 . S
C3989 C3986 1.403 . S
C3989 C3990 1.392 . S
C3989 C3993 1.495 . S
C3990 C3989 1.392 . S
C3990 C3991 1.385 . S
C3990 C3992 1.478 . S
C3991 H3985 0.930 . S
C3991 C3987 1.400 . S
C3991 C3990 1.385 . S
C3992 C3990 1.478 . S
C3992 C3994 1.381 . S
C3992 C3998 1.383 . S
C3993 C3989 1.495 . S
C3993 H3999 0.959 . S
C3993 H4000 0.961 . S
C3993 H4001 0.960 . S
C3994 C3992 1.381 . S
C3994 C3995 1.394 . S
C3994 H4002 0.930 . S
C3995 C3994 1.394 . S
C3995 C3996 1.383 . S
C3995 H4003 0.929 . S
C3996 C3995 1.383 . S
C3996 C3997 1.377 . S
C3997 H3981 0.930 . S
C3997 C3996 1.377 . S
C3997 C3998 1.379 . S
C3998 H3982 0.931 . S
C3998 C3992 1.383 . S
C3998 C3997 1.379 . S
H3999 C3993 0.959 . S
H4000 C3993 0.961 . S
H4001 C3993 0.960 . S
H4002 C3994 0.930 . S
H4003 C3995 0.929 . S
H4004 C4012 0.929 . S
H4005 C4014 0.930 . S
H4006 C4016 0.930 . S
H4007 C4019 0.929 . S
H4008 C4022 0.930 . S
H4009 C4024 0.960 . S
H4010 C4024 0.960 . S
H4011 C4024 0.960 . S
C4012 H4004 0.929 . S
C4012 C4013 1.377 . S
C4012 C4014 1.384 . S
C4013 C4012 1.377 . S
C4013 C4019 1.390 . S
C4014 H4005 0.930 . S
C4014 C4012 1.384 . S
C4014 C4015 1.372 . S
C4015 C4014 1.372 . S
C4015 C4016 1.400 . S
C4015 C4020 1.490 . S
C4016 H4006 0.930 . S
C4016 C4015 1.400 . S
C4016 C4019 1.386 . S
H4017 C4033 0.930 . S
H4018 C4034 0.931 . S
C4019 H4007 0.929 . S
C4019 C4013 1.390 . S
C4019 C4016 1.386 . S
C4020 C4015 1.490 . S
C4020 C4022 1.395 . S
C4020 C4023 1.403 . S
H4021 C4027 0.930 1_556 S
C4022 H4008 0.930 . S
C4022 C4020 1.395 . S
C4022 C4025 1.403 . S
C4023 C4020 1.403 . S
C4023 C4024 1.524 1_554 S
C4023 C4027 1.400 . S
C4024 H4009 0.960 . S
C4024 H4010 0.960 . S
C4024 H4011 0.960 . S
C4024 C4023 1.524 1_556 S
C4025 C4022 1.403 . S
C4025 C4026 1.392 . S
C4025 C4029 1.495 . S
C4026 C4025 1.392 . S
C4026 C4027 1.385 . S
C4026 C4028 1.478 . S
C4027 H4021 0.930 1_554 S
C4027 C4023 1.400 . S
C4027 C4026 1.385 . S
C4028 C4026 1.478 . S
C4028 C4030 1.381 . S
C4028 C4034 1.383 . S
C4029 C4025 1.495 . S
C4029 H4035 0.959 . S
C4029 H4036 0.961 . S
C4029 H4037 0.960 . S
C4030 C4028 1.381 . S
C4030 C4031 1.394 . S
C4030 H4038 0.930 . S
C4031 C4030 1.394 . S
C4031 C4032 1.383 . S
C4031 H4039 0.929 . S
C4032 C4031 1.383 . S
C4032 C4033 1.377 . S
C4033 H4017 0.930 . S
C4033 C4032 1.377 . S
C4033 C4034 1.379 . S
C4034 H4018 0.931 . S
C4034 C4028 1.383 . S
C4034 C4033 1.379 . S
H4035 C4029 0.959 . S
H4036 C4029 0.961 . S
H4037 C4029 0.960 . S
H4038 C4030 0.930 . S
H4039 C4031 0.929 . S
H4040 C4048 0.929 . S
H4041 C4050 0.930 . S
H4042 C4052 0.930 . S
H4043 C4055 0.929 . S
H4044 C4058 0.930 . S
H4045 C4060 0.960 . S
H4046 C4060 0.960 . S
H4047 C4060 0.960 . S
C4048 H4040 0.929 . S
C4048 C4049 1.377 . S
C4048 C4050 1.384 . S
C4049 C4048 1.377 . S
C4049 C4055 1.390 . S
C4050 H4041 0.930 . S
C4050 C4048 1.384 . S
C4050 C4051 1.372 . S
C4051 C4050 1.372 . S
C4051 C4052 1.400 . S
C4051 C4056 1.490 . S
C4052 H4042 0.930 . S
C4052 C4051 1.400 . S
C4052 C4055 1.386 . S
H4053 C4069 0.930 . S
H4054 C4070 0.931 . S
C4055 H4043 0.929 . S
C4055 C4049 1.390 . S
C4055 C4052 1.386 . S
C4056 C4051 1.490 . S
C4056 C4058 1.395 . S
C4056 C4059 1.403 . S
H4057 C4063 0.930 . S
C4058 H4044 0.930 . S
C4058 C4056 1.395 . S
C4058 C4061 1.403 . S
C4059 C4056 1.403 . S
C4059 C4060 1.524 . S
C4059 C4063 1.400 . S
C4060 H4045 0.960 . S
C4060 H4046 0.960 . S
C4060 H4047 0.960 . S
C4060 C4059 1.524 . S
C4061 C4058 1.403 . S
C4061 C4062 1.392 . S
C4061 C4065 1.495 . S
C4062 C4061 1.392 . S
C4062 C4063 1.385 . S
C4062 C4064 1.478 . S
C4063 H4057 0.930 . S
C4063 C4059 1.400 . S
C4063 C4062 1.385 . S
C4064 C4062 1.478 . S
C4064 C4066 1.381 . S
C4064 C4070 1.383 . S
C4065 C4061 1.495 . S
C4065 H4071 0.959 . S
C4065 H4072 0.961 . S
C4065 H4073 0.960 . S
C4066 C4064 1.381 . S
C4066 C4067 1.394 . S
C4066 H4074 0.930 . S
C4067 C4066 1.394 . S
C4067 C4068 1.383 . S
C4067 H4075 0.929 . S
C4068 C4067 1.383 . S
C4068 C4069 1.377 . S
C4069 H4053 0.930 . S
C4069 C4068 1.377 . S
C4069 C4070 1.379 . S
C4070 H4054 0.931 . S
C4070 C4064 1.383 . S
C4070 C4069 1.379 . S
H4071 C4065 0.959 . S
H4072 C4065 0.961 . S
H4073 C4065 0.960 . S
H4074 C4066 0.930 . S
H4075 C4067 0.929 . S
H4076 C4084 0.929 . S
H4077 C4086 0.930 . S
H4078 C4088 0.930 . S
H4079 C4091 0.929 . S
H4080 C4094 0.930 . S
H4081 C4096 0.960 . S
H4082 C4096 0.960 . S
H4083 C4096 0.960 . S
C4084 H4076 0.929 . S
C4084 C4085 1.377 . S
C4084 C4086 1.384 . S
C4085 C4084 1.377 . S
C4085 C4091 1.390 . S
C4086 H4077 0.930 . S
C4086 C4084 1.384 . S
C4086 C4087 1.372 . S
C4087 C4086 1.372 . S
C4087 C4088 1.400 . S
C4087 C4092 1.490 . S
C4088 H4078 0.930 . S
C4088 C4087 1.400 . S
C4088 C4091 1.386 . S
H4089 C4105 0.930 . S
H4090 C4106 0.931 . S
C4091 H4079 0.929 . S
C4091 C4085 1.390 . S
C4091 C4088 1.386 . S
C4092 C4087 1.490 . S
C4092 C4094 1.395 . S
C4092 C4095 1.403 . S
H4093 C4099 0.930 . S
C4094 H4080 0.930 . S
C4094 C4092 1.395 . S
C4094 C4097 1.403 . S
C4095 C4092 1.403 . S
C4095 C4096 1.524 . S
C4095 C4099 1.400 . S
C4096 H4081 0.960 . S
C4096 H4082 0.960 . S
C4096 H4083 0.960 . S
C4096 C4095 1.524 . S
C4097 C4094 1.403 . S
C4097 C4098 1.392 . S
C4097 C4101 1.495 . S
C4098 C4097 1.392 . S
C4098 C4099 1.385 . S
C4098 C4100 1.478 . S
C4099 H4093 0.930 . S
C4099 C4095 1.400 . S
C4099 C4098 1.385 . S
C4100 C4098 1.478 . S
C4100 C4102 1.381 . S
C4100 C4106 1.383 . S
C4101 C4097 1.495 . S
C4101 H4107 0.959 . S
C4101 H4108 0.961 . S
C4101 H4109 0.960 . S
C4102 C4100 1.381 . S
C4102 C4103 1.394 . S
C4102 H4110 0.930 . S
C4103 C4102 1.394 . S
C4103 C4104 1.383 . S
C4103 H4111 0.929 . S
C4104 C4103 1.383 . S
C4104 C4105 1.377 . S
C4105 H4089 0.930 . S
C4105 C4104 1.377 . S
C4105 C4106 1.379 . S
C4106 H4090 0.931 . S
C4106 C4100 1.383 . S
C4106 C4105 1.379 . S
H4107 C4101 0.959 . S
H4108 C4101 0.961 . S
H4109 C4101 0.960 . S
H4110 C4102 0.930 . S
H4111 C4103 0.929 . S
C665 C109 1.183 . S
C684 C340 1.122 . S
C701 C61 1.215 . S
C720 C375 1.330 . S
C737 C74 0.936 . S
C756 C380 0.839 . S
C792 C405 1.420 . S
C773 C96 1.464 . S
C809 C25 1.345 . S
C828 C425 1.318 . S
C864 C440 0.888 . S
C845 C40 0.904 . S
C900 C475 1.448 . S
C881 C46 1.453 . S
C917 C5 1.012 . S
C936 C480 1.060 . S
C972 C355 1.270 . S
C953 C229 1.089 . S
C989 C249 0.837 . S
C1008 C365 0.874 . S
C1044 C395 1.247 . S
C1025 C271 1.112 . S
C1080 C400 1.106 . S
C1061 C172 1.145 1_556 S
C1097 C236 1.053 . S
C1116 C420 0.949 . S
C1152 C455 1.543 . S
C1133 C242 1.591 . S
C1188 C465 0.754 . S
C1169 C278 0.825 . S
C1224 C495 1.398 . S
C1205 C179 1.455 . S
C1260 C345 1.246 . S
C1241 C159 1.082 . S
C1277 C285 1.465 1_554 S
C1296 C515 1.639 . S
C1332 C525 1.265 . S
C1313 C333 1.331 . S
C1368 C540 0.823 . S
C1349 C320 0.905 . S
C1385 C123 1.236 . S
C1404 C485 1.186 . S
C1421 C138 1.498 . S
C1440 C385 1.389 . S
C1457 C326 1.790 . S
C1476 C575 1.769 . S
C1512 C580 0.888 . S
C1493 C298 0.986 . S
C1548 C338 1.054 . S
C1529 C67 1.163 . S
C1584 C594 1.299 . S
C1565 C110 1.319 . S
C1601 C88 0.950 . S
C1620 C378 0.884 . S
C1637 C75 1.174 . S
C1656 C568 1.275 . S
C1692 C428 1.187 1_655 S
C1673 C11 1.284 . S
C1709 C47 0.845 . S
C1728 C518 0.796 . S
C1764 C474 1.354 . S
C1745 C32 1.319 . S
C1800 C598 1.167 . S
C1781 C26 1.274 . S
C1836 C354 1.355 1_565 S
C1817 C152 1.433 . S
C1872 C588 0.862 . S
C1853 C319 0.848 . S
C1889 C124 1.258 . S
C1908 C394 1.202 . S
C1925 C284 1.189 . S
C1944 C558 1.112 . S
C1961 C145 0.904 1_545 S
C1980 C418 0.999 . S
C2016 C534 1.427 . S
C1997 C312 1.442 . S
C2033 C117 0.711 . S
C2052 C468 0.626 1_565 S
C2069 C291 1.365 . S
C2088 C614 1.344 . S
C2105 C194 1.347 . S
C2124 C348 1.257 . S
C2141 C180 1.611 . S
C2160 C514 1.555 . S
C2177 C263 1.205 . S
C2196 C448 1.129 . S
C2213 C243 0.773 . S
C2232 C538 0.843 . S
C2268 C608 1.149 . S
C2249 C277 1.237 . S
C2285 C215 1.260 . S
C2304 C388 1.376 . S
C2340 C414 1.673 . S
C2321 C256 1.630 . S
C2376 C358 1.022 . S
C2357 C200 1.056 . S
C2393 C81 1.179 . S
C2412 C620 1.036 . S
C2448 C595 1.330 . S
C2429 C89 1.200 . S
C2465 C102 0.939 1_455 S
C2484 C640 0.839 . S
C2501 C68 1.465 . S
C2520 C565 1.410 . S
C2537 C53 1.341 . S
C2556 C505 1.267 . S
C2592 C520 0.831 . S
C2573 C12 0.907 . S
C2628 C555 1.448 . S
C2609 C18 1.453 1_455 S
C2664 C600 1.160 . S
C2645 C33 1.019 . S
C2700 C635 1.293 . S
C2681 C257 1.104 . S
C2717 C193 0.834 . S
C2736 C585 0.769 . S
C2772 C655 1.229 . S
C2753 C201 1.112 . S
C2808 C560 1.056 . S
C2789 C214 1.156 . S
C2844 C500 0.963 . S
C2825 C264 1.050 . S
C2861 C186 1.588 . S
C2880 C535 1.570 . S
C2916 C545 0.858 . S
C2897 C208 0.822 . S
C2933 C221 1.453 . S
C2952 C615 1.425 . S
C2988 C625 1.247 . S
C2969 C313 1.061 . S
C3005 C131 1.475 . S
C3024 C435 1.633 . S
C3060 C445 1.234 . S
C3041 C151 1.329 . S
C3096 C460 0.911 . S
C3077 C166 0.901 . S
C3132 C605 1.181 . S
C3113 C305 1.236 . S
C3149 C292 1.496 . S
C3168 C645 1.435 . S
C3204 C415 1.741 . S
C3185 C144 1.786 . S
C3240 C360 0.968 . S
C3221 C116 0.995 . S
C3257 C95 1.167 . S
C3276 C618 1.026 . S
C3312 C374 1.292 . S
C3293 C82 1.316 . S
C3329 C60 0.946 . S
C3348 C638 0.955 . S
C3365 C103 1.161 . S
C3384 C408 1.334 . S
C3401 C39 1.286 . S
C3420 C508 1.225 . S
C3456 C438 0.872 . S
C3437 C19 0.829 . S
C3473 C4 1.315 . S
C3492 C554 1.354 . S
C3509 C54 1.273 . S
C3528 C478 1.180 . S
C3564 C634 1.369 . S
C3545 C334 1.432 . S
C3581 C165 0.838 . S
C3600 C368 0.789 . S
C3636 C654 1.236 1_655 S
C3617 C306 1.260 . S
C3653 C130 1.193 . S
C3672 C398 1.094 . S
C3689 C327 0.917 . S
C3708 C498 0.949 . S
C3744 C454 1.471 . S
C3725 C158 1.435 . S
C3761 C299 0.686 . S
C3780 C548 0.728 . S
C3816 C494 1.345 . S
C3797 C137 1.364 . S
C3852 C628 1.227 . S
C3833 C250 1.346 . S
C3888 C434 1.555 1_565 S
C3869 C222 1.611 . S
C3905 C235 1.205 . S
C3924 C528 1.133 . S
C3960 C458 0.736 . S
C3941 C187 0.800 . S
C3977 C207 1.228 . S
C3996 C488 1.115 . S
C4013 C173 1.268 . S
C4032 C648 1.336 . S
C4068 C574 1.675 . S
C4049 C228 1.630 . S
C4104 C578 1.039 . S
C4085 C270 1.048 . S
