# Generated by pormake.
# Topology pth, (4,4)-cn, num edge types: 1
# Building blocks:
#     Node 0, Type 0, BuildingBlock: AZAVOO_clean_sbu_0, # of connection points: 4
#     Node 1, Type 0, BuildingBlock: AZAVOO_clean_sbu_0, # of connection points: 4
#     Node 2, Type 0, BuildingBlock: AZAVOO_clean_sbu_0, # of connection points: 4
#     Node 3, Type 1, BuildingBlock: MUDLON_clean_sbu_0, # of connection points: 4
#     Node 4, Type 1, BuildingBlock: MUDLON_clean_sbu_0, # of connection points: 4
#     Node 5, Type 1, BuildingBlock: MUDLON_clean_sbu_0, # of connection points: 4
#     Edge 6, Type (0, 1), BuildingBlock: KIFKEQ_clean_linker_1, # of connection points: 2
#     Edge 7, Type (0, 1), BuildingBlock: KIFKEQ_clean_linker_1, # of connection points: 2
#     Edge 8, Type (0, 1), BuildingBlock: KIFKEQ_clean_linker_1, # of connection points: 2
#     Edge 9, Type (0, 1), BuildingBlock: KIFKEQ_clean_linker_1, # of connection points: 2
#     Edge 10, Type (0, 1), BuildingBlock: KIFKEQ_clean_linker_1, # of connection points: 2
#     Edge 11, Type (0, 1), BuildingBlock: KIFKEQ_clean_linker_1, # of connection points: 2
#     Edge 12, Type (0, 1), BuildingBlock: KIFKEQ_clean_linker_1, # of connection points: 2
#     Edge 13, Type (0, 1), BuildingBlock: KIFKEQ_clean_linker_1, # of connection points: 2
#     Edge 14, Type (0, 1), BuildingBlock: KIFKEQ_clean_linker_1, # of connection points: 2
#     Edge 15, Type (0, 1), BuildingBlock: KIFKEQ_clean_linker_1, # of connection points: 2
#     Edge 16, Type (0, 1), BuildingBlock: KIFKEQ_clean_linker_1, # of connection points: 2
#     Edge 17, Type (0, 1), BuildingBlock: KIFKEQ_clean_linker_1, # of connection points: 2
# Relax obj value: 0.104
# Max RMSD: 0.230
# Mean RMSD: 0.137
data_MOF--net-pth--node1-AZAVOO_clean_sbu_0--node2-MUDLON_clean_sbu_0--edge1-KIFKEQ_clean_linker_1
_symmetry_space_group_name_H-M    P1
_symmetry_Int_Tables_number       1
_symmetry_cell_setting            triclinic
loop_
_symmetry_equiv_pos_as_xyz
'x, y, z'
_cell_length_a     22.865181
_cell_length_b     23.261103
_cell_length_c     60.64217
_cell_angle_alpha  91.097204
_cell_angle_beta   93.210388
_cell_angle_gamma 122.19185
loop_
_atom_site_label
_atom_site_type_symbol
_atom_site_fract_x
_atom_site_fract_y
_atom_site_fract_z
_atom_type_partial_charge
Mg0 Mg 0.15447 0.12269 0.08671 0.0
O1 O 0.05907 0.05349 0.06195 0.0
O2 O 0.04774 0.1237 0.03999 0.0
Mg3 Mg 0.13389 0.23388 0.04938 0.0
C4 C 0.0274 0.06387 0.04594 0.0
C5 C 0.17882 0.02707 0.11369 0.0
O6 O 0.23784 0.06724 0.10502 0.0
O7 O 0.09119 0.15505 0.10542 0.0
O8 O 0.08625 0.22677 0.0825 0.0
O9 O 0.2274 0.12099 0.06392 0.0
O10 O 0.19776 0.19692 0.06346 0.0
C11 C 0.07311 0.19707 0.10073 0.0
C12 C 0.23208 0.1734 0.05516 0.0
O13 O 0.12871 0.03531 0.10929 0.0
Mg14 Mg 0.96381 0.0293 0.41307 0.0
O15 O 0.06401 0.06091 0.43486 0.0
O16 O 0.0859 0.14913 0.4571 0.0
Mg17 Mg 0.99988 0.17057 0.45113 0.0
C18 C 0.1016 0.10725 0.4501 0.0
C19 C 0.93881 0.94121 0.37132 0.0
O20 O 0.89217 0.95769 0.36882 0.0
O21 O 0.02203 0.12373 0.39318 0.0
O22 O 0.0353 0.20633 0.41641 0.0
O23 O 0.89687 0.95603 0.43746 0.0
O24 O 0.93024 0.06427 0.43831 0.0
C25 C 0.04175 0.18575 0.39753 0.0
C26 C 0.89711 1.00631 0.44709 0.0
O27 O 0.98108 0.9648 0.3885 0.0
Mg28 Mg 0.02992 0.04144 0.74218 0.0
O29 O 0.0853 0.13365 0.76777 0.0
O30 O 1.00098 0.13223 0.78522 0.0
Mg31 Mg 0.89517 0.04304 0.77117 0.0
C32 C 0.06513 0.15855 0.78235 0.0
C33 C 0.13245 0.02357 0.71992 0.0
O34 O 0.08532 0.96416 0.72673 0.0
O35 O 0.99683 0.09872 0.71952 0.0
O36 O 0.91122 0.09243 0.73757 0.0
O37 O 0.03276 0.97502 0.76781 0.0
O38 O 0.94539 0.98936 0.76131 0.0
C39 C 0.94835 0.11024 0.72102 0.0
C40 C 0.97287 0.96237 0.77275 0.0
O41 O 0.12757 0.07459 0.72427 0.0
Mg42 Mg 0.03956 0.56208 0.24674 0.0
C43 C 0.03957 0.48459 0.28374 0.0
O44 O 0.97628 0.47205 0.28111 0.0
C45 C 0.12115 0.65725 0.21155 0.0
O46 O 0.1024 0.59929 0.20109 0.0
C47 C 0.97248 0.42234 0.22154 0.0
O48 O 0.97179 0.40102 0.24145 0.0
O49 O 0.99122 0.48412 0.21941 0.0
O50 O 0.08479 0.52675 0.27145 0.0
O51 O 0.97466 0.58627 0.26467 0.0
C52 C 0.96694 0.63401 0.25856 0.0
O53 O 0.98744 0.65917 0.23927 0.0
O54 O 0.10919 0.65737 0.23178 0.0
Mg55 Mg 0.57401 0.11497 0.58001 0.0
C56 C 0.46173 0.0928 0.54832 0.0
O57 O 0.43657 0.03623 0.5587 0.0
C58 C 0.72807 0.19317 0.59058 0.0
O59 O 0.72424 0.16069 0.57207 0.0
C60 C 0.45698 0.03216 0.61199 0.0
O61 O 0.43965 0.97708 0.5999 0.0
O62 O 0.50823 0.08932 0.60731 0.0
O63 O 0.52416 0.14087 0.55358 0.0
O64 O 0.59364 0.03831 0.56773 0.0
C65 C 0.57936 0.01621 0.54757 0.0
O66 O 0.54083 0.03018 0.53478 0.0
O67 O 0.67488 0.1935 0.59554 0.0
Mg68 Mg 0.57603 0.57302 0.91208 0.0
C69 C 0.42435 0.50296 0.89659 0.0
O70 O 0.41806 0.47871 0.9163 0.0
C71 C 0.6245 0.66494 0.95534 0.0
O72 O 0.58018 0.6087 0.9645 0.0
C73 C 0.56589 0.47146 0.94726 0.0
O74 O 0.62834 0.51941 0.95532 0.0
O75 O 0.53974 0.48068 0.92968 0.0
O76 O 0.48389 0.55048 0.89167 0.0
O77 O 0.64765 0.5956 0.88691 0.0
C78 C 0.71253 0.63822 0.89023 0.0
O79 O 0.74046 0.65889 0.91059 0.0
O80 O 0.62768 0.66415 0.93446 0.0
H81 H 1.0035 0.26184 0.09407 0.0
H82 H 0.06939 0.17686 0.14516 0.0
H83 H 0.96246 0.30611 0.12186 0.0
H84 H 0.03068 0.22323 0.17307 0.0
H85 H 0.92987 0.28777 0.21988 0.0
H86 H 0.9389 0.22299 0.18966 0.0
H87 H 0.014 0.39642 0.14928 0.0
H88 H 1.00259 0.46002 0.17914 0.0
C89 C 1.00888 0.25223 0.11124 0.0
C90 C 0.04041 0.21634 0.11739 0.0
C91 C 0.98565 0.278 0.12722 0.0
C92 C 0.99397 0.2692 0.14981 0.0
C93 C 0.0226 0.23052 0.15585 0.0
C94 C 0.04521 0.20411 0.13982 0.0
C95 C 0.94694 0.31156 0.20438 0.0
C96 C 0.96608 0.37934 0.20202 0.0
C97 C 0.95272 0.27457 0.1871 0.0
C98 C 0.9782 0.30459 0.16707 0.0
C99 C 0.99355 0.37113 0.16433 0.0
C100 C 0.98725 0.4079 0.18154 0.0
H101 H 0.78385 0.88835 0.45852 0.0
H102 H 0.91669 0.10173 0.4787 0.0
H103 H 0.70461 0.87519 0.48637 0.0
H104 H 0.83837 0.08813 0.50676 0.0
H105 H 0.70235 0.03336 0.56372 0.0
H106 H 0.78295 0.02055 0.5425 0.0
H107 H 0.63006 0.93215 0.48679 0.0
H108 H 0.55007 0.94671 0.50768 0.0
C109 C 0.79707 0.93202 0.46927 0.0
C110 C 0.85619 0.99627 0.46631 0.0
C111 C 0.75162 0.92444 0.48513 0.0
C112 C 0.76546 0.98061 0.49867 0.0
C113 C 0.82681 0.04386 0.49665 0.0
C114 C 0.8714 0.05176 0.48048 0.0
C115 C 0.68518 0.00963 0.54715 0.0
C116 C 0.62016 0.99198 0.53723 0.0
C117 C 0.73149 1.00255 0.53501 0.0
C118 C 0.71284 0.97596 0.51299 0.0
C119 C 0.6456 0.95259 0.50378 0.0
C120 C 0.59989 0.96104 0.51573 0.0
H121 H 0.83703 0.86379 0.77063 0.0
H122 H 0.02552 0.95408 0.81323 0.0
H123 H 0.77588 0.77921 0.7972 0.0
H124 H 0.96335 0.87413 0.84126 0.0
H125 H 0.84969 0.69436 0.88334 0.0
H126 H 0.91318 0.76927 0.85426 0.0
H127 H 0.72486 0.75511 0.82862 0.0
H128 H 0.66174 0.67583 0.85607 0.0
C129 C 0.86481 0.86638 0.78607 0.0
C130 C 0.93561 0.91551 0.79003 0.0
C131 C 0.82969 0.81806 0.80152 0.0
C132 C 0.86381 0.81933 0.82182 0.0
C133 C 0.93497 0.8698 0.82579 0.0
C134 C 0.9707 0.91649 0.80988 0.0
C135 C 0.82211 0.70636 0.87106 0.0
C136 C 0.75074 0.67847 0.87171 0.0
C137 C 0.85856 0.75024 0.85453 0.0
C138 C 0.82485 0.76927 0.8388 0.0
C139 C 0.75312 0.74083 0.83972 0.0
C140 C 0.71652 0.69526 0.85566 0.0
H141 H 0.0767 0.95228 0.14154 0.0
H142 H 0.2671 0.98273 0.11937 0.0
H143 H 0.06919 0.86698 0.16633 0.0
H144 H 0.25931 0.89771 0.14397 0.0
H145 H 0.16446 0.67974 0.16977 0.0
H146 H 0.18031 0.77094 0.14659 0.0
H147 H 0.1361 0.86179 0.20068 0.0
H148 H 0.12067 0.77086 0.224 0.0
C149 C 0.11677 0.94072 0.14191 0.0
C150 C 0.17241 0.97424 0.12846 0.0
C151 C 0.11278 0.89231 0.15621 0.0
C152 C 0.1638 0.87584 0.15711 0.0
C153 C 0.21905 0.90904 0.14355 0.0
C154 C 0.22352 0.95791 0.1295 0.0
C155 C 0.15925 0.71975 0.17685 0.0
C156 C 0.1413 0.71795 0.19873 0.0
C157 C 0.1683 0.77197 0.16356 0.0
C158 C 0.15873 0.8231 0.17176 0.0
C159 C 0.14289 0.82255 0.19384 0.0
C160 C 0.13481 0.77083 0.20725 0.0
H161 H 0.14528 0.01881 0.44428 0.0
H162 H 0.19835 0.20399 0.48077 0.0
H163 H 0.24034 0.01954 0.46503 0.0
H164 H 0.29226 0.20392 0.50165 0.0
H165 H 0.48485 0.2069 0.52762 0.0
H166 H 0.40531 0.21448 0.50071 0.0
H167 H 0.258 0.99859 0.50335 0.0
H168 H 0.33686 0.99092 0.52974 0.0
C169 C 0.1775 0.06001 0.45654 0.0
C170 C 0.16347 0.11086 0.46099 0.0
C171 C 0.23184 0.06028 0.46851 0.0
C172 C 0.2736 0.11152 0.48514 0.0
C173 C 0.26158 0.16404 0.48885 0.0
C174 C 0.20719 0.16367 0.47696 0.0
C175 C 0.43578 0.16109 0.52223 0.0
C176 C 0.41705 0.09846 0.53094 0.0
C177 C 0.39012 0.16542 0.5069 0.0
C178 C 0.32527 0.10708 0.49985 0.0
C179 C 0.3078 0.04433 0.50813 0.0
C180 C 0.35295 0.04011 0.52347 0.0
H181 H 0.20749 0.22869 0.78313 0.0
H182 H 0.04089 0.22296 0.81551 0.0
H183 H 0.29173 0.31987 0.80966 0.0
H184 H 0.12498 0.31426 0.84172 0.0
H185 H 0.29088 0.40063 0.90144 0.0
H186 H 0.20377 0.32399 0.87254 0.0
H187 H 0.34169 0.43982 0.82274 0.0
H188 H 0.42947 0.51646 0.85173 0.0
C189 C 0.18877 0.24727 0.7957 0.0
C190 C 0.11722 0.21784 0.79722 0.0
C191 C 0.23712 0.29989 0.81085 0.0
C192 C 0.21509 0.32416 0.82791 0.0
C193 C 0.14371 0.29616 0.82899 0.0
C194 C 0.09548 0.24385 0.81385 0.0
C195 C 0.30227 0.41065 0.88433 0.0
C196 C 0.36735 0.46462 0.87896 0.0
C197 C 0.25218 0.36669 0.86772 0.0
C198 C 0.26594 0.37537 0.8453 0.0
C199 C 0.32984 0.43116 0.83986 0.0
C200 C 0.37987 0.4755 0.85649 0.0
H201 H 0.84207 0.13186 0.71717 0.0
H202 H 0.01501 0.15876 0.68291 0.0
H203 H 0.80499 0.17006 0.68567 0.0
H204 H 0.97909 0.19984 0.65141 0.0
H205 H 0.82434 0.15766 0.59052 0.0
H206 H 0.89012 0.15302 0.62245 0.0
H207 H 0.82204 0.25782 0.6631 0.0
H208 H 0.75339 0.25959 0.63119 0.0
C209 C 0.87312 0.14718 0.70306 0.0
C210 C 0.93121 0.14137 0.70256 0.0
C211 C 0.85211 0.16991 0.68496 0.0
C212 C 0.88884 0.18818 0.66583 0.0
C213 C 0.94883 0.18528 0.66569 0.0
C214 C 0.96967 0.16199 0.68381 0.0
C215 C 0.82463 0.18127 0.60613 0.0
C216 C 0.7824 0.20784 0.60835 0.0
C217 C 0.86276 0.17879 0.62454 0.0
C218 C 0.86034 0.2036 0.64559 0.0
C219 C 0.82351 0.23626 0.64731 0.0
C220 C 0.78466 0.23798 0.62895 0.0
H221 H 0.94735 0.06793 0.01155 0.0
H222 H 0.96555 0.92695 0.05232 0.0
H223 H 0.84667 0.9735 0.99081 0.0
H224 H 0.86483 0.83189 0.03112 0.0
H225 H 0.64439 0.67985 1.00065 0.0
H226 H 0.73899 0.77617 0.02328 0.0
H227 H 0.82112 0.88303 0.96422 0.0
H228 H 0.72633 0.78765 0.94168 0.0
C229 C 0.93008 0.01678 0.01611 0.0
C230 C 0.9651 1.00529 0.03362 0.0
C231 C 0.8723 0.96247 0.00409 0.0
C232 C 0.84772 0.89498 0.00918 0.0
C233 C 0.88195 0.88328 0.02689 0.0
C234 C 0.94002 0.9378 0.03896 0.0
C235 C 0.68213 0.72426 0.99251 0.0
C236 C 0.67758 0.72593 0.96932 0.0
C237 C 0.73677 0.77922 0.00549 0.0
C238 C 0.78794 0.83728 0.99559 0.0
C239 C 0.78229 0.83953 0.97245 0.0
C240 C 0.72789 0.78463 0.95949 0.0
H241 H 0.86095 0.89021 0.33193 0.0
H242 H 0.01786 0.88456 0.37323 0.0
H243 H 0.85953 0.81051 0.30492 0.0
H244 H 0.01683 0.8051 0.346 0.0
H245 H 0.95089 0.61471 0.30282 0.0
H246 H 0.94046 0.68647 0.33019 0.0
H247 H 0.93616 0.80923 0.27837 0.0
H248 H 0.94599 0.73737 0.25099 0.0
C249 C 0.89532 0.87212 0.33524 0.0
C250 C 0.93965 0.89393 0.35475 0.0
C251 C 0.89459 0.82653 0.3197 0.0
C252 C 0.93789 0.80127 0.32332 0.0
C253 C 0.98213 0.82289 0.34286 0.0
C254 C 0.98317 0.86888 0.35838 0.0
C255 C 0.9465 0.65627 0.2972 0.0
C256 C 0.94951 0.67038 0.27469 0.0
C257 C 0.94126 0.69782 0.31293 0.0
C258 C 0.93829 0.75403 0.3065 0.0
C259 C 0.93801 0.76617 0.28388 0.0
C260 C 0.94373 0.72495 0.26817 0.0
H261 H 0.22313 0.13004 0.6959 0.0
H262 H 0.16304 0.92701 0.71277 0.0
H263 H 0.30408 0.13178 0.67083 0.0
H264 H 0.24474 0.92937 0.68829 0.0
H265 H 0.33114 0.92462 0.62226 0.0
H266 H 0.25627 0.92462 0.64935 0.0
H267 H 0.41064 0.13457 0.66906 0.0
H268 H 0.48463 0.13507 0.64164 0.0
C269 C 0.22789 0.08623 0.6945 0.0
C270 C 0.18633 0.02829 0.70622 0.0
C271 C 0.27442 0.08723 0.68019 0.0
C272 C 0.28056 0.03042 0.67739 0.0
C273 C 0.24039 0.97342 0.68966 0.0
C274 C 0.19381 0.97231 0.70384 0.0
C275 C 0.34934 0.97057 0.6325 0.0
C276 C 0.41376 0.02983 0.62971 0.0
C277 C 0.30651 0.97058 0.64811 0.0
C278 C 0.32727 0.02976 0.66136 0.0
C279 C 0.39245 0.0885 0.65889 0.0
C280 C 0.43511 0.08856 0.64326 0.0
H281 H 0.34133 0.16482 0.04417 0.0
H282 H 0.22732 0.25866 0.02564 0.0
H283 H 0.42387 0.22834 0.01666 0.0
H284 H 0.30885 0.32088 0.998 0.0
H285 H 0.4296 0.37305 0.93716 0.0
H286 H 0.34768 0.29325 0.96189 0.0
H287 H 0.51364 0.35963 0.0129 0.0
H288 H 0.59631 0.44095 0.98825 0.0
C289 C 0.33324 0.19815 0.03401 0.0
C290 C 0.27774 0.20674 0.03708 0.0
C291 C 0.38072 0.23472 0.01839 0.0
C292 C 0.37263 0.27937 0.00522 0.0
C293 C 0.31596 0.28633 0.00783 0.0
C294 C 0.26939 0.25088 0.02372 0.0
C295 C 0.44918 0.37018 0.95351 0.0
C296 C 0.51961 0.41423 0.9608 0.0
C297 C 0.40201 0.32451 0.96768 0.0
C298 C 0.42421 0.32093 0.98935 0.0
C299 C 0.49523 0.36139 0.99622 0.0
C300 C 0.54251 0.40792 0.98211 0.0
H301 H 0.02464 0.15493 0.35294 0.0
H302 H 0.10841 0.32476 0.40114 0.0
H303 H 0.03835 0.23025 0.32347 0.0
H304 H 0.12255 0.39992 0.37151 0.0
H305 H 0.16219 0.51865 0.30685 0.0
H306 H 0.17964 0.44869 0.33322 0.0
H307 H 0.96546 0.28661 0.31967 0.0
H308 H 0.94773 0.35609 0.29409 0.0
C309 C 0.04782 0.20859 0.35722 0.0
C310 C 0.06437 0.23356 0.37946 0.0
C311 C 0.0555 0.25163 0.34033 0.0
C312 C 0.0809 0.32067 0.34528 0.0
C313 C 0.10312 0.34696 0.36725 0.0
C314 C 0.09456 0.30374 0.38421 0.0
C315 C 0.11926 0.46787 0.30947 0.0
C316 C 0.05351 0.44296 0.29862 0.0
C317 C 0.12919 0.42802 0.32449 0.0
C318 C 0.074 0.36211 0.32829 0.0
C319 C 1.00912 0.33682 0.31684 0.0
C320 C 0.99886 0.37693 0.30236 0.0
loop_
_geom_bond_atom_site_label_1
_geom_bond_atom_site_label_2
_geom_bond_distance
_geom_bond_site_symmetry_2
_ccdc_geom_bond_type
Mg0 O1 2.028 . S
Mg0 O7 1.986 . S
Mg0 O9 2.114 . S
Mg0 O10 2.251 . S
Mg0 O13 2.010 . S
O1 Mg0 2.028 . S
O1 C4 1.250 1_455 S
O2 Mg3 2.028 . S
O2 C4 1.248 1_455 S
Mg3 O2 2.028 . S
Mg3 O8 2.032 . S
Mg3 O10 2.079 . S
C4 O1 1.250 1_655 S
C4 O2 1.248 1_655 S
C5 O6 1.267 1_565 S
C5 O13 1.234 1_565 S
O6 C5 1.267 1_545 S
O7 Mg0 1.986 . S
O7 C11 1.246 . S
O8 Mg3 2.032 . S
O8 C11 1.259 . S
O9 Mg0 2.114 . S
O9 C12 1.252 . S
O10 Mg0 2.251 . S
O10 Mg3 2.079 . S
O10 C12 1.273 . S
C11 O7 1.246 . S
C11 O8 1.259 . S
C12 O9 1.252 . S
C12 O10 1.273 . S
O13 Mg0 2.010 . S
O13 C5 1.234 1_545 S
Mg14 O15 2.028 1_655 S
Mg14 O21 1.986 1_655 S
Mg14 O23 2.114 1_545 S
Mg14 O24 2.251 . S
Mg14 O27 2.010 1_545 S
O15 Mg14 2.028 1_455 S
O15 C18 1.250 . S
O16 Mg17 2.028 . S
O16 C18 1.248 . S
Mg17 O16 2.028 . S
Mg17 O22 2.032 . S
Mg17 O24 2.079 1_455 S
C18 O15 1.250 . S
C18 O16 1.248 . S
C19 O20 1.264 . S
C19 O27 1.249 . S
O20 C19 1.264 . S
O21 Mg14 1.986 1_455 S
O21 C25 1.246 . S
O22 Mg17 2.032 . S
O22 C25 1.259 . S
O23 Mg14 2.114 1_565 S
O23 C26 1.252 1_565 S
O24 Mg14 2.251 . S
O24 Mg17 2.079 1_655 S
O24 C26 1.273 . S
C25 O21 1.246 . S
C25 O22 1.259 . S
C26 O23 1.252 1_545 S
C26 O24 1.273 . S
O27 Mg14 2.010 1_565 S
O27 C19 1.249 . S
Mg28 O29 2.028 . S
Mg28 O35 1.986 1_455 S
Mg28 O37 2.114 1_545 S
Mg28 O38 2.251 1_445 S
Mg28 O41 2.010 . S
O29 Mg28 2.028 . S
O29 C32 1.250 . S
O30 Mg31 2.028 1_455 S
O30 C32 1.248 . S
Mg31 O30 2.028 1_655 S
Mg31 O36 2.032 . S
Mg31 O38 2.079 1_545 S
C32 O29 1.250 . S
C32 O30 1.248 . S
C33 O34 1.264 1_545 S
C33 O41 1.249 . S
O34 C33 1.264 1_565 S
O35 Mg28 1.986 1_655 S
O35 C39 1.246 . S
O36 Mg31 2.032 . S
O36 C39 1.259 . S
O37 Mg28 2.114 1_565 S
O37 C40 1.252 1_455 S
O38 Mg28 2.251 1_665 S
O38 Mg31 2.079 1_565 S
O38 C40 1.273 . S
C39 O35 1.246 . S
C39 O36 1.259 . S
C40 O37 1.252 1_655 S
C40 O38 1.273 . S
O41 Mg28 2.010 . S
O41 C33 1.249 . S
Mg42 O49 2.141 . S
Mg42 O50 2.048 . S
Mg42 O51 2.048 . S
Mg42 O54 2.141 . S
C43 O44 1.313 1_455 S
C43 O50 1.195 . S
O44 C43 1.313 1_655 S
C45 O46 1.245 1_455 S
C45 O54 1.289 . S
O46 C45 1.245 1_655 S
C47 O48 1.245 1_455 S
C47 O49 1.289 . S
O48 C47 1.245 1_655 S
O49 Mg42 2.141 . S
O49 C47 1.289 . S
O50 Mg42 2.048 . S
O50 C43 1.195 . S
O51 Mg42 2.048 . S
O51 C52 1.195 . S
C52 O51 1.195 . S
C52 O53 1.313 1_455 S
O53 C52 1.313 1_655 S
O54 Mg42 2.141 . S
O54 C45 1.289 . S
Mg55 O62 2.141 . S
Mg55 O63 2.048 . S
Mg55 O64 2.048 . S
Mg55 O67 2.141 . S
C56 O57 1.313 . S
C56 O63 1.195 . S
O57 C56 1.313 . S
C58 O59 1.245 . S
C58 O67 1.289 . S
O59 C58 1.245 . S
C60 O61 1.245 . S
C60 O62 1.289 . S
O61 C60 1.245 . S
O62 Mg55 2.141 . S
O62 C60 1.289 . S
O63 Mg55 2.048 . S
O63 C56 1.195 . S
O64 Mg55 2.048 . S
O64 C65 1.195 . S
C65 O64 1.195 . S
C65 O66 1.313 . S
O66 C65 1.313 . S
O67 Mg55 2.141 . S
O67 C58 1.289 . S
Mg68 O75 2.141 . S
Mg68 O76 2.048 . S
Mg68 O77 2.048 . S
Mg68 O80 2.141 . S
C69 O70 1.313 . S
C69 O76 1.195 . S
O70 C69 1.313 . S
C71 O72 1.245 . S
C71 O80 1.289 . S
O72 C71 1.245 . S
C73 O74 1.245 . S
C73 O75 1.289 . S
O74 C73 1.245 . S
O75 Mg68 2.141 . S
O75 C73 1.289 . S
O76 Mg68 2.048 . S
O76 C69 1.195 . S
O77 Mg68 2.048 . S
O77 C78 1.195 . S
C78 O77 1.195 . S
C78 O79 1.313 . S
O79 C78 1.313 . S
O80 Mg68 2.141 . S
O80 C71 1.289 . S
H81 C89 0.950 . S
H82 C94 0.950 . S
H83 C91 0.950 . S
H84 C93 0.950 . S
H85 C95 0.950 . S
H86 C97 0.950 . S
H87 C99 0.950 . S
H88 C100 0.950 . S
C89 H81 0.950 . S
C89 C90 1.386 . S
C89 C91 1.391 . S
C90 C89 1.386 . S
C90 C94 1.393 . S
C91 H83 0.950 . S
C91 C89 1.391 . S
C91 C92 1.400 . S
C92 C91 1.400 . S
C92 C93 1.398 . S
C92 C98 1.491 . S
C93 H84 0.950 . S
C93 C92 1.398 . S
C93 C94 1.391 . S
C94 H82 0.950 . S
C94 C90 1.393 . S
C94 C93 1.391 . S
C95 H85 0.950 . S
C95 C96 1.386 . S
C95 C97 1.391 . S
C96 C95 1.386 . S
C96 C100 1.393 . S
C97 H86 0.950 . S
C97 C95 1.391 . S
C97 C98 1.400 . S
C98 C92 1.491 . S
C98 C97 1.400 . S
C98 C99 1.398 . S
C99 H87 0.950 . S
C99 C98 1.398 . S
C99 C100 1.391 . S
C100 H88 0.950 . S
C100 C96 1.393 . S
C100 C99 1.391 . S
H101 C109 0.950 . S
H102 C114 0.950 . S
H103 C111 0.950 1_565 S
H104 C113 0.950 . S
H105 C115 0.950 . S
H106 C117 0.950 . S
H107 C119 0.953 . S
H108 C120 0.950 . S
C109 H101 0.950 . S
C109 C110 1.386 1_565 S
C109 C111 1.391 1_565 S
C110 C109 1.386 1_545 S
C110 C114 1.393 . S
C111 H103 0.950 1_545 S
C111 C109 1.391 1_545 S
C111 C112 1.400 . S
C112 C111 1.400 . S
C112 C113 1.398 . S
C112 C118 1.491 . S
C113 H104 0.950 . S
C113 C112 1.398 . S
C113 C114 1.391 . S
C114 H102 0.950 . S
C114 C110 1.393 . S
C114 C113 1.391 . S
C115 H105 0.950 . S
C115 C116 1.386 . S
C115 C117 1.391 . S
C116 C115 1.386 . S
C116 C120 1.393 . S
C117 H106 0.950 . S
C117 C115 1.391 . S
C117 C118 1.400 . S
C118 C112 1.491 . S
C118 C117 1.400 . S
C118 C119 1.398 . S
C119 H107 0.953 . S
C119 C118 1.398 . S
C119 C120 1.391 . S
C120 H108 0.950 . S
C120 C116 1.393 . S
C120 C119 1.391 . S
H121 C129 0.950 . S
H122 C134 0.950 . S
H123 C131 0.950 . S
H124 C133 0.950 . S
H125 C135 0.950 . S
H126 C137 0.950 . S
H127 C139 0.950 . S
H128 C140 0.950 . S
C129 H121 0.950 . S
C129 C130 1.386 . S
C129 C131 1.391 . S
C130 C129 1.386 . S
C130 C134 1.393 . S
C131 H123 0.950 . S
C131 C129 1.391 . S
C131 C132 1.400 . S
C132 C131 1.400 . S
C132 C133 1.398 . S
C132 C138 1.491 . S
C133 H124 0.950 . S
C133 C132 1.398 . S
C133 C134 1.391 . S
C134 H122 0.950 . S
C134 C130 1.393 . S
C134 C133 1.391 . S
C135 H125 0.950 . S
C135 C136 1.386 . S
C135 C137 1.391 . S
C136 C135 1.386 . S
C136 C140 1.393 . S
C137 H126 0.950 . S
C137 C135 1.391 . S
C137 C138 1.400 . S
C138 C132 1.491 . S
C138 C137 1.400 . S
C138 C139 1.398 . S
C139 H127 0.950 . S
C139 C138 1.398 . S
C139 C140 1.391 . S
C140 H128 0.950 . S
C140 C136 1.393 . S
C140 C139 1.391 . S
H141 C149 0.950 . S
H142 C154 0.950 . S
H143 C151 0.950 . S
H144 C153 0.950 . S
H145 C155 0.950 . S
H146 C157 0.950 . S
H147 C159 0.950 . S
H148 C160 0.950 . S
C149 H141 0.950 . S
C149 C150 1.386 . S
C149 C151 1.391 . S
C150 C149 1.386 . S
C150 C154 1.393 . S
C151 H143 0.950 . S
C151 C149 1.391 . S
C151 C152 1.400 . S
C152 C151 1.400 . S
C152 C153 1.398 . S
C152 C158 1.491 . S
C153 H144 0.950 . S
C153 C152 1.398 . S
C153 C154 1.391 . S
C154 H142 0.950 . S
C154 C150 1.393 . S
C154 C153 1.391 . S
C155 H145 0.950 . S
C155 C156 1.386 . S
C155 C157 1.391 . S
C156 C155 1.386 . S
C156 C160 1.393 . S
C157 H146 0.950 . S
C157 C155 1.391 . S
C157 C158 1.400 . S
C158 C152 1.491 . S
C158 C157 1.400 . S
C158 C159 1.398 . S
C159 H147 0.950 . S
C159 C158 1.398 . S
C159 C160 1.391 . S
C160 H148 0.950 . S
C160 C156 1.393 . S
C160 C159 1.391 . S
H161 C169 0.950 . S
H162 C174 0.950 . S
H163 C171 0.950 . S
H164 C173 0.950 . S
H165 C175 0.950 . S
H166 C177 0.950 . S
H167 C179 0.950 . S
H168 C180 0.950 . S
C169 H161 0.950 . S
C169 C170 1.386 . S
C169 C171 1.391 . S
C170 C169 1.386 . S
C170 C174 1.393 . S
C171 H163 0.950 . S
C171 C169 1.391 . S
C171 C172 1.400 . S
C172 C171 1.400 . S
C172 C173 1.398 . S
C172 C178 1.491 . S
C173 H164 0.950 . S
C173 C172 1.398 . S
C173 C174 1.391 . S
C174 H162 0.950 . S
C174 C170 1.393 . S
C174 C173 1.391 . S
C175 H165 0.950 . S
C175 C176 1.386 . S
C175 C177 1.391 . S
C176 C175 1.386 . S
C176 C180 1.393 . S
C177 H166 0.950 . S
C177 C175 1.391 . S
C177 C178 1.400 . S
C178 C172 1.491 . S
C178 C177 1.400 . S
C178 C179 1.398 . S
C179 H167 0.950 . S
C179 C178 1.398 . S
C179 C180 1.391 . S
C180 H168 0.950 . S
C180 C176 1.393 . S
C180 C179 1.391 . S
H181 C189 0.950 . S
H182 C194 0.950 . S
H183 C191 0.950 . S
H184 C193 0.950 . S
H185 C195 0.950 . S
H186 C197 0.950 . S
H187 C199 0.950 . S
H188 C200 0.950 . S
C189 H181 0.950 . S
C189 C190 1.386 . S
C189 C191 1.391 . S
C190 C189 1.386 . S
C190 C194 1.393 . S
C191 H183 0.950 . S
C191 C189 1.391 . S
C191 C192 1.400 . S
C192 C191 1.400 . S
C192 C193 1.398 . S
C192 C198 1.491 . S
C193 H184 0.950 . S
C193 C192 1.398 . S
C193 C194 1.391 . S
C194 H182 0.950 . S
C194 C190 1.393 . S
C194 C193 1.391 . S
C195 H185 0.950 . S
C195 C196 1.386 . S
C195 C197 1.391 . S
C196 C195 1.386 . S
C196 C200 1.393 . S
C197 H186 0.950 . S
C197 C195 1.391 . S
C197 C198 1.400 . S
C198 C192 1.491 . S
C198 C197 1.400 . S
C198 C199 1.398 . S
C199 H187 0.950 . S
C199 C198 1.398 . S
C199 C200 1.391 . S
C200 H188 0.950 . S
C200 C196 1.393 . S
C200 C199 1.391 . S
H201 C209 0.950 . S
H202 C214 0.950 . S
H203 C211 0.950 . S
H204 C213 0.950 . S
H205 C215 0.950 . S
H206 C217 0.950 . S
H207 C219 0.950 . S
H208 C220 0.950 . S
C209 H201 0.950 . S
C209 C210 1.386 . S
C209 C211 1.391 . S
C210 C209 1.386 . S
C210 C214 1.393 . S
C211 H203 0.950 . S
C211 C209 1.391 . S
C211 C212 1.400 . S
C212 C211 1.400 . S
C212 C213 1.398 . S
C212 C218 1.491 . S
C213 H204 0.950 . S
C213 C212 1.398 . S
C213 C214 1.391 . S
C214 H202 0.950 . S
C214 C210 1.393 . S
C214 C213 1.391 . S
C215 H205 0.950 . S
C215 C216 1.386 . S
C215 C217 1.391 . S
C216 C215 1.386 . S
C216 C220 1.393 . S
C217 H206 0.950 . S
C217 C215 1.391 . S
C217 C218 1.400 . S
C218 C212 1.491 . S
C218 C217 1.400 . S
C218 C219 1.398 . S
C219 H207 0.950 . S
C219 C218 1.398 . S
C219 C220 1.391 . S
C220 H208 0.950 . S
C220 C216 1.393 . S
C220 C219 1.391 . S
H221 C229 0.950 1_545 S
H222 C234 0.950 . S
H223 C231 0.950 . S
H224 C233 0.950 . S
H225 C235 0.950 . S
H226 C237 0.950 . S
H227 C239 0.950 . S
H228 C240 0.950 . S
C229 H221 0.950 1_565 S
C229 C230 1.386 . S
C229 C231 1.391 . S
C230 C229 1.386 . S
C230 C234 1.393 . S
C231 H223 0.950 . S
C231 C229 1.391 . S
C231 C232 1.400 . S
C232 C231 1.400 . S
C232 C233 1.398 . S
C232 C238 1.491 1_554 S
C233 H224 0.950 . S
C233 C232 1.398 . S
C233 C234 1.391 . S
C234 H222 0.950 . S
C234 C230 1.393 . S
C234 C233 1.391 . S
C235 H225 0.950 . S
C235 C236 1.386 . S
C235 C237 1.391 . S
C236 C235 1.386 . S
C236 C240 1.393 . S
C237 H226 0.950 . S
C237 C235 1.391 . S
C237 C238 1.400 . S
C238 C232 1.491 1_556 S
C238 C237 1.400 . S
C238 C239 1.398 . S
C239 H227 0.950 . S
C239 C238 1.398 . S
C239 C240 1.391 . S
C240 H228 0.950 . S
C240 C236 1.393 . S
C240 C239 1.391 . S
H241 C249 0.950 . S
H242 C254 0.950 . S
H243 C251 0.950 . S
H244 C253 0.950 . S
H245 C255 0.950 . S
H246 C257 0.950 . S
H247 C259 0.950 . S
H248 C260 0.950 . S
C249 H241 0.950 . S
C249 C250 1.386 . S
C249 C251 1.391 . S
C250 C249 1.386 . S
C250 C254 1.393 1_655 S
C251 H243 0.950 . S
C251 C249 1.391 . S
C251 C252 1.396 1_655 S
C252 C251 1.396 1_455 S
C252 C253 1.400 . S
C252 C258 1.493 . S
C253 H244 0.950 . S
C253 C252 1.400 . S
C253 C254 1.391 . S
C254 H242 0.950 . S
C254 C250 1.393 1_455 S
C254 C253 1.391 . S
C255 H245 0.950 . S
C255 C256 1.386 . S
C255 C257 1.391 . S
C256 C255 1.386 . S
C256 C260 1.393 1_455 S
C257 H246 0.950 . S
C257 C255 1.391 . S
C257 C258 1.400 . S
C258 C252 1.493 . S
C258 C257 1.400 . S
C258 C259 1.398 1_455 S
C259 H247 0.950 . S
C259 C258 1.398 1_655 S
C259 C260 1.391 . S
C260 H248 0.950 . S
C260 C256 1.393 1_655 S
C260 C259 1.391 . S
H261 C269 0.950 . S
H262 C274 0.950 . S
H263 C271 0.950 . S
H264 C273 0.950 1_565 S
H265 C275 0.950 . S
H266 C277 0.950 1_565 S
H267 C279 0.950 . S
H268 C280 0.950 . S
C269 H261 0.950 . S
C269 C270 1.386 . S
C269 C271 1.391 . S
C270 C269 1.386 . S
C270 C274 1.393 1_545 S
C271 H263 0.950 . S
C271 C269 1.391 . S
C271 C272 1.400 . S
C272 C271 1.400 . S
C272 C273 1.398 . S
C272 C278 1.491 . S
C273 H264 0.950 1_545 S
C273 C272 1.398 . S
C273 C274 1.391 1_545 S
C274 H262 0.950 . S
C274 C270 1.393 1_565 S
C274 C273 1.391 1_565 S
C275 H265 0.950 . S
C275 C276 1.386 . S
C275 C277 1.391 . S
C276 C275 1.386 . S
C276 C280 1.393 . S
C277 H266 0.950 1_545 S
C277 C275 1.391 . S
C277 C278 1.400 . S
C278 C272 1.491 . S
C278 C277 1.400 . S
C278 C279 1.398 . S
C279 H267 0.950 . S
C279 C278 1.398 . S
C279 C280 1.391 . S
C280 H268 0.950 . S
C280 C276 1.393 . S
C280 C279 1.391 . S
H281 C289 0.950 . S
H282 C294 0.950 . S
H283 C291 0.950 . S
H284 C293 0.950 . S
H285 C295 0.950 . S
H286 C297 0.950 . S
H287 C299 0.950 . S
H288 C300 0.950 . S
C289 H281 0.950 . S
C289 C290 1.386 . S
C289 C291 1.391 . S
C290 C289 1.386 . S
C290 C294 1.393 . S
C291 H283 0.950 . S
C291 C289 1.391 . S
C291 C292 1.400 . S
C292 C291 1.400 . S
C292 C293 1.398 . S
C292 C298 1.491 1_554 S
C293 H284 0.950 . S
C293 C292 1.398 . S
C293 C294 1.391 . S
C294 H282 0.950 . S
C294 C290 1.393 . S
C294 C293 1.391 . S
C295 H285 0.950 . S
C295 C296 1.386 . S
C295 C297 1.391 . S
C296 C295 1.386 . S
C296 C300 1.393 . S
C297 H286 0.950 . S
C297 C295 1.391 . S
C297 C298 1.400 . S
C298 C292 1.491 1_556 S
C298 C297 1.400 . S
C298 C299 1.398 . S
C299 H287 0.950 . S
C299 C298 1.398 . S
C299 C300 1.391 . S
C300 H288 0.950 . S
C300 C296 1.393 . S
C300 C299 1.391 . S
H301 C309 0.950 . S
H302 C314 0.950 . S
H303 C311 0.950 . S
H304 C313 0.950 . S
H305 C315 0.950 . S
H306 C317 0.950 . S
H307 C319 0.950 . S
H308 C320 0.950 . S
C309 H301 0.950 . S
C309 C310 1.386 1_655 S
C309 C311 1.391 . S
C310 C309 1.386 1_455 S
C310 C314 1.393 . S
C311 H303 0.950 . S
C311 C309 1.391 . S
C311 C312 1.400 1_655 S
C312 C311 1.400 1_455 S
C312 C313 1.398 . S
C312 C318 1.491 . S
C313 H304 0.950 . S
C313 C312 1.398 . S
C313 C314 1.391 . S
C314 H302 0.950 . S
C314 C310 1.393 . S
C314 C313 1.391 . S
C315 H305 0.950 . S
C315 C316 1.386 . S
C315 C317 1.391 . S
C316 C315 1.386 . S
C316 C320 1.393 1_455 S
C317 H306 0.950 . S
C317 C315 1.391 . S
C317 C318 1.400 . S
C318 C312 1.491 . S
C318 C317 1.400 . S
C318 C319 1.398 1_455 S
C319 H307 0.950 . S
C319 C318 1.398 1_655 S
C319 C320 1.391 . S
C320 H308 0.950 . S
C320 C316 1.393 1_655 S
C320 C319 1.391 . S
C96 C47 1.354 . S
C90 C11 1.354 . S
C110 C26 1.518 . S
C116 C65 1.517 . S
C130 C40 1.419 . S
C136 C78 1.417 . S
C150 C5 1.215 . S
C156 C45 1.348 . S
C176 C56 1.538 . S
C170 C18 1.525 . S
C190 C32 1.393 . S
C196 C69 1.418 . S
C216 C58 1.230 . S
C210 C39 1.242 . S
C230 C4 1.339 1_565 S
C236 C71 1.365 . S
C256 C52 1.407 . S
C250 C19 1.239 . S
C276 C60 1.258 . S
C270 C33 1.143 . S
C296 C73 1.349 . S
C290 C12 1.354 . S
C310 C25 1.420 . S
C316 C43 1.437 . S
