# Generated by pormake.
# Topology cor, (4,6)-cn, num edge types: 1
# Building blocks:
#     Node 0, Type 0, BuildingBlock: QUQFOY_clean_sbu_3, # of connection points: 4
#     Node 1, Type 0, BuildingBlock: QUQFOY_clean_sbu_3, # of connection points: 4
#     Node 2, Type 0, BuildingBlock: QUQFOY_clean_sbu_3, # of connection points: 4
#     Node 3, Type 0, BuildingBlock: QUQFOY_clean_sbu_3, # of connection points: 4
#     Node 4, Type 0, BuildingBlock: QUQFOY_clean_sbu_3, # of connection points: 4
#     Node 5, Type 0, BuildingBlock: QUQFOY_clean_sbu_3, # of connection points: 4
#     Node 6, Type 0, BuildingBlock: QUQFOY_clean_sbu_3, # of connection points: 4
#     Node 7, Type 0, BuildingBlock: QUQFOY_clean_sbu_3, # of connection points: 4
#     Node 8, Type 0, BuildingBlock: QUQFOY_clean_sbu_3, # of connection points: 4
#     Node 9, Type 0, BuildingBlock: QUQFOY_clean_sbu_3, # of connection points: 4
#     Node 10, Type 0, BuildingBlock: QUQFOY_clean_sbu_3, # of connection points: 4
#     Node 11, Type 0, BuildingBlock: QUQFOY_clean_sbu_3, # of connection points: 4
#     Node 12, Type 0, BuildingBlock: QUQFOY_clean_sbu_3, # of connection points: 4
#     Node 13, Type 0, BuildingBlock: QUQFOY_clean_sbu_3, # of connection points: 4
#     Node 14, Type 0, BuildingBlock: QUQFOY_clean_sbu_3, # of connection points: 4
#     Node 15, Type 0, BuildingBlock: QUQFOY_clean_sbu_3, # of connection points: 4
#     Node 16, Type 0, BuildingBlock: QUQFOY_clean_sbu_3, # of connection points: 4
#     Node 17, Type 0, BuildingBlock: QUQFOY_clean_sbu_3, # of connection points: 4
#     Node 18, Type 1, BuildingBlock: MIDCAF_clean_sbu_0, # of connection points: 6
#     Node 19, Type 1, BuildingBlock: MIDCAF_clean_sbu_0, # of connection points: 6
#     Node 20, Type 1, BuildingBlock: MIDCAF_clean_sbu_0, # of connection points: 6
#     Node 21, Type 1, BuildingBlock: MIDCAF_clean_sbu_0, # of connection points: 6
#     Node 22, Type 1, BuildingBlock: MIDCAF_clean_sbu_0, # of connection points: 6
#     Node 23, Type 1, BuildingBlock: MIDCAF_clean_sbu_0, # of connection points: 6
#     Node 24, Type 1, BuildingBlock: MIDCAF_clean_sbu_0, # of connection points: 6
#     Node 25, Type 1, BuildingBlock: MIDCAF_clean_sbu_0, # of connection points: 6
#     Node 26, Type 1, BuildingBlock: MIDCAF_clean_sbu_0, # of connection points: 6
#     Node 27, Type 1, BuildingBlock: MIDCAF_clean_sbu_0, # of connection points: 6
#     Node 28, Type 1, BuildingBlock: MIDCAF_clean_sbu_0, # of connection points: 6
#     Node 29, Type 1, BuildingBlock: MIDCAF_clean_sbu_0, # of connection points: 6
#     Edge 30, Type (0, 1), BuildingBlock: OJICUG_clean_linker_0, # of connection points: 2
#     Edge 31, Type (0, 1), BuildingBlock: OJICUG_clean_linker_0, # of connection points: 2
#     Edge 32, Type (0, 1), BuildingBlock: OJICUG_clean_linker_0, # of connection points: 2
#     Edge 33, Type (0, 1), BuildingBlock: OJICUG_clean_linker_0, # of connection points: 2
#     Edge 34, Type (0, 1), BuildingBlock: OJICUG_clean_linker_0, # of connection points: 2
#     Edge 35, Type (0, 1), BuildingBlock: OJICUG_clean_linker_0, # of connection points: 2
#     Edge 36, Type (0, 1), BuildingBlock: OJICUG_clean_linker_0, # of connection points: 2
#     Edge 37, Type (0, 1), BuildingBlock: OJICUG_clean_linker_0, # of connection points: 2
#     Edge 38, Type (0, 1), BuildingBlock: OJICUG_clean_linker_0, # of connection points: 2
#     Edge 39, Type (0, 1), BuildingBlock: OJICUG_clean_linker_0, # of connection points: 2
#     Edge 40, Type (0, 1), BuildingBlock: OJICUG_clean_linker_0, # of connection points: 2
#     Edge 41, Type (0, 1), BuildingBlock: OJICUG_clean_linker_0, # of connection points: 2
#     Edge 42, Type (0, 1), BuildingBlock: OJICUG_clean_linker_0, # of connection points: 2
#     Edge 43, Type (0, 1), BuildingBlock: OJICUG_clean_linker_0, # of connection points: 2
#     Edge 44, Type (0, 1), BuildingBlock: OJICUG_clean_linker_0, # of connection points: 2
#     Edge 45, Type (0, 1), BuildingBlock: OJICUG_clean_linker_0, # of connection points: 2
#     Edge 46, Type (0, 1), BuildingBlock: OJICUG_clean_linker_0, # of connection points: 2
#     Edge 47, Type (0, 1), BuildingBlock: OJICUG_clean_linker_0, # of connection points: 2
#     Edge 48, Type (0, 1), BuildingBlock: OJICUG_clean_linker_0, # of connection points: 2
#     Edge 49, Type (0, 1), BuildingBlock: OJICUG_clean_linker_0, # of connection points: 2
#     Edge 50, Type (0, 1), BuildingBlock: OJICUG_clean_linker_0, # of connection points: 2
#     Edge 51, Type (0, 1), BuildingBlock: OJICUG_clean_linker_0, # of connection points: 2
#     Edge 52, Type (0, 1), BuildingBlock: OJICUG_clean_linker_0, # of connection points: 2
#     Edge 53, Type (0, 1), BuildingBlock: OJICUG_clean_linker_0, # of connection points: 2
#     Edge 54, Type (0, 1), BuildingBlock: OJICUG_clean_linker_0, # of connection points: 2
#     Edge 55, Type (0, 1), BuildingBlock: OJICUG_clean_linker_0, # of connection points: 2
#     Edge 56, Type (0, 1), BuildingBlock: OJICUG_clean_linker_0, # of connection points: 2
#     Edge 57, Type (0, 1), BuildingBlock: OJICUG_clean_linker_0, # of connection points: 2
#     Edge 58, Type (0, 1), BuildingBlock: OJICUG_clean_linker_0, # of connection points: 2
#     Edge 59, Type (0, 1), BuildingBlock: OJICUG_clean_linker_0, # of connection points: 2
#     Edge 60, Type (0, 1), BuildingBlock: OJICUG_clean_linker_0, # of connection points: 2
#     Edge 61, Type (0, 1), BuildingBlock: OJICUG_clean_linker_0, # of connection points: 2
#     Edge 62, Type (0, 1), BuildingBlock: OJICUG_clean_linker_0, # of connection points: 2
#     Edge 63, Type (0, 1), BuildingBlock: OJICUG_clean_linker_0, # of connection points: 2
#     Edge 64, Type (0, 1), BuildingBlock: OJICUG_clean_linker_0, # of connection points: 2
#     Edge 65, Type (0, 1), BuildingBlock: OJICUG_clean_linker_0, # of connection points: 2
#     Edge 66, Type (0, 1), BuildingBlock: OJICUG_clean_linker_0, # of connection points: 2
#     Edge 67, Type (0, 1), BuildingBlock: OJICUG_clean_linker_0, # of connection points: 2
#     Edge 68, Type (0, 1), BuildingBlock: OJICUG_clean_linker_0, # of connection points: 2
#     Edge 69, Type (0, 1), BuildingBlock: OJICUG_clean_linker_0, # of connection points: 2
#     Edge 70, Type (0, 1), BuildingBlock: OJICUG_clean_linker_0, # of connection points: 2
#     Edge 71, Type (0, 1), BuildingBlock: OJICUG_clean_linker_0, # of connection points: 2
#     Edge 72, Type (0, 1), BuildingBlock: OJICUG_clean_linker_0, # of connection points: 2
#     Edge 73, Type (0, 1), BuildingBlock: OJICUG_clean_linker_0, # of connection points: 2
#     Edge 74, Type (0, 1), BuildingBlock: OJICUG_clean_linker_0, # of connection points: 2
#     Edge 75, Type (0, 1), BuildingBlock: OJICUG_clean_linker_0, # of connection points: 2
#     Edge 76, Type (0, 1), BuildingBlock: OJICUG_clean_linker_0, # of connection points: 2
#     Edge 77, Type (0, 1), BuildingBlock: OJICUG_clean_linker_0, # of connection points: 2
#     Edge 78, Type (0, 1), BuildingBlock: OJICUG_clean_linker_0, # of connection points: 2
#     Edge 79, Type (0, 1), BuildingBlock: OJICUG_clean_linker_0, # of connection points: 2
#     Edge 80, Type (0, 1), BuildingBlock: OJICUG_clean_linker_0, # of connection points: 2
#     Edge 81, Type (0, 1), BuildingBlock: OJICUG_clean_linker_0, # of connection points: 2
#     Edge 82, Type (0, 1), BuildingBlock: OJICUG_clean_linker_0, # of connection points: 2
#     Edge 83, Type (0, 1), BuildingBlock: OJICUG_clean_linker_0, # of connection points: 2
#     Edge 84, Type (0, 1), BuildingBlock: OJICUG_clean_linker_0, # of connection points: 2
#     Edge 85, Type (0, 1), BuildingBlock: OJICUG_clean_linker_0, # of connection points: 2
#     Edge 86, Type (0, 1), BuildingBlock: OJICUG_clean_linker_0, # of connection points: 2
#     Edge 87, Type (0, 1), BuildingBlock: OJICUG_clean_linker_0, # of connection points: 2
#     Edge 88, Type (0, 1), BuildingBlock: OJICUG_clean_linker_0, # of connection points: 2
#     Edge 89, Type (0, 1), BuildingBlock: OJICUG_clean_linker_0, # of connection points: 2
#     Edge 90, Type (0, 1), BuildingBlock: OJICUG_clean_linker_0, # of connection points: 2
#     Edge 91, Type (0, 1), BuildingBlock: OJICUG_clean_linker_0, # of connection points: 2
#     Edge 92, Type (0, 1), BuildingBlock: OJICUG_clean_linker_0, # of connection points: 2
#     Edge 93, Type (0, 1), BuildingBlock: OJICUG_clean_linker_0, # of connection points: 2
#     Edge 94, Type (0, 1), BuildingBlock: OJICUG_clean_linker_0, # of connection points: 2
#     Edge 95, Type (0, 1), BuildingBlock: OJICUG_clean_linker_0, # of connection points: 2
#     Edge 96, Type (0, 1), BuildingBlock: OJICUG_clean_linker_0, # of connection points: 2
#     Edge 97, Type (0, 1), BuildingBlock: OJICUG_clean_linker_0, # of connection points: 2
#     Edge 98, Type (0, 1), BuildingBlock: OJICUG_clean_linker_0, # of connection points: 2
#     Edge 99, Type (0, 1), BuildingBlock: OJICUG_clean_linker_0, # of connection points: 2
#     Edge 100, Type (0, 1), BuildingBlock: OJICUG_clean_linker_0, # of connection points: 2
#     Edge 101, Type (0, 1), BuildingBlock: OJICUG_clean_linker_0, # of connection points: 2
# Relax obj value: 0.108
# Max RMSD: 0.161
# Mean RMSD: 0.108
data_MOF--net-cor--node1-QUQFOY_clean_sbu_3--node2-MIDCAF_clean_sbu_0--edge1-OJICUG_clean_linker_0
_symmetry_space_group_name_H-M    P1
_symmetry_Int_Tables_number       1
_symmetry_cell_setting            triclinic
loop_
_symmetry_equiv_pos_as_xyz
'x, y, z'
_cell_length_a     29.520983
_cell_length_b     29.423717
_cell_length_c     73.485289
_cell_angle_alpha  90.049
_cell_angle_beta   89.843763
_cell_angle_gamma 120.72379
loop_
_atom_site_label
_atom_site_type_symbol
_atom_site_fract_x
_atom_site_fract_y
_atom_site_fract_z
_atom_type_partial_charge
C0 C 0.61428 0.88513 0.28713 0.0
O1 O 0.64542 0.86823 0.28395 0.0
Cd2 Cd 0.7223 0.91252 0.26553 0.0
O3 O 0.62088 0.9271 0.27947 0.0
Cd4 Cd 0.68246 -0.00199 0.25816 0.0
C5 C 0.77934 0.0307 0.28951 0.0
O6 O 0.69663 0.93958 0.23895 0.0
O7 O 0.74807 0.02282 0.23387 0.0
O8 O 0.61934 0.00469 0.2378 0.0
C9 C 0.73282 0.97552 0.22933 0.0
O10 O 0.77589 -0.01277 0.2851 0.0
C11 C 0.632 0.05073 0.24308 0.0
O12 O 0.75067 0.0462 0.28199 0.0
O13 O 0.66571 0.07081 0.25577 0.0
C14 C 0.89955 0.59175 0.23994 0.0
O15 O 0.87052 0.61199 0.23956 0.0
Cd16 Cd 0.88341 0.68915 0.25501 0.0
O17 O 0.94128 0.61223 0.24961 0.0
Cd18 Cd -0.01102 0.69581 0.26827 0.0
C19 C -0.00393 0.77336 0.23232 0.0
O20 O 0.91395 0.69164 0.28555 0.0
O21 O -0.00894 0.76105 0.28876 0.0
O22 O 0.02419 0.6569 0.2896 0.0
C23 C 0.94321 0.73534 0.29357 0.0
O24 O 0.94752 0.75639 0.23516 0.0
C25 C 0.07195 0.69318 0.28732 0.0
O26 O 0.02124 0.75775 0.24201 0.0
O27 O 0.08072 0.72849 0.27562 0.0
C28 C 0.2602 0.38428 0.27364 0.0
O29 O 0.21185 0.35335 0.26994 0.0
Cd30 Cd 0.17671 0.27793 0.25057 0.0
O31 O 0.29591 0.37701 0.26682 0.0
Cd32 Cd 0.30165 0.31068 0.24712 0.0
C33 C 0.2199 0.20959 0.27626 0.0
O34 O 0.23687 0.30491 0.22567 0.0
O35 O 0.26328 0.25006 0.22096 0.0
O36 O 0.3822 0.37004 0.22944 0.0
C37 C 0.23541 0.26907 0.21572 0.0
O38 O 0.18267 0.21545 0.27043 0.0
C39 C 0.40962 0.35289 0.23663 0.0
O40 O 0.26707 0.23868 0.27054 0.0
O41 O 0.38777 0.31821 0.24902 0.0
C42 C 0.36187 0.12153 0.73768 0.0
O43 O 0.32679 0.13293 0.74142 0.0
Cd44 Cd 0.25042 0.08015 0.76011 0.0
O45 O 0.35849 0.07948 0.744 0.0
Cd46 Cd 0.29369 0.00159 0.76212 0.0
C47 C 0.19401 0.97285 0.73212 0.0
O48 O 0.27537 0.04901 0.78592 0.0
O49 O 0.22249 0.96463 0.7842 0.0
O50 O 0.35417 -0.01276 0.7813 0.0
C51 C 0.23793 0.00727 0.79294 0.0
O52 O 0.19016 0.00889 0.74028 0.0
C53 C 0.34114 0.94269 0.77439 0.0
O54 O 0.23113 0.96425 0.73591 0.0
O55 O 0.3089 0.92728 0.76121 0.0
C56 C 0.85153 0.27076 0.75063 0.0
O57 O 0.83294 0.22165 0.753 0.0
Cd58 Cd 0.884 0.18703 0.76546 0.0
O59 O 0.89772 0.30439 0.75612 0.0
Cd60 Cd 0.97464 0.3079 0.77111 0.0
C61 C -0.01439 0.24362 0.73423 0.0
O62 O 0.93146 0.2328 0.79253 0.0
O63 O 0.01407 0.26477 0.78647 0.0
O64 O -0.00298 0.37704 0.7946 0.0
C65 C 0.9739 0.23301 0.79576 0.0
O66 O 0.94383 0.20361 0.74029 0.0
C67 C 0.03732 0.4123 0.7862 0.0
O68 O 0.0069 0.28785 0.74257 0.0
O69 O 0.04755 0.39942 0.7709 0.0
C70 C 0.59258 0.70619 0.78717 0.0
O71 O 0.61303 0.75591 0.78659 0.0
Cd72 Cd 0.70063 0.81439 0.77696 0.0
O73 O 0.61687 0.68443 0.78059 0.0
Cd74 Cd 0.70574 0.71944 0.7658 0.0
C75 C 0.75553 0.76575 0.80666 0.0
O76 O 0.72539 0.79861 0.74736 0.0
O77 O 0.79089 0.7941 0.75821 0.0
O78 O 0.66883 0.65667 0.7406 0.0
C79 C 0.77462 0.81584 0.74724 0.0
O80 O 0.74634 0.80189 0.80196 0.0
C81 C 0.70047 0.63969 0.7421 0.0
O82 O 0.74398 0.72689 0.79616 0.0
O83 O 0.73303 0.658 0.75518 0.0
C84 C 0.23548 0.22821 0.60245 0.0
O85 O 0.24766 0.19284 0.60052 0.0
Cd86 Cd 0.31955 0.19755 0.58346 0.0
O87 O 0.26134 0.27266 0.59452 0.0
Cd88 Cd 0.34175 0.31631 0.57588 0.0
C89 C 0.40775 0.29585 0.61087 0.0
O90 O 0.33195 0.24495 0.55555 0.0
O91 O 0.40475 0.32045 0.55433 0.0
O92 O 0.30255 0.35869 0.55845 0.0
C93 C 0.37704 0.27381 0.54831 0.0
O94 O 0.38745 0.24837 0.6054 0.0
C95 C 0.33944 0.40537 0.56205 0.0
O96 O 0.39731 0.32816 0.603 0.0
O97 O 0.3764 0.41 0.57221 0.0
C98 C 0.55861 0.96187 0.57903 0.0
O99 O 0.54115 -0.00792 0.58312 0.0
Cd100 Cd 0.58781 0.07365 0.59955 0.0
O101 O 0.60343 0.97185 0.58485 0.0
Cd102 Cd 0.67483 0.04262 0.60407 0.0
C103 C 0.69597 0.13346 0.57129 0.0
O104 O 0.62785 0.06512 0.62651 0.0
O105 O 0.71144 0.12018 0.62353 0.0
O106 O 0.67555 0.97853 0.62513 0.0
C107 C 0.66913 0.10624 0.63221 0.0
O108 O 0.65436 0.12998 0.57779 0.0
C109 C 0.72311 -0.00764 0.622 0.0
O110 O 0.71376 0.10495 0.57744 0.0
O111 O 0.74749 0.02735 0.60982 0.0
C112 C 0.96772 0.78136 0.60027 0.0
O113 O 0.92034 0.76756 0.5967 0.0
Cd114 Cd 0.85464 0.68655 0.5829 0.0
O115 O -0.01312 0.753 0.59558 0.0
Cd116 Cd 0.95291 0.66727 0.57976 0.0
C117 C 0.86562 0.60991 0.61544 0.0
O118 O 0.89029 0.66576 0.55702 0.0
O119 O 0.89124 0.59356 0.5615 0.0
O120 O 0.03451 0.70332 0.56167 0.0
C121 C 0.87327 0.61786 0.55268 0.0
O122 O 0.83822 0.62702 0.60807 0.0
C123 C 0.0459 0.66951 0.56726 0.0
O124 O 0.90933 0.6196 0.6084 0.0
O125 O 0.01484 0.636 0.5789 0.0
C126 C 0.06437 0.43384 0.06981 0.0
O127 O 0.03883 0.45785 0.06972 0.0
Cd128 Cd 0.95809 0.42966 0.08614 0.0
O129 O 0.04786 0.39148 0.07894 0.0
Cd130 Cd 0.96899 0.33105 0.09732 0.0
C131 C 0.88057 0.31378 0.06371 0.0
O132 O 0.96258 0.39765 0.11601 0.0
O133 O 0.90471 0.31538 0.12093 0.0
O134 O 0.01923 0.30557 0.11743 0.0
C135 C 0.92288 0.36348 0.12506 0.0
O136 O 0.89386 0.36165 0.06649 0.0
C137 C -0.00015 0.25982 0.11051 0.0
O138 O 0.90086 0.29196 0.07292 0.0
O139 O 0.9662 0.2476 0.09793 0.0
C140 C 0.56709 0.62559 0.07068 0.0
O141 O 0.54006 0.57543 0.07104 0.0
Cd142 Cd 0.56019 0.52046 0.08937 0.0
O143 O 0.60658 0.65069 0.08118 0.0
Cd144 Cd 0.65444 0.62862 0.10424 0.0
C145 C 0.68313 0.56652 0.07111 0.0
O146 O 0.58051 0.55148 0.12033 0.0
O147 O 0.66037 0.57369 0.12721 0.0
O148 O 0.66521 0.7079 0.11967 0.0
C149 C 0.61157 0.54416 0.13022 0.0
O150 O 0.63523 0.53018 0.0729 0.0
C151 C 0.71269 0.72464 0.12411 0.0
O152 O 0.70259 0.60878 0.08054 0.0
O153 O 0.73309 0.69799 0.11878 0.0
C154 C 0.25334 0.01794 0.11894 0.0
O155 O 0.27818 0.06807 0.11985 0.0
Cd156 Cd 0.35795 0.12729 0.1041 0.0
O157 O 0.27003 -0.00597 0.10903 0.0
Cd158 Cd 0.34935 0.0189 0.09036 0.0
C159 C 0.4346 0.08766 0.12546 0.0
O160 O 0.35187 0.09296 0.0739 0.0
O161 O 0.41275 0.07509 0.06755 0.0
O162 O 0.30133 0.94746 0.068 0.0
C163 C 0.39175 0.1026 0.06435 0.0
O164 O 0.42088 0.1218 0.12334 0.0
C165 C 0.32173 0.921 0.07341 0.0
O166 O 0.41589 0.04669 0.11538 0.0
O167 O 0.35428 0.93992 0.08646 0.0
C168 C 0.93466 0.57175 0.95784 0.0
O169 O 0.95976 0.54732 0.95724 0.0
Cd170 Cd 0.03831 0.57536 0.93957 0.0
O171 O 0.95023 0.61392 0.94872 0.0
Cd172 Cd 0.02601 0.6733 0.92924 0.0
C173 C 0.11705 0.6915 0.96169 0.0
O174 O 0.02868 0.60562 0.90999 0.0
O175 O 0.08616 0.68756 0.90432 0.0
O176 O 0.97149 0.69732 0.91098 0.0
C177 C 0.06667 0.63925 0.9002 0.0
O178 O 0.10397 0.64377 0.95874 0.0
C179 C -0.00655 0.74397 0.91728 0.0
O180 O 0.09589 0.7131 0.95289 0.0
O181 O 0.03038 0.75728 0.92867 0.0
C182 C 0.24875 0.28485 0.90105 0.0
O183 O 0.22062 0.30614 0.90133 0.0
Cd184 Cd 0.23683 0.38148 0.91883 0.0
O185 O 0.29002 0.30279 0.91081 0.0
Cd186 Cd 0.34147 0.37835 0.93187 0.0
C187 C 0.35587 0.4666 0.89842 0.0
O188 O 0.26452 0.37069 0.94826 0.0
O189 O 0.34171 0.43281 0.95654 0.0
O190 O 0.3583 0.31235 0.94572 0.0
C191 C 0.29236 0.40891 0.95892 0.0
O192 O 0.30731 0.44979 0.90116 0.0
C193 C 0.40476 0.34562 0.9508 0.0
O194 O 0.38012 0.44822 0.90736 0.0
O195 O 0.4228 0.39355 0.94628 0.0
C196 C 0.6229 0.06527 0.94773 0.0
O197 O 0.57287 0.03875 0.94754 0.0
Cd198 Cd 0.52028 0.96151 0.92952 0.0
O199 O 0.64969 0.05217 0.93768 0.0
Cd200 Cd 0.63181 0.97881 0.91621 0.0
C201 C 0.56584 0.8873 0.94967 0.0
O202 O 0.55878 0.97896 0.89952 0.0
O203 O 0.58071 0.92287 0.89083 0.0
O204 O 0.7177 0.04772 0.90407 0.0
C205 C 0.55193 0.94272 0.8885 0.0
O206 O 0.52936 0.89758 0.94731 0.0
C207 C 0.732 0.01527 0.89952 0.0
O208 O 0.60833 0.91071 0.9404 0.0
O209 O 0.70049 0.96682 0.90304 0.0
C210 C 0.75522 0.79255 0.41733 0.0
O211 O 0.74043 0.82573 0.4199 0.0
Cd212 Cd 0.66536 0.81462 0.4368 0.0
O213 O 0.73034 0.74663 0.42439 0.0
Cd214 Cd 0.64786 0.69601 0.44253 0.0
C215 C 0.58013 0.71745 0.40825 0.0
O216 O 0.65122 0.76313 0.46377 0.0
O217 O 0.58064 0.68587 0.46385 0.0
O218 O 0.68636 0.65223 0.45996 0.0
C219 C 0.60552 0.73225 0.4703 0.0
O220 O 0.59896 0.76415 0.41436 0.0
C221 C 0.65254 0.60592 0.45467 0.0
O222 O 0.59209 0.68543 0.41549 0.0
O223 O 0.61744 0.60202 0.44371 0.0
C224 C 0.20586 0.9775 0.41031 0.0
O225 O 0.16998 0.93046 0.41399 0.0
Cd226 Cd 0.17582 0.86711 0.43301 0.0
O227 O 0.2511 -0.00215 0.4176 0.0
Cd228 Cd 0.2938 0.96315 0.43771 0.0
C229 C 0.26823 0.86897 0.4052 0.0
O230 O 0.22691 0.90323 0.46031 0.0
O231 O 0.29982 0.90272 0.45778 0.0
O232 O 0.33952 0.04581 0.45521 0.0
C233 C 0.25646 0.8864 0.466 0.0
O234 O 0.22171 0.8431 0.41163 0.0
C235 C 0.38536 0.05573 0.45081 0.0
O236 O 0.30204 0.9142 0.41161 0.0
O237 O 0.38809 0.02343 0.43999 0.0
C238 C 0.94694 0.37652 0.45228 0.0
O239 O -0.02321 0.42385 0.44699 0.0
Cd240 Cd 0.05512 0.45568 0.42904 0.0
O241 O 0.95598 0.34035 0.44738 0.0
Cd242 Cd 0.02403 0.33557 0.42878 0.0
C243 C 0.12101 0.41751 0.458 0.0
O244 O 0.04125 0.39786 0.40417 0.0
O245 O 0.0974 0.37194 0.40749 0.0
O246 O 0.96122 0.26634 0.40877 0.0
C247 C 0.08115 0.39691 0.39808 0.0
O248 O 0.11573 0.45327 0.45035 0.0
C249 C 0.97064 0.2313 0.41434 0.0
O250 O 0.09166 0.3688 0.45375 0.0
O251 O 0.00308 0.24366 0.42742 0.0
Zn252 Zn -0.02122 0.9764 0.13066 0.0
Zn253 Zn 0.00018 0.01401 0.19986 0.0
Zn254 Zn -0.01035 -0.00252 0.16528 0.0
C255 C 0.04018 0.94964 0.19342 0.0
C256 C 0.05769 0.11224 0.18374 0.0
O257 O 0.02008 0.07443 0.15122 0.0
O258 O 5e-05 0.0483 0.12269 0.0
C259 C 0.87934 0.91825 0.14521 0.0
O260 O 0.02728 0.95509 0.17715 0.0
O261 O 0.0341 0.97382 0.20649 0.0
O262 O 0.04449 0.09086 0.1992 0.0
O263 O 0.03999 0.0841 0.16919 0.0
O264 O 0.90344 0.92437 0.13041 0.0
O265 O 0.90451 0.94374 0.15957 0.0
O266 O 0.03725 0.96204 0.15819 0.0
O267 O 0.02974 0.95241 0.12833 0.0
C268 C 0.05059 0.95018 0.143 0.0
O269 O 0.90999 0.96612 0.17696 0.0
O270 O 0.9258 0.98391 0.20632 0.0
C271 C 0.01722 0.08485 0.13437 0.0
C272 C 0.89373 0.9657 0.19328 0.0
Zn273 Zn -0.02085 -0.00435 0.31613 0.0
Zn274 Zn 0.00106 0.00017 0.38094 0.0
Zn275 Zn -0.00902 0.00355 0.34924 0.0
C276 C 0.94627 0.05045 0.37862 0.0
C277 C 0.94066 0.90007 0.37572 0.0
O278 O 0.94557 0.91881 0.34081 0.0
O279 O 0.9263 0.92042 0.312 0.0
C280 C 0.08584 0.04421 0.31991 0.0
O281 O 0.96047 0.0518 0.36191 0.0
O282 O 0.95224 0.02152 0.38979 0.0
O283 O -0.02266 0.92559 0.38695 0.0
O284 O 0.94053 0.92271 0.36069 0.0
O285 O 0.0514 0.01889 0.30796 0.0
O286 O 0.07131 0.04392 0.33651 0.0
O287 O 0.95152 0.04861 0.3425 0.0
O288 O 0.95681 0.04763 0.31261 0.0
C289 C 0.9436 0.06241 0.32674 0.0
O290 O 0.07524 0.0345 0.35602 0.0
O291 O 0.07564 0.05362 0.3849 0.0
C292 C 0.92383 0.8942 0.32591 0.0
C293 C 0.10046 0.05277 0.37108 0.0
Zn294 Zn 0.00533 0.02442 0.89628 0.0
Zn295 Zn -0.0124 0.98019 0.83289 0.0
Zn296 Zn -0.00205 0.00127 0.86249 0.0
C297 C -0.0174 0.06738 0.83354 0.0
C298 C 0.91105 0.8946 0.84715 0.0
O299 O 0.96836 0.92565 0.87711 0.0
O300 O -0.01219 0.95426 0.9054 0.0
C301 C 0.10609 0.08435 0.88076 0.0
O302 O 0.9645 0.04537 0.84911 0.0
O303 O 0.00581 0.05064 0.82358 0.0
O304 O 0.91385 0.92304 0.83387 0.0
O305 O 0.94634 0.91424 0.85968 0.0
O306 O 0.08052 0.07925 0.89517 0.0
O307 O 0.08271 0.05622 0.86666 0.0
O308 O 0.94777 0.03581 0.86712 0.0
O309 O 0.95089 0.04494 0.89706 0.0
C310 C 0.93195 0.04702 0.88191 0.0
O311 O 0.07682 0.02775 0.85042 0.0
O312 O 0.04126 0.95925 0.83209 0.0
C313 C 0.97176 0.91689 0.89408 0.0
C314 C 0.08178 -0.00384 0.83956 0.0
Zn315 Zn 0.04883 0.05197 0.69425 0.0
Zn316 Zn -0.01489 0.02924 0.63564 0.0
Zn317 Zn -0.00333 0.02409 0.66792 0.0
C318 C 0.02932 0.96835 0.63741 0.0
C319 C 0.04913 0.12871 0.64156 0.0
O320 O 0.03096 0.1104 0.67615 0.0
O321 O 0.07086 0.12287 0.70251 0.0
C322 C 0.93533 0.9754 0.70095 0.0
O323 O 0.02004 0.97243 0.65426 0.0
O324 O 0.02328 -0.00396 0.62569 0.0
O325 O 0.01571 0.10411 0.62926 0.0
O326 O 0.04584 0.10501 0.6567 0.0
O327 O -0.01785 -0.00542 0.7067 0.0
O328 O 0.92774 -0.01366 0.68476 0.0
O329 O 0.03836 0.97835 0.67409 0.0
O330 O 0.10677 0.03966 0.68902 0.0
C331 C 0.08333 -0.00544 0.68185 0.0
O332 O 0.91012 -0.01264 0.66573 0.0
O333 O 0.9084 0.98448 0.63575 0.0
C334 C 0.05385 0.13984 0.69019 0.0
C335 C 0.88411 0.97395 0.65072 0.0
Zn336 Zn 0.65034 0.33688 0.5349 0.0
Zn337 Zn 0.66498 0.33254 0.46893 0.0
Zn338 Zn 0.65803 0.33278 0.50053 0.0
C339 C 0.75329 0.3378 0.48094 0.0
C340 C 0.57624 0.24179 0.47499 0.0
O341 O 0.57273 0.28292 0.50687 0.0
O342 O 0.57302 0.29192 0.53675 0.0
C343 C 0.70054 0.44102 0.52387 0.0
O344 O 0.72182 0.31635 0.49455 0.0
O345 O 0.74071 0.35751 0.4681 0.0
O346 O 0.61499 0.25713 0.46436 0.0
O347 O 0.58086 0.27009 0.48907 0.0
O348 O 0.68328 0.41401 0.53824 0.0
O349 O 0.69288 0.41763 0.50833 0.0
O350 O 0.70397 0.29821 0.51254 0.0
O351 O 0.69231 0.30488 0.54193 0.0
C352 C 0.71094 0.29012 0.52931 0.0
O353 O 0.67689 0.41213 0.49004 0.0
O354 O 0.64207 0.38318 0.46304 0.0
C355 C 0.54785 0.2732 0.52215 0.0
C356 C 0.65914 0.41913 0.47491 0.0
Zn357 Zn 0.64898 0.3622 0.71738 0.0
Zn358 Zn 0.66507 0.35504 0.6581 0.0
Zn359 Zn 0.656 0.35766 0.68739 0.0
C360 C 0.5761 0.35416 0.66049 0.0
C361 C 0.74861 0.4439 0.66542 0.0
O362 O 0.6979 0.32139 0.70012 0.0
O363 O 0.71938 0.37389 0.72387 0.0
C364 C 0.55552 0.27977 0.70682 0.0
O365 O 0.57803 0.32955 0.67471 0.0
O366 O 0.61812 0.38307 0.65176 0.0
O367 O 0.74302 0.40337 0.65744 0.0
O368 O 0.7129 0.43817 0.67688 0.0
O369 O 0.58785 0.28946 0.71951 0.0
O370 O 0.57034 0.30996 0.69271 0.0
O371 O 0.6925 0.44244 0.69434 0.0
O372 O 0.63752 0.42284 0.71728 0.0
C373 C 0.67046 0.45671 0.70636 0.0
O374 O 0.68221 0.30029 0.68243 0.0
O375 O 0.635 0.27738 0.65745 0.0
C376 C 0.72582 0.34156 0.71455 0.0
C377 C 0.65826 0.26668 0.66957 0.0
Zn378 Zn 0.66683 0.3271 0.2225 0.0
Zn379 Zn 0.66051 0.3241 0.15477 0.0
Zn380 Zn 0.66002 0.32317 0.18878 0.0
C381 C 0.60455 0.3717 0.16344 0.0
C382 C 0.60943 0.21845 0.16376 0.0
O383 O 0.62533 0.23936 0.19893 0.0
O384 O 0.63437 0.25287 0.22855 0.0
C385 C 0.76794 0.39121 0.21262 0.0
O386 O 0.61885 0.36526 0.17937 0.0
O387 O 0.61445 0.3527 0.14966 0.0
O388 O 0.63042 0.24814 0.15017 0.0
O389 O 0.6157 0.23898 0.17976 0.0
O390 O 0.74238 0.37097 0.22705 0.0
O391 O 0.74414 0.37702 0.19711 0.0
O392 O 0.61102 0.3568 0.19858 0.0
O393 O 0.6236 0.35826 0.22816 0.0
C394 C 0.60132 0.36592 0.2149 0.0
O395 O 0.74345 0.3618 0.17822 0.0
O396 O 0.73543 0.36962 0.1487 0.0
C397 C 0.61968 0.22132 0.21532 0.0
C398 C 0.76435 0.37646 0.16223 0.0
Zn399 Zn 0.65399 0.32232 0.04097 0.0
Zn400 Zn 0.65957 0.33709 0.97147 0.0
Zn401 Zn 0.65609 0.3298 1.00665 0.0
C402 C 0.68533 0.26153 0.97948 0.0
C403 C 0.73229 0.43631 0.98408 0.0
O404 O 0.70286 0.41117 0.01824 0.0
O405 O 0.70203 0.39664 0.04771 0.0
C406 C 0.55038 0.28006 0.03125 0.0
O407 O 0.67879 0.27385 0.99573 0.0
O408 O 0.68121 0.28548 0.96595 0.0
O409 O 0.7128 0.41241 0.96932 0.0
O410 O 0.71491 0.41218 0.99939 0.0
O411 O 0.57855 0.29367 0.04534 0.0
O412 O 0.57222 0.29064 0.01538 0.0
O413 O 0.69306 0.28302 0.01463 0.0
O414 O 0.68094 0.27406 0.04434 0.0
C415 C 0.69983 0.26637 0.03005 0.0
O416 O 0.57618 0.30857 0.99691 0.0
O417 O 0.58591 0.31594 0.96698 0.0
C418 C 0.71594 0.42879 0.03463 0.0
C419 C 0.55742 0.3066 0.9809 0.0
Zn420 Zn 0.32387 0.68599 0.8664 0.0
Zn421 Zn 0.31953 0.6634 0.79914 0.0
Zn422 Zn 0.32008 0.67728 0.83265 0.0
C423 C 0.38733 0.63433 0.81028 0.0
C424 C 0.21536 0.60309 0.80871 0.0
O425 O 0.23695 0.63792 0.84314 0.0
O426 O 0.24937 0.64023 0.87283 0.0
C427 C 0.37239 0.78832 0.85452 0.0
O428 O 0.37318 0.64644 0.82531 0.0
O429 O 0.36619 0.63532 0.79554 0.0
O430 O 0.24513 0.61521 0.79504 0.0
O431 O 0.23517 0.62278 0.82444 0.0
O432 O 0.3529 0.7624 0.86896 0.0
O433 O 0.36435 0.76364 0.83924 0.0
O434 O 0.36215 0.63811 0.84445 0.0
O435 O 0.37085 0.65999 0.87347 0.0
C436 C 0.37846 0.63633 0.86061 0.0
O437 O 0.35125 0.75755 0.8201 0.0
O438 O 0.34601 0.73622 0.79111 0.0
C439 C 0.21837 0.62722 0.85952 0.0
C440 C 0.35633 0.77077 0.80313 0.0
Zn441 Zn 0.34551 0.66405 0.05158 0.0
Zn442 Zn 0.33315 0.66921 0.98358 0.0
Zn443 Zn 0.33988 0.67059 0.01756 0.0
C444 C 0.29442 0.73217 0.99486 0.0
C445 C 0.43888 0.71474 0.98962 0.0
O446 O 0.42263 0.69396 0.02476 0.0
O447 O 0.4198 0.68868 0.05476 0.0
C448 C 0.26893 0.56529 0.04216 0.0
O449 O 0.3028 0.71754 1.01041 0.0
O450 O 0.30898 0.71985 0.98047 0.0
O451 O 0.40657 0.69449 0.97671 0.0
O452 O 0.42163 0.70974 1.0061 0.0
O453 O 0.29436 0.58897 0.05624 0.0
O454 O 0.28217 0.58904 0.02663 0.0
O455 O 0.31449 0.72401 0.02935 0.0
O456 O 0.3229 0.71323 0.05859 0.0
C457 C 0.31159 0.73515 0.04613 0.0
O458 O 0.29219 0.58754 1.00758 0.0
O459 O 0.28201 0.59458 0.9782 0.0
C460 C 0.4453 0.69763 0.04013 0.0
C461 C 0.27397 0.56584 0.99195 0.0
Zn462 Zn 0.32444 0.67414 0.55239 0.0
Zn463 Zn 0.33077 0.68382 0.48643 0.0
Zn464 Zn 0.3256 0.67752 0.52097 0.0
C465 C 0.26807 0.72511 0.49716 0.0
C466 C 0.28258 0.576 0.49454 0.0
O467 O 0.30923 0.59769 0.52899 0.0
O468 O 0.35203 0.6262 0.55484 0.0
C469 C 0.40941 0.7677 0.54574 0.0
O470 O 0.27613 0.71149 0.51295 0.0
O471 O 0.28791 0.71731 0.48312 0.0
O472 O 0.29681 0.60732 0.48118 0.0
O473 O 0.29138 0.59441 0.51092 0.0
O474 O 0.37296 0.74956 0.5574 0.0
O475 O 0.40385 0.7414 0.53104 0.0
O476 O 0.26248 0.6921 0.53102 0.0
O477 O 0.2485 0.646 0.5561 0.0
C478 C 0.23345 0.66831 0.54503 0.0
O479 O 0.411 0.72724 0.51337 0.0
O480 O 0.40812 0.72687 0.4833 0.0
C481 C 0.33207 0.5909 0.54277 0.0
C482 C 0.43473 0.73957 0.49778 0.0
Zn483 Zn 0.32548 0.67219 0.30803 0.0
Zn484 Zn 0.31551 0.64943 0.36763 0.0
Zn485 Zn 0.31981 0.65786 0.33805 0.0
C486 C 0.40502 0.65645 0.36164 0.0
C487 C 0.22985 0.56373 0.35573 0.0
O488 O 0.26971 0.69206 0.33158 0.0
O489 O 0.25472 0.66117 0.30354 0.0
C490 C 0.41834 0.74712 0.32067 0.0
O491 O 0.39943 0.6846 0.34941 0.0
O492 O 0.36459 0.62193 0.37 0.0
O493 O 0.2381 0.59942 0.36703 0.0
O494 O 0.26501 0.57333 0.34355 0.0
O495 O 0.3847 0.74598 0.30986 0.0
O496 O 0.40417 0.70892 0.33202 0.0
O497 O 0.28766 0.57917 0.32588 0.0
O498 O 0.33987 0.61456 0.30223 0.0
C499 C 0.31027 0.57418 0.31167 0.0
O500 O 0.29077 0.70838 0.34877 0.0
O501 O 0.34276 0.72602 0.37231 0.0
C502 C 0.24295 0.68063 0.31673 0.0
C503 C 0.31539 0.73799 0.3625 0.0
C504 C 0.19731 0.20761 0.18928 0.0
C505 C 0.19386 0.24153 0.20193 0.0
H506 H 0.15464 0.1406 0.17186 0.0
C507 C 0.14691 0.24264 0.2031 0.0
H508 H 0.23337 0.20667 0.18788 0.0
C509 C 0.10181 0.20456 0.19402 0.0
C510 C 0.10358 0.16585 0.18341 0.0
H511 H 0.14331 0.26886 0.21258 0.0
H512 H 0.06434 0.20126 0.19714 0.0
C513 C 0.15249 0.1705 0.17981 0.0
C514 C 0.79175 -0.0003 0.2023 0.0
C515 C 0.76347 0.96383 0.21632 0.0
H516 H 0.85431 0.02577 0.18284 0.0
C517 C 0.77004 0.92035 0.2192 0.0
H518 H 0.78696 0.03328 0.19975 0.0
C519 C 0.80908 0.91658 0.20972 0.0
C520 C 0.84052 0.95515 0.19685 0.0
H521 H 0.74861 0.89211 0.22993 0.0
H522 H 0.81782 0.88633 0.21358 0.0
C523 C 0.82959 -0.00507 0.19244 0.0
C524 C -0.00112 0.81031 0.20174 0.0
C525 C 0.0232 0.81526 0.21862 0.0
H526 H -0.01153 0.85078 0.17945 0.0
C527 C 0.06542 0.86463 0.22386 0.0
H528 H 0.96624 0.77242 0.19744 0.0
C529 C 0.07752 0.90971 0.21373 0.0
C530 C 0.04808 0.90554 0.19813 0.0
H531 H 0.08456 0.86933 0.23687 0.0
H532 H 0.10547 0.94821 0.21925 0.0
C533 C 0.01198 0.85516 0.19135 0.0
C534 C 0.18955 0.11703 0.28505 0.0
C535 C 0.20645 0.16903 0.29035 0.0
H536 H 0.1388 0.03493 0.29114 0.0
C537 C 0.19528 0.1785 0.30809 0.0
H538 H 0.1971 0.10877 0.27137 0.0
C539 C 0.16221 0.13621 0.31955 0.0
C540 C 0.13889 0.08401 0.31317 0.0
H541 H 0.20741 0.21838 0.31235 0.0
H542 H 0.14936 0.14469 0.33226 0.0
C543 C 0.15621 0.07478 0.29643 0.0
C544 C 0.86883 0.1015 0.29797 0.0
C545 C 0.81834 0.06225 0.30354 0.0
H546 H 0.95156 0.13544 0.30228 0.0
C547 C 0.81168 0.04021 0.32101 0.0
H548 H 0.87495 0.11875 0.28451 0.0
C549 C 0.85563 0.05033 0.33136 0.0
C550 C 0.90634 0.08111 0.32395 0.0
H551 H 0.77296 0.00962 0.32553 0.0
H552 H 0.84943 0.02677 0.34345 0.0
C553 C 0.91277 0.11119 0.30823 0.0
C554 C 0.88368 0.77022 0.29999 0.0
C555 C 0.92276 0.76011 0.30596 0.0
H556 H 0.8522 0.82148 0.3022 0.0
C557 C 0.95075 0.78459 0.32191 0.0
H558 H 0.86187 0.752 0.28765 0.0
C559 C 0.94409 0.82309 0.3306 0.0
C560 C 0.91086 0.8391 0.32299 0.0
H561 H -0.0189 0.77727 0.32675 0.0
H562 H 0.97009 0.84495 0.34177 0.0
C563 C 0.87807 0.80987 0.30837 0.0
C564 C 0.77668 0.79891 0.83823 0.0
C565 C 0.78587 0.77429 0.82346 0.0
H566 H 0.81218 0.85622 0.8594 0.0
C567 C 0.83299 0.7736 0.8228 0.0
H568 H 0.74023 0.79929 0.83914 0.0
C569 C 0.87421 0.80615 0.83458 0.0
C570 C 0.86825 0.83948 0.84682 0.0
H571 H 0.84087 0.75468 0.81158 0.0
H572 H 0.91302 0.81219 0.83186 0.0
C573 C 0.8177 0.83094 0.85004 0.0
C574 C 0.17335 0.96139 0.81783 0.0
C575 C 0.20776 0.00867 0.80876 0.0
H576 H 0.10721 0.92129 0.83566 0.0
C577 C 0.20849 0.05528 0.81373 0.0
H578 H 0.17268 0.92513 0.81457 0.0
C579 C 0.17097 0.05312 0.82602 0.0
C580 C 0.1328 0.00438 0.83342 0.0
H581 H 0.23504 0.09241 0.80704 0.0
H582 H 0.16853 0.08821 0.82826 0.0
C583 C 0.13632 0.95932 0.83008 0.0
C584 C 0.93094 0.15423 0.817 0.0
C585 C -0.02398 0.19412 0.80798 0.0
H586 H 0.89772 0.08238 0.83278 0.0
C587 C 0.02383 0.19507 0.80978 0.0
H588 H 0.89362 0.15274 0.81596 0.0
C589 C 0.02592 0.1552 0.81917 0.0
C590 C -0.01949 0.11371 0.82725 0.0
H591 H 0.0595 0.2255 0.80327 0.0
H592 H 0.06289 0.15571 0.81953 0.0
C593 C 0.93327 0.11428 0.8267 0.0
C594 C 0.86514 0.89032 0.74173 0.0
C595 C 0.81271 0.86083 0.7359 0.0
H596 H 0.94388 0.94964 0.73558 0.0
C597 C 0.79923 0.87223 0.71884 0.0
H598 H 0.87672 0.88293 0.75487 0.0
C599 C 0.83848 0.91072 0.70742 0.0
C600 C 0.89146 0.93856 0.71307 0.0
H601 H 0.75898 0.84988 0.71402 0.0
H602 H 0.82766 0.9175 0.69406 0.0
C603 C 0.90378 0.92874 0.73057 0.0
C604 C 0.10618 0.92521 0.71748 0.0
C605 C 0.16116 0.9501 0.71577 0.0
H606 H 0.03523 0.91555 0.70606 0.0
C607 C 0.18435 0.97052 0.69874 0.0
H608 H 0.08745 0.90959 0.73052 0.0
C609 C 0.15453 0.97506 0.68482 0.0
C610 C 0.10127 0.95865 0.68779 0.0
H611 H 0.22676 -0.00957 0.69713 0.0
H612 H 0.175 -0.00098 0.67304 0.0
C613 C 0.07613 0.92824 0.70333 0.0
C614 C -0.02067 0.2039 0.7038 0.0
C615 C 0.01096 0.23547 0.71823 0.0
H616 H 0.97023 0.15073 0.68234 0.0
C617 C 0.0635 0.24789 0.71919 0.0
H618 H 0.9387 0.19406 0.70274 0.0
C619 C 0.0814 0.22243 0.70764 0.0
C620 C 0.04714 0.1849 0.69486 0.0
H621 H 0.0886 0.27205 0.73021 0.0
H622 H 0.1198 0.22731 0.71015 0.0
C623 C -0.00237 0.17949 0.69197 0.0
C624 C 0.777 0.57104 0.54749 0.0
C625 C 0.82756 0.5874 0.54077 0.0
H626 H 0.6953 0.51072 0.54693 0.0
C627 C 0.833 0.5626 0.52529 0.0
H628 H 0.7721 0.58909 0.55962 0.0
C629 C 0.78896 0.51861 0.51772 0.0
C630 C 0.73927 0.49788 0.52597 0.0
H631 H 0.87182 0.57419 0.52009 0.0
H632 H 0.79495 0.49713 0.50691 0.0
C633 C 0.73312 0.52623 0.54022 0.0
C634 C 0.42664 0.27951 0.52045 0.0
C635 C 0.40258 0.25278 0.53668 0.0
H636 H 0.49171 0.30411 0.50218 0.0
C637 C 0.41778 0.2191 0.54443 0.0
H638 H 0.41579 0.30617 0.51439 0.0
C639 C 0.46199 0.21883 0.53768 0.0
C640 C 0.49062 0.25147 0.52294 0.0
H641 H 0.40023 0.19879 0.5571 0.0
H642 H 0.47751 0.19832 0.54533 0.0
C643 C 0.47 0.27816 0.51342 0.0
C644 C 0.69948 0.16158 0.53931 0.0
C645 C 0.72265 0.17268 0.55668 0.0
H646 H 0.68016 0.19233 0.51604 0.0
C647 C 0.75625 0.22558 0.56168 0.0
H648 H 0.67251 0.12103 0.53531 0.0
C649 C 0.76018 0.26639 0.55074 0.0
C650 C 0.7306 0.25483 0.53464 0.0
H651 H 0.77371 0.23516 0.57512 0.0
H652 H 0.78067 0.30633 0.55608 0.0
C653 C 0.70395 0.20253 0.52823 0.0
C654 C 0.80186 0.57353 0.64154 0.0
C655 C 0.844 0.57562 0.63173 0.0
H656 H 0.73934 0.53069 0.66076 0.0
C657 C 0.86137 0.54089 0.63653 0.0
H658 H 0.78816 0.60046 0.6384 0.0
C659 C 0.83339 0.50107 0.64937 0.0
C660 C 0.78799 0.49567 0.65778 0.0
H661 H 0.894 0.54182 0.62941 0.0
H662 H 0.84479 0.47188 0.65164 0.0
C663 C 0.7743 0.53408 0.65457 0.0
C664 C 0.48491 0.36632 0.62808 0.0
C665 C 0.44501 0.31322 0.6263 0.0
H666 H 0.55803 0.42115 0.64078 0.0
C667 C 0.44353 0.27571 0.63859 0.0
H668 H 0.48684 0.39613 0.61893 0.0
C669 C 0.48358 0.29026 0.65141 0.0
C670 C 0.52623 0.34233 0.65188 0.0
H671 H 0.41264 0.23455 0.63774 0.0
H672 H 0.48342 0.25994 0.65982 0.0
C673 C 0.52544 0.38064 0.64065 0.0
C674 C 0.71331 0.18593 0.65248 0.0
C675 C 0.66681 0.1411 0.64625 0.0
H676 H 0.74698 0.26122 0.66587 0.0
C677 C 0.61798 0.13306 0.65212 0.0
H678 H 0.75159 0.19278 0.64839 0.0
C679 C 0.61557 0.17206 0.66216 0.0
C680 C 0.66187 0.21929 0.66673 0.0
H681 H 0.5815 0.09871 0.64776 0.0
H682 H 0.57734 0.16741 0.66495 0.0
C683 C 0.71083 0.22473 0.66275 0.0
C684 C 0.52445 0.10684 0.1336 0.0
C685 C 0.47564 0.09937 0.13913 0.0
H686 H 0.6078 0.1507 0.13807 0.0
C687 C 0.47122 0.11716 0.15644 0.0
H688 H 0.52883 0.09359 0.1203 0.0
C689 C 0.5162 0.14862 0.16688 0.0
C690 C 0.56622 0.16427 0.15975 0.0
H691 H 0.43376 0.11157 0.16101 0.0
H692 H 0.51223 0.1672 0.17903 0.0
C693 C 0.56964 0.1393 0.14386 0.0
C694 C 0.86916 0.34509 0.15337 0.0
C695 C 0.89474 0.3781 0.13836 0.0
H696 H 0.80931 0.32147 0.17381 0.0
C697 C 0.88613 0.41988 0.13467 0.0
H698 H 0.87539 0.31275 0.15655 0.0
C699 C 0.84756 0.42427 0.14436 0.0
C700 C 0.81822 0.38792 0.15821 0.0
H701 H 0.90524 0.44579 0.12316 0.0
H702 H 0.83724 0.45291 0.1399 0.0
C703 C 0.83187 0.35057 0.16343 0.0
C704 C 0.55796 0.4474 0.13647 0.0
C705 C 0.59363 0.49865 0.14262 0.0
H706 H 0.5327 0.36517 0.13878 0.0
C707 C 0.62135 0.50509 0.15887 0.0
H708 H 0.53644 0.44145 0.12392 0.0
C709 C 0.61805 0.46136 0.1677 0.0
C710 C 0.58835 0.41083 0.16001 0.0
H711 H 0.64909 0.54435 0.16387 0.0
H712 H 0.64386 0.46805 0.17912 0.0
C713 C 0.55576 0.40377 0.14502 0.0
C714 C 0.44036 0.14368 0.03565 0.0
C715 C 0.41762 0.14807 0.05187 0.0
H716 H 0.49895 0.18455 0.01512 0.0
C717 C 0.42822 0.19806 0.05757 0.0
H718 H 0.43233 0.10535 0.03094 0.0
C719 C 0.4671 0.24349 0.0487 0.0
C720 C 0.49472 0.23919 0.0338 0.0
H721 H 0.41108 0.20233 0.07004 0.0
H722 H 0.47984 0.28176 0.05475 0.0
C723 C 0.47789 0.18903 0.02643 0.0
C724 C 0.78941 0.24105 0.05723 0.0
C725 C 0.83726 0.28328 0.05082 0.0
H726 H 0.70538 0.20009 0.05476 0.0
C727 C 0.83862 0.30528 0.03373 0.0
H728 H 0.78743 0.22359 0.0704 0.0
C729 C 0.79181 0.29068 0.02446 0.0
C730 C 0.7431 0.25565 0.03263 0.0
H731 H 0.87525 0.33784 0.0285 0.0
H732 H 0.79373 0.31312 0.01249 0.0
C733 C 0.74242 0.22738 0.04819 0.0
C734 C 0.6988 0.5432 0.04041 0.0
C735 C 0.71546 0.55585 0.05856 0.0
H736 H 0.68919 0.4937 0.01765 0.0
C737 C 0.749 0.5399 0.06581 0.0
H738 H 0.67262 0.55496 0.0346 0.0
C739 C 0.75796 0.50415 0.05618 0.0
C740 C 0.7334 0.4842 0.03926 0.0
H741 H 0.76195 0.54884 0.07982 0.0
H742 H 0.77772 0.48657 0.06306 0.0
C743 C 0.70847 0.50814 0.03066 0.0
C744 C 0.51137 0.89273 0.85987 0.0
C745 C 0.50745 0.91803 0.87554 0.0
H746 H 0.46987 0.83314 0.83969 0.0
C747 C 0.45827 0.91127 0.88024 0.0
H748 H 0.54901 0.89782 0.85583 0.0
C749 C 0.4128 0.87373 0.87109 0.0
C750 C 0.41609 0.84325 0.85693 0.0
H751 H 0.45416 0.93043 0.8922 0.0
H752 H 0.3747 0.86419 0.87645 0.0
C753 C 0.46605 0.85626 0.85043 0.0
C754 C 0.1005 0.58194 0.88883 0.0
C755 C 0.09145 0.62376 0.88588 0.0
H756 H 0.14866 0.54913 0.88201 0.0
C757 C 0.11392 0.65614 0.8705 0.0
H758 H 0.08368 0.55646 0.90059 0.0
C759 C 0.14926 0.6504 0.85939 0.0
C760 C 0.16412 0.6135 0.86391 0.0
H761 H 0.10718 0.68844 0.86786 0.0
H762 H 0.17008 0.6794 0.84879 0.0
C763 C 0.13719 0.57731 0.87806 0.0
C764 C 0.36123 0.50345 0.86769 0.0
C765 C 0.38289 0.51015 0.88521 0.0
H766 H 0.34527 0.53992 0.84536 0.0
C767 C 0.41688 0.5615 0.8916 0.0
H768 H 0.33448 0.46408 0.86255 0.0
C769 C 0.42246 0.60501 0.88186 0.0
C770 C 0.39428 0.59762 0.8656 0.0
H771 H 0.4335 0.56769 0.90513 0.0
H772 H 0.44365 0.64371 0.88815 0.0
C773 C 0.36748 0.54699 0.85781 0.0
C774 C 0.54512 0.79635 0.95713 0.0
C775 C 0.55616 0.8462 0.96312 0.0
H776 H 0.49935 0.71289 0.96184 0.0
C777 C 0.54269 0.85171 0.98101 0.0
H778 H 0.55485 0.79116 0.94335 0.0
C779 C 0.51201 0.80705 0.9918 0.0
C780 C 0.4928 0.75636 0.9845 0.0
H781 H 0.55082 0.88993 0.98588 0.0
H782 H 0.49664 0.8121 1.00457 0.0
C783 C 0.51356 0.75156 0.96779 0.0
C784 C 0.15832 0.70053 0.99179 0.0
C785 C 0.16046 0.72191 0.97451 0.0
H786 H 0.20211 0.69144 0.01314 0.0
C787 C 0.20892 0.76261 0.9679 0.0
H788 H 0.12117 0.66916 0.99716 0.0
C789 C 0.2555 0.7749 0.97695 0.0
C790 C 0.2537 0.74656 0.99264 0.0
H791 H 0.21146 0.77957 0.95459 0.0
H792 H 0.29279 0.80055 0.97022 0.0
C793 C 0.20479 0.71377 1.00105 0.0
C794 C 0.2939 0.45221 0.98804 0.0
C795 C 0.26991 0.43201 0.97114 0.0
H796 H 0.3107 0.50935 1.0089 0.0
C797 C 0.23378 0.44527 0.96438 0.0
H798 H 0.32175 0.4422 0.99353 0.0
C799 C 0.22819 0.48457 0.973 0.0
C800 C 0.25806 0.51021 0.98859 0.0
H801 H 0.21493 0.4302 0.95135 0.0
H802 H 0.20539 0.49912 0.96632 0.0
C803 C 0.28717 0.49037 0.99693 0.0
C804 C 0.15493 0.45099 0.48886 0.0
C805 C 0.16322 0.43565 0.47163 0.0
H806 H 0.18852 0.5077 0.51048 0.0
C807 C 0.21502 0.45691 0.4653 0.0
H808 H 0.11517 0.43591 0.49385 0.0
C809 C 0.25689 0.49846 0.47468 0.0
C810 C 0.24751 0.51919 0.49055 0.0
H811 H 0.22233 0.44649 0.45191 0.0
H812 H 0.29544 0.51869 0.4683 0.0
C813 C 0.19701 0.49223 0.49839 0.0
C814 C 0.55096 0.72255 0.49748 0.0
C815 C 0.57675 0.75068 0.48164 0.0
H816 H 0.48663 0.69997 0.51598 0.0
C817 C 0.56347 0.78635 0.47431 0.0
H818 H 0.5602 0.69433 0.50323 0.0
C819 C 0.52047 0.78861 0.48133 0.0
C820 C 0.491 0.75614 0.49601 0.0
H821 H 0.58224 0.80781 0.46193 0.0
H822 H 0.50698 0.81162 0.47413 0.0
C823 C 0.50904 0.72607 0.50485 0.0
C824 C 0.26742 0.85042 0.49498 0.0
C825 C 0.23887 0.84217 0.47883 0.0
H826 H 0.29666 0.81726 0.51438 0.0
C827 C 0.20764 0.79053 0.47221 0.0
H828 H 0.2926 0.89016 0.50011 0.0
C829 C 0.21086 0.74904 0.48013 0.0
C830 C 0.24467 0.75861 0.49493 0.0
H831 H 0.18625 0.78344 0.45956 0.0
H832 H 0.19174 0.71092 0.47341 0.0
C833 C 0.26967 0.80865 0.50317 0.0
C834 C 0.15817 0.43102 0.37674 0.0
C835 C 0.11247 0.43051 0.38262 0.0
H836 H 0.23165 0.47399 0.36236 0.0
C837 C 0.10023 0.46658 0.37494 0.0
H838 H 0.16816 0.40306 0.38219 0.0
C839 C 0.13632 0.50666 0.3635 0.0
C840 C 0.18483 0.51092 0.35943 0.0
H841 H 0.06495 0.4667 0.37894 0.0
H842 H 0.12868 0.53748 0.35936 0.0
C843 C 0.19412 0.47097 0.36512 0.0
C844 C 0.50411 0.64662 0.39067 0.0
C845 C 0.54181 0.70023 0.39312 0.0
H846 H 0.43099 0.59051 0.37829 0.0
C847 C 0.53943 0.7381 0.38207 0.0
H848 H 0.50512 0.61652 0.39884 0.0
C849 C 0.49752 0.72312 0.37001 0.0
C850 C 0.45688 0.67013 0.36906 0.0
H851 H 0.56854 0.77973 0.38341 0.0
H852 H 0.49468 0.75351 0.36269 0.0
C853 C 0.4618 0.63175 0.37884 0.0
C854 C 0.2441 0.80422 0.37978 0.0
C855 C 0.28316 0.84385 0.39088 0.0
H856 H 0.22436 0.74024 0.36131 0.0
C857 C 0.33512 0.85467 0.38956 0.0
H858 H 0.20379 0.79561 0.38035 0.0
C859 C 0.34662 0.82268 0.37881 0.0
C860 C 0.30658 0.78015 0.36896 0.0
H861 H 0.36601 0.8851 0.39787 0.0
H862 H 0.38615 0.82904 0.37913 0.0
C863 C 0.25587 0.77289 0.36873 0.0
C864 C 0.15974 0.94458 0.12 0.0
C865 C 0.20255 -0.0121 0.12849 0.0
H866 H 0.07566 0.89686 0.11847 0.0
C867 C 0.19452 0.00703 0.14495 0.0
H868 H 0.16512 0.92883 0.10738 0.0
C869 C 0.1436 -0.01257 0.15166 0.0
C870 C 0.10011 0.94984 0.1416 0.0
H871 H 0.22722 0.03983 0.15191 0.0
H872 H 0.13826 0.00663 0.16338 0.0
C873 C 0.10863 0.92596 0.12644 0.0
C874 C 0.02392 0.21696 0.13515 0.0
C875 C 0.01482 0.22175 0.11669 0.0
H876 H 0.03164 0.16912 0.15548 0.0
C877 C 0.01565 0.18658 0.10404 0.0
H878 H 0.02363 0.24395 0.14514 0.0
C879 C 0.02184 0.1451 0.10983 0.0
C880 C 0.02581 0.13681 0.12847 0.0
H881 H 0.00965 0.19007 0.0897 0.0
H882 H 0.02006 0.11748 0.09967 0.0
C883 C 0.02887 0.17436 0.14107 0.0
C884 C 0.77876 0.77742 0.14779 0.0
C885 C 0.74449 0.77446 0.13403 0.0
H886 H 0.84762 0.82796 0.1634 0.0
C887 C 0.747 0.82086 0.12795 0.0
H888 H 0.77715 0.74192 0.15272 0.0
C889 C 0.78798 0.87007 0.13379 0.0
C890 C 0.82551 0.87307 0.1462 0.0
H891 H 0.72091 0.81931 0.11731 0.0
H892 H 0.79345 0.90554 0.12726 0.0
C893 C 0.81847 0.82654 0.15411 0.0
C894 C 0.9345 0.13444 0.41432 0.0
C895 C 0.95009 0.18093 0.4046 0.0
H896 H 0.91667 0.05473 0.41334 0.0
C897 C 0.95247 0.1803 0.38548 0.0
H898 H 0.93167 0.1339 0.42903 0.0
C899 C 0.94556 0.13531 0.37637 0.0
C900 C 0.93507 0.09023 0.38633 0.0
H901 H 0.96428 0.21597 0.37772 0.0
H902 H 0.95279 0.13748 0.36186 0.0
C903 C 0.9258 0.08912 0.40523 0.0
C904 C 0.79793 0.82547 0.38728 0.0
C905 C 0.79928 0.80672 0.40469 0.0
H906 H 0.84152 0.86655 0.36358 0.0
C907 C 0.84467 0.80683 0.41031 0.0
H908 H 0.76284 0.82482 0.38257 0.0
C909 C 0.8903 0.83148 0.39952 0.0
C910 C 0.89066 0.8555 0.38287 0.0
H911 H 0.84624 0.79201 0.42364 0.0
H912 H 0.92645 0.83599 0.40496 0.0
C913 C 0.8429 0.8487 0.3763 0.0
C914 C 0.20311 0.05758 0.40074 0.0
C915 C 0.19489 0.00735 0.39673 0.0
H916 H 0.18019 0.1142 0.3946 0.0
C917 C 0.17013 0.98267 0.38036 0.0
H918 H 0.22282 0.0776 0.41318 0.0
C919 C 0.148 0.00473 0.36927 0.0
C920 C 0.14815 0.0504 0.37493 0.0
H921 H 0.16452 0.94437 0.37681 0.0
H922 H 0.12414 0.98175 0.35784 0.0
C923 C 0.17956 0.07895 0.38991 0.0
C924 C 0.78951 0.00259 0.87787 0.0
C925 C 0.78416 0.0327 0.89161 0.0
H926 H 0.84222 -0.01388 0.86317 0.0
C927 C 0.82943 0.07521 0.89933 0.0
H928 H 0.75498 0.96977 0.87169 0.0
C929 C 0.87922 0.0837 0.89481 0.0
C930 C 0.8843 0.05097 0.88205 0.0
H931 H 0.82608 0.09882 0.90998 0.0
H932 H 0.91335 0.11339 0.90218 0.0
C933 C 0.83938 0.01234 0.87286 0.0
C934 C -0.01788 0.81975 0.92424 0.0
C935 C -0.02219 0.78195 0.9117 0.0
H936 H -0.01901 0.89053 0.92866 0.0
C937 C 0.96285 0.78382 0.89371 0.0
H938 H -0.00728 0.81853 0.93828 0.0
C939 C 0.95698 0.82598 0.888 0.0
C940 C 0.96508 0.86604 0.90034 0.0
H941 H 0.95906 0.75474 0.88384 0.0
H942 H 0.94904 0.82862 0.87377 0.0
C943 C -0.02485 0.86092 0.91871 0.0
C944 C 0.22936 0.19221 0.89961 0.0
C945 C 0.22864 0.23461 0.89119 0.0
H946 H 0.18972 0.10799 0.90227 0.0
C947 C 0.19898 0.22541 0.87525 0.0
H948 H 0.25207 0.19837 0.91188 0.0
C949 C 0.16493 0.17375 0.86932 0.0
C950 C 0.159 0.13103 0.87967 0.0
H951 H 0.19835 0.2577 0.86842 0.0
H952 H 0.13781 0.16734 0.85835 0.0
C953 C 0.19414 0.14049 0.89399 0.0
C954 C -0.01365 0.82713 0.62994 0.0
C955 C -0.00131 0.82865 0.61141 0.0
H956 H -0.01051 0.87185 0.65338 0.0
C957 C 0.03326 0.87713 0.60315 0.0
H958 H 0.95965 0.78979 0.6365 0.0
C959 C 0.05034 0.92411 0.61277 0.0
C960 C 0.03269 0.92293 0.63069 0.0
H961 H 0.04313 0.87889 0.58886 0.0
H962 H 0.07275 0.9613 0.60557 0.0
C963 C 0.00387 0.87408 0.63963 0.0
C964 C 0.14969 0.22226 0.60895 0.0
C965 C 0.19245 0.21806 0.6149 0.0
H966 H 0.06873 0.19788 0.61357 0.0
C967 C 0.1916 0.19876 0.6324 0.0
H968 H 0.15014 0.23795 0.59558 0.0
C969 C 0.14613 0.17803 0.64302 0.0
C970 C 0.10017 0.17409 0.63584 0.0
H971 H 0.22495 0.19653 0.63737 0.0
H972 H 0.14515 0.15883 0.65571 0.0
C973 C 0.10349 0.20004 0.61936 0.0
C974 C 0.76198 0.93558 0.626 0.0
C975 C 0.75072 0.97276 0.63314 0.0
H976 H 0.81199 0.90296 0.62744 0.0
C977 C 0.77307 -0.00265 0.64981 0.0
H978 H 0.74478 0.916 0.61322 0.0
C979 C 0.81164 -0.01004 0.65802 0.0
C980 C 0.82823 0.95826 0.64947 0.0
H981 H 0.76448 0.02609 0.65554 0.0
H982 H 0.83316 0.01445 0.66955 0.0
C983 C 0.79984 0.92763 0.63432 0.0
C984 C 0.85764 0.31133 0.46511 0.0
C985 C 0.90032 0.36358 0.46362 0.0
H986 H 0.77613 0.26154 0.47253 0.0
C987 C 0.89645 0.40451 0.47193 0.0
H988 H 0.85958 0.27891 0.45896 0.0
C989 C 0.84933 0.39428 0.47995 0.0
C990 C 0.80525 0.34302 0.47989 0.0
H991 H 0.92886 0.44504 0.47131 0.0
H992 H 0.84597 0.42724 0.48482 0.0
C993 C 0.81016 0.30117 0.47311 0.0
C994 C 0.61938 0.5093 0.45277 0.0
C995 C 0.6539 0.55851 0.46069 0.0
H996 H 0.59402 0.42738 0.45117 0.0
C997 C 0.68939 0.56154 0.4741 0.0
H998 H 0.59141 0.50537 0.44248 0.0
C999 C 0.69064 0.51619 0.47926 0.0
C1000 C 0.65683 0.46731 0.47094 0.0
H1001 H 0.71641 0.59894 0.4805 0.0
H1002 H 0.71892 0.5197 0.48931 0.0
C1003 C 0.62099 0.46448 0.45777 0.0
C1004 C 0.43107 0.13754 0.47036 0.0
C1005 C 0.43359 0.10242 0.45792 0.0
H1006 H 0.47442 0.20943 0.4857 0.0
C1007 C 0.48312 0.11209 0.45222 0.0
H1008 H 0.39339 0.13093 0.47509 0.0
C1009 C 0.529 0.15648 0.45834 0.0
C1010 C 0.52677 0.19245 0.47039 0.0
H1011 H 0.4866 0.0857 0.44279 0.0
H1012 H 0.56645 0.16294 0.45338 0.0
C1013 C 0.47738 0.1822 0.47658 0.0
C1014 C 0.6541 0.57002 0.71839 0.0
C1015 C 0.69818 0.59911 0.72962 0.0
H1016 H 0.61142 0.50149 0.70155 0.0
C1017 C 0.7385 0.58696 0.72955 0.0
H1018 H 0.62259 0.57868 0.71804 0.0
C1019 C 0.73275 0.54376 0.71959 0.0
C1020 C 0.68645 0.51193 0.70975 0.0
H1021 H 0.77325 0.60915 0.73789 0.0
H1022 H 0.76218 0.53239 0.72096 0.0
C1023 C 0.64803 0.52638 0.70871 0.0
C1024 C 0.4496 0.14892 0.72382 0.0
C1025 C 0.40793 0.15829 0.7264 0.0
H1026 H 0.52918 0.18048 0.71493 0.0
C1027 C 0.41217 0.20447 0.71892 0.0
H1028 H 0.44751 0.11357 0.72914 0.0
C1029 C 0.45891 0.24246 0.71039 0.0
C1030 C 0.5019 0.23476 0.70936 0.0
H1031 H 0.38043 0.21253 0.72044 0.0
H1032 H 0.46287 0.27947 0.70601 0.0
C1033 C 0.49618 0.18693 0.71549 0.0
C1034 C 0.77921 0.25471 0.72896 0.0
C1035 C 0.82054 0.2891 0.74058 0.0
H1036 H 0.71757 0.24496 0.71097 0.0
C1037 C 0.83314 0.34181 0.74211 0.0
H1038 H 0.76918 0.21403 0.72728 0.0
C1039 C 0.80361 0.35922 0.73289 0.0
C1040 C 0.76145 0.3246 0.72167 0.0
H1041 H 0.86501 0.36937 0.7508 0.0
H1042 H 0.81311 0.39966 0.73484 0.0
C1043 C 0.75017 0.2725 0.71942 0.0
C1044 C 0.50262 0.38039 0.24293 0.0
C1045 C 0.46312 0.36914 0.23021 0.0
H1046 H 0.57869 0.39162 0.24783 0.0
C1047 C 0.47315 0.36619 0.21165 0.0
H1048 H 0.49585 0.38314 0.25729 0.0
C1049 C 0.52032 0.36938 0.20615 0.0
C1050 C 0.55844 0.37678 0.21913 0.0
H1051 H 0.44291 0.35718 0.20161 0.0
H1052 H 0.52505 0.36224 0.19203 0.0
C1053 C 0.55009 0.38519 0.23742 0.0
C1054 C 0.6228 0.09514 0.21552 0.0
C1055 C 0.61243 0.08204 0.23408 0.0
H1056 H 0.63256 0.15048 0.19454 0.0
C1057 C 0.59216 0.10695 0.24474 0.0
H1058 H 0.63874 0.07637 0.20709 0.0
C1059 C 0.58703 0.14781 0.23747 0.0
C1060 C 0.60409 0.16603 0.21961 0.0
H1061 H 0.58363 0.09723 0.25903 0.0
H1062 H 0.57474 0.16873 0.24647 0.0
C1063 C 0.61892 0.13727 0.2083 0.0
C1064 C 0.88096 0.4989 0.23775 0.0
C1065 C 0.88203 0.54248 0.22958 0.0
H1066 H 0.84377 0.41446 0.23813 0.0
C1067 C 0.8575 0.53588 0.21261 0.0
H1068 H 0.89976 0.50302 0.25078 0.0
C1069 C 0.82692 0.48551 0.20504 0.0
C1070 C 0.81899 0.44088 0.21468 0.0
H1071 H 0.85844 0.56916 0.20592 0.0
H1072 H 0.80401 0.48117 0.19298 0.0
C1073 C 0.84927 0.44828 0.2304 0.0
C1074 C 0.62681 0.11654 0.97536 0.0
C1075 C 0.64954 0.11372 0.95888 0.0
H1076 H 0.62334 0.16686 0.99569 0.0
C1077 C 0.69378 0.15946 0.95207 0.0
H1078 H 0.59305 0.08158 0.981 0.0
C1079 C 0.7106 0.20837 0.96034 0.0
C1080 C 0.68431 0.21187 0.97578 0.0
H1081 H 0.71215 0.15827 0.93944 0.0
H1082 H 0.741 0.24392 0.95374 0.0
C1083 C 0.64467 0.16521 0.98392 0.0
C1084 C 0.84283 0.55337 0.96166 0.0
C1085 C 0.88497 0.54882 0.96822 0.0
H1086 H 0.75925 0.52068 0.96213 0.0
C1087 C 0.87726 0.51731 0.98359 0.0
H1088 H 0.84789 0.5778 0.94993 0.0
C1089 C 0.82695 0.48641 0.99107 0.0
C1090 C 0.78358 0.48536 0.98284 0.0
H1091 H 0.90945 0.51395 0.98909 0.0
H1092 H 0.82117 0.45862 1.00178 0.0
C1093 C 0.79225 0.52127 0.96879 0.0
C1094 C 0.4348 0.28182 0.95751 0.0
C1095 C 0.43666 0.32949 0.96137 0.0
H1096 H 0.47253 0.23648 0.96109 0.0
C1097 C 0.47138 0.36312 0.97481 0.0
H1098 H 0.40817 0.25517 0.94725 0.0
C1099 C 0.50616 0.35101 0.98338 0.0
C1100 C 0.50787 0.30599 0.97822 0.0
H1101 H 0.47302 0.39979 0.97817 0.0
H1102 H 0.5352 0.37952 0.9927 0.0
C1103 C 0.47094 0.27069 0.96561 0.0
C1104 C 0.53179 0.6926 0.81271 0.0
C1105 C 0.54095 0.67473 0.79614 0.0
H1106 H 0.47448 0.6905 0.83107 0.0
C1107 C 0.49878 0.63203 0.78723 0.0
H1108 H 0.56404 0.72507 0.81995 0.0
C1109 C 0.44723 0.61249 0.79351 0.0
C1110 C 0.43756 0.63499 0.8089 0.0
H1111 H 0.50507 0.61744 0.7745 0.0
H1112 H 0.41476 0.58371 0.78529 0.0
C1113 C 0.48051 0.67222 0.81923 0.0
C1114 C 0.36673 0.87485 0.77079 0.0
C1115 C 0.35805 0.90755 0.78228 0.0
H1116 H 0.37617 0.80808 0.76849 0.0
C1117 C 0.35824 0.90083 0.80126 0.0
H1118 H 0.3672 0.87948 0.75615 0.0
C1119 C 0.36195 0.85859 0.80849 0.0
C1120 C 0.36649 0.82322 0.79681 0.0
H1121 H 0.35139 0.92558 0.81041 0.0
H1122 H 0.35766 0.85166 0.82303 0.0
C1123 C 0.37181 0.83384 0.77796 0.0
C1124 C 0.08926 0.47149 0.81228 0.0
C1125 C 0.07282 0.46519 0.794 0.0
H1126 H 0.14835 0.52184 0.8317 0.0
C1127 C 0.09622 0.509 0.78238 0.0
H1128 H 0.07161 0.43808 0.8215 0.0
C1129 C 0.13856 0.55686 0.78832 0.0
C1130 C 0.15961 0.56159 0.80586 0.0
H1131 H 0.08378 0.50538 0.76832 0.0
H1132 H 0.15804 0.58881 0.77857 0.0
C1133 C 0.13282 0.5195 0.81818 0.0
C1134 C 0.31174 0.86398 0.04654 0.0
C1135 C 0.30796 0.86985 0.06538 0.0
H1136 H 0.31604 0.81584 0.02535 0.0
C1137 C 0.29626 0.82772 0.07702 0.0
H1138 H 0.32072 0.89631 0.03735 0.0
C1139 C 0.29201 0.78166 0.07021 0.0
C1140 C 0.30112 0.77731 0.05164 0.0
H1141 H 0.29246 0.83124 0.09156 0.0
H1142 H 0.28505 0.75075 0.07979 0.0
C1143 C 0.30877 0.81795 0.03968 0.0
C1144 C 0.12272 0.48645 0.04395 0.0
C1145 C 0.11486 0.45683 0.05986 0.0
H1146 H 0.17862 0.54203 0.02497 0.0
C1147 C 0.1571 0.45351 0.06704 0.0
H1148 H 0.09051 0.48887 0.03797 0.0
C1149 C 0.20772 0.48449 0.05974 0.0
C1150 C 0.21645 0.51807 0.04487 0.0
H1151 H 0.15194 0.43056 0.07921 0.0
H1152 H 0.24064 0.48557 0.06664 0.0
C1153 C 0.17302 0.51616 0.03632 0.0
C1154 C 0.52062 0.6306 0.04301 0.0
C1155 C 0.54998 0.65463 0.05881 0.0
H1156 H 0.46657 0.6292 0.02333 0.0
C1157 C 0.55719 0.70363 0.06428 0.0
H1158 H 0.51534 0.59332 0.03827 0.0
C1159 C 0.52907 0.72405 0.05573 0.0
C1160 C 0.49421 0.69622 0.04143 0.0
H1161 H 0.5801 0.72336 0.07628 0.0
H1162 H 0.52968 0.75805 0.0617 0.0
C1163 C 0.49362 0.6518 0.03418 0.0
C1164 C 0.1035 0.63047 0.56729 0.0
C1165 C 0.09289 0.66867 0.56058 0.0
H1166 H 0.1553 0.6001 0.56739 0.0
C1167 C 0.12747 0.70542 0.54761 0.0
H1168 H 0.07757 0.60128 0.57714 0.0
C1169 C 0.17253 0.70464 0.54188 0.0
C1170 C 0.18372 0.66725 0.54909 0.0
H1171 H 0.12015 0.73519 0.5421 0.0
H1172 H 0.19929 0.73418 0.53232 0.0
C1173 C 0.14821 0.6298 0.56165 0.0
C1174 C 0.29823 0.44805 0.54412 0.0
C1175 C 0.33907 0.45248 0.55528 0.0
H1176 H 0.26409 0.48898 0.53103 0.0
C1177 C 0.37947 0.50286 0.56054 0.0
H1178 H 0.26675 0.40964 0.53972 0.0
C1179 C 0.37784 0.54759 0.55563 0.0
C1180 C 0.33596 0.54328 0.54522 0.0
H1181 H 0.4118 0.50782 0.56894 0.0
H1182 H 0.40897 0.58573 0.56041 0.0
C1183 C 0.29683 0.4933 0.53903 0.0
C1184 C 0.48151 0.90979 0.55854 0.0
C1185 C 0.52585 0.91476 0.5675 0.0
H1186 H 0.41065 0.85904 0.5439 0.0
C1187 C 0.5365 0.87337 0.56597 0.0
H1188 H 0.47243 0.94108 0.55916 0.0
C1189 C 0.50105 0.82634 0.55694 0.0
C1190 C 0.45504 0.82051 0.54913 0.0
H1191 H 0.57049 0.87609 0.57263 0.0
H1192 H 0.5076 0.79332 0.55721 0.0
C1193 C 0.44649 0.86316 0.54951 0.0
C1194 C 0.23691 0.43171 0.29681 0.0
C1195 C 0.27488 0.43016 0.28558 0.0
H1196 H 0.21889 0.47859 0.31449 0.0
C1197 C 0.32622 0.47404 0.28512 0.0
H1198 H 0.19713 0.39811 0.29763 0.0
C1199 C 0.33832 0.51992 0.29461 0.0
C1200 C 0.29964 0.5225 0.305 0.0
H1201 H 0.35638 0.47395 0.27672 0.0
H1202 H 0.37756 0.55419 0.29326 0.0
C1203 C 0.24937 0.47744 0.30661 0.0
C1204 C 0.55986 0.80738 0.30757 0.0
C1205 C 0.56869 0.8545 0.29933 0.0
H1206 H 0.50468 0.73623 0.32161 0.0
C1207 C 0.53175 0.87043 0.30198 0.0
H1208 H 0.58813 0.79452 0.30608 0.0
C1209 C 0.48454 0.83735 0.31097 0.0
C1210 C 0.47352 0.78792 0.31755 0.0
H1211 H 0.53776 0.90694 0.29617 0.0
H1212 H 0.45493 0.84868 0.31158 0.0
C1213 C 0.51253 0.77431 0.3167 0.0
C1214 C 0.10623 0.65417 0.31003 0.0
C1215 C 0.11569 0.69431 0.29753 0.0
H1216 H 0.1405 0.61939 0.32661 0.0
C1217 C 0.1679 0.73502 0.29434 0.0
H1218 H 0.06643 0.62251 0.31289 0.0
C1219 C 0.20987 0.73352 0.30239 0.0
C1220 C 0.20047 0.69172 0.31394 0.0
H1221 H 0.17655 0.7668 0.28493 0.0
H1222 H 0.24982 0.76313 0.29863 0.0
C1223 C 0.14843 0.65279 0.31813 0.0
loop_
_geom_bond_atom_site_label_1
_geom_bond_atom_site_label_2
_geom_bond_distance
_geom_bond_site_symmetry_2
_ccdc_geom_bond_type
C0 O1 1.306 . S
C0 O3 1.160 . S
O1 C0 1.306 . S
O1 Cd2 2.228 . S
Cd2 O1 2.228 . S
Cd2 O6 2.273 . S
Cd2 O10 2.277 . S
O3 C0 1.160 . S
O3 Cd4 2.203 1_565 S
Cd4 O3 2.203 1_545 S
Cd4 O6 2.411 1_545 S
Cd4 O7 2.333 . S
Cd4 O8 2.352 . S
Cd4 O12 2.277 . S
Cd4 O13 2.356 . S
C5 O10 1.209 1_545 S
C5 O12 1.226 . S
O6 Cd2 2.273 . S
O6 Cd4 2.411 1_565 S
O6 C9 1.320 1_565 S
O7 Cd4 2.333 . S
O7 C9 1.214 . S
O8 Cd4 2.352 . S
O8 C11 1.258 . S
C9 O6 1.320 1_545 S
C9 O7 1.214 . S
O10 Cd2 2.277 . S
O10 C5 1.209 1_565 S
C11 O8 1.258 . S
C11 O13 1.282 . S
O12 Cd4 2.277 . S
O12 C5 1.226 . S
O13 Cd4 2.356 . S
O13 C11 1.282 . S
C14 O15 1.306 . S
C14 O17 1.160 . S
O15 C14 1.306 . S
O15 Cd16 2.228 . S
Cd16 O15 2.228 . S
Cd16 O20 2.273 . S
Cd16 O24 2.277 . S
O17 C14 1.160 . S
O17 Cd18 2.203 1_655 S
Cd18 O17 2.203 1_455 S
Cd18 O20 2.411 1_455 S
Cd18 O21 2.333 . S
Cd18 O22 2.352 . S
Cd18 O26 2.277 . S
Cd18 O27 2.356 . S
C19 O24 1.209 1_455 S
C19 O26 1.226 . S
O20 Cd16 2.273 . S
O20 Cd18 2.411 1_655 S
O20 C23 1.320 1_655 S
O21 Cd18 2.333 . S
O21 C23 1.214 . S
O22 Cd18 2.352 . S
O22 C25 1.258 . S
C23 O20 1.320 1_455 S
C23 O21 1.214 . S
O24 Cd16 2.277 . S
O24 C19 1.209 1_655 S
C25 O22 1.258 . S
C25 O27 1.282 . S
O26 Cd18 2.277 . S
O26 C19 1.226 . S
O27 Cd18 2.356 . S
O27 C25 1.282 . S
C28 O29 1.306 . S
C28 O31 1.160 . S
O29 C28 1.306 . S
O29 Cd30 2.228 . S
Cd30 O29 2.228 . S
Cd30 O34 2.273 . S
Cd30 O38 2.277 . S
O31 C28 1.160 . S
O31 Cd32 2.203 . S
Cd32 O31 2.203 . S
Cd32 O34 2.411 . S
Cd32 O35 2.333 . S
Cd32 O36 2.352 . S
Cd32 O40 2.277 . S
Cd32 O41 2.356 . S
C33 O38 1.209 . S
C33 O40 1.226 . S
O34 Cd30 2.273 . S
O34 Cd32 2.411 . S
O34 C37 1.320 . S
O35 Cd32 2.333 . S
O35 C37 1.214 . S
O36 Cd32 2.352 . S
O36 C39 1.258 . S
C37 O34 1.320 . S
C37 O35 1.214 . S
O38 Cd30 2.277 . S
O38 C33 1.209 . S
C39 O36 1.258 . S
C39 O41 1.282 . S
O40 Cd32 2.277 . S
O40 C33 1.226 . S
O41 Cd32 2.356 . S
O41 C39 1.282 . S
C42 O43 1.306 . S
C42 O45 1.160 . S
O43 C42 1.306 . S
O43 Cd44 2.228 . S
Cd44 O43 2.228 . S
Cd44 O48 2.273 . S
Cd44 O52 2.277 . S
O45 C42 1.160 . S
O45 Cd46 2.207 . S
Cd46 O45 2.207 . S
Cd46 O48 2.430 . S
Cd46 O49 2.336 1_545 S
Cd46 O50 2.339 1_545 S
Cd46 O54 2.278 1_545 S
Cd46 O55 2.332 1_545 S
C47 O52 1.209 . S
C47 O54 1.226 1_545 S
O48 Cd44 2.273 . S
O48 Cd46 2.430 . S
O48 C51 1.320 . S
O49 Cd46 2.336 1_565 S
O49 C51 1.214 1_565 S
O50 Cd46 2.339 1_565 S
O50 C53 1.258 . S
C51 O48 1.320 . S
C51 O49 1.214 1_545 S
O52 Cd44 2.277 . S
O52 C47 1.209 . S
C53 O50 1.258 . S
C53 O55 1.282 . S
O54 Cd46 2.278 1_565 S
O54 C47 1.226 1_565 S
O55 Cd46 2.332 1_565 S
O55 C53 1.282 . S
C56 O57 1.306 . S
C56 O59 1.160 . S
O57 C56 1.306 . S
O57 Cd58 2.228 . S
Cd58 O57 2.228 . S
Cd58 O62 2.273 . S
Cd58 O66 2.277 . S
O59 C56 1.160 . S
O59 Cd60 2.203 1_655 S
Cd60 O59 2.203 1_455 S
Cd60 O62 2.411 1_455 S
Cd60 O63 2.333 . S
Cd60 O64 2.352 . S
Cd60 O68 2.277 . S
Cd60 O69 2.356 . S
C61 O66 1.209 1_455 S
C61 O68 1.226 . S
O62 Cd58 2.273 . S
O62 Cd60 2.411 1_655 S
O62 C65 1.320 1_655 S
O63 Cd60 2.333 . S
O63 C65 1.214 . S
O64 Cd60 2.352 . S
O64 C67 1.258 . S
C65 O62 1.320 1_455 S
C65 O63 1.214 . S
O66 Cd58 2.277 . S
O66 C61 1.209 1_655 S
C67 O64 1.258 . S
C67 O69 1.282 . S
O68 Cd60 2.277 . S
O68 C61 1.226 . S
O69 Cd60 2.356 . S
O69 C67 1.282 . S
C70 O71 1.306 . S
C70 O73 1.160 . S
O71 C70 1.306 . S
O71 Cd72 2.228 . S
Cd72 O71 2.228 . S
Cd72 O76 2.273 . S
Cd72 O80 2.277 . S
O73 C70 1.160 . S
O73 Cd74 2.203 . S
Cd74 O73 2.203 . S
Cd74 O76 2.411 . S
Cd74 O77 2.333 . S
Cd74 O78 2.352 . S
Cd74 O82 2.277 . S
Cd74 O83 2.356 . S
C75 O80 1.209 . S
C75 O82 1.226 . S
O76 Cd72 2.273 . S
O76 Cd74 2.411 . S
O76 C79 1.320 . S
O77 Cd74 2.333 . S
O77 C79 1.214 . S
O78 Cd74 2.352 . S
O78 C81 1.258 . S
C79 O76 1.320 . S
C79 O77 1.214 . S
O80 Cd72 2.277 . S
O80 C75 1.209 . S
C81 O78 1.258 . S
C81 O83 1.282 . S
O82 Cd74 2.277 . S
O82 C75 1.226 . S
O83 Cd74 2.356 . S
O83 C81 1.282 . S
C84 O85 1.306 . S
C84 O87 1.160 . S
O85 C84 1.306 . S
O85 Cd86 2.228 . S
Cd86 O85 2.228 . S
Cd86 O90 2.273 . S
Cd86 O94 2.277 . S
O87 C84 1.160 . S
O87 Cd88 2.203 . S
Cd88 O87 2.203 . S
Cd88 O90 2.411 . S
Cd88 O91 2.333 . S
Cd88 O92 2.352 . S
Cd88 O96 2.277 . S
Cd88 O97 2.356 . S
C89 O94 1.209 . S
C89 O96 1.226 . S
O90 Cd86 2.273 . S
O90 Cd88 2.411 . S
O90 C93 1.320 . S
O91 Cd88 2.333 . S
O91 C93 1.214 . S
O92 Cd88 2.352 . S
O92 C95 1.258 . S
C93 O90 1.320 . S
C93 O91 1.214 . S
O94 Cd86 2.277 . S
O94 C89 1.209 . S
C95 O92 1.258 . S
C95 O97 1.282 . S
O96 Cd88 2.277 . S
O96 C89 1.226 . S
O97 Cd88 2.356 . S
O97 C95 1.282 . S
C98 O99 1.306 . S
C98 O101 1.159 . S
O99 C98 1.306 . S
O99 Cd100 2.228 1_565 S
Cd100 O99 2.228 1_545 S
Cd100 O104 2.273 . S
Cd100 O108 2.277 . S
O101 C98 1.159 . S
O101 Cd102 2.199 1_565 S
Cd102 O101 2.199 1_545 S
Cd102 O104 2.411 . S
Cd102 O105 2.333 . S
Cd102 O106 2.352 . S
Cd102 O110 2.277 . S
Cd102 O111 2.356 . S
C103 O108 1.209 . S
C103 O110 1.226 . S
O104 Cd100 2.273 . S
O104 Cd102 2.411 . S
O104 C107 1.320 . S
O105 Cd102 2.333 . S
O105 C107 1.214 . S
O106 Cd102 2.352 . S
O106 C109 1.258 . S
C107 O104 1.320 . S
C107 O105 1.214 . S
O108 Cd100 2.277 . S
O108 C103 1.209 . S
C109 O106 1.258 . S
C109 O111 1.282 . S
O110 Cd102 2.277 . S
O110 C103 1.226 . S
O111 Cd102 2.356 . S
O111 C109 1.282 . S
C112 O113 1.306 . S
C112 O115 1.160 1_655 S
O113 C112 1.306 . S
O113 Cd114 2.228 . S
Cd114 O113 2.228 . S
Cd114 O118 2.273 . S
Cd114 O122 2.277 . S
O115 C112 1.160 1_455 S
O115 Cd116 2.203 1_455 S
Cd116 O115 2.203 1_655 S
Cd116 O118 2.411 . S
Cd116 O119 2.333 . S
Cd116 O120 2.352 1_655 S
Cd116 O124 2.277 . S
Cd116 O125 2.356 1_655 S
C117 O122 1.209 . S
C117 O124 1.226 . S
O118 Cd114 2.273 . S
O118 Cd116 2.411 . S
O118 C121 1.320 . S
O119 Cd116 2.333 . S
O119 C121 1.214 . S
O120 Cd116 2.352 1_455 S
O120 C123 1.258 . S
C121 O118 1.320 . S
C121 O119 1.214 . S
O122 Cd114 2.277 . S
O122 C117 1.209 . S
C123 O120 1.258 . S
C123 O125 1.282 . S
O124 Cd116 2.277 . S
O124 C117 1.226 . S
O125 Cd116 2.356 1_455 S
O125 C123 1.282 . S
C126 O127 1.306 . S
C126 O129 1.160 . S
O127 C126 1.306 . S
O127 Cd128 2.228 1_455 S
Cd128 O127 2.228 1_655 S
Cd128 O132 2.273 . S
Cd128 O136 2.277 . S
O129 C126 1.160 . S
O129 Cd130 2.203 1_455 S
Cd130 O129 2.203 1_655 S
Cd130 O132 2.411 . S
Cd130 O133 2.333 . S
Cd130 O134 2.352 1_655 S
Cd130 O138 2.277 . S
Cd130 O139 2.356 . S
C131 O136 1.209 . S
C131 O138 1.226 . S
O132 Cd128 2.273 . S
O132 Cd130 2.411 . S
O132 C135 1.320 . S
O133 Cd130 2.333 . S
O133 C135 1.214 . S
O134 Cd130 2.352 1_455 S
O134 C137 1.258 1_455 S
C135 O132 1.320 . S
C135 O133 1.214 . S
O136 Cd128 2.277 . S
O136 C131 1.209 . S
C137 O134 1.258 1_655 S
C137 O139 1.282 . S
O138 Cd130 2.277 . S
O138 C131 1.226 . S
O139 Cd130 2.356 . S
O139 C137 1.282 . S
C140 O141 1.306 . S
C140 O143 1.160 . S
O141 C140 1.306 . S
O141 Cd142 2.228 . S
Cd142 O141 2.228 . S
Cd142 O146 2.273 . S
Cd142 O150 2.277 . S
O143 C140 1.160 . S
O143 Cd144 2.203 . S
Cd144 O143 2.203 . S
Cd144 O146 2.411 . S
Cd144 O147 2.333 . S
Cd144 O148 2.352 . S
Cd144 O152 2.277 . S
Cd144 O153 2.356 . S
C145 O150 1.209 . S
C145 O152 1.226 . S
O146 Cd142 2.273 . S
O146 Cd144 2.411 . S
O146 C149 1.320 . S
O147 Cd144 2.333 . S
O147 C149 1.214 . S
O148 Cd144 2.352 . S
O148 C151 1.258 . S
C149 O146 1.320 . S
C149 O147 1.214 . S
O150 Cd142 2.277 . S
O150 C145 1.209 . S
C151 O148 1.258 . S
C151 O153 1.282 . S
O152 Cd144 2.277 . S
O152 C145 1.226 . S
O153 Cd144 2.356 . S
O153 C151 1.282 . S
C154 O155 1.306 . S
C154 O157 1.160 . S
O155 C154 1.306 . S
O155 Cd156 2.228 . S
Cd156 O155 2.228 . S
Cd156 O160 2.273 . S
Cd156 O164 2.277 . S
O157 C154 1.160 . S
O157 Cd158 2.203 . S
Cd158 O157 2.203 . S
Cd158 O160 2.411 . S
Cd158 O161 2.333 . S
Cd158 O162 2.352 1_545 S
Cd158 O166 2.277 . S
Cd158 O167 2.356 1_545 S
C159 O164 1.209 . S
C159 O166 1.226 . S
O160 Cd156 2.273 . S
O160 Cd158 2.411 . S
O160 C163 1.320 . S
O161 Cd158 2.333 . S
O161 C163 1.214 . S
O162 Cd158 2.352 1_565 S
O162 C165 1.258 . S
C163 O160 1.320 . S
C163 O161 1.214 . S
O164 Cd156 2.277 . S
O164 C159 1.209 . S
C165 O162 1.258 . S
C165 O167 1.282 . S
O166 Cd158 2.277 . S
O166 C159 1.226 . S
O167 Cd158 2.356 1_565 S
O167 C165 1.282 . S
C168 O169 1.306 . S
C168 O171 1.160 . S
O169 C168 1.306 . S
O169 Cd170 2.228 1_655 S
Cd170 O169 2.228 1_455 S
Cd170 O174 2.273 . S
Cd170 O178 2.277 . S
O171 C168 1.160 . S
O171 Cd172 2.203 1_655 S
Cd172 O171 2.203 1_455 S
Cd172 O174 2.411 . S
Cd172 O175 2.333 . S
Cd172 O176 2.352 . S
Cd172 O180 2.277 . S
Cd172 O181 2.356 . S
C173 O178 1.209 . S
C173 O180 1.226 . S
O174 Cd170 2.273 . S
O174 Cd172 2.411 . S
O174 C177 1.320 . S
O175 Cd172 2.333 . S
O175 C177 1.214 . S
O176 Cd172 2.352 . S
O176 C179 1.258 . S
C177 O174 1.320 . S
C177 O175 1.214 . S
O178 Cd170 2.277 . S
O178 C173 1.209 . S
C179 O176 1.258 . S
C179 O181 1.282 . S
O180 Cd172 2.277 . S
O180 C173 1.226 . S
O181 Cd172 2.356 . S
O181 C179 1.282 . S
C182 O183 1.306 . S
C182 O185 1.160 . S
O183 C182 1.306 . S
O183 Cd184 2.228 . S
Cd184 O183 2.228 . S
Cd184 O188 2.273 . S
Cd184 O192 2.277 . S
O185 C182 1.160 . S
O185 Cd186 2.203 . S
Cd186 O185 2.203 . S
Cd186 O188 2.411 . S
Cd186 O189 2.333 . S
Cd186 O190 2.352 . S
Cd186 O194 2.277 . S
Cd186 O195 2.356 . S
C187 O192 1.209 . S
C187 O194 1.226 . S
O188 Cd184 2.273 . S
O188 Cd186 2.411 . S
O188 C191 1.320 . S
O189 Cd186 2.333 . S
O189 C191 1.214 . S
O190 Cd186 2.352 . S
O190 C193 1.258 . S
C191 O188 1.320 . S
C191 O189 1.214 . S
O192 Cd184 2.277 . S
O192 C187 1.209 . S
C193 O190 1.258 . S
C193 O195 1.282 . S
O194 Cd186 2.277 . S
O194 C187 1.226 . S
O195 Cd186 2.356 . S
O195 C193 1.282 . S
C196 O197 1.306 . S
C196 O199 1.160 . S
O197 C196 1.306 . S
O197 Cd198 2.228 1_545 S
Cd198 O197 2.228 1_565 S
Cd198 O202 2.273 . S
Cd198 O206 2.277 . S
O199 C196 1.160 . S
O199 Cd200 2.203 1_545 S
Cd200 O199 2.203 1_565 S
Cd200 O202 2.411 . S
Cd200 O203 2.333 . S
Cd200 O204 2.352 1_565 S
Cd200 O208 2.277 . S
Cd200 O209 2.356 . S
C201 O206 1.209 . S
C201 O208 1.226 . S
O202 Cd198 2.273 . S
O202 Cd200 2.411 . S
O202 C205 1.320 . S
O203 Cd200 2.333 . S
O203 C205 1.214 . S
O204 Cd200 2.352 1_545 S
O204 C207 1.258 1_545 S
C205 O202 1.320 . S
C205 O203 1.214 . S
O206 Cd198 2.277 . S
O206 C201 1.209 . S
C207 O204 1.258 1_565 S
C207 O209 1.282 . S
O208 Cd200 2.277 . S
O208 C201 1.226 . S
O209 Cd200 2.356 . S
O209 C207 1.282 . S
C210 O211 1.306 . S
C210 O213 1.160 . S
O211 C210 1.306 . S
O211 Cd212 2.228 . S
Cd212 O211 2.228 . S
Cd212 O216 2.273 . S
Cd212 O220 2.277 . S
O213 C210 1.160 . S
O213 Cd214 2.203 . S
Cd214 O213 2.203 . S
Cd214 O216 2.411 . S
Cd214 O217 2.333 . S
Cd214 O218 2.352 . S
Cd214 O222 2.277 . S
Cd214 O223 2.356 . S
C215 O220 1.209 . S
C215 O222 1.226 . S
O216 Cd212 2.273 . S
O216 Cd214 2.411 . S
O216 C219 1.320 . S
O217 Cd214 2.333 . S
O217 C219 1.214 . S
O218 Cd214 2.352 . S
O218 C221 1.258 . S
C219 O216 1.320 . S
C219 O217 1.214 . S
O220 Cd212 2.277 . S
O220 C215 1.209 . S
C221 O218 1.258 . S
C221 O223 1.282 . S
O222 Cd214 2.277 . S
O222 C215 1.226 . S
O223 Cd214 2.356 . S
O223 C221 1.282 . S
C224 O225 1.306 . S
C224 O227 1.160 1_565 S
O225 C224 1.306 . S
O225 Cd226 2.228 . S
Cd226 O225 2.228 . S
Cd226 O230 2.273 . S
Cd226 O234 2.277 . S
O227 C224 1.160 1_545 S
O227 Cd228 2.203 1_545 S
Cd228 O227 2.203 1_565 S
Cd228 O230 2.411 . S
Cd228 O231 2.333 . S
Cd228 O232 2.352 1_565 S
Cd228 O236 2.277 . S
Cd228 O237 2.356 1_565 S
C229 O234 1.209 . S
C229 O236 1.226 . S
O230 Cd226 2.273 . S
O230 Cd228 2.411 . S
O230 C233 1.320 . S
O231 Cd228 2.333 . S
O231 C233 1.214 . S
O232 Cd228 2.352 1_545 S
O232 C235 1.258 . S
C233 O230 1.320 . S
C233 O231 1.214 . S
O234 Cd226 2.277 . S
O234 C229 1.209 . S
C235 O232 1.258 . S
C235 O237 1.282 . S
O236 Cd228 2.277 . S
O236 C229 1.226 . S
O237 Cd228 2.356 1_545 S
O237 C235 1.282 . S
C238 O239 1.306 . S
C238 O241 1.160 . S
O239 C238 1.306 . S
O239 Cd240 2.228 1_655 S
Cd240 O239 2.228 1_455 S
Cd240 O244 2.273 . S
Cd240 O248 2.277 . S
O241 C238 1.160 . S
O241 Cd242 2.203 1_655 S
Cd242 O241 2.203 1_455 S
Cd242 O244 2.411 . S
Cd242 O245 2.333 . S
Cd242 O246 2.352 . S
Cd242 O250 2.277 . S
Cd242 O251 2.356 . S
C243 O248 1.209 . S
C243 O250 1.226 . S
O244 Cd240 2.273 . S
O244 Cd242 2.411 . S
O244 C247 1.320 . S
O245 Cd242 2.333 . S
O245 C247 1.214 . S
O246 Cd242 2.352 . S
O246 C249 1.258 . S
C247 O244 1.320 . S
C247 O245 1.214 . S
O248 Cd240 2.277 . S
O248 C243 1.209 . S
C249 O246 1.258 . S
C249 O251 1.282 . S
O250 Cd242 2.277 . S
O250 C243 1.226 . S
O251 Cd242 2.356 . S
O251 C249 1.282 . S
Zn252 O258 1.920 1_455 S
Zn252 O264 1.898 1_445 S
Zn252 O267 1.905 . S
Zn253 O261 1.905 1_445 S
Zn253 O262 1.898 . S
Zn253 O270 1.920 1_455 S
Zn254 O257 2.080 . S
Zn254 O260 2.114 1_545 S
Zn254 O263 2.120 . S
Zn254 O265 2.120 1_445 S
Zn254 O266 2.114 . S
Zn254 O269 2.080 1_455 S
C255 O260 1.166 . S
C255 O261 1.182 1_455 S
C256 O262 1.167 . S
C256 O263 1.299 . S
O257 Zn254 2.080 . S
O257 C271 1.305 1_455 S
O258 Zn252 1.920 1_655 S
O258 C271 1.234 . S
C259 O264 1.167 . S
C259 O265 1.299 . S
O260 Zn254 2.114 1_565 S
O260 C255 1.166 . S
O261 Zn253 1.905 1_665 S
O261 C255 1.182 1_655 S
O262 Zn253 1.898 . S
O262 C256 1.167 . S
O263 Zn254 2.120 . S
O263 C256 1.299 . S
O264 Zn252 1.898 1_665 S
O264 C259 1.167 . S
O265 Zn254 2.120 1_665 S
O265 C259 1.299 . S
O266 Zn254 2.114 . S
O266 C268 1.166 . S
O267 Zn252 1.905 . S
O267 C268 1.182 . S
C268 O266 1.166 . S
C268 O267 1.182 . S
O269 Zn254 2.080 1_655 S
O269 C272 1.305 . S
O270 Zn253 1.920 1_655 S
O270 C272 1.234 . S
C271 O257 1.305 1_655 S
C271 O258 1.234 . S
C272 O269 1.305 . S
C272 O270 1.234 . S
Zn273 O279 1.920 1_545 S
Zn273 O285 1.898 . S
Zn273 O288 1.905 1_445 S
Zn274 O282 1.905 . S
Zn274 O283 1.898 1_445 S
Zn274 O291 1.920 1_545 S
Zn275 O278 2.080 1_545 S
Zn275 O281 2.114 . S
Zn275 O284 2.120 1_445 S
Zn275 O286 2.120 . S
Zn275 O287 2.114 1_455 S
Zn275 O290 2.080 . S
C276 O281 1.166 . S
C276 O282 1.182 . S
C277 O283 1.167 . S
C277 O284 1.299 . S
O278 Zn275 2.080 1_565 S
O278 C292 1.305 . S
O279 Zn273 1.920 1_565 S
O279 C292 1.234 . S
C280 O285 1.167 . S
C280 O286 1.299 . S
O281 Zn275 2.114 . S
O281 C276 1.166 . S
O282 Zn274 1.905 . S
O282 C276 1.182 . S
O283 Zn274 1.898 1_665 S
O283 C277 1.167 . S
O284 Zn275 2.120 1_665 S
O284 C277 1.299 . S
O285 Zn273 1.898 . S
O285 C280 1.167 . S
O286 Zn275 2.120 . S
O286 C280 1.299 . S
O287 Zn275 2.114 1_655 S
O287 C289 1.166 1_545 S
O288 Zn273 1.905 1_665 S
O288 C289 1.182 . S
C289 O287 1.166 1_565 S
C289 O288 1.182 . S
O290 Zn275 2.080 . S
O290 C293 1.305 1_545 S
O291 Zn274 1.920 1_565 S
O291 C293 1.234 . S
C292 O278 1.305 . S
C292 O279 1.234 . S
C293 O290 1.305 1_565 S
C293 O291 1.234 . S
Zn294 O300 1.920 1_545 S
Zn294 O306 1.898 . S
Zn294 O309 1.905 1_445 S
Zn295 O303 1.905 . S
Zn295 O304 1.898 1_445 S
Zn295 O312 1.922 1_545 S
Zn296 O299 2.080 1_545 S
Zn296 O302 2.114 . S
Zn296 O305 2.120 1_445 S
Zn296 O307 2.120 . S
Zn296 O308 2.114 1_455 S
Zn296 O311 2.080 . S
C297 O302 1.166 . S
C297 O303 1.182 . S
C298 O304 1.167 . S
C298 O305 1.299 . S
O299 Zn296 2.080 1_565 S
O299 C313 1.305 . S
O300 Zn294 1.920 1_565 S
O300 C313 1.234 . S
C301 O306 1.167 . S
C301 O307 1.299 . S
O302 Zn296 2.114 . S
O302 C297 1.166 . S
O303 Zn295 1.905 . S
O303 C297 1.182 . S
O304 Zn295 1.898 1_665 S
O304 C298 1.167 . S
O305 Zn296 2.120 1_665 S
O305 C298 1.299 . S
O306 Zn294 1.898 . S
O306 C301 1.167 . S
O307 Zn296 2.120 . S
O307 C301 1.299 . S
O308 Zn296 2.114 1_655 S
O308 C310 1.161 1_545 S
O309 Zn294 1.905 1_665 S
O309 C310 1.189 . S
C310 O308 1.161 1_565 S
C310 O309 1.189 . S
O311 Zn296 2.080 . S
O311 C314 1.305 . S
O312 Zn295 1.922 1_565 S
O312 C314 1.234 1_565 S
C313 O299 1.305 . S
C313 O300 1.234 . S
C314 O311 1.305 . S
C314 O312 1.234 1_545 S
Zn315 O321 1.920 1_455 S
Zn315 O327 1.898 1_445 S
Zn315 O330 1.905 . S
Zn316 O324 1.905 1_445 S
Zn316 O325 1.898 . S
Zn316 O333 1.920 1_455 S
Zn317 O320 2.080 . S
Zn317 O323 2.114 1_545 S
Zn317 O326 2.120 . S
Zn317 O328 2.120 1_445 S
Zn317 O329 2.114 . S
Zn317 O332 2.080 1_455 S
C318 O323 1.166 1_655 S
C318 O324 1.182 . S
C319 O325 1.167 . S
C319 O326 1.299 . S
O320 Zn317 2.080 . S
O320 C334 1.305 1_455 S
O321 Zn315 1.920 1_655 S
O321 C334 1.234 . S
C322 O327 1.167 . S
C322 O328 1.299 . S
O323 Zn317 2.114 1_565 S
O323 C318 1.166 1_455 S
O324 Zn316 1.905 1_665 S
O324 C318 1.182 . S
O325 Zn316 1.898 . S
O325 C319 1.167 . S
O326 Zn317 2.120 . S
O326 C319 1.299 . S
O327 Zn315 1.898 1_665 S
O327 C322 1.167 . S
O328 Zn317 2.120 1_665 S
O328 C322 1.299 . S
O329 Zn317 2.114 . S
O329 C331 1.166 . S
O330 Zn315 1.905 . S
O330 C331 1.182 . S
C331 O329 1.166 . S
C331 O330 1.182 . S
O332 Zn317 2.080 1_655 S
O332 C335 1.305 . S
O333 Zn316 1.920 1_655 S
O333 C335 1.234 . S
C334 O320 1.305 1_655 S
C334 O321 1.234 . S
C335 O332 1.305 . S
C335 O333 1.234 . S
Zn336 O342 1.920 . S
Zn336 O348 1.898 . S
Zn336 O351 1.905 . S
Zn337 O345 1.905 . S
Zn337 O346 1.898 . S
Zn337 O354 1.920 . S
Zn338 O341 2.080 . S
Zn338 O344 2.114 . S
Zn338 O347 2.120 . S
Zn338 O349 2.120 . S
Zn338 O350 2.114 . S
Zn338 O353 2.080 . S
C339 O344 1.166 . S
C339 O345 1.182 . S
C340 O346 1.167 . S
C340 O347 1.299 . S
O341 Zn338 2.080 . S
O341 C355 1.305 . S
O342 Zn336 1.920 . S
O342 C355 1.234 . S
C343 O348 1.167 . S
C343 O349 1.299 . S
O344 Zn338 2.114 . S
O344 C339 1.166 . S
O345 Zn337 1.905 . S
O345 C339 1.182 . S
O346 Zn337 1.898 . S
O346 C340 1.167 . S
O347 Zn338 2.120 . S
O347 C340 1.299 . S
O348 Zn336 1.898 . S
O348 C343 1.167 . S
O349 Zn338 2.120 . S
O349 C343 1.299 . S
O350 Zn338 2.114 . S
O350 C352 1.166 . S
O351 Zn336 1.905 . S
O351 C352 1.182 . S
C352 O350 1.166 . S
C352 O351 1.182 . S
O353 Zn338 2.080 . S
O353 C356 1.305 . S
O354 Zn337 1.920 . S
O354 C356 1.234 . S
C355 O341 1.305 . S
C355 O342 1.234 . S
C356 O353 1.305 . S
C356 O354 1.234 . S
Zn357 O363 1.920 . S
Zn357 O369 1.898 . S
Zn357 O372 1.905 . S
Zn358 O366 1.905 . S
Zn358 O367 1.898 . S
Zn358 O375 1.920 . S
Zn359 O362 2.080 . S
Zn359 O365 2.114 . S
Zn359 O368 2.120 . S
Zn359 O370 2.120 . S
Zn359 O371 2.114 . S
Zn359 O374 2.080 . S
C360 O365 1.166 . S
C360 O366 1.182 . S
C361 O367 1.167 . S
C361 O368 1.299 . S
O362 Zn359 2.080 . S
O362 C376 1.305 . S
O363 Zn357 1.920 . S
O363 C376 1.234 . S
C364 O369 1.167 . S
C364 O370 1.299 . S
O365 Zn359 2.114 . S
O365 C360 1.166 . S
O366 Zn358 1.905 . S
O366 C360 1.182 . S
O367 Zn358 1.898 . S
O367 C361 1.167 . S
O368 Zn359 2.120 . S
O368 C361 1.299 . S
O369 Zn357 1.898 . S
O369 C364 1.167 . S
O370 Zn359 2.120 . S
O370 C364 1.299 . S
O371 Zn359 2.114 . S
O371 C373 1.166 . S
O372 Zn357 1.905 . S
O372 C373 1.182 . S
C373 O371 1.166 . S
C373 O372 1.182 . S
O374 Zn359 2.080 . S
O374 C377 1.305 . S
O375 Zn358 1.920 . S
O375 C377 1.234 . S
C376 O362 1.305 . S
C376 O363 1.234 . S
C377 O374 1.305 . S
C377 O375 1.234 . S
Zn378 O384 1.920 . S
Zn378 O390 1.898 . S
Zn378 O393 1.905 . S
Zn379 O387 1.905 . S
Zn379 O388 1.898 . S
Zn379 O396 1.920 . S
Zn380 O383 2.080 . S
Zn380 O386 2.114 . S
Zn380 O389 2.120 . S
Zn380 O391 2.120 . S
Zn380 O392 2.114 . S
Zn380 O395 2.080 . S
C381 O386 1.166 . S
C381 O387 1.182 . S
C382 O388 1.167 . S
C382 O389 1.299 . S
O383 Zn380 2.080 . S
O383 C397 1.305 . S
O384 Zn378 1.920 . S
O384 C397 1.234 . S
C385 O390 1.167 . S
C385 O391 1.299 . S
O386 Zn380 2.114 . S
O386 C381 1.166 . S
O387 Zn379 1.905 . S
O387 C381 1.182 . S
O388 Zn379 1.898 . S
O388 C382 1.167 . S
O389 Zn380 2.120 . S
O389 C382 1.299 . S
O390 Zn378 1.898 . S
O390 C385 1.167 . S
O391 Zn380 2.120 . S
O391 C385 1.299 . S
O392 Zn380 2.114 . S
O392 C394 1.166 . S
O393 Zn378 1.905 . S
O393 C394 1.182 . S
C394 O392 1.166 . S
C394 O393 1.182 . S
O395 Zn380 2.080 . S
O395 C398 1.305 . S
O396 Zn379 1.920 . S
O396 C398 1.234 . S
C397 O383 1.305 . S
C397 O384 1.234 . S
C398 O395 1.305 . S
C398 O396 1.234 . S
Zn399 O405 1.920 . S
Zn399 O411 1.898 . S
Zn399 O414 1.905 . S
Zn400 O408 1.905 . S
Zn400 O409 1.898 . S
Zn400 O417 1.920 . S
Zn401 O404 2.083 . S
Zn401 O407 2.114 . S
Zn401 O410 2.120 . S
Zn401 O412 2.116 . S
Zn401 O413 2.113 . S
Zn401 O416 2.080 . S
C402 O407 1.166 . S
C402 O408 1.182 . S
C403 O409 1.167 . S
C403 O410 1.299 . S
O404 Zn401 2.083 . S
O404 C418 1.301 1_556 S
O405 Zn399 1.920 . S
O405 C418 1.234 . S
C406 O411 1.167 . S
C406 O412 1.304 1_554 S
O407 Zn401 2.114 . S
O407 C402 1.166 . S
O408 Zn400 1.905 . S
O408 C402 1.182 . S
O409 Zn400 1.898 . S
O409 C403 1.167 . S
O410 Zn401 2.120 . S
O410 C403 1.299 . S
O411 Zn399 1.898 . S
O411 C406 1.167 . S
O412 Zn401 2.116 . S
O412 C406 1.304 1_556 S
O413 Zn401 2.113 . S
O413 C415 1.168 1_556 S
O414 Zn399 1.905 . S
O414 C415 1.182 . S
C415 O413 1.168 1_554 S
C415 O414 1.182 . S
O416 Zn401 2.080 . S
O416 C419 1.305 . S
O417 Zn400 1.920 . S
O417 C419 1.234 . S
C418 O404 1.301 1_554 S
C418 O405 1.234 . S
C419 O416 1.305 . S
C419 O417 1.234 . S
Zn420 O426 1.920 . S
Zn420 O432 1.898 . S
Zn420 O435 1.905 . S
Zn421 O429 1.905 . S
Zn421 O430 1.898 . S
Zn421 O438 1.920 . S
Zn422 O425 2.080 . S
Zn422 O428 2.114 . S
Zn422 O431 2.120 . S
Zn422 O433 2.120 . S
Zn422 O434 2.114 . S
Zn422 O437 2.080 . S
C423 O428 1.166 . S
C423 O429 1.182 . S
C424 O430 1.167 . S
C424 O431 1.299 . S
O425 Zn422 2.080 . S
O425 C439 1.305 . S
O426 Zn420 1.920 . S
O426 C439 1.234 . S
C427 O432 1.167 . S
C427 O433 1.299 . S
O428 Zn422 2.114 . S
O428 C423 1.166 . S
O429 Zn421 1.905 . S
O429 C423 1.182 . S
O430 Zn421 1.898 . S
O430 C424 1.167 . S
O431 Zn422 2.120 . S
O431 C424 1.299 . S
O432 Zn420 1.898 . S
O432 C427 1.167 . S
O433 Zn422 2.120 . S
O433 C427 1.299 . S
O434 Zn422 2.114 . S
O434 C436 1.166 . S
O435 Zn420 1.905 . S
O435 C436 1.182 . S
C436 O434 1.166 . S
C436 O435 1.182 . S
O437 Zn422 2.080 . S
O437 C440 1.305 . S
O438 Zn421 1.920 . S
O438 C440 1.234 . S
C439 O425 1.305 . S
C439 O426 1.234 . S
C440 O437 1.305 . S
C440 O438 1.234 . S
Zn441 O447 1.920 . S
Zn441 O453 1.898 . S
Zn441 O456 1.905 . S
Zn442 O450 1.905 . S
Zn442 O451 1.898 . S
Zn442 O459 1.920 . S
Zn443 O446 2.080 . S
Zn443 O449 2.113 . S
Zn443 O452 2.116 . S
Zn443 O454 2.120 . S
Zn443 O455 2.114 . S
Zn443 O458 2.080 . S
C444 O449 1.167 1_556 S
C444 O450 1.182 . S
C445 O451 1.167 . S
C445 O452 1.303 1_556 S
O446 Zn443 2.080 . S
O446 C460 1.305 . S
O447 Zn441 1.920 . S
O447 C460 1.234 . S
C448 O453 1.167 . S
C448 O454 1.299 . S
O449 Zn443 2.113 . S
O449 C444 1.167 1_554 S
O450 Zn442 1.905 . S
O450 C444 1.182 . S
O451 Zn442 1.898 . S
O451 C445 1.167 . S
O452 Zn443 2.116 . S
O452 C445 1.303 1_554 S
O453 Zn441 1.898 . S
O453 C448 1.167 . S
O454 Zn443 2.120 . S
O454 C448 1.299 . S
O455 Zn443 2.114 . S
O455 C457 1.166 . S
O456 Zn441 1.905 . S
O456 C457 1.182 . S
C457 O455 1.166 . S
C457 O456 1.182 . S
O458 Zn443 2.080 . S
O458 C461 1.305 1_554 S
O459 Zn442 1.920 . S
O459 C461 1.234 . S
C460 O446 1.305 . S
C460 O447 1.234 . S
C461 O458 1.305 1_556 S
C461 O459 1.234 . S
Zn462 O468 1.920 . S
Zn462 O474 1.898 . S
Zn462 O477 1.905 . S
Zn463 O471 1.905 . S
Zn463 O472 1.898 . S
Zn463 O480 1.920 . S
Zn464 O467 2.080 . S
Zn464 O470 2.114 . S
Zn464 O473 2.120 . S
Zn464 O475 2.120 . S
Zn464 O476 2.114 . S
Zn464 O479 2.080 . S
C465 O470 1.166 . S
C465 O471 1.182 . S
C466 O472 1.167 . S
C466 O473 1.299 . S
O467 Zn464 2.080 . S
O467 C481 1.305 . S
O468 Zn462 1.920 . S
O468 C481 1.234 . S
C469 O474 1.167 . S
C469 O475 1.299 . S
O470 Zn464 2.114 . S
O470 C465 1.166 . S
O471 Zn463 1.905 . S
O471 C465 1.182 . S
O472 Zn463 1.898 . S
O472 C466 1.167 . S
O473 Zn464 2.120 . S
O473 C466 1.299 . S
O474 Zn462 1.898 . S
O474 C469 1.167 . S
O475 Zn464 2.120 . S
O475 C469 1.299 . S
O476 Zn464 2.114 . S
O476 C478 1.166 . S
O477 Zn462 1.905 . S
O477 C478 1.182 . S
C478 O476 1.166 . S
C478 O477 1.182 . S
O479 Zn464 2.080 . S
O479 C482 1.305 . S
O480 Zn463 1.920 . S
O480 C482 1.234 . S
C481 O467 1.305 . S
C481 O468 1.234 . S
C482 O479 1.305 . S
C482 O480 1.234 . S
Zn483 O489 1.920 . S
Zn483 O495 1.898 . S
Zn483 O498 1.905 . S
Zn484 O492 1.905 . S
Zn484 O493 1.898 . S
Zn484 O501 1.920 . S
Zn485 O488 2.080 . S
Zn485 O491 2.114 . S
Zn485 O494 2.120 . S
Zn485 O496 2.120 . S
Zn485 O497 2.114 . S
Zn485 O500 2.080 . S
C486 O491 1.166 . S
C486 O492 1.182 . S
C487 O493 1.167 . S
C487 O494 1.299 . S
O488 Zn485 2.080 . S
O488 C502 1.305 . S
O489 Zn483 1.920 . S
O489 C502 1.234 . S
C490 O495 1.167 . S
C490 O496 1.299 . S
O491 Zn485 2.114 . S
O491 C486 1.166 . S
O492 Zn484 1.905 . S
O492 C486 1.182 . S
O493 Zn484 1.898 . S
O493 C487 1.167 . S
O494 Zn485 2.120 . S
O494 C487 1.299 . S
O495 Zn483 1.898 . S
O495 C490 1.167 . S
O496 Zn485 2.120 . S
O496 C490 1.299 . S
O497 Zn485 2.114 . S
O497 C499 1.166 . S
O498 Zn483 1.905 . S
O498 C499 1.182 . S
C499 O497 1.166 . S
C499 O498 1.182 . S
O500 Zn485 2.080 . S
O500 C503 1.305 . S
O501 Zn484 1.920 . S
O501 C503 1.234 . S
C502 O488 1.305 . S
C502 O489 1.234 . S
C503 O500 1.305 . S
C503 O501 1.234 . S
C504 C505 1.387 . S
C504 H508 0.950 . S
C504 C513 1.390 . S
C505 C504 1.387 . S
C505 C507 1.387 . S
H506 C513 0.950 . S
C507 C505 1.387 . S
C507 C509 1.390 . S
C507 H511 0.950 . S
H508 C504 0.950 . S
C509 C507 1.390 . S
C509 C510 1.387 . S
C509 H512 0.950 . S
C510 C509 1.387 . S
C510 C513 1.387 . S
H511 C507 0.950 . S
H512 C509 0.950 . S
C513 C504 1.390 . S
C513 H506 0.950 . S
C513 C510 1.387 . S
C514 C515 1.387 . S
C514 H518 0.950 . S
C514 C523 1.390 . S
C515 C514 1.387 . S
C515 C517 1.387 1_545 S
H516 C523 0.950 . S
C517 C515 1.387 1_565 S
C517 C519 1.390 . S
C517 H521 0.950 . S
H518 C514 0.950 . S
C519 C517 1.390 . S
C519 C520 1.387 1_565 S
C519 H522 0.950 . S
C520 C519 1.387 1_545 S
C520 C523 1.387 . S
H521 C517 0.950 . S
H522 C519 0.950 . S
C523 C514 1.390 . S
C523 H516 0.950 . S
C523 C520 1.387 . S
C524 C525 1.387 1_655 S
C524 H528 0.950 . S
C524 C533 1.390 . S
C525 C524 1.387 1_455 S
C525 C527 1.387 . S
H526 C533 0.950 . S
C527 C525 1.387 . S
C527 C529 1.390 . S
C527 H531 0.950 . S
H528 C524 0.950 . S
C529 C527 1.390 . S
C529 C530 1.388 . S
C529 H532 0.950 . S
C530 C529 1.388 . S
C530 C533 1.387 1_455 S
H531 C527 0.950 . S
H532 C529 0.950 . S
C533 C524 1.390 . S
C533 H526 0.950 . S
C533 C530 1.387 1_655 S
C534 C535 1.387 . S
C534 H538 0.950 . S
C534 C543 1.390 . S
C535 C534 1.387 . S
C535 C537 1.387 . S
H536 C543 0.950 . S
C537 C535 1.387 . S
C537 C539 1.390 . S
C537 H541 0.950 . S
H538 C534 0.950 . S
C539 C537 1.390 . S
C539 C540 1.387 . S
C539 H542 0.950 . S
C540 C539 1.387 . S
C540 C543 1.387 . S
H541 C537 0.950 . S
H542 C539 0.950 . S
C543 C534 1.390 . S
C543 H536 0.950 . S
C543 C540 1.387 . S
C544 C545 1.387 . S
C544 H548 0.950 . S
C544 C553 1.390 . S
C545 C544 1.387 . S
C545 C547 1.387 1_545 S
H546 C553 0.950 . S
C547 C545 1.387 1_565 S
C547 C549 1.390 . S
C547 H551 0.950 . S
H548 C544 0.950 . S
C549 C547 1.390 . S
C549 C550 1.387 . S
C549 H552 0.950 . S
C550 C549 1.387 . S
C550 C553 1.387 1_565 S
H551 C547 0.950 . S
H552 C549 0.950 . S
C553 C544 1.390 . S
C553 H546 0.950 . S
C553 C550 1.387 1_545 S
C554 C555 1.387 1_655 S
C554 H558 0.950 . S
C554 C563 1.390 . S
C555 C554 1.387 1_455 S
C555 C557 1.387 . S
H556 C563 0.950 . S
C557 C555 1.387 . S
C557 C559 1.390 . S
C557 H561 0.950 . S
H558 C554 0.950 . S
C559 C557 1.390 . S
C559 C560 1.387 . S
C559 H562 0.950 . S
C560 C559 1.387 . S
C560 C563 1.387 1_455 S
H561 C557 0.950 . S
H562 C559 0.950 . S
C563 C554 1.390 . S
C563 H556 0.950 . S
C563 C560 1.387 1_655 S
C564 C565 1.387 . S
C564 H568 0.950 . S
C564 C573 1.390 . S
C565 C564 1.387 . S
C565 C567 1.387 . S
H566 C573 0.950 . S
C567 C565 1.387 . S
C567 C569 1.390 . S
C567 H571 0.950 . S
H568 C564 0.950 . S
C569 C567 1.390 . S
C569 C570 1.387 . S
C569 H572 0.950 . S
C570 C569 1.387 . S
C570 C573 1.387 . S
H571 C567 0.950 . S
H572 C569 0.950 . S
C573 C564 1.390 . S
C573 H566 0.950 . S
C573 C570 1.387 . S
C574 C575 1.387 1_565 S
C574 H578 0.950 . S
C574 C583 1.390 . S
C575 C574 1.387 1_545 S
C575 C577 1.387 . S
H576 C583 0.950 . S
C577 C575 1.387 . S
C577 C579 1.390 . S
C577 H581 0.950 . S
H578 C574 0.950 . S
C579 C577 1.390 . S
C579 C580 1.387 . S
C579 H582 0.950 . S
C580 C579 1.387 . S
C580 C583 1.387 1_545 S
H581 C577 0.950 . S
H582 C579 0.950 . S
C583 C574 1.390 . S
C583 H576 0.950 . S
C583 C580 1.387 1_565 S
C584 C585 1.387 . S
C584 H588 0.950 1_455 S
C584 C593 1.390 . S
C585 C584 1.387 . S
C585 C587 1.387 . S
H586 C593 0.950 . S
C587 C585 1.387 . S
C587 C589 1.390 . S
C587 H591 0.950 . S
H588 C584 0.950 1_655 S
C589 C587 1.390 . S
C589 C590 1.387 . S
C589 H592 0.950 . S
C590 C589 1.387 . S
C590 C593 1.387 . S
H591 C587 0.950 . S
H592 C589 0.950 . S
C593 C584 1.390 . S
C593 H586 0.950 . S
C593 C590 1.387 . S
C594 C595 1.387 . S
C594 H598 0.950 . S
C594 C603 1.390 . S
C595 C594 1.387 . S
C595 C597 1.387 . S
H596 C603 0.950 . S
C597 C595 1.387 . S
C597 C599 1.390 . S
C597 H601 0.950 . S
H598 C594 0.950 . S
C599 C597 1.390 . S
C599 C600 1.387 . S
C599 H602 0.950 . S
C600 C599 1.387 . S
C600 C603 1.387 . S
H601 C597 0.950 . S
H602 C599 0.950 . S
C603 C594 1.390 . S
C603 H596 0.950 . S
C603 C600 1.387 . S
C604 C605 1.387 1_565 S
C604 H608 0.950 . S
C604 C613 1.390 . S
C605 C604 1.387 1_545 S
C605 C607 1.387 . S
H606 C613 0.950 . S
C607 C605 1.387 . S
C607 C609 1.390 . S
C607 H611 0.950 . S
H608 C604 0.950 . S
C609 C607 1.390 . S
C609 C610 1.387 . S
C609 H612 0.950 . S
C610 C609 1.387 . S
C610 C613 1.387 1_545 S
H611 C607 0.950 . S
H612 C609 0.950 . S
C613 C604 1.390 . S
C613 H606 0.950 . S
C613 C610 1.387 1_565 S
C614 C615 1.387 1_655 S
C614 H618 0.950 . S
C614 C623 1.390 . S
C615 C614 1.387 1_455 S
C615 C617 1.387 . S
H616 C623 0.950 . S
C617 C615 1.387 . S
C617 C619 1.390 . S
C617 H621 0.950 . S
H618 C614 0.950 . S
C619 C617 1.390 . S
C619 C620 1.387 1_455 S
C619 H622 0.950 . S
C620 C619 1.387 1_655 S
C620 C623 1.387 . S
H621 C617 0.950 . S
H622 C619 0.950 . S
C623 C614 1.390 . S
C623 H616 0.950 . S
C623 C620 1.387 . S
C624 C625 1.387 . S
C624 H628 0.950 . S
C624 C633 1.390 . S
C625 C624 1.387 . S
C625 C627 1.387 . S
H626 C633 0.950 . S
C627 C625 1.387 . S
C627 C629 1.390 . S
C627 H631 0.950 . S
H628 C624 0.950 . S
C629 C627 1.390 . S
C629 C630 1.387 . S
C629 H632 0.950 . S
C630 C629 1.387 . S
C630 C633 1.387 . S
H631 C627 0.950 . S
H632 C629 0.950 . S
C633 C624 1.390 . S
C633 H626 0.950 . S
C633 C630 1.387 . S
C634 C635 1.387 . S
C634 H638 0.950 . S
C634 C643 1.390 . S
C635 C634 1.387 . S
C635 C637 1.387 . S
H636 C643 0.950 . S
C637 C635 1.387 . S
C637 C639 1.390 . S
C637 H641 0.950 . S
H638 C634 0.950 . S
C639 C637 1.390 . S
C639 C640 1.387 . S
C639 H642 0.950 . S
C640 C639 1.387 . S
C640 C643 1.387 . S
H641 C637 0.950 . S
H642 C639 0.950 . S
C643 C634 1.390 . S
C643 H636 0.950 . S
C643 C640 1.387 . S
C644 C645 1.387 . S
C644 H648 0.950 . S
C644 C653 1.390 . S
C645 C644 1.387 . S
C645 C647 1.387 . S
H646 C653 0.950 . S
C647 C645 1.387 . S
C647 C649 1.390 . S
C647 H651 0.950 . S
H648 C644 0.950 . S
C649 C647 1.390 . S
C649 C650 1.387 . S
C649 H652 0.950 . S
C650 C649 1.387 . S
C650 C653 1.387 . S
H651 C647 0.950 . S
H652 C649 0.950 . S
C653 C644 1.390 . S
C653 H646 0.950 . S
C653 C650 1.387 . S
C654 C655 1.387 . S
C654 H658 0.950 . S
C654 C663 1.390 . S
C655 C654 1.387 . S
C655 C657 1.387 . S
H656 C663 0.950 . S
C657 C655 1.387 . S
C657 C659 1.390 . S
C657 H661 0.950 . S
H658 C654 0.950 . S
C659 C657 1.390 . S
C659 C660 1.387 . S
C659 H662 0.950 . S
C660 C659 1.387 . S
C660 C663 1.387 . S
H661 C657 0.950 . S
H662 C659 0.950 . S
C663 C654 1.390 . S
C663 H656 0.950 . S
C663 C660 1.387 . S
C664 C665 1.387 . S
C664 H668 0.950 . S
C664 C673 1.390 . S
C665 C664 1.387 . S
C665 C667 1.387 . S
H666 C673 0.950 . S
C667 C665 1.387 . S
C667 C669 1.390 . S
C667 H671 0.950 . S
H668 C664 0.950 . S
C669 C667 1.390 . S
C669 C670 1.387 . S
C669 H672 0.950 . S
C670 C669 1.387 . S
C670 C673 1.387 . S
H671 C667 0.950 . S
H672 C669 0.950 . S
C673 C664 1.390 . S
C673 H666 0.950 . S
C673 C670 1.387 . S
C674 C675 1.387 . S
C674 H678 0.950 . S
C674 C683 1.390 . S
C675 C674 1.387 . S
C675 C677 1.387 . S
H676 C683 0.950 . S
C677 C675 1.387 . S
C677 C679 1.390 . S
C677 H681 0.950 . S
H678 C674 0.950 . S
C679 C677 1.390 . S
C679 C680 1.387 . S
C679 H682 0.950 . S
C680 C679 1.387 . S
C680 C683 1.387 . S
H681 C677 0.950 . S
H682 C679 0.950 . S
C683 C674 1.390 . S
C683 H676 0.950 . S
C683 C680 1.387 . S
C684 C685 1.387 . S
C684 H688 0.950 . S
C684 C693 1.390 . S
C685 C684 1.387 . S
C685 C687 1.387 . S
H686 C693 0.950 . S
C687 C685 1.387 . S
C687 C689 1.390 . S
C687 H691 0.950 . S
H688 C684 0.950 . S
C689 C687 1.390 . S
C689 C690 1.387 . S
C689 H692 0.950 . S
C690 C689 1.387 . S
C690 C693 1.387 . S
H691 C687 0.950 . S
H692 C689 0.950 . S
C693 C684 1.390 . S
C693 H686 0.950 . S
C693 C690 1.387 . S
C694 C695 1.387 . S
C694 H698 0.950 . S
C694 C703 1.390 . S
C695 C694 1.387 . S
C695 C697 1.387 . S
H696 C703 0.950 . S
C697 C695 1.387 . S
C697 C699 1.390 . S
C697 H701 0.950 . S
H698 C694 0.950 . S
C699 C697 1.390 . S
C699 C700 1.387 . S
C699 H702 0.950 . S
C700 C699 1.387 . S
C700 C703 1.387 . S
H701 C697 0.950 . S
H702 C699 0.950 . S
C703 C694 1.390 . S
C703 H696 0.950 . S
C703 C700 1.387 . S
C704 C705 1.387 . S
C704 H708 0.950 . S
C704 C713 1.390 . S
C705 C704 1.387 . S
C705 C707 1.387 . S
H706 C713 0.950 . S
C707 C705 1.387 . S
C707 C709 1.390 . S
C707 H711 0.950 . S
H708 C704 0.950 . S
C709 C707 1.390 . S
C709 C710 1.387 . S
C709 H712 0.950 . S
C710 C709 1.387 . S
C710 C713 1.387 . S
H711 C707 0.950 . S
H712 C709 0.950 . S
C713 C704 1.390 . S
C713 H706 0.950 . S
C713 C710 1.387 . S
C714 C715 1.387 . S
C714 H718 0.950 . S
C714 C723 1.390 . S
C715 C714 1.387 . S
C715 C717 1.387 . S
H716 C723 0.950 . S
C717 C715 1.387 . S
C717 C719 1.390 . S
C717 H721 0.950 . S
H718 C714 0.950 . S
C719 C717 1.390 . S
C719 C720 1.387 . S
C719 H722 0.950 . S
C720 C719 1.387 . S
C720 C723 1.387 . S
H721 C717 0.950 . S
H722 C719 0.950 . S
C723 C714 1.390 . S
C723 H716 0.950 . S
C723 C720 1.387 . S
C724 C725 1.387 . S
C724 H728 0.950 . S
C724 C733 1.390 . S
C725 C724 1.387 . S
C725 C727 1.387 . S
H726 C733 0.950 . S
C727 C725 1.387 . S
C727 C729 1.390 . S
C727 H731 0.950 . S
H728 C724 0.950 . S
C729 C727 1.390 . S
C729 C730 1.387 . S
C729 H732 0.950 . S
C730 C729 1.387 . S
C730 C733 1.387 . S
H731 C727 0.950 . S
H732 C729 0.950 . S
C733 C724 1.390 . S
C733 H726 0.950 . S
C733 C730 1.387 . S
C734 C735 1.387 . S
C734 H738 0.950 . S
C734 C743 1.390 . S
C735 C734 1.387 . S
C735 C737 1.387 . S
H736 C743 0.950 . S
C737 C735 1.387 . S
C737 C739 1.390 . S
C737 H741 0.950 . S
H738 C734 0.950 . S
C739 C737 1.390 . S
C739 C740 1.387 . S
C739 H742 0.950 . S
C740 C739 1.387 . S
C740 C743 1.387 . S
H741 C737 0.950 . S
H742 C739 0.950 . S
C743 C734 1.390 . S
C743 H736 0.950 . S
C743 C740 1.387 . S
C744 C745 1.387 . S
C744 H748 0.950 . S
C744 C753 1.390 . S
C745 C744 1.387 . S
C745 C747 1.387 . S
H746 C753 0.950 . S
C747 C745 1.387 . S
C747 C749 1.390 . S
C747 H751 0.950 . S
H748 C744 0.950 . S
C749 C747 1.390 . S
C749 C750 1.387 . S
C749 H752 0.950 . S
C750 C749 1.387 . S
C750 C753 1.387 . S
H751 C747 0.950 . S
H752 C749 0.950 . S
C753 C744 1.390 . S
C753 H746 0.950 . S
C753 C750 1.387 . S
C754 C755 1.387 . S
C754 H758 0.950 . S
C754 C763 1.390 . S
C755 C754 1.387 . S
C755 C757 1.387 . S
H756 C763 0.950 . S
C757 C755 1.387 . S
C757 C759 1.390 . S
C757 H761 0.950 . S
H758 C754 0.950 . S
C759 C757 1.390 . S
C759 C760 1.387 . S
C759 H762 0.950 . S
C760 C759 1.387 . S
C760 C763 1.387 . S
H761 C757 0.950 . S
H762 C759 0.950 . S
C763 C754 1.390 . S
C763 H756 0.950 . S
C763 C760 1.387 . S
C764 C765 1.387 . S
C764 H768 0.950 . S
C764 C773 1.390 . S
C765 C764 1.387 . S
C765 C767 1.387 . S
H766 C773 0.950 . S
C767 C765 1.387 . S
C767 C769 1.390 . S
C767 H771 0.950 . S
H768 C764 0.950 . S
C769 C767 1.390 . S
C769 C770 1.387 . S
C769 H772 0.950 . S
C770 C769 1.387 . S
C770 C773 1.387 . S
H771 C767 0.950 . S
H772 C769 0.950 . S
C773 C764 1.390 . S
C773 H766 0.950 . S
C773 C770 1.387 . S
C774 C775 1.387 . S
C774 H778 0.950 . S
C774 C783 1.390 . S
C775 C774 1.387 . S
C775 C777 1.387 . S
H776 C783 0.950 . S
C777 C775 1.387 . S
C777 C779 1.390 . S
C777 H781 0.950 . S
H778 C774 0.950 . S
C779 C777 1.390 . S
C779 C780 1.387 . S
C779 H782 0.950 1_556 S
C780 C779 1.387 . S
C780 C783 1.387 . S
H781 C777 0.950 . S
H782 C779 0.950 1_554 S
C783 C774 1.390 . S
C783 H776 0.950 . S
C783 C780 1.387 . S
C784 C785 1.387 . S
C784 H788 0.950 . S
C784 C793 1.390 . S
C785 C784 1.387 . S
C785 C787 1.387 . S
H786 C793 0.950 . S
C787 C785 1.387 . S
C787 C789 1.390 . S
C787 H791 0.950 . S
H788 C784 0.950 . S
C789 C787 1.390 . S
C789 C790 1.387 . S
C789 H792 0.950 . S
C790 C789 1.387 . S
C790 C793 1.387 . S
H791 C787 0.950 . S
H792 C789 0.950 . S
C793 C784 1.390 . S
C793 H786 0.950 . S
C793 C790 1.387 . S
C794 C795 1.387 . S
C794 H798 0.950 . S
C794 C803 1.390 . S
C795 C794 1.387 . S
C795 C797 1.387 . S
H796 C803 0.950 . S
C797 C795 1.387 . S
C797 C799 1.390 . S
C797 H801 0.950 . S
H798 C794 0.950 . S
C799 C797 1.390 . S
C799 C800 1.387 . S
C799 H802 0.950 . S
C800 C799 1.387 . S
C800 C803 1.387 . S
H801 C797 0.950 . S
H802 C799 0.950 . S
C803 C794 1.390 . S
C803 H796 0.950 . S
C803 C800 1.387 . S
C804 C805 1.387 . S
C804 H808 0.950 . S
C804 C813 1.390 . S
C805 C804 1.387 . S
C805 C807 1.387 . S
H806 C813 0.950 . S
C807 C805 1.387 . S
C807 C809 1.390 . S
C807 H811 0.950 . S
H808 C804 0.950 . S
C809 C807 1.390 . S
C809 C810 1.387 . S
C809 H812 0.950 . S
C810 C809 1.387 . S
C810 C813 1.387 . S
H811 C807 0.950 . S
H812 C809 0.950 . S
C813 C804 1.390 . S
C813 H806 0.950 . S
C813 C810 1.387 . S
C814 C815 1.387 . S
C814 H818 0.950 . S
C814 C823 1.390 . S
C815 C814 1.387 . S
C815 C817 1.387 . S
H816 C823 0.950 . S
C817 C815 1.387 . S
C817 C819 1.390 . S
C817 H821 0.950 . S
H818 C814 0.950 . S
C819 C817 1.390 . S
C819 C820 1.387 . S
C819 H822 0.950 . S
C820 C819 1.387 . S
C820 C823 1.387 . S
H821 C817 0.950 . S
H822 C819 0.950 . S
C823 C814 1.390 . S
C823 H816 0.950 . S
C823 C820 1.387 . S
C824 C825 1.387 . S
C824 H828 0.950 . S
C824 C833 1.390 . S
C825 C824 1.387 . S
C825 C827 1.387 . S
H826 C833 0.950 . S
C827 C825 1.387 . S
C827 C829 1.390 . S
C827 H831 0.950 . S
H828 C824 0.950 . S
C829 C827 1.390 . S
C829 C830 1.387 . S
C829 H832 0.950 . S
C830 C829 1.387 . S
C830 C833 1.387 . S
H831 C827 0.950 . S
H832 C829 0.950 . S
C833 C824 1.390 . S
C833 H826 0.950 . S
C833 C830 1.387 . S
C834 C835 1.387 . S
C834 H838 0.950 . S
C834 C843 1.390 . S
C835 C834 1.387 . S
C835 C837 1.387 . S
H836 C843 0.950 . S
C837 C835 1.387 . S
C837 C839 1.390 . S
C837 H841 0.950 . S
H838 C834 0.950 . S
C839 C837 1.390 . S
C839 C840 1.387 . S
C839 H842 0.950 . S
C840 C839 1.387 . S
C840 C843 1.387 . S
H841 C837 0.950 . S
H842 C839 0.950 . S
C843 C834 1.390 . S
C843 H836 0.950 . S
C843 C840 1.387 . S
C844 C845 1.387 . S
C844 H848 0.950 . S
C844 C853 1.390 . S
C845 C844 1.387 . S
C845 C847 1.387 . S
H846 C853 0.950 . S
C847 C845 1.387 . S
C847 C849 1.390 . S
C847 H851 0.950 . S
H848 C844 0.950 . S
C849 C847 1.390 . S
C849 C850 1.387 . S
C849 H852 0.950 . S
C850 C849 1.387 . S
C850 C853 1.387 . S
H851 C847 0.950 . S
H852 C849 0.950 . S
C853 C844 1.390 . S
C853 H846 0.950 . S
C853 C850 1.387 . S
C854 C855 1.387 . S
C854 H858 0.950 . S
C854 C863 1.390 . S
C855 C854 1.387 . S
C855 C857 1.387 . S
H856 C863 0.950 . S
C857 C855 1.387 . S
C857 C859 1.390 . S
C857 H861 0.950 . S
H858 C854 0.950 . S
C859 C857 1.390 . S
C859 C860 1.387 . S
C859 H862 0.950 . S
C860 C859 1.387 . S
C860 C863 1.387 . S
H861 C857 0.950 . S
H862 C859 0.950 . S
C863 C854 1.390 . S
C863 H856 0.950 . S
C863 C860 1.387 . S
C864 C865 1.387 . S
C864 H868 0.950 1_545 S
C864 C873 1.390 . S
C865 C864 1.387 . S
C865 C867 1.387 . S
H866 C873 0.950 1_565 S
C867 C865 1.387 . S
C867 C869 1.390 . S
C867 H871 0.950 . S
H868 C864 0.950 1_565 S
C869 C867 1.390 . S
C869 C870 1.387 . S
C869 H872 0.950 . S
C870 C869 1.387 . S
C870 C873 1.387 . S
H871 C867 0.950 . S
H872 C869 0.950 . S
C873 C864 1.390 . S
C873 H866 0.950 1_545 S
C873 C870 1.387 . S
C874 C875 1.387 1_455 S
C874 H878 0.950 . S
C874 C883 1.390 . S
C875 C874 1.387 1_655 S
C875 C877 1.387 . S
H876 C883 0.950 . S
C877 C875 1.387 . S
C877 C879 1.390 . S
C877 H881 0.950 . S
H878 C874 0.950 . S
C879 C877 1.390 . S
C879 C880 1.387 . S
C879 H882 0.950 . S
C880 C879 1.387 . S
C880 C883 1.387 1_655 S
H881 C877 0.950 . S
H882 C879 0.950 . S
C883 C874 1.390 . S
C883 H876 0.950 . S
C883 C880 1.387 1_455 S
C884 C885 1.387 . S
C884 H888 0.950 . S
C884 C893 1.390 . S
C885 C884 1.387 . S
C885 C887 1.387 . S
H886 C893 0.950 . S
C887 C885 1.387 . S
C887 C889 1.390 . S
C887 H891 0.950 . S
H888 C884 0.950 . S
C889 C887 1.390 . S
C889 C890 1.387 . S
C889 H892 0.950 . S
C890 C889 1.387 . S
C890 C893 1.387 . S
H891 C887 0.950 . S
H892 C889 0.950 . S
C893 C884 1.390 . S
C893 H886 0.950 . S
C893 C890 1.387 . S
C894 C895 1.387 . S
C894 H898 0.950 . S
C894 C903 1.390 . S
C895 C894 1.387 . S
C895 C897 1.387 . S
H896 C903 0.950 . S
C897 C895 1.387 . S
C897 C899 1.390 . S
C897 H901 0.950 . S
H898 C894 0.950 . S
C899 C897 1.390 . S
C899 C900 1.387 . S
C899 H902 0.950 . S
C900 C899 1.387 . S
C900 C903 1.387 . S
H901 C897 0.950 . S
H902 C899 0.950 . S
C903 C894 1.390 . S
C903 H896 0.950 . S
C903 C900 1.387 . S
C904 C905 1.387 . S
C904 H908 0.950 . S
C904 C913 1.390 . S
C905 C904 1.387 . S
C905 C907 1.387 . S
H906 C913 0.950 . S
C907 C905 1.387 . S
C907 C909 1.390 . S
C907 H911 0.950 . S
H908 C904 0.950 . S
C909 C907 1.390 . S
C909 C910 1.387 . S
C909 H912 0.950 . S
C910 C909 1.387 . S
C910 C913 1.387 . S
H911 C907 0.950 . S
H912 C909 0.950 . S
C913 C904 1.390 . S
C913 H906 0.950 . S
C913 C910 1.387 . S
C914 C915 1.387 1_545 S
C914 H918 0.950 . S
C914 C923 1.390 . S
C915 C914 1.387 1_565 S
C915 C917 1.387 . S
H916 C923 0.950 . S
C917 C915 1.387 . S
C917 C919 1.390 . S
C917 H921 0.950 . S
H918 C914 0.950 . S
C919 C917 1.390 . S
C919 C920 1.387 . S
C919 H922 0.950 . S
C920 C919 1.387 . S
C920 C923 1.387 1_565 S
H921 C917 0.950 . S
H922 C919 0.950 . S
C923 C914 1.390 . S
C923 H916 0.950 . S
C923 C920 1.387 1_545 S
C924 C925 1.387 . S
C924 H928 0.950 . S
C924 C933 1.390 . S
C925 C924 1.387 . S
C925 C927 1.387 1_565 S
H926 C933 0.950 . S
C927 C925 1.387 1_545 S
C927 C929 1.390 . S
C927 H931 0.950 . S
H928 C924 0.950 . S
C929 C927 1.390 . S
C929 C930 1.387 1_545 S
C929 H932 0.950 . S
C930 C929 1.387 1_565 S
C930 C933 1.387 . S
H931 C927 0.950 . S
H932 C929 0.950 . S
C933 C924 1.390 . S
C933 H926 0.950 . S
C933 C930 1.387 . S
C934 C935 1.387 . S
C934 H938 0.950 . S
C934 C943 1.390 . S
C935 C934 1.387 . S
C935 C937 1.387 . S
H936 C943 0.950 . S
C937 C935 1.387 . S
C937 C939 1.390 . S
C937 H941 0.950 . S
H938 C934 0.950 . S
C939 C937 1.390 . S
C939 C940 1.387 . S
C939 H942 0.950 . S
C940 C939 1.387 . S
C940 C943 1.387 . S
H941 C937 0.950 . S
H942 C939 0.950 . S
C943 C934 1.390 . S
C943 H936 0.950 . S
C943 C940 1.387 . S
C944 C945 1.387 . S
C944 H948 0.950 . S
C944 C953 1.390 . S
C945 C944 1.387 . S
C945 C947 1.387 . S
H946 C953 0.950 . S
C947 C945 1.387 . S
C947 C949 1.390 . S
C947 H951 0.950 . S
H948 C944 0.950 . S
C949 C947 1.390 . S
C949 C950 1.387 . S
C949 H952 0.950 . S
C950 C949 1.387 . S
C950 C953 1.387 . S
H951 C947 0.950 . S
H952 C949 0.950 . S
C953 C944 1.390 . S
C953 H946 0.950 . S
C953 C950 1.387 . S
C954 C955 1.387 1_455 S
C954 H958 0.950 . S
C954 C963 1.390 . S
C955 C954 1.387 1_655 S
C955 C957 1.387 . S
H956 C963 0.950 . S
C957 C955 1.387 . S
C957 C959 1.390 . S
C957 H961 0.950 . S
H958 C954 0.950 . S
C959 C957 1.390 . S
C959 C960 1.387 . S
C959 H962 0.950 . S
C960 C959 1.387 . S
C960 C963 1.387 1_655 S
H961 C957 0.950 . S
H962 C959 0.950 . S
C963 C954 1.390 . S
C963 H956 0.950 . S
C963 C960 1.387 1_455 S
C964 C965 1.387 . S
C964 H968 0.950 . S
C964 C973 1.390 . S
C965 C964 1.387 . S
C965 C967 1.387 . S
H966 C973 0.950 . S
C967 C965 1.387 . S
C967 C969 1.390 . S
C967 H971 0.950 . S
H968 C964 0.950 . S
C969 C967 1.390 . S
C969 C970 1.387 . S
C969 H972 0.950 . S
C970 C969 1.387 . S
C970 C973 1.387 . S
H971 C967 0.950 . S
H972 C969 0.950 . S
C973 C964 1.390 . S
C973 H966 0.950 . S
C973 C970 1.387 . S
C974 C975 1.387 1_565 S
C974 H978 0.950 . S
C974 C983 1.390 . S
C975 C974 1.387 1_545 S
C975 C977 1.387 . S
H976 C983 0.950 . S
C977 C975 1.387 . S
C977 C979 1.390 . S
C977 H981 0.950 . S
H978 C974 0.950 . S
C979 C977 1.390 . S
C979 C980 1.387 . S
C979 H982 0.950 . S
C980 C979 1.387 . S
C980 C983 1.387 1_545 S
H981 C977 0.950 . S
H982 C979 0.950 . S
C983 C974 1.390 . S
C983 H976 0.950 . S
C983 C980 1.387 1_565 S
C984 C985 1.387 . S
C984 H988 0.950 . S
C984 C993 1.390 . S
C985 C984 1.387 . S
C985 C987 1.387 . S
H986 C993 0.950 . S
C987 C985 1.387 . S
C987 C989 1.390 . S
C987 H991 0.950 . S
H988 C984 0.950 . S
C989 C987 1.390 . S
C989 C990 1.387 . S
C989 H992 0.950 . S
C990 C989 1.387 . S
C990 C993 1.387 . S
H991 C987 0.950 . S
H992 C989 0.950 . S
C993 C984 1.390 . S
C993 H986 0.950 . S
C993 C990 1.387 . S
C994 C995 1.387 . S
C994 H998 0.950 . S
C994 C1003 1.390 . S
C995 C994 1.387 . S
C995 C997 1.387 . S
H996 C1003 0.950 . S
C997 C995 1.387 . S
C997 C999 1.390 . S
C997 H1001 0.950 . S
H998 C994 0.950 . S
C999 C997 1.390 . S
C999 C1000 1.387 . S
C999 H1002 0.950 . S
C1000 C999 1.387 . S
C1000 C1003 1.387 . S
H1001 C997 0.950 . S
H1002 C999 0.950 . S
C1003 C994 1.390 . S
C1003 H996 0.950 . S
C1003 C1000 1.387 . S
C1004 C1005 1.387 . S
C1004 H1008 0.950 . S
C1004 C1013 1.390 . S
C1005 C1004 1.387 . S
C1005 C1007 1.387 . S
H1006 C1013 0.950 . S
C1007 C1005 1.387 . S
C1007 C1009 1.390 . S
C1007 H1011 0.950 . S
H1008 C1004 0.950 . S
C1009 C1007 1.390 . S
C1009 C1010 1.387 . S
C1009 H1012 0.950 . S
C1010 C1009 1.387 . S
C1010 C1013 1.387 . S
H1011 C1007 0.950 . S
H1012 C1009 0.950 . S
C1013 C1004 1.390 . S
C1013 H1006 0.950 . S
C1013 C1010 1.387 . S
C1014 C1015 1.387 . S
C1014 H1018 0.950 . S
C1014 C1023 1.390 . S
C1015 C1014 1.387 . S
C1015 C1017 1.387 . S
H1016 C1023 0.950 . S
C1017 C1015 1.387 . S
C1017 C1019 1.390 . S
C1017 H1021 0.950 . S
H1018 C1014 0.950 . S
C1019 C1017 1.390 . S
C1019 C1020 1.387 . S
C1019 H1022 0.950 . S
C1020 C1019 1.387 . S
C1020 C1023 1.387 . S
H1021 C1017 0.950 . S
H1022 C1019 0.950 . S
C1023 C1014 1.390 . S
C1023 H1016 0.950 . S
C1023 C1020 1.387 . S
C1024 C1025 1.387 . S
C1024 H1028 0.950 . S
C1024 C1033 1.390 . S
C1025 C1024 1.387 . S
C1025 C1027 1.387 . S
H1026 C1033 0.950 . S
C1027 C1025 1.387 . S
C1027 C1029 1.390 . S
C1027 H1031 0.950 . S
H1028 C1024 0.950 . S
C1029 C1027 1.390 . S
C1029 C1030 1.387 . S
C1029 H1032 0.950 . S
C1030 C1029 1.387 . S
C1030 C1033 1.387 . S
H1031 C1027 0.950 . S
H1032 C1029 0.950 . S
C1033 C1024 1.390 . S
C1033 H1026 0.950 . S
C1033 C1030 1.387 . S
C1034 C1035 1.387 . S
C1034 H1038 0.950 . S
C1034 C1043 1.390 . S
C1035 C1034 1.387 . S
C1035 C1037 1.387 . S
H1036 C1043 0.950 . S
C1037 C1035 1.387 . S
C1037 C1039 1.390 . S
C1037 H1041 0.950 . S
H1038 C1034 0.950 . S
C1039 C1037 1.390 . S
C1039 C1040 1.387 . S
C1039 H1042 0.950 . S
C1040 C1039 1.387 . S
C1040 C1043 1.387 . S
H1041 C1037 0.950 . S
H1042 C1039 0.950 . S
C1043 C1034 1.390 . S
C1043 H1036 0.950 . S
C1043 C1040 1.387 . S
C1044 C1045 1.387 . S
C1044 H1048 0.950 . S
C1044 C1053 1.390 . S
C1045 C1044 1.387 . S
C1045 C1047 1.387 . S
H1046 C1053 0.950 . S
C1047 C1045 1.387 . S
C1047 C1049 1.390 . S
C1047 H1051 0.950 . S
H1048 C1044 0.950 . S
C1049 C1047 1.390 . S
C1049 C1050 1.387 . S
C1049 H1052 0.950 . S
C1050 C1049 1.387 . S
C1050 C1053 1.387 . S
H1051 C1047 0.950 . S
H1052 C1049 0.950 . S
C1053 C1044 1.390 . S
C1053 H1046 0.950 . S
C1053 C1050 1.387 . S
C1054 C1055 1.387 . S
C1054 H1058 0.950 . S
C1054 C1063 1.390 . S
C1055 C1054 1.387 . S
C1055 C1057 1.387 . S
H1056 C1063 0.950 . S
C1057 C1055 1.387 . S
C1057 C1059 1.390 . S
C1057 H1061 0.950 . S
H1058 C1054 0.950 . S
C1059 C1057 1.390 . S
C1059 C1060 1.387 . S
C1059 H1062 0.950 . S
C1060 C1059 1.387 . S
C1060 C1063 1.387 . S
H1061 C1057 0.950 . S
H1062 C1059 0.950 . S
C1063 C1054 1.390 . S
C1063 H1056 0.950 . S
C1063 C1060 1.387 . S
C1064 C1065 1.387 . S
C1064 H1068 0.950 . S
C1064 C1073 1.390 . S
C1065 C1064 1.387 . S
C1065 C1067 1.387 . S
H1066 C1073 0.950 . S
C1067 C1065 1.387 . S
C1067 C1069 1.390 . S
C1067 H1071 0.950 . S
H1068 C1064 0.950 . S
C1069 C1067 1.390 . S
C1069 C1070 1.387 . S
C1069 H1072 0.950 . S
C1070 C1069 1.387 . S
C1070 C1073 1.387 . S
H1071 C1067 0.950 . S
H1072 C1069 0.950 . S
C1073 C1064 1.390 . S
C1073 H1066 0.950 . S
C1073 C1070 1.387 . S
C1074 C1075 1.387 . S
C1074 H1078 0.950 . S
C1074 C1083 1.390 . S
C1075 C1074 1.387 . S
C1075 C1077 1.387 . S
H1076 C1083 0.950 . S
C1077 C1075 1.387 . S
C1077 C1079 1.390 . S
C1077 H1081 0.950 . S
H1078 C1074 0.950 . S
C1079 C1077 1.390 . S
C1079 C1080 1.387 . S
C1079 H1082 0.950 . S
C1080 C1079 1.387 . S
C1080 C1083 1.387 . S
H1081 C1077 0.950 . S
H1082 C1079 0.950 . S
C1083 C1074 1.390 . S
C1083 H1076 0.950 . S
C1083 C1080 1.387 . S
C1084 C1085 1.387 . S
C1084 H1088 0.950 . S
C1084 C1093 1.390 . S
C1085 C1084 1.387 . S
C1085 C1087 1.387 . S
H1086 C1093 0.950 . S
C1087 C1085 1.387 . S
C1087 C1089 1.390 . S
C1087 H1091 0.950 . S
H1088 C1084 0.950 . S
C1089 C1087 1.390 . S
C1089 C1090 1.387 . S
C1089 H1092 0.950 . S
C1090 C1089 1.387 . S
C1090 C1093 1.387 . S
H1091 C1087 0.950 . S
H1092 C1089 0.950 . S
C1093 C1084 1.390 . S
C1093 H1086 0.950 . S
C1093 C1090 1.387 . S
C1094 C1095 1.387 . S
C1094 H1098 0.950 . S
C1094 C1103 1.390 . S
C1095 C1094 1.387 . S
C1095 C1097 1.387 . S
H1096 C1103 0.950 . S
C1097 C1095 1.387 . S
C1097 C1099 1.390 . S
C1097 H1101 0.950 . S
H1098 C1094 0.950 . S
C1099 C1097 1.390 . S
C1099 C1100 1.387 . S
C1099 H1102 0.950 . S
C1100 C1099 1.387 . S
C1100 C1103 1.387 . S
H1101 C1097 0.950 . S
H1102 C1099 0.950 . S
C1103 C1094 1.390 . S
C1103 H1096 0.950 . S
C1103 C1100 1.387 . S
C1104 C1105 1.387 . S
C1104 H1108 0.950 . S
C1104 C1113 1.390 . S
C1105 C1104 1.387 . S
C1105 C1107 1.387 . S
H1106 C1113 0.950 . S
C1107 C1105 1.387 . S
C1107 C1109 1.390 . S
C1107 H1111 0.950 . S
H1108 C1104 0.950 . S
C1109 C1107 1.390 . S
C1109 C1110 1.387 . S
C1109 H1112 0.950 . S
C1110 C1109 1.387 . S
C1110 C1113 1.387 . S
H1111 C1107 0.950 . S
H1112 C1109 0.950 . S
C1113 C1104 1.390 . S
C1113 H1106 0.950 . S
C1113 C1110 1.387 . S
C1114 C1115 1.387 . S
C1114 H1118 0.950 . S
C1114 C1123 1.390 . S
C1115 C1114 1.387 . S
C1115 C1117 1.387 . S
H1116 C1123 0.950 . S
C1117 C1115 1.387 . S
C1117 C1119 1.390 . S
C1117 H1121 0.950 . S
H1118 C1114 0.950 . S
C1119 C1117 1.390 . S
C1119 C1120 1.387 . S
C1119 H1122 0.950 . S
C1120 C1119 1.387 . S
C1120 C1123 1.387 . S
H1121 C1117 0.950 . S
H1122 C1119 0.950 . S
C1123 C1114 1.390 . S
C1123 H1116 0.950 . S
C1123 C1120 1.387 . S
C1124 C1125 1.387 . S
C1124 H1128 0.950 . S
C1124 C1133 1.390 . S
C1125 C1124 1.387 . S
C1125 C1127 1.387 . S
H1126 C1133 0.950 . S
C1127 C1125 1.387 . S
C1127 C1129 1.390 . S
C1127 H1131 0.950 . S
H1128 C1124 0.950 . S
C1129 C1127 1.390 . S
C1129 C1130 1.387 . S
C1129 H1132 0.950 . S
C1130 C1129 1.387 . S
C1130 C1133 1.387 . S
H1131 C1127 0.950 . S
H1132 C1129 0.950 . S
C1133 C1124 1.390 . S
C1133 H1126 0.950 . S
C1133 C1130 1.387 . S
C1134 C1135 1.387 . S
C1134 H1138 0.950 . S
C1134 C1143 1.390 . S
C1135 C1134 1.387 . S
C1135 C1137 1.387 . S
H1136 C1143 0.950 . S
C1137 C1135 1.387 . S
C1137 C1139 1.390 . S
C1137 H1141 0.950 . S
H1138 C1134 0.950 . S
C1139 C1137 1.390 . S
C1139 C1140 1.387 . S
C1139 H1142 0.950 . S
C1140 C1139 1.387 . S
C1140 C1143 1.387 . S
H1141 C1137 0.950 . S
H1142 C1139 0.950 . S
C1143 C1134 1.390 . S
C1143 H1136 0.950 . S
C1143 C1140 1.387 . S
C1144 C1145 1.387 . S
C1144 H1148 0.950 . S
C1144 C1153 1.390 . S
C1145 C1144 1.387 . S
C1145 C1147 1.387 . S
H1146 C1153 0.950 . S
C1147 C1145 1.387 . S
C1147 C1149 1.390 . S
C1147 H1151 0.950 . S
H1148 C1144 0.950 . S
C1149 C1147 1.390 . S
C1149 C1150 1.387 . S
C1149 H1152 0.950 . S
C1150 C1149 1.387 . S
C1150 C1153 1.387 . S
H1151 C1147 0.950 . S
H1152 C1149 0.950 . S
C1153 C1144 1.390 . S
C1153 H1146 0.950 . S
C1153 C1150 1.387 . S
C1154 C1155 1.387 . S
C1154 H1158 0.950 . S
C1154 C1163 1.390 . S
C1155 C1154 1.387 . S
C1155 C1157 1.387 . S
H1156 C1163 0.950 . S
C1157 C1155 1.387 . S
C1157 C1159 1.390 . S
C1157 H1161 0.950 . S
H1158 C1154 0.950 . S
C1159 C1157 1.390 . S
C1159 C1160 1.387 . S
C1159 H1162 0.950 . S
C1160 C1159 1.387 . S
C1160 C1163 1.387 . S
H1161 C1157 0.950 . S
H1162 C1159 0.950 . S
C1163 C1154 1.390 . S
C1163 H1156 0.950 . S
C1163 C1160 1.387 . S
C1164 C1165 1.387 . S
C1164 H1168 0.950 . S
C1164 C1173 1.390 . S
C1165 C1164 1.387 . S
C1165 C1167 1.387 . S
H1166 C1173 0.950 . S
C1167 C1165 1.387 . S
C1167 C1169 1.390 . S
C1167 H1171 0.950 . S
H1168 C1164 0.950 . S
C1169 C1167 1.390 . S
C1169 C1170 1.387 . S
C1169 H1172 0.950 . S
C1170 C1169 1.387 . S
C1170 C1173 1.387 . S
H1171 C1167 0.950 . S
H1172 C1169 0.950 . S
C1173 C1164 1.390 . S
C1173 H1166 0.950 . S
C1173 C1170 1.387 . S
C1174 C1175 1.387 . S
C1174 H1178 0.950 . S
C1174 C1183 1.390 . S
C1175 C1174 1.387 . S
C1175 C1177 1.387 . S
H1176 C1183 0.950 . S
C1177 C1175 1.387 . S
C1177 C1179 1.390 . S
C1177 H1181 0.950 . S
H1178 C1174 0.950 . S
C1179 C1177 1.390 . S
C1179 C1180 1.387 . S
C1179 H1182 0.950 . S
C1180 C1179 1.387 . S
C1180 C1183 1.387 . S
H1181 C1177 0.950 . S
H1182 C1179 0.950 . S
C1183 C1174 1.390 . S
C1183 H1176 0.950 . S
C1183 C1180 1.387 . S
C1184 C1185 1.387 . S
C1184 H1188 0.950 . S
C1184 C1193 1.390 . S
C1185 C1184 1.387 . S
C1185 C1187 1.387 . S
H1186 C1193 0.950 . S
C1187 C1185 1.387 . S
C1187 C1189 1.390 . S
C1187 H1191 0.950 . S
H1188 C1184 0.950 . S
C1189 C1187 1.390 . S
C1189 C1190 1.387 . S
C1189 H1192 0.950 . S
C1190 C1189 1.387 . S
C1190 C1193 1.387 . S
H1191 C1187 0.950 . S
H1192 C1189 0.950 . S
C1193 C1184 1.390 . S
C1193 H1186 0.950 . S
C1193 C1190 1.387 . S
C1194 C1195 1.387 . S
C1194 H1198 0.950 . S
C1194 C1203 1.390 . S
C1195 C1194 1.387 . S
C1195 C1197 1.387 . S
H1196 C1203 0.950 . S
C1197 C1195 1.387 . S
C1197 C1199 1.390 . S
C1197 H1201 0.950 . S
H1198 C1194 0.950 . S
C1199 C1197 1.390 . S
C1199 C1200 1.387 . S
C1199 H1202 0.950 . S
C1200 C1199 1.387 . S
C1200 C1203 1.387 . S
H1201 C1197 0.950 . S
H1202 C1199 0.950 . S
C1203 C1194 1.390 . S
C1203 H1196 0.950 . S
C1203 C1200 1.387 . S
C1204 C1205 1.387 . S
C1204 H1208 0.950 . S
C1204 C1213 1.390 . S
C1205 C1204 1.387 . S
C1205 C1207 1.387 . S
H1206 C1213 0.950 . S
C1207 C1205 1.387 . S
C1207 C1209 1.390 . S
C1207 H1211 0.950 . S
H1208 C1204 0.950 . S
C1209 C1207 1.390 . S
C1209 C1210 1.387 . S
C1209 H1212 0.950 . S
C1210 C1209 1.387 . S
C1210 C1213 1.387 . S
H1211 C1207 0.950 . S
H1212 C1209 0.950 . S
C1213 C1204 1.390 . S
C1213 H1206 0.950 . S
C1213 C1210 1.387 . S
C1214 C1215 1.387 . S
C1214 H1218 0.950 . S
C1214 C1223 1.390 . S
C1215 C1214 1.387 . S
C1215 C1217 1.387 . S
H1216 C1223 0.950 . S
C1217 C1215 1.387 . S
C1217 C1219 1.390 . S
C1217 H1221 0.950 . S
H1218 C1214 0.950 . S
C1219 C1217 1.390 . S
C1219 C1220 1.387 . S
C1219 H1222 0.950 . S
C1220 C1219 1.387 . S
C1220 C1223 1.387 . S
H1221 C1217 0.950 . S
H1222 C1219 0.950 . S
C1223 C1214 1.390 . S
C1223 H1216 0.950 . S
C1223 C1220 1.387 . S
C505 C37 1.379 . S
C510 C256 1.179 . S
C515 C9 1.359 . S
C520 C272 1.175 . S
C530 C255 1.183 . S
C525 C19 1.366 . S
C540 C280 1.170 . S
C535 C33 1.361 . S
C545 C5 1.393 . S
C550 C289 1.202 . S
C560 C292 1.187 . S
C555 C23 1.375 . S
C565 C75 1.361 . S
C570 C298 1.165 . S
C580 C314 1.171 . S
C575 C51 1.346 . S
C590 C297 1.212 . S
C585 C65 1.398 . S
C595 C79 1.394 . S
C600 C322 1.196 . S
C610 C331 1.186 . S
C605 C47 1.379 . S
C620 C334 1.169 . S
C615 C61 1.356 . S
C630 C343 1.183 . S
C625 C121 1.378 . S
C640 C355 1.175 . S
C635 C93 1.359 . S
C650 C352 1.185 . S
C645 C103 1.367 . S
C655 C117 1.360 . S
C660 C361 1.166 . S
C670 C360 1.202 . S
C665 C89 1.394 . S
C675 C107 1.374 . S
C680 C377 1.181 . S
C690 C382 1.167 . S
C685 C159 1.363 . S
C700 C398 1.171 . S
C695 C135 1.345 . S
C705 C149 1.397 . S
C710 C381 1.209 . S
C720 C406 1.194 . S
C715 C163 1.392 . S
C730 C415 1.188 . S
C725 C131 1.380 . S
C735 C145 1.356 . S
C740 C418 1.171 . S
C745 C205 1.380 . S
C750 C427 1.179 . S
C760 C439 1.181 . S
C755 C177 1.359 . S
C770 C436 1.183 . S
C765 C187 1.367 . S
C775 C201 1.359 . S
C780 C445 1.166 . S
C790 C444 1.196 . S
C785 C173 1.394 . S
C795 C191 1.375 . S
C800 C461 1.181 . S
C810 C466 1.168 . S
C805 C243 1.361 . S
C820 C482 1.171 . S
C815 C219 1.346 . S
C825 C233 1.396 . S
C830 C465 1.211 . S
C840 C487 1.195 . S
C835 C247 1.392 . S
C850 C486 1.188 . S
C845 C215 1.379 . S
C860 C503 1.169 . S
C855 C229 1.356 . S
C870 C268 1.530 . S
C865 C154 1.614 . S
C875 C137 1.529 . S
C880 C271 1.440 . S
C890 C259 1.448 . S
C885 C151 1.549 . S
C895 C249 1.581 . S
C900 C276 1.498 . S
C905 C210 1.525 . S
C910 C277 1.439 . S
C920 C293 1.547 . S
C915 C224 1.631 . S
C930 C310 1.425 . S
C925 C207 1.519 . S
C940 C313 1.512 . S
C935 C179 1.604 . S
C945 C182 1.566 . S
C950 C301 1.470 . S
C960 C318 1.520 . S
C955 C112 1.601 . S
C965 C84 1.603 . S
C970 C319 1.514 . S
C975 C109 1.534 . S
C980 C335 1.448 . S
C985 C238 1.614 . S
C990 C339 1.530 . S
C995 C221 1.529 . S
C1000 C356 1.438 . S
C1010 C340 1.450 . S
C1005 C235 1.548 . S
C1020 C373 1.501 . S
C1015 C81 1.583 . S
C1030 C364 1.439 . S
C1025 C42 1.525 . S
C1035 C56 1.630 . S
C1040 C376 1.544 . S
C1050 C394 1.434 . S
C1045 C39 1.519 . S
C1060 C397 1.509 . S
C1055 C11 1.602 . S
C1065 C14 1.566 . S
C1070 C385 1.470 . S
C1080 C402 1.522 . S
C1075 C196 1.601 . S
C1090 C403 1.514 . S
C1085 C168 1.603 . S
C1100 C419 1.448 . S
C1095 C193 1.534 . S
C1110 C423 1.526 . S
C1105 C70 1.613 . S
C1120 C440 1.438 . S
C1115 C53 1.527 . S
C1125 C67 1.549 . S
C1130 C424 1.449 . S
C1135 C165 1.583 . S
C1140 C457 1.501 . S
C1145 C126 1.525 . S
C1150 C448 1.439 . S
C1160 C460 1.544 . S
C1155 C140 1.630 . S
C1165 C123 1.519 . S
C1170 C478 1.435 . S
C1175 C95 1.603 . S
C1180 C481 1.509 . S
C1190 C469 1.470 . S
C1185 C98 1.566 . S
C1200 C499 1.523 . S
C1195 C28 1.601 . S
C1210 C490 1.514 . S
C1205 C0 1.603 . S
C1215 C25 1.534 . S
C1220 C502 1.448 . S
