# Generated by pormake.
# Topology ocu, (6,8)-cn, num edge types: 1
# Building blocks:
#     Node 0, Type 0, BuildingBlock: MIFKUJ_clean_sbu_0, # of connection points: 6
#     Node 1, Type 0, BuildingBlock: MIFKUJ_clean_sbu_0, # of connection points: 6
#     Node 2, Type 0, BuildingBlock: MIFKUJ_clean_sbu_0, # of connection points: 6
#     Node 3, Type 0, BuildingBlock: MIFKUJ_clean_sbu_0, # of connection points: 6
#     Node 4, Type 0, BuildingBlock: MIFKUJ_clean_sbu_0, # of connection points: 6
#     Node 5, Type 0, BuildingBlock: MIFKUJ_clean_sbu_0, # of connection points: 6
#     Node 6, Type 0, BuildingBlock: MIFKUJ_clean_sbu_0, # of connection points: 6
#     Node 7, Type 0, BuildingBlock: MIFKUJ_clean_sbu_0, # of connection points: 6
#     Node 8, Type 1, BuildingBlock: VETTIZ_charged_sbu_0, # of connection points: 8
#     Node 9, Type 1, BuildingBlock: VETTIZ_charged_sbu_0, # of connection points: 8
#     Node 10, Type 1, BuildingBlock: VETTIZ_charged_sbu_0, # of connection points: 8
#     Node 11, Type 1, BuildingBlock: VETTIZ_charged_sbu_0, # of connection points: 8
#     Node 12, Type 1, BuildingBlock: VETTIZ_charged_sbu_0, # of connection points: 8
#     Node 13, Type 1, BuildingBlock: VETTIZ_charged_sbu_0, # of connection points: 8
#     Edge 14, Type (0, 1), BuildingBlock: UVAHIK_clean_linker_0, # of connection points: 2
#     Edge 15, Type (0, 1), BuildingBlock: UVAHIK_clean_linker_0, # of connection points: 2
#     Edge 16, Type (0, 1), BuildingBlock: UVAHIK_clean_linker_0, # of connection points: 2
#     Edge 17, Type (0, 1), BuildingBlock: UVAHIK_clean_linker_0, # of connection points: 2
#     Edge 18, Type (0, 1), BuildingBlock: UVAHIK_clean_linker_0, # of connection points: 2
#     Edge 19, Type (0, 1), BuildingBlock: UVAHIK_clean_linker_0, # of connection points: 2
#     Edge 20, Type (0, 1), BuildingBlock: UVAHIK_clean_linker_0, # of connection points: 2
#     Edge 21, Type (0, 1), BuildingBlock: UVAHIK_clean_linker_0, # of connection points: 2
#     Edge 22, Type (0, 1), BuildingBlock: UVAHIK_clean_linker_0, # of connection points: 2
#     Edge 23, Type (0, 1), BuildingBlock: UVAHIK_clean_linker_0, # of connection points: 2
#     Edge 24, Type (0, 1), BuildingBlock: UVAHIK_clean_linker_0, # of connection points: 2
#     Edge 25, Type (0, 1), BuildingBlock: UVAHIK_clean_linker_0, # of connection points: 2
#     Edge 26, Type (0, 1), BuildingBlock: UVAHIK_clean_linker_0, # of connection points: 2
#     Edge 27, Type (0, 1), BuildingBlock: UVAHIK_clean_linker_0, # of connection points: 2
#     Edge 28, Type (0, 1), BuildingBlock: UVAHIK_clean_linker_0, # of connection points: 2
#     Edge 29, Type (0, 1), BuildingBlock: UVAHIK_clean_linker_0, # of connection points: 2
#     Edge 30, Type (0, 1), BuildingBlock: UVAHIK_clean_linker_0, # of connection points: 2
#     Edge 31, Type (0, 1), BuildingBlock: UVAHIK_clean_linker_0, # of connection points: 2
#     Edge 32, Type (0, 1), BuildingBlock: UVAHIK_clean_linker_0, # of connection points: 2
#     Edge 33, Type (0, 1), BuildingBlock: UVAHIK_clean_linker_0, # of connection points: 2
#     Edge 34, Type (0, 1), BuildingBlock: UVAHIK_clean_linker_0, # of connection points: 2
#     Edge 35, Type (0, 1), BuildingBlock: UVAHIK_clean_linker_0, # of connection points: 2
#     Edge 36, Type (0, 1), BuildingBlock: UVAHIK_clean_linker_0, # of connection points: 2
#     Edge 37, Type (0, 1), BuildingBlock: UVAHIK_clean_linker_0, # of connection points: 2
#     Edge 38, Type (0, 1), BuildingBlock: UVAHIK_clean_linker_0, # of connection points: 2
#     Edge 39, Type (0, 1), BuildingBlock: UVAHIK_clean_linker_0, # of connection points: 2
#     Edge 40, Type (0, 1), BuildingBlock: UVAHIK_clean_linker_0, # of connection points: 2
#     Edge 41, Type (0, 1), BuildingBlock: UVAHIK_clean_linker_0, # of connection points: 2
#     Edge 42, Type (0, 1), BuildingBlock: UVAHIK_clean_linker_0, # of connection points: 2
#     Edge 43, Type (0, 1), BuildingBlock: UVAHIK_clean_linker_0, # of connection points: 2
#     Edge 44, Type (0, 1), BuildingBlock: UVAHIK_clean_linker_0, # of connection points: 2
#     Edge 45, Type (0, 1), BuildingBlock: UVAHIK_clean_linker_0, # of connection points: 2
#     Edge 46, Type (0, 1), BuildingBlock: UVAHIK_clean_linker_0, # of connection points: 2
#     Edge 47, Type (0, 1), BuildingBlock: UVAHIK_clean_linker_0, # of connection points: 2
#     Edge 48, Type (0, 1), BuildingBlock: UVAHIK_clean_linker_0, # of connection points: 2
#     Edge 49, Type (0, 1), BuildingBlock: UVAHIK_clean_linker_0, # of connection points: 2
#     Edge 50, Type (0, 1), BuildingBlock: UVAHIK_clean_linker_0, # of connection points: 2
#     Edge 51, Type (0, 1), BuildingBlock: UVAHIK_clean_linker_0, # of connection points: 2
#     Edge 52, Type (0, 1), BuildingBlock: UVAHIK_clean_linker_0, # of connection points: 2
#     Edge 53, Type (0, 1), BuildingBlock: UVAHIK_clean_linker_0, # of connection points: 2
#     Edge 54, Type (0, 1), BuildingBlock: UVAHIK_clean_linker_0, # of connection points: 2
#     Edge 55, Type (0, 1), BuildingBlock: UVAHIK_clean_linker_0, # of connection points: 2
#     Edge 56, Type (0, 1), BuildingBlock: UVAHIK_clean_linker_0, # of connection points: 2
#     Edge 57, Type (0, 1), BuildingBlock: UVAHIK_clean_linker_0, # of connection points: 2
#     Edge 58, Type (0, 1), BuildingBlock: UVAHIK_clean_linker_0, # of connection points: 2
#     Edge 59, Type (0, 1), BuildingBlock: UVAHIK_clean_linker_0, # of connection points: 2
#     Edge 60, Type (0, 1), BuildingBlock: UVAHIK_clean_linker_0, # of connection points: 2
#     Edge 61, Type (0, 1), BuildingBlock: UVAHIK_clean_linker_0, # of connection points: 2
# Relax obj value: 0.051
# Max RMSD: 0.184
# Mean RMSD: 0.106
data_MOF--net-ocu--node1-MIFKUJ_clean_sbu_0--node2-VETTIZ_charged_sbu_0--edge1-UVAHIK_clean_linker_0
_symmetry_space_group_name_H-M    P1
_symmetry_Int_Tables_number       1
_symmetry_cell_setting            triclinic
loop_
_symmetry_equiv_pos_as_xyz
'x, y, z'
_cell_length_a     48.174797
_cell_length_b     50.3327
_cell_length_c     47.742744
_cell_angle_alpha  92.14213
_cell_angle_beta   92.943287
_cell_angle_gamma 95.89389
loop_
_atom_site_label
_atom_site_type_symbol
_atom_site_fract_x
_atom_site_fract_y
_atom_site_fract_z
_atom_type_partial_charge
Zn0 Zn 0.2268 0.26088 0.24416 0.0
Zn1 Zn 0.28743 0.24178 0.26622 0.0
C2 C 0.19885 0.27686 0.29151 0.0
O3 O 0.18277 0.25576 0.28111 0.0
C4 C 0.32013 0.22546 0.22152 0.0
O5 O 0.33403 0.24844 0.22992 0.0
O6 O 0.19405 0.26948 0.2197 0.0
O7 O 0.2604 0.27546 0.22151 0.0
O8 O 0.2935 0.28064 0.25518 0.0
C9 C 0.19269 0.29455 0.21958 0.0
O10 O 0.21245 0.31064 0.23325 0.0
O11 O 0.22187 0.28334 0.28016 0.0
C12 C 0.31526 0.21253 0.30174 0.0
O13 O 0.2977 0.19522 0.28674 0.0
O14 O 0.31693 0.23698 0.29574 0.0
O15 O 0.25316 0.22572 0.28655 0.0
O16 O 0.2189 0.22164 0.25409 0.0
O17 O 0.29755 0.21793 0.23317 0.0
C18 C 0.28411 0.28661 0.23112 0.0
C19 C 0.22932 0.21471 0.2774 0.0
Zn20 Zn 0.75003 0.28359 0.22247 0.0
Zn21 Zn 0.74653 0.23093 0.28881 0.0
C22 C 0.69937 0.30704 0.20943 0.0
O23 O 0.68818 0.28386 0.21749 0.0
C24 C 0.78279 0.20888 0.32529 0.0
O25 O 0.7686 0.22377 0.34128 0.0
O26 O 0.78664 0.28969 0.2058 0.0
O27 O 0.75363 0.27938 0.26336 0.0
O28 O 0.75636 0.26826 0.30649 0.0
C29 C 0.80196 0.31154 0.2103 0.0
O30 O 0.79392 0.32995 0.22742 0.0
O31 O 0.72583 0.31211 0.21108 0.0
C32 C 0.71153 0.18782 0.29845 0.0
O33 O 0.72536 0.17998 0.27717 0.0
O34 O 0.71579 0.21189 0.3078 0.0
O35 O 0.73425 0.2289 0.24674 0.0
O36 O 0.73206 0.24861 0.20629 0.0
O37 O 0.77864 0.20938 0.29875 0.0
C38 C 0.75983 0.28618 0.28881 0.0
C39 C 0.72686 0.22809 0.22064 0.0
Zn40 Zn 0.77727 0.72692 0.24555 0.0
Zn41 Zn 0.72346 0.77643 0.26348 0.0
C42 C 0.78837 0.70451 0.30076 0.0
O43 O 0.79074 0.72942 0.31057 0.0
C44 C 0.71554 0.80143 0.20718 0.0
O45 O 0.7401 0.79478 0.20051 0.0
O46 O 0.80099 0.71392 0.2153 0.0
O47 O 0.73778 0.72371 0.22763 0.0
O48 O 0.71005 0.73689 0.25967 0.0
C49 C 0.79323 0.69033 0.2055 0.0
O50 O 0.77097 0.67721 0.21511 0.0
O51 O 0.78101 0.69933 0.275 0.0
C52 C 0.70635 0.81677 0.29789 0.0
O53 O 0.72043 0.83042 0.27935 0.0
O54 O 0.70475 0.79139 0.29626 0.0
O55 O 0.76421 0.78938 0.27208 0.0
O56 O 0.79603 0.76234 0.26151 0.0
O57 O 0.70632 0.79518 0.23079 0.0
C58 C 0.7152 0.72036 0.24032 0.0
C59 C 0.78955 0.78455 0.27136 0.0
Zn60 Zn 0.23475 0.77534 0.26758 0.0
Zn61 Zn 0.27761 0.73636 0.24431 0.0
C62 C 0.19354 0.74022 0.29144 0.0
O63 O 0.17822 0.74959 0.27129 0.0
C64 C 0.31968 0.77592 0.22902 0.0
O65 O 0.33361 0.76475 0.24898 0.0
O66 O 0.21498 0.80694 0.27822 0.0
O67 O 0.27533 0.78502 0.27737 0.0
O68 O 0.28409 0.7442 0.28616 0.0
C69 C 0.21663 0.81404 0.3041 0.0
O70 O 0.23205 0.80144 0.32161 0.0
O71 O 0.2197 0.74722 0.29338 0.0
C72 C 0.30509 0.70721 0.20551 0.0
O73 O 0.2943 0.72484 0.1898 0.0
O74 O 0.30038 0.70704 0.23151 0.0
O75 O 0.23855 0.72509 0.22825 0.0
O76 O 0.22226 0.76453 0.22801 0.0
O77 O 0.2938 0.76841 0.22422 0.0
C78 C 0.28629 0.76893 0.29337 0.0
C79 C 0.22144 0.74055 0.21861 0.0
Zn80 Zn 0.27734 0.75472 0.71157 0.0
Zn81 Zn 0.24661 0.73739 0.76548 0.0
C82 C 0.24135 0.77913 0.67222 0.0
O83 O 0.25268 0.7626 0.65535 0.0
C84 C 0.28014 0.71121 0.80431 0.0
O85 O 0.26615 0.72597 0.82062 0.0
O86 O 0.30526 0.75996 0.68295 0.0
O87 O 0.29797 0.77087 0.74716 0.0
O88 O 0.26217 0.77557 0.77302 0.0
C89 C 0.33131 0.7605 0.68854 0.0
O90 O 0.34033 0.75378 0.71346 0.0
O91 O 0.24719 0.77861 0.69857 0.0
C92 C 0.2009 0.70777 0.78625 0.0
O93 O 0.20525 0.69315 0.76387 0.0
O94 O 0.21631 0.72949 0.79194 0.0
O95 O 0.22667 0.72749 0.72753 0.0
O96 O 0.26357 0.71564 0.70797 0.0
O97 O 0.27652 0.71271 0.77773 0.0
C98 C 0.28707 0.78288 0.767 0.0
C99 C 0.23754 0.71197 0.7108 0.0
Zn100 Zn 0.28074 0.22221 0.74492 0.0
Zn101 Zn 0.22778 0.28654 0.7531 0.0
C102 C 0.29315 0.19833 0.80008 0.0
O103 O 0.28495 0.21988 0.81209 0.0
C104 C 0.21294 0.30564 0.69718 0.0
O105 O 0.21508 0.28102 0.68804 0.0
O106 O 0.29116 0.20768 0.70797 0.0
O107 O 0.24089 0.23155 0.74368 0.0
O108 O 0.20293 0.2516 0.74455 0.0
C109 C 0.28618 0.18282 0.70192 0.0
O110 O 0.27178 0.16751 0.7189 0.0
O111 O 0.29146 0.19546 0.77345 0.0
C112 C 0.19963 0.29541 0.8049 0.0
O113 O 0.18745 0.27102 0.79978 0.0
O114 O 0.21814 0.3048 0.78889 0.0
O115 O 0.26856 0.27922 0.75448 0.0
O116 O 0.30518 0.25681 0.75302 0.0
O117 O 0.21871 0.31208 0.723 0.0
C118 C 0.21451 0.2304 0.73984 0.0
C119 C 0.29498 0.27898 0.75633 0.0
Zn120 Zn 0.72602 0.26839 0.76466 0.0
Zn121 Zn 0.77512 0.23252 0.73644 0.0
C122 C 0.6834 0.2279 0.77559 0.0
O123 O 0.6705 0.2403 0.75586 0.0
C124 C 0.81481 0.27003 0.71498 0.0
O125 O 0.83057 0.2575 0.73225 0.0
O126 O 0.70323 0.29768 0.77899 0.0
O127 O 0.76527 0.27805 0.78191 0.0
O128 O 0.78707 0.24159 0.7764 0.0
C129 C 0.6965 0.29598 0.8044 0.0
O130 O 0.70508 0.27665 0.81925 0.0
O131 O 0.70904 0.23523 0.78207 0.0
C132 C 0.80328 0.20147 0.69736 0.0
O133 O 0.79484 0.2194 0.68048 0.0
O134 O 0.79641 0.20202 0.72276 0.0
O135 O 0.73453 0.22254 0.72784 0.0
O136 O 0.7201 0.26216 0.72239 0.0
O137 O 0.78849 0.26397 0.71401 0.0
C138 C 0.78508 0.26414 0.78853 0.0
C139 C 0.7221 0.23851 0.71292 0.0
Zn140 Zn 0.72054 0.75821 0.73275 0.0
Zn141 Zn 0.78116 0.73889 0.75943 0.0
C142 C 0.68698 0.77471 0.77704 0.0
O143 O 0.67333 0.75151 0.76906 0.0
C144 C 0.81231 0.72129 0.7153 0.0
O145 O 0.82744 0.74301 0.72559 0.0
O146 O 0.69174 0.76248 0.7024 0.0
O147 O 0.75556 0.77384 0.71377 0.0
O148 O 0.78871 0.77741 0.74745 0.0
C149 C 0.69367 0.78658 0.69518 0.0
O150 O 0.71147 0.80433 0.70933 0.0
O151 O 0.70947 0.78228 0.76525 0.0
C152 C 0.80998 0.7193 0.8078 0.0
O153 O 0.785 0.70792 0.81248 0.0
O154 O 0.81313 0.734 0.78691 0.0
O155 O 0.7454 0.7256 0.77932 0.0
O156 O 0.71465 0.7195 0.74353 0.0
O157 O 0.78903 0.71445 0.72599 0.0
C158 C 0.77921 0.78444 0.72384 0.0
C159 C 0.72237 0.7142 0.76834 0.0
Fe160 Fe 0.00895 0.05922 0.49036 0.0
O161 O 0.00675 0.0201 0.49055 0.0
Fe162 Fe 0.04267 0.00297 0.50475 0.0
Fe163 Fe 0.97746 0.99744 0.50993 0.0
O164 O 0.00976 0.02046 0.49027 0.0
O165 O 0.01353 0.98042 0.52454 0.0
O166 O 0.01037 0.98005 0.52487 0.0
Fe167 Fe 0.01123 0.94108 0.52377 0.0
C168 C 0.97784 0.04834 0.5443 0.0
O169 O 0.97305 0.05023 0.46505 0.0
O170 O 0.94704 0.01922 0.49044 0.0
O171 O 0.03753 0.93854 0.49112 0.0
O172 O 0.03782 0.97736 0.47027 0.0
O173 O 0.06877 0.02962 0.48038 0.0
O174 O 0.03762 0.05612 0.46007 0.0
O175 O 0.97202 0.97173 0.47513 0.0
O176 O 0.97767 0.93313 0.49482 0.0
C177 C 0.06172 0.04671 0.46178 0.0
O178 O 0.04704 0.94957 0.54932 0.0
O179 O 0.07317 0.98036 0.5238 0.0
O180 O 0.98293 0.06216 0.52298 0.0
O181 O 0.98088 0.0235 0.54456 0.0
C182 C 0.94984 0.03655 0.47079 0.0
C183 C 0.96883 0.94634 0.47458 0.0
C184 C 0.95791 0.95304 0.55166 0.0
O185 O 0.95125 0.97049 0.53337 0.0
O186 O 0.98204 0.94363 0.55374 0.0
C187 C 0.04148 0.95276 0.46989 0.0
O188 O 0.0487 0.02897 0.53924 0.0
O189 O 0.04282 0.06731 0.51894 0.0
C190 C 0.07049 0.96259 0.54316 0.0
C191 C 0.05185 0.05438 0.53936 0.0
Fe192 Fe 0.50518 0.96826 0.99743 0.0
O193 O 0.52444 0.00157 0.98308 0.0
Fe194 Fe 0.44428 0.99022 0.02262 0.0
Fe195 Fe 0.56507 0.00762 0.98108 0.0
O196 O 0.48511 0.99371 0.02025 0.0
O197 O 0.48496 0.99644 0.02067 0.0
O198 O 0.52425 0.00421 0.98343 0.0
Fe199 Fe 0.50379 0.0297 0.00578 0.0
C200 C 0.5608 0.96641 0.02732 0.0
O201 O 0.52916 0.94594 0.97075 0.0
O202 O 0.55746 0.9782 0.9496 0.0
O203 O 0.47399 0.02942 0.97303 0.0
O204 O 0.43586 0.02089 0.99684 0.0
O205 O 0.43685 0.96359 0.98851 0.0
O206 O 0.47556 0.96724 0.96474 0.0
O207 O 0.55655 0.04022 0.95852 0.0
O208 O 0.52639 0.06114 0.98627 0.0
C209 C 0.44942 0.96085 0.96592 0.0
O210 O 0.47941 0.05203 0.03197 0.0
O211 O 0.45188 0.01978 0.05395 0.0
O212 O 0.53482 0.96759 0.03003 0.0
O213 O 0.57331 0.9769 0.00693 0.0
C214 C 0.54639 0.95372 0.95161 0.0
C215 C 0.54351 0.06046 0.96603 0.0
C216 C 0.5597 0.03843 0.03726 0.0
O217 O 0.57238 0.03433 0.015 0.0
O218 O 0.53357 0.03194 0.03869 0.0
C219 C 0.44808 0.03082 0.97602 0.0
O220 O 0.45308 0.95773 0.04519 0.0
O221 O 0.48209 0.93664 0.01632 0.0
C222 C 0.46236 0.04436 0.0513 0.0
C223 C 0.46566 0.93737 0.03715 0.0
Fe224 Fe 0.00674 0.53475 1.00048 0.0
O225 O 0.987 0.50354 0.97823 0.0
Fe226 Fe 0.06339 0.50941 0.03403 0.0
Fe227 Fe 0.94686 0.49953 0.9682 0.0
O228 O 0.02325 0.50784 0.02385 0.0
O229 O 0.02341 0.50566 0.02356 0.0
O230 O 0.98732 0.50133 0.97776 0.0
Fe231 Fe 0.00388 0.47442 0.00127 0.0
C232 C 0.9495 0.53773 0.02077 0.0
O233 O 0.98731 0.55937 0.9732 0.0
O234 O 0.95814 0.53103 0.94288 0.0
O235 O 0.03604 0.47329 0.97494 0.0
O236 O 0.07221 0.47916 0.00632 0.0
O237 O 0.075 0.53713 0.00478 0.0
O238 O 0.03842 0.5345 0.97392 0.0
O239 O 0.95622 0.46789 0.94275 0.0
O240 O 0.98117 0.44481 0.97469 0.0
C241 C 0.06414 0.5408 0.98052 0.0
O242 O 0.02302 0.4498 0.0293 0.0
O243 O 0.05088 0.47912 0.05997 0.0
O244 O 0.97512 0.53595 0.02721 0.0
O245 O 0.93772 0.52857 0.99734 0.0
C246 C 0.97153 0.55423 0.95031 0.0
C247 C 0.96657 0.44643 0.95114 0.0
C248 C 0.9469 0.46637 0.02038 0.0
O249 O 0.93601 0.47039 0.99626 0.0
O250 O 0.97199 0.47479 0.0276 0.0
C251 C 0.06125 0.47052 0.98241 0.0
O252 O 0.05447 0.54184 0.05861 0.0
O253 O 0.02949 0.56454 0.0265 0.0
C254 C 0.03766 0.4558 0.05283 0.0
C255 C 0.04409 0.56316 0.05001 0.0
Fe256 Fe 0.4985 0.50821 0.96484 0.0
O257 O 0.51763 0.52524 1.00011 0.0
Fe258 Fe 0.4341 0.48199 0.98889 0.0
Fe259 Fe 0.55855 0.52977 0.00624 0.0
O260 O 0.47506 0.48716 0.99165 0.0
O261 O 0.47508 0.48631 0.99461 0.0
O262 O 0.5176 0.52445 0.00313 0.0
Fe263 Fe 0.49462 0.50291 0.02986 0.0
C264 C 0.5514 0.48249 0.963 0.0
O265 O 0.52672 0.53329 0.94146 0.0
O266 O 0.55504 0.55746 0.97581 0.0
O267 O 0.46808 0.53223 0.03091 0.0
O268 O 0.42749 0.50728 0.02242 0.0
O269 O 0.43038 0.51311 0.96221 0.0
O270 O 0.47179 0.53771 0.96281 0.0
O271 O 0.5506 0.55283 0.04103 0.0
O272 O 0.51851 0.52457 0.06327 0.0
C273 C 0.44547 0.53457 0.95719 0.0
O274 O 0.46685 0.47705 0.0532 0.0
O275 O 0.43779 0.45364 0.01884 0.0
O276 O 0.52505 0.47865 0.96461 0.0
O277 O 0.56565 0.5036 0.97342 0.0
C278 C 0.5457 0.55293 0.94986 0.0
C279 C 0.5369 0.54552 0.06275 0.0
C280 C 0.54753 0.47753 0.0376 0.0
O281 O 0.56201 0.49958 0.03374 0.0
O282 O 0.52152 0.47364 0.03064 0.0
C283 C 0.44189 0.52809 0.03326 0.0
O284 O 0.44162 0.45939 0.95363 0.0
O285 O 0.47491 0.48649 0.93157 0.0
C286 C 0.44771 0.45751 0.04471 0.0
C287 C 0.45588 0.46611 0.93211 0.0
Fe288 Fe 0.99923 0.46929 0.49046 0.0
O289 O 0.98217 0.49559 0.515 0.0
Fe290 Fe 0.01516 0.50646 0.43215 0.0
Fe291 Fe 0.98291 0.4939 0.55601 0.0
O292 O 0.01606 0.50208 0.47286 0.0
O293 O 0.01577 0.50478 0.4731 0.0
O294 O 0.98187 0.49841 0.51524 0.0
Fe295 Fe 0.99939 0.53118 0.49806 0.0
C296 C 0.95893 0.43978 0.53054 0.0
O297 O 0.03393 0.46995 0.5175 0.0
O298 O 0.01313 0.46758 0.55807 0.0
O299 O 0.0213 0.56201 0.47654 0.0
O300 O 0.04328 0.53932 0.44249 0.0
O301 O 0.04255 0.47754 0.43439 0.0
O302 O 0.02048 0.44617 0.46212 0.0
O303 O 0.01413 0.5247 0.56525 0.0
O304 O 0.03413 0.53241 0.52489 0.0
C305 C 0.03932 0.45387 0.44451 0.0
O306 O 0.96476 0.53166 0.47116 0.0
O307 O 0.98495 0.53274 0.43013 0.0
O308 O 0.9782 0.43842 0.51244 0.0
O309 O 0.95488 0.4609 0.54565 0.0
C310 C 0.03391 0.46442 0.54328 0.0
C311 C 0.03496 0.53328 0.55154 0.0
C312 C 0.95984 0.54691 0.54457 0.0
O313 O 0.95572 0.52299 0.55395 0.0
O314 O 0.97881 0.55441 0.52698 0.0
C315 C 0.04029 0.56042 0.45813 0.0
O316 O 0.98393 0.47569 0.42293 0.0
O317 O 0.96446 0.4669 0.4634 0.0
C318 C 0.96457 0.53665 0.44523 0.0
C319 C 0.9634 0.46654 0.43674 0.0
Fe320 Fe 0.49271 0.96961 0.51056 0.0
O321 O 0.519 1.00018 0.52664 0.0
Fe322 Fe 0.47264 0.98994 0.44429 0.0
Fe323 Fe 0.52476 0.00852 0.56714 0.0
O324 O 0.47807 0.9958 0.48501 0.0
O325 O 0.47847 0.99783 0.48477 0.0
O326 O 0.51928 0.00233 0.52646 0.0
Fe327 Fe 0.50411 0.02857 0.50138 0.0
C328 C 0.46662 0.97772 0.56455 0.0
O329 O 0.51136 0.94571 0.53901 0.0
O330 O 0.54488 0.9741 0.56468 0.0
O331 O 0.53357 0.02115 0.47411 0.0
O332 O 0.50727 0.0147 0.43422 0.0
O333 O 0.49702 0.9585 0.44229 0.0
O334 O 0.52193 0.9604 0.48325 0.0
O335 O 0.55646 0.03602 0.55543 0.0
O336 O 0.53296 0.05809 0.52154 0.0
C337 C 0.51823 0.95333 0.4574 0.0
O338 O 0.48512 0.05258 0.47331 0.0
O339 O 0.45227 0.02418 0.44687 0.0
O340 O 0.4634 0.97799 0.53803 0.0
O341 O 0.49041 0.98367 0.57741 0.0
C342 C 0.53423 0.95052 0.55486 0.0
C343 C 0.55377 0.05616 0.53958 0.0
C344 C 0.47856 0.04407 0.55419 0.0
O345 O 0.50059 0.04036 0.56886 0.0
O346 O 0.47453 0.03609 0.52867 0.0
C347 C 0.53098 0.01956 0.44754 0.0
O348 O 0.44091 0.96209 0.45574 0.0
O349 O 0.46335 0.94054 0.49083 0.0
C350 C 0.46263 0.04775 0.45693 0.0
C351 C 0.44306 0.94215 0.47209 0.0
C352 C 0.22589 0.18595 0.31981 0.0
C353 C 0.21324 0.19504 0.29515 0.0
C354 C 0.21081 0.16843 0.33725 0.0
C355 C 0.13762 0.14399 0.35411 0.0
H356 H 0.17301 0.08906 0.39306 0.0
C357 C 0.0716 0.06581 0.41511 0.0
C358 C 0.08206 0.05789 0.44127 0.0
C359 C 0.0887 0.08074 0.39724 0.0
C360 C 0.16279 0.10444 0.38263 0.0
H361 H 0.17445 0.19224 0.26968 0.0
H362 H 0.14826 0.16169 0.2998 0.0
H363 H 0.19996 0.1182 0.36214 0.0
H364 H 0.11958 0.05886 0.46839 0.0
H365 H 0.14973 0.08511 0.43709 0.0
H366 H 0.10058 0.13052 0.3746 0.0
C367 C 0.16988 0.16833 0.30592 0.0
C368 C 0.17832 0.12127 0.36477 0.0
C369 C 0.18502 0.18577 0.28839 0.0
C370 C 0.11078 0.06433 0.44835 0.0
C371 C 0.12804 0.07954 0.43036 0.0
C372 C 0.12216 0.12724 0.37191 0.0
C373 C 0.18244 0.15942 0.33078 0.0
C374 C 0.16597 0.14128 0.35003 0.0
C375 C 0.11705 0.08865 0.4048 0.0
C376 C 0.13432 0.10697 0.38636 0.0
H377 H 0.24754 0.19254 0.32589 0.0
H378 H 0.22134 0.16246 0.35621 0.0
H379 H 0.12733 0.15944 0.34387 0.0
H380 H 0.0497 0.06105 0.40865 0.0
H381 H 0.07941 0.08644 0.37752 0.0
C382 C 0.81383 0.17164 0.32219 0.0
C383 C 0.80023 0.18966 0.33845 0.0
C384 C 0.82817 0.15209 0.3351 0.0
C385 C 0.83058 0.11456 0.39992 0.0
H386 H 0.90486 0.1016 0.37924 0.0
C387 C 0.90482 0.05668 0.46815 0.0
C388 C 0.92497 0.04344 0.4547 0.0
C389 C 0.88626 0.07077 0.45247 0.0
C390 C 0.88387 0.10447 0.38492 0.0
H391 H 0.79169 0.20168 0.38107 0.0
H392 H 0.81658 0.16779 0.40332 0.0
H393 H 0.88023 0.13432 0.35449 0.0
H394 H 0.94043 0.03263 0.41456 0.0
H395 H 0.90714 0.05582 0.387 0.0
H396 H 0.83417 0.0848 0.43041 0.0
C397 C 0.81589 0.1685 0.38065 0.0
C398 C 0.86984 0.12338 0.37077 0.0
C399 C 0.80181 0.18808 0.36784 0.0
C400 C 0.92487 0.0426 0.42531 0.0
C401 C 0.9061 0.05627 0.40962 0.0
C402 C 0.84452 0.09547 0.41394 0.0
C403 C 0.82893 0.15007 0.36444 0.0
C404 C 0.84319 0.12888 0.37834 0.0
C405 C 0.88747 0.07161 0.42306 0.0
C406 C 0.87149 0.09035 0.40683 0.0
H407 H 0.81295 0.17229 0.29952 0.0
H408 H 0.83802 0.13812 0.32207 0.0
H409 H 0.80987 0.11813 0.40596 0.0
H410 H 0.90497 0.05804 0.49087 0.0
H411 H 0.87236 0.08246 0.46362 0.0
C412 C 0.80593 0.8298 0.29394 0.0
C413 C 0.81164 0.80384 0.28575 0.0
C414 C 0.8254 0.84666 0.31091 0.0
C415 C 0.88016 0.84254 0.36551 0.0
H416 H 0.89991 0.91797 0.35496 0.0
C417 C 0.95809 0.90494 0.4436 0.0
C418 C 0.95343 0.9315 0.45015 0.0
C419 C 0.94286 0.89038 0.42136 0.0
C420 C 0.89437 0.89702 0.35848 0.0
H421 H 0.8429 0.77575 0.28816 0.0
H422 H 0.8766 0.80505 0.31801 0.0
H423 H 0.86962 0.89115 0.31957 0.0
H424 H 0.92941 0.96378 0.43816 0.0
H425 H 0.90194 0.93809 0.40009 0.0
H426 H 0.9036 0.84825 0.40479 0.0
C427 C 0.85704 0.81231 0.31127 0.0
C428 C 0.87712 0.88164 0.33807 0.0
C429 C 0.83777 0.7956 0.29399 0.0
C430 C 0.93353 0.94335 0.43359 0.0
C431 C 0.91788 0.92861 0.4116 0.0
C432 C 0.89699 0.85792 0.38608 0.0
C433 C 0.85083 0.8378 0.3204 0.0
C434 C 0.86988 0.85421 0.34136 0.0
C435 C 0.92211 0.90177 0.40533 0.0
C436 C 0.90443 0.88541 0.38291 0.0
H437 H 0.78605 0.83683 0.28794 0.0
H438 H 0.81999 0.86616 0.31769 0.0
H439 H 0.87452 0.82155 0.36891 0.0
H440 H 0.97363 0.89538 0.45566 0.0
H441 H 0.94741 0.87009 0.4168 0.0
C442 C 0.20449 0.84516 0.34232 0.0
C443 C 0.19906 0.83394 0.31498 0.0
C444 C 0.18628 0.86188 0.35382 0.0
C445 C 0.11314 0.87229 0.35075 0.0
H446 H 0.13849 0.93659 0.39609 0.0
C447 C 0.06797 0.95784 0.4264 0.0
C448 C 0.05397 0.94114 0.4453 0.0
C449 C 0.08302 0.94697 0.40538 0.0
C450 C 0.13103 0.91891 0.38314 0.0
H451 H 0.17081 0.83195 0.27789 0.0
H452 H 0.13869 0.86095 0.29827 0.0
H453 H 0.17177 0.91467 0.36871 0.0
H454 H 0.04306 0.89995 0.45576 0.0
H455 H 0.06924 0.88099 0.4189 0.0
H456 H 0.07261 0.87596 0.36609 0.0
C457 C 0.15711 0.85684 0.31067 0.0
C458 C 0.15009 0.90629 0.36769 0.0
C459 C 0.17555 0.8404 0.29901 0.0
C460 C 0.05388 0.91331 0.44168 0.0
C461 C 0.06867 0.90245 0.42046 0.0
C462 C 0.09412 0.88475 0.36646 0.0
C463 C 0.16214 0.86742 0.3383 0.0
C464 C 0.14142 0.8826 0.35179 0.0
C465 C 0.084 0.91923 0.40264 0.0
C466 C 0.10302 0.9079 0.38318 0.0
H467 H 0.22249 0.84057 0.35508 0.0
H468 H 0.19049 0.86959 0.37527 0.0
H469 H 0.10599 0.85392 0.33881 0.0
H470 H 0.06838 0.97939 0.4286 0.0
H471 H 0.09451 0.96029 0.39173 0.0
C472 C 0.22295 0.8025 0.63081 0.0
C473 C 0.2244 0.79953 0.66002 0.0
C474 C 0.20847 0.82236 0.61885 0.0
C475 C 0.17816 0.88619 0.6362 0.0
H476 H 0.14102 0.87195 0.56239 0.0
C477 C 0.09563 0.94975 0.58664 0.0
C478 C 0.09556 0.95355 0.55761 0.0
C479 C 0.11469 0.93425 0.59962 0.0
C480 C 0.15164 0.87644 0.58282 0.0
H481 H 0.21122 0.81514 0.69952 0.0
H482 H 0.18506 0.84933 0.67859 0.0
H483 H 0.16516 0.83738 0.58437 0.0
H484 H 0.11606 0.9449 0.51956 0.0
H485 H 0.14946 0.91761 0.54221 0.0
H486 H 0.16346 0.92504 0.63483 0.0
C487 C 0.19576 0.83665 0.66491 0.0
C488 C 0.16556 0.85654 0.59554 0.0
C489 C 0.21058 0.81684 0.67696 0.0
C490 C 0.11602 0.94276 0.54206 0.0
C491 C 0.13482 0.92681 0.55497 0.0
C492 C 0.16389 0.906 0.62358 0.0
C493 C 0.19459 0.83979 0.63562 0.0
C494 C 0.17917 0.86107 0.62241 0.0
C495 C 0.13379 0.92168 0.58376 0.0
C496 C 0.15051 0.9014 0.59668 0.0
H497 H 0.23352 0.78977 0.61703 0.0
H498 H 0.20872 0.82431 0.59636 0.0
H499 H 0.18867 0.89075 0.65666 0.0
H500 H 0.0798 0.95751 0.59904 0.0
H501 H 0.11316 0.93063 0.62174 0.0
C502 C 0.20955 0.19064 0.70645 0.0
C503 C 0.19785 0.20658 0.72647 0.0
C504 C 0.19287 0.17059 0.69054 0.0
C505 C 0.11968 0.15453 0.66435 0.0
H506 H 0.1464 0.0891 0.63612 0.0
C507 C 0.07015 0.09769 0.56462 0.0
C508 C 0.06723 0.06958 0.56363 0.0
C509 C 0.08479 0.11219 0.58719 0.0
C510 C 0.13845 0.10711 0.64406 0.0
H511 H 0.15969 0.21359 0.74629 0.0
H512 H 0.13049 0.17824 0.71894 0.0
H513 H 0.17437 0.117 0.67231 0.0
H514 H 0.07736 0.0347 0.58591 0.0
H515 H 0.10283 0.06014 0.62547 0.0
H516 H 0.08381 0.14471 0.6362 0.0
C517 C 0.15255 0.18138 0.71521 0.0
C518 C 0.15462 0.12325 0.66461 0.0
C519 C 0.16927 0.20151 0.73101 0.0
C520 C 0.07924 0.05633 0.58593 0.0
C521 C 0.09396 0.0709 0.60855 0.0
C522 C 0.10354 0.13841 0.64388 0.0
C523 C 0.164 0.16612 0.69425 0.0
C524 C 0.14565 0.14741 0.67466 0.0
C525 C 0.0969 0.09902 0.60944 0.0
C526 C 0.11297 0.11478 0.63306 0.0
H527 H 0.23119 0.19488 0.70175 0.0
H528 H 0.20236 0.15965 0.67425 0.0
H529 H 0.1122 0.1731 0.6713 0.0
H530 H 0.06123 0.10862 0.54787 0.0
H531 H 0.08703 0.13381 0.58693 0.0
C532 C 0.82635 0.15893 0.70073 0.0
C533 C 0.82285 0.18289 0.68737 0.0
C534 C 0.84536 0.14186 0.691 0.0
C535 C 0.90956 0.14217 0.65402 0.0
H536 H 0.88401 0.07008 0.6259 0.0
C537 C 0.96579 0.0895 0.56958 0.0
C538 C 0.96554 0.06153 0.56829 0.0
C539 C 0.95144 0.10223 0.58986 0.0
C540 C 0.89175 0.0899 0.63427 0.0
H541 H 0.83674 0.20793 0.65369 0.0
H542 H 0.8702 0.17856 0.6373 0.0
H543 H 0.85231 0.09619 0.65109 0.0
H544 H 0.95102 0.02508 0.58831 0.0
H545 H 0.92609 0.04751 0.62423 0.0
H546 H 0.94879 0.1363 0.63713 0.0
C547 C 0.85812 0.17285 0.65506 0.0
C548 C 0.87352 0.10485 0.64859 0.0
C549 C 0.83881 0.18954 0.66434 0.0
C550 C 0.9516 0.04667 0.5887 0.0
C551 C 0.93714 0.05949 0.60913 0.0
C552 C 0.92786 0.12717 0.64011 0.0
C553 C 0.8616 0.14888 0.66826 0.0
C554 C 0.88201 0.13142 0.65769 0.0
C555 C 0.9365 0.08742 0.60963 0.0
C556 C 0.91886 0.10123 0.62906 0.0
H557 H 0.81428 0.15332 0.71851 0.0
H558 H 0.84769 0.12341 0.70145 0.0
H559 H 0.91668 0.16253 0.66119 0.0
H560 H 0.97642 0.10165 0.55433 0.0
H561 H 0.95112 0.12367 0.5892 0.0
C562 C 0.78433 0.81421 0.68248 0.0
C563 C 0.79605 0.80432 0.70715 0.0
C564 C 0.80015 0.83225 0.66626 0.0
C565 C 0.86608 0.87937 0.66889 0.0
H566 H 0.85506 0.87432 0.58778 0.0
C567 C 0.94594 0.93098 0.59641 0.0
C568 C 0.93673 0.94145 0.571 0.0
C569 C 0.92724 0.91674 0.61331 0.0
C570 C 0.85818 0.87634 0.61041 0.0
H571 H 0.83402 0.80587 0.73379 0.0
H572 H 0.8617 0.83683 0.70542 0.0
H573 H 0.82633 0.8443 0.6162 0.0
H574 H 0.90004 0.9455 0.54401 0.0
H575 H 0.86712 0.92057 0.57369 0.0
H576 H 0.89823 0.91109 0.66307 0.0
C577 C 0.84001 0.8311 0.6988 0.0
C578 C 0.84164 0.85902 0.62683 0.0
C579 C 0.82412 0.81314 0.71512 0.0
C580 C 0.9079 0.93794 0.56348 0.0
C581 C 0.88908 0.92334 0.58038 0.0
C582 C 0.88265 0.89659 0.65249 0.0
C583 C 0.82833 0.84096 0.67404 0.0
C584 C 0.84546 0.86004 0.65639 0.0
C585 C 0.89856 0.91224 0.60544 0.0
C586 C 0.87921 0.89521 0.62295 0.0
H587 H 0.76277 0.80804 0.67562 0.0
H588 H 0.79008 0.83956 0.64772 0.0
H589 H 0.8694 0.88139 0.6915 0.0
H590 H 0.96793 0.93324 0.60304 0.0
H591 H 0.93557 0.90838 0.63215 0.0
C592 C 0.35362 0.2187 0.18408 0.0
C593 C 0.33246 0.20789 0.20084 0.0
C594 C 0.36746 0.20216 0.16652 0.0
C595 C 0.36375 0.13258 0.13486 0.0
H596 H 0.44314 0.15103 0.12731 0.0
C597 C 0.43344 0.05668 0.09111 0.0
C598 C 0.45147 0.0649 0.07001 0.0
C599 C 0.41987 0.07517 0.1064 0.0
C600 C 0.42094 0.14575 0.12899 0.0
H601 H 0.30898 0.17113 0.21194 0.0
H602 H 0.33354 0.14212 0.18192 0.0
H603 H 0.41686 0.18072 0.15472 0.0
H604 H 0.47023 0.09958 0.04962 0.0
H605 H 0.44674 0.13209 0.0769 0.0
H606 H 0.36814 0.0972 0.10981 0.0
C607 C 0.33911 0.1635 0.18177 0.0
C608 C 0.40575 0.16282 0.14464 0.0
C609 C 0.325 0.18013 0.19911 0.0
C610 C 0.45656 0.09246 0.06566 0.0
C611 C 0.44307 0.11109 0.08126 0.0
C612 C 0.37899 0.11541 0.11952 0.0
C613 C 0.36083 0.17423 0.16545 0.0
C614 C 0.37691 0.15642 0.14798 0.0
C615 C 0.42402 0.10253 0.10132 0.0
C616 C 0.40781 0.12166 0.11657 0.0
H617 H 0.35975 0.24004 0.18473 0.0
H618 H 0.38349 0.21137 0.15386 0.0
H619 H 0.34155 0.12713 0.13629 0.0
H620 H 0.42909 0.03574 0.09545 0.0
H621 H 0.40583 0.06796 0.1221 0.0
C622 C 0.84454 0.34053 0.19872 0.0
C623 C 0.82527 0.31805 0.19224 0.0
C624 C 0.86315 0.34966 0.17891 0.0
C625 C 0.86008 0.3569 0.10597 0.0
H626 H 0.93826 0.38435 0.11597 0.0
C627 C 0.9134 0.42632 0.02686 0.0
C628 C 0.93231 0.44737 0.03854 0.0
C629 C 0.9029 0.40596 0.04364 0.0
C630 C 0.91636 0.37693 0.11296 0.0
H631 H 0.8118 0.28612 0.16107 0.0
H632 H 0.84375 0.30274 0.12621 0.0
H633 H 0.91747 0.35473 0.1504 0.0
H634 H 0.95435 0.46437 0.07683 0.0
H635 H 0.93491 0.4297 0.10642 0.0
H636 H 0.85809 0.38052 0.06992 0.0
C637 C 0.84459 0.31303 0.14664 0.0
C638 C 0.90466 0.3598 0.13246 0.0
C639 C 0.82636 0.30362 0.16659 0.0
C640 C 0.9398 0.44829 0.06735 0.0
C641 C 0.929 0.4282 0.08418 0.0
C642 C 0.87161 0.37438 0.08676 0.0
C643 C 0.86236 0.33663 0.15233 0.0
C644 C 0.8763 0.35023 0.12942 0.0
C645 C 0.91084 0.40655 0.07243 0.0
C646 C 0.89966 0.38522 0.09053 0.0
H647 H 0.84428 0.35182 0.21846 0.0
H648 H 0.87664 0.36804 0.18359 0.0
H649 H 0.838 0.34997 0.10349 0.0
H650 H 0.90771 0.42494 0.00456 0.0
H651 H 0.88911 0.38946 0.03391 0.0
C652 C 0.70882 0.82513 0.16212 0.0
C653 C 0.699 0.81734 0.18812 0.0
C654 C 0.69359 0.84101 0.14483 0.0
C655 C 0.62296 0.86266 0.13142 0.0
H656 H 0.66306 0.92178 0.09578 0.0
C657 C 0.56503 0.94087 0.07158 0.0
C658 C 0.57667 0.95056 0.04704 0.0
C659 C 0.5798 0.92498 0.08933 0.0
C660 C 0.65148 0.90517 0.10523 0.0
H661 H 0.66515 0.81999 0.21609 0.0
H662 H 0.6388 0.84763 0.18606 0.0
H663 H 0.68881 0.89266 0.12457 0.0
H664 H 0.61298 0.95083 0.02191 0.0
H665 H 0.63821 0.92284 0.05222 0.0
H666 H 0.58565 0.87492 0.11182 0.0
C667 C 0.65814 0.84129 0.17888 0.0
C668 C 0.66631 0.88845 0.12179 0.0
C669 C 0.67337 0.82551 0.19618 0.0
C670 C 0.60343 0.94402 0.04077 0.0
C671 C 0.61803 0.92799 0.05831 0.0
C672 C 0.60811 0.87928 0.11467 0.0
C673 C 0.66812 0.84941 0.15307 0.0
C674 C 0.65226 0.86697 0.1351 0.0
C675 C 0.60648 0.9182 0.08285 0.0
C676 C 0.62216 0.90077 0.10128 0.0
H677 H 0.7284 0.81914 0.15517 0.0
H678 H 0.70172 0.84661 0.12491 0.0
H679 H 0.61148 0.84612 0.1411 0.0
H680 H 0.54449 0.94551 0.07711 0.0
H681 H 0.57033 0.91817 0.10822 0.0
C682 C 0.20353 0.70846 0.17928 0.0
C683 C 0.19937 0.73006 0.19746 0.0
C684 C 0.18206 0.69743 0.16036 0.0
C685 C 0.108 0.6834 0.15439 0.0
H686 H 0.11983 0.66391 0.07686 0.0
C687 C 0.05365 0.61294 0.05399 0.0
C688 C 0.05184 0.5882 0.06689 0.0
C689 C 0.06546 0.63613 0.06886 0.0
C690 C 0.11594 0.66967 0.09828 0.0
H691 H 0.16981 0.75744 0.20989 0.0
H692 H 0.13178 0.73735 0.1773 0.0
H693 H 0.15468 0.69479 0.10372 0.0
H694 H 0.05872 0.56867 0.10599 0.0
H695 H 0.07901 0.60921 0.13202 0.0
H696 H 0.0702 0.65677 0.14954 0.0
C697 C 0.15184 0.72937 0.17748 0.0
C698 C 0.13593 0.68715 0.11364 0.0
C699 C 0.17355 0.74082 0.19602 0.0
C700 C 0.06009 0.58741 0.09545 0.0
C701 C 0.07146 0.61064 0.11041 0.0
C702 C 0.08819 0.66556 0.13916 0.0
C703 C 0.15592 0.70749 0.15967 0.0
C704 C 0.13252 0.69347 0.14203 0.0
C705 C 0.07512 0.635 0.09698 0.0
C706 C 0.09246 0.65793 0.11125 0.0
H707 H 0.2233 0.69993 0.17989 0.0
H708 H 0.18555 0.68035 0.147 0.0
H709 H 0.10504 0.68791 0.17634 0.0
H710 H 0.04747 0.61417 0.03197 0.0
H711 H 0.06805 0.65473 0.05812 0.0
C712 C 0.33113 0.81365 0.77641 0.0
C713 C 0.30382 0.80492 0.78357 0.0
C714 C 0.34729 0.83391 0.79247 0.0
C715 C 0.34296 0.88886 0.84531 0.0
H716 H 0.41916 0.8765 0.86671 0.0
C717 C 0.40421 0.94141 0.94168 0.0
C718 C 0.43324 0.94798 0.9409 0.0
C719 C 0.38904 0.92745 0.91913 0.0
C720 C 0.39813 0.88057 0.86052 0.0
H721 H 0.27194 0.81101 0.81296 0.0
H722 H 0.30026 0.84616 0.84113 0.0
H723 H 0.39132 0.84535 0.83355 0.0
H724 H 0.46888 0.94592 0.91516 0.0
H725 H 0.44223 0.92163 0.8756 0.0
H726 H 0.3496 0.92381 0.87274 0.0
C727 C 0.30904 0.83754 0.82289 0.0
C728 C 0.38214 0.86267 0.84153 0.0
C729 C 0.29288 0.81726 0.80685 0.0
C730 C 0.44657 0.94106 0.91655 0.0
C731 C 0.43134 0.92702 0.89393 0.0
C732 C 0.35897 0.90681 0.86425 0.0
C733 C 0.33651 0.84594 0.81602 0.0
C734 C 0.3542 0.86632 0.83414 0.0
C735 C 0.40246 0.9197 0.89516 0.0
C736 C 0.38656 0.90256 0.87252 0.0
H737 H 0.34015 0.80473 0.75846 0.0
H738 H 0.36826 0.84017 0.78644 0.0
H739 H 0.32166 0.89249 0.83962 0.0
H740 H 0.39319 0.9465 0.96002 0.0
H741 H 0.36691 0.92186 0.92096 0.0
C742 C 0.16927 0.30327 0.84491 0.0
C743 C 0.18901 0.31329 0.82625 0.0
C744 C 0.15707 0.32068 0.86295 0.0
C745 C 0.13928 0.38946 0.86797 0.0
H746 H 0.12952 0.37622 0.94653 0.0
C747 C 0.06689 0.44604 0.9366 0.0
C748 C 0.07755 0.45462 0.96379 0.0
C749 C 0.08145 0.4295 0.91983 0.0
C750 C 0.13223 0.38023 0.92465 0.0
H751 H 0.21208 0.34941 0.81253 0.0
H752 H 0.19063 0.37967 0.84384 0.0
H753 H 0.15389 0.34558 0.91805 0.0
H754 H 0.11218 0.45288 0.99441 0.0
H755 H 0.13745 0.424 0.96511 0.0
H756 H 0.1175 0.42402 0.87449 0.0
C757 C 0.18451 0.35838 0.8444 0.0
C758 C 0.14597 0.3626 0.90834 0.0
C759 C 0.19693 0.341 0.82662 0.0
C760 C 0.10334 0.44667 0.97359 0.0
C761 C 0.11775 0.42996 0.95691 0.0
C762 C 0.12528 0.40692 0.88419 0.0
C763 C 0.16416 0.34845 0.86243 0.0
C764 C 0.14971 0.36711 0.87987 0.0
C765 C 0.10684 0.42103 0.92997 0.0
C766 C 0.1217 0.40253 0.91271 0.0
H767 H 0.16275 0.28203 0.84514 0.0
H768 H 0.14136 0.31251 0.8766 0.0
H769 H 0.14162 0.39325 0.84598 0.0
H770 H 0.04709 0.45176 0.92838 0.0
H771 H 0.07248 0.42278 0.89919 0.0
C772 C 0.63884 0.20102 0.78619 0.0
C773 C 0.66711 0.20944 0.79343 0.0
C774 C 0.6224 0.18656 0.80484 0.0
C775 C 0.61824 0.17626 0.88009 0.0
H776 H 0.56885 0.11261 0.85718 0.0
C777 C 0.5768 0.09916 0.95697 0.0
C778 C 0.55057 0.08482 0.95112 0.0
C779 C 0.58721 0.11816 0.93863 0.0
C780 C 0.58205 0.1307 0.86382 0.0
H781 H 0.7006 0.2084 0.82544 0.0
H782 H 0.67192 0.18312 0.8579 0.0
H783 H 0.59556 0.13665 0.82223 0.0
H784 H 0.51395 0.0793 0.92255 0.0
H785 H 0.53192 0.11304 0.89036 0.0
H786 H 0.60507 0.17023 0.92169 0.0
C787 C 0.66241 0.18799 0.83794 0.0
C788 C 0.59747 0.14434 0.84381 0.0
C789 C 0.67889 0.20223 0.81922 0.0
C790 C 0.53409 0.09059 0.92754 0.0
C791 C 0.54453 0.10959 0.90905 0.0
C792 C 0.60273 0.16274 0.90004 0.0
C793 C 0.63389 0.18047 0.83117 0.0
C794 C 0.61616 0.16691 0.85189 0.0
C795 C 0.5716 0.12292 0.91394 0.0
C796 C 0.5849 0.13948 0.89225 0.0
H797 H 0.62918 0.20624 0.76644 0.0
H798 H 0.60048 0.18099 0.7991 0.0
H799 H 0.63206 0.19396 0.88677 0.0
H800 H 0.58996 0.09451 0.97486 0.0
H801 H 0.60825 0.12776 0.94287 0.0
C802 C 0.83073 0.69875 0.84952 0.0
C803 C 0.83449 0.71241 0.82468 0.0
C804 C 0.85335 0.68914 0.86376 0.0
C805 C 0.91792 0.66274 0.849 0.0
H806 H 0.92528 0.65958 0.93004 0.0
C807 C 0.97536 0.6034 0.94268 0.0
C808 C 0.96664 0.57703 0.93269 0.0
C809 C 0.96722 0.62507 0.92808 0.0
C810 C 0.92399 0.66069 0.9074 0.0
H811 H 0.86508 0.72788 0.79594 0.0
H812 H 0.9047 0.71066 0.8208 0.0
H813 H 0.89551 0.6906 0.9089 0.0
H814 H 0.94446 0.55289 0.89832 0.0
H815 H 0.9302 0.59071 0.873 0.0
H816 H 0.94531 0.63183 0.84751 0.0
C817 C 0.88419 0.7075 0.82917 0.0
C818 C 0.90679 0.67829 0.89534 0.0
C819 C 0.86156 0.71739 0.81505 0.0
C820 C 0.9513 0.57289 0.90678 0.0
C821 C 0.94334 0.59459 0.89211 0.0
C822 C 0.935 0.64499 0.86108 0.0
C823 C 0.88015 0.69283 0.85333 0.0
C824 C 0.9028 0.67876 0.86604 0.0
C825 C 0.95046 0.62083 0.90309 0.0
C826 C 0.93738 0.64315 0.89036 0.0
H827 H 0.81014 0.6947 0.8575 0.0
H828 H 0.84956 0.67759 0.88214 0.0
H829 H 0.91509 0.6626 0.82634 0.0
H830 H 0.98739 0.60738 0.96245 0.0
H831 H 0.97319 0.64513 0.93685 0.0
C832 C 0.15481 0.2929 0.1813 0.0
C833 C 0.16935 0.30594 0.20501 0.0
C834 C 0.13493 0.30574 0.16595 0.0
C835 C 0.12045 0.37426 0.15267 0.0
H836 H 0.05012 0.34247 0.11687 0.0
C837 C 0.04841 0.44064 0.10067 0.0
C838 C 0.04183 0.43422 0.07209 0.0
C839 C 0.05809 0.42168 0.11812 0.0
C840 C 0.06975 0.35146 0.12678 0.0
H841 H 0.17291 0.34129 0.23287 0.0
H842 H 0.13789 0.36322 0.20679 0.0
H843 H 0.07897 0.31499 0.14554 0.0
H844 H 0.03759 0.40231 0.03985 0.0
H845 H 0.05512 0.36905 0.07054 0.0
H846 H 0.11161 0.41053 0.13415 0.0
C847 C 0.14244 0.34364 0.19929 0.0
C848 C 0.08624 0.33581 0.14304 0.0
C849 C 0.16246 0.33107 0.21426 0.0
C850 C 0.04265 0.40778 0.06182 0.0
C851 C 0.05259 0.38875 0.07934 0.0
C852 C 0.10404 0.38978 0.13673 0.0
C853 C 0.12923 0.3316 0.1744 0.0
C854 C 0.11158 0.34725 0.15645 0.0
C855 C 0.0616 0.39601 0.10727 0.0
C856 C 0.07839 0.3787 0.12395 0.0
H857 H 0.15974 0.27342 0.17389 0.0
H858 H 0.12506 0.29601 0.14684 0.0
H859 H 0.1403 0.38347 0.16192 0.0
H860 H 0.04741 0.46073 0.10927 0.0
H861 H 0.06439 0.42756 0.13976 0.0
C862 C 0.18724 0.70223 0.83539 0.0
C863 C 0.18166 0.69655 0.80654 0.0
C864 C 0.17259 0.68711 0.8548 0.0
C865 C 0.13677 0.61974 0.85812 0.0
H866 H 0.11702 0.6446 0.9316 0.0
C867 C 0.07162 0.55475 0.93194 0.0
C868 C 0.08067 0.55606 0.96043 0.0
C869 C 0.08477 0.57184 0.91334 0.0
C870 C 0.12276 0.63746 0.91122 0.0
H871 H 0.15486 0.67281 0.77512 0.0
H872 H 0.1285 0.64711 0.80898 0.0
H873 H 0.13518 0.67702 0.89841 0.0
H874 H 0.11108 0.5755 0.99173 0.0
H875 H 0.13416 0.60556 0.95895 0.0
H876 H 0.12405 0.58026 0.8708 0.0
C877 C 0.14483 0.66245 0.81667 0.0
C878 C 0.13302 0.65595 0.89225 0.0
C879 C 0.15973 0.67725 0.79733 0.0
C880 C 0.1038 0.57401 0.96983 0.0
C881 C 0.11679 0.59134 0.95122 0.0
C882 C 0.12634 0.60135 0.87697 0.0
C883 C 0.15199 0.66639 0.84553 0.0
C884 C 0.14003 0.64724 0.86548 0.0
C885 C 0.10704 0.59063 0.92297 0.0
C886 C 0.11925 0.61006 0.90362 0.0
H887 H 0.2042 0.71698 0.84294 0.0
H888 H 0.17863 0.69053 0.8769 0.0
H889 H 0.1427 0.61234 0.83793 0.0
H890 H 0.05386 0.54102 0.92415 0.0
H891 H 0.07683 0.57104 0.89164 0.0
C892 C 0.32442 0.16156 0.80436 0.0
C893 C 0.30717 0.17891 0.81708 0.0
C894 C 0.33933 0.14458 0.82052 0.0
C895 C 0.33984 0.10966 0.8861 0.0
H896 H 0.41992 0.11161 0.87963 0.0
C897 C 0.40759 0.05675 0.96491 0.0
C898 C 0.43192 0.04636 0.95629 0.0
C899 C 0.39246 0.07208 0.94708 0.0
C900 C 0.39752 0.11033 0.88142 0.0
H901 H 0.29161 0.19148 0.85672 0.0
H902 H 0.31703 0.16112 0.88484 0.0
H903 H 0.39293 0.13925 0.85001 0.0
H904 H 0.45928 0.04378 0.92191 0.0
H905 H 0.43217 0.06952 0.89015 0.0
H906 H 0.34389 0.0802 0.91665 0.0
C907 C 0.31917 0.16097 0.86236 0.0
C908 C 0.38209 0.12635 0.8645 0.0
C909 C 0.30467 0.17837 0.84627 0.0
C910 C 0.44065 0.05154 0.92921 0.0
C911 C 0.42515 0.06651 0.91108 0.0
C912 C 0.35512 0.09325 0.90261 0.0
C913 C 0.33692 0.14414 0.8497 0.0
C914 C 0.35315 0.12642 0.86692 0.0
C915 C 0.40081 0.0771 0.91978 0.0
C916 C 0.38431 0.09358 0.90087 0.0
H917 H 0.32695 0.16153 0.78195 0.0
H918 H 0.3527 0.13169 0.81019 0.0
H919 H 0.31748 0.10903 0.88812 0.0
H920 H 0.40047 0.05355 0.98579 0.0
H921 H 0.37442 0.08037 0.95507 0.0
C922 C 0.83426 0.26676 0.80871 0.0
C923 C 0.80741 0.27538 0.80918 0.0
C924 C 0.85615 0.27934 0.8263 0.0
C925 C 0.89845 0.32649 0.84807 0.0
H926 H 0.8897 0.34554 0.92636 0.0
C927 C 0.94917 0.4224 0.90593 0.0
C928 C 0.95824 0.42146 0.93427 0.0
C929 C 0.93693 0.39933 0.8912 0.0
C930 C 0.89273 0.33997 0.90468 0.0
H931 H 0.78207 0.30288 0.82933 0.0
H932 H 0.82023 0.32451 0.86043 0.0
H933 H 0.85461 0.3138 0.90097 0.0
H934 H 0.96316 0.39532 0.96895 0.0
H935 H 0.94129 0.35506 0.94321 0.0
H936 H 0.93574 0.35385 0.85136 0.0
C937 C 0.82433 0.30816 0.84635 0.0
C938 C 0.87256 0.322 0.89015 0.0
C939 C 0.80257 0.29593 0.82844 0.0
C940 C 0.9564 0.39669 0.9471 0.0
C941 C 0.94379 0.37367 0.93246 0.0
C942 C 0.91844 0.34475 0.86252 0.0
C943 C 0.85141 0.30034 0.84503 0.0
C944 C 0.87488 0.31569 0.86154 0.0
C945 C 0.93326 0.37497 0.90464 0.0
C946 C 0.91534 0.35217 0.89074 0.0
H947 H 0.83862 0.251 0.79402 0.0
H948 H 0.87688 0.27298 0.82497 0.0
H949 H 0.90059 0.32203 0.82596 0.0
H950 H 0.9505 0.44116 0.89543 0.0
H951 H 0.92878 0.40093 0.86982 0.0
C952 C 0.65417 0.78147 0.81516 0.0
C953 C 0.67449 0.79241 0.79749 0.0
C954 C 0.64005 0.798 0.83248 0.0
C955 C 0.61779 0.86543 0.83683 0.0
H956 H 0.60478 0.85099 0.91455 0.0
C957 C 0.57305 0.94202 0.90989 0.0
C958 C 0.5564 0.93345 0.93192 0.0
C959 C 0.58562 0.92381 0.89322 0.0
C960 C 0.60773 0.85509 0.89274 0.0
H961 H 0.69626 0.82939 0.78464 0.0
H962 H 0.67128 0.85838 0.81467 0.0
H963 H 0.63168 0.82175 0.88718 0.0
H964 H 0.53918 0.89843 0.95275 0.0
H965 H 0.56059 0.86638 0.92302 0.0
H966 H 0.59344 0.89828 0.8419 0.0
C967 C 0.66636 0.83691 0.8151 0.0
C968 C 0.62337 0.83839 0.8771 0.0
C969 C 0.68084 0.82032 0.79808 0.0
C970 C 0.55181 0.90583 0.93602 0.0
C971 C 0.56439 0.88746 0.91913 0.0
C972 C 0.60189 0.88189 0.8523 0.0
C973 C 0.64555 0.82596 0.83227 0.0
C974 C 0.62887 0.84356 0.84905 0.0
C975 C 0.58183 0.89625 0.89771 0.0
C976 C 0.59692 0.87725 0.88064 0.0
H977 H 0.6488 0.76003 0.81527 0.0
H978 H 0.6241 0.78891 0.84532 0.0
H979 H 0.6211 0.86964 0.81509 0.0
H980 H 0.57714 0.96306 0.90587 0.0
H981 H 0.59915 0.9316 0.87737 0.0
C982 C 0.79684 0.65462 0.16863 0.0
C983 C 0.80942 0.67704 0.18467 0.0
C984 C 0.81228 0.64086 0.15005 0.0
C985 C 0.88259 0.6247 0.13904 0.0
H986 H 0.85436 0.60544 0.06268 0.0
C987 C 0.94763 0.57127 0.06043 0.0
C988 C 0.93352 0.55283 0.04039 0.0
C989 C 0.93275 0.58684 0.07788 0.0
C990 C 0.86238 0.61023 0.08407 0.0
H991 H 0.848 0.70278 0.19372 0.0
H992 H 0.87526 0.67825 0.1615 0.0
H993 H 0.828 0.63252 0.09286 0.0
H994 H 0.89271 0.53569 0.02351 0.0
H995 H 0.86666 0.56204 0.05472 0.0
H996 H 0.91641 0.60171 0.13084 0.0
C997 C 0.85335 0.67154 0.16326 0.0
C998 C 0.84735 0.62594 0.10125 0.0
C999 C 0.83774 0.68563 0.18153 0.0
C1000 C 0.90418 0.54988 0.0386 0.0
C1001 C 0.88926 0.56517 0.05637 0.0
C1002 C 0.89743 0.60865 0.12201 0.0
C1003 C 0.84076 0.64897 0.14746 0.0
C1004 C 0.8573 0.6333 0.12888 0.0
C1005 C 0.90335 0.5841 0.07604 0.0
C1006 C 0.88751 0.60115 0.09428 0.0
H1007 H 0.77503 0.64756 0.17056 0.0
H1008 H 0.80213 0.62342 0.13825 0.0
H1009 H 0.89051 0.62982 0.16042 0.0
H1010 H 0.97026 0.57425 0.06216 0.0
H1011 H 0.94441 0.60147 0.09235 0.0
C1012 C 0.36232 0.80457 0.21643 0.0
C1013 C 0.33492 0.79316 0.20932 0.0
C1014 C 0.37796 0.81828 0.19664 0.0
C1015 C 0.37135 0.84932 0.12744 0.0
H1016 H 0.45082 0.84238 0.1271 0.0
C1017 C 0.43674 0.89447 0.04127 0.0
C1018 C 0.45873 0.91298 0.05208 0.0
C1019 C 0.42394 0.87578 0.0587 0.0
C1020 C 0.42863 0.84436 0.12695 0.0
H1021 H 0.30225 0.7874 0.17603 0.0
H1022 H 0.32966 0.81059 0.14132 0.0
H1023 H 0.42276 0.81928 0.16178 0.0
H1024 H 0.48582 0.92594 0.0886 0.0
H1025 H 0.46397 0.89269 0.11904 0.0
H1026 H 0.37726 0.87418 0.09242 0.0
C1027 C 0.33897 0.80961 0.16234 0.0
C1028 C 0.41257 0.83139 0.14695 0.0
C1029 C 0.32322 0.79625 0.18225 0.0
C1030 C 0.46919 0.91141 0.07984 0.0
C1031 C 0.45664 0.89249 0.09719 0.0
C1032 C 0.38731 0.86194 0.10725 0.0
C1033 C 0.36667 0.82054 0.16917 0.0
C1034 C 0.38376 0.83393 0.14761 0.0
C1035 C 0.43312 0.87533 0.08709 0.0
C1036 C 0.41612 0.85975 0.10694 0.0
H1037 H 0.37184 0.80258 0.2372 0.0
H1038 H 0.39896 0.82698 0.20288 0.0
H1039 H 0.34939 0.85219 0.12757 0.0
H1040 H 0.4281 0.89581 0.02002 0.0
H1041 H 0.40593 0.86263 0.05043 0.0
C1042 C 0.68976 0.18908 0.2201 0.0
C1043 C 0.71096 0.20417 0.20667 0.0
C1044 C 0.67219 0.16891 0.20506 0.0
C1045 C 0.64671 0.15103 0.13185 0.0
H1046 H 0.62126 0.08154 0.15909 0.0
C1047 C 0.60353 0.06428 0.05773 0.0
C1048 C 0.5758 0.0536 0.06113 0.0
C1049 C 0.61821 0.08092 0.0786 0.0
C1050 C 0.62799 0.10103 0.15147 0.0
H1051 H 0.73121 0.20939 0.16751 0.0
H1052 H 0.70124 0.17406 0.14153 0.0
H1053 H 0.65148 0.11394 0.18992 0.0
H1054 H 0.54237 0.051 0.09002 0.0
H1055 H 0.56861 0.08008 0.127 0.0
H1056 H 0.62417 0.13792 0.09321 0.0
C1057 C 0.69763 0.17801 0.16343 0.0
C1058 C 0.64524 0.11954 0.16903 0.0
C1059 C 0.71497 0.19812 0.17835 0.0
C1060 C 0.56363 0.05898 0.08667 0.0
C1061 C 0.5786 0.0755 0.10785 0.0
C1062 C 0.62981 0.13257 0.11438 0.0
C1063 C 0.6755 0.16368 0.17632 0.0
C1064 C 0.65534 0.14451 0.1591 0.0
C1065 C 0.60576 0.08709 0.10358 0.0
C1066 C 0.62077 0.10725 0.12378 0.0
H1067 H 0.68572 0.19386 0.2417 0.0
H1068 H 0.65526 0.15833 0.21556 0.0
H1069 H 0.65335 0.17036 0.12381 0.0
H1070 H 0.61375 0.06055 0.0385 0.0
H1071 H 0.63922 0.08949 0.07496 0.0
C1072 C 0.70933 0.6942 0.81426 0.0
C1073 C 0.70349 0.69638 0.7853 0.0
C1074 C 0.6913 0.67815 0.8304 0.0
C1075 C 0.61845 0.64279 0.8299 0.0
H1076 H 0.65005 0.60812 0.89336 0.0
C1077 C 0.55429 0.56633 0.89961 0.0
C1078 C 0.56018 0.57017 0.9288 0.0
C1079 C 0.57036 0.58122 0.8805 0.0
C1080 C 0.6408 0.61775 0.87579 0.0
H1081 H 0.67373 0.68308 0.75077 0.0
H1082 H 0.64276 0.6546 0.77863 0.0
H1083 H 0.68081 0.63423 0.86353 0.0
H1084 H 0.58748 0.5937 0.96033 0.0
H1085 H 0.615 0.61886 0.92748 0.0
H1086 H 0.57834 0.62567 0.84226 0.0
C1087 C 0.66105 0.66569 0.78911 0.0
C1088 C 0.65851 0.63295 0.85866 0.0
C1089 C 0.67902 0.68193 0.77299 0.0
C1090 C 0.5821 0.58979 0.93815 0.0
C1091 C 0.5982 0.60427 0.91922 0.0
C1092 C 0.6007 0.62726 0.84694 0.0
C1093 C 0.66686 0.66349 0.81814 0.0
C1094 C 0.6477 0.64613 0.83563 0.0
C1095 C 0.59294 0.6 0.89012 0.0
C1096 C 0.61161 0.61488 0.87041 0.0
H1097 H 0.7277 0.70524 0.82467 0.0
H1098 H 0.69642 0.67765 0.8527 0.0
H1099 H 0.60908 0.65273 0.81265 0.0
H1100 H 0.5377 0.55147 0.89149 0.0
H1101 H 0.56569 0.57743 0.8582 0.0
C1102 C 0.29231 0.68303 0.84407 0.0
C1103 C 0.29848 0.69257 0.81756 0.0
C1104 C 0.30984 0.66687 0.85816 0.0
C1105 C 0.36972 0.6256 0.84943 0.0
H1106 H 0.37311 0.63166 0.9308 0.0
C1107 C 0.44558 0.57147 0.92287 0.0
C1108 C 0.43168 0.55576 0.94269 0.0
C1109 C 0.43134 0.58942 0.90713 0.0
C1110 C 0.3724 0.62974 0.90809 0.0
H1111 H 0.32788 0.69216 0.78482 0.0
H1112 H 0.35938 0.66463 0.80993 0.0
H1113 H 0.34524 0.66043 0.90391 0.0
H1114 H 0.39228 0.54723 0.96215 0.0
H1115 H 0.36787 0.57925 0.93559 0.0
H1116 H 0.3978 0.59525 0.85412 0.0
C1117 C 0.34051 0.66918 0.81963 0.0
C1118 C 0.35615 0.64608 0.89252 0.0
C1119 C 0.32251 0.68505 0.80519 0.0
C1120 C 0.40357 0.55903 0.94705 0.0
C1121 C 0.38959 0.57739 0.93187 0.0
C1122 C 0.38647 0.60956 0.86509 0.0
C1123 C 0.33462 0.66011 0.84658 0.0
C1124 C 0.35394 0.64389 0.86291 0.0
C1125 C 0.40315 0.59252 0.91144 0.0
C1126 C 0.38754 0.61112 0.89461 0.0
H1127 H 0.27371 0.68804 0.85404 0.0
H1128 H 0.30376 0.65965 0.87825 0.0
H1129 H 0.36856 0.623 0.82678 0.0
H1130 H 0.46716 0.56923 0.91885 0.0
H1131 H 0.44234 0.60091 0.89163 0.0
C1132 C 0.34234 0.30418 0.75794 0.0
C1133 C 0.31395 0.30349 0.7636 0.0
C1134 C 0.3614 0.32553 0.76806 0.0
C1135 C 0.398 0.35785 0.81239 0.0
H1136 H 0.38119 0.43073 0.82613 0.0
C1137 C 0.44151 0.42188 0.90832 0.0
C1138 C 0.44866 0.44943 0.90624 0.0
C1139 C 0.43024 0.40624 0.88502 0.0
C1140 C 0.38646 0.4106 0.82197 0.0
H1141 H 0.28289 0.32537 0.78275 0.0
H1142 H 0.31637 0.3624 0.80135 0.0
H1143 H 0.35002 0.40048 0.79444 0.0
H1144 H 0.45075 0.4822 0.87803 0.0
H1145 H 0.43045 0.45466 0.83691 0.0
H1146 H 0.43393 0.36769 0.84045 0.0
C1147 C 0.32387 0.34666 0.78864 0.0
C1148 C 0.36844 0.39318 0.80412 0.0
C1149 C 0.30468 0.32538 0.77814 0.0
C1150 C 0.44555 0.46093 0.88005 0.0
C1151 C 0.43377 0.44526 0.85667 0.0
C1152 C 0.41593 0.3752 0.83016 0.0
C1153 C 0.3526 0.34653 0.78448 0.0
C1154 C 0.37357 0.36637 0.79979 0.0
C1155 C 0.42555 0.41785 0.85912 0.0
C1156 C 0.40987 0.40147 0.83589 0.0
H1157 H 0.35003 0.2878 0.74633 0.0
H1158 H 0.38323 0.3251 0.76386 0.0
H1159 H 0.40255 0.3373 0.80984 0.0
H1160 H 0.44376 0.41254 0.92829 0.0
H1161 H 0.42384 0.38526 0.88769 0.0
C1162 C 0.66151 0.30621 0.83872 0.0
C1163 C 0.67904 0.31493 0.81758 0.0
C1164 C 0.6463 0.32406 0.85299 0.0
C1165 C 0.62451 0.39355 0.85201 0.0
H1166 H 0.61218 0.38057 0.93022 0.0
C1167 C 0.58997 0.4714 0.93282 0.0
C1168 C 0.56565 0.46295 0.94652 0.0
C1169 C 0.60289 0.45333 0.91622 0.0
C1170 C 0.61535 0.38432 0.90836 0.0
H1171 H 0.69421 0.34912 0.79446 0.0
H1172 H 0.66877 0.3808 0.82029 0.0
H1173 H 0.63688 0.3497 0.90289 0.0
H1174 H 0.53605 0.42884 0.9539 0.0
H1175 H 0.55943 0.39694 0.92569 0.0
H1176 H 0.60407 0.4291 0.85838 0.0
C1177 C 0.66595 0.35996 0.82537 0.0
C1178 C 0.62934 0.36652 0.8925 0.0
C1179 C 0.68069 0.34185 0.81058 0.0
C1180 C 0.55475 0.43592 0.94359 0.0
C1181 C 0.5681 0.4177 0.92752 0.0
C1182 C 0.61107 0.41168 0.86811 0.0
C1183 C 0.64875 0.35138 0.84707 0.0
C1184 C 0.63398 0.3707 0.86398 0.0
C1185 C 0.59215 0.42631 0.91351 0.0
C1186 C 0.60624 0.40712 0.89637 0.0
H1187 H 0.65953 0.28545 0.84429 0.0
H1188 H 0.63267 0.31631 0.86877 0.0
H1189 H 0.62715 0.39738 0.8301 0.0
H1190 H 0.59873 0.49214 0.93448 0.0
H1191 H 0.6215 0.46039 0.90574 0.0
C1192 C 0.69389 0.3491 0.18418 0.0
C1193 C 0.68168 0.32558 0.19545 0.0
C1194 C 0.67754 0.3653 0.16865 0.0
C1195 C 0.61078 0.36274 0.12656 0.0
H1196 H 0.62677 0.43989 0.13115 0.0
C1197 C 0.54564 0.43561 0.06513 0.0
C1198 C 0.56127 0.4572 0.05342 0.0
C1199 C 0.55885 0.41853 0.08281 0.0
C1200 C 0.62217 0.41835 0.12948 0.0
H1201 H 0.64253 0.3011 0.20002 0.0
H1202 H 0.61395 0.32961 0.17325 0.0
H1203 H 0.65221 0.41293 0.16278 0.0
H1204 H 0.60322 0.47677 0.04991 0.0
H1205 H 0.62597 0.44707 0.08034 0.0
H1206 H 0.58076 0.36832 0.0931 0.0
C1207 C 0.63625 0.33527 0.17602 0.0
C1208 C 0.63677 0.4029 0.14761 0.0
C1209 C 0.65262 0.31905 0.19155 0.0
C1210 C 0.59042 0.46059 0.05882 0.0
C1211 C 0.60351 0.44365 0.07643 0.0
C1212 C 0.59608 0.37825 0.10845 0.0
C1213 C 0.64857 0.35841 0.16406 0.0
C1214 C 0.63157 0.37488 0.14611 0.0
C1215 C 0.58785 0.4228 0.08913 0.0
C1216 C 0.60197 0.4062 0.10941 0.0
H1217 H 0.71623 0.35469 0.1867 0.0
H1218 H 0.68779 0.3828 0.15948 0.0
H1219 H 0.60647 0.34119 0.12463 0.0
H1220 H 0.52315 0.43246 0.06145 0.0
H1221 H 0.54624 0.4026 0.09231 0.0
C1222 C 0.66579 0.69809 0.23945 0.0
C1223 C 0.6929 0.6993 0.22953 0.0
C1224 C 0.64455 0.67906 0.22802 0.0
C1225 C 0.6021 0.65089 0.18328 0.0
H1226 H 0.61683 0.57836 0.16372 0.0
C1227 C 0.551 0.58951 0.08755 0.0
C1228 C 0.54464 0.56175 0.08893 0.0
C1229 C 0.56335 0.60472 0.11078 0.0
C1230 C 0.61212 0.59836 0.16948 0.0
H1231 H 0.71882 0.68098 0.20008 0.0
H1232 H 0.68212 0.64769 0.18067 0.0
H1233 H 0.65093 0.60727 0.19366 0.0
H1234 H 0.54501 0.52823 0.11603 0.0
H1235 H 0.56727 0.55492 0.15684 0.0
H1236 H 0.56391 0.64238 0.158 0.0
C1237 C 0.6773 0.66136 0.19736 0.0
C1238 C 0.63178 0.615 0.18639 0.0
C1239 C 0.69836 0.68057 0.20846 0.0
C1240 C 0.54951 0.54964 0.11451 0.0
C1241 C 0.56241 0.56486 0.13773 0.0
C1242 C 0.58258 0.63434 0.16613 0.0
C1243 C 0.65007 0.66057 0.20674 0.0
C1244 C 0.62735 0.64168 0.19278 0.0
C1245 C 0.57006 0.59247 0.13585 0.0
C1246 C 0.58777 0.60816 0.15836 0.0
H1247 H 0.66078 0.71218 0.25566 0.0
H1248 H 0.62376 0.67889 0.23569 0.0
H1249 H 0.59813 0.67138 0.18776 0.0
H1250 H 0.54744 0.59933 0.06806 0.0
H1251 H 0.56922 0.62586 0.10851 0.0
C1252 C 0.33913 0.6967 0.1705 0.0
C1253 C 0.32269 0.68843 0.19268 0.0
C1254 C 0.35429 0.67868 0.1565 0.0
C1255 C 0.35001 0.61121 0.13238 0.0
H1256 H 0.42991 0.62212 0.12367 0.0
C1257 C 0.40533 0.53649 0.0666 0.0
C1258 C 0.42839 0.54631 0.05184 0.0
C1259 C 0.39354 0.5531 0.08569 0.0
C1260 C 0.40752 0.61896 0.12547 0.0
H1261 H 0.30941 0.65513 0.21799 0.0
H1262 H 0.33523 0.62306 0.19249 0.0
H1263 H 0.40801 0.65261 0.15454 0.0
H1264 H 0.45697 0.58127 0.04499 0.0
H1265 H 0.43541 0.61082 0.07702 0.0
H1266 H 0.34879 0.57879 0.10215 0.0
C1267 C 0.33669 0.64367 0.18648 0.0
C1268 C 0.39512 0.63625 0.14343 0.0
C1269 C 0.32207 0.66194 0.20104 0.0
C1270 C 0.4392 0.57319 0.05617 0.0
C1271 C 0.42699 0.59002 0.07479 0.0
C1272 C 0.36225 0.59429 0.11394 0.0
C1273 C 0.35273 0.65193 0.164 0.0
C1274 C 0.36629 0.6325 0.14695 0.0
C1275 C 0.4041 0.58016 0.09001 0.0
C1276 C 0.39118 0.59795 0.11013 0.0
H1277 H 0.34004 0.71709 0.16379 0.0
H1278 H 0.3664 0.68538 0.1391 0.0
H1279 H 0.32763 0.60828 0.13448 0.0
H1280 H 0.39688 0.51569 0.06406 0.0
H1281 H 0.37643 0.5445 0.0974 0.0
C1282 C 0.32712 0.31899 0.22437 0.0
C1283 C 0.30172 0.30509 0.21343 0.0
C1284 C 0.34404 0.33555 0.20749 0.0
C1285 C 0.35879 0.34674 0.13276 0.0
H1286 H 0.39435 0.416 0.16036 0.0
C1287 C 0.41114 0.42069 0.05666 0.0
C1288 C 0.43414 0.43925 0.06564 0.0
C1289 C 0.39674 0.40447 0.07554 0.0
C1290 C 0.38503 0.39656 0.15231 0.0
H1291 H 0.27447 0.29816 0.17574 0.0
H1292 H 0.30391 0.32667 0.14643 0.0
H1293 H 0.36597 0.38807 0.19124 0.0
H1294 H 0.45986 0.45463 0.1024 0.0
H1295 H 0.4352 0.42566 0.13543 0.0
H1296 H 0.3781 0.3546 0.09419 0.0
C1297 C 0.31085 0.32473 0.16812 0.0
C1298 C 0.36856 0.38051 0.17011 0.0
C1299 C 0.29379 0.30843 0.18506 0.0
C1300 C 0.44238 0.44066 0.09448 0.0
C1301 C 0.42798 0.4241 0.11353 0.0
C1302 C 0.37546 0.36257 0.11514 0.0
C1303 C 0.33633 0.33852 0.17898 0.0
C1304 C 0.35482 0.35547 0.16048 0.0
C1305 C 0.40478 0.40569 0.10437 0.0
C1306 C 0.38857 0.38803 0.12432 0.0
H1307 H 0.33408 0.31696 0.24604 0.0
H1308 H 0.36354 0.34558 0.21666 0.0
H1309 H 0.34918 0.3274 0.12466 0.0
H1310 H 0.40363 0.4189 0.03483 0.0
H1311 H 0.37872 0.39134 0.06735 0.0
C1312 C 0.8133 0.67786 0.68708 0.0
C1313 C 0.82375 0.70469 0.69308 0.0
C1314 C 0.82639 0.66193 0.66802 0.0
C1315 C 0.89481 0.65883 0.63549 0.0
H1316 H 0.85357 0.60368 0.58659 0.0
C1317 C 0.9504 0.5945 0.55651 0.0
C1318 C 0.94214 0.56686 0.55615 0.0
C1319 C 0.93482 0.61261 0.57036 0.0
C1320 C 0.86544 0.61893 0.60021 0.0
H1321 H 0.85533 0.73611 0.68264 0.0
H1322 H 0.87751 0.70878 0.64922 0.0
H1323 H 0.82831 0.63224 0.61642 0.0
H1324 H 0.91012 0.53685 0.56894 0.0
H1325 H 0.88334 0.56813 0.5928 0.0
H1326 H 0.93193 0.64539 0.61947 0.0
C1327 C 0.85978 0.69966 0.65972 0.0
C1328 C 0.85092 0.63527 0.61741 0.0
C1329 C 0.84687 0.71544 0.67881 0.0
C1330 C 0.91734 0.55795 0.56891 0.0
C1331 C 0.90174 0.57597 0.58247 0.0
C1332 C 0.9093 0.64256 0.61824 0.0
C1333 C 0.85013 0.67253 0.65441 0.0
C1334 C 0.8654 0.65537 0.63546 0.0
C1335 C 0.91047 0.60351 0.58385 0.0
C1336 C 0.89486 0.62222 0.60053 0.0
H1337 H 0.79561 0.66892 0.69779 0.0
H1338 H 0.81843 0.64108 0.66466 0.0
H1339 H 0.90681 0.67372 0.64942 0.0
H1340 H 0.96936 0.60208 0.54694 0.0
H1341 H 0.94199 0.63374 0.57074 0.0
C1342 C 0.37314 0.79276 0.68379 0.0
C1343 C 0.34967 0.7772 0.67117 0.0
C1344 C 0.38454 0.81537 0.67078 0.0
C1345 C 0.38508 0.85202 0.60568 0.0
H1346 H 0.39137 0.91433 0.65698 0.0
C1347 C 0.41909 0.95304 0.56512 0.0
C1348 C 0.44376 0.96439 0.57984 0.0
C1349 C 0.40138 0.93374 0.57738 0.0
C1350 C 0.38956 0.89711 0.64244 0.0
H1351 H 0.32207 0.7707 0.63364 0.0
H1352 H 0.34222 0.81001 0.61082 0.0
H1353 H 0.37797 0.8701 0.67434 0.0
H1354 H 0.46681 0.96779 0.62033 0.0
H1355 H 0.43621 0.93392 0.6415 0.0
H1356 H 0.39734 0.87882 0.57392 0.0
C1357 C 0.35153 0.80507 0.63085 0.0
C1358 C 0.38223 0.87184 0.65238 0.0
C1359 C 0.34006 0.78256 0.64388 0.0
C1360 C 0.44829 0.95895 0.60824 0.0
C1361 C 0.4306 0.93964 0.62047 0.0
C1362 C 0.39249 0.87728 0.59574 0.0
C1363 C 0.37278 0.82243 0.64494 0.0
C1364 C 0.38049 0.84906 0.63419 0.0
C1365 C 0.40807 0.92567 0.6045 0.0
C1366 C 0.39528 0.89999 0.61415 0.0
H1367 H 0.38102 0.78905 0.70479 0.0
H1368 H 0.40143 0.8282 0.68169 0.0
H1369 H 0.38376 0.83475 0.59125 0.0
H1370 H 0.41463 0.95733 0.54337 0.0
H1371 H 0.38367 0.9237 0.56492 0.0
C1372 C 0.19157 0.34839 0.68995 0.0
C1373 C 0.20061 0.32482 0.67854 0.0
C1374 C 0.17744 0.36527 0.673 0.0
C1375 C 0.13651 0.36496 0.60473 0.0
H1376 H 0.14073 0.44114 0.62245 0.0
C1377 C 0.07396 0.4364 0.53991 0.0
C1378 C 0.05773 0.45201 0.55622 0.0
C1379 C 0.09458 0.4225 0.55275 0.0
C1380 C 0.13938 0.41989 0.61724 0.0
H1381 H 0.20288 0.30111 0.64005 0.0
H1382 H 0.17911 0.33102 0.61023 0.0
H1383 H 0.17163 0.41395 0.64813 0.0
H1384 H 0.05131 0.46636 0.59854 0.0
H1385 H 0.08765 0.44259 0.62081 0.0
H1386 H 0.10433 0.37115 0.57367 0.0
C1387 C 0.18219 0.33612 0.63248 0.0
C1388 C 0.15696 0.40422 0.63207 0.0
C1389 C 0.19605 0.31903 0.64954 0.0
C1390 C 0.06335 0.45435 0.58544 0.0
C1391 C 0.08427 0.44088 0.59818 0.0
C1392 C 0.11922 0.38072 0.58964 0.0
C1393 C 0.17224 0.35926 0.64404 0.0
C1394 C 0.1554 0.37641 0.62643 0.0
C1395 C 0.09975 0.42441 0.58205 0.0
C1396 C 0.1201 0.40826 0.5961 0.0
H1397 H 0.19454 0.35341 0.71224 0.0
H1398 H 0.16975 0.38257 0.6829 0.0
H1399 H 0.13427 0.34362 0.59999 0.0
H1400 H 0.07005 0.43415 0.51735 0.0
H1401 H 0.10632 0.41006 0.5398 0.0
C1402 C 0.6836 0.23592 0.67499 0.0
C1403 C 0.70938 0.2285 0.68535 0.0
C1404 C 0.66947 0.22189 0.65162 0.0
C1405 C 0.66459 0.15394 0.62243 0.0
H1406 H 0.61807 0.17763 0.56159 0.0
C1407 C 0.60277 0.07591 0.54986 0.0
C1408 C 0.57456 0.07953 0.54467 0.0
C1409 C 0.62179 0.09734 0.55981 0.0
C1410 C 0.63097 0.17076 0.57853 0.0
H1411 H 0.74183 0.2027 0.67806 0.0
H1412 H 0.71808 0.17936 0.63692 0.0
H1413 H 0.64665 0.21081 0.59286 0.0
H1414 H 0.54421 0.10843 0.54391 0.0
H1415 H 0.57719 0.14574 0.56271 0.0
H1416 H 0.64847 0.11428 0.60951 0.0
C1417 C 0.70824 0.19524 0.64714 0.0
C1418 C 0.64728 0.18973 0.59635 0.0
C1419 C 0.72193 0.20872 0.67062 0.0
C1420 C 0.56597 0.10525 0.54774 0.0
C1421 C 0.58489 0.12662 0.5584 0.0
C1422 C 0.64834 0.13517 0.60492 0.0
C1423 C 0.68124 0.20063 0.63831 0.0
C1424 C 0.66432 0.1814 0.61841 0.0
C1425 C 0.61278 0.1226 0.56567 0.0
C1426 C 0.63133 0.14322 0.58269 0.0
H1427 H 0.67352 0.25112 0.68607 0.0
H1428 H 0.64863 0.22643 0.64524 0.0
H1429 H 0.67685 0.14686 0.63974 0.0
H1430 H 0.6099 0.05629 0.5472 0.0
H1431 H 0.64332 0.09374 0.56429 0.0
C1432 C 0.80187 0.31882 0.28962 0.0
C1433 C 0.77454 0.31235 0.29762 0.0
C1434 C 0.81842 0.34088 0.30221 0.0
C1435 C 0.84944 0.39211 0.3266 0.0
H1436 H 0.84151 0.40266 0.40648 0.0
C1437 C 0.93055 0.46231 0.39417 0.0
C1438 C 0.93788 0.45398 0.42105 0.0
C1439 C 0.90717 0.44964 0.3787 0.0
C1440 C 0.84424 0.39986 0.38424 0.0
H1441 H 0.74254 0.32381 0.32437 0.0
H1442 H 0.77084 0.36334 0.34552 0.0
H1443 H 0.80749 0.37227 0.37899 0.0
H1444 H 0.92628 0.42622 0.45309 0.0
H1445 H 0.88649 0.40311 0.42568 0.0
H1446 H 0.88743 0.41793 0.33225 0.0
C1447 C 0.7799 0.35116 0.32997 0.0
C1448 C 0.8243 0.38274 0.36825 0.0
C1449 C 0.76352 0.32877 0.31765 0.0
C1450 C 0.92106 0.43311 0.43243 0.0
C1451 C 0.89804 0.42002 0.41672 0.0
C1452 C 0.86967 0.40881 0.34269 0.0
C1453 C 0.80791 0.35704 0.32308 0.0
C1454 C 0.82695 0.37811 0.33929 0.0
C1455 C 0.89091 0.42789 0.38947 0.0
C1456 C 0.86772 0.41247 0.37187 0.0
H1457 H 0.81105 0.30581 0.27491 0.0
H1458 H 0.83997 0.3442 0.29667 0.0
H1459 H 0.85192 0.38963 0.30428 0.0
H1460 H 0.94292 0.47866 0.38508 0.0
H1461 H 0.90203 0.45682 0.35818 0.0
C1462 C 0.68544 0.85731 0.3146 0.0
C1463 C 0.69086 0.83082 0.3187 0.0
C1464 C 0.66938 0.87036 0.3331 0.0
C1465 C 0.61735 0.85664 0.38675 0.0
H1466 H 0.62871 0.93381 0.39807 0.0
C1467 C 0.55441 0.92118 0.45981 0.0
C1468 C 0.53954 0.93884 0.4443 0.0
C1469 C 0.5747 0.90755 0.44725 0.0
C1470 C 0.62547 0.91224 0.39515 0.0
H1471 H 0.6846 0.79749 0.34592 0.0
H1472 H 0.65741 0.82065 0.37903 0.0
H1473 H 0.66233 0.91077 0.37244 0.0
H1474 H 0.53467 0.9568 0.40402 0.0
H1475 H 0.57087 0.93353 0.38235 0.0
H1476 H 0.58066 0.85844 0.41014 0.0
C1477 C 0.66483 0.83111 0.361 0.0
C1478 C 0.64453 0.89901 0.3803 0.0
C1479 C 0.68056 0.81786 0.34215 0.0
C1480 C 0.54562 0.94303 0.41627 0.0
C1481 C 0.56637 0.92993 0.40397 0.0
C1482 C 0.59862 0.86987 0.40214 0.0
C1483 C 0.65873 0.85744 0.35651 0.0
C1484 C 0.64032 0.8711 0.37521 0.0
C1485 C 0.58091 0.912 0.41932 0.0
C1486 C 0.60224 0.89779 0.40584 0.0
H1487 H 0.6929 0.86777 0.29657 0.0
H1488 H 0.66466 0.89035 0.32846 0.0
H1489 H 0.61313 0.83523 0.383 0.0
H1490 H 0.55007 0.91767 0.48149 0.0
H1491 H 0.58577 0.89378 0.45938 0.0
C1492 C 0.15263 0.71185 0.30822 0.0
C1493 C 0.17996 0.72426 0.31326 0.0
C1494 C 0.13898 0.69816 0.32933 0.0
C1495 C 0.10834 0.68178 0.38038 0.0
H1496 H 0.14989 0.63909 0.42998 0.0
C1497 C 0.05098 0.61018 0.45476 0.0
C1498 C 0.0595 0.58434 0.45299 0.0
C1499 C 0.06762 0.63177 0.44441 0.0
C1500 C 0.13794 0.65094 0.41634 0.0
H1501 H 0.21441 0.7323 0.34446 0.0
H1502 H 0.19036 0.70905 0.3816 0.0
H1503 H 0.17454 0.66672 0.39667 0.0
H1504 H 0.09308 0.56121 0.44148 0.0
H1505 H 0.12155 0.59824 0.42327 0.0
H1506 H 0.07151 0.6644 0.39861 0.0
C1507 C 0.17962 0.70928 0.36115 0.0
C1508 C 0.15216 0.66707 0.39738 0.0
C1509 C 0.19344 0.72264 0.33985 0.0
C1510 C 0.08578 0.58085 0.4428 0.0
C1511 C 0.10231 0.60225 0.4326 0.0
C1512 C 0.09409 0.66536 0.39908 0.0
C1513 C 0.15215 0.69692 0.3562 0.0
C1514 C 0.13746 0.68212 0.37856 0.0
C1515 C 0.09309 0.62783 0.43237 0.0
C1516 C 0.10862 0.64909 0.41669 0.0
H1517 H 0.14176 0.71265 0.28788 0.0
H1518 H 0.11815 0.68833 0.32442 0.0
H1519 H 0.09637 0.69365 0.36679 0.0
H1520 H 0.03083 0.61343 0.46257 0.0
H1521 H 0.06009 0.65131 0.44493 0.0
C1522 C 0.35284 0.22004 0.34035 0.0
C1523 C 0.33053 0.20369 0.32651 0.0
C1524 C 0.3673 0.21081 0.36357 0.0
C1525 C 0.36299 0.15772 0.41539 0.0
H1526 H 0.44187 0.15531 0.40433 0.0
C1527 C 0.42037 0.06738 0.43787 0.0
C1528 C 0.44787 0.07098 0.44959 0.0
C1529 C 0.40647 0.08945 0.43121 0.0
C1530 C 0.42004 0.15635 0.40822 0.0
H1531 H 0.30502 0.16553 0.32667 0.0
H1532 H 0.33022 0.14949 0.36663 0.0
H1533 H 0.41583 0.18579 0.3776 0.0
H1534 H 0.48227 0.10058 0.46392 0.0
H1535 H 0.45798 0.13904 0.4517 0.0
H1536 H 0.3668 0.12674 0.4444 0.0
C1537 C 0.33649 0.16945 0.35993 0.0
C1538 C 0.40516 0.17386 0.39301 0.0
C1539 C 0.32232 0.17848 0.33672 0.0
C1540 C 0.46107 0.0971 0.45484 0.0
C1541 C 0.44724 0.11914 0.44793 0.0
C1542 C 0.37781 0.14012 0.43046 0.0
C1543 C 0.35928 0.18535 0.3734 0.0
C1544 C 0.37621 0.17357 0.39534 0.0
C1545 C 0.41989 0.11547 0.43597 0.0
C1546 C 0.40609 0.13836 0.42587 0.0
H1547 H 0.35944 0.23963 0.33292 0.0
H1548 H 0.38493 0.22334 0.37358 0.0
H1549 H 0.34074 0.15753 0.41788 0.0
H1550 H 0.40955 0.04756 0.43377 0.0
H1551 H 0.38551 0.08611 0.4215 0.0
C1552 C 0.65423 0.77824 0.65863 0.0
C1553 C 0.67744 0.79467 0.67067 0.0
C1554 C 0.63816 0.78716 0.63636 0.0
C1555 C 0.63732 0.8406 0.58478 0.0
H1556 H 0.56029 0.84233 0.60403 0.0
C1557 C 0.57756 0.93094 0.57089 0.0
C1558 C 0.54936 0.92732 0.56129 0.0
C1559 C 0.59208 0.90888 0.57581 0.0
C1560 C 0.58153 0.8415 0.59786 0.0
H1561 H 0.70313 0.83243 0.66794 0.0
H1562 H 0.67512 0.84803 0.62967 0.0
H1563 H 0.58895 0.81162 0.62714 0.0
H1564 H 0.51425 0.89773 0.54918 0.0
H1565 H 0.53966 0.85924 0.55844 0.0
H1566 H 0.63042 0.87209 0.55717 0.0
C1567 C 0.66932 0.82823 0.63704 0.0
C1568 C 0.59791 0.82383 0.611 0.0
C1569 C 0.68514 0.81947 0.6593 0.0
C1570 C 0.53599 0.9012 0.55663 0.0
C1571 C 0.55046 0.87915 0.56183 0.0
C1572 C 0.62101 0.85839 0.57181 0.0
C1573 C 0.64538 0.81244 0.6257 0.0
C1574 C 0.62636 0.82434 0.60571 0.0
C1575 C 0.57861 0.88284 0.57143 0.0
C1576 C 0.59345 0.85989 0.57938 0.0
H1577 H 0.64801 0.75893 0.66695 0.0
H1578 H 0.61976 0.77466 0.62796 0.0
H1579 H 0.65909 0.84097 0.57997 0.0
H1580 H 0.5885 0.95078 0.57444 0.0
H1581 H 0.61369 0.9122 0.58374 0.0
C1582 C 0.68138 0.14506 0.29999 0.0
C1583 C 0.69524 0.16796 0.31401 0.0
C1584 C 0.66748 0.12521 0.31517 0.0
C1585 C 0.6385 0.11481 0.38434 0.0
H1586 H 0.63286 0.04003 0.35946 0.0
C1587 C 0.58117 0.03679 0.44697 0.0
C1588 C 0.55602 0.02697 0.4321 0.0
C1589 C 0.60346 0.04838 0.4328 0.0
C1590 C 0.63464 0.06084 0.36664 0.0
H1591 H 0.70666 0.18803 0.35452 0.0
H1592 H 0.68346 0.15295 0.38121 0.0
H1593 H 0.66184 0.07327 0.33453 0.0
H1594 H 0.5357 0.01847 0.39062 0.0
H1595 H 0.57499 0.03904 0.36581 0.0
H1596 H 0.61159 0.10234 0.41653 0.0
C1597 C 0.6822 0.15063 0.35853 0.0
C1598 C 0.65087 0.07987 0.35233 0.0
C1599 C 0.69545 0.17074 0.34331 0.0
C1600 C 0.55464 0.02637 0.40262 0.0
C1601 C 0.57714 0.03781 0.38842 0.0
C1602 C 0.62287 0.0958 0.3989 0.0
C1603 C 0.66788 0.12773 0.34462 0.0
C1604 C 0.65254 0.10712 0.36077 0.0
C1605 C 0.60106 0.04997 0.40361 0.0
C1606 C 0.62054 0.06882 0.38991 0.0
H1607 H 0.68115 0.14262 0.27733 0.0
H1608 H 0.65619 0.10809 0.30378 0.0
H1609 H 0.63873 0.13563 0.39104 0.0
H1610 H 0.58313 0.03712 0.4697 0.0
H1611 H 0.62188 0.05767 0.44476 0.0
C1612 C 0.80369 0.65869 0.30528 0.0
C1613 C 0.799 0.68338 0.31798 0.0
C1614 C 0.81768 0.64029 0.3203 0.0
C1615 C 0.83976 0.61998 0.39048 0.0
H1616 H 0.90361 0.59758 0.35321 0.0
C1617 C 0.9264 0.56688 0.44812 0.0
C1618 C 0.94091 0.54927 0.43234 0.0
C1619 C 0.90632 0.5812 0.43496 0.0
C1620 C 0.88557 0.60304 0.36382 0.0
H1621 H 0.80384 0.70734 0.35698 0.0
H1622 H 0.82792 0.67488 0.38335 0.0
H1623 H 0.87266 0.62545 0.32914 0.0
H1624 H 0.94447 0.53139 0.39089 0.0
H1625 H 0.90861 0.55511 0.36822 0.0
H1626 H 0.85241 0.59723 0.42506 0.0
C1627 C 0.82089 0.66995 0.36169 0.0
C1628 C 0.86788 0.6192 0.34998 0.0
C1629 C 0.80718 0.68855 0.34655 0.0
C1630 C 0.9339 0.54515 0.4035 0.0
C1631 C 0.91347 0.55898 0.39048 0.0
C1632 C 0.85726 0.60339 0.40423 0.0
C1633 C 0.82698 0.64598 0.34846 0.0
C1634 C 0.84487 0.62794 0.36316 0.0
C1635 C 0.89996 0.57783 0.40581 0.0
C1636 C 0.88051 0.59476 0.39111 0.0
H1637 H 0.79766 0.65398 0.28334 0.0
H1638 H 0.82183 0.62184 0.30967 0.0
H1639 H 0.82209 0.62636 0.40108 0.0
H1640 H 0.93148 0.57053 0.4704 0.0
H1641 H 0.89664 0.59565 0.44752 0.0
C1642 C 0.29766 0.80585 0.32943 0.0
C1643 C 0.29949 0.77913 0.3208 0.0
C1644 C 0.30934 0.81595 0.35533 0.0
C1645 C 0.36708 0.81135 0.40369 0.0
H1646 H 0.32882 0.86157 0.44721 0.0
C1647 C 0.42835 0.89323 0.47563 0.0
C1648 C 0.42212 0.91861 0.46737 0.0
C1649 C 0.41034 0.87039 0.46741 0.0
C1650 C 0.33971 0.84733 0.43559 0.0
H1651 H 0.31542 0.74209 0.33254 0.0
H1652 H 0.33713 0.76039 0.37791 0.0
H1653 H 0.30206 0.82995 0.4135 0.0
H1654 H 0.39113 0.94014 0.44598 0.0
H1655 H 0.35981 0.90047 0.43175 0.0
H1656 H 0.40498 0.83011 0.42417 0.0
C1657 C 0.32588 0.77312 0.3646 0.0
C1658 C 0.32442 0.82923 0.41639 0.0
C1659 C 0.3136 0.76274 0.33869 0.0
C1660 C 0.39666 0.92088 0.45245 0.0
C1661 C 0.37856 0.89813 0.44455 0.0
C1662 C 0.38241 0.8295 0.42293 0.0
C1663 C 0.32364 0.7998 0.37315 0.0
C1664 C 0.33818 0.8122 0.39913 0.0
C1665 C 0.38561 0.8726 0.4512 0.0
C1666 C 0.36899 0.84867 0.43783 0.0
H1667 H 0.28719 0.81915 0.31614 0.0
H1668 H 0.30791 0.83679 0.36105 0.0
H1669 H 0.37817 0.79846 0.39057 0.0
H1670 H 0.4478 0.89079 0.48719 0.0
H1671 H 0.41621 0.85095 0.47287 0.0
C1672 C 0.19802 0.32142 0.31737 0.0
C1673 C 0.18788 0.29429 0.31326 0.0
C1674 C 0.18453 0.33844 0.33491 0.0
C1675 C 0.13267 0.33933 0.39052 0.0
H1676 H 0.11918 0.4075 0.36033 0.0
C1677 C 0.05176 0.40677 0.43477 0.0
C1678 C 0.05847 0.43462 0.43432 0.0
C1679 C 0.06907 0.38925 0.42248 0.0
C1680 C 0.12305 0.38873 0.36938 0.0
H1681 H 0.15645 0.26354 0.32548 0.0
H1682 H 0.13316 0.29299 0.3559 0.0
H1683 H 0.14775 0.37842 0.3354 0.0
H1684 H 0.08972 0.46568 0.4222 0.0
H1685 H 0.11976 0.43546 0.40159 0.0
H1686 H 0.10768 0.34966 0.42443 0.0
C1687 C 0.1515 0.30124 0.34573 0.0
C1688 C 0.13954 0.37203 0.35503 0.0
C1689 C 0.16482 0.28435 0.32811 0.0
C1690 C 0.08349 0.44439 0.42249 0.0
C1691 C 0.10075 0.427 0.41047 0.0
C1692 C 0.11619 0.35612 0.40496 0.0
C1693 C 0.16074 0.32865 0.3489 0.0
C1694 C 0.14453 0.34705 0.36531 0.0
C1695 C 0.09354 0.39921 0.40966 0.0
C1696 C 0.11112 0.38107 0.39457 0.0
H1697 H 0.21565 0.32976 0.30617 0.0
H1698 H 0.19245 0.35938 0.33714 0.0
H1699 H 0.13624 0.32033 0.3992 0.0
H1700 H 0.03269 0.39855 0.4437 0.0
H1701 H 0.06277 0.36796 0.4222 0.0
C1702 C 0.29123 0.14494 0.66798 0.0
C1703 C 0.30061 0.17067 0.67907 0.0
C1704 C 0.30736 0.13187 0.64948 0.0
C1705 C 0.37184 0.14172 0.60862 0.0
H1706 H 0.37463 0.06644 0.62191 0.0
C1707 C 0.46408 0.07893 0.5874 0.0
C1708 C 0.45693 0.05842 0.56678 0.0
C1709 C 0.44333 0.09307 0.59834 0.0
C1710 C 0.37386 0.08742 0.61797 0.0
H1711 H 0.33352 0.20345 0.67871 0.0
H1712 H 0.36222 0.18038 0.64775 0.0
H1713 H 0.34018 0.09071 0.64468 0.0
H1714 H 0.42276 0.03604 0.54188 0.0
H1715 H 0.38639 0.06024 0.56193 0.0
H1716 H 0.40693 0.13837 0.58325 0.0
C1717 C 0.3421 0.17039 0.65239 0.0
C1718 C 0.35396 0.10133 0.6307 0.0
C1719 C 0.32568 0.18364 0.67034 0.0
C1720 C 0.42877 0.05192 0.55765 0.0
C1721 C 0.40803 0.06563 0.56905 0.0
C1722 C 0.39214 0.1279 0.59642 0.0
C1723 C 0.33351 0.14406 0.64227 0.0
C1724 C 0.35285 0.12875 0.62643 0.0
C1725 C 0.41524 0.0864 0.58925 0.0
C1726 C 0.39335 0.10077 0.60125 0.0
H1727 H 0.27178 0.13465 0.67418 0.0
H1728 H 0.29968 0.11191 0.64149 0.0
H1729 H 0.37129 0.16263 0.60433 0.0
H1730 H 0.48568 0.08434 0.59462 0.0
H1731 H 0.44913 0.10901 0.61408 0.0
C1732 C 0.81131 0.3005 0.67486 0.0
C1733 C 0.8278 0.28711 0.69368 0.0
C1734 C 0.82353 0.31468 0.65321 0.0
C1735 C 0.88503 0.31874 0.61048 0.0
H1736 H 0.86813 0.39118 0.59841 0.0
C1737 C 0.95412 0.39434 0.5493 0.0
C1738 C 0.94165 0.41532 0.53697 0.0
C1739 C 0.9379 0.37504 0.56344 0.0
C1740 C 0.87265 0.37075 0.60092 0.0
H1741 H 0.87009 0.27835 0.70474 0.0
H1742 H 0.8913 0.30308 0.66701 0.0
H1743 H 0.84433 0.36558 0.63387 0.0
H1744 H 0.90262 0.43157 0.52723 0.0
H1745 H 0.87398 0.39706 0.55037 0.0
H1746 H 0.91346 0.3239 0.5776 0.0
C1747 C 0.86892 0.30243 0.66887 0.0
C1748 C 0.85908 0.35616 0.62143 0.0
C1749 C 0.85678 0.2885 0.69065 0.0
C1750 C 0.91257 0.41545 0.53663 0.0
C1751 C 0.8963 0.39591 0.55023 0.0
C1752 C 0.89843 0.33325 0.58971 0.0
C1753 C 0.85241 0.31548 0.64981 0.0
C1754 C 0.86545 0.33019 0.62672 0.0
C1755 C 0.90894 0.37633 0.56513 0.0
C1756 C 0.8927 0.35959 0.58494 0.0
H1757 H 0.78891 0.29971 0.67657 0.0
H1758 H 0.81031 0.32454 0.63875 0.0
H1759 H 0.89004 0.29858 0.61391 0.0
H1760 H 0.97662 0.3942 0.55015 0.0
H1761 H 0.94843 0.36039 0.57477 0.0
C1762 C 0.23154 0.67116 0.6782 0.0
C1763 C 0.21976 0.69048 0.69452 0.0
C1764 C 0.21439 0.6507 0.66327 0.0
C1765 C 0.1422 0.61638 0.66011 0.0
H1766 H 0.15774 0.59602 0.58386 0.0
C1767 C 0.06628 0.53997 0.59512 0.0
C1768 C 0.06029 0.54623 0.56719 0.0
C1769 C 0.08906 0.5536 0.61067 0.0
C1770 C 0.15304 0.60154 0.6051 0.0
H1771 H 0.18076 0.70371 0.7076 0.0
H1772 H 0.15105 0.66861 0.68131 0.0
H1773 H 0.19062 0.62825 0.61122 0.0
H1774 H 0.074 0.57095 0.53326 0.0
H1775 H 0.11305 0.5955 0.56064 0.0
H1776 H 0.10397 0.59104 0.65368 0.0
C1777 C 0.17348 0.66874 0.68049 0.0
C1778 C 0.17209 0.61977 0.62091 0.0
C1779 C 0.19055 0.68904 0.69543 0.0
C1780 C 0.07812 0.56569 0.55477 0.0
C1781 C 0.10066 0.57964 0.57045 0.0
C1782 C 0.1231 0.59839 0.64428 0.0
C1783 C 0.18514 0.64922 0.66435 0.0
C1784 C 0.16656 0.62784 0.64841 0.0
C1785 C 0.1061 0.57412 0.59878 0.0
C1786 C 0.12799 0.59108 0.61639 0.0
H1787 H 0.254 0.6717 0.67714 0.0
H1788 H 0.22405 0.63587 0.65119 0.0
H1789 H 0.13755 0.62173 0.68142 0.0
H1790 H 0.05318 0.52467 0.60506 0.0
H1791 H 0.09302 0.54832 0.63218 0.0
loop_
_geom_bond_atom_site_label_1
_geom_bond_atom_site_label_2
_geom_bond_distance
_geom_bond_site_symmetry_2
_ccdc_geom_bond_type
Zn0 O6 1.969 . S
Zn0 O7 1.965 . S
Zn0 O11 2.024 . S
Zn0 O16 1.969 . S
Zn1 O8 1.969 . S
Zn1 O14 1.969 . S
Zn1 O15 1.965 . S
Zn1 O17 2.024 . S
C2 O3 1.229 . S
C2 O11 1.058 . S
O3 C2 1.229 . S
C4 O5 1.229 . S
C4 O17 1.058 . S
O5 C4 1.229 . S
O6 Zn0 1.969 . S
O6 C9 1.267 . S
O7 Zn0 1.965 . S
O7 C18 1.260 . S
O8 Zn1 1.969 . S
O8 C18 1.258 . S
C9 O6 1.267 . S
C9 O10 1.228 . S
O10 C9 1.228 . S
O11 Zn0 2.024 . S
O11 C2 1.058 . S
C12 O13 1.228 . S
C12 O14 1.267 . S
O13 C12 1.228 . S
O14 Zn1 1.969 . S
O14 C12 1.267 . S
O15 Zn1 1.965 . S
O15 C19 1.260 . S
O16 Zn0 1.969 . S
O16 C19 1.258 . S
O17 Zn1 2.024 . S
O17 C4 1.058 . S
C18 O7 1.260 . S
C18 O8 1.258 . S
C19 O15 1.260 . S
C19 O16 1.258 . S
Zn20 O26 1.969 . S
Zn20 O27 1.965 . S
Zn20 O31 2.024 . S
Zn20 O36 1.969 . S
Zn21 O28 1.969 . S
Zn21 O34 1.969 . S
Zn21 O35 1.965 . S
Zn21 O37 2.024 . S
C22 O23 1.229 . S
C22 O31 1.058 . S
O23 C22 1.229 . S
C24 O25 1.229 . S
C24 O37 1.058 . S
O25 C24 1.229 . S
O26 Zn20 1.969 . S
O26 C29 1.267 . S
O27 Zn20 1.965 . S
O27 C38 1.260 . S
O28 Zn21 1.969 . S
O28 C38 1.258 . S
C29 O26 1.267 . S
C29 O30 1.228 . S
O30 C29 1.228 . S
O31 Zn20 2.024 . S
O31 C22 1.058 . S
C32 O33 1.228 . S
C32 O34 1.267 . S
O33 C32 1.228 . S
O34 Zn21 1.969 . S
O34 C32 1.267 . S
O35 Zn21 1.965 . S
O35 C39 1.260 . S
O36 Zn20 1.969 . S
O36 C39 1.258 . S
O37 Zn21 2.024 . S
O37 C24 1.058 . S
C38 O27 1.260 . S
C38 O28 1.258 . S
C39 O35 1.260 . S
C39 O36 1.258 . S
Zn40 O46 1.969 . S
Zn40 O47 1.965 . S
Zn40 O51 2.024 . S
Zn40 O56 1.969 . S
Zn41 O48 1.969 . S
Zn41 O54 1.969 . S
Zn41 O55 1.965 . S
Zn41 O57 2.024 . S
C42 O43 1.229 . S
C42 O51 1.058 . S
O43 C42 1.229 . S
C44 O45 1.229 . S
C44 O57 1.058 . S
O45 C44 1.229 . S
O46 Zn40 1.969 . S
O46 C49 1.267 . S
O47 Zn40 1.965 . S
O47 C58 1.260 . S
O48 Zn41 1.969 . S
O48 C58 1.258 . S
C49 O46 1.267 . S
C49 O50 1.228 . S
O50 C49 1.228 . S
O51 Zn40 2.024 . S
O51 C42 1.058 . S
C52 O53 1.228 . S
C52 O54 1.267 . S
O53 C52 1.228 . S
O54 Zn41 1.969 . S
O54 C52 1.267 . S
O55 Zn41 1.965 . S
O55 C59 1.260 . S
O56 Zn40 1.969 . S
O56 C59 1.258 . S
O57 Zn41 2.024 . S
O57 C44 1.058 . S
C58 O47 1.260 . S
C58 O48 1.258 . S
C59 O55 1.260 . S
C59 O56 1.258 . S
Zn60 O66 1.969 . S
Zn60 O67 1.965 . S
Zn60 O71 2.024 . S
Zn60 O76 1.969 . S
Zn61 O68 1.969 . S
Zn61 O74 1.969 . S
Zn61 O75 1.965 . S
Zn61 O77 2.024 . S
C62 O63 1.229 . S
C62 O71 1.058 . S
O63 C62 1.229 . S
C64 O65 1.229 . S
C64 O77 1.058 . S
O65 C64 1.229 . S
O66 Zn60 1.969 . S
O66 C69 1.267 . S
O67 Zn60 1.965 . S
O67 C78 1.260 . S
O68 Zn61 1.969 . S
O68 C78 1.258 . S
C69 O66 1.267 . S
C69 O70 1.228 . S
O70 C69 1.228 . S
O71 Zn60 2.024 . S
O71 C62 1.058 . S
C72 O73 1.228 . S
C72 O74 1.267 . S
O73 C72 1.228 . S
O74 Zn61 1.969 . S
O74 C72 1.267 . S
O75 Zn61 1.965 . S
O75 C79 1.260 . S
O76 Zn60 1.969 . S
O76 C79 1.258 . S
O77 Zn61 2.024 . S
O77 C64 1.058 . S
C78 O67 1.260 . S
C78 O68 1.258 . S
C79 O75 1.260 . S
C79 O76 1.258 . S
Zn80 O86 1.969 . S
Zn80 O87 1.965 . S
Zn80 O91 2.024 . S
Zn80 O96 1.969 . S
Zn81 O88 1.969 . S
Zn81 O94 1.969 . S
Zn81 O95 1.965 . S
Zn81 O97 2.024 . S
C82 O83 1.229 . S
C82 O91 1.058 . S
O83 C82 1.229 . S
C84 O85 1.229 . S
C84 O97 1.058 . S
O85 C84 1.229 . S
O86 Zn80 1.969 . S
O86 C89 1.267 . S
O87 Zn80 1.965 . S
O87 C98 1.260 . S
O88 Zn81 1.969 . S
O88 C98 1.258 . S
C89 O86 1.267 . S
C89 O90 1.228 . S
O90 C89 1.228 . S
O91 Zn80 2.024 . S
O91 C82 1.058 . S
C92 O93 1.228 . S
C92 O94 1.267 . S
O93 C92 1.228 . S
O94 Zn81 1.969 . S
O94 C92 1.267 . S
O95 Zn81 1.965 . S
O95 C99 1.260 . S
O96 Zn80 1.969 . S
O96 C99 1.258 . S
O97 Zn81 2.024 . S
O97 C84 1.058 . S
C98 O87 1.260 . S
C98 O88 1.258 . S
C99 O95 1.260 . S
C99 O96 1.258 . S
Zn100 O106 1.969 . S
Zn100 O107 1.965 . S
Zn100 O111 2.024 . S
Zn100 O116 1.969 . S
Zn101 O108 1.969 . S
Zn101 O114 1.969 . S
Zn101 O115 1.965 . S
Zn101 O117 2.024 . S
C102 O103 1.229 . S
C102 O111 1.058 . S
O103 C102 1.229 . S
C104 O105 1.229 . S
C104 O117 1.058 . S
O105 C104 1.229 . S
O106 Zn100 1.969 . S
O106 C109 1.267 . S
O107 Zn100 1.965 . S
O107 C118 1.260 . S
O108 Zn101 1.969 . S
O108 C118 1.258 . S
C109 O106 1.267 . S
C109 O110 1.228 . S
O110 C109 1.228 . S
O111 Zn100 2.024 . S
O111 C102 1.058 . S
C112 O113 1.228 . S
C112 O114 1.267 . S
O113 C112 1.228 . S
O114 Zn101 1.969 . S
O114 C112 1.267 . S
O115 Zn101 1.965 . S
O115 C119 1.260 . S
O116 Zn100 1.969 . S
O116 C119 1.258 . S
O117 Zn101 2.024 . S
O117 C104 1.058 . S
C118 O107 1.260 . S
C118 O108 1.258 . S
C119 O115 1.260 . S
C119 O116 1.258 . S
Zn120 O126 1.969 . S
Zn120 O127 1.965 . S
Zn120 O131 2.024 . S
Zn120 O136 1.969 . S
Zn121 O128 1.969 . S
Zn121 O134 1.969 . S
Zn121 O135 1.965 . S
Zn121 O137 2.024 . S
C122 O123 1.229 . S
C122 O131 1.058 . S
O123 C122 1.229 . S
C124 O125 1.229 . S
C124 O137 1.058 . S
O125 C124 1.229 . S
O126 Zn120 1.969 . S
O126 C129 1.267 . S
O127 Zn120 1.965 . S
O127 C138 1.260 . S
O128 Zn121 1.969 . S
O128 C138 1.258 . S
C129 O126 1.267 . S
C129 O130 1.228 . S
O130 C129 1.228 . S
O131 Zn120 2.024 . S
O131 C122 1.058 . S
C132 O133 1.228 . S
C132 O134 1.267 . S
O133 C132 1.228 . S
O134 Zn121 1.969 . S
O134 C132 1.267 . S
O135 Zn121 1.965 . S
O135 C139 1.260 . S
O136 Zn120 1.969 . S
O136 C139 1.258 . S
O137 Zn121 2.024 . S
O137 C124 1.058 . S
C138 O127 1.260 . S
C138 O128 1.258 . S
C139 O135 1.260 . S
C139 O136 1.258 . S
Zn140 O146 1.969 . S
Zn140 O147 1.965 . S
Zn140 O151 2.024 . S
Zn140 O156 1.969 . S
Zn141 O148 1.969 . S
Zn141 O154 1.969 . S
Zn141 O155 1.965 . S
Zn141 O157 2.024 . S
C142 O143 1.229 . S
C142 O151 1.058 . S
O143 C142 1.229 . S
C144 O145 1.229 . S
C144 O157 1.058 . S
O145 C144 1.229 . S
O146 Zn140 1.969 . S
O146 C149 1.267 . S
O147 Zn140 1.965 . S
O147 C158 1.260 . S
O148 Zn141 1.969 . S
O148 C158 1.258 . S
C149 O146 1.267 . S
C149 O150 1.228 . S
O150 C149 1.228 . S
O151 Zn140 2.024 . S
O151 C142 1.058 . S
C152 O153 1.228 . S
C152 O154 1.267 . S
O153 C152 1.228 . S
O154 Zn141 1.969 . S
O154 C152 1.267 . S
O155 Zn141 1.965 . S
O155 C159 1.260 . S
O156 Zn140 1.969 . S
O156 C159 1.258 . S
O157 Zn141 2.024 . S
O157 C144 1.058 . S
C158 O147 1.260 . S
C158 O148 1.258 . S
C159 O155 1.260 . S
C159 O156 1.258 . S
Fe160 O161 1.886 1_455 S
Fe160 O164 1.715 . S
Fe160 O169 2.077 1_455 S
Fe160 O174 1.935 . S
Fe160 O180 2.077 1_455 S
Fe160 O189 1.935 . S
O161 Fe160 1.886 1_655 S
O161 Fe163 1.715 1_545 S
Fe162 O164 1.886 . S
Fe162 O165 1.715 1_545 S
Fe162 O172 1.935 1_545 S
Fe162 O173 2.077 . S
Fe162 O179 1.935 1_545 S
Fe162 O188 2.077 . S
Fe163 O161 1.715 1_565 S
Fe163 O166 1.886 . S
Fe163 O170 1.935 1_565 S
Fe163 O175 2.077 . S
Fe163 O181 1.935 1_565 S
Fe163 O185 2.077 . S
O164 Fe160 1.715 . S
O164 Fe162 1.886 . S
O165 Fe162 1.715 1_565 S
O165 Fe167 1.886 1_455 S
O166 Fe163 1.886 . S
O166 Fe167 1.715 . S
Fe167 O165 1.886 1_655 S
Fe167 O166 1.715 . S
Fe167 O171 2.077 1_655 S
Fe167 O176 1.935 . S
Fe167 O178 2.077 1_655 S
Fe167 O186 1.935 . S
C168 O180 1.381 . S
C168 O181 1.421 . S
O169 Fe160 2.077 1_655 S
O169 C182 1.381 . S
O170 Fe163 1.935 1_545 S
O170 C182 1.421 . S
O171 Fe167 2.077 1_455 S
O171 C187 1.381 . S
O172 Fe162 1.935 1_565 S
O172 C187 1.421 . S
O173 Fe162 2.077 . S
O173 C177 1.381 . S
O174 Fe160 1.935 . S
O174 C177 1.421 . S
O175 Fe163 2.077 . S
O175 C183 1.381 . S
O176 Fe167 1.935 . S
O176 C183 1.421 . S
C177 O173 1.381 . S
C177 O174 1.421 . S
O178 Fe167 2.077 1_455 S
O178 C190 1.381 . S
O179 Fe162 1.935 1_565 S
O179 C190 1.421 . S
O180 Fe160 2.077 1_655 S
O180 C168 1.381 . S
O181 Fe163 1.935 1_545 S
O181 C168 1.421 . S
C182 O169 1.381 . S
C182 O170 1.421 . S
C183 O175 1.381 . S
C183 O176 1.421 . S
C184 O185 1.381 . S
C184 O186 1.421 . S
O185 Fe163 2.077 . S
O185 C184 1.381 . S
O186 Fe167 1.935 . S
O186 C184 1.421 . S
C187 O171 1.381 . S
C187 O172 1.421 . S
O188 Fe162 2.077 . S
O188 C191 1.381 . S
O189 Fe160 1.935 . S
O189 C191 1.421 . S
C190 O178 1.381 . S
C190 O179 1.421 . S
C191 O188 1.381 . S
C191 O189 1.421 . S
Fe192 O193 1.886 1_556 S
Fe192 O196 1.715 . S
Fe192 O201 2.077 . S
Fe192 O206 1.935 . S
Fe192 O212 2.077 1_556 S
Fe192 O221 1.935 1_556 S
O193 Fe192 1.886 1_554 S
O193 Fe195 1.715 1_565 S
Fe194 O196 1.886 . S
Fe194 O197 1.715 1_565 S
Fe194 O204 1.935 1_565 S
Fe194 O205 2.077 . S
Fe194 O211 1.935 1_566 S
Fe194 O220 2.077 1_556 S
Fe195 O193 1.715 1_545 S
Fe195 O198 1.886 . S
Fe195 O202 1.935 1_544 S
Fe195 O207 2.077 1_554 S
Fe195 O213 1.935 1_545 S
Fe195 O217 2.077 . S
O196 Fe192 1.715 . S
O196 Fe194 1.886 . S
O197 Fe194 1.715 1_545 S
O197 Fe199 1.886 1_556 S
O198 Fe195 1.886 . S
O198 Fe199 1.715 . S
Fe199 O197 1.886 1_554 S
Fe199 O198 1.715 . S
Fe199 O203 2.077 1_554 S
Fe199 O208 1.935 1_554 S
Fe199 O210 2.077 . S
Fe199 O218 1.935 . S
C200 O212 1.381 . S
C200 O213 1.421 . S
O201 Fe192 2.077 . S
O201 C214 1.381 . S
O202 Fe195 1.935 1_566 S
O202 C214 1.421 . S
O203 Fe199 2.077 1_556 S
O203 C219 1.381 . S
O204 Fe194 1.935 1_545 S
O204 C219 1.421 . S
O205 Fe194 2.077 . S
O205 C209 1.381 . S
O206 Fe192 1.935 . S
O206 C209 1.421 . S
O207 Fe195 2.077 1_556 S
O207 C215 1.381 . S
O208 Fe199 1.935 1_556 S
O208 C215 1.421 . S
C209 O205 1.381 . S
C209 O206 1.421 . S
O210 Fe199 2.077 . S
O210 C222 1.381 . S
O211 Fe194 1.935 1_544 S
O211 C222 1.421 . S
O212 Fe192 2.077 1_554 S
O212 C200 1.381 . S
O213 Fe195 1.935 1_565 S
O213 C200 1.421 . S
C214 O201 1.381 . S
C214 O202 1.421 . S
C215 O207 1.381 . S
C215 O208 1.421 . S
C216 O217 1.381 . S
C216 O218 1.421 . S
O217 Fe195 2.077 . S
O217 C216 1.381 . S
O218 Fe199 1.935 . S
O218 C216 1.421 . S
C219 O203 1.381 . S
C219 O204 1.421 . S
O220 Fe194 2.077 1_554 S
O220 C223 1.381 . S
O221 Fe192 1.935 1_554 S
O221 C223 1.421 . S
C222 O210 1.381 . S
C222 O211 1.421 . S
C223 O220 1.381 . S
C223 O221 1.421 . S
Fe224 O225 1.886 1_454 S
Fe224 O228 1.715 . S
Fe224 O233 2.077 1_454 S
Fe224 O238 1.935 1_554 S
Fe224 O244 2.077 1_455 S
Fe224 O253 1.935 . S
O225 Fe224 1.886 1_656 S
O225 Fe227 1.715 . S
Fe226 O228 1.886 . S
Fe226 O229 1.714 . S
Fe226 O236 1.935 1_554 S
Fe226 O237 2.077 1_554 S
Fe226 O243 1.935 . S
Fe226 O252 2.077 . S
Fe227 O225 1.715 . S
Fe227 O230 1.886 . S
Fe227 O234 1.935 . S
Fe227 O239 2.077 . S
Fe227 O245 1.935 1_556 S
Fe227 O249 2.077 1_556 S
O228 Fe224 1.715 . S
O228 Fe226 1.886 . S
O229 Fe226 1.714 . S
O229 Fe231 1.886 1_454 S
O230 Fe227 1.886 . S
O230 Fe231 1.715 . S
Fe231 O229 1.886 1_656 S
Fe231 O230 1.715 . S
Fe231 O235 2.077 1_655 S
Fe231 O240 1.935 . S
Fe231 O242 2.077 1_656 S
Fe231 O250 1.935 1_556 S
C232 O244 1.381 . S
C232 O245 1.421 . S
O233 Fe224 2.077 1_656 S
O233 C246 1.381 . S
O234 Fe227 1.935 . S
O234 C246 1.421 . S
O235 Fe231 2.077 1_455 S
O235 C251 1.381 . S
O236 Fe226 1.935 1_556 S
O236 C251 1.421 . S
O237 Fe226 2.077 1_556 S
O237 C241 1.381 . S
O238 Fe224 1.935 1_556 S
O238 C241 1.421 . S
O239 Fe227 2.077 . S
O239 C247 1.381 . S
O240 Fe231 1.935 . S
O240 C247 1.421 . S
C241 O237 1.381 . S
C241 O238 1.421 . S
O242 Fe231 2.077 1_454 S
O242 C254 1.381 . S
O243 Fe226 1.935 . S
O243 C254 1.421 . S
O244 Fe224 2.077 1_655 S
O244 C232 1.381 . S
O245 Fe227 1.935 1_554 S
O245 C232 1.421 . S
C246 O233 1.381 . S
C246 O234 1.421 . S
C247 O239 1.381 . S
C247 O240 1.421 . S
C248 O249 1.381 . S
C248 O250 1.421 . S
O249 Fe227 2.077 1_554 S
O249 C248 1.381 . S
O250 Fe231 1.935 1_554 S
O250 C248 1.421 . S
C251 O235 1.381 . S
C251 O236 1.421 . S
O252 Fe226 2.077 . S
O252 C255 1.381 . S
O253 Fe224 1.935 . S
O253 C255 1.421 . S
C254 O242 1.381 . S
C254 O243 1.421 . S
C255 O252 1.381 . S
C255 O253 1.421 . S
Fe256 O257 1.886 . S
Fe256 O260 1.715 . S
Fe256 O265 2.077 . S
Fe256 O270 1.935 . S
Fe256 O276 2.077 . S
Fe256 O285 1.935 . S
O257 Fe256 1.886 . S
O257 Fe259 1.715 1_556 S
Fe258 O260 1.886 . S
Fe258 O261 1.715 1_556 S
Fe258 O268 1.935 1_556 S
Fe258 O269 2.077 . S
Fe258 O275 1.935 1_556 S
Fe258 O284 2.077 . S
Fe259 O257 1.715 1_554 S
Fe259 O262 1.886 . S
Fe259 O266 1.935 1_554 S
Fe259 O271 2.077 . S
Fe259 O277 1.935 1_554 S
Fe259 O281 2.077 . S
O260 Fe256 1.715 . S
O260 Fe258 1.886 . S
O261 Fe258 1.715 1_554 S
O261 Fe263 1.886 . S
O262 Fe259 1.886 . S
O262 Fe263 1.715 . S
Fe263 O261 1.886 . S
Fe263 O262 1.715 . S
Fe263 O267 2.077 . S
Fe263 O272 1.935 . S
Fe263 O274 2.077 . S
Fe263 O282 1.935 . S
C264 O276 1.381 . S
C264 O277 1.421 . S
O265 Fe256 2.077 . S
O265 C278 1.381 . S
O266 Fe259 1.935 1_556 S
O266 C278 1.421 . S
O267 Fe263 2.077 . S
O267 C283 1.381 . S
O268 Fe258 1.935 1_554 S
O268 C283 1.421 . S
O269 Fe258 2.077 . S
O269 C273 1.381 . S
O270 Fe256 1.935 . S
O270 C273 1.421 . S
O271 Fe259 2.077 . S
O271 C279 1.381 . S
O272 Fe263 1.935 . S
O272 C279 1.421 . S
C273 O269 1.381 . S
C273 O270 1.421 . S
O274 Fe263 2.077 . S
O274 C286 1.381 . S
O275 Fe258 1.935 1_554 S
O275 C286 1.421 . S
O276 Fe256 2.077 . S
O276 C264 1.381 . S
O277 Fe259 1.935 1_556 S
O277 C264 1.421 . S
C278 O265 1.381 . S
C278 O266 1.421 . S
C279 O271 1.381 . S
C279 O272 1.421 . S
C280 O281 1.381 . S
C280 O282 1.421 . S
O281 Fe259 2.077 . S
O281 C280 1.381 . S
O282 Fe263 1.935 . S
O282 C280 1.421 . S
C283 O267 1.381 . S
C283 O268 1.421 . S
O284 Fe258 2.077 . S
O284 C287 1.381 . S
O285 Fe256 1.935 . S
O285 C287 1.421 . S
C286 O274 1.381 . S
C286 O275 1.421 . S
C287 O284 1.381 . S
C287 O285 1.421 . S
Fe288 O289 1.885 . S
Fe288 O292 1.715 . S
Fe288 O297 2.077 1_655 S
Fe288 O302 1.935 1_655 S
Fe288 O308 2.077 . S
Fe288 O317 1.935 . S
O289 Fe288 1.885 . S
O289 Fe291 1.716 1_655 S
Fe290 O292 1.886 . S
Fe290 O293 1.716 1_655 S
Fe290 O300 1.935 1_655 S
Fe290 O301 2.077 1_655 S
Fe290 O307 1.935 . S
Fe290 O316 2.077 . S
Fe291 O289 1.716 1_455 S
Fe291 O294 1.886 . S
Fe291 O298 1.935 . S
Fe291 O303 2.077 . S
Fe291 O309 1.935 1_455 S
Fe291 O313 2.077 1_455 S
O292 Fe288 1.715 . S
O292 Fe290 1.886 . S
O293 Fe290 1.716 1_455 S
O293 Fe295 1.885 . S
O294 Fe291 1.886 . S
O294 Fe295 1.715 . S
Fe295 O293 1.885 . S
Fe295 O294 1.715 . S
Fe295 O299 2.077 . S
Fe295 O304 1.935 . S
Fe295 O306 2.077 1_455 S
Fe295 O314 1.935 1_455 S
C296 O308 1.381 . S
C296 O309 1.421 . S
O297 Fe288 2.077 1_455 S
O297 C310 1.381 . S
O298 Fe291 1.935 . S
O298 C310 1.421 . S
O299 Fe295 2.077 . S
O299 C315 1.381 . S
O300 Fe290 1.935 1_455 S
O300 C315 1.421 . S
O301 Fe290 2.077 1_455 S
O301 C305 1.381 . S
O302 Fe288 1.935 1_455 S
O302 C305 1.421 . S
O303 Fe291 2.077 . S
O303 C311 1.381 . S
O304 Fe295 1.935 . S
O304 C311 1.421 . S
C305 O301 1.381 . S
C305 O302 1.421 . S
O306 Fe295 2.077 1_655 S
O306 C318 1.381 . S
O307 Fe290 1.935 . S
O307 C318 1.421 . S
O308 Fe288 2.077 . S
O308 C296 1.381 . S
O309 Fe291 1.935 1_655 S
O309 C296 1.421 . S
C310 O297 1.381 . S
C310 O298 1.421 . S
C311 O303 1.381 . S
C311 O304 1.421 . S
C312 O313 1.381 . S
C312 O314 1.421 . S
O313 Fe291 2.077 1_655 S
O313 C312 1.381 . S
O314 Fe295 1.935 1_655 S
O314 C312 1.421 . S
C315 O299 1.381 . S
C315 O300 1.421 . S
O316 Fe290 2.077 . S
O316 C319 1.381 . S
O317 Fe288 1.935 . S
O317 C319 1.421 . S
C318 O306 1.381 . S
C318 O307 1.421 . S
C319 O316 1.381 . S
C319 O317 1.421 . S
Fe320 O321 1.886 . S
Fe320 O324 1.715 . S
Fe320 O329 2.077 . S
Fe320 O334 1.935 . S
Fe320 O340 2.077 . S
Fe320 O349 1.935 . S
O321 Fe320 1.886 . S
O321 Fe323 1.715 1_565 S
Fe322 O324 1.886 . S
Fe322 O325 1.715 1_565 S
Fe322 O332 1.935 1_565 S
Fe322 O333 2.077 . S
Fe322 O339 1.935 1_565 S
Fe322 O348 2.077 . S
Fe323 O321 1.715 1_545 S
Fe323 O326 1.886 . S
Fe323 O330 1.935 1_545 S
Fe323 O335 2.077 . S
Fe323 O341 1.935 1_545 S
Fe323 O345 2.077 . S
O324 Fe320 1.715 . S
O324 Fe322 1.886 . S
O325 Fe322 1.715 1_545 S
O325 Fe327 1.886 . S
O326 Fe323 1.886 . S
O326 Fe327 1.715 . S
Fe327 O325 1.886 . S
Fe327 O326 1.715 . S
Fe327 O331 2.077 . S
Fe327 O336 1.935 . S
Fe327 O338 2.077 . S
Fe327 O346 1.935 . S
C328 O340 1.381 . S
C328 O341 1.421 . S
O329 Fe320 2.077 . S
O329 C342 1.381 . S
O330 Fe323 1.935 1_565 S
O330 C342 1.421 . S
O331 Fe327 2.077 . S
O331 C347 1.381 . S
O332 Fe322 1.935 1_545 S
O332 C347 1.421 . S
O333 Fe322 2.077 . S
O333 C337 1.381 . S
O334 Fe320 1.935 . S
O334 C337 1.421 . S
O335 Fe323 2.077 . S
O335 C343 1.381 . S
O336 Fe327 1.935 . S
O336 C343 1.421 . S
C337 O333 1.381 . S
C337 O334 1.421 . S
O338 Fe327 2.077 . S
O338 C350 1.381 . S
O339 Fe322 1.935 1_545 S
O339 C350 1.421 . S
O340 Fe320 2.077 . S
O340 C328 1.381 . S
O341 Fe323 1.935 1_565 S
O341 C328 1.421 . S
C342 O329 1.381 . S
C342 O330 1.421 . S
C343 O335 1.381 . S
C343 O336 1.421 . S
C344 O345 1.381 . S
C344 O346 1.421 . S
O345 Fe323 2.077 . S
O345 C344 1.381 . S
O346 Fe327 1.935 . S
O346 C344 1.421 . S
C347 O331 1.381 . S
C347 O332 1.421 . S
O348 Fe322 2.077 . S
O348 C351 1.381 . S
O349 Fe320 1.935 . S
O349 C351 1.421 . S
C350 O338 1.381 . S
C350 O339 1.421 . S
C351 O348 1.381 . S
C351 O349 1.421 . S
C352 C353 1.349 . S
C352 C354 1.327 . S
C352 H377 0.950 . S
C353 C352 1.349 . S
C353 C369 1.349 . S
C354 C352 1.327 . S
C354 C373 1.429 . S
C354 H378 0.950 . S
C355 C372 1.574 . S
C355 C374 1.368 . S
C355 H379 0.949 . S
H356 C360 0.949 . S
C357 C358 1.349 . S
C357 C359 1.327 . S
C357 H380 0.950 . S
C358 C357 1.349 . S
C358 C370 1.349 . S
C359 C357 1.327 . S
C359 C375 1.429 . S
C359 H381 0.950 . S
C360 H356 0.949 . S
C360 C368 1.574 . S
C360 C376 1.368 . S
H361 C369 0.950 . S
H362 C367 0.950 . S
H363 C368 0.949 . S
H364 C370 0.950 . S
H365 C371 0.950 . S
H366 C372 0.949 . S
C367 H362 0.950 . S
C367 C369 1.327 . S
C367 C373 1.429 . S
C368 C360 1.574 . S
C368 H363 0.949 . S
C368 C374 1.368 . S
C369 C353 1.349 . S
C369 H361 0.950 . S
C369 C367 1.327 . S
C370 C358 1.349 . S
C370 H364 0.950 . S
C370 C371 1.327 . S
C371 H365 0.950 . S
C371 C370 1.327 . S
C371 C375 1.429 . S
C372 C355 1.574 . S
C372 H366 0.949 . S
C372 C376 1.368 . S
C373 C354 1.429 . S
C373 C367 1.429 . S
C373 C374 1.523 . S
C374 C355 1.368 . S
C374 C368 1.368 . S
C374 C373 1.523 . S
C375 C359 1.429 . S
C375 C371 1.429 . S
C375 C376 1.523 . S
C376 C360 1.368 . S
C376 C372 1.368 . S
C376 C375 1.523 . S
H377 C352 0.950 . S
H378 C354 0.950 . S
H379 C355 0.949 . S
H380 C357 0.950 . S
H381 C359 0.950 . S
C382 C383 1.349 . S
C382 C384 1.327 . S
C382 H407 0.950 . S
C383 C382 1.349 . S
C383 C399 1.349 . S
C384 C382 1.327 . S
C384 C403 1.429 . S
C384 H408 0.950 . S
C385 C402 1.574 . S
C385 C404 1.368 . S
C385 H409 0.949 . S
H386 C390 0.949 . S
C387 C388 1.349 . S
C387 C389 1.327 . S
C387 H410 0.950 . S
C388 C387 1.349 . S
C388 C400 1.349 . S
C389 C387 1.327 . S
C389 C405 1.429 . S
C389 H411 0.950 . S
C390 H386 0.949 . S
C390 C398 1.574 . S
C390 C406 1.368 . S
H391 C399 0.950 . S
H392 C397 0.950 . S
H393 C398 0.949 . S
H394 C400 0.950 . S
H395 C401 0.950 . S
H396 C402 0.949 . S
C397 H392 0.950 . S
C397 C399 1.327 . S
C397 C403 1.429 . S
C398 C390 1.574 . S
C398 H393 0.949 . S
C398 C404 1.368 . S
C399 C383 1.349 . S
C399 H391 0.950 . S
C399 C397 1.327 . S
C400 C388 1.349 . S
C400 H394 0.950 . S
C400 C401 1.327 . S
C401 H395 0.950 . S
C401 C400 1.327 . S
C401 C405 1.429 . S
C402 C385 1.574 . S
C402 H396 0.949 . S
C402 C406 1.368 . S
C403 C384 1.429 . S
C403 C397 1.429 . S
C403 C404 1.523 . S
C404 C385 1.368 . S
C404 C398 1.368 . S
C404 C403 1.523 . S
C405 C389 1.429 . S
C405 C401 1.429 . S
C405 C406 1.523 . S
C406 C390 1.368 . S
C406 C402 1.368 . S
C406 C405 1.523 . S
H407 C382 0.950 . S
H408 C384 0.950 . S
H409 C385 0.949 . S
H410 C387 0.950 . S
H411 C389 0.950 . S
C412 C413 1.349 . S
C412 C414 1.327 . S
C412 H437 0.950 . S
C413 C412 1.349 . S
C413 C429 1.349 . S
C414 C412 1.327 . S
C414 C433 1.429 . S
C414 H438 0.950 . S
C415 C432 1.574 . S
C415 C434 1.368 . S
C415 H439 0.949 . S
H416 C420 0.949 . S
C417 C418 1.349 . S
C417 C419 1.327 . S
C417 H440 0.950 . S
C418 C417 1.349 . S
C418 C430 1.349 . S
C419 C417 1.327 . S
C419 C435 1.429 . S
C419 H441 0.950 . S
C420 H416 0.949 . S
C420 C428 1.574 . S
C420 C436 1.368 . S
H421 C429 0.950 . S
H422 C427 0.950 . S
H423 C428 0.949 . S
H424 C430 0.950 . S
H425 C431 0.950 . S
H426 C432 0.949 . S
C427 H422 0.950 . S
C427 C429 1.327 . S
C427 C433 1.429 . S
C428 C420 1.574 . S
C428 H423 0.949 . S
C428 C434 1.368 . S
C429 C413 1.349 . S
C429 H421 0.950 . S
C429 C427 1.327 . S
C430 C418 1.349 . S
C430 H424 0.950 . S
C430 C431 1.327 . S
C431 H425 0.950 . S
C431 C430 1.327 . S
C431 C435 1.429 . S
C432 C415 1.574 . S
C432 H426 0.949 . S
C432 C436 1.368 . S
C433 C414 1.429 . S
C433 C427 1.429 . S
C433 C434 1.523 . S
C434 C415 1.368 . S
C434 C428 1.368 . S
C434 C433 1.523 . S
C435 C419 1.429 . S
C435 C431 1.429 . S
C435 C436 1.523 . S
C436 C420 1.368 . S
C436 C432 1.368 . S
C436 C435 1.523 . S
H437 C412 0.950 . S
H438 C414 0.950 . S
H439 C415 0.949 . S
H440 C417 0.950 . S
H441 C419 0.950 . S
C442 C443 1.349 . S
C442 C444 1.327 . S
C442 H467 0.950 . S
C443 C442 1.349 . S
C443 C459 1.349 . S
C444 C442 1.327 . S
C444 C463 1.429 . S
C444 H468 0.950 . S
C445 C462 1.574 . S
C445 C464 1.368 . S
C445 H469 0.949 . S
H446 C450 0.949 . S
C447 C448 1.349 . S
C447 C449 1.327 . S
C447 H470 0.950 . S
C448 C447 1.349 . S
C448 C460 1.349 . S
C449 C447 1.327 . S
C449 C465 1.429 . S
C449 H471 0.950 . S
C450 H446 0.949 . S
C450 C458 1.574 . S
C450 C466 1.368 . S
H451 C459 0.950 . S
H452 C457 0.950 . S
H453 C458 0.949 . S
H454 C460 0.950 . S
H455 C461 0.950 . S
H456 C462 0.949 . S
C457 H452 0.950 . S
C457 C459 1.327 . S
C457 C463 1.429 . S
C458 C450 1.574 . S
C458 H453 0.949 . S
C458 C464 1.368 . S
C459 C443 1.349 . S
C459 H451 0.950 . S
C459 C457 1.327 . S
C460 C448 1.349 . S
C460 H454 0.950 . S
C460 C461 1.327 . S
C461 H455 0.950 . S
C461 C460 1.327 . S
C461 C465 1.429 . S
C462 C445 1.574 . S
C462 H456 0.949 . S
C462 C466 1.368 . S
C463 C444 1.429 . S
C463 C457 1.429 . S
C463 C464 1.523 . S
C464 C445 1.368 . S
C464 C458 1.368 . S
C464 C463 1.523 . S
C465 C449 1.429 . S
C465 C461 1.429 . S
C465 C466 1.523 . S
C466 C450 1.368 . S
C466 C462 1.368 . S
C466 C465 1.523 . S
H467 C442 0.950 . S
H468 C444 0.950 . S
H469 C445 0.949 . S
H470 C447 0.950 . S
H471 C449 0.950 . S
C472 C473 1.349 . S
C472 C474 1.327 . S
C472 H497 0.950 . S
C473 C472 1.349 . S
C473 C489 1.349 . S
C474 C472 1.327 . S
C474 C493 1.429 . S
C474 H498 0.950 . S
C475 C492 1.574 . S
C475 C494 1.368 . S
C475 H499 0.949 . S
H476 C480 0.949 . S
C477 C478 1.349 . S
C477 C479 1.327 . S
C477 H500 0.950 . S
C478 C477 1.349 . S
C478 C490 1.349 . S
C479 C477 1.327 . S
C479 C495 1.429 . S
C479 H501 0.950 . S
C480 H476 0.949 . S
C480 C488 1.574 . S
C480 C496 1.368 . S
H481 C489 0.950 . S
H482 C487 0.950 . S
H483 C488 0.949 . S
H484 C490 0.950 . S
H485 C491 0.950 . S
H486 C492 0.949 . S
C487 H482 0.950 . S
C487 C489 1.327 . S
C487 C493 1.429 . S
C488 C480 1.574 . S
C488 H483 0.949 . S
C488 C494 1.368 . S
C489 C473 1.349 . S
C489 H481 0.950 . S
C489 C487 1.327 . S
C490 C478 1.349 . S
C490 H484 0.950 . S
C490 C491 1.327 . S
C491 H485 0.950 . S
C491 C490 1.327 . S
C491 C495 1.429 . S
C492 C475 1.574 . S
C492 H486 0.949 . S
C492 C496 1.368 . S
C493 C474 1.429 . S
C493 C487 1.429 . S
C493 C494 1.523 . S
C494 C475 1.368 . S
C494 C488 1.368 . S
C494 C493 1.523 . S
C495 C479 1.429 . S
C495 C491 1.429 . S
C495 C496 1.523 . S
C496 C480 1.368 . S
C496 C492 1.368 . S
C496 C495 1.523 . S
H497 C472 0.950 . S
H498 C474 0.950 . S
H499 C475 0.949 . S
H500 C477 0.950 . S
H501 C479 0.950 . S
C502 C503 1.349 . S
C502 C504 1.327 . S
C502 H527 0.950 . S
C503 C502 1.349 . S
C503 C519 1.349 . S
C504 C502 1.327 . S
C504 C523 1.429 . S
C504 H528 0.950 . S
C505 C522 1.574 . S
C505 C524 1.368 . S
C505 H529 0.949 . S
H506 C510 0.949 . S
C507 C508 1.349 . S
C507 C509 1.327 . S
C507 H530 0.950 . S
C508 C507 1.349 . S
C508 C520 1.349 . S
C509 C507 1.327 . S
C509 C525 1.429 . S
C509 H531 0.950 . S
C510 H506 0.949 . S
C510 C518 1.574 . S
C510 C526 1.368 . S
H511 C519 0.950 . S
H512 C517 0.950 . S
H513 C518 0.949 . S
H514 C520 0.950 . S
H515 C521 0.950 . S
H516 C522 0.949 . S
C517 H512 0.950 . S
C517 C519 1.327 . S
C517 C523 1.429 . S
C518 C510 1.574 . S
C518 H513 0.949 . S
C518 C524 1.368 . S
C519 C503 1.349 . S
C519 H511 0.950 . S
C519 C517 1.327 . S
C520 C508 1.349 . S
C520 H514 0.950 . S
C520 C521 1.327 . S
C521 H515 0.950 . S
C521 C520 1.327 . S
C521 C525 1.429 . S
C522 C505 1.574 . S
C522 H516 0.949 . S
C522 C526 1.368 . S
C523 C504 1.429 . S
C523 C517 1.429 . S
C523 C524 1.523 . S
C524 C505 1.368 . S
C524 C518 1.368 . S
C524 C523 1.523 . S
C525 C509 1.429 . S
C525 C521 1.429 . S
C525 C526 1.523 . S
C526 C510 1.368 . S
C526 C522 1.368 . S
C526 C525 1.523 . S
H527 C502 0.950 . S
H528 C504 0.950 . S
H529 C505 0.949 . S
H530 C507 0.950 . S
H531 C509 0.950 . S
C532 C533 1.349 . S
C532 C534 1.327 . S
C532 H557 0.950 . S
C533 C532 1.349 . S
C533 C549 1.349 . S
C534 C532 1.327 . S
C534 C553 1.429 . S
C534 H558 0.950 . S
C535 C552 1.574 . S
C535 C554 1.368 . S
C535 H559 0.949 . S
H536 C540 0.949 . S
C537 C538 1.349 . S
C537 C539 1.327 . S
C537 H560 0.950 . S
C538 C537 1.349 . S
C538 C550 1.349 . S
C539 C537 1.327 . S
C539 C555 1.429 . S
C539 H561 0.950 . S
C540 H536 0.949 . S
C540 C548 1.574 . S
C540 C556 1.368 . S
H541 C549 0.950 . S
H542 C547 0.950 . S
H543 C548 0.949 . S
H544 C550 0.950 . S
H545 C551 0.950 . S
H546 C552 0.949 . S
C547 H542 0.950 . S
C547 C549 1.327 . S
C547 C553 1.429 . S
C548 C540 1.574 . S
C548 H543 0.949 . S
C548 C554 1.368 . S
C549 C533 1.349 . S
C549 H541 0.950 . S
C549 C547 1.327 . S
C550 C538 1.349 . S
C550 H544 0.950 . S
C550 C551 1.327 . S
C551 H545 0.950 . S
C551 C550 1.327 . S
C551 C555 1.429 . S
C552 C535 1.574 . S
C552 H546 0.949 . S
C552 C556 1.368 . S
C553 C534 1.429 . S
C553 C547 1.429 . S
C553 C554 1.523 . S
C554 C535 1.368 . S
C554 C548 1.368 . S
C554 C553 1.523 . S
C555 C539 1.429 . S
C555 C551 1.429 . S
C555 C556 1.523 . S
C556 C540 1.368 . S
C556 C552 1.368 . S
C556 C555 1.523 . S
H557 C532 0.950 . S
H558 C534 0.950 . S
H559 C535 0.949 . S
H560 C537 0.950 . S
H561 C539 0.950 . S
C562 C563 1.349 . S
C562 C564 1.327 . S
C562 H587 0.950 . S
C563 C562 1.349 . S
C563 C579 1.349 . S
C564 C562 1.327 . S
C564 C583 1.429 . S
C564 H588 0.950 . S
C565 C582 1.574 . S
C565 C584 1.368 . S
C565 H589 0.949 . S
H566 C570 0.949 . S
C567 C568 1.349 . S
C567 C569 1.327 . S
C567 H590 0.950 . S
C568 C567 1.349 . S
C568 C580 1.349 . S
C569 C567 1.327 . S
C569 C585 1.429 . S
C569 H591 0.950 . S
C570 H566 0.949 . S
C570 C578 1.574 . S
C570 C586 1.368 . S
H571 C579 0.950 . S
H572 C577 0.950 . S
H573 C578 0.949 . S
H574 C580 0.950 . S
H575 C581 0.950 . S
H576 C582 0.949 . S
C577 H572 0.950 . S
C577 C579 1.327 . S
C577 C583 1.429 . S
C578 C570 1.574 . S
C578 H573 0.949 . S
C578 C584 1.368 . S
C579 C563 1.349 . S
C579 H571 0.950 . S
C579 C577 1.327 . S
C580 C568 1.349 . S
C580 H574 0.950 . S
C580 C581 1.327 . S
C581 H575 0.950 . S
C581 C580 1.327 . S
C581 C585 1.429 . S
C582 C565 1.574 . S
C582 H576 0.949 . S
C582 C586 1.368 . S
C583 C564 1.429 . S
C583 C577 1.429 . S
C583 C584 1.523 . S
C584 C565 1.368 . S
C584 C578 1.368 . S
C584 C583 1.523 . S
C585 C569 1.429 . S
C585 C581 1.429 . S
C585 C586 1.523 . S
C586 C570 1.368 . S
C586 C582 1.368 . S
C586 C585 1.523 . S
H587 C562 0.950 . S
H588 C564 0.950 . S
H589 C565 0.949 . S
H590 C567 0.950 . S
H591 C569 0.950 . S
C592 C593 1.349 . S
C592 C594 1.327 . S
C592 H617 0.950 . S
C593 C592 1.349 . S
C593 C609 1.349 . S
C594 C592 1.327 . S
C594 C613 1.429 . S
C594 H618 0.950 . S
C595 C612 1.574 . S
C595 C614 1.368 . S
C595 H619 0.949 . S
H596 C600 0.949 . S
C597 C598 1.349 . S
C597 C599 1.327 . S
C597 H620 0.950 . S
C598 C597 1.349 . S
C598 C610 1.349 . S
C599 C597 1.327 . S
C599 C615 1.429 . S
C599 H621 0.950 . S
C600 H596 0.949 . S
C600 C608 1.574 . S
C600 C616 1.368 . S
H601 C609 0.950 . S
H602 C607 0.950 . S
H603 C608 0.949 . S
H604 C610 0.950 . S
H605 C611 0.950 . S
H606 C612 0.949 . S
C607 H602 0.950 . S
C607 C609 1.327 . S
C607 C613 1.429 . S
C608 C600 1.574 . S
C608 H603 0.949 . S
C608 C614 1.368 . S
C609 C593 1.349 . S
C609 H601 0.950 . S
C609 C607 1.327 . S
C610 C598 1.349 . S
C610 H604 0.950 . S
C610 C611 1.327 . S
C611 H605 0.950 . S
C611 C610 1.327 . S
C611 C615 1.429 . S
C612 C595 1.574 . S
C612 H606 0.949 . S
C612 C616 1.368 . S
C613 C594 1.429 . S
C613 C607 1.429 . S
C613 C614 1.523 . S
C614 C595 1.368 . S
C614 C608 1.368 . S
C614 C613 1.523 . S
C615 C599 1.429 . S
C615 C611 1.429 . S
C615 C616 1.523 . S
C616 C600 1.368 . S
C616 C612 1.368 . S
C616 C615 1.523 . S
H617 C592 0.950 . S
H618 C594 0.950 . S
H619 C595 0.949 . S
H620 C597 0.950 . S
H621 C599 0.950 . S
C622 C623 1.349 . S
C622 C624 1.327 . S
C622 H647 0.950 . S
C623 C622 1.349 . S
C623 C639 1.349 . S
C624 C622 1.327 . S
C624 C643 1.429 . S
C624 H648 0.950 . S
C625 C642 1.574 . S
C625 C644 1.368 . S
C625 H649 0.949 . S
H626 C630 0.949 . S
C627 C628 1.349 . S
C627 C629 1.327 . S
C627 H650 0.950 . S
C628 C627 1.349 . S
C628 C640 1.349 . S
C629 C627 1.327 . S
C629 C645 1.429 . S
C629 H651 0.950 . S
C630 H626 0.949 . S
C630 C638 1.574 . S
C630 C646 1.368 . S
H631 C639 0.950 . S
H632 C637 0.950 . S
H633 C638 0.949 . S
H634 C640 0.950 . S
H635 C641 0.950 . S
H636 C642 0.949 . S
C637 H632 0.950 . S
C637 C639 1.327 . S
C637 C643 1.429 . S
C638 C630 1.574 . S
C638 H633 0.949 . S
C638 C644 1.368 . S
C639 C623 1.349 . S
C639 H631 0.950 . S
C639 C637 1.327 . S
C640 C628 1.349 . S
C640 H634 0.950 . S
C640 C641 1.327 . S
C641 H635 0.950 . S
C641 C640 1.327 . S
C641 C645 1.429 . S
C642 C625 1.574 . S
C642 H636 0.949 . S
C642 C646 1.368 . S
C643 C624 1.429 . S
C643 C637 1.429 . S
C643 C644 1.523 . S
C644 C625 1.368 . S
C644 C638 1.368 . S
C644 C643 1.523 . S
C645 C629 1.429 . S
C645 C641 1.429 . S
C645 C646 1.523 . S
C646 C630 1.368 . S
C646 C642 1.368 . S
C646 C645 1.523 . S
H647 C622 0.950 . S
H648 C624 0.950 . S
H649 C625 0.949 . S
H650 C627 0.950 . S
H651 C629 0.950 . S
C652 C653 1.349 . S
C652 C654 1.327 . S
C652 H677 0.950 . S
C653 C652 1.349 . S
C653 C669 1.349 . S
C654 C652 1.327 . S
C654 C673 1.429 . S
C654 H678 0.950 . S
C655 C672 1.574 . S
C655 C674 1.368 . S
C655 H679 0.949 . S
H656 C660 0.949 . S
C657 C658 1.349 . S
C657 C659 1.327 . S
C657 H680 0.950 . S
C658 C657 1.349 . S
C658 C670 1.349 . S
C659 C657 1.327 . S
C659 C675 1.429 . S
C659 H681 0.950 . S
C660 H656 0.949 . S
C660 C668 1.574 . S
C660 C676 1.368 . S
H661 C669 0.950 . S
H662 C667 0.950 . S
H663 C668 0.949 . S
H664 C670 0.950 . S
H665 C671 0.950 . S
H666 C672 0.949 . S
C667 H662 0.950 . S
C667 C669 1.327 . S
C667 C673 1.429 . S
C668 C660 1.574 . S
C668 H663 0.949 . S
C668 C674 1.368 . S
C669 C653 1.349 . S
C669 H661 0.950 . S
C669 C667 1.327 . S
C670 C658 1.349 . S
C670 H664 0.950 . S
C670 C671 1.327 . S
C671 H665 0.950 . S
C671 C670 1.327 . S
C671 C675 1.429 . S
C672 C655 1.574 . S
C672 H666 0.949 . S
C672 C676 1.368 . S
C673 C654 1.429 . S
C673 C667 1.429 . S
C673 C674 1.523 . S
C674 C655 1.368 . S
C674 C668 1.368 . S
C674 C673 1.523 . S
C675 C659 1.429 . S
C675 C671 1.429 . S
C675 C676 1.523 . S
C676 C660 1.368 . S
C676 C672 1.368 . S
C676 C675 1.523 . S
H677 C652 0.950 . S
H678 C654 0.950 . S
H679 C655 0.949 . S
H680 C657 0.950 . S
H681 C659 0.950 . S
C682 C683 1.349 . S
C682 C684 1.327 . S
C682 H707 0.950 . S
C683 C682 1.349 . S
C683 C699 1.349 . S
C684 C682 1.327 . S
C684 C703 1.429 . S
C684 H708 0.950 . S
C685 C702 1.574 . S
C685 C704 1.368 . S
C685 H709 0.949 . S
H686 C690 0.949 . S
C687 C688 1.349 . S
C687 C689 1.327 . S
C687 H710 0.950 . S
C688 C687 1.349 . S
C688 C700 1.349 . S
C689 C687 1.327 . S
C689 C705 1.429 . S
C689 H711 0.950 . S
C690 H686 0.949 . S
C690 C698 1.574 . S
C690 C706 1.368 . S
H691 C699 0.950 . S
H692 C697 0.950 . S
H693 C698 0.949 . S
H694 C700 0.950 . S
H695 C701 0.950 . S
H696 C702 0.949 . S
C697 H692 0.950 . S
C697 C699 1.327 . S
C697 C703 1.429 . S
C698 C690 1.574 . S
C698 H693 0.949 . S
C698 C704 1.368 . S
C699 C683 1.349 . S
C699 H691 0.950 . S
C699 C697 1.327 . S
C700 C688 1.349 . S
C700 H694 0.950 . S
C700 C701 1.327 . S
C701 H695 0.950 . S
C701 C700 1.327 . S
C701 C705 1.429 . S
C702 C685 1.574 . S
C702 H696 0.949 . S
C702 C706 1.368 . S
C703 C684 1.429 . S
C703 C697 1.429 . S
C703 C704 1.523 . S
C704 C685 1.368 . S
C704 C698 1.368 . S
C704 C703 1.523 . S
C705 C689 1.429 . S
C705 C701 1.429 . S
C705 C706 1.523 . S
C706 C690 1.368 . S
C706 C702 1.368 . S
C706 C705 1.523 . S
H707 C682 0.950 . S
H708 C684 0.950 . S
H709 C685 0.949 . S
H710 C687 0.950 . S
H711 C689 0.950 . S
C712 C713 1.349 . S
C712 C714 1.327 . S
C712 H737 0.950 . S
C713 C712 1.349 . S
C713 C729 1.349 . S
C714 C712 1.327 . S
C714 C733 1.429 . S
C714 H738 0.950 . S
C715 C732 1.574 . S
C715 C734 1.368 . S
C715 H739 0.949 . S
H716 C720 0.949 . S
C717 C718 1.349 . S
C717 C719 1.327 . S
C717 H740 0.950 . S
C718 C717 1.349 . S
C718 C730 1.349 . S
C719 C717 1.327 . S
C719 C735 1.429 . S
C719 H741 0.950 . S
C720 H716 0.949 . S
C720 C728 1.574 . S
C720 C736 1.368 . S
H721 C729 0.950 . S
H722 C727 0.950 . S
H723 C728 0.949 . S
H724 C730 0.950 . S
H725 C731 0.950 . S
H726 C732 0.949 . S
C727 H722 0.950 . S
C727 C729 1.327 . S
C727 C733 1.429 . S
C728 C720 1.574 . S
C728 H723 0.949 . S
C728 C734 1.368 . S
C729 C713 1.349 . S
C729 H721 0.950 . S
C729 C727 1.327 . S
C730 C718 1.349 . S
C730 H724 0.950 . S
C730 C731 1.327 . S
C731 H725 0.950 . S
C731 C730 1.327 . S
C731 C735 1.429 . S
C732 C715 1.574 . S
C732 H726 0.949 . S
C732 C736 1.368 . S
C733 C714 1.429 . S
C733 C727 1.429 . S
C733 C734 1.523 . S
C734 C715 1.368 . S
C734 C728 1.368 . S
C734 C733 1.523 . S
C735 C719 1.429 . S
C735 C731 1.429 . S
C735 C736 1.523 . S
C736 C720 1.368 . S
C736 C732 1.368 . S
C736 C735 1.523 . S
H737 C712 0.950 . S
H738 C714 0.950 . S
H739 C715 0.949 . S
H740 C717 0.950 . S
H741 C719 0.950 . S
C742 C743 1.349 . S
C742 C744 1.327 . S
C742 H767 0.950 . S
C743 C742 1.349 . S
C743 C759 1.349 . S
C744 C742 1.327 . S
C744 C763 1.429 . S
C744 H768 0.950 . S
C745 C762 1.574 . S
C745 C764 1.368 . S
C745 H769 0.949 . S
H746 C750 0.949 . S
C747 C748 1.349 . S
C747 C749 1.327 . S
C747 H770 0.950 . S
C748 C747 1.349 . S
C748 C760 1.349 . S
C749 C747 1.327 . S
C749 C765 1.429 . S
C749 H771 0.950 . S
C750 H746 0.949 . S
C750 C758 1.574 . S
C750 C766 1.368 . S
H751 C759 0.950 . S
H752 C757 0.950 . S
H753 C758 0.949 . S
H754 C760 0.950 . S
H755 C761 0.950 . S
H756 C762 0.949 . S
C757 H752 0.950 . S
C757 C759 1.327 . S
C757 C763 1.429 . S
C758 C750 1.574 . S
C758 H753 0.949 . S
C758 C764 1.368 . S
C759 C743 1.349 . S
C759 H751 0.950 . S
C759 C757 1.327 . S
C760 C748 1.349 . S
C760 H754 0.950 . S
C760 C761 1.327 . S
C761 H755 0.950 . S
C761 C760 1.327 . S
C761 C765 1.429 . S
C762 C745 1.574 . S
C762 H756 0.949 . S
C762 C766 1.368 . S
C763 C744 1.429 . S
C763 C757 1.429 . S
C763 C764 1.523 . S
C764 C745 1.368 . S
C764 C758 1.368 . S
C764 C763 1.523 . S
C765 C749 1.429 . S
C765 C761 1.429 . S
C765 C766 1.523 . S
C766 C750 1.368 . S
C766 C762 1.368 . S
C766 C765 1.523 . S
H767 C742 0.950 . S
H768 C744 0.950 . S
H769 C745 0.949 . S
H770 C747 0.950 . S
H771 C749 0.950 . S
C772 C773 1.349 . S
C772 C774 1.327 . S
C772 H797 0.950 . S
C773 C772 1.349 . S
C773 C789 1.349 . S
C774 C772 1.327 . S
C774 C793 1.429 . S
C774 H798 0.950 . S
C775 C792 1.574 . S
C775 C794 1.368 . S
C775 H799 0.949 . S
H776 C780 0.949 . S
C777 C778 1.349 . S
C777 C779 1.327 . S
C777 H800 0.950 . S
C778 C777 1.349 . S
C778 C790 1.349 . S
C779 C777 1.327 . S
C779 C795 1.429 . S
C779 H801 0.950 . S
C780 H776 0.949 . S
C780 C788 1.574 . S
C780 C796 1.368 . S
H781 C789 0.950 . S
H782 C787 0.950 . S
H783 C788 0.949 . S
H784 C790 0.950 . S
H785 C791 0.950 . S
H786 C792 0.949 . S
C787 H782 0.950 . S
C787 C789 1.327 . S
C787 C793 1.429 . S
C788 C780 1.574 . S
C788 H783 0.949 . S
C788 C794 1.368 . S
C789 C773 1.349 . S
C789 H781 0.950 . S
C789 C787 1.327 . S
C790 C778 1.349 . S
C790 H784 0.950 . S
C790 C791 1.327 . S
C791 H785 0.950 . S
C791 C790 1.327 . S
C791 C795 1.429 . S
C792 C775 1.574 . S
C792 H786 0.949 . S
C792 C796 1.368 . S
C793 C774 1.429 . S
C793 C787 1.429 . S
C793 C794 1.523 . S
C794 C775 1.368 . S
C794 C788 1.368 . S
C794 C793 1.523 . S
C795 C779 1.429 . S
C795 C791 1.429 . S
C795 C796 1.523 . S
C796 C780 1.368 . S
C796 C792 1.368 . S
C796 C795 1.523 . S
H797 C772 0.950 . S
H798 C774 0.950 . S
H799 C775 0.949 . S
H800 C777 0.950 . S
H801 C779 0.950 . S
C802 C803 1.349 . S
C802 C804 1.327 . S
C802 H827 0.950 . S
C803 C802 1.349 . S
C803 C819 1.349 . S
C804 C802 1.327 . S
C804 C823 1.429 . S
C804 H828 0.950 . S
C805 C822 1.574 . S
C805 C824 1.368 . S
C805 H829 0.949 . S
H806 C810 0.949 . S
C807 C808 1.349 . S
C807 C809 1.327 . S
C807 H830 0.950 . S
C808 C807 1.349 . S
C808 C820 1.349 . S
C809 C807 1.327 . S
C809 C825 1.429 . S
C809 H831 0.950 . S
C810 H806 0.949 . S
C810 C818 1.574 . S
C810 C826 1.368 . S
H811 C819 0.950 . S
H812 C817 0.950 . S
H813 C818 0.949 . S
H814 C820 0.950 . S
H815 C821 0.950 . S
H816 C822 0.949 . S
C817 H812 0.950 . S
C817 C819 1.327 . S
C817 C823 1.429 . S
C818 C810 1.574 . S
C818 H813 0.949 . S
C818 C824 1.368 . S
C819 C803 1.349 . S
C819 H811 0.950 . S
C819 C817 1.327 . S
C820 C808 1.349 . S
C820 H814 0.950 . S
C820 C821 1.327 . S
C821 H815 0.950 . S
C821 C820 1.327 . S
C821 C825 1.429 . S
C822 C805 1.574 . S
C822 H816 0.949 . S
C822 C826 1.368 . S
C823 C804 1.429 . S
C823 C817 1.429 . S
C823 C824 1.523 . S
C824 C805 1.368 . S
C824 C818 1.368 . S
C824 C823 1.523 . S
C825 C809 1.429 . S
C825 C821 1.429 . S
C825 C826 1.523 . S
C826 C810 1.368 . S
C826 C822 1.368 . S
C826 C825 1.523 . S
H827 C802 0.950 . S
H828 C804 0.950 . S
H829 C805 0.949 . S
H830 C807 0.950 . S
H831 C809 0.950 . S
C832 C833 1.349 . S
C832 C834 1.327 . S
C832 H857 0.950 . S
C833 C832 1.349 . S
C833 C849 1.349 . S
C834 C832 1.327 . S
C834 C853 1.429 . S
C834 H858 0.950 . S
C835 C852 1.574 . S
C835 C854 1.368 . S
C835 H859 0.949 . S
H836 C840 0.949 . S
C837 C838 1.349 . S
C837 C839 1.327 . S
C837 H860 0.950 . S
C838 C837 1.349 . S
C838 C850 1.349 . S
C839 C837 1.327 . S
C839 C855 1.429 . S
C839 H861 0.950 . S
C840 H836 0.949 . S
C840 C848 1.574 . S
C840 C856 1.368 . S
H841 C849 0.950 . S
H842 C847 0.950 . S
H843 C848 0.949 . S
H844 C850 0.950 . S
H845 C851 0.950 . S
H846 C852 0.949 . S
C847 H842 0.950 . S
C847 C849 1.327 . S
C847 C853 1.429 . S
C848 C840 1.574 . S
C848 H843 0.949 . S
C848 C854 1.368 . S
C849 C833 1.349 . S
C849 H841 0.950 . S
C849 C847 1.327 . S
C850 C838 1.349 . S
C850 H844 0.950 . S
C850 C851 1.327 . S
C851 H845 0.950 . S
C851 C850 1.327 . S
C851 C855 1.429 . S
C852 C835 1.574 . S
C852 H846 0.949 . S
C852 C856 1.368 . S
C853 C834 1.429 . S
C853 C847 1.429 . S
C853 C854 1.523 . S
C854 C835 1.368 . S
C854 C848 1.368 . S
C854 C853 1.523 . S
C855 C839 1.429 . S
C855 C851 1.429 . S
C855 C856 1.523 . S
C856 C840 1.368 . S
C856 C852 1.368 . S
C856 C855 1.523 . S
H857 C832 0.950 . S
H858 C834 0.950 . S
H859 C835 0.949 . S
H860 C837 0.950 . S
H861 C839 0.950 . S
C862 C863 1.349 . S
C862 C864 1.327 . S
C862 H887 0.950 . S
C863 C862 1.349 . S
C863 C879 1.349 . S
C864 C862 1.327 . S
C864 C883 1.429 . S
C864 H888 0.950 . S
C865 C882 1.574 . S
C865 C884 1.368 . S
C865 H889 0.949 . S
H866 C870 0.949 . S
C867 C868 1.349 . S
C867 C869 1.327 . S
C867 H890 0.950 . S
C868 C867 1.349 . S
C868 C880 1.349 . S
C869 C867 1.327 . S
C869 C885 1.429 . S
C869 H891 0.950 . S
C870 H866 0.949 . S
C870 C878 1.574 . S
C870 C886 1.368 . S
H871 C879 0.950 . S
H872 C877 0.950 . S
H873 C878 0.949 . S
H874 C880 0.950 . S
H875 C881 0.950 . S
H876 C882 0.949 . S
C877 H872 0.950 . S
C877 C879 1.327 . S
C877 C883 1.429 . S
C878 C870 1.574 . S
C878 H873 0.949 . S
C878 C884 1.368 . S
C879 C863 1.349 . S
C879 H871 0.950 . S
C879 C877 1.327 . S
C880 C868 1.349 . S
C880 H874 0.950 . S
C880 C881 1.327 . S
C881 H875 0.950 . S
C881 C880 1.327 . S
C881 C885 1.429 . S
C882 C865 1.574 . S
C882 H876 0.949 . S
C882 C886 1.368 . S
C883 C864 1.429 . S
C883 C877 1.429 . S
C883 C884 1.523 . S
C884 C865 1.368 . S
C884 C878 1.368 . S
C884 C883 1.523 . S
C885 C869 1.429 . S
C885 C881 1.429 . S
C885 C886 1.523 . S
C886 C870 1.368 . S
C886 C882 1.368 . S
C886 C885 1.523 . S
H887 C862 0.950 . S
H888 C864 0.950 . S
H889 C865 0.949 . S
H890 C867 0.950 . S
H891 C869 0.950 . S
C892 C893 1.349 . S
C892 C894 1.327 . S
C892 H917 0.950 . S
C893 C892 1.349 . S
C893 C909 1.349 . S
C894 C892 1.327 . S
C894 C913 1.429 . S
C894 H918 0.950 . S
C895 C912 1.574 . S
C895 C914 1.368 . S
C895 H919 0.949 . S
H896 C900 0.949 . S
C897 C898 1.349 . S
C897 C899 1.327 . S
C897 H920 0.950 . S
C898 C897 1.349 . S
C898 C910 1.349 . S
C899 C897 1.327 . S
C899 C915 1.429 . S
C899 H921 0.950 . S
C900 H896 0.949 . S
C900 C908 1.574 . S
C900 C916 1.368 . S
H901 C909 0.950 . S
H902 C907 0.950 . S
H903 C908 0.949 . S
H904 C910 0.950 . S
H905 C911 0.950 . S
H906 C912 0.949 . S
C907 H902 0.950 . S
C907 C909 1.327 . S
C907 C913 1.429 . S
C908 C900 1.574 . S
C908 H903 0.949 . S
C908 C914 1.368 . S
C909 C893 1.349 . S
C909 H901 0.950 . S
C909 C907 1.327 . S
C910 C898 1.349 . S
C910 H904 0.950 . S
C910 C911 1.327 . S
C911 H905 0.950 . S
C911 C910 1.327 . S
C911 C915 1.429 . S
C912 C895 1.574 . S
C912 H906 0.949 . S
C912 C916 1.368 . S
C913 C894 1.429 . S
C913 C907 1.429 . S
C913 C914 1.523 . S
C914 C895 1.368 . S
C914 C908 1.368 . S
C914 C913 1.523 . S
C915 C899 1.429 . S
C915 C911 1.429 . S
C915 C916 1.523 . S
C916 C900 1.368 . S
C916 C912 1.368 . S
C916 C915 1.523 . S
H917 C892 0.950 . S
H918 C894 0.950 . S
H919 C895 0.949 . S
H920 C897 0.950 . S
H921 C899 0.950 . S
C922 C923 1.349 . S
C922 C924 1.327 . S
C922 H947 0.950 . S
C923 C922 1.349 . S
C923 C939 1.349 . S
C924 C922 1.327 . S
C924 C943 1.429 . S
C924 H948 0.950 . S
C925 C942 1.574 . S
C925 C944 1.368 . S
C925 H949 0.949 . S
H926 C930 0.949 . S
C927 C928 1.349 . S
C927 C929 1.327 . S
C927 H950 0.950 . S
C928 C927 1.349 . S
C928 C940 1.349 . S
C929 C927 1.327 . S
C929 C945 1.429 . S
C929 H951 0.950 . S
C930 H926 0.949 . S
C930 C938 1.574 . S
C930 C946 1.368 . S
H931 C939 0.950 . S
H932 C937 0.950 . S
H933 C938 0.949 . S
H934 C940 0.950 . S
H935 C941 0.950 . S
H936 C942 0.949 . S
C937 H932 0.950 . S
C937 C939 1.327 . S
C937 C943 1.429 . S
C938 C930 1.574 . S
C938 H933 0.949 . S
C938 C944 1.368 . S
C939 C923 1.349 . S
C939 H931 0.950 . S
C939 C937 1.327 . S
C940 C928 1.349 . S
C940 H934 0.950 . S
C940 C941 1.327 . S
C941 H935 0.950 . S
C941 C940 1.327 . S
C941 C945 1.429 . S
C942 C925 1.574 . S
C942 H936 0.949 . S
C942 C946 1.368 . S
C943 C924 1.429 . S
C943 C937 1.429 . S
C943 C944 1.523 . S
C944 C925 1.368 . S
C944 C938 1.368 . S
C944 C943 1.523 . S
C945 C929 1.429 . S
C945 C941 1.429 . S
C945 C946 1.523 . S
C946 C930 1.368 . S
C946 C942 1.368 . S
C946 C945 1.523 . S
H947 C922 0.950 . S
H948 C924 0.950 . S
H949 C925 0.949 . S
H950 C927 0.950 . S
H951 C929 0.950 . S
C952 C953 1.349 . S
C952 C954 1.327 . S
C952 H977 0.950 . S
C953 C952 1.349 . S
C953 C969 1.349 . S
C954 C952 1.327 . S
C954 C973 1.429 . S
C954 H978 0.950 . S
C955 C972 1.574 . S
C955 C974 1.368 . S
C955 H979 0.949 . S
H956 C960 0.949 . S
C957 C958 1.349 . S
C957 C959 1.327 . S
C957 H980 0.950 . S
C958 C957 1.349 . S
C958 C970 1.349 . S
C959 C957 1.327 . S
C959 C975 1.429 . S
C959 H981 0.950 . S
C960 H956 0.949 . S
C960 C968 1.574 . S
C960 C976 1.368 . S
H961 C969 0.950 . S
H962 C967 0.950 . S
H963 C968 0.949 . S
H964 C970 0.950 . S
H965 C971 0.950 . S
H966 C972 0.949 . S
C967 H962 0.950 . S
C967 C969 1.327 . S
C967 C973 1.429 . S
C968 C960 1.574 . S
C968 H963 0.949 . S
C968 C974 1.368 . S
C969 C953 1.349 . S
C969 H961 0.950 . S
C969 C967 1.327 . S
C970 C958 1.349 . S
C970 H964 0.950 . S
C970 C971 1.327 . S
C971 H965 0.950 . S
C971 C970 1.327 . S
C971 C975 1.429 . S
C972 C955 1.574 . S
C972 H966 0.949 . S
C972 C976 1.368 . S
C973 C954 1.429 . S
C973 C967 1.429 . S
C973 C974 1.523 . S
C974 C955 1.368 . S
C974 C968 1.368 . S
C974 C973 1.523 . S
C975 C959 1.429 . S
C975 C971 1.429 . S
C975 C976 1.523 . S
C976 C960 1.368 . S
C976 C972 1.368 . S
C976 C975 1.523 . S
H977 C952 0.950 . S
H978 C954 0.950 . S
H979 C955 0.949 . S
H980 C957 0.950 . S
H981 C959 0.950 . S
C982 C983 1.349 . S
C982 C984 1.327 . S
C982 H1007 0.950 . S
C983 C982 1.349 . S
C983 C999 1.349 . S
C984 C982 1.327 . S
C984 C1003 1.429 . S
C984 H1008 0.950 . S
C985 C1002 1.574 . S
C985 C1004 1.368 . S
C985 H1009 0.949 . S
H986 C990 0.949 . S
C987 C988 1.349 . S
C987 C989 1.327 . S
C987 H1010 0.950 . S
C988 C987 1.349 . S
C988 C1000 1.349 . S
C989 C987 1.327 . S
C989 C1005 1.429 . S
C989 H1011 0.950 . S
C990 H986 0.949 . S
C990 C998 1.574 . S
C990 C1006 1.368 . S
H991 C999 0.950 . S
H992 C997 0.950 . S
H993 C998 0.949 . S
H994 C1000 0.950 . S
H995 C1001 0.950 . S
H996 C1002 0.949 . S
C997 H992 0.950 . S
C997 C999 1.327 . S
C997 C1003 1.429 . S
C998 C990 1.574 . S
C998 H993 0.949 . S
C998 C1004 1.368 . S
C999 C983 1.349 . S
C999 H991 0.950 . S
C999 C997 1.327 . S
C1000 C988 1.349 . S
C1000 H994 0.950 . S
C1000 C1001 1.327 . S
C1001 H995 0.950 . S
C1001 C1000 1.327 . S
C1001 C1005 1.429 . S
C1002 C985 1.574 . S
C1002 H996 0.949 . S
C1002 C1006 1.368 . S
C1003 C984 1.429 . S
C1003 C997 1.429 . S
C1003 C1004 1.523 . S
C1004 C985 1.368 . S
C1004 C998 1.368 . S
C1004 C1003 1.523 . S
C1005 C989 1.429 . S
C1005 C1001 1.429 . S
C1005 C1006 1.523 . S
C1006 C990 1.368 . S
C1006 C1002 1.368 . S
C1006 C1005 1.523 . S
H1007 C982 0.950 . S
H1008 C984 0.950 . S
H1009 C985 0.949 . S
H1010 C987 0.950 . S
H1011 C989 0.950 . S
C1012 C1013 1.349 . S
C1012 C1014 1.327 . S
C1012 H1037 0.950 . S
C1013 C1012 1.349 . S
C1013 C1029 1.349 . S
C1014 C1012 1.327 . S
C1014 C1033 1.429 . S
C1014 H1038 0.950 . S
C1015 C1032 1.574 . S
C1015 C1034 1.368 . S
C1015 H1039 0.949 . S
H1016 C1020 0.949 . S
C1017 C1018 1.349 . S
C1017 C1019 1.327 . S
C1017 H1040 0.950 . S
C1018 C1017 1.349 . S
C1018 C1030 1.349 . S
C1019 C1017 1.327 . S
C1019 C1035 1.429 . S
C1019 H1041 0.950 . S
C1020 H1016 0.949 . S
C1020 C1028 1.574 . S
C1020 C1036 1.368 . S
H1021 C1029 0.950 . S
H1022 C1027 0.950 . S
H1023 C1028 0.949 . S
H1024 C1030 0.950 . S
H1025 C1031 0.950 . S
H1026 C1032 0.949 . S
C1027 H1022 0.950 . S
C1027 C1029 1.327 . S
C1027 C1033 1.429 . S
C1028 C1020 1.574 . S
C1028 H1023 0.949 . S
C1028 C1034 1.368 . S
C1029 C1013 1.349 . S
C1029 H1021 0.950 . S
C1029 C1027 1.327 . S
C1030 C1018 1.349 . S
C1030 H1024 0.950 . S
C1030 C1031 1.327 . S
C1031 H1025 0.950 . S
C1031 C1030 1.327 . S
C1031 C1035 1.429 . S
C1032 C1015 1.574 . S
C1032 H1026 0.949 . S
C1032 C1036 1.368 . S
C1033 C1014 1.429 . S
C1033 C1027 1.429 . S
C1033 C1034 1.523 . S
C1034 C1015 1.368 . S
C1034 C1028 1.368 . S
C1034 C1033 1.523 . S
C1035 C1019 1.429 . S
C1035 C1031 1.429 . S
C1035 C1036 1.523 . S
C1036 C1020 1.368 . S
C1036 C1032 1.368 . S
C1036 C1035 1.523 . S
H1037 C1012 0.950 . S
H1038 C1014 0.950 . S
H1039 C1015 0.949 . S
H1040 C1017 0.950 . S
H1041 C1019 0.950 . S
C1042 C1043 1.349 . S
C1042 C1044 1.327 . S
C1042 H1067 0.950 . S
C1043 C1042 1.349 . S
C1043 C1059 1.349 . S
C1044 C1042 1.327 . S
C1044 C1063 1.429 . S
C1044 H1068 0.950 . S
C1045 C1062 1.574 . S
C1045 C1064 1.368 . S
C1045 H1069 0.949 . S
H1046 C1050 0.949 . S
C1047 C1048 1.349 . S
C1047 C1049 1.327 . S
C1047 H1070 0.950 . S
C1048 C1047 1.349 . S
C1048 C1060 1.349 . S
C1049 C1047 1.327 . S
C1049 C1065 1.429 . S
C1049 H1071 0.950 . S
C1050 H1046 0.949 . S
C1050 C1058 1.574 . S
C1050 C1066 1.368 . S
H1051 C1059 0.950 . S
H1052 C1057 0.950 . S
H1053 C1058 0.949 . S
H1054 C1060 0.950 . S
H1055 C1061 0.950 . S
H1056 C1062 0.949 . S
C1057 H1052 0.950 . S
C1057 C1059 1.327 . S
C1057 C1063 1.429 . S
C1058 C1050 1.574 . S
C1058 H1053 0.949 . S
C1058 C1064 1.368 . S
C1059 C1043 1.349 . S
C1059 H1051 0.950 . S
C1059 C1057 1.327 . S
C1060 C1048 1.349 . S
C1060 H1054 0.950 . S
C1060 C1061 1.327 . S
C1061 H1055 0.950 . S
C1061 C1060 1.327 . S
C1061 C1065 1.429 . S
C1062 C1045 1.574 . S
C1062 H1056 0.949 . S
C1062 C1066 1.368 . S
C1063 C1044 1.429 . S
C1063 C1057 1.429 . S
C1063 C1064 1.523 . S
C1064 C1045 1.368 . S
C1064 C1058 1.368 . S
C1064 C1063 1.523 . S
C1065 C1049 1.429 . S
C1065 C1061 1.429 . S
C1065 C1066 1.523 . S
C1066 C1050 1.368 . S
C1066 C1062 1.368 . S
C1066 C1065 1.523 . S
H1067 C1042 0.950 . S
H1068 C1044 0.950 . S
H1069 C1045 0.949 . S
H1070 C1047 0.950 . S
H1071 C1049 0.950 . S
C1072 C1073 1.349 . S
C1072 C1074 1.327 . S
C1072 H1097 0.950 . S
C1073 C1072 1.349 . S
C1073 C1089 1.349 . S
C1074 C1072 1.327 . S
C1074 C1093 1.429 . S
C1074 H1098 0.950 . S
C1075 C1092 1.574 . S
C1075 C1094 1.368 . S
C1075 H1099 0.949 . S
H1076 C1080 0.949 . S
C1077 C1078 1.349 . S
C1077 C1079 1.327 . S
C1077 H1100 0.950 . S
C1078 C1077 1.349 . S
C1078 C1090 1.349 . S
C1079 C1077 1.327 . S
C1079 C1095 1.429 . S
C1079 H1101 0.950 . S
C1080 H1076 0.949 . S
C1080 C1088 1.574 . S
C1080 C1096 1.368 . S
H1081 C1089 0.950 . S
H1082 C1087 0.950 . S
H1083 C1088 0.949 . S
H1084 C1090 0.950 . S
H1085 C1091 0.950 . S
H1086 C1092 0.949 . S
C1087 H1082 0.950 . S
C1087 C1089 1.327 . S
C1087 C1093 1.429 . S
C1088 C1080 1.574 . S
C1088 H1083 0.949 . S
C1088 C1094 1.368 . S
C1089 C1073 1.349 . S
C1089 H1081 0.950 . S
C1089 C1087 1.327 . S
C1090 C1078 1.349 . S
C1090 H1084 0.950 . S
C1090 C1091 1.327 . S
C1091 H1085 0.950 . S
C1091 C1090 1.327 . S
C1091 C1095 1.429 . S
C1092 C1075 1.574 . S
C1092 H1086 0.949 . S
C1092 C1096 1.368 . S
C1093 C1074 1.429 . S
C1093 C1087 1.429 . S
C1093 C1094 1.523 . S
C1094 C1075 1.368 . S
C1094 C1088 1.368 . S
C1094 C1093 1.523 . S
C1095 C1079 1.429 . S
C1095 C1091 1.429 . S
C1095 C1096 1.523 . S
C1096 C1080 1.368 . S
C1096 C1092 1.368 . S
C1096 C1095 1.523 . S
H1097 C1072 0.950 . S
H1098 C1074 0.950 . S
H1099 C1075 0.949 . S
H1100 C1077 0.950 . S
H1101 C1079 0.950 . S
C1102 C1103 1.349 . S
C1102 C1104 1.327 . S
C1102 H1127 0.950 . S
C1103 C1102 1.349 . S
C1103 C1119 1.349 . S
C1104 C1102 1.327 . S
C1104 C1123 1.429 . S
C1104 H1128 0.950 . S
C1105 C1122 1.574 . S
C1105 C1124 1.368 . S
C1105 H1129 0.949 . S
H1106 C1110 0.949 . S
C1107 C1108 1.349 . S
C1107 C1109 1.327 . S
C1107 H1130 0.950 . S
C1108 C1107 1.349 . S
C1108 C1120 1.349 . S
C1109 C1107 1.327 . S
C1109 C1125 1.429 . S
C1109 H1131 0.950 . S
C1110 H1106 0.949 . S
C1110 C1118 1.574 . S
C1110 C1126 1.368 . S
H1111 C1119 0.950 . S
H1112 C1117 0.950 . S
H1113 C1118 0.949 . S
H1114 C1120 0.950 . S
H1115 C1121 0.950 . S
H1116 C1122 0.949 . S
C1117 H1112 0.950 . S
C1117 C1119 1.327 . S
C1117 C1123 1.429 . S
C1118 C1110 1.574 . S
C1118 H1113 0.949 . S
C1118 C1124 1.368 . S
C1119 C1103 1.349 . S
C1119 H1111 0.950 . S
C1119 C1117 1.327 . S
C1120 C1108 1.349 . S
C1120 H1114 0.950 . S
C1120 C1121 1.327 . S
C1121 H1115 0.950 . S
C1121 C1120 1.327 . S
C1121 C1125 1.429 . S
C1122 C1105 1.574 . S
C1122 H1116 0.949 . S
C1122 C1126 1.368 . S
C1123 C1104 1.429 . S
C1123 C1117 1.429 . S
C1123 C1124 1.523 . S
C1124 C1105 1.368 . S
C1124 C1118 1.368 . S
C1124 C1123 1.523 . S
C1125 C1109 1.429 . S
C1125 C1121 1.429 . S
C1125 C1126 1.523 . S
C1126 C1110 1.368 . S
C1126 C1122 1.368 . S
C1126 C1125 1.523 . S
H1127 C1102 0.950 . S
H1128 C1104 0.950 . S
H1129 C1105 0.949 . S
H1130 C1107 0.950 . S
H1131 C1109 0.950 . S
C1132 C1133 1.349 . S
C1132 C1134 1.327 . S
C1132 H1157 0.950 . S
C1133 C1132 1.349 . S
C1133 C1149 1.349 . S
C1134 C1132 1.327 . S
C1134 C1153 1.429 . S
C1134 H1158 0.950 . S
C1135 C1152 1.574 . S
C1135 C1154 1.368 . S
C1135 H1159 0.949 . S
H1136 C1140 0.949 . S
C1137 C1138 1.349 . S
C1137 C1139 1.327 . S
C1137 H1160 0.950 . S
C1138 C1137 1.349 . S
C1138 C1150 1.349 . S
C1139 C1137 1.327 . S
C1139 C1155 1.429 . S
C1139 H1161 0.950 . S
C1140 H1136 0.949 . S
C1140 C1148 1.574 . S
C1140 C1156 1.368 . S
H1141 C1149 0.950 . S
H1142 C1147 0.950 . S
H1143 C1148 0.949 . S
H1144 C1150 0.950 . S
H1145 C1151 0.950 . S
H1146 C1152 0.949 . S
C1147 H1142 0.950 . S
C1147 C1149 1.327 . S
C1147 C1153 1.429 . S
C1148 C1140 1.574 . S
C1148 H1143 0.949 . S
C1148 C1154 1.368 . S
C1149 C1133 1.349 . S
C1149 H1141 0.950 . S
C1149 C1147 1.327 . S
C1150 C1138 1.349 . S
C1150 H1144 0.950 . S
C1150 C1151 1.327 . S
C1151 H1145 0.950 . S
C1151 C1150 1.327 . S
C1151 C1155 1.429 . S
C1152 C1135 1.574 . S
C1152 H1146 0.949 . S
C1152 C1156 1.368 . S
C1153 C1134 1.429 . S
C1153 C1147 1.429 . S
C1153 C1154 1.523 . S
C1154 C1135 1.368 . S
C1154 C1148 1.368 . S
C1154 C1153 1.523 . S
C1155 C1139 1.429 . S
C1155 C1151 1.429 . S
C1155 C1156 1.523 . S
C1156 C1140 1.368 . S
C1156 C1152 1.368 . S
C1156 C1155 1.523 . S
H1157 C1132 0.950 . S
H1158 C1134 0.950 . S
H1159 C1135 0.949 . S
H1160 C1137 0.950 . S
H1161 C1139 0.950 . S
C1162 C1163 1.349 . S
C1162 C1164 1.327 . S
C1162 H1187 0.950 . S
C1163 C1162 1.349 . S
C1163 C1179 1.349 . S
C1164 C1162 1.327 . S
C1164 C1183 1.429 . S
C1164 H1188 0.950 . S
C1165 C1182 1.574 . S
C1165 C1184 1.368 . S
C1165 H1189 0.949 . S
H1166 C1170 0.949 . S
C1167 C1168 1.349 . S
C1167 C1169 1.327 . S
C1167 H1190 0.950 . S
C1168 C1167 1.349 . S
C1168 C1180 1.349 . S
C1169 C1167 1.327 . S
C1169 C1185 1.429 . S
C1169 H1191 0.950 . S
C1170 H1166 0.949 . S
C1170 C1178 1.574 . S
C1170 C1186 1.368 . S
H1171 C1179 0.950 . S
H1172 C1177 0.950 . S
H1173 C1178 0.949 . S
H1174 C1180 0.950 . S
H1175 C1181 0.950 . S
H1176 C1182 0.949 . S
C1177 H1172 0.950 . S
C1177 C1179 1.327 . S
C1177 C1183 1.429 . S
C1178 C1170 1.574 . S
C1178 H1173 0.949 . S
C1178 C1184 1.368 . S
C1179 C1163 1.349 . S
C1179 H1171 0.950 . S
C1179 C1177 1.327 . S
C1180 C1168 1.349 . S
C1180 H1174 0.950 . S
C1180 C1181 1.327 . S
C1181 H1175 0.950 . S
C1181 C1180 1.327 . S
C1181 C1185 1.429 . S
C1182 C1165 1.574 . S
C1182 H1176 0.949 . S
C1182 C1186 1.368 . S
C1183 C1164 1.429 . S
C1183 C1177 1.429 . S
C1183 C1184 1.523 . S
C1184 C1165 1.368 . S
C1184 C1178 1.368 . S
C1184 C1183 1.523 . S
C1185 C1169 1.429 . S
C1185 C1181 1.429 . S
C1185 C1186 1.523 . S
C1186 C1170 1.368 . S
C1186 C1182 1.368 . S
C1186 C1185 1.523 . S
H1187 C1162 0.950 . S
H1188 C1164 0.950 . S
H1189 C1165 0.949 . S
H1190 C1167 0.950 . S
H1191 C1169 0.950 . S
C1192 C1193 1.349 . S
C1192 C1194 1.327 . S
C1192 H1217 0.950 . S
C1193 C1192 1.349 . S
C1193 C1209 1.349 . S
C1194 C1192 1.327 . S
C1194 C1213 1.429 . S
C1194 H1218 0.950 . S
C1195 C1212 1.574 . S
C1195 C1214 1.368 . S
C1195 H1219 0.949 . S
H1196 C1200 0.949 . S
C1197 C1198 1.349 . S
C1197 C1199 1.327 . S
C1197 H1220 0.950 . S
C1198 C1197 1.349 . S
C1198 C1210 1.349 . S
C1199 C1197 1.327 . S
C1199 C1215 1.429 . S
C1199 H1221 0.950 . S
C1200 H1196 0.949 . S
C1200 C1208 1.574 . S
C1200 C1216 1.368 . S
H1201 C1209 0.950 . S
H1202 C1207 0.950 . S
H1203 C1208 0.949 . S
H1204 C1210 0.950 . S
H1205 C1211 0.950 . S
H1206 C1212 0.949 . S
C1207 H1202 0.950 . S
C1207 C1209 1.327 . S
C1207 C1213 1.429 . S
C1208 C1200 1.574 . S
C1208 H1203 0.949 . S
C1208 C1214 1.368 . S
C1209 C1193 1.349 . S
C1209 H1201 0.950 . S
C1209 C1207 1.327 . S
C1210 C1198 1.349 . S
C1210 H1204 0.950 . S
C1210 C1211 1.327 . S
C1211 H1205 0.950 . S
C1211 C1210 1.327 . S
C1211 C1215 1.429 . S
C1212 C1195 1.574 . S
C1212 H1206 0.949 . S
C1212 C1216 1.368 . S
C1213 C1194 1.429 . S
C1213 C1207 1.429 . S
C1213 C1214 1.523 . S
C1214 C1195 1.368 . S
C1214 C1208 1.368 . S
C1214 C1213 1.523 . S
C1215 C1199 1.429 . S
C1215 C1211 1.429 . S
C1215 C1216 1.523 . S
C1216 C1200 1.368 . S
C1216 C1212 1.368 . S
C1216 C1215 1.523 . S
H1217 C1192 0.950 . S
H1218 C1194 0.950 . S
H1219 C1195 0.949 . S
H1220 C1197 0.950 . S
H1221 C1199 0.950 . S
C1222 C1223 1.349 . S
C1222 C1224 1.327 . S
C1222 H1247 0.950 . S
C1223 C1222 1.349 . S
C1223 C1239 1.349 . S
C1224 C1222 1.327 . S
C1224 C1243 1.429 . S
C1224 H1248 0.950 . S
C1225 C1242 1.574 . S
C1225 C1244 1.368 . S
C1225 H1249 0.949 . S
H1226 C1230 0.949 . S
C1227 C1228 1.349 . S
C1227 C1229 1.327 . S
C1227 H1250 0.950 . S
C1228 C1227 1.349 . S
C1228 C1240 1.349 . S
C1229 C1227 1.327 . S
C1229 C1245 1.429 . S
C1229 H1251 0.950 . S
C1230 H1226 0.949 . S
C1230 C1238 1.574 . S
C1230 C1246 1.368 . S
H1231 C1239 0.950 . S
H1232 C1237 0.950 . S
H1233 C1238 0.949 . S
H1234 C1240 0.950 . S
H1235 C1241 0.950 . S
H1236 C1242 0.949 . S
C1237 H1232 0.950 . S
C1237 C1239 1.327 . S
C1237 C1243 1.429 . S
C1238 C1230 1.574 . S
C1238 H1233 0.949 . S
C1238 C1244 1.368 . S
C1239 C1223 1.349 . S
C1239 H1231 0.950 . S
C1239 C1237 1.327 . S
C1240 C1228 1.349 . S
C1240 H1234 0.950 . S
C1240 C1241 1.327 . S
C1241 H1235 0.950 . S
C1241 C1240 1.327 . S
C1241 C1245 1.429 . S
C1242 C1225 1.574 . S
C1242 H1236 0.949 . S
C1242 C1246 1.368 . S
C1243 C1224 1.429 . S
C1243 C1237 1.429 . S
C1243 C1244 1.523 . S
C1244 C1225 1.368 . S
C1244 C1238 1.368 . S
C1244 C1243 1.523 . S
C1245 C1229 1.429 . S
C1245 C1241 1.429 . S
C1245 C1246 1.523 . S
C1246 C1230 1.368 . S
C1246 C1242 1.368 . S
C1246 C1245 1.523 . S
H1247 C1222 0.950 . S
H1248 C1224 0.950 . S
H1249 C1225 0.949 . S
H1250 C1227 0.950 . S
H1251 C1229 0.950 . S
C1252 C1253 1.349 . S
C1252 C1254 1.327 . S
C1252 H1277 0.950 . S
C1253 C1252 1.349 . S
C1253 C1269 1.349 . S
C1254 C1252 1.327 . S
C1254 C1273 1.429 . S
C1254 H1278 0.950 . S
C1255 C1272 1.574 . S
C1255 C1274 1.368 . S
C1255 H1279 0.949 . S
H1256 C1260 0.949 . S
C1257 C1258 1.349 . S
C1257 C1259 1.327 . S
C1257 H1280 0.950 . S
C1258 C1257 1.349 . S
C1258 C1270 1.349 . S
C1259 C1257 1.327 . S
C1259 C1275 1.429 . S
C1259 H1281 0.950 . S
C1260 H1256 0.949 . S
C1260 C1268 1.574 . S
C1260 C1276 1.368 . S
H1261 C1269 0.950 . S
H1262 C1267 0.950 . S
H1263 C1268 0.949 . S
H1264 C1270 0.950 . S
H1265 C1271 0.950 . S
H1266 C1272 0.949 . S
C1267 H1262 0.950 . S
C1267 C1269 1.327 . S
C1267 C1273 1.429 . S
C1268 C1260 1.574 . S
C1268 H1263 0.949 . S
C1268 C1274 1.368 . S
C1269 C1253 1.349 . S
C1269 H1261 0.950 . S
C1269 C1267 1.327 . S
C1270 C1258 1.349 . S
C1270 H1264 0.950 . S
C1270 C1271 1.327 . S
C1271 H1265 0.950 . S
C1271 C1270 1.327 . S
C1271 C1275 1.429 . S
C1272 C1255 1.574 . S
C1272 H1266 0.949 . S
C1272 C1276 1.368 . S
C1273 C1254 1.429 . S
C1273 C1267 1.429 . S
C1273 C1274 1.523 . S
C1274 C1255 1.368 . S
C1274 C1268 1.368 . S
C1274 C1273 1.523 . S
C1275 C1259 1.429 . S
C1275 C1271 1.429 . S
C1275 C1276 1.523 . S
C1276 C1260 1.368 . S
C1276 C1272 1.368 . S
C1276 C1275 1.523 . S
H1277 C1252 0.950 . S
H1278 C1254 0.950 . S
H1279 C1255 0.949 . S
H1280 C1257 0.950 . S
H1281 C1259 0.950 . S
C1282 C1283 1.349 . S
C1282 C1284 1.327 . S
C1282 H1307 0.950 . S
C1283 C1282 1.349 . S
C1283 C1299 1.349 . S
C1284 C1282 1.327 . S
C1284 C1303 1.429 . S
C1284 H1308 0.950 . S
C1285 C1302 1.574 . S
C1285 C1304 1.368 . S
C1285 H1309 0.949 . S
H1286 C1290 0.949 . S
C1287 C1288 1.349 . S
C1287 C1289 1.327 . S
C1287 H1310 0.950 . S
C1288 C1287 1.349 . S
C1288 C1300 1.349 . S
C1289 C1287 1.327 . S
C1289 C1305 1.429 . S
C1289 H1311 0.950 . S
C1290 H1286 0.949 . S
C1290 C1298 1.574 . S
C1290 C1306 1.368 . S
H1291 C1299 0.950 . S
H1292 C1297 0.950 . S
H1293 C1298 0.949 . S
H1294 C1300 0.950 . S
H1295 C1301 0.950 . S
H1296 C1302 0.949 . S
C1297 H1292 0.950 . S
C1297 C1299 1.327 . S
C1297 C1303 1.429 . S
C1298 C1290 1.574 . S
C1298 H1293 0.949 . S
C1298 C1304 1.368 . S
C1299 C1283 1.349 . S
C1299 H1291 0.950 . S
C1299 C1297 1.327 . S
C1300 C1288 1.349 . S
C1300 H1294 0.950 . S
C1300 C1301 1.327 . S
C1301 H1295 0.950 . S
C1301 C1300 1.327 . S
C1301 C1305 1.429 . S
C1302 C1285 1.574 . S
C1302 H1296 0.949 . S
C1302 C1306 1.368 . S
C1303 C1284 1.429 . S
C1303 C1297 1.429 . S
C1303 C1304 1.523 . S
C1304 C1285 1.368 . S
C1304 C1298 1.368 . S
C1304 C1303 1.523 . S
C1305 C1289 1.429 . S
C1305 C1301 1.429 . S
C1305 C1306 1.523 . S
C1306 C1290 1.368 . S
C1306 C1302 1.368 . S
C1306 C1305 1.523 . S
H1307 C1282 0.950 . S
H1308 C1284 0.950 . S
H1309 C1285 0.949 . S
H1310 C1287 0.950 . S
H1311 C1289 0.950 . S
C1312 C1313 1.349 . S
C1312 C1314 1.327 . S
C1312 H1337 0.950 . S
C1313 C1312 1.349 . S
C1313 C1329 1.349 . S
C1314 C1312 1.327 . S
C1314 C1333 1.429 . S
C1314 H1338 0.950 . S
C1315 C1332 1.574 . S
C1315 C1334 1.368 . S
C1315 H1339 0.949 . S
H1316 C1320 0.949 . S
C1317 C1318 1.349 . S
C1317 C1319 1.327 . S
C1317 H1340 0.950 . S
C1318 C1317 1.349 . S
C1318 C1330 1.349 . S
C1319 C1317 1.327 . S
C1319 C1335 1.429 . S
C1319 H1341 0.950 . S
C1320 H1316 0.949 . S
C1320 C1328 1.574 . S
C1320 C1336 1.368 . S
H1321 C1329 0.950 . S
H1322 C1327 0.950 . S
H1323 C1328 0.949 . S
H1324 C1330 0.950 . S
H1325 C1331 0.950 . S
H1326 C1332 0.949 . S
C1327 H1322 0.950 . S
C1327 C1329 1.327 . S
C1327 C1333 1.429 . S
C1328 C1320 1.574 . S
C1328 H1323 0.949 . S
C1328 C1334 1.368 . S
C1329 C1313 1.349 . S
C1329 H1321 0.950 . S
C1329 C1327 1.327 . S
C1330 C1318 1.349 . S
C1330 H1324 0.950 . S
C1330 C1331 1.327 . S
C1331 H1325 0.950 . S
C1331 C1330 1.327 . S
C1331 C1335 1.429 . S
C1332 C1315 1.574 . S
C1332 H1326 0.949 . S
C1332 C1336 1.368 . S
C1333 C1314 1.429 . S
C1333 C1327 1.429 . S
C1333 C1334 1.523 . S
C1334 C1315 1.368 . S
C1334 C1328 1.368 . S
C1334 C1333 1.523 . S
C1335 C1319 1.429 . S
C1335 C1331 1.429 . S
C1335 C1336 1.523 . S
C1336 C1320 1.368 . S
C1336 C1332 1.368 . S
C1336 C1335 1.523 . S
H1337 C1312 0.950 . S
H1338 C1314 0.950 . S
H1339 C1315 0.949 . S
H1340 C1317 0.950 . S
H1341 C1319 0.950 . S
C1342 C1343 1.349 . S
C1342 C1344 1.327 . S
C1342 H1367 0.950 . S
C1343 C1342 1.349 . S
C1343 C1359 1.349 . S
C1344 C1342 1.327 . S
C1344 C1363 1.429 . S
C1344 H1368 0.950 . S
C1345 C1362 1.574 . S
C1345 C1364 1.368 . S
C1345 H1369 0.949 . S
H1346 C1350 0.949 . S
C1347 C1348 1.349 . S
C1347 C1349 1.327 . S
C1347 H1370 0.950 . S
C1348 C1347 1.349 . S
C1348 C1360 1.349 . S
C1349 C1347 1.327 . S
C1349 C1365 1.429 . S
C1349 H1371 0.950 . S
C1350 H1346 0.949 . S
C1350 C1358 1.574 . S
C1350 C1366 1.368 . S
H1351 C1359 0.950 . S
H1352 C1357 0.950 . S
H1353 C1358 0.949 . S
H1354 C1360 0.950 . S
H1355 C1361 0.950 . S
H1356 C1362 0.949 . S
C1357 H1352 0.950 . S
C1357 C1359 1.327 . S
C1357 C1363 1.429 . S
C1358 C1350 1.574 . S
C1358 H1353 0.949 . S
C1358 C1364 1.368 . S
C1359 C1343 1.349 . S
C1359 H1351 0.950 . S
C1359 C1357 1.327 . S
C1360 C1348 1.349 . S
C1360 H1354 0.950 . S
C1360 C1361 1.327 . S
C1361 H1355 0.950 . S
C1361 C1360 1.327 . S
C1361 C1365 1.429 . S
C1362 C1345 1.574 . S
C1362 H1356 0.949 . S
C1362 C1366 1.368 . S
C1363 C1344 1.429 . S
C1363 C1357 1.429 . S
C1363 C1364 1.523 . S
C1364 C1345 1.368 . S
C1364 C1358 1.368 . S
C1364 C1363 1.523 . S
C1365 C1349 1.429 . S
C1365 C1361 1.429 . S
C1365 C1366 1.523 . S
C1366 C1350 1.368 . S
C1366 C1362 1.368 . S
C1366 C1365 1.523 . S
H1367 C1342 0.950 . S
H1368 C1344 0.950 . S
H1369 C1345 0.949 . S
H1370 C1347 0.950 . S
H1371 C1349 0.950 . S
C1372 C1373 1.349 . S
C1372 C1374 1.327 . S
C1372 H1397 0.950 . S
C1373 C1372 1.349 . S
C1373 C1389 1.349 . S
C1374 C1372 1.327 . S
C1374 C1393 1.429 . S
C1374 H1398 0.950 . S
C1375 C1392 1.574 . S
C1375 C1394 1.368 . S
C1375 H1399 0.949 . S
H1376 C1380 0.949 . S
C1377 C1378 1.349 . S
C1377 C1379 1.327 . S
C1377 H1400 0.950 . S
C1378 C1377 1.349 . S
C1378 C1390 1.349 . S
C1379 C1377 1.327 . S
C1379 C1395 1.429 . S
C1379 H1401 0.950 . S
C1380 H1376 0.949 . S
C1380 C1388 1.574 . S
C1380 C1396 1.368 . S
H1381 C1389 0.950 . S
H1382 C1387 0.950 . S
H1383 C1388 0.949 . S
H1384 C1390 0.950 . S
H1385 C1391 0.950 . S
H1386 C1392 0.949 . S
C1387 H1382 0.950 . S
C1387 C1389 1.327 . S
C1387 C1393 1.429 . S
C1388 C1380 1.574 . S
C1388 H1383 0.949 . S
C1388 C1394 1.368 . S
C1389 C1373 1.349 . S
C1389 H1381 0.950 . S
C1389 C1387 1.327 . S
C1390 C1378 1.349 . S
C1390 H1384 0.950 . S
C1390 C1391 1.327 . S
C1391 H1385 0.950 . S
C1391 C1390 1.327 . S
C1391 C1395 1.429 . S
C1392 C1375 1.574 . S
C1392 H1386 0.949 . S
C1392 C1396 1.368 . S
C1393 C1374 1.429 . S
C1393 C1387 1.429 . S
C1393 C1394 1.523 . S
C1394 C1375 1.368 . S
C1394 C1388 1.368 . S
C1394 C1393 1.523 . S
C1395 C1379 1.429 . S
C1395 C1391 1.429 . S
C1395 C1396 1.523 . S
C1396 C1380 1.368 . S
C1396 C1392 1.368 . S
C1396 C1395 1.523 . S
H1397 C1372 0.950 . S
H1398 C1374 0.950 . S
H1399 C1375 0.949 . S
H1400 C1377 0.950 . S
H1401 C1379 0.950 . S
C1402 C1403 1.349 . S
C1402 C1404 1.327 . S
C1402 H1427 0.950 . S
C1403 C1402 1.349 . S
C1403 C1419 1.349 . S
C1404 C1402 1.327 . S
C1404 C1423 1.429 . S
C1404 H1428 0.950 . S
C1405 C1422 1.574 . S
C1405 C1424 1.368 . S
C1405 H1429 0.949 . S
H1406 C1410 0.949 . S
C1407 C1408 1.349 . S
C1407 C1409 1.327 . S
C1407 H1430 0.950 . S
C1408 C1407 1.349 . S
C1408 C1420 1.349 . S
C1409 C1407 1.327 . S
C1409 C1425 1.429 . S
C1409 H1431 0.950 . S
C1410 H1406 0.949 . S
C1410 C1418 1.574 . S
C1410 C1426 1.368 . S
H1411 C1419 0.950 . S
H1412 C1417 0.950 . S
H1413 C1418 0.949 . S
H1414 C1420 0.950 . S
H1415 C1421 0.950 . S
H1416 C1422 0.949 . S
C1417 H1412 0.950 . S
C1417 C1419 1.327 . S
C1417 C1423 1.429 . S
C1418 C1410 1.574 . S
C1418 H1413 0.949 . S
C1418 C1424 1.368 . S
C1419 C1403 1.349 . S
C1419 H1411 0.950 . S
C1419 C1417 1.327 . S
C1420 C1408 1.349 . S
C1420 H1414 0.950 . S
C1420 C1421 1.327 . S
C1421 H1415 0.950 . S
C1421 C1420 1.327 . S
C1421 C1425 1.429 . S
C1422 C1405 1.574 . S
C1422 H1416 0.949 . S
C1422 C1426 1.368 . S
C1423 C1404 1.429 . S
C1423 C1417 1.429 . S
C1423 C1424 1.523 . S
C1424 C1405 1.368 . S
C1424 C1418 1.368 . S
C1424 C1423 1.523 . S
C1425 C1409 1.429 . S
C1425 C1421 1.429 . S
C1425 C1426 1.523 . S
C1426 C1410 1.368 . S
C1426 C1422 1.368 . S
C1426 C1425 1.523 . S
H1427 C1402 0.950 . S
H1428 C1404 0.950 . S
H1429 C1405 0.949 . S
H1430 C1407 0.950 . S
H1431 C1409 0.950 . S
C1432 C1433 1.349 . S
C1432 C1434 1.327 . S
C1432 H1457 0.950 . S
C1433 C1432 1.349 . S
C1433 C1449 1.349 . S
C1434 C1432 1.327 . S
C1434 C1453 1.429 . S
C1434 H1458 0.950 . S
C1435 C1452 1.574 . S
C1435 C1454 1.368 . S
C1435 H1459 0.949 . S
H1436 C1440 0.949 . S
C1437 C1438 1.349 . S
C1437 C1439 1.327 . S
C1437 H1460 0.950 . S
C1438 C1437 1.349 . S
C1438 C1450 1.349 . S
C1439 C1437 1.327 . S
C1439 C1455 1.429 . S
C1439 H1461 0.950 . S
C1440 H1436 0.949 . S
C1440 C1448 1.574 . S
C1440 C1456 1.368 . S
H1441 C1449 0.950 . S
H1442 C1447 0.950 . S
H1443 C1448 0.949 . S
H1444 C1450 0.950 . S
H1445 C1451 0.950 . S
H1446 C1452 0.949 . S
C1447 H1442 0.950 . S
C1447 C1449 1.327 . S
C1447 C1453 1.429 . S
C1448 C1440 1.574 . S
C1448 H1443 0.949 . S
C1448 C1454 1.368 . S
C1449 C1433 1.349 . S
C1449 H1441 0.950 . S
C1449 C1447 1.327 . S
C1450 C1438 1.349 . S
C1450 H1444 0.950 . S
C1450 C1451 1.327 . S
C1451 H1445 0.950 . S
C1451 C1450 1.327 . S
C1451 C1455 1.429 . S
C1452 C1435 1.574 . S
C1452 H1446 0.949 . S
C1452 C1456 1.368 . S
C1453 C1434 1.429 . S
C1453 C1447 1.429 . S
C1453 C1454 1.523 . S
C1454 C1435 1.368 . S
C1454 C1448 1.368 . S
C1454 C1453 1.523 . S
C1455 C1439 1.429 . S
C1455 C1451 1.429 . S
C1455 C1456 1.523 . S
C1456 C1440 1.368 . S
C1456 C1452 1.368 . S
C1456 C1455 1.523 . S
H1457 C1432 0.950 . S
H1458 C1434 0.950 . S
H1459 C1435 0.949 . S
H1460 C1437 0.950 . S
H1461 C1439 0.950 . S
C1462 C1463 1.349 . S
C1462 C1464 1.327 . S
C1462 H1487 0.950 . S
C1463 C1462 1.349 . S
C1463 C1479 1.349 . S
C1464 C1462 1.327 . S
C1464 C1483 1.429 . S
C1464 H1488 0.950 . S
C1465 C1482 1.574 . S
C1465 C1484 1.368 . S
C1465 H1489 0.949 . S
H1466 C1470 0.949 . S
C1467 C1468 1.349 . S
C1467 C1469 1.327 . S
C1467 H1490 0.950 . S
C1468 C1467 1.349 . S
C1468 C1480 1.349 . S
C1469 C1467 1.327 . S
C1469 C1485 1.429 . S
C1469 H1491 0.950 . S
C1470 H1466 0.949 . S
C1470 C1478 1.574 . S
C1470 C1486 1.368 . S
H1471 C1479 0.950 . S
H1472 C1477 0.950 . S
H1473 C1478 0.949 . S
H1474 C1480 0.950 . S
H1475 C1481 0.950 . S
H1476 C1482 0.949 . S
C1477 H1472 0.950 . S
C1477 C1479 1.327 . S
C1477 C1483 1.429 . S
C1478 C1470 1.574 . S
C1478 H1473 0.949 . S
C1478 C1484 1.368 . S
C1479 C1463 1.349 . S
C1479 H1471 0.950 . S
C1479 C1477 1.327 . S
C1480 C1468 1.349 . S
C1480 H1474 0.950 . S
C1480 C1481 1.327 . S
C1481 H1475 0.950 . S
C1481 C1480 1.327 . S
C1481 C1485 1.429 . S
C1482 C1465 1.574 . S
C1482 H1476 0.949 . S
C1482 C1486 1.368 . S
C1483 C1464 1.429 . S
C1483 C1477 1.429 . S
C1483 C1484 1.523 . S
C1484 C1465 1.368 . S
C1484 C1478 1.368 . S
C1484 C1483 1.523 . S
C1485 C1469 1.429 . S
C1485 C1481 1.429 . S
C1485 C1486 1.523 . S
C1486 C1470 1.368 . S
C1486 C1482 1.368 . S
C1486 C1485 1.523 . S
H1487 C1462 0.950 . S
H1488 C1464 0.950 . S
H1489 C1465 0.949 . S
H1490 C1467 0.950 . S
H1491 C1469 0.950 . S
C1492 C1493 1.349 . S
C1492 C1494 1.327 . S
C1492 H1517 0.950 . S
C1493 C1492 1.349 . S
C1493 C1509 1.349 . S
C1494 C1492 1.327 . S
C1494 C1513 1.429 . S
C1494 H1518 0.950 . S
C1495 C1512 1.574 . S
C1495 C1514 1.368 . S
C1495 H1519 0.949 . S
H1496 C1500 0.949 . S
C1497 C1498 1.349 . S
C1497 C1499 1.327 . S
C1497 H1520 0.950 . S
C1498 C1497 1.349 . S
C1498 C1510 1.349 . S
C1499 C1497 1.327 . S
C1499 C1515 1.429 . S
C1499 H1521 0.950 . S
C1500 H1496 0.949 . S
C1500 C1508 1.574 . S
C1500 C1516 1.368 . S
H1501 C1509 0.950 . S
H1502 C1507 0.950 . S
H1503 C1508 0.949 . S
H1504 C1510 0.950 . S
H1505 C1511 0.950 . S
H1506 C1512 0.949 . S
C1507 H1502 0.950 . S
C1507 C1509 1.327 . S
C1507 C1513 1.429 . S
C1508 C1500 1.574 . S
C1508 H1503 0.949 . S
C1508 C1514 1.368 . S
C1509 C1493 1.349 . S
C1509 H1501 0.950 . S
C1509 C1507 1.327 . S
C1510 C1498 1.349 . S
C1510 H1504 0.950 . S
C1510 C1511 1.327 . S
C1511 H1505 0.950 . S
C1511 C1510 1.327 . S
C1511 C1515 1.429 . S
C1512 C1495 1.574 . S
C1512 H1506 0.949 . S
C1512 C1516 1.368 . S
C1513 C1494 1.429 . S
C1513 C1507 1.429 . S
C1513 C1514 1.523 . S
C1514 C1495 1.368 . S
C1514 C1508 1.368 . S
C1514 C1513 1.523 . S
C1515 C1499 1.429 . S
C1515 C1511 1.429 . S
C1515 C1516 1.523 . S
C1516 C1500 1.368 . S
C1516 C1512 1.368 . S
C1516 C1515 1.523 . S
H1517 C1492 0.950 . S
H1518 C1494 0.950 . S
H1519 C1495 0.949 . S
H1520 C1497 0.950 . S
H1521 C1499 0.950 . S
C1522 C1523 1.349 . S
C1522 C1524 1.327 . S
C1522 H1547 0.950 . S
C1523 C1522 1.349 . S
C1523 C1539 1.349 . S
C1524 C1522 1.327 . S
C1524 C1543 1.429 . S
C1524 H1548 0.950 . S
C1525 C1542 1.574 . S
C1525 C1544 1.368 . S
C1525 H1549 0.949 . S
H1526 C1530 0.949 . S
C1527 C1528 1.349 . S
C1527 C1529 1.327 . S
C1527 H1550 0.950 . S
C1528 C1527 1.349 . S
C1528 C1540 1.349 . S
C1529 C1527 1.327 . S
C1529 C1545 1.429 . S
C1529 H1551 0.950 . S
C1530 H1526 0.949 . S
C1530 C1538 1.574 . S
C1530 C1546 1.368 . S
H1531 C1539 0.950 . S
H1532 C1537 0.950 . S
H1533 C1538 0.949 . S
H1534 C1540 0.950 . S
H1535 C1541 0.950 . S
H1536 C1542 0.949 . S
C1537 H1532 0.950 . S
C1537 C1539 1.327 . S
C1537 C1543 1.429 . S
C1538 C1530 1.574 . S
C1538 H1533 0.949 . S
C1538 C1544 1.368 . S
C1539 C1523 1.349 . S
C1539 H1531 0.950 . S
C1539 C1537 1.327 . S
C1540 C1528 1.349 . S
C1540 H1534 0.950 . S
C1540 C1541 1.327 . S
C1541 H1535 0.950 . S
C1541 C1540 1.327 . S
C1541 C1545 1.429 . S
C1542 C1525 1.574 . S
C1542 H1536 0.949 . S
C1542 C1546 1.368 . S
C1543 C1524 1.429 . S
C1543 C1537 1.429 . S
C1543 C1544 1.523 . S
C1544 C1525 1.368 . S
C1544 C1538 1.368 . S
C1544 C1543 1.523 . S
C1545 C1529 1.429 . S
C1545 C1541 1.429 . S
C1545 C1546 1.523 . S
C1546 C1530 1.368 . S
C1546 C1542 1.368 . S
C1546 C1545 1.523 . S
H1547 C1522 0.950 . S
H1548 C1524 0.950 . S
H1549 C1525 0.949 . S
H1550 C1527 0.950 . S
H1551 C1529 0.950 . S
C1552 C1553 1.349 . S
C1552 C1554 1.327 . S
C1552 H1577 0.950 . S
C1553 C1552 1.349 . S
C1553 C1569 1.349 . S
C1554 C1552 1.327 . S
C1554 C1573 1.429 . S
C1554 H1578 0.950 . S
C1555 C1572 1.574 . S
C1555 C1574 1.368 . S
C1555 H1579 0.949 . S
H1556 C1560 0.949 . S
C1557 C1558 1.349 . S
C1557 C1559 1.327 . S
C1557 H1580 0.950 . S
C1558 C1557 1.349 . S
C1558 C1570 1.349 . S
C1559 C1557 1.327 . S
C1559 C1575 1.429 . S
C1559 H1581 0.950 . S
C1560 H1556 0.949 . S
C1560 C1568 1.574 . S
C1560 C1576 1.368 . S
H1561 C1569 0.950 . S
H1562 C1567 0.950 . S
H1563 C1568 0.949 . S
H1564 C1570 0.950 . S
H1565 C1571 0.950 . S
H1566 C1572 0.949 . S
C1567 H1562 0.950 . S
C1567 C1569 1.327 . S
C1567 C1573 1.429 . S
C1568 C1560 1.574 . S
C1568 H1563 0.949 . S
C1568 C1574 1.368 . S
C1569 C1553 1.349 . S
C1569 H1561 0.950 . S
C1569 C1567 1.327 . S
C1570 C1558 1.349 . S
C1570 H1564 0.950 . S
C1570 C1571 1.327 . S
C1571 H1565 0.950 . S
C1571 C1570 1.327 . S
C1571 C1575 1.429 . S
C1572 C1555 1.574 . S
C1572 H1566 0.949 . S
C1572 C1576 1.368 . S
C1573 C1554 1.429 . S
C1573 C1567 1.429 . S
C1573 C1574 1.523 . S
C1574 C1555 1.368 . S
C1574 C1568 1.368 . S
C1574 C1573 1.523 . S
C1575 C1559 1.429 . S
C1575 C1571 1.429 . S
C1575 C1576 1.523 . S
C1576 C1560 1.368 . S
C1576 C1572 1.368 . S
C1576 C1575 1.523 . S
H1577 C1552 0.950 . S
H1578 C1554 0.950 . S
H1579 C1555 0.949 . S
H1580 C1557 0.950 . S
H1581 C1559 0.950 . S
C1582 C1583 1.349 . S
C1582 C1584 1.327 . S
C1582 H1607 0.950 . S
C1583 C1582 1.349 . S
C1583 C1599 1.349 . S
C1584 C1582 1.327 . S
C1584 C1603 1.429 . S
C1584 H1608 0.950 . S
C1585 C1602 1.574 . S
C1585 C1604 1.368 . S
C1585 H1609 0.949 . S
H1586 C1590 0.949 . S
C1587 C1588 1.349 . S
C1587 C1589 1.327 . S
C1587 H1610 0.950 . S
C1588 C1587 1.349 . S
C1588 C1600 1.349 . S
C1589 C1587 1.327 . S
C1589 C1605 1.429 . S
C1589 H1611 0.950 . S
C1590 H1586 0.949 . S
C1590 C1598 1.574 . S
C1590 C1606 1.368 . S
H1591 C1599 0.950 . S
H1592 C1597 0.950 . S
H1593 C1598 0.949 . S
H1594 C1600 0.950 . S
H1595 C1601 0.950 . S
H1596 C1602 0.949 . S
C1597 H1592 0.950 . S
C1597 C1599 1.327 . S
C1597 C1603 1.429 . S
C1598 C1590 1.574 . S
C1598 H1593 0.949 . S
C1598 C1604 1.368 . S
C1599 C1583 1.349 . S
C1599 H1591 0.950 . S
C1599 C1597 1.327 . S
C1600 C1588 1.349 . S
C1600 H1594 0.950 . S
C1600 C1601 1.327 . S
C1601 H1595 0.950 . S
C1601 C1600 1.327 . S
C1601 C1605 1.429 . S
C1602 C1585 1.574 . S
C1602 H1596 0.949 . S
C1602 C1606 1.368 . S
C1603 C1584 1.429 . S
C1603 C1597 1.429 . S
C1603 C1604 1.523 . S
C1604 C1585 1.368 . S
C1604 C1598 1.368 . S
C1604 C1603 1.523 . S
C1605 C1589 1.429 . S
C1605 C1601 1.429 . S
C1605 C1606 1.523 . S
C1606 C1590 1.368 . S
C1606 C1602 1.368 . S
C1606 C1605 1.523 . S
H1607 C1582 0.950 . S
H1608 C1584 0.950 . S
H1609 C1585 0.949 . S
H1610 C1587 0.950 . S
H1611 C1589 0.950 . S
C1612 C1613 1.349 . S
C1612 C1614 1.327 . S
C1612 H1637 0.950 . S
C1613 C1612 1.349 . S
C1613 C1629 1.349 . S
C1614 C1612 1.327 . S
C1614 C1633 1.429 . S
C1614 H1638 0.950 . S
C1615 C1632 1.574 . S
C1615 C1634 1.368 . S
C1615 H1639 0.949 . S
H1616 C1620 0.949 . S
C1617 C1618 1.349 . S
C1617 C1619 1.327 . S
C1617 H1640 0.950 . S
C1618 C1617 1.349 . S
C1618 C1630 1.349 . S
C1619 C1617 1.327 . S
C1619 C1635 1.429 . S
C1619 H1641 0.950 . S
C1620 H1616 0.949 . S
C1620 C1628 1.574 . S
C1620 C1636 1.368 . S
H1621 C1629 0.950 . S
H1622 C1627 0.950 . S
H1623 C1628 0.949 . S
H1624 C1630 0.950 . S
H1625 C1631 0.950 . S
H1626 C1632 0.949 . S
C1627 H1622 0.950 . S
C1627 C1629 1.327 . S
C1627 C1633 1.429 . S
C1628 C1620 1.574 . S
C1628 H1623 0.949 . S
C1628 C1634 1.368 . S
C1629 C1613 1.349 . S
C1629 H1621 0.950 . S
C1629 C1627 1.327 . S
C1630 C1618 1.349 . S
C1630 H1624 0.950 . S
C1630 C1631 1.327 . S
C1631 H1625 0.950 . S
C1631 C1630 1.327 . S
C1631 C1635 1.429 . S
C1632 C1615 1.574 . S
C1632 H1626 0.949 . S
C1632 C1636 1.368 . S
C1633 C1614 1.429 . S
C1633 C1627 1.429 . S
C1633 C1634 1.523 . S
C1634 C1615 1.368 . S
C1634 C1628 1.368 . S
C1634 C1633 1.523 . S
C1635 C1619 1.429 . S
C1635 C1631 1.429 . S
C1635 C1636 1.523 . S
C1636 C1620 1.368 . S
C1636 C1632 1.368 . S
C1636 C1635 1.523 . S
H1637 C1612 0.950 . S
H1638 C1614 0.950 . S
H1639 C1615 0.949 . S
H1640 C1617 0.950 . S
H1641 C1619 0.950 . S
C1642 C1643 1.349 . S
C1642 C1644 1.327 . S
C1642 H1667 0.950 . S
C1643 C1642 1.349 . S
C1643 C1659 1.349 . S
C1644 C1642 1.327 . S
C1644 C1663 1.429 . S
C1644 H1668 0.950 . S
C1645 C1662 1.574 . S
C1645 C1664 1.368 . S
C1645 H1669 0.949 . S
H1646 C1650 0.949 . S
C1647 C1648 1.349 . S
C1647 C1649 1.327 . S
C1647 H1670 0.950 . S
C1648 C1647 1.349 . S
C1648 C1660 1.349 . S
C1649 C1647 1.327 . S
C1649 C1665 1.429 . S
C1649 H1671 0.950 . S
C1650 H1646 0.949 . S
C1650 C1658 1.574 . S
C1650 C1666 1.368 . S
H1651 C1659 0.950 . S
H1652 C1657 0.950 . S
H1653 C1658 0.949 . S
H1654 C1660 0.950 . S
H1655 C1661 0.950 . S
H1656 C1662 0.949 . S
C1657 H1652 0.950 . S
C1657 C1659 1.327 . S
C1657 C1663 1.429 . S
C1658 C1650 1.574 . S
C1658 H1653 0.949 . S
C1658 C1664 1.368 . S
C1659 C1643 1.349 . S
C1659 H1651 0.950 . S
C1659 C1657 1.327 . S
C1660 C1648 1.349 . S
C1660 H1654 0.950 . S
C1660 C1661 1.327 . S
C1661 H1655 0.950 . S
C1661 C1660 1.327 . S
C1661 C1665 1.429 . S
C1662 C1645 1.574 . S
C1662 H1656 0.949 . S
C1662 C1666 1.368 . S
C1663 C1644 1.429 . S
C1663 C1657 1.429 . S
C1663 C1664 1.523 . S
C1664 C1645 1.368 . S
C1664 C1658 1.368 . S
C1664 C1663 1.523 . S
C1665 C1649 1.429 . S
C1665 C1661 1.429 . S
C1665 C1666 1.523 . S
C1666 C1650 1.368 . S
C1666 C1662 1.368 . S
C1666 C1665 1.523 . S
H1667 C1642 0.950 . S
H1668 C1644 0.950 . S
H1669 C1645 0.949 . S
H1670 C1647 0.950 . S
H1671 C1649 0.950 . S
C1672 C1673 1.349 . S
C1672 C1674 1.327 . S
C1672 H1697 0.950 . S
C1673 C1672 1.349 . S
C1673 C1689 1.349 . S
C1674 C1672 1.327 . S
C1674 C1693 1.429 . S
C1674 H1698 0.950 . S
C1675 C1692 1.574 . S
C1675 C1694 1.368 . S
C1675 H1699 0.949 . S
H1676 C1680 0.949 . S
C1677 C1678 1.349 . S
C1677 C1679 1.327 . S
C1677 H1700 0.950 . S
C1678 C1677 1.349 . S
C1678 C1690 1.349 . S
C1679 C1677 1.327 . S
C1679 C1695 1.429 . S
C1679 H1701 0.950 . S
C1680 H1676 0.949 . S
C1680 C1688 1.574 . S
C1680 C1696 1.368 . S
H1681 C1689 0.950 . S
H1682 C1687 0.950 . S
H1683 C1688 0.949 . S
H1684 C1690 0.950 . S
H1685 C1691 0.950 . S
H1686 C1692 0.949 . S
C1687 H1682 0.950 . S
C1687 C1689 1.327 . S
C1687 C1693 1.429 . S
C1688 C1680 1.574 . S
C1688 H1683 0.949 . S
C1688 C1694 1.368 . S
C1689 C1673 1.349 . S
C1689 H1681 0.950 . S
C1689 C1687 1.327 . S
C1690 C1678 1.349 . S
C1690 H1684 0.950 . S
C1690 C1691 1.327 . S
C1691 H1685 0.950 . S
C1691 C1690 1.327 . S
C1691 C1695 1.429 . S
C1692 C1675 1.574 . S
C1692 H1686 0.949 . S
C1692 C1696 1.368 . S
C1693 C1674 1.429 . S
C1693 C1687 1.429 . S
C1693 C1694 1.523 . S
C1694 C1675 1.368 . S
C1694 C1688 1.368 . S
C1694 C1693 1.523 . S
C1695 C1679 1.429 . S
C1695 C1691 1.429 . S
C1695 C1696 1.523 . S
C1696 C1680 1.368 . S
C1696 C1692 1.368 . S
C1696 C1695 1.523 . S
H1697 C1672 0.950 . S
H1698 C1674 0.950 . S
H1699 C1675 0.949 . S
H1700 C1677 0.950 . S
H1701 C1679 0.950 . S
C1702 C1703 1.349 . S
C1702 C1704 1.327 . S
C1702 H1727 0.950 . S
C1703 C1702 1.349 . S
C1703 C1719 1.349 . S
C1704 C1702 1.327 . S
C1704 C1723 1.429 . S
C1704 H1728 0.950 . S
C1705 C1722 1.574 . S
C1705 C1724 1.368 . S
C1705 H1729 0.949 . S
H1706 C1710 0.949 . S
C1707 C1708 1.349 . S
C1707 C1709 1.327 . S
C1707 H1730 0.950 . S
C1708 C1707 1.349 . S
C1708 C1720 1.349 . S
C1709 C1707 1.327 . S
C1709 C1725 1.429 . S
C1709 H1731 0.950 . S
C1710 H1706 0.949 . S
C1710 C1718 1.574 . S
C1710 C1726 1.368 . S
H1711 C1719 0.950 . S
H1712 C1717 0.950 . S
H1713 C1718 0.949 . S
H1714 C1720 0.950 . S
H1715 C1721 0.950 . S
H1716 C1722 0.949 . S
C1717 H1712 0.950 . S
C1717 C1719 1.327 . S
C1717 C1723 1.429 . S
C1718 C1710 1.574 . S
C1718 H1713 0.949 . S
C1718 C1724 1.368 . S
C1719 C1703 1.349 . S
C1719 H1711 0.950 . S
C1719 C1717 1.327 . S
C1720 C1708 1.349 . S
C1720 H1714 0.950 . S
C1720 C1721 1.327 . S
C1721 H1715 0.950 . S
C1721 C1720 1.327 . S
C1721 C1725 1.429 . S
C1722 C1705 1.574 . S
C1722 H1716 0.949 . S
C1722 C1726 1.368 . S
C1723 C1704 1.429 . S
C1723 C1717 1.429 . S
C1723 C1724 1.523 . S
C1724 C1705 1.368 . S
C1724 C1718 1.368 . S
C1724 C1723 1.523 . S
C1725 C1709 1.429 . S
C1725 C1721 1.429 . S
C1725 C1726 1.523 . S
C1726 C1710 1.368 . S
C1726 C1722 1.368 . S
C1726 C1725 1.523 . S
H1727 C1702 0.950 . S
H1728 C1704 0.950 . S
H1729 C1705 0.949 . S
H1730 C1707 0.950 . S
H1731 C1709 0.950 . S
C1732 C1733 1.349 . S
C1732 C1734 1.327 . S
C1732 H1757 0.950 . S
C1733 C1732 1.349 . S
C1733 C1749 1.349 . S
C1734 C1732 1.327 . S
C1734 C1753 1.429 . S
C1734 H1758 0.950 . S
C1735 C1752 1.574 . S
C1735 C1754 1.368 . S
C1735 H1759 0.949 . S
H1736 C1740 0.949 . S
C1737 C1738 1.349 . S
C1737 C1739 1.327 . S
C1737 H1760 0.950 . S
C1738 C1737 1.349 . S
C1738 C1750 1.349 . S
C1739 C1737 1.327 . S
C1739 C1755 1.429 . S
C1739 H1761 0.950 . S
C1740 H1736 0.949 . S
C1740 C1748 1.574 . S
C1740 C1756 1.368 . S
H1741 C1749 0.950 . S
H1742 C1747 0.950 . S
H1743 C1748 0.949 . S
H1744 C1750 0.950 . S
H1745 C1751 0.950 . S
H1746 C1752 0.949 . S
C1747 H1742 0.950 . S
C1747 C1749 1.327 . S
C1747 C1753 1.429 . S
C1748 C1740 1.574 . S
C1748 H1743 0.949 . S
C1748 C1754 1.368 . S
C1749 C1733 1.349 . S
C1749 H1741 0.950 . S
C1749 C1747 1.327 . S
C1750 C1738 1.349 . S
C1750 H1744 0.950 . S
C1750 C1751 1.327 . S
C1751 H1745 0.950 . S
C1751 C1750 1.327 . S
C1751 C1755 1.429 . S
C1752 C1735 1.574 . S
C1752 H1746 0.949 . S
C1752 C1756 1.368 . S
C1753 C1734 1.429 . S
C1753 C1747 1.429 . S
C1753 C1754 1.523 . S
C1754 C1735 1.368 . S
C1754 C1748 1.368 . S
C1754 C1753 1.523 . S
C1755 C1739 1.429 . S
C1755 C1751 1.429 . S
C1755 C1756 1.523 . S
C1756 C1740 1.368 . S
C1756 C1752 1.368 . S
C1756 C1755 1.523 . S
H1757 C1732 0.950 . S
H1758 C1734 0.950 . S
H1759 C1735 0.949 . S
H1760 C1737 0.950 . S
H1761 C1739 0.950 . S
C1762 C1763 1.349 . S
C1762 C1764 1.327 . S
C1762 H1787 0.950 . S
C1763 C1762 1.349 . S
C1763 C1779 1.349 . S
C1764 C1762 1.327 . S
C1764 C1783 1.429 . S
C1764 H1788 0.950 . S
C1765 C1782 1.574 . S
C1765 C1784 1.368 . S
C1765 H1789 0.949 . S
H1766 C1770 0.949 . S
C1767 C1768 1.349 . S
C1767 C1769 1.327 . S
C1767 H1790 0.950 . S
C1768 C1767 1.349 . S
C1768 C1780 1.349 . S
C1769 C1767 1.327 . S
C1769 C1785 1.429 . S
C1769 H1791 0.950 . S
C1770 H1766 0.949 . S
C1770 C1778 1.574 . S
C1770 C1786 1.368 . S
H1771 C1779 0.950 . S
H1772 C1777 0.950 . S
H1773 C1778 0.949 . S
H1774 C1780 0.950 . S
H1775 C1781 0.950 . S
H1776 C1782 0.949 . S
C1777 H1772 0.950 . S
C1777 C1779 1.327 . S
C1777 C1783 1.429 . S
C1778 C1770 1.574 . S
C1778 H1773 0.949 . S
C1778 C1784 1.368 . S
C1779 C1763 1.349 . S
C1779 H1771 0.950 . S
C1779 C1777 1.327 . S
C1780 C1768 1.349 . S
C1780 H1774 0.950 . S
C1780 C1781 1.327 . S
C1781 H1775 0.950 . S
C1781 C1780 1.327 . S
C1781 C1785 1.429 . S
C1782 C1765 1.574 . S
C1782 H1776 0.949 . S
C1782 C1786 1.368 . S
C1783 C1764 1.429 . S
C1783 C1777 1.429 . S
C1783 C1784 1.523 . S
C1784 C1765 1.368 . S
C1784 C1778 1.368 . S
C1784 C1783 1.523 . S
C1785 C1769 1.429 . S
C1785 C1781 1.429 . S
C1785 C1786 1.523 . S
C1786 C1770 1.368 . S
C1786 C1782 1.368 . S
C1786 C1785 1.523 . S
H1787 C1762 0.950 . S
H1788 C1764 0.950 . S
H1789 C1765 0.949 . S
H1790 C1767 0.950 . S
H1791 C1769 0.950 . S
C358 C177 2.089 . S
C353 C19 2.061 . S
C388 C182 1.486 . S
C383 C24 1.440 . S
C418 C183 1.270 . S
C413 C59 1.273 . S
C443 C69 1.339 . S
C448 C187 1.340 . S
C473 C82 1.439 . S
C478 C190 1.486 . S
C508 C191 1.270 . S
C503 C118 1.263 . S
C533 C132 1.339 . S
C538 C168 1.340 . S
C563 C158 2.066 . S
C568 C184 2.093 . S
C598 C222 1.609 . S
C593 C4 1.535 . S
C623 C29 0.888 . S
C628 C248 0.887 . S
C658 C200 1.464 . S
C653 C44 1.411 . S
C688 C255 1.236 . S
C683 C79 1.236 . S
C713 C98 1.254 . S
C718 C209 1.252 . S
C748 C251 1.308 . S
C743 C112 1.300 . S
C773 C122 1.146 . S
C778 C215 1.178 . S
C803 C152 1.196 . S
C808 C246 1.218 . S
C833 C9 1.196 . S
C838 C254 1.208 . S
C863 C92 0.888 . S
C868 C241 0.891 . S
C898 C219 1.464 . S
C893 C102 1.413 . S
C928 C247 1.236 . S
C923 C138 1.247 . S
C953 C142 1.541 . S
C958 C214 1.614 . S
C983 C49 1.300 . S
C988 C232 1.306 . S
C1018 C223 1.176 . S
C1013 C64 1.146 . S
C1043 C39 1.254 . S
C1048 C216 1.242 . S
C1073 C159 2.036 . S
C1078 C278 2.040 . S
C1103 C84 1.411 . S
C1108 C273 1.465 . S
C1138 C287 1.238 . S
C1133 C119 1.245 . S
C1168 C264 1.323 . S
C1163 C129 1.316 . S
C1193 C22 1.411 . S
C1198 C280 1.461 . S
C1228 C279 1.238 . S
C1223 C58 1.241 . S
C1253 C72 1.314 . S
C1258 C283 1.321 . S
C1283 C18 2.036 . S
C1288 C286 2.034 . S
C1313 C144 1.547 . S
C1318 C312 1.648 . S
C1348 C328 0.912 . S
C1343 C89 0.911 . S
C1373 C104 1.420 . S
C1378 C310 1.483 . S
C1403 C139 1.269 . S
C1408 C343 1.262 . S
C1438 C319 1.249 . S
C1433 C38 1.253 . S
C1463 C52 1.330 . S
C1468 C337 1.342 . S
C1498 C315 1.182 . S
C1493 C62 1.143 . S
C1528 C350 1.236 . S
C1523 C12 1.222 . S
C1558 C342 1.236 . S
C1553 C149 1.225 . S
C1583 C32 0.910 . S
C1588 C347 0.910 . S
C1613 C42 1.420 . S
C1618 C318 1.489 . S
C1648 C351 1.263 . S
C1643 C78 1.270 . S
C1673 C2 1.548 . S
C1678 C305 1.641 . S
C1703 C109 1.330 . S
C1708 C344 1.338 . S
C1738 C296 1.181 . S
C1733 C124 1.144 . S
C1768 C311 1.249 . S
C1763 C99 1.250 . S
