# Generated by pormake.
# Topology ibd, (4,6)-cn, num edge types: 1
# Building blocks:
#     Node 0, Type 0, BuildingBlock: QUQFOY_clean_sbu_3, # of connection points: 4
#     Node 1, Type 0, BuildingBlock: QUQFOY_clean_sbu_3, # of connection points: 4
#     Node 2, Type 0, BuildingBlock: QUQFOY_clean_sbu_3, # of connection points: 4
#     Node 3, Type 0, BuildingBlock: QUQFOY_clean_sbu_3, # of connection points: 4
#     Node 4, Type 0, BuildingBlock: QUQFOY_clean_sbu_3, # of connection points: 4
#     Node 5, Type 0, BuildingBlock: QUQFOY_clean_sbu_3, # of connection points: 4
#     Node 6, Type 0, BuildingBlock: QUQFOY_clean_sbu_3, # of connection points: 4
#     Node 7, Type 0, BuildingBlock: QUQFOY_clean_sbu_3, # of connection points: 4
#     Node 8, Type 0, BuildingBlock: QUQFOY_clean_sbu_3, # of connection points: 4
#     Node 9, Type 0, BuildingBlock: QUQFOY_clean_sbu_3, # of connection points: 4
#     Node 10, Type 0, BuildingBlock: QUQFOY_clean_sbu_3, # of connection points: 4
#     Node 11, Type 0, BuildingBlock: QUQFOY_clean_sbu_3, # of connection points: 4
#     Node 12, Type 0, BuildingBlock: QUQFOY_clean_sbu_3, # of connection points: 4
#     Node 13, Type 0, BuildingBlock: QUQFOY_clean_sbu_3, # of connection points: 4
#     Node 14, Type 0, BuildingBlock: QUQFOY_clean_sbu_3, # of connection points: 4
#     Node 15, Type 0, BuildingBlock: QUQFOY_clean_sbu_3, # of connection points: 4
#     Node 16, Type 0, BuildingBlock: QUQFOY_clean_sbu_3, # of connection points: 4
#     Node 17, Type 0, BuildingBlock: QUQFOY_clean_sbu_3, # of connection points: 4
#     Node 18, Type 0, BuildingBlock: QUQFOY_clean_sbu_3, # of connection points: 4
#     Node 19, Type 0, BuildingBlock: QUQFOY_clean_sbu_3, # of connection points: 4
#     Node 20, Type 0, BuildingBlock: QUQFOY_clean_sbu_3, # of connection points: 4
#     Node 21, Type 0, BuildingBlock: QUQFOY_clean_sbu_3, # of connection points: 4
#     Node 22, Type 0, BuildingBlock: QUQFOY_clean_sbu_3, # of connection points: 4
#     Node 23, Type 0, BuildingBlock: QUQFOY_clean_sbu_3, # of connection points: 4
#     Node 24, Type 1, BuildingBlock: IZENUY_clean_sbu_0, # of connection points: 6
#     Node 25, Type 1, BuildingBlock: IZENUY_clean_sbu_0, # of connection points: 6
#     Node 26, Type 1, BuildingBlock: IZENUY_clean_sbu_0, # of connection points: 6
#     Node 27, Type 1, BuildingBlock: IZENUY_clean_sbu_0, # of connection points: 6
#     Node 28, Type 1, BuildingBlock: IZENUY_clean_sbu_0, # of connection points: 6
#     Node 29, Type 1, BuildingBlock: IZENUY_clean_sbu_0, # of connection points: 6
#     Node 30, Type 1, BuildingBlock: IZENUY_clean_sbu_0, # of connection points: 6
#     Node 31, Type 1, BuildingBlock: IZENUY_clean_sbu_0, # of connection points: 6
#     Node 32, Type 1, BuildingBlock: IZENUY_clean_sbu_0, # of connection points: 6
#     Node 33, Type 1, BuildingBlock: IZENUY_clean_sbu_0, # of connection points: 6
#     Node 34, Type 1, BuildingBlock: IZENUY_clean_sbu_0, # of connection points: 6
#     Node 35, Type 1, BuildingBlock: IZENUY_clean_sbu_0, # of connection points: 6
#     Node 36, Type 1, BuildingBlock: IZENUY_clean_sbu_0, # of connection points: 6
#     Node 37, Type 1, BuildingBlock: IZENUY_clean_sbu_0, # of connection points: 6
#     Node 38, Type 1, BuildingBlock: IZENUY_clean_sbu_0, # of connection points: 6
#     Node 39, Type 1, BuildingBlock: IZENUY_clean_sbu_0, # of connection points: 6
#     Edge 40, Type (0, 1), BuildingBlock: AJUNOK_clean_linker_0, # of connection points: 2
#     Edge 41, Type (0, 1), BuildingBlock: AJUNOK_clean_linker_0, # of connection points: 2
#     Edge 42, Type (0, 1), BuildingBlock: AJUNOK_clean_linker_0, # of connection points: 2
#     Edge 43, Type (0, 1), BuildingBlock: AJUNOK_clean_linker_0, # of connection points: 2
#     Edge 44, Type (0, 1), BuildingBlock: AJUNOK_clean_linker_0, # of connection points: 2
#     Edge 45, Type (0, 1), BuildingBlock: AJUNOK_clean_linker_0, # of connection points: 2
#     Edge 46, Type (0, 1), BuildingBlock: AJUNOK_clean_linker_0, # of connection points: 2
#     Edge 47, Type (0, 1), BuildingBlock: AJUNOK_clean_linker_0, # of connection points: 2
#     Edge 48, Type (0, 1), BuildingBlock: AJUNOK_clean_linker_0, # of connection points: 2
#     Edge 49, Type (0, 1), BuildingBlock: AJUNOK_clean_linker_0, # of connection points: 2
#     Edge 50, Type (0, 1), BuildingBlock: AJUNOK_clean_linker_0, # of connection points: 2
#     Edge 51, Type (0, 1), BuildingBlock: AJUNOK_clean_linker_0, # of connection points: 2
#     Edge 52, Type (0, 1), BuildingBlock: AJUNOK_clean_linker_0, # of connection points: 2
#     Edge 53, Type (0, 1), BuildingBlock: AJUNOK_clean_linker_0, # of connection points: 2
#     Edge 54, Type (0, 1), BuildingBlock: AJUNOK_clean_linker_0, # of connection points: 2
#     Edge 55, Type (0, 1), BuildingBlock: AJUNOK_clean_linker_0, # of connection points: 2
#     Edge 56, Type (0, 1), BuildingBlock: AJUNOK_clean_linker_0, # of connection points: 2
#     Edge 57, Type (0, 1), BuildingBlock: AJUNOK_clean_linker_0, # of connection points: 2
#     Edge 58, Type (0, 1), BuildingBlock: AJUNOK_clean_linker_0, # of connection points: 2
#     Edge 59, Type (0, 1), BuildingBlock: AJUNOK_clean_linker_0, # of connection points: 2
#     Edge 60, Type (0, 1), BuildingBlock: AJUNOK_clean_linker_0, # of connection points: 2
#     Edge 61, Type (0, 1), BuildingBlock: AJUNOK_clean_linker_0, # of connection points: 2
#     Edge 62, Type (0, 1), BuildingBlock: AJUNOK_clean_linker_0, # of connection points: 2
#     Edge 63, Type (0, 1), BuildingBlock: AJUNOK_clean_linker_0, # of connection points: 2
#     Edge 64, Type (0, 1), BuildingBlock: AJUNOK_clean_linker_0, # of connection points: 2
#     Edge 65, Type (0, 1), BuildingBlock: AJUNOK_clean_linker_0, # of connection points: 2
#     Edge 66, Type (0, 1), BuildingBlock: AJUNOK_clean_linker_0, # of connection points: 2
#     Edge 67, Type (0, 1), BuildingBlock: AJUNOK_clean_linker_0, # of connection points: 2
#     Edge 68, Type (0, 1), BuildingBlock: AJUNOK_clean_linker_0, # of connection points: 2
#     Edge 69, Type (0, 1), BuildingBlock: AJUNOK_clean_linker_0, # of connection points: 2
#     Edge 70, Type (0, 1), BuildingBlock: AJUNOK_clean_linker_0, # of connection points: 2
#     Edge 71, Type (0, 1), BuildingBlock: AJUNOK_clean_linker_0, # of connection points: 2
#     Edge 72, Type (0, 1), BuildingBlock: AJUNOK_clean_linker_0, # of connection points: 2
#     Edge 73, Type (0, 1), BuildingBlock: AJUNOK_clean_linker_0, # of connection points: 2
#     Edge 74, Type (0, 1), BuildingBlock: AJUNOK_clean_linker_0, # of connection points: 2
#     Edge 75, Type (0, 1), BuildingBlock: AJUNOK_clean_linker_0, # of connection points: 2
#     Edge 76, Type (0, 1), BuildingBlock: AJUNOK_clean_linker_0, # of connection points: 2
#     Edge 77, Type (0, 1), BuildingBlock: AJUNOK_clean_linker_0, # of connection points: 2
#     Edge 78, Type (0, 1), BuildingBlock: AJUNOK_clean_linker_0, # of connection points: 2
#     Edge 79, Type (0, 1), BuildingBlock: AJUNOK_clean_linker_0, # of connection points: 2
#     Edge 80, Type (0, 1), BuildingBlock: AJUNOK_clean_linker_0, # of connection points: 2
#     Edge 81, Type (0, 1), BuildingBlock: AJUNOK_clean_linker_0, # of connection points: 2
#     Edge 82, Type (0, 1), BuildingBlock: AJUNOK_clean_linker_0, # of connection points: 2
#     Edge 83, Type (0, 1), BuildingBlock: AJUNOK_clean_linker_0, # of connection points: 2
#     Edge 84, Type (0, 1), BuildingBlock: AJUNOK_clean_linker_0, # of connection points: 2
#     Edge 85, Type (0, 1), BuildingBlock: AJUNOK_clean_linker_0, # of connection points: 2
#     Edge 86, Type (0, 1), BuildingBlock: AJUNOK_clean_linker_0, # of connection points: 2
#     Edge 87, Type (0, 1), BuildingBlock: AJUNOK_clean_linker_0, # of connection points: 2
#     Edge 88, Type (0, 1), BuildingBlock: AJUNOK_clean_linker_0, # of connection points: 2
#     Edge 89, Type (0, 1), BuildingBlock: AJUNOK_clean_linker_0, # of connection points: 2
#     Edge 90, Type (0, 1), BuildingBlock: AJUNOK_clean_linker_0, # of connection points: 2
#     Edge 91, Type (0, 1), BuildingBlock: AJUNOK_clean_linker_0, # of connection points: 2
#     Edge 92, Type (0, 1), BuildingBlock: AJUNOK_clean_linker_0, # of connection points: 2
#     Edge 93, Type (0, 1), BuildingBlock: AJUNOK_clean_linker_0, # of connection points: 2
#     Edge 94, Type (0, 1), BuildingBlock: AJUNOK_clean_linker_0, # of connection points: 2
#     Edge 95, Type (0, 1), BuildingBlock: AJUNOK_clean_linker_0, # of connection points: 2
#     Edge 96, Type (0, 1), BuildingBlock: AJUNOK_clean_linker_0, # of connection points: 2
#     Edge 97, Type (0, 1), BuildingBlock: AJUNOK_clean_linker_0, # of connection points: 2
#     Edge 98, Type (0, 1), BuildingBlock: AJUNOK_clean_linker_0, # of connection points: 2
#     Edge 99, Type (0, 1), BuildingBlock: AJUNOK_clean_linker_0, # of connection points: 2
#     Edge 100, Type (0, 1), BuildingBlock: AJUNOK_clean_linker_0, # of connection points: 2
#     Edge 101, Type (0, 1), BuildingBlock: AJUNOK_clean_linker_0, # of connection points: 2
#     Edge 102, Type (0, 1), BuildingBlock: AJUNOK_clean_linker_0, # of connection points: 2
#     Edge 103, Type (0, 1), BuildingBlock: AJUNOK_clean_linker_0, # of connection points: 2
#     Edge 104, Type (0, 1), BuildingBlock: AJUNOK_clean_linker_0, # of connection points: 2
#     Edge 105, Type (0, 1), BuildingBlock: AJUNOK_clean_linker_0, # of connection points: 2
#     Edge 106, Type (0, 1), BuildingBlock: AJUNOK_clean_linker_0, # of connection points: 2
#     Edge 107, Type (0, 1), BuildingBlock: AJUNOK_clean_linker_0, # of connection points: 2
#     Edge 108, Type (0, 1), BuildingBlock: AJUNOK_clean_linker_0, # of connection points: 2
#     Edge 109, Type (0, 1), BuildingBlock: AJUNOK_clean_linker_0, # of connection points: 2
#     Edge 110, Type (0, 1), BuildingBlock: AJUNOK_clean_linker_0, # of connection points: 2
#     Edge 111, Type (0, 1), BuildingBlock: AJUNOK_clean_linker_0, # of connection points: 2
#     Edge 112, Type (0, 1), BuildingBlock: AJUNOK_clean_linker_0, # of connection points: 2
#     Edge 113, Type (0, 1), BuildingBlock: AJUNOK_clean_linker_0, # of connection points: 2
#     Edge 114, Type (0, 1), BuildingBlock: AJUNOK_clean_linker_0, # of connection points: 2
#     Edge 115, Type (0, 1), BuildingBlock: AJUNOK_clean_linker_0, # of connection points: 2
#     Edge 116, Type (0, 1), BuildingBlock: AJUNOK_clean_linker_0, # of connection points: 2
#     Edge 117, Type (0, 1), BuildingBlock: AJUNOK_clean_linker_0, # of connection points: 2
#     Edge 118, Type (0, 1), BuildingBlock: AJUNOK_clean_linker_0, # of connection points: 2
#     Edge 119, Type (0, 1), BuildingBlock: AJUNOK_clean_linker_0, # of connection points: 2
#     Edge 120, Type (0, 1), BuildingBlock: AJUNOK_clean_linker_0, # of connection points: 2
#     Edge 121, Type (0, 1), BuildingBlock: AJUNOK_clean_linker_0, # of connection points: 2
#     Edge 122, Type (0, 1), BuildingBlock: AJUNOK_clean_linker_0, # of connection points: 2
#     Edge 123, Type (0, 1), BuildingBlock: AJUNOK_clean_linker_0, # of connection points: 2
#     Edge 124, Type (0, 1), BuildingBlock: AJUNOK_clean_linker_0, # of connection points: 2
#     Edge 125, Type (0, 1), BuildingBlock: AJUNOK_clean_linker_0, # of connection points: 2
#     Edge 126, Type (0, 1), BuildingBlock: AJUNOK_clean_linker_0, # of connection points: 2
#     Edge 127, Type (0, 1), BuildingBlock: AJUNOK_clean_linker_0, # of connection points: 2
#     Edge 128, Type (0, 1), BuildingBlock: AJUNOK_clean_linker_0, # of connection points: 2
#     Edge 129, Type (0, 1), BuildingBlock: AJUNOK_clean_linker_0, # of connection points: 2
#     Edge 130, Type (0, 1), BuildingBlock: AJUNOK_clean_linker_0, # of connection points: 2
#     Edge 131, Type (0, 1), BuildingBlock: AJUNOK_clean_linker_0, # of connection points: 2
#     Edge 132, Type (0, 1), BuildingBlock: AJUNOK_clean_linker_0, # of connection points: 2
#     Edge 133, Type (0, 1), BuildingBlock: AJUNOK_clean_linker_0, # of connection points: 2
#     Edge 134, Type (0, 1), BuildingBlock: AJUNOK_clean_linker_0, # of connection points: 2
#     Edge 135, Type (0, 1), BuildingBlock: AJUNOK_clean_linker_0, # of connection points: 2
# Relax obj value: 0.310
# Max RMSD: 0.289
# Mean RMSD: 0.261
data_MOF--net-ibd--node1-QUQFOY_clean_sbu_3--node2-IZENUY_clean_sbu_0--edge1-AJUNOK_clean_linker_0
_symmetry_space_group_name_H-M    P1
_symmetry_Int_Tables_number       1
_symmetry_cell_setting            triclinic
loop_
_symmetry_equiv_pos_as_xyz
'x, y, z'
_cell_length_a     37.521704
_cell_length_b     37.516586
_cell_length_c     37.517792
_cell_angle_alpha  90.210986
_cell_angle_beta   90.073639
_cell_angle_gamma 91.508491
loop_
_atom_site_label
_atom_site_type_symbol
_atom_site_fract_x
_atom_site_fract_y
_atom_site_fract_z
_atom_type_partial_charge
C0 C 0.94984 0.20304 0.41404 0.0
O1 O 0.92598 0.22587 0.4089 0.0
Cd2 Cd 0.93122 0.27702 0.37272 0.0
O3 O 0.97923 0.20418 0.39704 0.0
Cd4 Cd 0.00396 0.24096 0.34775 0.0
C5 C 0.01108 0.30742 0.40781 0.0
O6 O 0.9471 0.24877 0.31888 0.0
O7 O -0.00883 0.27997 0.29757 0.0
O8 O 0.02664 0.18652 0.32237 0.0
C9 C 0.95892 0.26949 0.29509 0.0
O10 O 0.97755 0.31095 0.40497 0.0
C11 C 0.05558 0.20101 0.31142 0.0
O12 O 0.02696 0.28385 0.38992 0.0
O13 O 0.06138 0.23352 0.31953 0.0
C14 C 0.00966 0.80601 0.56602 0.0
O15 O 0.97753 0.81582 0.56576 0.0
Cd16 Cd 0.92909 0.78491 0.59107 0.0
O17 O 0.01887 0.77875 0.58388 0.0
Cd18 Cd -0.01127 0.73498 0.62509 0.0
C19 C 0.94798 0.70434 0.5517 0.0
O20 O 0.95187 0.77952 0.6493 0.0
O21 O 0.93428 0.72657 0.66322 0.0
O22 O 0.03845 0.73302 0.66749 0.0
C23 C 0.93141 0.75988 0.66763 0.0
O24 O 0.92896 0.73187 0.55316 0.0
C25 C 0.03719 0.69922 0.67026 0.0
O26 O 0.97211 0.69879 0.57449 0.0
O27 O 0.01491 0.68253 0.6505 0.0
C28 C 0.45069 0.70176 0.91241 0.0
O29 O 0.42326 0.72021 0.90764 0.0
Cd30 Cd 0.42792 0.77695 0.88129 0.0
O31 O 0.48041 0.71046 0.89811 0.0
Cd32 Cd 0.50075 0.75377 0.85191 0.0
C33 C 0.5065 0.80633 0.92224 0.0
O34 O 0.44446 0.7617 0.82228 0.0
O35 O 0.48365 0.80392 0.81447 0.0
O36 O 0.52284 0.70255 0.82118 0.0
C37 C 0.45408 0.78938 0.80547 0.0
O38 O 0.47262 0.80668 0.92022 0.0
C39 C 0.55114 0.71794 0.80994 0.0
O40 O 0.52432 0.78911 0.89954 0.0
O41 O 0.55665 0.75027 0.81897 0.0
C42 C 0.49742 0.32145 0.07766 0.0
O43 O 0.46532 0.33117 0.07939 0.0
Cd44 Cd 0.41933 0.30216 0.11108 0.0
O45 O 0.50811 0.2951 0.09602 0.0
Cd46 Cd 0.48188 0.25209 0.13992 0.0
C47 C 0.43354 0.22184 0.07031 0.0
O48 O 0.44843 0.29758 0.16672 0.0
O49 O 0.43164 0.24517 0.18341 0.0
O50 O 0.53545 0.24868 0.17736 0.0
C51 C 0.42988 0.27864 0.18756 0.0
O52 O 0.4138 0.24865 0.07394 0.0
C53 C 0.53385 0.21483 0.1796 0.0
O54 O 0.46033 0.21737 0.09021 0.0
O55 O 0.5094 0.19885 0.1619 0.0
C56 C 0.90212 0.7343 0.1557 0.0
O57 O 0.88957 0.76526 0.1528 0.0
Cd58 Cd 0.91832 0.81139 0.12038 0.0
O59 O 0.93002 0.72554 0.13873 0.0
Cd60 Cd 0.97365 0.75033 0.09587 0.0
C61 C -0.00157 0.80211 0.16467 0.0
O62 O 0.93005 0.7832 0.06556 0.0
O63 O 0.98379 0.80022 0.05324 0.0
O64 O 0.97412 0.69497 0.06139 0.0
C65 C 0.95072 0.80236 0.04684 0.0
O66 O 0.97108 0.82034 0.15785 0.0
C67 C 0.00784 0.69472 0.05825 0.0
O68 O 0.00535 0.77431 0.14684 0.0
O69 O 0.02542 0.71933 0.07432 0.0
C70 C 0.52971 0.78132 0.3224 0.0
O71 O 0.51019 0.80812 0.32643 0.0
Cd72 Cd 0.45307 0.80297 0.35276 0.0
O73 O 0.52178 0.75161 0.337 0.0
Cd74 Cd 0.47829 0.73061 0.38234 0.0
C75 C 0.42403 0.72385 0.31316 0.0
O76 O 0.46581 0.786 0.41209 0.0
O77 O 0.42593 0.74393 0.418 0.0
O78 O 0.52942 0.71307 0.41589 0.0
C79 C 0.43786 0.77446 0.42742 0.0
O80 O 0.42233 0.75765 0.31545 0.0
C81 C 0.5162 0.68331 0.42593 0.0
O82 O 0.44337 0.7067 0.33457 0.0
O83 O 0.4853 0.67461 0.41443 0.0
C84 C 0.40922 0.21792 0.6629 0.0
O85 O 0.39301 0.24653 0.65694 0.0
Cd86 Cd 0.42113 0.29595 0.63078 0.0
O87 O 0.43927 0.21204 0.64814 0.0
Cd88 Cd 0.4813 0.23992 0.60345 0.0
C89 C 0.50162 0.28654 0.67637 0.0
O90 O 0.43587 0.27195 0.57515 0.0
O91 O 0.48823 0.29386 0.56485 0.0
O92 O 0.48505 0.18638 0.56604 0.0
C93 C 0.45496 0.29472 0.55902 0.0
O94 O 0.47129 0.30051 0.67253 0.0
C95 C 0.51876 0.18835 0.56263 0.0
O96 O 0.51322 0.26401 0.65418 0.0
O97 O 0.53489 0.21327 0.57966 0.0
C98 C 0.04419 0.28336 0.81441 0.0
O99 O 0.02536 0.31018 0.821 0.0
Cd100 Cd 0.9712 0.30633 0.85281 0.0
O101 O 0.03791 0.25349 0.82944 0.0
Cd102 Cd -0.00107 0.23294 0.87921 0.0
C103 C 0.93795 0.22727 0.81584 0.0
O104 O -0.01187 0.28819 0.91031 0.0
O105 O 0.9478 0.24663 0.91616 0.0
O106 O 0.05075 0.21379 0.91139 0.0
C107 C 0.96022 0.27688 0.92585 0.0
O108 O 0.93657 0.26103 0.81911 0.0
C109 C 0.03704 0.18416 0.92127 0.0
O110 O 0.95965 0.20965 0.83441 0.0
O111 O 0.00575 0.1764 0.91027 0.0
C112 C 0.41901 0.91839 0.22152 0.0
O113 O 0.41468 0.89932 0.24917 0.0
Cd114 Cd 0.37967 0.91418 0.29938 0.0
O115 O 0.40362 0.94807 0.21815 0.0
Cd116 Cd 0.35968 0.98022 0.25423 0.0
C117 C 0.4194 -0.0057 0.32034 0.0
O118 O 0.32555 0.92625 0.26858 0.0
O119 O 0.30758 0.97497 0.29255 0.0
O120 O 0.33363 5e-05 0.19882 0.0
C121 C 0.30154 0.94246 0.28506 0.0
O122 O 0.41436 0.96192 0.32939 0.0
C123 C 0.32596 0.03059 0.21092 0.0
O124 O 0.40312 0.00674 0.29369 0.0
O125 O 0.33734 0.03864 0.24182 0.0
C126 C 0.32345 0.06849 0.49918 0.0
O127 O 0.33217 0.06851 0.46651 0.0
Cd128 Cd 0.30259 0.10124 0.42159 0.0
O129 O 0.29766 0.08705 0.51004 0.0
Cd130 Cd 0.25431 0.12656 0.48333 0.0
C131 C 0.22111 0.06065 0.43205 0.0
O132 O 0.29657 0.15905 0.44666 0.0
O133 O 0.24119 0.16839 0.43528 0.0
O134 O 0.25433 0.16619 0.53507 0.0
C135 C 0.27361 0.17806 0.43173 0.0
O136 O 0.24707 0.06752 0.41115 0.0
C137 C 0.22056 0.16622 0.53758 0.0
O138 O 0.21862 0.07635 0.4619 0.0
O139 O 0.20309 0.14574 0.51657 0.0
C140 C 0.16778 0.93426 0.7332 0.0
O141 O 0.16786 0.92472 0.76566 0.0
Cd142 Cd 0.13178 0.94955 0.81098 0.0
O143 O 0.14753 0.95874 0.72261 0.0
Cd144 Cd 0.1045 -0.00208 0.74987 0.0
C145 C 0.16801 0.03269 0.80316 0.0
O146 O 0.07521 0.95092 0.78263 0.0
O147 O 0.05863 0.00378 0.79635 0.0
O148 O 0.07012 -0.00265 0.69484 0.0
C149 C 0.05294 0.97035 0.79802 0.0
O150 O 0.16184 0.00659 0.82399 0.0
C151 C 0.06624 0.03088 0.6946 0.0
O152 O 0.15272 0.03455 0.77312 0.0
O153 O 0.08214 0.0488 0.71889 0.0
C154 C 0.30145 0.80691 0.0012 0.0
O155 O 0.31708 0.80769 0.97118 0.0
Cd156 Cd 0.29907 0.84177 0.92136 0.0
O157 O 0.27392 0.82524 0.00695 0.0
Cd158 Cd 0.24012 0.86831 0.97174 0.0
C159 C 0.2152 0.80656 0.9103 0.0
O160 O 0.2947 0.89787 0.95126 0.0
O161 O 0.24557 0.9197 0.93225 0.0
O162 O 0.22788 0.89684 0.02834 0.0
C163 C 0.27893 0.92324 0.93662 0.0
O164 O 0.24659 0.80949 0.89768 0.0
C165 C 0.19665 0.90589 0.01968 0.0
O166 O 0.20668 0.8244 0.9376 0.0
O167 O 0.18487 0.89465 -0.0101 0.0
C168 C 0.23557 0.30532 0.06124 0.0
O169 O 0.26845 0.3097 0.06838 0.0
Cd170 Cd 0.30834 0.35168 0.04185 0.0
O171 O 0.22048 0.3251 0.03842 0.0
Cd172 Cd 0.23981 0.37448 -0.00123 0.0
C173 C 0.2956 0.32044 0.95719 0.0
O174 O 0.27704 0.4053 0.04143 0.0
O175 O 0.2863 0.4205 -0.01315 0.0
O176 O 0.18606 0.40988 0.00321 0.0
C177 C 0.29227 0.42619 0.01966 0.0
O178 O 0.31732 0.32685 0.98267 0.0
C179 C 0.18219 0.4126 0.96967 0.0
O180 O 0.26429 0.3324 0.95768 0.0
O181 O 0.20323 0.39499 0.95035 0.0
C182 C 0.69819 0.04715 0.04222 0.0
O183 O 0.72733 0.05147 0.05911 0.0
Cd184 Cd 0.77597 0.08956 0.04237 0.0
O185 O 0.69179 0.06481 0.0141 0.0
Cd186 Cd 0.72448 0.11375 0.98273 0.0
C187 C 0.78927 0.05979 0.95709 0.0
O188 O 0.74777 0.1449 0.03538 0.0
O189 O 0.76858 0.16235 0.98452 0.0
O190 O 0.669 0.14445 0.97471 0.0
C191 C 0.7652 0.16794 0.01761 0.0
O192 O 0.80125 0.06328 -0.01131 0.0
C193 C 0.67582 0.15379 0.94288 0.0
O194 O 0.76028 0.07407 0.94824 0.0
O195 O 0.70352 0.14131 0.92867 0.0
C196 C 0.17831 0.52644 0.17569 0.0
O197 O 0.17839 0.49865 0.15637 0.0
Cd198 Cd 0.14479 0.44622 0.16982 0.0
O199 O 0.1581 0.52833 0.20284 0.0
Cd200 Cd 0.11049 0.48736 0.22661 0.0
C201 C 0.17036 0.43201 0.25603 0.0
O202 O 0.0846 0.46546 0.17115 0.0
O203 O 0.07483 0.43244 0.21712 0.0
O204 O 0.0719 0.53741 0.23694 0.0
C205 C 0.06608 0.44102 0.18574 0.0
O206 O 0.17084 0.42071 0.22399 0.0
C207 C 0.0608 0.52615 0.26693 0.0
O208 O 0.15174 0.45845 0.26423 0.0
O209 O 0.07463 0.49819 0.27895 0.0
C210 C 0.73569 0.80874 0.55858 0.0
O211 O 0.76737 0.8132 0.56992 0.0
Cd212 Cd 0.81122 0.8532 0.54673 0.0
O213 O 0.7241 0.82768 0.53307 0.0
Cd214 Cd 0.74936 0.8758 0.49456 0.0
C215 C 0.8085 0.8184 0.46241 0.0
O216 O 0.78115 0.90754 0.54105 0.0
O217 O 0.79702 0.92169 0.48771 0.0
O218 O 0.69505 0.91046 0.49329 0.0
C219 C 0.7983 0.9286 0.52077 0.0
O220 O 0.82657 0.82468 0.49058 0.0
C221 C 0.69489 0.91411 0.45963 0.0
O222 O 0.77809 0.83186 0.45803 0.0
O223 O 0.7184 0.89756 0.44237 0.0
C224 C 0.92532 0.00615 0.17256 0.0
O225 O 0.92239 0.97262 0.16851 0.0
Cd226 Cd 0.8803 0.93335 0.19536 0.0
O227 O 0.90411 0.02258 0.19313 0.0
Cd228 Cd 0.85467 0.00227 0.23283 0.0
C229 C 0.90912 0.95128 0.27929 0.0
O230 O 0.82606 0.96345 0.18987 0.0
O231 O 0.81108 0.95282 0.24409 0.0
O232 O 0.81534 0.05358 0.22996 0.0
C233 C 0.80507 0.94772 0.21119 0.0
O234 O 0.90266 0.92713 0.25607 0.0
C235 C 0.81351 0.05691 0.26367 0.0
O236 O 0.89758 0.98246 0.27547 0.0
O237 O 0.83309 0.03696 0.28204 0.0
C238 C 0.19043 0.56184 0.5429 0.0
O239 O 0.21605 0.56746 0.56453 0.0
Cd240 Cd 0.2647 0.60874 0.55867 0.0
O241 O 0.1873 0.58025 0.51463 0.0
Cd242 Cd 0.22137 0.63203 0.48969 0.0
C243 C 0.29302 0.58126 0.47659 0.0
O244 O 0.23398 0.66159 0.54648 0.0
O245 O 0.26028 0.68379 0.50011 0.0
O246 O 0.16661 0.65902 0.47016 0.0
C247 C 0.25271 0.68638 0.53283 0.0
O248 O 0.29963 0.5845 0.50974 0.0
C249 C 0.17884 0.66827 0.4399 0.0
O250 O 0.26542 0.59488 0.46322 0.0
O251 O 0.20975 0.65792 0.43192 0.0
C252 C 0.41956 0.51389 0.67876 0.0
O253 O 0.41816 0.48125 0.66963 0.0
Cd254 Cd 0.3796 0.43549 0.69135 0.0
O255 O 0.39825 0.52578 0.70219 0.0
Cd256 Cd 0.35077 0.49755 0.73931 0.0
C257 C 0.40957 0.44315 0.77649 0.0
O258 O 0.32389 0.46306 0.69163 0.0
O259 O 0.30692 0.44732 0.74414 0.0
O260 O 0.31224 0.54921 0.74015 0.0
C261 C 0.30261 0.44491 0.71069 0.0
O262 O 0.40411 0.42249 0.74996 0.0
C263 C 0.30741 0.54832 0.77367 0.0
O264 O 0.3961 0.4738 0.77785 0.0
O265 O 0.32527 0.52592 0.79099 0.0
C266 C 0.67399 0.03564 0.68466 0.0
O267 O 0.66922 0.01088 0.6619 0.0
Cd268 Cd 0.63077 0.96027 0.66779 0.0
O269 O 0.6561 0.03623 0.71348 0.0
Cd270 Cd 0.60629 -0.00188 0.73656 0.0
C271 C 0.65911 0.92986 0.74862 0.0
O272 O 0.57499 0.98522 0.68122 0.0
O273 O 0.56441 0.94895 0.72449 0.0
O274 O 0.57387 0.04927 0.75715 0.0
C275 C 0.55595 0.96012 0.69391 0.0
O276 O 0.65572 0.92374 0.71535 0.0
C277 C 0.56571 0.03577 0.78714 0.0
O278 O 0.64586 0.95732 0.7626 0.0
O279 O 0.57855 0.00574 0.79442 0.0
C280 C 0.81818 0.55968 0.01331 0.0
O281 O 0.82966 0.56051 0.98149 0.0
Cd282 Cd 0.80189 0.59067 0.9339 0.0
O283 O 0.79061 0.57676 0.022 0.0
Cd284 Cd 0.74889 0.6167 -0.00743 0.0
C285 C 0.71861 0.55063 0.93984 0.0
O286 O 0.79289 0.64844 0.95732 0.0
O287 O 0.73833 0.65681 0.94222 0.0
O288 O 0.74896 0.65601 0.04431 0.0
C289 C 0.77094 0.66599 0.93935 0.0
O290 O 0.74696 0.55622 0.92185 0.0
C291 C 0.71527 0.6578 0.04592 0.0
O292 O 0.71333 0.56737 0.96875 0.0
O293 O 0.69743 0.63843 0.02415 0.0
C294 C 0.91125 0.41462 0.70236 0.0
O295 O 0.9066 0.39305 0.72799 0.0
Cd296 Cd 0.87373 0.40684 0.77978 0.0
O297 O 0.89638 0.44476 0.70225 0.0
Cd298 Cd 0.85215 0.47337 0.7415 0.0
C299 C 0.91441 0.48614 0.80416 0.0
O300 O 0.81625 0.42044 0.75623 0.0
O301 O 0.81035 0.46575 0.79086 0.0
O302 O 0.81988 0.49402 0.68979 0.0
C303 C 0.79855 0.4356 0.78022 0.0
O304 O 0.90914 0.45338 0.81183 0.0
C305 C 0.81444 0.52479 0.70259 0.0
O306 O 0.89793 0.49981 0.77828 0.0
O307 O 0.82874 0.53224 0.73241 0.0
C308 C 0.79915 0.31861 0.51991 0.0
O309 O 0.81896 0.32218 0.4927 0.0
Cd310 Cd 0.80305 0.35331 0.44081 0.0
O311 O 0.76916 0.33369 0.52168 0.0
Cd312 Cd 0.73683 0.37596 0.48342 0.0
C313 C 0.72223 0.31126 0.42362 0.0
O314 O 0.78948 0.40976 0.46587 0.0
O315 O 0.74265 0.41869 0.43431 0.0
O316 O 0.72076 0.40635 0.53771 0.0
C317 C 0.77406 0.42847 0.44299 0.0
O318 O 0.75452 0.3167 0.41427 0.0
C319 C 0.68975 0.41418 0.5273 0.0
O320 O 0.70926 0.32868 0.44937 0.0
O321 O 0.67987 0.40236 0.49704 0.0
C322 C 0.67098 0.42289 0.22456 0.0
O323 O 0.67055 0.41517 0.25747 0.0
Cd324 Cd 0.63603 0.44312 0.30217 0.0
O325 O 0.65179 0.4477 0.2126 0.0
Cd326 Cd 0.60961 0.48951 0.23897 0.0
C327 C 0.67071 0.52738 0.29231 0.0
O328 O 0.5785 0.44735 0.27691 0.0
O329 O 0.56897 0.50263 0.28828 0.0
O330 O 0.5694 0.4874 0.18788 0.0
C331 C 0.56036 0.47015 0.29321 0.0
O332 O 0.66504 0.501 0.31296 0.0
C333 C 0.56838 0.52106 0.18477 0.0
O334 O 0.65648 0.52836 0.26164 0.0
O335 O 0.58876 0.53945 0.20511 0.0
Fe336 Fe 0.12976 0.07074 0.15009 0.0
Fe337 Fe 0.09837 0.13702 0.11618 0.0
O338 O 0.13043 0.10339 0.11635 0.0
Fe339 Fe 0.16336 0.10227 0.08291 0.0
O340 O 0.14775 0.05839 0.06827 0.0
O341 O 0.14772 0.03553 0.12201 0.0
O342 O 0.0857 0.0552 0.13665 0.0
C343 C 0.05898 0.07486 0.13489 0.0
C344 C 0.20101 0.08477 0.14519 0.0
O345 O 0.06262 0.10849 0.13463 0.0
C346 C 0.16223 0.17348 0.09743 0.0
O347 O 0.11161 0.09964 0.18452 0.0
O348 O 0.11215 0.15254 0.16009 0.0
O349 O 0.19752 0.08352 0.11167 0.0
O350 O 0.17391 0.08476 0.1651 0.0
C351 C 0.10215 0.12329 0.04494 0.0
O352 O 0.12853 0.17136 0.09773 0.0
O353 O 0.18062 0.14587 0.09588 0.0
C354 C 0.11198 0.13318 0.18751 0.0
O355 O 0.08252 0.12384 0.07219 0.0
O356 O 0.13555 0.12116 0.04807 0.0
C357 C 0.14684 0.03164 0.08856 0.0
Fe358 Fe 0.06242 0.83963 0.36953 0.0
Fe359 Fe 0.09712 0.9042 0.3329 0.0
O360 O 0.09906 0.86992 0.36503 0.0
Fe361 Fe 0.13708 0.86593 0.39268 0.0
O362 O 0.14406 0.82048 0.37769 0.0
O363 O 0.08862 0.80208 0.38376 0.0
O364 O 0.06704 0.8241 0.32365 0.0
C365 C 0.06577 0.84485 0.29719 0.0
C366 C 0.07927 0.85243 0.43924 0.0
O367 O 0.07056 0.87806 0.30125 0.0
C368 C 0.13326 0.93874 0.39028 0.0
O369 O 0.0289 0.87121 0.3565 0.0
O370 O 0.05762 0.92246 0.35336 0.0
O371 O 0.11196 0.8505 0.43166 0.0
O372 O 0.05574 0.85366 0.41521 0.0
C373 C 0.16603 0.8841 0.32525 0.0
O374 O 0.12364 0.93636 0.35821 0.0
O375 O 0.13358 0.91135 0.40983 0.0
C376 C 0.02869 0.90482 0.35626 0.0
O377 O 0.13644 0.88878 0.31021 0.0
O378 O 0.16849 0.88057 0.3586 0.0
C379 C 0.12122 0.79543 0.38096 0.0
Fe380 Fe 0.36224 0.91107 0.64782 0.0
Fe381 Fe 0.3212 0.87849 0.58508 0.0
O382 O 0.3556 0.87604 0.61693 0.0
Fe383 Fe 0.38346 0.83911 0.61787 0.0
O384 O 0.37048 0.82861 0.66311 0.0
O385 O 0.37986 0.88291 0.68315 0.0
O386 O 0.31868 0.90261 0.66628 0.0
C387 C 0.29034 0.90294 0.64828 0.0
C388 C 0.43052 0.89801 0.6306 0.0
O389 O 0.29128 0.90304 0.61452 0.0
C390 C 0.37748 0.84806 0.54645 0.0
O391 O 0.34618 0.94595 0.61819 0.0
O392 O 0.34113 0.91866 0.56672 0.0
O393 O 0.42303 0.86494 0.63278 0.0
O394 O 0.40624 0.92056 0.63052 0.0
C395 C 0.31498 0.80869 0.60219 0.0
O396 O 0.34469 0.85391 0.55036 0.0
O397 O 0.39819 0.84752 0.57284 0.0
C398 C 0.34748 0.94656 0.58456 0.0
O399 O 0.29985 0.83823 0.60145 0.0
O400 O 0.34868 0.80711 0.60287 0.0
C401 C 0.37665 0.84974 0.68867 0.0
Fe402 Fe 0.40456 0.15895 0.86693 0.0
Fe403 Fe 0.37044 0.08919 0.83904 0.0
O404 O 0.37137 0.12475 0.87023 0.0
Fe405 Fe 0.33881 0.12665 0.9041 0.0
O406 O 0.32372 0.16941 0.88846 0.0
O407 O 0.37689 0.19422 0.88411 0.0
O408 O 0.38914 0.17046 0.82284 0.0
C409 C 0.38687 0.1489 0.79705 0.0
C410 C 0.40224 0.15041 0.93888 0.0
O411 O 0.38799 0.11569 0.80186 0.0
C412 C 0.35051 0.05554 0.9038 0.0
O413 O 0.43862 0.13001 0.84901 0.0
O414 O 0.4148 0.07608 0.85212 0.0
O415 O 0.36867 0.14754 0.93678 0.0
O416 O 0.42149 0.14982 0.91126 0.0
C417 C 0.29909 0.10218 0.84446 0.0
O418 O 0.35261 0.0563 0.87025 0.0
O419 O 0.35106 0.08388 0.92199 0.0
C420 C 0.44194 0.0966 0.85028 0.0
O421 O 0.32574 0.09997 0.82402 0.0
O422 O 0.30335 0.10606 0.87759 0.0
C423 C 0.34351 0.19692 0.88587 0.0
Fe424 Fe 0.56114 0.32945 0.87865 0.0
Fe425 Fe 0.60063 0.38925 0.83798 0.0
O426 O 0.59834 0.35911 0.87412 0.0
Fe427 Fe 0.63293 0.35843 0.90627 0.0
O428 O 0.64174 0.31218 0.89585 0.0
O429 O 0.58591 0.29397 0.8999 0.0
O430 O 0.56988 0.30842 0.83611 0.0
C431 C 0.57203 0.32529 0.80708 0.0
C432 C 0.57085 0.35058 0.94743 0.0
O433 O 0.57865 0.35855 0.80645 0.0
C434 C 0.62913 0.43022 0.89607 0.0
O435 O 0.52927 0.35867 0.85816 0.0
O436 O 0.55853 0.40911 0.85015 0.0
O437 O 0.6038 0.34593 0.94345 0.0
O438 O 0.54993 0.3492 0.92112 0.0
C439 C 0.6707 0.37288 0.84213 0.0
O440 O 0.6231 0.42477 0.86332 0.0
O441 O 0.62679 0.40496 0.91829 0.0
C442 C 0.52939 0.39179 0.85298 0.0
O443 O 0.6431 0.37237 0.82284 0.0
O444 O 0.66823 0.37115 0.87555 0.0
C445 C 0.61867 0.28728 0.89869 0.0
Fe446 Fe 0.82771 0.36612 0.0783 0.0
Fe447 Fe 0.86248 0.38981 0.14837 0.0
O448 O 0.85999 0.36019 0.11182 0.0
Fe449 Fe 0.89016 0.32526 0.10856 0.0
O450 O 0.90738 0.34252 0.06711 0.0
O451 O 0.8552 0.34883 0.04194 0.0
O452 O 0.84635 0.40964 0.06829 0.0
C453 C 0.84927 0.43465 0.09059 0.0
C454 C 0.82492 0.29429 0.08373 0.0
O455 O 0.8467 0.42856 0.12362 0.0
C456 C 0.87752 0.3229 0.17907 0.0
O457 O 0.79425 0.38411 0.10899 0.0
O458 O 0.8181 0.37667 0.16189 0.0
O459 O 0.85861 0.29458 0.08595 0.0
O460 O 0.80778 0.32261 0.08614 0.0
C461 C 0.93274 0.38304 0.13369 0.0
O462 O 0.87898 0.35663 0.17967 0.0
O463 O 0.87479 0.30627 0.15 0.0
C464 C 0.79103 0.37938 0.14231 0.0
O465 O 0.90727 0.40411 0.13639 0.0
O466 O 0.92705 0.34979 0.13049 0.0
C467 C 0.88868 0.34629 0.03964 0.0
Fe468 Fe 0.8416 0.62357 0.39192 0.0
Fe469 Fe 0.90642 0.65467 0.3522 0.0
O470 O 0.87059 0.62318 0.35496 0.0
Fe471 Fe 0.86373 0.59168 0.32024 0.0
O472 O 0.81949 0.60787 0.31092 0.0
O473 O 0.80211 0.60958 0.36667 0.0
O474 O 0.82958 0.66942 0.38358 0.0
C475 C 0.85192 0.69512 0.38319 0.0
C476 C 0.84525 0.5521 0.38202 0.0
O477 O 0.88428 0.68983 0.37657 0.0
C478 C 0.93598 0.59173 0.32533 0.0
O479 O 0.87626 0.6373 0.42346 0.0
O480 O 0.92642 0.63856 0.393 0.0
O481 O 0.84527 0.55671 0.34876 0.0
O482 O 0.85121 0.57782 0.40308 0.0
C483 C 0.88185 0.65465 0.28391 0.0
O484 O 0.93565 0.62535 0.32735 0.0
O485 O 0.90743 0.57337 0.32758 0.0
C486 C 0.90993 0.63672 0.42233 0.0
O487 O 0.8881 0.67285 0.31167 0.0
O488 O 0.88045 0.62104 0.28505 0.0
C489 C 0.79483 0.60838 0.33379 0.0
Fe490 Fe 0.88475 0.83705 0.85401 0.0
Fe491 Fe 0.81881 0.86894 0.88716 0.0
O492 O 0.85021 0.86771 0.85247 0.0
Fe493 Fe 0.84713 0.89727 0.81632 0.0
O494 O 0.89011 0.91722 0.82659 0.0
O495 O 0.91722 0.86639 0.83111 0.0
O496 O 0.9017 0.8561 0.89493 0.0
C497 C 0.88386 0.85778 0.92314 0.0
C498 C 0.86713 0.83246 0.78411 0.0
O499 O 0.8501 0.85523 0.92199 0.0
C500 C 0.77759 0.87853 0.8251 0.0
O501 O 0.8582 0.80253 0.8773 0.0
O502 O 0.80423 0.82361 0.87831 0.0
O503 O 0.86599 0.86624 0.78359 0.0
O504 O 0.86968 0.81632 0.81323 0.0
C505 C 0.83139 0.93951 0.87592 0.0
O506 O 0.78196 0.88288 0.85837 0.0
O507 O 0.80404 0.87866 0.80453 0.0
C508 C 0.82467 0.79755 0.87887 0.0
O509 O 0.83214 0.91413 0.89767 0.0
O510 O 0.82785 0.93363 0.84279 0.0
C511 C 0.91835 0.90016 0.82946 0.0
Fe512 Fe 0.87282 0.09453 0.6489 0.0
Fe513 Fe 0.84235 0.12941 0.58253 0.0
O514 O 0.87488 0.12819 0.61624 0.0
Fe515 Fe 0.90958 0.16086 0.61712 0.0
O516 O 0.89526 0.17637 0.66015 0.0
O517 O 0.8913 0.12325 0.68457 0.0
O518 O 0.82904 0.10767 0.66355 0.0
C519 C 0.80228 0.10869 0.64332 0.0
C520 C 0.94432 0.09812 0.63627 0.0
O521 O 0.80633 0.11067 0.60991 0.0
C522 C 0.90625 0.1462 0.54626 0.0
O523 O 0.85397 0.06024 0.61872 0.0
O524 O 0.85418 0.08604 0.56632 0.0
O525 O 0.94265 0.13174 0.63688 0.0
O526 O 0.91625 0.079 0.63629 0.0
C527 C 0.84942 0.19999 0.59721 0.0
O528 O 0.87271 0.14793 0.54893 0.0
O529 O 0.92556 0.14693 0.57379 0.0
C530 C 0.85383 0.05823 0.58498 0.0
O531 O 0.82869 0.17305 0.59686 0.0
O532 O 0.88285 0.19609 0.59767 0.0
C533 C 0.89193 0.15697 0.68733 0.0
Fe534 Fe 0.61556 0.07827 0.33451 0.0
Fe535 Fe 0.65044 0.1109 0.40086 0.0
O536 O 0.61594 0.11041 0.36893 0.0
Fe537 Fe 0.58197 0.14191 0.37131 0.0
O538 O 0.59286 0.15891 0.3276 0.0
O539 O 0.59381 0.10674 0.30138 0.0
O540 O 0.65781 0.09524 0.31767 0.0
C541 C 0.68601 0.09693 0.33598 0.0
C542 C 0.54567 0.07728 0.35398 0.0
O543 O 0.68443 0.09464 0.36971 0.0
C544 C 0.58926 0.12716 0.44179 0.0
O545 O 0.637 0.04374 0.36129 0.0
O546 O 0.63811 0.06625 0.41529 0.0
O547 O 0.54692 0.11113 0.35386 0.0
O548 O 0.57355 0.05979 0.34987 0.0
C549 C 0.64493 0.18176 0.38718 0.0
O550 O 0.62283 0.12793 0.43768 0.0
O551 O 0.56891 0.12693 0.41514 0.0
C552 C 0.638 0.03951 0.3948 0.0
O553 O 0.66459 0.15512 0.38784 0.0
O554 O 0.61128 0.17799 0.38921 0.0
C555 C 0.59239 0.1404 0.29957 0.0
Fe556 Fe 0.58152 0.81193 0.12519 0.0
Fe557 Fe 0.64464 0.85151 0.09006 0.0
O558 O 0.61264 0.84808 0.12433 0.0
Fe559 Fe 0.61132 0.88084 0.15792 0.0
O560 O 0.56656 0.89249 0.14522 0.0
O561 O 0.54612 0.83734 0.14612 0.0
O562 O 0.56336 0.82518 0.08297 0.0
C563 C 0.58103 0.83042 0.05488 0.0
C564 C 0.59869 0.81684 0.19536 0.0
O565 O 0.61485 0.83218 0.05566 0.0
C566 C 0.68274 0.87275 0.15254 0.0
O567 O 0.61106 0.77999 0.10404 0.0
O568 O 0.66255 0.80872 0.10146 0.0
O569 O 0.59529 0.85014 0.19226 0.0
O570 O 0.59799 0.79703 0.16807 0.0
C571 C 0.62856 0.92156 0.09658 0.0
O572 O 0.67948 0.87166 0.11886 0.0
O573 O 0.65572 0.87093 0.17234 0.0
C574 C 0.64471 0.77986 0.10243 0.0
O575 O 0.62921 0.89478 0.07627 0.0
O576 O 0.62771 0.91747 0.12995 0.0
C577 C 0.5406 0.87049 0.14619 0.0
Fe578 Fe 0.4125 0.65489 0.11155 0.0
Fe579 Fe 0.34593 0.62446 0.07474 0.0
O580 O 0.37699 0.62304 0.10976 0.0
Fe581 Fe 0.37255 0.58999 0.14284 0.0
O582 O 0.41594 0.57307 0.13234 0.0
O583 O 0.44394 0.62504 0.13306 0.0
O584 O 0.42993 0.63999 0.06901 0.0
C585 C 0.4115 0.63878 0.04086 0.0
C586 C 0.39151 0.65243 0.18102 0.0
O587 O 0.37803 0.64178 0.04227 0.0
C588 C 0.30263 0.60524 0.13388 0.0
O589 O 0.3875 0.69047 0.09027 0.0
O590 O 0.33284 0.66859 0.08795 0.0
O591 O 0.39032 0.61871 0.17873 0.0
O592 O 0.39678 0.67145 0.15381 0.0
C593 C 0.35569 0.5532 0.07881 0.0
O594 O 0.30832 0.60679 0.10073 0.0
O595 O 0.32849 0.60453 0.15535 0.0
C596 C 0.35424 0.69502 0.08786 0.0
O597 O 0.35745 0.58063 0.05966 0.0
O598 O 0.35414 0.55581 0.11245 0.0
C599 C 0.44456 0.59131 0.13273 0.0
Fe600 Fe 0.10715 0.57058 0.83776 0.0
Fe601 Fe 0.13904 0.60797 0.90312 0.0
O602 O 0.10571 0.60479 0.87001 0.0
Fe603 Fe 0.07127 0.63587 0.86909 0.0
O604 O 0.08376 0.65039 0.82497 0.0
O605 O 0.08716 0.59689 0.80178 0.0
O606 O 0.15009 0.58671 0.82196 0.0
C607 C 0.17743 0.58982 0.84133 0.0
C608 C 0.03619 0.5699 0.85261 0.0
O609 O 0.17446 0.58969 0.87498 0.0
C610 C 0.07632 0.6259 0.94053 0.0
O611 O 0.12715 0.53807 0.86807 0.0
O612 O 0.12646 0.5645 0.92032 0.0
O613 O 0.03722 0.60375 0.85182 0.0
O614 O 0.06447 0.55265 0.85179 0.0
C615 C 0.13314 0.67762 0.88473 0.0
O616 O 0.10996 0.62721 0.93733 0.0
O617 O 0.05675 0.62334 0.91333 0.0
C618 C 0.12645 0.53635 0.90187 0.0
O619 O 0.15316 0.65133 0.8873 0.0
O620 O 0.09948 0.67342 0.88591 0.0
C621 C 0.0854 0.63038 0.79808 0.0
Fe622 Fe 0.14476 0.35957 0.57798 0.0
Fe623 Fe 0.08079 0.31805 0.60918 0.0
O624 O 0.11104 0.35494 0.61051 0.0
Fe625 Fe 0.10712 0.38708 0.64445 0.0
O626 O 0.15127 0.3786 0.6608 0.0
O627 O 0.17763 0.38016 0.60859 0.0
O628 O 0.16308 0.31701 0.58986 0.0
C629 C 0.1458 0.28777 0.58928 0.0
C630 C 0.12587 0.42899 0.5843 0.0
O631 O 0.11211 0.28739 0.58885 0.0
C632 C 0.03712 0.37473 0.62959 0.0
O633 O 0.1173 0.34001 0.54193 0.0
O634 O 0.06446 0.33193 0.5663 0.0
O635 O 0.12333 0.42458 0.61759 0.0
O636 O 0.12905 0.40258 0.56385 0.0
C637 C 0.09587 0.32202 0.68 0.0
O638 O 0.04367 0.34183 0.62906 0.0
O639 O 0.06245 0.39747 0.63009 0.0
C640 C 0.08363 0.33762 0.5392 0.0
O641 O 0.09571 0.30258 0.65245 0.0
O642 O 0.09083 0.35514 0.67757 0.0
C643 C 0.17923 0.38081 0.64235 0.0
Fe644 Fe 0.6519 0.60947 0.58248 0.0
Fe645 Fe 0.62175 0.58225 0.65294 0.0
O646 O 0.62137 0.61331 0.6179 0.0
Fe647 Fe 0.59047 0.64808 0.6183 0.0
O648 O 0.5712 0.63299 0.57649 0.0
O649 O 0.62217 0.62764 0.5487 0.0
O650 O 0.63433 0.5654 0.5708 0.0
C651 C 0.6347 0.53955 0.59224 0.0
C652 C 0.65407 0.68125 0.59413 0.0
O653 O 0.63648 0.54512 0.62544 0.0
C654 C 0.60833 0.64713 0.68854 0.0
O655 O 0.68728 0.59085 0.60987 0.0
O656 O 0.66723 0.59502 0.66462 0.0
O657 O 0.62039 0.68052 0.59607 0.0
O658 O 0.67124 0.65289 0.59248 0.0
C659 C 0.55045 0.58831 0.64221 0.0
O660 O 0.60692 0.61348 0.68699 0.0
O661 O 0.60772 0.66526 0.66033 0.0
C662 C 0.69289 0.59245 0.64312 0.0
O663 O 0.57658 0.56788 0.6428 0.0
O664 O 0.55504 0.62179 0.64051 0.0
C665 C 0.58857 0.62951 0.54805 0.0
Fe666 Fe 0.39165 0.35561 0.37981 0.0
Fe667 Fe 0.35958 0.41856 0.34167 0.0
O668 O 0.35899 0.3881 0.37721 0.0
Fe669 Fe 0.32576 0.39004 0.41026 0.0
O670 O 0.30943 0.34564 0.39926 0.0
O671 O 0.36227 0.32215 0.40107 0.0
O672 O 0.37756 0.33627 0.33811 0.0
C673 C 0.3767 0.35301 0.30922 0.0
C674 C 0.38821 0.37372 0.44921 0.0
O675 O 0.37774 0.38688 0.30914 0.0
C676 C 0.34264 0.46029 0.40159 0.0
O677 O 0.42669 0.38307 0.35865 0.0
O678 O 0.40328 0.43569 0.35398 0.0
O679 O 0.35448 0.37352 0.44628 0.0
O680 O 0.4073 0.37343 0.42172 0.0
C681 C 0.28877 0.40263 0.34642 0.0
O682 O 0.3413 0.45536 0.36814 0.0
O683 O 0.34067 0.43433 0.42272 0.0
C684 C 0.43027 0.41662 0.35593 0.0
O685 O 0.3163 0.40285 0.32741 0.0
O686 O 0.29111 0.40659 0.37994 0.0
C687 C 0.32862 0.31862 0.39958 0.0
C688 C 0.09343 0.20326 0.25728 0.0
C689 C 0.07773 0.18303 0.28485 0.0
C690 C 0.10647 0.18678 0.22662 0.0
C691 C 0.10471 0.14946 0.2227 0.0
H692 H 0.09325 0.23213 0.25812 0.0
H693 H 0.11637 0.20353 0.20516 0.0
S694 S 0.0731 0.08453 0.29112 0.0
N695 N 0.06582 0.12397 0.30892 0.0
N696 N 0.09125 0.09261 0.25182 0.0
C697 C 0.0924 0.12886 0.25181 0.0
C698 C 0.07861 0.14576 0.28276 0.0
C699 C 0.02274 0.85332 0.52149 0.0
C700 C 0.03422 0.82302 0.54001 0.0
C701 C 0.03889 0.86405 0.48969 0.0
C702 C 0.06772 0.84557 0.47589 0.0
H703 H -0.00058 0.8674 0.53014 0.0
H704 H 0.0277 0.8859 0.47496 0.0
S705 S 0.11199 0.76844 0.51665 0.0
N706 N 0.07903 0.77736 0.54415 0.0
N707 N 0.11009 0.79844 0.48466 0.0
C708 C 0.08192 0.81762 0.4958 0.0
C709 C 0.06507 0.80621 0.52797 0.0
C710 C 0.4364 0.84095 0.76869 0.0
C711 C 0.43096 0.80512 0.77835 0.0
C712 C 0.41671 0.85588 0.74119 0.0
C713 C 0.39128 0.83532 0.72192 0.0
H714 H 0.45653 0.85745 0.78196 0.0
H715 H 0.42294 0.88323 0.73383 0.0
S716 S 0.36503 0.7409 0.73863 0.0
N717 N 0.39659 0.74999 0.76827 0.0
N718 N 0.35993 0.77807 0.71597 0.0
C719 C 0.38445 0.79988 0.73232 0.0
C720 C 0.40422 0.78477 0.7607 0.0
C721 C 0.40696 0.17027 0.03705 0.0
C722 C 0.42993 0.20023 0.03803 0.0
C723 C 0.40052 0.15213 0.0049 0.0
C724 C 0.41696 0.16347 0.97297 0.0
H725 H 0.39289 0.16171 0.06086 0.0
H726 H 0.38116 0.13018 0.00464 0.0
S727 S 0.48012 0.24043 0.96266 0.0
N728 N 0.47011 0.24004 0.00552 0.0
N729 N 0.458 0.20609 0.94489 0.0
C730 C 0.44139 0.19247 0.97421 0.0
C731 C 0.44777 0.21094 0.00688 0.0
C732 C 0.02376 0.84781 0.20575 0.0
C733 C 0.02006 0.81182 0.19613 0.0
C734 C 0.0397 0.85791 0.23791 0.0
C735 C 0.05208 0.83237 0.26219 0.0
H736 H 0.01354 0.86838 0.18861 0.0
H737 H 0.04111 0.88612 0.24416 0.0
S738 S 0.04989 0.73439 0.24866 0.0
N739 N 0.03121 0.75033 0.21235 0.0
N740 N 0.06094 0.76943 0.27349 0.0
C741 C 0.0495 0.79621 0.25243 0.0
C742 C 0.03362 0.78591 0.2192 0.0
C743 C 0.44027 0.82208 0.47344 0.0
C744 C 0.42026 0.79583 0.45479 0.0
C745 C 0.42559 0.84027 0.50221 0.0
C746 C 0.3902 0.83337 0.51268 0.0
H747 H 0.46797 0.82753 0.46683 0.0
H748 H 0.44232 0.85911 0.51699 0.0
S749 S 0.32561 0.76953 0.47053 0.0
N750 N 0.36265 0.76539 0.44732 0.0
N751 N 0.33474 0.80023 0.50108 0.0
C752 C 0.36925 0.80867 0.49303 0.0
C753 C 0.3844 0.78965 0.46415 0.0
C754 C 0.41616 0.16507 0.70236 0.0
C755 C 0.39705 0.1955 0.69314 0.0
C756 C 0.41139 0.14879 0.73559 0.0
C757 C 0.38783 0.16281 0.76072 0.0
H758 H 0.43633 0.15489 0.68468 0.0
H759 H 0.42776 0.12643 0.74242 0.0
S760 S 0.32687 0.2376 0.74799 0.0
N761 N 0.34957 0.23551 0.71041 0.0
N762 N 0.34199 0.20536 0.7732 0.0
C763 C 0.3667 0.19135 0.75108 0.0
C764 C 0.37085 0.2075 0.71707 0.0
C765 C 0.03426 0.14343 0.9735 0.0
C766 C 0.05485 0.16239 0.94826 0.0
C767 C 0.05001 0.12919 0.004 0.0
C768 C 0.08695 0.13289 0.00994 0.0
H769 H 0.0055 0.14158 0.97092 0.0
H770 H 0.03294 0.11643 0.02371 0.0
S771 S 0.15308 0.17568 0.94878 0.0
N772 N 0.11425 0.18092 0.92904 0.0
N773 N 0.14417 0.15362 0.98582 0.0
C774 C 0.10815 0.1493 0.98332 0.0
C775 C 0.09199 0.16424 0.95261 0.0
C776 C 0.29224 0.04648 0.15651 0.0
C777 C 0.29925 0.05228 0.19286 0.0
C778 C 0.26142 0.05931 0.14066 0.0
C779 C 0.23619 0.07782 0.16083 0.0
H780 H 0.3097 0.03025 0.14062 0.0
H781 H 0.25629 0.05258 0.11299 0.0
S782 S 0.24448 0.10434 0.2558 0.0
N783 N 0.28058 0.08143 0.24766 0.0
N784 N 0.22223 0.10503 0.21783 0.0
C785 C 0.24418 0.08615 0.1965 0.0
C786 C 0.27589 0.07356 0.21253 0.0
C787 C 0.18353 0.0071 0.44756 0.0
C788 C 0.19487 0.03253 0.42226 0.0
C789 C 0.16229 0.97738 0.43749 0.0
C790 C 0.15113 0.9726 0.40193 0.0
H791 H 0.19257 0.00925 0.47495 0.0
H792 H 0.1555 0.95756 0.45746 0.0
S793 S 0.17023 0.03502 0.32676 0.0
N794 N 0.19138 0.05302 0.36122 0.0
N795 N 0.15049 -0.00161 0.34208 0.0
C796 C 0.16055 -0.00057 0.37693 0.0
C797 C 0.18274 0.02906 0.38714 0.0
C798 C 0.22419 0.90266 0.72345 0.0
C799 C 0.19527 0.92079 0.70897 0.0
C800 C 0.25428 0.89599 0.70305 0.0
C801 C 0.25648 0.90684 0.66731 0.0
H802 H 0.22457 0.89516 0.7513 0.0
H803 H 0.27645 0.8831 0.71576 0.0
S804 S 0.18576 0.95008 0.61503 0.0
N805 N 0.16889 0.94573 0.65545 0.0
N806 N 0.22578 0.93291 0.61694 0.0
C807 C 0.22673 0.92246 0.65158 0.0
C808 C 0.19602 0.92951 0.67248 0.0
C809 C 0.33241 0.9577 0.91626 0.0
C810 C 0.29787 0.95731 0.93061 0.0
C811 C 0.35081 -0.01001 0.90997 0.0
C812 C 0.33572 0.02262 0.91919 0.0
H813 H 0.3447 0.933 0.90862 0.0
H814 H 0.37642 -0.01045 0.89666 0.0
S815 S 0.2475 0.03538 0.96107 0.0
N816 N 0.25015 -0.00822 0.95607 0.0
N817 N 0.28525 0.05256 0.94528 0.0
C818 C 0.30203 0.0224 0.93546 0.0
C819 C 0.2829 -0.01036 0.94088 0.0
C820 C 0.23569 0.94492 0.28681 0.0
C821 C 0.2667 0.92533 0.29159 0.0
C822 C 0.20213 0.9296 0.29391 0.0
C823 C 0.19881 0.89459 0.30683 0.0
H824 H 0.23741 0.97243 0.27811 0.0
H825 H 0.17893 0.94607 0.29177 0.0
S826 S 0.27167 0.83177 0.32202 0.0
N827 N 0.29199 0.86852 0.30747 0.0
N828 N 0.2287 0.8403 0.32273 0.0
C829 C 0.22945 0.87434 0.31043 0.0
C830 C 0.26354 0.8896 0.3023 0.0
C831 C 0.32656 0.0404 0.55906 0.0
C832 C 0.33858 0.04197 0.52352 0.0
C833 C 0.33189 0.01023 0.57992 0.0
C834 C 0.34922 0.98069 0.56577 0.0
H835 H 0.31077 0.0615 0.57015 0.0
H836 H 0.32007 0.00904 0.60624 0.0
S837 S 0.39374 0.97477 0.47797 0.0
N838 N 0.37478 0.01399 0.4778 0.0
N839 N 0.38416 0.95702 0.51711 0.0
C840 C 0.36478 0.98338 0.5319 0.0
C841 C 0.35974 0.01422 0.51075 0.0
C842 C 0.22574 0.06163 0.78686 0.0
C843 C 0.19769 0.05747 0.8114 0.0
C844 C 0.25797 0.07853 0.79683 0.0
C845 C 0.26288 0.09213 0.83153 0.0
H846 H 0.22369 0.04955 0.76063 0.0
H847 H 0.27974 0.07902 0.77788 0.0
S848 S 0.19379 0.09469 0.90261 0.0
N849 N 0.17445 0.07227 0.86962 0.0
N850 N 0.23416 0.10574 0.88829 0.0
C851 C 0.23338 0.09128 0.85499 0.0
C852 C 0.201 0.07336 0.84499 0.0
C853 C 0.19193 0.94453 0.07336 0.0
C854 C 0.17782 0.93314 0.04037 0.0
C855 C 0.18017 0.97555 0.0898 0.0
C856 C 0.15426 -0.00354 0.07357 0.0
H857 H 0.2135 0.93044 0.08575 0.0
H858 H 0.19301 0.98431 0.11433 0.0
S859 S 0.10468 0.9756 -0.00954 0.0
N860 N 0.13305 0.94292 -0.00554 0.0
N861 N 0.11174 0.00188 0.0253 0.0
C862 C 0.13815 0.98426 0.04198 0.0
C863 C 0.14965 0.9523 0.02545 0.0
C864 C 0.17989 0.2679 0.06661 0.0
C865 C 0.21585 0.27407 0.07602 0.0
C866 C 0.16222 0.23578 0.07505 0.0
C867 C 0.17997 0.20857 0.09291 0.0
H868 H 0.16556 0.2874 0.05138 0.0
H869 H 0.13498 0.23167 0.066 0.0
S870 S 0.27225 0.21298 0.12823 0.0
N871 N 0.26728 0.25152 0.10797 0.0
N872 N 0.23389 0.19098 0.12327 0.0
C873 C 0.21512 0.21505 0.1044 0.0
C874 C 0.23308 0.24789 0.09618 0.0
C875 C 0.67583 0.20593 0.90231 0.0
C876 C 0.65711 0.18355 0.92627 0.0
C877 C 0.66274 0.23914 0.89277 0.0
C878 C 0.63015 0.25079 0.90626 0.0
H879 H 0.70189 0.19884 0.89259 0.0
H880 H 0.6787 0.2562 0.87545 0.0
S881 S 0.56902 0.20034 0.96668 0.0
N882 N 0.60314 0.17402 0.96104 0.0
N883 N 0.578 0.23617 0.94254 0.0
C884 C 0.60999 0.22763 0.92832 0.0
C885 C 0.62361 0.19404 0.93846 0.0
C886 C 0.02229 0.39075 0.1786 0.0
C887 C 0.03463 0.4248 0.16816 0.0
C888 C -0.00999 0.37652 0.16564 0.0
C889 C 0.96872 0.39629 0.14253 0.0
H890 H 0.03724 0.37534 0.19756 0.0
H891 H 0.98085 0.35064 0.17519 0.0
S892 S -0.00986 0.48553 0.10524 0.0
N893 N 0.02427 0.47693 0.13141 0.0
N894 N 0.96287 0.45036 0.1079 0.0
C895 C 0.98128 0.42975 0.13085 0.0
C896 C 0.01452 0.44396 0.14342 0.0
C897 C 0.7957 0.76975 0.41843 0.0
C898 C 0.82084 0.79124 0.43706 0.0
C899 C 0.8061 0.73943 0.39964 0.0
C900 C 0.84205 0.72993 0.39832 0.0
H901 H 0.76752 0.77514 0.42005 0.0
H902 H 0.7857 0.72268 0.38709 0.0
S903 S 0.91872 0.78007 0.43919 0.0
N904 N 0.88344 0.80286 0.45053 0.0
N905 N 0.90327 0.74633 0.41488 0.0
C906 C 0.86774 0.75266 0.41485 0.0
C907 C 0.85705 0.7832 0.43434 0.0
C908 C 0.96437 0.06078 0.16694 0.0
C909 C 0.95664 0.0252 0.15703 0.0
C910 C -0.00298 0.0773 0.15816 0.0
C911 C 0.02317 0.05871 0.13944 0.0
H912 H 0.94583 0.07555 0.18302 0.0
H913 H 0.00246 0.10419 0.16771 0.0
S914 S 0.01413 0.96748 0.10185 0.0
N915 N 0.97628 0.97362 0.12312 0.0
N916 N 0.03785 0.00477 0.10735 0.0
C917 C 0.015 0.02411 0.12725 0.0
C918 C 0.98163 0.00735 0.13579 0.0
C919 C 0.25691 0.75115 0.54313 0.0
C920 C 0.26545 0.71676 0.55398 0.0
C921 C 0.27084 0.78098 0.56113 0.0
C922 C 0.29463 0.77719 0.58981 0.0
H923 H 0.23992 0.75501 0.52014 0.0
H924 H 0.26475 0.80714 0.55101 0.0
S925 S 0.32364 0.69243 0.62934 0.0
N926 N 0.29683 0.68004 0.5963 0.0
N927 N 0.32476 0.7365 0.62927 0.0
C928 C 0.30247 0.74283 0.60158 0.0
C929 C 0.28739 0.71241 0.58384 0.0
C930 C 0.02346 0.57879 0.27794 0.0
C931 C 0.03096 0.54311 0.28529 0.0
C932 C -0.00681 0.59452 0.292 0.0
C933 C 0.96892 0.57491 0.31334 0.0
H934 H 0.04081 0.59456 0.26073 0.0
H935 H -0.01182 0.62195 0.28504 0.0
S936 S 0.97702 0.48093 0.34157 0.0
N937 N 0.01247 0.48887 0.31648 0.0
N938 N 0.95501 0.51846 0.34234 0.0
C939 C 0.97643 0.53943 0.32153 0.0
C940 C 0.00765 0.52354 0.30771 0.0
C941 C 0.46634 0.45517 0.80874 0.0
C942 C 0.43597 0.43315 0.80318 0.0
C943 C 0.49584 0.44267 0.82742 0.0
C944 C 0.49561 0.4079 0.84144 0.0
H945 H 0.46834 0.48121 0.79636 0.0
H946 H 0.51965 0.45958 0.82893 0.0
S947 S 0.41858 0.34324 0.84038 0.0
N948 N 0.40498 0.37747 0.81695 0.0
N949 N 0.45943 0.35415 0.85359 0.0
C950 C 0.46363 0.38719 0.83914 0.0
C951 C 0.43407 0.39972 0.81946 0.0
C952 C 0.90276 0.81322 0.69265 0.0
C953 C 0.90707 0.77605 0.69352 0.0
C954 C 0.88686 0.83111 0.72089 0.0
C955 C 0.87481 0.81249 0.75112 0.0
H956 H 0.91359 0.82902 0.6709 0.0
H957 H 0.88636 0.85995 0.71996 0.0
S958 S 0.87227 0.7141 0.76267 0.0
N959 N 0.89263 0.72056 0.72415 0.0
N960 N 0.86227 0.75414 0.77741 0.0
C961 C 0.87537 0.77489 0.75057 0.0
C962 C 0.89163 0.75665 0.72168 0.0
C963 C 0.91059 0.16187 0.44768 0.0
C964 C 0.94435 0.17818 0.44356 0.0
C965 C 0.89985 0.14822 0.48057 0.0
C966 C 0.92225 0.15121 0.51064 0.0
H967 H 0.89143 0.16205 0.42604 0.0
H968 H 0.87278 0.13772 0.48297 0.0
S969 S 0.01579 0.18601 0.51155 0.0
N970 N 0.00214 0.19195 0.47017 0.0
N971 N 0.98187 0.16669 0.53263 0.0
C972 C 0.95755 0.16392 0.50581 0.0
C973 C 0.96862 0.17744 0.472 0.0
C974 C 0.57174 0.2139 0.23427 0.0
C975 C 0.55557 0.19527 0.20571 0.0
C976 C 0.58541 0.19575 0.2636 0.0
C977 C 0.58369 0.15822 0.26548 0.0
H978 H 0.57192 0.24277 0.23509 0.0
H979 H 0.59603 0.21142 0.28568 0.0
S980 S 0.54992 0.09689 0.19448 0.0
N981 N 0.54292 0.13717 0.17881 0.0
N982 N 0.56882 0.10301 0.23386 0.0
C983 C 0.57044 0.13921 0.23566 0.0
C984 C 0.5563 0.15775 0.20583 0.0
C985 C 0.56256 0.81909 0.95627 0.0
C986 C 0.52509 0.82031 0.95442 0.0
C987 C 0.58064 0.82394 -0.01139 0.0
C988 C 0.56196 0.83009 0.02037 0.0
H989 H 0.57805 0.81255 0.93291 0.0
H990 H 0.60931 0.82116 -0.01112 0.0
S991 S 0.46437 0.84222 0.02904 0.0
N992 N 0.47039 0.83285 -0.0135 0.0
N993 N 0.50442 0.84217 0.04725 0.0
C994 C 0.5248 0.83431 0.01846 0.0
C995 C 0.50637 0.82948 0.98547 0.0
C996 C 0.9216 0.17173 0.78232 0.0
C997 C 0.91832 0.20882 0.78662 0.0
C998 C 0.91067 0.15455 0.75092 0.0
C999 C 0.8962 0.17387 0.72263 0.0
H1000 H 0.93457 0.15603 0.80249 0.0
H1001 H 0.91573 0.12639 0.74802 0.0
S1002 S 0.87447 0.26979 0.72333 0.0
N1003 N 0.89403 0.26317 0.76209 0.0
N1004 N 0.87357 0.23071 0.70296 0.0
C1005 C 0.88953 0.21022 0.72785 0.0
C1006 C 0.9005 0.22774 0.75992 0.0
C1007 C 0.57463 0.17269 0.5304 0.0
C1008 C 0.53801 0.16598 0.53658 0.0
C1009 C 0.59203 0.15758 0.50116 0.0
C1010 C 0.57339 0.13534 0.47691 0.0
H1011 H 0.58962 0.19138 0.54706 0.0
H1012 H 0.61957 0.16542 0.49621 0.0
S1013 S 0.47924 0.10357 0.48484 0.0
N1014 N 0.48519 0.13117 0.51885 0.0
N1015 N 0.51787 0.10303 0.46384 0.0
C1016 C 0.53768 0.12586 0.48453 0.0
C1017 C 0.52 0.14109 0.51439 0.0
C1018 C 0.5569 0.7598 0.26661 0.0
C1019 C 0.55796 0.78363 0.2956 0.0
C1020 C 0.57405 0.76863 0.23456 0.0
C1021 C 0.59272 0.80144 0.23099 0.0
H1022 H 0.53969 0.73615 0.26736 0.0
H1023 H 0.56954 0.75145 0.21164 0.0
S1024 S 0.6115 0.86756 0.30282 0.0
N1025 N 0.58466 0.83738 0.32136 0.0
N1026 N 0.61798 0.85362 0.26159 0.0
C1027 C 0.59816 0.82275 0.26156 0.0
C1028 C 0.58033 0.81399 0.29384 0.0
C1029 C 0.89901 0.82983 0.0178 0.0
C1030 C 0.93604 0.82489 0.01867 0.0
C1031 C 0.88256 0.8437 -0.01224 0.0
C1032 C 0.90253 0.85296 0.95739 0.0
H1033 H 0.88221 0.821 0.03969 0.0
H1034 H 0.85373 0.84476 -0.01242 0.0
S1035 S 0.00131 0.85322 0.94964 0.0
N1036 N -0.00705 0.83607 -0.01067 0.0
N1037 N 0.96209 0.86265 0.93259 0.0
C1038 C 0.94005 0.85206 0.95951 0.0
C1039 C 0.95683 0.83785 -0.00974 0.0
C1040 C 0.70883 0.88766 0.7532 0.0
C1041 C 0.68304 0.9081 0.77026 0.0
C1042 C 0.73793 0.87508 0.77213 0.0
C1043 C 0.74217 0.88247 0.80874 0.0
H1044 H 0.70822 0.88375 0.72458 0.0
H1045 H 0.75852 0.86168 0.75739 0.0
S1046 S 0.67672 0.92619 0.8674 0.0
N1047 N 0.65948 0.92864 0.827 0.0
N1048 N 0.71448 0.9051 0.86264 0.0
C1049 C 0.7142 0.89875 0.82694 0.0
C1050 C 0.68453 0.91164 0.80762 0.0
C1051 C 0.82167 0.9629 0.57282 0.0
C1052 C 0.81812 0.95968 0.53563 0.0
C1053 C 0.83536 -0.00584 0.58846 0.0
C1054 C 0.84585 0.02357 0.56747 0.0
H1055 H 0.81255 0.94156 0.59028 0.0
H1056 H 0.83605 -0.00425 0.61724 0.0
S1057 S 0.84716 0.0267 0.46848 0.0
N1058 N 0.82996 -0.0131 0.47794 0.0
N1059 N 0.85595 0.04591 0.50727 0.0
C1060 C 0.84495 0.01977 0.53009 0.0
C1061 C 0.83102 -0.01223 0.51414 0.0
C1062 C 0.75318 0.08294 0.26213 0.0
C1063 C 0.78477 0.07685 0.28105 0.0
C1064 C 0.7218 0.0916 0.27998 0.0
C1065 C 0.72085 0.09461 0.31744 0.0
H1066 H 0.75186 0.07832 0.23363 0.0
H1067 H 0.69769 0.09394 0.26434 0.0
S1068 S 0.79874 0.08952 0.37827 0.0
N1069 N 0.81486 0.08033 0.33845 0.0
N1070 N 0.75602 0.09699 0.37208 0.0
C1071 C 0.75323 0.09235 0.33622 0.0
C1072 C 0.78516 0.08338 0.318 0.0
C1073 C 0.66062 -0.00747 0.03173 0.0
C1074 C 0.67274 0.01972 0.05487 0.0
C1075 C 0.64368 0.96164 0.04515 0.0
C1076 C 0.63808 0.95727 0.08206 0.0
H1077 H 0.66661 -0.00607 0.00352 0.0
H1078 H 0.63691 0.94026 0.02667 0.0
S1079 S 0.65855 0.02499 0.15235 0.0
N1080 N 0.6738 0.04312 0.11518 0.0
N1081 N 0.64098 0.98588 0.14061 0.0
C1082 C 0.64686 -0.0138 0.10485 0.0
C1083 C 0.66458 0.01722 0.09119 0.0
C1084 C 0.70719 0.07444 0.64266 0.0
C1085 C 0.70231 0.06241 0.6777 0.0
C1086 C 0.73848 0.09258 0.63267 0.0
C1087 C 0.76649 0.09859 0.65718 0.0
H1088 H 0.68747 0.06805 0.62233 0.0
H1089 H 0.74156 0.09962 0.60484 0.0
S1090 S 0.76386 0.07755 0.75383 0.0
N1091 N 0.72534 0.06188 0.73821 0.0
N1092 N 0.78489 0.09565 0.71944 0.0
C1093 C 0.76046 0.08966 0.69318 0.0
C1094 C 0.72815 0.07156 0.70344 0.0
C1095 C 0.65798 0.96835 0.4629 0.0
C1096 C 0.67297 0.94131 0.44211 0.0
C1097 C 0.6449 -0.00083 0.44716 0.0
C1098 C 0.64601 0.00409 0.40999 0.0
H1099 H 0.65841 0.96687 0.49173 0.0
H1100 H 0.6353 0.01999 0.46449 0.0
S1101 S 0.67656 0.93814 0.34329 0.0
N1102 N 0.68377 0.91918 0.38218 0.0
N1103 N 0.65888 0.97693 0.35249 0.0
C1104 C 0.65793 0.97578 0.38869 0.0
C1105 C 0.6715 0.94445 0.40478 0.0
C1106 C 0.7727 0.91882 0.16063 0.0
C1107 C 0.77658 0.92344 0.19768 0.0
C1108 C 0.74351 0.89997 0.14629 0.0
C1109 C 0.71691 0.88513 0.16845 0.0
H1110 H 0.79161 0.93107 0.14229 0.0
H1111 H 0.74089 0.89884 0.11755 0.0
S1112 S 0.71786 0.88414 0.26748 0.0
N1113 N 0.75388 0.90777 0.25644 0.0
N1114 N 0.69885 0.87195 0.22949 0.0
C1115 C 0.72193 0.88703 0.20566 0.0
C1116 C 0.75177 0.90634 0.2203 0.0
C1117 C 0.78921 0.02607 0.89945 0.0
C1118 C 0.80627 0.03486 0.93199 0.0
C1119 C 0.79964 -0.00326 0.87914 0.0
C1120 C 0.82737 0.97534 0.89083 0.0
H1121 H 0.76609 0.04038 0.89071 0.0
H1122 H 0.7841 -0.01084 0.85582 0.0
S1123 S 0.88587 -0.00873 0.96919 0.0
N1124 N 0.85644 0.02317 0.97127 0.0
N1125 N 0.87548 0.96778 0.93319 0.0
C1126 C 0.84697 0.98587 0.92111 0.0
C1127 C 0.8366 0.01578 0.94168 0.0
C1128 C 0.82008 0.70368 0.91441 0.0
C1129 C 0.78323 0.697 0.91827 0.0
C1130 C 0.83317 0.7355 0.89974 0.0
C1131 C 0.80992 0.76202 0.88854 0.0
H1132 H 0.83916 0.68477 0.92405 0.0
H1133 H 0.8618 0.7399 0.89879 0.0
S1134 S 0.71096 0.75513 0.88749 0.0
N1135 N 0.72353 0.71755 0.90585 0.0
N1136 N 0.74814 0.77762 0.87805 0.0
C1137 C 0.77293 0.75459 0.88976 0.0
C1138 C 0.75957 0.722 0.90467 0.0
C1139 C 0.35159 0.776 0.02964 0.0
C1140 C 0.31507 0.78334 0.02902 0.0
C1141 C 0.3647 0.74941 0.05161 0.0
C1142 C 0.34159 0.72876 0.07318 0.0
H1143 H 0.37 0.78991 0.01195 0.0
H1144 H 0.39271 0.74336 0.04957 0.0
S1145 S 0.24459 0.74105 0.08505 0.0
N1146 N 0.25666 0.771 0.05494 0.0
N1147 N 0.28131 0.72028 0.09591 0.0
C1148 C 0.30549 0.73771 0.07489 0.0
C1149 C 0.2922 0.76523 0.05286 0.0
C1150 C 0.94513 0.54494 0.81588 0.0
C1151 C 0.9422 0.50805 0.82285 0.0
C1152 C 0.97449 0.56549 0.82781 0.0
C1153 C 0.00218 0.54989 0.84695 0.0
H1154 H 0.92536 0.55788 0.79972 0.0
H1155 H 0.97645 0.59328 0.8201 0.0
S1156 S 0.00475 0.456 0.87755 0.0
N1157 N 0.96753 0.45791 0.85417 0.0
N1158 N 0.02278 0.4966 0.87648 0.0
C1159 C -0.00168 0.51375 0.85653 0.0
C1160 C 0.9683 0.49282 0.84456 0.0
C1161 C 0.2207 0.2254 0.56777 0.0
C1162 C 0.2023 0.19348 0.5588 0.0
C1163 C 0.20237 0.25528 0.57945 0.0
C1164 C 0.16497 0.25429 0.58278 0.0
H1165 H 0.24918 0.22821 0.56347 0.0
H1166 H 0.21757 0.27978 0.58421 0.0
S1167 S 0.10538 0.17458 0.56956 0.0
N1168 N 0.14546 0.16088 0.55893 0.0
N1169 N 0.11089 0.2168 0.58132 0.0
C1170 C 0.1467 0.22144 0.57708 0.0
C1171 C 0.16539 0.19109 0.56497 0.0
C1172 C 0.01687 0.91688 0.81506 0.0
C1173 C 0.01978 0.95424 0.8124 0.0
C1174 C 0.98418 0.89976 0.8219 0.0
C1175 C 0.95307 0.91931 0.82626 0.0
H1176 H 0.03976 0.9005 0.81041 0.0
H1177 H 0.98321 0.87087 0.82241 0.0
S1178 S 0.94749 0.01809 0.82763 0.0
N1179 N -0.01027 0.01057 0.81875 0.0
N1180 N 0.928 0.97838 0.83201 0.0
C1181 C 0.95604 0.95686 0.82631 0.0
C1182 C -0.0105 0.97434 0.81934 0.0
C1183 C 0.66513 0.27572 0.41886 0.0
C1184 C 0.70073 0.28148 0.40778 0.0
C1185 C 0.64618 0.24425 0.41012 0.0
C1186 C 0.66225 0.21734 0.39021 0.0
H1187 H 0.65225 0.29486 0.43589 0.0
H1188 H 0.61961 0.24012 0.42087 0.0
S1189 S 0.75216 0.22167 0.34912 0.0
N1190 N 0.74937 0.25945 0.37153 0.0
N1191 N 0.71371 0.20024 0.35537 0.0
C1192 C 0.69666 0.22389 0.37649 0.0
C1193 C 0.7159 0.25601 0.38515 0.0
C1194 C 0.9639 0.43184 0.66575 0.0
C1195 C 0.93785 0.40608 0.67521 0.0
C1196 C -0.00498 0.42196 0.64814 0.0
C1197 C 0.00085 0.38604 0.63928 0.0
H1198 H 0.96165 0.45923 0.67457 0.0
H1199 H 0.01557 0.44227 0.64369 0.0
S1200 S 0.93583 0.31041 0.65034 0.0
N1201 N 0.91651 0.34473 0.66918 0.0
N1202 N 0.97442 0.32602 0.63511 0.0
C1203 C 0.97285 0.36089 0.64488 0.0
C1204 C 0.94149 0.37094 0.66322 0.0
C1205 C 0.5386 0.5758 0.16423 0.0
C1206 C 0.54058 0.5384 0.16347 0.0
C1207 C 0.50817 0.59289 0.15229 0.0
C1208 C 0.47851 0.57321 0.13922 0.0
H1209 H 0.55983 0.59203 0.17606 0.0
H1210 H 0.50726 0.62159 0.15524 0.0
S1211 S 0.4731 0.47524 0.12468 0.0
N1212 N 0.51242 0.48259 0.14351 0.0
N1213 N 0.45518 0.51476 0.12093 0.0
C1214 C 0.48142 0.53607 0.13521 0.0
C1215 C 0.51251 0.51864 0.1473 0.0
C1216 C 0.58797 0.71983 0.75498 0.0
C1217 C 0.57373 0.70023 0.78369 0.0
C1218 C 0.60159 0.70246 0.72505 0.0
C1219 C 0.60177 0.66496 0.72311 0.0
H1220 H 0.58613 0.74859 0.75442 0.0
H1221 H 0.61016 0.71851 0.70254 0.0
S1222 S 0.5745 0.60226 0.79527 0.0
N1223 N 0.56537 0.64212 0.81104 0.0
N1224 N 0.59182 0.60919 0.75541 0.0
C1225 C 0.59104 0.64535 0.75346 0.0
C1226 C 0.5767 0.66308 0.78359 0.0
C1227 C 0.55301 0.32057 0.04142 0.0
C1228 C 0.52025 0.33635 0.04898 0.0
C1229 C 0.57057 0.32715 0.00919 0.0
C1230 C 0.55577 0.34949 0.98342 0.0
H1231 H 0.56409 0.30119 0.05937 0.0
H1232 H 0.59458 0.31276 0.00349 0.0
S1233 S 0.47509 0.40333 -0.00697 0.0
N1234 N 0.47712 0.38029 0.03035 0.0
N1235 N 0.50993 0.3916 0.96933 0.0
C1236 C 0.52494 0.36792 -0.00818 0.0
C1237 C 0.50729 0.36174 0.02483 0.0
C1238 C 0.94874 0.27866 0.23097 0.0
C1239 C 0.93617 0.28095 0.26601 0.0
C1240 C 0.92792 0.28992 0.20258 0.0
C1241 C 0.89443 0.30473 0.20858 0.0
H1242 H 0.97486 0.26826 0.22552 0.0
H1243 H 0.93888 0.2887 0.1759 0.0
S1244 S 0.84965 0.31618 0.29546 0.0
N1245 N 0.88785 0.29758 0.30539 0.0
N1246 N 0.84943 0.32092 0.25167 0.0
C1247 C 0.8814 0.30686 0.24341 0.0
C1248 C 0.90213 0.29431 0.27231 0.0
C1249 C 0.96056 0.69267 0.48829 0.0
C1250 C 0.94496 0.68126 0.52042 0.0
C1251 C 0.95275 0.67483 0.4563 0.0
C1252 C 0.92862 0.64555 0.45569 0.0
H1253 H 0.9772 0.71672 0.48761 0.0
H1254 H 0.9629 0.68615 0.43167 0.0
S1255 S 0.88511 0.60265 0.53376 0.0
N1256 N 0.90817 0.63682 0.55074 0.0
N1257 N 0.89275 0.6034 0.4904 0.0
C1258 C 0.91539 0.63219 0.4882 0.0
C1259 C 0.92363 0.65017 0.52073 0.0
C1260 C 0.55601 0.30729 0.70943 0.0
C1261 C 0.52114 0.29288 0.70969 0.0
C1262 C 0.57349 0.31592 0.74149 0.0
C1263 C 0.55702 0.30911 0.77454 0.0
H1264 H 0.56914 0.31337 0.68439 0.0
H1265 H 0.59956 0.329 0.74049 0.0
S1266 S 0.46691 0.26876 0.78889 0.0
N1267 N 0.47137 0.2704 0.74514 0.0
N1268 N 0.50461 0.28548 0.80545 0.0
C1269 C 0.52288 0.29286 0.77497 0.0
C1270 C 0.5048 0.28503 0.74244 0.0
C1271 C 0.90461 0.29221 0.95761 0.0
C1272 C 0.94099 0.29931 0.95114 0.0
C1273 C 0.8866 0.31043 0.98432 0.0
C1274 C 0.90464 0.33582 0.00577 0.0
H1275 H 0.8902 0.27161 0.94276 0.0
H1276 H 0.85916 0.30264 -0.0101 0.0
S1277 S -0.0014 0.36716 -0.00311 0.0
N1278 N -0.00657 0.33615 0.96582 0.0
N1279 N 0.95955 0.36974 0.01687 0.0
C1280 C 0.94031 0.34482 -0.00188 0.0
C1281 C 0.95854 0.32669 0.97054 0.0
C1282 C 0.87501 0.72721 0.21546 0.0
C1283 C 0.88921 0.71125 0.18478 0.0
C1284 C 0.87154 0.70822 0.24721 0.0
C1285 C 0.8815 0.6725 0.24915 0.0
H1286 H 0.8689 0.75527 0.21581 0.0
H1287 H 0.86214 0.72198 0.27071 0.0
S1288 S 0.91441 0.61689 0.17463 0.0
N1289 N 0.90925 0.65668 0.15701 0.0
N1290 N 0.90212 0.62055 0.2167 0.0
C1291 C 0.89278 0.65531 0.21788 0.0
C1292 C 0.89676 0.67483 0.18563 0.0
C1293 C 0.57184 0.66664 0.45663 0.0
C1294 C 0.53471 0.66226 0.45294 0.0
C1295 C 0.58952 0.65352 0.48643 0.0
C1296 C 0.57054 0.63616 0.51391 0.0
H1297 H 0.58717 0.68179 0.43717 0.0
H1298 H 0.61788 0.65916 0.48896 0.0
S1299 S 0.47376 0.61343 0.51461 0.0
N1300 N 0.48008 0.63566 0.47712 0.0
N1301 N 0.51336 0.61151 0.53368 0.0
C1302 C 0.5338 0.62931 0.50934 0.0
C1303 C 0.51586 0.64218 0.47864 0.0
C1304 C 0.77835 0.54247 0.65033 0.0
C1305 C 0.78851 0.54845 0.68593 0.0
C1306 C 0.74871 0.55897 0.63591 0.0
C1307 C 0.7278 0.58161 0.65678 0.0
H1308 H 0.79237 0.52357 0.63394 0.0
H1309 H 0.74087 0.55202 0.6089 0.0
S1310 S 0.7458 0.60977 0.74999 0.0
N1311 N 0.77769 0.58172 0.7406 0.0
N1312 N 0.72143 0.61229 0.71346 0.0
C1313 C 0.73906 0.58979 0.69161 0.0
C1314 C 0.76962 0.57336 0.70619 0.0
C1315 C 0.67226 0.50335 0.95295 0.0
C1316 C 0.69256 0.52292 0.92787 0.0
C1317 C 0.65049 0.47419 0.94244 0.0
C1318 C 0.64768 0.4641 0.90639 0.0
H1319 H 0.67441 0.50959 0.98111 0.0
H1320 H 0.63653 0.4589 0.96277 0.0
S1321 S 0.6934 0.5089 0.82999 0.0
N1322 N 0.70705 0.53163 0.86539 0.0
N1323 N 0.66579 0.47764 0.84527 0.0
C1324 C 0.66649 0.48481 0.88085 0.0
C1325 C 0.68906 0.51397 0.89168 0.0
C1326 C 0.70356 0.42 0.16662 0.0
C1327 C 0.69718 0.40598 0.20089 0.0
C1328 C 0.73278 0.40937 0.1464 0.0
C1329 C 0.75659 0.38452 0.1599 0.0
H1330 H 0.68712 0.4408 0.15605 0.0
H1331 H 0.73799 0.42243 0.12116 0.0
S1332 S 0.74813 0.3346 0.24468 0.0
N1333 N 0.71429 0.36184 0.24488 0.0
N1334 N 0.76937 0.34233 0.20689 0.0
C1335 C 0.7489 0.36807 0.19263 0.0
C1336 C 0.7191 0.37866 0.21313 0.0
C1337 C 0.82128 0.47621 0.44413 0.0
C1338 C 0.79282 0.45882 0.42609 0.0
C1339 C 0.83875 0.50611 0.42947 0.0
C1340 C 0.82887 0.51897 0.39593 0.0
H1341 H 0.82956 0.46721 0.4702 0.0
H1342 H 0.85993 0.51938 0.44454 0.0
S1343 S 0.75652 0.48225 0.33754 0.0
N1344 N 0.75577 0.45625 0.37291 0.0
N1345 N 0.78898 0.51192 0.34483 0.0
C1346 C 0.80092 0.50129 0.37725 0.0
C1347 C 0.78274 0.47134 0.3925 0.0
C1348 C 0.74484 0.39513 0.77656 0.0
C1349 C 0.76748 0.41782 0.79685 0.0
C1350 C 0.71376 0.37983 0.79143 0.0
C1351 C 0.70504 0.38594 0.82729 0.0
H1352 H 0.75055 0.39011 0.74872 0.0
H1353 H 0.69631 0.36346 0.77471 0.0
S1354 S 0.75707 0.44216 0.89198 0.0
N1355 N 0.77982 0.44505 0.85448 0.0
N1356 N 0.72246 0.41562 0.883 0.0
C1357 C 0.72835 0.40772 0.8481 0.0
C1358 C 0.75931 0.42388 0.83271 0.0
C1359 C 0.85838 0.50964 0.02564 0.0
C1360 C 0.8333 0.53384 0.03842 0.0
C1361 C 0.86563 0.47868 0.04443 0.0
C1362 C 0.84861 0.47116 0.0769 0.0
H1363 H 0.87049 0.51306 -0.00036 0.0
H1364 H 0.88302 0.45943 0.03238 0.0
S1365 S 0.78742 0.52959 0.12605 0.0
N1366 N 0.79627 0.55114 0.08866 0.0
N1367 N 0.81036 0.49268 0.12411 0.0
C1368 C 0.82692 0.49699 0.09216 0.0
C1369 C 0.81918 0.52851 0.07285 0.0
C1370 C 0.72029 0.56982 0.27687 0.0
C1371 C 0.6972 0.55507 0.30267 0.0
C1372 C 0.75051 0.59012 0.28694 0.0
C1373 C 0.75835 0.5966 0.32313 0.0
H1374 H 0.71651 0.5635 0.24889 0.0
H1375 H 0.76899 0.59871 0.26634 0.0
S1376 S 0.70131 0.57009 0.40021 0.0
N1377 N 0.68076 0.55258 0.36514 0.0
N1378 N 0.7368 0.59154 0.3844 0.0
C1379 C 0.73307 0.58524 0.34885 0.0
C1380 C 0.70272 0.56411 0.33854 0.0
C1381 C 0.64683 0.46354 0.5274 0.0
C1382 C 0.66896 0.44078 0.54663 0.0
C1383 C 0.63401 0.49464 0.54298 0.0
C1384 C 0.64237 0.50363 0.57847 0.0
H1385 H 0.64147 0.45874 0.49938 0.0
H1386 H 0.61883 0.51256 0.52664 0.0
S1387 S 0.69479 0.44964 0.6417 0.0
N1388 N 0.69537 0.42699 0.60392 0.0
N1389 N 0.67085 0.48499 0.63362 0.0
C1390 C 0.66188 0.47936 0.59888 0.0
C1391 C 0.67531 0.44802 0.58282 0.0
C1392 C 0.67806 0.77368 0.56072 0.0
C1393 C 0.71357 0.77855 0.57236 0.0
C1394 C 0.65825 0.74272 0.5692 0.0
C1395 C 0.67346 0.7154 0.58917 0.0
H1396 H 0.66577 0.79337 0.54398 0.0
H1397 H 0.63145 0.73947 0.55868 0.0
S1398 S 0.76346 0.7165 0.62999 0.0
N1399 N 0.7617 0.75454 0.60817 0.0
N1400 N 0.72443 0.69627 0.62338 0.0
C1401 C 0.70811 0.72059 0.60256 0.0
C1402 C 0.72817 0.75223 0.5944 0.0
C1403 C 0.18189 0.71794 0.39614 0.0
C1404 C 0.1611 0.69539 0.41824 0.0
C1405 C 0.1682 0.74942 0.38241 0.0
C1406 C 0.13305 0.75916 0.38978 0.0
H1407 H 0.20974 0.71263 0.39143 0.0
H1408 H 0.18578 0.76702 0.36727 0.0
S1409 S 0.06596 0.70598 0.44149 0.0
N1410 N 0.10259 0.68266 0.44348 0.0
N1411 N 0.07635 0.74129 0.41716 0.0
C1412 C 0.11102 0.73513 0.40924 0.0
C1413 C 0.12519 0.70337 0.42362 0.0
C1414 C 0.51556 0.90804 0.68226 0.0
C1415 C 0.52737 0.94263 0.67305 0.0
C1416 C 0.48574 0.89227 0.6658 0.0
C1417 C 0.46645 0.9109 0.64007 0.0
H1418 H 0.5287 0.89346 0.70317 0.0
H1419 H 0.47636 0.86639 0.67514 0.0
S1420 S 0.48873 0.00038 0.60368 0.0
N1421 N 0.51969 -0.00635 0.63409 0.0
N1422 N 0.46287 0.96408 0.60362 0.0
C1423 C 0.47922 0.94455 0.62901 0.0
C1424 C 0.50993 0.96044 0.64542 0.0
C1425 C 0.34155 0.29057 0.92145 0.0
C1426 C 0.30546 0.29419 0.93 0.0
C1427 C 0.35318 0.2603 0.90371 0.0
C1428 C 0.32916 0.23218 0.89463 0.0
H1429 H 0.36127 0.31023 0.93047 0.0
H1430 H 0.3816 0.25788 0.89973 0.0
S1431 S 0.23082 0.23229 0.90468 0.0
N1432 N 0.24492 0.27018 0.92302 0.0
N1433 N 0.26691 0.21274 0.89 0.0
C1434 C 0.2925 0.23726 0.89959 0.0
C1435 C 0.2806 0.26845 0.91726 0.0
C1436 C 0.47452 0.52102 0.64227 0.0
C1437 C 0.4494 0.5365 0.6651 0.0
C1438 C 0.50658 0.53868 0.63404 0.0
C1439 C 0.51457 0.57276 0.64774 0.0
H1440 H 0.4703 0.49427 0.63187 0.0
H1441 H 0.5257 0.52511 0.61754 0.0
S1442 S 0.45647 0.62719 0.70499 0.0
N1443 N 0.43354 0.5895 0.6987 0.0
N1444 N 0.49397 0.62296 0.68256 0.0
C1445 C 0.48885 0.58979 0.66845 0.0
C1446 C 0.45618 0.5716 0.67728 0.0
C1447 C 0.79614 0.19861 0.06809 0.0
C1448 C 0.77964 0.20038 0.03452 0.0
C1449 C 0.81038 0.22942 0.08445 0.0
C1450 C 0.80712 0.26282 0.06826 0.0
H1451 H 0.79882 0.17318 0.08131 0.0
H1452 H 0.82405 0.22717 0.10977 0.0
S1453 S 0.76491 0.2816 0.9812 0.0
N1454 N 0.76041 0.23796 0.98589 0.0
N1455 N 0.78583 0.29617 0.01739 0.0
C1456 C 0.78984 0.26502 0.03518 0.0
C1457 C 0.77639 0.23362 0.01807 0.0
C1458 C 0.53133 0.08833 0.80561 0.0
C1459 C 0.53861 0.05211 0.80994 0.0
C1460 C 0.50114 0.10302 0.82093 0.0
C1461 C 0.47672 0.08183 0.84062 0.0
H1462 H 0.54822 0.10514 0.78892 0.0
H1463 H 0.49589 0.13071 0.81537 0.0
S1464 S 0.48617 -0.01341 0.86383 0.0
N1465 N 0.52121 -0.00379 0.83871 0.0
N1466 N 0.4639 0.02384 0.86702 0.0
C1467 C 0.48495 0.04617 0.84724 0.0
C1468 C 0.5161 0.0313 0.83207 0.0
C1469 C 0.93483 0.90993 0.32298 0.0
C1470 C 0.93458 0.94401 0.30794 0.0
C1471 C 0.96395 0.89905 0.34294 0.0
C1472 C -0.00554 0.92146 0.34739 0.0
H1473 H 0.91337 0.8908 0.31746 0.0
H1474 H 0.9637 0.87169 0.3521 0.0
S1475 S 0.00318 0.01609 0.31964 0.0
N1476 N 0.96395 0.00245 0.30405 0.0
N1477 N 0.01956 0.98158 0.34072 0.0
C1478 C -0.00734 0.95705 0.33601 0.0
C1479 C 0.9625 0.96838 0.31628 0.0
C1480 C 0.40653 0.33311 0.21569 0.0
C1481 C 0.40896 0.29571 0.21577 0.0
C1482 C 0.39358 0.35139 0.24518 0.0
C1483 C 0.38261 0.33295 0.27591 0.0
H1484 H 0.41641 0.3487 0.19337 0.0
H1485 H 0.3942 0.38027 0.24453 0.0
S1486 S 0.37644 0.23449 0.28662 0.0
N1487 N 0.39432 0.2405 0.24683 0.0
N1488 N 0.36936 0.27481 0.30243 0.0
C1489 C 0.38153 0.29532 0.27499 0.0
C1490 C 0.39487 0.27668 0.24485 0.0
C1491 C 0.47086 0.67865 0.97033 0.0
C1492 C 0.44887 0.67452 0.94016 0.0
C1493 C 0.46082 0.66332 0.00293 0.0
C1494 C 0.42864 0.64347 0.00587 0.0
H1495 H 0.49366 0.69699 0.96979 0.0
H1496 H 0.47635 0.67015 0.02646 0.0
S1497 S 0.36774 0.61689 0.93192 0.0
N1498 N 0.3979 0.64372 0.91329 0.0
N1499 N 0.37944 0.61386 0.97423 0.0
C1500 C 0.40945 0.63498 0.97461 0.0
C1501 C 0.41944 0.6509 0.94172 0.0
C1502 C 0.07114 0.70043 0.72745 0.0
C1503 C 0.05646 0.68059 0.69891 0.0
C1504 C 0.08226 0.68367 0.75865 0.0
C1505 C 0.07936 0.64636 0.76253 0.0
H1506 H 0.07213 0.7293 0.72665 0.0
H1507 H 0.09183 0.70032 0.78049 0.0
S1508 S 0.04861 0.58183 0.69308 0.0
N1509 N 0.04395 0.62131 0.6746 0.0
N1510 N 0.06499 0.58977 0.73327 0.0
C1511 C 0.06762 0.62597 0.73302 0.0
C1512 C 0.05611 0.6431 0.70123 0.0
C1513 C 0.01126 0.33218 0.46916 0.0
C1514 C 0.03025 0.32456 0.43791 0.0
C1515 C 0.029 0.33805 0.50147 0.0
C1516 C 0.0664 0.33686 0.50371 0.0
H1517 H 0.98238 0.33092 0.4694 0.0
H1518 H 0.01305 0.34196 0.52516 0.0
S1519 S 0.12854 0.32621 0.42768 0.0
N1520 N 0.08844 0.32192 0.40979 0.0
N1521 N 0.12206 0.33349 0.47059 0.0
C1522 C 0.08586 0.33301 0.47192 0.0
C1523 C 0.06768 0.32672 0.43899 0.0
C1524 C 0.41479 0.6682 0.27758 0.0
C1525 C 0.4082 0.70474 0.28216 0.0
C1526 C 0.40744 0.6509 0.24529 0.0
C1527 C 0.39334 0.66951 0.21635 0.0
H1528 H 0.42755 0.65314 0.29837 0.0
H1529 H 0.41479 0.6233 0.24242 0.0
S1530 S 0.36327 0.76287 0.21699 0.0
N1531 N 0.38096 0.75723 0.25683 0.0
N1532 N 0.36736 0.72449 0.1959 0.0
C1533 C 0.38357 0.70506 0.22147 0.0
C1534 C 0.39085 0.72271 0.25448 0.0
C1535 C 0.06278 0.67393 0.02797 0.0
C1536 C 0.0257 0.67031 0.03319 0.0
C1537 C 0.07953 0.65718 -0.00065 0.0
C1538 C 0.05979 0.6363 0.97472 0.0
H1539 H 0.07882 0.69148 0.0449 0.0
H1540 H 0.10773 0.66262 -0.00473 0.0
S1541 S 0.96337 0.61239 0.98046 0.0
N1542 N 0.97072 0.63979 0.01438 0.0
N1543 N 0.00225 0.60843 0.96047 0.0
C1544 C 0.02332 0.62981 0.98145 0.0
C1545 C 0.00626 0.64674 0.01073 0.0
C1546 C 0.06336 0.26317 0.75477 0.0
C1547 C 0.06873 0.28606 0.78417 0.0
C1548 C 0.07563 0.27309 0.72083 0.0
C1549 C 0.09358 0.30605 0.71573 0.0
H1550 H 0.04641 0.23947 0.75721 0.0
H1551 H 0.068 0.25657 0.69818 0.0
S1552 S 0.12223 0.3703 0.78618 0.0
N1553 N 0.09865 0.3393 0.80747 0.0
N1554 N 0.1226 0.35764 0.74398 0.0
C1555 C 0.10317 0.32659 0.74585 0.0
C1556 C 0.09044 0.31666 0.78011 0.0
C1557 C 0.45897 0.33992 0.51066 0.0
C1558 C 0.43852 0.32185 0.53646 0.0
C1559 C 0.44255 0.3601 0.48435 0.0
C1560 C 0.40513 0.36274 0.48291 0.0
H1561 H 0.48752 0.33656 0.50928 0.0
H1562 H 0.4592 0.37155 0.46353 0.0
S1563 S 0.34077 0.32781 0.55008 0.0
N1564 N 0.37979 0.3134 0.56328 0.0
N1565 N 0.34894 0.35124 0.51372 0.0
C1566 C 0.38489 0.34832 0.51113 0.0
C1567 C 0.4016 0.32771 0.53787 0.0
C1568 C 0.22297 0.39594 0.27101 0.0
C1569 C 0.19544 0.41783 0.28259 0.0
C1570 C 0.25186 0.38902 0.29312 0.0
C1571 C 0.25427 0.40352 0.32771 0.0
H1572 H 0.22352 0.38592 0.2439 0.0
H1573 H 0.27346 0.37372 0.28229 0.0
S1574 S 0.18564 0.45609 0.37351 0.0
N1575 N 0.16953 0.44915 0.33301 0.0
N1576 N 0.2243 0.43609 0.37453 0.0
C1577 C 0.22528 0.42227 0.34102 0.0
C1578 C 0.19574 0.42948 0.31841 0.0
C1579 C 0.31897 0.48681 0.01174 0.0
C1580 C 0.31528 0.45579 0.0323 0.0
C1581 C 0.33458 0.51783 0.0262 0.0
C1582 C 0.34699 0.51869 0.06167 0.0
H1583 H 0.30769 0.48785 0.98517 0.0
H1584 H 0.33483 0.54177 0.01013 0.0
S1585 S 0.3513 0.44171 0.12316 0.0
N1586 N 0.33073 0.42574 0.08737 0.0
N1587 N 0.3604 0.4841 0.11457 0.0
C1588 C 0.34673 0.48676 0.08113 0.0
C1589 C 0.33071 0.45526 0.06644 0.0
C1590 C 0.27342 0.56421 0.8283 0.0
C1591 C 0.27802 0.56737 0.79118 0.0
C1592 C 0.24155 0.5737 0.84474 0.0
C1593 C 0.21295 0.58648 0.82465 0.0
H1594 H 0.29378 0.55238 0.84461 0.0
H1595 H 0.23863 0.56889 0.87306 0.0
S1596 S 0.21389 0.60646 0.72781 0.0
N1597 N 0.25316 0.58924 0.73567 0.0
N1598 N 0.1932 0.60698 0.76661 0.0
C1599 C 0.21835 0.59283 0.78807 0.0
C1600 C 0.25094 0.58337 0.77134 0.0
C1601 C 0.15529 0.52569 0.58573 0.0
C1602 C 0.16569 0.53183 0.55036 0.0
C1603 C 0.13927 0.4933 0.59575 0.0
C1604 C 0.13387 0.46543 0.57088 0.0
H1605 H 0.1613 0.5454 0.60622 0.0
H1606 H 0.13345 0.48938 0.62375 0.0
S1607 S 0.15148 0.47068 0.47361 0.0
N1608 N 0.16548 0.50976 0.48942 0.0
N1609 N 0.13577 0.44817 0.5082 0.0
C1610 C 0.14129 0.47248 0.53472 0.0
C1611 C 0.15718 0.50589 0.52446 0.0
C1612 C 0.23023 0.56529 0.19267 0.0
C1613 C 0.20416 0.55521 0.16747 0.0
C1614 C 0.26102 0.58454 0.18227 0.0
C1615 C 0.26645 0.59439 0.1464 0.0
H1616 H 0.22826 0.55573 0.21983 0.0
H1617 H 0.28171 0.58942 0.20198 0.0
S1618 S 0.20136 0.58088 0.07239 0.0
N1619 N 0.18259 0.56075 0.1069 0.0
N1620 N 0.23955 0.59804 0.08725 0.0
C1621 C 0.23834 0.5879 0.122 0.0
C1622 C 0.20743 0.56785 0.13255 0.0
C1623 C 0.15757 0.44234 0.91609 0.0
C1624 C 0.15929 0.43977 0.95347 0.0
C1625 C 0.14464 0.47277 0.89954 0.0
C1626 C 0.13305 0.50193 0.91974 0.0
H1627 H 0.16833 0.42165 0.89934 0.0
H1628 H 0.14581 0.47418 0.87073 0.0
S1629 S 0.12492 0.50541 0.01837 0.0
N1630 N 0.14304 0.46661 0.01014 0.0
N1631 N 0.1186 0.52383 0.97905 0.0
C1632 C 0.13127 0.49822 0.95707 0.0
C1633 C 0.14437 0.46711 0.97394 0.0
C1634 C 0.24313 0.41418 0.71391 0.0
C1635 C 0.27399 0.42277 0.69434 0.0
C1636 C 0.21318 0.39866 0.69721 0.0
C1637 C 0.21309 0.39111 0.66035 0.0
H1638 H 0.24135 0.42124 0.74187 0.0
H1639 H 0.18942 0.39414 0.71311 0.0
S1640 S 0.29012 0.40219 0.59895 0.0
N1641 N 0.30472 0.41812 0.6375 0.0
N1642 N 0.24852 0.38873 0.60605 0.0
C1643 C 0.24493 0.39685 0.64119 0.0
C1644 C 0.27535 0.41279 0.6582 0.0
C1645 C 0.30333 0.54972 0.41894 0.0
C1646 C 0.31384 0.55648 0.4545 0.0
C1647 C 0.31541 0.51998 0.40036 0.0
C1648 C 0.33829 0.49605 0.4168 0.0
H1649 H 0.28364 0.56597 0.40613 0.0
H1650 H 0.30446 0.51419 0.37417 0.0
S1651 S 0.3808 0.50627 0.50561 0.0
N1652 N 0.35398 0.54033 0.50264 0.0
N1653 N 0.37625 0.48421 0.46766 0.0
C1654 C 0.35217 0.50462 0.45062 0.0
C1655 C 0.34012 0.53499 0.46949 0.0
C1656 C 0.32023 0.21852 0.4068 0.0
C1657 C 0.28446 0.2128 0.41669 0.0
C1658 C 0.33376 0.25275 0.39982 0.0
C1659 C 0.31208 0.28263 0.40271 0.0
H1660 H 0.33836 0.19652 0.40588 0.0
H1661 H 0.36179 0.25582 0.39332 0.0
S1662 S 0.21537 0.28131 0.42384 0.0
N1663 N 0.22666 0.23915 0.42595 0.0
N1664 N 0.25206 0.30386 0.41283 0.0
C1665 C 0.27557 0.27702 0.41019 0.0
C1666 C 0.26175 0.24197 0.41716 0.0
C1667 C 0.84693 0.2901 0.55416 0.0
C1668 C 0.81035 0.29406 0.54796 0.0
C1669 C 0.85926 0.26121 0.57349 0.0
C1670 C 0.83541 0.23484 0.58663 0.0
H1671 H 0.86633 0.30831 0.54221 0.0
H1672 H 0.88783 0.25824 0.5756 0.0
S1673 S 0.73659 0.23719 0.58375 0.0
N1674 N 0.75008 0.27278 0.56121 0.0
N1675 N 0.77322 0.21793 0.59741 0.0
C1676 C 0.79856 0.24062 0.5839 0.0
C1677 C 0.78601 0.27041 0.56452 0.0
C1678 C 0.45053 0.05324 0.32915 0.0
C1679 C 0.44812 0.01653 0.33698 0.0
C1680 C 0.48141 0.07353 0.33696 0.0
C1681 C 0.51108 0.05773 0.35258 0.0
H1682 H 0.42915 0.06607 0.31512 0.0
H1683 H 0.4828 0.10114 0.32859 0.0
S1684 S 0.51615 0.96453 0.38459 0.0
N1685 N 0.47635 0.96659 0.36601 0.0
N1686 N 0.53445 0.0048 0.38051 0.0
C1687 C 0.50792 0.02194 0.36345 0.0
C1688 C 0.47637 0.00132 0.35578 0.0
C1689 C 0.66028 0.68728 0.06667 0.0
C1690 C 0.69765 0.68508 0.06779 0.0
C1691 C 0.64314 0.71717 0.07998 0.0
C1692 C 0.66274 0.74612 0.09471 0.0
H1693 H 0.64418 0.66665 0.05366 0.0
H1694 H 0.6145 0.71838 0.07676 0.0
S1695 S 0.76046 0.75062 0.11028 0.0
N1696 N 0.75326 0.71218 0.08959 0.0
N1697 N 0.72094 0.76851 0.11447 0.0
C1698 C 0.69979 0.74296 0.09881 0.0
C1699 C 0.71727 0.71237 0.08545 0.0
C1700 C 0.52506 0.4224 0.32331 0.0
C1701 C 0.52985 0.4588 0.31543 0.0
C1702 C 0.4936 0.40939 0.33878 0.0
C1703 C 0.46557 0.43225 0.34671 0.0
H1704 H 0.54513 0.40344 0.31611 0.0
H1705 H 0.49066 0.38087 0.34269 0.0
S1706 S 0.46751 0.53081 0.33725 0.0
N1707 N 0.50613 0.5183 0.32104 0.0
N1708 N 0.44666 0.49382 0.3503 0.0
C1709 C 0.47121 0.46918 0.34181 0.0
C1710 C 0.50347 0.48247 0.3261 0.0
C1711 C 0.20438 0.74983 0.87682 0.0
C1712 C 0.19061 0.77784 0.89719 0.0
C1713 C 0.18459 0.71822 0.87128 0.0
C1714 C 0.1501 0.71354 0.88542 0.0
H1715 H 0.23151 0.75125 0.867 0.0
H1716 H 0.19703 0.69665 0.85706 0.0
S1717 S 0.09937 0.78088 0.93535 0.0
N1718 N 0.13849 0.80055 0.92765 0.0
N1719 N 0.10124 0.74095 0.91688 0.0
C1720 C 0.1347 0.7424 0.90303 0.0
C1721 C 0.155 0.7746 0.90901 0.0
C1722 C 0.47054 0.93154 0.18191 0.0
C1723 C 0.4448 0.90704 0.19477 0.0
C1724 C 0.50045 0.91976 0.1635 0.0
C1725 C 0.50527 0.88314 0.15718 0.0
H1726 H 0.46898 0.95962 0.18844 0.0
H1727 H 0.5209 0.93929 0.15622 0.0
S1728 S 0.44045 0.80965 0.17822 0.0
N1729 N 0.42258 0.8457 0.19516 0.0
N1730 N 0.47813 0.82337 0.15954 0.0
C1731 C 0.47746 0.85896 0.16643 0.0
C1732 C 0.4474 0.87096 0.18564 0.0
C1733 C 0.03678 0.08516 0.67265 0.0
C1734 C 0.03994 0.0479 0.6713 0.0
C1735 C 0.00678 0.10157 0.65884 0.0
C1736 C 0.97873 0.08126 0.64339 0.0
H1737 H 0.05654 0.10167 0.68645 0.0
H1738 H 0.00463 0.13008 0.6625 0.0
S1739 S 0.97765 0.98378 0.62614 0.0
N1740 N 0.01528 -0.00817 0.64793 0.0
N1741 N 0.95871 0.02277 0.622 0.0
C1742 C 0.9832 0.04445 0.63858 0.0
C1743 C 0.01392 0.02773 0.65248 0.0
loop_
_geom_bond_atom_site_label_1
_geom_bond_atom_site_label_2
_geom_bond_distance
_geom_bond_site_symmetry_2
_ccdc_geom_bond_type
C0 O1 1.306 . S
C0 O3 1.160 . S
O1 C0 1.306 . S
O1 Cd2 2.228 . S
Cd2 O1 2.228 . S
Cd2 O6 2.273 . S
Cd2 O10 2.277 . S
O3 C0 1.160 . S
O3 Cd4 2.203 1_655 S
Cd4 O3 2.203 1_455 S
Cd4 O6 2.411 1_455 S
Cd4 O7 2.333 . S
Cd4 O8 2.352 . S
Cd4 O12 2.277 . S
Cd4 O13 2.356 . S
C5 O10 1.209 1_455 S
C5 O12 1.226 . S
O6 Cd2 2.273 . S
O6 Cd4 2.411 1_655 S
O6 C9 1.320 . S
O7 Cd4 2.333 . S
O7 C9 1.214 1_455 S
O8 Cd4 2.352 . S
O8 C11 1.258 . S
C9 O6 1.320 . S
C9 O7 1.214 1_655 S
O10 Cd2 2.277 . S
O10 C5 1.209 1_655 S
C11 O8 1.258 . S
C11 O13 1.282 . S
O12 Cd4 2.277 . S
O12 C5 1.226 . S
O13 Cd4 2.356 . S
O13 C11 1.282 . S
C14 O15 1.306 . S
C14 O17 1.160 . S
O15 C14 1.306 . S
O15 Cd16 2.228 1_455 S
Cd16 O15 2.228 1_655 S
Cd16 O20 2.273 . S
Cd16 O24 2.277 . S
O17 C14 1.160 . S
O17 Cd18 2.203 . S
Cd18 O17 2.203 . S
Cd18 O20 2.411 1_455 S
Cd18 O21 2.333 1_455 S
Cd18 O22 2.352 . S
Cd18 O26 2.277 1_455 S
Cd18 O27 2.356 . S
C19 O24 1.209 . S
C19 O26 1.226 . S
O20 Cd16 2.273 . S
O20 Cd18 2.411 1_655 S
O20 C23 1.320 . S
O21 Cd18 2.333 1_655 S
O21 C23 1.214 . S
O22 Cd18 2.352 . S
O22 C25 1.258 . S
C23 O20 1.320 . S
C23 O21 1.214 . S
O24 Cd16 2.277 . S
O24 C19 1.209 . S
C25 O22 1.258 . S
C25 O27 1.282 . S
O26 Cd18 2.277 1_655 S
O26 C19 1.226 . S
O27 Cd18 2.356 . S
O27 C25 1.282 . S
C28 O29 1.306 . S
C28 O31 1.160 . S
O29 C28 1.306 . S
O29 Cd30 2.228 . S
Cd30 O29 2.228 . S
Cd30 O34 2.273 . S
Cd30 O38 2.277 . S
O31 C28 1.160 . S
O31 Cd32 2.203 . S
Cd32 O31 2.203 . S
Cd32 O34 2.411 . S
Cd32 O35 2.333 . S
Cd32 O36 2.352 . S
Cd32 O40 2.277 . S
Cd32 O41 2.356 . S
C33 O38 1.209 . S
C33 O40 1.226 . S
O34 Cd30 2.273 . S
O34 Cd32 2.411 . S
O34 C37 1.320 . S
O35 Cd32 2.333 . S
O35 C37 1.214 . S
O36 Cd32 2.352 . S
O36 C39 1.258 . S
C37 O34 1.320 . S
C37 O35 1.214 . S
O38 Cd30 2.277 . S
O38 C33 1.209 . S
C39 O36 1.258 . S
C39 O41 1.282 . S
O40 Cd32 2.277 . S
O40 C33 1.226 . S
O41 Cd32 2.356 . S
O41 C39 1.282 . S
C42 O43 1.306 . S
C42 O45 1.160 . S
O43 C42 1.306 . S
O43 Cd44 2.228 . S
Cd44 O43 2.228 . S
Cd44 O48 2.273 . S
Cd44 O52 2.277 . S
O45 C42 1.160 . S
O45 Cd46 2.203 . S
Cd46 O45 2.203 . S
Cd46 O48 2.411 . S
Cd46 O49 2.333 . S
Cd46 O50 2.352 . S
Cd46 O54 2.277 . S
Cd46 O55 2.356 . S
C47 O52 1.209 . S
C47 O54 1.226 . S
O48 Cd44 2.273 . S
O48 Cd46 2.411 . S
O48 C51 1.320 . S
O49 Cd46 2.333 . S
O49 C51 1.214 . S
O50 Cd46 2.352 . S
O50 C53 1.258 . S
C51 O48 1.320 . S
C51 O49 1.214 . S
O52 Cd44 2.277 . S
O52 C47 1.209 . S
C53 O50 1.258 . S
C53 O55 1.282 . S
O54 Cd46 2.277 . S
O54 C47 1.226 . S
O55 Cd46 2.356 . S
O55 C53 1.282 . S
C56 O57 1.306 . S
C56 O59 1.160 . S
O57 C56 1.306 . S
O57 Cd58 2.228 . S
Cd58 O57 2.228 . S
Cd58 O62 2.273 . S
Cd58 O66 2.277 . S
O59 C56 1.160 . S
O59 Cd60 2.203 1_655 S
Cd60 O59 2.203 1_455 S
Cd60 O62 2.411 1_455 S
Cd60 O63 2.333 . S
Cd60 O64 2.352 . S
Cd60 O68 2.277 . S
Cd60 O69 2.356 . S
C61 O66 1.209 1_455 S
C61 O68 1.226 . S
O62 Cd58 2.273 . S
O62 Cd60 2.411 1_655 S
O62 C65 1.320 . S
O63 Cd60 2.333 . S
O63 C65 1.214 1_455 S
O64 Cd60 2.352 . S
O64 C67 1.258 . S
C65 O62 1.320 . S
C65 O63 1.214 1_655 S
O66 Cd58 2.277 . S
O66 C61 1.209 1_655 S
C67 O64 1.258 . S
C67 O69 1.282 . S
O68 Cd60 2.277 . S
O68 C61 1.226 . S
O69 Cd60 2.356 . S
O69 C67 1.282 . S
C70 O71 1.306 . S
C70 O73 1.160 . S
O71 C70 1.306 . S
O71 Cd72 2.228 . S
Cd72 O71 2.228 . S
Cd72 O76 2.273 . S
Cd72 O80 2.277 . S
O73 C70 1.160 . S
O73 Cd74 2.203 . S
Cd74 O73 2.203 . S
Cd74 O76 2.411 . S
Cd74 O77 2.333 . S
Cd74 O78 2.352 . S
Cd74 O82 2.277 . S
Cd74 O83 2.356 . S
C75 O80 1.209 . S
C75 O82 1.226 . S
O76 Cd72 2.273 . S
O76 Cd74 2.411 . S
O76 C79 1.320 . S
O77 Cd74 2.333 . S
O77 C79 1.214 . S
O78 Cd74 2.352 . S
O78 C81 1.258 . S
C79 O76 1.320 . S
C79 O77 1.214 . S
O80 Cd72 2.277 . S
O80 C75 1.209 . S
C81 O78 1.258 . S
C81 O83 1.282 . S
O82 Cd74 2.277 . S
O82 C75 1.226 . S
O83 Cd74 2.356 . S
O83 C81 1.282 . S
C84 O85 1.306 . S
C84 O87 1.160 . S
O85 C84 1.306 . S
O85 Cd86 2.228 . S
Cd86 O85 2.228 . S
Cd86 O90 2.273 . S
Cd86 O94 2.277 . S
O87 C84 1.160 . S
O87 Cd88 2.203 . S
Cd88 O87 2.203 . S
Cd88 O90 2.411 . S
Cd88 O91 2.333 . S
Cd88 O92 2.352 . S
Cd88 O96 2.277 . S
Cd88 O97 2.356 . S
C89 O94 1.209 . S
C89 O96 1.226 . S
O90 Cd86 2.273 . S
O90 Cd88 2.411 . S
O90 C93 1.320 . S
O91 Cd88 2.333 . S
O91 C93 1.214 . S
O92 Cd88 2.352 . S
O92 C95 1.258 . S
C93 O90 1.320 . S
C93 O91 1.214 . S
O94 Cd86 2.277 . S
O94 C89 1.209 . S
C95 O92 1.258 . S
C95 O97 1.282 . S
O96 Cd88 2.277 . S
O96 C89 1.226 . S
O97 Cd88 2.356 . S
O97 C95 1.282 . S
C98 O99 1.306 . S
C98 O101 1.160 . S
O99 C98 1.306 . S
O99 Cd100 2.228 1_455 S
Cd100 O99 2.228 1_655 S
Cd100 O104 2.273 . S
Cd100 O108 2.277 . S
O101 C98 1.160 . S
O101 Cd102 2.203 . S
Cd102 O101 2.203 . S
Cd102 O104 2.411 1_455 S
Cd102 O105 2.333 1_455 S
Cd102 O106 2.352 . S
Cd102 O110 2.277 1_455 S
Cd102 O111 2.356 . S
C103 O108 1.209 . S
C103 O110 1.226 . S
O104 Cd100 2.273 . S
O104 Cd102 2.411 1_655 S
O104 C107 1.320 . S
O105 Cd102 2.333 1_655 S
O105 C107 1.214 . S
O106 Cd102 2.352 . S
O106 C109 1.258 . S
C107 O104 1.320 . S
C107 O105 1.214 . S
O108 Cd100 2.277 . S
O108 C103 1.209 . S
C109 O106 1.258 . S
C109 O111 1.282 . S
O110 Cd102 2.277 1_655 S
O110 C103 1.226 . S
O111 Cd102 2.356 . S
O111 C109 1.282 . S
C112 O113 1.306 . S
C112 O115 1.160 . S
O113 C112 1.306 . S
O113 Cd114 2.228 . S
Cd114 O113 2.228 . S
Cd114 O118 2.273 . S
Cd114 O122 2.277 . S
O115 C112 1.160 . S
O115 Cd116 2.203 1_565 S
Cd116 O115 2.203 1_545 S
Cd116 O118 2.411 1_545 S
Cd116 O119 2.333 . S
Cd116 O120 2.352 . S
Cd116 O124 2.277 . S
Cd116 O125 2.356 . S
C117 O122 1.209 1_545 S
C117 O124 1.226 . S
O118 Cd114 2.273 . S
O118 Cd116 2.411 1_565 S
O118 C121 1.320 . S
O119 Cd116 2.333 . S
O119 C121 1.214 1_545 S
O120 Cd116 2.352 . S
O120 C123 1.258 . S
C121 O118 1.320 . S
C121 O119 1.214 1_565 S
O122 Cd114 2.277 . S
O122 C117 1.209 1_565 S
C123 O120 1.258 . S
C123 O125 1.282 . S
O124 Cd116 2.277 . S
O124 C117 1.226 . S
O125 Cd116 2.356 . S
O125 C123 1.282 . S
C126 O127 1.306 . S
C126 O129 1.160 . S
O127 C126 1.306 . S
O127 Cd128 2.228 . S
Cd128 O127 2.228 . S
Cd128 O132 2.273 . S
Cd128 O136 2.277 . S
O129 C126 1.160 . S
O129 Cd130 2.203 . S
Cd130 O129 2.203 . S
Cd130 O132 2.411 . S
Cd130 O133 2.333 . S
Cd130 O134 2.352 . S
Cd130 O138 2.277 . S
Cd130 O139 2.356 . S
C131 O136 1.209 . S
C131 O138 1.226 . S
O132 Cd128 2.273 . S
O132 Cd130 2.411 . S
O132 C135 1.320 . S
O133 Cd130 2.333 . S
O133 C135 1.214 . S
O134 Cd130 2.352 . S
O134 C137 1.258 . S
C135 O132 1.320 . S
C135 O133 1.214 . S
O136 Cd128 2.277 . S
O136 C131 1.209 . S
C137 O134 1.258 . S
C137 O139 1.282 . S
O138 Cd130 2.277 . S
O138 C131 1.226 . S
O139 Cd130 2.356 . S
O139 C137 1.282 . S
C140 O141 1.306 . S
C140 O143 1.160 . S
O141 C140 1.306 . S
O141 Cd142 2.228 . S
Cd142 O141 2.228 . S
Cd142 O146 2.273 . S
Cd142 O150 2.277 . S
O143 C140 1.160 . S
O143 Cd144 2.203 1_565 S
Cd144 O143 2.203 1_545 S
Cd144 O146 2.411 1_545 S
Cd144 O147 2.333 . S
Cd144 O148 2.352 . S
Cd144 O152 2.277 . S
Cd144 O153 2.356 . S
C145 O150 1.209 1_545 S
C145 O152 1.226 . S
O146 Cd142 2.273 . S
O146 Cd144 2.411 1_565 S
O146 C149 1.320 . S
O147 Cd144 2.333 . S
O147 C149 1.214 1_545 S
O148 Cd144 2.352 . S
O148 C151 1.258 . S
C149 O146 1.320 . S
C149 O147 1.214 1_565 S
O150 Cd142 2.277 . S
O150 C145 1.209 1_565 S
C151 O148 1.258 . S
C151 O153 1.282 . S
O152 Cd144 2.277 . S
O152 C145 1.226 . S
O153 Cd144 2.356 . S
O153 C151 1.282 . S
C154 O155 1.306 . S
C154 O157 1.160 . S
O155 C154 1.306 . S
O155 Cd156 2.228 1_554 S
Cd156 O155 2.228 1_556 S
Cd156 O160 2.273 . S
Cd156 O164 2.277 . S
O157 C154 1.160 . S
O157 Cd158 2.203 . S
Cd158 O157 2.203 . S
Cd158 O160 2.411 1_554 S
Cd158 O161 2.333 1_554 S
Cd158 O162 2.352 . S
Cd158 O166 2.277 1_554 S
Cd158 O167 2.356 . S
C159 O164 1.209 . S
C159 O166 1.226 . S
O160 Cd156 2.273 . S
O160 Cd158 2.411 1_556 S
O160 C163 1.320 . S
O161 Cd158 2.333 1_556 S
O161 C163 1.214 . S
O162 Cd158 2.352 . S
O162 C165 1.258 . S
C163 O160 1.320 . S
C163 O161 1.214 . S
O164 Cd156 2.277 . S
O164 C159 1.209 . S
C165 O162 1.258 . S
C165 O167 1.282 . S
O166 Cd158 2.277 1_556 S
O166 C159 1.226 . S
O167 Cd158 2.356 . S
O167 C165 1.282 . S
C168 O169 1.306 . S
C168 O171 1.160 . S
O169 C168 1.306 . S
O169 Cd170 2.228 . S
Cd170 O169 2.228 . S
Cd170 O174 2.273 . S
Cd170 O178 2.277 . S
O171 C168 1.160 . S
O171 Cd172 2.203 1_554 S
Cd172 O171 2.203 1_556 S
Cd172 O174 2.411 1_556 S
Cd172 O175 2.333 . S
Cd172 O176 2.351 1_556 S
Cd172 O180 2.277 . S
Cd172 O181 2.356 . S
C173 O178 1.209 1_556 S
C173 O180 1.226 . S
O174 Cd170 2.273 . S
O174 Cd172 2.411 1_554 S
O174 C177 1.320 . S
O175 Cd172 2.333 . S
O175 C177 1.214 1_556 S
O176 Cd172 2.351 1_554 S
O176 C179 1.255 1_554 S
C177 O174 1.320 . S
C177 O175 1.214 1_554 S
O178 Cd170 2.277 . S
O178 C173 1.209 1_554 S
C179 O176 1.255 1_556 S
C179 O181 1.282 . S
O180 Cd172 2.277 . S
O180 C173 1.226 . S
O181 Cd172 2.356 . S
O181 C179 1.282 . S
C182 O183 1.306 . S
C182 O185 1.160 . S
O183 C182 1.306 . S
O183 Cd184 2.228 . S
Cd184 O183 2.228 . S
Cd184 O188 2.273 . S
Cd184 O192 2.277 . S
O185 C182 1.160 . S
O185 Cd186 2.203 1_554 S
Cd186 O185 2.203 1_556 S
Cd186 O188 2.411 1_556 S
Cd186 O189 2.333 . S
Cd186 O190 2.352 . S
Cd186 O194 2.277 . S
Cd186 O195 2.356 . S
C187 O192 1.209 1_556 S
C187 O194 1.226 . S
O188 Cd184 2.273 . S
O188 Cd186 2.411 1_554 S
O188 C191 1.320 . S
O189 Cd186 2.333 . S
O189 C191 1.214 1_556 S
O190 Cd186 2.352 . S
O190 C193 1.258 . S
C191 O188 1.320 . S
C191 O189 1.214 1_554 S
O192 Cd184 2.277 . S
O192 C187 1.209 1_554 S
C193 O190 1.258 . S
C193 O195 1.282 . S
O194 Cd186 2.277 . S
O194 C187 1.226 . S
O195 Cd186 2.356 . S
O195 C193 1.282 . S
C196 O197 1.306 . S
C196 O199 1.160 . S
O197 C196 1.306 . S
O197 Cd198 2.228 . S
Cd198 O197 2.228 . S
Cd198 O202 2.273 . S
Cd198 O206 2.277 . S
O199 C196 1.160 . S
O199 Cd200 2.203 . S
Cd200 O199 2.203 . S
Cd200 O202 2.411 . S
Cd200 O203 2.333 . S
Cd200 O204 2.352 . S
Cd200 O208 2.277 . S
Cd200 O209 2.356 . S
C201 O206 1.209 . S
C201 O208 1.226 . S
O202 Cd198 2.273 . S
O202 Cd200 2.411 . S
O202 C205 1.320 . S
O203 Cd200 2.333 . S
O203 C205 1.214 . S
O204 Cd200 2.352 . S
O204 C207 1.258 . S
C205 O202 1.320 . S
C205 O203 1.214 . S
O206 Cd198 2.277 . S
O206 C201 1.209 . S
C207 O204 1.258 . S
C207 O209 1.282 . S
O208 Cd200 2.277 . S
O208 C201 1.226 . S
O209 Cd200 2.356 . S
O209 C207 1.282 . S
C210 O211 1.306 . S
C210 O213 1.160 . S
O211 C210 1.306 . S
O211 Cd212 2.228 . S
Cd212 O211 2.228 . S
Cd212 O216 2.273 . S
Cd212 O220 2.277 . S
O213 C210 1.160 . S
O213 Cd214 2.203 . S
Cd214 O213 2.203 . S
Cd214 O216 2.411 . S
Cd214 O217 2.333 . S
Cd214 O218 2.352 . S
Cd214 O222 2.277 . S
Cd214 O223 2.356 . S
C215 O220 1.209 . S
C215 O222 1.226 . S
O216 Cd212 2.273 . S
O216 Cd214 2.411 . S
O216 C219 1.320 . S
O217 Cd214 2.333 . S
O217 C219 1.214 . S
O218 Cd214 2.352 . S
O218 C221 1.258 . S
C219 O216 1.320 . S
C219 O217 1.214 . S
O220 Cd212 2.277 . S
O220 C215 1.209 . S
C221 O218 1.258 . S
C221 O223 1.282 . S
O222 Cd214 2.277 . S
O222 C215 1.226 . S
O223 Cd214 2.356 . S
O223 C221 1.282 . S
C224 O225 1.306 . S
C224 O227 1.160 . S
O225 C224 1.306 . S
O225 Cd226 2.228 1_545 S
Cd226 O225 2.228 1_565 S
Cd226 O230 2.273 . S
Cd226 O234 2.277 . S
O227 C224 1.160 . S
O227 Cd228 2.203 . S
Cd228 O227 2.203 . S
Cd228 O230 2.411 1_545 S
Cd228 O231 2.333 1_545 S
Cd228 O232 2.352 . S
Cd228 O236 2.277 1_545 S
Cd228 O237 2.356 . S
C229 O234 1.209 . S
C229 O236 1.226 . S
O230 Cd226 2.273 . S
O230 Cd228 2.411 1_565 S
O230 C233 1.320 . S
O231 Cd228 2.333 1_565 S
O231 C233 1.214 . S
O232 Cd228 2.352 . S
O232 C235 1.258 . S
C233 O230 1.320 . S
C233 O231 1.214 . S
O234 Cd226 2.277 . S
O234 C229 1.209 . S
C235 O232 1.258 . S
C235 O237 1.282 . S
O236 Cd228 2.277 1_565 S
O236 C229 1.226 . S
O237 Cd228 2.356 . S
O237 C235 1.282 . S
C238 O239 1.306 . S
C238 O241 1.160 . S
O239 C238 1.306 . S
O239 Cd240 2.228 . S
Cd240 O239 2.228 . S
Cd240 O244 2.273 . S
Cd240 O248 2.277 . S
O241 C238 1.160 . S
O241 Cd242 2.203 . S
Cd242 O241 2.203 . S
Cd242 O244 2.411 . S
Cd242 O245 2.333 . S
Cd242 O246 2.352 . S
Cd242 O250 2.277 . S
Cd242 O251 2.356 . S
C243 O248 1.209 . S
C243 O250 1.226 . S
O244 Cd240 2.273 . S
O244 Cd242 2.411 . S
O244 C247 1.320 . S
O245 Cd242 2.333 . S
O245 C247 1.214 . S
O246 Cd242 2.352 . S
O246 C249 1.258 . S
C247 O244 1.320 . S
C247 O245 1.214 . S
O248 Cd240 2.277 . S
O248 C243 1.209 . S
C249 O246 1.258 . S
C249 O251 1.282 . S
O250 Cd242 2.277 . S
O250 C243 1.226 . S
O251 Cd242 2.356 . S
O251 C249 1.282 . S
C252 O253 1.306 . S
C252 O255 1.160 . S
O253 C252 1.306 . S
O253 Cd254 2.228 . S
Cd254 O253 2.228 . S
Cd254 O258 2.273 . S
Cd254 O262 2.277 . S
O255 C252 1.160 . S
O255 Cd256 2.203 . S
Cd256 O255 2.203 . S
Cd256 O258 2.411 . S
Cd256 O259 2.333 . S
Cd256 O260 2.352 . S
Cd256 O264 2.277 . S
Cd256 O265 2.356 . S
C257 O262 1.209 . S
C257 O264 1.226 . S
O258 Cd254 2.273 . S
O258 Cd256 2.411 . S
O258 C261 1.320 . S
O259 Cd256 2.333 . S
O259 C261 1.214 . S
O260 Cd256 2.352 . S
O260 C263 1.258 . S
C261 O258 1.320 . S
C261 O259 1.214 . S
O262 Cd254 2.277 . S
O262 C257 1.209 . S
C263 O260 1.258 . S
C263 O265 1.282 . S
O264 Cd256 2.277 . S
O264 C257 1.226 . S
O265 Cd256 2.356 . S
O265 C263 1.282 . S
C266 O267 1.306 . S
C266 O269 1.160 . S
O267 C266 1.306 . S
O267 Cd268 2.228 1_545 S
Cd268 O267 2.228 1_565 S
Cd268 O272 2.273 . S
Cd268 O276 2.277 . S
O269 C266 1.160 . S
O269 Cd270 2.203 . S
Cd270 O269 2.203 . S
Cd270 O272 2.411 1_545 S
Cd270 O273 2.333 1_545 S
Cd270 O274 2.352 . S
Cd270 O278 2.277 1_545 S
Cd270 O279 2.356 . S
C271 O276 1.209 . S
C271 O278 1.226 . S
O272 Cd268 2.273 . S
O272 Cd270 2.411 1_565 S
O272 C275 1.320 . S
O273 Cd270 2.333 1_565 S
O273 C275 1.214 . S
O274 Cd270 2.352 . S
O274 C277 1.258 . S
C275 O272 1.320 . S
C275 O273 1.214 . S
O276 Cd268 2.277 . S
O276 C271 1.209 . S
C277 O274 1.258 . S
C277 O279 1.282 . S
O278 Cd270 2.277 1_565 S
O278 C271 1.226 . S
O279 Cd270 2.356 . S
O279 C277 1.282 . S
C280 O281 1.306 . S
C280 O283 1.160 . S
O281 C280 1.306 . S
O281 Cd282 2.228 1_554 S
Cd282 O281 2.228 1_556 S
Cd282 O286 2.273 . S
Cd282 O290 2.277 . S
O283 C280 1.160 . S
O283 Cd284 2.203 . S
Cd284 O283 2.203 . S
Cd284 O286 2.411 1_554 S
Cd284 O287 2.333 1_554 S
Cd284 O288 2.352 . S
Cd284 O292 2.277 1_554 S
Cd284 O293 2.356 . S
C285 O290 1.209 . S
C285 O292 1.226 . S
O286 Cd282 2.273 . S
O286 Cd284 2.411 1_556 S
O286 C289 1.320 . S
O287 Cd284 2.333 1_556 S
O287 C289 1.214 . S
O288 Cd284 2.352 . S
O288 C291 1.258 . S
C289 O286 1.320 . S
C289 O287 1.214 . S
O290 Cd282 2.277 . S
O290 C285 1.209 . S
C291 O288 1.258 . S
C291 O293 1.282 . S
O292 Cd284 2.277 1_556 S
O292 C285 1.226 . S
O293 Cd284 2.356 . S
O293 C291 1.282 . S
C294 O295 1.306 . S
C294 O297 1.160 . S
O295 C294 1.306 . S
O295 Cd296 2.228 . S
Cd296 O295 2.228 . S
Cd296 O300 2.273 . S
Cd296 O304 2.277 . S
O297 C294 1.160 . S
O297 Cd298 2.203 . S
Cd298 O297 2.203 . S
Cd298 O300 2.411 . S
Cd298 O301 2.333 . S
Cd298 O302 2.352 . S
Cd298 O306 2.277 . S
Cd298 O307 2.356 . S
C299 O304 1.209 . S
C299 O306 1.226 . S
O300 Cd296 2.273 . S
O300 Cd298 2.411 . S
O300 C303 1.320 . S
O301 Cd298 2.333 . S
O301 C303 1.214 . S
O302 Cd298 2.352 . S
O302 C305 1.258 . S
C303 O300 1.320 . S
C303 O301 1.214 . S
O304 Cd296 2.277 . S
O304 C299 1.209 . S
C305 O302 1.258 . S
C305 O307 1.282 . S
O306 Cd298 2.277 . S
O306 C299 1.226 . S
O307 Cd298 2.356 . S
O307 C305 1.282 . S
C308 O309 1.306 . S
C308 O311 1.160 . S
O309 C308 1.306 . S
O309 Cd310 2.228 . S
Cd310 O309 2.228 . S
Cd310 O314 2.273 . S
Cd310 O318 2.277 . S
O311 C308 1.160 . S
O311 Cd312 2.203 . S
Cd312 O311 2.203 . S
Cd312 O314 2.411 . S
Cd312 O315 2.333 . S
Cd312 O316 2.352 . S
Cd312 O320 2.277 . S
Cd312 O321 2.356 . S
C313 O318 1.209 . S
C313 O320 1.226 . S
O314 Cd310 2.273 . S
O314 Cd312 2.411 . S
O314 C317 1.320 . S
O315 Cd312 2.333 . S
O315 C317 1.214 . S
O316 Cd312 2.352 . S
O316 C319 1.258 . S
C317 O314 1.320 . S
C317 O315 1.214 . S
O318 Cd310 2.277 . S
O318 C313 1.209 . S
C319 O316 1.258 . S
C319 O321 1.282 . S
O320 Cd312 2.277 . S
O320 C313 1.226 . S
O321 Cd312 2.356 . S
O321 C319 1.282 . S
C322 O323 1.306 . S
C322 O325 1.160 . S
O323 C322 1.306 . S
O323 Cd324 2.228 . S
Cd324 O323 2.228 . S
Cd324 O328 2.273 . S
Cd324 O332 2.277 . S
O325 C322 1.160 . S
O325 Cd326 2.203 . S
Cd326 O325 2.203 . S
Cd326 O328 2.411 . S
Cd326 O329 2.333 . S
Cd326 O330 2.352 . S
Cd326 O334 2.277 . S
Cd326 O335 2.356 . S
C327 O332 1.209 . S
C327 O334 1.226 . S
O328 Cd324 2.273 . S
O328 Cd326 2.411 . S
O328 C331 1.320 . S
O329 Cd326 2.333 . S
O329 C331 1.214 . S
O330 Cd326 2.352 . S
O330 C333 1.258 . S
C331 O328 1.320 . S
C331 O329 1.214 . S
O332 Cd324 2.277 . S
O332 C327 1.209 . S
C333 O330 1.258 . S
C333 O335 1.282 . S
O334 Cd326 2.277 . S
O334 C327 1.226 . S
O335 Cd326 2.356 . S
O335 C333 1.282 . S
Fe336 O338 1.918 . S
Fe336 O341 1.997 . S
Fe336 O342 2.002 . S
Fe336 O347 1.976 . S
Fe336 O350 1.996 . S
Fe337 O338 1.918 . S
Fe337 O345 1.997 . S
Fe337 O348 1.996 . S
Fe337 O352 1.976 . S
Fe337 O355 2.002 . S
O338 Fe336 1.918 . S
O338 Fe337 1.918 . S
O338 Fe339 1.918 . S
Fe339 O338 1.918 . S
Fe339 O340 2.002 . S
Fe339 O349 1.976 . S
Fe339 O353 1.996 . S
Fe339 O356 1.997 . S
O340 Fe339 2.002 . S
O340 C357 1.295 . S
O341 Fe336 1.997 . S
O341 C357 1.235 . S
O342 Fe336 2.002 . S
O342 C343 1.295 . S
C343 O342 1.295 . S
C343 O345 1.235 . S
C344 O349 1.287 . S
C344 O350 1.255 . S
O345 Fe337 1.997 . S
O345 C343 1.235 . S
C346 O352 1.287 . S
C346 O353 1.255 . S
O347 Fe336 1.976 . S
O347 C354 1.287 . S
O348 Fe337 1.996 . S
O348 C354 1.255 . S
O349 Fe339 1.976 . S
O349 C344 1.287 . S
O350 Fe336 1.996 . S
O350 C344 1.255 . S
C351 O355 1.295 . S
C351 O356 1.235 . S
O352 Fe337 1.976 . S
O352 C346 1.287 . S
O353 Fe339 1.996 . S
O353 C346 1.255 . S
C354 O347 1.287 . S
C354 O348 1.255 . S
O355 Fe337 2.002 . S
O355 C351 1.295 . S
O356 Fe339 1.997 . S
O356 C351 1.235 . S
C357 O340 1.295 . S
C357 O341 1.235 . S
Fe358 O360 1.918 . S
Fe358 O363 1.997 . S
Fe358 O364 2.002 . S
Fe358 O369 1.976 . S
Fe358 O372 1.996 . S
Fe359 O360 1.918 . S
Fe359 O367 1.997 . S
Fe359 O370 1.996 . S
Fe359 O374 1.976 . S
Fe359 O377 2.002 . S
O360 Fe358 1.918 . S
O360 Fe359 1.918 . S
O360 Fe361 1.918 . S
Fe361 O360 1.918 . S
Fe361 O362 2.002 . S
Fe361 O371 1.976 . S
Fe361 O375 1.996 . S
Fe361 O378 1.997 . S
O362 Fe361 2.002 . S
O362 C379 1.295 . S
O363 Fe358 1.997 . S
O363 C379 1.235 . S
O364 Fe358 2.002 . S
O364 C365 1.295 . S
C365 O364 1.295 . S
C365 O367 1.235 . S
C366 O371 1.287 . S
C366 O372 1.255 . S
O367 Fe359 1.997 . S
O367 C365 1.235 . S
C368 O374 1.287 . S
C368 O375 1.255 . S
O369 Fe358 1.976 . S
O369 C376 1.287 . S
O370 Fe359 1.996 . S
O370 C376 1.255 . S
O371 Fe361 1.976 . S
O371 C366 1.287 . S
O372 Fe358 1.996 . S
O372 C366 1.255 . S
C373 O377 1.295 . S
C373 O378 1.235 . S
O374 Fe359 1.976 . S
O374 C368 1.287 . S
O375 Fe361 1.996 . S
O375 C368 1.255 . S
C376 O369 1.287 . S
C376 O370 1.255 . S
O377 Fe359 2.002 . S
O377 C373 1.295 . S
O378 Fe361 1.997 . S
O378 C373 1.235 . S
C379 O362 1.295 . S
C379 O363 1.235 . S
Fe380 O382 1.918 . S
Fe380 O385 1.997 . S
Fe380 O386 2.002 . S
Fe380 O391 1.976 . S
Fe380 O394 1.996 . S
Fe381 O382 1.918 . S
Fe381 O389 1.997 . S
Fe381 O392 1.996 . S
Fe381 O396 1.976 . S
Fe381 O399 2.002 . S
O382 Fe380 1.918 . S
O382 Fe381 1.918 . S
O382 Fe383 1.918 . S
Fe383 O382 1.918 . S
Fe383 O384 2.002 . S
Fe383 O393 1.976 . S
Fe383 O397 1.996 . S
Fe383 O400 1.997 . S
O384 Fe383 2.002 . S
O384 C401 1.295 . S
O385 Fe380 1.997 . S
O385 C401 1.235 . S
O386 Fe380 2.002 . S
O386 C387 1.295 . S
C387 O386 1.295 . S
C387 O389 1.235 . S
C388 O393 1.287 . S
C388 O394 1.255 . S
O389 Fe381 1.997 . S
O389 C387 1.235 . S
C390 O396 1.287 . S
C390 O397 1.255 . S
O391 Fe380 1.976 . S
O391 C398 1.287 . S
O392 Fe381 1.996 . S
O392 C398 1.255 . S
O393 Fe383 1.976 . S
O393 C388 1.287 . S
O394 Fe380 1.996 . S
O394 C388 1.255 . S
C395 O399 1.295 . S
C395 O400 1.235 . S
O396 Fe381 1.976 . S
O396 C390 1.287 . S
O397 Fe383 1.996 . S
O397 C390 1.255 . S
C398 O391 1.287 . S
C398 O392 1.255 . S
O399 Fe381 2.002 . S
O399 C395 1.295 . S
O400 Fe383 1.997 . S
O400 C395 1.235 . S
C401 O384 1.295 . S
C401 O385 1.235 . S
Fe402 O404 1.918 . S
Fe402 O407 1.997 . S
Fe402 O408 2.002 . S
Fe402 O413 1.976 . S
Fe402 O416 1.996 . S
Fe403 O404 1.918 . S
Fe403 O411 1.997 . S
Fe403 O414 1.996 . S
Fe403 O418 1.976 . S
Fe403 O421 2.002 . S
O404 Fe402 1.918 . S
O404 Fe403 1.918 . S
O404 Fe405 1.918 . S
Fe405 O404 1.918 . S
Fe405 O406 2.002 . S
Fe405 O415 1.976 . S
Fe405 O419 1.996 . S
Fe405 O422 1.997 . S
O406 Fe405 2.002 . S
O406 C423 1.295 . S
O407 Fe402 1.997 . S
O407 C423 1.235 . S
O408 Fe402 2.002 . S
O408 C409 1.295 . S
C409 O408 1.295 . S
C409 O411 1.235 . S
C410 O415 1.287 . S
C410 O416 1.255 . S
O411 Fe403 1.997 . S
O411 C409 1.235 . S
C412 O418 1.287 . S
C412 O419 1.255 . S
O413 Fe402 1.976 . S
O413 C420 1.287 . S
O414 Fe403 1.996 . S
O414 C420 1.255 . S
O415 Fe405 1.976 . S
O415 C410 1.287 . S
O416 Fe402 1.996 . S
O416 C410 1.255 . S
C417 O421 1.295 . S
C417 O422 1.235 . S
O418 Fe403 1.976 . S
O418 C412 1.287 . S
O419 Fe405 1.996 . S
O419 C412 1.255 . S
C420 O413 1.287 . S
C420 O414 1.255 . S
O421 Fe403 2.002 . S
O421 C417 1.295 . S
O422 Fe405 1.997 . S
O422 C417 1.235 . S
C423 O406 1.295 . S
C423 O407 1.235 . S
Fe424 O426 1.918 . S
Fe424 O429 1.997 . S
Fe424 O430 2.002 . S
Fe424 O435 1.976 . S
Fe424 O438 1.996 . S
Fe425 O426 1.918 . S
Fe425 O433 1.997 . S
Fe425 O436 1.996 . S
Fe425 O440 1.976 . S
Fe425 O443 2.002 . S
O426 Fe424 1.918 . S
O426 Fe425 1.918 . S
O426 Fe427 1.918 . S
Fe427 O426 1.918 . S
Fe427 O428 2.002 . S
Fe427 O437 1.976 . S
Fe427 O441 1.996 . S
Fe427 O444 1.997 . S
O428 Fe427 2.002 . S
O428 C445 1.295 . S
O429 Fe424 1.997 . S
O429 C445 1.235 . S
O430 Fe424 2.002 . S
O430 C431 1.295 . S
C431 O430 1.295 . S
C431 O433 1.235 . S
C432 O437 1.287 . S
C432 O438 1.255 . S
O433 Fe425 1.997 . S
O433 C431 1.235 . S
C434 O440 1.287 . S
C434 O441 1.255 . S
O435 Fe424 1.976 . S
O435 C442 1.287 . S
O436 Fe425 1.996 . S
O436 C442 1.255 . S
O437 Fe427 1.976 . S
O437 C432 1.287 . S
O438 Fe424 1.996 . S
O438 C432 1.255 . S
C439 O443 1.295 . S
C439 O444 1.235 . S
O440 Fe425 1.976 . S
O440 C434 1.287 . S
O441 Fe427 1.996 . S
O441 C434 1.255 . S
C442 O435 1.287 . S
C442 O436 1.255 . S
O443 Fe425 2.002 . S
O443 C439 1.295 . S
O444 Fe427 1.997 . S
O444 C439 1.235 . S
C445 O428 1.295 . S
C445 O429 1.235 . S
Fe446 O448 1.918 . S
Fe446 O451 1.997 . S
Fe446 O452 2.002 . S
Fe446 O457 1.976 . S
Fe446 O460 1.996 . S
Fe447 O448 1.918 . S
Fe447 O455 1.997 . S
Fe447 O458 1.996 . S
Fe447 O462 1.976 . S
Fe447 O465 2.002 . S
O448 Fe446 1.918 . S
O448 Fe447 1.918 . S
O448 Fe449 1.918 . S
Fe449 O448 1.918 . S
Fe449 O450 2.002 . S
Fe449 O459 1.976 . S
Fe449 O463 1.996 . S
Fe449 O466 1.997 . S
O450 Fe449 2.002 . S
O450 C467 1.295 . S
O451 Fe446 1.997 . S
O451 C467 1.235 . S
O452 Fe446 2.002 . S
O452 C453 1.295 . S
C453 O452 1.295 . S
C453 O455 1.235 . S
C454 O459 1.287 . S
C454 O460 1.255 . S
O455 Fe447 1.997 . S
O455 C453 1.235 . S
C456 O462 1.287 . S
C456 O463 1.255 . S
O457 Fe446 1.976 . S
O457 C464 1.287 . S
O458 Fe447 1.996 . S
O458 C464 1.255 . S
O459 Fe449 1.976 . S
O459 C454 1.287 . S
O460 Fe446 1.996 . S
O460 C454 1.255 . S
C461 O465 1.295 . S
C461 O466 1.235 . S
O462 Fe447 1.976 . S
O462 C456 1.287 . S
O463 Fe449 1.996 . S
O463 C456 1.255 . S
C464 O457 1.287 . S
C464 O458 1.255 . S
O465 Fe447 2.002 . S
O465 C461 1.295 . S
O466 Fe449 1.997 . S
O466 C461 1.235 . S
C467 O450 1.295 . S
C467 O451 1.235 . S
Fe468 O470 1.918 . S
Fe468 O473 1.997 . S
Fe468 O474 2.002 . S
Fe468 O479 1.976 . S
Fe468 O482 1.996 . S
Fe469 O470 1.918 . S
Fe469 O477 1.997 . S
Fe469 O480 1.996 . S
Fe469 O484 1.976 . S
Fe469 O487 2.002 . S
O470 Fe468 1.918 . S
O470 Fe469 1.918 . S
O470 Fe471 1.918 . S
Fe471 O470 1.918 . S
Fe471 O472 2.002 . S
Fe471 O481 1.976 . S
Fe471 O485 1.996 . S
Fe471 O488 1.997 . S
O472 Fe471 2.002 . S
O472 C489 1.295 . S
O473 Fe468 1.997 . S
O473 C489 1.235 . S
O474 Fe468 2.002 . S
O474 C475 1.295 . S
C475 O474 1.295 . S
C475 O477 1.235 . S
C476 O481 1.287 . S
C476 O482 1.255 . S
O477 Fe469 1.997 . S
O477 C475 1.235 . S
C478 O484 1.287 . S
C478 O485 1.255 . S
O479 Fe468 1.976 . S
O479 C486 1.287 . S
O480 Fe469 1.996 . S
O480 C486 1.255 . S
O481 Fe471 1.976 . S
O481 C476 1.287 . S
O482 Fe468 1.996 . S
O482 C476 1.255 . S
C483 O487 1.295 . S
C483 O488 1.235 . S
O484 Fe469 1.976 . S
O484 C478 1.287 . S
O485 Fe471 1.996 . S
O485 C478 1.255 . S
C486 O479 1.287 . S
C486 O480 1.255 . S
O487 Fe469 2.002 . S
O487 C483 1.295 . S
O488 Fe471 1.997 . S
O488 C483 1.235 . S
C489 O472 1.295 . S
C489 O473 1.235 . S
Fe490 O492 1.918 . S
Fe490 O495 1.997 . S
Fe490 O496 2.002 . S
Fe490 O501 1.976 . S
Fe490 O504 1.996 . S
Fe491 O492 1.918 . S
Fe491 O499 1.997 . S
Fe491 O502 1.996 . S
Fe491 O506 1.976 . S
Fe491 O509 2.002 . S
O492 Fe490 1.918 . S
O492 Fe491 1.918 . S
O492 Fe493 1.918 . S
Fe493 O492 1.918 . S
Fe493 O494 2.002 . S
Fe493 O503 1.976 . S
Fe493 O507 1.996 . S
Fe493 O510 1.997 . S
O494 Fe493 2.002 . S
O494 C511 1.295 . S
O495 Fe490 1.997 . S
O495 C511 1.235 . S
O496 Fe490 2.002 . S
O496 C497 1.295 . S
C497 O496 1.295 . S
C497 O499 1.235 . S
C498 O503 1.287 . S
C498 O504 1.255 . S
O499 Fe491 1.997 . S
O499 C497 1.235 . S
C500 O506 1.287 . S
C500 O507 1.255 . S
O501 Fe490 1.976 . S
O501 C508 1.287 . S
O502 Fe491 1.996 . S
O502 C508 1.255 . S
O503 Fe493 1.976 . S
O503 C498 1.287 . S
O504 Fe490 1.996 . S
O504 C498 1.255 . S
C505 O509 1.295 . S
C505 O510 1.235 . S
O506 Fe491 1.976 . S
O506 C500 1.287 . S
O507 Fe493 1.996 . S
O507 C500 1.255 . S
C508 O501 1.287 . S
C508 O502 1.255 . S
O509 Fe491 2.002 . S
O509 C505 1.295 . S
O510 Fe493 1.997 . S
O510 C505 1.235 . S
C511 O494 1.295 . S
C511 O495 1.235 . S
Fe512 O514 1.918 . S
Fe512 O517 1.997 . S
Fe512 O518 2.002 . S
Fe512 O523 1.976 . S
Fe512 O526 1.996 . S
Fe513 O514 1.918 . S
Fe513 O521 1.997 . S
Fe513 O524 1.996 . S
Fe513 O528 1.976 . S
Fe513 O531 2.002 . S
O514 Fe512 1.918 . S
O514 Fe513 1.918 . S
O514 Fe515 1.918 . S
Fe515 O514 1.918 . S
Fe515 O516 2.002 . S
Fe515 O525 1.976 . S
Fe515 O529 1.996 . S
Fe515 O532 1.997 . S
O516 Fe515 2.002 . S
O516 C533 1.295 . S
O517 Fe512 1.997 . S
O517 C533 1.235 . S
O518 Fe512 2.002 . S
O518 C519 1.295 . S
C519 O518 1.295 . S
C519 O521 1.235 . S
C520 O525 1.287 . S
C520 O526 1.255 . S
O521 Fe513 1.997 . S
O521 C519 1.235 . S
C522 O528 1.287 . S
C522 O529 1.255 . S
O523 Fe512 1.976 . S
O523 C530 1.287 . S
O524 Fe513 1.996 . S
O524 C530 1.255 . S
O525 Fe515 1.976 . S
O525 C520 1.287 . S
O526 Fe512 1.996 . S
O526 C520 1.255 . S
C527 O531 1.295 . S
C527 O532 1.235 . S
O528 Fe513 1.976 . S
O528 C522 1.287 . S
O529 Fe515 1.996 . S
O529 C522 1.255 . S
C530 O523 1.287 . S
C530 O524 1.255 . S
O531 Fe513 2.002 . S
O531 C527 1.295 . S
O532 Fe515 1.997 . S
O532 C527 1.235 . S
C533 O516 1.295 . S
C533 O517 1.235 . S
Fe534 O536 1.918 . S
Fe534 O539 1.997 . S
Fe534 O540 2.002 . S
Fe534 O545 1.976 . S
Fe534 O548 1.996 . S
Fe535 O536 1.918 . S
Fe535 O543 1.997 . S
Fe535 O546 1.996 . S
Fe535 O550 1.976 . S
Fe535 O553 2.002 . S
O536 Fe534 1.918 . S
O536 Fe535 1.918 . S
O536 Fe537 1.918 . S
Fe537 O536 1.918 . S
Fe537 O538 2.002 . S
Fe537 O547 1.976 . S
Fe537 O551 1.996 . S
Fe537 O554 1.997 . S
O538 Fe537 2.002 . S
O538 C555 1.295 . S
O539 Fe534 1.997 . S
O539 C555 1.235 . S
O540 Fe534 2.002 . S
O540 C541 1.295 . S
C541 O540 1.295 . S
C541 O543 1.235 . S
C542 O547 1.287 . S
C542 O548 1.255 . S
O543 Fe535 1.997 . S
O543 C541 1.235 . S
C544 O550 1.287 . S
C544 O551 1.255 . S
O545 Fe534 1.976 . S
O545 C552 1.287 . S
O546 Fe535 1.996 . S
O546 C552 1.255 . S
O547 Fe537 1.976 . S
O547 C542 1.287 . S
O548 Fe534 1.996 . S
O548 C542 1.255 . S
C549 O553 1.295 . S
C549 O554 1.235 . S
O550 Fe535 1.976 . S
O550 C544 1.287 . S
O551 Fe537 1.996 . S
O551 C544 1.255 . S
C552 O545 1.287 . S
C552 O546 1.255 . S
O553 Fe535 2.002 . S
O553 C549 1.295 . S
O554 Fe537 1.997 . S
O554 C549 1.235 . S
C555 O538 1.295 . S
C555 O539 1.235 . S
Fe556 O558 1.918 . S
Fe556 O561 1.997 . S
Fe556 O562 2.002 . S
Fe556 O567 1.976 . S
Fe556 O570 1.996 . S
Fe557 O558 1.918 . S
Fe557 O565 1.997 . S
Fe557 O568 1.996 . S
Fe557 O572 1.976 . S
Fe557 O575 2.002 . S
O558 Fe556 1.918 . S
O558 Fe557 1.918 . S
O558 Fe559 1.918 . S
Fe559 O558 1.918 . S
Fe559 O560 2.002 . S
Fe559 O569 1.976 . S
Fe559 O573 1.996 . S
Fe559 O576 1.997 . S
O560 Fe559 2.002 . S
O560 C577 1.295 . S
O561 Fe556 1.997 . S
O561 C577 1.235 . S
O562 Fe556 2.002 . S
O562 C563 1.295 . S
C563 O562 1.295 . S
C563 O565 1.235 . S
C564 O569 1.287 . S
C564 O570 1.255 . S
O565 Fe557 1.997 . S
O565 C563 1.235 . S
C566 O572 1.287 . S
C566 O573 1.255 . S
O567 Fe556 1.976 . S
O567 C574 1.287 . S
O568 Fe557 1.996 . S
O568 C574 1.255 . S
O569 Fe559 1.976 . S
O569 C564 1.287 . S
O570 Fe556 1.996 . S
O570 C564 1.255 . S
C571 O575 1.295 . S
C571 O576 1.235 . S
O572 Fe557 1.976 . S
O572 C566 1.287 . S
O573 Fe559 1.996 . S
O573 C566 1.255 . S
C574 O567 1.287 . S
C574 O568 1.255 . S
O575 Fe557 2.002 . S
O575 C571 1.295 . S
O576 Fe559 1.997 . S
O576 C571 1.235 . S
C577 O560 1.295 . S
C577 O561 1.235 . S
Fe578 O580 1.918 . S
Fe578 O583 1.997 . S
Fe578 O584 2.002 . S
Fe578 O589 1.976 . S
Fe578 O592 1.996 . S
Fe579 O580 1.918 . S
Fe579 O587 1.997 . S
Fe579 O590 1.996 . S
Fe579 O594 1.976 . S
Fe579 O597 2.002 . S
O580 Fe578 1.918 . S
O580 Fe579 1.918 . S
O580 Fe581 1.918 . S
Fe581 O580 1.918 . S
Fe581 O582 2.002 . S
Fe581 O591 1.976 . S
Fe581 O595 1.996 . S
Fe581 O598 1.997 . S
O582 Fe581 2.002 . S
O582 C599 1.295 . S
O583 Fe578 1.997 . S
O583 C599 1.235 . S
O584 Fe578 2.002 . S
O584 C585 1.295 . S
C585 O584 1.295 . S
C585 O587 1.235 . S
C586 O591 1.287 . S
C586 O592 1.255 . S
O587 Fe579 1.997 . S
O587 C585 1.235 . S
C588 O594 1.287 . S
C588 O595 1.255 . S
O589 Fe578 1.976 . S
O589 C596 1.287 . S
O590 Fe579 1.996 . S
O590 C596 1.255 . S
O591 Fe581 1.976 . S
O591 C586 1.287 . S
O592 Fe578 1.996 . S
O592 C586 1.255 . S
C593 O597 1.295 . S
C593 O598 1.235 . S
O594 Fe579 1.976 . S
O594 C588 1.287 . S
O595 Fe581 1.996 . S
O595 C588 1.255 . S
C596 O589 1.287 . S
C596 O590 1.255 . S
O597 Fe579 2.002 . S
O597 C593 1.295 . S
O598 Fe581 1.997 . S
O598 C593 1.235 . S
C599 O582 1.295 . S
C599 O583 1.235 . S
Fe600 O602 1.918 . S
Fe600 O605 1.997 . S
Fe600 O606 2.002 . S
Fe600 O611 1.976 . S
Fe600 O614 1.996 . S
Fe601 O602 1.918 . S
Fe601 O609 1.997 . S
Fe601 O612 1.996 . S
Fe601 O616 1.976 . S
Fe601 O619 2.002 . S
O602 Fe600 1.918 . S
O602 Fe601 1.918 . S
O602 Fe603 1.918 . S
Fe603 O602 1.918 . S
Fe603 O604 2.002 . S
Fe603 O613 1.976 . S
Fe603 O617 1.996 . S
Fe603 O620 1.997 . S
O604 Fe603 2.002 . S
O604 C621 1.295 . S
O605 Fe600 1.997 . S
O605 C621 1.235 . S
O606 Fe600 2.002 . S
O606 C607 1.295 . S
C607 O606 1.295 . S
C607 O609 1.235 . S
C608 O613 1.287 . S
C608 O614 1.255 . S
O609 Fe601 1.997 . S
O609 C607 1.235 . S
C610 O616 1.287 . S
C610 O617 1.255 . S
O611 Fe600 1.976 . S
O611 C618 1.287 . S
O612 Fe601 1.996 . S
O612 C618 1.255 . S
O613 Fe603 1.976 . S
O613 C608 1.287 . S
O614 Fe600 1.996 . S
O614 C608 1.255 . S
C615 O619 1.295 . S
C615 O620 1.235 . S
O616 Fe601 1.976 . S
O616 C610 1.287 . S
O617 Fe603 1.996 . S
O617 C610 1.255 . S
C618 O611 1.287 . S
C618 O612 1.255 . S
O619 Fe601 2.002 . S
O619 C615 1.295 . S
O620 Fe603 1.997 . S
O620 C615 1.235 . S
C621 O604 1.295 . S
C621 O605 1.235 . S
Fe622 O624 1.918 . S
Fe622 O627 1.997 . S
Fe622 O628 2.002 . S
Fe622 O633 1.976 . S
Fe622 O636 1.996 . S
Fe623 O624 1.918 . S
Fe623 O631 1.997 . S
Fe623 O634 1.996 . S
Fe623 O638 1.976 . S
Fe623 O641 2.002 . S
O624 Fe622 1.918 . S
O624 Fe623 1.918 . S
O624 Fe625 1.918 . S
Fe625 O624 1.918 . S
Fe625 O626 2.002 . S
Fe625 O635 1.976 . S
Fe625 O639 1.996 . S
Fe625 O642 1.997 . S
O626 Fe625 2.002 . S
O626 C643 1.295 . S
O627 Fe622 1.997 . S
O627 C643 1.235 . S
O628 Fe622 2.002 . S
O628 C629 1.295 . S
C629 O628 1.295 . S
C629 O631 1.235 . S
C630 O635 1.287 . S
C630 O636 1.255 . S
O631 Fe623 1.997 . S
O631 C629 1.235 . S
C632 O638 1.287 . S
C632 O639 1.255 . S
O633 Fe622 1.976 . S
O633 C640 1.287 . S
O634 Fe623 1.996 . S
O634 C640 1.255 . S
O635 Fe625 1.976 . S
O635 C630 1.287 . S
O636 Fe622 1.996 . S
O636 C630 1.255 . S
C637 O641 1.295 . S
C637 O642 1.235 . S
O638 Fe623 1.976 . S
O638 C632 1.287 . S
O639 Fe625 1.996 . S
O639 C632 1.255 . S
C640 O633 1.287 . S
C640 O634 1.255 . S
O641 Fe623 2.002 . S
O641 C637 1.295 . S
O642 Fe625 1.997 . S
O642 C637 1.235 . S
C643 O626 1.295 . S
C643 O627 1.235 . S
Fe644 O646 1.918 . S
Fe644 O649 1.997 . S
Fe644 O650 2.002 . S
Fe644 O655 1.976 . S
Fe644 O658 1.996 . S
Fe645 O646 1.918 . S
Fe645 O653 1.997 . S
Fe645 O656 1.996 . S
Fe645 O660 1.976 . S
Fe645 O663 2.002 . S
O646 Fe644 1.918 . S
O646 Fe645 1.918 . S
O646 Fe647 1.918 . S
Fe647 O646 1.918 . S
Fe647 O648 2.002 . S
Fe647 O657 1.976 . S
Fe647 O661 1.996 . S
Fe647 O664 1.997 . S
O648 Fe647 2.002 . S
O648 C665 1.295 . S
O649 Fe644 1.997 . S
O649 C665 1.235 . S
O650 Fe644 2.002 . S
O650 C651 1.295 . S
C651 O650 1.295 . S
C651 O653 1.235 . S
C652 O657 1.287 . S
C652 O658 1.255 . S
O653 Fe645 1.997 . S
O653 C651 1.235 . S
C654 O660 1.287 . S
C654 O661 1.255 . S
O655 Fe644 1.976 . S
O655 C662 1.287 . S
O656 Fe645 1.996 . S
O656 C662 1.255 . S
O657 Fe647 1.976 . S
O657 C652 1.287 . S
O658 Fe644 1.996 . S
O658 C652 1.255 . S
C659 O663 1.295 . S
C659 O664 1.235 . S
O660 Fe645 1.976 . S
O660 C654 1.287 . S
O661 Fe647 1.996 . S
O661 C654 1.255 . S
C662 O655 1.287 . S
C662 O656 1.255 . S
O663 Fe645 2.002 . S
O663 C659 1.295 . S
O664 Fe647 1.997 . S
O664 C659 1.235 . S
C665 O648 1.295 . S
C665 O649 1.235 . S
Fe666 O668 1.918 . S
Fe666 O671 1.997 . S
Fe666 O672 2.002 . S
Fe666 O677 1.976 . S
Fe666 O680 1.996 . S
Fe667 O668 1.918 . S
Fe667 O675 1.997 . S
Fe667 O678 1.996 . S
Fe667 O682 1.976 . S
Fe667 O685 2.002 . S
O668 Fe666 1.918 . S
O668 Fe667 1.918 . S
O668 Fe669 1.918 . S
Fe669 O668 1.918 . S
Fe669 O670 2.002 . S
Fe669 O679 1.976 . S
Fe669 O683 1.996 . S
Fe669 O686 1.997 . S
O670 Fe669 2.002 . S
O670 C687 1.295 . S
O671 Fe666 1.997 . S
O671 C687 1.235 . S
O672 Fe666 2.002 . S
O672 C673 1.295 . S
C673 O672 1.295 . S
C673 O675 1.235 . S
C674 O679 1.287 . S
C674 O680 1.255 . S
O675 Fe667 1.997 . S
O675 C673 1.235 . S
C676 O682 1.287 . S
C676 O683 1.255 . S
O677 Fe666 1.976 . S
O677 C684 1.287 . S
O678 Fe667 1.996 . S
O678 C684 1.255 . S
O679 Fe669 1.976 . S
O679 C674 1.287 . S
O680 Fe666 1.996 . S
O680 C674 1.255 . S
C681 O685 1.295 . S
C681 O686 1.235 . S
O682 Fe667 1.976 . S
O682 C676 1.287 . S
O683 Fe669 1.996 . S
O683 C676 1.255 . S
C684 O677 1.287 . S
C684 O678 1.255 . S
O685 Fe667 2.002 . S
O685 C681 1.295 . S
O686 Fe669 1.997 . S
O686 C681 1.235 . S
C687 O670 1.295 . S
C687 O671 1.235 . S
C688 C689 1.369 . S
C688 C690 1.419 . S
C688 H692 0.930 . S
C689 C688 1.369 . S
C689 C698 1.429 . S
C690 C688 1.419 . S
C690 C691 1.363 . S
C690 H693 0.929 . S
C691 C690 1.363 . S
C691 C697 1.428 . S
H692 C688 0.930 . S
H693 C690 0.929 . S
S694 N695 1.613 . S
S694 N696 1.610 . S
N695 S694 1.613 . S
N695 C698 1.350 . S
N696 S694 1.610 . S
N696 C697 1.351 . S
C697 C691 1.428 . S
C697 N696 1.351 . S
C697 C698 1.434 . S
C698 C689 1.429 . S
C698 N695 1.350 . S
C698 C697 1.434 . S
C699 C700 1.369 . S
C699 C701 1.419 . S
C699 H703 0.930 . S
C700 C699 1.369 . S
C700 C709 1.429 . S
C701 C699 1.419 . S
C701 C702 1.363 . S
C701 H704 0.929 . S
C702 C701 1.363 . S
C702 C708 1.428 . S
H703 C699 0.930 . S
H704 C701 0.929 . S
S705 N706 1.613 . S
S705 N707 1.610 . S
N706 S705 1.613 . S
N706 C709 1.350 . S
N707 S705 1.610 . S
N707 C708 1.351 . S
C708 C702 1.428 . S
C708 N707 1.351 . S
C708 C709 1.434 . S
C709 C700 1.429 . S
C709 N706 1.350 . S
C709 C708 1.434 . S
C710 C711 1.369 . S
C710 C712 1.419 . S
C710 H714 0.930 . S
C711 C710 1.369 . S
C711 C720 1.429 . S
C712 C710 1.419 . S
C712 C713 1.363 . S
C712 H715 0.929 . S
C713 C712 1.363 . S
C713 C719 1.428 . S
H714 C710 0.930 . S
H715 C712 0.929 . S
S716 N717 1.613 . S
S716 N718 1.610 . S
N717 S716 1.613 . S
N717 C720 1.350 . S
N718 S716 1.610 . S
N718 C719 1.351 . S
C719 C713 1.428 . S
C719 N718 1.351 . S
C719 C720 1.434 . S
C720 C711 1.429 . S
C720 N717 1.350 . S
C720 C719 1.434 . S
C721 C722 1.369 . S
C721 C723 1.419 . S
C721 H725 0.930 . S
C722 C721 1.369 . S
C722 C731 1.429 . S
C723 C721 1.419 . S
C723 C724 1.363 1_554 S
C723 H726 0.929 . S
C724 C723 1.363 1_556 S
C724 C730 1.428 . S
H725 C721 0.930 . S
H726 C723 0.929 . S
S727 N728 1.613 1_556 S
S727 N729 1.610 . S
N728 S727 1.613 1_554 S
N728 C731 1.350 . S
N729 S727 1.610 . S
N729 C730 1.351 . S
C730 C724 1.428 . S
C730 N729 1.351 . S
C730 C731 1.434 1_556 S
C731 C722 1.429 . S
C731 N728 1.350 . S
C731 C730 1.434 1_554 S
C732 C733 1.369 . S
C732 C734 1.419 . S
C732 H736 0.930 . S
C733 C732 1.369 . S
C733 C742 1.429 . S
C734 C732 1.419 . S
C734 C735 1.363 . S
C734 H737 0.929 . S
C735 C734 1.363 . S
C735 C741 1.428 . S
H736 C732 0.930 . S
H737 C734 0.929 . S
S738 N739 1.613 . S
S738 N740 1.610 . S
N739 S738 1.613 . S
N739 C742 1.350 . S
N740 S738 1.610 . S
N740 C741 1.351 . S
C741 C735 1.428 . S
C741 N740 1.351 . S
C741 C742 1.434 . S
C742 C733 1.429 . S
C742 N739 1.350 . S
C742 C741 1.434 . S
C743 C744 1.369 . S
C743 C745 1.419 . S
C743 H747 0.930 . S
C744 C743 1.369 . S
C744 C753 1.429 . S
C745 C743 1.419 . S
C745 C746 1.363 . S
C745 H748 0.929 . S
C746 C745 1.363 . S
C746 C752 1.428 . S
H747 C743 0.930 . S
H748 C745 0.929 . S
S749 N750 1.613 . S
S749 N751 1.610 . S
N750 S749 1.613 . S
N750 C753 1.350 . S
N751 S749 1.610 . S
N751 C752 1.351 . S
C752 C746 1.428 . S
C752 N751 1.351 . S
C752 C753 1.434 . S
C753 C744 1.429 . S
C753 N750 1.350 . S
C753 C752 1.434 . S
C754 C755 1.369 . S
C754 C756 1.419 . S
C754 H758 0.930 . S
C755 C754 1.369 . S
C755 C764 1.429 . S
C756 C754 1.419 . S
C756 C757 1.363 . S
C756 H759 0.929 . S
C757 C756 1.363 . S
C757 C763 1.428 . S
H758 C754 0.930 . S
H759 C756 0.929 . S
S760 N761 1.613 . S
S760 N762 1.610 . S
N761 S760 1.613 . S
N761 C764 1.350 . S
N762 S760 1.610 . S
N762 C763 1.351 . S
C763 C757 1.428 . S
C763 N762 1.351 . S
C763 C764 1.434 . S
C764 C755 1.429 . S
C764 N761 1.350 . S
C764 C763 1.434 . S
C765 C766 1.369 . S
C765 C767 1.419 1_556 S
C765 H769 0.930 . S
C766 C765 1.369 . S
C766 C775 1.429 . S
C767 C765 1.419 1_554 S
C767 C768 1.363 . S
C767 H770 0.929 . S
C768 C767 1.363 . S
C768 C774 1.428 1_554 S
H769 C765 0.930 . S
H770 C767 0.929 . S
S771 N772 1.613 . S
S771 N773 1.610 . S
N772 S771 1.613 . S
N772 C775 1.350 . S
N773 S771 1.610 . S
N773 C774 1.351 . S
C774 C768 1.428 1_556 S
C774 N773 1.351 . S
C774 C775 1.434 . S
C775 C766 1.429 . S
C775 N772 1.350 . S
C775 C774 1.434 . S
C776 C777 1.369 . S
C776 C778 1.419 . S
C776 H780 0.930 . S
C777 C776 1.369 . S
C777 C786 1.429 . S
C778 C776 1.419 . S
C778 C779 1.363 . S
C778 H781 0.929 . S
C779 C778 1.363 . S
C779 C785 1.428 . S
H780 C776 0.930 . S
H781 C778 0.929 . S
S782 N783 1.613 . S
S782 N784 1.610 . S
N783 S782 1.613 . S
N783 C786 1.350 . S
N784 S782 1.610 . S
N784 C785 1.351 . S
C785 C779 1.428 . S
C785 N784 1.351 . S
C785 C786 1.434 . S
C786 C777 1.429 . S
C786 N783 1.350 . S
C786 C785 1.434 . S
C787 C788 1.369 . S
C787 C789 1.419 . S
C787 H791 0.930 . S
C788 C787 1.369 . S
C788 C797 1.429 . S
C789 C787 1.419 . S
C789 C790 1.363 1_545 S
C789 H792 0.929 . S
C790 C789 1.363 1_565 S
C790 C796 1.428 1_565 S
H791 C787 0.930 . S
H792 C789 0.929 . S
S793 N794 1.613 . S
S793 N795 1.610 1_545 S
N794 S793 1.613 . S
N794 C797 1.350 . S
N795 S793 1.610 1_565 S
N795 C796 1.351 1_565 S
C796 C790 1.428 1_545 S
C796 N795 1.351 1_545 S
C796 C797 1.434 . S
C797 C788 1.429 . S
C797 N794 1.350 . S
C797 C796 1.434 . S
C798 C799 1.369 . S
C798 C800 1.419 . S
C798 H802 0.930 . S
C799 C798 1.369 . S
C799 C808 1.429 . S
C800 C798 1.419 . S
C800 C801 1.363 . S
C800 H803 0.929 . S
C801 C800 1.363 . S
C801 C807 1.428 . S
H802 C798 0.930 . S
H803 C800 0.929 . S
S804 N805 1.613 . S
S804 N806 1.610 . S
N805 S804 1.613 . S
N805 C808 1.350 . S
N806 S804 1.610 . S
N806 C807 1.351 . S
C807 C801 1.428 . S
C807 N806 1.351 . S
C807 C808 1.434 . S
C808 C799 1.429 . S
C808 N805 1.350 . S
C808 C807 1.434 . S
C809 C810 1.369 . S
C809 C811 1.419 . S
C809 H813 0.930 . S
C810 C809 1.369 . S
C810 C819 1.429 . S
C811 C809 1.419 . S
C811 C812 1.363 1_565 S
C811 H814 0.929 . S
C812 C811 1.363 1_545 S
C812 C818 1.428 . S
H813 C809 0.930 . S
H814 C811 0.929 . S
S815 N816 1.613 1_545 S
S815 N817 1.610 . S
N816 S815 1.613 1_565 S
N816 C819 1.350 . S
N817 S815 1.610 . S
N817 C818 1.351 . S
C818 C812 1.428 . S
C818 N817 1.351 . S
C818 C819 1.434 1_545 S
C819 C810 1.429 . S
C819 N816 1.350 . S
C819 C818 1.434 1_565 S
C820 C821 1.369 . S
C820 C822 1.419 . S
C820 H824 0.930 . S
C821 C820 1.369 . S
C821 C830 1.429 . S
C822 C820 1.419 . S
C822 C823 1.363 . S
C822 H825 0.929 . S
C823 C822 1.363 . S
C823 C829 1.428 . S
H824 C820 0.930 . S
H825 C822 0.929 . S
S826 N827 1.613 . S
S826 N828 1.610 . S
N827 S826 1.613 . S
N827 C830 1.350 . S
N828 S826 1.610 . S
N828 C829 1.351 . S
C829 C823 1.428 . S
C829 N828 1.351 . S
C829 C830 1.434 . S
C830 C821 1.429 . S
C830 N827 1.350 . S
C830 C829 1.434 . S
C831 C832 1.369 . S
C831 C833 1.419 1_545 S
C831 H835 0.930 . S
C832 C831 1.369 . S
C832 C841 1.429 . S
C833 C831 1.419 1_565 S
C833 C834 1.363 . S
C833 H836 0.929 . S
C834 C833 1.363 . S
C834 C840 1.428 1_565 S
H835 C831 0.930 . S
H836 C833 0.929 . S
S837 N838 1.613 . S
S837 N839 1.610 . S
N838 S837 1.613 . S
N838 C841 1.350 . S
N839 S837 1.610 . S
N839 C840 1.351 . S
C840 C834 1.428 1_545 S
C840 N839 1.351 . S
C840 C841 1.434 . S
C841 C832 1.429 . S
C841 N838 1.350 . S
C841 C840 1.434 . S
C842 C843 1.369 . S
C842 C844 1.419 . S
C842 H846 0.930 . S
C843 C842 1.369 . S
C843 C852 1.429 . S
C844 C842 1.419 . S
C844 C845 1.363 . S
C844 H847 0.929 . S
C845 C844 1.363 . S
C845 C851 1.428 . S
H846 C842 0.930 . S
H847 C844 0.929 . S
S848 N849 1.613 . S
S848 N850 1.610 . S
N849 S848 1.613 . S
N849 C852 1.350 . S
N850 S848 1.610 . S
N850 C851 1.351 . S
C851 C845 1.428 . S
C851 N850 1.351 . S
C851 C852 1.434 . S
C852 C843 1.429 . S
C852 N849 1.350 . S
C852 C851 1.434 . S
C853 C854 1.369 . S
C853 C855 1.419 1_565 S
C853 H857 0.930 . S
C854 C853 1.369 . S
C854 C863 1.429 . S
C855 C853 1.419 1_545 S
C855 C856 1.363 . S
C855 H858 0.929 . S
C856 C855 1.363 . S
C856 C862 1.428 1_545 S
H857 C853 0.930 . S
H858 C855 0.929 . S
S859 N860 1.613 . S
S859 N861 1.610 . S
N860 S859 1.613 . S
N860 C863 1.350 . S
N861 S859 1.610 . S
N861 C862 1.351 . S
C862 C856 1.428 1_565 S
C862 N861 1.351 . S
C862 C863 1.434 . S
C863 C854 1.429 . S
C863 N860 1.350 . S
C863 C862 1.434 . S
C864 C865 1.369 . S
C864 C866 1.419 . S
C864 H868 0.930 . S
C865 C864 1.369 . S
C865 C874 1.429 . S
C866 C864 1.419 . S
C866 C867 1.363 . S
C866 H869 0.929 . S
C867 C866 1.363 . S
C867 C873 1.428 . S
H868 C864 0.930 . S
H869 C866 0.929 . S
S870 N871 1.613 . S
S870 N872 1.610 . S
N871 S870 1.613 . S
N871 C874 1.350 . S
N872 S870 1.610 . S
N872 C873 1.351 . S
C873 C867 1.428 . S
C873 N872 1.351 . S
C873 C874 1.434 . S
C874 C865 1.429 . S
C874 N871 1.350 . S
C874 C873 1.434 . S
C875 C876 1.369 . S
C875 C877 1.419 . S
C875 H879 0.930 . S
C876 C875 1.369 . S
C876 C885 1.429 . S
C877 C875 1.419 . S
C877 C878 1.363 . S
C877 H880 0.929 . S
C878 C877 1.363 . S
C878 C884 1.428 . S
H879 C875 0.930 . S
H880 C877 0.929 . S
S881 N882 1.613 . S
S881 N883 1.610 1_554 S
N882 S881 1.613 . S
N882 C885 1.350 1_554 S
N883 S881 1.610 1_556 S
N883 C884 1.351 . S
C884 C878 1.428 . S
C884 N883 1.351 . S
C884 C885 1.434 . S
C885 C876 1.429 . S
C885 N882 1.350 1_556 S
C885 C884 1.434 . S
C886 C887 1.369 . S
C886 C888 1.419 1_455 S
C886 H890 0.930 . S
C887 C886 1.369 . S
C887 C896 1.429 . S
C888 C886 1.419 1_655 S
C888 C889 1.363 . S
C888 H891 0.929 . S
C889 C888 1.363 . S
C889 C895 1.428 1_655 S
H890 C886 0.930 . S
H891 C888 0.929 . S
S892 N893 1.613 . S
S892 N894 1.610 . S
N893 S892 1.613 . S
N893 C896 1.350 . S
N894 S892 1.610 . S
N894 C895 1.351 . S
C895 C889 1.428 1_455 S
C895 N894 1.351 . S
C895 C896 1.434 . S
C896 C887 1.429 . S
C896 N893 1.350 . S
C896 C895 1.434 . S
C897 C898 1.369 . S
C897 C899 1.419 . S
C897 H901 0.930 . S
C898 C897 1.369 . S
C898 C907 1.429 . S
C899 C897 1.419 . S
C899 C900 1.363 . S
C899 H902 0.929 . S
C900 C899 1.363 . S
C900 C906 1.428 . S
H901 C897 0.930 . S
H902 C899 0.929 . S
S903 N904 1.613 . S
S903 N905 1.610 . S
N904 S903 1.613 . S
N904 C907 1.350 . S
N905 S903 1.610 . S
N905 C906 1.351 . S
C906 C900 1.428 . S
C906 N905 1.351 . S
C906 C907 1.434 . S
C907 C898 1.429 . S
C907 N904 1.350 . S
C907 C906 1.434 . S
C908 C909 1.369 . S
C908 C910 1.419 . S
C908 H912 0.930 . S
C909 C908 1.369 . S
C909 C918 1.429 . S
C910 C908 1.419 . S
C910 C911 1.363 1_655 S
C910 H913 0.929 1_655 S
C911 C910 1.363 1_455 S
C911 C917 1.428 . S
H912 C908 0.930 . S
H913 C910 0.929 1_455 S
S914 N915 1.613 1_465 S
S914 N916 1.610 1_565 S
N915 S914 1.613 1_645 S
N915 C918 1.350 . S
N916 S914 1.610 1_545 S
N916 C917 1.351 . S
C917 C911 1.428 . S
C917 N916 1.351 . S
C917 C918 1.434 1_455 S
C918 C909 1.429 . S
C918 N915 1.350 . S
C918 C917 1.434 1_655 S
C919 C920 1.369 . S
C919 C921 1.419 . S
C919 H923 0.930 . S
C920 C919 1.369 . S
C920 C929 1.429 . S
C921 C919 1.419 . S
C921 C922 1.363 . S
C921 H924 0.929 . S
C922 C921 1.363 . S
C922 C928 1.428 . S
H923 C919 0.930 . S
H924 C921 0.929 . S
S925 N926 1.613 . S
S925 N927 1.610 . S
N926 S925 1.613 . S
N926 C929 1.350 . S
N927 S925 1.610 . S
N927 C928 1.351 . S
C928 C922 1.428 . S
C928 N927 1.351 . S
C928 C929 1.434 . S
C929 C920 1.429 . S
C929 N926 1.350 . S
C929 C928 1.434 . S
C930 C931 1.369 . S
C930 C932 1.419 . S
C930 H934 0.930 . S
C931 C930 1.369 . S
C931 C940 1.429 . S
C932 C930 1.419 . S
C932 C933 1.363 1_455 S
C932 H935 0.929 . S
C933 C932 1.363 1_655 S
C933 C939 1.428 . S
H934 C930 0.930 . S
H935 C932 0.929 . S
S936 N937 1.613 1_655 S
S936 N938 1.610 . S
N937 S936 1.613 1_455 S
N937 C940 1.350 . S
N938 S936 1.610 . S
N938 C939 1.351 . S
C939 C933 1.428 . S
C939 N938 1.351 . S
C939 C940 1.434 1_655 S
C940 C931 1.429 . S
C940 N937 1.350 . S
C940 C939 1.434 1_455 S
C941 C942 1.369 . S
C941 C943 1.419 . S
C941 H945 0.930 . S
C942 C941 1.369 . S
C942 C951 1.429 . S
C943 C941 1.419 . S
C943 C944 1.363 . S
C943 H946 0.929 . S
C944 C943 1.363 . S
C944 C950 1.428 . S
H945 C941 0.930 . S
H946 C943 0.929 . S
S947 N948 1.613 . S
S947 N949 1.610 . S
N948 S947 1.613 . S
N948 C951 1.350 . S
N949 S947 1.610 . S
N949 C950 1.351 . S
C950 C944 1.428 . S
C950 N949 1.351 . S
C950 C951 1.434 . S
C951 C942 1.429 . S
C951 N948 1.350 . S
C951 C950 1.434 . S
C952 C953 1.369 . S
C952 C954 1.419 . S
C952 H956 0.930 . S
C953 C952 1.369 . S
C953 C962 1.429 . S
C954 C952 1.419 . S
C954 C955 1.363 . S
C954 H957 0.929 . S
C955 C954 1.363 . S
C955 C961 1.428 . S
H956 C952 0.930 . S
H957 C954 0.929 . S
S958 N959 1.613 . S
S958 N960 1.610 . S
N959 S958 1.613 . S
N959 C962 1.350 . S
N960 S958 1.610 . S
N960 C961 1.351 . S
C961 C955 1.428 . S
C961 N960 1.351 . S
C961 C962 1.434 . S
C962 C953 1.429 . S
C962 N959 1.350 . S
C962 C961 1.434 . S
C963 C964 1.369 . S
C963 C965 1.419 . S
C963 H967 0.930 . S
C964 C963 1.369 . S
C964 C973 1.429 . S
C965 C963 1.419 . S
C965 C966 1.363 . S
C965 H968 0.929 . S
C966 C965 1.363 . S
C966 C972 1.428 . S
H967 C963 0.930 . S
H968 C965 0.929 . S
S969 N970 1.613 1_455 S
S969 N971 1.610 1_455 S
N970 S969 1.613 1_655 S
N970 C973 1.350 . S
N971 S969 1.610 1_655 S
N971 C972 1.351 . S
C972 C966 1.428 . S
C972 N971 1.351 . S
C972 C973 1.434 . S
C973 C964 1.429 . S
C973 N970 1.350 . S
C973 C972 1.434 . S
C974 C975 1.369 . S
C974 C976 1.419 . S
C974 H978 0.930 . S
C975 C974 1.369 . S
C975 C984 1.429 . S
C976 C974 1.419 . S
C976 C977 1.363 . S
C976 H979 0.929 . S
C977 C976 1.363 . S
C977 C983 1.428 . S
H978 C974 0.930 . S
H979 C976 0.929 . S
S980 N981 1.613 . S
S980 N982 1.610 . S
N981 S980 1.613 . S
N981 C984 1.350 . S
N982 S980 1.610 . S
N982 C983 1.351 . S
C983 C977 1.428 . S
C983 N982 1.351 . S
C983 C984 1.434 . S
C984 C975 1.429 . S
C984 N981 1.350 . S
C984 C983 1.434 . S
C985 C986 1.369 . S
C985 C987 1.419 . S
C985 H989 0.930 . S
C986 C985 1.369 . S
C986 C995 1.429 . S
C987 C985 1.419 . S
C987 C988 1.363 1_556 S
C987 H990 0.929 . S
C988 C987 1.363 1_554 S
C988 C994 1.428 . S
H989 C985 0.930 . S
H990 C987 0.929 . S
S991 N992 1.613 1_554 S
S991 N993 1.610 . S
N992 S991 1.613 1_556 S
N992 C995 1.350 . S
N993 S991 1.610 . S
N993 C994 1.351 . S
C994 C988 1.428 . S
C994 N993 1.351 . S
C994 C995 1.434 1_554 S
C995 C986 1.429 . S
C995 N992 1.350 . S
C995 C994 1.434 1_556 S
C996 C997 1.369 . S
C996 C998 1.419 . S
C996 H1000 0.930 . S
C997 C996 1.369 . S
C997 C1006 1.429 . S
C998 C996 1.419 . S
C998 C999 1.363 . S
C998 H1001 0.929 . S
C999 C998 1.363 . S
C999 C1005 1.428 . S
H1000 C996 0.930 . S
H1001 C998 0.929 . S
S1002 N1003 1.613 . S
S1002 N1004 1.610 . S
N1003 S1002 1.613 . S
N1003 C1006 1.350 . S
N1004 S1002 1.610 . S
N1004 C1005 1.351 . S
C1005 C999 1.428 . S
C1005 N1004 1.351 . S
C1005 C1006 1.434 . S
C1006 C997 1.429 . S
C1006 N1003 1.350 . S
C1006 C1005 1.434 . S
C1007 C1008 1.369 . S
C1007 C1009 1.419 . S
C1007 H1011 0.930 . S
C1008 C1007 1.369 . S
C1008 C1017 1.429 . S
C1009 C1007 1.419 . S
C1009 C1010 1.363 . S
C1009 H1012 0.929 . S
C1010 C1009 1.363 . S
C1010 C1016 1.428 . S
H1011 C1007 0.930 . S
H1012 C1009 0.929 . S
S1013 N1014 1.613 . S
S1013 N1015 1.610 . S
N1014 S1013 1.613 . S
N1014 C1017 1.350 . S
N1015 S1013 1.610 . S
N1015 C1016 1.351 . S
C1016 C1010 1.428 . S
C1016 N1015 1.351 . S
C1016 C1017 1.434 . S
C1017 C1008 1.429 . S
C1017 N1014 1.350 . S
C1017 C1016 1.434 . S
C1018 C1019 1.369 . S
C1018 C1020 1.419 . S
C1018 H1022 0.930 . S
C1019 C1018 1.369 . S
C1019 C1028 1.429 . S
C1020 C1018 1.419 . S
C1020 C1021 1.363 . S
C1020 H1023 0.929 . S
C1021 C1020 1.363 . S
C1021 C1027 1.428 . S
H1022 C1018 0.930 . S
H1023 C1020 0.929 . S
S1024 N1025 1.613 . S
S1024 N1026 1.610 . S
N1025 S1024 1.613 . S
N1025 C1028 1.350 . S
N1026 S1024 1.610 . S
N1026 C1027 1.351 . S
C1027 C1021 1.428 . S
C1027 N1026 1.351 . S
C1027 C1028 1.434 . S
C1028 C1019 1.429 . S
C1028 N1025 1.350 . S
C1028 C1027 1.434 . S
C1029 C1030 1.369 . S
C1029 C1031 1.419 . S
C1029 H1033 0.930 . S
C1030 C1029 1.369 . S
C1030 C1039 1.429 . S
C1031 C1029 1.419 . S
C1031 C1032 1.363 1_554 S
C1031 H1034 0.929 . S
C1032 C1031 1.363 1_556 S
C1032 C1038 1.428 . S
H1033 C1029 0.930 . S
H1034 C1031 0.929 . S
S1035 N1036 1.613 1_556 S
S1035 N1037 1.610 . S
N1036 S1035 1.613 1_554 S
N1036 C1039 1.350 . S
N1037 S1035 1.610 . S
N1037 C1038 1.351 . S
C1038 C1032 1.428 . S
C1038 N1037 1.351 . S
C1038 C1039 1.434 1_556 S
C1039 C1030 1.429 . S
C1039 N1036 1.350 . S
C1039 C1038 1.434 1_554 S
C1040 C1041 1.369 . S
C1040 C1042 1.419 . S
C1040 H1044 0.930 . S
C1041 C1040 1.369 . S
C1041 C1050 1.429 . S
C1042 C1040 1.419 . S
C1042 C1043 1.363 . S
C1042 H1045 0.929 . S
C1043 C1042 1.363 . S
C1043 C1049 1.428 . S
H1044 C1040 0.930 . S
H1045 C1042 0.929 . S
S1046 N1047 1.613 . S
S1046 N1048 1.610 . S
N1047 S1046 1.613 . S
N1047 C1050 1.350 . S
N1048 S1046 1.610 . S
N1048 C1049 1.351 . S
C1049 C1043 1.428 . S
C1049 N1048 1.351 . S
C1049 C1050 1.434 . S
C1050 C1041 1.429 . S
C1050 N1047 1.350 . S
C1050 C1049 1.434 . S
C1051 C1052 1.369 . S
C1051 C1053 1.419 . S
C1051 H1055 0.930 . S
C1052 C1051 1.369 . S
C1052 C1061 1.429 . S
C1053 C1051 1.419 . S
C1053 C1054 1.363 1_565 S
C1053 H1056 0.929 . S
C1054 C1053 1.363 1_545 S
C1054 C1060 1.428 . S
H1055 C1051 0.930 . S
H1056 C1053 0.929 . S
S1057 N1058 1.613 1_545 S
S1057 N1059 1.610 . S
N1058 S1057 1.613 1_565 S
N1058 C1061 1.350 . S
N1059 S1057 1.610 . S
N1059 C1060 1.351 . S
C1060 C1054 1.428 . S
C1060 N1059 1.351 . S
C1060 C1061 1.434 1_545 S
C1061 C1052 1.429 . S
C1061 N1058 1.350 . S
C1061 C1060 1.434 1_565 S
C1062 C1063 1.369 . S
C1062 C1064 1.419 . S
C1062 H1066 0.930 . S
C1063 C1062 1.369 . S
C1063 C1072 1.429 . S
C1064 C1062 1.419 . S
C1064 C1065 1.363 . S
C1064 H1067 0.929 . S
C1065 C1064 1.363 . S
C1065 C1071 1.428 . S
H1066 C1062 0.930 . S
H1067 C1064 0.929 . S
S1068 N1069 1.613 . S
S1068 N1070 1.610 . S
N1069 S1068 1.613 . S
N1069 C1072 1.350 . S
N1070 S1068 1.610 . S
N1070 C1071 1.351 . S
C1071 C1065 1.428 . S
C1071 N1070 1.351 . S
C1071 C1072 1.434 . S
C1072 C1063 1.429 . S
C1072 N1069 1.350 . S
C1072 C1071 1.434 . S
C1073 C1074 1.369 . S
C1073 C1075 1.419 . S
C1073 H1077 0.930 . S
C1074 C1073 1.369 . S
C1074 C1083 1.429 . S
C1075 C1073 1.419 . S
C1075 C1076 1.363 1_545 S
C1075 H1078 0.929 1_545 S
C1076 C1075 1.363 1_565 S
C1076 C1082 1.428 1_565 S
H1077 C1073 0.930 . S
H1078 C1075 0.929 1_565 S
S1079 N1080 1.613 . S
S1079 N1081 1.610 . S
N1080 S1079 1.613 . S
N1080 C1083 1.350 . S
N1081 S1079 1.610 . S
N1081 C1082 1.351 . S
C1082 C1076 1.428 1_545 S
C1082 N1081 1.351 . S
C1082 C1083 1.434 . S
C1083 C1074 1.429 . S
C1083 N1080 1.350 . S
C1083 C1082 1.434 . S
C1084 C1085 1.369 . S
C1084 C1086 1.419 . S
C1084 H1088 0.930 . S
C1085 C1084 1.369 . S
C1085 C1094 1.429 . S
C1086 C1084 1.419 . S
C1086 C1087 1.363 . S
C1086 H1089 0.929 . S
C1087 C1086 1.363 . S
C1087 C1093 1.428 . S
H1088 C1084 0.930 . S
H1089 C1086 0.929 . S
S1090 N1091 1.613 . S
S1090 N1092 1.610 . S
N1091 S1090 1.613 . S
N1091 C1094 1.350 . S
N1092 S1090 1.610 . S
N1092 C1093 1.351 . S
C1093 C1087 1.428 . S
C1093 N1092 1.351 . S
C1093 C1094 1.434 . S
C1094 C1085 1.429 . S
C1094 N1091 1.350 . S
C1094 C1093 1.434 . S
C1095 C1096 1.369 . S
C1095 C1097 1.419 1_565 S
C1095 H1099 0.930 . S
C1096 C1095 1.369 . S
C1096 C1105 1.429 . S
C1097 C1095 1.419 1_545 S
C1097 C1098 1.363 . S
C1097 H1100 0.929 . S
C1098 C1097 1.363 . S
C1098 C1104 1.428 1_545 S
H1099 C1095 0.930 . S
H1100 C1097 0.929 . S
S1101 N1102 1.613 . S
S1101 N1103 1.610 . S
N1102 S1101 1.613 . S
N1102 C1105 1.350 . S
N1103 S1101 1.610 . S
N1103 C1104 1.351 . S
C1104 C1098 1.428 1_565 S
C1104 N1103 1.351 . S
C1104 C1105 1.434 . S
C1105 C1096 1.429 . S
C1105 N1102 1.350 . S
C1105 C1104 1.434 . S
C1106 C1107 1.369 . S
C1106 C1108 1.419 . S
C1106 H1110 0.930 . S
C1107 C1106 1.369 . S
C1107 C1116 1.429 . S
C1108 C1106 1.419 . S
C1108 C1109 1.363 . S
C1108 H1111 0.929 . S
C1109 C1108 1.363 . S
C1109 C1115 1.428 . S
H1110 C1106 0.930 . S
H1111 C1108 0.929 . S
S1112 N1113 1.613 . S
S1112 N1114 1.610 . S
N1113 S1112 1.613 . S
N1113 C1116 1.350 . S
N1114 S1112 1.610 . S
N1114 C1115 1.351 . S
C1115 C1109 1.428 . S
C1115 N1114 1.351 . S
C1115 C1116 1.434 . S
C1116 C1107 1.429 . S
C1116 N1113 1.350 . S
C1116 C1115 1.434 . S
C1117 C1118 1.369 . S
C1117 C1119 1.419 . S
C1117 H1121 0.930 . S
C1118 C1117 1.369 . S
C1118 C1127 1.429 . S
C1119 C1117 1.419 . S
C1119 C1120 1.363 1_545 S
C1119 H1122 0.929 . S
C1120 C1119 1.363 1_565 S
C1120 C1126 1.428 . S
H1121 C1117 0.930 . S
H1122 C1119 0.929 . S
S1123 N1124 1.613 1_565 S
S1123 N1125 1.610 1_554 S
N1124 S1123 1.613 1_545 S
N1124 C1127 1.350 1_554 S
N1125 S1123 1.610 1_556 S
N1125 C1126 1.351 . S
C1126 C1120 1.428 . S
C1126 N1125 1.351 . S
C1126 C1127 1.434 1_565 S
C1127 C1118 1.429 . S
C1127 N1124 1.350 1_556 S
C1127 C1126 1.434 1_545 S
C1128 C1129 1.369 . S
C1128 C1130 1.419 . S
C1128 H1132 0.930 . S
C1129 C1128 1.369 . S
C1129 C1138 1.429 . S
C1130 C1128 1.419 . S
C1130 C1131 1.363 . S
C1130 H1133 0.929 . S
C1131 C1130 1.363 . S
C1131 C1137 1.428 . S
H1132 C1128 0.930 . S
H1133 C1130 0.929 . S
S1134 N1135 1.613 . S
S1134 N1136 1.610 . S
N1135 S1134 1.613 . S
N1135 C1138 1.350 . S
N1136 S1134 1.610 . S
N1136 C1137 1.351 . S
C1137 C1131 1.428 . S
C1137 N1136 1.351 . S
C1137 C1138 1.434 . S
C1138 C1129 1.429 . S
C1138 N1135 1.350 . S
C1138 C1137 1.434 . S
C1139 C1140 1.369 . S
C1139 C1141 1.419 . S
C1139 H1143 0.930 . S
C1140 C1139 1.369 . S
C1140 C1149 1.429 . S
C1141 C1139 1.419 . S
C1141 C1142 1.363 . S
C1141 H1144 0.929 . S
C1142 C1141 1.363 . S
C1142 C1148 1.428 . S
H1143 C1139 0.930 . S
H1144 C1141 0.929 . S
S1145 N1146 1.613 . S
S1145 N1147 1.610 . S
N1146 S1145 1.613 . S
N1146 C1149 1.350 . S
N1147 S1145 1.610 . S
N1147 C1148 1.351 . S
C1148 C1142 1.428 . S
C1148 N1147 1.351 . S
C1148 C1149 1.434 . S
C1149 C1140 1.429 . S
C1149 N1146 1.350 . S
C1149 C1148 1.434 . S
C1150 C1151 1.369 . S
C1150 C1152 1.419 . S
C1150 H1154 0.930 . S
C1151 C1150 1.369 . S
C1151 C1160 1.429 . S
C1152 C1150 1.419 . S
C1152 C1153 1.363 1_655 S
C1152 H1155 0.929 1_655 S
C1153 C1152 1.363 1_455 S
C1153 C1159 1.428 . S
H1154 C1150 0.930 . S
H1155 C1152 0.929 1_455 S
S1156 N1157 1.613 . S
S1156 N1158 1.610 1_655 S
N1157 S1156 1.613 . S
N1157 C1160 1.350 . S
N1158 S1156 1.610 1_455 S
N1158 C1159 1.351 . S
C1159 C1153 1.428 . S
C1159 N1158 1.351 . S
C1159 C1160 1.434 1_455 S
C1160 C1151 1.429 . S
C1160 N1157 1.350 . S
C1160 C1159 1.434 1_655 S
C1161 C1162 1.369 . S
C1161 C1163 1.419 . S
C1161 H1165 0.930 . S
C1162 C1161 1.369 . S
C1162 C1171 1.429 . S
C1163 C1161 1.419 . S
C1163 C1164 1.363 . S
C1163 H1166 0.929 . S
C1164 C1163 1.363 . S
C1164 C1170 1.428 . S
H1165 C1161 0.930 . S
H1166 C1163 0.929 . S
S1167 N1168 1.613 . S
S1167 N1169 1.610 . S
N1168 S1167 1.613 . S
N1168 C1171 1.350 . S
N1169 S1167 1.610 . S
N1169 C1170 1.351 . S
C1170 C1164 1.428 . S
C1170 N1169 1.351 . S
C1170 C1171 1.434 . S
C1171 C1162 1.429 . S
C1171 N1168 1.350 . S
C1171 C1170 1.434 . S
C1172 C1173 1.369 . S
C1172 C1174 1.419 . S
C1172 H1176 0.930 . S
C1173 C1172 1.369 . S
C1173 C1182 1.429 . S
C1174 C1172 1.419 . S
C1174 C1175 1.363 1_455 S
C1174 H1177 0.929 . S
C1175 C1174 1.363 1_655 S
C1175 C1181 1.428 . S
H1176 C1172 0.930 . S
H1177 C1174 0.929 . S
S1178 N1179 1.613 1_655 S
S1178 N1180 1.610 1_545 S
N1179 S1178 1.613 1_455 S
N1179 C1182 1.350 1_545 S
N1180 S1178 1.610 1_565 S
N1180 C1181 1.351 . S
C1181 C1175 1.428 . S
C1181 N1180 1.351 . S
C1181 C1182 1.434 1_655 S
C1182 C1173 1.429 . S
C1182 N1179 1.350 1_565 S
C1182 C1181 1.434 1_455 S
C1183 C1184 1.369 . S
C1183 C1185 1.419 . S
C1183 H1187 0.930 . S
C1184 C1183 1.369 . S
C1184 C1193 1.429 . S
C1185 C1183 1.419 . S
C1185 C1186 1.363 . S
C1185 H1188 0.929 . S
C1186 C1185 1.363 . S
C1186 C1192 1.428 . S
H1187 C1183 0.930 . S
H1188 C1185 0.929 . S
S1189 N1190 1.613 . S
S1189 N1191 1.610 . S
N1190 S1189 1.613 . S
N1190 C1193 1.350 . S
N1191 S1189 1.610 . S
N1191 C1192 1.351 . S
C1192 C1186 1.428 . S
C1192 N1191 1.351 . S
C1192 C1193 1.434 . S
C1193 C1184 1.429 . S
C1193 N1190 1.350 . S
C1193 C1192 1.434 . S
C1194 C1195 1.369 . S
C1194 C1196 1.419 1_655 S
C1194 H1198 0.930 . S
C1195 C1194 1.369 . S
C1195 C1204 1.429 . S
C1196 C1194 1.419 1_455 S
C1196 C1197 1.363 . S
C1196 H1199 0.929 . S
C1197 C1196 1.363 . S
C1197 C1203 1.428 1_455 S
H1198 C1194 0.930 . S
H1199 C1196 0.929 . S
S1200 N1201 1.613 . S
S1200 N1202 1.610 . S
N1201 S1200 1.613 . S
N1201 C1204 1.350 . S
N1202 S1200 1.610 . S
N1202 C1203 1.351 . S
C1203 C1197 1.428 1_655 S
C1203 N1202 1.351 . S
C1203 C1204 1.434 . S
C1204 C1195 1.429 . S
C1204 N1201 1.350 . S
C1204 C1203 1.434 . S
C1205 C1206 1.369 . S
C1205 C1207 1.419 . S
C1205 H1209 0.930 . S
C1206 C1205 1.369 . S
C1206 C1215 1.429 . S
C1207 C1205 1.419 . S
C1207 C1208 1.363 . S
C1207 H1210 0.929 . S
C1208 C1207 1.363 . S
C1208 C1214 1.428 . S
H1209 C1205 0.930 . S
H1210 C1207 0.929 . S
S1211 N1212 1.613 . S
S1211 N1213 1.610 . S
N1212 S1211 1.613 . S
N1212 C1215 1.350 . S
N1213 S1211 1.610 . S
N1213 C1214 1.351 . S
C1214 C1208 1.428 . S
C1214 N1213 1.351 . S
C1214 C1215 1.434 . S
C1215 C1206 1.429 . S
C1215 N1212 1.350 . S
C1215 C1214 1.434 . S
C1216 C1217 1.369 . S
C1216 C1218 1.419 . S
C1216 H1220 0.930 . S
C1217 C1216 1.369 . S
C1217 C1226 1.429 . S
C1218 C1216 1.419 . S
C1218 C1219 1.363 . S
C1218 H1221 0.929 . S
C1219 C1218 1.363 . S
C1219 C1225 1.428 . S
H1220 C1216 0.930 . S
H1221 C1218 0.929 . S
S1222 N1223 1.613 . S
S1222 N1224 1.610 . S
N1223 S1222 1.613 . S
N1223 C1226 1.350 . S
N1224 S1222 1.610 . S
N1224 C1225 1.351 . S
C1225 C1219 1.428 . S
C1225 N1224 1.351 . S
C1225 C1226 1.434 . S
C1226 C1217 1.429 . S
C1226 N1223 1.350 . S
C1226 C1225 1.434 . S
C1227 C1228 1.369 . S
C1227 C1229 1.419 . S
C1227 H1231 0.930 . S
C1228 C1227 1.369 . S
C1228 C1237 1.429 . S
C1229 C1227 1.419 . S
C1229 C1230 1.363 1_554 S
C1229 H1232 0.919 1_554 S
C1230 C1229 1.363 1_556 S
C1230 C1236 1.428 1_556 S
H1231 C1227 0.930 . S
H1232 C1229 0.919 1_556 S
S1233 N1234 1.613 . S
S1233 N1235 1.610 1_554 S
N1234 S1233 1.613 . S
N1234 C1237 1.350 . S
N1235 S1233 1.610 1_556 S
N1235 C1236 1.351 1_556 S
C1236 C1230 1.428 1_554 S
C1236 N1235 1.351 1_554 S
C1236 C1237 1.434 . S
C1237 C1228 1.429 . S
C1237 N1234 1.350 . S
C1237 C1236 1.434 . S
C1238 C1239 1.369 . S
C1238 C1240 1.419 . S
C1238 H1242 0.930 . S
C1239 C1238 1.369 . S
C1239 C1248 1.429 . S
C1240 C1238 1.419 . S
C1240 C1241 1.363 . S
C1240 H1243 0.929 . S
C1241 C1240 1.363 . S
C1241 C1247 1.428 . S
H1242 C1238 0.930 . S
H1243 C1240 0.929 . S
S1244 N1245 1.613 . S
S1244 N1246 1.610 . S
N1245 S1244 1.613 . S
N1245 C1248 1.350 . S
N1246 S1244 1.610 . S
N1246 C1247 1.351 . S
C1247 C1241 1.428 . S
C1247 N1246 1.351 . S
C1247 C1248 1.434 . S
C1248 C1239 1.429 . S
C1248 N1245 1.350 . S
C1248 C1247 1.434 . S
C1249 C1250 1.369 . S
C1249 C1251 1.419 . S
C1249 H1253 0.930 . S
C1250 C1249 1.369 . S
C1250 C1259 1.429 . S
C1251 C1249 1.419 . S
C1251 C1252 1.363 . S
C1251 H1254 0.929 . S
C1252 C1251 1.363 . S
C1252 C1258 1.428 . S
H1253 C1249 0.930 . S
H1254 C1251 0.929 . S
S1255 N1256 1.613 . S
S1255 N1257 1.610 . S
N1256 S1255 1.613 . S
N1256 C1259 1.350 . S
N1257 S1255 1.610 . S
N1257 C1258 1.351 . S
C1258 C1252 1.428 . S
C1258 N1257 1.351 . S
C1258 C1259 1.434 . S
C1259 C1250 1.429 . S
C1259 N1256 1.350 . S
C1259 C1258 1.434 . S
C1260 C1261 1.369 . S
C1260 C1262 1.419 . S
C1260 H1264 0.930 . S
C1261 C1260 1.369 . S
C1261 C1270 1.429 . S
C1262 C1260 1.419 . S
C1262 C1263 1.363 . S
C1262 H1265 0.929 . S
C1263 C1262 1.363 . S
C1263 C1269 1.428 . S
H1264 C1260 0.930 . S
H1265 C1262 0.929 . S
S1266 N1267 1.613 . S
S1266 N1268 1.610 . S
N1267 S1266 1.613 . S
N1267 C1270 1.350 . S
N1268 S1266 1.610 . S
N1268 C1269 1.351 . S
C1269 C1263 1.428 . S
C1269 N1268 1.351 . S
C1269 C1270 1.434 . S
C1270 C1261 1.429 . S
C1270 N1267 1.350 . S
C1270 C1269 1.434 . S
C1271 C1272 1.369 . S
C1271 C1273 1.419 1_556 S
C1271 H1275 0.930 . S
C1272 C1271 1.369 . S
C1272 C1281 1.429 . S
C1273 C1271 1.419 1_554 S
C1273 C1274 1.363 . S
C1273 H1276 0.929 . S
C1274 C1273 1.363 . S
C1274 C1280 1.428 1_554 S
H1275 C1271 0.930 . S
H1276 C1273 0.929 . S
S1277 N1278 1.613 1_455 S
S1277 N1279 1.610 1_456 S
N1278 S1277 1.613 1_655 S
N1278 C1281 1.350 . S
N1279 S1277 1.610 1_654 S
N1279 C1280 1.351 1_554 S
C1280 C1274 1.428 1_556 S
C1280 N1279 1.351 1_556 S
C1280 C1281 1.434 . S
C1281 C1272 1.429 . S
C1281 N1278 1.350 . S
C1281 C1280 1.434 . S
C1282 C1283 1.369 . S
C1282 C1284 1.419 . S
C1282 H1286 0.930 . S
C1283 C1282 1.369 . S
C1283 C1292 1.429 . S
C1284 C1282 1.419 . S
C1284 C1285 1.363 . S
C1284 H1287 0.929 . S
C1285 C1284 1.363 . S
C1285 C1291 1.428 . S
H1286 C1282 0.930 . S
H1287 C1284 0.929 . S
S1288 N1289 1.613 . S
S1288 N1290 1.610 . S
N1289 S1288 1.613 . S
N1289 C1292 1.350 . S
N1290 S1288 1.610 . S
N1290 C1291 1.351 . S
C1291 C1285 1.428 . S
C1291 N1290 1.351 . S
C1291 C1292 1.434 . S
C1292 C1283 1.429 . S
C1292 N1289 1.350 . S
C1292 C1291 1.434 . S
C1293 C1294 1.369 . S
C1293 C1295 1.419 . S
C1293 H1297 0.930 . S
C1294 C1293 1.369 . S
C1294 C1303 1.429 . S
C1295 C1293 1.419 . S
C1295 C1296 1.363 . S
C1295 H1298 0.929 . S
C1296 C1295 1.363 . S
C1296 C1302 1.428 . S
H1297 C1293 0.930 . S
H1298 C1295 0.929 . S
S1299 N1300 1.613 . S
S1299 N1301 1.610 . S
N1300 S1299 1.613 . S
N1300 C1303 1.350 . S
N1301 S1299 1.610 . S
N1301 C1302 1.351 . S
C1302 C1296 1.428 . S
C1302 N1301 1.351 . S
C1302 C1303 1.434 . S
C1303 C1294 1.429 . S
C1303 N1300 1.350 . S
C1303 C1302 1.434 . S
C1304 C1305 1.369 . S
C1304 C1306 1.419 . S
C1304 H1308 0.930 . S
C1305 C1304 1.369 . S
C1305 C1314 1.429 . S
C1306 C1304 1.419 . S
C1306 C1307 1.363 . S
C1306 H1309 0.929 . S
C1307 C1306 1.363 . S
C1307 C1313 1.428 . S
H1308 C1304 0.930 . S
H1309 C1306 0.929 . S
S1310 N1311 1.613 . S
S1310 N1312 1.610 . S
N1311 S1310 1.613 . S
N1311 C1314 1.350 . S
N1312 S1310 1.610 . S
N1312 C1313 1.351 . S
C1313 C1307 1.428 . S
C1313 N1312 1.351 . S
C1313 C1314 1.434 . S
C1314 C1305 1.429 . S
C1314 N1311 1.350 . S
C1314 C1313 1.434 . S
C1315 C1316 1.369 . S
C1315 C1317 1.419 . S
C1315 H1319 0.930 . S
C1316 C1315 1.369 . S
C1316 C1325 1.429 . S
C1317 C1315 1.419 . S
C1317 C1318 1.363 . S
C1317 H1320 0.929 . S
C1318 C1317 1.363 . S
C1318 C1324 1.428 . S
H1319 C1315 0.930 . S
H1320 C1317 0.929 . S
S1321 N1322 1.613 . S
S1321 N1323 1.610 . S
N1322 S1321 1.613 . S
N1322 C1325 1.350 . S
N1323 S1321 1.610 . S
N1323 C1324 1.351 . S
C1324 C1318 1.428 . S
C1324 N1323 1.351 . S
C1324 C1325 1.434 . S
C1325 C1316 1.429 . S
C1325 N1322 1.350 . S
C1325 C1324 1.434 . S
C1326 C1327 1.369 . S
C1326 C1328 1.419 . S
C1326 H1330 0.930 . S
C1327 C1326 1.369 . S
C1327 C1336 1.429 . S
C1328 C1326 1.419 . S
C1328 C1329 1.363 . S
C1328 H1331 0.929 . S
C1329 C1328 1.363 . S
C1329 C1335 1.428 . S
H1330 C1326 0.930 . S
H1331 C1328 0.929 . S
S1332 N1333 1.613 . S
S1332 N1334 1.610 . S
N1333 S1332 1.613 . S
N1333 C1336 1.350 . S
N1334 S1332 1.610 . S
N1334 C1335 1.351 . S
C1335 C1329 1.428 . S
C1335 N1334 1.351 . S
C1335 C1336 1.434 . S
C1336 C1327 1.429 . S
C1336 N1333 1.350 . S
C1336 C1335 1.434 . S
C1337 C1338 1.369 . S
C1337 C1339 1.419 . S
C1337 H1341 0.930 . S
C1338 C1337 1.369 . S
C1338 C1347 1.429 . S
C1339 C1337 1.419 . S
C1339 C1340 1.363 . S
C1339 H1342 0.929 . S
C1340 C1339 1.363 . S
C1340 C1346 1.428 . S
H1341 C1337 0.930 . S
H1342 C1339 0.929 . S
S1343 N1344 1.613 . S
S1343 N1345 1.610 . S
N1344 S1343 1.613 . S
N1344 C1347 1.350 . S
N1345 S1343 1.610 . S
N1345 C1346 1.351 . S
C1346 C1340 1.428 . S
C1346 N1345 1.351 . S
C1346 C1347 1.434 . S
C1347 C1338 1.429 . S
C1347 N1344 1.350 . S
C1347 C1346 1.434 . S
C1348 C1349 1.369 . S
C1348 C1350 1.419 . S
C1348 H1352 0.930 . S
C1349 C1348 1.369 . S
C1349 C1358 1.429 . S
C1350 C1348 1.419 . S
C1350 C1351 1.363 . S
C1350 H1353 0.929 . S
C1351 C1350 1.363 . S
C1351 C1357 1.428 . S
H1352 C1348 0.930 . S
H1353 C1350 0.929 . S
S1354 N1355 1.613 . S
S1354 N1356 1.610 . S
N1355 S1354 1.613 . S
N1355 C1358 1.350 . S
N1356 S1354 1.610 . S
N1356 C1357 1.351 . S
C1357 C1351 1.428 . S
C1357 N1356 1.351 . S
C1357 C1358 1.434 . S
C1358 C1349 1.429 . S
C1358 N1355 1.350 . S
C1358 C1357 1.434 . S
C1359 C1360 1.369 . S
C1359 C1361 1.419 . S
C1359 H1363 0.930 . S
C1360 C1359 1.369 . S
C1360 C1369 1.429 . S
C1361 C1359 1.419 . S
C1361 C1362 1.363 . S
C1361 H1364 0.929 . S
C1362 C1361 1.363 . S
C1362 C1368 1.428 . S
H1363 C1359 0.930 . S
H1364 C1361 0.929 . S
S1365 N1366 1.613 . S
S1365 N1367 1.610 . S
N1366 S1365 1.613 . S
N1366 C1369 1.350 . S
N1367 S1365 1.610 . S
N1367 C1368 1.351 . S
C1368 C1362 1.428 . S
C1368 N1367 1.351 . S
C1368 C1369 1.434 . S
C1369 C1360 1.429 . S
C1369 N1366 1.350 . S
C1369 C1368 1.434 . S
C1370 C1371 1.369 . S
C1370 C1372 1.419 . S
C1370 H1374 0.930 . S
C1371 C1370 1.369 . S
C1371 C1380 1.429 . S
C1372 C1370 1.419 . S
C1372 C1373 1.363 . S
C1372 H1375 0.929 . S
C1373 C1372 1.363 . S
C1373 C1379 1.428 . S
H1374 C1370 0.930 . S
H1375 C1372 0.929 . S
S1376 N1377 1.613 . S
S1376 N1378 1.610 . S
N1377 S1376 1.613 . S
N1377 C1380 1.350 . S
N1378 S1376 1.610 . S
N1378 C1379 1.351 . S
C1379 C1373 1.428 . S
C1379 N1378 1.351 . S
C1379 C1380 1.434 . S
C1380 C1371 1.429 . S
C1380 N1377 1.350 . S
C1380 C1379 1.434 . S
C1381 C1382 1.369 . S
C1381 C1383 1.419 . S
C1381 H1385 0.930 . S
C1382 C1381 1.369 . S
C1382 C1391 1.429 . S
C1383 C1381 1.419 . S
C1383 C1384 1.363 . S
C1383 H1386 0.929 . S
C1384 C1383 1.363 . S
C1384 C1390 1.428 . S
H1385 C1381 0.930 . S
H1386 C1383 0.929 . S
S1387 N1388 1.613 . S
S1387 N1389 1.610 . S
N1388 S1387 1.613 . S
N1388 C1391 1.350 . S
N1389 S1387 1.610 . S
N1389 C1390 1.351 . S
C1390 C1384 1.428 . S
C1390 N1389 1.351 . S
C1390 C1391 1.434 . S
C1391 C1382 1.429 . S
C1391 N1388 1.350 . S
C1391 C1390 1.434 . S
C1392 C1393 1.369 . S
C1392 C1394 1.419 . S
C1392 H1396 0.930 . S
C1393 C1392 1.369 . S
C1393 C1402 1.429 . S
C1394 C1392 1.419 . S
C1394 C1395 1.363 . S
C1394 H1397 0.929 . S
C1395 C1394 1.363 . S
C1395 C1401 1.428 . S
H1396 C1392 0.930 . S
H1397 C1394 0.929 . S
S1398 N1399 1.613 . S
S1398 N1400 1.610 . S
N1399 S1398 1.613 . S
N1399 C1402 1.350 . S
N1400 S1398 1.610 . S
N1400 C1401 1.351 . S
C1401 C1395 1.428 . S
C1401 N1400 1.351 . S
C1401 C1402 1.434 . S
C1402 C1393 1.429 . S
C1402 N1399 1.350 . S
C1402 C1401 1.434 . S
C1403 C1404 1.369 . S
C1403 C1405 1.419 . S
C1403 H1407 0.930 . S
C1404 C1403 1.369 . S
C1404 C1413 1.429 . S
C1405 C1403 1.419 . S
C1405 C1406 1.363 . S
C1405 H1408 0.929 . S
C1406 C1405 1.363 . S
C1406 C1412 1.428 . S
H1407 C1403 0.930 . S
H1408 C1405 0.929 . S
S1409 N1410 1.613 . S
S1409 N1411 1.610 . S
N1410 S1409 1.613 . S
N1410 C1413 1.350 . S
N1411 S1409 1.610 . S
N1411 C1412 1.351 . S
C1412 C1406 1.428 . S
C1412 N1411 1.351 . S
C1412 C1413 1.434 . S
C1413 C1404 1.429 . S
C1413 N1410 1.350 . S
C1413 C1412 1.434 . S
C1414 C1415 1.369 . S
C1414 C1416 1.419 . S
C1414 H1418 0.930 . S
C1415 C1414 1.369 . S
C1415 C1424 1.429 . S
C1416 C1414 1.419 . S
C1416 C1417 1.363 . S
C1416 H1419 0.929 . S
C1417 C1416 1.363 . S
C1417 C1423 1.428 . S
H1418 C1414 0.930 . S
H1419 C1416 0.929 . S
S1420 N1421 1.613 1_545 S
S1420 N1422 1.610 1_545 S
N1421 S1420 1.613 1_565 S
N1421 C1424 1.350 . S
N1422 S1420 1.610 1_565 S
N1422 C1423 1.351 . S
C1423 C1417 1.428 . S
C1423 N1422 1.351 . S
C1423 C1424 1.434 . S
C1424 C1415 1.429 . S
C1424 N1421 1.350 . S
C1424 C1423 1.434 . S
C1425 C1426 1.369 . S
C1425 C1427 1.419 . S
C1425 H1429 0.930 . S
C1426 C1425 1.369 . S
C1426 C1435 1.429 . S
C1427 C1425 1.419 . S
C1427 C1428 1.363 . S
C1427 H1430 0.929 . S
C1428 C1427 1.363 . S
C1428 C1434 1.428 . S
H1429 C1425 0.930 . S
H1430 C1427 0.929 . S
S1431 N1432 1.613 . S
S1431 N1433 1.610 1_554 S
N1432 S1431 1.613 . S
N1432 C1435 1.350 1_554 S
N1433 S1431 1.610 1_556 S
N1433 C1434 1.351 . S
C1434 C1428 1.428 . S
C1434 N1433 1.351 . S
C1434 C1435 1.434 . S
C1435 C1426 1.429 . S
C1435 N1432 1.350 1_556 S
C1435 C1434 1.434 . S
C1436 C1437 1.369 . S
C1436 C1438 1.419 . S
C1436 H1440 0.930 . S
C1437 C1436 1.369 . S
C1437 C1446 1.429 . S
C1438 C1436 1.419 . S
C1438 C1439 1.363 . S
C1438 H1441 0.929 . S
C1439 C1438 1.363 . S
C1439 C1445 1.428 . S
H1440 C1436 0.930 . S
H1441 C1438 0.929 . S
S1442 N1443 1.613 . S
S1442 N1444 1.610 . S
N1443 S1442 1.613 . S
N1443 C1446 1.350 . S
N1444 S1442 1.610 . S
N1444 C1445 1.351 . S
C1445 C1439 1.428 . S
C1445 N1444 1.351 . S
C1445 C1446 1.434 . S
C1446 C1437 1.429 . S
C1446 N1443 1.350 . S
C1446 C1445 1.434 . S
C1447 C1448 1.369 . S
C1447 C1449 1.419 . S
C1447 H1451 0.930 . S
C1448 C1447 1.369 . S
C1448 C1457 1.429 . S
C1449 C1447 1.419 . S
C1449 C1450 1.363 . S
C1449 H1452 0.929 . S
C1450 C1449 1.363 . S
C1450 C1456 1.428 . S
H1451 C1447 0.930 . S
H1452 C1449 0.929 . S
S1453 N1454 1.613 . S
S1453 N1455 1.610 . S
N1454 S1453 1.613 . S
N1454 C1457 1.350 . S
N1455 S1453 1.610 . S
N1455 C1456 1.351 . S
C1456 C1450 1.428 . S
C1456 N1455 1.351 . S
C1456 C1457 1.434 . S
C1457 C1448 1.429 . S
C1457 N1454 1.350 . S
C1457 C1456 1.434 . S
C1458 C1459 1.369 . S
C1458 C1460 1.419 . S
C1458 H1462 0.930 . S
C1459 C1458 1.369 . S
C1459 C1468 1.429 . S
C1460 C1458 1.419 . S
C1460 C1461 1.363 . S
C1460 H1463 0.929 . S
C1461 C1460 1.363 . S
C1461 C1467 1.428 . S
H1462 C1458 0.930 . S
H1463 C1460 0.929 . S
S1464 N1465 1.613 . S
S1464 N1466 1.610 . S
N1465 S1464 1.613 . S
N1465 C1468 1.350 . S
N1466 S1464 1.610 . S
N1466 C1467 1.351 . S
C1467 C1461 1.428 . S
C1467 N1466 1.351 . S
C1467 C1468 1.434 . S
C1468 C1459 1.429 . S
C1468 N1465 1.350 . S
C1468 C1467 1.434 . S
C1469 C1470 1.369 . S
C1469 C1471 1.419 . S
C1469 H1473 0.930 . S
C1470 C1469 1.369 . S
C1470 C1479 1.429 . S
C1471 C1469 1.419 . S
C1471 C1472 1.363 1_655 S
C1471 H1474 0.929 . S
C1472 C1471 1.363 1_455 S
C1472 C1478 1.428 . S
H1473 C1469 0.930 . S
H1474 C1471 0.929 . S
S1475 N1476 1.598 1_455 S
S1475 N1477 1.610 . S
N1476 S1475 1.598 1_655 S
N1476 C1479 1.354 . S
N1477 S1475 1.610 . S
N1477 C1478 1.351 . S
C1478 C1472 1.428 . S
C1478 N1477 1.351 . S
C1478 C1479 1.434 1_455 S
C1479 C1470 1.429 . S
C1479 N1476 1.354 . S
C1479 C1478 1.434 1_655 S
C1480 C1481 1.369 . S
C1480 C1482 1.419 . S
C1480 H1484 0.930 . S
C1481 C1480 1.369 . S
C1481 C1490 1.429 . S
C1482 C1480 1.419 . S
C1482 C1483 1.363 . S
C1482 H1485 0.929 . S
C1483 C1482 1.363 . S
C1483 C1489 1.428 . S
H1484 C1480 0.930 . S
H1485 C1482 0.929 . S
S1486 N1487 1.613 . S
S1486 N1488 1.610 . S
N1487 S1486 1.613 . S
N1487 C1490 1.350 . S
N1488 S1486 1.610 . S
N1488 C1489 1.351 . S
C1489 C1483 1.428 . S
C1489 N1488 1.351 . S
C1489 C1490 1.434 . S
C1490 C1481 1.429 . S
C1490 N1487 1.350 . S
C1490 C1489 1.434 . S
C1491 C1492 1.369 . S
C1491 C1493 1.419 1_556 S
C1491 H1495 0.930 . S
C1492 C1491 1.369 . S
C1492 C1501 1.429 . S
C1493 C1491 1.419 1_554 S
C1493 C1494 1.363 . S
C1493 H1496 0.929 . S
C1494 C1493 1.363 . S
C1494 C1500 1.428 1_554 S
H1495 C1491 0.930 . S
H1496 C1493 0.929 . S
S1497 N1498 1.613 . S
S1497 N1499 1.610 . S
N1498 S1497 1.613 . S
N1498 C1501 1.350 . S
N1499 S1497 1.610 . S
N1499 C1500 1.351 . S
C1500 C1494 1.428 1_556 S
C1500 N1499 1.351 . S
C1500 C1501 1.434 . S
C1501 C1492 1.429 . S
C1501 N1498 1.350 . S
C1501 C1500 1.434 . S
C1502 C1503 1.369 . S
C1502 C1504 1.419 . S
C1502 H1506 0.930 . S
C1503 C1502 1.369 . S
C1503 C1512 1.429 . S
C1504 C1502 1.419 . S
C1504 C1505 1.363 . S
C1504 H1507 0.929 . S
C1505 C1504 1.363 . S
C1505 C1511 1.428 . S
H1506 C1502 0.930 . S
H1507 C1504 0.929 . S
S1508 N1509 1.613 . S
S1508 N1510 1.610 . S
N1509 S1508 1.613 . S
N1509 C1512 1.350 . S
N1510 S1508 1.610 . S
N1510 C1511 1.351 . S
C1511 C1505 1.428 . S
C1511 N1510 1.351 . S
C1511 C1512 1.434 . S
C1512 C1503 1.429 . S
C1512 N1509 1.350 . S
C1512 C1511 1.434 . S
C1513 C1514 1.369 . S
C1513 C1515 1.419 . S
C1513 H1517 0.930 . S
C1514 C1513 1.369 . S
C1514 C1523 1.429 . S
C1515 C1513 1.419 . S
C1515 C1516 1.363 . S
C1515 H1518 0.929 . S
C1516 C1515 1.363 . S
C1516 C1522 1.428 . S
H1517 C1513 0.930 . S
H1518 C1515 0.929 . S
S1519 N1520 1.613 . S
S1519 N1521 1.610 . S
N1520 S1519 1.613 . S
N1520 C1523 1.350 . S
N1521 S1519 1.610 . S
N1521 C1522 1.351 . S
C1522 C1516 1.428 . S
C1522 N1521 1.351 . S
C1522 C1523 1.434 . S
C1523 C1514 1.429 . S
C1523 N1520 1.350 . S
C1523 C1522 1.434 . S
C1524 C1525 1.369 . S
C1524 C1526 1.419 . S
C1524 H1528 0.930 . S
C1525 C1524 1.369 . S
C1525 C1534 1.429 . S
C1526 C1524 1.419 . S
C1526 C1527 1.363 . S
C1526 H1529 0.929 . S
C1527 C1526 1.363 . S
C1527 C1533 1.428 . S
H1528 C1524 0.930 . S
H1529 C1526 0.929 . S
S1530 N1531 1.613 . S
S1530 N1532 1.610 . S
N1531 S1530 1.613 . S
N1531 C1534 1.350 . S
N1532 S1530 1.610 . S
N1532 C1533 1.351 . S
C1533 C1527 1.428 . S
C1533 N1532 1.351 . S
C1533 C1534 1.434 . S
C1534 C1525 1.429 . S
C1534 N1531 1.350 . S
C1534 C1533 1.434 . S
C1535 C1536 1.369 . S
C1535 C1537 1.419 . S
C1535 H1539 0.930 . S
C1536 C1535 1.369 . S
C1536 C1545 1.429 . S
C1537 C1535 1.419 . S
C1537 C1538 1.363 1_554 S
C1537 H1540 0.929 1_554 S
C1538 C1537 1.363 1_556 S
C1538 C1544 1.428 1_556 S
H1539 C1535 0.930 . S
H1540 C1537 0.929 1_556 S
S1541 N1542 1.613 . S
S1541 N1543 1.610 . S
N1542 S1541 1.613 . S
N1542 C1545 1.350 . S
N1543 S1541 1.610 . S
N1543 C1544 1.351 . S
C1544 C1538 1.428 1_554 S
C1544 N1543 1.351 . S
C1544 C1545 1.434 . S
C1545 C1536 1.429 . S
C1545 N1542 1.350 . S
C1545 C1544 1.434 . S
C1546 C1547 1.369 . S
C1546 C1548 1.419 . S
C1546 H1550 0.930 . S
C1547 C1546 1.369 . S
C1547 C1556 1.429 . S
C1548 C1546 1.419 . S
C1548 C1549 1.363 . S
C1548 H1551 0.929 . S
C1549 C1548 1.363 . S
C1549 C1555 1.428 . S
H1550 C1546 0.930 . S
H1551 C1548 0.929 . S
S1552 N1553 1.613 . S
S1552 N1554 1.610 . S
N1553 S1552 1.613 . S
N1553 C1556 1.350 . S
N1554 S1552 1.610 . S
N1554 C1555 1.351 . S
C1555 C1549 1.428 . S
C1555 N1554 1.351 . S
C1555 C1556 1.434 . S
C1556 C1547 1.429 . S
C1556 N1553 1.350 . S
C1556 C1555 1.434 . S
C1557 C1558 1.369 . S
C1557 C1559 1.419 . S
C1557 H1561 0.930 . S
C1558 C1557 1.369 . S
C1558 C1567 1.429 . S
C1559 C1557 1.419 . S
C1559 C1560 1.363 . S
C1559 H1562 0.929 . S
C1560 C1559 1.363 . S
C1560 C1566 1.428 . S
H1561 C1557 0.930 . S
H1562 C1559 0.929 . S
S1563 N1564 1.613 . S
S1563 N1565 1.610 . S
N1564 S1563 1.613 . S
N1564 C1567 1.350 . S
N1565 S1563 1.610 . S
N1565 C1566 1.351 . S
C1566 C1560 1.428 . S
C1566 N1565 1.351 . S
C1566 C1567 1.434 . S
C1567 C1558 1.429 . S
C1567 N1564 1.350 . S
C1567 C1566 1.434 . S
C1568 C1569 1.369 . S
C1568 C1570 1.419 . S
C1568 H1572 0.930 . S
C1569 C1568 1.369 . S
C1569 C1578 1.429 . S
C1570 C1568 1.419 . S
C1570 C1571 1.363 . S
C1570 H1573 0.929 . S
C1571 C1570 1.363 . S
C1571 C1577 1.428 . S
H1572 C1568 0.930 . S
H1573 C1570 0.929 . S
S1574 N1575 1.613 . S
S1574 N1576 1.610 . S
N1575 S1574 1.613 . S
N1575 C1578 1.350 . S
N1576 S1574 1.610 . S
N1576 C1577 1.351 . S
C1577 C1571 1.428 . S
C1577 N1576 1.351 . S
C1577 C1578 1.434 . S
C1578 C1569 1.429 . S
C1578 N1575 1.350 . S
C1578 C1577 1.434 . S
C1579 C1580 1.369 . S
C1579 C1581 1.419 . S
C1579 H1583 0.930 . S
C1580 C1579 1.369 . S
C1580 C1589 1.429 . S
C1581 C1579 1.419 . S
C1581 C1582 1.363 . S
C1581 H1584 0.929 . S
C1582 C1581 1.363 . S
C1582 C1588 1.428 . S
H1583 C1579 0.930 . S
H1584 C1581 0.929 . S
S1585 N1586 1.613 . S
S1585 N1587 1.610 . S
N1586 S1585 1.613 . S
N1586 C1589 1.350 . S
N1587 S1585 1.610 . S
N1587 C1588 1.351 . S
C1588 C1582 1.428 . S
C1588 N1587 1.351 . S
C1588 C1589 1.434 . S
C1589 C1580 1.429 . S
C1589 N1586 1.350 . S
C1589 C1588 1.434 . S
C1590 C1591 1.369 . S
C1590 C1592 1.419 . S
C1590 H1594 0.930 . S
C1591 C1590 1.369 . S
C1591 C1600 1.429 . S
C1592 C1590 1.419 . S
C1592 C1593 1.363 . S
C1592 H1595 0.929 . S
C1593 C1592 1.363 . S
C1593 C1599 1.428 . S
H1594 C1590 0.930 . S
H1595 C1592 0.929 . S
S1596 N1597 1.613 . S
S1596 N1598 1.610 . S
N1597 S1596 1.613 . S
N1597 C1600 1.350 . S
N1598 S1596 1.610 . S
N1598 C1599 1.351 . S
C1599 C1593 1.428 . S
C1599 N1598 1.351 . S
C1599 C1600 1.434 . S
C1600 C1591 1.429 . S
C1600 N1597 1.350 . S
C1600 C1599 1.434 . S
C1601 C1602 1.369 . S
C1601 C1603 1.419 . S
C1601 H1605 0.930 . S
C1602 C1601 1.369 . S
C1602 C1611 1.429 . S
C1603 C1601 1.419 . S
C1603 C1604 1.363 . S
C1603 H1606 0.929 . S
C1604 C1603 1.363 . S
C1604 C1610 1.428 . S
H1605 C1601 0.930 . S
H1606 C1603 0.929 . S
S1607 N1608 1.613 . S
S1607 N1609 1.610 . S
N1608 S1607 1.613 . S
N1608 C1611 1.350 . S
N1609 S1607 1.610 . S
N1609 C1610 1.351 . S
C1610 C1604 1.428 . S
C1610 N1609 1.351 . S
C1610 C1611 1.434 . S
C1611 C1602 1.429 . S
C1611 N1608 1.350 . S
C1611 C1610 1.434 . S
C1612 C1613 1.369 . S
C1612 C1614 1.419 . S
C1612 H1616 0.930 . S
C1613 C1612 1.369 . S
C1613 C1622 1.429 . S
C1614 C1612 1.419 . S
C1614 C1615 1.363 . S
C1614 H1617 0.929 . S
C1615 C1614 1.363 . S
C1615 C1621 1.428 . S
H1616 C1612 0.930 . S
H1617 C1614 0.929 . S
S1618 N1619 1.613 . S
S1618 N1620 1.610 . S
N1619 S1618 1.613 . S
N1619 C1622 1.350 . S
N1620 S1618 1.610 . S
N1620 C1621 1.351 . S
C1621 C1615 1.428 . S
C1621 N1620 1.351 . S
C1621 C1622 1.434 . S
C1622 C1613 1.429 . S
C1622 N1619 1.350 . S
C1622 C1621 1.434 . S
C1623 C1624 1.369 . S
C1623 C1625 1.419 . S
C1623 H1627 0.930 . S
C1624 C1623 1.369 . S
C1624 C1633 1.429 . S
C1625 C1623 1.419 . S
C1625 C1626 1.363 . S
C1625 H1628 0.929 . S
C1626 C1625 1.363 . S
C1626 C1632 1.428 . S
H1627 C1623 0.930 . S
H1628 C1625 0.929 . S
S1629 N1630 1.613 . S
S1629 N1631 1.610 . S
N1630 S1629 1.613 . S
N1630 C1633 1.350 . S
N1631 S1629 1.610 . S
N1631 C1632 1.351 . S
C1632 C1626 1.428 . S
C1632 N1631 1.351 . S
C1632 C1633 1.434 . S
C1633 C1624 1.429 . S
C1633 N1630 1.350 . S
C1633 C1632 1.434 . S
C1634 C1635 1.369 . S
C1634 C1636 1.419 . S
C1634 H1638 0.930 . S
C1635 C1634 1.369 . S
C1635 C1644 1.429 . S
C1636 C1634 1.419 . S
C1636 C1637 1.363 . S
C1636 H1639 0.929 . S
C1637 C1636 1.363 . S
C1637 C1643 1.428 . S
H1638 C1634 0.930 . S
H1639 C1636 0.929 . S
S1640 N1641 1.613 . S
S1640 N1642 1.610 . S
N1641 S1640 1.613 . S
N1641 C1644 1.350 . S
N1642 S1640 1.610 . S
N1642 C1643 1.351 . S
C1643 C1637 1.428 . S
C1643 N1642 1.351 . S
C1643 C1644 1.434 . S
C1644 C1635 1.429 . S
C1644 N1641 1.350 . S
C1644 C1643 1.434 . S
C1645 C1646 1.369 . S
C1645 C1647 1.419 . S
C1645 H1649 0.930 . S
C1646 C1645 1.369 . S
C1646 C1655 1.429 . S
C1647 C1645 1.419 . S
C1647 C1648 1.363 . S
C1647 H1650 0.929 . S
C1648 C1647 1.363 . S
C1648 C1654 1.428 . S
H1649 C1645 0.930 . S
H1650 C1647 0.929 . S
S1651 N1652 1.613 . S
S1651 N1653 1.610 . S
N1652 S1651 1.613 . S
N1652 C1655 1.350 . S
N1653 S1651 1.610 . S
N1653 C1654 1.351 . S
C1654 C1648 1.428 . S
C1654 N1653 1.351 . S
C1654 C1655 1.434 . S
C1655 C1646 1.429 . S
C1655 N1652 1.350 . S
C1655 C1654 1.434 . S
C1656 C1657 1.369 . S
C1656 C1658 1.419 . S
C1656 H1660 0.930 . S
C1657 C1656 1.369 . S
C1657 C1666 1.429 . S
C1658 C1656 1.419 . S
C1658 C1659 1.363 . S
C1658 H1661 0.929 . S
C1659 C1658 1.363 . S
C1659 C1665 1.428 . S
H1660 C1656 0.930 . S
H1661 C1658 0.929 . S
S1662 N1663 1.613 . S
S1662 N1664 1.610 . S
N1663 S1662 1.613 . S
N1663 C1666 1.350 . S
N1664 S1662 1.610 . S
N1664 C1665 1.351 . S
C1665 C1659 1.428 . S
C1665 N1664 1.351 . S
C1665 C1666 1.434 . S
C1666 C1657 1.429 . S
C1666 N1663 1.350 . S
C1666 C1665 1.434 . S
C1667 C1668 1.369 . S
C1667 C1669 1.419 . S
C1667 H1671 0.930 . S
C1668 C1667 1.369 . S
C1668 C1677 1.429 . S
C1669 C1667 1.419 . S
C1669 C1670 1.363 . S
C1669 H1672 0.929 . S
C1670 C1669 1.363 . S
C1670 C1676 1.428 . S
H1671 C1667 0.930 . S
H1672 C1669 0.929 . S
S1673 N1674 1.613 . S
S1673 N1675 1.610 . S
N1674 S1673 1.613 . S
N1674 C1677 1.350 . S
N1675 S1673 1.610 . S
N1675 C1676 1.351 . S
C1676 C1670 1.428 . S
C1676 N1675 1.351 . S
C1676 C1677 1.434 . S
C1677 C1668 1.429 . S
C1677 N1674 1.350 . S
C1677 C1676 1.434 . S
C1678 C1679 1.369 . S
C1678 C1680 1.419 . S
C1678 H1682 0.930 . S
C1679 C1678 1.369 . S
C1679 C1688 1.429 . S
C1680 C1678 1.419 . S
C1680 C1681 1.363 . S
C1680 H1683 0.929 . S
C1681 C1680 1.363 . S
C1681 C1687 1.428 . S
H1682 C1678 0.930 . S
H1683 C1680 0.929 . S
S1684 N1685 1.613 . S
S1684 N1686 1.610 . S
N1685 S1684 1.613 . S
N1685 C1688 1.350 . S
N1686 S1684 1.610 . S
N1686 C1687 1.351 . S
C1687 C1681 1.428 . S
C1687 N1686 1.351 . S
C1687 C1688 1.434 . S
C1688 C1679 1.429 . S
C1688 N1685 1.350 . S
C1688 C1687 1.434 . S
C1689 C1690 1.369 . S
C1689 C1691 1.419 . S
C1689 H1693 0.930 . S
C1690 C1689 1.369 . S
C1690 C1699 1.429 . S
C1691 C1689 1.419 . S
C1691 C1692 1.363 . S
C1691 H1694 0.929 . S
C1692 C1691 1.363 . S
C1692 C1698 1.428 . S
H1693 C1689 0.930 . S
H1694 C1691 0.929 . S
S1695 N1696 1.613 . S
S1695 N1697 1.610 . S
N1696 S1695 1.613 . S
N1696 C1699 1.350 . S
N1697 S1695 1.610 . S
N1697 C1698 1.351 . S
C1698 C1692 1.428 . S
C1698 N1697 1.351 . S
C1698 C1699 1.434 . S
C1699 C1690 1.429 . S
C1699 N1696 1.350 . S
C1699 C1698 1.434 . S
C1700 C1701 1.369 . S
C1700 C1702 1.419 . S
C1700 H1704 0.930 . S
C1701 C1700 1.369 . S
C1701 C1710 1.429 . S
C1702 C1700 1.419 . S
C1702 C1703 1.363 . S
C1702 H1705 0.929 . S
C1703 C1702 1.363 . S
C1703 C1709 1.428 . S
H1704 C1700 0.930 . S
H1705 C1702 0.929 . S
S1706 N1707 1.613 . S
S1706 N1708 1.610 . S
N1707 S1706 1.613 . S
N1707 C1710 1.350 . S
N1708 S1706 1.610 . S
N1708 C1709 1.351 . S
C1709 C1703 1.428 . S
C1709 N1708 1.351 . S
C1709 C1710 1.434 . S
C1710 C1701 1.429 . S
C1710 N1707 1.350 . S
C1710 C1709 1.434 . S
C1711 C1712 1.369 . S
C1711 C1713 1.419 . S
C1711 H1715 0.930 . S
C1712 C1711 1.369 . S
C1712 C1721 1.429 . S
C1713 C1711 1.419 . S
C1713 C1714 1.363 . S
C1713 H1716 0.929 . S
C1714 C1713 1.363 . S
C1714 C1720 1.428 . S
H1715 C1711 0.930 . S
H1716 C1713 0.929 . S
S1717 N1718 1.613 . S
S1717 N1719 1.610 . S
N1718 S1717 1.613 . S
N1718 C1721 1.350 . S
N1719 S1717 1.610 . S
N1719 C1720 1.351 . S
C1720 C1714 1.428 . S
C1720 N1719 1.351 . S
C1720 C1721 1.434 . S
C1721 C1712 1.429 . S
C1721 N1718 1.350 . S
C1721 C1720 1.434 . S
C1722 C1723 1.369 . S
C1722 C1724 1.419 . S
C1722 H1726 0.930 . S
C1723 C1722 1.369 . S
C1723 C1732 1.429 . S
C1724 C1722 1.419 . S
C1724 C1725 1.363 . S
C1724 H1727 0.929 . S
C1725 C1724 1.363 . S
C1725 C1731 1.428 . S
H1726 C1722 0.930 . S
H1727 C1724 0.929 . S
S1728 N1729 1.613 . S
S1728 N1730 1.610 . S
N1729 S1728 1.613 . S
N1729 C1732 1.350 . S
N1730 S1728 1.610 . S
N1730 C1731 1.351 . S
C1731 C1725 1.428 . S
C1731 N1730 1.351 . S
C1731 C1732 1.434 . S
C1732 C1723 1.429 . S
C1732 N1729 1.350 . S
C1732 C1731 1.434 . S
C1733 C1734 1.369 . S
C1733 C1735 1.419 . S
C1733 H1737 0.930 . S
C1734 C1733 1.369 . S
C1734 C1743 1.429 . S
C1735 C1733 1.419 . S
C1735 C1736 1.363 1_455 S
C1735 H1738 0.929 1_455 S
C1736 C1735 1.363 1_655 S
C1736 C1742 1.428 1_655 S
H1737 C1733 0.930 . S
H1738 C1735 0.929 1_655 S
S1739 N1740 1.613 . S
S1739 N1741 1.610 1_455 S
N1740 S1739 1.613 . S
N1740 C1743 1.350 . S
N1741 S1739 1.610 1_655 S
N1741 C1742 1.351 1_655 S
C1742 C1736 1.428 1_455 S
C1742 N1741 1.351 1_455 S
C1742 C1743 1.434 . S
C1743 C1734 1.429 . S
C1743 N1740 1.350 . S
C1743 C1742 1.434 . S
C691 C354 1.182 . S
C689 C11 1.184 . S
C700 C14 1.268 . S
C702 C366 1.286 . S
C713 C401 1.357 . S
C711 C37 1.365 . S
C724 C410 1.278 . S
C722 C47 1.289 . S
C735 C365 1.278 . S
C733 C61 1.319 . S
C744 C79 1.348 . S
C746 C390 1.353 . S
C757 C409 1.286 . S
C755 C84 1.281 . S
C766 C109 1.228 . S
C768 C351 1.210 . S
C777 C123 1.217 . S
C779 C344 1.229 . S
C790 C368 1.266 . S
C788 C131 1.283 . S
C801 C387 1.348 . S
C799 C140 1.364 . S
C812 C412 1.299 . S
C810 C163 1.288 . S
C823 C373 1.279 . S
C821 C121 1.284 . S
C834 C398 1.347 . S
C832 C126 1.317 . S
C843 C145 1.291 . S
C845 C417 1.254 . S
C856 C357 1.211 . S
C854 C165 1.222 . S
C865 C168 1.216 . S
C867 C346 1.233 . S
C876 C193 1.262 . S
C878 C445 1.243 . S
C889 C461 1.315 . S
C887 C205 1.326 . S
C900 C475 1.297 . S
C898 C215 1.338 . S
C909 C224 1.230 . S
C911 C343 1.234 . S
C920 C247 1.343 . S
C922 C395 1.322 . S
C933 C478 1.250 . S
C931 C207 1.244 . S
C944 C442 1.345 . S
C942 C257 1.349 . S
C955 C498 1.304 . S
C953 C23 1.279 . S
C966 C522 1.214 . S
C964 C0 1.203 . S
C975 C53 1.174 . S
C977 C555 1.169 . S
C986 C33 1.321 . S
C988 C563 1.314 . S
C997 C103 1.323 . S
C999 C533 1.310 . S
C1008 C95 1.168 . S
C1010 C544 1.172 . S
C1021 C564 1.233 . S
C1019 C70 1.224 . S
C1030 C65 1.319 . S
C1032 C497 1.330 . S
C1041 C271 1.313 . S
C1043 C500 1.311 . S
C1054 C530 1.283 . S
C1052 C219 1.256 . S
C1065 C541 1.194 . S
C1063 C235 1.188 . S
C1076 C571 1.231 . S
C1074 C182 1.234 . S
C1087 C519 1.231 . S
C1085 C266 1.236 . S
C1098 C552 1.169 . S
C1096 C221 1.160 . S
C1109 C566 1.283 . S
C1107 C233 1.266 . S
C1118 C187 1.359 . S
C1120 C505 1.336 . S
C1131 C508 1.247 . S
C1129 C289 1.230 . S
C1140 C154 1.281 . S
C1142 C596 1.294 . S
C1153 C608 1.234 . S
C1151 C299 1.232 . S
C1162 C137 1.255 . S
C1164 C629 1.256 . S
C1175 C511 1.292 . S
C1173 C149 1.290 . S
C1186 C549 1.219 . S
C1184 C313 1.232 . S
C1197 C632 1.251 . S
C1195 C294 1.234 . S
C1206 C333 1.238 . S
C1208 C599 1.239 . S
C1217 C39 1.192 . S
C1219 C654 1.205 . S
C1228 C42 1.259 . S
C1230 C432 1.288 . S
C1241 C456 1.339 . S
C1239 C9 1.325 . S
C1250 C19 1.293 . S
C1252 C486 1.286 . S
C1261 C89 1.308 . S
C1263 C431 1.263 . S
C1272 C107 1.364 . S
C1274 C467 1.358 . S
C1285 C483 1.292 . S
C1283 C56 1.310 . S
C1296 C665 1.187 . S
C1294 C81 1.206 . S
C1307 C662 1.217 . S
C1305 C305 1.200 . S
C1318 C434 1.270 . S
C1316 C285 1.277 . S
C1329 C464 1.360 . S
C1327 C322 1.340 . S
C1338 C317 1.307 . S
C1340 C476 1.316 . S
C1351 C439 1.272 . S
C1349 C303 1.291 . S
C1360 C280 1.332 . S
C1362 C453 1.318 . S
C1373 C489 1.240 . S
C1371 C327 1.284 . S
C1382 C319 1.244 . S
C1384 C651 1.219 . S
C1395 C652 1.238 . S
C1393 C210 1.217 . S
C1404 C249 1.256 . S
C1406 C379 1.241 . S
C1417 C388 1.302 . S
C1415 C275 1.285 . S
C1426 C173 1.331 . S
C1428 C423 1.296 . S
C1439 C659 1.221 . S
C1437 C252 1.235 . S
C1450 C454 1.321 . S
C1448 C191 1.315 . S
C1461 C420 1.252 . S
C1459 C277 1.234 . S
C1472 C376 1.320 . S
C1470 C229 1.336 . S
C1481 C51 1.313 . S
C1483 C673 1.321 . S
C1492 C28 1.237 . S
C1494 C585 1.230 . S
C1503 C25 1.176 . S
C1505 C621 1.179 . S
C1516 C640 1.285 . S
C1514 C5 1.282 . S
C1527 C586 1.287 . S
C1525 C75 1.284 . S
C1536 C67 1.173 . S
C1538 C610 1.175 . S
C1549 C637 1.241 . S
C1547 C98 1.249 . S
C1558 C93 1.303 . S
C1560 C674 1.322 . S
C1571 C681 1.339 . S
C1569 C201 1.346 . S
C1580 C177 1.267 . S
C1582 C593 1.283 . S
C1591 C263 1.190 . S
C1593 C607 1.188 . S
C1604 C630 1.216 . S
C1602 C238 1.205 . S
C1615 C588 1.219 . S
C1613 C196 1.213 . S
C1624 C179 1.162 . S
C1626 C618 1.166 . S
C1637 C643 1.291 . S
C1635 C261 1.284 . S
C1648 C676 1.340 . S
C1646 C243 1.341 . S
C1659 C687 1.253 . S
C1657 C135 1.253 . S
C1670 C527 1.319 . S
C1668 C308 1.317 . S
C1679 C117 1.229 . S
C1681 C542 1.225 . S
C1690 C291 1.233 . S
C1692 C574 1.250 . S
C1703 C684 1.279 . S
C1701 C331 1.270 . S
C1714 C615 1.209 . S
C1712 C159 1.220 . S
C1725 C577 1.281 . S
C1723 C112 1.281 . S
C1736 C520 1.235 . S
C1734 C151 1.228 . S
