# Generated by pormake.
# Topology bcu-b, (8,8)-cn, num edge types: 1
# Building blocks:
#     Node 0, Type 0, BuildingBlock: TAGTUT_clean_sbu_3, # of connection points: 8
#     Node 1, Type 1, BuildingBlock: TAGTUT_clean_sbu_3, # of connection points: 8
#     Edge 2, Type (0, 1), BuildingBlock: ZUJKAS_clean_linker_0, # of connection points: 2
#     Edge 3, Type (0, 1), BuildingBlock: ZUJKAS_clean_linker_0, # of connection points: 2
#     Edge 4, Type (0, 1), BuildingBlock: ZUJKAS_clean_linker_0, # of connection points: 2
#     Edge 5, Type (0, 1), BuildingBlock: ZUJKAS_clean_linker_0, # of connection points: 2
#     Edge 6, Type (0, 1), BuildingBlock: ZUJKAS_clean_linker_0, # of connection points: 2
#     Edge 7, Type (0, 1), BuildingBlock: ZUJKAS_clean_linker_0, # of connection points: 2
#     Edge 8, Type (0, 1), BuildingBlock: ZUJKAS_clean_linker_0, # of connection points: 2
#     Edge 9, Type (0, 1), BuildingBlock: ZUJKAS_clean_linker_0, # of connection points: 2
# Relax obj value: 0.016
# Max RMSD: 0.069
# Mean RMSD: 0.069
data_MOF--net-bcu-b--node1-TAGTUT_clean_sbu_3--node2-TAGTUT_clean_sbu_3--edge1-ZUJKAS_clean_linker_0
_symmetry_space_group_name_H-M    P1
_symmetry_Int_Tables_number       1
_symmetry_cell_setting            triclinic
loop_
_symmetry_equiv_pos_as_xyz
'x, y, z'
_cell_length_a     24.371051
_cell_length_b     24.201257
_cell_length_c     26.819439
_cell_angle_alpha  91.491253
_cell_angle_beta   88.268091
_cell_angle_gamma 104.90809
loop_
_atom_site_label
_atom_site_type_symbol
_atom_site_fract_x
_atom_site_fract_y
_atom_site_fract_z
_atom_type_partial_charge
C0 C 0.08069 0.083 0.07019 0.0
C1 C 0.17357 0.9136 0.03419 0.0
C2 C 0.11784 0.91903 0.88394 0.0
Mg3 Mg 0.97526 0.11669 0.01942 0.0
Mg4 Mg 0.87098 0.01798 0.97162 0.0
O5 O 0.94937 0.05019 0.97206 0.0
Mg6 Mg 1.0035 0.00356 -0.01325 0.0
O7 O 0.06292 0.9635 0.00288 0.0
Mg8 Mg 0.1336 0.01967 0.97756 0.0
Mg9 Mg 0.0561 0.88774 -0.01684 0.0
C10 C 0.9166 0.92619 0.90645 0.0
O11 O 0.93787 0.93314 0.02995 0.0
O12 O 0.91934 0.1617 0.97304 0.0
O13 O 0.96922 0.85516 0.00875 0.0
O14 O 0.89999 0.08536 0.07536 0.0
O15 O 0.8515 0.09058 0.93895 0.0
O16 O 0.83531 0.01006 0.04612 0.0
O17 O 0.07312 0.06684 0.94203 0.0
O18 O 0.04932 0.14694 0.96542 0.0
C19 C 0.08182 0.12133 0.94125 0.0
C20 C 0.87627 0.14385 0.94474 0.0
O21 O 0.96888 0.94659 0.91832 0.0
O22 O 0.18431 0.96568 0.0196 0.0
O23 O 0.87534 0.94405 0.92605 0.0
O24 O 0.14195 0.96691 0.90491 0.0
O25 O 0.12667 0.87681 0.02471 0.0
O26 O 0.07719 0.8832 0.90565 0.0
O27 O 0.02998 0.06237 0.05515 0.0
O28 O 0.12365 0.07105 0.04807 0.0
C29 C 0.85343 0.04667 0.08077 0.0
C30 C 0.93164 0.87856 0.02806 0.0
C31 C 0.6219 0.57967 0.5248 0.0
C32 C 0.64197 0.37317 0.54907 0.0
C33 C 0.56133 0.33569 0.40554 0.0
Mg34 Mg 0.52514 0.62502 0.47228 0.0
Mg35 Mg 0.39553 0.54463 0.46165 0.0
O36 O 0.47251 0.5508 0.44943 0.0
Mg37 Mg 0.51027 0.49438 0.47711 0.0
O38 O 0.55422 0.44287 0.50352 0.0
Mg39 Mg 0.62491 0.464 0.46043 0.0
Mg40 Mg 0.52104 0.36429 0.50892 0.0
C41 C 0.3912 0.41509 0.43289 0.0
O42 O 0.44698 0.46764 0.54302 0.0
O43 O 0.47594 0.6697 0.41886 0.0
O44 O 0.443 0.37307 0.54546 0.0
O45 O 0.46558 0.64033 0.53818 0.0
O46 O 0.38932 0.60936 0.41016 0.0
O47 O 0.38266 0.57492 0.53538 0.0
O48 O 0.57568 0.51374 0.41246 0.0
O49 O 0.58334 0.60796 0.4089 0.0
C50 C 0.5976 0.56286 0.3937 0.0
C51 C 0.42638 0.65597 0.3995 0.0
O52 O 0.44539 0.42245 0.43507 0.0
O53 O 0.66345 0.41322 0.51795 0.0
O54 O 0.36598 0.45425 0.44479 0.0
O55 O 0.59916 0.38301 0.41013 0.0
O56 O 0.58857 0.34901 0.55168 0.0
O57 O 0.52144 0.32042 0.43808 0.0
O58 O 0.56815 0.56974 0.51957 0.0
O59 O 0.64977 0.54476 0.50807 0.0
C60 C 0.41592 0.61789 0.55646 0.0
C61 C 0.42448 0.41667 0.55839 0.0
H62 H 0.02123 0.06614 0.15888 0.0
H63 H 0.05571 0.11035 0.23976 0.0
H64 H 0.19982 0.22117 0.16464 0.0
H65 H 0.16649 0.17679 0.08453 0.0
H66 H 0.19625 0.11922 0.25878 0.0
H67 H 0.11009 0.31052 0.28117 0.0
H68 H 0.07125 0.24502 0.25092 0.0
H69 H 0.13026 0.29169 0.21904 0.0
C70 C 0.0592 0.10123 0.15973 0.0
C71 C 0.09146 0.11824 0.11587 0.0
C72 C 0.07899 0.12596 0.20574 0.0
C73 C 0.13036 0.16847 0.20771 0.0
C74 C 0.16012 0.18828 0.16354 0.0
H75 H 0.41544 0.34511 0.35831 0.0
H76 H 0.34562 0.27015 0.31419 0.0
C77 C 0.14098 0.16315 0.11795 0.0
C78 C 0.15701 0.18923 0.25541 0.0
H79 H 0.19078 0.30962 0.32826 0.0
C80 C 0.19409 0.16012 0.27512 0.0
C81 C 0.15384 0.24235 0.27619 0.0
C82 C 0.11403 0.27438 0.25611 0.0
C83 C 0.23103 0.18482 0.31339 0.0
C84 C 0.231 0.24011 0.33159 0.0
C85 C 0.19091 0.26724 0.31415 0.0
C86 C 0.27538 0.27359 0.36472 0.0
C87 C 0.27094 0.15244 0.33273 0.0
C88 C 0.25944 0.29897 0.40844 0.0
C89 C 0.29891 0.34217 0.43301 0.0
C90 C 0.35501 0.36057 0.41432 0.0
C91 C 0.37245 0.33149 0.3734 0.0
C92 C 0.33261 0.28851 0.34839 0.0
H93 H 0.25321 0.10552 0.32814 0.0
H94 H 0.31167 0.16438 0.3111 0.0
H95 H 0.27993 0.16273 0.37273 0.0
H96 H 0.2156 0.288 0.42168 0.0
H97 H 0.28472 0.36352 0.46503 0.0
H98 H 0.74071 0.99126 0.09451 0.0
H99 H 0.67331 0.01947 0.15303 0.0
H100 H 0.81102 0.14396 0.22136 0.0
H101 H 0.8787 0.11583 0.16363 0.0
H102 H 0.72334 0.0884 0.28983 0.0
H103 H 0.64033 0.17562 0.12615 0.0
H104 H 0.63847 0.10084 0.12346 0.0
H105 H 0.70558 0.1534 0.12277 0.0
C106 C 0.75694 0.02349 0.1229 0.0
C107 C 0.81512 0.05201 0.12373 0.0
C108 C 0.71822 0.03986 0.15606 0.0
C109 C 0.73705 0.08481 0.19064 0.0
C110 C 0.79553 0.10952 0.19464 0.0
H111 H 0.63085 0.35802 0.32285 0.0
H112 H 0.66207 0.28863 0.26899 0.0
C113 C 0.83421 0.09333 0.16153 0.0
C114 C 0.69636 0.11054 0.21915 0.0
H115 H 0.606 0.19591 0.20522 0.0
C116 C 0.6968 0.11101 0.27145 0.0
C117 C 0.66234 0.1406 0.19491 0.0
C118 C 0.66164 0.14318 0.13875 0.0
C119 C 0.66564 0.14235 0.30019 0.0
C120 C 0.63281 0.1736 0.27589 0.0
C121 C 0.63078 0.17146 0.22366 0.0
C122 C 0.60658 0.21447 0.30371 0.0
C123 C 0.67066 0.14447 0.3562 0.0
C124 C 0.56298 0.19583 0.33955 0.0
C125 C 0.54472 0.23557 0.37042 0.0
C126 C 0.57006 0.29454 0.36601 0.0
C127 C 0.61073 0.31296 0.32756 0.0
C128 C 0.62867 0.27332 0.29669 0.0
H129 H 0.70426 0.12474 0.36855 0.0
H130 H 0.68029 0.18939 0.37034 0.0
H131 H 0.62962 0.12102 0.3735 0.0
H132 H 0.54472 0.15056 0.34498 0.0
H133 H 0.51328 0.21989 0.39959 0.0
H134 H 0.88578 0.76761 0.00271 0.0
H135 H 0.8171 0.69704 0.0514 0.0
H136 H 0.79533 0.8299 0.1546 0.0
H137 H 0.86428 0.90131 0.10569 0.0
H138 H 0.84436 0.68219 0.15031 0.0
H139 H 0.63231 0.72557 0.13883 0.0
H140 H 0.68839 0.75013 0.0927 0.0
H141 H 0.68914 0.78785 0.15138 0.0
C142 C 0.86542 0.7821 0.03517 0.0
C143 C 0.88112 0.83974 0.05109 0.0
C144 C 0.82606 0.74171 0.06275 0.0
C145 C 0.80142 0.75828 0.10653 0.0
C146 C 0.81351 0.81647 0.12049 0.0
H147 H 0.70167 0.63498 0.38706 0.0
H148 H 0.75405 0.66793 0.30965 0.0
C149 C 0.85295 0.85717 0.09267 0.0
C150 C 0.77042 0.71408 0.14125 0.0
H151 H 0.64577 0.66834 0.2069 0.0
C152 C 0.80055 0.67834 0.16201 0.0
C153 C 0.71329 0.70894 0.15598 0.0
C154 C 0.67861 0.74478 0.13327 0.0
C155 C 0.77596 0.63987 0.19946 0.0
C156 C 0.72006 0.63726 0.21633 0.0
C157 C 0.68872 0.67048 0.19357 0.0
C158 C 0.69638 0.60743 0.26233 0.0
C159 C 0.81049 0.6039 0.2222 0.0
C160 C 0.64814 0.56095 0.26116 0.0
C161 C 0.61893 0.54123 0.30556 0.0
C162 C 0.63716 0.56891 0.351 0.0
C163 C 0.68753 0.61272 0.35232 0.0
C164 C 0.71724 0.63157 0.30824 0.0
H165 H 0.84695 0.60046 0.19752 0.0
H166 H 0.82744 0.62388 0.25817 0.0
H167 H 0.78366 0.56026 0.22994 0.0
H168 H 0.63136 0.54229 0.22586 0.0
H169 H 0.57947 0.50808 0.30389 0.0
H170 H 0.27032 0.98056 0.0768 0.0
H171 H 0.33333 0.95001 0.13379 0.0
H172 H 0.23238 0.77586 0.12 0.0
H173 H 0.17013 0.80544 0.06299 0.0
H174 H 0.30238 0.89853 0.225 0.0
H175 H 0.39211 0.75663 0.10077 0.0
H176 H 0.3573 0.80771 0.07713 0.0
H177 H 0.31615 0.73896 0.09809 0.0
C178 C 0.26214 0.93561 0.08524 0.0
C179 C 0.21509 0.89549 0.0652 0.0
C180 C 0.29813 0.91829 0.1179 0.0
C181 C 0.28811 0.86052 0.13053 0.0
C182 C 0.24182 0.82043 0.1099 0.0
H183 H 0.32839 0.63713 0.34764 0.0
H184 H 0.30526 0.69542 0.2828 0.0
C185 C 0.2059 0.8376 0.07752 0.0
C186 C 0.32274 0.84193 0.16816 0.0
H187 H 0.39061 0.73797 0.18938 0.0
C188 C 0.32303 0.86448 0.21699 0.0
C189 C 0.34995 0.7977 0.15763 0.0
C190 C 0.35442 0.7743 0.1054 0.0
C191 C 0.34612 0.84099 0.25618 0.0
C192 C 0.36941 0.79405 0.24613 0.0
C193 C 0.37233 0.77384 0.19691 0.0
C194 C 0.38434 0.76087 0.28678 0.0
C195 C 0.34252 0.86397 0.30863 0.0
C196 C 0.43656 0.77873 0.31063 0.0
C197 C 0.45024 0.74528 0.34793 0.0
C198 C 0.41175 0.69356 0.36189 0.0
C199 C 0.35917 0.67659 0.33809 0.0
C200 C 0.34578 0.70979 0.30088 0.0
H201 H 0.32402 0.90143 0.31021 0.0
H202 H 0.31601 0.82989 0.33243 0.0
H203 H 0.38558 0.87677 0.32457 0.0
H204 H 0.46686 0.8181 0.30002 0.0
H205 H 0.49109 0.75964 0.36539 0.0
H206 H 0.07866 0.82076 0.82872 0.0
H207 H 0.13385 0.77713 0.7696 0.0
H208 H 0.27333 0.92826 0.77742 0.0
H209 H 0.21883 0.97213 0.83737 0.0
H210 H 0.19015 0.80621 0.67761 0.0
H211 H 0.34186 0.80213 0.82749 0.0
H212 H 0.27453 0.81849 0.83995 0.0
H213 H 0.33312 0.87156 0.81366 0.0
C214 C 0.12063 0.84536 0.81718 0.0
C215 C 0.14466 0.89959 0.83864 0.0
C216 C 0.15218 0.82023 0.78338 0.0
C217 C 0.2083 0.84876 0.77034 0.0
C218 C 0.2306 0.90491 0.78808 0.0
H219 H 0.46375 0.72338 0.59845 0.0
H220 H 0.41569 0.78073 0.65206 0.0
C221 C 0.19908 0.93016 0.82196 0.0
C222 C 0.24425 0.81798 0.74102 0.0
H223 H 0.35999 0.76353 0.74896 0.0
C224 C 0.22741 0.79709 0.6931 0.0
C225 C 0.29279 0.80594 0.76144 0.0
C226 C 0.31158 0.82521 0.8136 0.0
C227 C 0.25774 0.76447 0.66503 0.0
C228 C 0.30559 0.75154 0.68582 0.0
C229 C 0.32318 0.77337 0.73328 0.0
C230 C 0.33715 0.7146 0.65888 0.0
C231 C 0.23849 0.74434 0.61318 0.0
C232 C 0.30993 0.65747 0.64724 0.0
C233 C 0.33726 0.62447 0.61687 0.0
C234 C 0.3925 0.64797 0.59757 0.0
C235 C 0.42121 0.7039 0.61249 0.0
C236 C 0.39372 0.7369 0.64293 0.0
H237 H 0.21062 0.76945 0.59816 0.0
H238 H 0.27544 0.74749 0.58716 0.0
H239 H 0.21402 0.69885 0.61434 0.0
H240 H 0.26673 0.63902 0.66024 0.0
H241 H 0.31402 0.5814 0.60665 0.0
H242 H 0.14024 0.08726 0.86206 0.0
H243 H 0.20337 0.15033 0.80232 0.0
H244 H 0.18929 0.29775 0.89064 0.0
H245 H 0.1268 0.23572 0.95016 0.0
H246 H 0.15605 0.29538 0.78768 0.0
H247 H 0.36922 0.25669 0.81034 0.0
H248 H 0.31081 0.19394 0.80549 0.0
H249 H 0.31436 0.24125 0.85863 0.0
C250 C 0.15184 0.13298 0.86933 0.0
C251 C 0.128 0.15662 0.91031 0.0
C252 C 0.18781 0.16889 0.83528 0.0
C253 C 0.20056 0.22853 0.84224 0.0
C254 C 0.17963 0.25183 0.88469 0.0
H255 H 0.41957 0.47737 0.64438 0.0
H256 H 0.35892 0.44165 0.71767 0.0
C257 C 0.14389 0.21623 0.91855 0.0
C258 C 0.23068 0.267 0.80297 0.0
H259 H 0.35736 0.30976 0.73984 0.0
C260 C 0.20025 0.29908 0.77749 0.0
C261 C 0.2883 0.27185 0.79034 0.0
C262 C 0.32294 0.23951 0.81779 0.0
C263 C 0.22561 0.33435 0.73811 0.0
C264 C 0.28256 0.33762 0.72443 0.0
C265 C 0.31361 0.30719 0.75098 0.0
C266 C 0.30903 0.36677 0.67908 0.0
C267 C 0.19137 0.36684 0.71041 0.0
C268 C 0.29901 0.33741 0.63324 0.0
C269 C 0.33375 0.35717 0.59192 0.0
C270 C 0.37841 0.40682 0.59595 0.0
C271 C 0.38489 0.43928 0.64052 0.0
C272 C 0.35066 0.41885 0.68227 0.0
H273 H 0.1502 0.36591 0.72979 0.0
H274 H 0.21591 0.41203 0.70596 0.0
H275 H 0.18268 0.34764 0.67249 0.0
H276 H 0.26717 0.29697 0.63043 0.0
H277 H 0.32827 0.33157 0.55778 0.0
H278 H 0.77349 0.12879 0.902 0.0
H279 H 0.74756 0.18742 0.83874 0.0
H280 H 0.91038 0.30949 0.85142 0.0
H281 H 0.93703 0.25058 0.9151 0.0
H282 H 0.74497 0.30649 0.83938 0.0
H283 H 0.9016 0.25532 0.70158 0.0
H284 H 0.88023 0.21449 0.75747 0.0
H285 H 0.92682 0.28504 0.7614 0.0
C286 C 0.80359 0.16852 0.89198 0.0
C287 C 0.85751 0.18478 0.91336 0.0
C288 C 0.78866 0.20201 0.85579 0.0
C289 C 0.82737 0.25226 0.83982 0.0
C290 C 0.88019 0.2704 0.8628 0.0
H291 H 0.75148 0.42918 0.57447 0.0
H292 H 0.80443 0.40868 0.64536 0.0
C293 C 0.89511 0.23698 0.89949 0.0
C294 C 0.81249 0.28318 0.79731 0.0
H295 H 0.83577 0.30151 0.67173 0.0
C296 C 0.76551 0.30643 0.80293 0.0
C297 C 0.83948 0.28317 0.7498 0.0
C298 C 0.8897 0.25801 0.74171 0.0
C299 C 0.74318 0.32725 0.76189 0.0
C300 C 0.76784 0.32379 0.71385 0.0
C301 C 0.81691 0.30384 0.70861 0.0
C302 C 0.73909 0.33439 0.66848 0.0
C303 C 0.69208 0.35108 0.76995 0.0
C304 C 0.68605 0.29812 0.65699 0.0
C305 C 0.65603 0.30936 0.6167 0.0
C306 C 0.6784 0.35722 0.58673 0.0
C307 C 0.73302 0.39197 0.59672 0.0
C308 C 0.76322 0.38052 0.63731 0.0
H309 H 0.68838 0.3658 0.8092 0.0
H310 H 0.69419 0.38738 0.74484 0.0
H311 H 0.65306 0.31711 0.76157 0.0
H312 H 0.66723 0.26161 0.68 0.0
H313 H 0.61444 0.28124 0.60995 0.0
H314 H 0.97704 0.91612 0.82037 0.0
H315 H 0.93935 0.85817 0.74626 0.0
H316 H 0.78465 0.78255 0.82876 0.0
H317 H 0.8218 0.8396 0.90225 0.0
H318 H 0.82445 0.70542 0.76351 0.0
H319 H 0.81011 0.90556 0.67225 0.0
H320 H 0.87856 0.9022 0.69335 0.0
H321 H 0.82256 0.9032 0.73807 0.0
C322 C 0.93574 0.88584 0.82287 0.0
C323 C 0.9018 0.88274 0.8665 0.0
C324 C 0.91412 0.8533 0.78057 0.0
C325 C 0.85881 0.81725 0.782 0.0
C326 C 0.82721 0.81056 0.82691 0.0
H327 H 0.58435 0.63413 0.60435 0.0
H328 H 0.64516 0.70041 0.66319 0.0
C329 C 0.84844 0.84315 0.86877 0.0
C330 C 0.83086 0.78984 0.73645 0.0
H331 H 0.76709 0.81839 0.63184 0.0
C332 C 0.8126 0.73001 0.73432 0.0
C333 C 0.81492 0.82239 0.69895 0.0
C334 C 0.8321 0.88692 0.70057 0.0
C335 C 0.77768 0.70177 0.69611 0.0
C336 C 0.76055 0.73433 0.6595 0.0
C337 C 0.78014 0.794 0.66052 0.0
C338 C 0.7226 0.706 0.61973 0.0
C339 C 0.75821 0.6373 0.69544 0.0
C340 C 0.74612 0.68985 0.57527 0.0
C341 C 0.71184 0.65206 0.54208 0.0
C342 C 0.65356 0.63016 0.55289 0.0
C343 C 0.62911 0.65058 0.59521 0.0
C344 C 0.6637 0.68815 0.62877 0.0
H345 H 0.77778 0.61819 0.72521 0.0
H346 H 0.71133 0.62365 0.70061 0.0
H347 H 0.76901 0.62007 0.65871 0.0
H348 H 0.79152 0.70341 0.5679 0.0
H349 H 0.73154 0.63731 0.50935 0.0
loop_
_geom_bond_atom_site_label_1
_geom_bond_atom_site_label_2
_geom_bond_distance
_geom_bond_site_symmetry_2
_ccdc_geom_bond_type
C0 O27 1.312 . S
C0 O28 1.208 . S
C1 O22 1.331 . S
C1 O25 1.244 . S
C2 O24 1.264 . S
C2 O26 1.273 . S
Mg3 O5 1.936 . S
Mg3 O12 2.081 . S
Mg3 O14 2.023 1_556 S
Mg3 O18 2.031 1_655 S
Mg3 O27 2.291 1_656 S
Mg4 O5 1.963 . S
Mg4 O15 1.942 . S
Mg4 O16 1.955 1_556 S
Mg4 O23 1.986 1_545 S
O5 Mg3 1.936 . S
O5 Mg4 1.963 . S
O5 Mg6 1.915 1_546 S
Mg6 O5 1.915 1_564 S
Mg6 O7 1.915 1_655 S
Mg6 O11 2.013 . S
Mg6 O17 2.114 1_664 S
Mg6 O21 2.013 1_554 S
Mg6 O27 2.114 1_665 S
O7 Mg6 1.915 1_455 S
O7 Mg8 1.936 . S
O7 Mg9 1.963 . S
Mg8 O7 1.936 . S
Mg8 O17 2.291 1_564 S
Mg8 O22 2.081 . S
Mg8 O24 2.023 1_554 S
Mg8 O28 2.031 1_565 S
Mg9 O7 1.963 . S
Mg9 O13 1.986 1_455 S
Mg9 O25 1.942 . S
Mg9 O26 1.955 1_554 S
C10 O21 1.191 . S
C10 O23 1.307 . S
O11 Mg6 2.013 . S
O11 C30 1.191 . S
O12 Mg3 2.081 . S
O12 C20 1.331 . S
O13 Mg9 1.986 1_655 S
O13 C30 1.307 . S
O14 Mg3 2.023 1_554 S
O14 C29 1.264 . S
O15 Mg4 1.942 . S
O15 C20 1.244 . S
O16 Mg4 1.955 1_554 S
O16 C29 1.273 . S
O17 Mg6 2.114 1_446 S
O17 Mg8 2.291 1_546 S
O17 C19 1.312 . S
O18 Mg3 2.031 1_455 S
O18 C19 1.208 . S
C19 O17 1.312 . S
C19 O18 1.208 . S
C20 O12 1.331 . S
C20 O15 1.244 . S
O21 Mg6 2.013 1_556 S
O21 C10 1.191 . S
O22 C1 1.331 . S
O22 Mg8 2.081 . S
O23 Mg4 1.986 1_565 S
O23 C10 1.307 . S
O24 C2 1.264 . S
O24 Mg8 2.023 1_556 S
O25 C1 1.244 . S
O25 Mg9 1.942 . S
O26 C2 1.273 . S
O26 Mg9 1.955 1_556 S
O27 C0 1.312 . S
O27 Mg3 2.291 1_454 S
O27 Mg6 2.114 1_445 S
O28 C0 1.208 . S
O28 Mg8 2.031 1_545 S
C29 O14 1.264 . S
C29 O16 1.273 . S
C30 O11 1.191 . S
C30 O13 1.307 . S
C31 O58 1.312 . S
C31 O59 1.208 . S
C32 O53 1.331 . S
C32 O56 1.244 . S
C33 O55 1.264 . S
C33 O57 1.273 . S
Mg34 O36 1.936 . S
Mg34 O43 2.081 . S
Mg34 O45 2.023 . S
Mg34 O49 2.031 . S
Mg34 O58 2.291 . S
Mg35 O36 1.963 . S
Mg35 O46 1.942 . S
Mg35 O47 1.955 . S
Mg35 O54 1.986 . S
O36 Mg34 1.936 . S
O36 Mg35 1.963 . S
O36 Mg37 1.915 . S
Mg37 O36 1.915 . S
Mg37 O38 1.915 . S
Mg37 O42 2.013 . S
Mg37 O48 2.114 . S
Mg37 O52 2.013 . S
Mg37 O58 2.114 . S
O38 Mg37 1.915 . S
O38 Mg39 1.936 . S
O38 Mg40 1.963 . S
Mg39 O38 1.936 . S
Mg39 O48 2.291 . S
Mg39 O53 2.081 . S
Mg39 O55 2.023 . S
Mg39 O59 2.031 . S
Mg40 O38 1.963 . S
Mg40 O44 1.986 . S
Mg40 O56 1.942 . S
Mg40 O57 1.955 . S
C41 O52 1.191 . S
C41 O54 1.307 . S
O42 Mg37 2.013 . S
O42 C61 1.191 . S
O43 Mg34 2.081 . S
O43 C51 1.331 . S
O44 Mg40 1.986 . S
O44 C61 1.307 . S
O45 Mg34 2.023 . S
O45 C60 1.264 . S
O46 Mg35 1.942 . S
O46 C51 1.244 . S
O47 Mg35 1.955 . S
O47 C60 1.273 . S
O48 Mg37 2.114 . S
O48 Mg39 2.291 . S
O48 C50 1.312 . S
O49 Mg34 2.031 . S
O49 C50 1.208 . S
C50 O48 1.312 . S
C50 O49 1.208 . S
C51 O43 1.331 . S
C51 O46 1.244 . S
O52 Mg37 2.013 . S
O52 C41 1.191 . S
O53 C32 1.331 . S
O53 Mg39 2.081 . S
O54 Mg35 1.986 . S
O54 C41 1.307 . S
O55 C33 1.264 . S
O55 Mg39 2.023 . S
O56 C32 1.244 . S
O56 Mg40 1.942 . S
O57 C33 1.273 . S
O57 Mg40 1.955 . S
O58 C31 1.312 . S
O58 Mg34 2.291 . S
O58 Mg37 2.114 . S
O59 C31 1.208 . S
O59 Mg39 2.031 . S
C60 O45 1.264 . S
C60 O47 1.273 . S
C61 O42 1.191 . S
C61 O44 1.307 . S
H62 C70 0.929 . S
H63 C72 0.930 . S
H64 C74 0.930 . S
H65 C77 0.929 . S
H66 C80 0.930 . S
H67 C82 0.960 . S
H68 C82 0.960 . S
H69 C82 0.960 . S
C70 H62 0.929 . S
C70 C71 1.377 . S
C70 C72 1.384 . S
C71 C70 1.377 . S
C71 C77 1.390 . S
C72 H63 0.930 . S
C72 C70 1.384 . S
C72 C73 1.372 . S
C73 C72 1.372 . S
C73 C74 1.400 . S
C73 C78 1.490 . S
C74 H64 0.930 . S
C74 C73 1.400 . S
C74 C77 1.386 . S
H75 C91 0.930 . S
H76 C92 0.931 . S
C77 H65 0.929 . S
C77 C71 1.390 . S
C77 C74 1.386 . S
C78 C73 1.490 . S
C78 C80 1.395 . S
C78 C81 1.403 . S
H79 C85 0.930 . S
C80 H66 0.930 . S
C80 C78 1.395 . S
C80 C83 1.403 . S
C81 C78 1.403 . S
C81 C82 1.524 . S
C81 C85 1.400 . S
C82 H67 0.960 . S
C82 H68 0.960 . S
C82 H69 0.960 . S
C82 C81 1.524 . S
C83 C80 1.403 . S
C83 C84 1.392 . S
C83 C87 1.495 . S
C84 C83 1.392 . S
C84 C85 1.385 . S
C84 C86 1.478 . S
C85 H79 0.930 . S
C85 C81 1.400 . S
C85 C84 1.385 . S
C86 C84 1.478 . S
C86 C88 1.381 . S
C86 C92 1.383 . S
C87 C83 1.495 . S
C87 H93 0.959 . S
C87 H94 0.961 . S
C87 H95 0.960 . S
C88 C86 1.381 . S
C88 C89 1.394 . S
C88 H96 0.930 . S
C89 C88 1.394 . S
C89 C90 1.383 . S
C89 H97 0.929 . S
C90 C89 1.383 . S
C90 C91 1.377 . S
C91 H75 0.930 . S
C91 C90 1.377 . S
C91 C92 1.379 . S
C92 H76 0.931 . S
C92 C86 1.383 . S
C92 C91 1.379 . S
H93 C87 0.959 . S
H94 C87 0.961 . S
H95 C87 0.960 . S
H96 C88 0.930 . S
H97 C89 0.929 . S
H98 C106 0.929 . S
H99 C108 0.930 . S
H100 C110 0.930 . S
H101 C113 0.929 . S
H102 C116 0.930 . S
H103 C118 0.960 . S
H104 C118 0.960 . S
H105 C118 0.960 . S
C106 H98 0.929 . S
C106 C107 1.377 . S
C106 C108 1.384 . S
C107 C106 1.377 . S
C107 C113 1.390 . S
C108 H99 0.930 . S
C108 C106 1.384 . S
C108 C109 1.372 . S
C109 C108 1.372 . S
C109 C110 1.400 . S
C109 C114 1.490 . S
C110 H100 0.930 . S
C110 C109 1.400 . S
C110 C113 1.386 . S
H111 C127 0.930 . S
H112 C128 0.931 . S
C113 H101 0.929 . S
C113 C107 1.390 . S
C113 C110 1.386 . S
C114 C109 1.490 . S
C114 C116 1.395 . S
C114 C117 1.403 . S
H115 C121 0.930 . S
C116 H102 0.930 . S
C116 C114 1.395 . S
C116 C119 1.403 . S
C117 C114 1.403 . S
C117 C118 1.524 . S
C117 C121 1.400 . S
C118 H103 0.960 . S
C118 H104 0.960 . S
C118 H105 0.960 . S
C118 C117 1.524 . S
C119 C116 1.403 . S
C119 C120 1.392 . S
C119 C123 1.495 . S
C120 C119 1.392 . S
C120 C121 1.385 . S
C120 C122 1.478 . S
C121 H115 0.930 . S
C121 C117 1.400 . S
C121 C120 1.385 . S
C122 C120 1.478 . S
C122 C124 1.381 . S
C122 C128 1.383 . S
C123 C119 1.495 . S
C123 H129 0.959 . S
C123 H130 0.961 . S
C123 H131 0.960 . S
C124 C122 1.381 . S
C124 C125 1.394 . S
C124 H132 0.930 . S
C125 C124 1.394 . S
C125 C126 1.383 . S
C125 H133 0.929 . S
C126 C125 1.383 . S
C126 C127 1.377 . S
C127 H111 0.930 . S
C127 C126 1.377 . S
C127 C128 1.379 . S
C128 H112 0.931 . S
C128 C122 1.383 . S
C128 C127 1.379 . S
H129 C123 0.959 . S
H130 C123 0.961 . S
H131 C123 0.960 . S
H132 C124 0.930 . S
H133 C125 0.929 . S
H134 C142 0.929 . S
H135 C144 0.930 . S
H136 C146 0.930 . S
H137 C149 0.929 . S
H138 C152 0.930 . S
H139 C154 0.960 . S
H140 C154 0.960 . S
H141 C154 0.960 . S
C142 H134 0.929 . S
C142 C143 1.377 . S
C142 C144 1.384 . S
C143 C142 1.377 . S
C143 C149 1.390 . S
C144 H135 0.930 . S
C144 C142 1.384 . S
C144 C145 1.372 . S
C145 C144 1.372 . S
C145 C146 1.400 . S
C145 C150 1.490 . S
C146 H136 0.930 . S
C146 C145 1.400 . S
C146 C149 1.386 . S
H147 C163 0.930 . S
H148 C164 0.931 . S
C149 H137 0.929 . S
C149 C143 1.390 . S
C149 C146 1.386 . S
C150 C145 1.490 . S
C150 C152 1.395 . S
C150 C153 1.403 . S
H151 C157 0.930 . S
C152 H138 0.930 . S
C152 C150 1.395 . S
C152 C155 1.403 . S
C153 C150 1.403 . S
C153 C154 1.524 . S
C153 C157 1.400 . S
C154 H139 0.960 . S
C154 H140 0.960 . S
C154 H141 0.960 . S
C154 C153 1.524 . S
C155 C152 1.403 . S
C155 C156 1.392 . S
C155 C159 1.495 . S
C156 C155 1.392 . S
C156 C157 1.385 . S
C156 C158 1.478 . S
C157 H151 0.930 . S
C157 C153 1.400 . S
C157 C156 1.385 . S
C158 C156 1.478 . S
C158 C160 1.381 . S
C158 C164 1.383 . S
C159 C155 1.495 . S
C159 H165 0.959 . S
C159 H166 0.961 . S
C159 H167 0.960 . S
C160 C158 1.381 . S
C160 C161 1.394 . S
C160 H168 0.930 . S
C161 C160 1.394 . S
C161 C162 1.383 . S
C161 H169 0.929 . S
C162 C161 1.383 . S
C162 C163 1.377 . S
C163 H147 0.930 . S
C163 C162 1.377 . S
C163 C164 1.379 . S
C164 H148 0.931 . S
C164 C158 1.383 . S
C164 C163 1.379 . S
H165 C159 0.959 . S
H166 C159 0.961 . S
H167 C159 0.960 . S
H168 C160 0.930 . S
H169 C161 0.929 . S
H170 C178 0.929 . S
H171 C180 0.930 . S
H172 C182 0.930 . S
H173 C185 0.929 . S
H174 C188 0.930 . S
H175 C190 0.960 . S
H176 C190 0.960 . S
H177 C190 0.960 . S
C178 H170 0.929 . S
C178 C179 1.377 . S
C178 C180 1.384 . S
C179 C178 1.377 . S
C179 C185 1.390 . S
C180 H171 0.930 . S
C180 C178 1.384 . S
C180 C181 1.372 . S
C181 C180 1.372 . S
C181 C182 1.400 . S
C181 C186 1.490 . S
C182 H172 0.930 . S
C182 C181 1.400 . S
C182 C185 1.386 . S
H183 C199 0.930 . S
H184 C200 0.931 . S
C185 H173 0.929 . S
C185 C179 1.390 . S
C185 C182 1.386 . S
C186 C181 1.490 . S
C186 C188 1.395 . S
C186 C189 1.403 . S
H187 C193 0.930 . S
C188 H174 0.930 . S
C188 C186 1.395 . S
C188 C191 1.403 . S
C189 C186 1.403 . S
C189 C190 1.524 . S
C189 C193 1.400 . S
C190 H175 0.960 . S
C190 H176 0.960 . S
C190 H177 0.960 . S
C190 C189 1.524 . S
C191 C188 1.403 . S
C191 C192 1.392 . S
C191 C195 1.495 . S
C192 C191 1.392 . S
C192 C193 1.385 . S
C192 C194 1.478 . S
C193 H187 0.930 . S
C193 C189 1.400 . S
C193 C192 1.385 . S
C194 C192 1.478 . S
C194 C196 1.381 . S
C194 C200 1.383 . S
C195 C191 1.495 . S
C195 H201 0.959 . S
C195 H202 0.961 . S
C195 H203 0.960 . S
C196 C194 1.381 . S
C196 C197 1.394 . S
C196 H204 0.930 . S
C197 C196 1.394 . S
C197 C198 1.383 . S
C197 H205 0.929 . S
C198 C197 1.383 . S
C198 C199 1.377 . S
C199 H183 0.930 . S
C199 C198 1.377 . S
C199 C200 1.379 . S
C200 H184 0.931 . S
C200 C194 1.383 . S
C200 C199 1.379 . S
H201 C195 0.959 . S
H202 C195 0.961 . S
H203 C195 0.960 . S
H204 C196 0.930 . S
H205 C197 0.929 . S
H206 C214 0.929 . S
H207 C216 0.930 . S
H208 C218 0.930 . S
H209 C221 0.929 . S
H210 C224 0.930 . S
H211 C226 0.960 . S
H212 C226 0.960 . S
H213 C226 0.960 . S
C214 H206 0.929 . S
C214 C215 1.377 . S
C214 C216 1.384 . S
C215 C214 1.377 . S
C215 C221 1.390 . S
C216 H207 0.930 . S
C216 C214 1.384 . S
C216 C217 1.372 . S
C217 C216 1.372 . S
C217 C218 1.400 . S
C217 C222 1.490 . S
C218 H208 0.930 . S
C218 C217 1.400 . S
C218 C221 1.386 . S
H219 C235 0.930 . S
H220 C236 0.931 . S
C221 H209 0.929 . S
C221 C215 1.390 . S
C221 C218 1.386 . S
C222 C217 1.490 . S
C222 C224 1.395 . S
C222 C225 1.403 . S
H223 C229 0.930 . S
C224 H210 0.930 . S
C224 C222 1.395 . S
C224 C227 1.403 . S
C225 C222 1.403 . S
C225 C226 1.524 . S
C225 C229 1.400 . S
C226 H211 0.960 . S
C226 H212 0.960 . S
C226 H213 0.960 . S
C226 C225 1.524 . S
C227 C224 1.403 . S
C227 C228 1.392 . S
C227 C231 1.495 . S
C228 C227 1.392 . S
C228 C229 1.385 . S
C228 C230 1.478 . S
C229 H223 0.930 . S
C229 C225 1.400 . S
C229 C228 1.385 . S
C230 C228 1.478 . S
C230 C232 1.381 . S
C230 C236 1.383 . S
C231 C227 1.495 . S
C231 H237 0.959 . S
C231 H238 0.961 . S
C231 H239 0.960 . S
C232 C230 1.381 . S
C232 C233 1.394 . S
C232 H240 0.930 . S
C233 C232 1.394 . S
C233 C234 1.383 . S
C233 H241 0.929 . S
C234 C233 1.383 . S
C234 C235 1.377 . S
C235 H219 0.930 . S
C235 C234 1.377 . S
C235 C236 1.379 . S
C236 H220 0.931 . S
C236 C230 1.383 . S
C236 C235 1.379 . S
H237 C231 0.959 . S
H238 C231 0.961 . S
H239 C231 0.960 . S
H240 C232 0.930 . S
H241 C233 0.929 . S
H242 C250 0.929 . S
H243 C252 0.930 . S
H244 C254 0.930 . S
H245 C257 0.929 . S
H246 C260 0.930 . S
H247 C262 0.960 . S
H248 C262 0.960 . S
H249 C262 0.960 . S
C250 H242 0.929 . S
C250 C251 1.377 . S
C250 C252 1.384 . S
C251 C250 1.377 . S
C251 C257 1.390 . S
C252 H243 0.930 . S
C252 C250 1.384 . S
C252 C253 1.372 . S
C253 C252 1.372 . S
C253 C254 1.400 . S
C253 C258 1.490 . S
C254 H244 0.930 . S
C254 C253 1.400 . S
C254 C257 1.386 . S
H255 C271 0.930 . S
H256 C272 0.931 . S
C257 H245 0.929 . S
C257 C251 1.390 . S
C257 C254 1.386 . S
C258 C253 1.490 . S
C258 C260 1.395 . S
C258 C261 1.403 . S
H259 C265 0.930 . S
C260 H246 0.930 . S
C260 C258 1.395 . S
C260 C263 1.403 . S
C261 C258 1.403 . S
C261 C262 1.524 . S
C261 C265 1.400 . S
C262 H247 0.960 . S
C262 H248 0.960 . S
C262 H249 0.960 . S
C262 C261 1.524 . S
C263 C260 1.403 . S
C263 C264 1.392 . S
C263 C267 1.495 . S
C264 C263 1.392 . S
C264 C265 1.385 . S
C264 C266 1.478 . S
C265 H259 0.930 . S
C265 C261 1.400 . S
C265 C264 1.385 . S
C266 C264 1.478 . S
C266 C268 1.381 . S
C266 C272 1.383 . S
C267 C263 1.495 . S
C267 H273 0.959 . S
C267 H274 0.961 . S
C267 H275 0.960 . S
C268 C266 1.381 . S
C268 C269 1.394 . S
C268 H276 0.930 . S
C269 C268 1.394 . S
C269 C270 1.383 . S
C269 H277 0.929 . S
C270 C269 1.383 . S
C270 C271 1.377 . S
C271 H255 0.930 . S
C271 C270 1.377 . S
C271 C272 1.379 . S
C272 H256 0.931 . S
C272 C266 1.383 . S
C272 C271 1.379 . S
H273 C267 0.959 . S
H274 C267 0.961 . S
H275 C267 0.960 . S
H276 C268 0.930 . S
H277 C269 0.929 . S
H278 C286 0.929 . S
H279 C288 0.930 . S
H280 C290 0.930 . S
H281 C293 0.929 . S
H282 C296 0.930 . S
H283 C298 0.960 . S
H284 C298 0.960 . S
H285 C298 0.960 . S
C286 H278 0.929 . S
C286 C287 1.377 . S
C286 C288 1.384 . S
C287 C286 1.377 . S
C287 C293 1.390 . S
C288 H279 0.930 . S
C288 C286 1.384 . S
C288 C289 1.372 . S
C289 C288 1.372 . S
C289 C290 1.400 . S
C289 C294 1.490 . S
C290 H280 0.930 . S
C290 C289 1.400 . S
C290 C293 1.386 . S
H291 C307 0.930 . S
H292 C308 0.931 . S
C293 H281 0.929 . S
C293 C287 1.390 . S
C293 C290 1.386 . S
C294 C289 1.490 . S
C294 C296 1.395 . S
C294 C297 1.403 . S
H295 C301 0.930 . S
C296 H282 0.930 . S
C296 C294 1.395 . S
C296 C299 1.403 . S
C297 C294 1.403 . S
C297 C298 1.524 . S
C297 C301 1.400 . S
C298 H283 0.960 . S
C298 H284 0.960 . S
C298 H285 0.960 . S
C298 C297 1.524 . S
C299 C296 1.403 . S
C299 C300 1.392 . S
C299 C303 1.495 . S
C300 C299 1.392 . S
C300 C301 1.385 . S
C300 C302 1.478 . S
C301 H295 0.930 . S
C301 C297 1.400 . S
C301 C300 1.385 . S
C302 C300 1.478 . S
C302 C304 1.381 . S
C302 C308 1.383 . S
C303 C299 1.495 . S
C303 H309 0.959 . S
C303 H310 0.961 . S
C303 H311 0.960 . S
C304 C302 1.381 . S
C304 C305 1.394 . S
C304 H312 0.930 . S
C305 C304 1.394 . S
C305 C306 1.383 . S
C305 H313 0.929 . S
C306 C305 1.383 . S
C306 C307 1.377 . S
C307 H291 0.930 . S
C307 C306 1.377 . S
C307 C308 1.379 . S
C308 H292 0.931 . S
C308 C302 1.383 . S
C308 C307 1.379 . S
H309 C303 0.959 . S
H310 C303 0.961 . S
H311 C303 0.960 . S
H312 C304 0.930 . S
H313 C305 0.929 . S
H314 C322 0.929 . S
H315 C324 0.930 . S
H316 C326 0.930 . S
H317 C329 0.929 . S
H318 C332 0.930 . S
H319 C334 0.960 . S
H320 C334 0.960 . S
H321 C334 0.960 . S
C322 H314 0.929 . S
C322 C323 1.377 . S
C322 C324 1.384 . S
C323 C322 1.377 . S
C323 C329 1.390 . S
C324 H315 0.930 . S
C324 C322 1.384 . S
C324 C325 1.372 . S
C325 C324 1.372 . S
C325 C326 1.400 . S
C325 C330 1.490 . S
C326 H316 0.930 . S
C326 C325 1.400 . S
C326 C329 1.386 . S
H327 C343 0.930 . S
H328 C344 0.931 . S
C329 H317 0.929 . S
C329 C323 1.390 . S
C329 C326 1.386 . S
C330 C325 1.490 . S
C330 C332 1.395 . S
C330 C333 1.403 . S
H331 C337 0.930 . S
C332 H318 0.930 . S
C332 C330 1.395 . S
C332 C335 1.403 . S
C333 C330 1.403 . S
C333 C334 1.524 . S
C333 C337 1.400 . S
C334 H319 0.960 . S
C334 H320 0.960 . S
C334 H321 0.960 . S
C334 C333 1.524 . S
C335 C332 1.403 . S
C335 C336 1.392 . S
C335 C339 1.495 . S
C336 C335 1.392 . S
C336 C337 1.385 . S
C336 C338 1.478 . S
C337 H331 0.930 . S
C337 C333 1.400 . S
C337 C336 1.385 . S
C338 C336 1.478 . S
C338 C340 1.381 . S
C338 C344 1.383 . S
C339 C335 1.495 . S
C339 H345 0.959 . S
C339 H346 0.961 . S
C339 H347 0.960 . S
C340 C338 1.381 . S
C340 C341 1.394 . S
C340 H348 0.930 . S
C341 C340 1.394 . S
C341 C342 1.383 . S
C341 H349 0.929 . S
C342 C341 1.383 . S
C342 C343 1.377 . S
C343 H327 0.930 . S
C343 C342 1.377 . S
C343 C344 1.379 . S
C344 H328 0.931 . S
C344 C338 1.383 . S
C344 C343 1.379 . S
H345 C339 0.959 . S
H346 C339 0.961 . S
H347 C339 0.960 . S
H348 C340 0.930 . S
H349 C341 0.929 . S
C71 C0 1.120 . S
C90 C41 1.155 . S
C107 C29 1.804 . S
C126 C33 1.782 . S
C143 C30 1.134 . S
C162 C50 1.143 . S
C179 C1 1.660 . S
C198 C51 1.636 . S
C215 C2 1.801 . S
C234 C60 1.782 . S
C270 C61 1.157 . S
C251 C19 1.120 . S
C287 C20 1.663 . S
C306 C32 1.665 . S
C342 C31 1.090 . S
C323 C10 1.139 . S
