# Generated by pormake.
# Topology ssa, (4,4)-cn, num edge types: 1
# Building blocks:
#     Node 0, Type 0, BuildingBlock: KOZSID_clean_sbu_0, # of connection points: 4
#     Node 1, Type 0, BuildingBlock: KOZSID_clean_sbu_0, # of connection points: 4
#     Node 2, Type 0, BuildingBlock: KOZSID_clean_sbu_0, # of connection points: 4
#     Node 3, Type 0, BuildingBlock: KOZSID_clean_sbu_0, # of connection points: 4
#     Node 4, Type 0, BuildingBlock: KOZSID_clean_sbu_0, # of connection points: 4
#     Node 5, Type 0, BuildingBlock: KOZSID_clean_sbu_0, # of connection points: 4
#     Node 6, Type 1, BuildingBlock: MUDLON_clean_sbu_0, # of connection points: 4
#     Node 7, Type 1, BuildingBlock: MUDLON_clean_sbu_0, # of connection points: 4
#     Node 8, Type 1, BuildingBlock: MUDLON_clean_sbu_0, # of connection points: 4
#     Node 9, Type 1, BuildingBlock: MUDLON_clean_sbu_0, # of connection points: 4
#     Node 10, Type 1, BuildingBlock: MUDLON_clean_sbu_0, # of connection points: 4
#     Node 11, Type 1, BuildingBlock: MUDLON_clean_sbu_0, # of connection points: 4
#     Edge 12, Type (0, 1), BuildingBlock: AJUNOK_clean_linker_0, # of connection points: 2
#     Edge 13, Type (0, 1), BuildingBlock: AJUNOK_clean_linker_0, # of connection points: 2
#     Edge 14, Type (0, 1), BuildingBlock: AJUNOK_clean_linker_0, # of connection points: 2
#     Edge 15, Type (0, 1), BuildingBlock: AJUNOK_clean_linker_0, # of connection points: 2
#     Edge 16, Type (0, 1), BuildingBlock: AJUNOK_clean_linker_0, # of connection points: 2
#     Edge 17, Type (0, 1), BuildingBlock: AJUNOK_clean_linker_0, # of connection points: 2
#     Edge 18, Type (0, 1), BuildingBlock: AJUNOK_clean_linker_0, # of connection points: 2
#     Edge 19, Type (0, 1), BuildingBlock: AJUNOK_clean_linker_0, # of connection points: 2
#     Edge 20, Type (0, 1), BuildingBlock: AJUNOK_clean_linker_0, # of connection points: 2
#     Edge 21, Type (0, 1), BuildingBlock: AJUNOK_clean_linker_0, # of connection points: 2
#     Edge 22, Type (0, 1), BuildingBlock: AJUNOK_clean_linker_0, # of connection points: 2
#     Edge 23, Type (0, 1), BuildingBlock: AJUNOK_clean_linker_0, # of connection points: 2
#     Edge 24, Type (0, 1), BuildingBlock: AJUNOK_clean_linker_0, # of connection points: 2
#     Edge 25, Type (0, 1), BuildingBlock: AJUNOK_clean_linker_0, # of connection points: 2
#     Edge 26, Type (0, 1), BuildingBlock: AJUNOK_clean_linker_0, # of connection points: 2
#     Edge 27, Type (0, 1), BuildingBlock: AJUNOK_clean_linker_0, # of connection points: 2
#     Edge 28, Type (0, 1), BuildingBlock: AJUNOK_clean_linker_0, # of connection points: 2
#     Edge 29, Type (0, 1), BuildingBlock: AJUNOK_clean_linker_0, # of connection points: 2
#     Edge 30, Type (0, 1), BuildingBlock: AJUNOK_clean_linker_0, # of connection points: 2
#     Edge 31, Type (0, 1), BuildingBlock: AJUNOK_clean_linker_0, # of connection points: 2
#     Edge 32, Type (0, 1), BuildingBlock: AJUNOK_clean_linker_0, # of connection points: 2
#     Edge 33, Type (0, 1), BuildingBlock: AJUNOK_clean_linker_0, # of connection points: 2
#     Edge 34, Type (0, 1), BuildingBlock: AJUNOK_clean_linker_0, # of connection points: 2
#     Edge 35, Type (0, 1), BuildingBlock: AJUNOK_clean_linker_0, # of connection points: 2
# Relax obj value: 0.017
# Max RMSD: 0.037
# Mean RMSD: 0.023
data_MOF--net-ssa--node1-KOZSID_clean_sbu_0--node2-MUDLON_clean_sbu_0--edge1-AJUNOK_clean_linker_0
_symmetry_space_group_name_H-M    P1
_symmetry_Int_Tables_number       1
_symmetry_cell_setting            triclinic
loop_
_symmetry_equiv_pos_as_xyz
'x, y, z'
_cell_length_a     36.419559
_cell_length_b     37.875402
_cell_length_c     34.43977
_cell_angle_alpha  86.516125
_cell_angle_beta   90.221885
_cell_angle_gamma 123.83615
loop_
_atom_site_label
_atom_site_type_symbol
_atom_site_fract_x
_atom_site_fract_y
_atom_site_fract_z
_atom_type_partial_charge
C0 C 0.91255 0.50225 0.01766 0.0
C1 C 0.87054 0.48657 0.03284 0.0
C2 C 0.86899 0.47175 0.07062 0.0
C3 C 0.90979 0.47865 0.07645 0.0
N4 N 0.93697 0.49736 0.04476 0.0
Co5 Co 0.99636 0.50734 0.03819 0.0
N6 N 0.98482 0.46515 0.08189 0.0
C7 C 0.95141 0.44849 0.10871 0.0
C8 C 0.9512 0.42015 0.13564 0.0
C9 C 0.98731 0.41965 0.12572 0.0
C10 C 0.00805 0.44823 0.09342 0.0
N11 N 0.05625 0.51847 0.03117 0.0
C12 C 0.07454 0.49857 0.04805 0.0
C13 C 0.11932 0.5207 0.03757 0.0
C14 C 0.12933 0.55553 0.01398 0.0
C15 C 0.09051 0.55318 0.01133 0.0
N16 N 0.00704 0.54873 0.99435 0.0
C17 C 0.04659 0.58044 0.97893 0.0
C18 C 0.04308 0.60269 0.9477 0.0
C19 C 0.99844 0.58336 0.94315 0.0
C20 C 0.97729 0.55025 0.97183 0.0
N21 N 0.02111 0.55295 0.07498 0.0
C22 C 0.06324 0.62112 0.1241 0.0
C23 C 0.03533 0.61959 0.09497 0.0
C24 C 0.01414 0.58499 0.0711 0.0
C25 C 0.06828 0.58716 0.1288 0.0
C26 C 0.04748 0.55391 0.10398 0.0
N27 N 0.97174 0.46221 1.00155 0.0
C28 C 0.97236 0.44121 0.93701 0.0
C29 C 0.92816 0.40646 0.9424 0.0
C30 C 0.90771 0.39823 0.97922 0.0
C31 C 0.93027 0.42602 1.0085 0.0
C32 C 0.99332 0.46893 0.96671 0.0
H33 H 0.91318 0.41924 0.03618 0.0
H34 H 0.02616 0.49699 0.96073 0.0
H35 H 0.9929 0.58463 0.04893 0.0
H36 H 0.05402 0.52964 0.10795 0.0
C37 C 0.91876 0.45721 0.10552 0.0
C38 C 0.92903 0.52129 0.97765 0.0
C39 C 0.05272 0.46293 0.07841 0.0
C40 C 0.08448 0.58151 0.98868 0.0
H41 H 0.84311 0.48423 0.01812 0.0
H42 H 0.84015 0.45439 0.09017 0.0
H43 H 0.92749 0.40181 0.1595 0.0
H44 H 0.99805 0.40147 0.14139 0.0
H45 H 0.1431 0.51381 0.04726 0.0
H46 H 0.16127 0.57991 1.0007 0.0
H47 H 0.06961 0.62806 0.92891 0.0
H48 H 0.98316 0.59198 0.92091 0.0
H49 H 0.03027 0.64511 0.09042 0.0
H50 H 0.0898 0.58711 0.15058 0.0
H51 H 0.98973 0.44848 0.90918 0.0
H52 H 0.87423 0.37082 0.98522 0.0
C53 C 0.55635 0.03815 0.59188 0.0
C54 C 0.55038 0.0161 0.62756 0.0
C55 C 0.51146 0.97724 0.62637 0.0
C56 C 0.49551 0.97767 0.59038 0.0
N57 N 0.52253 0.01415 0.56809 0.0
Co58 Co 0.50942 0.03006 0.51572 0.0
N59 N 0.44717 0.97775 0.51828 0.0
C60 C 0.42752 0.94783 0.54836 0.0
C61 C 0.38545 0.91459 0.54126 0.0
C62 C 0.37803 0.92329 0.50411 0.0
C63 C 0.41619 0.96148 0.49061 0.0
N64 N 0.4966 0.04533 0.4629 0.0
C65 C 0.46157 0.02194 0.43999 0.0
C66 C 0.46759 0.0429 0.40378 0.0
C67 C 0.50831 0.08033 0.40332 0.0
C68 C 0.52478 0.08011 0.43916 0.0
N69 N 0.57094 0.08317 0.51381 0.0
C70 C 0.5904 0.11361 0.48413 0.0
C71 C 0.63128 0.14812 0.49233 0.0
C72 C 0.63772 0.13994 0.53 0.0
C73 C 0.60013 0.10085 0.5427 0.0
N74 N 0.53057 0.99814 0.49018 0.0
C75 C 0.55661 0.9513 0.45081 0.0
C76 C 0.57773 0.99522 0.44262 0.0
C77 C 0.56396 0.01763 0.46206 0.0
C78 C 0.52306 0.93168 0.47992 0.0
C79 C 0.51117 0.95544 0.49935 0.0
N80 N 0.48932 0.06227 0.54162 0.0
C81 C 0.50334 0.1312 0.55272 0.0
C82 C 0.4858 0.11708 0.59079 0.0
C83 C 0.46552 0.07394 0.60211 0.0
C84 C 0.46704 0.04713 0.57702 0.0
C85 C 0.50435 0.10324 0.52857 0.0
H86 H 0.45195 0.0148 0.58769 0.0
H87 H 0.51941 0.11594 0.50019 0.0
H88 H 0.58082 0.05071 0.45355 0.0
H89 H 0.48576 0.93827 0.52137 0.0
C90 C 0.45184 0.94873 0.58023 0.0
C91 C 0.59251 0.08294 0.58299 0.0
C92 C 0.4232 0.97871 0.45018 0.0
C93 C 0.5676 0.11045 0.45035 0.0
H94 H 0.57052 0.02752 0.65279 0.0
H95 H 0.49497 0.95301 0.65015 0.0
H96 H 0.36377 0.88614 0.55997 0.0
H97 H 0.34867 0.90279 0.48818 0.0
H98 H 0.44538 0.03154 0.3798 0.0
H99 H 0.52469 0.10408 0.37918 0.0
H100 H 0.65288 0.17673 0.47378 0.0
H101 H 0.6661 0.1611 0.54673 0.0
H102 H 0.60497 0.01253 0.42142 0.0
H103 H 0.50532 0.89773 0.48748 0.0
H104 H 0.51795 0.16407 0.54221 0.0
H105 H 0.44937 0.06106 0.63061 0.0
C106 C 0.6162 0.60839 0.95462 0.0
C107 C 0.62238 0.63305 0.92069 0.0
C108 C 0.58464 0.63223 0.91642 0.0
C109 C 0.55782 0.60732 0.94794 0.0
N110 N 0.57658 0.59323 0.97268 0.0
Co111 Co 0.54823 0.55398 0.02064 0.0
N112 N 0.49191 0.55134 0.01383 0.0
C113 C 0.48316 0.57073 0.98448 0.0
C114 C 0.44373 0.56685 0.98945 0.0
C115 C 0.42678 0.54476 0.02468 0.0
C116 C 0.4569 0.53621 0.03912 0.0
N117 N 0.51921 0.51397 0.06813 0.0
C118 C 0.48126 0.50173 0.08804 0.0
C119 C 0.47428 0.47543 0.1209 0.0
C120 C 0.50965 0.4719 0.12236 0.0
C121 C 0.53613 0.49604 0.09035 0.0
N122 N 0.60529 0.55835 0.02855 0.0
C123 C 0.61411 0.53948 0.05834 0.0
C124 C 0.65503 0.5461 0.05476 0.0
C125 C 0.67302 0.56987 0.02029 0.0
C126 C 0.64193 0.57643 1.00472 0.0
N127 N 0.56949 0.60299 0.05316 0.0
C128 C 0.58459 0.66402 0.10511 0.0
C129 C 0.59143 0.63212 0.11608 0.0
C130 C 0.58399 0.60233 0.08982 0.0
C131 C 0.57385 0.66713 0.06656 0.0
C132 C 0.5666 0.6365 0.04116 0.0
N133 N 0.52711 0.5044 0.9879 0.0
C134 C 0.53456 0.44842 0.96724 0.0
C135 C 0.50724 0.44077 0.93579 0.0
C136 C 0.48899 0.46507 0.93179 0.0
C137 C 0.49966 0.49668 0.95751 0.0
C138 C 0.54263 0.47876 0.99322 0.0
H139 H 0.48575 0.51481 0.95176 0.0
H140 H 0.5626 0.48137 0.01687 0.0
H141 H 0.58819 0.57788 0.10051 0.0
H142 H 0.55699 0.63955 0.01247 0.0
C143 C 0.51457 0.59569 0.95461 0.0
C144 C 0.64624 0.5957 0.96548 0.0
C145 C 0.4523 0.51615 0.07803 0.0
C146 C 0.58039 0.5097 0.08504 0.0
H147 H 0.65043 0.6482 0.90025 0.0
H148 H 0.57707 0.64681 0.89251 0.0
H149 H 0.43005 0.58038 0.97066 0.0
H150 H 0.39653 0.5373 0.03879 0.0
H151 H 0.44741 0.46182 0.14245 0.0
H152 H 0.51677 0.45618 0.14555 0.0
H153 H 0.66889 0.53277 0.07359 0.0
H154 H 0.70448 0.57936 1.00727 0.0
H155 H 0.59991 0.62851 0.14558 0.0
H156 H 0.56935 0.69209 0.05646 0.0
H157 H 0.55115 0.43216 0.97157 0.0
H158 H 0.46691 0.4603 0.90853 0.0
C159 C 0.95002 0.42857 0.5511 0.0
C160 C 0.90687 0.40075 0.53979 0.0
C161 C 0.90117 0.41984 0.50766 0.0
C162 C 0.94069 0.45835 0.50129 0.0
N163 N 0.97166 0.46496 0.52722 0.0
Co164 Co 0.03201 0.51898 0.53079 0.0
N165 N 0.02263 0.54752 0.48462 0.0
C166 C 0.98534 0.53183 0.46441 0.0
C167 C 0.99042 0.55715 0.43187 0.0
C168 C 0.03398 0.59017 0.43047 0.0
C169 C 0.05295 0.58291 0.46228 0.0
N170 N 0.0923 0.57294 0.53419 0.0
C171 C 0.11619 0.60555 0.50669 0.0
C172 C 0.1591 0.63386 0.51805 0.0
C173 C 0.16263 0.6183 0.55364 0.0
C174 C 0.12204 0.58126 0.56183 0.0
N175 N 0.04168 0.49018 0.57669 0.0
C176 C 0.07838 0.50735 0.59793 0.0
C177 C 0.07568 0.48041 0.6279 0.0
C178 C 0.03451 0.44398 0.62613 0.0
C179 C 0.01416 0.45092 0.59524 0.0
N180 N 0.05811 0.49896 0.49452 0.0
C181 C 0.10314 0.49063 0.43296 0.0
C182 C 0.12364 0.50583 0.4681 0.0
C183 C 0.10029 0.50882 0.49868 0.0
C184 C 0.05894 0.47716 0.43016 0.0
C185 C 0.03716 0.48127 0.46105 0.0
N186 N 0.00606 0.54009 0.56673 0.0
C187 C 0.00723 0.57238 0.62611 0.0
C188 C 0.96581 0.56542 0.61905 0.0
C189 C 0.94578 0.54657 0.58475 0.0
C190 C 0.96636 0.53489 0.55923 0.0
C191 C 0.02629 0.55919 0.60007 0.0
H192 H 0.94896 0.52127 0.53385 0.0
H193 H 0.05735 0.56466 0.60774 0.0
H194 H 0.11742 0.52059 0.525 0.0
H195 H 1.00395 0.47159 0.45655 0.0
C196 C 0.94869 0.49024 0.47297 0.0
C197 C 0.96816 0.41974 0.5857 0.0
C198 C 0.10053 0.60808 0.46813 0.0
C199 C 0.11405 0.54951 0.59014 0.0
H200 H 0.88149 0.37026 0.55382 0.0
H201 H 0.87121 0.40773 0.4917 0.0
H202 H 0.96621 0.55076 0.41021 0.0
H203 H 0.05052 0.61543 0.40755 0.0
H204 H 0.18602 0.66136 0.50143 0.0
H205 H 0.19244 0.63044 0.56985 0.0
H206 H 0.10039 0.4868 0.64903 0.0
H207 H 0.02072 0.41577 0.64583 0.0
H208 H 0.15744 0.51537 0.47192 0.0
H209 H 0.0415 0.46457 0.40366 0.0
H210 H 0.02519 0.58808 0.65147 0.0
H211 H 0.91362 0.53999 0.57765 0.0
C212 C 0.4625 0.97888 0.08747 0.0
C213 C 0.46183 0.9977 0.12058 0.0
C214 C 0.49781 0.0388 0.11717 0.0
C215 C 0.51844 0.04261 0.08248 0.0
N216 N 0.49699 0.00694 0.06278 0.0
Co217 Co 0.51913 0.99601 0.01463 0.0
N218 N 0.57702 0.05307 0.01387 0.0
C219 C 0.58844 0.08379 0.03861 0.0
C220 C 0.62793 0.12134 0.02875 0.0
C221 C 0.64237 0.11465 0.99529 0.0
C222 C 0.611 0.07294 0.98676 0.0
N223 N 0.54186 0.98432 0.96736 0.0
C224 C 0.58002 0.00977 0.9456 0.0
C225 C 0.58225 0.98887 0.9149 0.0
C226 C 0.54367 0.94938 0.91656 0.0
C227 C 0.52027 0.94818 0.94827 0.0
N228 N 0.46096 0.93952 0.0148 0.0
C229 C 0.44689 0.91078 0.98759 0.0
C230 C 0.40689 0.8735 0.9974 0.0
C231 C 0.39548 0.87831 0.03352 0.0
C232 C 0.42937 0.91831 0.04367 0.0
N233 N 0.49488 0.02248 0.98061 0.0
C234 C 0.46977 0.06557 0.92896 0.0
C235 C 0.46631 0.02878 0.91877 0.0
C236 C 0.47841 0.0076 0.94499 0.0
C237 C 0.48346 0.0791 0.96612 0.0
C238 C 0.49586 0.05734 0.99125 0.0
N239 N 0.54213 0.96919 0.04914 0.0
C240 C 0.52675 0.9021 0.07733 0.0
C241 C 0.54211 0.91952 0.1132 0.0
C242 C 0.56289 0.96352 0.11472 0.0
C243 C 0.56337 0.98783 0.0822 0.0
C244 C 0.52802 0.92765 0.04558 0.0
H245 H 0.57822 0.02102 0.08527 0.0
H246 H 0.51416 0.91234 0.01937 0.0
H247 H 0.47524 0.97997 0.93522 0.0
H248 H 0.50734 0.07027 0.01862 0.0
C249 C 0.56042 0.07718 0.06982 0.0
C250 C 0.43237 0.93345 0.08222 0.0
C251 C 0.61392 0.05447 0.95155 0.0
C252 C 0.4761 0.91586 0.95809 0.0
H253 H 0.43905 0.98277 0.14553 0.0
H254 H 0.50913 0.06223 0.1386 0.0
H255 H 0.64361 0.15063 0.04341 0.0
H256 H 0.67206 0.13841 0.97857 0.0
H257 H 0.60846 1.00138 0.89283 0.0
H258 H 0.53316 0.92511 0.89612 0.0
H259 H 0.38989 0.8449 0.98169 0.0
H260 H 0.36685 0.85429 0.05134 0.0
H261 H 0.45559 0.01715 0.89018 0.0
H262 H 0.48681 0.10768 0.97505 0.0
H263 H 0.51096 0.86835 0.07433 0.0
H264 H 0.57704 0.97882 0.14138 0.0
C265 C 0.51036 0.57608 0.50222 0.0
C266 C 0.50684 0.60817 0.51501 0.0
C267 C 0.48315 0.59274 0.54953 0.0
C268 C 0.47386 0.55242 0.55593 0.0
N269 N 0.49114 0.54154 0.52807 0.0
Co270 Co 0.48433 0.48548 0.52513 0.0
N271 N 0.44202 0.45997 0.57127 0.0
C272 C 0.42616 0.47867 0.59122 0.0
C273 C 0.39752 0.45307 0.62158 0.0
C274 C 0.39575 0.41611 0.62151 0.0
C275 C 0.42376 0.42157 0.59115 0.0
N276 N 0.47835 0.42962 0.52308 0.0
C277 C 0.45934 0.39546 0.54954 0.0
C278 C 0.4668 0.36506 0.53922 0.0
C279 C 0.49193 0.3808 0.50541 0.0
C280 C 0.49864 0.41988 0.49713 0.0
N281 N 0.52536 0.51083 0.47792 0.0
C282 C 0.53942 0.49135 0.45669 0.0
C283 C 0.5631 0.51481 0.42338 0.0
C284 C 0.56314 0.55093 0.42268 0.0
C285 C 0.53964 0.54756 0.45588 0.0
N286 N 0.53511 0.50411 0.56044 0.0
C287 C 0.59635 0.51165 0.61626 0.0
C288 C 0.59786 0.50105 0.57841 0.0
C289 C 0.56784 0.49819 0.55116 0.0
C290 C 0.56662 0.52295 0.62432 0.0
C291 C 0.53615 0.51852 0.59635 0.0
N292 N 0.43373 0.4662 0.48985 0.0
C293 C 0.39622 0.43221 0.43154 0.0
C294 C 0.36674 0.44443 0.43551 0.0
C295 C 0.37083 0.46706 0.4678 0.0
C296 C 0.40409 0.4773 0.49449 0.0
C297 C 0.42892 0.44313 0.45875 0.0
H298 H 0.40577 0.49493 0.51829 0.0
H299 H 0.45032 0.43301 0.45353 0.0
H300 H 0.57091 0.48966 0.52311 0.0
H301 H 0.51258 0.5252 0.60495 0.0
C302 C 0.44302 0.52182 0.58378 0.0
C303 C 0.52916 0.57856 0.46407 0.0
C304 C 0.43697 0.39221 0.58606 0.0
C305 C 0.52626 0.44943 0.46691 0.0
H306 H 0.51842 0.63876 0.50003 0.0
H307 H 0.47164 0.60805 0.56659 0.0
H308 H 0.38179 0.46117 0.64259 0.0
H309 H 0.37807 0.38916 0.64274 0.0
H310 H 0.45644 0.33521 0.55503 0.0
H311 H 0.50529 0.36625 0.48964 0.0
H312 H 0.57677 0.50577 0.40122 0.0
H313 H 0.57739 0.57608 0.39957 0.0
H314 H 0.62176 0.49418 0.56993 0.0
H315 H 0.56491 0.53256 0.65288 0.0
H316 H 0.39424 0.41432 0.40732 0.0
H317 H 0.34928 0.4779 0.47197 0.0
Mg318 Mg 0.24115 0.47052 0.23916 0.0
C319 C 0.1841 0.45029 0.16431 0.0
O320 O 0.22228 0.46949 0.14509 0.0
C321 C 0.24357 0.42399 0.31522 0.0
O322 O 0.20984 0.4253 0.32582 0.0
C323 C 0.18401 0.47948 0.29199 0.0
O324 O 0.15754 0.44783 0.27068 0.0
O325 O 0.22539 0.50159 0.28289 0.0
O326 O 0.18276 0.44334 0.20122 0.0
O327 O 0.30185 0.50291 0.20085 0.0
C328 C 0.30499 0.47649 0.18209 0.0
O329 O 0.27253 0.43599 0.18644 0.0
O330 O 0.25693 0.43338 0.27955 0.0
Mg331 Mg 0.7762 0.23616 0.76068 0.0
C332 C 0.71475 0.17892 0.70543 0.0
O333 O 0.73738 0.16385 0.71953 0.0
C334 C 0.83624 0.29828 0.81392 0.0
O335 O 0.85546 0.28101 0.79925 0.0
C336 C 0.75211 0.17631 0.83726 0.0
O337 O 0.78449 0.21067 0.8523 0.0
O338 O 0.74604 0.17743 0.80075 0.0
O339 O 0.72281 0.21348 0.7183 0.0
O340 O 0.83743 0.26846 0.7226 0.0
C341 C 0.83799 0.27066 0.68541 0.0
O342 O 0.80109 0.24607 0.66757 0.0
O343 O 0.79782 0.28626 0.80211 0.0
Mg344 Mg 0.55781 0.77901 0.301 0.0
C345 C 0.51441 0.81838 0.25836 0.0
O346 O 0.52417 0.84004 0.28938 0.0
C347 C 0.56439 0.71918 0.35421 0.0
O348 O 0.60504 0.74865 0.34186 0.0
C349 C 0.57713 0.83275 0.36886 0.0
O350 O 0.55473 0.79424 0.38629 0.0
O351 O 0.58815 0.837 0.33294 0.0
O352 O 0.51508 0.78509 0.26016 0.0
O353 O 0.5937 0.77055 0.25588 0.0
C354 C 0.5641 0.73831 0.23851 0.0
O355 O 0.52335 0.71648 0.25308 0.0
O356 O 0.53334 0.72252 0.34167 0.0
Mg357 Mg 0.79007 0.55627 0.79441 0.0
C358 C 0.71599 0.50801 0.72964 0.0
O359 O 0.73058 0.48367 0.72478 0.0
C360 C 0.82662 0.51168 0.84156 0.0
O361 O 0.84495 0.51588 0.80742 0.0
C362 C 0.73951 0.56781 0.84692 0.0
O363 O 0.7187 0.52775 0.83867 0.0
O364 O 0.77795 0.59425 0.83128 0.0
O365 O 0.73336 0.53542 0.75519 0.0
O366 O 0.8513 0.58259 0.75834 0.0
C367 C 0.85196 0.58599 0.72125 0.0
O368 O 0.81721 0.58084 0.70402 0.0
O369 O 0.79667 0.51928 0.84325 0.0
Mg370 Mg 0.25356 0.79315 0.28363 0.0
C371 C 0.19171 0.76019 0.21498 0.0
O372 O 0.23043 0.78332 0.19665 0.0
C373 C 0.31883 0.85659 0.33326 0.0
O374 O 0.33347 0.83445 0.32047 0.0
C375 C 0.20796 0.70587 0.32863 0.0
O376 O 0.18521 0.69263 0.29698 0.0
O377 O 0.24251 0.7437 0.32794 0.0
O378 O 0.19008 0.76115 0.25202 0.0
O379 O 0.30404 0.82349 0.23614 0.0
C380 C 0.33279 0.82001 0.21935 0.0
O381 O 0.33942 0.79083 0.23268 0.0
O382 O 0.28088 0.84697 0.32211 0.0
Mg383 Mg 0.46019 0.24815 0.7749 0.0
C384 C 0.47092 0.21562 0.70388 0.0
O385 O 0.42983 0.20475 0.70471 0.0
C386 C 0.47269 0.32021 0.81928 0.0
O387 O 0.43706 0.30912 0.80003 0.0
C388 C 0.46763 0.189 0.82228 0.0
O389 O 0.5071 0.22091 0.80952 0.0
O390 O 0.4344 0.19037 0.81326 0.0
O391 O 0.49615 0.23728 0.73094 0.0
O392 O 0.42351 0.26427 0.73567 0.0
C393 C 0.45322 0.29886 0.717 0.0
O394 O 0.49482 0.31565 0.72531 0.0
O395 O 0.49205 0.30111 0.81412 0.0
C396 C 0.09053 0.46428 0.14067 0.0
C397 C 0.08108 0.45267 0.10195 0.0
C398 C 0.12154 0.46038 0.16163 0.0
C399 C 0.1455 0.446 0.14434 0.0
H400 H 0.07508 0.47808 0.15441 0.0
H401 H 0.12873 0.47119 0.1908 0.0
S402 S 0.13141 0.40922 0.04467 0.0
N403 N 0.09591 0.4231 0.04834 0.0
N404 N 0.15604 0.41823 0.08676 0.0
C405 C 0.13552 0.43321 0.10608 0.0
C406 C 0.10291 0.4359 0.08519 0.0
C407 C 0.65047 0.09684 0.63106 0.0
C408 C 0.62369 0.10883 0.61382 0.0
C409 C 0.67911 0.11964 0.6606 0.0
C410 C 0.68316 0.1562 0.6739 0.0
H411 H 0.64902 0.06928 0.62178 0.0
H412 H 0.69843 0.1083 0.67295 0.0
S413 S 0.62352 0.20364 0.6349 0.0
N414 N 0.60466 0.16102 0.61015 0.0
N415 N 0.6594 0.20473 0.66519 0.0
C416 C 0.65753 0.16944 0.65591 0.0
C417 C 0.62781 0.14572 0.62593 0.0
C418 C 0.61644 0.70875 0.16276 0.0
C419 C 0.5831 0.68979 0.13522 0.0
C420 C 0.61168 0.727 0.19518 0.0
C421 C 0.57294 0.72587 0.20154 0.0
H422 H 0.64577 0.7083 0.15982 0.0
H423 H 0.63731 0.73993 0.21638 0.0
S424 S 0.47752 0.68311 0.13666 0.0
N425 N 0.51156 0.67387 0.11531 0.0
N426 N 0.50213 0.70696 0.1763 0.0
C427 C 0.5403 0.70861 0.17339 0.0
C428 C 0.54553 0.69094 0.14017 0.0
C429 C 0.91754 0.59222 0.63226 0.0
C430 C 0.94258 0.57662 0.64682 0.0
C431 C 0.89033 0.59732 0.65681 0.0
C432 C 0.88737 0.58791 0.69731 0.0
H433 H 0.91793 0.59952 0.60131 0.0
H434 H 0.87042 0.60761 0.64366 0.0
S435 S 0.94933 0.55022 0.75124 0.0
N436 N 0.9641 0.55386 0.70516 0.0
N437 N 0.91524 0.56598 0.75131 0.0
C438 C 0.91459 0.57522 0.71271 0.0
C439 C 0.94161 0.56903 0.68754 0.0
C440 C 0.41772 0.87739 0.13454 0.0
C441 C 0.40531 0.90307 0.11588 0.0
C442 C 0.39415 0.85046 0.16784 0.0
C443 C 0.35719 0.84824 0.18363 0.0
H444 H 0.44615 0.87851 0.12354 0.0
H445 H 0.40534 0.83169 0.18149 0.0
S446 S 0.3097 0.90732 0.14286 0.0
N447 N 0.35274 0.92307 0.11363 0.0
N448 N 0.30841 0.87328 0.17606 0.0
C449 C 0.34401 0.87331 0.16431 0.0
C450 C 0.36796 0.9004 0.13043 0.0
C451 C 0.41196 0.32268 0.62421 0.0
C452 C 0.4379 0.36756 0.62109 0.0
C453 C 0.4146 0.29981 0.65671 0.0
C454 C 0.4432 0.32135 0.68687 0.0
H455 H 0.39025 0.30526 0.60108 0.0
H456 H 0.3958 0.26536 0.65738 0.0
S457 S 0.51323 0.43809 0.69495 0.0
N458 N 0.48961 0.43215 0.65267 0.0
N459 N 0.49451 0.38949 0.71337 0.0
C460 C 0.46736 0.36599 0.6849 0.0
C461 C 0.46467 0.38904 0.65212 0.0
C462 C 0.56881 0.89214 0.44952 0.0
C463 C 0.56861 0.92556 0.42938 0.0
C464 C 0.5744 0.864 0.42983 0.0
C465 C 0.58081 0.86828 0.38909 0.0
H466 H 0.56344 0.88688 0.48083 0.0
H467 H 0.57222 0.83775 0.44669 0.0
S468 S 0.58736 0.95271 0.3226 0.0
N469 N 0.57757 0.9624 0.36611 0.0
N470 N 0.59074 0.91112 0.32956 0.0
C471 C 0.5839 0.90332 0.36877 0.0
C472 C 0.57716 0.93151 0.38876 0.0
C473 C 0.71763 0.61482 0.93179 0.0
C474 C 0.67102 0.59107 0.93388 0.0
C475 C 0.74042 0.60917 0.90232 0.0
C476 C 0.71717 0.57969 0.87408 0.0
H477 H 0.73647 0.63739 0.95334 0.0
H478 H 0.77615 0.62672 0.90254 0.0
S479 S 0.59548 0.5141 0.8641 0.0
N480 N 0.60296 0.53973 0.90349 0.0
N481 N 0.64531 0.52979 0.84803 0.0
C482 C 0.67076 0.5575 0.87495 0.0
C483 C 0.6478 0.56303 0.90483 0.0
C484 C 0.13438 0.61345 0.40278 0.0
C485 C 0.13202 0.63394 0.4345 0.0
C486 C 0.16076 0.63693 0.36924 0.0
C487 C 0.18645 0.68181 0.36649 0.0
H488 H 0.11476 0.57896 0.40353 0.0
H489 H 0.16032 0.61984 0.34493 0.0
S490 S 0.19025 0.75052 0.44105 0.0
N491 N 0.15589 0.70147 0.46037 0.0
N492 N 0.20715 0.74569 0.39846 0.0
C493 C 0.18505 0.70261 0.39848 0.0
C494 C 0.15735 0.67867 0.43214 0.0
C495 C 0.43411 0.10338 0.90449 0.0
C496 C 0.46531 0.09298 0.89942 0.0
C497 C 0.43299 0.13272 0.87813 0.0
C498 C 0.46385 0.15333 0.84659 0.0
H499 H 0.41103 0.08932 0.92932 0.0
H500 H 0.4093 0.14077 0.8835 0.0
S501 S 0.5517 0.13641 0.82071 0.0
N502 N 0.5267 0.10453 0.86019 0.0
N503 N 0.52556 0.16008 0.8114 0.0
C504 C 0.49451 0.14235 0.84099 0.0
C505 C 0.49504 0.1121 0.86724 0.0
C506 C 0.3461 0.44295 0.36537 0.0
C507 C 0.33338 0.43507 0.40522 0.0
C508 C 0.31622 0.4369 0.33632 0.0
C509 C 0.27221 0.42269 0.34578 0.0
H510 H 0.37994 0.45536 0.35653 0.0
H511 H 0.32839 0.44518 0.30629 0.0
S512 S 0.22065 0.39218 0.44559 0.0
N513 N 0.27254 0.40834 0.45234 0.0
N514 N 0.21652 0.39727 0.39811 0.0
C515 C 0.25851 0.41272 0.38548 0.0
C516 C 0.289 0.41894 0.41504 0.0
C517 C 0.92324 0.36416 0.88704 0.0
C518 C 0.90365 0.37945 0.90961 0.0
C519 C 0.90125 0.33882 0.85604 0.0
C520 C 0.85861 0.32766 0.8458 0.0
H521 H 0.9557 0.37129 0.89375 0.0
H522 H 0.91804 0.32761 0.84017 0.0
S523 S 0.79438 0.36305 0.89361 0.0
N524 N 0.84017 0.38399 0.91826 0.0
N525 N 0.79874 0.33624 0.85987 0.0
C526 C 0.83899 0.34368 0.86754 0.0
C527 C 0.86143 0.36942 0.89946 0.0
C528 C 0.86803 0.52533 0.9456 0.0
C529 C 0.89925 0.51446 0.94428 0.0
C530 C 0.84251 0.5217 0.9132 0.0
C531 C 0.84783 0.50801 0.87768 0.0
H532 H 0.86459 0.53859 0.97121 0.0
H533 H 0.82005 0.53178 0.91547 0.0
S534 S 0.92638 0.47721 0.85852 0.0
N535 N 0.93437 0.49017 0.90412 0.0
N536 N 0.88703 0.48335 0.84365 0.0
C537 C 0.87871 0.49673 0.8762 0.0
C538 C 0.90438 0.50023 0.90918 0.0
C539 C 0.35315 0.93643 0.41198 0.0
C540 C 0.39713 0.94966 0.41874 0.0
C541 C 0.32815 0.90732 0.38364 0.0
C542 C 0.3462 0.89024 0.3611 0.0
H543 H 0.3378 0.94821 0.42913 0.0
H544 H 0.2942 0.89741 0.38005 0.0
S545 S 0.46118 0.91688 0.36688 0.0
N546 N 0.45808 0.94483 0.40008 0.0
N547 N 0.41232 0.89099 0.347 0.0
C548 C 0.39075 0.90437 0.36723 0.0
C549 C 0.41587 0.93382 0.39592 0.0
C550 C 0.495 0.41768 0.86685 0.0
C551 C 0.49959 0.40943 0.90651 0.0
C552 C 0.48833 0.38953 0.83869 0.0
C553 C 0.48674 0.35216 0.84856 0.0
H554 H 0.49669 0.44628 0.85716 0.0
H555 H 0.48392 0.39691 0.80883 0.0
S556 S 0.49251 0.31247 0.94778 0.0
N557 N 0.49815 0.35811 0.95406 0.0
N558 N 0.48805 0.30686 0.9005 0.0
C559 C 0.49139 0.34322 0.88769 0.0
C560 C 0.49715 0.37135 0.91675 0.0
C561 C 0.16545 0.52362 0.38187 0.0
C562 C 0.12659 0.48742 0.39939 0.0
C563 C 0.18489 0.52117 0.34755 0.0
C564 C 0.16588 0.4825 0.32957 0.0
H565 H 0.18005 0.55422 0.39406 0.0
H566 H 0.2141 0.54987 0.33446 0.0
S567 S 0.06766 0.37758 0.36748 0.0
N568 N 0.07261 0.41137 0.39851 0.0
N569 N 0.10834 0.40636 0.33471 0.0
C570 C 0.12812 0.44586 0.34809 0.0
C571 C 0.10869 0.44842 0.38276 0.0
C572 C 0.63913 0.09147 0.88409 0.0
C573 C 0.64974 0.08178 0.92085 0.0
C574 C 0.67241 0.11993 0.85609 0.0
C575 C 0.71765 0.14034 0.864 0.0
H576 H 0.60485 0.07795 0.87741 0.0
H577 H 0.6626 0.12766 0.82886 0.0
S578 S 0.76262 0.1222 0.95426 0.0
N579 N 0.70844 0.09146 0.96206 0.0
N580 N 0.77089 0.14623 0.91042 0.0
C581 C 0.7285 0.12951 0.90007 0.0
C582 C 0.69464 0.0999 0.92818 0.0
C583 C 0.50406 0.61352 0.41653 0.0
C584 C 0.53883 0.61362 0.43464 0.0
C585 C 0.51238 0.64766 0.39064 0.0
C586 C 0.55582 0.68323 0.38197 0.0
H587 H 0.47018 0.58694 0.42269 0.0
H588 H 0.48456 0.6461 0.37733 0.0
S589 S 0.65804 0.6992 0.42387 0.0
N590 N 0.61772 0.65238 0.44359 0.0
N591 N 0.63396 0.71629 0.39498 0.0
C592 C 0.59079 0.68352 0.40031 0.0
C593 C 0.58215 0.64884 0.42665 0.0
C594 C 0.47238 0.17241 0.60837 0.0
C595 C 0.48814 0.14677 0.61862 0.0
C596 C 0.4698 0.19705 0.6357 0.0
C597 C 0.48409 0.19797 0.67391 0.0
H598 H 0.45984 0.17174 0.57965 0.0
H599 H 0.45494 0.21431 0.62729 0.0
S600 S 0.53184 0.13964 0.71419 0.0
N601 N 0.52055 0.12562 0.66899 0.0
N602 N 0.5171 0.17319 0.71983 0.0
C603 C 0.50242 0.17457 0.68382 0.0
C604 C 0.50399 0.14858 0.65632 0.0
C605 C 0.37209 0.47261 0.09982 0.0
C606 C 0.4156 0.50686 0.10545 0.0
C607 C 0.33682 0.46393 0.12434 0.0
C608 C 0.34339 0.48935 0.15538 0.0
H609 H 0.3653 0.45238 0.0762 0.0
H610 H 0.30396 0.43692 0.11882 0.0
S611 S 0.4518 0.58183 0.18338 0.0
N612 N 0.46391 0.56574 0.14481 0.0
N613 N 0.39761 0.54971 0.19085 0.0
C614 C 0.38692 0.52383 0.16127 0.0
C615 C 0.42299 0.5324 0.13641 0.0
C616 C 0.92868 0.38465 0.6508 0.0
C617 C 0.93897 0.38067 0.61259 0.0
C618 C 0.89838 0.34859 0.67536 0.0
C619 C 0.8765 0.30716 0.66238 0.0
H620 H 0.94316 0.416 0.66135 0.0
H621 H 0.89018 0.3534 0.7039 0.0
S622 S 0.89529 0.27919 0.56643 0.0
N623 N 0.92837 0.33172 0.56458 0.0
N624 N 0.8697 0.26428 0.6097 0.0
C625 C 0.88784 0.30272 0.62482 0.0
C626 C 0.91952 0.33932 0.60025 0.0
C627 C 0.51662 0.89743 0.18337 0.0
C628 C 0.53358 0.89178 0.14932 0.0
C629 C 0.50829 0.872 0.2179 0.0
C630 C 0.51628 0.83962 0.21986 0.0
H631 H 0.50969 0.92178 0.18338 0.0
H632 H 0.49629 0.87837 0.24352 0.0
S633 S 0.56189 0.81261 0.13905 0.0
N634 N 0.55875 0.85182 0.11991 0.0
N635 N 0.54274 0.80375 0.18443 0.0
C636 C 0.53245 0.83307 0.18574 0.0
C637 C 0.54119 0.85919 0.15064 0.0
C638 C 0.65018 0.54303 0.67095 0.0
C639 C 0.62455 0.50925 0.64694 0.0
C640 C 0.67866 0.5419 0.69822 0.0
C641 C 0.68276 0.50691 0.70277 0.0
H642 H 0.64916 0.5711 0.66793 0.0
H643 H 0.69849 0.56927 0.71515 0.0
S644 S 0.61756 0.40742 0.65124 0.0
N645 N 0.60147 0.43774 0.63276 0.0
N646 N 0.65496 0.43579 0.68325 0.0
C647 C 0.65578 0.47217 0.68009 0.0
C648 C 0.62678 0.47329 0.65247 0.0
C649 C 0.08992 0.65384 0.18865 0.0
C650 C 0.09012 0.65895 0.14768 0.0
C651 C 0.12044 0.68776 0.21087 0.0
C652 C 0.15304 0.72792 0.19291 0.0
H653 H 0.06699 0.6229 0.20351 0.0
H654 H 0.1202 0.68161 0.24202 0.0
S655 S 0.16607 0.75852 0.08676 0.0
N656 N 0.12411 0.70804 0.09047 0.0
N657 N 0.18152 0.77132 0.13169 0.0
C658 C 0.15212 0.73386 0.15214 0.0
C659 C 0.12073 0.69957 0.12969 0.0
loop_
_geom_bond_atom_site_label_1
_geom_bond_atom_site_label_2
_geom_bond_distance
_geom_bond_site_symmetry_2
_ccdc_geom_bond_type
C0 C1 1.443 . S
C0 N4 1.376 1_556 S
C0 C38 1.389 . S
C1 C0 1.443 . S
C1 C2 1.340 1_556 S
C1 H41 0.951 . S
C2 C1 1.340 1_554 S
C2 C3 1.439 . S
C2 H42 0.950 . S
C3 C2 1.439 . S
C3 N4 1.374 . S
C3 C37 1.395 . S
N4 C0 1.376 1_554 S
N4 C3 1.374 . S
N4 Co5 2.008 1_655 S
Co5 N4 2.008 1_455 S
Co5 N6 1.995 1_455 S
Co5 N11 2.008 . S
Co5 N16 1.995 1_554 S
Co5 N21 2.282 . S
Co5 N27 2.282 1_454 S
N6 Co5 1.995 1_655 S
N6 C7 1.376 . S
N6 C10 1.383 1_655 S
C7 N6 1.376 . S
C7 C8 1.446 . S
C7 C37 1.391 . S
C8 C7 1.446 . S
C8 C9 1.339 . S
C8 H43 0.949 . S
C9 C8 1.339 . S
C9 C10 1.439 1_655 S
C9 H44 0.950 1_655 S
C10 N6 1.383 1_455 S
C10 C9 1.439 1_455 S
C10 C39 1.392 . S
N11 Co5 2.008 . S
N11 C12 1.376 . S
N11 C15 1.374 1_554 S
C12 N11 1.376 . S
C12 C13 1.443 . S
C12 C39 1.389 . S
C13 C12 1.443 . S
C13 C14 1.340 . S
C13 H45 0.951 . S
C14 C13 1.340 . S
C14 C15 1.439 1_554 S
C14 H46 0.950 1_554 S
C15 N11 1.374 1_556 S
C15 C14 1.439 1_556 S
C15 C40 1.395 . S
N16 Co5 1.995 1_556 S
N16 C17 1.376 . S
N16 C20 1.383 . S
C17 N16 1.376 . S
C17 C18 1.446 . S
C17 C40 1.391 . S
C18 C17 1.446 . S
C18 C19 1.339 . S
C18 H47 0.949 . S
C19 C18 1.339 . S
C19 C20 1.439 . S
C19 H48 0.950 . S
C20 N16 1.383 . S
C20 C19 1.439 . S
C20 C38 1.392 1_455 S
N21 Co5 2.282 . S
N21 C24 1.332 . S
N21 C26 1.332 . S
C22 C23 1.386 . S
C22 C25 1.388 . S
C23 C22 1.386 . S
C23 C24 1.382 . S
C23 H49 0.950 . S
C24 N21 1.332 . S
C24 C23 1.382 . S
C24 H35 0.952 . S
C25 C22 1.388 . S
C25 C26 1.382 . S
C25 H50 0.950 . S
C26 N21 1.332 . S
C26 C25 1.382 . S
C26 H36 0.948 . S
N27 Co5 2.282 1_656 S
N27 C31 1.332 . S
N27 C32 1.323 1_655 S
C28 C29 1.388 . S
C28 C32 1.378 1_655 S
C28 H51 0.950 . S
C29 C28 1.388 . S
C29 C30 1.386 . S
C30 C29 1.386 . S
C30 C31 1.382 . S
C30 H52 0.950 . S
C31 N27 1.332 . S
C31 C30 1.382 . S
C31 H33 0.952 1_556 S
C32 N27 1.323 1_455 S
C32 C28 1.378 1_455 S
C32 H34 0.963 . S
H33 C31 0.952 1_554 S
H34 C32 0.963 . S
H35 C24 0.952 . S
H36 C26 0.948 . S
C37 C3 1.395 . S
C37 C7 1.391 . S
C38 C0 1.389 . S
C38 C20 1.392 1_655 S
C39 C10 1.392 . S
C39 C12 1.389 . S
C40 C15 1.395 . S
C40 C17 1.391 . S
H41 C1 0.951 . S
H42 C2 0.950 . S
H43 C8 0.949 . S
H44 C9 0.950 1_455 S
H45 C13 0.951 . S
H46 C14 0.950 1_556 S
H47 C18 0.949 . S
H48 C19 0.950 . S
H49 C23 0.950 . S
H50 C25 0.950 . S
H51 C28 0.950 . S
H52 C30 0.950 . S
C53 C54 1.443 . S
C53 N57 1.376 . S
C53 C91 1.389 . S
C54 C53 1.443 . S
C54 C55 1.340 1_545 S
C54 H94 0.951 . S
C55 C54 1.340 1_565 S
C55 C56 1.439 . S
C55 H95 0.950 . S
C56 C55 1.439 . S
C56 N57 1.374 1_565 S
C56 C90 1.395 . S
N57 C53 1.376 . S
N57 C56 1.374 1_545 S
N57 Co58 2.008 . S
Co58 N57 2.008 . S
Co58 N59 1.995 1_545 S
Co58 N64 2.008 . S
Co58 N69 1.995 . S
Co58 N74 2.282 1_545 S
Co58 N80 2.282 . S
N59 Co58 1.995 1_565 S
N59 C60 1.376 . S
N59 C63 1.383 . S
C60 N59 1.376 . S
C60 C61 1.446 . S
C60 C90 1.391 . S
C61 C60 1.446 . S
C61 C62 1.339 . S
C61 H96 0.949 . S
C62 C61 1.339 . S
C62 C63 1.439 . S
C62 H97 0.950 . S
C63 N59 1.383 . S
C63 C62 1.439 . S
C63 C92 1.392 . S
N64 Co58 2.008 . S
N64 C65 1.376 . S
N64 C68 1.374 . S
C65 N64 1.376 . S
C65 C66 1.443 . S
C65 C92 1.389 1_545 S
C66 C65 1.443 . S
C66 C67 1.340 . S
C66 H98 0.951 . S
C67 C66 1.340 . S
C67 C68 1.439 . S
C67 H99 0.950 . S
C68 N64 1.374 . S
C68 C67 1.439 . S
C68 C93 1.395 . S
N69 Co58 1.995 . S
N69 C70 1.376 . S
N69 C73 1.383 . S
C70 N69 1.376 . S
C70 C71 1.446 . S
C70 C93 1.391 . S
C71 C70 1.446 . S
C71 C72 1.339 . S
C71 H100 0.949 . S
C72 C71 1.339 . S
C72 C73 1.439 . S
C72 H101 0.950 . S
C73 N69 1.383 . S
C73 C72 1.439 . S
C73 C91 1.392 . S
N74 Co58 2.282 1_565 S
N74 C77 1.332 1_565 S
N74 C79 1.332 . S
C75 C76 1.386 . S
C75 C78 1.388 . S
C76 C75 1.386 . S
C76 C77 1.382 1_565 S
C76 H102 0.950 1_565 S
C77 N74 1.332 1_545 S
C77 C76 1.382 1_545 S
C77 H88 0.952 . S
C78 C75 1.388 . S
C78 C79 1.382 . S
C78 H103 0.950 . S
C79 N74 1.332 . S
C79 C78 1.382 . S
C79 H89 0.948 . S
N80 Co58 2.282 . S
N80 C84 1.332 . S
N80 C85 1.332 . S
C81 C82 1.388 . S
C81 C85 1.382 . S
C81 H104 0.950 . S
C82 C81 1.388 . S
C82 C83 1.386 . S
C83 C82 1.386 . S
C83 C84 1.382 . S
C83 H105 0.950 . S
C84 N80 1.332 . S
C84 C83 1.382 . S
C84 H86 0.952 1_545 S
C85 N80 1.332 . S
C85 C81 1.382 . S
C85 H87 0.948 . S
H86 C84 0.952 1_565 S
H87 C85 0.948 . S
H88 C77 0.952 . S
H89 C79 0.948 . S
C90 C56 1.395 . S
C90 C60 1.391 . S
C91 C53 1.389 . S
C91 C73 1.392 . S
C92 C63 1.392 . S
C92 C65 1.389 1_565 S
C93 C68 1.395 . S
C93 C70 1.391 . S
H94 C54 0.951 . S
H95 C55 0.950 . S
H96 C61 0.949 . S
H97 C62 0.950 . S
H98 C66 0.951 . S
H99 C67 0.950 . S
H100 C71 0.949 . S
H101 C72 0.950 . S
H102 C76 0.950 1_545 S
H103 C78 0.950 . S
H104 C81 0.950 . S
H105 C83 0.950 . S
C106 C107 1.443 . S
C106 N110 1.376 . S
C106 C144 1.389 . S
C107 C106 1.443 . S
C107 C108 1.340 . S
C107 H147 0.951 . S
C108 C107 1.340 . S
C108 C109 1.439 . S
C108 H148 0.950 . S
C109 C108 1.439 . S
C109 N110 1.374 . S
C109 C143 1.395 . S
N110 C106 1.376 . S
N110 C109 1.374 . S
N110 Co111 2.008 1_556 S
Co111 N110 2.008 1_554 S
Co111 N112 1.995 . S
Co111 N117 2.008 . S
Co111 N122 1.995 . S
Co111 N127 2.282 . S
Co111 N133 2.282 1_554 S
N112 Co111 1.995 . S
N112 C113 1.376 1_554 S
N112 C116 1.383 . S
C113 N112 1.376 1_556 S
C113 C114 1.446 . S
C113 C143 1.391 . S
C114 C113 1.446 . S
C114 C115 1.339 1_556 S
C114 H149 0.949 . S
C115 C114 1.339 1_554 S
C115 C116 1.439 . S
C115 H150 0.950 . S
C116 N112 1.383 . S
C116 C115 1.439 . S
C116 C145 1.392 . S
N117 Co111 2.008 . S
N117 C118 1.376 . S
N117 C121 1.374 . S
C118 N117 1.376 . S
C118 C119 1.443 . S
C118 C145 1.389 . S
C119 C118 1.443 . S
C119 C120 1.340 . S
C119 H151 0.951 . S
C120 C119 1.340 . S
C120 C121 1.439 . S
C120 H152 0.950 . S
C121 N117 1.374 . S
C121 C120 1.439 . S
C121 C146 1.395 . S
N122 Co111 1.995 . S
N122 C123 1.376 . S
N122 C126 1.383 1_554 S
C123 N122 1.376 . S
C123 C124 1.446 . S
C123 C146 1.391 . S
C124 C123 1.446 . S
C124 C125 1.339 1_554 S
C124 H153 0.949 . S
C125 C124 1.339 1_556 S
C125 C126 1.439 . S
C125 H154 0.950 . S
C126 N122 1.383 1_556 S
C126 C125 1.439 . S
C126 C144 1.392 . S
N127 Co111 2.282 . S
N127 C130 1.332 . S
N127 C132 1.332 . S
C128 C129 1.386 . S
C128 C131 1.388 . S
C129 C128 1.386 . S
C129 C130 1.382 . S
C129 H155 0.950 . S
C130 N127 1.332 . S
C130 C129 1.382 . S
C130 H141 0.952 . S
C131 C128 1.388 . S
C131 C132 1.382 . S
C131 H156 0.950 . S
C132 N127 1.332 . S
C132 C131 1.382 . S
C132 H142 0.948 . S
N133 Co111 2.282 1_556 S
N133 C137 1.332 . S
N133 C138 1.332 . S
C134 C135 1.388 . S
C134 C138 1.382 . S
C134 H157 0.950 . S
C135 C134 1.388 . S
C135 C136 1.386 . S
C136 C135 1.386 . S
C136 C137 1.382 . S
C136 H158 0.950 . S
C137 N133 1.332 . S
C137 C136 1.382 . S
C137 H139 0.952 . S
C138 N133 1.332 . S
C138 C134 1.382 . S
C138 H140 0.948 . S
H139 C137 0.952 . S
H140 C138 0.948 . S
H141 C130 0.952 . S
H142 C132 0.948 . S
C143 C109 1.395 . S
C143 C113 1.391 . S
C144 C106 1.389 . S
C144 C126 1.392 . S
C145 C116 1.392 . S
C145 C118 1.389 . S
C146 C121 1.395 . S
C146 C123 1.391 . S
H147 C107 0.951 . S
H148 C108 0.950 . S
H149 C114 0.949 . S
H150 C115 0.950 . S
H151 C119 0.951 . S
H152 C120 0.950 . S
H153 C124 0.949 . S
H154 C125 0.950 . S
H155 C129 0.950 . S
H156 C131 0.950 . S
H157 C134 0.950 . S
H158 C136 0.950 . S
C159 C160 1.443 . S
C159 N163 1.376 . S
C159 C197 1.389 . S
C160 C159 1.443 . S
C160 C161 1.340 . S
C160 H200 0.951 . S
C161 C160 1.340 . S
C161 C162 1.439 . S
C161 H201 0.950 . S
C162 C161 1.439 . S
C162 N163 1.374 . S
C162 C196 1.395 . S
N163 C159 1.376 . S
N163 C162 1.374 . S
N163 Co164 2.008 1_655 S
Co164 N163 2.008 1_455 S
Co164 N165 1.995 1_455 S
Co164 N170 2.008 . S
Co164 N175 1.995 . S
Co164 N180 2.282 . S
Co164 N186 2.282 1_455 S
N165 Co164 1.995 1_655 S
N165 C166 1.376 . S
N165 C169 1.383 1_655 S
C166 N165 1.376 . S
C166 C167 1.446 . S
C166 C196 1.391 . S
C167 C166 1.446 . S
C167 C168 1.339 . S
C167 H202 0.949 . S
C168 C167 1.339 . S
C168 C169 1.439 1_655 S
C168 H203 0.950 1_655 S
C169 N165 1.383 1_455 S
C169 C168 1.439 1_455 S
C169 C198 1.392 . S
N170 Co164 2.008 . S
N170 C171 1.376 . S
N170 C174 1.374 . S
C171 N170 1.376 . S
C171 C172 1.443 . S
C171 C198 1.389 . S
C172 C171 1.443 . S
C172 C173 1.340 . S
C172 H204 0.951 . S
C173 C172 1.340 . S
C173 C174 1.439 . S
C173 H205 0.950 . S
C174 N170 1.374 . S
C174 C173 1.439 . S
C174 C199 1.395 . S
N175 Co164 1.995 . S
N175 C176 1.376 . S
N175 C179 1.383 1_455 S
C176 N175 1.376 . S
C176 C177 1.446 . S
C176 C199 1.391 . S
C177 C176 1.446 . S
C177 C178 1.339 . S
C177 H206 0.949 . S
C178 C177 1.339 . S
C178 C179 1.439 1_455 S
C178 H207 0.950 1_455 S
C179 N175 1.383 1_655 S
C179 C178 1.439 1_655 S
C179 C197 1.392 . S
N180 Co164 2.282 . S
N180 C183 1.332 . S
N180 C185 1.332 . S
C181 C182 1.386 . S
C181 C184 1.388 . S
C182 C181 1.386 . S
C182 C183 1.382 . S
C182 H208 0.950 . S
C183 N180 1.332 . S
C183 C182 1.382 . S
C183 H194 0.952 . S
C184 C181 1.388 . S
C184 C185 1.382 . S
C184 H209 0.950 . S
C185 N180 1.332 . S
C185 C184 1.382 . S
C185 H195 0.948 1_455 S
N186 Co164 2.282 1_655 S
N186 C190 1.332 . S
N186 C191 1.332 . S
C187 C188 1.388 . S
C187 C191 1.382 . S
C187 H210 0.950 . S
C188 C187 1.388 . S
C188 C189 1.386 . S
C189 C188 1.386 . S
C189 C190 1.382 . S
C189 H211 0.950 . S
C190 N186 1.332 . S
C190 C189 1.382 . S
C190 H192 0.952 . S
C191 N186 1.332 . S
C191 C187 1.382 . S
C191 H193 0.948 1_655 S
H192 C190 0.952 . S
H193 C191 0.948 1_455 S
H194 C183 0.952 . S
H195 C185 0.948 1_655 S
C196 C162 1.395 . S
C196 C166 1.391 . S
C197 C159 1.389 . S
C197 C179 1.392 . S
C198 C169 1.392 . S
C198 C171 1.389 . S
C199 C174 1.395 . S
C199 C176 1.391 . S
H200 C160 0.951 . S
H201 C161 0.950 . S
H202 C167 0.949 . S
H203 C168 0.950 1_455 S
H204 C172 0.951 . S
H205 C173 0.950 . S
H206 C177 0.949 . S
H207 C178 0.950 1_655 S
H208 C182 0.950 . S
H209 C184 0.950 . S
H210 C187 0.950 . S
H211 C189 0.950 . S
C212 C213 1.443 1_565 S
C212 N216 1.376 1_565 S
C212 C250 1.389 . S
C213 C212 1.443 1_545 S
C213 C214 1.340 . S
C213 H253 0.951 1_545 S
C214 C213 1.340 . S
C214 C215 1.439 . S
C214 H254 0.950 . S
C215 C214 1.439 . S
C215 N216 1.374 . S
C215 C249 1.395 . S
N216 C212 1.376 1_545 S
N216 C215 1.374 . S
N216 Co217 2.008 . S
Co217 N216 2.008 . S
Co217 N218 1.995 . S
Co217 N223 2.008 1_544 S
Co217 N228 1.995 1_545 S
Co217 N233 2.282 1_554 S
Co217 N239 2.282 1_545 S
N218 Co217 1.995 . S
N218 C219 1.376 . S
N218 C222 1.383 1_554 S
C219 N218 1.376 . S
C219 C220 1.446 . S
C219 C249 1.391 . S
C220 C219 1.446 . S
C220 C221 1.339 1_554 S
C220 H255 0.949 . S
C221 C220 1.339 1_556 S
C221 C222 1.439 . S
C221 H256 0.950 . S
C222 N218 1.383 1_556 S
C222 C221 1.439 . S
C222 C251 1.392 . S
N223 Co217 2.008 1_566 S
N223 C224 1.376 1_565 S
N223 C227 1.374 . S
C224 N223 1.376 1_545 S
C224 C225 1.443 1_545 S
C224 C251 1.389 . S
C225 C224 1.443 1_565 S
C225 C226 1.340 . S
C225 H257 0.951 1_565 S
C226 C225 1.340 . S
C226 C227 1.439 . S
C226 H258 0.950 . S
C227 N223 1.374 . S
C227 C226 1.439 . S
C227 C252 1.395 . S
N228 Co217 1.995 1_565 S
N228 C229 1.376 1_554 S
N228 C232 1.383 . S
C229 N228 1.376 1_556 S
C229 C230 1.446 1_556 S
C229 C252 1.391 . S
C230 C229 1.446 1_554 S
C230 C231 1.339 . S
C230 H259 0.949 1_554 S
C231 C230 1.339 . S
C231 C232 1.439 . S
C231 H260 0.950 . S
C232 N228 1.383 . S
C232 C231 1.439 . S
C232 C250 1.392 . S
N233 Co217 2.282 1_556 S
N233 C236 1.332 . S
N233 C238 1.332 . S
C234 C235 1.386 . S
C234 C237 1.388 . S
C235 C234 1.386 . S
C235 C236 1.382 . S
C235 H261 0.950 . S
C236 N233 1.332 . S
C236 C235 1.382 . S
C236 H247 0.952 1_545 S
C237 C234 1.388 . S
C237 C238 1.382 . S
C237 H262 0.950 . S
C238 N233 1.332 . S
C238 C237 1.382 . S
C238 H248 0.948 . S
N239 Co217 2.282 1_565 S
N239 C243 1.332 . S
N239 C244 1.332 . S
C240 C241 1.388 . S
C240 C244 1.382 . S
C240 H263 0.950 . S
C241 C240 1.388 . S
C241 C242 1.386 . S
C242 C241 1.386 . S
C242 C243 1.382 . S
C242 H264 0.950 . S
C243 N239 1.332 . S
C243 C242 1.382 . S
C243 H245 0.952 1_565 S
C244 N239 1.332 . S
C244 C240 1.382 . S
C244 H246 0.948 . S
H245 C243 0.952 1_545 S
H246 C244 0.948 . S
H247 C236 0.952 1_565 S
H248 C238 0.948 . S
C249 C215 1.395 . S
C249 C219 1.391 . S
C250 C212 1.389 . S
C250 C232 1.392 . S
C251 C222 1.392 . S
C251 C224 1.389 . S
C252 C227 1.395 . S
C252 C229 1.391 . S
H253 C213 0.951 1_565 S
H254 C214 0.950 . S
H255 C220 0.949 . S
H256 C221 0.950 . S
H257 C225 0.951 1_545 S
H258 C226 0.950 . S
H259 C230 0.949 1_556 S
H260 C231 0.950 . S
H261 C235 0.950 . S
H262 C237 0.950 . S
H263 C240 0.950 . S
H264 C242 0.950 . S
C265 C266 1.443 . S
C265 N269 1.376 . S
C265 C303 1.389 . S
C266 C265 1.443 . S
C266 C267 1.340 . S
C266 H306 0.951 . S
C267 C266 1.340 . S
C267 C268 1.439 . S
C267 H307 0.950 . S
C268 C267 1.439 . S
C268 N269 1.374 . S
C268 C302 1.395 . S
N269 C265 1.376 . S
N269 C268 1.374 . S
N269 Co270 2.008 . S
Co270 N269 2.008 . S
Co270 N271 1.995 . S
Co270 N276 2.008 . S
Co270 N281 1.995 . S
Co270 N286 2.282 . S
Co270 N292 2.282 . S
N271 Co270 1.995 . S
N271 C272 1.376 . S
N271 C275 1.383 . S
C272 N271 1.376 . S
C272 C273 1.446 . S
C272 C302 1.391 . S
C273 C272 1.446 . S
C273 C274 1.339 . S
C273 H308 0.949 . S
C274 C273 1.339 . S
C274 C275 1.439 . S
C274 H309 0.950 . S
C275 N271 1.383 . S
C275 C274 1.439 . S
C275 C304 1.392 . S
N276 Co270 2.008 . S
N276 C277 1.376 . S
N276 C280 1.374 . S
C277 N276 1.376 . S
C277 C278 1.443 . S
C277 C304 1.389 . S
C278 C277 1.443 . S
C278 C279 1.340 . S
C278 H310 0.951 . S
C279 C278 1.340 . S
C279 C280 1.439 . S
C279 H311 0.950 . S
C280 N276 1.374 . S
C280 C279 1.439 . S
C280 C305 1.395 . S
N281 Co270 1.995 . S
N281 C282 1.376 . S
N281 C285 1.383 . S
C282 N281 1.376 . S
C282 C283 1.446 . S
C282 C305 1.391 . S
C283 C282 1.446 . S
C283 C284 1.339 . S
C283 H312 0.949 . S
C284 C283 1.339 . S
C284 C285 1.439 . S
C284 H313 0.950 . S
C285 N281 1.383 . S
C285 C284 1.439 . S
C285 C303 1.392 . S
N286 Co270 2.282 . S
N286 C289 1.332 . S
N286 C291 1.332 . S
C287 C288 1.386 . S
C287 C290 1.388 . S
C288 C287 1.386 . S
C288 C289 1.382 . S
C288 H314 0.950 . S
C289 N286 1.332 . S
C289 C288 1.382 . S
C289 H300 0.952 . S
C290 C287 1.388 . S
C290 C291 1.382 . S
C290 H315 0.950 . S
C291 N286 1.332 . S
C291 C290 1.382 . S
C291 H301 0.948 . S
N292 Co270 2.282 . S
N292 C296 1.332 . S
N292 C297 1.332 . S
C293 C294 1.388 . S
C293 C297 1.382 . S
C293 H316 0.950 . S
C294 C293 1.388 . S
C294 C295 1.386 . S
C295 C294 1.386 . S
C295 C296 1.382 . S
C295 H317 0.950 . S
C296 N292 1.332 . S
C296 C295 1.382 . S
C296 H298 0.952 . S
C297 N292 1.332 . S
C297 C293 1.382 . S
C297 H299 0.948 . S
H298 C296 0.952 . S
H299 C297 0.948 . S
H300 C289 0.952 . S
H301 C291 0.948 . S
C302 C268 1.395 . S
C302 C272 1.391 . S
C303 C265 1.389 . S
C303 C285 1.392 . S
C304 C275 1.392 . S
C304 C277 1.389 . S
C305 C280 1.395 . S
C305 C282 1.391 . S
H306 C266 0.951 . S
H307 C267 0.950 . S
H308 C273 0.949 . S
H309 C274 0.950 . S
H310 C278 0.951 . S
H311 C279 0.950 . S
H312 C283 0.949 . S
H313 C284 0.950 . S
H314 C288 0.950 . S
H315 C290 0.950 . S
H316 C293 0.950 . S
H317 C295 0.950 . S
Mg318 O325 2.141 . S
Mg318 O326 2.048 . S
Mg318 O327 2.048 . S
Mg318 O330 2.141 . S
C319 O320 1.313 . S
C319 O326 1.195 . S
O320 C319 1.313 . S
C321 O322 1.245 . S
C321 O330 1.289 . S
O322 C321 1.245 . S
C323 O324 1.245 . S
C323 O325 1.289 . S
O324 C323 1.245 . S
O325 Mg318 2.141 . S
O325 C323 1.289 . S
O326 Mg318 2.048 . S
O326 C319 1.195 . S
O327 Mg318 2.048 . S
O327 C328 1.195 . S
C328 O327 1.195 . S
C328 O329 1.313 . S
O329 C328 1.313 . S
O330 Mg318 2.141 . S
O330 C321 1.289 . S
Mg331 O338 2.141 . S
Mg331 O339 2.048 . S
Mg331 O340 2.048 . S
Mg331 O343 2.141 . S
C332 O333 1.313 . S
C332 O339 1.195 . S
O333 C332 1.313 . S
C334 O335 1.245 . S
C334 O343 1.289 . S
O335 C334 1.245 . S
C336 O337 1.245 . S
C336 O338 1.289 . S
O337 C336 1.245 . S
O338 Mg331 2.141 . S
O338 C336 1.289 . S
O339 Mg331 2.048 . S
O339 C332 1.195 . S
O340 Mg331 2.048 . S
O340 C341 1.195 . S
C341 O340 1.195 . S
C341 O342 1.313 . S
O342 C341 1.313 . S
O343 Mg331 2.141 . S
O343 C334 1.289 . S
Mg344 O351 2.141 . S
Mg344 O352 2.048 . S
Mg344 O353 2.048 . S
Mg344 O356 2.141 . S
C345 O346 1.313 . S
C345 O352 1.195 . S
O346 C345 1.313 . S
C347 O348 1.245 . S
C347 O356 1.289 . S
O348 C347 1.245 . S
C349 O350 1.245 . S
C349 O351 1.289 . S
O350 C349 1.245 . S
O351 Mg344 2.141 . S
O351 C349 1.289 . S
O352 Mg344 2.048 . S
O352 C345 1.195 . S
O353 Mg344 2.048 . S
O353 C354 1.195 . S
C354 O353 1.195 . S
C354 O355 1.313 . S
O355 C354 1.313 . S
O356 Mg344 2.141 . S
O356 C347 1.289 . S
Mg357 O364 2.141 . S
Mg357 O365 2.048 . S
Mg357 O366 2.048 . S
Mg357 O369 2.141 . S
C358 O359 1.313 . S
C358 O365 1.195 . S
O359 C358 1.313 . S
C360 O361 1.245 . S
C360 O369 1.289 . S
O361 C360 1.245 . S
C362 O363 1.245 . S
C362 O364 1.289 . S
O363 C362 1.245 . S
O364 Mg357 2.141 . S
O364 C362 1.289 . S
O365 Mg357 2.048 . S
O365 C358 1.195 . S
O366 Mg357 2.048 . S
O366 C367 1.195 . S
C367 O366 1.195 . S
C367 O368 1.313 . S
O368 C367 1.313 . S
O369 Mg357 2.141 . S
O369 C360 1.289 . S
Mg370 O377 2.141 . S
Mg370 O378 2.048 . S
Mg370 O379 2.048 . S
Mg370 O382 2.141 . S
C371 O372 1.313 . S
C371 O378 1.195 . S
O372 C371 1.313 . S
C373 O374 1.245 . S
C373 O382 1.289 . S
O374 C373 1.245 . S
C375 O376 1.245 . S
C375 O377 1.289 . S
O376 C375 1.245 . S
O377 Mg370 2.141 . S
O377 C375 1.289 . S
O378 Mg370 2.048 . S
O378 C371 1.195 . S
O379 Mg370 2.048 . S
O379 C380 1.195 . S
C380 O379 1.195 . S
C380 O381 1.313 . S
O381 C380 1.313 . S
O382 Mg370 2.141 . S
O382 C373 1.289 . S
Mg383 O390 2.141 . S
Mg383 O391 2.048 . S
Mg383 O392 2.048 . S
Mg383 O395 2.141 . S
C384 O385 1.313 . S
C384 O391 1.195 . S
O385 C384 1.313 . S
C386 O387 1.245 . S
C386 O395 1.289 . S
O387 C386 1.245 . S
C388 O389 1.245 . S
C388 O390 1.289 . S
O389 C388 1.245 . S
O390 Mg383 2.141 . S
O390 C388 1.289 . S
O391 Mg383 2.048 . S
O391 C384 1.195 . S
O392 Mg383 2.048 . S
O392 C393 1.195 . S
C393 O392 1.195 . S
C393 O394 1.313 . S
O394 C393 1.313 . S
O395 Mg383 2.141 . S
O395 C386 1.289 . S
C396 C397 1.369 . S
C396 C398 1.419 . S
C396 H400 0.930 . S
C397 C396 1.369 . S
C397 C406 1.429 . S
C398 C396 1.419 . S
C398 C399 1.363 . S
C398 H401 0.929 . S
C399 C398 1.363 . S
C399 C405 1.428 . S
H400 C396 0.930 . S
H401 C398 0.929 . S
S402 N403 1.613 . S
S402 N404 1.610 . S
N403 S402 1.613 . S
N403 C406 1.350 . S
N404 S402 1.610 . S
N404 C405 1.351 . S
C405 C399 1.428 . S
C405 N404 1.351 . S
C405 C406 1.434 . S
C406 C397 1.429 . S
C406 N403 1.350 . S
C406 C405 1.434 . S
C407 C408 1.369 . S
C407 C409 1.419 . S
C407 H411 0.930 . S
C408 C407 1.369 . S
C408 C417 1.429 . S
C409 C407 1.419 . S
C409 C410 1.363 . S
C409 H412 0.929 . S
C410 C409 1.363 . S
C410 C416 1.428 . S
H411 C407 0.930 . S
H412 C409 0.929 . S
S413 N414 1.613 . S
S413 N415 1.610 . S
N414 S413 1.613 . S
N414 C417 1.350 . S
N415 S413 1.610 . S
N415 C416 1.351 . S
C416 C410 1.428 . S
C416 N415 1.351 . S
C416 C417 1.434 . S
C417 C408 1.429 . S
C417 N414 1.350 . S
C417 C416 1.434 . S
C418 C419 1.369 . S
C418 C420 1.419 . S
C418 H422 0.930 . S
C419 C418 1.369 . S
C419 C428 1.429 . S
C420 C418 1.419 . S
C420 C421 1.363 . S
C420 H423 0.929 . S
C421 C420 1.363 . S
C421 C427 1.428 . S
H422 C418 0.930 . S
H423 C420 0.929 . S
S424 N425 1.613 . S
S424 N426 1.610 . S
N425 S424 1.613 . S
N425 C428 1.350 . S
N426 S424 1.610 . S
N426 C427 1.351 . S
C427 C421 1.428 . S
C427 N426 1.351 . S
C427 C428 1.434 . S
C428 C419 1.429 . S
C428 N425 1.350 . S
C428 C427 1.434 . S
C429 C430 1.369 . S
C429 C431 1.419 . S
C429 H433 0.930 . S
C430 C429 1.369 . S
C430 C439 1.429 . S
C431 C429 1.419 . S
C431 C432 1.363 . S
C431 H434 0.929 . S
C432 C431 1.363 . S
C432 C438 1.428 . S
H433 C429 0.930 . S
H434 C431 0.929 . S
S435 N436 1.613 . S
S435 N437 1.610 . S
N436 S435 1.613 . S
N436 C439 1.350 . S
N437 S435 1.610 . S
N437 C438 1.351 . S
C438 C432 1.428 . S
C438 N437 1.351 . S
C438 C439 1.434 . S
C439 C430 1.429 . S
C439 N436 1.350 . S
C439 C438 1.434 . S
C440 C441 1.369 . S
C440 C442 1.419 . S
C440 H444 0.930 . S
C441 C440 1.369 . S
C441 C450 1.429 . S
C442 C440 1.419 . S
C442 C443 1.363 . S
C442 H445 0.929 . S
C443 C442 1.363 . S
C443 C449 1.428 . S
H444 C440 0.930 . S
H445 C442 0.929 . S
S446 N447 1.614 . S
S446 N448 1.610 1_545 S
N447 S446 1.614 . S
N447 C450 1.348 1_545 S
N448 S446 1.610 1_565 S
N448 C449 1.351 . S
C449 C443 1.428 . S
C449 N448 1.351 . S
C449 C450 1.434 . S
C450 C441 1.429 . S
C450 N447 1.348 1_565 S
C450 C449 1.434 . S
C451 C452 1.369 . S
C451 C453 1.419 . S
C451 H455 0.930 . S
C452 C451 1.369 . S
C452 C461 1.429 . S
C453 C451 1.419 . S
C453 C454 1.363 . S
C453 H456 0.929 . S
C454 C453 1.363 . S
C454 C460 1.428 . S
H455 C451 0.930 . S
H456 C453 0.929 . S
S457 N458 1.613 . S
S457 N459 1.610 . S
N458 S457 1.613 . S
N458 C461 1.350 . S
N459 S457 1.610 . S
N459 C460 1.351 . S
C460 C454 1.428 . S
C460 N459 1.351 . S
C460 C461 1.434 . S
C461 C452 1.429 . S
C461 N458 1.350 . S
C461 C460 1.434 . S
C462 C463 1.369 . S
C462 C464 1.419 . S
C462 H466 0.930 . S
C463 C462 1.369 . S
C463 C472 1.429 . S
C464 C462 1.419 . S
C464 C465 1.363 . S
C464 H467 0.929 . S
C465 C464 1.363 . S
C465 C471 1.428 . S
H466 C462 0.930 . S
H467 C464 0.929 . S
S468 N469 1.613 1_545 S
S468 N470 1.610 1_545 S
N469 S468 1.613 1_565 S
N469 C472 1.350 . S
N470 S468 1.610 1_565 S
N470 C471 1.351 . S
C471 C465 1.428 . S
C471 N470 1.351 . S
C471 C472 1.434 . S
C472 C463 1.429 . S
C472 N469 1.350 . S
C472 C471 1.434 . S
C473 C474 1.369 . S
C473 C475 1.419 . S
C473 H477 0.930 . S
C474 C473 1.369 . S
C474 C483 1.429 . S
C475 C473 1.419 . S
C475 C476 1.363 . S
C475 H478 0.929 . S
C476 C475 1.363 . S
C476 C482 1.428 . S
H477 C473 0.930 . S
H478 C475 0.929 . S
S479 N480 1.613 . S
S479 N481 1.610 . S
N480 S479 1.613 . S
N480 C483 1.350 . S
N481 S479 1.610 . S
N481 C482 1.351 . S
C482 C476 1.428 . S
C482 N481 1.351 . S
C482 C483 1.434 . S
C483 C474 1.429 . S
C483 N480 1.350 . S
C483 C482 1.434 . S
C484 C485 1.369 . S
C484 C486 1.419 . S
C484 H488 0.930 . S
C485 C484 1.369 . S
C485 C494 1.429 . S
C486 C484 1.419 . S
C486 C487 1.363 . S
C486 H489 0.929 . S
C487 C486 1.363 . S
C487 C493 1.428 . S
H488 C484 0.930 . S
H489 C486 0.929 . S
S490 N491 1.613 . S
S490 N492 1.610 . S
N491 S490 1.613 . S
N491 C494 1.350 . S
N492 S490 1.610 . S
N492 C493 1.351 . S
C493 C487 1.428 . S
C493 N492 1.351 . S
C493 C494 1.434 . S
C494 C485 1.429 . S
C494 N491 1.350 . S
C494 C493 1.434 . S
C495 C496 1.369 . S
C495 C497 1.419 . S
C495 H499 0.930 . S
C496 C495 1.369 . S
C496 C505 1.429 . S
C497 C495 1.419 . S
C497 C498 1.363 . S
C497 H500 0.929 . S
C498 C497 1.363 . S
C498 C504 1.428 . S
H499 C495 0.930 . S
H500 C497 0.929 . S
S501 N502 1.613 . S
S501 N503 1.610 . S
N502 S501 1.613 . S
N502 C505 1.350 . S
N503 S501 1.610 . S
N503 C504 1.351 . S
C504 C498 1.428 . S
C504 N503 1.351 . S
C504 C505 1.434 . S
C505 C496 1.429 . S
C505 N502 1.350 . S
C505 C504 1.434 . S
C506 C507 1.369 . S
C506 C508 1.419 . S
C506 H510 0.930 . S
C507 C506 1.369 . S
C507 C516 1.429 . S
C508 C506 1.419 . S
C508 C509 1.363 . S
C508 H511 0.929 . S
C509 C508 1.363 . S
C509 C515 1.428 . S
H510 C506 0.930 . S
H511 C508 0.929 . S
S512 N513 1.613 . S
S512 N514 1.610 . S
N513 S512 1.613 . S
N513 C516 1.350 . S
N514 S512 1.610 . S
N514 C515 1.351 . S
C515 C509 1.428 . S
C515 N514 1.351 . S
C515 C516 1.434 . S
C516 C507 1.429 . S
C516 N513 1.350 . S
C516 C515 1.434 . S
C517 C518 1.369 . S
C517 C519 1.419 . S
C517 H521 0.930 . S
C518 C517 1.369 . S
C518 C527 1.429 . S
C519 C517 1.419 . S
C519 C520 1.363 . S
C519 H522 0.929 . S
C520 C519 1.363 . S
C520 C526 1.428 . S
H521 C517 0.930 . S
H522 C519 0.929 . S
S523 N524 1.613 . S
S523 N525 1.610 . S
N524 S523 1.613 . S
N524 C527 1.350 . S
N525 S523 1.610 . S
N525 C526 1.351 . S
C526 C520 1.428 . S
C526 N525 1.351 . S
C526 C527 1.434 . S
C527 C518 1.429 . S
C527 N524 1.350 . S
C527 C526 1.434 . S
C528 C529 1.369 . S
C528 C530 1.419 . S
C528 H532 0.930 . S
C529 C528 1.369 . S
C529 C538 1.429 . S
C530 C528 1.419 . S
C530 C531 1.363 . S
C530 H533 0.929 . S
C531 C530 1.363 . S
C531 C537 1.428 . S
H532 C528 0.930 . S
H533 C530 0.929 . S
S534 N535 1.613 . S
S534 N536 1.610 . S
N535 S534 1.613 . S
N535 C538 1.350 . S
N536 S534 1.610 . S
N536 C537 1.351 . S
C537 C531 1.428 . S
C537 N536 1.351 . S
C537 C538 1.434 . S
C538 C529 1.429 . S
C538 N535 1.350 . S
C538 C537 1.434 . S
C539 C540 1.369 . S
C539 C541 1.419 . S
C539 H543 0.930 . S
C540 C539 1.369 . S
C540 C549 1.429 . S
C541 C539 1.419 . S
C541 C542 1.363 . S
C541 H544 0.929 . S
C542 C541 1.363 . S
C542 C548 1.428 . S
H543 C539 0.930 . S
H544 C541 0.929 . S
S545 N546 1.613 . S
S545 N547 1.610 . S
N546 S545 1.613 . S
N546 C549 1.350 . S
N547 S545 1.610 . S
N547 C548 1.351 . S
C548 C542 1.428 . S
C548 N547 1.351 . S
C548 C549 1.434 . S
C549 C540 1.429 . S
C549 N546 1.350 . S
C549 C548 1.434 . S
C550 C551 1.369 . S
C550 C552 1.419 . S
C550 H554 0.930 . S
C551 C550 1.369 . S
C551 C560 1.429 . S
C552 C550 1.419 . S
C552 C553 1.363 . S
C552 H555 0.929 . S
C553 C552 1.363 . S
C553 C559 1.428 . S
H554 C550 0.930 . S
H555 C552 0.929 . S
S556 N557 1.613 . S
S556 N558 1.610 . S
N557 S556 1.613 . S
N557 C560 1.350 . S
N558 S556 1.610 . S
N558 C559 1.351 . S
C559 C553 1.428 . S
C559 N558 1.351 . S
C559 C560 1.434 . S
C560 C551 1.429 . S
C560 N557 1.350 . S
C560 C559 1.434 . S
C561 C562 1.369 . S
C561 C563 1.419 . S
C561 H565 0.930 . S
C562 C561 1.369 . S
C562 C571 1.429 . S
C563 C561 1.419 . S
C563 C564 1.363 . S
C563 H566 0.929 . S
C564 C563 1.363 . S
C564 C570 1.428 . S
H565 C561 0.930 . S
H566 C563 0.929 . S
S567 N568 1.613 1_655 S
S567 N569 1.610 1_655 S
N568 S567 1.613 1_455 S
N568 C571 1.350 . S
N569 S567 1.610 1_455 S
N569 C570 1.351 . S
C570 C564 1.428 . S
C570 N569 1.351 . S
C570 C571 1.434 . S
C571 C562 1.429 . S
C571 N568 1.350 . S
C571 C570 1.434 . S
C572 C573 1.369 . S
C572 C574 1.419 . S
C572 H576 0.930 . S
C573 C572 1.369 . S
C573 C582 1.429 . S
C574 C572 1.419 . S
C574 C575 1.363 . S
C574 H577 0.929 . S
C575 C574 1.363 . S
C575 C581 1.428 . S
H576 C572 0.930 . S
H577 C574 0.929 . S
S578 N579 1.613 . S
S578 N580 1.610 . S
N579 S578 1.613 . S
N579 C582 1.350 . S
N580 S578 1.610 . S
N580 C581 1.351 . S
C581 C575 1.428 . S
C581 N580 1.351 . S
C581 C582 1.434 . S
C582 C573 1.429 . S
C582 N579 1.350 . S
C582 C581 1.434 . S
C583 C584 1.369 . S
C583 C585 1.419 . S
C583 H587 0.930 . S
C584 C583 1.369 . S
C584 C593 1.429 . S
C585 C583 1.419 . S
C585 C586 1.363 . S
C585 H588 0.929 . S
C586 C585 1.363 . S
C586 C592 1.428 . S
H587 C583 0.930 . S
H588 C585 0.929 . S
S589 N590 1.613 . S
S589 N591 1.610 . S
N590 S589 1.613 . S
N590 C593 1.350 . S
N591 S589 1.610 . S
N591 C592 1.351 . S
C592 C586 1.428 . S
C592 N591 1.351 . S
C592 C593 1.434 . S
C593 C584 1.429 . S
C593 N590 1.350 . S
C593 C592 1.434 . S
C594 C595 1.369 . S
C594 C596 1.419 . S
C594 H598 0.930 . S
C595 C594 1.369 . S
C595 C604 1.429 . S
C596 C594 1.419 . S
C596 C597 1.363 . S
C596 H599 0.929 . S
C597 C596 1.363 . S
C597 C603 1.428 . S
H598 C594 0.930 . S
H599 C596 0.929 . S
S600 N601 1.613 . S
S600 N602 1.610 . S
N601 S600 1.613 . S
N601 C604 1.350 . S
N602 S600 1.610 . S
N602 C603 1.351 . S
C603 C597 1.428 . S
C603 N602 1.351 . S
C603 C604 1.434 . S
C604 C595 1.429 . S
C604 N601 1.350 . S
C604 C603 1.434 . S
C605 C606 1.369 . S
C605 C607 1.419 . S
C605 H609 0.930 . S
C606 C605 1.369 . S
C606 C615 1.429 . S
C607 C605 1.419 . S
C607 C608 1.363 . S
C607 H610 0.929 . S
C608 C607 1.363 . S
C608 C614 1.428 . S
H609 C605 0.930 . S
H610 C607 0.929 . S
S611 N612 1.613 . S
S611 N613 1.610 . S
N612 S611 1.613 . S
N612 C615 1.350 . S
N613 S611 1.610 . S
N613 C614 1.351 . S
C614 C608 1.428 . S
C614 N613 1.351 . S
C614 C615 1.434 . S
C615 C606 1.429 . S
C615 N612 1.350 . S
C615 C614 1.434 . S
C616 C617 1.369 . S
C616 C618 1.419 . S
C616 H620 0.930 . S
C617 C616 1.369 . S
C617 C626 1.429 . S
C618 C616 1.419 . S
C618 C619 1.363 . S
C618 H621 0.929 . S
C619 C618 1.363 . S
C619 C625 1.428 . S
H620 C616 0.930 . S
H621 C618 0.929 . S
S622 N623 1.613 . S
S622 N624 1.610 . S
N623 S622 1.613 . S
N623 C626 1.350 . S
N624 S622 1.610 . S
N624 C625 1.351 . S
C625 C619 1.428 . S
C625 N624 1.351 . S
C625 C626 1.434 . S
C626 C617 1.429 . S
C626 N623 1.350 . S
C626 C625 1.434 . S
C627 C628 1.369 . S
C627 C629 1.419 . S
C627 H631 0.930 . S
C628 C627 1.369 . S
C628 C637 1.429 . S
C629 C627 1.419 . S
C629 C630 1.363 . S
C629 H632 0.929 . S
C630 C629 1.363 . S
C630 C636 1.428 . S
H631 C627 0.930 . S
H632 C629 0.929 . S
S633 N634 1.613 . S
S633 N635 1.610 . S
N634 S633 1.613 . S
N634 C637 1.350 . S
N635 S633 1.610 . S
N635 C636 1.351 . S
C636 C630 1.428 . S
C636 N635 1.351 . S
C636 C637 1.434 . S
C637 C628 1.429 . S
C637 N634 1.350 . S
C637 C636 1.434 . S
C638 C639 1.369 . S
C638 C640 1.419 . S
C638 H642 0.930 . S
C639 C638 1.369 . S
C639 C648 1.429 . S
C640 C638 1.419 . S
C640 C641 1.363 . S
C640 H643 0.929 . S
C641 C640 1.363 . S
C641 C647 1.428 . S
H642 C638 0.930 . S
H643 C640 0.929 . S
S644 N645 1.613 . S
S644 N646 1.610 . S
N645 S644 1.613 . S
N645 C648 1.350 . S
N646 S644 1.610 . S
N646 C647 1.351 . S
C647 C641 1.428 . S
C647 N646 1.351 . S
C647 C648 1.434 . S
C648 C639 1.429 . S
C648 N645 1.350 . S
C648 C647 1.434 . S
C649 C650 1.369 . S
C649 C651 1.419 . S
C649 H653 0.930 . S
C650 C649 1.369 . S
C650 C659 1.429 . S
C651 C649 1.419 . S
C651 C652 1.363 . S
C651 H654 0.929 . S
C652 C651 1.363 . S
C652 C658 1.428 . S
H653 C649 0.930 . S
H654 C651 0.929 . S
S655 N656 1.613 . S
S655 N657 1.610 . S
N656 S655 1.613 . S
N656 C659 1.350 . S
N657 S655 1.610 . S
N657 C658 1.351 . S
C658 C652 1.428 . S
C658 N657 1.351 . S
C658 C659 1.434 . S
C659 C650 1.429 . S
C659 N656 1.350 . S
C659 C658 1.434 . S
C397 C39 1.735 . S
C399 C319 1.732 . S
C408 C91 1.746 . S
C410 C332 1.740 . S
C421 C354 1.514 . S
C419 C128 1.591 . S
C432 C367 1.490 . S
C430 C188 1.556 . S
C443 C380 1.617 . S
C441 C250 1.684 . S
C454 C393 1.620 . S
C452 C304 1.711 . S
C463 C75 1.589 . S
C465 C349 1.505 . S
C474 C144 1.715 . S
C476 C362 1.625 . S
C487 C375 1.596 . S
C485 C198 1.671 . S
C498 C388 1.434 . S
C496 C234 1.523 . S
C507 C294 1.534 . S
C509 C321 1.533 . S
C520 C334 1.563 . S
C518 C29 1.561 . S
C531 C360 1.635 . S
C529 C38 1.725 . S
C540 C92 1.740 . S
C542 C373 1.657 . S
C553 C386 1.499 . S
C551 C135 1.582 . S
C562 C181 1.545 . S
C564 C323 1.548 . S
C573 C251 1.676 . S
C575 C336 1.674 . S
C584 C303 1.697 . S
C586 C347 1.591 . S
C595 C82 1.599 . S
C597 C384 1.526 . S
C608 C328 1.717 . S
C606 C145 1.726 . S
C617 C197 1.684 . S
C619 C341 1.683 . S
C628 C241 1.534 . S
C630 C345 1.462 . S
C639 C287 1.544 . S
C641 C358 1.476 . S
C650 C22 1.569 . S
C652 C371 1.508 . S
