# Generated by pormake.
# Topology zzz, (3,6)-cn, num edge types: 1
# Building blocks:
#     Node 0, Type 0, BuildingBlock: OLANEW_clean_sbu_2, # of connection points: 3
#     Node 1, Type 0, BuildingBlock: OLANEW_clean_sbu_2, # of connection points: 3
#     Node 2, Type 0, BuildingBlock: OLANEW_clean_sbu_2, # of connection points: 3
#     Node 3, Type 0, BuildingBlock: OLANEW_clean_sbu_2, # of connection points: 3
#     Node 4, Type 0, BuildingBlock: OLANEW_clean_sbu_2, # of connection points: 3
#     Node 5, Type 0, BuildingBlock: OLANEW_clean_sbu_2, # of connection points: 3
#     Node 6, Type 0, BuildingBlock: OLANEW_clean_sbu_2, # of connection points: 3
#     Node 7, Type 0, BuildingBlock: OLANEW_clean_sbu_2, # of connection points: 3
#     Node 8, Type 1, BuildingBlock: JUFBIX_clean_sbu_0, # of connection points: 6
#     Node 9, Type 1, BuildingBlock: JUFBIX_clean_sbu_0, # of connection points: 6
#     Node 10, Type 1, BuildingBlock: JUFBIX_clean_sbu_0, # of connection points: 6
#     Node 11, Type 1, BuildingBlock: JUFBIX_clean_sbu_0, # of connection points: 6
#     Edge 12, Type (0, 1), BuildingBlock: XIVTED_clean_linker_0, # of connection points: 2
#     Edge 13, Type (0, 1), BuildingBlock: XIVTED_clean_linker_0, # of connection points: 2
#     Edge 14, Type (0, 1), BuildingBlock: XIVTED_clean_linker_0, # of connection points: 2
#     Edge 15, Type (0, 1), BuildingBlock: XIVTED_clean_linker_0, # of connection points: 2
#     Edge 16, Type (0, 1), BuildingBlock: XIVTED_clean_linker_0, # of connection points: 2
#     Edge 17, Type (0, 1), BuildingBlock: XIVTED_clean_linker_0, # of connection points: 2
#     Edge 18, Type (0, 1), BuildingBlock: XIVTED_clean_linker_0, # of connection points: 2
#     Edge 19, Type (0, 1), BuildingBlock: XIVTED_clean_linker_0, # of connection points: 2
#     Edge 20, Type (0, 1), BuildingBlock: XIVTED_clean_linker_0, # of connection points: 2
#     Edge 21, Type (0, 1), BuildingBlock: XIVTED_clean_linker_0, # of connection points: 2
#     Edge 22, Type (0, 1), BuildingBlock: XIVTED_clean_linker_0, # of connection points: 2
#     Edge 23, Type (0, 1), BuildingBlock: XIVTED_clean_linker_0, # of connection points: 2
#     Edge 24, Type (0, 1), BuildingBlock: XIVTED_clean_linker_0, # of connection points: 2
#     Edge 25, Type (0, 1), BuildingBlock: XIVTED_clean_linker_0, # of connection points: 2
#     Edge 26, Type (0, 1), BuildingBlock: XIVTED_clean_linker_0, # of connection points: 2
#     Edge 27, Type (0, 1), BuildingBlock: XIVTED_clean_linker_0, # of connection points: 2
#     Edge 28, Type (0, 1), BuildingBlock: XIVTED_clean_linker_0, # of connection points: 2
#     Edge 29, Type (0, 1), BuildingBlock: XIVTED_clean_linker_0, # of connection points: 2
#     Edge 30, Type (0, 1), BuildingBlock: XIVTED_clean_linker_0, # of connection points: 2
#     Edge 31, Type (0, 1), BuildingBlock: XIVTED_clean_linker_0, # of connection points: 2
#     Edge 32, Type (0, 1), BuildingBlock: XIVTED_clean_linker_0, # of connection points: 2
#     Edge 33, Type (0, 1), BuildingBlock: XIVTED_clean_linker_0, # of connection points: 2
#     Edge 34, Type (0, 1), BuildingBlock: XIVTED_clean_linker_0, # of connection points: 2
#     Edge 35, Type (0, 1), BuildingBlock: XIVTED_clean_linker_0, # of connection points: 2
# Relax obj value: 0.116
# Max RMSD: 0.177
# Mean RMSD: 0.088
data_MOF--net-zzz--node1-OLANEW_clean_sbu_2--node2-JUFBIX_clean_sbu_0--edge1-XIVTED_clean_linker_0
_symmetry_space_group_name_H-M    P1
_symmetry_Int_Tables_number       1
_symmetry_cell_setting            triclinic
loop_
_symmetry_equiv_pos_as_xyz
'x, y, z'
_cell_length_a     55.470324
_cell_length_b     54.670193
_cell_length_c     19.332301
_cell_angle_alpha  81.946902
_cell_angle_beta   89.846861
_cell_angle_gamma 91.755905
loop_
_atom_site_label
_atom_site_type_symbol
_atom_site_fract_x
_atom_site_fract_y
_atom_site_fract_z
_atom_type_partial_charge
O0 O 0.81506 0.60806 0.96615 0.0
Cd1 Cd 0.77919 0.62961 0.99166 0.0
O2 O 0.82288 0.60149 0.0782 0.0
Cd3 Cd 0.84309 0.58409 0.16752 0.0
O4 O 0.86579 0.56813 0.25282 0.0
C5 C 0.88431 0.58037 0.26862 0.0
O6 O 0.88919 0.60225 0.23299 0.0
C7 C 0.82815 0.59856 0.01593 0.0
C8 C 0.74022 0.5991 0.9665 0.0
O9 O 0.74857 0.61583 0.91857 0.0
O10 O 0.74984 0.59739 0.02713 0.0
O11 O 0.90149 0.78319 0.03284 0.0
Cd12 Cd 0.88686 0.74077 0.06596 0.0
O13 O 0.92321 0.77966 0.12844 0.0
Cd14 Cd 0.94725 0.79749 0.19699 0.0
O15 O 0.96235 0.82403 0.26099 0.0
C16 C 0.95281 0.82542 0.32011 0.0
O17 O 0.9347 0.81022 0.34204 0.0
C18 C 0.91697 0.79218 0.07127 0.0
C19 C 0.91788 0.71056 0.00563 0.0
O20 O 0.92189 0.71624 0.06676 0.0
O21 O 0.89885 0.71865 0.97387 0.0
O22 O 0.7258 0.95229 0.92872 0.0
Cd23 Cd 0.76201 0.92894 0.95278 0.0
O24 O 0.72512 0.95944 0.0376 0.0
Cd25 Cd 0.70986 0.97577 0.12446 0.0
O26 O 0.68437 0.98732 0.19884 0.0
C27 C 0.67679 0.97163 0.24958 0.0
O28 O 0.68519 0.94921 0.25708 0.0
C29 C 0.71583 0.962 0.97698 0.0
C30 C 0.80194 0.95698 0.89791 0.0
O31 O 0.79093 0.94207 0.86221 0.0
O32 O 0.7941 0.95844 0.95958 0.0
O33 O 0.60058 0.71901 0.97217 0.0
Cd34 Cd 0.62309 0.75633 0.99267 0.0
O35 O 0.60073 0.70609 0.08486 0.0
Cd36 Cd 0.58953 0.68014 0.17672 0.0
O37 O 0.57497 0.65476 0.26525 0.0
C38 C 0.58709 0.63676 0.29374 0.0
O39 O 0.60871 0.63351 0.26926 0.0
C40 C 0.59494 0.7026 0.02332 0.0
C41 C 0.59722 0.7989 0.95384 0.0
O42 O 0.61112 0.79058 0.91009 0.0
O43 O 0.59551 0.78702 0.01579 0.0
O44 O 0.20955 0.42281 0.58887 0.0
Cd45 Cd 0.2473 0.40416 0.5645 0.0
O46 O 0.19183 0.40873 0.50055 0.0
Cd47 Cd 0.16243 0.40718 0.42629 0.0
O48 O 0.13532 0.41431 0.34527 0.0
C49 C 0.12832 0.43635 0.33152 0.0
O50 O 0.13723 0.45316 0.36755 0.0
C51 C 0.19098 0.42111 0.55145 0.0
C52 C 0.28441 0.43116 0.6177 0.0
O53 O 0.27701 0.43706 0.55501 0.0
O54 O 0.27463 0.41211 0.65459 0.0
O55 O 0.11728 0.21497 0.63309 0.0
Cd56 Cd 0.13228 0.25684 0.59319 0.0
O57 O 0.11428 0.20738 0.52509 0.0
Cd58 Cd 0.10242 0.18631 0.4425 0.0
O59 O 0.09099 0.16228 0.36688 0.0
C60 C 0.0769 0.14388 0.38691 0.0
O61 O 0.06947 0.14009 0.45223 0.0
C62 C 0.1112 0.20035 0.59018 0.0
C63 C 0.09989 0.28901 0.6396 0.0
O64 O 0.09726 0.28158 0.57998 0.0
O65 O 0.11817 0.28169 0.67637 0.0
O66 O 0.28971 0.93865 0.66832 0.0
Cd67 Cd 0.24971 0.92963 0.62631 0.0
O68 O 0.29082 0.97135 0.58822 0.0
Cd69 Cd 0.31165 0.00063 0.52373 0.0
O70 O 0.33897 0.01262 0.44371 0.0
C71 C 0.35984 0.00415 0.45581 0.0
O72 O 0.36372 0.99045 0.51598 0.0
C73 C 0.30087 0.95783 0.63809 0.0
C74 C 0.21402 0.94029 0.71764 0.0
O75 O 0.22195 0.91838 0.721 0.0
O76 O 0.22312 0.95716 0.67139 0.0
O77 O 0.41969 0.29811 0.69796 0.0
Cd78 Cd 0.39652 0.26102 0.67901 0.0
O79 O 0.41002 0.31485 0.59237 0.0
Cd80 Cd 0.41249 0.3438 0.502 0.0
O81 O 0.42072 0.37159 0.4119 0.0
C82 C 0.4423 0.38004 0.40414 0.0
O83 O 0.45842 0.37206 0.45096 0.0
C84 C 0.42075 0.31646 0.64973 0.0
C85 C 0.42285 0.21835 0.71029 0.0
O86 O 0.42314 0.23052 0.64857 0.0
O87 O 0.41017 0.22644 0.75726 0.0
Co88 Co 0.01113 0.00287 0.87624 0.0
C89 C 0.96901 0.00828 0.79749 0.0
Co90 Co 0.0129 0.98923 0.77398 0.0
C91 C 0.02283 0.02824 0.99453 0.0
C92 C 0.98882 0.00847 0.00595 0.0
N93 N 0.00781 0.01368 0.96212 0.0
N94 N 0.01396 0.03223 0.05705 0.0
C95 C 0.99255 0.01979 0.06424 0.0
H96 H 0.03998 0.03561 0.97276 0.0
H97 H 0.97311 0.99732 0.99582 0.0
C98 C 0.05456 0.98276 0.85337 0.0
N99 N 0.01602 0.97816 0.68822 0.0
C100 C 0.00187 0.96156 0.66052 0.0
C101 C 0.03428 0.9838 0.64203 0.0
N102 N 0.01066 0.95641 0.59903 0.0
C103 C 0.03104 0.97051 0.58725 0.0
C104 C 0.02831 0.03847 0.77178 0.0
O105 O 0.04333 0.99321 0.89801 0.0
O106 O 0.04446 0.9795 0.79644 0.0
O107 O 0.02497 0.02129 0.73442 0.0
O108 O 0.02303 0.0344 0.83641 0.0
O109 O 0.98089 0.99861 0.75256 0.0
H110 H 0.04939 0.99619 0.64883 0.0
H111 H 0.98561 0.95318 0.68568 0.0
O112 O 0.97923 0.01229 0.85375 0.0
O113 O -0.001 0.97112 0.91571 0.0
O114 O 0.00105 0.95748 0.81449 0.0
C115 C 0.9957 0.9538 0.87906 0.0
H116 H 0.98017 0.01932 0.1078 0.0
H117 H 0.04331 0.97055 0.54363 0.0
Co118 Co 0.50539 0.00718 0.87199 0.0
C119 C 0.52223 0.96344 0.83259 0.0
Co120 Co 0.51645 0.01002 0.76119 0.0
C121 C 0.4781 0.00888 0.00143 0.0
C122 C 0.51309 0.99368 0.017 0.0
N123 N 0.49805 0.00355 0.96673 0.0
N124 N 0.48021 0.00264 0.07148 0.0
C125 C 0.50234 0.99324 0.08096 0.0
H126 H 0.46224 0.01668 0.97562 0.0
H127 H 0.5308 0.98698 0.00777 0.0
C128 C 0.49957 0.05369 0.80116 0.0
N129 N 0.52477 0.01312 0.66764 0.0
C130 C 0.54466 0.00449 0.64026 0.0
C131 C 0.513 0.02492 0.61246 0.0
N132 N 0.54589 0.01048 0.57018 0.0
C133 C 0.52598 0.02339 0.55243 0.0
C134 C 0.46812 0.99653 0.78683 0.0
O135 O 0.49746 0.04089 0.8612 0.0
O136 O 0.50762 0.04374 0.75039 0.0
O137 O 0.48453 0.00041 0.74024 0.0
O138 O 0.4731 0.99871 0.84993 0.0
O139 O 0.52518 0.97637 0.77312 0.0
H140 H 0.49616 0.03419 0.61577 0.0
H141 H 0.55828 0.99447 0.67155 0.0
O142 O 0.51335 0.97331 0.88221 0.0
O143 O 0.5378 0.01568 0.89258 0.0
O144 O 0.54839 0.01925 0.78257 0.0
C145 C 0.55406 0.01986 0.8458 0.0
H146 H 0.51041 0.98654 0.1306 0.0
H147 H 0.52104 0.03102 0.49987 0.0
Co148 Co 0.52834 0.49952 0.85204 0.0
C149 C 0.49638 0.48531 0.9612 0.0
Co150 Co 0.49245 0.51527 0.83344 0.0
C151 C 0.57931 0.50274 0.85849 0.0
C152 C 0.56646 0.46668 0.90317 0.0
N153 N 0.5591 0.48844 0.86954 0.0
N154 N 0.599 0.49109 0.88481 0.0
C155 C 0.59106 0.46833 0.91318 0.0
H156 H 0.5793 0.52202 0.83592 0.0
H157 H 0.55457 0.45113 0.92228 0.0
C158 C 0.5246 0.52959 0.7245 0.0
N159 N 0.46178 0.52663 0.81541 0.0
C160 C 0.44145 0.51245 0.81646 0.0
C161 C 0.45512 0.54957 0.78905 0.0
N162 N 0.42244 0.52538 0.79026 0.0
C163 C 0.43092 0.54882 0.77314 0.0
C164 C 0.52218 0.54562 0.89752 0.0
O165 O 0.53865 0.51577 0.76296 0.0
O166 O 0.50319 0.53199 0.74545 0.0
O167 O 0.50082 0.54374 0.87502 0.0
O168 O 0.53667 0.5284 0.8926 0.0
O169 O 0.48185 0.49838 0.92209 0.0
H170 H 0.46735 0.56546 0.77844 0.0
H171 H 0.44103 0.4926 0.83133 0.0
O172 O 0.51791 0.48353 0.94047 0.0
O173 O 0.51981 0.47067 0.81196 0.0
O174 O 0.48442 0.48678 0.79129 0.0
C175 C 0.49864 0.46923 0.78762 0.0
H176 H 0.60206 0.45427 0.9413 0.0
H177 H 0.42066 0.56409 0.74817 0.0
Co178 Co 0.0158 0.52243 0.79349 0.0
C179 C 0.02931 0.48984 0.90774 0.0
Co180 Co -0.00122 0.48529 0.79591 0.0
C181 C 0.01289 0.57417 0.79256 0.0
C182 C 0.04888 0.56271 0.81503 0.0
N183 N 0.02709 0.55449 0.79577 0.0
N184 N 0.02455 0.59417 0.81134 0.0
C185 C 0.04732 0.58711 0.82518 0.0
H186 H 0.99366 0.57311 0.78338 0.0
H187 H 0.06431 0.55122 0.8263 0.0
C188 C 0.98517 0.51817 0.68204 0.0
N189 N 0.98756 0.45322 0.79384 0.0
C190 C 0.00171 0.43345 0.80147 0.0
C191 C 0.96614 0.44476 0.77249 0.0
N192 N 0.99036 0.41308 0.784 0.0
C193 C 0.96788 0.42005 0.76583 0.0
C194 C 0.97096 0.51385 0.86435 0.0
O195 O -0.00079 0.53291 0.70923 0.0
O196 O 0.9824 0.49598 0.71153 0.0
O197 O 0.97127 0.49223 0.84745 0.0
O198 O 0.98843 0.52894 0.84628 0.0
O199 O 0.01538 0.47486 0.88099 0.0
H200 H 0.95086 0.45617 0.75806 0.0
H201 H 0.02073 0.43455 0.8135 0.0
O202 O 0.03212 0.51187 0.87732 0.0
O203 O 0.04319 0.51551 0.74137 0.0
O204 O 0.02626 0.47867 0.74358 0.0
C205 C 0.04364 0.49382 0.72496 0.0
H206 H 0.06139 0.59825 0.84539 0.0
H207 H 0.95414 0.40852 0.74564 0.0
H208 H 0.18371 0.90719 0.79683 0.0
H209 H 0.09387 0.01047 0.88357 0.0
H210 H 0.19815 0.98549 0.73998 0.0
H211 H 0.07134 0.93755 0.8446 0.0
H212 H 0.13624 0.99922 0.87221 0.0
H213 H 0.14664 0.91637 0.85571 0.0
C214 C 0.17933 0.92631 0.79782 0.0
C215 C 0.19376 0.94562 0.76232 0.0
C216 C 0.12198 0.98553 0.86809 0.0
C217 C 0.15161 0.95615 0.82995 0.0
C218 C 0.09794 0.99186 0.8751 0.0
C219 C 0.07937 0.97485 0.86475 0.0
C220 C 0.12718 0.96198 0.8518 0.0
C221 C 0.08532 0.9511 0.85268 0.0
C222 C 0.15819 0.93151 0.83136 0.0
C223 C 0.18729 0.97005 0.7657 0.0
N224 N 0.10875 0.94539 0.8461 0.0
N225 N 0.16652 0.97465 0.79833 0.0
H226 H 0.42617 0.1886 0.83604 0.0
H227 H 0.50145 0.08617 0.6797 0.0
H228 H 0.4502 0.19562 0.62138 0.0
H229 H 0.47864 0.07972 0.89541 0.0
H230 H 0.48483 0.12737 0.65903 0.0
H231 H 0.44714 0.14972 0.86034 0.0
C232 C 0.43593 0.18202 0.79405 0.0
C233 C 0.43631 0.19533 0.72646 0.0
C234 C 0.48359 0.11702 0.711 0.0
C235 C 0.46035 0.15078 0.75391 0.0
C236 C 0.49311 0.09348 0.72289 0.0
C237 C 0.49135 0.07941 0.78934 0.0
C238 C 0.47212 0.12655 0.76587 0.0
C239 C 0.48037 0.08987 0.84329 0.0
C240 C 0.44792 0.15981 0.80798 0.0
C241 C 0.44933 0.18593 0.67419 0.0
N242 N 0.47105 0.11275 0.83026 0.0
N243 N 0.46073 0.16419 0.68895 0.0
H244 H 0.3054 0.42233 0.74635 0.0
H245 H 0.39422 0.54155 0.67964 0.0
H246 H 0.30647 0.47428 0.55622 0.0
H247 H 0.39885 0.48492 0.85803 0.0
H248 H 0.35861 0.51999 0.64067 0.0
H249 H 0.3368 0.44738 0.79379 0.0
C250 C 0.31223 0.43901 0.71457 0.0
C251 C 0.30342 0.44614 0.64702 0.0
C252 C 0.3673 0.51239 0.68866 0.0
C253 C 0.33925 0.47498 0.7012 0.0
C254 C 0.38749 0.52483 0.7113 0.0
C255 C 0.39962 0.5149 0.77192 0.0
C256 C 0.35915 0.48991 0.72703 0.0
C257 C 0.39025 0.49299 0.81043 0.0
C258 C 0.33013 0.45333 0.74175 0.0
C259 C 0.31285 0.468 0.60837 0.0
N260 N 0.37067 0.48114 0.78712 0.0
N261 N 0.3303 0.48163 0.63597 0.0
H262 H 0.10083 0.30837 0.76264 0.0
H263 H 0.98104 0.38494 0.68137 0.0
H264 H 0.05839 0.30639 0.57652 0.0
H265 H 0.02709 0.39125 0.85773 0.0
H266 H 0.00605 0.35198 0.6501 0.0
H267 H 0.07149 0.33532 0.80465 0.0
C268 C 0.08533 0.31359 0.73059 0.0
C269 C 0.08216 0.30526 0.6657 0.0
C270 C 0.01053 0.36038 0.69611 0.0
C271 C 0.04839 0.33605 0.71372 0.0
C272 C 0.9961 0.37901 0.71438 0.0
C273 C 0.00214 0.39096 0.77194 0.0
C274 C 0.03108 0.35366 0.7358 0.0
C275 C 0.02204 0.38274 0.81239 0.0
C276 C 0.06854 0.32894 0.75471 0.0
C277 C 0.06164 0.31251 0.62665 0.0
N278 N 0.03591 0.36476 0.79325 0.0
N279 N 0.04557 0.32756 0.65116 0.0
H280 H 0.82688 0.9928 0.95598 0.0
H281 H 0.93906 0.99098 0.7014 0.0
H282 H 0.82649 0.95394 0.77636 0.0
H283 H 0.93874 0.02964 0.88142 0.0
H284 H 0.89535 0.98471 0.71281 0.0
H285 H 0.86515 0.01308 0.91588 0.0
C286 C 0.83475 0.98869 0.90774 0.0
C287 C 0.8237 0.97131 0.87012 0.0
C288 C 0.90478 0.99501 0.74895 0.0
C289 C 0.86761 0.99441 0.82397 0.0
C290 C 0.92974 0.99875 0.74217 0.0
C291 C 0.94262 0.0104 0.79144 0.0
C292 C 0.89274 0.0029 0.80552 0.0
C293 C 0.92958 0.02017 0.84298 0.0
C294 C 0.85658 0.00034 0.8847 0.0
C295 C 0.83454 0.96699 0.80745 0.0
N296 N 0.90542 0.0158 0.84943 0.0
N297 N 0.85609 0.97819 0.78683 0.0
H298 H 0.56654 0.82125 0.03478 0.0
H299 H 0.54595 0.93769 0.74254 0.0
H300 H 0.59759 0.82885 0.82756 0.0
H301 H 0.51763 0.93078 0.9529 0.0
H302 H 0.56238 0.89644 0.76933 0.0
H303 H 0.54603 0.86001 0.00252 0.0
C304 C 0.56898 0.83102 0.98238 0.0
C305 C 0.58392 0.82185 0.93393 0.0
C306 C 0.55243 0.9039 0.80945 0.0
C307 C 0.56047 0.86632 0.89659 0.0
C308 C 0.54298 0.92742 0.79413 0.0
C309 C 0.53047 0.93775 0.84565 0.0
C310 C 0.54935 0.89062 0.87675 0.0
C311 C 0.52722 0.92361 0.91162 0.0
C312 C 0.55725 0.85317 0.96396 0.0
C313 C 0.58632 0.83528 0.86669 0.0
N314 N 0.53669 0.90084 0.92532 0.0
N315 N 0.5748 0.85689 0.8501 0.0
H316 H 0.71555 0.59868 0.84443 0.0
H317 H 0.63005 0.48247 0.99316 0.0
H318 H 0.72034 0.55995 0.05427 0.0
H319 H 0.62073 0.52664 0.79266 0.0
H320 H 0.66649 0.5072 0.01109 0.0
H321 H 0.68345 0.56963 0.82024 0.0
C322 C 0.70983 0.58408 0.88548 0.0
C323 C 0.72052 0.58185 0.95164 0.0
C324 C 0.65659 0.51132 0.96287 0.0
C325 C 0.68387 0.54839 0.92414 0.0
C326 C 0.63596 0.49705 0.95237 0.0
C327 C 0.6223 0.5027 0.89159 0.0
C328 C 0.6636 0.53126 0.91207 0.0
C329 C 0.63058 0.52197 0.84068 0.0
C330 C 0.69154 0.56745 0.87157 0.0
C331 C 0.71248 0.56246 0.00267 0.0
N332 N 0.65059 0.53566 0.85226 0.0
N333 N 0.69459 0.5465 0.98789 0.0
H334 H 0.91383 0.69435 0.87835 0.0
H335 H 0.03611 0.6198 0.91797 0.0
H336 H 0.96093 0.69264 0.05628 0.0
H337 H 0.98591 0.61667 0.74926 0.0
H338 H 0.01159 0.65087 0.96143 0.0
H339 H 0.94222 0.66942 0.82407 0.0
C340 C 0.93015 0.68875 0.90602 0.0
C341 C 0.93492 0.69545 0.9722 0.0
C342 C 0.00608 0.6436 0.91443 0.0
C343 C 0.96761 0.66701 0.9101 0.0
C344 C 0.02023 0.62605 0.88915 0.0
C345 C 0.01293 0.61551 0.83016 0.0
C346 C 0.9845 0.65065 0.88041 0.0
C347 C 0.99198 0.6241 0.79546 0.0
C348 C 0.94639 0.67455 0.8749 0.0
C349 C 0.95643 0.68776 0.0054 0.0
N350 N 0.9784 0.64099 0.82141 0.0
N351 N 0.97194 0.6739 0.97408 0.0
H352 H 0.08276 0.18969 0.70554 0.0
H353 H 0.04851 0.0515 0.64156 0.0
H354 H 0.11288 0.15623 0.53683 0.0
H355 H 0.03355 0.08024 0.83366 0.0
H356 H 0.06876 0.09095 0.59598 0.0
H357 H 0.06181 0.15057 0.74831 0.0
C358 C 0.08491 0.1741 0.67732 0.0
C359 C 0.0991 0.17639 0.61648 0.0
C360 C 0.06101 0.08858 0.64805 0.0
C361 C 0.07513 0.13153 0.66509 0.0
C362 C 0.04934 0.06614 0.67396 0.0
C363 C 0.03934 0.06257 0.74156 0.0
C364 C 0.06253 0.1076 0.68989 0.0
C365 C 0.04103 0.08214 0.78132 0.0
C366 C 0.0729 0.15179 0.70168 0.0
C367 C 0.10134 0.15558 0.58223 0.0
N368 N 0.05239 0.10379 0.75488 0.0
N369 N 0.08941 0.134 0.60689 0.0
H370 H 0.31919 0.0024 0.6633 0.0
H371 H 0.45494 0.96831 0.68735 0.0
H372 H 0.33819 0.92662 0.66126 0.0
H373 H 0.4256 0.00991 0.83999 0.0
H374 H 0.41375 0.95841 0.65139 0.0
H375 H 0.36024 0.01158 0.70274 0.0
C376 C 0.33211 0.98781 0.67068 0.0
C377 C 0.32553 0.96377 0.65915 0.0
C378 C 0.41644 0.96963 0.69287 0.0
C379 C 0.37206 0.97415 0.70262 0.0
C380 C 0.4398 0.97532 0.71322 0.0
C381 C 0.4435 0.98981 0.76686 0.0
C382 C 0.39682 0.97918 0.7249 0.0
C383 C 0.42337 0.9985 0.79884 0.0
C384 C 0.35531 0.993 0.6935 0.0
C385 C 0.3427 0.94536 0.66987 0.0
N386 N 0.40078 0.99332 0.77667 0.0
N387 N 0.36538 0.951 0.69024 0.0
H388 H 0.4093 0.36419 0.60338 0.0
H389 H 0.51939 0.4239 0.79623 0.0
H390 H 0.46188 0.32062 0.72494 0.0
H391 H 0.45768 0.46409 0.71283 0.0
H392 H 0.50219 0.38662 0.75542 0.0
H393 H 0.43062 0.40175 0.62747 0.0
C394 C 0.42568 0.36253 0.63372 0.0
C395 C 0.43413 0.33929 0.66103 0.0
C396 C 0.49254 0.40367 0.74573 0.0
C397 C 0.45821 0.38221 0.69086 0.0
C398 C 0.50238 0.42495 0.76871 0.0
C399 C 0.48987 0.44708 0.75828 0.0
C400 C 0.47017 0.40465 0.71164 0.0
C401 C 0.46788 0.44739 0.72247 0.0
C402 C 0.43767 0.38399 0.6483 0.0
C403 C 0.45484 0.33824 0.70276 0.0
N404 N 0.45872 0.42651 0.70063 0.0
N405 N 0.4662 0.35941 0.71645 0.0
H406 H 0.18833 0.46505 0.6015 0.0
H407 H 0.04633 0.45163 0.66572 0.0
H408 H 0.14385 0.40587 0.53967 0.0
H409 H 0.08838 0.51651 0.70046 0.0
H410 H 0.08166 0.43563 0.61455 0.0
H411 H 0.15196 0.48504 0.63433 0.0
C412 C 0.17086 0.45642 0.59413 0.0
C413 C 0.16903 0.43397 0.56689 0.0
C414 C 0.08317 0.45347 0.63272 0.0
C415 C 0.12742 0.45655 0.6049 0.0
C416 C 0.06298 0.46263 0.66207 0.0
C417 C 0.06445 0.4854 0.68784 0.0
C418 C 0.10515 0.467 0.62967 0.0
C419 C 0.08647 0.49887 0.68132 0.0
C420 C 0.15012 0.46787 0.61263 0.0
C421 C 0.14603 0.42351 0.55858 0.0
N422 N 0.10605 0.48934 0.65348 0.0
N423 N 0.12613 0.4348 0.57798 0.0
H424 H 0.96487 0.80317 0.06364 0.0
H425 H 0.95985 0.94681 0.97643 0.0
H426 H 0.89553 0.83568 0.02418 0.0
H427 H 0.0057 0.90745 0.85229 0.0
H428 H 0.93997 0.90732 0.02549 0.0
H429 H 0.98456 0.843 0.01707 0.0
C430 C 0.95386 0.81883 0.04601 0.0
C431 C 0.92863 0.81639 0.04783 0.0
C432 C 0.95445 0.90746 0.98771 0.0
C433 C 0.95086 0.86158 0.99601 0.0
C434 C 0.96585 0.92981 0.96015 0.0
C435 C 0.9844 0.93019 0.91051 0.0
C436 C 0.96225 0.88545 0.96705 0.0
C437 C 0.99141 0.9078 0.89039 0.0
C438 C 0.96505 0.84134 0.01918 0.0
C439 C 0.91505 0.837 0.02356 0.0
N440 N 0.9805 0.88618 0.91948 0.0
N441 N 0.92637 0.85896 0.99921 0.0
H442 H 0.67656 0.96355 0.06228 0.0
H443 H 0.59388 0.02591 0.76018 0.0
H444 H 0.70394 0.9905 0.85577 0.0
H445 H 0.57263 0.01478 0.97768 0.0
H446 H 0.63533 0.017 0.79497 0.0
H447 H 0.63939 0.98526 0.03405 0.0
C448 C 0.67508 0.97473 0.01178 0.0
C449 C 0.69362 0.97584 0.96199 0.0
C450 C 0.62168 0.01697 0.83515 0.0
C451 C 0.65059 0.99975 0.92787 0.0
C452 C 0.59801 0.02216 0.81532 0.0
C453 C 0.57968 0.02068 0.86605 0.0
C454 C 0.62694 0.00998 0.90607 0.0
C455 C 0.58612 0.01583 0.93671 0.0
C456 C 0.65369 0.98688 0.99527 0.0
C457 C 0.69006 0.98929 0.89572 0.0
N458 N 0.60914 0.01021 0.95456 0.0
N459 N 0.66888 0.0006 0.88038 0.0
H460 H 0.55916 0.69761 0.92951 0.0
H461 H 0.56222 0.5513 0.97603 0.0
H462 H 0.6021 0.65557 0.08653 0.0
H463 H 0.50208 0.59122 0.88085 0.0
H464 H 0.57831 0.58952 0.01268 0.0
H465 H 0.53926 0.65905 0.90527 0.0
C466 C 0.5642 0.68025 0.95927 0.0
C467 C 0.58198 0.67972 0.01081 0.0
C468 C 0.56147 0.58987 0.9844 0.0
C469 C 0.55968 0.63569 0.98281 0.0
C470 C 0.5523 0.56808 0.96334 0.0
C471 C 0.5308 0.56812 0.92526 0.0
C472 C 0.5493 0.61196 0.96615 0.0
C473 C 0.51867 0.59038 0.91032 0.0
C474 C 0.5528 0.65832 0.94569 0.0
C475 C 0.58803 0.65681 0.04764 0.0
N476 N 0.52825 0.61151 0.93011 0.0
N477 N 0.57705 0.63567 0.03252 0.0
H478 H 0.82973 0.56571 0.92302 0.0
H479 H 0.97058 0.55098 0.94409 0.0
H480 H 0.87309 0.5978 0.07398 0.0
H481 H 0.9239 0.49699 0.86432 0.0
H482 H 0.9353 0.56929 0.98952 0.0
H483 H 0.86419 0.54158 0.89603 0.0
C484 C 0.8465 0.56752 0.95072 0.0
C485 C 0.84861 0.58353 0.00119 0.0
C486 C 0.93278 0.55322 0.96301 0.0
C487 C 0.88799 0.5563 0.9703 0.0
C488 C 0.95288 0.54278 0.937 0.0
C489 C 0.95008 0.5225 0.90027 0.0
C490 C 0.90967 0.54365 0.95088 0.0
C491 C 0.92679 0.51257 0.89259 0.0
C492 C 0.86605 0.55366 0.93572 0.0
C493 C 0.87064 0.58529 0.03569 0.0
N494 N 0.90738 0.52351 0.91675 0.0
N495 N 0.88961 0.57201 0.01908 0.0
H496 H 0.08785 0.14678 0.24743 0.0
H497 H 0.00686 0.02692 0.19719 0.0
H498 H 0.04769 0.10241 0.41388 0.0
H499 H 0.04528 0.07166 0.02804 0.0
H500 H 0.02305 0.05361 0.27786 0.0
H501 H 0.07383 0.11876 0.16685 0.0
C502 C 0.07611 0.13114 0.26708 0.0
C503 C 0.06886 0.12699 0.33751 0.0
C504 C 0.02801 0.0576 0.22314 0.0
C505 C 0.05279 0.09485 0.24555 0.0
C506 C 0.01866 0.04241 0.17692 0.0
C507 C 0.02455 0.04715 0.10554 0.0
C508 C 0.04337 0.07779 0.19799 0.0
C509 C 0.04038 0.06721 0.08263 0.0
C510 C 0.06813 0.11515 0.22102 0.0
C511 C 0.05368 0.1064 0.36002 0.0
N512 N 0.04915 0.08187 0.12867 0.0
N513 N 0.04613 0.09114 0.31418 0.0
H514 H 0.40547 0.98684 0.46484 0.0
H515 H 0.44112 0.0322 0.06483 0.0
H516 H 0.35719 0.02813 0.32106 0.0
H517 H 0.47871 0.97721 0.20277 0.0
H518 H 0.41207 0.03501 0.15916 0.0
H519 H 0.43509 0.98825 0.37118 0.0
C520 C 0.40113 0.99637 0.41364 0.0
C521 C 0.3787 0.00718 0.40069 0.0
C522 C 0.42679 0.02242 0.16847 0.0
C523 C 0.41261 0.00873 0.29265 0.0
C524 C 0.44331 0.0207 0.11456 0.0
C525 C 0.46262 0.00456 0.1256 0.0
C526 C 0.42969 0.008 0.23386 0.0
C527 C 0.46457 0.99031 0.19164 0.0
C528 C 0.41805 0.99709 0.36 0.0
C529 C 0.37422 0.01942 0.33325 0.0
N530 N 0.44841 0.99242 0.24297 0.0
N531 N 0.39099 0.01976 0.28154 0.0
H532 H 0.41335 0.40237 0.30042 0.0
H533 H 0.52434 0.46147 0.06368 0.0
H534 H 0.48769 0.39763 0.36514 0.0
H535 H 0.45026 0.47809 0.01388 0.0
H536 H 0.51097 0.43756 0.17374 0.0
H537 H 0.42617 0.42974 0.1947 0.0
C538 C 0.43235 0.40715 0.29258 0.0
C539 C 0.44949 0.39758 0.3416 0.0
C540 C 0.49761 0.44653 0.13901 0.0
C541 C 0.46426 0.42879 0.22063 0.0
C542 C 0.50523 0.46016 0.076 0.0
C543 C 0.48838 0.47176 0.02938 0.0
C544 C 0.47291 0.44422 0.15549 0.0
C545 C 0.46387 0.46947 0.04833 0.0
C546 C 0.43964 0.42281 0.23227 0.0
C547 C 0.47384 0.4045 0.32879 0.0
N548 N 0.45685 0.45582 0.10978 0.0
N549 N 0.4805 0.41953 0.26941 0.0
H550 H 0.10488 0.40615 0.24957 0.0
H551 H 0.05473 0.51883 0.98751 0.0
H552 H 0.11385 0.48264 0.27997 0.0
H553 H 0.03366 0.44276 0.97691 0.0
H554 H 0.07715 0.50557 0.09365 0.0
H555 H 0.07921 0.41879 0.14889 0.0
C556 C 0.10137 0.42558 0.23531 0.0
C557 C 0.11164 0.44338 0.27306 0.0
C558 C 0.06755 0.49175 0.06839 0.0
C559 C 0.08242 0.45795 0.1578 0.0
C560 C 0.05479 0.49931 0.00759 0.0
C561 C 0.04235 0.48186 0.97317 0.0
C562 C 0.06812 0.46652 0.09485 0.0
C563 C 0.04299 0.45683 0.00183 0.0
C564 C 0.08669 0.43277 0.17789 0.0
C565 C 0.1064 0.46827 0.25236 0.0
N566 N 0.0558 0.44988 0.06086 0.0
N567 N 0.09229 0.47481 0.19591 0.0
H568 H 0.93853 0.83143 0.45222 0.0
H569 H 0.01937 0.95467 0.46128 0.0
H570 H 0.98618 0.86313 0.28417 0.0
H571 H 0.98087 0.91646 0.64097 0.0
H572 H 0.00538 0.92274 0.39331 0.0
H573 H 0.95195 0.86378 0.51997 0.0
C574 C 0.95185 0.84516 0.42957 0.0
C575 C 0.96127 0.84453 0.3624 0.0
C576 C -2e-05 0.92136 0.44763 0.0
C577 C 0.9766 0.88173 0.43961 0.0
C578 C 0.00804 0.93958 0.48665 0.0
C579 C 0.00145 0.9383 0.55732 0.0
C580 C 0.98509 0.90168 0.47921 0.0
C581 C 0.98627 0.91846 0.58667 0.0
C582 C 0.9595 0.86363 0.46833 0.0
C583 C 0.97848 0.86283 0.33579 0.0
N584 N 0.97866 0.90094 0.54754 0.0
N585 N 0.98554 0.88071 0.37439 0.0
H586 H 0.6516 0.01434 0.2403 0.0
H587 H 0.57496 0.97111 0.58992 0.0
H588 H 0.65905 0.94371 0.36845 0.0
H589 H 0.56017 0.03657 0.4461 0.0
H590 H 0.60746 0.96198 0.51295 0.0
H591 H 0.61972 0.02405 0.31873 0.0
C592 C 0.64661 0.00091 0.28507 0.0
C593 C 0.65802 0.97815 0.29778 0.0
C594 C 0.5971 0.97834 0.49815 0.0
C595 C 0.6215 0.98916 0.38771 0.0
C596 C 0.57862 0.98364 0.5423 0.0
C597 C 0.56482 0.00467 0.52451 0.0
C598 C 0.60197 0.99425 0.43581 0.0
C599 C 0.57015 0.02003 0.46152 0.0
C600 C 0.62835 0.00644 0.3297 0.0
C601 C 0.65074 0.96145 0.35651 0.0
N602 N 0.58835 0.01456 0.41957 0.0
N603 N 0.63297 0.96729 0.39929 0.0
H604 H 0.54223 0.63687 0.35318 0.0
H605 H 0.56916 0.52843 0.66377 0.0
H606 H 0.60922 0.59839 0.37293 0.0
H607 H 0.50025 0.56289 0.63346 0.0
H608 H 0.58402 0.55345 0.55661 0.0
H609 H 0.52646 0.60964 0.45517 0.0
C610 C 0.55363 0.62267 0.37887 0.0
C611 C 0.57713 0.61998 0.35453 0.0
C612 C 0.56561 0.55545 0.5732 0.0
C613 C 0.55916 0.58871 0.4716 0.0
C614 C 0.5571 0.54115 0.63438 0.0
C615 C 0.53342 0.54359 0.65773 0.0
C616 C 0.5504 0.57241 0.53516 0.0
C617 C 0.51863 0.56039 0.6175 0.0
C618 C 0.54459 0.60708 0.4371 0.0
C619 C 0.59102 0.60118 0.38988 0.0
N620 N 0.5274 0.57423 0.5584 0.0
N621 N 0.58186 0.58633 0.44676 0.0
H622 H 0.88083 0.53484 0.34849 0.0
H623 H 0.98824 0.5638 0.60308 0.0
H624 H 0.92324 0.6031 0.32231 0.0
H625 H 0.95111 0.49272 0.61564 0.0
H626 H 0.96452 0.57855 0.50031 0.0
H627 H 0.90623 0.51912 0.44679 0.0
C628 C 0.89551 0.54652 0.36331 0.0
C629 C 0.89987 0.57037 0.3272 0.0
C630 C 0.96163 0.55969 0.52534 0.0
C631 C 0.929 0.55248 0.43982 0.0
C632 C 0.97517 0.55125 0.58407 0.0
C633 C 0.97164 0.52699 0.61809 0.0
C634 C 0.94431 0.54382 0.50057 0.0
C635 C 0.95444 0.51156 0.59107 0.0
C636 C 0.91003 0.53751 0.41941 0.0
C637 C 0.91919 0.58463 0.34865 0.0
N638 N 0.94135 0.52027 0.53408 0.0
N639 N 0.93298 0.5755 0.40371 0.0
loop_
_geom_bond_atom_site_label_1
_geom_bond_atom_site_label_2
_geom_bond_distance
_geom_bond_site_symmetry_2
_ccdc_geom_bond_type
O0 Cd1 2.300 . S
O0 C7 1.275 . S
Cd1 O0 2.300 . S
Cd1 O9 2.381 . S
Cd1 O10 2.378 . S
O2 Cd3 2.385 . S
O2 C7 1.255 . S
Cd3 O2 2.385 . S
Cd3 O4 2.317 . S
O4 Cd3 2.317 . S
O4 C5 1.232 . S
C5 O4 1.232 . S
C5 O6 1.218 . S
O6 C5 1.218 . S
C7 O0 1.275 . S
C7 O2 1.255 . S
C8 O9 1.258 . S
C8 O10 1.256 . S
O9 Cd1 2.381 . S
O9 C8 1.258 . S
O10 Cd1 2.378 . S
O10 C8 1.256 . S
O11 Cd12 2.300 . S
O11 C18 1.275 . S
Cd12 O11 2.300 . S
Cd12 O20 2.381 . S
Cd12 O21 2.378 . S
O13 Cd14 2.385 1_655 S
O13 C18 1.255 . S
Cd14 O13 2.385 1_455 S
Cd14 O15 2.317 1_455 S
O15 Cd14 2.317 1_655 S
O15 C16 1.232 . S
C16 O15 1.232 . S
C16 O17 1.218 . S
O17 C16 1.218 . S
C18 O11 1.275 . S
C18 O13 1.255 . S
C19 O20 1.258 . S
C19 O21 1.256 . S
O20 Cd12 2.381 . S
O20 C19 1.258 . S
O21 Cd12 2.378 . S
O21 C19 1.256 . S
O22 Cd23 2.300 1_566 S
O22 C29 1.275 1_566 S
Cd23 O22 2.300 1_544 S
Cd23 O31 2.385 1_545 S
Cd23 O32 2.378 . S
O24 Cd25 2.385 . S
O24 C29 1.255 . S
Cd25 O24 2.385 . S
Cd25 O26 2.317 . S
O26 Cd25 2.317 . S
O26 C27 1.232 . S
C27 O26 1.232 . S
C27 O28 1.218 . S
O28 C27 1.218 . S
C29 O22 1.275 1_544 S
C29 O24 1.255 . S
C30 O31 1.261 1_545 S
C30 O32 1.256 . S
O31 Cd23 2.385 1_565 S
O31 C30 1.261 1_565 S
O32 Cd23 2.378 . S
O32 C30 1.256 . S
O33 Cd34 2.300 . S
O33 C40 1.275 . S
Cd34 O33 2.300 . S
Cd34 O42 2.381 . S
Cd34 O43 2.378 . S
O35 Cd36 2.385 . S
O35 C40 1.255 . S
Cd36 O35 2.385 . S
Cd36 O37 2.317 . S
O37 Cd36 2.317 . S
O37 C38 1.232 . S
C38 O37 1.232 . S
C38 O39 1.218 . S
O39 C38 1.218 . S
C40 O33 1.275 . S
C40 O35 1.255 . S
C41 O42 1.258 . S
C41 O43 1.256 . S
O42 Cd34 2.381 . S
O42 C41 1.258 . S
O43 Cd34 2.378 . S
O43 C41 1.256 . S
O44 Cd45 2.300 . S
O44 C51 1.275 . S
Cd45 O44 2.300 . S
Cd45 O53 2.381 . S
Cd45 O54 2.378 . S
O46 Cd47 2.385 . S
O46 C51 1.255 . S
Cd47 O46 2.385 . S
Cd47 O48 2.317 . S
O48 Cd47 2.317 . S
O48 C49 1.232 . S
C49 O48 1.232 . S
C49 O50 1.218 . S
O50 C49 1.218 . S
C51 O44 1.275 . S
C51 O46 1.255 . S
C52 O53 1.258 . S
C52 O54 1.256 . S
O53 Cd45 2.381 . S
O53 C52 1.258 . S
O54 Cd45 2.378 . S
O54 C52 1.256 . S
O55 Cd56 2.300 . S
O55 C62 1.275 . S
Cd56 O55 2.300 . S
Cd56 O64 2.381 . S
Cd56 O65 2.378 . S
O57 Cd58 2.385 . S
O57 C62 1.255 . S
Cd58 O57 2.385 . S
Cd58 O59 2.317 . S
O59 Cd58 2.317 . S
O59 C60 1.232 . S
C60 O59 1.232 . S
C60 O61 1.218 . S
O61 C60 1.218 . S
C62 O55 1.275 . S
C62 O57 1.255 . S
C63 O64 1.258 . S
C63 O65 1.256 . S
O64 Cd56 2.381 . S
O64 C63 1.258 . S
O65 Cd56 2.378 . S
O65 C63 1.256 . S
O66 Cd67 2.300 1_565 S
O66 C73 1.275 1_565 S
Cd67 O66 2.300 1_545 S
Cd67 O75 2.381 1_545 S
Cd67 O76 2.378 . S
O68 Cd69 2.385 . S
O68 C73 1.255 . S
Cd69 O68 2.385 . S
Cd69 O70 2.317 . S
O70 Cd69 2.317 . S
O70 C71 1.232 . S
C71 O70 1.232 . S
C71 O72 1.218 . S
O72 C71 1.218 . S
C73 O66 1.275 1_545 S
C73 O68 1.255 . S
C74 O75 1.258 1_545 S
C74 O76 1.256 . S
O75 Cd67 2.381 1_565 S
O75 C74 1.258 1_565 S
O76 Cd67 2.378 . S
O76 C74 1.256 . S
O77 Cd78 2.300 . S
O77 C84 1.275 . S
Cd78 O77 2.300 . S
Cd78 O86 2.381 . S
Cd78 O87 2.378 . S
O79 Cd80 2.385 . S
O79 C84 1.255 . S
Cd80 O79 2.385 . S
Cd80 O81 2.317 . S
O81 Cd80 2.317 . S
O81 C82 1.232 . S
C82 O81 1.232 . S
C82 O83 1.218 . S
O83 C82 1.218 . S
C84 O77 1.275 . S
C84 O79 1.255 . S
C85 O86 1.258 . S
C85 O87 1.256 . S
O86 Cd78 2.381 . S
O86 C85 1.258 . S
O87 Cd78 2.378 . S
O87 C85 1.256 . S
Co88 N93 2.057 . S
Co88 O105 2.021 . S
Co88 O108 2.062 . S
Co88 O112 2.117 1_455 S
Co88 O113 2.020 1_545 S
C89 O109 1.259 1_545 S
C89 O112 1.258 . S
Co90 N99 2.057 . S
Co90 O106 2.117 . S
Co90 O107 2.020 1_565 S
Co90 O109 2.021 1_455 S
Co90 O114 2.062 . S
C91 N93 1.316 . S
C91 N94 1.347 1_556 S
C91 H96 0.931 . S
C92 N93 1.375 1_554 S
C92 C95 1.350 . S
C92 H97 0.930 1_454 S
N93 Co88 2.057 . S
N93 C91 1.316 . S
N93 C92 1.375 1_556 S
N94 C91 1.347 1_554 S
N94 C95 1.373 . S
C95 C92 1.350 . S
C95 N94 1.373 . S
C95 H116 0.931 . S
H96 C91 0.931 . S
H97 C92 0.930 1_656 S
C98 O105 1.259 1_565 S
C98 O106 1.258 . S
N99 Co90 2.057 . S
N99 C100 1.316 1_455 S
N99 C101 1.375 . S
C100 N99 1.316 1_655 S
C100 N102 1.347 . S
C100 H111 0.931 . S
C101 N99 1.375 . S
C101 C103 1.350 . S
C101 H110 0.930 . S
N102 C100 1.347 . S
N102 C103 1.373 1_655 S
C103 C101 1.350 . S
C103 N102 1.373 1_455 S
C103 H117 0.931 . S
C104 O107 1.256 . S
C104 O108 1.255 . S
O105 Co88 2.021 . S
O105 C98 1.259 1_545 S
O106 Co90 2.117 . S
O106 C98 1.258 . S
O107 Co90 2.020 1_545 S
O107 C104 1.256 . S
O108 Co88 2.062 . S
O108 C104 1.255 . S
O109 C89 1.259 1_565 S
O109 Co90 2.021 1_655 S
H110 C101 0.930 . S
H111 C100 0.931 . S
O112 Co88 2.117 1_655 S
O112 C89 1.258 . S
O113 Co88 2.020 1_565 S
O113 C115 1.256 . S
O114 Co90 2.062 . S
O114 C115 1.255 . S
C115 O113 1.256 . S
C115 O114 1.255 . S
H116 C95 0.931 . S
H117 C103 0.931 . S
Co118 N123 2.057 1_545 S
Co118 O135 2.021 . S
Co118 O138 2.063 . S
Co118 O142 2.117 1_545 S
Co118 O143 2.020 . S
C119 O139 1.259 . S
C119 O142 1.258 . S
Co120 N129 2.057 1_565 S
Co120 O136 2.117 1_565 S
Co120 O137 2.020 . S
Co120 O139 2.021 . S
Co120 O144 2.061 . S
C121 N123 1.287 1_544 S
C121 N124 1.349 . S
C121 H126 0.930 1_554 S
C122 N123 1.405 1_554 S
C122 C125 1.350 . S
C122 H127 0.930 . S
N123 Co118 2.057 1_565 S
N123 C121 1.287 1_566 S
N123 C122 1.405 1_556 S
N124 C121 1.349 . S
N124 C125 1.373 1_545 S
C125 C122 1.350 . S
C125 N124 1.373 1_565 S
C125 H146 0.931 . S
H126 C121 0.930 1_556 S
H127 C122 0.930 . S
C128 O135 1.259 . S
C128 O136 1.258 . S
N129 Co120 2.057 1_545 S
N129 C130 1.316 1_545 S
N129 C131 1.375 . S
C130 N129 1.316 1_565 S
C130 N132 1.347 . S
C130 H141 0.931 . S
C131 N129 1.375 . S
C131 C133 1.350 . S
C131 H140 0.930 . S
N132 C130 1.347 . S
N132 C133 1.373 1_565 S
C133 C131 1.350 . S
C133 N132 1.373 1_545 S
C133 H147 0.931 . S
C134 O137 1.256 . S
C134 O138 1.252 1_565 S
O135 Co118 2.021 . S
O135 C128 1.259 . S
O136 Co120 2.117 1_545 S
O136 C128 1.258 . S
O137 Co120 2.020 . S
O137 C134 1.256 . S
O138 Co118 2.063 . S
O138 C134 1.252 1_545 S
O139 C119 1.259 . S
O139 Co120 2.021 . S
H140 C131 0.930 . S
H141 C130 0.931 . S
O142 Co118 2.117 1_565 S
O142 C119 1.258 . S
O143 Co118 2.020 . S
O143 C145 1.256 . S
O144 Co120 2.061 . S
O144 C145 1.255 1_565 S
C145 O143 1.256 . S
C145 O144 1.255 1_545 S
H146 C125 0.931 . S
H147 C133 0.931 . S
Co148 N153 2.057 . S
Co148 O165 2.021 . S
Co148 O168 2.062 . S
Co148 O172 2.117 . S
Co148 O173 2.020 . S
C149 O169 1.259 . S
C149 O172 1.258 . S
Co150 N159 2.057 . S
Co150 O166 2.117 . S
Co150 O167 2.020 . S
Co150 O169 2.021 . S
Co150 O174 2.062 . S
C151 N153 1.316 . S
C151 N154 1.347 . S
C151 H156 0.931 . S
C152 N153 1.375 . S
C152 C155 1.350 . S
C152 H157 0.930 . S
N153 Co148 2.057 . S
N153 C151 1.316 . S
N153 C152 1.375 . S
N154 C151 1.347 . S
N154 C155 1.373 . S
C155 C152 1.350 . S
C155 N154 1.373 . S
C155 H176 0.931 . S
H156 C151 0.931 . S
H157 C152 0.930 . S
C158 O165 1.259 . S
C158 O166 1.258 . S
N159 Co150 2.057 . S
N159 C160 1.316 . S
N159 C161 1.375 . S
C160 N159 1.316 . S
C160 N162 1.347 . S
C160 H171 0.931 . S
C161 N159 1.375 . S
C161 C163 1.350 . S
C161 H170 0.930 . S
N162 C160 1.347 . S
N162 C163 1.373 . S
C163 C161 1.350 . S
C163 N162 1.373 . S
C163 H177 0.931 . S
C164 O167 1.256 . S
C164 O168 1.255 . S
O165 Co148 2.021 . S
O165 C158 1.259 . S
O166 Co150 2.117 . S
O166 C158 1.258 . S
O167 Co150 2.020 . S
O167 C164 1.256 . S
O168 Co148 2.062 . S
O168 C164 1.255 . S
O169 C149 1.259 . S
O169 Co150 2.021 . S
H170 C161 0.930 . S
H171 C160 0.931 . S
O172 Co148 2.117 . S
O172 C149 1.258 . S
O173 Co148 2.020 . S
O173 C175 1.256 . S
O174 Co150 2.062 . S
O174 C175 1.255 . S
C175 O173 1.256 . S
C175 O174 1.255 . S
H176 C155 0.931 . S
H177 C163 0.931 . S
Co178 N183 2.057 . S
Co178 O195 2.021 1_455 S
Co178 O198 2.062 1_455 S
Co178 O202 2.117 . S
Co178 O203 2.020 . S
C179 O199 1.259 . S
C179 O202 1.258 . S
Co180 N189 2.057 . S
Co180 O196 2.117 1_455 S
Co180 O197 2.020 1_455 S
Co180 O199 2.021 . S
Co180 O204 2.062 . S
C181 N183 1.316 . S
C181 N184 1.347 . S
C181 H186 0.931 1_455 S
C182 N183 1.375 . S
C182 C185 1.350 . S
C182 H187 0.930 . S
N183 Co178 2.057 . S
N183 C181 1.316 . S
N183 C182 1.375 . S
N184 C181 1.347 . S
N184 C185 1.373 . S
C185 C182 1.350 . S
C185 N184 1.373 . S
C185 H206 0.931 . S
H186 C181 0.931 1_655 S
H187 C182 0.930 . S
C188 O195 1.259 . S
C188 O196 1.258 . S
N189 Co180 2.057 . S
N189 C190 1.316 . S
N189 C191 1.375 1_455 S
C190 N189 1.316 . S
C190 N192 1.347 . S
C190 H201 0.931 . S
C191 N189 1.375 1_655 S
C191 C193 1.350 1_655 S
C191 H200 0.930 . S
N192 C190 1.347 . S
N192 C193 1.373 . S
C193 C191 1.350 1_455 S
C193 N192 1.373 . S
C193 H207 0.931 1_455 S
C194 O197 1.256 . S
C194 O198 1.255 . S
O195 Co178 2.021 1_655 S
O195 C188 1.259 . S
O196 Co180 2.117 1_655 S
O196 C188 1.258 . S
O197 Co180 2.020 1_655 S
O197 C194 1.256 . S
O198 Co178 2.062 1_655 S
O198 C194 1.255 . S
O199 C179 1.259 . S
O199 Co180 2.021 . S
H200 C191 0.930 . S
H201 C190 0.931 . S
O202 Co178 2.117 . S
O202 C179 1.258 . S
O203 Co178 2.020 . S
O203 C205 1.256 . S
O204 Co180 2.062 . S
O204 C205 1.255 . S
C205 O203 1.256 . S
C205 O204 1.255 . S
H206 C185 0.931 . S
H207 C193 0.931 1_655 S
H208 C214 0.930 . S
H209 C218 0.930 . S
H210 C223 0.929 . S
H211 C221 0.929 . S
H212 C216 0.929 . S
H213 C222 0.929 . S
C214 H208 0.930 . S
C214 C215 1.388 . S
C214 C222 1.378 . S
C215 C214 1.388 . S
C215 C223 1.411 1_565 S
C216 H212 0.929 . S
C216 C218 1.378 . S
C216 C220 1.350 1_545 S
C217 C220 1.463 . S
C217 C222 1.350 . S
C217 N225 1.427 1_565 S
C218 H209 0.930 . S
C218 C216 1.378 . S
C218 C219 1.367 1_545 S
C219 C218 1.367 1_565 S
C219 C221 1.433 . S
C220 C216 1.350 1_565 S
C220 C217 1.463 . S
C220 N224 1.427 . S
C221 H211 0.929 . S
C221 C219 1.433 . S
C221 N224 1.384 . S
C222 H213 0.929 . S
C222 C214 1.378 . S
C222 C217 1.350 . S
C223 H210 0.929 . S
C223 C215 1.411 1_545 S
C223 N225 1.384 . S
N224 C220 1.427 . S
N224 C221 1.384 . S
N225 C217 1.427 1_545 S
N225 C223 1.384 . S
H226 C232 0.930 . S
H227 C236 0.930 . S
H228 C241 0.929 . S
H229 C239 0.929 . S
H230 C234 0.929 . S
H231 C240 0.929 . S
C232 H226 0.930 . S
C232 C233 1.367 . S
C232 C240 1.378 . S
C233 C232 1.367 . S
C233 C241 1.433 . S
C234 H230 0.929 . S
C234 C236 1.378 . S
C234 C238 1.350 . S
C235 C238 1.463 . S
C235 C240 1.350 . S
C235 N243 1.427 . S
C236 H227 0.930 . S
C236 C234 1.378 . S
C236 C237 1.367 . S
C237 C236 1.367 . S
C237 C239 1.433 . S
C238 C234 1.350 . S
C238 C235 1.463 . S
C238 N242 1.427 . S
C239 H229 0.929 . S
C239 C237 1.433 . S
C239 N242 1.384 . S
C240 H231 0.929 . S
C240 C232 1.378 . S
C240 C235 1.350 . S
C241 H228 0.929 . S
C241 C233 1.433 . S
C241 N243 1.384 . S
N242 C238 1.427 . S
N242 C239 1.384 . S
N243 C235 1.427 . S
N243 C241 1.384 . S
H244 C250 0.930 . S
H245 C254 0.930 . S
H246 C259 0.929 . S
H247 C257 0.929 . S
H248 C252 0.929 . S
H249 C258 0.929 . S
C250 H244 0.930 . S
C250 C251 1.367 . S
C250 C258 1.378 . S
C251 C250 1.367 . S
C251 C259 1.433 . S
C252 H248 0.929 . S
C252 C254 1.378 . S
C252 C256 1.350 . S
C253 C256 1.463 . S
C253 C258 1.350 . S
C253 N261 1.427 . S
C254 H245 0.930 . S
C254 C252 1.378 . S
C254 C255 1.367 . S
C255 C254 1.367 . S
C255 C257 1.433 . S
C256 C252 1.350 . S
C256 C253 1.463 . S
C256 N260 1.427 . S
C257 H247 0.929 . S
C257 C255 1.433 . S
C257 N260 1.384 . S
C258 H249 0.929 . S
C258 C250 1.378 . S
C258 C253 1.350 . S
C259 H246 0.929 . S
C259 C251 1.433 . S
C259 N261 1.384 . S
N260 C256 1.427 . S
N260 C257 1.384 . S
N261 C253 1.427 . S
N261 C259 1.384 . S
H262 C268 0.930 . S
H263 C272 0.930 . S
H264 C277 0.929 . S
H265 C275 0.929 . S
H266 C270 0.929 . S
H267 C276 0.929 . S
C268 H262 0.930 . S
C268 C269 1.367 . S
C268 C276 1.378 . S
C269 C268 1.367 . S
C269 C277 1.433 . S
C270 H266 0.929 . S
C270 C272 1.378 . S
C270 C274 1.350 . S
C271 C274 1.463 . S
C271 C276 1.350 . S
C271 N279 1.427 . S
C272 H263 0.930 . S
C272 C270 1.378 . S
C272 C273 1.367 . S
C273 C272 1.367 . S
C273 C275 1.433 . S
C274 C270 1.350 . S
C274 C271 1.463 . S
C274 N278 1.427 . S
C275 H265 0.929 . S
C275 C273 1.433 . S
C275 N278 1.384 . S
C276 H267 0.929 . S
C276 C268 1.378 . S
C276 C271 1.350 . S
C277 H264 0.929 . S
C277 C269 1.433 . S
C277 N279 1.384 . S
N278 C274 1.427 . S
N278 C275 1.384 . S
N279 C271 1.427 . S
N279 C277 1.384 . S
H280 C286 0.930 . S
H281 C290 0.930 . S
H282 C295 0.929 . S
H283 C293 0.929 . S
H284 C288 0.929 . S
H285 C294 0.929 . S
C286 H280 0.930 . S
C286 C287 1.367 . S
C286 C294 1.378 . S
C287 C286 1.367 . S
C287 C295 1.433 1_545 S
C288 H284 0.929 . S
C288 C290 1.378 . S
C288 C292 1.350 1_565 S
C289 C292 1.463 . S
C289 C294 1.350 . S
C289 N297 1.427 1_545 S
C290 H281 0.930 . S
C290 C288 1.378 . S
C290 C291 1.367 1_565 S
C291 C290 1.367 1_545 S
C291 C293 1.433 . S
C292 C288 1.350 1_545 S
C292 C289 1.463 . S
C292 N296 1.427 . S
C293 H283 0.929 . S
C293 C291 1.433 . S
C293 N296 1.384 . S
C294 H285 0.929 . S
C294 C286 1.378 . S
C294 C289 1.350 . S
C295 H282 0.929 . S
C295 C287 1.433 1_565 S
C295 N297 1.384 . S
N296 C292 1.427 . S
N296 C293 1.384 . S
N297 C289 1.427 1_565 S
N297 C295 1.384 . S
H298 C304 0.930 . S
H299 C308 0.930 . S
H300 C313 0.929 . S
H301 C311 0.929 . S
H302 C306 0.929 . S
H303 C312 0.929 . S
C304 H298 0.930 . S
C304 C305 1.367 . S
C304 C312 1.378 . S
C305 C304 1.367 . S
C305 C313 1.433 1_554 S
C306 H302 0.929 . S
C306 C308 1.378 . S
C306 C310 1.350 . S
C307 C310 1.463 . S
C307 C312 1.350 1_556 S
C307 N315 1.427 . S
C308 H299 0.930 . S
C308 C306 1.378 . S
C308 C309 1.367 . S
C309 C308 1.367 . S
C309 C311 1.433 . S
C310 C306 1.350 . S
C310 C307 1.463 . S
C310 N314 1.427 . S
C311 H301 0.929 . S
C311 C309 1.433 . S
C311 N314 1.384 . S
C312 H303 0.929 . S
C312 C304 1.378 . S
C312 C307 1.350 1_554 S
C313 H300 0.929 . S
C313 C305 1.433 1_556 S
C313 N315 1.384 . S
N314 C310 1.427 . S
N314 C311 1.384 . S
N315 C307 1.427 . S
N315 C313 1.384 . S
H316 C322 0.930 . S
H317 C326 0.930 . S
H318 C331 0.929 . S
H319 C329 0.929 . S
H320 C324 0.929 . S
H321 C330 0.929 . S
C322 H316 0.930 . S
C322 C323 1.367 . S
C322 C330 1.378 . S
C323 C322 1.367 . S
C323 C331 1.433 . S
C324 H320 0.929 . S
C324 C326 1.378 . S
C324 C328 1.350 . S
C325 C328 1.463 1_554 S
C325 C330 1.350 . S
C325 N333 1.427 . S
C326 H317 0.930 . S
C326 C324 1.378 . S
C326 C327 1.367 . S
C327 C326 1.367 . S
C327 C329 1.433 . S
C328 C324 1.350 . S
C328 C325 1.463 1_556 S
C328 N332 1.427 . S
C329 H319 0.929 . S
C329 C327 1.433 . S
C329 N332 1.384 . S
C330 H321 0.929 . S
C330 C322 1.378 . S
C330 C325 1.350 . S
C331 H318 0.929 . S
C331 C323 1.433 . S
C331 N333 1.384 . S
N332 C328 1.427 . S
N332 C329 1.384 . S
N333 C325 1.427 . S
N333 C331 1.384 . S
H334 C340 0.930 . S
H335 C344 0.930 . S
H336 C349 0.929 . S
H337 C347 0.929 . S
H338 C342 0.929 . S
H339 C348 0.929 . S
C340 H334 0.930 . S
C340 C341 1.367 . S
C340 C348 1.378 . S
C341 C340 1.367 . S
C341 C349 1.433 1_554 S
C342 H338 0.929 . S
C342 C344 1.378 1_655 S
C342 C346 1.350 . S
C343 C346 1.463 . S
C343 C348 1.350 1_556 S
C343 N351 1.427 . S
C344 H335 0.930 . S
C344 C342 1.378 1_455 S
C344 C345 1.367 1_455 S
C345 C344 1.367 1_655 S
C345 C347 1.433 . S
C346 C342 1.350 . S
C346 C343 1.463 . S
C346 N350 1.427 . S
C347 H337 0.929 . S
C347 C345 1.433 . S
C347 N350 1.384 . S
C348 H339 0.929 . S
C348 C340 1.378 . S
C348 C343 1.350 1_554 S
C349 H336 0.929 . S
C349 C341 1.433 1_556 S
C349 N351 1.384 . S
N350 C346 1.427 . S
N350 C347 1.384 . S
N351 C343 1.427 . S
N351 C349 1.384 . S
H352 C358 0.930 . S
H353 C362 0.930 . S
H354 C367 0.929 . S
H355 C365 0.929 1_655 S
H356 C360 0.929 . S
H357 C366 0.929 . S
C358 H352 0.930 . S
C358 C359 1.367 . S
C358 C366 1.378 . S
C359 C358 1.367 . S
C359 C367 1.433 . S
C360 H356 0.929 . S
C360 C362 1.378 . S
C360 C364 1.350 . S
C361 C364 1.463 . S
C361 C366 1.350 . S
C361 N369 1.427 . S
C362 H353 0.930 . S
C362 C360 1.378 . S
C362 C363 1.367 . S
C363 C362 1.367 . S
C363 C365 1.433 . S
C364 C360 1.350 . S
C364 C361 1.463 . S
C364 N368 1.427 . S
C365 H355 0.929 1_455 S
C365 C363 1.433 . S
C365 N368 1.384 . S
C366 H357 0.929 . S
C366 C358 1.378 . S
C366 C361 1.350 . S
C367 H354 0.929 . S
C367 C359 1.433 . S
C367 N369 1.384 . S
N368 C364 1.427 . S
N368 C365 1.384 . S
N369 C361 1.427 . S
N369 C367 1.384 . S
H370 C376 0.930 . S
H371 C380 0.930 . S
H372 C385 0.929 . S
H373 C383 0.929 . S
H374 C378 0.929 . S
H375 C384 0.929 . S
C376 H370 0.930 . S
C376 C377 1.374 . S
C376 C384 1.378 . S
C377 C376 1.374 . S
C377 C385 1.425 1_545 S
C378 H374 0.929 . S
C378 C380 1.378 . S
C378 C382 1.350 . S
C379 C382 1.463 . S
C379 C384 1.350 1_565 S
C379 N387 1.427 . S
C380 H371 0.930 . S
C380 C378 1.378 . S
C380 C381 1.367 . S
C381 C380 1.367 . S
C381 C383 1.433 1_565 S
C382 C378 1.350 . S
C382 C379 1.463 . S
C382 N386 1.427 1_565 S
C383 H373 0.929 . S
C383 C381 1.433 1_545 S
C383 N386 1.384 . S
C384 H375 0.929 . S
C384 C376 1.378 . S
C384 C379 1.350 1_545 S
C385 H372 0.929 . S
C385 C377 1.425 1_565 S
C385 N387 1.384 . S
N386 C382 1.427 1_545 S
N386 C383 1.384 . S
N387 C379 1.427 . S
N387 C385 1.384 . S
H388 C394 0.930 . S
H389 C398 0.930 . S
H390 C403 0.929 . S
H391 C401 0.929 . S
H392 C396 0.929 . S
H393 C402 0.929 . S
C394 H388 0.930 . S
C394 C395 1.367 . S
C394 C402 1.378 . S
C395 C394 1.367 . S
C395 C403 1.433 . S
C396 H392 0.929 . S
C396 C398 1.378 . S
C396 C400 1.350 . S
C397 C400 1.463 . S
C397 C402 1.350 . S
C397 N405 1.427 . S
C398 H389 0.930 . S
C398 C396 1.378 . S
C398 C399 1.367 . S
C399 C398 1.367 . S
C399 C401 1.433 . S
C400 C396 1.350 . S
C400 C397 1.463 . S
C400 N404 1.427 . S
C401 H391 0.929 . S
C401 C399 1.433 . S
C401 N404 1.384 . S
C402 H393 0.929 . S
C402 C394 1.378 . S
C402 C397 1.350 . S
C403 H390 0.929 . S
C403 C395 1.433 . S
C403 N405 1.384 . S
N404 C400 1.427 . S
N404 C401 1.384 . S
N405 C397 1.427 . S
N405 C403 1.384 . S
H406 C412 0.930 . S
H407 C416 0.930 . S
H408 C421 0.929 . S
H409 C419 0.929 . S
H410 C414 0.929 . S
H411 C420 0.929 . S
C412 H406 0.930 . S
C412 C413 1.367 . S
C412 C420 1.378 . S
C413 C412 1.367 . S
C413 C421 1.433 . S
C414 H410 0.929 . S
C414 C416 1.378 . S
C414 C418 1.350 . S
C415 C418 1.463 . S
C415 C420 1.350 . S
C415 N423 1.427 . S
C416 H407 0.930 . S
C416 C414 1.378 . S
C416 C417 1.367 . S
C417 C416 1.367 . S
C417 C419 1.433 . S
C418 C414 1.350 . S
C418 C415 1.463 . S
C418 N422 1.427 . S
C419 H409 0.929 . S
C419 C417 1.433 . S
C419 N422 1.384 . S
C420 H411 0.929 . S
C420 C412 1.378 . S
C420 C415 1.350 . S
C421 H408 0.929 . S
C421 C413 1.433 . S
C421 N423 1.384 . S
N422 C418 1.427 . S
N422 C419 1.384 . S
N423 C415 1.427 . S
N423 C421 1.384 . S
H424 C430 0.930 . S
H425 C434 0.930 . S
H426 C439 0.929 . S
H427 C437 0.929 . S
H428 C432 0.929 . S
H429 C438 0.929 1_456 S
C430 H424 0.930 . S
C430 C431 1.367 . S
C430 C438 1.378 . S
C431 C430 1.367 . S
C431 C439 1.433 . S
C432 H428 0.929 . S
C432 C434 1.378 . S
C432 C436 1.350 . S
C433 C436 1.463 . S
C433 C438 1.350 1_556 S
C433 N441 1.427 1_556 S
C434 H425 0.930 . S
C434 C432 1.378 . S
C434 C435 1.367 1_655 S
C435 C434 1.367 1_455 S
C435 C437 1.433 . S
C436 C432 1.350 . S
C436 C433 1.463 . S
C436 N440 1.427 1_655 S
C437 H427 0.929 . S
C437 C435 1.433 . S
C437 N440 1.384 . S
C438 H429 0.929 1_654 S
C438 C430 1.378 . S
C438 C433 1.350 1_554 S
C439 H426 0.929 . S
C439 C431 1.433 . S
C439 N441 1.384 . S
N440 C436 1.427 1_455 S
N440 C437 1.384 . S
N441 C433 1.427 1_554 S
N441 C439 1.384 . S
H442 C448 0.930 . S
H443 C452 0.930 . S
H444 C457 0.929 . S
H445 C455 0.929 . S
H446 C450 0.929 . S
H447 C456 0.929 . S
C448 H442 0.930 . S
C448 C449 1.389 . S
C448 C456 1.378 . S
C449 C448 1.389 . S
C449 C457 1.410 1_544 S
C450 H446 0.929 . S
C450 C452 1.378 . S
C450 C454 1.350 1_565 S
C451 C454 1.463 . S
C451 C456 1.350 1_556 S
C451 N459 1.427 1_545 S
C452 H443 0.930 . S
C452 C450 1.378 . S
C452 C453 1.367 1_565 S
C453 C452 1.367 1_545 S
C453 C455 1.433 . S
C454 C450 1.350 1_545 S
C454 C451 1.463 . S
C454 N458 1.427 . S
C455 H445 0.929 . S
C455 C453 1.433 . S
C455 N458 1.384 . S
C456 H447 0.929 . S
C456 C448 1.378 . S
C456 C451 1.350 1_554 S
C457 H444 0.929 . S
C457 C449 1.410 1_566 S
C457 N459 1.384 . S
N458 C454 1.427 . S
N458 C455 1.384 . S
N459 C451 1.427 1_565 S
N459 C457 1.384 . S
H460 C466 0.930 . S
H461 C470 0.930 1_554 S
H462 C475 0.929 . S
H463 C473 0.929 . S
H464 C468 0.929 . S
H465 C474 0.929 . S
C466 H460 0.930 . S
C466 C467 1.367 1_556 S
C466 C474 1.378 . S
C467 C466 1.367 1_554 S
C467 C475 1.433 . S
C468 H464 0.929 . S
C468 C470 1.378 1_554 S
C468 C472 1.350 1_554 S
C469 C472 1.470 . S
C469 C474 1.358 . S
C469 N477 1.411 1_556 S
C470 H461 0.930 1_556 S
C470 C468 1.378 1_556 S
C470 C471 1.367 . S
C471 C470 1.367 . S
C471 C473 1.433 . S
C472 C468 1.350 1_556 S
C472 C469 1.470 . S
C472 N476 1.427 . S
C473 H463 0.929 . S
C473 C471 1.433 . S
C473 N476 1.384 . S
C474 H465 0.929 . S
C474 C466 1.378 . S
C474 C469 1.358 . S
C475 H462 0.929 . S
C475 C467 1.433 . S
C475 N477 1.384 . S
N476 C472 1.427 . S
N476 C473 1.384 . S
N477 C469 1.411 1_554 S
N477 C475 1.384 . S
H478 C484 0.930 . S
H479 C488 0.930 1_554 S
H480 C493 0.929 . S
H481 C491 0.929 . S
H482 C486 0.929 . S
H483 C492 0.929 . S
C484 H478 0.930 . S
C484 C485 1.367 . S
C484 C492 1.378 1_554 S
C485 C484 1.367 . S
C485 C493 1.433 . S
C486 H482 0.929 . S
C486 C488 1.378 1_554 S
C486 C490 1.350 1_554 S
C487 C490 1.463 1_554 S
C487 C492 1.350 1_554 S
C487 N495 1.427 . S
C488 H479 0.930 1_556 S
C488 C486 1.378 1_556 S
C488 C489 1.367 . S
C489 C488 1.367 . S
C489 C491 1.433 . S
C490 C486 1.350 1_556 S
C490 C487 1.463 1_556 S
C490 N494 1.427 . S
C491 H481 0.929 . S
C491 C489 1.433 . S
C491 N494 1.384 . S
C492 H483 0.929 . S
C492 C484 1.378 1_556 S
C492 C487 1.350 1_556 S
C493 H480 0.929 . S
C493 C485 1.433 . S
C493 N495 1.384 . S
N494 C490 1.427 . S
N494 C491 1.384 . S
N495 C487 1.427 . S
N495 C493 1.384 . S
H496 C502 0.930 . S
H497 C506 0.930 . S
H498 C511 0.929 . S
H499 C509 0.929 . S
H500 C504 0.929 . S
H501 C510 0.929 . S
C502 H496 0.930 . S
C502 C503 1.367 . S
C502 C510 1.378 . S
C503 C502 1.367 . S
C503 C511 1.433 . S
C504 H500 0.929 . S
C504 C506 1.378 . S
C504 C508 1.350 . S
C505 C508 1.463 . S
C505 C510 1.350 . S
C505 N513 1.427 . S
C506 H497 0.930 . S
C506 C504 1.378 . S
C506 C507 1.367 . S
C507 C506 1.367 . S
C507 C509 1.433 . S
C508 C504 1.350 . S
C508 C505 1.463 . S
C508 N512 1.427 . S
C509 H499 0.929 . S
C509 C507 1.433 . S
C509 N512 1.384 . S
C510 H501 0.929 . S
C510 C502 1.378 . S
C510 C505 1.350 . S
C511 H498 0.929 . S
C511 C503 1.433 . S
C511 N513 1.384 . S
N512 C508 1.427 . S
N512 C509 1.384 . S
N513 C505 1.427 . S
N513 C511 1.384 . S
H514 C520 0.930 . S
H515 C524 0.930 . S
H516 C529 0.929 . S
H517 C527 0.929 . S
H518 C522 0.929 . S
H519 C528 0.929 . S
C520 H514 0.930 . S
C520 C521 1.348 1_565 S
C520 C528 1.378 . S
C521 C520 1.348 1_545 S
C521 C529 1.451 . S
C522 H518 0.929 . S
C522 C524 1.378 . S
C522 C526 1.350 . S
C523 C526 1.463 . S
C523 C528 1.350 1_545 S
C523 N531 1.427 . S
C524 H515 0.930 . S
C524 C522 1.378 . S
C524 C525 1.367 . S
C525 C524 1.367 . S
C525 C527 1.433 1_545 S
C526 C522 1.350 . S
C526 C523 1.463 . S
C526 N530 1.427 1_545 S
C527 H517 0.929 . S
C527 C525 1.433 1_565 S
C527 N530 1.384 . S
C528 H519 0.929 . S
C528 C520 1.378 . S
C528 C523 1.350 1_565 S
C529 H516 0.929 . S
C529 C521 1.451 . S
C529 N531 1.384 . S
N530 C526 1.427 1_565 S
N530 C527 1.384 . S
N531 C523 1.427 . S
N531 C529 1.384 . S
H532 C538 0.930 . S
H533 C542 0.930 . S
H534 C547 0.929 . S
H535 C545 0.929 . S
H536 C540 0.929 . S
H537 C546 0.929 . S
C538 H532 0.930 . S
C538 C539 1.367 . S
C538 C546 1.378 . S
C539 C538 1.367 . S
C539 C547 1.433 . S
C540 H536 0.929 . S
C540 C542 1.378 . S
C540 C544 1.350 . S
C541 C544 1.463 . S
C541 C546 1.350 . S
C541 N549 1.427 . S
C542 H533 0.930 . S
C542 C540 1.378 . S
C542 C543 1.377 . S
C543 C542 1.377 . S
C543 C545 1.430 1_554 S
C544 C540 1.350 . S
C544 C541 1.463 . S
C544 N548 1.427 . S
C545 H535 0.929 . S
C545 C543 1.430 1_556 S
C545 N548 1.384 1_556 S
C546 H537 0.929 . S
C546 C538 1.378 . S
C546 C541 1.350 . S
C547 H534 0.929 . S
C547 C539 1.433 . S
C547 N549 1.384 . S
N548 C544 1.427 . S
N548 C545 1.384 1_554 S
N549 C541 1.427 . S
N549 C547 1.384 . S
H550 C556 0.930 . S
H551 C560 0.930 . S
H552 C565 0.929 . S
H553 C563 0.929 . S
H554 C558 0.929 . S
H555 C564 0.929 . S
C556 H550 0.930 . S
C556 C557 1.367 . S
C556 C564 1.378 . S
C557 C556 1.367 . S
C557 C565 1.433 . S
C558 H554 0.929 . S
C558 C560 1.378 . S
C558 C562 1.350 . S
C559 C562 1.463 . S
C559 C564 1.350 . S
C559 N567 1.427 . S
C560 H551 0.930 . S
C560 C558 1.378 . S
C560 C561 1.367 1_554 S
C561 C560 1.367 1_556 S
C561 C563 1.433 . S
C562 C558 1.350 . S
C562 C559 1.463 . S
C562 N566 1.427 . S
C563 H553 0.929 . S
C563 C561 1.433 . S
C563 N566 1.384 1_556 S
C564 H555 0.929 . S
C564 C556 1.378 . S
C564 C559 1.350 . S
C565 H552 0.929 . S
C565 C557 1.433 . S
C565 N567 1.384 . S
N566 C562 1.427 . S
N566 C563 1.384 1_554 S
N567 C559 1.427 . S
N567 C565 1.384 . S
H568 C574 0.930 . S
H569 C578 0.930 1_455 S
H570 C583 0.929 . S
H571 C581 0.929 . S
H572 C576 0.929 1_455 S
H573 C582 0.929 . S
C574 H568 0.930 . S
C574 C575 1.367 . S
C574 C582 1.378 . S
C575 C574 1.367 . S
C575 C583 1.433 . S
C576 H572 0.929 1_655 S
C576 C578 1.378 . S
C576 C580 1.350 . S
C577 C580 1.463 . S
C577 C582 1.350 . S
C577 N585 1.427 . S
C578 H569 0.930 1_655 S
C578 C576 1.378 . S
C578 C579 1.367 . S
C579 C578 1.367 . S
C579 C581 1.433 . S
C580 C576 1.350 . S
C580 C577 1.463 . S
C580 N584 1.427 . S
C581 H571 0.929 . S
C581 C579 1.433 . S
C581 N584 1.384 . S
C582 H573 0.929 . S
C582 C574 1.378 . S
C582 C577 1.350 . S
C583 H570 0.929 . S
C583 C575 1.433 . S
C583 N585 1.384 . S
N584 C580 1.427 . S
N584 C581 1.384 . S
N585 C577 1.427 . S
N585 C583 1.384 . S
H586 C592 0.930 . S
H587 C596 0.930 . S
H588 C601 0.929 . S
H589 C599 0.929 . S
H590 C594 0.929 . S
H591 C600 0.929 . S
C592 H586 0.930 . S
C592 C593 1.358 1_545 S
C592 C600 1.378 . S
C593 C592 1.358 1_565 S
C593 C601 1.442 . S
C594 H590 0.929 . S
C594 C596 1.378 . S
C594 C598 1.350 . S
C595 C598 1.463 . S
C595 C600 1.350 1_565 S
C595 N603 1.427 . S
C596 H587 0.930 . S
C596 C594 1.378 . S
C596 C597 1.367 . S
C597 C596 1.367 . S
C597 C599 1.433 1_565 S
C598 C594 1.350 . S
C598 C595 1.463 . S
C598 N602 1.427 1_565 S
C599 H589 0.929 . S
C599 C597 1.433 1_545 S
C599 N602 1.384 . S
C600 H591 0.929 . S
C600 C592 1.378 . S
C600 C595 1.350 1_545 S
C601 H588 0.929 . S
C601 C593 1.442 . S
C601 N603 1.384 . S
N602 C598 1.427 1_545 S
N602 C599 1.384 . S
N603 C595 1.427 . S
N603 C601 1.384 . S
H604 C610 0.930 . S
H605 C614 0.930 . S
H606 C619 0.929 . S
H607 C617 0.929 . S
H608 C612 0.929 . S
H609 C618 0.929 . S
C610 H604 0.930 . S
C610 C611 1.367 . S
C610 C618 1.378 . S
C611 C610 1.367 . S
C611 C619 1.433 . S
C612 H608 0.929 . S
C612 C614 1.378 . S
C612 C616 1.350 . S
C613 C616 1.463 . S
C613 C618 1.350 . S
C613 N621 1.427 . S
C614 H605 0.930 . S
C614 C612 1.378 . S
C614 C615 1.367 . S
C615 C614 1.367 . S
C615 C617 1.433 . S
C616 C612 1.350 . S
C616 C613 1.463 . S
C616 N620 1.427 . S
C617 H607 0.929 . S
C617 C615 1.433 . S
C617 N620 1.384 . S
C618 H609 0.929 . S
C618 C610 1.378 . S
C618 C613 1.350 . S
C619 H606 0.929 . S
C619 C611 1.433 . S
C619 N621 1.384 . S
N620 C616 1.427 . S
N620 C617 1.384 . S
N621 C613 1.427 . S
N621 C619 1.384 . S
H622 C628 0.930 . S
H623 C632 0.930 . S
H624 C637 0.929 . S
H625 C635 0.929 . S
H626 C630 0.929 . S
H627 C636 0.929 . S
C628 H622 0.930 . S
C628 C629 1.367 . S
C628 C636 1.378 . S
C629 C628 1.367 . S
C629 C637 1.433 . S
C630 H626 0.929 . S
C630 C632 1.378 . S
C630 C634 1.350 . S
C631 C634 1.463 . S
C631 C636 1.350 . S
C631 N639 1.427 . S
C632 H623 0.930 . S
C632 C630 1.378 . S
C632 C633 1.367 . S
C633 C632 1.367 . S
C633 C635 1.433 . S
C634 C630 1.350 . S
C634 C631 1.463 . S
C634 N638 1.427 . S
C635 H625 0.929 . S
C635 C633 1.433 . S
C635 N638 1.384 . S
C636 H627 0.929 . S
C636 C628 1.378 . S
C636 C631 1.350 . S
C637 H624 0.929 . S
C637 C629 1.433 . S
C637 N639 1.384 . S
N638 C634 1.427 . S
N638 C635 1.384 . S
N639 C631 1.427 . S
N639 C637 1.384 . S
C215 C74 1.635 1_565 S
C219 C98 1.638 . S
C237 C128 1.783 . S
C233 C85 1.777 . S
C255 N162 1.337 . S
C251 C52 1.379 . S
C273 N192 1.418 . S
C269 C63 1.458 . S
C291 C89 1.637 . S
C287 C30 1.624 1_556 S
C305 C41 1.746 . S
C309 C119 1.786 . S
C323 C8 1.375 . S
C327 N154 1.343 . S
C341 C19 1.417 . S
C345 N184 1.431 1_655 S
C363 C104 0.473 . S
C359 C62 0.428 . S
C381 C134 0.799 . S
C377 C73 0.793 . S
C399 C175 1.092 . S
C395 C84 1.098 . S
C413 C51 0.599 . S
C417 C205 0.582 . S
C431 C18 0.560 . S
C435 C115 0.468 . S
C453 C145 0.785 . S
C449 C29 0.788 . S
C471 C164 1.093 . S
C467 C40 1.053 . S
C485 C7 0.613 . S
C489 C194 0.598 . S
C503 C60 1.329 . S
C507 N94 1.471 . S
C521 C71 1.224 . S
C525 N124 1.415 . S
C543 C149 1.646 1_554 S
C539 C82 1.456 . S
C561 C179 1.575 . S
C557 C49 1.328 . S
C575 C16 1.205 . S
C579 N102 1.479 . S
C597 N132 1.417 . S
C593 C27 1.217 1_565 S
C615 C158 1.654 . S
C611 C38 1.341 . S
C629 C5 1.312 . S
C633 C188 1.575 . S
