# Generated by pormake.
# Topology sit, (3,6)-cn, num edge types: 1
# Building blocks:
#     Node 0, Type 0, BuildingBlock: OLANEW_clean_sbu_2, # of connection points: 3
#     Node 1, Type 0, BuildingBlock: OLANEW_clean_sbu_2, # of connection points: 3
#     Node 2, Type 0, BuildingBlock: OLANEW_clean_sbu_2, # of connection points: 3
#     Node 3, Type 0, BuildingBlock: OLANEW_clean_sbu_2, # of connection points: 3
#     Node 4, Type 1, BuildingBlock: MIDCAF_clean_sbu_0, # of connection points: 6
#     Node 5, Type 1, BuildingBlock: MIDCAF_clean_sbu_0, # of connection points: 6
#     Edge 6, Type (0, 1), BuildingBlock: FUNLAD_clean_linker_0, # of connection points: 2
#     Edge 7, Type (0, 1), BuildingBlock: FUNLAD_clean_linker_0, # of connection points: 2
#     Edge 8, Type (0, 1), BuildingBlock: FUNLAD_clean_linker_0, # of connection points: 2
#     Edge 9, Type (0, 1), BuildingBlock: FUNLAD_clean_linker_0, # of connection points: 2
#     Edge 10, Type (0, 1), BuildingBlock: FUNLAD_clean_linker_0, # of connection points: 2
#     Edge 11, Type (0, 1), BuildingBlock: FUNLAD_clean_linker_0, # of connection points: 2
#     Edge 12, Type (0, 1), BuildingBlock: FUNLAD_clean_linker_0, # of connection points: 2
#     Edge 13, Type (0, 1), BuildingBlock: FUNLAD_clean_linker_0, # of connection points: 2
#     Edge 14, Type (0, 1), BuildingBlock: FUNLAD_clean_linker_0, # of connection points: 2
#     Edge 15, Type (0, 1), BuildingBlock: FUNLAD_clean_linker_0, # of connection points: 2
#     Edge 16, Type (0, 1), BuildingBlock: FUNLAD_clean_linker_0, # of connection points: 2
#     Edge 17, Type (0, 1), BuildingBlock: FUNLAD_clean_linker_0, # of connection points: 2
# Relax obj value: 0.079
# Max RMSD: 0.183
# Mean RMSD: 0.111
data_MOF--net-sit--node1-OLANEW_clean_sbu_2--node2-MIDCAF_clean_sbu_0--edge1-FUNLAD_clean_linker_0
_symmetry_space_group_name_H-M    P1
_symmetry_Int_Tables_number       1
_symmetry_cell_setting            triclinic
loop_
_symmetry_equiv_pos_as_xyz
'x, y, z'
_cell_length_a     25.788508
_cell_length_b     40.843924
_cell_length_c     45.228991
_cell_angle_alpha  89.397817
_cell_angle_beta   83.712594
_cell_angle_gamma 84.07583
loop_
_atom_site_label
_atom_site_type_symbol
_atom_site_fract_x
_atom_site_fract_y
_atom_site_fract_z
_atom_type_partial_charge
O0 O 0.19314 0.25564 0.0007 0.0
Cd1 Cd 0.14442 0.20688 0.00473 0.0
O2 O 0.12596 0.2893 0.01951 0.0
Cd3 Cd 0.08359 0.33833 0.02693 0.0
O4 O 0.0234 0.37975 0.02408 0.0
C5 C 0.03184 0.40473 0.00794 0.0
O6 O 0.07887 0.4065 0.99392 0.0
C7 C 0.17313 0.28469 0.00766 0.0
C8 C 0.13941 0.17181 0.05818 0.0
O9 O 0.17848 0.16594 0.0382 0.0
O10 O 0.10389 0.19497 0.05328 0.0
O11 O 0.16562 0.65277 0.11977 0.0
Cd12 Cd 0.12372 0.68111 0.16469 0.0
O13 O 0.09339 0.66589 0.09921 0.0
Cd14 Cd 0.04122 0.66445 0.0645 0.0
O15 O 0.9843 0.661 0.03283 0.0
C16 C 0.98117 0.63366 0.02035 0.0
O17 O 0.01337 0.608 0.0264 0.0
C18 C 0.14003 0.65192 0.09741 0.0
C19 C 0.12992 0.74893 0.16311 0.0
O20 O 0.16732 0.7289 0.17123 0.0
O21 O 0.08953 0.73689 0.15527 0.0
O22 O 0.72623 0.7498 0.49482 0.0
Cd23 Cd 0.69166 0.69586 0.4952 0.0
O24 O 0.64738 0.7764 0.49802 0.0
Cd25 Cd 0.59309 0.82141 0.5001 0.0
O26 O 0.53482 0.86416 0.50014 0.0
C27 C 0.542 0.88885 0.48339 0.0
O28 O 0.58621 0.88901 0.46596 0.0
C29 C 0.69691 0.77683 0.49485 0.0
C30 C 0.65478 0.66906 0.54963 0.0
O31 O 0.70335 0.6641 0.53946 0.0
O32 O 0.62418 0.68763 0.53458 0.0
O33 O 0.55332 0.19452 0.55584 0.0
Cd34 Cd 0.47088 0.22809 0.57236 0.0
O35 O 0.5865 0.23453 0.52958 0.0
Cd36 Cd 0.50904 0.26115 0.5297 0.0
O37 O 0.43646 0.25176 0.51242 0.0
C38 C 0.43853 0.22249 0.50278 0.0
O39 O 0.4815 0.20265 0.50472 0.0
C40 C 0.59179 0.20556 0.54022 0.0
C41 C 0.48616 0.27603 0.61329 0.0
O42 O 0.47686 0.24694 0.62169 0.0
O43 O 0.4877 0.28267 0.58549 0.0
Zn44 Zn 0.01335 0.08627 0.35615 0.0
Zn45 Zn 0.10113 0.96431 0.37388 0.0
Zn46 Zn 0.055 0.02436 0.36582 0.0
C47 C 0.09375 0.97185 0.31293 0.0
C48 C 0.00104 0.96825 0.40576 0.0
O49 O 0.10238 0.05899 0.38454 0.0
O50 O 0.06774 0.10909 0.37381 0.0
C51 C 0.03583 0.05724 0.30079 0.0
O52 O 0.0712 1.00026 0.32168 0.0
O53 O 0.11122 0.95137 0.33144 0.0
O54 O 0.04255 0.94897 0.40072 0.0
O55 O -0.00216 0.99727 0.39419 0.0
O56 O 0.0148 0.08385 0.31266 0.0
O57 O 0.05294 0.03315 0.31701 0.0
O58 O 0.97689 0.0302 0.39175 0.0
O59 O 0.94633 0.08099 0.3806 0.0
C60 C 0.9404 0.05435 0.39438 0.0
O61 O 0.12864 0.0272 0.387 0.0
O62 O 0.1626 0.97561 0.392 0.0
C63 C 0.10185 0.09055 0.38575 0.0
C64 C 0.16488 0.006 0.39521 0.0
Zn65 Zn 0.52229 0.57828 0.85682 0.0
Zn66 Zn 0.59123 0.44942 0.86402 0.0
Zn67 Zn 0.55532 0.51277 0.85817 0.0
C68 C 0.57559 0.46198 0.80362 0.0
C69 C 0.49217 0.45956 0.89703 0.0
O70 O 0.61471 0.54064 0.87424 0.0
O71 O 0.58243 0.59315 0.87608 0.0
C72 C 0.54078 0.5537 0.79762 0.0
O73 O 0.5607 0.49138 0.81326 0.0
O74 O 0.59128 0.43972 0.82114 0.0
O75 O 0.53085 0.43794 0.89232 0.0
O76 O 0.49417 0.48858 0.88574 0.0
O77 O 0.52568 0.57944 0.81276 0.0
O78 O 0.55273 0.52618 0.81069 0.0
O79 O 0.47931 0.52289 0.88628 0.0
O80 O 0.45363 0.57582 0.88063 0.0
C81 C 0.44556 0.54819 0.89198 0.0
O82 O 0.63094 0.50705 0.87855 0.0
O83 O 0.65884 0.45393 0.87921 0.0
C84 C 0.61907 0.57102 0.87992 0.0
C85 C 0.66519 0.48336 0.88467 0.0
C86 C 0.08682 0.15422 0.10431 0.0
C87 C 0.1342 0.15158 0.08553 0.0
C88 C 0.08074 0.13435 0.12951 0.0
C89 C 0.12201 0.11131 0.1366 0.0
C90 C 0.16977 0.10915 0.11823 0.0
C91 C 0.17568 0.12882 0.09275 0.0
C92 C 0.11712 0.0912 0.16419 0.0
C93 C 0.07098 0.0813 0.17593 0.0
C94 C 0.06157 0.06856 0.20675 0.0
C95 C 0.0112 0.07543 0.22187 0.0
C96 C 0.00206 0.06941 0.25228 0.0
C97 C 0.04276 0.05554 0.26808 0.0
H98 H 0.14043 0.04576 0.21091 0.0
C99 C 0.09201 0.04572 0.25259 0.0
C100 C 0.10153 0.05234 0.22209 0.0
H101 H 0.12401 0.03503 0.2644 0.0
H102 H 0.05415 0.17158 0.09948 0.0
H103 H 0.04401 0.13767 0.14373 0.0
H104 H 0.20245 0.09204 0.12347 0.0
H105 H 0.21277 0.12628 0.07879 0.0
H106 H 0.15187 0.08608 0.17569 0.0
H107 H 0.03689 0.0863 0.16381 0.0
H108 H 0.97955 0.08754 0.21057 0.0
H109 H 0.96371 0.07712 0.26379 0.0
C110 C 0.08676 0.80694 0.16351 0.0
C111 C 0.13216 0.78493 0.16472 0.0
C112 C 0.08748 0.84047 0.16946 0.0
C113 C 0.1338 0.85255 0.17659 0.0
C114 C 0.17998 0.83091 0.17534 0.0
C115 C 0.17914 0.79745 0.16971 0.0
C116 C 0.13503 0.88613 0.18873 0.0
C117 C 0.09332 0.90278 0.2045 0.0
C118 C 0.09874 0.92739 0.22771 0.0
C119 C 0.05481 0.94892 0.2386 0.0
C120 C 0.05458 0.96622 0.26523 0.0
C121 C 0.09799 0.96167 0.28157 0.0
H122 H 0.17807 0.90859 0.23597 0.0
C123 C 0.14319 0.94219 0.26961 0.0
C124 C 0.14376 0.92534 0.24295 0.0
H125 H 0.17713 0.93833 0.28188 0.0
H126 H 0.05009 0.79808 0.15931 0.0
H127 H 0.05144 0.85653 0.16925 0.0
H128 H 0.21634 0.83952 0.18048 0.0
H129 H 0.21498 0.78122 0.17035 0.0
H130 H 0.17344 0.89472 0.18903 0.0
H131 H 0.05442 0.8951 0.20386 0.0
H132 H 0.0195 0.95079 0.22747 0.0
H133 H 0.01912 0.98097 0.27419 0.0
C134 C 0.66808 0.63344 0.59436 0.0
C135 C 0.63422 0.65295 0.57738 0.0
C136 C 0.64837 0.61774 0.62024 0.0
C137 C 0.59412 0.62097 0.62959 0.0
C138 C 0.56049 0.64053 0.61255 0.0
C139 C 0.5802 0.65629 0.58679 0.0
C140 C 0.57108 0.60652 0.65785 0.0
C141 C 0.59646 0.58325 0.674 0.0
C142 C 0.57566 0.57275 0.70439 0.0
C143 C 0.60131 0.54511 0.71754 0.0
C144 C 0.58786 0.5373 0.74748 0.0
C145 C 0.5484 0.55702 0.76486 0.0
H146 H 0.51383 0.61324 0.71306 0.0
C147 C 0.52088 0.58351 0.75132 0.0
C148 C 0.53436 0.5914 0.7216 0.0
H149 H 0.4903 0.59924 0.76416 0.0
H150 H 0.70996 0.63045 0.58777 0.0
H151 H 0.67609 0.60378 0.63299 0.0
H152 H 0.51864 0.64382 0.61926 0.0
H153 H 0.55296 0.67106 0.57422 0.0
H154 H 0.53111 0.61594 0.66553 0.0
H155 H 0.63477 0.57181 0.66516 0.0
H156 H 0.6334 0.53031 0.70498 0.0
H157 H 0.61045 0.51709 0.7574 0.0
C158 C 0.50418 0.33323 0.62593 0.0
C159 C 0.4964 0.30085 0.63494 0.0
C160 C 0.51652 0.3561 0.64625 0.0
C161 C 0.52141 0.34691 0.67595 0.0
C162 C 0.51298 0.3147 0.68492 0.0
C163 C 0.50033 0.29199 0.66474 0.0
C164 C 0.53849 0.36914 0.6979 0.0
C165 C 0.53344 0.4023 0.69642 0.0
C166 C 0.55018 0.42209 0.72036 0.0
C167 C 0.51875 0.45042 0.73139 0.0
C168 C 0.52917 0.46549 0.75754 0.0
C169 C 0.57139 0.45244 0.77269 0.0
H170 H 0.62155 0.39032 0.72524 0.0
C171 C 0.60562 0.42617 0.75991 0.0
C172 C 0.59536 0.41129 0.73393 0.0
H173 H 0.63901 0.41602 0.77086 0.0
H174 H 0.50156 0.34079 0.60307 0.0
H175 H 0.52376 0.3805 0.63837 0.0
H176 H 0.51671 0.30691 0.70764 0.0
H177 H 0.49466 0.26727 0.67242 0.0
H178 H 0.55419 0.35735 0.71716 0.0
H179 H 0.51306 0.41498 0.67917 0.0
H180 H 0.48418 0.4595 0.72099 0.0
H181 H 0.50223 0.48577 0.76695 0.0
C182 C 0.23474 0.31276 0.97221 0.0
C183 C 0.20347 0.31279 -0.00037 0.0
C184 C 0.26457 0.33879 0.96444 0.0
C185 C 0.26463 0.36508 0.98424 0.0
C186 C 0.23369 0.36503 0.01179 0.0
C187 C 0.20259 0.33934 0.01923 0.0
C188 C 0.30075 0.39078 0.97741 0.0
C189 C 0.30958 0.40323 0.94986 0.0
C190 C 0.35419 0.42258 0.94046 0.0
C191 C 0.35034 0.44523 0.91702 0.0
C192 C 0.39473 0.45927 0.90414 0.0
C193 C 0.44388 0.45019 0.91407 0.0
H194 H 0.40755 0.39726 0.96916 0.0
C195 C 0.44736 0.42861 0.93829 0.0
C196 C 0.40289 0.41515 0.95156 0.0
H197 H 0.48494 0.42116 0.94624 0.0
H198 H 0.2361 0.29254 0.95673 0.0
H199 H 0.28906 0.33774 0.94335 0.0
H200 H 0.23376 0.38479 0.02757 0.0
H201 H 0.17921 0.33969 0.04066 0.0
H202 H 0.32185 0.39862 0.99517 0.0
H203 H 0.28487 0.39755 0.93299 0.0
H204 H 0.31335 0.45111 0.90791 0.0
H205 H 0.3912 0.47564 0.8853 0.0
C206 C 0.93256 0.59952 0.98926 0.0
C207 C 0.93984 0.6304 0.00064 0.0
C208 C 0.89151 0.59617 0.9721 0.0
C209 C 0.85713 0.62379 0.96571 0.0
C210 C 0.86495 0.65467 0.97679 0.0
C211 C 0.90588 0.65799 0.99398 0.0
C212 C 0.81074 0.62119 0.94941 0.0
C213 C 0.80596 0.59591 0.93137 0.0
C214 C 0.7577 0.59241 0.91702 0.0
C215 C 0.76133 0.5725 0.89161 0.0
C216 C 0.71624 0.56635 0.87897 0.0
C217 C 0.6667 0.57984 0.89166 0.0
H218 H 0.70307 0.62139 0.9492 0.0
C219 C 0.66289 0.60065 0.91638 0.0
C220 C 0.7079 0.60664 0.92919 0.0
H221 H 0.62492 0.61118 0.92655 0.0
H222 H 0.95781 0.57773 0.99417 0.0
H223 H 0.88607 0.57174 0.9648 0.0
H224 H 0.83891 0.67631 0.97241 0.0
H225 H 0.91037 0.68215 0.00239 0.0
H226 H 0.77975 0.64138 0.9521 0.0
H227 H 0.83874 0.57719 0.92635 0.0
H228 H 0.79905 0.56109 0.88187 0.0
H229 H 0.71996 0.55049 0.85965 0.0
C230 C 0.99457 0.45359 0.98013 0.0
C231 C 0.98745 0.42893 0.0017 0.0
C232 C 0.95134 0.47297 0.97086 0.0
C233 C 0.90009 0.46793 0.98291 0.0
C234 C 0.89345 0.44526 0.00622 0.0
C235 C 0.93658 0.42585 0.01543 0.0
C236 C 0.85271 0.48311 0.96996 0.0
C237 C 0.85308 0.48985 0.9407 0.0
C238 C 0.8046 0.4932 0.92553 0.0
C239 C 0.80739 0.4802 0.89673 0.0
C240 C 0.76189 0.47807 0.88312 0.0
C241 C 0.71287 0.48985 0.89766 0.0
H242 H 0.75226 0.51731 0.96153 0.0
C243 C 0.70994 0.50477 0.92568 0.0
C244 C 0.75556 0.50636 0.93963 0.0
H245 H 0.67231 0.51407 0.93717 0.0
H246 H 0.03333 0.45702 0.96948 0.0
H247 H 0.95814 0.49111 0.95363 0.0
H248 H 0.85449 0.44113 0.01617 0.0
H249 H 0.92972 0.40744 0.03243 0.0
H250 H 0.81535 0.48314 0.98364 0.0
H251 H 0.89001 0.48693 0.92647 0.0
H252 H 0.84462 0.47003 0.88532 0.0
H253 H 0.76485 0.46649 0.86146 0.0
C254 C 0.20194 0.60747 0.07168 0.0
C255 C 0.16463 0.63483 0.06999 0.0
C256 C 0.22813 0.59252 0.04581 0.0
C257 C 0.21763 0.6048 0.01763 0.0
C258 C 0.17987 0.63196 0.01607 0.0
C259 C 0.15366 0.64683 0.04193 0.0
C260 C 0.24892 0.59259 0.98962 0.0
C261 C 0.27807 0.56316 0.98661 0.0
C262 C 0.31638 0.55468 0.96007 0.0
C263 C 0.36158 0.53321 0.96347 0.0
C264 C 0.4027 0.5292 0.94048 0.0
C265 C 0.39894 0.54636 0.91363 0.0
H266 H 0.27581 0.5849 0.92808 0.0
C267 C 0.35215 0.56567 0.90935 0.0
C268 C 0.31098 0.56949 0.93217 0.0
H269 H 0.34813 0.5788 0.88865 0.0
H270 H 0.21151 0.59793 0.09308 0.0
H271 H 0.25796 0.57233 0.04818 0.0
H272 H 0.17163 0.64234 0.99472 0.0
H273 H 0.1267 0.66864 0.03987 0.0
H274 H 0.24989 0.6098 0.97118 0.0
H275 H 0.27767 0.54594 0.00504 0.0
H276 H 0.36651 0.52111 0.98456 0.0
H277 H 0.43862 0.51442 0.94442 0.0
C278 C 0.76873 0.81244 0.49976 0.0
C279 C 0.72068 0.80804 0.48929 0.0
C280 C 0.79416 0.84039 0.49182 0.0
C281 C 0.77212 0.8645 0.473 0.0
C282 C 0.72379 0.86015 0.46284 0.0
C283 C 0.69829 0.83227 0.47092 0.0
C284 C 0.80131 0.89213 0.46074 0.0
C285 C 0.83968 0.90394 0.47413 0.0
C286 C 0.87781 0.925 0.45863 0.0
C287 C 0.92927 0.92119 0.46633 0.0
C288 C 0.96867 0.9365 0.44975 0.0
C289 C 0.95729 0.95666 0.42549 0.0
H290 H 0.82598 0.95099 0.42937 0.0
C291 C 0.90516 0.9626 0.41899 0.0
C292 C 0.86561 0.94674 0.43536 0.0
H293 H 0.89547 0.97815 0.40041 0.0
H294 H 0.78728 0.79385 0.51354 0.0
H295 H 0.8322 0.84204 0.49932 0.0
H296 H 0.70643 0.87788 0.44784 0.0
H297 H 0.66247 0.82889 0.46143 0.0
H298 H 0.79304 0.90133 0.43896 0.0
H299 H 0.84755 0.89486 0.496 0.0
H300 H 0.9397 0.90489 0.48429 0.0
H301 H 0.00853 0.9318 0.4554 0.0
C302 C 0.39766 0.17795 0.47942 0.0
C303 C 0.39441 0.21076 0.48903 0.0
C304 C 0.3569 0.16656 0.4659 0.0
C305 C 0.31164 0.18771 0.46184 0.0
C306 C 0.30856 0.22062 0.47113 0.0
C307 C 0.34941 0.23203 0.48479 0.0
C308 C 0.26824 0.17636 0.44691 0.0
C309 C 0.25733 0.1448 0.44777 0.0
C310 C 0.21566 0.13248 0.43207 0.0
C311 C 0.19422 0.10381 0.44262 0.0
C312 C 0.1565 0.09061 0.42779 0.0
C313 C 0.14054 0.10526 0.40168 0.0
H314 H 0.21529 0.1693 0.39695 0.0
C315 C 0.16127 0.13419 0.39124 0.0
C316 C 0.19876 0.14764 0.40619 0.0
H317 H 0.14933 0.14599 0.37115 0.0
H318 H 0.43198 0.16097 0.48209 0.0
H319 H 0.36164 0.14136 0.4581 0.0
H320 H 0.27435 0.23749 0.46795 0.0
H321 H 0.3459 0.25751 0.4918 0.0
H322 H 0.24368 0.19477 0.43585 0.0
H323 H 0.27861 0.1272 0.46139 0.0
H324 H 0.20645 0.09167 0.4625 0.0
H325 H 0.13928 0.06912 0.43692 0.0
C326 C 0.50197 0.93935 0.45898 0.0
C327 C 0.49887 0.91543 0.4815 0.0
C328 C 0.45853 0.96184 0.45492 0.0
C329 C 0.41113 0.96095 0.47353 0.0
C330 C 0.4094 0.93826 0.49711 0.0
C331 C 0.45261 0.91577 0.50104 0.0
C332 C 0.36088 0.97981 0.46733 0.0
C333 C 0.35568 1.00293 0.44599 0.0
C334 C 0.30405 0.01312 0.43502 0.0
C335 C 0.30269 0.02073 0.40471 0.0
C336 C 0.25551 0.02199 0.39191 0.0
C337 C 0.20918 0.01597 0.40938 0.0
H338 H 0.25528 0.00683 0.47671 0.0
C339 C 0.20948 0.01173 0.44012 0.0
C340 C 0.25633 0.01102 0.453 0.0
H341 H 0.17395 0.00702 0.45392 0.0
H342 H 0.53719 0.93984 0.44362 0.0
H343 H 0.462 0.97862 0.43637 0.0
H344 H 0.37364 0.93695 0.51189 0.0
H345 H 0.44906 0.89791 0.51884 0.0
H346 H 0.3258 0.97141 0.47919 0.0
H347 H 0.39012 0.01119 0.43339 0.0
H348 H 0.33872 0.02291 0.3904 0.0
H349 H 0.25602 0.02492 0.36804 0.0
C350 C 0.64085 0.14922 0.53431 0.0
C351 C 0.64007 0.18359 0.53108 0.0
C352 C 0.68261 0.12819 0.52045 0.0
C353 C 0.72449 0.14128 0.50332 0.0
C354 C 0.72528 0.1756 0.50201 0.0
C355 C 0.68363 0.19652 0.51569 0.0
C356 C 0.76446 0.12087 0.48343 0.0
C357 C 0.774 0.0878 0.48412 0.0
C358 C 0.81085 0.07107 0.46026 0.0
C359 C 0.85507 0.05054 0.46703 0.0
C360 C 0.8962 0.04176 0.44468 0.0
C361 C 0.89292 0.05332 0.41548 0.0
H362 H 0.77095 0.09446 0.42465 0.0
C363 C 0.84608 0.07058 0.40832 0.0
C364 C 0.80533 0.07927 0.43047 0.0
H365 H 0.84248 0.07949 0.3859 0.0
H366 H 0.6078 0.13848 0.54603 0.0
H367 H 0.68026 0.10193 0.52183 0.0
H368 H 0.75715 0.18639 0.48911 0.0
H369 H 0.68452 0.22285 0.51299 0.0
H370 H 0.78667 0.13408 0.46617 0.0
H371 H 0.75667 0.07336 0.50214 0.0
H372 H 0.85977 0.04371 0.48987 0.0
H373 H 0.93213 0.02856 0.45073 0.0
loop_
_geom_bond_atom_site_label_1
_geom_bond_atom_site_label_2
_geom_bond_distance
_geom_bond_site_symmetry_2
_ccdc_geom_bond_type
O0 Cd1 2.300 . S
O0 C7 1.275 . S
Cd1 O0 2.300 . S
Cd1 O9 2.381 . S
Cd1 O10 2.378 . S
O2 Cd3 2.385 . S
O2 C7 1.255 . S
Cd3 O2 2.385 . S
Cd3 O4 2.317 . S
O4 Cd3 2.317 . S
O4 C5 1.232 1_554 S
C5 O4 1.232 1_556 S
C5 O6 1.218 . S
O6 C5 1.218 . S
C7 O0 1.275 . S
C7 O2 1.255 . S
C8 O9 1.258 . S
C8 O10 1.256 . S
O9 Cd1 2.381 . S
O9 C8 1.258 . S
O10 Cd1 2.378 . S
O10 C8 1.256 . S
O11 Cd12 2.300 . S
O11 C18 1.275 . S
Cd12 O11 2.300 . S
Cd12 O20 2.381 . S
Cd12 O21 2.378 1_455 S
O13 Cd14 2.361 1_454 S
O13 C18 1.277 . S
Cd14 O13 2.361 1_656 S
Cd14 O15 2.317 1_556 S
O15 Cd14 2.317 1_554 S
O15 C16 1.232 1_554 S
C16 O15 1.232 1_556 S
C16 O17 1.218 . S
O17 C16 1.218 . S
C18 O11 1.275 . S
C18 O13 1.277 . S
C19 O20 1.258 . S
C19 O21 1.256 1_455 S
O20 Cd12 2.381 . S
O20 C19 1.258 . S
O21 Cd12 2.378 1_655 S
O21 C19 1.256 1_655 S
O22 Cd23 2.300 . S
O22 C29 1.275 . S
Cd23 O22 2.300 . S
Cd23 O31 2.381 . S
Cd23 O32 2.378 . S
O24 Cd25 2.385 . S
O24 C29 1.255 . S
Cd25 O24 2.385 . S
Cd25 O26 2.317 . S
O26 Cd25 2.317 . S
O26 C27 1.232 . S
C27 O26 1.232 . S
C27 O28 1.218 . S
O28 C27 1.218 . S
C29 O22 1.275 . S
C29 O24 1.255 . S
C30 O31 1.258 . S
C30 O32 1.256 . S
O31 Cd23 2.381 . S
O31 C30 1.258 . S
O32 Cd23 2.378 . S
O32 C30 1.256 . S
O33 Cd34 2.300 . S
O33 C40 1.275 . S
Cd34 O33 2.300 . S
Cd34 O42 2.381 . S
Cd34 O43 2.378 . S
O35 Cd36 2.385 . S
O35 C40 1.255 . S
Cd36 O35 2.385 . S
Cd36 O37 2.317 . S
O37 Cd36 2.317 . S
O37 C38 1.232 . S
C38 O37 1.232 . S
C38 O39 1.218 . S
O39 C38 1.218 . S
C40 O33 1.275 . S
C40 O35 1.255 . S
C41 O42 1.258 . S
C41 O43 1.256 . S
O42 Cd34 2.381 . S
O42 C41 1.258 . S
O43 Cd34 2.378 . S
O43 C41 1.256 . S
Zn44 O50 1.920 . S
Zn44 O56 1.898 . S
Zn44 O59 1.905 1_455 S
Zn45 O53 1.905 . S
Zn45 O54 1.898 . S
Zn45 O62 1.920 . S
Zn46 O49 2.080 . S
Zn46 O52 2.114 1_545 S
Zn46 O55 2.120 1_545 S
Zn46 O57 2.120 . S
Zn46 O58 2.114 . S
Zn46 O61 2.080 1_545 S
C47 O52 1.166 . S
C47 O53 1.182 . S
C48 O54 1.167 . S
C48 O55 1.299 . S
O49 Zn46 2.080 . S
O49 C63 1.305 . S
O50 Zn44 1.920 . S
O50 C63 1.234 . S
C51 O56 1.167 . S
C51 O57 1.299 . S
O52 Zn46 2.114 1_565 S
O52 C47 1.166 . S
O53 Zn45 1.905 . S
O53 C47 1.182 . S
O54 Zn45 1.898 . S
O54 C48 1.167 . S
O55 Zn46 2.120 1_565 S
O55 C48 1.299 . S
O56 Zn44 1.898 . S
O56 C51 1.167 . S
O57 Zn46 2.120 . S
O57 C51 1.299 . S
O58 Zn46 2.114 . S
O58 C60 1.166 1_455 S
O59 Zn44 1.905 1_655 S
O59 C60 1.182 . S
C60 O58 1.166 1_655 S
C60 O59 1.182 . S
O61 Zn46 2.080 1_565 S
O61 C64 1.305 . S
O62 Zn45 1.920 . S
O62 C64 1.234 . S
C63 O49 1.305 . S
C63 O50 1.234 . S
C64 O61 1.305 . S
C64 O62 1.234 . S
Zn65 O71 1.920 . S
Zn65 O77 1.898 . S
Zn65 O80 1.905 . S
Zn66 O74 1.905 . S
Zn66 O75 1.898 . S
Zn66 O83 1.920 . S
Zn67 O70 2.080 . S
Zn67 O73 2.114 . S
Zn67 O76 2.120 . S
Zn67 O78 2.120 . S
Zn67 O79 2.114 . S
Zn67 O82 2.080 . S
C68 O73 1.166 . S
C68 O74 1.182 . S
C69 O75 1.167 . S
C69 O76 1.299 . S
O70 Zn67 2.080 . S
O70 C84 1.305 . S
O71 Zn65 1.920 . S
O71 C84 1.234 . S
C72 O77 1.167 . S
C72 O78 1.299 . S
O73 Zn67 2.114 . S
O73 C68 1.166 . S
O74 Zn66 1.905 . S
O74 C68 1.182 . S
O75 Zn66 1.898 . S
O75 C69 1.167 . S
O76 Zn67 2.120 . S
O76 C69 1.299 . S
O77 Zn65 1.898 . S
O77 C72 1.167 . S
O78 Zn67 2.120 . S
O78 C72 1.299 . S
O79 Zn67 2.114 . S
O79 C81 1.166 . S
O80 Zn65 1.905 . S
O80 C81 1.182 . S
C81 O79 1.166 . S
C81 O80 1.182 . S
O82 Zn67 2.080 . S
O82 C85 1.305 . S
O83 Zn66 1.920 . S
O83 C85 1.234 . S
C84 O70 1.305 . S
C84 O71 1.234 . S
C85 O82 1.305 . S
C85 O83 1.234 . S
C86 C87 1.386 . S
C86 C88 1.383 . S
C86 H102 0.951 . S
C87 C86 1.386 . S
C87 C91 1.383 . S
C88 C86 1.383 . S
C88 C89 1.402 . S
C88 H103 0.951 . S
C89 C88 1.402 . S
C89 C90 1.375 . S
C89 C92 1.481 . S
C90 C89 1.375 . S
C90 C91 1.367 . S
C90 H104 0.951 . S
C91 C87 1.383 . S
C91 C90 1.367 . S
C91 H105 0.950 . S
C92 C89 1.481 . S
C92 C93 1.297 . S
C92 H106 0.950 . S
C93 C92 1.297 . S
C93 C94 1.479 . S
C93 H107 0.950 . S
C94 C93 1.479 . S
C94 C95 1.375 . S
C94 C100 1.404 . S
C95 C94 1.375 . S
C95 C96 1.369 . S
C95 H108 0.950 . S
C96 C95 1.369 . S
C96 C97 1.392 . S
C96 H109 0.951 . S
C97 C96 1.392 . S
C97 C99 1.384 . S
H98 C100 0.949 . S
C99 C97 1.384 . S
C99 C100 1.385 . S
C99 H101 0.950 . S
C100 C94 1.404 . S
C100 H98 0.949 . S
C100 C99 1.385 . S
H101 C99 0.950 . S
H102 C86 0.951 . S
H103 C88 0.951 . S
H104 C90 0.951 . S
H105 C91 0.950 . S
H106 C92 0.950 . S
H107 C93 0.950 . S
H108 C95 0.950 . S
H109 C96 0.951 . S
C110 C111 1.386 1_655 S
C110 C112 1.383 . S
C110 H126 0.951 . S
C111 C110 1.386 1_455 S
C111 C115 1.383 . S
C112 C110 1.383 . S
C112 C113 1.402 1_655 S
C112 H127 0.951 . S
C113 C112 1.402 1_455 S
C113 C114 1.375 . S
C113 C116 1.481 . S
C114 C113 1.375 . S
C114 C115 1.367 . S
C114 H128 0.951 . S
C115 C111 1.383 . S
C115 C114 1.367 . S
C115 H129 0.950 . S
C116 C113 1.481 . S
C116 C117 1.297 . S
C116 H130 0.950 . S
C117 C116 1.297 . S
C117 C118 1.479 . S
C117 H131 0.950 1_455 S
C118 C117 1.479 . S
C118 C119 1.376 1_455 S
C118 C124 1.404 . S
C119 C118 1.376 1_655 S
C119 C120 1.369 1_655 S
C119 H132 0.950 . S
C120 C119 1.369 1_455 S
C120 C121 1.392 . S
C120 H133 0.954 . S
C121 C120 1.392 . S
C121 C123 1.384 . S
H122 C124 0.949 . S
C123 C121 1.384 . S
C123 C124 1.385 . S
C123 H125 0.950 . S
C124 C118 1.404 . S
C124 H122 0.949 . S
C124 C123 1.385 . S
H125 C123 0.950 . S
H126 C110 0.951 . S
H127 C112 0.951 . S
H128 C114 0.951 . S
H129 C115 0.950 . S
H130 C116 0.950 . S
H131 C117 0.950 1_655 S
H132 C119 0.950 . S
H133 C120 0.954 . S
C134 C135 1.386 . S
C134 C136 1.383 . S
C134 H150 0.951 . S
C135 C134 1.386 . S
C135 C139 1.383 . S
C136 C134 1.383 . S
C136 C137 1.402 . S
C136 H151 0.951 . S
C137 C136 1.402 . S
C137 C138 1.375 . S
C137 C140 1.481 . S
C138 C137 1.375 . S
C138 C139 1.367 . S
C138 H152 0.951 . S
C139 C135 1.383 . S
C139 C138 1.367 . S
C139 H153 0.950 . S
C140 C137 1.481 . S
C140 C141 1.297 . S
C140 H154 0.950 . S
C141 C140 1.297 . S
C141 C142 1.479 . S
C141 H155 0.950 . S
C142 C141 1.479 . S
C142 C143 1.375 . S
C142 C148 1.404 . S
C143 C142 1.375 . S
C143 C144 1.369 . S
C143 H156 0.950 . S
C144 C143 1.369 . S
C144 C145 1.392 . S
C144 H157 0.951 . S
C145 C144 1.392 . S
C145 C147 1.384 . S
H146 C148 0.949 . S
C147 C145 1.384 . S
C147 C148 1.385 . S
C147 H149 0.950 . S
C148 C142 1.404 . S
C148 H146 0.949 . S
C148 C147 1.385 . S
H149 C147 0.950 . S
H150 C134 0.951 . S
H151 C136 0.951 . S
H152 C138 0.951 . S
H153 C139 0.950 . S
H154 C140 0.950 . S
H155 C141 0.950 . S
H156 C143 0.950 . S
H157 C144 0.951 . S
C158 C159 1.386 . S
C158 C160 1.383 . S
C158 H174 0.951 . S
C159 C158 1.386 . S
C159 C163 1.383 . S
C160 C158 1.383 . S
C160 C161 1.402 . S
C160 H175 0.951 . S
C161 C160 1.402 . S
C161 C162 1.375 . S
C161 C164 1.481 . S
C162 C161 1.375 . S
C162 C163 1.367 . S
C162 H176 0.951 . S
C163 C159 1.383 . S
C163 C162 1.367 . S
C163 H177 0.950 . S
C164 C161 1.481 . S
C164 C165 1.297 . S
C164 H178 0.950 . S
C165 C164 1.297 . S
C165 C166 1.479 . S
C165 H179 0.950 . S
C166 C165 1.479 . S
C166 C167 1.375 . S
C166 C172 1.404 . S
C167 C166 1.375 . S
C167 C168 1.369 . S
C167 H180 0.950 . S
C168 C167 1.369 . S
C168 C169 1.392 . S
C168 H181 0.951 . S
C169 C168 1.392 . S
C169 C171 1.384 . S
H170 C172 0.949 . S
C171 C169 1.384 . S
C171 C172 1.385 . S
C171 H173 0.950 . S
C172 C166 1.404 . S
C172 H170 0.949 . S
C172 C171 1.385 . S
H173 C171 0.950 . S
H174 C158 0.951 . S
H175 C160 0.951 . S
H176 C162 0.951 . S
H177 C163 0.950 . S
H178 C164 0.950 . S
H179 C165 0.950 . S
H180 C167 0.950 . S
H181 C168 0.951 . S
C182 C183 1.386 . S
C182 C184 1.383 . S
C182 H198 0.951 . S
C183 C182 1.386 . S
C183 C187 1.383 1_556 S
C184 C182 1.383 . S
C184 C185 1.402 . S
C184 H199 0.951 . S
C185 C184 1.402 . S
C185 C186 1.375 1_556 S
C185 C188 1.481 . S
C186 C185 1.375 1_554 S
C186 C187 1.367 . S
C186 H200 0.951 . S
C187 C183 1.383 1_554 S
C187 C186 1.367 . S
C187 H201 0.950 . S
C188 C185 1.481 . S
C188 C189 1.297 . S
C188 H202 0.950 . S
C189 C188 1.297 . S
C189 C190 1.479 . S
C189 H203 0.950 . S
C190 C189 1.479 . S
C190 C191 1.375 . S
C190 C196 1.404 . S
C191 C190 1.375 . S
C191 C192 1.369 . S
C191 H204 0.950 . S
C192 C191 1.369 . S
C192 C193 1.392 . S
C192 H205 0.951 . S
C193 C192 1.392 . S
C193 C195 1.384 . S
H194 C196 0.949 . S
C195 C193 1.384 . S
C195 C196 1.385 . S
C195 H197 0.950 . S
C196 C190 1.404 . S
C196 H194 0.949 . S
C196 C195 1.385 . S
H197 C195 0.950 . S
H198 C182 0.951 . S
H199 C184 0.951 . S
H200 C186 0.951 . S
H201 C187 0.950 . S
H202 C188 0.950 . S
H203 C189 0.950 . S
H204 C191 0.950 . S
H205 C192 0.951 . S
C206 C207 1.386 1_554 S
C206 C208 1.383 1_554 S
C206 H222 0.951 . S
C207 C206 1.386 1_556 S
C207 C211 1.383 . S
C208 C206 1.383 1_556 S
C208 C209 1.402 . S
C208 H223 0.951 1_556 S
C209 C208 1.402 . S
C209 C210 1.375 . S
C209 C212 1.481 . S
C210 C209 1.375 . S
C210 C211 1.367 . S
C210 H224 0.951 . S
C211 C207 1.383 . S
C211 C210 1.367 . S
C211 H225 0.950 . S
C212 C209 1.481 . S
C212 C213 1.297 . S
C212 H226 0.950 . S
C213 C212 1.297 . S
C213 C214 1.479 . S
C213 H227 0.950 . S
C214 C213 1.479 . S
C214 C215 1.375 . S
C214 C220 1.404 . S
C215 C214 1.375 . S
C215 C216 1.369 . S
C215 H228 0.950 . S
C216 C215 1.369 . S
C216 C217 1.392 . S
C216 H229 0.951 . S
C217 C216 1.392 . S
C217 C219 1.384 . S
H218 C220 0.949 . S
C219 C217 1.384 . S
C219 C220 1.385 . S
C219 H221 0.950 . S
C220 C214 1.404 . S
C220 H218 0.949 . S
C220 C219 1.385 . S
H221 C219 0.950 . S
H222 C206 0.951 . S
H223 C208 0.951 1_554 S
H224 C210 0.951 . S
H225 C211 0.950 . S
H226 C212 0.950 . S
H227 C213 0.950 . S
H228 C215 0.950 . S
H229 C216 0.951 . S
C230 C231 1.386 1_655 S
C230 C232 1.383 . S
C230 H246 0.951 . S
C231 C230 1.386 1_455 S
C231 C235 1.383 1_455 S
C232 C230 1.383 . S
C232 C233 1.402 . S
C232 H247 0.951 . S
C233 C232 1.402 . S
C233 C234 1.375 . S
C233 C236 1.481 . S
C234 C233 1.375 . S
C234 C235 1.367 . S
C234 H248 0.951 . S
C235 C231 1.383 1_655 S
C235 C234 1.367 . S
C235 H249 0.950 1_656 S
C236 C233 1.481 . S
C236 C237 1.297 . S
C236 H250 0.950 . S
C237 C236 1.297 . S
C237 C238 1.479 . S
C237 H251 0.950 . S
C238 C237 1.479 . S
C238 C239 1.375 . S
C238 C244 1.404 . S
C239 C238 1.375 . S
C239 C240 1.369 . S
C239 H252 0.950 . S
C240 C239 1.369 . S
C240 C241 1.392 . S
C240 H253 0.951 . S
C241 C240 1.392 . S
C241 C243 1.384 . S
H242 C244 0.949 . S
C243 C241 1.384 . S
C243 C244 1.385 . S
C243 H245 0.950 . S
C244 C238 1.404 . S
C244 H242 0.949 . S
C244 C243 1.385 . S
H245 C243 0.950 . S
H246 C230 0.951 . S
H247 C232 0.951 . S
H248 C234 0.951 . S
H249 C235 0.950 1_454 S
H250 C236 0.950 . S
H251 C237 0.950 . S
H252 C239 0.950 . S
H253 C240 0.951 . S
C254 C255 1.386 . S
C254 C256 1.383 . S
C254 H270 0.951 1_556 S
C255 C254 1.386 . S
C255 C259 1.383 . S
C256 C254 1.383 . S
C256 C257 1.402 . S
C256 H271 0.951 . S
C257 C256 1.402 . S
C257 C258 1.375 . S
C257 C260 1.481 . S
C258 C257 1.375 . S
C258 C259 1.367 . S
C258 H272 0.951 . S
C259 C255 1.383 . S
C259 C258 1.367 . S
C259 H273 0.950 . S
C260 C257 1.481 . S
C260 C261 1.297 . S
C260 H274 0.950 . S
C261 C260 1.297 . S
C261 C262 1.479 . S
C261 H275 0.950 . S
C262 C261 1.479 . S
C262 C263 1.375 . S
C262 C268 1.404 . S
C263 C262 1.375 . S
C263 C264 1.369 . S
C263 H276 0.950 . S
C264 C263 1.369 . S
C264 C265 1.392 . S
C264 H277 0.951 . S
C265 C264 1.392 . S
C265 C267 1.384 . S
H266 C268 0.949 . S
C267 C265 1.384 . S
C267 C268 1.385 . S
C267 H269 0.950 . S
C268 C262 1.404 . S
C268 H266 0.949 . S
C268 C267 1.385 . S
H269 C267 0.950 . S
H270 C254 0.951 1_554 S
H271 C256 0.951 . S
H272 C258 0.951 . S
H273 C259 0.950 . S
H274 C260 0.950 . S
H275 C261 0.950 . S
H276 C263 0.950 . S
H277 C264 0.951 . S
C278 C279 1.386 . S
C278 C280 1.383 . S
C278 H294 0.951 . S
C279 C278 1.386 . S
C279 C283 1.383 . S
C280 C278 1.383 . S
C280 C281 1.402 . S
C280 H295 0.951 . S
C281 C280 1.402 . S
C281 C282 1.375 . S
C281 C284 1.481 . S
C282 C281 1.375 . S
C282 C283 1.367 . S
C282 H296 0.951 . S
C283 C279 1.383 . S
C283 C282 1.367 . S
C283 H297 0.950 . S
C284 C281 1.481 . S
C284 C285 1.297 . S
C284 H298 0.950 . S
C285 C284 1.297 . S
C285 C286 1.479 . S
C285 H299 0.950 . S
C286 C285 1.479 . S
C286 C287 1.375 . S
C286 C292 1.404 . S
C287 C286 1.375 . S
C287 C288 1.368 . S
C287 H300 0.950 . S
C288 C287 1.368 . S
C288 C289 1.392 . S
C288 H301 0.951 1_655 S
C289 C288 1.392 . S
C289 C291 1.384 . S
H290 C292 0.949 . S
C291 C289 1.384 . S
C291 C292 1.385 . S
C291 H293 0.950 . S
C292 C286 1.404 . S
C292 H290 0.949 . S
C292 C291 1.385 . S
H293 C291 0.950 . S
H294 C278 0.951 . S
H295 C280 0.951 . S
H296 C282 0.951 . S
H297 C283 0.950 . S
H298 C284 0.950 . S
H299 C285 0.950 . S
H300 C287 0.950 . S
H301 C288 0.951 1_455 S
C302 C303 1.386 . S
C302 C304 1.383 . S
C302 H318 0.951 . S
C303 C302 1.386 . S
C303 C307 1.383 . S
C304 C302 1.383 . S
C304 C305 1.402 . S
C304 H319 0.951 . S
C305 C304 1.402 . S
C305 C306 1.375 . S
C305 C308 1.481 . S
C306 C305 1.375 . S
C306 C307 1.367 . S
C306 H320 0.951 . S
C307 C303 1.383 . S
C307 C306 1.367 . S
C307 H321 0.950 . S
C308 C305 1.481 . S
C308 C309 1.297 . S
C308 H322 0.950 . S
C309 C308 1.297 . S
C309 C310 1.479 . S
C309 H323 0.950 . S
C310 C309 1.479 . S
C310 C311 1.375 . S
C310 C316 1.404 . S
C311 C310 1.375 . S
C311 C312 1.369 . S
C311 H324 0.950 . S
C312 C311 1.369 . S
C312 C313 1.392 . S
C312 H325 0.951 . S
C313 C312 1.392 . S
C313 C315 1.384 . S
H314 C316 0.949 . S
C315 C313 1.384 . S
C315 C316 1.385 . S
C315 H317 0.950 . S
C316 C310 1.404 . S
C316 H314 0.949 . S
C316 C315 1.385 . S
H317 C315 0.950 . S
H318 C302 0.951 . S
H319 C304 0.951 . S
H320 C306 0.951 . S
H321 C307 0.950 . S
H322 C308 0.950 . S
H323 C309 0.950 . S
H324 C311 0.950 . S
H325 C312 0.951 . S
C326 C327 1.386 . S
C326 C328 1.383 . S
C326 H342 0.951 . S
C327 C326 1.386 . S
C327 C331 1.383 . S
C328 C326 1.383 . S
C328 C329 1.402 . S
C328 H343 0.951 . S
C329 C328 1.402 . S
C329 C330 1.375 . S
C329 C332 1.481 . S
C330 C329 1.375 . S
C330 C331 1.367 . S
C330 H344 0.951 . S
C331 C327 1.383 . S
C331 C330 1.367 . S
C331 H345 0.950 . S
C332 C329 1.481 . S
C332 C333 1.297 . S
C332 H346 0.950 . S
C333 C332 1.297 . S
C333 C334 1.479 . S
C333 H347 0.950 . S
C334 C333 1.479 . S
C334 C335 1.375 . S
C334 C340 1.404 . S
C335 C334 1.375 . S
C335 C336 1.369 . S
C335 H348 0.950 . S
C336 C335 1.369 . S
C336 C337 1.392 . S
C336 H349 0.951 . S
C337 C336 1.392 . S
C337 C339 1.384 . S
H338 C340 0.949 . S
C339 C337 1.384 . S
C339 C340 1.385 . S
C339 H341 0.950 . S
C340 C334 1.404 . S
C340 H338 0.949 . S
C340 C339 1.385 . S
H341 C339 0.950 . S
H342 C326 0.951 . S
H343 C328 0.951 . S
H344 C330 0.951 . S
H345 C331 0.950 . S
H346 C332 0.950 . S
H347 C333 0.950 . S
H348 C335 0.950 . S
H349 C336 0.951 . S
C350 C351 1.386 . S
C350 C352 1.383 . S
C350 H366 0.951 . S
C351 C350 1.386 . S
C351 C355 1.383 . S
C352 C350 1.383 . S
C352 C353 1.402 . S
C352 H367 0.951 . S
C353 C352 1.402 . S
C353 C354 1.375 . S
C353 C356 1.481 . S
C354 C353 1.375 . S
C354 C355 1.367 . S
C354 H368 0.951 . S
C355 C351 1.383 . S
C355 C354 1.367 . S
C355 H369 0.950 . S
C356 C353 1.481 . S
C356 C357 1.297 . S
C356 H370 0.950 . S
C357 C356 1.297 . S
C357 C358 1.479 . S
C357 H371 0.950 . S
C358 C357 1.479 . S
C358 C359 1.375 . S
C358 C364 1.404 . S
C359 C358 1.375 . S
C359 C360 1.369 . S
C359 H372 0.950 . S
C360 C359 1.369 . S
C360 C361 1.392 . S
C360 H373 0.951 . S
C361 C360 1.392 . S
C361 C363 1.384 . S
H362 C364 0.949 . S
C363 C361 1.384 . S
C363 C364 1.385 . S
C363 H365 0.950 . S
C364 C358 1.404 . S
C364 H362 0.949 . S
C364 C363 1.385 . S
H365 C363 0.950 . S
H366 C350 0.951 . S
H367 C352 0.951 . S
H368 C354 0.951 . S
H369 C355 0.950 . S
H370 C356 0.950 . S
H371 C357 0.950 . S
H372 C359 0.950 . S
H373 C360 0.951 . S
C97 C51 1.456 . S
C87 C8 1.543 . S
C121 C47 1.361 . S
C111 C19 1.510 . S
C145 C72 1.492 . S
C135 C30 1.532 . S
C159 C41 1.508 . S
C169 C68 1.339 . S
C183 C7 1.162 1_556 S
C193 C69 1.074 . S
C217 C84 1.031 . S
C207 C16 1.057 . S
C231 C5 1.425 . S
C241 C85 1.524 . S
C265 C81 1.679 . S
C255 C18 1.772 1_556 S
C289 C48 0.962 1_655 S
C279 C29 1.212 . S
C303 C38 1.032 . S
C313 C63 0.976 . S
C337 C64 1.515 . S
C327 C27 1.440 . S
C361 C60 1.642 . S
C351 C40 1.765 . S
