# Generated by pormake.
# Topology gar, (4,6)-cn, num edge types: 1
# Building blocks:
#     Node 0, Type 0, BuildingBlock: QUQFOY_clean_sbu_1, # of connection points: 4
#     Node 1, Type 0, BuildingBlock: QUQFOY_clean_sbu_1, # of connection points: 4
#     Node 2, Type 0, BuildingBlock: QUQFOY_clean_sbu_1, # of connection points: 4
#     Node 3, Type 0, BuildingBlock: QUQFOY_clean_sbu_1, # of connection points: 4
#     Node 4, Type 0, BuildingBlock: QUQFOY_clean_sbu_1, # of connection points: 4
#     Node 5, Type 0, BuildingBlock: QUQFOY_clean_sbu_1, # of connection points: 4
#     Node 6, Type 0, BuildingBlock: QUQFOY_clean_sbu_1, # of connection points: 4
#     Node 7, Type 0, BuildingBlock: QUQFOY_clean_sbu_1, # of connection points: 4
#     Node 8, Type 0, BuildingBlock: QUQFOY_clean_sbu_1, # of connection points: 4
#     Node 9, Type 0, BuildingBlock: QUQFOY_clean_sbu_1, # of connection points: 4
#     Node 10, Type 0, BuildingBlock: QUQFOY_clean_sbu_1, # of connection points: 4
#     Node 11, Type 0, BuildingBlock: QUQFOY_clean_sbu_1, # of connection points: 4
#     Node 12, Type 0, BuildingBlock: QUQFOY_clean_sbu_1, # of connection points: 4
#     Node 13, Type 0, BuildingBlock: QUQFOY_clean_sbu_1, # of connection points: 4
#     Node 14, Type 0, BuildingBlock: QUQFOY_clean_sbu_1, # of connection points: 4
#     Node 15, Type 0, BuildingBlock: QUQFOY_clean_sbu_1, # of connection points: 4
#     Node 16, Type 0, BuildingBlock: QUQFOY_clean_sbu_1, # of connection points: 4
#     Node 17, Type 0, BuildingBlock: QUQFOY_clean_sbu_1, # of connection points: 4
#     Node 18, Type 0, BuildingBlock: QUQFOY_clean_sbu_1, # of connection points: 4
#     Node 19, Type 0, BuildingBlock: QUQFOY_clean_sbu_1, # of connection points: 4
#     Node 20, Type 0, BuildingBlock: QUQFOY_clean_sbu_1, # of connection points: 4
#     Node 21, Type 0, BuildingBlock: QUQFOY_clean_sbu_1, # of connection points: 4
#     Node 22, Type 0, BuildingBlock: QUQFOY_clean_sbu_1, # of connection points: 4
#     Node 23, Type 0, BuildingBlock: QUQFOY_clean_sbu_1, # of connection points: 4
#     Node 24, Type 1, BuildingBlock: GEDQOX_clean_sbu_0, # of connection points: 6
#     Node 25, Type 1, BuildingBlock: GEDQOX_clean_sbu_0, # of connection points: 6
#     Node 26, Type 1, BuildingBlock: GEDQOX_clean_sbu_0, # of connection points: 6
#     Node 27, Type 1, BuildingBlock: GEDQOX_clean_sbu_0, # of connection points: 6
#     Node 28, Type 1, BuildingBlock: GEDQOX_clean_sbu_0, # of connection points: 6
#     Node 29, Type 1, BuildingBlock: GEDQOX_clean_sbu_0, # of connection points: 6
#     Node 30, Type 1, BuildingBlock: GEDQOX_clean_sbu_0, # of connection points: 6
#     Node 31, Type 1, BuildingBlock: GEDQOX_clean_sbu_0, # of connection points: 6
#     Node 32, Type 1, BuildingBlock: GEDQOX_clean_sbu_0, # of connection points: 6
#     Node 33, Type 1, BuildingBlock: GEDQOX_clean_sbu_0, # of connection points: 6
#     Node 34, Type 1, BuildingBlock: GEDQOX_clean_sbu_0, # of connection points: 6
#     Node 35, Type 1, BuildingBlock: GEDQOX_clean_sbu_0, # of connection points: 6
#     Node 36, Type 1, BuildingBlock: GEDQOX_clean_sbu_0, # of connection points: 6
#     Node 37, Type 1, BuildingBlock: GEDQOX_clean_sbu_0, # of connection points: 6
#     Node 38, Type 1, BuildingBlock: GEDQOX_clean_sbu_0, # of connection points: 6
#     Node 39, Type 1, BuildingBlock: GEDQOX_clean_sbu_0, # of connection points: 6
#     Edge 40, Type (0, 1), BuildingBlock: XUDNAN_clean_linker_2, # of connection points: 2
#     Edge 41, Type (0, 1), BuildingBlock: XUDNAN_clean_linker_2, # of connection points: 2
#     Edge 42, Type (0, 1), BuildingBlock: XUDNAN_clean_linker_2, # of connection points: 2
#     Edge 43, Type (0, 1), BuildingBlock: XUDNAN_clean_linker_2, # of connection points: 2
#     Edge 44, Type (0, 1), BuildingBlock: XUDNAN_clean_linker_2, # of connection points: 2
#     Edge 45, Type (0, 1), BuildingBlock: XUDNAN_clean_linker_2, # of connection points: 2
#     Edge 46, Type (0, 1), BuildingBlock: XUDNAN_clean_linker_2, # of connection points: 2
#     Edge 47, Type (0, 1), BuildingBlock: XUDNAN_clean_linker_2, # of connection points: 2
#     Edge 48, Type (0, 1), BuildingBlock: XUDNAN_clean_linker_2, # of connection points: 2
#     Edge 49, Type (0, 1), BuildingBlock: XUDNAN_clean_linker_2, # of connection points: 2
#     Edge 50, Type (0, 1), BuildingBlock: XUDNAN_clean_linker_2, # of connection points: 2
#     Edge 51, Type (0, 1), BuildingBlock: XUDNAN_clean_linker_2, # of connection points: 2
#     Edge 52, Type (0, 1), BuildingBlock: XUDNAN_clean_linker_2, # of connection points: 2
#     Edge 53, Type (0, 1), BuildingBlock: XUDNAN_clean_linker_2, # of connection points: 2
#     Edge 54, Type (0, 1), BuildingBlock: XUDNAN_clean_linker_2, # of connection points: 2
#     Edge 55, Type (0, 1), BuildingBlock: XUDNAN_clean_linker_2, # of connection points: 2
#     Edge 56, Type (0, 1), BuildingBlock: XUDNAN_clean_linker_2, # of connection points: 2
#     Edge 57, Type (0, 1), BuildingBlock: XUDNAN_clean_linker_2, # of connection points: 2
#     Edge 58, Type (0, 1), BuildingBlock: XUDNAN_clean_linker_2, # of connection points: 2
#     Edge 59, Type (0, 1), BuildingBlock: XUDNAN_clean_linker_2, # of connection points: 2
#     Edge 60, Type (0, 1), BuildingBlock: XUDNAN_clean_linker_2, # of connection points: 2
#     Edge 61, Type (0, 1), BuildingBlock: XUDNAN_clean_linker_2, # of connection points: 2
#     Edge 62, Type (0, 1), BuildingBlock: XUDNAN_clean_linker_2, # of connection points: 2
#     Edge 63, Type (0, 1), BuildingBlock: XUDNAN_clean_linker_2, # of connection points: 2
#     Edge 64, Type (0, 1), BuildingBlock: XUDNAN_clean_linker_2, # of connection points: 2
#     Edge 65, Type (0, 1), BuildingBlock: XUDNAN_clean_linker_2, # of connection points: 2
#     Edge 66, Type (0, 1), BuildingBlock: XUDNAN_clean_linker_2, # of connection points: 2
#     Edge 67, Type (0, 1), BuildingBlock: XUDNAN_clean_linker_2, # of connection points: 2
#     Edge 68, Type (0, 1), BuildingBlock: XUDNAN_clean_linker_2, # of connection points: 2
#     Edge 69, Type (0, 1), BuildingBlock: XUDNAN_clean_linker_2, # of connection points: 2
#     Edge 70, Type (0, 1), BuildingBlock: XUDNAN_clean_linker_2, # of connection points: 2
#     Edge 71, Type (0, 1), BuildingBlock: XUDNAN_clean_linker_2, # of connection points: 2
#     Edge 72, Type (0, 1), BuildingBlock: XUDNAN_clean_linker_2, # of connection points: 2
#     Edge 73, Type (0, 1), BuildingBlock: XUDNAN_clean_linker_2, # of connection points: 2
#     Edge 74, Type (0, 1), BuildingBlock: XUDNAN_clean_linker_2, # of connection points: 2
#     Edge 75, Type (0, 1), BuildingBlock: XUDNAN_clean_linker_2, # of connection points: 2
#     Edge 76, Type (0, 1), BuildingBlock: XUDNAN_clean_linker_2, # of connection points: 2
#     Edge 77, Type (0, 1), BuildingBlock: XUDNAN_clean_linker_2, # of connection points: 2
#     Edge 78, Type (0, 1), BuildingBlock: XUDNAN_clean_linker_2, # of connection points: 2
#     Edge 79, Type (0, 1), BuildingBlock: XUDNAN_clean_linker_2, # of connection points: 2
#     Edge 80, Type (0, 1), BuildingBlock: XUDNAN_clean_linker_2, # of connection points: 2
#     Edge 81, Type (0, 1), BuildingBlock: XUDNAN_clean_linker_2, # of connection points: 2
#     Edge 82, Type (0, 1), BuildingBlock: XUDNAN_clean_linker_2, # of connection points: 2
#     Edge 83, Type (0, 1), BuildingBlock: XUDNAN_clean_linker_2, # of connection points: 2
#     Edge 84, Type (0, 1), BuildingBlock: XUDNAN_clean_linker_2, # of connection points: 2
#     Edge 85, Type (0, 1), BuildingBlock: XUDNAN_clean_linker_2, # of connection points: 2
#     Edge 86, Type (0, 1), BuildingBlock: XUDNAN_clean_linker_2, # of connection points: 2
#     Edge 87, Type (0, 1), BuildingBlock: XUDNAN_clean_linker_2, # of connection points: 2
#     Edge 88, Type (0, 1), BuildingBlock: XUDNAN_clean_linker_2, # of connection points: 2
#     Edge 89, Type (0, 1), BuildingBlock: XUDNAN_clean_linker_2, # of connection points: 2
#     Edge 90, Type (0, 1), BuildingBlock: XUDNAN_clean_linker_2, # of connection points: 2
#     Edge 91, Type (0, 1), BuildingBlock: XUDNAN_clean_linker_2, # of connection points: 2
#     Edge 92, Type (0, 1), BuildingBlock: XUDNAN_clean_linker_2, # of connection points: 2
#     Edge 93, Type (0, 1), BuildingBlock: XUDNAN_clean_linker_2, # of connection points: 2
#     Edge 94, Type (0, 1), BuildingBlock: XUDNAN_clean_linker_2, # of connection points: 2
#     Edge 95, Type (0, 1), BuildingBlock: XUDNAN_clean_linker_2, # of connection points: 2
#     Edge 96, Type (0, 1), BuildingBlock: XUDNAN_clean_linker_2, # of connection points: 2
#     Edge 97, Type (0, 1), BuildingBlock: XUDNAN_clean_linker_2, # of connection points: 2
#     Edge 98, Type (0, 1), BuildingBlock: XUDNAN_clean_linker_2, # of connection points: 2
#     Edge 99, Type (0, 1), BuildingBlock: XUDNAN_clean_linker_2, # of connection points: 2
#     Edge 100, Type (0, 1), BuildingBlock: XUDNAN_clean_linker_2, # of connection points: 2
#     Edge 101, Type (0, 1), BuildingBlock: XUDNAN_clean_linker_2, # of connection points: 2
#     Edge 102, Type (0, 1), BuildingBlock: XUDNAN_clean_linker_2, # of connection points: 2
#     Edge 103, Type (0, 1), BuildingBlock: XUDNAN_clean_linker_2, # of connection points: 2
#     Edge 104, Type (0, 1), BuildingBlock: XUDNAN_clean_linker_2, # of connection points: 2
#     Edge 105, Type (0, 1), BuildingBlock: XUDNAN_clean_linker_2, # of connection points: 2
#     Edge 106, Type (0, 1), BuildingBlock: XUDNAN_clean_linker_2, # of connection points: 2
#     Edge 107, Type (0, 1), BuildingBlock: XUDNAN_clean_linker_2, # of connection points: 2
#     Edge 108, Type (0, 1), BuildingBlock: XUDNAN_clean_linker_2, # of connection points: 2
#     Edge 109, Type (0, 1), BuildingBlock: XUDNAN_clean_linker_2, # of connection points: 2
#     Edge 110, Type (0, 1), BuildingBlock: XUDNAN_clean_linker_2, # of connection points: 2
#     Edge 111, Type (0, 1), BuildingBlock: XUDNAN_clean_linker_2, # of connection points: 2
#     Edge 112, Type (0, 1), BuildingBlock: XUDNAN_clean_linker_2, # of connection points: 2
#     Edge 113, Type (0, 1), BuildingBlock: XUDNAN_clean_linker_2, # of connection points: 2
#     Edge 114, Type (0, 1), BuildingBlock: XUDNAN_clean_linker_2, # of connection points: 2
#     Edge 115, Type (0, 1), BuildingBlock: XUDNAN_clean_linker_2, # of connection points: 2
#     Edge 116, Type (0, 1), BuildingBlock: XUDNAN_clean_linker_2, # of connection points: 2
#     Edge 117, Type (0, 1), BuildingBlock: XUDNAN_clean_linker_2, # of connection points: 2
#     Edge 118, Type (0, 1), BuildingBlock: XUDNAN_clean_linker_2, # of connection points: 2
#     Edge 119, Type (0, 1), BuildingBlock: XUDNAN_clean_linker_2, # of connection points: 2
#     Edge 120, Type (0, 1), BuildingBlock: XUDNAN_clean_linker_2, # of connection points: 2
#     Edge 121, Type (0, 1), BuildingBlock: XUDNAN_clean_linker_2, # of connection points: 2
#     Edge 122, Type (0, 1), BuildingBlock: XUDNAN_clean_linker_2, # of connection points: 2
#     Edge 123, Type (0, 1), BuildingBlock: XUDNAN_clean_linker_2, # of connection points: 2
#     Edge 124, Type (0, 1), BuildingBlock: XUDNAN_clean_linker_2, # of connection points: 2
#     Edge 125, Type (0, 1), BuildingBlock: XUDNAN_clean_linker_2, # of connection points: 2
#     Edge 126, Type (0, 1), BuildingBlock: XUDNAN_clean_linker_2, # of connection points: 2
#     Edge 127, Type (0, 1), BuildingBlock: XUDNAN_clean_linker_2, # of connection points: 2
#     Edge 128, Type (0, 1), BuildingBlock: XUDNAN_clean_linker_2, # of connection points: 2
#     Edge 129, Type (0, 1), BuildingBlock: XUDNAN_clean_linker_2, # of connection points: 2
#     Edge 130, Type (0, 1), BuildingBlock: XUDNAN_clean_linker_2, # of connection points: 2
#     Edge 131, Type (0, 1), BuildingBlock: XUDNAN_clean_linker_2, # of connection points: 2
#     Edge 132, Type (0, 1), BuildingBlock: XUDNAN_clean_linker_2, # of connection points: 2
#     Edge 133, Type (0, 1), BuildingBlock: XUDNAN_clean_linker_2, # of connection points: 2
#     Edge 134, Type (0, 1), BuildingBlock: XUDNAN_clean_linker_2, # of connection points: 2
#     Edge 135, Type (0, 1), BuildingBlock: XUDNAN_clean_linker_2, # of connection points: 2
# Relax obj value: 0.272
# Max RMSD: 0.452
# Mean RMSD: 0.201
data_MOF--net-gar--node1-QUQFOY_clean_sbu_1--node2-GEDQOX_clean_sbu_0--edge1-XUDNAN_clean_linker_2
_symmetry_space_group_name_H-M    P1
_symmetry_Int_Tables_number       1
_symmetry_cell_setting            triclinic
loop_
_symmetry_equiv_pos_as_xyz
'x, y, z'
_cell_length_a     61.810533
_cell_length_b     60.017592
_cell_length_c     54.429272
_cell_angle_alpha  99.028723
_cell_angle_beta   98.137099
_cell_angle_gamma 102.61195
loop_
_atom_site_label
_atom_site_type_symbol
_atom_site_fract_x
_atom_site_fract_y
_atom_site_fract_z
_atom_type_partial_charge
O0 O 0.14292 0.33286 0.49759 0.0
Cd1 Cd 0.13936 0.34868 0.46697 0.0
Cd2 Cd 0.12273 0.38085 0.50988 0.0
O3 O 0.13212 0.35566 0.52719 0.0
O4 O 0.13883 0.32259 0.43948 0.0
O5 O 0.16342 0.3566 0.446 0.0
C6 C 0.1545 0.33628 0.43201 0.0
C7 C 0.12464 0.41585 0.5361 0.0
C8 C 0.13928 0.3379 0.51994 0.0
C9 C 0.09351 0.36176 0.45859 0.0
O10 O 0.09546 0.37276 0.48096 0.0
O11 O 0.1089 0.35273 0.45183 0.0
O12 O 0.1384 0.41486 0.52044 0.0
O13 O 0.11056 0.39704 0.53736 0.0
O14 O 0.97093 0.72719 0.64969 0.0
Cd15 Cd 0.99871 0.74638 0.67654 0.0
Cd16 Cd 1.01243 0.74865 0.61599 0.0
O17 O 0.97898 0.73328 0.61424 0.0
O18 O 0.99147 0.74192 0.71 0.0
O19 O 0.99574 0.77573 0.69728 0.0
C20 C 0.9914 0.76367 0.71449 0.0
C21 C 1.02255 0.78086 0.59853 0.0
C22 C 0.9759 0.71904 0.62897 0.0
C23 C 0.04415 0.73889 0.66012 0.0
O24 O 0.03847 0.73911 0.63672 0.0
O25 O 0.03137 0.74231 0.67609 0.0
O26 O 1.02023 0.76024 0.58549 0.0
O27 O 1.0185 0.78289 0.62133 0.0
O28 O 0.65313 0.86892 0.94923 0.0
Cd29 Cd 0.63727 0.87352 0.9806 0.0
Cd30 Cd 0.6345 0.91319 0.9583 0.0
O31 O 0.64673 0.89722 0.92997 0.0
O32 O 0.64137 0.8484 0.9993 0.0
O33 O 0.60836 0.84976 0.97841 0.0
C34 C 0.61996 0.83948 0.99252 0.0
C35 C 0.59899 0.91973 0.95078 0.0
C36 C 0.65414 0.8792 0.93049 0.0
C37 C 0.65037 0.92428 0.01004 0.0
O38 O 0.65562 0.9314 0.99054 0.0
O39 O 0.64096 0.90292 0.00844 0.0
O40 O 0.61613 0.93354 0.94551 0.0
O41 O 0.60213 0.90192 0.96016 0.0
O42 O 0.48984 0.23077 0.1579 0.0
Cd43 Cd 0.49911 0.25688 0.1897 0.0
Cd44 Cd 0.52135 0.2843 0.1634 0.0
O45 O 0.51456 0.25232 0.14052 0.0
O46 O 0.47665 0.26043 0.21176 0.0
O47 O 0.49075 0.28712 0.19043 0.0
C48 C 0.47888 0.28125 0.20714 0.0
C49 C 0.52312 0.31228 0.13894 0.0
C50 C 0.50066 0.23323 0.13993 0.0
C51 C 0.54496 0.27974 0.21355 0.0
O52 O 0.54317 0.29272 0.19747 0.0
O53 O 0.53 0.26104 0.2118 0.0
O54 O 0.53882 0.30147 0.14185 0.0
O55 O 0.50668 0.30817 0.15109 0.0
O56 O 0.04623 0.76567 0.24288 0.0
Cd57 Cd 0.05149 0.79631 0.27049 0.0
Cd58 Cd 0.07105 0.81732 0.23137 0.0
O59 O 0.05578 0.78403 0.21235 0.0
O60 O 0.02533 0.79371 0.29194 0.0
O61 O 0.02775 0.81554 0.26342 0.0
C62 C 1.01622 0.80699 0.27938 0.0
C63 C 0.07178 0.84557 0.20523 0.0
C64 C 0.04853 0.76523 0.21986 0.0
C65 C 0.10473 0.81504 0.27721 0.0
O66 O 0.10092 0.81967 0.25523 0.0
O67 O 0.08785 0.80805 0.28815 0.0
O68 O 0.08329 0.83021 0.20291 0.0
O69 O 0.05984 0.84538 0.22283 0.0
O70 O 0.61832 0.84333 0.39757 0.0
Cd71 Cd 0.59457 0.8394 0.421 0.0
Cd72 Cd 0.57059 0.85944 0.37612 0.0
O73 O 0.60212 0.85309 0.36306 0.0
O74 O 0.61395 0.83488 0.45178 0.0
O75 O 0.58379 0.80812 0.43168 0.0
C76 C 0.60074 0.81476 0.45018 0.0
C77 C 0.52993 0.84989 0.35631 0.0
C78 C 0.61926 0.84797 0.37564 0.0
C79 C 0.58028 0.8863 0.43047 0.0
O80 O 0.57672 0.88745 0.40708 0.0
O81 O 0.58505 0.86842 0.43753 0.0
O82 O 0.54528 0.86464 0.34924 0.0
O83 O 0.53754 0.83873 0.37273 0.0
O84 O 0.54814 0.2577 0.72999 0.0
Cd85 Cd 0.55213 0.28762 0.75883 0.0
Cd86 Cd 0.57216 0.31118 0.72171 0.0
O87 O 0.55973 0.2778 0.70156 0.0
O88 O 0.52587 0.28366 0.78028 0.0
O89 O 0.52775 0.30643 0.75273 0.0
C90 C 0.51646 0.29724 0.76852 0.0
C91 C 0.56981 0.33985 0.69645 0.0
C92 C 0.55219 0.25836 0.70766 0.0
C93 C 0.60545 0.30918 0.76787 0.0
O94 O 0.60208 0.31499 0.7464 0.0
O95 O 0.58825 0.30039 0.7775 0.0
O96 O 0.5833 0.32645 0.69405 0.0
O97 O 0.55785 0.33769 0.71392 0.0
O98 O 0.07692 0.30292 0.90682 0.0
Cd99 Cd 0.07784 0.32203 0.87703 0.0
Cd100 Cd 0.06367 0.3554 0.91893 0.0
O101 O 0.06988 0.32888 0.93647 0.0
O102 O 0.10019 0.31075 0.8544 0.0
O103 O 0.10987 0.34412 0.88063 0.0
C104 C 0.11609 0.329 0.86522 0.0
C105 C 0.07297 0.39276 0.94565 0.0
C106 C 0.07407 0.30925 0.92946 0.0
C107 C 0.02897 0.33516 0.86945 0.0
O108 O 0.03465 0.34711 0.89187 0.0
O109 O 0.0435 0.32552 0.85951 0.0
O110 O 0.05572 0.37682 0.94694 0.0
O111 O 0.08498 0.38771 0.929 0.0
O112 O 0.47927 0.14279 0.28041 0.0
Cd113 Cd 0.45644 0.14981 0.30323 0.0
Cd114 Cd 0.49012 0.13 0.33917 0.0
O115 O 0.50506 0.13372 0.30751 0.0
O116 O 0.43595 0.16713 0.28646 0.0
O117 O 0.4587 0.18147 0.3234 0.0
C118 C 0.44317 0.18372 0.30603 0.0
C119 C 0.51191 0.12788 0.37803 0.0
C120 C 0.49788 0.13713 0.28555 0.0
C121 C 0.43905 0.1063 0.32248 0.0
O122 O 0.45895 0.10727 0.33324 0.0
O123 O 0.43474 0.1218 0.31053 0.0
O124 O 0.50946 0.11254 0.35785 0.0
O125 O 0.50309 0.14528 0.37617 0.0
O126 O 0.31489 0.15013 0.53563 0.0
Cd127 Cd 0.29832 0.12628 0.50329 0.0
Cd128 Cd 0.28749 0.16945 0.49155 0.0
O129 O 0.31201 0.18252 0.52273 0.0
O130 O 0.30325 0.09779 0.51463 0.0
O131 O 0.31804 0.11077 0.4834 0.0
C132 C 0.3159 0.0958 0.49806 0.0
C133 C 0.2869 0.19637 0.46521 0.0
C134 C 0.31994 0.17218 0.53908 0.0
C135 C 0.25011 0.12935 0.49572 0.0
O136 O 0.25672 0.15094 0.49599 0.0
O137 O 0.26377 0.11638 0.49563 0.0
O138 O 0.2934 0.17769 0.45829 0.0
O139 O 0.28005 0.19907 0.48642 0.0
O140 O 0.20077 0.04467 0.79718 0.0
Cd141 Cd 0.23098 0.04838 0.82405 0.0
Cd142 Cd 0.19472 0.0771 0.85677 0.0
O143 O 0.17808 0.06103 0.81913 0.0
O144 O 0.25202 0.02867 0.80735 0.0
O145 O 0.23691 0.01795 0.83832 0.0
C146 C 0.24923 1.01343 0.82176 0.0
C147 C 0.17108 0.08064 0.89101 0.0
C148 C 0.18217 0.05084 0.79824 0.0
C149 C 0.24109 0.10568 0.84386 0.0
O150 O 0.22295 0.1044 0.85343 0.0
O151 O 0.24687 0.08681 0.83466 0.0
O152 O 0.17136 0.09252 0.87318 0.0
O153 O 0.18444 0.06685 0.89032 0.0
O154 O 0.24963 0.92212 0.12151 0.0
Cd155 Cd 0.24064 0.94681 0.10101 0.0
Cd156 Cd 0.26185 0.91071 0.05882 0.0
O157 O 0.26367 0.89989 0.09395 0.0
O158 O 0.23264 0.9715 0.12545 0.0
O159 O 0.20901 0.95203 0.0909 0.0
C160 C 0.21377 0.96872 0.11043 0.0
C161 C 0.2669 0.88651 0.02136 0.0
C162 C 0.25904 0.9054 0.11603 0.0
C163 C 0.27886 0.96475 0.07282 0.0
O164 O 0.27741 0.94481 0.05974 0.0
O165 O 0.26676 0.96765 0.08947 0.0
O166 O 0.28326 0.89619 0.03993 0.0
O167 O 0.24721 0.88916 0.02438 0.0
O168 O 0.36589 0.50586 0.21301 0.0
Cd169 Cd 0.3675 0.52914 0.18905 0.0
Cd170 Cd 0.36367 0.49009 0.15107 0.0
O171 O 0.36189 0.47556 0.18237 0.0
O172 O 0.34664 0.55042 0.19152 0.0
O173 O 0.34265 0.52077 0.15991 0.0
C174 C 0.33555 0.53803 0.16997 0.0
C175 C 0.34315 0.46583 0.11369 0.0
C176 C 0.36329 0.48413 0.20554 0.0
C177 C 0.40463 0.5319 0.16075 0.0
O178 O 0.39305 0.51227 0.14801 0.0
O179 O 0.39798 0.54222 0.1794 0.0
O180 O 0.36156 0.46242 0.12496 0.0
O181 O 0.33626 0.48336 0.12355 0.0
O182 O 0.88808 0.23571 0.11256 0.0
Cd183 Cd 0.88677 0.20929 0.08191 0.0
Cd184 Cd 0.85856 0.2385 0.05654 0.0
O185 O 0.8669 0.2562 0.09416 0.0
O186 O 0.90246 0.18678 0.09587 0.0
O187 O 0.91319 0.20387 0.0651 0.0
C188 C 0.91515 0.18873 0.07915 0.0
C189 C 0.85155 0.25841 0.02301 0.0
C190 C 0.87821 0.25238 0.1139 0.0
C191 C 0.83729 0.18823 0.05712 0.0
O192 O 0.83541 0.2072 0.05063 0.0
O193 O 0.85582 0.18636 0.06895 0.0
O194 O 0.8395 0.25721 0.04038 0.0
O195 O 0.86865 0.24932 0.02514 0.0
O196 O 0.16088 0.50679 0.29551 0.0
Cd197 Cd 0.18766 0.50871 0.32424 0.0
Cd198 Cd 0.1627 0.53988 0.35292 0.0
O199 O 0.14591 0.53328 0.31539 0.0
O200 O 0.20488 0.48596 0.31063 0.0
O201 O 0.19111 0.48457 0.34573 0.0
C202 C 0.20271 0.47647 0.33009 0.0
C203 C 0.14278 0.54839 0.38614 0.0
C204 C 0.14705 0.51976 0.29528 0.0
C205 C 0.21137 0.55896 0.34867 0.0
O206 O 0.19472 0.56094 0.35937 0.0
O207 O 0.21106 0.54042 0.3335 0.0
O208 O 0.14586 0.56139 0.36968 0.0
O209 O 0.15034 0.52992 0.38356 0.0
O210 O 0.8705 1.00097 0.70941 0.0
Cd211 Cd 0.86898 0.02676 0.68919 0.0
Cd212 Cd 0.85716 0.99173 0.64746 0.0
O213 O 0.85624 0.97284 0.67582 0.0
O214 O 0.8543 0.05124 0.70297 0.0
O215 O 0.83976 0.02452 0.66797 0.0
C216 C 0.83822 0.04236 0.68364 0.0
C217 C 0.83121 0.97438 0.61054 0.0
C218 C 0.86337 0.97952 0.69945 0.0
C219 C 0.90154 0.02853 0.65496 0.0
O220 O 0.88809 1.00984 0.6422 0.0
O221 O 0.89692 0.03912 0.67487 0.0
O222 O 0.84835 0.9664 0.61717 0.0
O223 O 0.8285 0.99246 0.62474 0.0
O224 O 0.93945 0.09352 0.26328 0.0
Cd225 Cd 0.91247 0.09369 0.28685 0.0
Cd226 Cd 0.95265 0.07239 0.31886 0.0
O227 O 0.96611 0.08183 0.28662 0.0
O228 O 0.88861 0.11194 0.27266 0.0
O229 O 0.91118 0.12735 0.30808 0.0
C230 C 0.8952 0.12963 0.29127 0.0
C231 C 0.97497 0.07945 0.36116 0.0
C232 C 0.95905 0.08873 0.26638 0.0
C233 C 0.9029 0.04115 0.30301 0.0
O234 O 0.92383 0.04457 0.31217 0.0
O235 O 0.89568 0.05773 0.29398 0.0
O236 O 0.97628 0.06298 0.34352 0.0
O237 O 0.96198 0.09256 0.35463 0.0
O238 O 0.38463 0.73202 0.61341 0.0
Cd239 Cd 0.38614 0.70658 0.58316 0.0
Cd240 Cd 0.36188 0.73626 0.55492 0.0
O241 O 0.36821 0.75466 0.59227 0.0
O242 O 0.40645 0.68638 0.59439 0.0
O243 O 0.41208 0.70654 0.5643 0.0
C244 C 0.41784 0.69167 0.57712 0.0
C245 C 0.36224 0.75493 0.51968 0.0
C246 C 0.3764 0.74977 0.61309 0.0
C247 C 0.33867 0.68568 0.55428 0.0
O248 O 0.3383 0.70472 0.547 0.0
O249 O 0.35584 0.68332 0.56847 0.0
O250 O 0.34683 0.75514 0.5333 0.0
O251 O 0.3782 0.74533 0.52692 0.0
O252 O 0.43497 0.58758 0.76234 0.0
Cd253 Cd 0.40833 0.58655 0.78606 0.0
Cd254 Cd 0.44996 0.56593 0.81493 0.0
O255 O 0.46246 0.57399 0.78153 0.0
O256 O 0.38525 0.60752 0.77511 0.0
O257 O 0.40931 0.61875 0.81012 0.0
C258 C 0.39359 0.62365 0.79504 0.0
C259 C 0.47238 0.57674 0.85751 0.0
C260 C 0.45421 0.58206 0.76273 0.0
C261 C 0.40045 0.53385 0.8014 0.0
O262 O 0.42163 0.53753 0.80958 0.0
O263 O 0.39254 0.55035 0.79308 0.0
O264 O 0.47441 0.55954 0.84124 0.0
O265 O 0.45851 0.58843 0.84944 0.0
O266 O 0.65856 1.00242 0.78455 0.0
Cd267 Cd 0.68475 1.00554 0.81454 0.0
Cd268 Cd 0.65367 0.03136 0.84159 0.0
O269 O 0.63881 0.02461 0.80333 0.0
O270 O 0.70681 0.99249 0.79671 0.0
O271 O 0.69438 0.97848 0.82836 0.0
C272 C 0.7075 0.97823 0.81193 0.0
C273 C 0.6309 0.03351 0.87318 0.0
C274 C 0.64266 1.01286 0.78348 0.0
C275 C 0.70172 0.05672 0.84249 0.0
O276 O 0.68352 0.05645 0.85084 0.0
O277 O 0.70432 0.03901 0.82813 0.0
O278 O 0.63265 0.04779 0.85784 0.0
O279 O 0.64148 0.01725 0.87029 0.0
O280 O 0.81588 0.67315 0.039 0.0
Cd281 Cd 0.80138 0.64357 0.01183 0.0
Cd282 Cd 0.78518 0.68148 0.9888 0.0
O283 O 0.80881 0.7007 0.01894 0.0
O284 O 0.8084 0.6204 0.03175 0.0
O285 O 0.82267 0.62614 0.99761 0.0
C286 C 0.82125 0.61537 0.01628 0.0
C287 C 0.77981 0.70369 0.95832 0.0
C288 C 0.81851 0.6945 0.03785 0.0
C289 C 0.75174 0.64018 0.99865 0.0
O290 O 0.75603 0.66069 0.99437 0.0
O291 O 0.76725 0.62997 1.00349 0.0
O292 O 0.772 0.70666 0.97888 0.0
O293 O 0.79031 0.68745 0.9545 0.0
O294 O 0.99302 0.65118 0.79625 0.0
Cd295 Cd 0.96741 0.65639 0.81596 0.0
Cd296 Cd 0.99919 0.63662 0.85332 0.0
O297 O 1.01635 0.63911 0.82326 0.0
O298 O 0.94793 0.66949 0.79213 0.0
O299 O 0.96204 0.68749 0.8315 0.0
C300 C 0.94956 0.68678 0.81013 0.0
C301 C 1.01792 0.63919 0.89524 0.0
C302 C 1.01084 0.64414 0.80167 0.0
C303 C 0.9492 0.61128 0.8326 0.0
O304 O 0.96848 0.61298 0.84554 0.0
O305 O 0.94554 0.62673 0.82018 0.0
O306 O 1.01709 0.62196 0.87747 0.0
O307 O 1.0094 0.65577 0.88894 0.0
O308 O 0.75536 0.42422 0.61808 0.0
Cd309 Cd 0.75135 0.44916 0.59616 0.0
Cd310 Cd 0.77571 0.41357 0.56454 0.0
O311 O 0.77228 0.39978 0.59744 0.0
O312 O 0.73508 0.47146 0.61381 0.0
O313 O 0.72162 0.4499 0.57582 0.0
C314 C 0.71955 0.46566 0.59387 0.0
C315 C 0.7743 0.39076 0.52387 0.0
C316 C 0.76414 0.40671 0.61679 0.0
C317 C 0.79671 0.46676 0.58062 0.0
O318 O 0.79686 0.44633 0.57005 0.0
O319 O 0.78049 0.47073 0.59117 0.0
O320 O 0.79099 0.39374 0.54218 0.0
O321 O 0.75772 0.39948 0.52899 0.0
O322 O 0.7005 0.55169 0.29997 0.0
Cd323 Cd 0.73083 0.55589 0.32673 0.0
Cd324 Cd 0.69216 0.58407 0.35544 0.0
O325 O 0.67625 0.56995 0.31679 0.0
O326 O 0.74935 0.53249 0.30969 0.0
O327 O 0.7388 0.52869 0.34524 0.0
C328 C 0.74845 0.52047 0.32746 0.0
C329 C 0.67127 0.57998 0.39199 0.0
C330 C 0.6821 0.55863 0.29772 0.0
C331 C 0.73992 0.61323 0.34563 0.0
O332 O 0.72126 0.61149 0.35427 0.0
O333 O 0.74631 0.59459 0.33679 0.0
O334 O 0.66944 0.59531 0.37807 0.0
O335 O 0.6849 0.56737 0.38577 0.0
Nd336 Nd 0.0795 0.10459 0.08275 0.0
Nd337 Nd 0.05361 0.06242 0.0735 0.0
C338 C 0.10307 0.14857 0.0913 0.0
C339 C 0.10227 0.16678 0.0757 0.0
C340 C 0.10349 0.18967 0.08736 0.0
C341 C 0.10041 0.20644 0.0728 0.0
C342 C 0.0957 0.20073 0.0461 0.0
C343 C 0.09526 0.17793 0.03445 0.0
C344 C 0.09855 0.1612 0.04906 0.0
C345 C 0.0781 0.08582 0.0316 0.0
C346 C 0.02851 0.09957 0.05856 0.0
C347 C 0.03611 0.01672 0.0636 0.0
C348 C 0.04184 0.99826 0.07649 0.0
C349 C 0.04184 0.97662 0.06237 0.0
C350 C 0.04745 0.9592 0.07456 0.0
C351 C 0.05307 0.96308 0.10114 0.0
C352 C 0.05321 0.98486 0.11522 0.0
C353 C 0.0478 1.0023 0.10303 0.0
C354 C 0.04298 0.08527 0.11782 0.0
C355 C 0.10408 0.0666 0.10206 0.0
O356 O 0.08519 0.14185 0.10105 0.0
O357 O 0.11082 0.13105 0.08227 0.0
O358 O 0.07141 0.10408 0.0397 0.0
O359 O 0.08103 0.07557 0.05013 0.0
O360 O 0.04499 0.11253 0.07621 0.0
O361 O 0.02972 0.07839 0.04913 0.0
O362 O 0.05102 0.02685 0.0516 0.0
O363 O 0.02753 0.0316 0.07651 0.0
O364 O 0.02876 0.07334 0.09796 0.0
O365 O 0.06322 0.08681 0.11337 0.0
O366 O 0.08375 0.05304 0.09494 0.0
O367 O 0.10753 0.08874 0.10053 0.0
H368 H 0.10638 0.1945 0.1078 0.0
H369 H 0.10145 0.2239 0.0826 0.0
H370 H 0.09159 0.17271 0.01404 0.0
H371 H 0.09767 0.14375 0.03941 0.0
H372 H 0.03746 0.97317 0.04192 0.0
H373 H 0.0471 0.94257 0.06319 0.0
H374 H 0.05783 0.98854 0.13566 0.0
H375 H 0.04832 0.01899 0.11441 0.0
Nd376 Nd 0.31948 0.84716 0.32963 0.0
Nd377 Nd 0.31148 0.80692 0.29974 0.0
C378 C 0.31975 0.88981 0.35171 0.0
C379 C 0.32847 0.91308 0.347 0.0
C380 C 0.3179 0.93083 0.3542 0.0
C381 C 0.32596 0.95304 0.34947 0.0
C382 C 0.34476 0.95769 0.33764 0.0
C383 C 0.35507 0.93974 0.33008 0.0
C384 C 0.3469 0.91752 0.3346 0.0
C385 C 0.36167 0.83757 0.32521 0.0
C386 C 0.31276 0.84543 0.26779 0.0
C387 C 0.30718 0.76279 0.27889 0.0
C388 C 0.30402 0.74125 0.28907 0.0
C389 C 0.31609 0.74072 0.31279 0.0
C390 C 0.31091 0.72112 0.32368 0.0
C391 C 0.29356 0.70171 0.31107 0.0
C392 C 0.28198 0.70203 0.28698 0.0
C393 C 0.28717 0.72166 0.2761 0.0
C394 C 0.27034 0.81832 0.30565 0.0
C395 C 0.32155 0.80793 0.36008 0.0
O396 O 0.30312 0.87656 0.33461 0.0
O397 O 0.33476 0.87883 0.35901 0.0
O398 O 0.35553 0.84501 0.34607 0.0
O399 O 0.34524 0.83469 0.3068 0.0
O400 O 0.31058 0.85694 0.28971 0.0
O401 O 0.3174 0.82516 0.26715 0.0
O402 O 0.32658 0.77786 0.28665 0.0
O403 O 0.29039 0.77261 0.27847 0.0
O404 O 0.27655 0.81288 0.28422 0.0
O405 O 0.28655 0.81944 0.32351 0.0
O406 O 0.32475 0.79847 0.33794 0.0
O407 O 0.31425 0.82691 0.36173 0.0
H408 H 0.30349 0.9275 0.36354 0.0
H409 H 0.31785 0.9667 0.35555 0.0
H410 H 0.36944 0.94289 0.32064 0.0
H411 H 0.35499 0.90385 0.32849 0.0
H412 H 0.32918 0.75561 0.32322 0.0
H413 H 0.32027 0.72128 0.34213 0.0
H414 H 0.2683 0.68749 0.27695 0.0
H415 H 0.27752 0.72184 0.25792 0.0
Nd416 Nd 0.5968 0.07903 0.58277 0.0
Nd417 Nd 0.5491 0.0592 0.58272 0.0
C418 C 0.63926 0.09428 0.5784 0.0
C419 C 0.66058 0.09149 0.59175 0.0
C420 C 0.67967 0.11025 0.59781 0.0
C421 C 0.6998 0.10801 0.61135 0.0
C422 C 0.70109 0.08691 0.61887 0.0
C423 C 0.68188 0.06818 0.61286 0.0
C424 C 0.66174 0.07049 0.59957 0.0
C425 C 0.58981 0.06119 0.62603 0.0
C426 C 0.57448 0.02597 0.55111 0.0
C427 C 0.50952 0.0395 0.59221 0.0
C428 C 0.48654 0.03841 0.57978 0.0
C429 C 0.46935 0.0385 0.59397 0.0
C430 C 0.44779 0.03876 0.58229 0.0
C431 C 0.44327 0.03916 0.55632 0.0
C432 C 0.46049 0.03885 0.54214 0.0
C433 C 0.4819 0.03836 0.55374 0.0
C434 C 0.54938 0.08048 0.54068 0.0
C435 C 0.56949 0.11283 0.60714 0.0
O436 O 0.62573 0.07551 0.56406 0.0
O437 O 0.62869 0.10675 0.59188 0.0
O438 O 0.60336 0.08083 0.62598 0.0
O439 O 0.58032 0.05167 0.60366 0.0
O440 O 0.59095 0.04476 0.55338 0.0
O441 O 0.55756 0.02649 0.56317 0.0
O442 O 0.52137 0.06007 0.60446 0.0
O443 O 0.52099 0.02825 0.5786 0.0
O444 O 0.53147 0.06992 0.54762 0.0
O445 O 0.56657 0.08001 0.55583 0.0
O446 O 0.55794 0.09348 0.61228 0.0
O447 O 0.58297 0.11153 0.59052 0.0
H448 H 0.67898 0.12664 0.59216 0.0
H449 H 0.71442 0.12266 0.61565 0.0
H450 H 0.68235 0.05184 0.61875 0.0
H451 H 0.64706 0.05591 0.59554 0.0
H452 H 0.47269 0.03868 0.6141 0.0
H453 H 0.43481 0.03925 0.59368 0.0
H454 H 0.45737 0.03894 0.52206 0.0
H455 H 0.49484 0.03808 0.54231 0.0
Nd456 Nd 0.32824 0.32489 0.83969 0.0
Nd457 Nd 0.30738 0.31195 0.79645 0.0
C458 C 0.33889 0.33128 0.88941 0.0
C459 C 0.33067 0.34322 0.91036 0.0
C460 C 0.32571 0.33178 0.93013 0.0
C461 C 0.31765 0.34268 0.95018 0.0
C462 C 0.31472 0.36534 0.95091 0.0
C463 C 0.31888 0.3764 0.93052 0.0
C464 C 0.32667 0.36535 0.9103 0.0
C465 C 0.33611 0.36557 0.81845 0.0
C466 C 0.27326 0.32577 0.83059 0.0
C467 C 0.29675 0.3026 0.74661 0.0
C468 C 0.30728 0.29046 0.72772 0.0
C469 C 0.32199 0.30331 0.71469 0.0
C470 C 0.33363 0.29214 0.69852 0.0
C471 C 0.33066 0.2679 0.695 0.0
C472 C 0.31584 0.25506 0.70793 0.0
C473 C 0.30428 0.2662 0.72412 0.0
C474 C 0.30059 0.27199 0.81905 0.0
C475 C 0.36203 0.31128 0.80474 0.0
O476 O 0.32446 0.31291 0.87562 0.0
O477 O 0.35003 0.34423 0.87597 0.0
O478 O 0.3514 0.35768 0.83071 0.0
O479 O 0.31691 0.35096 0.81605 0.0
O480 O 0.29165 0.32732 0.84728 0.0
O481 O 0.27494 0.32149 0.80668 0.0
O482 O 0.30902 0.32263 0.75944 0.0
O483 O 0.28634 0.29007 0.76087 0.0
O484 O 0.28478 0.28007 0.80813 0.0
O485 O 0.31949 0.2863 0.81968 0.0
O486 O 0.34426 0.3122 0.78858 0.0
O487 O 0.35977 0.31327 0.82852 0.0
H488 H 0.32821 0.31446 0.93014 0.0
H489 H 0.31422 0.33358 0.96543 0.0
H490 H 0.31702 0.39395 0.93065 0.0
H491 H 0.3299 0.37427 0.89487 0.0
H492 H 0.32472 0.32204 0.71725 0.0
H493 H 0.34492 0.30244 0.68873 0.0
H494 H 0.31273 0.23628 0.70507 0.0
H495 H 0.2931 0.25575 0.7339 0.0
Nd496 Nd 0.08026 0.09336 0.59331 0.0
Nd497 Nd 0.07938 0.04514 0.56862 0.0
C498 C 0.07425 0.13455 0.61113 0.0
C499 C 0.08229 0.15723 0.60461 0.0
C500 C 0.07539 0.17659 0.61549 0.0
C501 C 0.08422 0.19846 0.61023 0.0
C502 C 0.10017 0.20118 0.59416 0.0
C503 C 0.10683 0.18156 0.58315 0.0
C504 C 0.09788 0.15975 0.58826 0.0
C505 C 0.1174 0.09001 0.57187 0.0
C506 C 0.05567 0.07498 0.53308 0.0
C507 C 0.08837 1.0057 0.54962 0.0
C508 C 0.08529 0.98238 0.55536 0.0
C509 C 0.09719 0.96723 0.54465 0.0
C510 C 0.09253 0.94412 0.54767 0.0
C511 C 0.07577 0.93585 0.56129 0.0
C512 C 0.06449 0.95143 0.57282 0.0
C513 C 0.06929 0.97457 0.56995 0.0
C514 C 0.04178 0.04844 0.5889 0.0
C515 C 0.10007 0.06241 0.63038 0.0
O516 O 0.05939 0.11911 0.59365 0.0
O517 O 0.09018 0.12608 0.62162 0.0
O518 O 0.11827 0.10435 0.59256 0.0
O519 O 0.09744 0.07954 0.5624 0.0
O520 O 0.05576 0.08839 0.55495 0.0
O521 O 0.0671 0.0587 0.53268 0.0
O522 O 0.10325 0.02243 0.56569 0.0
O523 O 0.06974 1.01152 0.54201 0.0
O524 O 0.04119 0.03358 0.56866 0.0
O525 O 0.06165 0.05887 0.59882 0.0
O526 O 0.10143 0.0488 0.60914 0.0
O527 O 0.08876 0.07864 0.62909 0.0
H528 H 0.06336 0.17483 0.62815 0.0
H529 H 0.07848 0.21318 0.61864 0.0
H530 H 0.11927 0.1831 0.57095 0.0
H531 H 0.10343 0.14488 0.57979 0.0
H532 H 0.10965 0.97312 0.53341 0.0
H533 H 0.1018 0.93264 0.53899 0.0
H534 H 0.05133 0.94557 0.58321 0.0
H535 H 0.05997 0.98616 0.57836 0.0
Nd536 Nd 0.34228 0.8317 0.8229 0.0
Nd537 Nd 0.29811 0.80517 0.80715 0.0
C538 C 0.38616 0.85054 0.83249 0.0
C539 C 0.40367 0.86897 0.85005 0.0
C540 C 0.41995 0.88333 0.84021 0.0
C541 C 0.43902 0.89806 0.85627 0.0
C542 C 0.44216 0.89851 0.88245 0.0
C543 C 0.42507 0.8853 0.89246 0.0
C544 C 0.4059 0.87069 0.87639 0.0
C545 C 0.31898 0.83459 0.86285 0.0
C546 C 0.33511 0.77318 0.81316 0.0
C547 C 0.254 0.78737 0.79762 0.0
C548 C 0.23543 0.7701 0.78002 0.0
C549 C 0.21758 0.75793 0.7897 0.0
C550 C 0.19749 0.74553 0.77352 0.0
C551 C 0.19482 0.7453 0.74736 0.0
C552 C 0.21343 0.756 0.73753 0.0
C553 C 0.23358 0.76823 0.7537 0.0
C554 C 0.32158 0.80276 0.7676 0.0
C555 C 0.30688 0.86386 0.81353 0.0
O556 O 0.37659 0.83283 0.84166 0.0
O557 O 0.37215 0.85681 0.8162 0.0
O558 O 0.33382 0.85153 0.85842 0.0
O559 O 0.31746 0.81598 0.84724 0.0
O560 O 0.34907 0.794 0.81571 0.0
O561 O 0.31323 0.77235 0.8117 0.0
O562 O 0.26408 0.80503 0.78872 0.0
O563 O 0.26774 0.78013 0.81331 0.0
O564 O 0.307 0.7855 0.77183 0.0
O565 O 0.32254 0.82124 0.78303 0.0
O566 O 0.29239 0.84403 0.81427 0.0
O567 O 0.32808 0.86303 0.81315 0.0
H568 H 0.41853 0.88222 0.81995 0.0
H569 H 0.45202 0.90784 0.84799 0.0
H570 H 0.42703 0.88549 0.91259 0.0
H571 H 0.39343 0.85993 0.88449 0.0
H572 H 0.21869 0.75911 0.80993 0.0
H573 H 0.18367 0.73705 0.78166 0.0
H574 H 0.212 0.75635 0.71754 0.0
H575 H 0.24718 0.7774 0.74573 0.0
Nd576 Nd 0.53953 0.05638 0.07256 0.0
Nd577 Nd 0.58838 0.08596 0.09044 0.0
C578 C 0.49596 0.04018 0.05674 0.0
C579 C 0.47399 0.04394 0.06068 0.0
C580 C 0.46817 0.04679 0.08479 0.0
C581 C 0.44606 0.04724 0.08727 0.0
C582 C 0.42965 0.04491 0.06569 0.0
C583 C 0.43605 0.04374 0.04186 0.0
C584 C 0.45802 0.04315 0.03939 0.0
C585 C 0.57069 0.03055 0.07646 0.0
C586 C 0.55436 0.08279 0.13223 0.0
C587 C 0.63079 0.10531 0.11162 0.0
C588 C 0.65192 0.10727 0.10204 0.0
C589 C 0.65224 0.10783 0.0764 0.0
C590 C 0.67242 0.10966 0.06735 0.0
C591 C 0.69243 0.11057 0.08371 0.0
C592 C 0.69191 0.10933 0.1092 0.0
C593 C 0.67175 0.10774 0.11832 0.0
C594 C 0.55725 0.10852 0.07173 0.0
C595 C 0.5733 0.06319 0.03186 0.0
O596 O 0.5084 0.05569 0.04672 0.0
O597 O 0.50746 0.03233 0.07422 0.0
O598 O 0.55189 0.02375 0.06046 0.0
O599 O 0.57149 0.04912 0.09139 0.0
O600 O 0.53763 0.06993 0.11417 0.0
O601 O 0.57498 0.09019 0.12782 0.0
O602 O 0.6205 0.08428 0.11317 0.0
O603 O 0.6171 0.11695 0.10232 0.0
O604 O 0.5776 0.11222 0.06688 0.0
O605 O 0.55475 0.09407 0.08594 0.0
O606 O 0.59039 0.06783 0.0509 0.0
O607 O 0.55259 0.06302 0.03582 0.0
H608 H 0.48038 0.04772 0.10153 0.0
H609 H 0.44156 0.04804 0.10585 0.0
H610 H 0.42381 0.04229 0.02498 0.0
H611 H 0.46232 0.04118 0.02068 0.0
H612 H 0.63694 0.10699 0.06344 0.0
H613 H 0.67242 0.11044 0.04759 0.0
H614 H 0.7072 0.11025 0.12221 0.0
H615 H 0.67165 0.10704 0.13807 0.0
Nd616 Nd 0.30828 0.31694 0.30042 0.0
Nd617 Nd 0.34125 0.34637 0.34369 0.0
C618 C 0.27535 0.29916 0.2611 0.0
C619 C 0.25261 0.30341 0.25793 0.0
C620 C 0.25009 0.32624 0.26377 0.0
C621 C 0.23098 0.33031 0.27278 0.0
C622 C 0.21421 0.31167 0.27625 0.0
C623 C 0.21524 0.28882 0.26663 0.0
C624 C 0.23423 0.28475 0.25734 0.0
C625 C 0.30738 0.29913 0.34362 0.0
C626 C 0.2941 0.36089 0.33374 0.0
C627 C 0.37361 0.37132 0.38014 0.0
C628 C 0.39743 0.37601 0.37622 0.0
C629 C 0.40994 0.35948 0.37994 0.0
C630 C 0.42652 0.35666 0.36554 0.0
C631 C 0.43076 0.37015 0.34698 0.0
C632 C 0.42102 0.3892 0.34646 0.0
C633 C 0.40486 0.39239 0.36138 0.0
C634 C 0.34975 0.35611 0.29717 0.0
C635 C 0.35342 0.30105 0.31568 0.0
O636 O 0.29238 0.31641 0.26079 0.0
O637 O 0.27938 0.28853 0.27972 0.0
O638 O 0.30645 0.28691 0.32153 0.0
O639 O 0.3088 0.32029 0.34288 0.0
O640 O 0.28877 0.34431 0.31324 0.0
O641 O 0.31283 0.36412 0.35021 0.0
O642 O 0.36407 0.34952 0.38017 0.0
O643 O 0.36035 0.38087 0.36649 0.0
O644 O 0.36427 0.35214 0.31432 0.0
O645 O 0.33108 0.3523 0.30418 0.0
O646 O 0.35311 0.31299 0.33801 0.0
O647 O 0.33981 0.3028 0.29534 0.0
H648 H 0.26385 0.34104 0.26411 0.0
H649 H 0.23037 0.34807 0.27929 0.0
H650 H 0.20269 0.27393 0.26884 0.0
H651 H 0.23576 0.26697 0.25286 0.0
H652 H 0.4052 0.34697 0.39178 0.0
H653 H 0.4345 0.34247 0.36732 0.0
H654 H 0.42411 0.4003 0.33281 0.0
H655 H 0.39634 0.40606 0.35895 0.0
Nd656 Nd 0.5812 0.6044 0.0932 0.0
Nd657 Nd 0.57844 0.55642 0.06788 0.0
C658 C 0.57407 0.64559 0.10866 0.0
C659 C 0.57598 0.66594 0.09649 0.0
C660 C 0.56212 0.68124 0.10067 0.0
C661 C 0.56334 0.70001 0.08816 0.0
C662 C 0.57852 0.70377 0.07139 0.0
C663 C 0.59236 0.68835 0.06726 0.0
C664 C 0.591 0.66952 0.07956 0.0
C665 C 0.61765 0.60021 0.07119 0.0
C666 C 0.55671 0.58626 0.03194 0.0
C667 C 0.58411 0.51536 0.04911 0.0
C668 C 0.57593 0.49225 0.05439 0.0
C669 C 0.58746 0.47503 0.04888 0.0
C670 C 0.57923 0.45277 0.05337 0.0
C671 C 0.55925 0.44751 0.06321 0.0
C672 C 0.54788 0.46499 0.06887 0.0
C673 C 0.55627 0.48725 0.06468 0.0
C674 C 0.54207 0.5608 0.09028 0.0
C675 C 0.60361 0.57356 0.12847 0.0
O676 O 0.55778 0.62745 0.09743 0.0
O677 O 0.59304 0.64016 0.1158 0.0
O678 O 0.61901 0.61453 0.09207 0.0
O679 O 0.59755 0.5903 0.06158 0.0
O680 O 0.55751 0.60028 0.05376 0.0
O681 O 0.56751 0.56961 0.03179 0.0
O682 O 0.59888 0.53023 0.06714 0.0
O683 O 0.56843 0.52428 0.03889 0.0
O684 O 0.54051 0.54671 0.06917 0.0
O685 O 0.56224 0.57044 0.09971 0.0
O686 O 0.60274 0.5602 0.10626 0.0
O687 O 0.59334 0.59084 0.12937 0.0
H688 H 0.55029 0.67857 0.11347 0.0
H689 H 0.55256 0.71172 0.09176 0.0
H690 H 0.60396 0.69061 0.05416 0.0
H691 H 0.60156 0.65764 0.07569 0.0
H692 H 0.60276 0.47879 0.04112 0.0
H693 H 0.58862 0.43979 0.04937 0.0
H694 H 0.53236 0.46143 0.07625 0.0
H695 H 0.54724 0.50049 0.0692 0.0
Nd696 Nd 0.84357 0.33729 0.32888 0.0
Nd697 Nd 0.80193 0.31439 0.30002 0.0
C698 C 0.88331 0.3668 0.34462 0.0
C699 C 0.907 0.36717 0.3458 0.0
C700 C 0.91359 0.34661 0.33841 0.0
C701 C 0.93628 0.34644 0.34352 0.0
C702 C 0.95246 0.36683 0.35607 0.0
C703 C 0.94583 0.3877 0.3619 0.0
C704 C 0.92317 0.38783 0.35684 0.0
C705 C 0.81346 0.32843 0.36093 0.0
C706 C 0.83834 0.28051 0.31352 0.0
C707 C 0.76169 0.28568 0.28507 0.0
C708 C 0.73887 0.28663 0.28807 0.0
C709 C 0.73524 0.30406 0.30625 0.0
C710 C 0.71337 0.3059 0.30783 0.0
C711 C 0.69491 0.29045 0.29103 0.0
C712 C 0.69872 0.27266 0.27324 0.0
C713 C 0.72058 0.27075 0.27184 0.0
C714 C 0.83299 0.32241 0.26856 0.0
C715 C 0.80695 0.3709 0.31459 0.0
O716 O 0.87139 0.36446 0.32209 0.0
O717 O 0.873 0.35412 0.35895 0.0
O718 O 0.83357 0.32488 0.36438 0.0
O719 O 0.80939 0.33519 0.34019 0.0
O720 O 0.85335 0.30064 0.32343 0.0
O721 O 0.81732 0.28173 0.30518 0.0
O722 O 0.77529 0.28563 0.30578 0.0
O723 O 0.77097 0.29958 0.27116 0.0
O724 O 0.81274 0.32543 0.26388 0.0
O725 O 0.83615 0.31598 0.28947 0.0
O726 O 0.79222 0.3508 0.30426 0.0
O727 O 0.82781 0.36986 0.32392 0.0
H728 H 0.90111 0.33053 0.32988 0.0
H729 H 0.94094 0.33008 0.33907 0.0
H730 H 0.95807 0.40367 0.37133 0.0
H731 H 0.91817 0.40381 0.36255 0.0
H732 H 0.74934 0.31653 0.31879 0.0
H733 H 0.71094 0.31968 0.32178 0.0
H734 H 0.68491 0.26082 0.25964 0.0
H735 H 0.72324 0.25732 0.25761 0.0
Nd736 Nd 0.05275 0.5893 0.58332 0.0
Nd737 Nd 0.10147 0.59108 0.60755 0.0
C738 C 1.01188 0.59473 0.56914 0.0
C739 C 0.98874 0.58572 0.57299 0.0
C740 C 0.97205 0.57416 0.5519 0.0
C741 C 0.95012 0.56473 0.55492 0.0
C742 C 0.94442 0.56686 0.57911 0.0
C743 C 0.96103 0.57882 0.60023 0.0
C744 C 0.98306 0.58812 0.59722 0.0
C745 C 0.06194 0.54697 0.58638 0.0
C746 C 0.06672 0.59584 0.64574 0.0
C747 C 0.14168 0.58318 0.6177 0.0
C748 C 0.16044 0.58748 0.60405 0.0
C749 C 0.17858 0.57735 0.60858 0.0
C750 C 0.19651 0.58197 0.59559 0.0
C751 C 0.19652 0.59688 0.578 0.0
C752 C 0.17789 0.60645 0.57313 0.0
C753 C 0.15999 0.60171 0.58596 0.0
C754 C 0.09193 0.63372 0.60722 0.0
C755 C 0.08828 0.58748 0.54578 0.0
O756 O 0.02635 0.60835 0.58839 0.0
O757 O 1.02057 0.57991 0.556 0.0
O758 O 0.04853 0.55039 0.56759 0.0
O759 O 0.06865 0.56506 0.60316 0.0
O760 O 0.05277 0.5987 0.62628 0.0
O761 O 0.08528 0.58893 0.64274 0.0
O762 O 0.12399 0.56703 0.60538 0.0
O763 O 0.13656 0.6019 0.62857 0.0
O764 O 0.107 0.62987 0.62412 0.0
O765 O 0.08525 0.61613 0.58954 0.0
O766 O 0.10118 0.58227 0.56447 0.0
O767 O 0.07041 0.59529 0.54972 0.0
H768 H 0.97604 0.57224 0.53304 0.0
H769 H 0.93758 0.55585 0.5383 0.0
H770 H 0.9571 0.58052 0.61911 0.0
H771 H 0.99563 0.59694 0.61385 0.0
H772 H 0.17897 0.56608 0.62227 0.0
H773 H 0.21046 0.57406 0.59951 0.0
H774 H 0.17743 0.6183 0.56008 0.0
H775 H 0.14595 0.60953 0.58211 0.0
Nd776 Nd 0.82681 0.83472 0.34508 0.0
Nd777 Nd 0.80588 0.82052 0.30135 0.0
C778 C 0.83705 0.84299 0.39499 0.0
C779 C 0.82825 0.85581 0.41498 0.0
C780 C 0.80497 0.85142 0.41525 0.0
C781 C 0.79682 0.86466 0.43356 0.0
C782 C 0.8118 0.8825 0.45186 0.0
C783 C 0.83507 0.88673 0.45165 0.0
C784 C 0.8432 0.87351 0.43335 0.0
C785 C 0.83562 0.87422 0.32213 0.0
C786 C 0.772 0.83622 0.33501 0.0
C787 C 0.79342 0.81011 0.25155 0.0
C788 C 0.80478 0.80413 0.2305 0.0
C789 C 0.82614 0.81745 0.22895 0.0
C790 C 0.83734 0.81022 0.20977 0.0
C791 C 0.82744 0.78944 0.19229 0.0
C792 C 0.80601 0.77634 0.19376 0.0
C793 C 0.79476 0.78368 0.21267 0.0
C794 C 0.79864 0.78162 0.32558 0.0
C795 C 0.86068 0.82091 0.31062 0.0
O796 O 0.82343 0.82384 0.38162 0.0
O797 O 0.8481 0.85554 0.38118 0.0
O798 O 0.8506 0.86657 0.33526 0.0
O799 O 0.81625 0.8599 0.31982 0.0
O800 O 0.7906 0.83901 0.35181 0.0
O801 O 0.77315 0.82961 0.31125 0.0
O802 O 0.79998 0.83139 0.26437 0.0
O803 O 0.79036 0.79482 0.266 0.0
O804 O 0.7829 0.78977 0.31452 0.0
O805 O 0.81763 0.79574 0.326 0.0
O806 O 0.84323 0.82229 0.29423 0.0
O807 O 0.85799 0.82236 0.33424 0.0
H808 H 0.79299 0.83789 0.40125 0.0
H809 H 0.77882 0.86108 0.43327 0.0
H810 H 0.84707 0.90006 0.46588 0.0
H811 H 0.86118 0.87718 0.43346 0.0
H812 H 0.83431 0.83322 0.24271 0.0
H813 H 0.85381 0.82056 0.20885 0.0
H814 H 0.79789 0.76046 0.18013 0.0
H815 H 0.77836 0.77316 0.21365 0.0
Nd816 Nd 0.82251 0.34732 0.8296 0.0
Nd817 Nd 0.8133 0.30613 0.8008 0.0
C818 C 0.82634 0.39114 0.85105 0.0
C819 C 0.83693 0.41443 0.84749 0.0
C820 C 0.82535 0.43197 0.85098 0.0
C821 C 0.83451 0.45406 0.84666 0.0
C822 C 0.85546 0.45894 0.83887 0.0
C823 C 0.86706 0.4413 0.83537 0.0
C824 C 0.85779 0.41912 0.83951 0.0
C825 C 0.86359 0.33426 0.82704 0.0
C826 C 0.81229 0.34498 0.76841 0.0
C827 C 0.81036 0.26175 0.78225 0.0
C828 C 0.80545 0.24048 0.7928 0.0
C829 C 0.8137 0.24068 0.81828 0.0
C830 C 0.80638 0.22133 0.82898 0.0
C831 C 0.79075 0.20143 0.81436 0.0
C832 C 0.78313 0.20101 0.78864 0.0
C833 C 0.7904 0.2204 0.77799 0.0
C834 C 0.77224 0.31842 0.80421 0.0
C835 C 0.81537 0.30965 0.86168 0.0
O836 O 0.80976 0.37917 0.83312 0.0
O837 O 0.83962 0.3786 0.85906 0.0
O838 O 0.85708 0.34233 0.84743 0.0
O839 O 0.84788 0.33214 0.8081 0.0
O840 O 0.81283 0.35677 0.791 0.0
O841 O 0.81588 0.32404 0.76635 0.0
O842 O 0.82943 0.27689 0.79198 0.0
O843 O 0.79367 0.27155 0.77881 0.0
O844 O 0.77841 0.31065 0.78345 0.0
O845 O 0.78827 0.3207 0.82279 0.0
O846 O 0.82095 0.29843 0.8417 0.0
O847 O 0.80992 0.3292 0.85999 0.0
H848 H 0.80914 0.42851 0.85694 0.0
H849 H 0.82536 0.46742 0.84973 0.0
H850 H 0.88314 0.44459 0.82913 0.0
H851 H 0.8668 0.40566 0.83632 0.0
H852 H 0.82536 0.25595 0.83014 0.0
H853 H 0.81271 0.22207 0.84877 0.0
H854 H 0.77083 0.18606 0.77697 0.0
H855 H 0.78365 0.22001 0.75838 0.0
Nd856 Nd 0.81047 0.81863 0.80076 0.0
Nd857 Nd 0.84784 0.84817 0.83666 0.0
C858 C 0.77561 0.78969 0.77016 0.0
C859 C 0.75303 0.78498 0.77713 0.0
C860 C 0.73524 0.79093 0.76276 0.0
C861 C 0.71737 0.79602 0.7739 0.0
C862 C 0.71737 0.79591 0.79981 0.0
C863 C 0.73371 0.78696 0.81303 0.0
C864 C 0.75111 0.78121 0.80169 0.0
C865 C 0.8057 0.8177 0.85034 0.0
C866 C 0.80459 0.8687 0.82201 0.0
C867 C 0.88222 0.87418 0.87035 0.0
C868 C 0.90569 0.87415 0.86748 0.0
C869 C 0.91743 0.86137 0.88156 0.0
C870 C 0.93401 0.85194 0.87197 0.0
C871 C 0.93893 0.85493 0.84803 0.0
C872 C 0.92964 0.87066 0.83598 0.0
C873 C 0.9134 0.8804 0.84579 0.0
C874 C 0.85349 0.85065 0.78761 0.0
C875 C 0.85521 0.79976 0.81088 0.0
O876 O 0.78314 0.81101 0.76711 0.0
O877 O 0.79098 0.78245 0.78359 0.0
O878 O 0.79053 0.82088 0.83335 0.0
O879 O 0.8231 0.8167 0.84136 0.0
O880 O 0.80044 0.85287 0.80121 0.0
O881 O 0.82001 0.86833 0.84133 0.0
O882 O 0.87027 0.85455 0.87409 0.0
O883 O 0.87096 0.88278 0.85357 0.0
O884 O 0.86861 0.8479 0.80506 0.0
O885 O 0.8354 0.85026 0.79581 0.0
O886 O 0.85965 0.81436 0.83268 0.0
O887 O 0.83913 0.801 0.79278 0.0
H888 H 0.73621 0.79379 0.74374 0.0
H889 H 0.70452 0.80175 0.76266 0.0
H890 H 0.73457 0.78644 0.83292 0.0
H891 H 0.76439 0.77637 0.81331 0.0
H892 H 0.91212 0.85654 0.89854 0.0
H893 H 0.94155 0.84068 0.88232 0.0
H894 H 0.93304 0.87366 0.81765 0.0
H895 H 0.90508 0.8906 0.83463 0.0
Nd896 Nd 0.58111 0.59856 0.58439 0.0
Nd897 Nd 0.55016 0.55713 0.57614 0.0
C898 C 0.60942 0.64034 0.59672 0.0
C899 C 0.61033 0.66058 0.584 0.0
C900 C 0.61428 0.68314 0.59824 0.0
C901 C 0.61453 0.70218 0.58616 0.0
C902 C 0.61076 0.69906 0.55954 0.0
C903 C 0.60657 0.67638 0.54535 0.0
C904 C 0.60638 0.65741 0.55741 0.0
C905 C 0.57942 0.57822 0.534 0.0
C906 C 0.53072 0.59989 0.56081 0.0
C907 C 0.52301 0.51472 0.56545 0.0
C908 C 0.52752 0.49317 0.57293 0.0
C909 C 0.54861 0.48816 0.57219 0.0
C910 C 0.55426 0.47005 0.583 0.0
C911 C 0.53889 0.45623 0.59468 0.0
C912 C 0.51757 0.46097 0.59493 0.0
C913 C 0.512 0.47929 0.58426 0.0
C914 C 0.55127 0.57945 0.62586 0.0
C915 C 0.60102 0.55434 0.59446 0.0
O916 O 0.59211 0.63457 0.60764 0.0
O917 O 0.61412 0.6222 0.5842 0.0
O918 O 0.57725 0.59899 0.54163 0.0
O919 O 0.57863 0.56737 0.55257 0.0
O920 O 0.55087 0.61257 0.57157 0.0
O921 O 0.52621 0.57703 0.55762 0.0
O922 O 0.5343 0.52352 0.54921 0.0
O923 O 0.52217 0.53067 0.58418 0.0
O924 O 0.55456 0.55886 0.61968 0.0
O925 O 0.55187 0.58901 0.60647 0.0
O926 O 0.58071 0.54278 0.5832 0.0
O927 O 0.60516 0.57718 0.60157 0.0
H928 H 0.6171 0.68603 0.61871 0.0
H929 H 0.61751 0.71935 0.59772 0.0
H930 H 0.6039 0.67329 0.52487 0.0
H931 H 0.60325 0.64026 0.54581 0.0
H932 H 0.56109 0.49866 0.56391 0.0
H933 H 0.571 0.46738 0.58279 0.0
H934 H 0.50517 0.4506 0.60344 0.0
H935 H 0.49575 0.48299 0.58543 0.0
Nd936 Nd 0.09822 0.59095 0.09735 0.0
Nd937 Nd 0.05357 0.56795 0.09554 0.0
C938 C 0.13979 0.61011 0.0925 0.0
C939 C 0.16137 0.60427 0.0994 0.0
C940 C 0.17682 0.60595 0.08289 0.0
C941 C 0.19639 0.5982 0.0879 0.0
C942 C 0.2008 0.58875 0.10958 0.0
C943 C 0.18555 0.5876 0.12644 0.0
C944 C 0.16588 0.59515 0.12129 0.0
C945 C 0.09332 0.57143 0.1401 0.0
C946 C 0.08328 0.53774 0.06611 0.0
C947 C 1.01317 0.54256 0.09629 0.0
C948 C 0.99031 0.54512 0.08776 0.0
C949 C 0.97574 0.54708 0.10507 0.0
C950 C 0.95445 0.55066 0.09729 0.0
C951 C 0.94738 0.5522 0.07202 0.0
C952 C 0.96191 0.54992 0.05467 0.0
C953 C 0.98318 0.54655 0.06246 0.0
C954 C 0.05542 0.59734 0.06094 0.0
C955 C 0.06909 0.62082 0.12355 0.0
O956 O 0.12533 0.59505 0.0745 0.0
O957 O 0.13048 0.6176 0.11116 0.0
O958 O 0.10458 0.59237 0.14063 0.0
O959 O 0.08464 0.56163 0.11763 0.0
O960 O 0.10036 0.55597 0.07505 0.0
O961 O 0.06318 0.53786 0.07138 0.0
O962 O 0.02537 0.55768 0.11601 0.0
O963 O 1.02463 0.53831 0.07849 0.0
O964 O 0.04065 0.5948 0.07547 0.0
O965 O 0.06878 0.58453 0.06467 0.0
O966 O 0.05883 0.60032 0.12742 0.0
O967 O 0.08259 0.62158 0.10696 0.0
H968 H 0.17348 0.61274 0.06581 0.0
H969 H 0.208 0.5994 0.07472 0.0
H970 H 0.18845 0.58012 0.14311 0.0
H971 H 0.15396 0.59331 0.13408 0.0
H972 H 0.98096 0.5462 0.12468 0.0
H973 H 0.94374 0.5527 0.11118 0.0
H974 H 0.95683 0.5507 0.035 0.0
H975 H 0.99404 0.54524 0.04861 0.0
H976 H 0.09281 0.27061 0.92995 0.0
H977 H 0.05663 0.31284 0.97251 0.0
H978 H 0.0578 0.28939 1.00542 0.0
H979 H 0.06626 0.21523 0.94612 0.0
H980 H 0.09172 0.20511 0.94927 0.0
H981 H 0.0876 0.2246 0.92798 0.0
H982 H 0.12529 0.25338 0.95068 0.0
H983 H 0.12952 0.23398 0.97202 0.0
H984 H 0.12976 0.26373 0.98438 0.0
H985 H 0.06255 0.26221 0.03411 0.0
H986 H 0.0716 0.23288 0.05784 0.0
H987 H 0.10626 0.20793 0.9991 0.0
C988 C 0.08499 0.27476 0.94609 0.0
C989 C 0.07461 0.29372 0.94843 0.0
C990 C 0.06479 0.2986 0.9701 0.0
C991 C 0.06528 0.2853 0.989 0.0
C992 C 0.07574 0.267 0.9863 0.0
C993 C 0.08548 0.26163 0.96552 0.0
C994 C 0.09613 0.24125 0.96806 0.0
C995 C 0.08474 0.22031 0.94658 0.0
C996 C 0.1217 0.24853 0.96884 0.0
C997 C 0.09089 0.23627 0.99352 0.0
C998 C 0.07898 0.25134 1.00348 0.0
C999 C 0.07204 0.2504 0.02662 0.0
C1000 C 0.0775 0.23374 0.04013 0.0
C1001 C 0.09005 0.21817 0.03079 0.0
C1002 C 0.09664 0.21944 0.00691 0.0
H1003 H 0.14125 0.81911 0.25256 0.0
H1004 H 0.12482 0.81312 0.32644 0.0
H1005 H 0.16495 0.81435 0.34245 0.0
H1006 H 0.1797 0.78211 0.25306 0.0
H1007 H 0.19826 0.79884 0.23622 0.0
H1008 H 0.16876 0.79853 0.23139 0.0
H1009 H 0.17894 0.84347 0.24335 0.0
H1010 H 0.20849 0.84394 0.24823 0.0
H1011 H 0.19687 0.85788 0.27322 0.0
H1012 H 0.20929 0.81689 0.35022 0.0
H1013 H 0.24937 0.81778 0.34784 0.0
H1014 H 0.23563 0.82008 0.26817 0.0
C1015 C 0.14592 0.81826 0.27226 0.0
C1016 C 0.12933 0.8163 0.28821 0.0
C1017 C 0.13676 0.81481 0.31368 0.0
C1018 C 0.15972 0.81551 0.32295 0.0
C1019 C 0.17548 0.81745 0.30662 0.0
C1020 C 0.16864 0.81862 0.28167 0.0
C1021 C 0.18833 0.81978 0.26741 0.0
C1022 C 0.18347 0.79855 0.24574 0.0
C1023 C 0.19346 0.84262 0.25747 0.0
C1024 C 0.20753 0.81915 0.28807 0.0
C1025 C 0.19997 0.81801 0.3107 0.0
C1026 C 0.21506 0.81765 0.33243 0.0
C1027 C 0.23799 0.81823 0.33095 0.0
C1028 C 0.24607 0.81891 0.30783 0.0
C1029 C 0.23031 0.81945 0.28622 0.0
H1030 H 0.59024 0.93449 0.43285 0.0
H1031 H 0.56478 0.88069 0.47362 0.0
H1032 H 0.5611 0.9105 0.50821 0.0
H1033 H 0.62349 0.97567 0.48877 0.0
H1034 H 0.61794 1.00106 0.47785 0.0
H1035 H 0.61794 0.9756 0.45534 0.0
H1036 H 0.57755 0.97434 0.43346 0.0
H1037 H 0.57746 0.99981 0.45589 0.0
H1038 H 0.55548 0.97357 0.45193 0.0
H1039 H 0.55892 0.94516 0.53785 0.0
H1040 H 0.56021 0.98365 0.5625 0.0
H1041 H 0.58959 0.01682 0.50552 0.0
C1042 C 0.58371 0.92907 0.44897 0.0
C1043 C 0.57764 0.90514 0.45038 0.0
C1044 C 0.56955 0.89881 0.47204 0.0
C1045 C 0.56735 0.91564 0.49183 0.0
C1046 C 0.57362 0.93897 0.49006 0.0
C1047 C 0.58182 0.94585 0.46938 0.0
C1048 C 0.588 0.97234 0.47306 0.0
C1049 C 0.61335 0.98172 0.4738 0.0
C1050 C 0.57377 0.98049 0.45235 0.0
C1051 C 0.58178 0.97909 0.49886 0.0
C1052 C 0.57335 0.95941 0.50807 0.0
C1053 C 0.56565 0.96072 0.53095 0.0
C1054 C 0.56643 0.9827 0.54482 0.0
C1055 C 0.57515 1.00326 0.5361 0.0
C1056 C 0.58315 1.00142 0.51286 0.0
H1057 H 0.49054 0.29071 0.80778 0.0
H1058 H 0.48788 0.312 0.73509 0.0
H1059 H 0.44943 0.31679 0.73638 0.0
H1060 H 0.4313 0.25956 0.79906 0.0
H1061 H 0.42802 0.26963 0.83097 0.0
H1062 H 0.45529 0.26711 0.82451 0.0
H1063 H 0.47232 0.31028 0.84557 0.0
H1064 H 0.4451 0.3129 0.85212 0.0
H1065 H 0.46001 0.33235 0.83461 0.0
H1066 H 0.40962 0.3177 0.74415 0.0
H1067 H 0.37414 0.31857 0.75956 0.0
H1068 H 0.40136 0.30015 0.82938 0.0
C1069 C 0.48192 0.29644 0.79213 0.0
C1070 C 0.49287 0.30088 0.77116 0.0
C1071 C 0.48051 0.30849 0.75141 0.0
C1072 C 0.45836 0.3112 0.75193 0.0
C1073 C 0.44815 0.30669 0.7726 0.0
C1074 C 0.45963 0.2998 0.7926 0.0
C1075 C 0.44476 0.29705 0.81295 0.0
C1076 C 0.43954 0.27183 0.81712 0.0
C1077 C 0.45623 0.31416 0.83779 0.0
C1078 C 0.42318 0.30323 0.80118 0.0
C1079 C 0.42555 0.30844 0.7777 0.0
C1080 C 0.40785 0.31388 0.76265 0.0
C1081 C 0.38749 0.31428 0.77165 0.0
C1082 C 0.38437 0.30965 0.79591 0.0
C1083 C 0.40282 0.30402 0.81083 0.0
H1084 H 0.03217 0.82631 0.62269 0.0
H1085 H 0.0307 0.78245 0.55064 0.0
H1086 H 0.04482 0.81747 0.53347 0.0
H1087 H 1.01409 0.87237 0.59733 0.0
H1088 H 0.03229 0.8951 0.62193 0.0
H1089 H 1.0219 0.86658 0.62845 0.0
H1090 H 0.06292 0.86431 0.64365 0.0
H1091 H 0.07342 0.89279 0.63711 0.0
H1092 H 0.08311 0.86847 0.62288 0.0
H1093 H 0.05872 0.85703 0.52413 0.0
H1094 H 0.07122 0.89872 0.52302 0.0
H1095 H 0.06489 0.91645 0.60174 0.0
C1096 C 0.03471 0.82404 0.60326 0.0
C1097 C 0.03029 0.80169 0.58794 0.0
C1098 C 0.03395 0.79944 0.56267 0.0
C1099 C 0.04198 0.81919 0.55277 0.0
C1100 C 0.0463 0.84096 0.56844 0.0
C1101 C 0.04279 0.84351 0.59313 0.0
C1102 C 0.04881 0.86884 0.60601 0.0
C1103 C 0.02803 0.87615 0.61388 0.0
C1104 C 0.06822 0.87389 0.62875 0.0
C1105 C 0.05625 0.88014 0.58467 0.0
C1106 C 0.05465 0.86377 0.56317 0.0
C1107 C 0.06022 0.87004 0.54089 0.0
C1108 C 0.06748 0.89374 0.54053 0.0
C1109 C 0.0692 0.91084 0.56235 0.0
C1110 C 0.06361 0.90383 0.58471 0.0
H1111 H 0.55895 0.8914 0.95455 0.0
H1112 H 0.58779 0.95707 0.93404 0.0
H1113 H 0.54959 0.96214 0.92096 0.0
H1114 H 0.5166 0.87174 0.90307 0.0
H1115 H 0.49565 0.85763 0.91926 0.0
H1116 H 0.52504 0.86135 0.93138 0.0
H1117 H 0.52022 0.88292 0.97465 0.0
H1118 H 0.4907 0.87933 0.96256 0.0
H1119 H 0.50849 0.90798 0.97596 0.0
H1120 H 0.50885 0.95707 0.90388 0.0
H1121 H 0.46871 0.94193 0.88374 0.0
H1122 H 0.46649 0.87976 0.9155 0.0
C1123 C 0.55724 0.90713 0.94794 0.0
C1124 C 0.5763 0.92387 0.9454 0.0
C1125 C 0.57339 0.94405 0.93623 0.0
C1126 C 0.55176 0.94715 0.92888 0.0
C1127 C 0.53326 0.93 0.93099 0.0
C1128 C 0.53578 0.91044 0.94044 0.0
C1129 C 0.51328 0.89338 0.93814 0.0
C1130 C 0.51262 0.86964 0.92199 0.0
C1131 C 0.50786 0.89076 0.96439 0.0
C1132 C 0.49783 0.90586 0.92479 0.0
C1133 C 0.5096 0.92716 0.92125 0.0
C1134 C 0.49934 0.9407 0.90704 0.0
C1135 C 0.4766 0.93195 0.8956 0.0
C1136 C 0.46449 0.90987 0.8984 0.0
C1137 C 0.47513 0.89704 0.91376 0.0
H1138 H 0.49193 0.18711 0.14224 0.0
H1139 H 0.50978 0.2356 0.09294 0.0
H1140 H 0.51984 0.20514 0.06415 0.0
H1141 H 0.53752 0.16489 0.13975 0.0
H1142 H 0.52336 0.13576 0.14166 0.0
H1143 H 0.51291 0.16005 0.15418 0.0
H1144 H 0.47379 0.139 0.12552 0.0
H1145 H 0.48516 0.11562 0.11209 0.0
H1146 H 0.47196 0.13169 0.09173 0.0
H1147 H 0.53767 0.1739 0.04777 0.0
H1148 H 0.55777 0.14237 0.04281 0.0
H1149 H 0.52601 0.1132 0.10065 0.0
C1150 C 0.49673 0.19086 0.12466 0.0
C1151 C 0.49991 0.21354 0.11968 0.0
C1152 C 0.50711 0.2182 0.097 0.0
C1153 C 0.51284 0.201 0.08049 0.0
C1154 C 0.51099 0.17916 0.08676 0.0
C1155 C 0.50265 0.17386 0.10805 0.0
C1156 C 0.50565 0.15047 0.1127 0.0
C1157 C 0.52074 0.15293 0.13859 0.0
C1158 C 0.48277 0.13317 0.11036 0.0
C1159 C 0.5175 0.14382 0.09124 0.0
C1160 C 0.52055 0.16056 0.07646 0.0
C1161 C 0.53463 0.16015 0.05849 0.0
C1162 C 0.54606 0.14233 0.05585 0.0
C1163 C 0.54311 0.12523 0.07099 0.0
C1164 C 0.52808 0.12565 0.08822 0.0
H1165 H 0.19019 0.35757 0.41203 0.0
H1166 H 0.13014 0.30043 0.39452 0.0
H1167 H 0.13629 0.29122 0.35076 0.0
H1168 H 0.18373 0.37513 0.35203 0.0
H1169 H 0.21284 0.38057 0.34896 0.0
H1170 H 0.20545 0.38487 0.37995 0.0
H1171 H 0.22742 0.35688 0.39547 0.0
H1172 H 0.23713 0.35261 0.36585 0.0
H1173 H 0.22285 0.32791 0.37724 0.0
H1174 H 0.14889 0.28804 0.30893 0.0
H1175 H 0.17042 0.28713 0.27407 0.0
H1176 H 0.22331 0.34474 0.31978 0.0
C1177 C 0.17839 0.34311 0.39899 0.0
C1178 C 0.15974 0.32973 0.40668 0.0
C1179 C 0.14468 0.31085 0.38911 0.0
C1180 C 0.14785 0.30562 0.3641 0.0
C1181 C 0.16622 0.31934 0.35699 0.0
C1182 C 0.18144 0.33743 0.374 0.0
C1183 C 0.20063 0.34835 0.36196 0.0
C1184 C 0.20067 0.37376 0.36072 0.0
C1185 C 0.22334 0.34632 0.37597 0.0
C1186 C 0.19414 0.33317 0.33578 0.0
C1187 C 0.17393 0.31695 0.33309 0.0
C1188 C 0.1648 0.30062 0.31081 0.0
C1189 C 0.17719 0.30021 0.29113 0.0
C1190 C 0.19868 0.31572 0.29408 0.0
C1191 C 0.20679 0.33288 0.31649 0.0
H1192 H 0.9498 0.08497 0.21216 0.0
H1193 H 1.00516 0.09734 0.27517 0.0
H1194 H 0.03204 0.09931 0.24573 0.0
H1195 H 0.9728 0.04771 0.16887 0.0
H1196 H 0.96321 0.05827 0.14111 0.0
H1197 H 0.94806 0.05911 0.16706 0.0
H1198 H 0.95246 0.10328 0.16983 0.0
H1199 H 0.96763 0.10255 0.14388 0.0
H1200 H 0.9802 0.1222 0.17354 0.0
H1201 H 0.05437 0.0997 0.20813 0.0
H1202 H 0.06814 0.09649 0.16725 0.0
H1203 H 0.99928 0.08232 0.12745 0.0
C1204 C 0.96759 0.08842 0.21989 0.0
C1205 C 0.97491 0.09123 0.24671 0.0
C1206 C 0.99858 0.09517 0.25518 0.0
C1207 C 1.01423 0.09636 0.23839 0.0
C1208 C 1.00655 0.09334 0.21235 0.0
C1209 C 0.98369 0.08932 0.20308 0.0
C1210 C 0.97994 0.08571 0.17402 0.0
C1211 C 0.96512 0.06125 0.16206 0.0
C1212 C 0.96942 0.10455 0.16477 0.0
C1213 C 1.00404 0.08832 0.16849 0.0
C1214 C 1.01922 0.09292 0.19092 0.0
C1215 C 0.04243 0.09608 0.19056 0.0
C1216 C 0.05026 0.09431 0.16705 0.0
C1217 C 0.03515 0.08918 0.14354 0.0
C1218 C 1.01162 0.0863 0.14475 0.0
H1219 H 0.33249 0.77936 0.50082 0.0
H1220 H 0.38794 0.74976 0.48333 0.0
H1221 H 0.38347 0.76072 0.44148 0.0
H1222 H 0.2983 0.76172 0.43921 0.0
H1223 H 0.28868 0.78803 0.4398 0.0
H1224 H 0.29644 0.77865 0.46893 0.0
H1225 H 0.32502 0.81844 0.4865 0.0
H1226 H 0.31727 0.82797 0.45744 0.0
H1227 H 0.34635 0.82882 0.46875 0.0
H1228 H 0.37157 0.7719 0.40074 0.0
H1229 H 0.35521 0.78593 0.36418 0.0
H1230 H 0.30838 0.81086 0.40739 0.0
C1231 C 0.34388 0.77545 0.4883 0.0
C1232 C 0.36066 0.7637 0.4955 0.0
C1233 C 0.37509 0.75884 0.47845 0.0
C1234 C 0.37262 0.76493 0.45454 0.0
C1235 C 0.35578 0.77614 0.44792 0.0
C1236 C 0.34181 0.78169 0.46434 0.0
C1237 C 0.32509 0.79386 0.45224 0.0
C1238 C 0.30068 0.77972 0.44991 0.0
C1239 C 0.32865 0.81876 0.46712 0.0
C1240 C 0.33169 0.79397 0.42634 0.0
C1241 C 0.34934 0.78345 0.42437 0.0
C1242 C 0.3579 0.78036 0.40214 0.0
C1243 C 0.34833 0.78828 0.38137 0.0
C1244 C 0.33045 0.79949 0.3828 0.0
C1245 C 0.32211 0.80251 0.40575 0.0
H1246 H 0.63197 0.05102 0.76862 0.0
H1247 H 0.62773 0.97818 0.74105 0.0
H1248 H 0.6104 0.98171 0.69826 0.0
H1249 H 0.58079 0.05595 0.72931 0.0
H1250 H 0.5938 0.08434 0.72409 0.0
H1251 H 0.60326 0.07528 0.75293 0.0
H1252 H 0.6441 0.08351 0.74419 0.0
H1253 H 0.63479 0.09263 0.71539 0.0
H1254 H 0.64955 0.06981 0.71456 0.0
H1255 H 0.59371 0.99381 0.65799 0.0
H1256 H 0.58399 1.0141 0.62321 0.0
H1257 H 0.60288 0.0798 0.67657 0.0
C1258 C 0.62683 0.03566 0.75371 0.0
C1259 C 0.63054 1.01412 0.7583 0.0
C1260 C 0.6246 0.9947 0.73804 0.0
C1261 C 0.61475 0.99658 0.7137 0.0
C1262 C 0.61141 0.01814 0.70977 0.0
C1263 C 0.61763 0.03742 0.7292 0.0
C1264 C 0.61444 0.05912 0.71963 0.0
C1265 C 0.59703 0.06927 0.73224 0.0
C1266 C 0.63706 0.07733 0.72368 0.0
C1267 C 0.60548 0.04914 0.69175 0.0
C1268 C 0.60341 0.02538 0.68648 0.0
C1269 C 0.59535 1.0124 0.66196 0.0
C1270 C 0.58976 0.02405 0.64233 0.0
C1271 C 0.59271 0.04852 0.64718 0.0
C1272 C 0.60045 0.06108 0.6723 0.0
H1273 H 0.34977 0.42407 0.09415 0.0
H1274 H 0.30954 0.47297 0.07926 0.0
H1275 H 0.29277 0.44858 0.03689 0.0
H1276 H 0.36464 0.41551 0.03651 0.0
H1277 H 0.3638 0.38506 0.03453 0.0
H1278 H 0.36916 0.40392 0.06491 0.0
H1279 H 0.33535 0.37707 0.07767 0.0
H1280 H 0.32989 0.35806 0.04717 0.0
H1281 H 0.30786 0.37015 0.05793 0.0
H1282 H 0.28512 0.42202 0.9941 0.0
H1283 H 0.28724 0.39581 0.95505 0.0
H1284 H 0.33305 0.36539 0.99917 0.0
C1285 C 0.33703 0.4294 0.08224 0.0
C1286 C 0.33092 0.45033 0.08985 0.0
C1287 C 0.31432 0.45685 0.07373 0.0
C1288 C 0.30468 0.44309 0.04972 0.0
C1289 C 0.31162 0.4228 0.04249 0.0
C1290 C 0.32727 0.41591 0.05846 0.0
C1291 C 0.33382 0.3949 0.04555 0.0
C1292 C 0.35935 0.40018 0.04535 0.0
C1293 C 0.32627 0.3738 0.05781 0.0
C1294 C 0.32023 0.39164 0.01941 0.0
C1295 C 0.30719 0.40757 0.01801 0.0
C1296 C 0.29489 0.40916 0.99509 0.0
C1297 C 0.29632 0.39435 0.97302 0.0
C1298 C 0.31013 0.37841 0.97415 0.0
C1299 C 0.32176 0.37681 0.99776 0.0
H1300 H 1.00104 0.05223 0.38307 0.0
H1301 H 0.97623 0.11402 0.40108 0.0
H1302 H 0.99414 0.11932 0.44574 0.0
H1303 H 0.99319 0.03122 0.44076 0.0
H1304 H 1.0185 0.02083 0.44399 0.0
H1305 H 1.00429 0.0219 0.41307 0.0
H1306 H 0.04108 0.04724 0.40474 0.0
H1307 H 0.05541 0.04618 0.43561 0.0
H1308 H 0.05526 0.07387 0.42678 0.0
H1309 H 1.01396 0.11781 0.48907 0.0
H1310 H 0.03469 0.11009 0.52758 0.0
H1311 H 0.04775 0.04931 0.48327 0.0
C1312 C 0.99952 0.06699 0.39636 0.0
C1313 C 0.9871 0.08277 0.38816 0.0
C1314 C 0.98553 0.10168 0.4065 0.0
C1315 C 0.9957 0.10485 0.43208 0.0
C1316 C 1.00759 0.089 0.43952 0.0
C1317 C 1.00965 0.07045 0.42223 0.0
C1318 C 1.02326 0.05589 0.43557 0.0
C1319 C 1.00895 0.03098 0.4332 0.0
C1320 C 0.04504 0.05579 0.42504 0.0
C1321 C 0.02844 0.06913 0.46298 0.0
C1322 C 1.01916 0.08816 0.46469 0.0
C1323 C 1.02132 0.10298 0.48786 0.0
C1324 C 0.03319 0.09837 0.50979 0.0
C1325 C 0.04307 0.07907 0.50889 0.0
C1326 C 0.04057 0.06427 0.48489 0.0
H1327 H 0.36427 0.73282 0.65432 0.0
H1328 H 0.37991 0.79667 0.62556 0.0
H1329 H 0.37037 0.81812 0.66367 0.0
H1330 H 0.31578 0.74333 0.67613 0.0
H1331 H 0.31952 0.73012 0.70348 0.0
H1332 H 0.33058 0.72055 0.67592 0.0
H1333 H 0.37036 0.72912 0.70331 0.0
H1334 H 0.35935 0.73862 0.73098 0.0
H1335 H 0.38275 0.75768 0.72244 0.0
H1336 H 0.35775 0.8324 0.705 0.0
H1337 H 0.34028 0.83729 0.74328 0.0
H1338 H 0.32975 0.76337 0.74257 0.0
C1339 C 0.36634 0.75145 0.65644 0.0
C1340 C 0.37344 0.76323 0.63727 0.0
C1341 C 0.37492 0.78741 0.6402 0.0
C1342 C 0.36951 0.79971 0.6618 0.0
C1343 C 0.36221 0.78752 0.68017 0.0
C1344 C 0.36044 0.76385 0.67755 0.0
C1345 C 0.35003 0.75434 0.69861 0.0
C1346 C 0.32765 0.73601 0.68788 0.0
C1347 C 0.36662 0.74436 0.71479 0.0
C1348 C 0.34614 0.7763 0.71341 0.0
C1349 C 0.35362 0.79537 0.7028 0.0
C1350 C 0.35181 0.81754 0.71339 0.0
C1351 C 0.34191 0.8202 0.73515 0.0
C1352 C 0.33349 0.80072 0.74575 0.0
C1353 C 0.33585 0.77858 0.73475 0.0
H1354 H 0.63932 0.02508 0.92167 0.0
H1355 H 0.59315 0.04979 0.87118 0.0
H1356 H 0.57227 0.05799 0.90564 0.0
H1357 H 0.59832 0.99936 0.95907 0.0
H1358 H 0.61825 1.00901 0.98842 0.0
H1359 H 0.628 1.00257 0.95905 0.0
H1360 H 0.65475 0.04405 0.96898 0.0
H1361 H 0.64474 0.05053 0.99814 0.0
H1362 H 0.64315 0.06901 0.9752 0.0
H1363 H 0.55658 0.06411 0.94558 0.0
H1364 H 0.54902 0.07061 0.98921 0.0
H1365 H 0.60703 0.04512 0.01512 0.0
C1366 C 0.62452 0.03174 0.9178 0.0
C1367 C 0.61759 0.03643 0.89361 0.0
C1368 C 0.5986 0.04586 0.88948 0.0
C1369 C 0.58661 0.05055 0.90893 0.0
C1370 C 0.59399 0.04606 0.93263 0.0
C1371 C 0.61261 0.03703 0.93726 0.0
C1372 C 0.61793 0.03553 0.96502 0.0
C1373 C 0.61548 1.0101 0.96806 0.0
C1374 C 0.64154 0.05069 0.97756 0.0
C1375 C 0.5996 0.04538 0.97521 0.0
C1376 C 0.58572 0.05091 0.95609 0.0
C1377 C 0.56738 0.05991 0.96072 0.0
C1378 C 0.56319 0.06352 0.98555 0.0
C1379 C 0.57752 0.05858 1.00558 0.0
C1380 C 0.59593 0.04933 1.00023 0.0
H1381 H 0.35141 0.43667 0.19459 0.0
H1382 H 0.37372 0.49584 0.25731 0.0
H1383 H 0.37456 0.46888 0.2872 0.0
H1384 H 0.31495 0.39995 0.22542 0.0
H1385 H 0.32162 0.37366 0.21117 0.0
H1386 H 0.32314 0.39763 0.19479 0.0
H1387 H 0.3646 0.39795 0.1914 0.0
H1388 H 0.3633 0.3741 0.20799 0.0
H1389 H 0.38484 0.40076 0.21973 0.0
H1390 H 0.37325 0.43607 0.30985 0.0
H1391 H 0.36683 0.39891 0.32472 0.0
H1392 H 0.345 0.36088 0.24749 0.0
C1393 C 0.35648 0.44402 0.21462 0.0
C1394 C 0.36262 0.46836 0.2237 0.0
C1395 C 0.36894 0.47725 0.25001 0.0
C1396 C 0.36958 0.46211 0.26707 0.0
C1397 C 0.36377 0.43824 0.2574 0.0
C1398 C 0.3571 0.42921 0.23185 0.0
C1399 C 0.3511 0.40285 0.22644 0.0
C1400 C 0.32622 0.39295 0.21372 0.0
C1401 C 0.36691 0.39337 0.21044 0.0
C1402 C 0.35532 0.39843 0.25307 0.0
C1403 C 0.36288 0.41915 0.27055 0.0
C1404 C 0.36764 0.41976 0.29637 0.0
C1405 C 0.36427 0.39862 0.30462 0.0
C1406 C 0.3563 0.37726 0.28715 0.0
C1407 C 0.35172 0.37707 0.26105 0.0
H1408 H 0.16864 0.964 0.0901 0.0
H1409 H 0.2269 1.01254 0.13906 0.0
H1410 H 0.20539 0.04261 0.14312 0.0
H1411 H 0.14861 1.00472 0.05749 0.0
H1412 H 0.11916 0.99212 0.05653 0.0
H1413 H 0.13895 0.97414 0.05763 0.0
H1414 H 0.126 0.96136 0.09761 0.0
H1415 H 0.10621 0.97939 0.09658 0.0
H1416 H 0.12683 0.98319 0.12481 0.0
H1417 H 0.17831 0.06888 0.13901 0.0
H1418 H 0.14656 0.08742 0.13038 0.0
H1419 H 0.10497 0.02114 0.08742 0.0
C1420 C 0.17677 0.98086 0.1019 0.0
C1421 C 0.19955 0.98578 0.11429 0.0
C1422 C 0.20949 1.00816 0.12952 0.0
C1423 C 0.19741 0.02547 0.13187 0.0
C1424 C 0.17512 0.02018 0.11929 0.0
C1425 C 0.16473 0.99828 0.10496 0.0
C1426 C 0.14045 0.9971 0.0937 0.0
C1427 C 0.13658 0.99171 0.06461 0.0
C1428 C 0.1239 0.9792 0.10379 0.0
C1429 C 0.13899 0.02176 0.10363 0.0
C1430 C 0.15922 0.03492 0.11814 0.0
C1431 C 0.16226 0.05859 0.12805 0.0
C1432 C 0.14415 0.06903 0.12307 0.0
C1433 C 0.12311 0.05573 0.10872 0.0
C1434 C 0.12064 0.03175 0.09903 0.0
H1435 H 0.72407 0.66239 0.02089 0.0
H1436 H 0.72945 0.5941 0.98643 0.0
H1437 H 0.69333 0.57623 0.99846 0.0
H1438 H 0.70712 0.64528 0.07421 0.0
H1439 H 0.68858 0.66445 0.07806 0.0
H1440 H 0.71227 0.67217 0.06267 0.0
H1441 H 0.68565 0.67609 0.02308 0.0
H1442 H 0.66185 0.66864 0.03849 0.0
H1443 H 0.66206 0.6521 0.00791 0.0
H1444 H 0.65749 0.56608 0.0161 0.0
H1445 H 0.62669 0.5641 0.04106 0.0
H1446 H 0.64845 0.63873 0.06802 0.0
C1447 C 0.7172 0.64376 0.01509 0.0
C1448 C 0.72902 0.62957 1.0022 0.0
C1449 C 0.72024 0.60517 0.99594 0.0
C1450 C 0.69982 0.59494 1.00266 0.0
C1451 C 0.68883 0.60943 0.01599 0.0
C1452 C 0.69734 0.6333 0.02231 0.0
C1453 C 0.68405 0.64478 0.03941 0.0
C1454 C 0.6989 0.6574 0.0651 0.0
C1455 C 0.67273 0.66138 0.02644 0.0
C1456 C 0.66692 0.62363 0.04209 0.0
C1457 C 0.66953 0.60344 0.02797 0.0
C1458 C 0.65534 0.58175 0.0273 0.0
C1459 C 0.63804 0.58076 0.04151 0.0
C1460 C 0.63575 0.60122 0.05661 0.0
C1461 C 0.65029 0.62284 0.05691 0.0
H1462 H 0.74515 0.47883 0.2904 0.0
H1463 H 0.77616 0.51239 0.36758 0.0
H1464 H 0.79415 0.47985 0.37172 0.0
H1465 H 0.73303 0.41924 0.30422 0.0
H1466 H 0.73807 0.40541 0.27443 0.0
H1467 H 0.72845 0.43181 0.27653 0.0
H1468 H 0.76263 0.45121 0.25849 0.0
H1469 H 0.77236 0.42487 0.2564 0.0
H1470 H 0.79071 0.45205 0.27383 0.0
H1471 H 0.81123 0.44343 0.36712 0.0
H1472 H 0.82135 0.40595 0.35647 0.0
H1473 H 0.77654 0.39102 0.28393 0.0
C1474 C 0.75585 0.47949 0.30818 0.0
C1475 C 0.75923 0.49922 0.32863 0.0
C1476 C 0.77309 0.49826 0.35148 0.0
C1477 C 0.78355 0.47957 0.354 0.0
C1478 C 0.77994 0.46068 0.33376 0.0
C1479 C 0.76601 0.46023 0.31135 0.0
C1480 C 0.764 0.43692 0.29315 0.0
C1481 C 0.73942 0.42249 0.28669 0.0
C1482 C 0.77295 0.44154 0.26902 0.0
C1483 C 0.77909 0.42455 0.30857 0.0
C1484 C 0.78839 0.43894 0.33184 0.0
C1485 C 0.80367 0.43213 0.34901 0.0
C1486 C 0.80948 0.4105 0.34267 0.0
C1487 C 0.79994 0.39458 0.31938 0.0
C1488 C 0.78425 0.4021 0.30212 0.0
H1489 H 0.83277 0.4655 0.55702 0.0
H1490 H 0.80572 0.51159 0.6073 0.0
H1491 H 0.84037 0.54274 0.61181 0.0
H1492 H 0.88892 0.48316 0.58992 0.0
H1493 H 0.90126 0.48105 0.56182 0.0
H1494 H 0.87384 0.46289 0.56148 0.0
H1495 H 0.85702 0.47851 0.52323 0.0
H1496 H 0.88443 0.49664 0.52334 0.0
H1497 H 0.86079 0.50945 0.52541 0.0
H1498 H 0.87904 0.56801 0.61279 0.0
H1499 H 0.91789 0.58616 0.60815 0.0
H1500 H 0.91895 0.52325 0.55719 0.0
C1501 C 0.83397 0.48219 0.56881 0.0
C1502 C 0.81653 0.48608 0.58182 0.0
C1503 C 0.81883 0.50821 0.59706 0.0
C1504 C 0.83846 0.526 0.59979 0.0
C1505 C 0.85549 0.52139 0.58703 0.0
C1506 C 0.85333 0.50009 0.57167 0.0
C1507 C 0.8742 0.49934 0.56039 0.0
C1508 C 0.8852 0.4805 0.56892 0.0
C1509 C 0.86878 0.49579 0.53137 0.0
C1510 C 0.88857 0.5235 0.57202 0.0
C1511 C 0.87754 0.53597 0.58736 0.0
C1512 C 0.88779 0.55849 0.60068 0.0
C1513 C 0.90985 0.56858 0.59807 0.0
C1514 C 0.92129 0.55614 0.58219 0.0
C1515 C 0.91046 0.53331 0.56911 0.0
H1516 H 0.40366 0.18928 0.27934 0.0
H1517 H 0.46009 0.22435 0.34009 0.0
H1518 H 0.44321 0.25777 0.34752 0.0
H1519 H 0.39583 0.23849 0.25451 0.0
H1520 H 0.36544 0.23182 0.24915 0.0
H1521 H 0.37987 0.20873 0.24772 0.0
H1522 H 0.36111 0.19125 0.28148 0.0
H1523 H 0.3447 0.21267 0.28239 0.0
H1524 H 0.36126 0.20959 0.31112 0.0
H1525 H 0.42013 0.28595 0.35056 0.0
H1526 H 0.39301 0.30998 0.34721 0.0
H1527 H 0.35072 0.25866 0.28367 0.0
C1528 C 0.41256 0.20412 0.29402 0.0
C1529 C 0.43333 0.20423 0.3091 0.0
C1530 C 0.44425 0.22383 0.32832 0.0
C1531 C 0.43475 0.24289 0.33273 0.0
C1532 C 0.41423 0.24213 0.31784 0.0
C1533 C 0.40318 0.22338 0.29883 0.0
C1534 C 0.381 0.22716 0.2861 0.0
C1535 C 0.3805 0.22656 0.2577 0.0
C1536 C 0.36083 0.20909 0.29054 0.0
C1537 C 0.38185 0.25137 0.3004 0.0
C1538 C 0.40099 0.25919 0.319 0.0
C1539 C 0.4052 0.28016 0.33594 0.0
C1540 C 0.38963 0.29371 0.33382 0.0
C1541 C 0.36993 0.28648 0.31488 0.0
C1542 C 0.36596 0.26496 0.29783 0.0
H1543 H 0.35816 0.1004 0.48745 0.0
H1544 H 0.30518 0.05416 0.51256 0.0
H1545 H 0.33164 0.0308 0.52486 0.0
H1546 H 0.39029 0.05541 0.4666 0.0
H1547 H 0.41691 0.07631 0.47879 0.0
H1548 H 0.39266 0.08581 0.46614 0.0
H1549 H 0.39786 0.11502 0.50823 0.0
H1550 H 0.42179 0.10538 0.52118 0.0
H1551 H 0.39827 0.10445 0.53749 0.0
H1552 H 0.36469 0.01755 0.54213 0.0
H1553 H 0.40217 1.01347 0.56066 0.0
H1554 H 0.43404 0.0687 0.52524 0.0
C1555 C 0.35191 0.08464 0.49428 0.0
C1556 C 0.32964 0.07875 0.49869 0.0
C1557 C 0.32217 0.05868 0.50876 0.0
C1558 C 0.33706 0.04533 0.51579 0.0
C1559 C 0.3593 0.05231 0.51256 0.0
C1560 C 0.36669 0.07131 0.50172 0.0
C1561 C 0.39204 0.07704 0.50361 0.0
C1562 C 0.39834 0.07341 0.47721 0.0
C1563 C 0.40312 0.10193 0.51852 0.0
C1564 C 0.39778 0.05896 0.51818 0.0
C1565 C 0.37864 0.04469 0.52285 0.0
C1566 C 0.37979 0.02819 0.53806 0.0
C1567 C 0.40109 0.02615 0.54871 0.0
C1568 C 0.42086 0.0406 0.54413 0.0
C1569 C 0.41913 0.05703 0.52848 0.0
H1570 H 0.72517 0.65449 0.34328 0.0
H1571 H 0.78555 0.62905 0.3431 0.0
H1572 H 0.80689 0.66818 0.33943 0.0
H1573 H 0.73617 0.69058 0.29624 0.0
H1574 H 0.72444 0.71327 0.31059 0.0
H1575 H 0.71431 0.68376 0.31452 0.0
H1576 H 0.72344 0.69749 0.36306 0.0
H1577 H 0.73362 0.72704 0.35927 0.0
H1578 H 0.75158 0.7137 0.37812 0.0
H1579 H 0.82261 0.7128 0.33667 0.0
H1580 H 0.82926 0.75401 0.33159 0.0
H1581 H 0.75836 0.75047 0.33005 0.0
C1582 C 0.74297 0.65707 0.34275 0.0
C1583 C 0.75344 0.63796 0.34402 0.0
C1584 C 0.77676 0.64276 0.34251 0.0
C1585 C 0.78915 0.66525 0.34039 0.0
C1586 C 0.77832 0.68351 0.33923 0.0
C1587 C 0.75555 0.67945 0.34006 0.0
C1588 C 0.74754 0.70165 0.33723 0.0
C1589 C 0.72954 0.69704 0.31322 0.0
C1590 C 0.7385 0.71049 0.36082 0.0
C1591 C 0.76922 0.71895 0.33489 0.0
C1592 C 0.7869 0.70822 0.33638 0.0
C1593 C 0.80865 0.72098 0.33534 0.0
C1594 C 0.81237 0.74473 0.33251 0.0
C1595 C 0.79457 0.75625 0.33027 0.0
C1596 C 0.77261 0.7427 0.33156 0.0
H1597 H 0.95267 0.57335 0.85316 0.0
H1598 H 0.90485 0.60171 0.80902 0.0
H1599 H 0.87524 0.56572 0.80599 0.0
H1600 H 0.93388 0.51535 0.81863 0.0
H1601 H 0.93835 0.50245 0.84609 0.0
H1602 H 0.95537 0.53076 0.84552 0.0
H1603 H 0.94364 0.548 0.88687 0.0
H1604 H 0.92666 0.51972 0.88767 0.0
H1605 H 0.91413 0.5442 0.88833 0.0
H1606 H 0.85114 0.52627 0.80748 0.0
H1607 H 0.83449 0.48642 0.81321 0.0
H1608 H 0.8987 0.48458 0.8559 0.0
C1609 C 0.93596 0.57217 0.84298 0.0
C1610 C 0.93105 0.59038 0.83138 0.0
C1611 C 0.90897 0.58798 0.8181 0.0
C1612 C 0.89207 0.56763 0.81627 0.0
C1613 C 0.89761 0.54995 0.82778 0.0
C1614 C 0.91902 0.55207 0.84088 0.0
C1615 C 0.92089 0.53047 0.85114 0.0
C1616 C 0.93814 0.51909 0.83964 0.0
C1617 C 0.92666 0.53593 0.88023 0.0
C1618 C 0.89714 0.51575 0.84172 0.0
C1619 C 0.88391 0.52728 0.82837 0.0
C1620 C 0.86132 0.5171 0.81793 0.0
C1621 C 0.85202 0.49455 0.82133 0.0
C1622 C 0.86537 0.48251 0.83492 0.0
C1623 C 0.8882 0.49329 0.84516 0.0
H1624 H 0.04963 0.88101 0.20446 0.0
H1625 H 0.09477 0.84784 0.16614 0.0
H1626 H 0.09518 0.87444 0.13602 0.0
H1627 H 1.01686 0.89013 0.14862 0.0
H1628 H 1.0138 0.91813 0.16314 0.0
H1629 H 1.01725 0.89673 0.18218 0.0
H1630 H 0.05175 0.92626 0.21132 0.0
H1631 H 0.04838 0.94775 0.19234 0.0
H1632 H 0.07493 0.93986 0.19768 0.0
H1633 H 0.09017 0.9038 0.10925 0.0
H1634 H 0.08049 0.93476 0.08811 0.0
H1635 H 0.03893 0.94953 0.14354 0.0
C1636 C 0.05967 0.87942 0.1898 0.0
C1637 C 0.07218 0.86229 0.18775 0.0
C1638 C 0.08506 0.86079 0.16822 0.0
C1639 C 0.08541 0.87584 0.15095 0.0
C1640 C 0.07287 0.89243 0.15341 0.0
C1641 C 0.06029 0.89442 0.17236 0.0
C1642 C 0.04824 0.91376 0.17057 0.0
C1643 C 1.02251 0.9041 0.16584 0.0
C1644 C 0.05632 0.93305 0.19439 0.0
C1645 C 0.05594 0.92218 0.1476 0.0
C1646 C 0.07012 0.90959 0.13801 0.0
C1647 C 0.0791 0.91381 0.11661 0.0
C1648 C 0.07342 0.93135 0.10464 0.0
C1649 C 0.05896 0.94457 0.11413 0.0
C1650 C 0.05022 0.9399 0.13599 0.0
H1651 H 0.99399 0.34755 0.89074 0.0
H1652 H 1.00689 0.31613 0.81873 0.0
H1653 H 0.96688 0.31248 0.79949 0.0
H1654 H 0.93783 0.31136 0.88516 0.0
H1655 H 0.92752 0.33452 0.90102 0.0
H1656 H 0.95692 0.33471 0.90835 0.0
H1657 H 0.96788 0.37574 0.89774 0.0
H1658 H 0.93852 0.37566 0.89032 0.0
H1659 H 0.95637 0.38052 0.86723 0.0
H1660 H 0.92282 0.31323 0.78806 0.0
H1661 H 0.88333 0.31689 0.78703 0.0
H1662 H 0.89995 0.34669 0.8671 0.0
C1663 C 0.98867 0.33992 0.87082 0.0
C1664 C 1.00437 0.33233 0.85643 0.0
C1665 C 0.99581 0.32225 0.83047 0.0
C1666 C 0.97286 0.32012 0.81933 0.0
C1667 C 0.95804 0.3279 0.83418 0.0
C1668 C 0.96585 0.33748 0.85954 0.0
C1669 C 0.94688 0.34426 0.87194 0.0
C1670 C 0.94201 0.33039 0.89286 0.0
C1671 C 0.95277 0.37061 0.88243 0.0
C1672 C 0.92702 0.33727 0.84978 0.0
C1673 C 0.93362 0.3279 0.828 0.0
C1674 C 0.91784 0.32053 0.80522 0.0
C1675 C 0.89521 0.32271 0.80473 0.0
C1676 C 0.88795 0.33211 0.82688 0.0
C1677 C 0.90448 0.33939 0.84964 0.0
H1678 H 0.54849 0.21203 0.7139 0.0
H1679 H 0.55328 0.25607 0.65767 0.0
H1680 H 0.55767 0.22383 0.62677 0.0
H1681 H 0.58873 0.18151 0.69667 0.0
H1682 H 0.57366 0.15333 0.7005 0.0
H1683 H 0.56943 0.17933 0.71862 0.0
H1684 H 0.52649 0.16558 0.70142 0.0
H1685 H 0.53058 0.13938 0.68348 0.0
H1686 H 0.51641 0.1579 0.66772 0.0
H1687 H 0.56605 0.18905 0.60307 0.0
H1688 H 0.57237 0.15099 0.58568 0.0
H1689 H 0.55933 0.12675 0.65445 0.0
C1690 C 0.54989 0.21469 0.69492 0.0
C1691 C 0.55062 0.23688 0.6885 0.0
C1692 C 0.55278 0.2395 0.66339 0.0
C1693 C 0.55534 0.22122 0.64554 0.0
C1694 C 0.55537 0.19998 0.65264 0.0
C1695 C 0.5522 0.19631 0.67646 0.0
C1696 C 0.55303 0.17148 0.67876 0.0
C1697 C 0.57236 0.17142 0.69989 0.0
C1698 C 0.53027 0.15777 0.6831 0.0
C1699 C 0.55761 0.16217 0.65276 0.0
C1700 C 0.55909 0.17912 0.63818 0.0
C1701 C 0.56453 0.17546 0.61411 0.0
C1702 C 0.56824 0.15382 0.60443 0.0
C1703 C 0.56617 0.13581 0.61853 0.0
C1704 C 0.56071 0.14008 0.64306 0.0
H1705 H 0.63596 0.82539 0.33377 0.0
H1706 H 0.65714 0.87724 0.40316 0.0
H1707 H 0.69684 0.8797 0.40003 0.0
H1708 H 0.68039 0.79606 0.34488 0.0
H1709 H 0.68498 0.79094 0.31272 0.0
H1710 H 0.65772 0.79362 0.31904 0.0
H1711 H 0.65911 0.82672 0.29372 0.0
H1712 H 0.6863 0.82398 0.28716 0.0
H1713 H 0.68286 0.85173 0.30196 0.0
H1714 H 0.73506 0.87447 0.39231 0.0
H1715 H 0.76865 0.86516 0.37775 0.0
H1716 H 0.72578 0.81847 0.31134 0.0
C1717 C 0.64892 0.83782 0.34784 0.0
C1718 C 0.64282 0.85158 0.36859 0.0
C1719 C 0.66083 0.86682 0.38688 0.0
C1720 C 0.68369 0.86824 0.38537 0.0
C1721 C 0.68914 0.85435 0.36525 0.0
C1722 C 0.67235 0.83967 0.34648 0.0
C1723 C 0.68344 0.82663 0.32708 0.0
C1724 C 0.67619 0.80024 0.32585 0.0
C1725 C 0.67757 0.83262 0.30092 0.0
C1726 C 0.70883 0.83617 0.33801 0.0
C1727 C 0.71153 0.85196 0.36026 0.0
C1728 C 0.73304 0.86236 0.37469 0.0
C1729 C 0.75222 0.85685 0.36625 0.0
C1730 C 0.75045 0.84122 0.34318 0.0
C1731 C 0.72813 0.83078 0.32888 0.0
H1732 H 0.13487 0.29138 0.50611 0.0
H1733 H 0.14407 0.34646 0.57149 0.0
H1734 H 0.13854 0.31714 0.59868 0.0
H1735 H 0.09028 0.25469 0.52161 0.0
H1736 H 0.09763 0.228 0.51004 0.0
H1737 H 0.10641 0.25322 0.49652 0.0
H1738 H 0.14807 0.25113 0.50679 0.0
H1739 H 0.13941 0.22567 0.52013 0.0
H1740 H 0.16032 0.25064 0.53873 0.0
H1741 H 0.12783 0.28191 0.61765 0.0
H1742 H 0.11309 0.2432 0.62726 0.0
H1743 H 0.10873 0.21153 0.54872 0.0
C1744 C 0.13659 0.29734 0.52629 0.0
C1745 C 0.14025 0.32115 0.53682 0.0
C1746 C 0.14152 0.32826 0.56316 0.0
C1747 C 0.13841 0.31176 0.57872 0.0
C1748 C 0.134 0.28832 0.56757 0.0
C1749 C 0.13318 0.28111 0.54197 0.0
C1750 C 0.12571 0.25491 0.53416 0.0
C1751 C 0.1037 0.24728 0.51443 0.0
C1752 C 0.1445 0.24501 0.52438 0.0
C1753 C 0.12197 0.24853 0.55926 0.0
C1754 C 0.12711 0.26799 0.57835 0.0
C1755 C 0.12396 0.26651 0.60292 0.0
C1756 C 0.11536 0.24449 0.60813 0.0
C1757 C 0.10978 0.22435 0.58875 0.0
C1758 C 0.11325 0.22652 0.56406 0.0
H1759 H 0.56592 0.25082 0.23623 0.0
H1760 H 0.56959 0.32354 0.23475 0.0
H1761 H 0.60634 0.33472 0.26358 0.0
H1762 H 0.59892 0.25934 0.30329 0.0
H1763 H 0.61279 0.23688 0.29341 0.0
H1764 H 0.58429 0.2349 0.27844 0.0
H1765 H 0.59653 0.23115 0.23464 0.0
H1766 H 0.62495 0.23327 0.24941 0.0
H1767 H 0.61931 0.25337 0.22943 0.0
H1768 H 0.64481 0.3376 0.2847 0.0
H1769 H 0.683 0.33191 0.29495 0.0
H1770 H 0.65515 0.25733 0.28342 0.0
C1771 C 0.57409 0.26911 0.24289 0.0
C1772 C 0.56497 0.28636 0.23363 0.0
C1773 C 0.57638 0.31011 0.24183 0.0
C1774 C 0.59713 0.31663 0.25836 0.0
C1775 C 0.60617 0.29917 0.26648 0.0
C1776 C 0.59502 0.27586 0.25909 0.0
C1777 C 0.61 0.26039 0.26686 0.0
C1778 C 0.60096 0.2471 0.28669 0.0
C1779 C 0.61287 0.24358 0.24371 0.0
C1780 C 0.63167 0.27857 0.27836 0.0
C1781 C 0.62892 0.30084 0.27861 0.0
C1782 C 0.64709 0.32033 0.28538 0.0
C1783 C 0.66875 0.31692 0.29126 0.0
C1784 C 0.67199 0.29417 0.29011 0.0
C1785 C 0.65312 0.27491 0.28454 0.0
H1786 H 0.61362 0.9205 0.03169 0.0
H1787 H 0.67758 0.96751 0.03137 0.0
H1788 H 0.66597 0.99951 0.05653 0.0
H1789 H 0.58351 0.95802 0.01644 0.0
H1790 H 0.56139 0.9496 0.03394 0.0
H1791 H 0.57681 0.92906 0.0231 0.0
H1792 H 0.58782 0.92305 0.06894 0.0
H1793 H 0.57208 0.94338 0.07996 0.0
H1794 H 0.60135 0.94789 0.09376 0.0
H1795 H 0.64497 0.02739 0.07463 0.0
H1796 H 0.61604 0.04891 0.08211 0.0
H1797 H 0.56496 0.98406 0.06736 0.0
C1798 C 0.62572 0.93718 0.03822 0.0
C1799 C 0.64684 0.94144 0.03051 0.0
C1800 C 0.66164 0.96385 0.03786 0.0
C1801 C 0.65513 0.98207 0.05206 0.0
C1802 C 0.63367 0.97755 0.05833 0.0
C1803 C 0.61916 0.9556 0.05155 0.0
C1804 C 0.59561 0.95606 0.05585 0.0
C1805 C 0.57834 0.94771 0.03086 0.0
C1806 C 0.58883 0.94175 0.07583 0.0
C1807 C 0.59899 0.98175 0.06569 0.0
C1808 C 0.62113 0.99382 0.06753 0.0
C1809 C 0.62776 0.01804 0.07406 0.0
C1810 C 0.61129 0.03017 0.07857 0.0
C1811 C 0.58855 0.01806 0.07619 0.0
C1812 C 0.58241 0.99361 0.06992 0.0
H1813 H 0.99434 0.80985 0.73245 0.0
H1814 H 0.97537 0.741 0.75037 0.0
H1815 H 0.96363 0.75786 0.78906 0.0
H1816 H 1.01524 0.84126 0.79861 0.0
H1817 H 1.00457 0.86604 0.79308 0.0
H1818 H 1.01332 0.84895 0.76779 0.0
H1819 H 0.97404 0.84238 0.7398 0.0
H1820 H 0.96514 0.85937 0.76497 0.0
H1821 H 0.94911 0.83003 0.75144 0.0
H1822 H 0.94899 0.7807 0.82152 0.0
H1823 H 0.93508 0.80895 0.84902 0.0
H1824 H 0.9665 0.86393 0.81285 0.0
C1825 C 0.98793 0.79836 0.74465 0.0
C1826 C 0.98573 0.77411 0.73838 0.0
C1827 C 0.97724 0.75963 0.7548 0.0
C1828 C 0.97047 0.76901 0.77678 0.0
C1829 C 0.97248 0.79289 0.78218 0.0
C1830 C 0.98125 0.80745 0.76682 0.0
C1831 C 0.98088 0.83241 0.77667 0.0
C1832 C 1.00494 0.84809 0.78451 0.0
C1833 C 0.96643 0.84158 0.75705 0.0
C1834 C 0.96988 0.82942 0.7995 0.0
C1835 C 0.96522 0.80648 0.80226 0.0
C1836 C 0.95321 0.7989 0.82035 0.0
C1837 C 0.94562 0.81518 0.83606 0.0
C1838 C 0.95023 0.83892 0.83381 0.0
C1839 C 0.96288 0.84606 0.81542 0.0
H1840 H 0.16647 0.06011 0.93509 0.0
H1841 H 0.13955 0.10626 0.8922 0.0
H1842 H 0.11351 0.11078 0.92178 0.0
H1843 H 0.11287 0.03174 0.95172 0.0
H1844 H 0.12494 0.03034 0.98341 0.0
H1845 H 0.14178 0.03007 0.95894 0.0
H1846 H 0.17164 0.06561 0.98617 0.0
H1847 H 0.1549 0.0659 0.01074 0.0
H1848 H 0.1632 0.09164 0.99775 0.0
H1849 H 0.08959 0.11085 0.95586 0.0
H1850 H 0.07084 0.10774 0.99252 0.0
H1851 H 0.11171 0.0621 0.01667 0.0
C1852 C 0.1551 0.07118 0.93187 0.0
C1853 C 0.15548 0.0828 0.91065 0.0
C1854 C 0.14007 0.09708 0.9078 0.0
C1855 C 0.12499 0.09977 0.92469 0.0
C1856 C 0.125 0.0882 0.94509 0.0
C1857 C 0.13972 0.07423 0.94896 0.0
C1858 C 0.13612 0.06419 0.97296 0.0
C1859 C 0.12848 0.03749 0.96636 0.0
C1860 C 0.15776 0.07232 0.9931 0.0
C1861 C 0.11718 0.07465 0.98181 0.0
C1862 C 0.11112 0.08838 0.96516 0.0
C1863 C 0.09429 0.1001 0.96889 0.0
C1864 C 0.08357 0.09814 0.99 0.0
C1865 C 0.08926 0.08456 0.00797 0.0
C1866 C 0.10644 0.07246 1.00346 0.0
H1867 H 0.79137 0.37699 0.62894 0.0
H1868 H 0.74271 0.41218 0.65692 0.0
H1869 H 0.7491 0.39857 0.69692 0.0
H1870 H 0.77694 0.32617 0.66008 0.0
H1871 H 0.80577 0.32428 0.66744 0.0
H1872 H 0.79651 0.33531 0.63987 0.0
H1873 H 0.82821 0.37308 0.65584 0.0
H1874 H 0.83751 0.36224 0.6835 0.0
H1875 H 0.83024 0.38992 0.68694 0.0
H1876 H 0.76224 0.38447 0.73472 0.0
H1877 H 0.78025 0.36873 0.76871 0.0
H1878 H 0.82049 0.34068 0.71824 0.0
C1879 C 0.78171 0.38139 0.64328 0.0
C1880 C 0.76639 0.39567 0.63952 0.0
C1881 C 0.75446 0.40132 0.65908 0.0
C1882 C 0.75798 0.39365 0.68199 0.0
C1883 C 0.77344 0.38014 0.68528 0.0
C1884 C 0.78502 0.3738 0.66652 0.0
C1885 C 0.80122 0.35967 0.67574 0.0
C1886 C 0.79472 0.33488 0.65983 0.0
C1887 C 0.82575 0.37197 0.67549 0.0
C1888 C 0.79718 0.35954 0.70275 0.0
C1889 C 0.78101 0.37152 0.70757 0.0
C1890 C 0.77479 0.37492 0.73114 0.0
C1891 C 0.78534 0.366 0.75044 0.0
C1892 C 0.80199 0.35356 0.74637 0.0
C1893 C 0.80779 0.34999 0.72197 0.0
H1894 H 0.4932 0.12251 0.41994 0.0
H1895 H 0.55489 0.12348 0.39065 0.0
H1896 H 0.57237 0.11406 0.43043 0.0
H1897 H 0.51788 0.14514 0.48687 0.0
H1898 H 0.49642 0.12554 0.49771 0.0
H1899 H 0.48982 0.13493 0.46829 0.0
H1900 H 0.47592 0.09192 0.44491 0.0
H1901 H 0.48251 0.08242 0.47423 0.0
H1902 H 0.49453 0.07273 0.44742 0.0
H1903 H 0.58288 0.10404 0.47385 0.0
H1904 H 0.58416 0.09049 0.51471 0.0
H1905 H 0.51432 0.09234 0.51356 0.0
C1906 C 0.51058 0.12131 0.42225 0.0
C1907 C 0.52301 0.12442 0.40264 0.0
C1908 C 0.54533 0.12166 0.40574 0.0
C1909 C 0.55534 0.11629 0.42825 0.0
C1910 C 0.5426 0.11317 0.44725 0.0
C1911 C 0.52058 0.11529 0.4443 0.0
C1912 C 0.50983 0.10896 0.46649 0.0
C1913 C 0.5031 0.12989 0.48068 0.0
C1914 C 0.4895 0.08775 0.45773 0.0
C1915 C 0.52921 0.10302 0.48242 0.0
C1916 C 0.5481 0.10591 0.47124 0.0
C1917 C 0.56813 0.10168 0.48268 0.0
C1918 C 0.56875 0.09406 0.50592 0.0
C1919 C 0.54935 0.09031 0.51726 0.0
C1920 C 0.52941 0.09499 0.50531 0.0
H1921 H 0.82881 0.68921 0.08649 0.0
H1922 H 0.83552 0.74065 0.03854 0.0
H1923 H 0.84949 0.77189 0.07626 0.0
H1924 H 0.80391 0.71606 0.12627 0.0
H1925 H 0.81653 0.70885 0.15496 0.0
H1926 H 0.81478 0.69044 0.12513 0.0
H1927 H 0.85803 0.69518 0.13412 0.0
H1928 H 0.8599 0.71364 0.16428 0.0
H1929 H 0.87673 0.72391 0.14197 0.0
H1930 H 0.85297 0.79718 0.11741 0.0
H1931 H 0.84391 0.8139 0.15799 0.0
H1932 H 0.83459 0.74659 0.17974 0.0
C1933 C 0.83427 0.70698 0.08395 0.0
C1934 C 0.83122 0.71255 0.05971 0.0
C1935 C 0.8378 0.73603 0.05702 0.0
C1936 C 0.84596 0.75389 0.07834 0.0
C1937 C 0.84757 0.74795 0.10216 0.0
C1938 C 0.8421 0.72499 0.10508 0.0
C1939 C 0.8409 0.72332 0.1323 0.0
C1940 C 0.81766 0.70885 0.13478 0.0
C1941 C 0.86004 0.71343 0.14385 0.0
C1942 C 0.84453 0.74877 0.14374 0.0
C1943 C 0.84927 0.76281 0.12634 0.0
C1944 C 0.85004 0.78653 0.13148 0.0
C1945 C 0.84488 0.7959 0.15454 0.0
C1946 C 0.8387 0.78142 0.17177 0.0
C1947 C 0.83959 0.75793 0.16683 0.0
H1948 H 0.18735 0.04172 0.74713 0.0
H1949 H 0.13929 0.05687 0.79435 0.0
H1950 H 0.11357 0.05966 0.75682 0.0
H1951 H 0.17845 0.08051 0.70551 0.0
H1952 H 0.18038 0.06178 0.677 0.0
H1953 H 0.19494 0.05926 0.70716 0.0
H1954 H 0.17468 0.01557 0.69898 0.0
H1955 H 0.16016 0.01791 0.66869 0.0
H1956 H 0.14432 1.00684 0.69143 0.0
H1957 H 0.09405 0.0644 0.71529 0.0
H1958 H 0.08069 0.0681 0.67172 0.0
H1959 H 0.13931 0.04838 0.64849 0.0
C1960 C 0.1712 0.04509 0.74953 0.0
C1961 C 0.16556 0.04893 0.77417 0.0
C1962 C 0.14429 0.05375 0.77608 0.0
C1963 C 0.12944 0.05544 0.75472 0.0
C1964 C 0.13569 0.05212 0.73103 0.0
C1965 C 0.15591 0.04675 0.72811 0.0
C1966 C 0.15842 0.04458 0.70026 0.0
C1967 C 0.17929 0.06261 0.69732 0.0
C1968 C 0.15946 0.01975 0.68918 0.0
C1969 C 0.13665 0.04992 0.68819 0.0
C1970 C 0.12393 0.05427 0.70653 0.0
C1971 C 0.10375 0.06072 0.70076 0.0
C1972 C 0.0963 0.06284 0.6758 0.0
C1973 C 0.10866 0.05833 0.6563 0.0
C1974 C 0.12915 0.05154 0.66269 0.0
H1975 H 0.80791 0.37203 0.5068 0.0
H1976 H 0.74236 0.38375 0.48099 0.0
H1977 H 0.74439 0.36741 0.43702 0.0
H1978 H 0.83267 0.38745 0.45462 0.0
H1979 H 0.84859 0.36559 0.45327 0.0
H1980 H 0.84156 0.37715 0.48285 0.0
H1981 H 0.82249 0.33546 0.48748 0.0
H1982 H 0.82951 0.32379 0.45791 0.0
H1983 H 0.80063 0.31721 0.46241 0.0
H1984 H 0.75472 0.35205 0.39506 0.0
H1985 H 0.77201 0.33796 0.35925 0.0
H1986 H 0.83018 0.33475 0.41211 0.0
C1987 C 0.79382 0.37089 0.49197 0.0
C1988 C 0.77487 0.37913 0.49757 0.0
C1989 C 0.75699 0.37748 0.4774 0.0
C1990 C 0.75801 0.36823 0.45227 0.0
C1991 C 0.77699 0.3605 0.44739 0.0
C1992 C 0.79453 0.3616 0.46672 0.0
C1993 C 0.81326 0.35262 0.4563 0.0
C1994 C 0.83532 0.37185 0.4621 0.0
C1995 C 0.81667 0.33098 0.46664 0.0
C1996 C 0.8036 0.34642 0.42811 0.0
C1997 C 0.78268 0.35117 0.42336 0.0
C1998 C 0.77094 0.34796 0.39866 0.0
C1999 C 0.78086 0.33984 0.37838 0.0
C2000 C 0.80225 0.33476 0.38272 0.0
C2001 C 0.8136 0.33796 0.40805 0.0
H2002 H 0.48073 0.11832 0.23542 0.0
H2003 H 0.54345 0.14367 0.28961 0.0
H2004 H 0.56447 0.1325 0.25617 0.0
H2005 H 0.49575 0.06792 0.20364 0.0
H2006 H 0.48156 0.06914 0.17275 0.0
H2007 H 0.47153 0.0801 0.2006 0.0
H2008 H 0.47446 0.1191 0.18626 0.0
H2009 H 0.48591 0.10964 0.15892 0.0
H2010 H 0.50121 0.1354 0.1818 0.0
H2011 H 0.5786 0.1182 0.21736 0.0
H2012 H 0.58525 0.10157 0.1756 0.0
H2013 H 0.51324 0.08376 0.14641 0.0
C2014 C 0.49893 0.12186 0.24011 0.0
C2015 C 0.51056 0.13222 0.26502 0.0
C2016 C 0.53428 0.13595 0.27061 0.0
C2017 C 0.54633 0.12962 0.25176 0.0
C2018 C 0.53436 0.11915 0.22751 0.0
C2019 C 0.51118 0.11512 0.22163 0.0
C2020 C 0.5024 0.10274 0.19429 0.0
C2021 C 0.48689 0.07854 0.19275 0.0
C2022 C 0.49028 0.1176 0.17939 0.0
C2023 C 0.52432 0.10078 0.18563 0.0
C2024 C 0.54251 0.11034 0.20516 0.0
C2025 C 0.5645 0.11063 0.20193 0.0
C2026 C 0.56809 0.10108 0.1781 0.0
C2027 C 0.54979 0.09118 0.15769 0.0
C2028 C 0.52758 0.09092 0.16166 0.0
H2029 H 0.80977 0.71769 0.92838 0.0
H2030 H 0.74732 0.72724 0.95088 0.0
H2031 H 0.74761 0.75879 0.92659 0.0
H2032 H 0.83525 0.77757 0.93504 0.0
H2033 H 0.84931 0.77403 0.90836 0.0
H2034 H 0.8432 0.75078 0.92553 0.0
H2035 H 0.82134 0.72242 0.88413 0.0
H2036 H 0.82785 0.74551 0.86684 0.0
H2037 H 0.79894 0.7302 0.86497 0.0
H2038 H 0.75491 0.78934 0.90011 0.0
H2039 H 0.76861 0.81638 0.87249 0.0
H2040 H 0.82783 0.78879 0.87093 0.0
C2041 C 0.7959 0.72606 0.92764 0.0
C2042 C 0.77836 0.71995 0.94108 0.0
C2043 C 0.7608 0.73167 0.94043 0.0
C2044 C 0.76086 0.7496 0.92681 0.0
C2045 C 0.77878 0.75572 0.91434 0.0
C2046 C 0.79596 0.7443 0.9146 0.0
C2047 C 0.8138 0.75495 0.90067 0.0
C2048 C 0.83674 0.76493 0.91847 0.0
C2049 C 0.81557 0.73722 0.87779 0.0
C2050 C 0.8039 0.77409 0.89249 0.0
C2051 C 0.78364 0.77419 0.90039 0.0
C2052 C 0.77087 0.78962 0.894 0.0
C2053 C 0.7788 0.80496 0.8785 0.0
C2054 C 0.79935 0.8048 0.86998 0.0
C2055 C 0.81226 0.78958 0.8776 0.0
H2056 H 0.95904 0.19686 0.07056 0.0
H2057 H 0.9023 0.14233 0.0767 0.0
H2058 H 0.92378 0.11287 0.0669 0.0
H2059 H 0.98007 0.16444 0.02084 0.0
H2060 H 1.00931 0.17644 0.03514 0.0
H2061 H 0.9889 0.19318 0.04035 0.0
H2062 H 1.00086 0.19781 0.08886 0.0
H2063 H 1.02145 0.18134 0.0837 0.0
H2064 H 1.00052 0.17221 0.10241 0.0
H2065 H 0.95134 0.08909 0.05601 0.0
H2066 H 0.98512 0.07375 0.05242 0.0
H2067 H 1.02506 0.14381 0.05722 0.0
C2068 C 0.95117 0.17869 0.06962 0.0
C2069 C 0.92895 0.17179 0.07412 0.0
C2070 C 0.91932 0.14794 0.07331 0.0
C2071 C 0.93131 0.13106 0.06755 0.0
C2072 C 0.95315 0.13831 0.0631 0.0
C2073 C 0.9632 0.16161 0.06465 0.0
C2074 C 0.98764 0.16491 0.06153 0.0
C2075 C 0.99171 0.17536 0.03806 0.0
C2076 C 1.00355 0.17995 0.08556 0.0
C2077 C 0.98966 0.13989 0.05788 0.0
C2078 C 0.96944 0.12475 0.0583 0.0
C2079 C 0.96726 0.10078 0.05557 0.0
C2080 C 0.98644 0.09216 0.05322 0.0
C2081 C 1.00755 0.10754 0.05414 0.0
C2082 C 1.009 0.13163 0.05604 0.0
H2083 H 0.41945 0.5175 0.1178 0.0
H2084 H 0.43861 0.56906 0.18764 0.0
H2085 H 0.47575 0.5838 0.17614 0.0
H2086 H 0.47162 0.50362 0.1185 0.0
H2087 H 0.46999 0.49981 0.08472 0.0
H2088 H 0.44456 0.49464 0.09768 0.0
H2089 H 0.4302 0.52434 0.07393 0.0
H2090 H 0.45558 0.52957 0.06079 0.0
H2091 H 0.44751 0.55354 0.07834 0.0
H2092 H 0.51169 0.59074 0.15806 0.0
H2093 H 0.54303 0.59005 0.13443 0.0
H2094 H 0.49918 0.53409 0.07664 0.0
C2095 C 0.43131 0.53205 0.13066 0.0
C2096 C 0.4262 0.54214 0.15365 0.0
C2097 C 0.4422 0.56116 0.16988 0.0
C2098 C 0.4633 0.5696 0.16351 0.0
C2099 C 0.46787 0.55893 0.14082 0.0
C2100 C 0.45223 0.54067 0.1246 0.0
C2101 C 0.46136 0.53156 0.10179 0.0
C2102 C 0.46192 0.5059 0.10063 0.0
C2103 C 0.44786 0.53497 0.07727 0.0
C2104 C 0.48479 0.54733 0.10783 0.0
C2105 C 0.48829 0.56305 0.13036 0.0
C2106 C 0.50907 0.57869 0.14028 0.0
C2107 C 0.52673 0.57812 0.1268 0.0
C2108 C 0.52335 0.56203 0.10378 0.0
C2109 C 0.5021 0.54666 0.09411 0.0
H2110 H 0.35572 0.63976 0.7719 0.0
H2111 H 0.41539 0.66281 0.83071 0.0
H2112 H 0.40692 0.70111 0.84068 0.0
H2113 H 0.35889 0.69638 0.75171 0.0
H2114 H 0.32895 0.69389 0.74678 0.0
H2115 H 0.33949 0.66803 0.7432 0.0
H2116 H 0.3166 0.65271 0.77585 0.0
H2117 H 0.30598 0.67851 0.77948 0.0
H2118 H 0.32025 0.67055 0.80677 0.0
H2119 H 0.39307 0.73897 0.84398 0.0
H2120 H 0.37403 0.7709 0.84228 0.0
H2121 H 0.32062 0.72558 0.78393 0.0
C2122 C 0.36707 0.6528 0.78693 0.0
C2123 C 0.38661 0.64735 0.80039 0.0
C2124 C 0.40046 0.66562 0.81989 0.0
C2125 C 0.39574 0.68782 0.82574 0.0
C2126 C 0.37665 0.69253 0.81236 0.0
C2127 C 0.36233 0.67545 0.79341 0.0
C2128 C 0.34262 0.68537 0.78253 0.0
C2129 C 0.34247 0.68593 0.75438 0.0
C2130 C 0.32001 0.67092 0.78638 0.0
C2131 C 0.34803 0.71043 0.79831 0.0
C2132 C 0.36803 0.7141 0.81513 0.0
C2133 C 0.37728 0.73593 0.831 0.0
C2134 C 0.36616 0.75425 0.8299 0.0
C2135 C 0.34527 0.75148 0.81346 0.0
C2136 C 0.33617 0.72877 0.79735 0.0
H2137 H 0.32467 0.65666 0.58527 0.0
H2138 H 0.30504 0.67446 0.51262 0.0
H2139 H 0.26744 0.64753 0.50759 0.0
H2140 H 0.29014 0.59493 0.57183 0.0
H2141 H 0.28316 0.59813 0.60304 0.0
H2142 H 0.30991 0.61427 0.59811 0.0
H2143 H 0.30124 0.65274 0.61817 0.0
H2144 H 0.27452 0.63679 0.623 0.0
H2145 H 0.27566 0.65986 0.60527 0.0
H2146 H 0.23088 0.62291 0.5131 0.0
H2147 H 0.19762 0.6049 0.52968 0.0
H2148 H 0.24083 0.60628 0.60039 0.0
C2149 C 0.31277 0.65412 0.56783 0.0
C2150 C 0.31778 0.66713 0.54905 0.0
C2151 C 0.3015 0.6643 0.52701 0.0
C2152 C 0.2802 0.649 0.52398 0.0
C2153 C 0.27551 0.63695 0.54329 0.0
C2154 C 0.29134 0.63943 0.56485 0.0
C2155 C 0.28113 0.62767 0.58458 0.0
C2156 C 0.29172 0.60755 0.58968 0.0
C2157 C 0.28326 0.64532 0.60918 0.0
C2158 C 0.25694 0.61872 0.57107 0.0
C2159 C 0.25411 0.62375 0.54707 0.0
C2160 C 0.23294 0.61862 0.53173 0.0
C2161 C 0.21412 0.60853 0.5414 0.0
C2162 C 0.21657 0.60407 0.56634 0.0
C2163 C 0.23837 0.60883 0.58104 0.0
H2164 H 0.71462 0.94553 0.84149 0.0
H2165 H 0.73756 0.97712 0.78019 0.0
H2166 H 0.76611 0.95448 0.77885 0.0
H2167 H 0.76979 0.94313 0.87304 0.0
H2168 H 0.76003 0.91509 0.88105 0.0
H2169 H 0.74122 0.934 0.87801 0.0
H2170 H 0.71248 0.90147 0.84474 0.0
H2171 H 0.73111 0.88244 0.84801 0.0
H2172 H 0.72158 0.88812 0.81728 0.0
H2173 H 0.79185 0.92887 0.78318 0.0
H2174 H 0.81217 0.89883 0.79131 0.0
H2175 H 0.77362 0.88256 0.84948 0.0
C2176 C 0.72563 0.94762 0.82778 0.0
C2177 C 0.72377 0.96324 0.81097 0.0
C2178 C 0.73853 0.96537 0.79328 0.0
C2179 C 0.75493 0.95263 0.79241 0.0
C2180 C 0.75652 0.93768 0.80932 0.0
C2181 C 0.74222 0.93486 0.82655 0.0
C2182 C 0.74738 0.91691 0.84197 0.0
C2183 C 0.75506 0.92795 0.8702 0.0
C2184 C 0.72692 0.896 0.83775 0.0
C2185 C 0.76667 0.91013 0.83053 0.0
C2186 C 0.77166 0.92256 0.81185 0.0
C2187 C 0.78823 0.91911 0.79784 0.0
C2188 C 0.79971 0.90213 0.80259 0.0
C2189 C 0.79468 0.88882 0.82118 0.0
C2190 C 0.77814 0.893 0.83561 0.0
H2191 H 0.80057 0.02485 0.64713 0.0
H2192 H 0.83201 0.08289 0.70936 0.0
H2193 H 0.79994 0.10055 0.69992 0.0
H2194 H 0.77915 0.05749 0.60474 0.0
H2195 H 0.75332 0.03551 0.592 0.0
H2196 H 0.77841 0.02721 0.60414 0.0
H2197 H 0.7571 1.00562 0.63459 0.0
H2198 H 0.7319 1.01381 0.62255 0.0
H2199 H 0.74319 0.02107 0.656 0.0
H2200 H 0.76517 0.1125 0.68252 0.0
H2201 H 0.72938 0.11707 0.6595 0.0
H2202 H 0.72095 0.05088 0.60923 0.0
C2203 C 0.8007 0.04123 0.6589 0.0
C2204 C 0.81875 0.05254 0.67899 0.0
C2205 C 0.81828 0.07392 0.69392 0.0
C2206 C 0.80019 0.08408 0.68868 0.0
C2207 C 0.78274 0.07254 0.66857 0.0
C2208 C 0.7828 0.05152 0.65402 0.0
C2209 C 0.76213 0.0427 0.63339 0.0
C2210 C 0.76865 0.04062 0.60701 0.0
C2211 C 0.74773 0.01943 0.63686 0.0
C2212 C 0.75047 0.06216 0.63849 0.0
C2213 C 0.76263 0.07924 0.6588 0.0
C2214 C 0.75544 0.0992 0.66666 0.0
C2215 C 0.73521 0.10171 0.65343 0.0
C2216 C 0.72245 0.08429 0.63272 0.0
C2217 C 0.73024 0.0643 0.62524 0.0
H2218 H 0.41336 0.49581 0.81826 0.0
H2219 H 0.3535 0.51461 0.7853 0.0
H2220 H 0.33076 0.47499 0.78566 0.0
H2221 H 0.39883 0.43601 0.78409 0.0
H2222 H 0.41077 0.42491 0.81037 0.0
H2223 H 0.42191 0.45457 0.80755 0.0
H2224 H 0.415 0.4691 0.85231 0.0
H2225 H 0.40385 0.43949 0.85529 0.0
H2226 H 0.38719 0.46049 0.85962 0.0
H2227 H 0.31387 0.43028 0.78995 0.0
H2228 H 0.30618 0.38972 0.79754 0.0
H2229 H 0.37705 0.40001 0.82772 0.0
C2230 C 0.39543 0.49184 0.81108 0.0
C2231 C 0.38562 0.50927 0.80174 0.0
C2232 C 0.36191 0.50235 0.79264 0.0
C2233 C 0.34873 0.47954 0.79278 0.0
C2234 C 0.35904 0.46299 0.80208 0.0
C2235 C 0.38201 0.46908 0.8111 0.0
C2236 C 0.38934 0.44837 0.82012 0.0
C2237 C 0.40621 0.4405 0.80461 0.0
C2238 C 0.39945 0.45475 0.84852 0.0
C2239 C 0.36707 0.42952 0.81493 0.0
C2240 C 0.34968 0.4382 0.80448 0.0
C2241 C 0.32763 0.42372 0.79815 0.0
C2242 C 0.32331 0.40038 0.80256 0.0
C2243 C 0.34075 0.39086 0.81335 0.0
C2244 C 0.36301 0.40614 0.81947 0.0
H2245 H 0.23532 0.57086 0.31257 0.0
H2246 H 0.2272 0.59481 0.38932 0.0
H2247 H 0.25242 0.63311 0.38996 0.0
H2248 H 0.29466 0.60576 0.31702 0.0
H2249 H 0.28817 0.61146 0.28561 0.0
H2250 H 0.27377 0.58461 0.29323 0.0
H2251 H 0.23539 0.59342 0.27812 0.0
H2252 H 0.2496 0.6204 0.27084 0.0
H2253 H 0.22978 0.62037 0.29216 0.0
H2254 H 0.27357 0.67004 0.38011 0.0
H2255 H 0.28864 0.70306 0.36043 0.0
H2256 H 0.28202 0.65529 0.28956 0.0
C2257 C 0.23968 0.58384 0.32988 0.0
C2258 C 0.22976 0.57984 0.35109 0.0
C2259 C 0.23495 0.59753 0.37303 0.0
C2260 C 0.24926 0.61928 0.37356 0.0
C2261 C 0.25807 0.62301 0.35194 0.0
C2262 C 0.25354 0.60574 0.33051 0.0
C2263 C 0.26239 0.61508 0.30864 0.0
C2264 C 0.28085 0.60354 0.30066 0.0
C2265 C 0.24315 0.61215 0.28613 0.0
C2266 C 0.27205 0.64041 0.32089 0.0
C2267 C 0.26973 0.64457 0.34597 0.0
C2268 C 0.27593 0.66694 0.36065 0.0
C2269 C 0.28453 0.68557 0.34933 0.0
C2270 C 0.28665 0.68171 0.32351 0.0
C2271 C 0.28063 0.65877 0.30933 0.0
H2272 H 0.57792 0.7698 0.45159 0.0
H2273 H 0.63365 0.82708 0.49223 0.0
H2274 H 0.64162 0.80403 0.52446 0.0
H2275 H 0.55927 0.75108 0.50696 0.0
H2276 H 0.55246 0.72051 0.49317 0.0
H2277 H 0.55075 0.74154 0.47317 0.0
H2278 H 0.57792 0.72541 0.4472 0.0
H2279 H 0.57972 0.70435 0.46714 0.0
H2280 H 0.60504 0.72396 0.46321 0.0
H2281 H 0.64396 0.77514 0.55236 0.0
H2282 H 0.64094 0.74163 0.57377 0.0
H2283 H 0.58373 0.70255 0.51578 0.0
C2284 C 0.59176 0.77748 0.46729 0.0
C2285 C 0.60513 0.80032 0.4693 0.0
C2286 C 0.62315 0.80966 0.49015 0.0
C2287 C 0.62783 0.79671 0.50865 0.0
C2288 C 0.6144 0.77432 0.50613 0.0
C2289 C 0.59677 0.76469 0.486 0.0
C2290 C 0.5852 0.74007 0.48782 0.0
C2291 C 0.56045 0.7382 0.49044 0.0
C2292 C 0.58709 0.7224 0.46498 0.0
C2293 C 0.59914 0.73744 0.51206 0.0
C2294 C 0.61583 0.75748 0.52231 0.0
C2295 C 0.63089 0.75937 0.54459 0.0
C2296 C 0.62893 0.74026 0.55674 0.0
C2297 C 0.61203 0.71941 0.54665 0.0
C2298 C 0.59694 0.71812 0.52395 0.0
H2299 H 0.64311 0.31451 0.74497 0.0
H2300 H 0.62431 0.30785 0.8177 0.0
H2301 H 0.66442 0.31074 0.83561 0.0
H2302 H 0.68333 0.27931 0.74828 0.0
H2303 H 0.70215 0.29652 0.73208 0.0
H2304 H 0.67241 0.29501 0.72578 0.0
H2305 H 0.68096 0.33991 0.73713 0.0
H2306 H 0.71073 0.34156 0.74354 0.0
H2307 H 0.69767 0.355 0.76745 0.0
H2308 H 0.7091 0.3154 0.84567 0.0
H2309 H 0.74978 0.31781 0.84533 0.0
H2310 H 0.73831 0.31901 0.76528 0.0
C2311 C 0.64727 0.31385 0.76481 0.0
C2312 C 0.63001 0.31125 0.77987 0.0
C2313 C 0.63676 0.31001 0.80558 0.0
C2314 C 0.65972 0.31167 0.81595 0.0
C2315 C 0.67618 0.31427 0.80049 0.0
C2316 C 0.67 0.3151 0.7753 0.0
C2317 C 0.69041 0.31696 0.76212 0.0
C2318 C 0.68686 0.29569 0.74081 0.0
C2319 C 0.69522 0.33971 0.75196 0.0
C2320 C 0.70923 0.31719 0.78368 0.0
C2321 C 0.70087 0.31587 0.80582 0.0
C2322 C 0.7155 0.31628 0.82825 0.0
C2323 C 0.73879 0.31776 0.82795 0.0
C2324 C 0.74768 0.31854 0.80532 0.0
C2325 C 0.73237 0.31833 0.78299 0.0
H2326 H 0.04683 0.41111 0.97642 0.0
H2327 H 0.11235 0.42671 0.95418 0.0
H2328 H 0.12247 0.46475 0.98357 0.0
H2329 H 0.03865 0.46912 0.98088 0.0
H2330 H 1.02471 0.46785 0.00775 0.0
H2331 H 1.02286 0.44157 0.98557 0.0
H2332 H 0.03852 0.42328 0.02215 0.0
H2333 H 0.04045 0.44955 0.04441 0.0
H2334 H 0.06504 0.4383 0.04247 0.0
H2335 H 0.12568 0.501 0.01577 0.0
H2336 H 0.12093 0.53379 0.04631 0.0
H2337 H 0.05279 0.49537 0.04672 0.0
C2338 C 0.06333 0.4225 0.97776 0.0
C2339 C 0.07885 0.41585 0.96299 0.0
C2340 C 0.10018 0.43138 0.96521 0.0
C2341 C 0.10611 0.45302 0.98194 0.0
C2342 C 0.09047 0.459 0.99624 0.0
C2343 C 0.06944 0.44428 0.99419 0.0
C2344 C 0.0555 0.45524 0.01113 0.0
C2345 C 0.03417 0.45865 0.99539 0.0
C2346 C 0.04953 0.44073 0.03123 0.0
C2347 C 0.07199 0.47841 0.02306 0.0
C2348 C 0.09212 0.48013 0.01434 0.0
C2349 C 0.10997 0.49985 0.02268 0.0
C2350 C 0.10712 0.51839 0.04012 0.0
C2351 C 0.0865 0.51726 0.04901 0.0
C2352 C 0.06879 0.49685 0.04037 0.0
H2353 H 0.98902 0.79989 0.31729 0.0
H2354 H 0.98895 0.82294 0.24565 0.0
H2355 H 0.95044 0.82799 0.2458 0.0
H2356 H 0.92962 0.76898 0.3059 0.0
H2357 H 0.92539 0.77829 0.33761 0.0
H2358 H 0.95293 0.77586 0.33208 0.0
H2359 H 0.9698 0.8187 0.35453 0.0
H2360 H 0.9423 0.82122 0.36015 0.0
H2361 H 0.95805 0.8412 0.3438 0.0
H2362 H 0.91034 0.82906 0.2523 0.0
H2363 H 0.87427 0.82964 0.26646 0.0
H2364 H 0.89911 0.809 0.33584 0.0
C2365 C 0.98097 0.80609 0.30165 0.0
C2366 C 0.99265 0.81095 0.28134 0.0
C2367 C 0.981 0.81911 0.26152 0.0
C2368 C 0.95883 0.82198 0.26137 0.0
C2369 C 0.9479 0.81703 0.28142 0.0
C2370 C 0.95868 0.80956 0.30145 0.0
C2371 C 0.94308 0.80629 0.321 0.0
C2372 C 0.93743 0.78084 0.32435 0.0
C2373 C 0.95396 0.82283 0.34638 0.0
C2374 C 0.92191 0.81286 0.30876 0.0
C2375 C 0.9251 0.81873 0.28575 0.0
C2376 C 0.90791 0.82468 0.27042 0.0
C2377 C 0.88721 0.82489 0.27869 0.0
C2378 C 0.88327 0.81952 0.30244 0.0
C2379 C 0.90121 0.81341 0.31765 0.0
H2380 H 0.51687 0.35609 0.14718 0.0
H2381 H 0.53247 0.30439 0.09201 0.0
H2382 H 0.53833 0.33256 0.06359 0.0
H2383 H 0.49049 0.38785 0.10182 0.0
H2384 H 0.50372 0.41573 0.12203 0.0
H2385 H 0.49613 0.39026 0.13568 0.0
H2386 H 0.53737 0.39819 0.15922 0.0
H2387 H 0.5451 0.42353 0.14558 0.0
H2388 H 0.55993 0.40087 0.14135 0.0
H2389 H 0.54646 0.36674 0.04356 0.0
H2390 H 0.55834 0.40581 0.03374 0.0
H2391 H 0.54073 0.43616 0.10374 0.0
C2392 C 0.52076 0.35063 0.12873 0.0
C2393 C 0.52391 0.32823 0.12135 0.0
C2394 C 0.52985 0.3216 0.09765 0.0
C2395 C 0.53307 0.33737 0.08139 0.0
C2396 C 0.53048 0.35965 0.0894 0.0
C2397 C 0.52457 0.36637 0.11254 0.0
C2398 C 0.52606 0.39218 0.11811 0.0
C2399 C 0.50271 0.39677 0.11948 0.0
C2400 C 0.54314 0.4044 0.14249 0.0
C2401 C 0.53442 0.39896 0.09489 0.0
C2402 C 0.53634 0.37986 0.07833 0.0
C2403 C 0.54485 0.38187 0.05622 0.0
C2404 C 0.55178 0.40411 0.05097 0.0
C2405 C 0.55052 0.42399 0.06801 0.0
C2406 C 0.54148 0.42127 0.09008 0.0
H2407 H 0.05777 0.38121 0.46413 0.0
H2408 H 0.08444 0.33875 0.40946 0.0
H2409 H 0.05221 0.33727 0.37659 0.0
H2410 H 0.99974 0.35168 0.44189 0.0
H2411 H 0.98983 0.37782 0.44735 0.0
H2412 H 1.01535 0.3759 0.46651 0.0
H2413 H 0.03706 0.41347 0.4543 0.0
H2414 H 1.01163 0.41534 0.43488 0.0
H2415 H 0.03654 0.41479 0.42136 0.0
H2416 H 1.01701 0.33966 0.34981 0.0
H2417 H 0.97989 0.34479 0.33131 0.0
H2418 H 0.97644 0.38542 0.40339 0.0
C2419 C 0.05682 0.37156 0.44528 0.0
C2420 C 0.07361 0.36013 0.43939 0.0
C2421 C 0.07176 0.34768 0.41446 0.0
C2422 C 0.05358 0.34678 0.39559 0.0
C2423 C 0.03745 0.35843 0.40195 0.0
C2424 C 0.0388 0.37048 0.42618 0.0
C2425 C 1.0189 0.38101 0.42813 0.0
C2426 C 1.00514 0.37099 0.44708 0.0
C2427 C 0.0265 0.40774 0.43507 0.0
C2428 C 1.00613 0.37282 0.40125 0.0
C2429 C 1.01715 0.35991 0.38642 0.0
C2430 C 1.00822 0.34984 0.36114 0.0
C2431 C 0.9872 0.35279 0.35084 0.0
C2432 C 0.97555 0.36569 0.36588 0.0
C2433 C 0.98528 0.37597 0.39129 0.0
H2434 H 0.99338 0.69965 0.58989 0.0
H2435 H 0.99278 0.70221 0.67001 0.0
H2436 H 1.02374 0.68263 0.67285 0.0
H2437 H 1.00232 0.64068 0.57986 0.0
H2438 H 1.01985 0.64543 0.55636 0.0
H2439 H 0.99794 0.66064 0.55935 0.0
H2440 H 0.02577 0.70018 0.56575 0.0
H2441 H 0.04845 0.68621 0.56226 0.0
H2442 H 0.05055 0.70782 0.59005 0.0
H2443 H 0.05744 0.66738 0.6684 0.0
H2444 H 0.08706 0.6493 0.65524 0.0
H2445 H 0.06251 0.65061 0.5768 0.0
C2446 C 0.99951 0.6957 0.60795 0.0
C2447 C 0.99148 0.70354 0.62999 0.0
C2448 C 0.99915 0.69711 0.65301 0.0
C2449 C 1.01658 0.68569 0.6548 0.0
C2450 C 1.02507 0.67947 0.63309 0.0
C2451 C 1.01627 0.68343 0.60989 0.0
C2452 C 0.02781 0.67394 0.58928 0.0
C2453 C 1.01102 0.65396 0.57007 0.0
C2454 C 0.03881 0.69319 0.57609 0.0
C2455 C 0.04535 0.6652 0.60487 0.0
C2456 C 0.04355 0.66886 0.63014 0.0
C2457 C 0.05869 0.66381 0.6486 0.0
C2458 C 0.07563 0.65381 0.64093 0.0
C2459 C 0.07686 0.64834 0.61495 0.0
C2460 C 0.06179 0.65451 0.59674 0.0
H2461 H 0.66843 0.83866 0.92208 0.0
H2462 H 0.65904 0.89769 0.88834 0.0
H2463 H 0.67092 0.88077 0.84993 0.0
H2464 H 0.71821 0.83288 0.89725 0.0
H2465 H 0.71092 0.80153 0.89191 0.0
H2466 H 0.70108 0.81794 0.91673 0.0
H2467 H 0.6599 0.79525 0.89744 0.0
H2468 H 0.66959 0.77886 0.87243 0.0
H2469 H 0.64881 0.79483 0.86485 0.0
H2470 H 0.68426 0.85834 0.81574 0.0
H2471 H 0.70237 0.83393 0.78933 0.0
H2472 H 0.70095 0.78754 0.84343 0.0
C2473 C 0.66893 0.84805 0.90665 0.0
C2474 C 0.66273 0.86948 0.90824 0.0
C2475 C 0.66365 0.88123 0.88761 0.0
C2476 C 0.67029 0.87173 0.86562 0.0
C2477 C 0.67592 0.85044 0.86449 0.0
C2478 C 0.67553 0.8388 0.88447 0.0
C2479 C 0.6832 0.81656 0.87852 0.0
C2480 C 0.70462 0.81728 0.89721 0.0
C2481 C 0.66424 0.79511 0.87829 0.0
C2482 C 0.68809 0.81769 0.85216 0.0
C2483 C 0.68362 0.83731 0.84446 0.0
C2484 C 0.68777 0.84282 0.82144 0.0
C2485 C 0.69776 0.82848 0.8063 0.0
C2486 C 0.70311 0.80844 0.81392 0.0
C2487 C 0.69745 0.80273 0.83692 0.0
H2488 H 0.48833 0.56083 0.74763 0.0
H2489 H 0.45035 0.60992 0.72692 0.0
H2490 H 0.47133 0.61556 0.69194 0.0
H2491 H 0.54199 0.58929 0.73262 0.0
H2492 H 0.54856 0.56259 0.7195 0.0
H2493 H 0.53116 0.56286 0.74342 0.0
H2494 H 0.49978 0.53016 0.71377 0.0
H2495 H 0.51713 0.52975 0.68981 0.0
H2496 H 0.48916 0.53411 0.68257 0.0
H2497 H 0.49823 0.61688 0.65859 0.0
H2498 H 0.52437 0.61082 0.62908 0.0
H2499 H 0.54397 0.55896 0.66856 0.0
C2500 C 0.48441 0.57288 0.73586 0.0
C2501 C 0.46739 0.58506 0.74078 0.0
C2502 C 0.46302 0.60031 0.72417 0.0
C2503 C 0.47505 0.6037 0.70406 0.0
C2504 C 0.49161 0.59154 0.69985 0.0
C2505 C 0.49607 0.57615 0.71517 0.0
C2506 C 0.51407 0.56449 0.70588 0.0
C2507 C 0.5352 0.57014 0.72659 0.0
C2508 C 0.50446 0.53806 0.69752 0.0
C2509 C 0.51921 0.57576 0.68316 0.0
C2510 C 0.50619 0.59154 0.6802 0.0
C2511 C 0.50826 0.6044 0.66085 0.0
C2512 C 0.52345 0.60093 0.64408 0.0
C2513 C 0.53676 0.58448 0.64602 0.0
C2514 C 0.53438 0.57181 0.66619 0.0
H2515 H 0.86328 0.25212 0.97537 0.0
H2516 H 0.82416 0.28798 0.02068 0.0
H2517 H 0.81003 0.3034 0.98398 0.0
H2518 H 0.87849 0.29678 0.93834 0.0
H2519 H 0.87564 0.27639 0.90929 0.0
H2520 H 0.88332 0.26834 0.93925 0.0
H2521 H 0.84946 0.23211 0.92684 0.0
H2522 H 0.8416 0.24019 0.89693 0.0
H2523 H 0.82146 0.23583 0.91771 0.0
H2524 H 0.7998 0.31491 0.94319 0.0
H2525 H 0.79489 0.32321 0.90022 0.0
H2526 H 0.83954 0.27959 0.87943 0.0
C2527 C 0.85197 0.26346 0.97759 0.0
C2528 C 0.84495 0.26896 1.00104 0.0
C2529 C 0.82983 0.28354 1.00303 0.0
C2530 C 0.82165 0.29236 0.98224 0.0
C2531 C 0.82854 0.28635 0.95938 0.0
C2532 C 0.84337 0.2723 0.95679 0.0
C2533 C 0.84772 0.26848 0.92976 0.0
C2534 C 0.87278 0.27807 0.92913 0.0
C2535 C 0.83958 0.24261 0.91707 0.0
C2536 C 0.83317 0.28277 0.91778 0.0
C2537 C 0.82226 0.29281 0.93533 0.0
C2538 C 0.8082 0.30712 0.92925 0.0
C2539 C 0.80551 0.31169 0.90473 0.0
C2540 C 0.81672 0.30199 0.88637 0.0
C2541 C 0.8305 0.28702 0.89293 0.0
H2542 H 0.13784 0.55902 0.28151 0.0
H2543 H 0.12962 0.48553 0.25281 0.0
H2544 H 0.11224 0.49021 0.21057 0.0
H2545 H 0.08704 0.56672 0.24371 0.0
H2546 H 0.10109 0.59481 0.23861 0.0
H2547 H 0.11034 0.58505 0.26706 0.0
H2548 H 0.15081 0.59142 0.25728 0.0
H2549 H 0.1417 0.60115 0.22882 0.0
H2550 H 0.15521 0.57734 0.22726 0.0
H2551 H 0.09638 0.50343 0.17101 0.0
H2552 H 0.08688 0.52436 0.13684 0.0
H2553 H 0.10866 0.58983 0.1907 0.0
C2554 C 0.13182 0.54377 0.26651 0.0
C2555 C 0.13452 0.52174 0.27062 0.0
C2556 C 0.12734 0.50245 0.2502 0.0
C2557 C 0.11747 0.50498 0.22616 0.0
C2558 C 0.11528 0.52701 0.22268 0.0
C2559 C 0.1225 0.54612 0.24228 0.0
C2560 C 0.12021 0.56828 0.23314 0.0
C2561 C 0.10368 0.57936 0.24642 0.0
C2562 C 0.14336 0.58556 0.23684 0.0
C2563 C 0.11059 0.55872 0.2053 0.0
C2564 C 0.10751 0.53482 0.19972 0.0
C2565 C 0.09877 0.52213 0.17522 0.0
C2566 C 0.09336 0.53417 0.15593 0.0
C2567 C 0.09709 0.55873 0.16107 0.0
C2568 C 0.10566 0.57105 0.18617 0.0
H2569 H 0.83606 0.98519 0.56545 0.0
H2570 H 0.795 0.93764 0.60222 0.0
H2571 H 0.77752 0.91213 0.56073 0.0
H2572 H 0.79438 0.97205 0.50093 0.0
H2573 H 0.81789 0.97418 0.48451 0.0
H2574 H 0.82093 0.99239 0.51511 0.0
H2575 H 0.85529 0.9771 0.5314 0.0
H2576 H 0.85216 0.95863 0.50124 0.0
H2577 H 0.85196 0.9462 0.5293 0.0
H2578 H 0.77267 0.88752 0.51868 0.0
H2579 H 0.78075 0.86602 0.47998 0.0
H2580 H 0.82507 0.92928 0.46974 0.0
C2581 C 0.82233 0.97013 0.56436 0.0
C2582 C 0.81616 0.96355 0.58653 0.0
C2583 C 0.79923 0.94315 0.5851 0.0
C2584 C 0.78927 0.92863 0.56164 0.0
C2585 C 0.79653 0.9349 0.53998 0.0
C2586 C 0.81248 0.95543 0.54109 0.0
C2587 C 0.8207 0.95606 0.51626 0.0
C2588 C 0.813 0.97478 0.50344 0.0
C2589 C 0.84653 0.95968 0.51979 0.0
C2590 C 0.80848 0.93193 0.50183 0.0
C2591 C 0.79402 0.92027 0.51544 0.0
C2592 C 0.78332 0.8967 0.50745 0.0
C2593 C 0.78802 0.8846 0.48545 0.0
C2594 C 0.80352 0.89607 0.47196 0.0
C2595 C 0.8131 0.92018 0.47974 0.0
H2596 H 0.49983 0.55265 0.8826 0.0
H2597 H 0.47296 0.61367 0.89467 0.0
H2598 H 0.49166 0.62286 0.93951 0.0
H2599 H 0.4936 0.53664 0.94299 0.0
H2600 H 0.51937 0.52714 0.94718 0.0
H2601 H 0.50443 0.52554 0.91578 0.0
H2602 H 0.54038 0.55017 0.90487 0.0
H2603 H 0.55543 0.5518 0.93623 0.0
H2604 H 0.55424 0.57812 0.92465 0.0
H2605 H 0.51299 0.62529 0.98412 0.0
H2606 H 0.53494 0.62071 0.02387 0.0
H2607 H 0.54842 0.5582 0.98387 0.0
C2608 C 0.498 0.56805 0.8946 0.0
C2609 C 0.48481 0.58246 0.88467 0.0
C2610 C 0.48287 0.6023 0.90142 0.0
C2611 C 0.49349 0.6077 0.92709 0.0
C2612 C 0.50618 0.59314 0.93625 0.0
C2613 C 0.50852 0.5737 0.92049 0.0
C2614 C 0.52288 0.56078 0.93533 0.0
C2615 C 0.50926 0.53606 0.93532 0.0
C2616 C 0.54452 0.56019 0.92463 0.0
C2617 C 0.52823 0.57594 0.9618 0.0
C2618 C 0.51841 0.59453 0.96189 0.0
C2619 C 0.52075 0.61078 0.98415 0.0
C2620 C 0.53332 0.60803 0.00678 0.0
C2621 C 0.54365 0.58915 0.00739 0.0
C2622 C 0.54096 0.57295 0.98433 0.0
H2623 H 0.84748 0.27723 0.12658 0.0
H2624 H 0.90672 0.25682 0.15897 0.0
H2625 H 0.90323 0.27546 0.20161 0.0
H2626 H 0.85699 0.3332 0.17032 0.0
H2627 H 0.82748 0.32955 0.17166 0.0
H2628 H 0.83594 0.31667 0.14351 0.0
H2629 H 0.81197 0.27625 0.1462 0.0
H2630 H 0.80348 0.28896 0.17434 0.0
H2631 H 0.81672 0.26505 0.17483 0.0
H2632 H 0.89202 0.29443 0.24111 0.0
H2633 H 0.8733 0.31069 0.27433 0.0
H2634 H 0.82055 0.31793 0.21665 0.0
C2635 C 0.86008 0.27717 0.14254 0.0
C2636 C 0.87766 0.26585 0.13925 0.0
C2637 C 0.89329 0.26557 0.16086 0.0
C2638 C 0.89143 0.27613 0.1852 0.0
C2639 C 0.87374 0.28683 0.18778 0.0
C2640 C 0.85829 0.28738 0.16703 0.0
C2641 C 0.83991 0.29852 0.17513 0.0
C2642 C 0.8401 0.32081 0.16452 0.0
C2643 C 0.81665 0.28116 0.16716 0.0
C2644 C 0.84733 0.30405 0.20371 0.0
C2645 C 0.867 0.29733 0.21057 0.0
C2646 C 0.87673 0.29991 0.2359 0.0
C2647 C 0.86597 0.30924 0.25467 0.0
C2648 C 0.84553 0.31581 0.2482 0.0
C2649 C 0.83632 0.31344 0.22228 0.0
H2650 H 0.15265 0.54397 0.43591 0.0
H2651 H 0.10753 0.56869 0.38423 0.0
H2652 H 0.08888 0.58151 0.41931 0.0
H2653 H 0.11406 0.52363 0.47602 0.0
H2654 H 0.13519 0.53435 0.50449 0.0
H2655 H 0.14348 0.52625 0.47469 0.0
H2656 H 0.17057 0.56753 0.48305 0.0
H2657 H 0.16099 0.57527 0.51225 0.0
H2658 H 0.15924 0.59277 0.48833 0.0
H2659 H 0.07474 0.59115 0.45983 0.0
H2660 H 0.06672 0.59801 0.50313 0.0
H2661 H 0.12213 0.56882 0.52947 0.0
C2662 C 0.13866 0.55183 0.43201 0.0
C2663 C 0.13122 0.55497 0.40727 0.0
C2664 C 0.11333 0.56594 0.40299 0.0
C2665 C 0.10267 0.57331 0.42281 0.0
C2666 C 0.11043 0.5701 0.44701 0.0
C2667 C 0.12821 0.5599 0.45178 0.0
C2668 C 0.13381 0.55944 0.47976 0.0
C2669 C 0.13144 0.53439 0.48396 0.0
C2670 C 0.15757 0.57467 0.49152 0.0
C2671 C 0.11585 0.57009 0.48977 0.0
C2672 C 0.10268 0.5763 0.47056 0.0
C2673 C 0.085 0.58644 0.47505 0.0
C2674 C 0.08058 0.59029 0.49977 0.0
C2675 C 0.09378 0.58407 0.51986 0.0
C2676 C 0.11173 0.5739 0.51465 0.0
H2677 H 0.83143 0.94106 0.7015 0.0
H2678 H 0.90111 0.97821 0.73049 0.0
H2679 H 0.90719 0.94564 0.75122 0.0
H2680 H 0.82304 0.92073 0.75827 0.0
H2681 H 0.80421 0.89309 0.74267 0.0
H2682 H 0.80578 0.91804 0.72788 0.0
H2683 H 0.81524 0.89551 0.68805 0.0
H2684 H 0.81375 0.87025 0.70239 0.0
H2685 H 0.83887 0.88242 0.69099 0.0
H2686 H 0.90613 0.90857 0.76658 0.0
H2687 H 0.89611 0.87416 0.78582 0.0
H2688 H 0.8259 0.86314 0.75121 0.0
C2689 C 0.84789 0.94226 0.71236 0.0
C2690 C 0.86587 0.96187 0.71454 0.0
C2691 C 0.88716 0.96325 0.72895 0.0
C2692 C 0.89082 0.94476 0.7404 0.0
C2693 C 0.87288 0.92535 0.73748 0.0
C2694 C 0.85166 0.92426 0.72449 0.0
C2695 C 0.83471 0.90256 0.72653 0.0
C2696 C 0.81582 0.90897 0.73964 0.0
C2697 C 0.82508 0.88676 0.70043 0.0
C2698 C 0.84973 0.89169 0.74289 0.0
C2699 C 0.87181 0.90475 0.7482 0.0
C2700 C 0.88888 0.89827 0.76279 0.0
C2701 C 0.88302 0.87859 0.77348 0.0
C2702 C 0.86019 0.86617 0.77017 0.0
C2703 C 0.84349 0.8723 0.75392 0.0
H2704 H 0.71176 0.50326 0.62612 0.0
H2705 H 0.68374 0.45416 0.5552 0.0
H2706 H 0.65247 0.4729 0.54849 0.0
H2707 H 0.65781 0.50637 0.6447 0.0
H2708 H 0.66625 0.53711 0.65789 0.0
H2709 H 0.68702 0.52018 0.65783 0.0
H2710 H 0.71009 0.54824 0.63412 0.0
H2711 H 0.68932 0.56517 0.63399 0.0
H2712 H 0.69676 0.55351 0.60465 0.0
H2713 H 0.62466 0.49555 0.54847 0.0
H2714 H 0.59937 0.5207 0.5554 0.0
H2715 H 0.64307 0.55759 0.62651 0.0
C2716 C 0.69896 0.49643 0.60925 0.0
C2717 C 0.70033 0.47706 0.59115 0.0
C2718 C 0.68324 0.46882 0.56933 0.0
C2719 C 0.66536 0.47943 0.56531 0.0
C2720 C 0.6646 0.49843 0.58321 0.0
C2721 C 0.68076 0.50696 0.60483 0.0
C2722 C 0.67527 0.5277 0.62085 0.0
C2723 C 0.67136 0.52252 0.64686 0.0
C2724 C 0.69398 0.54998 0.62356 0.0
C2725 C 0.65343 0.52922 0.60479 0.0
C2726 C 0.64795 0.51203 0.5832 0.0
C2727 C 0.62874 0.50904 0.5653 0.0
C2728 C 0.61438 0.52359 0.56957 0.0
C2729 C 0.61891 0.54128 0.59162 0.0
C2730 C 0.63907 0.54441 0.60942 0.0
H2731 H 0.22656 0.15171 0.52495 0.0
H2732 H 0.22335 0.0854 0.47768 0.0
H2733 H 0.18741 0.06831 0.49049 0.0
H2734 H 0.20985 0.12816 0.57558 0.0
H2735 H 0.1941 0.14904 0.5849 0.0
H2736 H 0.21735 0.15707 0.56893 0.0
H2737 H 0.19125 0.16879 0.53418 0.0
H2738 H 0.16793 0.16109 0.55023 0.0
H2739 H 0.16567 0.14809 0.51749 0.0
H2740 H 0.15274 0.05836 0.50997 0.0
H2741 H 0.12298 0.05571 0.53624 0.0
H2742 H 0.15187 0.12752 0.5739 0.0
C2743 C 0.21787 0.13381 0.51663 0.0
C2744 C 0.22726 0.11994 0.49989 0.0
C2745 C 0.21607 0.09631 0.49022 0.0
C2746 C 0.19574 0.08651 0.4974 0.0
C2747 C 0.18722 0.10054 0.51455 0.0
C2748 C 0.198 0.12366 0.52412 0.0
C2749 C 0.18679 0.13436 0.54426 0.0
C2750 C 0.20299 0.14263 0.56993 0.0
C2751 C 0.17734 0.15426 0.53604 0.0
C2752 C 0.16812 0.1136 0.54474 0.0
C2753 C 0.16837 0.09437 0.52716 0.0
C2754 C 0.15243 0.07326 0.52386 0.0
C2755 C 0.13572 0.07188 0.53887 0.0
C2756 C 0.13555 0.09131 0.55722 0.0
C2757 C 0.15198 0.11233 0.56027 0.0
H2758 H 0.23819 0.96889 0.83764 0.0
H2759 H 0.28556 1.0085 0.79942 0.0
H2760 H 0.30423 0.97616 0.79391 0.0
H2761 H 0.27749 0.9398 0.86976 0.0
H2762 H 0.25745 0.91205 0.86499 0.0
H2763 H 0.24779 0.93842 0.86698 0.0
H2764 H 0.22156 0.92197 0.82363 0.0
H2765 H 0.23115 0.89555 0.82155 0.0
H2766 H 0.23323 0.91202 0.79662 0.0
H2767 H 0.31956 0.93921 0.79339 0.0
H2768 H 0.32805 0.9012 0.79519 0.0
H2769 H 0.2701 0.88141 0.83067 0.0
C2770 C 0.25257 0.97091 0.82821 0.0
C2771 C 0.26023 0.99221 0.81924 0.0
C2772 C 0.27902 0.9931 0.8067 0.0
C2773 C 0.28991 0.97453 0.80345 0.0
C2774 C 0.28205 0.95408 0.81236 0.0
C2775 C 0.26359 0.95197 0.82428 0.0
C2776 C 0.25828 0.92747 0.83116 0.0
C2777 C 0.26037 0.92956 0.85994 0.0
C2778 C 0.23464 0.91342 0.81743 0.0
C2779 C 0.27663 0.91632 0.82149 0.0
C2780 C 0.29024 0.93228 0.81094 0.0
C2781 C 0.30875 0.9267 0.80146 0.0
C2782 C 0.31353 0.90471 0.8026 0.0
C2783 C 0.29994 0.88735 0.81279 0.0
C2784 C 0.28097 0.89363 0.82234 0.0
H2785 H 0.30645 0.96548 0.03795 0.0
H2786 H 0.29389 1.00763 0.10436 0.0
H2787 H 0.32966 0.0364 0.10635 0.0
H2788 H 0.36148 0.97087 0.05981 0.0
H2789 H 0.37091 0.97189 0.03006 0.0
H2790 H 0.34235 0.95735 0.03044 0.0
H2791 H 0.32753 0.98333 1.00162 0.0
H2792 H 0.35615 0.99784 1.00086 0.0
H2793 H 0.33693 0.01457 0.01087 0.0
H2794 H 0.36975 0.05651 0.10577 0.0
H2795 H 0.40973 0.06738 0.10088 0.0
H2796 H 0.39543 1.01157 0.03527 0.0
C2797 C 0.31079 0.98114 0.05242 0.0
C2798 C 0.29736 0.9843 0.07096 0.0
C2799 C 0.30382 1.00491 0.08979 0.0
C2800 C 0.32413 0.02135 0.0911 0.0
C2801 C 0.33754 0.01707 0.07323 0.0
C2802 C 0.33093 0.99761 0.054 0.0
C2803 C 0.34932 0.99553 0.03887 0.0
C2804 C 0.35643 0.97257 0.03989 0.0
C2805 C 0.34204 0.99797 0.01143 0.0
C2806 C 0.36765 0.01633 0.05323 0.0
C2807 C 0.36054 0.02874 0.0728 0.0
C2808 C 0.37535 0.04731 0.09011 0.0
C2809 C 0.398 0.05325 0.08732 0.0
C2810 C 0.4055 0.04059 0.06743 0.0
C2811 C 0.39 0.02211 0.05011 0.0
H2812 H 0.9313 0.71214 0.84493 0.0
H2813 H 0.9384 0.70099 0.76608 0.0
H2814 H 0.91565 0.72905 0.75811 0.0
H2815 H 0.87214 0.71571 0.82984 0.0
H2816 H 0.87437 0.73649 0.85842 0.0
H2817 H 0.89143 0.71567 0.85793 0.0
H2818 H 0.92591 0.74916 0.87442 0.0
H2819 H 0.91056 0.77134 0.87283 0.0
H2820 H 0.93373 0.77099 0.85621 0.0
H2821 H 0.89103 0.75691 0.758 0.0
H2822 H 0.86669 0.7839 0.76609 0.0
H2823 H 0.87558 0.77801 0.8451 0.0
C2824 C 0.92832 0.71593 0.82611 0.0
C2825 C 0.93693 0.70468 0.80618 0.0
C2826 C 0.93208 0.70949 0.78163 0.0
C2827 C 0.91913 0.72537 0.77691 0.0
C2828 C 0.9108 0.73608 0.79686 0.0
C2829 C 0.91496 0.73142 0.82093 0.0
C2830 C 0.90275 0.7443 0.83855 0.0
C2831 C 0.88407 0.72701 0.84665 0.0
C2832 C 0.91919 0.75992 0.86183 0.0
C2833 C 0.89254 0.75822 0.82104 0.0
C2834 C 0.89683 0.75259 0.79689 0.0
C2835 C 0.88769 0.76162 0.77687 0.0
C2836 C 0.87379 0.77682 0.78159 0.0
C2837 C 0.86943 0.78318 0.80621 0.0
C2838 C 0.87901 0.77377 0.82618 0.0
H2839 H 0.86256 0.61554 1.00419 0.0
H2840 H 0.8118 0.58002 0.04168 0.0
H2841 H 0.83781 0.55731 0.05717 0.0
H2842 H 0.88883 0.56613 0.98765 0.0
H2843 H 0.91677 0.58516 0.99451 0.0
H2844 H 0.89289 0.5957 0.98286 0.0
H2845 H 0.90404 0.62964 0.02171 0.0
H2846 H 0.92776 0.6191 0.03361 0.0
H2847 H 0.90714 0.62323 0.0531 0.0
H2848 H 0.87028 0.54174 0.0723 0.0
H2849 H 0.90719 0.53359 0.08548 0.0
H2850 H 0.93734 0.58098 0.04007 0.0
C2851 C 0.8567 0.60235 0.01486 0.0
C2852 C 0.83517 0.59919 0.02148 0.0
C2853 C 0.82823 0.58246 0.03626 0.0
C2854 C 0.84284 0.56949 0.04511 0.0
C2855 C 0.8643 0.57359 0.03904 0.0
C2856 C 0.87121 0.58952 0.02417 0.0
C2857 C 0.89585 0.59234 0.02261 0.0
C2858 C 0.89875 0.58435 0.99528 0.0
C2859 C 0.90949 0.61757 0.03341 0.0
C2860 C 0.90179 0.5759 0.03937 0.0
C2861 C 0.8833 0.56506 0.04841 0.0
C2862 C 0.88486 0.54991 0.06514 0.0
C2863 C 0.90591 0.54558 0.07272 0.0
C2864 C 0.9251 0.55657 0.06373 0.0
C2865 C 0.9229 0.57191 0.04684 0.0
H2866 H 0.22683 0.1471 0.8412 0.0
H2867 H 0.28643 0.12041 0.83997 0.0
H2868 H 0.30801 0.15899 0.83504 0.0
H2869 H 0.23714 0.18175 0.79285 0.0
H2870 H 0.22608 0.20503 0.80711 0.0
H2871 H 0.21577 0.17585 0.81194 0.0
H2872 H 0.22605 0.19057 0.86033 0.0
H2873 H 0.23642 0.21979 0.85563 0.0
H2874 H 0.25449 0.20655 0.87446 0.0
H2875 H 0.32409 0.20316 0.83109 0.0
H2876 H 0.33101 0.24411 0.82496 0.0
H2877 H 0.26054 0.24185 0.82507 0.0
C2878 C 0.24452 0.14931 0.84019 0.0
C2879 C 0.25472 0.13005 0.84154 0.0
C2880 C 0.27788 0.1343 0.83935 0.0
C2881 C 0.2904 0.15646 0.83651 0.0
C2882 C 0.27983 0.17488 0.83528 0.0
C2883 C 0.25721 0.17133 0.83674 0.0
C2884 C 0.24945 0.19357 0.83362 0.0
C2885 C 0.23101 0.18876 0.80998 0.0
C2886 C 0.2411 0.20318 0.85743 0.0
C2887 C 0.2711 0.21031 0.83038 0.0
C2888 C 0.28858 0.1993 0.8317 0.0
C2889 C 0.31028 0.21158 0.82988 0.0
C2890 C 0.31417 0.23515 0.82644 0.0
C2891 C 0.29654 0.24689 0.82433 0.0
C2892 C 0.27464 0.23384 0.82642 0.0
H2893 H 0.44326 0.06796 0.34172 0.0
H2894 H 0.39358 0.09937 0.30534 0.0
H2895 H 0.36341 0.06502 0.30637 0.0
H2896 H 0.419 1.01046 0.30842 0.0
H2897 H 0.42597 0.99733 0.33512 0.0
H2898 H 0.44328 0.02489 0.33261 0.0
H2899 H 0.43751 0.04334 0.37684 0.0
H2900 H 0.42023 0.01581 0.37955 0.0
H2901 H 0.40931 0.04141 0.38293 0.0
H2902 H 0.33891 0.02672 0.31085 0.0
H2903 H 0.32226 0.98706 0.31738 0.0
H2904 H 0.38864 0.98158 0.35004 0.0
C2905 C 0.42604 0.0678 0.33413 0.0
C2906 C 0.42074 0.08636 0.32353 0.0
C2907 C 0.398 0.08531 0.31359 0.0
C2908 C 0.38077 0.06593 0.31413 0.0
C2909 C 0.38667 0.04788 0.32461 0.0
C2910 C 0.40877 0.04868 0.33438 0.0
C2911 C 0.41092 0.02682 0.34383 0.0
C2912 C 0.42566 1.01413 0.32911 0.0
C2913 C 0.42002 0.03217 0.37249 0.0
C2914 C 0.38655 1.01342 0.33769 0.0
C2915 C 0.37274 0.02585 0.32678 0.0
C2916 C 0.34953 0.01683 0.31941 0.0
C2917 C 0.34025 0.99442 0.32323 0.0
C2918 C 0.35427 0.98141 0.33405 0.0
C2919 C 0.37763 0.99112 0.34145 0.0
H2920 H 0.5455 0.37377 0.6978 0.0
H2921 H 0.58954 0.34302 0.65507 0.0
H2922 H 0.58587 0.36882 0.62462 0.0
H2923 H 0.50802 0.38123 0.64424 0.0
H2924 H 0.50475 0.40893 0.6594 0.0
H2925 H 0.51065 0.38802 0.67816 0.0
H2926 H 0.54572 0.4186 0.70479 0.0
H2927 H 0.53987 0.43963 0.68619 0.0
H2928 H 0.56701 0.43284 0.68908 0.0
H2929 H 0.57682 0.39685 0.59798 0.0
H2930 H 0.56455 0.42703 0.57787 0.0
H2931 H 0.52771 0.44171 0.63837 0.0
C2932 C 0.5544 0.37253 0.68207 0.0
C2933 C 0.56781 0.35628 0.6789 0.0
C2934 C 0.57921 0.35529 0.65804 0.0
C2935 C 0.57719 0.36985 0.64054 0.0
C2936 C 0.56381 0.38554 0.6441 0.0
C2937 C 0.55272 0.38716 0.66441 0.0
C2938 C 0.5397 0.40589 0.66383 0.0
C2939 C 0.51427 0.39538 0.66125 0.0
C2940 C 0.54861 0.4254 0.68737 0.0
C2941 C 0.54515 0.41439 0.63999 0.0
C2942 C 0.55901 0.40228 0.62892 0.0
C2943 C 0.56616 0.40664 0.60661 0.0
C2944 C 0.55918 0.424 0.59541 0.0
C2945 C 0.54531 0.43711 0.60653 0.0
C2946 C 0.53813 0.432 0.62914 0.0
H2947 H 0.49257 0.83963 0.38095 0.0
H2948 H 0.50935 0.85418 0.30954 0.0
H2949 H 0.46907 0.851 0.29325 0.0
H2950 H 0.43716 0.79915 0.35634 0.0
H2951 H 0.42417 0.81036 0.38163 0.0
H2952 H 0.45401 0.81213 0.38719 0.0
H2953 H 0.46225 0.85661 0.40282 0.0
H2954 H 0.43245 0.85493 0.39733 0.0
H2955 H 0.45103 0.87413 0.3827 0.0
H2956 H 0.42505 0.84523 0.28394 0.0
H2957 H 0.38434 0.84176 0.28469 0.0
H2958 H 0.39583 0.83457 0.36309 0.0
C2959 C 0.48777 0.84182 0.36173 0.0
C2960 C 0.50465 0.84673 0.34646 0.0
C2961 C 0.4972 0.85014 0.32171 0.0
C2962 C 0.47413 0.84835 0.31222 0.0
C2963 C 0.45803 0.84357 0.32766 0.0
C2964 C 0.46466 0.84068 0.3521 0.0
C2965 C 0.44418 0.8372 0.36537 0.0
C2966 C 0.43962 0.81329 0.37309 0.0
C2967 C 0.44769 0.85689 0.38842 0.0
C2968 C 0.42505 0.83839 0.34467 0.0
C2969 C 0.43332 0.84174 0.32289 0.0
C2970 C 0.41865 0.84278 0.30109 0.0
C2971 C 0.39532 0.84068 0.3016 0.0
C2972 C 0.38638 0.83796 0.32388 0.0
C2973 C 0.4018 0.83676 0.34565 0.0
H2974 H 0.04854 0.72066 0.22911 0.0
H2975 H 0.04262 0.75979 0.1688 0.0
H2976 H 0.04542 0.72642 0.1382 0.0
H2977 H 0.08848 0.69262 0.20832 0.0
H2978 H 0.07692 0.66467 0.21563 0.0
H2979 H 0.07215 0.69063 0.23319 0.0
H2980 H 0.02901 0.67321 0.22156 0.0
H2981 H 0.03368 0.64702 0.20423 0.0
H2982 H 1.01589 0.66276 0.18878 0.0
H2983 H 0.05504 0.69244 0.11542 0.0
H2984 H 0.06488 0.65599 0.09958 0.0
H2985 H 0.06099 0.63522 0.17196 0.0
C2986 C 0.04708 0.72189 0.20934 0.0
C2987 C 0.04537 0.74302 0.2015 0.0
C2988 C 0.04398 0.74397 0.17545 0.0
C2989 C 0.04559 0.72506 0.15781 0.0
C2990 C 0.0482 0.70495 0.16623 0.0
C2991 C 0.04839 0.70286 0.19118 0.0
C2992 C 0.05205 0.67918 0.19489 0.0
C2993 C 0.07369 0.68196 0.21415 0.0
C2994 C 0.03142 0.66468 0.20283 0.0
C2995 C 0.0545 0.66877 0.16832 0.0
C2996 C 0.05239 0.68419 0.15229 0.0
C2997 C 0.05603 0.67987 0.12753 0.0
C2998 C 0.06165 0.6591 0.11869 0.0
C2999 C 0.06308 0.64248 0.13424 0.0
C3000 C 0.05938 0.64734 0.15944 0.0
H3001 H 0.13624 0.30636 0.82729 0.0
H3002 H 0.15347 0.35778 0.89702 0.0
H3003 H 0.19385 0.36185 0.89588 0.0
H3004 H 0.18314 0.27929 0.83914 0.0
H3005 H 0.18814 0.27567 0.80709 0.0
H3006 H 0.16031 0.27607 0.81323 0.0
H3007 H 0.15964 0.30964 0.78889 0.0
H3008 H 0.18744 0.30925 0.78263 0.0
H3009 H 0.18207 0.33584 0.79801 0.0
H3010 H 0.23363 0.35892 0.88892 0.0
H3011 H 0.26829 0.35256 0.87427 0.0
H3012 H 0.22754 0.30605 0.80658 0.0
C3013 C 0.14847 0.3186 0.84228 0.0
C3014 C 0.14099 0.33176 0.86238 0.0
C3015 C 0.1581 0.3475 0.88133 0.0
C3016 C 0.18137 0.34989 0.88091 0.0
C3017 C 0.1881 0.33675 0.86111 0.0
C3018 C 0.17214 0.32165 0.84184 0.0
C3019 C 0.18426 0.31029 0.82232 0.0
C3020 C 0.17862 0.28375 0.82032 0.0
C3021 C 0.17797 0.31663 0.79642 0.0
C3022 C 0.20934 0.32122 0.83367 0.0
C3023 C 0.21106 0.33617 0.85632 0.0
C3024 C 0.2323 0.34747 0.87102 0.0
C3025 C 0.2521 0.3437 0.8625 0.0
C3026 C 0.25123 0.32907 0.839 0.0
C3027 C 0.22922 0.31771 0.82443 0.0
H3028 H 0.6407 0.81255 0.01915 0.0
H3029 H 0.57474 0.81912 0.98618 0.0
H3030 H 0.55679 0.785 1.0028 0.0
H3031 H 0.62739 0.74974 0.00638 0.0
H3032 H 0.64436 0.74827 0.0356 0.0
H3033 H 0.65187 0.77299 0.02082 0.0
H3034 H 0.65102 0.80061 0.06218 0.0
H3035 H 0.64345 0.77598 0.07705 0.0
H3036 H 0.62592 0.79632 0.07595 0.0
H3037 H 0.54612 0.75084 0.02423 0.0
H3038 H 0.54362 0.71815 0.04717 0.0
H3039 H 0.61664 0.73407 0.06555 0.0
C3040 C 0.62247 0.80678 0.0153 0.0
C3041 C 0.6091 0.81849 1.00137 0.0
C3042 C 0.58531 0.81037 0.99675 0.0
C3043 C 0.57497 0.79105 0.00616 0.0
C3044 C 0.58868 0.78004 0.02001 0.0
C3045 C 0.61192 0.78753 0.02442 0.0
C3046 C 0.62286 0.77269 0.03982 0.0
C3047 C 0.63748 0.76018 0.02475 0.0
C3048 C 0.63662 0.78728 0.06526 0.0
C3049 C 0.60213 0.75573 0.04351 0.0
C3050 C 0.58257 0.76027 0.03203 0.0
C3051 C 0.56132 0.74708 0.03324 0.0
C3052 C 0.56006 0.72867 0.04642 0.0
C3053 C 0.57993 0.7236 0.05807 0.0
C3054 C 0.60118 0.73738 0.05657 0.0
H3055 H 0.06691 0.74723 0.70889 0.0
H3056 H 0.0713 0.72011 0.63153 0.0
H3057 H 0.10858 0.71358 0.64631 0.0
H3058 H 0.12249 0.77948 0.72614 0.0
H3059 H 0.12626 0.77447 0.75809 0.0
H3060 H 0.09861 0.77364 0.74179 0.0
H3061 H 0.08381 0.73207 0.74995 0.0
H3062 H 0.11154 0.73272 0.76616 0.0
H3063 H 0.09746 0.7095 0.73979 0.0
H3064 H 0.14694 0.71348 0.66915 0.0
H3065 H 0.18376 0.72172 0.69774 0.0
H3066 H 0.1546 0.75066 0.75959 0.0
C3067 C 0.0755 0.7395 0.69508 0.0
C3068 C 0.06608 0.73401 0.66903 0.0
C3069 C 0.07814 0.72443 0.65156 0.0
C3070 C 0.09929 0.72052 0.65981 0.0
C3071 C 0.10824 0.72645 0.6856 0.0
C3072 C 0.09675 0.73582 0.70296 0.0
C3073 C 0.11095 0.74291 0.72924 0.0
C3074 C 0.11481 0.76918 0.73939 0.0
C3075 C 0.1003 0.72843 0.74735 0.0
C3076 C 0.13249 0.73674 0.72382 0.0
C3077 C 0.13048 0.72685 0.69866 0.0
C3078 C 0.14864 0.721 0.68896 0.0
C3079 C 0.16953 0.72587 0.7053 0.0
C3080 C 0.17213 0.73674 0.73099 0.0
C3081 C 0.15314 0.74176 0.7403 0.0
H3082 H 0.107 0.44629 0.51408 0.0
H3083 H 0.13378 0.43325 0.58685 0.0
H3084 H 0.12198 0.46709 0.60842 0.0
H3085 H 0.11879 0.51008 0.53104 0.0
H3086 H 0.09256 0.51087 0.51231 0.0
H3087 H 0.10631 0.48815 0.50297 0.0
H3088 H 0.06993 0.45702 0.50316 0.0
H3089 H 0.05611 0.47954 0.51272 0.0
H3090 H 0.05787 0.45755 0.53147 0.0
H3091 H 0.10556 0.50152 0.62152 0.0
H3092 H 0.08462 0.53242 0.62515 0.0
H3093 H 0.0655 0.51935 0.54346 0.0
C3094 C 0.11111 0.4512 0.53453 0.0
C3095 C 0.12201 0.43804 0.54898 0.0
C3096 C 0.12608 0.44385 0.57567 0.0
C3097 C 0.11933 0.46286 0.58797 0.0
C3098 C 0.10807 0.47528 0.57315 0.0
C3099 C 0.10389 0.46957 0.547 0.0
C3100 C 0.08956 0.48397 0.53539 0.0
C3101 C 0.10257 0.49916 0.51946 0.0
C3102 C 0.06704 0.46859 0.51977 0.0
C3103 C 0.08611 0.49857 0.55902 0.0
C3104 C 0.09719 0.49365 0.58065 0.0
C3105 C 0.09675 0.50543 0.60471 0.0
C3106 C 0.08479 0.52282 0.60661 0.0
C3107 C 0.07326 0.52785 0.5846 0.0
C3108 C 0.07385 0.51549 0.5606 0.0
H3109 H 0.45097 0.27376 0.24111 0.0
H3110 H 0.48994 0.32862 0.21047 0.0
H3111 H 0.48249 0.35818 0.24318 0.0
H3112 H 0.40887 0.30558 0.25773 0.0
H3113 H 0.40628 0.29325 0.28546 0.0
H3114 H 0.41333 0.27703 0.25825 0.0
H3115 H 0.448 0.27211 0.28686 0.0
H3116 H 0.44389 0.29027 0.31455 0.0
H3117 H 0.46981 0.29747 0.30301 0.0
H3118 H 0.47264 0.38165 0.28218 0.0
H3119 H 0.4588 0.39629 0.32066 0.0
H3120 H 0.42664 0.32527 0.32412 0.0
C3121 C 0.45755 0.29199 0.24087 0.0
C3122 C 0.47095 0.29886 0.22321 0.0
C3123 C 0.47939 0.32293 0.2237 0.0
C3124 C 0.4754 0.33986 0.24232 0.0
C3125 C 0.46279 0.3324 0.26012 0.0
C3126 C 0.4537 0.30902 0.25914 0.0
C3127 C 0.44105 0.30529 0.28043 0.0
C3128 C 0.41588 0.29462 0.26986 0.0
C3129 C 0.45127 0.29038 0.29716 0.0
C3130 C 0.44504 0.33008 0.29422 0.0
C3131 C 0.45742 0.34562 0.28222 0.0
C3132 C 0.46281 0.36956 0.29161 0.0
C3133 C 0.45489 0.37772 0.3135 0.0
C3134 C 0.44177 0.36196 0.32577 0.0
C3135 C 0.43707 0.33786 0.31585 0.0
H3136 H 0.64394 0.60681 0.41555 0.0
H3137 H 0.66814 0.5446 0.41901 0.0
H3138 H 0.64726 0.53695 0.45348 0.0
H3139 H 0.64725 0.62384 0.48414 0.0
H3140 H 0.6221 0.63452 0.48137 0.0
H3141 H 0.6386 0.63517 0.45658 0.0
H3142 H 0.60333 0.61164 0.42394 0.0
H3143 H 0.58677 0.61089 0.44867 0.0
H3144 H 0.58783 0.58413 0.42907 0.0
H3145 H 0.62246 0.5353 0.48866 0.0
H3146 H 0.59876 0.54128 0.52102 0.0
H3147 H 0.59081 0.60505 0.49727 0.0
C3148 C 0.64489 0.59153 0.42349 0.0
C3149 C 0.65807 0.57631 0.41384 0.0
C3150 C 0.65851 0.5567 0.42545 0.0
C3151 C 0.64652 0.55213 0.44528 0.0
C3152 C 0.63379 0.56729 0.45421 0.0
C3153 C 0.63304 0.58677 0.44377 0.0
C3154 C 0.61838 0.60051 0.45738 0.0
C3155 C 0.63242 0.62496 0.47065 0.0
C3156 C 0.59786 0.60188 0.43864 0.0
C3157 C 0.61098 0.58576 0.47687 0.0
C3158 C 0.62 0.56657 0.4746 0.0
C3159 C 0.61546 0.55038 0.49042 0.0
C3160 C 0.60177 0.55388 0.50894 0.0
C3161 C 0.59245 0.57356 0.51225 0.0
C3162 C 0.59729 0.58962 0.49557 0.0
H3163 H 0.26021 0.9158 0.16833 0.0
H3164 H 0.27571 0.86676 0.10978 0.0
H3165 H 0.29162 0.84773 0.14223 0.0
H3166 H 0.31003 0.9218 0.21447 0.0
H3167 H 0.29613 0.92292 0.24144 0.0
H3168 H 0.28514 0.93289 0.21383 0.0
H3169 H 0.24633 0.90444 0.2105 0.0
H3170 H 0.25714 0.89452 0.23823 0.0
H3171 H 0.24467 0.87389 0.2092 0.0
H3172 H 0.30723 0.83458 0.18018 0.0
H3173 H 0.31919 0.82584 0.22176 0.0
H3174 H 0.29362 0.88215 0.25771 0.0
C3175 C 0.26669 0.90088 0.16231 0.0
C3176 C 0.26659 0.89289 0.13621 0.0
C3177 C 0.27549 0.87338 0.12941 0.0
C3178 C 0.28467 0.86241 0.14779 0.0
C3179 C 0.28491 0.87094 0.17316 0.0
C3180 C 0.27599 0.88955 0.18057 0.0
C3181 C 0.2785 0.89496 0.20937 0.0
C3182 C 0.29333 0.91961 0.22042 0.0
C3183 C 0.25528 0.89176 0.21729 0.0
C3184 C 0.29029 0.87652 0.21682 0.0
C3185 C 0.29384 0.86302 0.19548 0.0
C3186 C 0.30446 0.84496 0.19703 0.0
C3187 C 0.31127 0.84019 0.2209 0.0
C3188 C 0.30747 0.85325 0.24328 0.0
C3189 C 0.29699 0.87191 0.24111 0.0
H3190 H 0.03768 0.60685 0.91447 0.0
H3191 H 1.01684 0.6704 0.93718 0.0
H3192 H 0.02679 0.6678 0.98197 0.0
H3193 H 1.01653 0.57732 0.96046 0.0
H3194 H 0.03951 0.56368 0.96625 0.0
H3195 H 0.0324 0.57125 0.93594 0.0
H3196 H 0.07336 0.59555 0.94028 0.0
H3197 H 0.08061 0.58799 0.97063 0.0
H3198 H 0.08559 0.61814 0.96783 0.0
H3199 H 0.03413 0.65578 0.02366 0.0
H3200 H 0.04173 0.63699 0.06007 0.0
H3201 H 0.06125 0.58298 0.01191 0.0
C3202 C 0.03562 0.62048 0.92888 0.0
C3203 C 0.02652 0.63893 0.92219 0.0
C3204 C 1.02389 0.65621 0.9417 0.0
C3205 C 0.02946 0.65485 0.96725 0.0
C3206 C 0.03796 0.63626 0.97317 0.0
C3207 C 0.04136 0.61953 0.9546 0.0
C3208 C 0.05012 0.60098 0.9662 0.0
C3209 C 0.03366 0.57689 0.95664 0.0
C3210 C 0.07383 0.60065 0.96092 0.0
C3211 C 0.05071 0.60969 0.99414 0.0
C3212 C 0.04344 0.63 0.99761 0.0
C3213 C 0.04043 0.64026 0.02127 0.0
C3214 C 0.04485 0.62951 0.04188 0.0
C3215 C 0.05277 0.60901 0.03901 0.0
C3216 C 0.05595 0.5991 0.01482 0.0
H3217 H 0.3276 0.21891 0.5546 0.0
H3218 H 0.34044 0.15689 0.57913 0.0
H3219 H 0.35473 0.17946 0.62255 0.0
H3220 H 0.3743 0.26399 0.60295 0.0
H3221 H 0.35566 0.28312 0.60623 0.0
H3222 H 0.35379 0.26458 0.57613 0.0
H3223 H 0.31131 0.24744 0.57515 0.0
H3224 H 0.31306 0.26569 0.60508 0.0
H3225 H 0.3028 0.2346 0.60117 0.0
H3226 H 0.35845 0.20524 0.66378 0.0
H3227 H 0.35004 0.2313 0.699 0.0
H3228 H 0.33316 0.27587 0.64768 0.0
C3229 C 0.33433 0.21027 0.56885 0.0
C3230 C 0.33295 0.18618 0.56352 0.0
C3231 C 0.34143 0.17539 0.58279 0.0
C3232 C 0.34973 0.18812 0.60748 0.0
C3233 C 0.34958 0.21161 0.61245 0.0
C3234 C 0.34227 0.22264 0.59354 0.0
C3235 C 0.33952 0.24646 0.60425 0.0
C3236 C 0.35686 0.26567 0.59696 0.0
C3237 C 0.31525 0.24863 0.59594 0.0
C3238 C 0.34468 0.24638 0.63218 0.0
C3239 C 0.35126 0.22653 0.63659 0.0
C3240 C 0.35392 0.22113 0.66065 0.0
C3241 C 0.34892 0.23591 0.68048 0.0
C3242 C 0.341 0.25558 0.67597 0.0
C3243 C 0.3398 0.26133 0.65178 0.0
H3244 H 0.65372 0.58523 0.27876 0.0
H3245 H 0.68118 0.52623 0.25578 0.0
H3246 H 0.66381 0.52369 0.21143 0.0
H3247 H 0.60019 0.56522 0.2324 0.0
H3248 H 0.60004 0.59395 0.22661 0.0
H3249 H 0.61332 0.5904 0.25695 0.0
H3250 H 0.65043 0.61797 0.25252 0.0
H3251 H 0.63731 0.62148 0.2221 0.0
H3252 H 0.66289 0.61156 0.22506 0.0
H3253 H 0.64486 0.52817 0.16891 0.0
H3254 H 0.62531 0.5387 0.13155 0.0
H3255 H 0.60966 0.59556 0.17993 0.0
C3256 C 0.65566 0.57143 0.26449 0.0
C3257 C 0.66874 0.55566 0.27125 0.0
C3258 C 0.67122 0.53839 0.25155 0.0
C3259 C 0.66141 0.53684 0.22612 0.0
C3260 C 0.64906 0.55279 0.2201 0.0
C3261 C 0.64605 0.56976 0.23869 0.0
C3262 C 0.63263 0.58522 0.22667 0.0
C3263 C 0.61021 0.5836 0.23623 0.0
C3264 C 0.64665 0.61056 0.2319 0.0
C3265 C 0.62862 0.57433 0.19848 0.0
C3266 C 0.63829 0.55561 0.19531 0.0
C3267 C 0.63719 0.54276 0.17127 0.0
C3268 C 0.62597 0.54899 0.14998 0.0
C3269 C 0.61572 0.56805 0.15228 0.0
C3270 C 0.61719 0.58089 0.17716 0.0
H3271 H 0.30338 0.89788 0.99822 0.0
H3272 H 0.23934 0.84762 0.98891 0.0
H3273 H 0.24618 0.82746 0.94834 0.0
H3274 H 0.29768 0.90236 0.93236 0.0
H3275 H 0.32739 0.90652 0.93197 0.0
H3276 H 0.31802 0.91578 0.96087 0.0
H3277 H 0.34034 0.89065 0.98351 0.0
H3278 H 0.34969 0.88123 0.95463 0.0
H3279 H 0.33518 0.86001 0.97059 0.0
H3280 H 0.26113 0.81214 0.90837 0.0
H3281 H 0.28036 0.8061 0.87159 0.0
H3282 H 0.33268 0.86856 0.90562 0.0
C3283 C 0.29091 0.88246 0.98778 0.0
C3284 C 0.27096 0.87407 0.99702 0.0
C3285 C 0.25479 0.85426 0.98236 0.0
C3286 C 0.2586 0.84267 0.95929 0.0
C3287 C 0.27845 0.85139 0.95069 0.0
C3288 C 0.29414 0.87112 0.96437 0.0
C3289 C 0.31331 0.87802 0.95026 0.0
C3290 C 0.31414 0.90209 0.94347 0.0
C3291 C 0.33597 0.87743 0.96567 0.0
C3292 C 0.30626 0.85891 0.92673 0.0
C3293 C 0.28623 0.84351 0.92735 0.0
C3294 C 0.27675 0.82423 0.90773 0.0
C3295 C 0.28783 0.82083 0.88694 0.0
C3296 C 0.30803 0.83679 0.88564 0.0
C3297 C 0.31725 0.85601 0.90595 0.0
H3298 H 0.9979 0.63927 0.75013 0.0
H3299 H 0.05322 0.63639 0.80741 0.0
H3300 H 0.07335 0.62356 0.77384 0.0
H3301 H 0.99894 0.58816 0.70734 0.0
H3302 H 0.99229 0.59946 0.67917 0.0
H3303 H 0.98261 0.60966 0.70755 0.0
H3304 H 1.00211 0.65215 0.70622 0.0
H3305 H 1.01171 0.64194 0.67777 0.0
H3306 H 0.03175 0.65964 0.70491 0.0
H3307 H 0.08686 0.60949 0.73399 0.0
H3308 H 0.09353 0.59701 0.69089 0.0
H3309 H 0.0293 0.60877 0.65947 0.0
C3310 C 1.01443 0.63637 0.75567 0.0
C3311 C 1.02405 0.63908 0.78153 0.0
C3312 C 0.04553 0.6346 0.78782 0.0
C3313 C 0.05708 0.62722 0.76886 0.0
C3314 C 0.0469 0.62424 0.74362 0.0
C3315 C 0.0261 0.62876 0.73698 0.0
C3316 C 1.01865 0.62357 0.70844 0.0
C3317 C 0.99683 0.60405 0.70015 0.0
C3318 C 1.01589 0.64566 0.69877 0.0
C3319 C 0.03856 0.61558 0.70009 0.0
C3320 C 0.05463 0.61599 0.72067 0.0
C3321 C 0.07441 0.60916 0.71773 0.0
C3322 C 0.078 0.60199 0.69312 0.0
C3323 C 0.06194 0.60176 0.67167 0.0
C3324 C 0.04192 0.6086 0.67538 0.0
H3325 H 0.29856 0.19546 0.41842 0.0
H3326 H 0.27873 0.23913 0.47835 0.0
H3327 H 0.28318 0.27106 0.45453 0.0
H3328 H 0.34049 0.24047 0.40368 0.0
H3329 H 0.33369 0.22914 0.3701 0.0
H3330 H 0.32911 0.20969 0.39195 0.0
H3331 H 0.2871 0.19444 0.37023 0.0
H3332 H 0.29162 0.21369 0.3482 0.0
H3333 H 0.26988 0.21485 0.36687 0.0
H3334 H 0.29058 0.2986 0.42449 0.0
H3335 H 0.29751 0.31836 0.38855 0.0
H3336 H 0.31157 0.25619 0.34856 0.0
C3337 C 0.29508 0.2117 0.42649 0.0
C3338 C 0.28833 0.21484 0.4502 0.0
C3339 C 0.28388 0.23634 0.46014 0.0
C3340 C 0.28645 0.25462 0.44684 0.0
C3341 C 0.29339 0.25106 0.42364 0.0
C3342 C 0.29745 0.23008 0.41344 0.0
C3343 C 0.30427 0.23056 0.38794 0.0
C3344 C 0.32832 0.22728 0.38846 0.0
C3345 C 0.28719 0.2123 0.36708 0.0
C3346 C 0.30327 0.25501 0.38534 0.0
C3347 C 0.2972 0.2667 0.4062 0.0
C3348 C 0.29527 0.28962 0.408 0.0
C3349 C 0.29929 0.30071 0.38764 0.0
C3350 C 0.30487 0.28865 0.36591 0.0
C3351 C 0.30714 0.2657 0.36494 0.0
H3352 H 0.42821 0.65323 0.59356 0.0
H3353 H 0.44857 0.70364 0.5469 0.0
H3354 H 0.47773 0.68376 0.53531 0.0
H3355 H 0.48396 0.64685 0.61677 0.0
H3356 H 0.47459 0.61603 0.61566 0.0
H3357 H 0.45557 0.63447 0.62054 0.0
H3358 H 0.42692 0.60828 0.58192 0.0
H3359 H 0.44618 0.59011 0.57686 0.0
H3360 H 0.43554 0.60327 0.55166 0.0
H3361 H 0.50589 0.65972 0.53025 0.0
H3362 H 0.53124 0.63309 0.53231 0.0
H3363 H 0.49163 0.59648 0.57987 0.0
C3364 C 0.43889 0.66018 0.58102 0.0
C3365 C 0.43612 0.68017 0.57125 0.0
C3366 C 0.45034 0.68847 0.5547 0.0
C3367 C 0.46694 0.67723 0.54794 0.0
C3368 C 0.46907 0.65749 0.55765 0.0
C3369 C 0.45545 0.64898 0.57384 0.0
C3370 C 0.46134 0.62741 0.58156 0.0
C3371 C 0.46935 0.63146 0.61034 0.0
C3372 C 0.4413 0.606 0.57245 0.0
C3373 C 0.48053 0.62531 0.56737 0.0
C3374 C 0.4847 0.6429 0.55373 0.0
C3375 C 0.50251 0.64562 0.54045 0.0
C3376 C 0.51673 0.63034 0.54155 0.0
C3377 C 0.51287 0.61224 0.5554 0.0
C3378 C 0.49433 0.60952 0.5682 0.0
H3379 H 0.91696 1.00967 0.61383 0.0
H3380 H 0.93551 0.06647 0.67906 0.0
H3381 H 0.97302 0.07889 0.66789 0.0
H3382 H 0.96931 0.99515 0.61922 0.0
H3383 H 0.96867 0.98836 0.58564 0.0
H3384 H 0.9427 0.9849 0.59761 0.0
H3385 H 0.92939 1.01206 0.56931 0.0
H3386 H 0.95531 0.01554 0.55715 0.0
H3387 H 0.94698 0.04079 0.57142 0.0
H3388 H 1.00911 0.08349 0.65139 0.0
H3389 H 0.04128 0.08054 0.62989 0.0
H3390 H 0.99889 0.021 0.57531 0.0
C3391 C 0.92876 0.02492 0.6256 0.0
C3392 C 0.92328 0.03716 0.64728 0.0
C3393 C 0.9393 0.0569 0.66229 0.0
C3394 C 0.96064 0.06408 0.65612 0.0
C3395 C 0.96557 0.0514 0.63484 0.0
C3396 C 0.95007 0.03233 0.61973 0.0
C3397 C 0.95987 0.02116 0.59847 0.0
C3398 C 0.96015 0.9959 0.60037 0.0
C3399 C 0.94713 0.02248 0.57255 0.0
C3400 C 0.98343 0.03678 0.60419 0.0
C3401 C 0.98637 0.05414 0.62521 0.0
C3402 C 1.00698 0.07012 0.63477 0.0
C3403 C 1.02512 0.06826 0.6225 0.0
C3404 C 1.02241 0.05056 0.601 0.0
C3405 C 1.00129 0.03478 0.59163 0.0
H3406 H 0.91022 0.17708 0.32084 0.0
H3407 H 0.85455 0.1319 0.26507 0.0
H3408 H 0.83532 0.16384 0.26558 0.0
H3409 H 0.87665 0.20979 0.35651 0.0
H3410 H 0.89652 0.23769 0.3616 0.0
H3411 H 0.90627 0.21135 0.35785 0.0
H3412 H 0.92529 0.22346 0.32112 0.0
H3413 H 0.91561 0.24984 0.32481 0.0
H3414 H 0.90875 0.23027 0.29456 0.0
H3415 H 0.82049 0.20113 0.27254 0.0
H3416 H 0.81294 0.23973 0.28288 0.0
H3417 H 0.87812 0.26483 0.33265 0.0
C3418 C 0.89392 0.17376 0.30876 0.0
C3419 C 0.88416 0.15096 0.29293 0.0
C3420 C 0.86283 0.14844 0.27745 0.0
C3421 C 0.85157 0.16679 0.27764 0.0
C3422 C 0.8615 0.18867 0.29321 0.0
C3423 C 0.88238 0.19242 0.30837 0.0
C3424 C 0.88935 0.21816 0.32266 0.0
C3425 C 0.89239 0.21932 0.35137 0.0
C3426 C 0.91105 0.23121 0.31536 0.0
C3427 C 0.86919 0.22814 0.31338 0.0
C3428 C 0.8533 0.21053 0.2965 0.0
C3429 C 0.83304 0.21488 0.28566 0.0
C3430 C 0.82882 0.23728 0.29184 0.0
C3431 C 0.84458 0.25634 0.30876 0.0
C3432 C 0.86533 0.25126 0.3196 0.0
H3433 H 0.79369 0.18897 0.04066 0.0
H3434 H 0.83492 0.14474 0.06786 0.0
H3435 H 0.80063 0.11627 0.07123 0.0
H3436 H 0.75896 0.18328 0.08257 0.0
H3437 H 0.73345 0.18316 0.06182 0.0
H3438 H 0.76032 0.19737 0.0557 0.0
H3439 H 0.75122 0.17213 0.01056 0.0
H3440 H 0.72406 0.15801 0.01639 0.0
H3441 H 0.74297 0.14086 0.00644 0.0
H3442 H 0.76339 0.09693 0.07982 0.0
H3443 H 0.72535 0.08706 0.09067 0.0
H3444 H 0.70854 0.14376 0.05782 0.0
C3445 C 0.7955 0.17288 0.04637 0.0
C3446 C 0.81697 0.16906 0.05394 0.0
C3447 C 0.81862 0.14801 0.06187 0.0
C3448 C 0.79924 0.13169 0.06378 0.0
C3449 C 0.77837 0.13658 0.05741 0.0
C3450 C 0.77635 0.15651 0.04849 0.0
C3451 C 0.75242 0.15918 0.04602 0.0
C3452 C 0.75124 0.18209 0.06252 0.0
C3453 C 0.74206 0.15743 0.01819 0.0
C3454 C 0.74154 0.13824 0.05607 0.0
C3455 C 0.75669 0.12522 0.06222 0.0
C3456 C 0.75118 0.10657 0.07444 0.0
C3457 C 0.72967 0.10119 0.08069 0.0
C3458 C 0.71407 0.11448 0.07471 0.0
C3459 C 0.71998 0.13292 0.06187 0.0
H3460 H 0.21951 0.4484 0.2964 0.0
H3461 H 0.21292 0.46309 0.37525 0.0
H3462 H 0.2353 0.43499 0.38466 0.0
H3463 H 0.21467 0.38558 0.29222 0.0
H3464 H 0.23435 0.3859 0.27062 0.0
H3465 H 0.21722 0.40654 0.27173 0.0
H3466 H 0.25468 0.43905 0.27935 0.0
H3467 H 0.27117 0.41777 0.28011 0.0
H3468 H 0.276 0.44151 0.3066 0.0
H3469 H 0.26119 0.40778 0.38619 0.0
H3470 H 0.28452 0.37956 0.37871 0.0
H3471 H 0.27123 0.3794 0.29831 0.0
C3472 C 0.22264 0.44558 0.31562 0.0
C3473 C 0.21448 0.45804 0.33513 0.0
C3474 C 0.21888 0.45373 0.35998 0.0
C3475 C 0.23172 0.4379 0.36554 0.0
C3476 C 0.23981 0.4262 0.34599 0.0
C3477 C 0.23506 0.42946 0.32142 0.0
C3478 C 0.24522 0.41415 0.30378 0.0
C3479 C 0.22675 0.397 0.28341 0.0
C3480 C 0.26281 0.42901 0.29176 0.0
C3481 C 0.25633 0.40168 0.32225 0.0
C3482 C 0.25346 0.40933 0.3466 0.0
C3483 C 0.26336 0.4015 0.36717 0.0
C3484 C 0.27656 0.38547 0.36276 0.0
C3485 C 0.27924 0.37692 0.33792 0.0
C3486 C 0.26889 0.38511 0.31742 0.0
H3487 H 0.31029 0.56666 0.18906 0.0
H3488 H 0.31532 0.5211 0.12084 0.0
H3489 H 0.28157 0.52942 0.0981 0.0
H3490 H 0.24963 0.55026 0.18029 0.0
H3491 H 0.24725 0.57914 0.19258 0.0
H3492 H 0.27215 0.56995 0.20356 0.0
H3493 H 0.29706 0.60536 0.19075 0.0
H3494 H 0.27224 0.61468 0.17973 0.0
H3495 H 0.29156 0.60991 0.15872 0.0
H3496 H 0.24793 0.54285 0.08251 0.0
H3497 H 0.21506 0.55967 0.07537 0.0
H3498 H 0.23112 0.59589 0.1537 0.0
C3499 C 0.30431 0.55853 0.16933 0.0
C3500 C 0.31542 0.54331 0.15669 0.0
C3501 C 0.30702 0.53279 0.13092 0.0
C3502 C 0.28789 0.53743 0.1178 0.0
C3503 C 0.27731 0.55248 0.13078 0.0
C3504 C 0.28508 0.56279 0.15597 0.0
C3505 C 0.27022 0.57794 0.1655 0.0
C3506 C 0.25916 0.56876 0.18674 0.0
C3507 C 0.28357 0.60349 0.17418 0.0
C3508 C 0.25303 0.57464 0.14164 0.0
C3509 C 0.25752 0.55995 0.12184 0.0
C3510 C 0.2442 0.55439 0.09783 0.0
C3511 C 0.22569 0.56411 0.09391 0.0
C3512 C 0.2207 0.5791 0.11395 0.0
C3513 C 0.23453 0.58436 0.13811 0.0
H3514 H 0.91467 1.00324 0.32119 0.0
H3515 H 0.85595 0.02228 0.28549 0.0
H3516 H 0.83257 0.98297 0.28602 0.0
H3517 H 0.9002 0.94313 0.28809 0.0
H3518 H 0.9113 0.93239 0.31507 0.0
H3519 H 0.92294 0.96183 0.31187 0.0
H3520 H 0.91503 0.97723 0.3559 0.0
H3521 H 0.90338 0.94785 0.35926 0.0
H3522 H 0.88686 0.96911 0.36237 0.0
H3523 H 0.81486 0.9385 0.29095 0.0
H3524 H 0.80644 0.89823 0.29942 0.0
H3525 H 0.87679 0.90829 0.33181 0.0
C3526 C 0.89686 0.99941 0.31342 0.0
C3527 C 0.88757 0.01679 0.30326 0.0
C3528 C 0.86399 1.01004 0.29345 0.0
C3529 C 0.85043 0.98741 0.29369 0.0
C3530 C 0.86024 0.9709 0.30381 0.0
C3531 C 0.88309 0.97685 0.31352 0.0
C3532 C 0.8899 0.95625 0.32336 0.0
C3533 C 0.90711 0.94791 0.30873 0.0
C3534 C 0.89936 0.96302 0.35192 0.0
C3535 C 0.86749 0.93761 0.31786 0.0
C3536 C 0.85046 0.94628 0.30653 0.0
C3537 C 0.82835 0.93195 0.29982 0.0
C3538 C 0.8236 0.90877 0.30474 0.0
C3539 C 0.84068 0.89928 0.3164 0.0
C3540 C 0.86301 0.9144 0.32289 0.0
H3541 H 0.73168 0.06989 0.81224 0.0
H3542 H 0.70942 0.09406 0.88146 0.0
H3543 H 0.73412 0.13322 0.88467 0.0
H3544 H 0.79052 0.10713 0.82813 0.0
H3545 H 0.78972 0.11196 0.79619 0.0
H3546 H 0.77373 0.08499 0.80202 0.0
H3547 H 0.73742 0.09169 0.77732 0.0
H3548 H 0.75318 0.11874 0.77167 0.0
H3549 H 0.72908 0.11823 0.78695 0.0
H3550 H 0.75753 0.17056 0.87754 0.0
H3551 H 0.77682 0.2034 0.86005 0.0
H3552 H 0.78277 0.15486 0.79477 0.0
C3553 C 0.73263 0.08318 0.82858 0.0
C3554 C 0.71895 0.0789 0.84684 0.0
C3555 C 0.71997 0.09697 0.86742 0.0
C3556 C 0.73398 0.11922 0.86942 0.0
C3557 C 0.74672 0.12307 0.85061 0.0
C3558 C 0.74618 0.10552 0.83059 0.0
C3559 C 0.75921 0.11474 0.81126 0.0
C3560 C 0.7795 0.10407 0.8093 0.0
C3561 C 0.7438 0.11061 0.78528 0.0
C3562 C 0.76671 0.14031 0.82321 0.0
C3563 C 0.75967 0.14473 0.84609 0.0
C3564 C 0.76347 0.16728 0.85986 0.0
C3565 C 0.7745 0.1858 0.84982 0.0
C3566 C 0.78137 0.18165 0.8261 0.0
C3567 C 0.7777 0.15856 0.81293 0.0
loop_
_geom_bond_atom_site_label_1
_geom_bond_atom_site_label_2
_geom_bond_distance
_geom_bond_site_symmetry_2
_ccdc_geom_bond_type
O0 Cd1 2.223 . S
O0 C8 1.315 . S
Cd1 O0 2.223 . S
Cd1 O4 2.297 . S
Cd1 O5 2.439 . S
Cd1 O11 2.240 . S
Cd2 O3 2.240 . S
Cd2 O10 2.223 . S
Cd2 O12 2.297 . S
Cd2 O13 2.439 . S
O3 Cd2 2.240 . S
O3 C8 1.279 . S
O4 Cd1 2.297 . S
O4 C6 1.247 . S
O5 Cd1 2.439 . S
O5 C6 1.208 . S
C6 O4 1.247 . S
C6 O5 1.208 . S
C7 O12 1.247 . S
C7 O13 1.208 . S
C8 O0 1.315 . S
C8 O3 1.279 . S
C9 O10 1.315 . S
C9 O11 1.279 . S
O10 Cd2 2.223 . S
O10 C9 1.315 . S
O11 Cd1 2.240 . S
O11 C9 1.279 . S
O12 Cd2 2.297 . S
O12 C7 1.247 . S
O13 Cd2 2.439 . S
O13 C7 1.208 . S
O14 Cd15 2.224 1_455 S
O14 C22 1.315 1_455 S
Cd15 O14 2.224 1_655 S
Cd15 O18 2.297 . S
Cd15 O19 2.439 . S
Cd15 O25 2.240 1_655 S
Cd16 O17 2.240 1_455 S
Cd16 O24 2.223 . S
Cd16 O26 2.297 . S
Cd16 O27 2.439 1_455 S
O17 Cd16 2.240 1_655 S
O17 C22 1.279 . S
O18 Cd15 2.297 . S
O18 C20 1.247 . S
O19 Cd15 2.439 . S
O19 C20 1.208 . S
C20 O18 1.247 . S
C20 O19 1.208 . S
C21 O26 1.247 . S
C21 O27 1.208 1_455 S
C22 O14 1.315 1_655 S
C22 O17 1.279 . S
C23 O24 1.315 . S
C23 O25 1.279 . S
O24 Cd16 2.223 . S
O24 C23 1.315 . S
O25 Cd15 2.240 1_455 S
O25 C23 1.279 . S
O26 Cd16 2.297 . S
O26 C21 1.247 . S
O27 Cd16 2.439 1_655 S
O27 C21 1.208 1_655 S
O28 Cd29 2.223 . S
O28 C36 1.315 1_554 S
Cd29 O28 2.223 . S
Cd29 O32 2.297 . S
Cd29 O33 2.439 . S
Cd29 O39 2.240 . S
Cd30 O31 2.240 . S
Cd30 O38 2.223 . S
Cd30 O40 2.297 . S
Cd30 O41 2.439 . S
O31 Cd30 2.240 . S
O31 C36 1.279 . S
O32 Cd29 2.297 . S
O32 C34 1.247 . S
O33 Cd29 2.439 . S
O33 C34 1.208 . S
C34 O32 1.247 . S
C34 O33 1.208 . S
C35 O40 1.247 . S
C35 O41 1.208 . S
C36 O28 1.315 1_556 S
C36 O31 1.279 . S
C37 O38 1.315 1_554 S
C37 O39 1.279 . S
O38 Cd30 2.223 . S
O38 C37 1.315 1_556 S
O39 Cd29 2.240 . S
O39 C37 1.279 . S
O40 Cd30 2.297 . S
O40 C35 1.247 . S
O41 Cd30 2.439 . S
O41 C35 1.208 . S
O42 Cd43 2.223 . S
O42 C50 1.315 . S
Cd43 O42 2.223 . S
Cd43 O46 2.297 . S
Cd43 O47 2.439 . S
Cd43 O53 2.240 . S
Cd44 O45 2.240 . S
Cd44 O52 2.223 . S
Cd44 O54 2.297 . S
Cd44 O55 2.439 . S
O45 Cd44 2.240 . S
O45 C50 1.279 . S
O46 Cd43 2.297 . S
O46 C48 1.247 . S
O47 Cd43 2.439 . S
O47 C48 1.208 . S
C48 O46 1.247 . S
C48 O47 1.208 . S
C49 O54 1.247 . S
C49 O55 1.208 . S
C50 O42 1.315 . S
C50 O45 1.279 . S
C51 O52 1.315 . S
C51 O53 1.279 . S
O52 Cd44 2.223 . S
O52 C51 1.315 . S
O53 Cd43 2.240 . S
O53 C51 1.279 . S
O54 Cd44 2.297 . S
O54 C49 1.247 . S
O55 Cd44 2.439 . S
O55 C49 1.208 . S
O56 Cd57 2.223 . S
O56 C64 1.315 . S
Cd57 O56 2.223 . S
Cd57 O60 2.297 . S
Cd57 O61 2.439 . S
Cd57 O67 2.240 . S
Cd58 O59 2.240 . S
Cd58 O66 2.223 . S
Cd58 O68 2.297 . S
Cd58 O69 2.439 . S
O59 Cd58 2.240 . S
O59 C64 1.279 . S
O60 Cd57 2.297 . S
O60 C62 1.247 1_455 S
O61 Cd57 2.439 . S
O61 C62 1.208 1_455 S
C62 O60 1.247 1_655 S
C62 O61 1.208 1_655 S
C63 O68 1.247 . S
C63 O69 1.208 . S
C64 O56 1.315 . S
C64 O59 1.279 . S
C65 O66 1.315 . S
C65 O67 1.279 . S
O66 Cd58 2.223 . S
O66 C65 1.315 . S
O67 Cd57 2.240 . S
O67 C65 1.279 . S
O68 Cd58 2.297 . S
O68 C63 1.247 . S
O69 Cd58 2.439 . S
O69 C63 1.208 . S
O70 Cd71 2.223 . S
O70 C78 1.315 . S
Cd71 O70 2.223 . S
Cd71 O74 2.297 . S
Cd71 O75 2.439 . S
Cd71 O81 2.240 . S
Cd72 O73 2.240 . S
Cd72 O80 2.223 . S
Cd72 O82 2.297 . S
Cd72 O83 2.439 . S
O73 Cd72 2.240 . S
O73 C78 1.279 . S
O74 Cd71 2.297 . S
O74 C76 1.247 . S
O75 Cd71 2.439 . S
O75 C76 1.208 . S
C76 O74 1.247 . S
C76 O75 1.208 . S
C77 O82 1.247 . S
C77 O83 1.208 . S
C78 O70 1.315 . S
C78 O73 1.279 . S
C79 O80 1.315 . S
C79 O81 1.279 . S
O80 Cd72 2.223 . S
O80 C79 1.315 . S
O81 Cd71 2.240 . S
O81 C79 1.279 . S
O82 Cd72 2.297 . S
O82 C77 1.247 . S
O83 Cd72 2.439 . S
O83 C77 1.208 . S
O84 Cd85 2.223 . S
O84 C92 1.315 . S
Cd85 O84 2.223 . S
Cd85 O88 2.297 . S
Cd85 O89 2.439 . S
Cd85 O95 2.240 . S
Cd86 O87 2.240 . S
Cd86 O94 2.223 . S
Cd86 O96 2.297 . S
Cd86 O97 2.439 . S
O87 Cd86 2.240 . S
O87 C92 1.279 . S
O88 Cd85 2.297 . S
O88 C90 1.247 . S
O89 Cd85 2.439 . S
O89 C90 1.208 . S
C90 O88 1.247 . S
C90 O89 1.208 . S
C91 O96 1.247 . S
C91 O97 1.208 . S
C92 O84 1.315 . S
C92 O87 1.279 . S
C93 O94 1.315 . S
C93 O95 1.279 . S
O94 Cd86 2.223 . S
O94 C93 1.315 . S
O95 Cd85 2.240 . S
O95 C93 1.279 . S
O96 Cd86 2.297 . S
O96 C91 1.247 . S
O97 Cd86 2.439 . S
O97 C91 1.208 . S
O98 Cd99 2.223 . S
O98 C106 1.315 . S
Cd99 O98 2.223 . S
Cd99 O102 2.297 . S
Cd99 O103 2.439 . S
Cd99 O109 2.240 . S
Cd100 O101 2.240 . S
Cd100 O108 2.223 . S
Cd100 O110 2.297 . S
Cd100 O111 2.439 . S
O101 Cd100 2.240 . S
O101 C106 1.279 . S
O102 Cd99 2.297 . S
O102 C104 1.247 . S
O103 Cd99 2.439 . S
O103 C104 1.208 . S
C104 O102 1.247 . S
C104 O103 1.208 . S
C105 O110 1.247 . S
C105 O111 1.208 . S
C106 O98 1.315 . S
C106 O101 1.279 . S
C107 O108 1.315 . S
C107 O109 1.279 . S
O108 Cd100 2.223 . S
O108 C107 1.315 . S
O109 Cd99 2.240 . S
O109 C107 1.279 . S
O110 Cd100 2.297 . S
O110 C105 1.247 . S
O111 Cd100 2.439 . S
O111 C105 1.208 . S
O112 Cd113 2.223 . S
O112 C120 1.315 . S
Cd113 O112 2.223 . S
Cd113 O116 2.297 . S
Cd113 O117 2.439 . S
Cd113 O123 2.240 . S
Cd114 O115 2.240 . S
Cd114 O122 2.223 . S
Cd114 O124 2.297 . S
Cd114 O125 2.439 . S
O115 Cd114 2.240 . S
O115 C120 1.279 . S
O116 Cd113 2.297 . S
O116 C118 1.247 . S
O117 Cd113 2.439 . S
O117 C118 1.208 . S
C118 O116 1.247 . S
C118 O117 1.208 . S
C119 O124 1.247 . S
C119 O125 1.208 . S
C120 O112 1.315 . S
C120 O115 1.279 . S
C121 O122 1.315 . S
C121 O123 1.279 . S
O122 Cd114 2.223 . S
O122 C121 1.315 . S
O123 Cd113 2.240 . S
O123 C121 1.279 . S
O124 Cd114 2.297 . S
O124 C119 1.247 . S
O125 Cd114 2.439 . S
O125 C119 1.208 . S
O126 Cd127 2.223 . S
O126 C134 1.315 . S
Cd127 O126 2.223 . S
Cd127 O130 2.297 . S
Cd127 O131 2.439 . S
Cd127 O137 2.240 . S
Cd128 O129 2.240 . S
Cd128 O136 2.223 . S
Cd128 O138 2.297 . S
Cd128 O139 2.439 . S
O129 Cd128 2.240 . S
O129 C134 1.279 . S
O130 Cd127 2.297 . S
O130 C132 1.247 . S
O131 Cd127 2.439 . S
O131 C132 1.208 . S
C132 O130 1.247 . S
C132 O131 1.208 . S
C133 O138 1.247 . S
C133 O139 1.208 . S
C134 O126 1.315 . S
C134 O129 1.279 . S
C135 O136 1.315 . S
C135 O137 1.279 . S
O136 Cd128 2.223 . S
O136 C135 1.315 . S
O137 Cd127 2.240 . S
O137 C135 1.279 . S
O138 Cd128 2.297 . S
O138 C133 1.247 . S
O139 Cd128 2.439 . S
O139 C133 1.208 . S
O140 Cd141 2.223 . S
O140 C148 1.315 . S
Cd141 O140 2.223 . S
Cd141 O144 2.297 1_545 S
Cd141 O145 2.439 1_545 S
Cd141 O151 2.240 . S
Cd142 O143 2.240 . S
Cd142 O150 2.223 . S
Cd142 O152 2.297 . S
Cd142 O153 2.439 . S
O143 Cd142 2.240 . S
O143 C148 1.279 . S
O144 Cd141 2.297 1_565 S
O144 C146 1.247 . S
O145 Cd141 2.439 1_565 S
O145 C146 1.208 . S
C146 O144 1.247 . S
C146 O145 1.208 . S
C147 O152 1.247 . S
C147 O153 1.208 . S
C148 O140 1.315 . S
C148 O143 1.279 . S
C149 O150 1.315 . S
C149 O151 1.279 . S
O150 Cd142 2.223 . S
O150 C149 1.315 . S
O151 Cd141 2.240 . S
O151 C149 1.279 . S
O152 Cd142 2.297 . S
O152 C147 1.247 . S
O153 Cd142 2.439 . S
O153 C147 1.208 . S
O154 Cd155 2.223 . S
O154 C162 1.315 . S
Cd155 O154 2.223 . S
Cd155 O158 2.297 . S
Cd155 O159 2.439 . S
Cd155 O165 2.240 . S
Cd156 O157 2.240 . S
Cd156 O164 2.223 . S
Cd156 O166 2.297 . S
Cd156 O167 2.439 . S
O157 Cd156 2.240 . S
O157 C162 1.279 . S
O158 Cd155 2.297 . S
O158 C160 1.247 . S
O159 Cd155 2.439 . S
O159 C160 1.208 . S
C160 O158 1.247 . S
C160 O159 1.208 . S
C161 O166 1.247 . S
C161 O167 1.208 . S
C162 O154 1.315 . S
C162 O157 1.279 . S
C163 O164 1.315 . S
C163 O165 1.279 . S
O164 Cd156 2.223 . S
O164 C163 1.315 . S
O165 Cd155 2.240 . S
O165 C163 1.279 . S
O166 Cd156 2.297 . S
O166 C161 1.247 . S
O167 Cd156 2.439 . S
O167 C161 1.208 . S
O168 Cd169 2.223 . S
O168 C176 1.315 . S
Cd169 O168 2.223 . S
Cd169 O172 2.297 . S
Cd169 O173 2.439 . S
Cd169 O179 2.240 . S
Cd170 O171 2.240 . S
Cd170 O178 2.223 . S
Cd170 O180 2.297 . S
Cd170 O181 2.439 . S
O171 Cd170 2.240 . S
O171 C176 1.279 . S
O172 Cd169 2.297 . S
O172 C174 1.247 . S
O173 Cd169 2.439 . S
O173 C174 1.208 . S
C174 O172 1.247 . S
C174 O173 1.208 . S
C175 O180 1.247 . S
C175 O181 1.208 . S
C176 O168 1.315 . S
C176 O171 1.279 . S
C177 O178 1.315 . S
C177 O179 1.279 . S
O178 Cd170 2.223 . S
O178 C177 1.315 . S
O179 Cd169 2.240 . S
O179 C177 1.279 . S
O180 Cd170 2.297 . S
O180 C175 1.247 . S
O181 Cd170 2.439 . S
O181 C175 1.208 . S
O182 Cd183 2.223 . S
O182 C190 1.315 . S
Cd183 O182 2.223 . S
Cd183 O186 2.297 . S
Cd183 O187 2.439 . S
Cd183 O193 2.240 . S
Cd184 O185 2.240 . S
Cd184 O192 2.223 . S
Cd184 O194 2.297 . S
Cd184 O195 2.439 . S
O185 Cd184 2.240 . S
O185 C190 1.279 . S
O186 Cd183 2.297 . S
O186 C188 1.247 . S
O187 Cd183 2.439 . S
O187 C188 1.208 . S
C188 O186 1.247 . S
C188 O187 1.208 . S
C189 O194 1.247 . S
C189 O195 1.208 . S
C190 O182 1.315 . S
C190 O185 1.279 . S
C191 O192 1.315 . S
C191 O193 1.279 . S
O192 Cd184 2.223 . S
O192 C191 1.315 . S
O193 Cd183 2.240 . S
O193 C191 1.279 . S
O194 Cd184 2.297 . S
O194 C189 1.247 . S
O195 Cd184 2.439 . S
O195 C189 1.208 . S
O196 Cd197 2.223 . S
O196 C204 1.315 . S
Cd197 O196 2.223 . S
Cd197 O200 2.297 . S
Cd197 O201 2.439 . S
Cd197 O207 2.240 . S
Cd198 O199 2.240 . S
Cd198 O206 2.223 . S
Cd198 O208 2.297 . S
Cd198 O209 2.439 . S
O199 Cd198 2.240 . S
O199 C204 1.279 . S
O200 Cd197 2.297 . S
O200 C202 1.247 . S
O201 Cd197 2.439 . S
O201 C202 1.208 . S
C202 O200 1.247 . S
C202 O201 1.208 . S
C203 O208 1.247 . S
C203 O209 1.208 . S
C204 O196 1.315 . S
C204 O199 1.279 . S
C205 O206 1.315 . S
C205 O207 1.279 . S
O206 Cd198 2.223 . S
O206 C205 1.315 . S
O207 Cd197 2.240 . S
O207 C205 1.279 . S
O208 Cd198 2.297 . S
O208 C203 1.247 . S
O209 Cd198 2.439 . S
O209 C203 1.208 . S
O210 Cd211 2.223 . S
O210 C218 1.315 1_545 S
Cd211 O210 2.223 . S
Cd211 O214 2.297 . S
Cd211 O215 2.432 1_545 S
Cd211 O221 2.240 . S
Cd212 O213 2.240 . S
Cd212 O220 2.223 . S
Cd212 O222 2.297 . S
Cd212 O223 2.439 . S
O213 Cd212 2.240 . S
O213 C218 1.279 . S
O214 Cd211 2.297 . S
O214 C216 1.247 . S
O215 Cd211 2.432 1_565 S
O215 C216 1.181 1_565 S
C216 O214 1.247 . S
C216 O215 1.181 1_545 S
C217 O222 1.247 . S
C217 O223 1.208 . S
C218 O210 1.315 1_565 S
C218 O213 1.279 . S
C219 O220 1.315 . S
C219 O221 1.279 1_565 S
O220 Cd212 2.223 . S
O220 C219 1.315 . S
O221 Cd211 2.240 . S
O221 C219 1.279 1_545 S
O222 Cd212 2.297 . S
O222 C217 1.247 . S
O223 Cd212 2.439 . S
O223 C217 1.208 . S
O224 Cd225 2.223 . S
O224 C232 1.315 . S
Cd225 O224 2.223 . S
Cd225 O228 2.297 . S
Cd225 O229 2.439 . S
Cd225 O235 2.240 . S
Cd226 O227 2.240 . S
Cd226 O234 2.223 . S
Cd226 O236 2.297 . S
Cd226 O237 2.439 . S
O227 Cd226 2.240 . S
O227 C232 1.279 . S
O228 Cd225 2.297 . S
O228 C230 1.247 . S
O229 Cd225 2.439 . S
O229 C230 1.208 . S
C230 O228 1.247 . S
C230 O229 1.208 . S
C231 O236 1.247 . S
C231 O237 1.208 . S
C232 O224 1.315 . S
C232 O227 1.279 . S
C233 O234 1.315 . S
C233 O235 1.279 . S
O234 Cd226 2.223 . S
O234 C233 1.315 . S
O235 Cd225 2.240 . S
O235 C233 1.279 . S
O236 Cd226 2.297 . S
O236 C231 1.247 . S
O237 Cd226 2.439 . S
O237 C231 1.208 . S
O238 Cd239 2.223 . S
O238 C246 1.315 . S
Cd239 O238 2.223 . S
Cd239 O242 2.297 . S
Cd239 O243 2.439 . S
Cd239 O249 2.240 . S
Cd240 O241 2.240 . S
Cd240 O248 2.223 . S
Cd240 O250 2.297 . S
Cd240 O251 2.439 . S
O241 Cd240 2.240 . S
O241 C246 1.279 . S
O242 Cd239 2.297 . S
O242 C244 1.247 . S
O243 Cd239 2.439 . S
O243 C244 1.208 . S
C244 O242 1.247 . S
C244 O243 1.208 . S
C245 O250 1.247 . S
C245 O251 1.208 . S
C246 O238 1.315 . S
C246 O241 1.279 . S
C247 O248 1.315 . S
C247 O249 1.279 . S
O248 Cd240 2.223 . S
O248 C247 1.315 . S
O249 Cd239 2.240 . S
O249 C247 1.279 . S
O250 Cd240 2.297 . S
O250 C245 1.247 . S
O251 Cd240 2.439 . S
O251 C245 1.208 . S
O252 Cd253 2.223 . S
O252 C260 1.315 . S
Cd253 O252 2.223 . S
Cd253 O256 2.297 . S
Cd253 O257 2.439 . S
Cd253 O263 2.240 . S
Cd254 O255 2.240 . S
Cd254 O262 2.223 . S
Cd254 O264 2.297 . S
Cd254 O265 2.439 . S
O255 Cd254 2.240 . S
O255 C260 1.279 . S
O256 Cd253 2.297 . S
O256 C258 1.247 . S
O257 Cd253 2.439 . S
O257 C258 1.208 . S
C258 O256 1.247 . S
C258 O257 1.208 . S
C259 O264 1.247 . S
C259 O265 1.208 . S
C260 O252 1.315 . S
C260 O255 1.279 . S
C261 O262 1.315 . S
C261 O263 1.279 . S
O262 Cd254 2.223 . S
O262 C261 1.315 . S
O263 Cd253 2.240 . S
O263 C261 1.279 . S
O264 Cd254 2.297 . S
O264 C259 1.247 . S
O265 Cd254 2.439 . S
O265 C259 1.208 . S
O266 Cd267 2.201 1_545 S
O266 C274 1.315 1_545 S
Cd267 O266 2.201 1_565 S
Cd267 O270 2.348 . S
Cd267 O271 2.485 . S
Cd267 O277 2.198 1_565 S
Cd268 O269 2.240 1_545 S
Cd268 O276 2.223 . S
Cd268 O278 2.297 . S
Cd268 O279 2.420 1_545 S
O269 Cd268 2.240 1_565 S
O269 C274 1.279 . S
O270 Cd267 2.348 . S
O270 C272 1.247 . S
O271 Cd267 2.485 . S
O271 C272 1.208 . S
C272 O270 1.247 . S
C272 O271 1.208 . S
C273 O278 1.247 . S
C273 O279 1.184 1_545 S
C274 O266 1.315 1_565 S
C274 O269 1.279 . S
C275 O276 1.315 . S
C275 O277 1.279 . S
O276 Cd268 2.223 . S
O276 C275 1.315 . S
O277 Cd267 2.198 1_545 S
O277 C275 1.279 . S
O278 Cd268 2.297 . S
O278 C273 1.247 . S
O279 Cd268 2.420 1_565 S
O279 C273 1.184 1_565 S
O280 Cd281 2.223 . S
O280 C288 1.315 . S
Cd281 O280 2.223 . S
Cd281 O284 2.297 . S
Cd281 O285 2.439 1_554 S
Cd281 O291 2.240 1_554 S
Cd282 O283 2.240 1_556 S
Cd282 O290 2.223 1_556 S
Cd282 O292 2.297 . S
Cd282 O293 2.439 . S
O283 Cd282 2.240 1_554 S
O283 C288 1.279 . S
O284 Cd281 2.297 . S
O284 C286 1.247 . S
O285 Cd281 2.439 1_556 S
O285 C286 1.208 1_556 S
C286 O284 1.247 . S
C286 O285 1.208 1_554 S
C287 O292 1.247 . S
C287 O293 1.208 . S
C288 O280 1.315 . S
C288 O283 1.279 . S
C289 O290 1.315 1_556 S
C289 O291 1.279 . S
O290 Cd282 2.223 1_554 S
O290 C289 1.315 1_554 S
O291 Cd281 2.240 1_556 S
O291 C289 1.279 . S
O292 Cd282 2.297 . S
O292 C287 1.247 . S
O293 Cd282 2.439 . S
O293 C287 1.208 . S
O294 Cd295 2.223 . S
O294 C302 1.315 . S
Cd295 O294 2.223 . S
Cd295 O298 2.297 . S
Cd295 O299 2.439 . S
Cd295 O305 2.240 . S
Cd296 O297 2.240 . S
Cd296 O304 2.223 . S
Cd296 O306 2.297 . S
Cd296 O307 2.439 . S
O297 Cd296 2.240 . S
O297 C302 1.279 . S
O298 Cd295 2.297 . S
O298 C300 1.247 . S
O299 Cd295 2.439 . S
O299 C300 1.208 . S
C300 O298 1.247 . S
C300 O299 1.208 . S
C301 O306 1.247 . S
C301 O307 1.208 . S
C302 O294 1.315 . S
C302 O297 1.279 . S
C303 O304 1.315 . S
C303 O305 1.279 . S
O304 Cd296 2.223 . S
O304 C303 1.315 . S
O305 Cd295 2.240 . S
O305 C303 1.279 . S
O306 Cd296 2.297 . S
O306 C301 1.247 . S
O307 Cd296 2.439 . S
O307 C301 1.208 . S
O308 Cd309 2.223 . S
O308 C316 1.315 . S
Cd309 O308 2.223 . S
Cd309 O312 2.297 . S
Cd309 O313 2.439 . S
Cd309 O319 2.240 . S
Cd310 O311 2.240 . S
Cd310 O318 2.223 . S
Cd310 O320 2.297 . S
Cd310 O321 2.439 . S
O311 Cd310 2.240 . S
O311 C316 1.279 . S
O312 Cd309 2.297 . S
O312 C314 1.247 . S
O313 Cd309 2.439 . S
O313 C314 1.208 . S
C314 O312 1.247 . S
C314 O313 1.208 . S
C315 O320 1.247 . S
C315 O321 1.208 . S
C316 O308 1.315 . S
C316 O311 1.279 . S
C317 O318 1.315 . S
C317 O319 1.279 . S
O318 Cd310 2.223 . S
O318 C317 1.315 . S
O319 Cd309 2.240 . S
O319 C317 1.279 . S
O320 Cd310 2.297 . S
O320 C315 1.247 . S
O321 Cd310 2.439 . S
O321 C315 1.208 . S
O322 Cd323 2.223 . S
O322 C330 1.315 . S
Cd323 O322 2.223 . S
Cd323 O326 2.297 . S
Cd323 O327 2.439 . S
Cd323 O333 2.240 . S
Cd324 O325 2.240 . S
Cd324 O332 2.223 . S
Cd324 O334 2.297 . S
Cd324 O335 2.439 . S
O325 Cd324 2.240 . S
O325 C330 1.279 . S
O326 Cd323 2.297 . S
O326 C328 1.247 . S
O327 Cd323 2.439 . S
O327 C328 1.208 . S
C328 O326 1.247 . S
C328 O327 1.208 . S
C329 O334 1.247 . S
C329 O335 1.208 . S
C330 O322 1.315 . S
C330 O325 1.279 . S
C331 O332 1.315 . S
C331 O333 1.279 . S
O332 Cd324 2.223 . S
O332 C331 1.315 . S
O333 Cd323 2.240 . S
O333 C331 1.279 . S
O334 Cd324 2.297 . S
O334 C329 1.247 . S
O335 Cd324 2.439 . S
O335 C329 1.208 . S
Nd336 C338 2.836 . S
Nd336 O356 2.500 . S
Nd336 O357 2.492 . S
Nd336 O358 2.487 . S
Nd336 O359 2.682 . S
Nd336 O360 2.410 . S
Nd336 O365 2.414 . S
Nd336 O367 2.424 . S
Nd337 C347 2.836 1_545 S
Nd337 O359 2.414 . S
Nd337 O361 2.424 . S
Nd337 O362 2.500 . S
Nd337 O363 2.492 . S
Nd337 O364 2.487 . S
Nd337 O365 2.682 . S
Nd337 O366 2.410 . S
C338 Nd336 2.836 . S
C338 C339 1.498 . S
C338 O356 1.258 . S
C338 O357 1.239 . S
C339 C338 1.498 . S
C339 C340 1.366 . S
C339 C344 1.407 . S
C340 C339 1.366 . S
C340 C341 1.392 . S
C340 H368 0.930 . S
C341 C340 1.392 . S
C341 C342 1.398 . S
C341 H369 0.929 . S
C342 C341 1.398 . S
C342 C343 1.352 . S
C343 C342 1.352 . S
C343 C344 1.384 . S
C343 H370 0.930 . S
C344 C339 1.407 . S
C344 C343 1.384 . S
C344 H371 0.929 . S
C345 O358 1.241 . S
C345 O359 1.273 . S
C346 O360 1.251 . S
C346 O361 1.268 . S
C347 Nd337 2.836 1_565 S
C347 C348 1.498 . S
C347 O362 1.258 1_565 S
C347 O363 1.239 1_565 S
C348 C347 1.498 . S
C348 C349 1.366 . S
C348 C353 1.407 . S
C349 C348 1.366 . S
C349 C350 1.392 . S
C349 H372 0.930 . S
C350 C349 1.392 . S
C350 C351 1.398 . S
C350 H373 0.929 . S
C351 C350 1.398 . S
C351 C352 1.352 . S
C352 C351 1.352 . S
C352 C353 1.384 . S
C352 H374 0.930 . S
C353 C348 1.407 . S
C353 C352 1.384 . S
C353 H375 0.929 . S
C354 O364 1.241 . S
C354 O365 1.273 . S
C355 O366 1.251 . S
C355 O367 1.268 . S
O356 Nd336 2.500 . S
O356 C338 1.258 . S
O357 Nd336 2.492 . S
O357 C338 1.239 . S
O358 Nd336 2.487 . S
O358 C345 1.241 . S
O359 Nd336 2.682 . S
O359 Nd337 2.414 . S
O359 C345 1.273 . S
O360 Nd336 2.410 . S
O360 C346 1.251 . S
O361 Nd337 2.424 . S
O361 C346 1.268 . S
O362 Nd337 2.500 . S
O362 C347 1.258 1_545 S
O363 Nd337 2.492 . S
O363 C347 1.239 1_545 S
O364 Nd337 2.487 . S
O364 C354 1.241 . S
O365 Nd336 2.414 . S
O365 Nd337 2.682 . S
O365 C354 1.273 . S
O366 Nd337 2.410 . S
O366 C355 1.251 . S
O367 Nd336 2.424 . S
O367 C355 1.268 . S
H368 C340 0.930 . S
H369 C341 0.929 . S
H370 C343 0.930 . S
H371 C344 0.929 . S
H372 C349 0.930 . S
H373 C350 0.929 . S
H374 C352 0.930 . S
H375 C353 0.929 . S
Nd376 C378 2.836 . S
Nd376 O396 2.500 . S
Nd376 O397 2.492 . S
Nd376 O398 2.487 . S
Nd376 O399 2.682 . S
Nd376 O400 2.410 . S
Nd376 O405 2.414 . S
Nd376 O407 2.424 . S
Nd377 C387 2.836 . S
Nd377 O399 2.414 . S
Nd377 O401 2.424 . S
Nd377 O402 2.500 . S
Nd377 O403 2.492 . S
Nd377 O404 2.487 . S
Nd377 O405 2.682 . S
Nd377 O406 2.410 . S
C378 Nd376 2.836 . S
C378 C379 1.498 . S
C378 O396 1.258 . S
C378 O397 1.239 . S
C379 C378 1.498 . S
C379 C380 1.366 . S
C379 C384 1.407 . S
C380 C379 1.366 . S
C380 C381 1.392 . S
C380 H408 0.930 . S
C381 C380 1.392 . S
C381 C382 1.398 . S
C381 H409 0.929 . S
C382 C381 1.398 . S
C382 C383 1.352 . S
C383 C382 1.352 . S
C383 C384 1.384 . S
C383 H410 0.930 . S
C384 C379 1.407 . S
C384 C383 1.384 . S
C384 H411 0.929 . S
C385 O398 1.241 . S
C385 O399 1.273 . S
C386 O400 1.251 . S
C386 O401 1.268 . S
C387 Nd377 2.836 . S
C387 C388 1.498 . S
C387 O402 1.258 . S
C387 O403 1.239 . S
C388 C387 1.498 . S
C388 C389 1.366 . S
C388 C393 1.407 . S
C389 C388 1.366 . S
C389 C390 1.392 . S
C389 H412 0.930 . S
C390 C389 1.392 . S
C390 C391 1.398 . S
C390 H413 0.929 . S
C391 C390 1.398 . S
C391 C392 1.352 . S
C392 C391 1.352 . S
C392 C393 1.384 . S
C392 H414 0.930 . S
C393 C388 1.407 . S
C393 C392 1.384 . S
C393 H415 0.929 . S
C394 O404 1.241 . S
C394 O405 1.273 . S
C395 O406 1.251 . S
C395 O407 1.268 . S
O396 Nd376 2.500 . S
O396 C378 1.258 . S
O397 Nd376 2.492 . S
O397 C378 1.239 . S
O398 Nd376 2.487 . S
O398 C385 1.241 . S
O399 Nd376 2.682 . S
O399 Nd377 2.414 . S
O399 C385 1.273 . S
O400 Nd376 2.410 . S
O400 C386 1.251 . S
O401 Nd377 2.424 . S
O401 C386 1.268 . S
O402 Nd377 2.500 . S
O402 C387 1.258 . S
O403 Nd377 2.492 . S
O403 C387 1.239 . S
O404 Nd377 2.487 . S
O404 C394 1.241 . S
O405 Nd376 2.414 . S
O405 Nd377 2.682 . S
O405 C394 1.273 . S
O406 Nd377 2.410 . S
O406 C395 1.251 . S
O407 Nd376 2.424 . S
O407 C395 1.268 . S
H408 C380 0.930 . S
H409 C381 0.929 . S
H410 C383 0.930 . S
H411 C384 0.929 . S
H412 C389 0.930 . S
H413 C390 0.929 . S
H414 C392 0.930 . S
H415 C393 0.929 . S
Nd416 C418 2.836 . S
Nd416 O436 2.500 . S
Nd416 O437 2.492 . S
Nd416 O438 2.487 . S
Nd416 O439 2.682 . S
Nd416 O440 2.410 . S
Nd416 O445 2.414 . S
Nd416 O447 2.424 . S
Nd417 C427 2.836 . S
Nd417 O439 2.414 . S
Nd417 O441 2.424 . S
Nd417 O442 2.500 . S
Nd417 O443 2.492 . S
Nd417 O444 2.487 . S
Nd417 O445 2.682 . S
Nd417 O446 2.410 . S
C418 Nd416 2.836 . S
C418 C419 1.498 . S
C418 O436 1.258 . S
C418 O437 1.239 . S
C419 C418 1.498 . S
C419 C420 1.366 . S
C419 C424 1.407 . S
C420 C419 1.366 . S
C420 C421 1.392 . S
C420 H448 0.930 . S
C421 C420 1.392 . S
C421 C422 1.398 . S
C421 H449 0.929 . S
C422 C421 1.398 . S
C422 C423 1.352 . S
C423 C422 1.352 . S
C423 C424 1.384 . S
C423 H450 0.930 . S
C424 C419 1.407 . S
C424 C423 1.384 . S
C424 H451 0.929 . S
C425 O438 1.241 . S
C425 O439 1.273 . S
C426 O440 1.251 . S
C426 O441 1.268 . S
C427 Nd417 2.836 . S
C427 C428 1.498 . S
C427 O442 1.258 . S
C427 O443 1.239 . S
C428 C427 1.498 . S
C428 C429 1.366 . S
C428 C433 1.407 . S
C429 C428 1.366 . S
C429 C430 1.392 . S
C429 H452 0.930 . S
C430 C429 1.392 . S
C430 C431 1.398 . S
C430 H453 0.929 . S
C431 C430 1.398 . S
C431 C432 1.352 . S
C432 C431 1.352 . S
C432 C433 1.384 . S
C432 H454 0.930 . S
C433 C428 1.407 . S
C433 C432 1.384 . S
C433 H455 0.929 . S
C434 O444 1.241 . S
C434 O445 1.273 . S
C435 O446 1.251 . S
C435 O447 1.268 . S
O436 Nd416 2.500 . S
O436 C418 1.258 . S
O437 Nd416 2.492 . S
O437 C418 1.239 . S
O438 Nd416 2.487 . S
O438 C425 1.241 . S
O439 Nd416 2.682 . S
O439 Nd417 2.414 . S
O439 C425 1.273 . S
O440 Nd416 2.410 . S
O440 C426 1.251 . S
O441 Nd417 2.424 . S
O441 C426 1.268 . S
O442 Nd417 2.500 . S
O442 C427 1.258 . S
O443 Nd417 2.492 . S
O443 C427 1.239 . S
O444 Nd417 2.487 . S
O444 C434 1.241 . S
O445 Nd416 2.414 . S
O445 Nd417 2.682 . S
O445 C434 1.273 . S
O446 Nd417 2.410 . S
O446 C435 1.251 . S
O447 Nd416 2.424 . S
O447 C435 1.268 . S
H448 C420 0.930 . S
H449 C421 0.929 . S
H450 C423 0.930 . S
H451 C424 0.929 . S
H452 C429 0.930 . S
H453 C430 0.929 . S
H454 C432 0.930 . S
H455 C433 0.929 . S
Nd456 C458 2.836 . S
Nd456 O476 2.500 . S
Nd456 O477 2.492 . S
Nd456 O478 2.487 . S
Nd456 O479 2.682 . S
Nd456 O480 2.410 . S
Nd456 O485 2.414 . S
Nd456 O487 2.424 . S
Nd457 C467 2.836 . S
Nd457 O479 2.414 . S
Nd457 O481 2.424 . S
Nd457 O482 2.500 . S
Nd457 O483 2.492 . S
Nd457 O484 2.487 . S
Nd457 O485 2.682 . S
Nd457 O486 2.410 . S
C458 Nd456 2.836 . S
C458 C459 1.498 . S
C458 O476 1.258 . S
C458 O477 1.239 . S
C459 C458 1.498 . S
C459 C460 1.366 . S
C459 C464 1.407 . S
C460 C459 1.366 . S
C460 C461 1.392 . S
C460 H488 0.930 . S
C461 C460 1.392 . S
C461 C462 1.398 . S
C461 H489 0.929 . S
C462 C461 1.398 . S
C462 C463 1.352 . S
C463 C462 1.352 . S
C463 C464 1.384 . S
C463 H490 0.930 . S
C464 C459 1.407 . S
C464 C463 1.384 . S
C464 H491 0.929 . S
C465 O478 1.241 . S
C465 O479 1.273 . S
C466 O480 1.251 . S
C466 O481 1.268 . S
C467 Nd457 2.836 . S
C467 C468 1.498 . S
C467 O482 1.258 . S
C467 O483 1.239 . S
C468 C467 1.498 . S
C468 C469 1.366 . S
C468 C473 1.407 . S
C469 C468 1.366 . S
C469 C470 1.392 . S
C469 H492 0.930 . S
C470 C469 1.392 . S
C470 C471 1.398 . S
C470 H493 0.929 . S
C471 C470 1.398 . S
C471 C472 1.352 . S
C472 C471 1.352 . S
C472 C473 1.384 . S
C472 H494 0.930 . S
C473 C468 1.407 . S
C473 C472 1.384 . S
C473 H495 0.929 . S
C474 O484 1.241 . S
C474 O485 1.273 . S
C475 O486 1.251 . S
C475 O487 1.268 . S
O476 Nd456 2.500 . S
O476 C458 1.258 . S
O477 Nd456 2.492 . S
O477 C458 1.239 . S
O478 Nd456 2.487 . S
O478 C465 1.241 . S
O479 Nd456 2.682 . S
O479 Nd457 2.414 . S
O479 C465 1.273 . S
O480 Nd456 2.410 . S
O480 C466 1.251 . S
O481 Nd457 2.424 . S
O481 C466 1.268 . S
O482 Nd457 2.500 . S
O482 C467 1.258 . S
O483 Nd457 2.492 . S
O483 C467 1.239 . S
O484 Nd457 2.487 . S
O484 C474 1.241 . S
O485 Nd456 2.414 . S
O485 Nd457 2.682 . S
O485 C474 1.273 . S
O486 Nd457 2.410 . S
O486 C475 1.251 . S
O487 Nd456 2.424 . S
O487 C475 1.268 . S
H488 C460 0.930 . S
H489 C461 0.929 . S
H490 C463 0.930 . S
H491 C464 0.929 . S
H492 C469 0.930 . S
H493 C470 0.929 . S
H494 C472 0.930 . S
H495 C473 0.929 . S
Nd496 C498 2.836 . S
Nd496 O516 2.500 . S
Nd496 O517 2.492 . S
Nd496 O518 2.487 . S
Nd496 O519 2.682 . S
Nd496 O520 2.410 . S
Nd496 O525 2.414 . S
Nd496 O527 2.424 . S
Nd497 C507 2.836 1_545 S
Nd497 O519 2.414 . S
Nd497 O521 2.424 . S
Nd497 O522 2.500 . S
Nd497 O523 2.492 1_545 S
Nd497 O524 2.487 . S
Nd497 O525 2.682 . S
Nd497 O526 2.410 . S
C498 Nd496 2.836 . S
C498 C499 1.498 . S
C498 O516 1.258 . S
C498 O517 1.239 . S
C499 C498 1.498 . S
C499 C500 1.366 . S
C499 C504 1.407 . S
C500 C499 1.366 . S
C500 C501 1.392 . S
C500 H528 0.930 . S
C501 C500 1.392 . S
C501 C502 1.398 . S
C501 H529 0.929 . S
C502 C501 1.398 . S
C502 C503 1.352 . S
C503 C502 1.352 . S
C503 C504 1.384 . S
C503 H530 0.930 . S
C504 C499 1.407 . S
C504 C503 1.384 . S
C504 H531 0.929 . S
C505 O518 1.241 . S
C505 O519 1.273 . S
C506 O520 1.251 . S
C506 O521 1.268 . S
C507 Nd497 2.836 1_565 S
C507 C508 1.498 . S
C507 O522 1.258 1_565 S
C507 O523 1.239 . S
C508 C507 1.498 . S
C508 C509 1.366 . S
C508 C513 1.407 . S
C509 C508 1.366 . S
C509 C510 1.392 . S
C509 H532 0.930 . S
C510 C509 1.392 . S
C510 C511 1.398 . S
C510 H533 0.929 . S
C511 C510 1.398 . S
C511 C512 1.352 . S
C512 C511 1.352 . S
C512 C513 1.384 . S
C512 H534 0.930 . S
C513 C508 1.407 . S
C513 C512 1.384 . S
C513 H535 0.929 . S
C514 O524 1.241 . S
C514 O525 1.273 . S
C515 O526 1.251 . S
C515 O527 1.268 . S
O516 Nd496 2.500 . S
O516 C498 1.258 . S
O517 Nd496 2.492 . S
O517 C498 1.239 . S
O518 Nd496 2.487 . S
O518 C505 1.241 . S
O519 Nd496 2.682 . S
O519 Nd497 2.414 . S
O519 C505 1.273 . S
O520 Nd496 2.410 . S
O520 C506 1.251 . S
O521 Nd497 2.424 . S
O521 C506 1.268 . S
O522 Nd497 2.500 . S
O522 C507 1.258 1_545 S
O523 Nd497 2.492 1_565 S
O523 C507 1.239 . S
O524 Nd497 2.487 . S
O524 C514 1.241 . S
O525 Nd496 2.414 . S
O525 Nd497 2.682 . S
O525 C514 1.273 . S
O526 Nd497 2.410 . S
O526 C515 1.251 . S
O527 Nd496 2.424 . S
O527 C515 1.268 . S
H528 C500 0.930 . S
H529 C501 0.929 . S
H530 C503 0.930 . S
H531 C504 0.929 . S
H532 C509 0.930 . S
H533 C510 0.929 . S
H534 C512 0.930 . S
H535 C513 0.929 . S
Nd536 C538 2.836 . S
Nd536 O556 2.500 . S
Nd536 O557 2.492 . S
Nd536 O558 2.487 . S
Nd536 O559 2.682 . S
Nd536 O560 2.410 . S
Nd536 O565 2.414 . S
Nd536 O567 2.424 . S
Nd537 C547 2.836 . S
Nd537 O559 2.414 . S
Nd537 O561 2.424 . S
Nd537 O562 2.500 . S
Nd537 O563 2.492 . S
Nd537 O564 2.487 . S
Nd537 O565 2.682 . S
Nd537 O566 2.410 . S
C538 Nd536 2.836 . S
C538 C539 1.498 . S
C538 O556 1.258 . S
C538 O557 1.239 . S
C539 C538 1.498 . S
C539 C540 1.366 . S
C539 C544 1.407 . S
C540 C539 1.366 . S
C540 C541 1.392 . S
C540 H568 0.930 . S
C541 C540 1.392 . S
C541 C542 1.398 . S
C541 H569 0.929 . S
C542 C541 1.398 . S
C542 C543 1.352 . S
C543 C542 1.352 . S
C543 C544 1.384 . S
C543 H570 0.930 . S
C544 C539 1.407 . S
C544 C543 1.384 . S
C544 H571 0.929 . S
C545 O558 1.241 . S
C545 O559 1.273 . S
C546 O560 1.251 . S
C546 O561 1.268 . S
C547 Nd537 2.836 . S
C547 C548 1.498 . S
C547 O562 1.258 . S
C547 O563 1.239 . S
C548 C547 1.498 . S
C548 C549 1.366 . S
C548 C553 1.407 . S
C549 C548 1.366 . S
C549 C550 1.392 . S
C549 H572 0.930 . S
C550 C549 1.392 . S
C550 C551 1.398 . S
C550 H573 0.929 . S
C551 C550 1.398 . S
C551 C552 1.352 . S
C552 C551 1.352 . S
C552 C553 1.384 . S
C552 H574 0.930 . S
C553 C548 1.407 . S
C553 C552 1.384 . S
C553 H575 0.929 . S
C554 O564 1.241 . S
C554 O565 1.273 . S
C555 O566 1.251 . S
C555 O567 1.268 . S
O556 Nd536 2.500 . S
O556 C538 1.258 . S
O557 Nd536 2.492 . S
O557 C538 1.239 . S
O558 Nd536 2.487 . S
O558 C545 1.241 . S
O559 Nd536 2.682 . S
O559 Nd537 2.414 . S
O559 C545 1.273 . S
O560 Nd536 2.410 . S
O560 C546 1.251 . S
O561 Nd537 2.424 . S
O561 C546 1.268 . S
O562 Nd537 2.500 . S
O562 C547 1.258 . S
O563 Nd537 2.492 . S
O563 C547 1.239 . S
O564 Nd537 2.487 . S
O564 C554 1.241 . S
O565 Nd536 2.414 . S
O565 Nd537 2.682 . S
O565 C554 1.273 . S
O566 Nd537 2.410 . S
O566 C555 1.251 . S
O567 Nd536 2.424 . S
O567 C555 1.268 . S
H568 C540 0.930 . S
H569 C541 0.929 . S
H570 C543 0.930 . S
H571 C544 0.929 . S
H572 C549 0.930 . S
H573 C550 0.929 . S
H574 C552 0.930 . S
H575 C553 0.929 . S
Nd576 C578 2.836 . S
Nd576 O596 2.500 . S
Nd576 O597 2.492 . S
Nd576 O598 2.487 . S
Nd576 O599 2.682 . S
Nd576 O600 2.410 . S
Nd576 O605 2.414 . S
Nd576 O607 2.424 . S
Nd577 C587 2.836 . S
Nd577 O599 2.414 . S
Nd577 O601 2.424 . S
Nd577 O602 2.500 . S
Nd577 O603 2.492 . S
Nd577 O604 2.487 . S
Nd577 O605 2.682 . S
Nd577 O606 2.410 . S
C578 Nd576 2.836 . S
C578 C579 1.498 . S
C578 O596 1.258 . S
C578 O597 1.239 . S
C579 C578 1.498 . S
C579 C580 1.366 . S
C579 C584 1.407 . S
C580 C579 1.366 . S
C580 C581 1.392 . S
C580 H608 0.930 . S
C581 C580 1.392 . S
C581 C582 1.398 . S
C581 H609 0.929 . S
C582 C581 1.398 . S
C582 C583 1.352 1_545 S
C583 C582 1.352 1_565 S
C583 C584 1.384 1_565 S
C583 H610 0.930 . S
C584 C579 1.407 . S
C584 C583 1.384 1_545 S
C584 H611 0.929 1_545 S
C585 O598 1.241 . S
C585 O599 1.273 . S
C586 O600 1.251 . S
C586 O601 1.268 . S
C587 Nd577 2.836 . S
C587 C588 1.498 . S
C587 O602 1.258 . S
C587 O603 1.239 . S
C588 C587 1.498 . S
C588 C589 1.366 . S
C588 C593 1.407 . S
C589 C588 1.366 . S
C589 C590 1.392 . S
C589 H612 0.930 . S
C590 C589 1.392 . S
C590 C591 1.398 . S
C590 H613 0.929 . S
C591 C590 1.398 . S
C591 C592 1.352 . S
C592 C591 1.352 . S
C592 C593 1.384 . S
C592 H614 0.930 . S
C593 C588 1.407 . S
C593 C592 1.384 . S
C593 H615 0.929 . S
C594 O604 1.241 . S
C594 O605 1.273 . S
C595 O606 1.251 . S
C595 O607 1.268 . S
O596 Nd576 2.500 . S
O596 C578 1.258 . S
O597 Nd576 2.492 . S
O597 C578 1.239 . S
O598 Nd576 2.487 . S
O598 C585 1.241 . S
O599 Nd576 2.682 . S
O599 Nd577 2.414 . S
O599 C585 1.273 . S
O600 Nd576 2.410 . S
O600 C586 1.251 . S
O601 Nd577 2.424 . S
O601 C586 1.268 . S
O602 Nd577 2.500 . S
O602 C587 1.258 . S
O603 Nd577 2.492 . S
O603 C587 1.239 . S
O604 Nd577 2.487 . S
O604 C594 1.241 . S
O605 Nd576 2.414 . S
O605 Nd577 2.682 . S
O605 C594 1.273 . S
O606 Nd577 2.410 . S
O606 C595 1.251 . S
O607 Nd576 2.424 . S
O607 C595 1.268 . S
H608 C580 0.930 . S
H609 C581 0.929 . S
H610 C583 0.930 . S
H611 C584 0.929 1_565 S
H612 C589 0.930 . S
H613 C590 0.929 . S
H614 C592 0.930 . S
H615 C593 0.929 . S
Nd616 C618 2.836 . S
Nd616 O636 2.500 . S
Nd616 O637 2.492 . S
Nd616 O638 2.487 . S
Nd616 O639 2.682 . S
Nd616 O640 2.410 . S
Nd616 O645 2.414 . S
Nd616 O647 2.424 . S
Nd617 C627 2.836 . S
Nd617 O639 2.414 . S
Nd617 O641 2.424 . S
Nd617 O642 2.500 . S
Nd617 O643 2.492 . S
Nd617 O644 2.487 . S
Nd617 O645 2.682 . S
Nd617 O646 2.410 . S
C618 Nd616 2.836 . S
C618 C619 1.498 . S
C618 O636 1.258 . S
C618 O637 1.239 . S
C619 C618 1.498 . S
C619 C620 1.366 . S
C619 C624 1.407 . S
C620 C619 1.366 . S
C620 C621 1.392 . S
C620 H648 0.930 . S
C621 C620 1.392 . S
C621 C622 1.398 . S
C621 H649 0.929 . S
C622 C621 1.398 . S
C622 C623 1.352 . S
C623 C622 1.352 . S
C623 C624 1.384 . S
C623 H650 0.930 . S
C624 C619 1.407 . S
C624 C623 1.384 . S
C624 H651 0.929 . S
C625 O638 1.241 . S
C625 O639 1.273 . S
C626 O640 1.251 . S
C626 O641 1.268 . S
C627 Nd617 2.836 . S
C627 C628 1.498 . S
C627 O642 1.258 . S
C627 O643 1.239 . S
C628 C627 1.498 . S
C628 C629 1.366 . S
C628 C633 1.407 . S
C629 C628 1.366 . S
C629 C630 1.392 . S
C629 H652 0.930 . S
C630 C629 1.392 . S
C630 C631 1.398 . S
C630 H653 0.929 . S
C631 C630 1.398 . S
C631 C632 1.352 . S
C632 C631 1.352 . S
C632 C633 1.384 . S
C632 H654 0.930 . S
C633 C628 1.407 . S
C633 C632 1.384 . S
C633 H655 0.929 . S
C634 O644 1.241 . S
C634 O645 1.273 . S
C635 O646 1.251 . S
C635 O647 1.268 . S
O636 Nd616 2.500 . S
O636 C618 1.258 . S
O637 Nd616 2.492 . S
O637 C618 1.239 . S
O638 Nd616 2.487 . S
O638 C625 1.241 . S
O639 Nd616 2.682 . S
O639 Nd617 2.414 . S
O639 C625 1.273 . S
O640 Nd616 2.410 . S
O640 C626 1.251 . S
O641 Nd617 2.424 . S
O641 C626 1.268 . S
O642 Nd617 2.500 . S
O642 C627 1.258 . S
O643 Nd617 2.492 . S
O643 C627 1.239 . S
O644 Nd617 2.487 . S
O644 C634 1.241 . S
O645 Nd616 2.414 . S
O645 Nd617 2.682 . S
O645 C634 1.273 . S
O646 Nd617 2.410 . S
O646 C635 1.251 . S
O647 Nd616 2.424 . S
O647 C635 1.268 . S
H648 C620 0.930 . S
H649 C621 0.929 . S
H650 C623 0.930 . S
H651 C624 0.929 . S
H652 C629 0.930 . S
H653 C630 0.929 . S
H654 C632 0.930 . S
H655 C633 0.929 . S
Nd656 C658 2.836 . S
Nd656 O676 2.500 . S
Nd656 O677 2.492 . S
Nd656 O678 2.487 . S
Nd656 O679 2.682 . S
Nd656 O680 2.410 . S
Nd656 O685 2.414 . S
Nd656 O687 2.424 . S
Nd657 C667 2.836 . S
Nd657 O679 2.414 . S
Nd657 O681 2.424 . S
Nd657 O682 2.500 . S
Nd657 O683 2.492 . S
Nd657 O684 2.487 . S
Nd657 O685 2.682 . S
Nd657 O686 2.410 . S
C658 Nd656 2.836 . S
C658 C659 1.498 . S
C658 O676 1.258 . S
C658 O677 1.239 . S
C659 C658 1.498 . S
C659 C660 1.366 . S
C659 C664 1.407 . S
C660 C659 1.366 . S
C660 C661 1.392 . S
C660 H688 0.930 . S
C661 C660 1.392 . S
C661 C662 1.398 . S
C661 H689 0.929 . S
C662 C661 1.398 . S
C662 C663 1.352 . S
C663 C662 1.352 . S
C663 C664 1.384 . S
C663 H690 0.930 . S
C664 C659 1.407 . S
C664 C663 1.384 . S
C664 H691 0.929 . S
C665 O678 1.241 . S
C665 O679 1.273 . S
C666 O680 1.251 . S
C666 O681 1.268 . S
C667 Nd657 2.836 . S
C667 C668 1.498 . S
C667 O682 1.258 . S
C667 O683 1.239 . S
C668 C667 1.498 . S
C668 C669 1.366 . S
C668 C673 1.407 . S
C669 C668 1.366 . S
C669 C670 1.392 . S
C669 H692 0.930 . S
C670 C669 1.392 . S
C670 C671 1.398 . S
C670 H693 0.929 . S
C671 C670 1.398 . S
C671 C672 1.352 . S
C672 C671 1.352 . S
C672 C673 1.384 . S
C672 H694 0.930 . S
C673 C668 1.407 . S
C673 C672 1.384 . S
C673 H695 0.929 . S
C674 O684 1.241 . S
C674 O685 1.273 . S
C675 O686 1.251 . S
C675 O687 1.268 . S
O676 Nd656 2.500 . S
O676 C658 1.258 . S
O677 Nd656 2.492 . S
O677 C658 1.239 . S
O678 Nd656 2.487 . S
O678 C665 1.241 . S
O679 Nd656 2.682 . S
O679 Nd657 2.414 . S
O679 C665 1.273 . S
O680 Nd656 2.410 . S
O680 C666 1.251 . S
O681 Nd657 2.424 . S
O681 C666 1.268 . S
O682 Nd657 2.500 . S
O682 C667 1.258 . S
O683 Nd657 2.492 . S
O683 C667 1.239 . S
O684 Nd657 2.487 . S
O684 C674 1.241 . S
O685 Nd656 2.414 . S
O685 Nd657 2.682 . S
O685 C674 1.273 . S
O686 Nd657 2.410 . S
O686 C675 1.251 . S
O687 Nd656 2.424 . S
O687 C675 1.268 . S
H688 C660 0.930 . S
H689 C661 0.929 . S
H690 C663 0.930 . S
H691 C664 0.929 . S
H692 C669 0.930 . S
H693 C670 0.929 . S
H694 C672 0.930 . S
H695 C673 0.929 . S
Nd696 C698 2.836 . S
Nd696 O716 2.500 . S
Nd696 O717 2.492 . S
Nd696 O718 2.487 . S
Nd696 O719 2.682 . S
Nd696 O720 2.410 . S
Nd696 O725 2.414 . S
Nd696 O727 2.424 . S
Nd697 C707 2.836 . S
Nd697 O719 2.414 . S
Nd697 O721 2.424 . S
Nd697 O722 2.500 . S
Nd697 O723 2.492 . S
Nd697 O724 2.487 . S
Nd697 O725 2.682 . S
Nd697 O726 2.410 . S
C698 Nd696 2.836 . S
C698 C699 1.498 . S
C698 O716 1.258 . S
C698 O717 1.239 . S
C699 C698 1.498 . S
C699 C700 1.366 . S
C699 C704 1.407 . S
C700 C699 1.366 . S
C700 C701 1.392 . S
C700 H728 0.930 . S
C701 C700 1.392 . S
C701 C702 1.398 . S
C701 H729 0.929 . S
C702 C701 1.398 . S
C702 C703 1.352 . S
C703 C702 1.352 . S
C703 C704 1.384 . S
C703 H730 0.930 . S
C704 C699 1.407 . S
C704 C703 1.384 . S
C704 H731 0.929 . S
C705 O718 1.241 . S
C705 O719 1.273 . S
C706 O720 1.251 . S
C706 O721 1.268 . S
C707 Nd697 2.836 . S
C707 C708 1.498 . S
C707 O722 1.258 . S
C707 O723 1.239 . S
C708 C707 1.498 . S
C708 C709 1.366 . S
C708 C713 1.407 . S
C709 C708 1.366 . S
C709 C710 1.392 . S
C709 H732 0.930 . S
C710 C709 1.392 . S
C710 C711 1.398 . S
C710 H733 0.929 . S
C711 C710 1.398 . S
C711 C712 1.352 . S
C712 C711 1.352 . S
C712 C713 1.384 . S
C712 H734 0.930 . S
C713 C708 1.407 . S
C713 C712 1.384 . S
C713 H735 0.929 . S
C714 O724 1.241 . S
C714 O725 1.273 . S
C715 O726 1.251 . S
C715 O727 1.268 . S
O716 Nd696 2.500 . S
O716 C698 1.258 . S
O717 Nd696 2.492 . S
O717 C698 1.239 . S
O718 Nd696 2.487 . S
O718 C705 1.241 . S
O719 Nd696 2.682 . S
O719 Nd697 2.414 . S
O719 C705 1.273 . S
O720 Nd696 2.410 . S
O720 C706 1.251 . S
O721 Nd697 2.424 . S
O721 C706 1.268 . S
O722 Nd697 2.500 . S
O722 C707 1.258 . S
O723 Nd697 2.492 . S
O723 C707 1.239 . S
O724 Nd697 2.487 . S
O724 C714 1.241 . S
O725 Nd696 2.414 . S
O725 Nd697 2.682 . S
O725 C714 1.273 . S
O726 Nd697 2.410 . S
O726 C715 1.251 . S
O727 Nd696 2.424 . S
O727 C715 1.268 . S
H728 C700 0.930 . S
H729 C701 0.929 . S
H730 C703 0.930 . S
H731 C704 0.929 . S
H732 C709 0.930 . S
H733 C710 0.929 . S
H734 C712 0.930 . S
H735 C713 0.929 . S
Nd736 C738 2.836 1_455 S
Nd736 O756 2.500 1_455 S
Nd736 O757 2.492 1_455 S
Nd736 O758 2.487 . S
Nd736 O759 2.682 . S
Nd736 O760 2.410 . S
Nd736 O765 2.414 . S
Nd736 O767 2.424 . S
Nd737 C747 2.836 . S
Nd737 O759 2.414 . S
Nd737 O761 2.424 . S
Nd737 O762 2.500 . S
Nd737 O763 2.492 . S
Nd737 O764 2.487 . S
Nd737 O765 2.682 . S
Nd737 O766 2.410 . S
C738 Nd736 2.836 1_655 S
C738 C739 1.498 . S
C738 O756 1.258 . S
C738 O757 1.239 . S
C739 C738 1.498 . S
C739 C740 1.366 . S
C739 C744 1.407 . S
C740 C739 1.366 . S
C740 C741 1.392 . S
C740 H768 0.930 . S
C741 C740 1.392 . S
C741 C742 1.398 . S
C741 H769 0.929 . S
C742 C741 1.398 . S
C742 C743 1.352 . S
C743 C742 1.352 . S
C743 C744 1.384 . S
C743 H770 0.930 . S
C744 C739 1.407 . S
C744 C743 1.384 . S
C744 H771 0.929 . S
C745 O758 1.241 . S
C745 O759 1.273 . S
C746 O760 1.251 . S
C746 O761 1.268 . S
C747 Nd737 2.836 . S
C747 C748 1.498 . S
C747 O762 1.258 . S
C747 O763 1.239 . S
C748 C747 1.498 . S
C748 C749 1.366 . S
C748 C753 1.407 . S
C749 C748 1.366 . S
C749 C750 1.392 . S
C749 H772 0.930 . S
C750 C749 1.392 . S
C750 C751 1.398 . S
C750 H773 0.929 . S
C751 C750 1.398 . S
C751 C752 1.352 . S
C752 C751 1.352 . S
C752 C753 1.384 . S
C752 H774 0.930 . S
C753 C748 1.407 . S
C753 C752 1.384 . S
C753 H775 0.929 . S
C754 O764 1.241 . S
C754 O765 1.273 . S
C755 O766 1.251 . S
C755 O767 1.268 . S
O756 Nd736 2.500 1_655 S
O756 C738 1.258 . S
O757 Nd736 2.492 1_655 S
O757 C738 1.239 . S
O758 Nd736 2.487 . S
O758 C745 1.241 . S
O759 Nd736 2.682 . S
O759 Nd737 2.414 . S
O759 C745 1.273 . S
O760 Nd736 2.410 . S
O760 C746 1.251 . S
O761 Nd737 2.424 . S
O761 C746 1.268 . S
O762 Nd737 2.500 . S
O762 C747 1.258 . S
O763 Nd737 2.492 . S
O763 C747 1.239 . S
O764 Nd737 2.487 . S
O764 C754 1.241 . S
O765 Nd736 2.414 . S
O765 Nd737 2.682 . S
O765 C754 1.273 . S
O766 Nd737 2.410 . S
O766 C755 1.251 . S
O767 Nd736 2.424 . S
O767 C755 1.268 . S
H768 C740 0.930 . S
H769 C741 0.929 . S
H770 C743 0.930 . S
H771 C744 0.929 . S
H772 C749 0.930 . S
H773 C750 0.929 . S
H774 C752 0.930 . S
H775 C753 0.929 . S
Nd776 C778 2.836 . S
Nd776 O796 2.500 . S
Nd776 O797 2.492 . S
Nd776 O798 2.487 . S
Nd776 O799 2.682 . S
Nd776 O800 2.410 . S
Nd776 O805 2.414 . S
Nd776 O807 2.424 . S
Nd777 C787 2.836 . S
Nd777 O799 2.414 . S
Nd777 O801 2.424 . S
Nd777 O802 2.500 . S
Nd777 O803 2.492 . S
Nd777 O804 2.487 . S
Nd777 O805 2.682 . S
Nd777 O806 2.410 . S
C778 Nd776 2.836 . S
C778 C779 1.498 . S
C778 O796 1.258 . S
C778 O797 1.239 . S
C779 C778 1.498 . S
C779 C780 1.366 . S
C779 C784 1.407 . S
C780 C779 1.366 . S
C780 C781 1.392 . S
C780 H808 0.930 . S
C781 C780 1.392 . S
C781 C782 1.398 . S
C781 H809 0.929 . S
C782 C781 1.398 . S
C782 C783 1.352 . S
C783 C782 1.352 . S
C783 C784 1.384 . S
C783 H810 0.930 . S
C784 C779 1.407 . S
C784 C783 1.384 . S
C784 H811 0.929 . S
C785 O798 1.241 . S
C785 O799 1.273 . S
C786 O800 1.251 . S
C786 O801 1.268 . S
C787 Nd777 2.836 . S
C787 C788 1.498 . S
C787 O802 1.258 . S
C787 O803 1.239 . S
C788 C787 1.498 . S
C788 C789 1.366 . S
C788 C793 1.407 . S
C789 C788 1.366 . S
C789 C790 1.392 . S
C789 H812 0.930 . S
C790 C789 1.392 . S
C790 C791 1.398 . S
C790 H813 0.929 . S
C791 C790 1.398 . S
C791 C792 1.352 . S
C792 C791 1.352 . S
C792 C793 1.384 . S
C792 H814 0.930 . S
C793 C788 1.407 . S
C793 C792 1.384 . S
C793 H815 0.929 . S
C794 O804 1.241 . S
C794 O805 1.273 . S
C795 O806 1.251 . S
C795 O807 1.268 . S
O796 Nd776 2.500 . S
O796 C778 1.258 . S
O797 Nd776 2.492 . S
O797 C778 1.239 . S
O798 Nd776 2.487 . S
O798 C785 1.241 . S
O799 Nd776 2.682 . S
O799 Nd777 2.414 . S
O799 C785 1.273 . S
O800 Nd776 2.410 . S
O800 C786 1.251 . S
O801 Nd777 2.424 . S
O801 C786 1.268 . S
O802 Nd777 2.500 . S
O802 C787 1.258 . S
O803 Nd777 2.492 . S
O803 C787 1.239 . S
O804 Nd777 2.487 . S
O804 C794 1.241 . S
O805 Nd776 2.414 . S
O805 Nd777 2.682 . S
O805 C794 1.273 . S
O806 Nd777 2.410 . S
O806 C795 1.251 . S
O807 Nd776 2.424 . S
O807 C795 1.268 . S
H808 C780 0.930 . S
H809 C781 0.929 . S
H810 C783 0.930 . S
H811 C784 0.929 . S
H812 C789 0.930 . S
H813 C790 0.929 . S
H814 C792 0.930 . S
H815 C793 0.929 . S
Nd816 C818 2.836 . S
Nd816 O836 2.500 . S
Nd816 O837 2.492 . S
Nd816 O838 2.487 . S
Nd816 O839 2.682 . S
Nd816 O840 2.410 . S
Nd816 O845 2.414 . S
Nd816 O847 2.424 . S
Nd817 C827 2.836 . S
Nd817 O839 2.414 . S
Nd817 O841 2.424 . S
Nd817 O842 2.500 . S
Nd817 O843 2.492 . S
Nd817 O844 2.487 . S
Nd817 O845 2.682 . S
Nd817 O846 2.410 . S
C818 Nd816 2.836 . S
C818 C819 1.498 . S
C818 O836 1.258 . S
C818 O837 1.239 . S
C819 C818 1.498 . S
C819 C820 1.366 . S
C819 C824 1.407 . S
C820 C819 1.366 . S
C820 C821 1.392 . S
C820 H848 0.930 . S
C821 C820 1.392 . S
C821 C822 1.398 . S
C821 H849 0.929 . S
C822 C821 1.398 . S
C822 C823 1.352 . S
C823 C822 1.352 . S
C823 C824 1.384 . S
C823 H850 0.930 . S
C824 C819 1.407 . S
C824 C823 1.384 . S
C824 H851 0.929 . S
C825 O838 1.241 . S
C825 O839 1.273 . S
C826 O840 1.251 . S
C826 O841 1.268 . S
C827 Nd817 2.836 . S
C827 C828 1.498 . S
C827 O842 1.258 . S
C827 O843 1.239 . S
C828 C827 1.498 . S
C828 C829 1.366 . S
C828 C833 1.407 . S
C829 C828 1.366 . S
C829 C830 1.392 . S
C829 H852 0.930 . S
C830 C829 1.392 . S
C830 C831 1.398 . S
C830 H853 0.929 . S
C831 C830 1.398 . S
C831 C832 1.352 . S
C832 C831 1.352 . S
C832 C833 1.384 . S
C832 H854 0.930 . S
C833 C828 1.407 . S
C833 C832 1.384 . S
C833 H855 0.929 . S
C834 O844 1.241 . S
C834 O845 1.273 . S
C835 O846 1.251 . S
C835 O847 1.268 . S
O836 Nd816 2.500 . S
O836 C818 1.258 . S
O837 Nd816 2.492 . S
O837 C818 1.239 . S
O838 Nd816 2.487 . S
O838 C825 1.241 . S
O839 Nd816 2.682 . S
O839 Nd817 2.414 . S
O839 C825 1.273 . S
O840 Nd816 2.410 . S
O840 C826 1.251 . S
O841 Nd817 2.424 . S
O841 C826 1.268 . S
O842 Nd817 2.500 . S
O842 C827 1.258 . S
O843 Nd817 2.492 . S
O843 C827 1.239 . S
O844 Nd817 2.487 . S
O844 C834 1.241 . S
O845 Nd816 2.414 . S
O845 Nd817 2.682 . S
O845 C834 1.273 . S
O846 Nd817 2.410 . S
O846 C835 1.251 . S
O847 Nd816 2.424 . S
O847 C835 1.268 . S
H848 C820 0.930 . S
H849 C821 0.929 . S
H850 C823 0.930 . S
H851 C824 0.929 . S
H852 C829 0.930 . S
H853 C830 0.929 . S
H854 C832 0.930 . S
H855 C833 0.929 . S
Nd856 C858 2.836 . S
Nd856 O876 2.500 . S
Nd856 O877 2.492 . S
Nd856 O878 2.487 . S
Nd856 O879 2.682 . S
Nd856 O880 2.410 . S
Nd856 O885 2.414 . S
Nd856 O887 2.424 . S
Nd857 C867 2.836 . S
Nd857 O879 2.414 . S
Nd857 O881 2.424 . S
Nd857 O882 2.500 . S
Nd857 O883 2.492 . S
Nd857 O884 2.487 . S
Nd857 O885 2.682 . S
Nd857 O886 2.410 . S
C858 Nd856 2.836 . S
C858 C859 1.498 . S
C858 O876 1.258 . S
C858 O877 1.239 . S
C859 C858 1.498 . S
C859 C860 1.366 . S
C859 C864 1.407 . S
C860 C859 1.366 . S
C860 C861 1.392 . S
C860 H888 0.930 . S
C861 C860 1.392 . S
C861 C862 1.398 . S
C861 H889 0.929 . S
C862 C861 1.398 . S
C862 C863 1.352 . S
C863 C862 1.352 . S
C863 C864 1.384 . S
C863 H890 0.930 . S
C864 C859 1.407 . S
C864 C863 1.384 . S
C864 H891 0.929 . S
C865 O878 1.241 . S
C865 O879 1.273 . S
C866 O880 1.251 . S
C866 O881 1.268 . S
C867 Nd857 2.836 . S
C867 C868 1.498 . S
C867 O882 1.258 . S
C867 O883 1.239 . S
C868 C867 1.498 . S
C868 C869 1.366 . S
C868 C873 1.407 . S
C869 C868 1.366 . S
C869 C870 1.392 . S
C869 H892 0.930 . S
C870 C869 1.392 . S
C870 C871 1.398 . S
C870 H893 0.929 . S
C871 C870 1.398 . S
C871 C872 1.352 . S
C872 C871 1.352 . S
C872 C873 1.384 . S
C872 H894 0.930 . S
C873 C868 1.407 . S
C873 C872 1.384 . S
C873 H895 0.929 . S
C874 O884 1.241 . S
C874 O885 1.273 . S
C875 O886 1.251 . S
C875 O887 1.268 . S
O876 Nd856 2.500 . S
O876 C858 1.258 . S
O877 Nd856 2.492 . S
O877 C858 1.239 . S
O878 Nd856 2.487 . S
O878 C865 1.241 . S
O879 Nd856 2.682 . S
O879 Nd857 2.414 . S
O879 C865 1.273 . S
O880 Nd856 2.410 . S
O880 C866 1.251 . S
O881 Nd857 2.424 . S
O881 C866 1.268 . S
O882 Nd857 2.500 . S
O882 C867 1.258 . S
O883 Nd857 2.492 . S
O883 C867 1.239 . S
O884 Nd857 2.487 . S
O884 C874 1.241 . S
O885 Nd856 2.414 . S
O885 Nd857 2.682 . S
O885 C874 1.273 . S
O886 Nd857 2.410 . S
O886 C875 1.251 . S
O887 Nd856 2.424 . S
O887 C875 1.268 . S
H888 C860 0.930 . S
H889 C861 0.929 . S
H890 C863 0.930 . S
H891 C864 0.929 . S
H892 C869 0.930 . S
H893 C870 0.929 . S
H894 C872 0.930 . S
H895 C873 0.929 . S
Nd896 C898 2.836 . S
Nd896 O916 2.500 . S
Nd896 O917 2.492 . S
Nd896 O918 2.487 . S
Nd896 O919 2.682 . S
Nd896 O920 2.410 . S
Nd896 O925 2.414 . S
Nd896 O927 2.424 . S
Nd897 C907 2.836 . S
Nd897 O919 2.414 . S
Nd897 O921 2.424 . S
Nd897 O922 2.500 . S
Nd897 O923 2.492 . S
Nd897 O924 2.487 . S
Nd897 O925 2.682 . S
Nd897 O926 2.410 . S
C898 Nd896 2.836 . S
C898 C899 1.498 . S
C898 O916 1.258 . S
C898 O917 1.239 . S
C899 C898 1.498 . S
C899 C900 1.366 . S
C899 C904 1.407 . S
C900 C899 1.366 . S
C900 C901 1.392 . S
C900 H928 0.930 . S
C901 C900 1.392 . S
C901 C902 1.398 . S
C901 H929 0.929 . S
C902 C901 1.398 . S
C902 C903 1.352 . S
C903 C902 1.352 . S
C903 C904 1.384 . S
C903 H930 0.930 . S
C904 C899 1.407 . S
C904 C903 1.384 . S
C904 H931 0.929 . S
C905 O918 1.241 . S
C905 O919 1.273 . S
C906 O920 1.251 . S
C906 O921 1.268 . S
C907 Nd897 2.836 . S
C907 C908 1.498 . S
C907 O922 1.258 . S
C907 O923 1.239 . S
C908 C907 1.498 . S
C908 C909 1.366 . S
C908 C913 1.407 . S
C909 C908 1.366 . S
C909 C910 1.392 . S
C909 H932 0.930 . S
C910 C909 1.392 . S
C910 C911 1.398 . S
C910 H933 0.929 . S
C911 C910 1.398 . S
C911 C912 1.352 . S
C912 C911 1.352 . S
C912 C913 1.384 . S
C912 H934 0.930 . S
C913 C908 1.407 . S
C913 C912 1.384 . S
C913 H935 0.929 . S
C914 O924 1.241 . S
C914 O925 1.273 . S
C915 O926 1.251 . S
C915 O927 1.268 . S
O916 Nd896 2.500 . S
O916 C898 1.258 . S
O917 Nd896 2.492 . S
O917 C898 1.239 . S
O918 Nd896 2.487 . S
O918 C905 1.241 . S
O919 Nd896 2.682 . S
O919 Nd897 2.414 . S
O919 C905 1.273 . S
O920 Nd896 2.410 . S
O920 C906 1.251 . S
O921 Nd897 2.424 . S
O921 C906 1.268 . S
O922 Nd897 2.500 . S
O922 C907 1.258 . S
O923 Nd897 2.492 . S
O923 C907 1.239 . S
O924 Nd897 2.487 . S
O924 C914 1.241 . S
O925 Nd896 2.414 . S
O925 Nd897 2.682 . S
O925 C914 1.273 . S
O926 Nd897 2.410 . S
O926 C915 1.251 . S
O927 Nd896 2.424 . S
O927 C915 1.268 . S
H928 C900 0.930 . S
H929 C901 0.929 . S
H930 C903 0.930 . S
H931 C904 0.929 . S
H932 C909 0.930 . S
H933 C910 0.929 . S
H934 C912 0.930 . S
H935 C913 0.929 . S
Nd936 C938 2.836 . S
Nd936 O956 2.500 . S
Nd936 O957 2.492 . S
Nd936 O958 2.487 . S
Nd936 O959 2.682 . S
Nd936 O960 2.410 . S
Nd936 O965 2.414 . S
Nd936 O967 2.424 . S
Nd937 C947 2.836 1_455 S
Nd937 O959 2.414 . S
Nd937 O961 2.424 . S
Nd937 O962 2.500 1_455 S
Nd937 O963 2.492 1_455 S
Nd937 O964 2.487 . S
Nd937 O965 2.682 . S
Nd937 O966 2.410 . S
C938 Nd936 2.836 . S
C938 C939 1.498 . S
C938 O956 1.258 . S
C938 O957 1.239 . S
C939 C938 1.498 . S
C939 C940 1.366 . S
C939 C944 1.407 . S
C940 C939 1.366 . S
C940 C941 1.392 . S
C940 H968 0.930 . S
C941 C940 1.392 . S
C941 C942 1.398 . S
C941 H969 0.929 . S
C942 C941 1.398 . S
C942 C943 1.352 . S
C943 C942 1.352 . S
C943 C944 1.384 . S
C943 H970 0.930 . S
C944 C939 1.407 . S
C944 C943 1.384 . S
C944 H971 0.929 . S
C945 O958 1.241 . S
C945 O959 1.273 . S
C946 O960 1.251 . S
C946 O961 1.268 . S
C947 Nd937 2.836 1_655 S
C947 C948 1.498 . S
C947 O962 1.258 . S
C947 O963 1.239 . S
C948 C947 1.498 . S
C948 C949 1.366 . S
C948 C953 1.407 . S
C949 C948 1.366 . S
C949 C950 1.392 . S
C949 H972 0.930 . S
C950 C949 1.392 . S
C950 C951 1.398 . S
C950 H973 0.929 . S
C951 C950 1.398 . S
C951 C952 1.352 . S
C952 C951 1.352 . S
C952 C953 1.384 . S
C952 H974 0.930 . S
C953 C948 1.407 . S
C953 C952 1.384 . S
C953 H975 0.929 . S
C954 O964 1.241 . S
C954 O965 1.273 . S
C955 O966 1.251 . S
C955 O967 1.268 . S
O956 Nd936 2.500 . S
O956 C938 1.258 . S
O957 Nd936 2.492 . S
O957 C938 1.239 . S
O958 Nd936 2.487 . S
O958 C945 1.241 . S
O959 Nd936 2.682 . S
O959 Nd937 2.414 . S
O959 C945 1.273 . S
O960 Nd936 2.410 . S
O960 C946 1.251 . S
O961 Nd937 2.424 . S
O961 C946 1.268 . S
O962 Nd937 2.500 1_655 S
O962 C947 1.258 . S
O963 Nd937 2.492 1_655 S
O963 C947 1.239 . S
O964 Nd937 2.487 . S
O964 C954 1.241 . S
O965 Nd936 2.414 . S
O965 Nd937 2.682 . S
O965 C954 1.273 . S
O966 Nd937 2.410 . S
O966 C955 1.251 . S
O967 Nd936 2.424 . S
O967 C955 1.268 . S
H968 C940 0.930 . S
H969 C941 0.929 . S
H970 C943 0.930 . S
H971 C944 0.929 . S
H972 C949 0.930 . S
H973 C950 0.929 . S
H974 C952 0.930 . S
H975 C953 0.929 . S
H976 C988 0.930 . S
H977 C990 0.930 . S
H978 C991 0.930 . S
H979 C995 0.959 . S
H980 C995 0.959 . S
H981 C995 0.961 . S
H982 C996 0.960 1_556 S
H983 C996 0.961 . S
H984 C996 0.959 . S
H985 C999 0.929 . S
H986 C1000 0.931 . S
H987 C1002 0.930 . S
C988 H976 0.930 . S
C988 C989 1.399 . S
C988 C993 1.399 . S
C989 C988 1.399 . S
C989 C990 1.376 . S
C990 H977 0.930 . S
C990 C989 1.376 . S
C990 C991 1.388 . S
C991 H978 0.930 . S
C991 C990 1.388 . S
C991 C992 1.390 . S
C992 C991 1.390 . S
C992 C993 1.394 . S
C992 C998 1.465 1_556 S
C993 C988 1.399 . S
C993 C992 1.394 . S
C993 C994 1.516 . S
C994 C993 1.516 . S
C994 C995 1.502 . S
C994 C996 1.561 1_556 S
C994 C997 1.526 1_556 S
C995 H979 0.959 . S
C995 H980 0.959 . S
C995 H981 0.961 . S
C995 C994 1.502 . S
C996 H982 0.960 1_554 S
C996 H983 0.961 . S
C996 H984 0.959 . S
C996 C994 1.561 1_554 S
C997 C994 1.526 1_554 S
C997 C998 1.396 . S
C997 C1002 1.390 . S
C998 C992 1.465 1_554 S
C998 C997 1.396 . S
C998 C999 1.399 . S
C999 H985 0.929 . S
C999 C998 1.399 . S
C999 C1000 1.385 . S
C1000 H986 0.931 . S
C1000 C999 1.385 . S
C1000 C1001 1.389 . S
C1001 C1000 1.389 . S
C1001 C1002 1.387 . S
C1002 H987 0.930 . S
C1002 C997 1.390 . S
C1002 C1001 1.387 . S
H1003 C1015 0.930 . S
H1004 C1017 0.930 . S
H1005 C1018 0.930 . S
H1006 C1022 0.959 . S
H1007 C1022 0.959 . S
H1008 C1022 0.961 . S
H1009 C1023 0.960 . S
H1010 C1023 0.961 . S
H1011 C1023 0.959 . S
H1012 C1026 0.929 . S
H1013 C1027 0.931 . S
H1014 C1029 0.930 . S
C1015 H1003 0.930 . S
C1015 C1016 1.399 . S
C1015 C1020 1.399 . S
C1016 C1015 1.399 . S
C1016 C1017 1.376 . S
C1017 H1004 0.930 . S
C1017 C1016 1.376 . S
C1017 C1018 1.388 . S
C1018 H1005 0.930 . S
C1018 C1017 1.388 . S
C1018 C1019 1.390 . S
C1019 C1018 1.390 . S
C1019 C1020 1.394 . S
C1019 C1025 1.465 . S
C1020 C1015 1.399 . S
C1020 C1019 1.394 . S
C1020 C1021 1.516 . S
C1021 C1020 1.516 . S
C1021 C1022 1.502 . S
C1021 C1023 1.561 . S
C1021 C1024 1.526 . S
C1022 H1006 0.959 . S
C1022 H1007 0.959 . S
C1022 H1008 0.961 . S
C1022 C1021 1.502 . S
C1023 H1009 0.960 . S
C1023 H1010 0.961 . S
C1023 H1011 0.959 . S
C1023 C1021 1.561 . S
C1024 C1021 1.526 . S
C1024 C1025 1.396 . S
C1024 C1029 1.390 . S
C1025 C1019 1.465 . S
C1025 C1024 1.396 . S
C1025 C1026 1.399 . S
C1026 H1012 0.929 . S
C1026 C1025 1.399 . S
C1026 C1027 1.385 . S
C1027 H1013 0.931 . S
C1027 C1026 1.385 . S
C1027 C1028 1.389 . S
C1028 C1027 1.389 . S
C1028 C1029 1.387 . S
C1029 H1014 0.930 . S
C1029 C1024 1.390 . S
C1029 C1028 1.387 . S
H1030 C1042 0.930 . S
H1031 C1044 0.930 . S
H1032 C1045 0.930 . S
H1033 C1049 0.959 . S
H1034 C1049 0.959 . S
H1035 C1049 0.961 . S
H1036 C1050 0.960 . S
H1037 C1050 0.961 . S
H1038 C1050 0.959 . S
H1039 C1053 0.929 . S
H1040 C1054 0.931 . S
H1041 C1056 0.930 1_545 S
C1042 H1030 0.930 . S
C1042 C1043 1.399 . S
C1042 C1047 1.399 . S
C1043 C1042 1.399 . S
C1043 C1044 1.376 . S
C1044 H1031 0.930 . S
C1044 C1043 1.376 . S
C1044 C1045 1.388 . S
C1045 H1032 0.930 . S
C1045 C1044 1.388 . S
C1045 C1046 1.390 . S
C1046 C1045 1.390 . S
C1046 C1047 1.394 . S
C1046 C1052 1.465 . S
C1047 C1042 1.399 . S
C1047 C1046 1.394 . S
C1047 C1048 1.516 . S
C1048 C1047 1.516 . S
C1048 C1049 1.502 . S
C1048 C1050 1.561 . S
C1048 C1051 1.526 . S
C1049 H1033 0.959 . S
C1049 H1034 0.959 . S
C1049 H1035 0.961 . S
C1049 C1048 1.502 . S
C1050 H1036 0.960 . S
C1050 H1037 0.961 . S
C1050 H1038 0.959 . S
C1050 C1048 1.561 . S
C1051 C1048 1.526 . S
C1051 C1052 1.396 . S
C1051 C1056 1.390 . S
C1052 C1046 1.465 . S
C1052 C1051 1.396 . S
C1052 C1053 1.399 . S
C1053 H1039 0.929 . S
C1053 C1052 1.399 . S
C1053 C1054 1.385 . S
C1054 H1040 0.931 . S
C1054 C1053 1.385 . S
C1054 C1055 1.389 . S
C1055 C1054 1.389 . S
C1055 C1056 1.387 . S
C1056 H1041 0.930 1_565 S
C1056 C1051 1.390 . S
C1056 C1055 1.387 . S
H1057 C1069 0.930 . S
H1058 C1071 0.930 . S
H1059 C1072 0.930 . S
H1060 C1076 0.959 . S
H1061 C1076 0.959 . S
H1062 C1076 0.961 . S
H1063 C1077 0.960 . S
H1064 C1077 0.961 . S
H1065 C1077 0.959 . S
H1066 C1080 0.929 . S
H1067 C1081 0.931 . S
H1068 C1083 0.930 . S
C1069 H1057 0.930 . S
C1069 C1070 1.399 . S
C1069 C1074 1.399 . S
C1070 C1069 1.399 . S
C1070 C1071 1.376 . S
C1071 H1058 0.930 . S
C1071 C1070 1.376 . S
C1071 C1072 1.388 . S
C1072 H1059 0.930 . S
C1072 C1071 1.388 . S
C1072 C1073 1.390 . S
C1073 C1072 1.390 . S
C1073 C1074 1.394 . S
C1073 C1079 1.465 . S
C1074 C1069 1.399 . S
C1074 C1073 1.394 . S
C1074 C1075 1.516 . S
C1075 C1074 1.516 . S
C1075 C1076 1.502 . S
C1075 C1077 1.561 . S
C1075 C1078 1.526 . S
C1076 H1060 0.959 . S
C1076 H1061 0.959 . S
C1076 H1062 0.961 . S
C1076 C1075 1.502 . S
C1077 H1063 0.960 . S
C1077 H1064 0.961 . S
C1077 H1065 0.959 . S
C1077 C1075 1.561 . S
C1078 C1075 1.526 . S
C1078 C1079 1.396 . S
C1078 C1083 1.390 . S
C1079 C1073 1.465 . S
C1079 C1078 1.396 . S
C1079 C1080 1.399 . S
C1080 H1066 0.929 . S
C1080 C1079 1.399 . S
C1080 C1081 1.385 . S
C1081 H1067 0.931 . S
C1081 C1080 1.385 . S
C1081 C1082 1.389 . S
C1082 C1081 1.389 . S
C1082 C1083 1.387 . S
C1083 H1068 0.930 . S
C1083 C1078 1.390 . S
C1083 C1082 1.387 . S
H1084 C1096 0.930 . S
H1085 C1098 0.930 . S
H1086 C1099 0.930 . S
H1087 C1103 0.959 . S
H1088 C1103 0.959 . S
H1089 C1103 0.961 . S
H1090 C1104 0.960 . S
H1091 C1104 0.961 . S
H1092 C1104 0.959 . S
H1093 C1107 0.929 . S
H1094 C1108 0.931 . S
H1095 C1110 0.930 . S
C1096 H1084 0.930 . S
C1096 C1097 1.399 . S
C1096 C1101 1.399 . S
C1097 C1096 1.399 . S
C1097 C1098 1.376 . S
C1098 H1085 0.930 . S
C1098 C1097 1.376 . S
C1098 C1099 1.388 . S
C1099 H1086 0.930 . S
C1099 C1098 1.388 . S
C1099 C1100 1.390 . S
C1100 C1099 1.390 . S
C1100 C1101 1.394 . S
C1100 C1106 1.465 . S
C1101 C1096 1.399 . S
C1101 C1100 1.394 . S
C1101 C1102 1.516 . S
C1102 C1101 1.516 . S
C1102 C1103 1.502 . S
C1102 C1104 1.561 . S
C1102 C1105 1.526 . S
C1103 H1087 0.959 . S
C1103 H1088 0.959 . S
C1103 H1089 0.961 . S
C1103 C1102 1.502 . S
C1104 H1090 0.960 . S
C1104 H1091 0.961 . S
C1104 H1092 0.959 . S
C1104 C1102 1.561 . S
C1105 C1102 1.526 . S
C1105 C1106 1.396 . S
C1105 C1110 1.390 . S
C1106 C1100 1.465 . S
C1106 C1105 1.396 . S
C1106 C1107 1.399 . S
C1107 H1093 0.929 . S
C1107 C1106 1.399 . S
C1107 C1108 1.385 . S
C1108 H1094 0.931 . S
C1108 C1107 1.385 . S
C1108 C1109 1.389 . S
C1109 C1108 1.389 . S
C1109 C1110 1.387 . S
C1110 H1095 0.930 . S
C1110 C1105 1.390 . S
C1110 C1109 1.387 . S
H1111 C1123 0.930 . S
H1112 C1125 0.930 . S
H1113 C1126 0.930 . S
H1114 C1130 0.959 . S
H1115 C1130 0.959 . S
H1116 C1130 0.961 . S
H1117 C1131 0.960 . S
H1118 C1131 0.961 . S
H1119 C1131 0.959 . S
H1120 C1134 0.929 . S
H1121 C1135 0.931 . S
H1122 C1137 0.930 . S
C1123 H1111 0.930 . S
C1123 C1124 1.399 . S
C1123 C1128 1.399 . S
C1124 C1123 1.399 . S
C1124 C1125 1.376 . S
C1125 H1112 0.930 . S
C1125 C1124 1.376 . S
C1125 C1126 1.388 . S
C1126 H1113 0.930 . S
C1126 C1125 1.388 . S
C1126 C1127 1.390 . S
C1127 C1126 1.390 . S
C1127 C1128 1.394 . S
C1127 C1133 1.465 . S
C1128 C1123 1.399 . S
C1128 C1127 1.394 . S
C1128 C1129 1.516 . S
C1129 C1128 1.516 . S
C1129 C1130 1.502 . S
C1129 C1131 1.561 . S
C1129 C1132 1.526 . S
C1130 H1114 0.959 . S
C1130 H1115 0.959 . S
C1130 H1116 0.961 . S
C1130 C1129 1.502 . S
C1131 H1117 0.960 . S
C1131 H1118 0.961 . S
C1131 H1119 0.959 . S
C1131 C1129 1.561 . S
C1132 C1129 1.526 . S
C1132 C1133 1.396 . S
C1132 C1137 1.390 . S
C1133 C1127 1.465 . S
C1133 C1132 1.396 . S
C1133 C1134 1.399 . S
C1134 H1120 0.929 . S
C1134 C1133 1.399 . S
C1134 C1135 1.385 . S
C1135 H1121 0.931 . S
C1135 C1134 1.385 . S
C1135 C1136 1.389 . S
C1136 C1135 1.389 . S
C1136 C1137 1.387 . S
C1137 H1122 0.930 . S
C1137 C1132 1.390 . S
C1137 C1136 1.387 . S
H1138 C1150 0.930 . S
H1139 C1152 0.930 . S
H1140 C1153 0.930 . S
H1141 C1157 0.959 . S
H1142 C1157 0.959 . S
H1143 C1157 0.961 . S
H1144 C1158 0.960 . S
H1145 C1158 0.961 . S
H1146 C1158 0.959 . S
H1147 C1161 0.929 . S
H1148 C1162 0.931 . S
H1149 C1164 0.930 . S
C1150 H1138 0.930 . S
C1150 C1151 1.399 . S
C1150 C1155 1.399 . S
C1151 C1150 1.399 . S
C1151 C1152 1.376 . S
C1152 H1139 0.930 . S
C1152 C1151 1.376 . S
C1152 C1153 1.388 . S
C1153 H1140 0.930 . S
C1153 C1152 1.388 . S
C1153 C1154 1.390 . S
C1154 C1153 1.390 . S
C1154 C1155 1.394 . S
C1154 C1160 1.465 . S
C1155 C1150 1.399 . S
C1155 C1154 1.394 . S
C1155 C1156 1.516 . S
C1156 C1155 1.516 . S
C1156 C1157 1.502 . S
C1156 C1158 1.561 . S
C1156 C1159 1.526 . S
C1157 H1141 0.959 . S
C1157 H1142 0.959 . S
C1157 H1143 0.961 . S
C1157 C1156 1.502 . S
C1158 H1144 0.960 . S
C1158 H1145 0.961 . S
C1158 H1146 0.959 . S
C1158 C1156 1.561 . S
C1159 C1156 1.526 . S
C1159 C1160 1.396 . S
C1159 C1164 1.390 . S
C1160 C1154 1.465 . S
C1160 C1159 1.396 . S
C1160 C1161 1.399 . S
C1161 H1147 0.929 . S
C1161 C1160 1.399 . S
C1161 C1162 1.385 . S
C1162 H1148 0.931 . S
C1162 C1161 1.385 . S
C1162 C1163 1.389 . S
C1163 C1162 1.389 . S
C1163 C1164 1.387 . S
C1164 H1149 0.930 . S
C1164 C1159 1.390 . S
C1164 C1163 1.387 . S
H1165 C1177 0.930 . S
H1166 C1179 0.930 . S
H1167 C1180 0.930 . S
H1168 C1184 0.959 . S
H1169 C1184 0.959 . S
H1170 C1184 0.961 . S
H1171 C1185 0.960 . S
H1172 C1185 0.961 . S
H1173 C1185 0.959 . S
H1174 C1188 0.929 . S
H1175 C1189 0.931 . S
H1176 C1191 0.930 . S
C1177 H1165 0.930 . S
C1177 C1178 1.399 . S
C1177 C1182 1.399 . S
C1178 C1177 1.399 . S
C1178 C1179 1.376 . S
C1179 H1166 0.930 . S
C1179 C1178 1.376 . S
C1179 C1180 1.388 . S
C1180 H1167 0.930 . S
C1180 C1179 1.388 . S
C1180 C1181 1.390 . S
C1181 C1180 1.390 . S
C1181 C1182 1.394 . S
C1181 C1187 1.465 . S
C1182 C1177 1.399 . S
C1182 C1181 1.394 . S
C1182 C1183 1.516 . S
C1183 C1182 1.516 . S
C1183 C1184 1.502 . S
C1183 C1185 1.561 . S
C1183 C1186 1.526 . S
C1184 H1168 0.959 . S
C1184 H1169 0.959 . S
C1184 H1170 0.961 . S
C1184 C1183 1.502 . S
C1185 H1171 0.960 . S
C1185 H1172 0.961 . S
C1185 H1173 0.959 . S
C1185 C1183 1.561 . S
C1186 C1183 1.526 . S
C1186 C1187 1.396 . S
C1186 C1191 1.390 . S
C1187 C1181 1.465 . S
C1187 C1186 1.396 . S
C1187 C1188 1.399 . S
C1188 H1174 0.929 . S
C1188 C1187 1.399 . S
C1188 C1189 1.385 . S
C1189 H1175 0.931 . S
C1189 C1188 1.385 . S
C1189 C1190 1.389 . S
C1190 C1189 1.389 . S
C1190 C1191 1.387 . S
C1191 H1176 0.930 . S
C1191 C1186 1.390 . S
C1191 C1190 1.387 . S
H1192 C1204 0.930 . S
H1193 C1206 0.930 . S
H1194 C1207 0.930 . S
H1195 C1211 0.959 . S
H1196 C1211 0.959 . S
H1197 C1211 0.961 . S
H1198 C1212 0.960 . S
H1199 C1212 0.972 . S
H1200 C1212 0.959 1_455 S
H1201 C1215 0.929 . S
H1202 C1216 0.931 . S
H1203 C1218 0.930 . S
C1204 H1192 0.930 . S
C1204 C1205 1.399 . S
C1204 C1209 1.399 . S
C1205 C1204 1.399 . S
C1205 C1206 1.376 . S
C1206 H1193 0.930 . S
C1206 C1205 1.376 . S
C1206 C1207 1.388 . S
C1207 H1194 0.930 . S
C1207 C1206 1.388 . S
C1207 C1208 1.390 . S
C1208 C1207 1.390 . S
C1208 C1209 1.394 . S
C1208 C1214 1.465 . S
C1209 C1204 1.399 . S
C1209 C1208 1.394 . S
C1209 C1210 1.516 . S
C1210 C1209 1.516 . S
C1210 C1211 1.502 . S
C1210 C1212 1.561 . S
C1210 C1213 1.526 . S
C1211 H1195 0.959 . S
C1211 H1196 0.959 . S
C1211 H1197 0.961 . S
C1211 C1210 1.502 . S
C1212 H1198 0.960 . S
C1212 H1199 0.972 . S
C1212 H1200 0.959 1_655 S
C1212 C1210 1.561 . S
C1213 C1210 1.526 . S
C1213 C1214 1.396 . S
C1213 C1218 1.390 1_655 S
C1214 C1208 1.465 . S
C1214 C1213 1.396 . S
C1214 C1215 1.399 1_655 S
C1215 H1201 0.929 . S
C1215 C1214 1.399 1_455 S
C1215 C1216 1.385 . S
C1216 H1202 0.931 . S
C1216 C1215 1.385 . S
C1216 C1217 1.389 . S
C1217 C1216 1.389 . S
C1217 C1218 1.387 . S
C1218 H1203 0.930 . S
C1218 C1213 1.390 1_455 S
C1218 C1217 1.387 . S
H1219 C1231 0.930 . S
H1220 C1233 0.930 . S
H1221 C1234 0.930 . S
H1222 C1238 0.959 . S
H1223 C1238 0.959 . S
H1224 C1238 0.961 . S
H1225 C1239 0.960 . S
H1226 C1239 0.961 . S
H1227 C1239 0.959 . S
H1228 C1242 0.929 . S
H1229 C1243 0.931 . S
H1230 C1245 0.930 . S
C1231 H1219 0.930 . S
C1231 C1232 1.399 . S
C1231 C1236 1.399 . S
C1232 C1231 1.399 . S
C1232 C1233 1.376 . S
C1233 H1220 0.930 . S
C1233 C1232 1.376 . S
C1233 C1234 1.388 . S
C1234 H1221 0.930 . S
C1234 C1233 1.388 . S
C1234 C1235 1.390 . S
C1235 C1234 1.390 . S
C1235 C1236 1.394 . S
C1235 C1241 1.465 . S
C1236 C1231 1.399 . S
C1236 C1235 1.394 . S
C1236 C1237 1.516 . S
C1237 C1236 1.516 . S
C1237 C1238 1.502 . S
C1237 C1239 1.561 . S
C1237 C1240 1.526 . S
C1238 H1222 0.959 . S
C1238 H1223 0.959 . S
C1238 H1224 0.961 . S
C1238 C1237 1.502 . S
C1239 H1225 0.960 . S
C1239 H1226 0.961 . S
C1239 H1227 0.959 . S
C1239 C1237 1.561 . S
C1240 C1237 1.526 . S
C1240 C1241 1.396 . S
C1240 C1245 1.390 . S
C1241 C1235 1.465 . S
C1241 C1240 1.396 . S
C1241 C1242 1.399 . S
C1242 H1228 0.929 . S
C1242 C1241 1.399 . S
C1242 C1243 1.385 . S
C1243 H1229 0.931 . S
C1243 C1242 1.385 . S
C1243 C1244 1.389 . S
C1244 C1243 1.389 . S
C1244 C1245 1.387 . S
C1245 H1230 0.930 . S
C1245 C1240 1.390 . S
C1245 C1244 1.387 . S
H1246 C1258 0.930 . S
H1247 C1260 0.925 1_565 S
H1248 C1261 0.930 . S
H1249 C1265 0.959 . S
H1250 C1265 0.959 . S
H1251 C1265 0.961 . S
H1252 C1266 0.960 . S
H1253 C1266 0.961 . S
H1254 C1266 0.959 . S
H1255 C1269 0.929 . S
H1256 C1270 0.931 . S
H1257 C1272 0.930 . S
C1258 H1246 0.930 . S
C1258 C1259 1.399 . S
C1258 C1263 1.399 . S
C1259 C1258 1.399 . S
C1259 C1260 1.378 . S
C1260 H1247 0.925 1_545 S
C1260 C1259 1.378 . S
C1260 C1261 1.392 . S
C1261 H1248 0.930 . S
C1261 C1260 1.392 . S
C1261 C1262 1.390 . S
C1262 C1261 1.390 . S
C1262 C1263 1.394 . S
C1262 C1268 1.465 . S
C1263 C1258 1.399 . S
C1263 C1262 1.394 . S
C1263 C1264 1.516 . S
C1264 C1263 1.516 . S
C1264 C1265 1.502 . S
C1264 C1266 1.561 . S
C1264 C1267 1.526 . S
C1265 H1249 0.959 . S
C1265 H1250 0.959 . S
C1265 H1251 0.961 . S
C1265 C1264 1.502 . S
C1266 H1252 0.960 . S
C1266 H1253 0.961 . S
C1266 H1254 0.959 . S
C1266 C1264 1.561 . S
C1267 C1264 1.526 . S
C1267 C1268 1.396 . S
C1267 C1272 1.390 . S
C1268 C1262 1.465 . S
C1268 C1267 1.396 . S
C1268 C1269 1.399 . S
C1269 H1255 0.929 . S
C1269 C1268 1.399 . S
C1269 C1270 1.385 . S
C1270 H1256 0.931 . S
C1270 C1269 1.385 . S
C1270 C1271 1.389 . S
C1271 C1270 1.389 . S
C1271 C1272 1.387 . S
C1272 H1257 0.930 . S
C1272 C1267 1.390 . S
C1272 C1271 1.387 . S
H1273 C1285 0.930 . S
H1274 C1287 0.930 . S
H1275 C1288 0.930 . S
H1276 C1292 0.959 . S
H1277 C1292 0.959 . S
H1278 C1292 0.961 . S
H1279 C1293 0.960 . S
H1280 C1293 0.961 . S
H1281 C1293 0.959 . S
H1282 C1296 0.929 . S
H1283 C1297 0.931 . S
H1284 C1299 0.930 . S
C1285 H1273 0.930 . S
C1285 C1286 1.399 . S
C1285 C1290 1.399 . S
C1286 C1285 1.399 . S
C1286 C1287 1.376 . S
C1287 H1274 0.930 . S
C1287 C1286 1.376 . S
C1287 C1288 1.388 . S
C1288 H1275 0.930 . S
C1288 C1287 1.388 . S
C1288 C1289 1.390 . S
C1289 C1288 1.390 . S
C1289 C1290 1.394 . S
C1289 C1295 1.465 . S
C1290 C1285 1.399 . S
C1290 C1289 1.394 . S
C1290 C1291 1.516 . S
C1291 C1290 1.516 . S
C1291 C1292 1.502 . S
C1291 C1293 1.561 . S
C1291 C1294 1.526 . S
C1292 H1276 0.959 . S
C1292 H1277 0.959 . S
C1292 H1278 0.961 . S
C1292 C1291 1.502 . S
C1293 H1279 0.960 . S
C1293 H1280 0.961 . S
C1293 H1281 0.959 . S
C1293 C1291 1.561 . S
C1294 C1291 1.526 . S
C1294 C1295 1.396 . S
C1294 C1299 1.390 . S
C1295 C1289 1.465 . S
C1295 C1294 1.396 . S
C1295 C1296 1.399 1_554 S
C1296 H1282 0.929 . S
C1296 C1295 1.399 1_556 S
C1296 C1297 1.385 . S
C1297 H1283 0.931 . S
C1297 C1296 1.385 . S
C1297 C1298 1.389 . S
C1298 C1297 1.389 . S
C1298 C1299 1.386 1_556 S
C1299 H1284 0.930 . S
C1299 C1294 1.390 . S
C1299 C1298 1.386 1_554 S
H1300 C1312 0.930 . S
H1301 C1314 0.930 . S
H1302 C1315 0.930 . S
H1303 C1319 0.959 . S
H1304 C1319 0.959 1_455 S
H1305 C1319 0.961 . S
H1306 C1320 0.960 . S
H1307 C1320 0.961 . S
H1308 C1320 0.959 . S
H1309 C1323 0.929 . S
H1310 C1324 0.931 . S
H1311 C1326 0.930 . S
C1312 H1300 0.930 . S
C1312 C1313 1.399 . S
C1312 C1317 1.399 . S
C1313 C1312 1.399 . S
C1313 C1314 1.376 . S
C1314 H1301 0.930 . S
C1314 C1313 1.376 . S
C1314 C1315 1.388 . S
C1315 H1302 0.930 . S
C1315 C1314 1.388 . S
C1315 C1316 1.390 . S
C1316 C1315 1.390 . S
C1316 C1317 1.394 . S
C1316 C1322 1.465 . S
C1317 C1312 1.399 . S
C1317 C1316 1.394 . S
C1317 C1318 1.542 . S
C1318 C1317 1.542 . S
C1318 C1319 1.501 . S
C1318 C1320 1.533 1_655 S
C1318 C1321 1.530 1_655 S
C1319 H1303 0.959 . S
C1319 H1304 0.959 1_655 S
C1319 H1305 0.961 . S
C1319 C1318 1.501 . S
C1320 H1306 0.960 . S
C1320 H1307 0.961 . S
C1320 H1308 0.959 . S
C1320 C1318 1.533 1_455 S
C1321 C1318 1.530 1_455 S
C1321 C1322 1.396 1_455 S
C1321 C1326 1.390 . S
C1322 C1316 1.465 . S
C1322 C1321 1.396 1_655 S
C1322 C1323 1.399 . S
C1323 H1309 0.929 . S
C1323 C1322 1.399 . S
C1323 C1324 1.385 1_655 S
C1324 H1310 0.931 . S
C1324 C1323 1.385 1_455 S
C1324 C1325 1.389 . S
C1325 C1324 1.389 . S
C1325 C1326 1.387 . S
C1326 H1311 0.930 . S
C1326 C1321 1.390 . S
C1326 C1325 1.387 . S
H1327 C1339 0.930 . S
H1328 C1341 0.930 . S
H1329 C1342 0.930 . S
H1330 C1346 0.959 . S
H1331 C1346 0.959 . S
H1332 C1346 0.961 . S
H1333 C1347 0.960 . S
H1334 C1347 0.961 . S
H1335 C1347 0.959 . S
H1336 C1350 0.929 . S
H1337 C1351 0.931 . S
H1338 C1353 0.930 . S
C1339 H1327 0.930 . S
C1339 C1340 1.399 . S
C1339 C1344 1.399 . S
C1340 C1339 1.399 . S
C1340 C1341 1.376 . S
C1341 H1328 0.930 . S
C1341 C1340 1.376 . S
C1341 C1342 1.388 . S
C1342 H1329 0.930 . S
C1342 C1341 1.388 . S
C1342 C1343 1.390 . S
C1343 C1342 1.390 . S
C1343 C1344 1.394 . S
C1343 C1349 1.465 . S
C1344 C1339 1.399 . S
C1344 C1343 1.394 . S
C1344 C1345 1.516 . S
C1345 C1344 1.516 . S
C1345 C1346 1.502 . S
C1345 C1347 1.561 . S
C1345 C1348 1.526 . S
C1346 H1330 0.959 . S
C1346 H1331 0.959 . S
C1346 H1332 0.961 . S
C1346 C1345 1.502 . S
C1347 H1333 0.960 . S
C1347 H1334 0.961 . S
C1347 H1335 0.959 . S
C1347 C1345 1.561 . S
C1348 C1345 1.526 . S
C1348 C1349 1.396 . S
C1348 C1353 1.390 . S
C1349 C1343 1.465 . S
C1349 C1348 1.396 . S
C1349 C1350 1.399 . S
C1350 H1336 0.929 . S
C1350 C1349 1.399 . S
C1350 C1351 1.385 . S
C1351 H1337 0.931 . S
C1351 C1350 1.385 . S
C1351 C1352 1.389 . S
C1352 C1351 1.389 . S
C1352 C1353 1.387 . S
C1353 H1338 0.930 . S
C1353 C1348 1.390 . S
C1353 C1352 1.387 . S
H1354 C1366 0.937 . S
H1355 C1368 0.930 . S
H1356 C1369 0.930 . S
H1357 C1373 0.959 . S
H1358 C1373 0.959 . S
H1359 C1373 0.961 . S
H1360 C1374 0.960 . S
H1361 C1374 0.961 1_554 S
H1362 C1374 0.959 . S
H1363 C1377 0.929 . S
H1364 C1378 0.931 . S
H1365 C1380 0.930 . S
C1366 H1354 0.937 . S
C1366 C1367 1.399 . S
C1366 C1371 1.399 . S
C1367 C1366 1.399 . S
C1367 C1368 1.376 . S
C1368 H1355 0.930 . S
C1368 C1367 1.376 . S
C1368 C1369 1.388 . S
C1369 H1356 0.930 . S
C1369 C1368 1.388 . S
C1369 C1370 1.390 . S
C1370 C1369 1.390 . S
C1370 C1371 1.394 . S
C1370 C1376 1.465 . S
C1371 C1366 1.399 . S
C1371 C1370 1.394 . S
C1371 C1372 1.516 . S
C1372 C1371 1.516 . S
C1372 C1373 1.502 1_545 S
C1372 C1374 1.561 . S
C1372 C1375 1.526 . S
C1373 H1357 0.959 . S
C1373 H1358 0.959 . S
C1373 H1359 0.961 . S
C1373 C1372 1.502 1_565 S
C1374 H1360 0.960 . S
C1374 H1361 0.961 1_556 S
C1374 H1362 0.959 . S
C1374 C1372 1.561 . S
C1375 C1372 1.526 . S
C1375 C1376 1.396 . S
C1375 C1380 1.390 1_556 S
C1376 C1370 1.465 . S
C1376 C1375 1.396 . S
C1376 C1377 1.399 . S
C1377 H1363 0.929 . S
C1377 C1376 1.399 . S
C1377 C1378 1.385 . S
C1378 H1364 0.931 . S
C1378 C1377 1.385 . S
C1378 C1379 1.389 1_556 S
C1379 C1378 1.389 1_554 S
C1379 C1380 1.387 . S
C1380 H1365 0.930 . S
C1380 C1375 1.390 1_554 S
C1380 C1379 1.387 . S
H1381 C1393 0.930 . S
H1382 C1395 0.930 . S
H1383 C1396 0.930 . S
H1384 C1400 0.959 . S
H1385 C1400 0.959 . S
H1386 C1400 0.961 . S
H1387 C1401 0.960 . S
H1388 C1401 0.961 . S
H1389 C1401 0.959 . S
H1390 C1404 0.929 . S
H1391 C1405 0.931 . S
H1392 C1407 0.930 . S
C1393 H1381 0.930 . S
C1393 C1394 1.399 . S
C1393 C1398 1.399 . S
C1394 C1393 1.399 . S
C1394 C1395 1.376 . S
C1395 H1382 0.930 . S
C1395 C1394 1.376 . S
C1395 C1396 1.388 . S
C1396 H1383 0.930 . S
C1396 C1395 1.388 . S
C1396 C1397 1.390 . S
C1397 C1396 1.390 . S
C1397 C1398 1.394 . S
C1397 C1403 1.465 . S
C1398 C1393 1.399 . S
C1398 C1397 1.394 . S
C1398 C1399 1.516 . S
C1399 C1398 1.516 . S
C1399 C1400 1.502 . S
C1399 C1401 1.561 . S
C1399 C1402 1.526 . S
C1400 H1384 0.959 . S
C1400 H1385 0.959 . S
C1400 H1386 0.961 . S
C1400 C1399 1.502 . S
C1401 H1387 0.960 . S
C1401 H1388 0.961 . S
C1401 H1389 0.959 . S
C1401 C1399 1.561 . S
C1402 C1399 1.526 . S
C1402 C1403 1.396 . S
C1402 C1407 1.390 . S
C1403 C1397 1.465 . S
C1403 C1402 1.396 . S
C1403 C1404 1.399 . S
C1404 H1390 0.929 . S
C1404 C1403 1.399 . S
C1404 C1405 1.385 . S
C1405 H1391 0.931 . S
C1405 C1404 1.385 . S
C1405 C1406 1.389 . S
C1406 C1405 1.389 . S
C1406 C1407 1.387 . S
C1407 H1392 0.930 . S
C1407 C1402 1.390 . S
C1407 C1406 1.387 . S
H1408 C1420 0.930 . S
H1409 C1422 0.930 . S
H1410 C1423 0.930 . S
H1411 C1427 0.959 . S
H1412 C1427 0.959 . S
H1413 C1427 0.961 . S
H1414 C1428 0.960 . S
H1415 C1428 0.961 . S
H1416 C1428 0.959 . S
H1417 C1431 0.929 . S
H1418 C1432 0.931 . S
H1419 C1434 0.930 . S
C1420 H1408 0.930 . S
C1420 C1421 1.399 . S
C1420 C1425 1.399 . S
C1421 C1420 1.399 . S
C1421 C1422 1.376 . S
C1422 H1409 0.930 . S
C1422 C1421 1.376 . S
C1422 C1423 1.388 . S
C1423 H1410 0.930 . S
C1423 C1422 1.388 . S
C1423 C1424 1.390 . S
C1424 C1423 1.390 . S
C1424 C1425 1.394 . S
C1424 C1430 1.465 . S
C1425 C1420 1.399 . S
C1425 C1424 1.394 . S
C1425 C1426 1.516 . S
C1426 C1425 1.516 . S
C1426 C1427 1.502 1_565 S
C1426 C1428 1.561 . S
C1426 C1429 1.526 1_565 S
C1427 H1411 0.959 . S
C1427 H1412 0.959 . S
C1427 H1413 0.961 . S
C1427 C1426 1.502 1_545 S
C1428 H1414 0.960 . S
C1428 H1415 0.961 . S
C1428 H1416 0.959 . S
C1428 C1426 1.561 . S
C1429 C1426 1.526 1_545 S
C1429 C1430 1.396 1_545 S
C1429 C1434 1.390 . S
C1430 C1424 1.465 . S
C1430 C1429 1.396 1_565 S
C1430 C1431 1.399 . S
C1431 H1417 0.929 . S
C1431 C1430 1.399 . S
C1431 C1432 1.385 1_565 S
C1432 H1418 0.931 . S
C1432 C1431 1.385 1_545 S
C1432 C1433 1.389 . S
C1433 C1432 1.389 . S
C1433 C1434 1.387 . S
C1434 H1419 0.930 . S
C1434 C1429 1.390 . S
C1434 C1433 1.387 . S
H1435 C1447 0.930 . S
H1436 C1449 0.930 . S
H1437 C1450 0.930 . S
H1438 C1454 0.959 . S
H1439 C1454 0.959 . S
H1440 C1454 0.961 . S
H1441 C1455 0.960 1_556 S
H1442 C1455 0.961 . S
H1443 C1455 0.959 . S
H1444 C1458 0.929 . S
H1445 C1459 0.931 . S
H1446 C1461 0.930 . S
C1447 H1435 0.930 . S
C1447 C1448 1.399 1_556 S
C1447 C1452 1.399 1_556 S
C1448 C1447 1.399 1_554 S
C1448 C1449 1.376 . S
C1449 H1436 0.930 . S
C1449 C1448 1.376 . S
C1449 C1450 1.388 . S
C1450 H1437 0.930 . S
C1450 C1449 1.388 . S
C1450 C1451 1.390 . S
C1451 C1450 1.390 . S
C1451 C1452 1.394 . S
C1451 C1457 1.465 . S
C1452 C1447 1.399 1_554 S
C1452 C1451 1.394 . S
C1452 C1453 1.516 . S
C1453 C1452 1.516 . S
C1453 C1454 1.502 1_554 S
C1453 C1455 1.561 . S
C1453 C1456 1.526 . S
C1454 H1438 0.959 . S
C1454 H1439 0.959 . S
C1454 H1440 0.961 . S
C1454 C1453 1.502 1_556 S
C1455 H1441 0.960 1_554 S
C1455 H1442 0.961 . S
C1455 H1443 0.959 . S
C1455 C1453 1.561 . S
C1456 C1453 1.526 . S
C1456 C1457 1.396 . S
C1456 C1461 1.390 . S
C1457 C1451 1.465 . S
C1457 C1456 1.396 . S
C1457 C1458 1.399 . S
C1458 H1444 0.929 . S
C1458 C1457 1.399 . S
C1458 C1459 1.385 . S
C1459 H1445 0.931 . S
C1459 C1458 1.385 . S
C1459 C1460 1.389 . S
C1460 C1459 1.389 . S
C1460 C1461 1.387 . S
C1461 H1446 0.930 . S
C1461 C1456 1.390 . S
C1461 C1460 1.387 . S
H1462 C1474 0.930 . S
H1463 C1476 0.930 . S
H1464 C1477 0.930 . S
H1465 C1481 0.959 . S
H1466 C1481 0.959 . S
H1467 C1481 0.961 . S
H1468 C1482 0.960 . S
H1469 C1482 0.961 . S
H1470 C1482 0.959 . S
H1471 C1485 0.929 . S
H1472 C1486 0.931 . S
H1473 C1488 0.930 . S
C1474 H1462 0.930 . S
C1474 C1475 1.399 . S
C1474 C1479 1.399 . S
C1475 C1474 1.399 . S
C1475 C1476 1.376 . S
C1476 H1463 0.930 . S
C1476 C1475 1.376 . S
C1476 C1477 1.388 . S
C1477 H1464 0.930 . S
C1477 C1476 1.388 . S
C1477 C1478 1.390 . S
C1478 C1477 1.390 . S
C1478 C1479 1.394 . S
C1478 C1484 1.465 . S
C1479 C1474 1.399 . S
C1479 C1478 1.394 . S
C1479 C1480 1.516 . S
C1480 C1479 1.516 . S
C1480 C1481 1.502 . S
C1480 C1482 1.561 . S
C1480 C1483 1.526 . S
C1481 H1465 0.959 . S
C1481 H1466 0.959 . S
C1481 H1467 0.961 . S
C1481 C1480 1.502 . S
C1482 H1468 0.960 . S
C1482 H1469 0.961 . S
C1482 H1470 0.959 . S
C1482 C1480 1.561 . S
C1483 C1480 1.526 . S
C1483 C1484 1.396 . S
C1483 C1488 1.390 . S
C1484 C1478 1.465 . S
C1484 C1483 1.396 . S
C1484 C1485 1.399 . S
C1485 H1471 0.929 . S
C1485 C1484 1.399 . S
C1485 C1486 1.385 . S
C1486 H1472 0.931 . S
C1486 C1485 1.385 . S
C1486 C1487 1.389 . S
C1487 C1486 1.389 . S
C1487 C1488 1.387 . S
C1488 H1473 0.930 . S
C1488 C1483 1.390 . S
C1488 C1487 1.387 . S
H1489 C1501 0.930 . S
H1490 C1503 0.930 . S
H1491 C1504 0.930 . S
H1492 C1508 0.959 . S
H1493 C1508 0.959 . S
H1494 C1508 0.961 . S
H1495 C1509 0.960 . S
H1496 C1509 0.961 . S
H1497 C1509 0.959 . S
H1498 C1512 0.929 . S
H1499 C1513 0.931 . S
H1500 C1515 0.930 . S
C1501 H1489 0.930 . S
C1501 C1502 1.399 . S
C1501 C1506 1.399 . S
C1502 C1501 1.399 . S
C1502 C1503 1.376 . S
C1503 H1490 0.930 . S
C1503 C1502 1.376 . S
C1503 C1504 1.388 . S
C1504 H1491 0.930 . S
C1504 C1503 1.388 . S
C1504 C1505 1.390 . S
C1505 C1504 1.390 . S
C1505 C1506 1.394 . S
C1505 C1511 1.465 . S
C1506 C1501 1.399 . S
C1506 C1505 1.394 . S
C1506 C1507 1.516 . S
C1507 C1506 1.516 . S
C1507 C1508 1.502 . S
C1507 C1509 1.561 . S
C1507 C1510 1.526 . S
C1508 H1492 0.959 . S
C1508 H1493 0.959 . S
C1508 H1494 0.961 . S
C1508 C1507 1.502 . S
C1509 H1495 0.960 . S
C1509 H1496 0.961 . S
C1509 H1497 0.959 . S
C1509 C1507 1.561 . S
C1510 C1507 1.526 . S
C1510 C1511 1.396 . S
C1510 C1515 1.390 . S
C1511 C1505 1.465 . S
C1511 C1510 1.396 . S
C1511 C1512 1.399 . S
C1512 H1498 0.929 . S
C1512 C1511 1.399 . S
C1512 C1513 1.385 . S
C1513 H1499 0.931 . S
C1513 C1512 1.385 . S
C1513 C1514 1.389 . S
C1514 C1513 1.389 . S
C1514 C1515 1.387 . S
C1515 H1500 0.930 . S
C1515 C1510 1.390 . S
C1515 C1514 1.387 . S
H1516 C1528 0.930 . S
H1517 C1530 0.930 . S
H1518 C1531 0.930 . S
H1519 C1535 0.959 . S
H1520 C1535 0.959 . S
H1521 C1535 0.961 . S
H1522 C1536 0.960 . S
H1523 C1536 0.961 . S
H1524 C1536 0.959 . S
H1525 C1539 0.929 . S
H1526 C1540 0.931 . S
H1527 C1542 0.930 . S
C1528 H1516 0.930 . S
C1528 C1529 1.399 . S
C1528 C1533 1.399 . S
C1529 C1528 1.399 . S
C1529 C1530 1.376 . S
C1530 H1517 0.930 . S
C1530 C1529 1.376 . S
C1530 C1531 1.388 . S
C1531 H1518 0.930 . S
C1531 C1530 1.388 . S
C1531 C1532 1.390 . S
C1532 C1531 1.390 . S
C1532 C1533 1.394 . S
C1532 C1538 1.465 . S
C1533 C1528 1.399 . S
C1533 C1532 1.394 . S
C1533 C1534 1.516 . S
C1534 C1533 1.516 . S
C1534 C1535 1.502 . S
C1534 C1536 1.561 . S
C1534 C1537 1.526 . S
C1535 H1519 0.959 . S
C1535 H1520 0.959 . S
C1535 H1521 0.961 . S
C1535 C1534 1.502 . S
C1536 H1522 0.960 . S
C1536 H1523 0.961 . S
C1536 H1524 0.959 . S
C1536 C1534 1.561 . S
C1537 C1534 1.526 . S
C1537 C1538 1.396 . S
C1537 C1542 1.390 . S
C1538 C1532 1.465 . S
C1538 C1537 1.396 . S
C1538 C1539 1.399 . S
C1539 H1525 0.929 . S
C1539 C1538 1.399 . S
C1539 C1540 1.385 . S
C1540 H1526 0.931 . S
C1540 C1539 1.385 . S
C1540 C1541 1.389 . S
C1541 C1540 1.389 . S
C1541 C1542 1.387 . S
C1542 H1527 0.930 . S
C1542 C1537 1.390 . S
C1542 C1541 1.387 . S
H1543 C1555 0.930 . S
H1544 C1557 0.930 . S
H1545 C1558 0.930 . S
H1546 C1562 0.959 . S
H1547 C1562 0.959 . S
H1548 C1562 0.961 . S
H1549 C1563 0.960 . S
H1550 C1563 0.961 . S
H1551 C1563 0.959 . S
H1552 C1566 0.929 . S
H1553 C1567 0.931 . S
H1554 C1569 0.930 . S
C1555 H1543 0.930 . S
C1555 C1556 1.399 . S
C1555 C1560 1.399 . S
C1556 C1555 1.399 . S
C1556 C1557 1.376 . S
C1557 H1544 0.930 . S
C1557 C1556 1.376 . S
C1557 C1558 1.388 . S
C1558 H1545 0.930 . S
C1558 C1557 1.388 . S
C1558 C1559 1.390 . S
C1559 C1558 1.390 . S
C1559 C1560 1.394 . S
C1559 C1565 1.465 . S
C1560 C1555 1.399 . S
C1560 C1559 1.394 . S
C1560 C1561 1.516 . S
C1561 C1560 1.516 . S
C1561 C1562 1.502 . S
C1561 C1563 1.561 . S
C1561 C1564 1.526 . S
C1562 H1546 0.959 . S
C1562 H1547 0.959 . S
C1562 H1548 0.961 . S
C1562 C1561 1.502 . S
C1563 H1549 0.960 . S
C1563 H1550 0.961 . S
C1563 H1551 0.959 . S
C1563 C1561 1.561 . S
C1564 C1561 1.526 . S
C1564 C1565 1.396 . S
C1564 C1569 1.390 . S
C1565 C1559 1.465 . S
C1565 C1564 1.396 . S
C1565 C1566 1.399 . S
C1566 H1552 0.929 . S
C1566 C1565 1.399 . S
C1566 C1567 1.385 . S
C1567 H1553 0.931 . S
C1567 C1566 1.385 . S
C1567 C1568 1.389 . S
C1568 C1567 1.389 . S
C1568 C1569 1.387 . S
C1569 H1554 0.930 . S
C1569 C1564 1.390 . S
C1569 C1568 1.387 . S
H1570 C1582 0.930 . S
H1571 C1584 0.930 . S
H1572 C1585 0.930 . S
H1573 C1589 0.959 . S
H1574 C1589 0.959 . S
H1575 C1589 0.961 . S
H1576 C1590 0.960 . S
H1577 C1590 0.961 . S
H1578 C1590 0.959 . S
H1579 C1593 0.929 . S
H1580 C1594 0.931 . S
H1581 C1596 0.930 . S
C1582 H1570 0.930 . S
C1582 C1583 1.399 . S
C1582 C1587 1.399 . S
C1583 C1582 1.399 . S
C1583 C1584 1.376 . S
C1584 H1571 0.930 . S
C1584 C1583 1.376 . S
C1584 C1585 1.388 . S
C1585 H1572 0.930 . S
C1585 C1584 1.388 . S
C1585 C1586 1.390 . S
C1586 C1585 1.390 . S
C1586 C1587 1.394 . S
C1586 C1592 1.465 . S
C1587 C1582 1.399 . S
C1587 C1586 1.394 . S
C1587 C1588 1.516 . S
C1588 C1587 1.516 . S
C1588 C1589 1.502 . S
C1588 C1590 1.561 . S
C1588 C1591 1.526 . S
C1589 H1573 0.959 . S
C1589 H1574 0.959 . S
C1589 H1575 0.961 . S
C1589 C1588 1.502 . S
C1590 H1576 0.960 . S
C1590 H1577 0.961 . S
C1590 H1578 0.959 . S
C1590 C1588 1.561 . S
C1591 C1588 1.526 . S
C1591 C1592 1.396 . S
C1591 C1596 1.390 . S
C1592 C1586 1.465 . S
C1592 C1591 1.396 . S
C1592 C1593 1.399 . S
C1593 H1579 0.929 . S
C1593 C1592 1.399 . S
C1593 C1594 1.385 . S
C1594 H1580 0.931 . S
C1594 C1593 1.385 . S
C1594 C1595 1.389 . S
C1595 C1594 1.389 . S
C1595 C1596 1.387 . S
C1596 H1581 0.930 . S
C1596 C1591 1.390 . S
C1596 C1595 1.387 . S
H1597 C1609 0.930 . S
H1598 C1611 0.930 . S
H1599 C1612 0.930 . S
H1600 C1616 0.959 . S
H1601 C1616 0.959 . S
H1602 C1616 0.961 . S
H1603 C1617 0.960 . S
H1604 C1617 0.961 . S
H1605 C1617 0.959 . S
H1606 C1620 0.929 . S
H1607 C1621 0.931 . S
H1608 C1623 0.930 . S
C1609 H1597 0.930 . S
C1609 C1610 1.399 . S
C1609 C1614 1.399 . S
C1610 C1609 1.399 . S
C1610 C1611 1.376 . S
C1611 H1598 0.930 . S
C1611 C1610 1.376 . S
C1611 C1612 1.388 . S
C1612 H1599 0.930 . S
C1612 C1611 1.388 . S
C1612 C1613 1.390 . S
C1613 C1612 1.390 . S
C1613 C1614 1.394 . S
C1613 C1619 1.465 . S
C1614 C1609 1.399 . S
C1614 C1613 1.394 . S
C1614 C1615 1.516 . S
C1615 C1614 1.516 . S
C1615 C1616 1.502 . S
C1615 C1617 1.561 . S
C1615 C1618 1.526 . S
C1616 H1600 0.959 . S
C1616 H1601 0.959 . S
C1616 H1602 0.961 . S
C1616 C1615 1.502 . S
C1617 H1603 0.960 . S
C1617 H1604 0.961 . S
C1617 H1605 0.959 . S
C1617 C1615 1.561 . S
C1618 C1615 1.526 . S
C1618 C1619 1.396 . S
C1618 C1623 1.390 . S
C1619 C1613 1.465 . S
C1619 C1618 1.396 . S
C1619 C1620 1.399 . S
C1620 H1606 0.929 . S
C1620 C1619 1.399 . S
C1620 C1621 1.385 . S
C1621 H1607 0.931 . S
C1621 C1620 1.385 . S
C1621 C1622 1.389 . S
C1622 C1621 1.389 . S
C1622 C1623 1.387 . S
C1623 H1608 0.930 . S
C1623 C1618 1.390 . S
C1623 C1622 1.387 . S
H1624 C1636 0.930 . S
H1625 C1638 0.930 . S
H1626 C1639 0.930 . S
H1627 C1643 0.959 1_655 S
H1628 C1643 0.959 1_655 S
H1629 C1643 0.961 1_655 S
H1630 C1644 0.960 . S
H1631 C1644 0.961 . S
H1632 C1644 0.959 . S
H1633 C1647 0.929 . S
H1634 C1648 0.931 . S
H1635 C1650 0.930 . S
C1636 H1624 0.930 . S
C1636 C1637 1.399 . S
C1636 C1641 1.399 . S
C1637 C1636 1.399 . S
C1637 C1638 1.376 . S
C1638 H1625 0.930 . S
C1638 C1637 1.376 . S
C1638 C1639 1.388 . S
C1639 H1626 0.930 . S
C1639 C1638 1.388 . S
C1639 C1640 1.390 . S
C1640 C1639 1.390 . S
C1640 C1641 1.394 . S
C1640 C1646 1.465 . S
C1641 C1636 1.399 . S
C1641 C1640 1.394 . S
C1641 C1642 1.516 . S
C1642 C1641 1.516 . S
C1642 C1643 1.502 . S
C1642 C1644 1.561 . S
C1642 C1645 1.526 . S
C1643 H1627 0.959 1_455 S
C1643 H1628 0.959 1_455 S
C1643 H1629 0.961 1_455 S
C1643 C1642 1.502 . S
C1644 H1630 0.960 . S
C1644 H1631 0.961 . S
C1644 H1632 0.959 . S
C1644 C1642 1.561 . S
C1645 C1642 1.526 . S
C1645 C1646 1.396 . S
C1645 C1650 1.390 . S
C1646 C1640 1.465 . S
C1646 C1645 1.396 . S
C1646 C1647 1.399 . S
C1647 H1633 0.929 . S
C1647 C1646 1.399 . S
C1647 C1648 1.385 . S
C1648 H1634 0.931 . S
C1648 C1647 1.385 . S
C1648 C1649 1.389 . S
C1649 C1648 1.389 . S
C1649 C1650 1.387 . S
C1650 H1635 0.930 . S
C1650 C1645 1.390 . S
C1650 C1649 1.387 . S
H1651 C1663 0.930 . S
H1652 C1665 0.930 . S
H1653 C1666 0.930 . S
H1654 C1670 0.959 . S
H1655 C1670 0.959 . S
H1656 C1670 0.961 . S
H1657 C1671 0.960 . S
H1658 C1671 0.961 . S
H1659 C1671 0.959 . S
H1660 C1674 0.929 . S
H1661 C1675 0.931 . S
H1662 C1677 0.930 . S
C1663 H1651 0.930 . S
C1663 C1664 1.399 . S
C1663 C1668 1.399 . S
C1664 C1663 1.399 . S
C1664 C1665 1.376 . S
C1665 H1652 0.930 . S
C1665 C1664 1.376 . S
C1665 C1666 1.388 . S
C1666 H1653 0.930 . S
C1666 C1665 1.388 . S
C1666 C1667 1.390 . S
C1667 C1666 1.390 . S
C1667 C1668 1.394 . S
C1667 C1673 1.465 . S
C1668 C1663 1.399 . S
C1668 C1667 1.394 . S
C1668 C1669 1.516 . S
C1669 C1668 1.516 . S
C1669 C1670 1.502 . S
C1669 C1671 1.561 . S
C1669 C1672 1.526 . S
C1670 H1654 0.959 . S
C1670 H1655 0.959 . S
C1670 H1656 0.961 . S
C1670 C1669 1.502 . S
C1671 H1657 0.960 . S
C1671 H1658 0.961 . S
C1671 H1659 0.959 . S
C1671 C1669 1.561 . S
C1672 C1669 1.526 . S
C1672 C1673 1.396 . S
C1672 C1677 1.390 . S
C1673 C1667 1.465 . S
C1673 C1672 1.396 . S
C1673 C1674 1.399 . S
C1674 H1660 0.929 . S
C1674 C1673 1.399 . S
C1674 C1675 1.385 . S
C1675 H1661 0.931 . S
C1675 C1674 1.385 . S
C1675 C1676 1.389 . S
C1676 C1675 1.389 . S
C1676 C1677 1.387 . S
C1677 H1662 0.930 . S
C1677 C1672 1.390 . S
C1677 C1676 1.387 . S
H1678 C1690 0.930 . S
H1679 C1692 0.930 . S
H1680 C1693 0.930 . S
H1681 C1697 0.959 . S
H1682 C1697 0.959 . S
H1683 C1697 0.961 . S
H1684 C1698 0.960 . S
H1685 C1698 0.961 . S
H1686 C1698 0.959 . S
H1687 C1701 0.929 . S
H1688 C1702 0.931 . S
H1689 C1704 0.930 . S
C1690 H1678 0.930 . S
C1690 C1691 1.399 . S
C1690 C1695 1.399 . S
C1691 C1690 1.399 . S
C1691 C1692 1.376 . S
C1692 H1679 0.930 . S
C1692 C1691 1.376 . S
C1692 C1693 1.388 . S
C1693 H1680 0.930 . S
C1693 C1692 1.388 . S
C1693 C1694 1.390 . S
C1694 C1693 1.390 . S
C1694 C1695 1.394 . S
C1694 C1700 1.465 . S
C1695 C1690 1.399 . S
C1695 C1694 1.394 . S
C1695 C1696 1.516 . S
C1696 C1695 1.516 . S
C1696 C1697 1.502 . S
C1696 C1698 1.561 . S
C1696 C1699 1.526 . S
C1697 H1681 0.959 . S
C1697 H1682 0.959 . S
C1697 H1683 0.961 . S
C1697 C1696 1.502 . S
C1698 H1684 0.960 . S
C1698 H1685 0.961 . S
C1698 H1686 0.959 . S
C1698 C1696 1.561 . S
C1699 C1696 1.526 . S
C1699 C1700 1.396 . S
C1699 C1704 1.390 . S
C1700 C1694 1.465 . S
C1700 C1699 1.396 . S
C1700 C1701 1.399 . S
C1701 H1687 0.929 . S
C1701 C1700 1.399 . S
C1701 C1702 1.385 . S
C1702 H1688 0.931 . S
C1702 C1701 1.385 . S
C1702 C1703 1.389 . S
C1703 C1702 1.389 . S
C1703 C1704 1.387 . S
C1704 H1689 0.930 . S
C1704 C1699 1.390 . S
C1704 C1703 1.387 . S
H1705 C1717 0.930 . S
H1706 C1719 0.930 . S
H1707 C1720 0.930 . S
H1708 C1724 0.959 . S
H1709 C1724 0.959 . S
H1710 C1724 0.961 . S
H1711 C1725 0.960 . S
H1712 C1725 0.961 . S
H1713 C1725 0.959 . S
H1714 C1728 0.929 . S
H1715 C1729 0.931 . S
H1716 C1731 0.930 . S
C1717 H1705 0.930 . S
C1717 C1718 1.399 . S
C1717 C1722 1.399 . S
C1718 C1717 1.399 . S
C1718 C1719 1.376 . S
C1719 H1706 0.930 . S
C1719 C1718 1.376 . S
C1719 C1720 1.388 . S
C1720 H1707 0.930 . S
C1720 C1719 1.388 . S
C1720 C1721 1.390 . S
C1721 C1720 1.390 . S
C1721 C1722 1.394 . S
C1721 C1727 1.465 . S
C1722 C1717 1.399 . S
C1722 C1721 1.394 . S
C1722 C1723 1.516 . S
C1723 C1722 1.516 . S
C1723 C1724 1.502 . S
C1723 C1725 1.561 . S
C1723 C1726 1.526 . S
C1724 H1708 0.959 . S
C1724 H1709 0.959 . S
C1724 H1710 0.961 . S
C1724 C1723 1.502 . S
C1725 H1711 0.960 . S
C1725 H1712 0.961 . S
C1725 H1713 0.959 . S
C1725 C1723 1.561 . S
C1726 C1723 1.526 . S
C1726 C1727 1.396 . S
C1726 C1731 1.390 . S
C1727 C1721 1.465 . S
C1727 C1726 1.396 . S
C1727 C1728 1.399 . S
C1728 H1714 0.929 . S
C1728 C1727 1.399 . S
C1728 C1729 1.385 . S
C1729 H1715 0.931 . S
C1729 C1728 1.385 . S
C1729 C1730 1.389 . S
C1730 C1729 1.389 . S
C1730 C1731 1.387 . S
C1731 H1716 0.930 . S
C1731 C1726 1.390 . S
C1731 C1730 1.387 . S
H1732 C1744 0.930 . S
H1733 C1746 0.930 . S
H1734 C1747 0.930 . S
H1735 C1751 0.959 . S
H1736 C1751 0.959 . S
H1737 C1751 0.961 . S
H1738 C1752 0.960 . S
H1739 C1752 0.961 . S
H1740 C1752 0.959 . S
H1741 C1755 0.929 . S
H1742 C1756 0.931 . S
H1743 C1758 0.930 . S
C1744 H1732 0.930 . S
C1744 C1745 1.399 . S
C1744 C1749 1.399 . S
C1745 C1744 1.399 . S
C1745 C1746 1.376 . S
C1746 H1733 0.930 . S
C1746 C1745 1.376 . S
C1746 C1747 1.388 . S
C1747 H1734 0.930 . S
C1747 C1746 1.388 . S
C1747 C1748 1.390 . S
C1748 C1747 1.390 . S
C1748 C1749 1.394 . S
C1748 C1754 1.465 . S
C1749 C1744 1.399 . S
C1749 C1748 1.394 . S
C1749 C1750 1.516 . S
C1750 C1749 1.516 . S
C1750 C1751 1.502 . S
C1750 C1752 1.561 . S
C1750 C1753 1.526 . S
C1751 H1735 0.959 . S
C1751 H1736 0.959 . S
C1751 H1737 0.961 . S
C1751 C1750 1.502 . S
C1752 H1738 0.960 . S
C1752 H1739 0.961 . S
C1752 H1740 0.959 . S
C1752 C1750 1.561 . S
C1753 C1750 1.526 . S
C1753 C1754 1.396 . S
C1753 C1758 1.390 . S
C1754 C1748 1.465 . S
C1754 C1753 1.396 . S
C1754 C1755 1.399 . S
C1755 H1741 0.929 . S
C1755 C1754 1.399 . S
C1755 C1756 1.385 . S
C1756 H1742 0.931 . S
C1756 C1755 1.385 . S
C1756 C1757 1.389 . S
C1757 C1756 1.389 . S
C1757 C1758 1.387 . S
C1758 H1743 0.930 . S
C1758 C1753 1.390 . S
C1758 C1757 1.387 . S
H1759 C1771 0.930 . S
H1760 C1773 0.930 . S
H1761 C1774 0.930 . S
H1762 C1778 0.959 . S
H1763 C1778 0.959 . S
H1764 C1778 0.961 . S
H1765 C1779 0.960 . S
H1766 C1779 0.961 . S
H1767 C1779 0.959 . S
H1768 C1782 0.929 . S
H1769 C1783 0.931 . S
H1770 C1785 0.930 . S
C1771 H1759 0.930 . S
C1771 C1772 1.399 . S
C1771 C1776 1.399 . S
C1772 C1771 1.399 . S
C1772 C1773 1.376 . S
C1773 H1760 0.930 . S
C1773 C1772 1.376 . S
C1773 C1774 1.388 . S
C1774 H1761 0.930 . S
C1774 C1773 1.388 . S
C1774 C1775 1.390 . S
C1775 C1774 1.390 . S
C1775 C1776 1.394 . S
C1775 C1781 1.465 . S
C1776 C1771 1.399 . S
C1776 C1775 1.394 . S
C1776 C1777 1.516 . S
C1777 C1776 1.516 . S
C1777 C1778 1.502 . S
C1777 C1779 1.561 . S
C1777 C1780 1.526 . S
C1778 H1762 0.959 . S
C1778 H1763 0.959 . S
C1778 H1764 0.961 . S
C1778 C1777 1.502 . S
C1779 H1765 0.960 . S
C1779 H1766 0.961 . S
C1779 H1767 0.959 . S
C1779 C1777 1.561 . S
C1780 C1777 1.526 . S
C1780 C1781 1.396 . S
C1780 C1785 1.390 . S
C1781 C1775 1.465 . S
C1781 C1780 1.396 . S
C1781 C1782 1.399 . S
C1782 H1768 0.929 . S
C1782 C1781 1.399 . S
C1782 C1783 1.385 . S
C1783 H1769 0.931 . S
C1783 C1782 1.385 . S
C1783 C1784 1.389 . S
C1784 C1783 1.389 . S
C1784 C1785 1.387 . S
C1785 H1770 0.930 . S
C1785 C1780 1.390 . S
C1785 C1784 1.387 . S
H1786 C1798 0.930 . S
H1787 C1800 0.930 . S
H1788 C1801 0.930 . S
H1789 C1805 0.959 . S
H1790 C1805 0.959 . S
H1791 C1805 0.961 . S
H1792 C1806 0.960 . S
H1793 C1806 0.961 . S
H1794 C1806 0.959 . S
H1795 C1809 0.929 . S
H1796 C1810 0.931 . S
H1797 C1812 0.930 . S
C1798 H1786 0.930 . S
C1798 C1799 1.399 . S
C1798 C1803 1.399 . S
C1799 C1798 1.399 . S
C1799 C1800 1.376 . S
C1800 H1787 0.930 . S
C1800 C1799 1.376 . S
C1800 C1801 1.388 . S
C1801 H1788 0.930 . S
C1801 C1800 1.388 . S
C1801 C1802 1.390 . S
C1802 C1801 1.390 . S
C1802 C1803 1.394 . S
C1802 C1808 1.465 . S
C1803 C1798 1.399 . S
C1803 C1802 1.394 . S
C1803 C1804 1.516 . S
C1804 C1803 1.516 . S
C1804 C1805 1.502 . S
C1804 C1806 1.561 . S
C1804 C1807 1.526 . S
C1805 H1789 0.959 . S
C1805 H1790 0.959 . S
C1805 H1791 0.961 . S
C1805 C1804 1.502 . S
C1806 H1792 0.960 . S
C1806 H1793 0.961 . S
C1806 H1794 0.959 . S
C1806 C1804 1.561 . S
C1807 C1804 1.526 . S
C1807 C1808 1.396 . S
C1807 C1812 1.390 . S
C1808 C1802 1.465 . S
C1808 C1807 1.396 . S
C1808 C1809 1.399 1_565 S
C1809 H1795 0.929 . S
C1809 C1808 1.399 1_545 S
C1809 C1810 1.385 . S
C1810 H1796 0.931 . S
C1810 C1809 1.385 . S
C1810 C1811 1.389 . S
C1811 C1810 1.389 . S
C1811 C1812 1.387 1_545 S
C1812 H1797 0.930 . S
C1812 C1807 1.390 . S
C1812 C1811 1.387 1_565 S
H1813 C1825 0.930 . S
H1814 C1827 0.930 . S
H1815 C1828 0.930 . S
H1816 C1832 0.959 . S
H1817 C1832 0.959 . S
H1818 C1832 0.961 . S
H1819 C1833 0.960 . S
H1820 C1833 0.961 . S
H1821 C1833 0.959 . S
H1822 C1836 0.929 . S
H1823 C1837 0.931 . S
H1824 C1839 0.930 . S
C1825 H1813 0.930 . S
C1825 C1826 1.399 . S
C1825 C1830 1.399 . S
C1826 C1825 1.399 . S
C1826 C1827 1.376 . S
C1827 H1814 0.930 . S
C1827 C1826 1.376 . S
C1827 C1828 1.388 . S
C1828 H1815 0.930 . S
C1828 C1827 1.388 . S
C1828 C1829 1.390 . S
C1829 C1828 1.390 . S
C1829 C1830 1.394 . S
C1829 C1835 1.465 . S
C1830 C1825 1.399 . S
C1830 C1829 1.394 . S
C1830 C1831 1.516 . S
C1831 C1830 1.516 . S
C1831 C1832 1.502 . S
C1831 C1833 1.561 . S
C1831 C1834 1.526 . S
C1832 H1816 0.959 . S
C1832 H1817 0.959 . S
C1832 H1818 0.961 . S
C1832 C1831 1.502 . S
C1833 H1819 0.960 . S
C1833 H1820 0.961 . S
C1833 H1821 0.959 . S
C1833 C1831 1.561 . S
C1834 C1831 1.526 . S
C1834 C1835 1.396 . S
C1834 C1839 1.390 . S
C1835 C1829 1.465 . S
C1835 C1834 1.396 . S
C1835 C1836 1.399 . S
C1836 H1822 0.929 . S
C1836 C1835 1.399 . S
C1836 C1837 1.385 . S
C1837 H1823 0.931 . S
C1837 C1836 1.385 . S
C1837 C1838 1.389 . S
C1838 C1837 1.389 . S
C1838 C1839 1.387 . S
C1839 H1824 0.930 . S
C1839 C1834 1.390 . S
C1839 C1838 1.387 . S
H1840 C1852 0.930 . S
H1841 C1854 0.930 . S
H1842 C1855 0.930 . S
H1843 C1859 0.959 . S
H1844 C1859 0.959 1_565 S
H1845 C1859 0.961 1_565 S
H1846 C1860 0.960 1_565 S
H1847 C1860 0.961 1_565 S
H1848 C1860 0.959 . S
H1849 C1863 0.929 . S
H1850 C1864 0.931 . S
H1851 C1866 0.930 . S
C1852 H1840 0.930 . S
C1852 C1853 1.399 . S
C1852 C1857 1.399 . S
C1853 C1852 1.399 . S
C1853 C1854 1.376 . S
C1854 H1841 0.930 . S
C1854 C1853 1.376 . S
C1854 C1855 1.388 . S
C1855 H1842 0.930 . S
C1855 C1854 1.388 . S
C1855 C1856 1.390 . S
C1856 C1855 1.390 . S
C1856 C1857 1.394 . S
C1856 C1862 1.465 . S
C1857 C1852 1.399 . S
C1857 C1856 1.394 . S
C1857 C1858 1.516 . S
C1858 C1857 1.516 . S
C1858 C1859 1.502 . S
C1858 C1860 1.561 . S
C1858 C1861 1.526 . S
C1859 H1843 0.959 . S
C1859 H1844 0.959 1_545 S
C1859 H1845 0.961 1_545 S
C1859 C1858 1.502 . S
C1860 H1846 0.960 1_545 S
C1860 H1847 0.961 1_545 S
C1860 H1848 0.959 . S
C1860 C1858 1.561 . S
C1861 C1858 1.526 . S
C1861 C1862 1.396 . S
C1861 C1866 1.390 . S
C1862 C1856 1.465 . S
C1862 C1861 1.396 . S
C1862 C1863 1.399 . S
C1863 H1849 0.929 . S
C1863 C1862 1.399 . S
C1863 C1864 1.385 1_556 S
C1864 H1850 0.931 . S
C1864 C1863 1.385 1_554 S
C1864 C1865 1.393 1_554 S
C1865 C1864 1.393 1_556 S
C1865 C1866 1.396 . S
C1866 H1851 0.930 . S
C1866 C1861 1.390 . S
C1866 C1865 1.396 . S
H1867 C1879 0.930 . S
H1868 C1881 0.930 . S
H1869 C1882 0.930 . S
H1870 C1886 0.959 . S
H1871 C1886 0.959 . S
H1872 C1886 0.961 . S
H1873 C1887 0.960 . S
H1874 C1887 0.961 . S
H1875 C1887 0.959 . S
H1876 C1890 0.929 . S
H1877 C1891 0.931 . S
H1878 C1893 0.930 . S
C1879 H1867 0.930 . S
C1879 C1880 1.399 . S
C1879 C1884 1.399 . S
C1880 C1879 1.399 . S
C1880 C1881 1.376 . S
C1881 H1868 0.930 . S
C1881 C1880 1.376 . S
C1881 C1882 1.388 . S
C1882 H1869 0.930 . S
C1882 C1881 1.388 . S
C1882 C1883 1.390 . S
C1883 C1882 1.390 . S
C1883 C1884 1.394 . S
C1883 C1889 1.465 . S
C1884 C1879 1.399 . S
C1884 C1883 1.394 . S
C1884 C1885 1.516 . S
C1885 C1884 1.516 . S
C1885 C1886 1.502 . S
C1885 C1887 1.561 . S
C1885 C1888 1.526 . S
C1886 H1870 0.959 . S
C1886 H1871 0.959 . S
C1886 H1872 0.961 . S
C1886 C1885 1.502 . S
C1887 H1873 0.960 . S
C1887 H1874 0.961 . S
C1887 H1875 0.959 . S
C1887 C1885 1.561 . S
C1888 C1885 1.526 . S
C1888 C1889 1.396 . S
C1888 C1893 1.390 . S
C1889 C1883 1.465 . S
C1889 C1888 1.396 . S
C1889 C1890 1.399 . S
C1890 H1876 0.929 . S
C1890 C1889 1.399 . S
C1890 C1891 1.385 . S
C1891 H1877 0.931 . S
C1891 C1890 1.385 . S
C1891 C1892 1.389 . S
C1892 C1891 1.389 . S
C1892 C1893 1.387 . S
C1893 H1878 0.930 . S
C1893 C1888 1.390 . S
C1893 C1892 1.387 . S
H1894 C1906 0.930 . S
H1895 C1908 0.930 . S
H1896 C1909 0.930 . S
H1897 C1913 0.959 . S
H1898 C1913 0.959 . S
H1899 C1913 0.961 . S
H1900 C1914 0.960 . S
H1901 C1914 0.961 . S
H1902 C1914 0.959 . S
H1903 C1917 0.929 . S
H1904 C1918 0.931 . S
H1905 C1920 0.930 . S
C1906 H1894 0.930 . S
C1906 C1907 1.399 . S
C1906 C1911 1.399 . S
C1907 C1906 1.399 . S
C1907 C1908 1.376 . S
C1908 H1895 0.930 . S
C1908 C1907 1.376 . S
C1908 C1909 1.388 . S
C1909 H1896 0.930 . S
C1909 C1908 1.388 . S
C1909 C1910 1.390 . S
C1910 C1909 1.390 . S
C1910 C1911 1.394 . S
C1910 C1916 1.465 . S
C1911 C1906 1.399 . S
C1911 C1910 1.394 . S
C1911 C1912 1.516 . S
C1912 C1911 1.516 . S
C1912 C1913 1.502 . S
C1912 C1914 1.561 . S
C1912 C1915 1.526 . S
C1913 H1897 0.959 . S
C1913 H1898 0.959 . S
C1913 H1899 0.961 . S
C1913 C1912 1.502 . S
C1914 H1900 0.960 . S
C1914 H1901 0.961 . S
C1914 H1902 0.959 . S
C1914 C1912 1.561 . S
C1915 C1912 1.526 . S
C1915 C1916 1.396 . S
C1915 C1920 1.390 . S
C1916 C1910 1.465 . S
C1916 C1915 1.396 . S
C1916 C1917 1.399 . S
C1917 H1903 0.929 . S
C1917 C1916 1.399 . S
C1917 C1918 1.385 . S
C1918 H1904 0.931 . S
C1918 C1917 1.385 . S
C1918 C1919 1.389 . S
C1919 C1918 1.389 . S
C1919 C1920 1.387 . S
C1920 H1905 0.930 . S
C1920 C1915 1.390 . S
C1920 C1919 1.387 . S
H1921 C1933 0.930 . S
H1922 C1935 0.930 . S
H1923 C1936 0.930 . S
H1924 C1940 0.959 . S
H1925 C1940 0.959 . S
H1926 C1940 0.961 . S
H1927 C1941 0.960 . S
H1928 C1941 0.961 . S
H1929 C1941 0.959 . S
H1930 C1944 0.929 . S
H1931 C1945 0.931 . S
H1932 C1947 0.930 . S
C1933 H1921 0.930 . S
C1933 C1934 1.399 . S
C1933 C1938 1.399 . S
C1934 C1933 1.399 . S
C1934 C1935 1.376 . S
C1935 H1922 0.930 . S
C1935 C1934 1.376 . S
C1935 C1936 1.388 . S
C1936 H1923 0.930 . S
C1936 C1935 1.388 . S
C1936 C1937 1.390 . S
C1937 C1936 1.390 . S
C1937 C1938 1.394 . S
C1937 C1943 1.465 . S
C1938 C1933 1.399 . S
C1938 C1937 1.394 . S
C1938 C1939 1.516 . S
C1939 C1938 1.516 . S
C1939 C1940 1.502 . S
C1939 C1941 1.561 . S
C1939 C1942 1.526 . S
C1940 H1924 0.959 . S
C1940 H1925 0.959 . S
C1940 H1926 0.961 . S
C1940 C1939 1.502 . S
C1941 H1927 0.960 . S
C1941 H1928 0.961 . S
C1941 H1929 0.959 . S
C1941 C1939 1.561 . S
C1942 C1939 1.526 . S
C1942 C1943 1.396 . S
C1942 C1947 1.390 . S
C1943 C1937 1.465 . S
C1943 C1942 1.396 . S
C1943 C1944 1.399 . S
C1944 H1930 0.929 . S
C1944 C1943 1.399 . S
C1944 C1945 1.385 . S
C1945 H1931 0.931 . S
C1945 C1944 1.385 . S
C1945 C1946 1.389 . S
C1946 C1945 1.389 . S
C1946 C1947 1.387 . S
C1947 H1932 0.930 . S
C1947 C1942 1.390 . S
C1947 C1946 1.387 . S
H1948 C1960 0.930 . S
H1949 C1962 0.930 . S
H1950 C1963 0.930 . S
H1951 C1967 0.960 1_565 S
H1952 C1967 0.959 1_565 S
H1953 C1967 0.961 1_565 S
H1954 C1968 0.960 . S
H1955 C1968 0.961 . S
H1956 C1968 0.959 . S
H1957 C1971 0.929 . S
H1958 C1972 0.931 . S
H1959 C1974 0.930 . S
C1960 H1948 0.930 . S
C1960 C1961 1.399 . S
C1960 C1965 1.399 . S
C1961 C1960 1.399 . S
C1961 C1962 1.376 . S
C1962 H1949 0.930 . S
C1962 C1961 1.376 . S
C1962 C1963 1.388 . S
C1963 H1950 0.930 . S
C1963 C1962 1.388 . S
C1963 C1964 1.390 . S
C1964 C1963 1.390 . S
C1964 C1965 1.394 . S
C1964 C1970 1.465 . S
C1965 C1960 1.399 . S
C1965 C1964 1.394 . S
C1965 C1966 1.516 . S
C1966 C1965 1.516 . S
C1966 C1967 1.501 . S
C1966 C1968 1.561 . S
C1966 C1969 1.526 . S
C1967 H1951 0.960 1_545 S
C1967 H1952 0.959 1_545 S
C1967 H1953 0.961 1_545 S
C1967 C1966 1.501 . S
C1968 H1954 0.960 . S
C1968 H1955 0.961 . S
C1968 H1956 0.959 . S
C1968 C1966 1.561 . S
C1969 C1966 1.526 . S
C1969 C1970 1.396 . S
C1969 C1974 1.390 . S
C1970 C1964 1.465 . S
C1970 C1969 1.396 . S
C1970 C1971 1.399 . S
C1971 H1957 0.929 . S
C1971 C1970 1.399 . S
C1971 C1972 1.385 . S
C1972 H1958 0.931 . S
C1972 C1971 1.385 . S
C1972 C1973 1.389 . S
C1973 C1972 1.389 . S
C1973 C1974 1.387 . S
C1974 H1959 0.930 . S
C1974 C1969 1.390 . S
C1974 C1973 1.387 . S
H1975 C1987 0.930 . S
H1976 C1989 0.930 . S
H1977 C1990 0.930 . S
H1978 C1994 0.959 . S
H1979 C1994 0.959 . S
H1980 C1994 0.961 . S
H1981 C1995 0.960 . S
H1982 C1995 0.961 . S
H1983 C1995 0.959 . S
H1984 C1998 0.929 . S
H1985 C1999 0.931 . S
H1986 C2001 0.930 . S
C1987 H1975 0.930 . S
C1987 C1988 1.399 . S
C1987 C1992 1.399 . S
C1988 C1987 1.399 . S
C1988 C1989 1.376 . S
C1989 H1976 0.930 . S
C1989 C1988 1.376 . S
C1989 C1990 1.388 . S
C1990 H1977 0.930 . S
C1990 C1989 1.388 . S
C1990 C1991 1.390 . S
C1991 C1990 1.390 . S
C1991 C1992 1.394 . S
C1991 C1997 1.465 . S
C1992 C1987 1.399 . S
C1992 C1991 1.394 . S
C1992 C1993 1.516 . S
C1993 C1992 1.516 . S
C1993 C1994 1.502 . S
C1993 C1995 1.561 . S
C1993 C1996 1.526 . S
C1994 H1978 0.959 . S
C1994 H1979 0.959 . S
C1994 H1980 0.961 . S
C1994 C1993 1.502 . S
C1995 H1981 0.960 . S
C1995 H1982 0.961 . S
C1995 H1983 0.959 . S
C1995 C1993 1.561 . S
C1996 C1993 1.526 . S
C1996 C1997 1.396 . S
C1996 C2001 1.390 . S
C1997 C1991 1.465 . S
C1997 C1996 1.396 . S
C1997 C1998 1.399 . S
C1998 H1984 0.929 . S
C1998 C1997 1.399 . S
C1998 C1999 1.385 . S
C1999 H1985 0.931 . S
C1999 C1998 1.385 . S
C1999 C2000 1.389 . S
C2000 C1999 1.389 . S
C2000 C2001 1.387 . S
C2001 H1986 0.930 . S
C2001 C1996 1.390 . S
C2001 C2000 1.387 . S
H2002 C2014 0.930 . S
H2003 C2016 0.930 . S
H2004 C2017 0.930 . S
H2005 C2021 0.959 . S
H2006 C2021 0.959 . S
H2007 C2021 0.961 . S
H2008 C2022 0.960 . S
H2009 C2022 0.961 . S
H2010 C2022 0.959 . S
H2011 C2025 0.929 . S
H2012 C2026 0.931 . S
H2013 C2028 0.930 . S
C2014 H2002 0.930 . S
C2014 C2015 1.399 . S
C2014 C2019 1.399 . S
C2015 C2014 1.399 . S
C2015 C2016 1.376 . S
C2016 H2003 0.930 . S
C2016 C2015 1.376 . S
C2016 C2017 1.388 . S
C2017 H2004 0.930 . S
C2017 C2016 1.388 . S
C2017 C2018 1.390 . S
C2018 C2017 1.390 . S
C2018 C2019 1.394 . S
C2018 C2024 1.465 . S
C2019 C2014 1.399 . S
C2019 C2018 1.394 . S
C2019 C2020 1.516 . S
C2020 C2019 1.516 . S
C2020 C2021 1.502 . S
C2020 C2022 1.561 . S
C2020 C2023 1.526 . S
C2021 H2005 0.959 . S
C2021 H2006 0.959 . S
C2021 H2007 0.961 . S
C2021 C2020 1.502 . S
C2022 H2008 0.960 . S
C2022 H2009 0.961 . S
C2022 H2010 0.959 . S
C2022 C2020 1.561 . S
C2023 C2020 1.526 . S
C2023 C2024 1.396 . S
C2023 C2028 1.390 . S
C2024 C2018 1.465 . S
C2024 C2023 1.396 . S
C2024 C2025 1.399 . S
C2025 H2011 0.929 . S
C2025 C2024 1.399 . S
C2025 C2026 1.385 . S
C2026 H2012 0.931 . S
C2026 C2025 1.385 . S
C2026 C2027 1.389 . S
C2027 C2026 1.389 . S
C2027 C2028 1.387 . S
C2028 H2013 0.930 . S
C2028 C2023 1.390 . S
C2028 C2027 1.387 . S
H2029 C2041 0.930 . S
H2030 C2043 0.930 . S
H2031 C2044 0.930 . S
H2032 C2048 0.959 . S
H2033 C2048 0.959 . S
H2034 C2048 0.961 . S
H2035 C2049 0.960 . S
H2036 C2049 0.961 . S
H2037 C2049 0.959 . S
H2038 C2052 0.929 . S
H2039 C2053 0.931 . S
H2040 C2055 0.930 . S
C2041 H2029 0.930 . S
C2041 C2042 1.399 . S
C2041 C2046 1.399 . S
C2042 C2041 1.399 . S
C2042 C2043 1.376 . S
C2043 H2030 0.930 . S
C2043 C2042 1.376 . S
C2043 C2044 1.388 . S
C2044 H2031 0.930 . S
C2044 C2043 1.388 . S
C2044 C2045 1.390 . S
C2045 C2044 1.390 . S
C2045 C2046 1.394 . S
C2045 C2051 1.465 . S
C2046 C2041 1.399 . S
C2046 C2045 1.394 . S
C2046 C2047 1.516 . S
C2047 C2046 1.516 . S
C2047 C2048 1.502 . S
C2047 C2049 1.561 . S
C2047 C2050 1.526 . S
C2048 H2032 0.959 . S
C2048 H2033 0.959 . S
C2048 H2034 0.961 . S
C2048 C2047 1.502 . S
C2049 H2035 0.960 . S
C2049 H2036 0.961 . S
C2049 H2037 0.959 . S
C2049 C2047 1.561 . S
C2050 C2047 1.526 . S
C2050 C2051 1.396 . S
C2050 C2055 1.390 . S
C2051 C2045 1.465 . S
C2051 C2050 1.396 . S
C2051 C2052 1.399 . S
C2052 H2038 0.929 . S
C2052 C2051 1.399 . S
C2052 C2053 1.385 . S
C2053 H2039 0.931 . S
C2053 C2052 1.385 . S
C2053 C2054 1.389 . S
C2054 C2053 1.389 . S
C2054 C2055 1.387 . S
C2055 H2040 0.930 . S
C2055 C2050 1.390 . S
C2055 C2054 1.387 . S
H2056 C2068 0.930 . S
H2057 C2070 0.930 . S
H2058 C2071 0.930 . S
H2059 C2075 0.959 . S
H2060 C2075 0.959 . S
H2061 C2075 0.961 . S
H2062 C2076 0.949 1_556 S
H2063 C2076 0.961 1_556 S
H2064 C2076 0.959 . S
H2065 C2079 0.929 . S
H2066 C2080 0.931 1_455 S
H2067 C2082 0.930 . S
C2068 H2056 0.930 . S
C2068 C2069 1.399 . S
C2068 C2073 1.399 . S
C2069 C2068 1.399 . S
C2069 C2070 1.376 . S
C2070 H2057 0.930 . S
C2070 C2069 1.376 . S
C2070 C2071 1.388 . S
C2071 H2058 0.930 . S
C2071 C2070 1.388 . S
C2071 C2072 1.390 . S
C2072 C2071 1.390 . S
C2072 C2073 1.394 . S
C2072 C2078 1.465 . S
C2073 C2068 1.399 . S
C2073 C2072 1.394 . S
C2073 C2074 1.516 . S
C2074 C2073 1.516 . S
C2074 C2075 1.502 . S
C2074 C2076 1.561 . S
C2074 C2077 1.526 . S
C2075 H2059 0.959 . S
C2075 H2060 0.959 . S
C2075 H2061 0.961 . S
C2075 C2074 1.502 . S
C2076 H2062 0.949 1_554 S
C2076 H2063 0.961 1_554 S
C2076 H2064 0.959 . S
C2076 C2074 1.561 . S
C2077 C2074 1.526 . S
C2077 C2078 1.396 . S
C2077 C2082 1.390 . S
C2078 C2072 1.465 . S
C2078 C2077 1.396 . S
C2078 C2079 1.399 . S
C2079 H2065 0.929 . S
C2079 C2078 1.399 . S
C2079 C2080 1.385 . S
C2080 H2066 0.931 1_655 S
C2080 C2079 1.385 . S
C2080 C2081 1.389 . S
C2081 C2080 1.389 . S
C2081 C2082 1.387 . S
C2082 H2067 0.930 . S
C2082 C2077 1.390 . S
C2082 C2081 1.387 . S
H2083 C2095 0.930 . S
H2084 C2097 0.930 . S
H2085 C2098 0.930 . S
H2086 C2102 0.959 . S
H2087 C2102 0.959 . S
H2088 C2102 0.961 . S
H2089 C2103 0.960 . S
H2090 C2103 0.961 . S
H2091 C2103 0.959 . S
H2092 C2106 0.929 . S
H2093 C2107 0.931 . S
H2094 C2109 0.930 . S
C2095 H2083 0.930 . S
C2095 C2096 1.399 . S
C2095 C2100 1.399 . S
C2096 C2095 1.399 . S
C2096 C2097 1.376 . S
C2097 H2084 0.930 . S
C2097 C2096 1.376 . S
C2097 C2098 1.388 . S
C2098 H2085 0.930 . S
C2098 C2097 1.388 . S
C2098 C2099 1.390 . S
C2099 C2098 1.390 . S
C2099 C2100 1.394 . S
C2099 C2105 1.465 . S
C2100 C2095 1.399 . S
C2100 C2099 1.394 . S
C2100 C2101 1.516 . S
C2101 C2100 1.516 . S
C2101 C2102 1.502 . S
C2101 C2103 1.561 . S
C2101 C2104 1.526 . S
C2102 H2086 0.959 . S
C2102 H2087 0.959 . S
C2102 H2088 0.961 . S
C2102 C2101 1.502 . S
C2103 H2089 0.960 . S
C2103 H2090 0.961 . S
C2103 H2091 0.959 . S
C2103 C2101 1.561 . S
C2104 C2101 1.526 . S
C2104 C2105 1.396 . S
C2104 C2109 1.390 . S
C2105 C2099 1.465 . S
C2105 C2104 1.396 . S
C2105 C2106 1.399 . S
C2106 H2092 0.929 . S
C2106 C2105 1.399 . S
C2106 C2107 1.385 . S
C2107 H2093 0.931 . S
C2107 C2106 1.385 . S
C2107 C2108 1.389 . S
C2108 C2107 1.389 . S
C2108 C2109 1.387 . S
C2109 H2094 0.930 . S
C2109 C2104 1.390 . S
C2109 C2108 1.387 . S
H2110 C2122 0.930 . S
H2111 C2124 0.930 . S
H2112 C2125 0.930 . S
H2113 C2129 0.959 . S
H2114 C2129 0.959 . S
H2115 C2129 0.961 . S
H2116 C2130 0.960 . S
H2117 C2130 0.961 . S
H2118 C2130 0.959 . S
H2119 C2133 0.929 . S
H2120 C2134 0.931 . S
H2121 C2136 0.930 . S
C2122 H2110 0.930 . S
C2122 C2123 1.399 . S
C2122 C2127 1.399 . S
C2123 C2122 1.399 . S
C2123 C2124 1.376 . S
C2124 H2111 0.930 . S
C2124 C2123 1.376 . S
C2124 C2125 1.388 . S
C2125 H2112 0.930 . S
C2125 C2124 1.388 . S
C2125 C2126 1.390 . S
C2126 C2125 1.390 . S
C2126 C2127 1.394 . S
C2126 C2132 1.465 . S
C2127 C2122 1.399 . S
C2127 C2126 1.394 . S
C2127 C2128 1.516 . S
C2128 C2127 1.516 . S
C2128 C2129 1.502 . S
C2128 C2130 1.561 . S
C2128 C2131 1.526 . S
C2129 H2113 0.959 . S
C2129 H2114 0.959 . S
C2129 H2115 0.961 . S
C2129 C2128 1.502 . S
C2130 H2116 0.960 . S
C2130 H2117 0.961 . S
C2130 H2118 0.959 . S
C2130 C2128 1.561 . S
C2131 C2128 1.526 . S
C2131 C2132 1.396 . S
C2131 C2136 1.390 . S
C2132 C2126 1.465 . S
C2132 C2131 1.396 . S
C2132 C2133 1.399 . S
C2133 H2119 0.929 . S
C2133 C2132 1.399 . S
C2133 C2134 1.385 . S
C2134 H2120 0.931 . S
C2134 C2133 1.385 . S
C2134 C2135 1.389 . S
C2135 C2134 1.389 . S
C2135 C2136 1.387 . S
C2136 H2121 0.930 . S
C2136 C2131 1.390 . S
C2136 C2135 1.387 . S
H2137 C2149 0.930 . S
H2138 C2151 0.930 . S
H2139 C2152 0.930 . S
H2140 C2156 0.959 . S
H2141 C2156 0.959 . S
H2142 C2156 0.961 . S
H2143 C2157 0.960 . S
H2144 C2157 0.961 . S
H2145 C2157 0.959 . S
H2146 C2160 0.929 . S
H2147 C2161 0.931 . S
H2148 C2163 0.930 . S
C2149 H2137 0.930 . S
C2149 C2150 1.399 . S
C2149 C2154 1.399 . S
C2150 C2149 1.399 . S
C2150 C2151 1.376 . S
C2151 H2138 0.930 . S
C2151 C2150 1.376 . S
C2151 C2152 1.388 . S
C2152 H2139 0.930 . S
C2152 C2151 1.388 . S
C2152 C2153 1.390 . S
C2153 C2152 1.390 . S
C2153 C2154 1.394 . S
C2153 C2159 1.465 . S
C2154 C2149 1.399 . S
C2154 C2153 1.394 . S
C2154 C2155 1.516 . S
C2155 C2154 1.516 . S
C2155 C2156 1.502 . S
C2155 C2157 1.561 . S
C2155 C2158 1.526 . S
C2156 H2140 0.959 . S
C2156 H2141 0.959 . S
C2156 H2142 0.961 . S
C2156 C2155 1.502 . S
C2157 H2143 0.960 . S
C2157 H2144 0.961 . S
C2157 H2145 0.959 . S
C2157 C2155 1.561 . S
C2158 C2155 1.526 . S
C2158 C2159 1.396 . S
C2158 C2163 1.390 . S
C2159 C2153 1.465 . S
C2159 C2158 1.396 . S
C2159 C2160 1.399 . S
C2160 H2146 0.929 . S
C2160 C2159 1.399 . S
C2160 C2161 1.385 . S
C2161 H2147 0.931 . S
C2161 C2160 1.385 . S
C2161 C2162 1.389 . S
C2162 C2161 1.389 . S
C2162 C2163 1.387 . S
C2163 H2148 0.930 . S
C2163 C2158 1.390 . S
C2163 C2162 1.387 . S
H2164 C2176 0.930 . S
H2165 C2178 0.930 . S
H2166 C2179 0.930 . S
H2167 C2183 0.959 . S
H2168 C2183 0.959 . S
H2169 C2183 0.961 . S
H2170 C2184 0.960 . S
H2171 C2184 0.961 . S
H2172 C2184 0.959 . S
H2173 C2187 0.929 . S
H2174 C2188 0.931 . S
H2175 C2190 0.930 . S
C2176 H2164 0.930 . S
C2176 C2177 1.399 . S
C2176 C2181 1.399 . S
C2177 C2176 1.399 . S
C2177 C2178 1.376 . S
C2178 H2165 0.930 . S
C2178 C2177 1.376 . S
C2178 C2179 1.388 . S
C2179 H2166 0.930 . S
C2179 C2178 1.388 . S
C2179 C2180 1.390 . S
C2180 C2179 1.390 . S
C2180 C2181 1.394 . S
C2180 C2186 1.465 . S
C2181 C2176 1.399 . S
C2181 C2180 1.394 . S
C2181 C2182 1.516 . S
C2182 C2181 1.516 . S
C2182 C2183 1.502 . S
C2182 C2184 1.561 . S
C2182 C2185 1.526 . S
C2183 H2167 0.959 . S
C2183 H2168 0.959 . S
C2183 H2169 0.961 . S
C2183 C2182 1.502 . S
C2184 H2170 0.960 . S
C2184 H2171 0.961 . S
C2184 H2172 0.959 . S
C2184 C2182 1.561 . S
C2185 C2182 1.526 . S
C2185 C2186 1.396 . S
C2185 C2190 1.390 . S
C2186 C2180 1.465 . S
C2186 C2185 1.396 . S
C2186 C2187 1.399 . S
C2187 H2173 0.929 . S
C2187 C2186 1.399 . S
C2187 C2188 1.385 . S
C2188 H2174 0.931 . S
C2188 C2187 1.385 . S
C2188 C2189 1.389 . S
C2189 C2188 1.389 . S
C2189 C2190 1.387 . S
C2190 H2175 0.930 . S
C2190 C2185 1.390 . S
C2190 C2189 1.387 . S
H2191 C2203 0.973 . S
H2192 C2205 0.930 . S
H2193 C2206 0.930 . S
H2194 C2210 0.959 . S
H2195 C2210 0.959 . S
H2196 C2210 0.961 . S
H2197 C2211 0.960 . S
H2198 C2211 0.961 . S
H2199 C2211 0.959 1_545 S
H2200 C2214 0.929 . S
H2201 C2215 0.931 . S
H2202 C2217 0.924 1_565 S
C2203 H2191 0.973 . S
C2203 C2204 1.385 1_565 S
C2203 C2208 1.370 1_565 S
C2204 C2203 1.385 1_545 S
C2204 C2205 1.376 . S
C2205 H2192 0.930 . S
C2205 C2204 1.376 . S
C2205 C2206 1.388 . S
C2206 H2193 0.930 . S
C2206 C2205 1.388 . S
C2206 C2207 1.390 . S
C2207 C2206 1.390 . S
C2207 C2208 1.394 . S
C2207 C2213 1.465 . S
C2208 C2203 1.370 1_545 S
C2208 C2207 1.394 . S
C2208 C2209 1.516 1_545 S
C2209 C2208 1.516 1_565 S
C2209 C2210 1.502 . S
C2209 C2211 1.561 . S
C2209 C2212 1.526 1_565 S
C2210 H2194 0.959 . S
C2210 H2195 0.959 . S
C2210 H2196 0.961 . S
C2210 C2209 1.502 . S
C2211 H2197 0.960 . S
C2211 H2198 0.961 . S
C2211 H2199 0.959 1_565 S
C2211 C2209 1.561 . S
C2212 C2209 1.526 1_545 S
C2212 C2213 1.396 . S
C2212 C2217 1.390 . S
C2213 C2207 1.465 . S
C2213 C2212 1.396 . S
C2213 C2214 1.399 . S
C2214 H2200 0.929 . S
C2214 C2213 1.399 . S
C2214 C2215 1.385 . S
C2215 H2201 0.931 . S
C2215 C2214 1.385 . S
C2215 C2216 1.389 . S
C2216 C2215 1.389 . S
C2216 C2217 1.387 . S
C2217 H2202 0.924 1_545 S
C2217 C2212 1.390 . S
C2217 C2216 1.387 . S
H2218 C2230 0.930 . S
H2219 C2232 0.930 . S
H2220 C2233 0.930 . S
H2221 C2237 0.959 . S
H2222 C2237 0.959 . S
H2223 C2237 0.961 . S
H2224 C2238 0.960 . S
H2225 C2238 0.961 . S
H2226 C2238 0.959 . S
H2227 C2241 0.929 . S
H2228 C2242 0.931 . S
H2229 C2244 0.930 . S
C2230 H2218 0.930 . S
C2230 C2231 1.399 . S
C2230 C2235 1.399 . S
C2231 C2230 1.399 . S
C2231 C2232 1.376 . S
C2232 H2219 0.930 . S
C2232 C2231 1.376 . S
C2232 C2233 1.388 . S
C2233 H2220 0.930 . S
C2233 C2232 1.388 . S
C2233 C2234 1.390 . S
C2234 C2233 1.390 . S
C2234 C2235 1.394 . S
C2234 C2240 1.465 . S
C2235 C2230 1.399 . S
C2235 C2234 1.394 . S
C2235 C2236 1.516 . S
C2236 C2235 1.516 . S
C2236 C2237 1.502 . S
C2236 C2238 1.561 . S
C2236 C2239 1.526 . S
C2237 H2221 0.959 . S
C2237 H2222 0.959 . S
C2237 H2223 0.961 . S
C2237 C2236 1.502 . S
C2238 H2224 0.960 . S
C2238 H2225 0.961 . S
C2238 H2226 0.959 . S
C2238 C2236 1.561 . S
C2239 C2236 1.526 . S
C2239 C2240 1.396 . S
C2239 C2244 1.390 . S
C2240 C2234 1.465 . S
C2240 C2239 1.396 . S
C2240 C2241 1.399 . S
C2241 H2227 0.929 . S
C2241 C2240 1.399 . S
C2241 C2242 1.385 . S
C2242 H2228 0.931 . S
C2242 C2241 1.385 . S
C2242 C2243 1.389 . S
C2243 C2242 1.389 . S
C2243 C2244 1.387 . S
C2244 H2229 0.930 . S
C2244 C2239 1.390 . S
C2244 C2243 1.387 . S
H2245 C2257 0.930 . S
H2246 C2259 0.930 . S
H2247 C2260 0.930 . S
H2248 C2264 0.959 . S
H2249 C2264 0.959 . S
H2250 C2264 0.961 . S
H2251 C2265 0.960 . S
H2252 C2265 0.961 . S
H2253 C2265 0.959 . S
H2254 C2268 0.929 . S
H2255 C2269 0.931 . S
H2256 C2271 0.930 . S
C2257 H2245 0.930 . S
C2257 C2258 1.399 . S
C2257 C2262 1.399 . S
C2258 C2257 1.399 . S
C2258 C2259 1.376 . S
C2259 H2246 0.930 . S
C2259 C2258 1.376 . S
C2259 C2260 1.388 . S
C2260 H2247 0.930 . S
C2260 C2259 1.388 . S
C2260 C2261 1.390 . S
C2261 C2260 1.390 . S
C2261 C2262 1.394 . S
C2261 C2267 1.465 . S
C2262 C2257 1.399 . S
C2262 C2261 1.394 . S
C2262 C2263 1.516 . S
C2263 C2262 1.516 . S
C2263 C2264 1.502 . S
C2263 C2265 1.561 . S
C2263 C2266 1.526 . S
C2264 H2248 0.959 . S
C2264 H2249 0.959 . S
C2264 H2250 0.961 . S
C2264 C2263 1.502 . S
C2265 H2251 0.960 . S
C2265 H2252 0.961 . S
C2265 H2253 0.959 . S
C2265 C2263 1.561 . S
C2266 C2263 1.526 . S
C2266 C2267 1.396 . S
C2266 C2271 1.390 . S
C2267 C2261 1.465 . S
C2267 C2266 1.396 . S
C2267 C2268 1.399 . S
C2268 H2254 0.929 . S
C2268 C2267 1.399 . S
C2268 C2269 1.385 . S
C2269 H2255 0.931 . S
C2269 C2268 1.385 . S
C2269 C2270 1.389 . S
C2270 C2269 1.389 . S
C2270 C2271 1.387 . S
C2271 H2256 0.930 . S
C2271 C2266 1.390 . S
C2271 C2270 1.387 . S
H2272 C2284 0.930 . S
H2273 C2286 0.930 . S
H2274 C2287 0.930 . S
H2275 C2291 0.959 . S
H2276 C2291 0.959 . S
H2277 C2291 0.961 . S
H2278 C2292 0.960 . S
H2279 C2292 0.961 . S
H2280 C2292 0.959 . S
H2281 C2295 0.929 . S
H2282 C2296 0.931 . S
H2283 C2298 0.930 . S
C2284 H2272 0.930 . S
C2284 C2285 1.399 . S
C2284 C2289 1.399 . S
C2285 C2284 1.399 . S
C2285 C2286 1.376 . S
C2286 H2273 0.930 . S
C2286 C2285 1.376 . S
C2286 C2287 1.388 . S
C2287 H2274 0.930 . S
C2287 C2286 1.388 . S
C2287 C2288 1.390 . S
C2288 C2287 1.390 . S
C2288 C2289 1.394 . S
C2288 C2294 1.465 . S
C2289 C2284 1.399 . S
C2289 C2288 1.394 . S
C2289 C2290 1.516 . S
C2290 C2289 1.516 . S
C2290 C2291 1.502 . S
C2290 C2292 1.561 . S
C2290 C2293 1.526 . S
C2291 H2275 0.959 . S
C2291 H2276 0.959 . S
C2291 H2277 0.961 . S
C2291 C2290 1.502 . S
C2292 H2278 0.960 . S
C2292 H2279 0.961 . S
C2292 H2280 0.959 . S
C2292 C2290 1.561 . S
C2293 C2290 1.526 . S
C2293 C2294 1.396 . S
C2293 C2298 1.390 . S
C2294 C2288 1.465 . S
C2294 C2293 1.396 . S
C2294 C2295 1.399 . S
C2295 H2281 0.929 . S
C2295 C2294 1.399 . S
C2295 C2296 1.385 . S
C2296 H2282 0.931 . S
C2296 C2295 1.385 . S
C2296 C2297 1.389 . S
C2297 C2296 1.389 . S
C2297 C2298 1.387 . S
C2298 H2283 0.930 . S
C2298 C2293 1.390 . S
C2298 C2297 1.387 . S
H2299 C2311 0.930 . S
H2300 C2313 0.930 . S
H2301 C2314 0.930 . S
H2302 C2318 0.959 . S
H2303 C2318 0.959 . S
H2304 C2318 0.961 . S
H2305 C2319 0.960 . S
H2306 C2319 0.961 . S
H2307 C2319 0.959 . S
H2308 C2322 0.929 . S
H2309 C2323 0.931 . S
H2310 C2325 0.930 . S
C2311 H2299 0.930 . S
C2311 C2312 1.399 . S
C2311 C2316 1.399 . S
C2312 C2311 1.399 . S
C2312 C2313 1.376 . S
C2313 H2300 0.930 . S
C2313 C2312 1.376 . S
C2313 C2314 1.388 . S
C2314 H2301 0.930 . S
C2314 C2313 1.388 . S
C2314 C2315 1.390 . S
C2315 C2314 1.390 . S
C2315 C2316 1.394 . S
C2315 C2321 1.465 . S
C2316 C2311 1.399 . S
C2316 C2315 1.394 . S
C2316 C2317 1.516 . S
C2317 C2316 1.516 . S
C2317 C2318 1.502 . S
C2317 C2319 1.561 . S
C2317 C2320 1.526 . S
C2318 H2302 0.959 . S
C2318 H2303 0.959 . S
C2318 H2304 0.961 . S
C2318 C2317 1.502 . S
C2319 H2305 0.960 . S
C2319 H2306 0.961 . S
C2319 H2307 0.959 . S
C2319 C2317 1.561 . S
C2320 C2317 1.526 . S
C2320 C2321 1.396 . S
C2320 C2325 1.390 . S
C2321 C2315 1.465 . S
C2321 C2320 1.396 . S
C2321 C2322 1.399 . S
C2322 H2308 0.929 . S
C2322 C2321 1.399 . S
C2322 C2323 1.385 . S
C2323 H2309 0.931 . S
C2323 C2322 1.385 . S
C2323 C2324 1.389 . S
C2324 C2323 1.389 . S
C2324 C2325 1.387 . S
C2325 H2310 0.930 . S
C2325 C2320 1.390 . S
C2325 C2324 1.387 . S
H2326 C2338 0.930 . S
H2327 C2340 0.930 . S
H2328 C2341 0.932 . S
H2329 C2345 0.959 . S
H2330 C2345 0.959 . S
H2331 C2345 0.961 . S
H2332 C2346 0.960 . S
H2333 C2346 0.961 . S
H2334 C2346 0.959 . S
H2335 C2349 0.929 . S
H2336 C2350 0.931 . S
H2337 C2352 0.930 . S
C2338 H2326 0.930 . S
C2338 C2339 1.399 . S
C2338 C2343 1.399 . S
C2339 C2338 1.399 . S
C2339 C2340 1.376 . S
C2340 H2327 0.930 . S
C2340 C2339 1.376 . S
C2340 C2341 1.388 . S
C2341 H2328 0.932 . S
C2341 C2340 1.388 . S
C2341 C2342 1.390 1_556 S
C2342 C2341 1.390 1_554 S
C2342 C2343 1.394 1_554 S
C2342 C2348 1.465 . S
C2343 C2338 1.399 . S
C2343 C2342 1.394 1_556 S
C2343 C2344 1.516 1_556 S
C2344 C2343 1.516 1_554 S
C2344 C2345 1.502 1_554 S
C2344 C2346 1.561 . S
C2344 C2347 1.526 . S
C2345 H2329 0.959 . S
C2345 H2330 0.959 . S
C2345 H2331 0.961 . S
C2345 C2344 1.502 1_556 S
C2346 H2332 0.960 . S
C2346 H2333 0.961 . S
C2346 H2334 0.959 . S
C2346 C2344 1.561 . S
C2347 C2344 1.526 . S
C2347 C2348 1.396 . S
C2347 C2352 1.390 . S
C2348 C2342 1.465 . S
C2348 C2347 1.396 . S
C2348 C2349 1.399 . S
C2349 H2335 0.929 . S
C2349 C2348 1.399 . S
C2349 C2350 1.385 . S
C2350 H2336 0.931 . S
C2350 C2349 1.385 . S
C2350 C2351 1.389 . S
C2351 C2350 1.389 . S
C2351 C2352 1.387 . S
C2352 H2337 0.930 . S
C2352 C2347 1.390 . S
C2352 C2351 1.387 . S
H2353 C2365 0.930 . S
H2354 C2367 0.930 . S
H2355 C2368 0.930 . S
H2356 C2372 0.959 . S
H2357 C2372 0.959 . S
H2358 C2372 0.961 . S
H2359 C2373 0.960 . S
H2360 C2373 0.961 . S
H2361 C2373 0.959 . S
H2362 C2376 0.929 . S
H2363 C2377 0.931 . S
H2364 C2379 0.930 . S
C2365 H2353 0.930 . S
C2365 C2366 1.399 . S
C2365 C2370 1.399 . S
C2366 C2365 1.399 . S
C2366 C2367 1.376 . S
C2367 H2354 0.930 . S
C2367 C2366 1.376 . S
C2367 C2368 1.388 . S
C2368 H2355 0.930 . S
C2368 C2367 1.388 . S
C2368 C2369 1.390 . S
C2369 C2368 1.390 . S
C2369 C2370 1.394 . S
C2369 C2375 1.465 . S
C2370 C2365 1.399 . S
C2370 C2369 1.394 . S
C2370 C2371 1.516 . S
C2371 C2370 1.516 . S
C2371 C2372 1.502 . S
C2371 C2373 1.561 . S
C2371 C2374 1.526 . S
C2372 H2356 0.959 . S
C2372 H2357 0.959 . S
C2372 H2358 0.961 . S
C2372 C2371 1.502 . S
C2373 H2359 0.960 . S
C2373 H2360 0.961 . S
C2373 H2361 0.959 . S
C2373 C2371 1.561 . S
C2374 C2371 1.526 . S
C2374 C2375 1.396 . S
C2374 C2379 1.390 . S
C2375 C2369 1.465 . S
C2375 C2374 1.396 . S
C2375 C2376 1.399 . S
C2376 H2362 0.929 . S
C2376 C2375 1.399 . S
C2376 C2377 1.385 . S
C2377 H2363 0.931 . S
C2377 C2376 1.385 . S
C2377 C2378 1.389 . S
C2378 C2377 1.389 . S
C2378 C2379 1.387 . S
C2379 H2364 0.930 . S
C2379 C2374 1.390 . S
C2379 C2378 1.387 . S
H2380 C2392 0.930 . S
H2381 C2394 0.930 . S
H2382 C2395 0.930 . S
H2383 C2399 0.959 . S
H2384 C2399 0.959 . S
H2385 C2399 0.961 . S
H2386 C2400 0.960 . S
H2387 C2400 0.961 . S
H2388 C2400 0.959 . S
H2389 C2403 0.929 . S
H2390 C2404 0.931 . S
H2391 C2406 0.930 . S
C2392 H2380 0.930 . S
C2392 C2393 1.399 . S
C2392 C2397 1.399 . S
C2393 C2392 1.399 . S
C2393 C2394 1.376 . S
C2394 H2381 0.930 . S
C2394 C2393 1.376 . S
C2394 C2395 1.388 . S
C2395 H2382 0.930 . S
C2395 C2394 1.388 . S
C2395 C2396 1.390 . S
C2396 C2395 1.390 . S
C2396 C2397 1.394 . S
C2396 C2402 1.465 . S
C2397 C2392 1.399 . S
C2397 C2396 1.394 . S
C2397 C2398 1.516 . S
C2398 C2397 1.516 . S
C2398 C2399 1.502 . S
C2398 C2400 1.561 . S
C2398 C2401 1.526 . S
C2399 H2383 0.959 . S
C2399 H2384 0.959 . S
C2399 H2385 0.961 . S
C2399 C2398 1.502 . S
C2400 H2386 0.960 . S
C2400 H2387 0.961 . S
C2400 H2388 0.959 . S
C2400 C2398 1.561 . S
C2401 C2398 1.526 . S
C2401 C2402 1.396 . S
C2401 C2406 1.390 . S
C2402 C2396 1.465 . S
C2402 C2401 1.396 . S
C2402 C2403 1.399 . S
C2403 H2389 0.929 . S
C2403 C2402 1.399 . S
C2403 C2404 1.385 . S
C2404 H2390 0.931 . S
C2404 C2403 1.385 . S
C2404 C2405 1.389 . S
C2405 C2404 1.389 . S
C2405 C2406 1.387 . S
C2406 H2391 0.930 . S
C2406 C2401 1.390 . S
C2406 C2405 1.387 . S
H2407 C2419 0.930 . S
H2408 C2421 0.930 . S
H2409 C2422 0.930 1_655 S
H2410 C2426 0.959 . S
H2411 C2426 0.959 1_655 S
H2412 C2426 0.961 . S
H2413 C2427 0.960 . S
H2414 C2427 0.961 . S
H2415 C2427 0.959 . S
H2416 C2430 0.929 . S
H2417 C2431 0.931 . S
H2418 C2433 0.930 . S
C2419 H2407 0.930 . S
C2419 C2420 1.399 . S
C2419 C2424 1.399 . S
C2420 C2419 1.399 . S
C2420 C2421 1.376 . S
C2421 H2408 0.930 . S
C2421 C2420 1.376 . S
C2421 C2422 1.388 . S
C2422 H2409 0.930 1_455 S
C2422 C2421 1.388 . S
C2422 C2423 1.390 1_455 S
C2423 C2422 1.390 1_655 S
C2423 C2424 1.394 1_655 S
C2423 C2429 1.465 . S
C2424 C2419 1.399 . S
C2424 C2423 1.394 1_455 S
C2424 C2425 1.516 1_455 S
C2425 C2424 1.516 1_655 S
C2425 C2426 1.502 1_655 S
C2425 C2427 1.561 . S
C2425 C2428 1.526 . S
C2426 H2410 0.959 . S
C2426 H2411 0.959 1_455 S
C2426 H2412 0.961 . S
C2426 C2425 1.502 1_455 S
C2427 H2413 0.960 . S
C2427 H2414 0.961 . S
C2427 H2415 0.959 . S
C2427 C2425 1.561 . S
C2428 C2425 1.526 . S
C2428 C2429 1.396 . S
C2428 C2433 1.390 . S
C2429 C2423 1.465 . S
C2429 C2428 1.396 . S
C2429 C2430 1.399 . S
C2430 H2416 0.929 . S
C2430 C2429 1.399 . S
C2430 C2431 1.385 . S
C2431 H2417 0.931 . S
C2431 C2430 1.385 . S
C2431 C2432 1.389 . S
C2432 C2431 1.389 . S
C2432 C2433 1.387 . S
C2433 H2418 0.930 . S
C2433 C2428 1.390 . S
C2433 C2432 1.387 . S
H2434 C2446 0.930 . S
H2435 C2448 0.930 . S
H2436 C2449 0.930 . S
H2437 C2453 0.959 . S
H2438 C2453 0.959 . S
H2439 C2453 0.961 . S
H2440 C2454 0.960 . S
H2441 C2454 0.961 . S
H2442 C2454 0.959 . S
H2443 C2457 0.929 . S
H2444 C2458 0.931 . S
H2445 C2460 0.930 . S
C2446 H2434 0.930 . S
C2446 C2447 1.399 . S
C2446 C2451 1.399 1_655 S
C2447 C2446 1.399 . S
C2447 C2448 1.376 1_655 S
C2448 H2435 0.930 . S
C2448 C2447 1.376 1_455 S
C2448 C2449 1.388 . S
C2449 H2436 0.930 . S
C2449 C2448 1.388 . S
C2449 C2450 1.390 . S
C2450 C2449 1.390 . S
C2450 C2451 1.394 . S
C2450 C2456 1.465 . S
C2451 C2446 1.399 1_455 S
C2451 C2450 1.394 . S
C2451 C2452 1.516 . S
C2452 C2451 1.516 . S
C2452 C2453 1.502 1_455 S
C2452 C2454 1.561 . S
C2452 C2455 1.526 . S
C2453 H2437 0.959 . S
C2453 H2438 0.959 . S
C2453 H2439 0.961 . S
C2453 C2452 1.502 1_655 S
C2454 H2440 0.960 . S
C2454 H2441 0.961 . S
C2454 H2442 0.959 . S
C2454 C2452 1.561 . S
C2455 C2452 1.526 . S
C2455 C2456 1.396 . S
C2455 C2460 1.390 . S
C2456 C2450 1.465 . S
C2456 C2455 1.396 . S
C2456 C2457 1.399 . S
C2457 H2443 0.929 . S
C2457 C2456 1.399 . S
C2457 C2458 1.385 . S
C2458 H2444 0.931 . S
C2458 C2457 1.385 . S
C2458 C2459 1.389 . S
C2459 C2458 1.389 . S
C2459 C2460 1.387 . S
C2460 H2445 0.930 . S
C2460 C2455 1.390 . S
C2460 C2459 1.387 . S
H2461 C2473 0.930 . S
H2462 C2475 0.930 . S
H2463 C2476 0.930 . S
H2464 C2480 0.959 . S
H2465 C2480 0.959 . S
H2466 C2480 0.961 . S
H2467 C2481 0.960 . S
H2468 C2481 0.961 . S
H2469 C2481 0.959 . S
H2470 C2484 0.929 . S
H2471 C2485 0.931 . S
H2472 C2487 0.930 . S
C2473 H2461 0.930 . S
C2473 C2474 1.399 . S
C2473 C2478 1.399 . S
C2474 C2473 1.399 . S
C2474 C2475 1.376 . S
C2475 H2462 0.930 . S
C2475 C2474 1.376 . S
C2475 C2476 1.388 . S
C2476 H2463 0.930 . S
C2476 C2475 1.388 . S
C2476 C2477 1.390 . S
C2477 C2476 1.390 . S
C2477 C2478 1.394 . S
C2477 C2483 1.465 . S
C2478 C2473 1.399 . S
C2478 C2477 1.394 . S
C2478 C2479 1.516 . S
C2479 C2478 1.516 . S
C2479 C2480 1.502 . S
C2479 C2481 1.561 . S
C2479 C2482 1.526 . S
C2480 H2464 0.959 . S
C2480 H2465 0.959 . S
C2480 H2466 0.961 . S
C2480 C2479 1.502 . S
C2481 H2467 0.960 . S
C2481 H2468 0.961 . S
C2481 H2469 0.959 . S
C2481 C2479 1.561 . S
C2482 C2479 1.526 . S
C2482 C2483 1.396 . S
C2482 C2487 1.390 . S
C2483 C2477 1.465 . S
C2483 C2482 1.396 . S
C2483 C2484 1.399 . S
C2484 H2470 0.929 . S
C2484 C2483 1.399 . S
C2484 C2485 1.385 . S
C2485 H2471 0.931 . S
C2485 C2484 1.385 . S
C2485 C2486 1.389 . S
C2486 C2485 1.389 . S
C2486 C2487 1.387 . S
C2487 H2472 0.930 . S
C2487 C2482 1.390 . S
C2487 C2486 1.387 . S
H2488 C2500 0.930 . S
H2489 C2502 0.930 . S
H2490 C2503 0.930 . S
H2491 C2507 0.959 . S
H2492 C2507 0.959 . S
H2493 C2507 0.961 . S
H2494 C2508 0.960 . S
H2495 C2508 0.961 . S
H2496 C2508 0.959 . S
H2497 C2511 0.929 . S
H2498 C2512 0.931 . S
H2499 C2514 0.930 . S
C2500 H2488 0.930 . S
C2500 C2501 1.399 . S
C2500 C2505 1.399 . S
C2501 C2500 1.399 . S
C2501 C2502 1.376 . S
C2502 H2489 0.930 . S
C2502 C2501 1.376 . S
C2502 C2503 1.388 . S
C2503 H2490 0.930 . S
C2503 C2502 1.388 . S
C2503 C2504 1.390 . S
C2504 C2503 1.390 . S
C2504 C2505 1.394 . S
C2504 C2510 1.465 . S
C2505 C2500 1.399 . S
C2505 C2504 1.394 . S
C2505 C2506 1.516 . S
C2506 C2505 1.516 . S
C2506 C2507 1.502 . S
C2506 C2508 1.561 . S
C2506 C2509 1.526 . S
C2507 H2491 0.959 . S
C2507 H2492 0.959 . S
C2507 H2493 0.961 . S
C2507 C2506 1.502 . S
C2508 H2494 0.960 . S
C2508 H2495 0.961 . S
C2508 H2496 0.959 . S
C2508 C2506 1.561 . S
C2509 C2506 1.526 . S
C2509 C2510 1.396 . S
C2509 C2514 1.390 . S
C2510 C2504 1.465 . S
C2510 C2509 1.396 . S
C2510 C2511 1.399 . S
C2511 H2497 0.929 . S
C2511 C2510 1.399 . S
C2511 C2512 1.385 . S
C2512 H2498 0.931 . S
C2512 C2511 1.385 . S
C2512 C2513 1.389 . S
C2513 C2512 1.389 . S
C2513 C2514 1.387 . S
C2514 H2499 0.930 . S
C2514 C2509 1.390 . S
C2514 C2513 1.387 . S
H2515 C2527 0.930 . S
H2516 C2529 0.930 1_554 S
H2517 C2530 0.930 . S
H2518 C2534 0.959 . S
H2519 C2534 0.959 . S
H2520 C2534 0.961 . S
H2521 C2535 0.960 . S
H2522 C2535 0.961 . S
H2523 C2535 0.959 . S
H2524 C2538 0.929 . S
H2525 C2539 0.931 . S
H2526 C2541 0.930 . S
C2527 H2515 0.930 . S
C2527 C2528 1.399 . S
C2527 C2532 1.399 . S
C2528 C2527 1.399 . S
C2528 C2529 1.376 . S
C2529 H2516 0.930 1_556 S
C2529 C2528 1.376 . S
C2529 C2530 1.388 . S
C2530 H2517 0.930 . S
C2530 C2529 1.388 . S
C2530 C2531 1.390 . S
C2531 C2530 1.390 . S
C2531 C2532 1.394 . S
C2531 C2537 1.465 . S
C2532 C2527 1.399 . S
C2532 C2531 1.394 . S
C2532 C2533 1.516 . S
C2533 C2532 1.516 . S
C2533 C2534 1.502 . S
C2533 C2535 1.561 . S
C2533 C2536 1.526 . S
C2534 H2518 0.959 . S
C2534 H2519 0.959 . S
C2534 H2520 0.961 . S
C2534 C2533 1.502 . S
C2535 H2521 0.960 . S
C2535 H2522 0.961 . S
C2535 H2523 0.959 . S
C2535 C2533 1.561 . S
C2536 C2533 1.526 . S
C2536 C2537 1.396 . S
C2536 C2541 1.390 . S
C2537 C2531 1.465 . S
C2537 C2536 1.396 . S
C2537 C2538 1.399 . S
C2538 H2524 0.929 . S
C2538 C2537 1.399 . S
C2538 C2539 1.385 . S
C2539 H2525 0.931 . S
C2539 C2538 1.385 . S
C2539 C2540 1.389 . S
C2540 C2539 1.389 . S
C2540 C2541 1.387 . S
C2541 H2526 0.930 . S
C2541 C2536 1.390 . S
C2541 C2540 1.387 . S
H2542 C2554 0.930 . S
H2543 C2556 0.930 . S
H2544 C2557 0.930 . S
H2545 C2561 0.959 . S
H2546 C2561 0.959 . S
H2547 C2561 0.961 . S
H2548 C2562 0.960 . S
H2549 C2562 0.961 . S
H2550 C2562 0.959 . S
H2551 C2565 0.929 . S
H2552 C2566 0.931 . S
H2553 C2568 0.930 . S
C2554 H2542 0.930 . S
C2554 C2555 1.399 . S
C2554 C2559 1.399 . S
C2555 C2554 1.399 . S
C2555 C2556 1.376 . S
C2556 H2543 0.930 . S
C2556 C2555 1.376 . S
C2556 C2557 1.388 . S
C2557 H2544 0.930 . S
C2557 C2556 1.388 . S
C2557 C2558 1.390 . S
C2558 C2557 1.390 . S
C2558 C2559 1.394 . S
C2558 C2564 1.465 . S
C2559 C2554 1.399 . S
C2559 C2558 1.394 . S
C2559 C2560 1.516 . S
C2560 C2559 1.516 . S
C2560 C2561 1.502 . S
C2560 C2562 1.561 . S
C2560 C2563 1.526 . S
C2561 H2545 0.959 . S
C2561 H2546 0.959 . S
C2561 H2547 0.961 . S
C2561 C2560 1.502 . S
C2562 H2548 0.960 . S
C2562 H2549 0.961 . S
C2562 H2550 0.959 . S
C2562 C2560 1.561 . S
C2563 C2560 1.526 . S
C2563 C2564 1.396 . S
C2563 C2568 1.390 . S
C2564 C2558 1.465 . S
C2564 C2563 1.396 . S
C2564 C2565 1.399 . S
C2565 H2551 0.929 . S
C2565 C2564 1.399 . S
C2565 C2566 1.385 . S
C2566 H2552 0.931 . S
C2566 C2565 1.385 . S
C2566 C2567 1.389 . S
C2567 C2566 1.389 . S
C2567 C2568 1.387 . S
C2568 H2553 0.930 . S
C2568 C2563 1.390 . S
C2568 C2567 1.387 . S
H2569 C2581 0.930 . S
H2570 C2583 0.930 . S
H2571 C2584 0.930 . S
H2572 C2588 0.959 . S
H2573 C2588 0.959 . S
H2574 C2588 0.961 . S
H2575 C2589 0.960 . S
H2576 C2589 0.961 . S
H2577 C2589 0.959 . S
H2578 C2592 0.929 . S
H2579 C2593 0.931 . S
H2580 C2595 0.930 . S
C2581 H2569 0.930 . S
C2581 C2582 1.399 . S
C2581 C2586 1.399 . S
C2582 C2581 1.399 . S
C2582 C2583 1.376 . S
C2583 H2570 0.930 . S
C2583 C2582 1.376 . S
C2583 C2584 1.388 . S
C2584 H2571 0.930 . S
C2584 C2583 1.388 . S
C2584 C2585 1.390 . S
C2585 C2584 1.390 . S
C2585 C2586 1.394 . S
C2585 C2591 1.465 . S
C2586 C2581 1.399 . S
C2586 C2585 1.394 . S
C2586 C2587 1.516 . S
C2587 C2586 1.516 . S
C2587 C2588 1.502 . S
C2587 C2589 1.561 . S
C2587 C2590 1.526 . S
C2588 H2572 0.959 . S
C2588 H2573 0.959 . S
C2588 H2574 0.961 . S
C2588 C2587 1.502 . S
C2589 H2575 0.960 . S
C2589 H2576 0.961 . S
C2589 H2577 0.959 . S
C2589 C2587 1.561 . S
C2590 C2587 1.526 . S
C2590 C2591 1.396 . S
C2590 C2595 1.390 . S
C2591 C2585 1.465 . S
C2591 C2590 1.396 . S
C2591 C2592 1.399 . S
C2592 H2578 0.929 . S
C2592 C2591 1.399 . S
C2592 C2593 1.385 . S
C2593 H2579 0.931 . S
C2593 C2592 1.385 . S
C2593 C2594 1.389 . S
C2594 C2593 1.389 . S
C2594 C2595 1.387 . S
C2595 H2580 0.930 . S
C2595 C2590 1.390 . S
C2595 C2594 1.387 . S
H2596 C2608 0.930 . S
H2597 C2610 0.930 . S
H2598 C2611 0.930 . S
H2599 C2615 0.959 . S
H2600 C2615 0.959 . S
H2601 C2615 0.961 . S
H2602 C2616 0.960 . S
H2603 C2616 0.961 . S
H2604 C2616 0.959 . S
H2605 C2619 0.929 . S
H2606 C2620 0.931 1_554 S
H2607 C2622 0.930 . S
C2608 H2596 0.930 . S
C2608 C2609 1.399 . S
C2608 C2613 1.399 . S
C2609 C2608 1.399 . S
C2609 C2610 1.376 . S
C2610 H2597 0.930 . S
C2610 C2609 1.376 . S
C2610 C2611 1.388 . S
C2611 H2598 0.930 . S
C2611 C2610 1.388 . S
C2611 C2612 1.390 . S
C2612 C2611 1.390 . S
C2612 C2613 1.394 . S
C2612 C2618 1.465 . S
C2613 C2608 1.399 . S
C2613 C2612 1.394 . S
C2613 C2614 1.516 . S
C2614 C2613 1.516 . S
C2614 C2615 1.502 . S
C2614 C2616 1.561 . S
C2614 C2617 1.526 . S
C2615 H2599 0.959 . S
C2615 H2600 0.959 . S
C2615 H2601 0.961 . S
C2615 C2614 1.502 . S
C2616 H2602 0.960 . S
C2616 H2603 0.961 . S
C2616 H2604 0.959 . S
C2616 C2614 1.561 . S
C2617 C2614 1.526 . S
C2617 C2618 1.396 . S
C2617 C2622 1.390 . S
C2618 C2612 1.465 . S
C2618 C2617 1.396 . S
C2618 C2619 1.399 . S
C2619 H2605 0.929 . S
C2619 C2618 1.399 . S
C2619 C2620 1.385 . S
C2620 H2606 0.931 1_556 S
C2620 C2619 1.385 . S
C2620 C2621 1.381 1_556 S
C2621 C2620 1.381 1_554 S
C2621 C2622 1.381 1_554 S
C2622 H2607 0.930 . S
C2622 C2617 1.390 . S
C2622 C2621 1.381 1_556 S
H2623 C2635 0.930 . S
H2624 C2637 0.930 . S
H2625 C2638 0.930 . S
H2626 C2642 0.959 . S
H2627 C2642 0.959 . S
H2628 C2642 0.961 . S
H2629 C2643 0.960 . S
H2630 C2643 0.961 . S
H2631 C2643 0.959 . S
H2632 C2646 0.929 . S
H2633 C2647 0.931 . S
H2634 C2649 0.930 . S
C2635 H2623 0.930 . S
C2635 C2636 1.399 . S
C2635 C2640 1.399 . S
C2636 C2635 1.399 . S
C2636 C2637 1.376 . S
C2637 H2624 0.930 . S
C2637 C2636 1.376 . S
C2637 C2638 1.388 . S
C2638 H2625 0.930 . S
C2638 C2637 1.388 . S
C2638 C2639 1.390 . S
C2639 C2638 1.390 . S
C2639 C2640 1.394 . S
C2639 C2645 1.465 . S
C2640 C2635 1.399 . S
C2640 C2639 1.394 . S
C2640 C2641 1.516 . S
C2641 C2640 1.516 . S
C2641 C2642 1.502 . S
C2641 C2643 1.561 . S
C2641 C2644 1.526 . S
C2642 H2626 0.959 . S
C2642 H2627 0.959 . S
C2642 H2628 0.961 . S
C2642 C2641 1.502 . S
C2643 H2629 0.960 . S
C2643 H2630 0.961 . S
C2643 H2631 0.959 . S
C2643 C2641 1.561 . S
C2644 C2641 1.526 . S
C2644 C2645 1.396 . S
C2644 C2649 1.390 . S
C2645 C2639 1.465 . S
C2645 C2644 1.396 . S
C2645 C2646 1.399 . S
C2646 H2632 0.929 . S
C2646 C2645 1.399 . S
C2646 C2647 1.385 . S
C2647 H2633 0.931 . S
C2647 C2646 1.385 . S
C2647 C2648 1.389 . S
C2648 C2647 1.389 . S
C2648 C2649 1.387 . S
C2649 H2634 0.930 . S
C2649 C2644 1.390 . S
C2649 C2648 1.387 . S
H2650 C2662 0.930 . S
H2651 C2664 0.930 . S
H2652 C2665 0.930 . S
H2653 C2669 0.959 . S
H2654 C2669 0.959 . S
H2655 C2669 0.961 . S
H2656 C2670 0.960 . S
H2657 C2670 0.961 . S
H2658 C2670 0.959 . S
H2659 C2673 0.929 . S
H2660 C2674 0.931 . S
H2661 C2676 0.930 . S
C2662 H2650 0.930 . S
C2662 C2663 1.399 . S
C2662 C2667 1.399 . S
C2663 C2662 1.399 . S
C2663 C2664 1.376 . S
C2664 H2651 0.930 . S
C2664 C2663 1.376 . S
C2664 C2665 1.388 . S
C2665 H2652 0.930 . S
C2665 C2664 1.388 . S
C2665 C2666 1.390 . S
C2666 C2665 1.390 . S
C2666 C2667 1.394 . S
C2666 C2672 1.465 . S
C2667 C2662 1.399 . S
C2667 C2666 1.394 . S
C2667 C2668 1.516 . S
C2668 C2667 1.516 . S
C2668 C2669 1.502 . S
C2668 C2670 1.561 . S
C2668 C2671 1.526 . S
C2669 H2653 0.959 . S
C2669 H2654 0.959 . S
C2669 H2655 0.961 . S
C2669 C2668 1.502 . S
C2670 H2656 0.960 . S
C2670 H2657 0.961 . S
C2670 H2658 0.959 . S
C2670 C2668 1.561 . S
C2671 C2668 1.526 . S
C2671 C2672 1.396 . S
C2671 C2676 1.390 . S
C2672 C2666 1.465 . S
C2672 C2671 1.396 . S
C2672 C2673 1.399 . S
C2673 H2659 0.929 . S
C2673 C2672 1.399 . S
C2673 C2674 1.385 . S
C2674 H2660 0.931 . S
C2674 C2673 1.385 . S
C2674 C2675 1.389 . S
C2675 C2674 1.389 . S
C2675 C2676 1.387 . S
C2676 H2661 0.930 . S
C2676 C2671 1.390 . S
C2676 C2675 1.387 . S
H2677 C2689 0.930 . S
H2678 C2691 0.930 . S
H2679 C2692 0.930 . S
H2680 C2696 0.959 . S
H2681 C2696 0.959 . S
H2682 C2696 0.961 . S
H2683 C2697 0.960 . S
H2684 C2697 0.961 . S
H2685 C2697 0.959 . S
H2686 C2700 0.929 . S
H2687 C2701 0.931 . S
H2688 C2703 0.930 . S
C2689 H2677 0.930 . S
C2689 C2690 1.399 . S
C2689 C2694 1.399 . S
C2690 C2689 1.399 . S
C2690 C2691 1.376 . S
C2691 H2678 0.930 . S
C2691 C2690 1.376 . S
C2691 C2692 1.388 . S
C2692 H2679 0.930 . S
C2692 C2691 1.388 . S
C2692 C2693 1.390 . S
C2693 C2692 1.390 . S
C2693 C2694 1.394 . S
C2693 C2699 1.465 . S
C2694 C2689 1.399 . S
C2694 C2693 1.394 . S
C2694 C2695 1.516 . S
C2695 C2694 1.516 . S
C2695 C2696 1.502 . S
C2695 C2697 1.561 . S
C2695 C2698 1.526 . S
C2696 H2680 0.959 . S
C2696 H2681 0.959 . S
C2696 H2682 0.961 . S
C2696 C2695 1.502 . S
C2697 H2683 0.960 . S
C2697 H2684 0.961 . S
C2697 H2685 0.959 . S
C2697 C2695 1.561 . S
C2698 C2695 1.526 . S
C2698 C2699 1.396 . S
C2698 C2703 1.390 . S
C2699 C2693 1.465 . S
C2699 C2698 1.396 . S
C2699 C2700 1.399 . S
C2700 H2686 0.929 . S
C2700 C2699 1.399 . S
C2700 C2701 1.385 . S
C2701 H2687 0.931 . S
C2701 C2700 1.385 . S
C2701 C2702 1.389 . S
C2702 C2701 1.389 . S
C2702 C2703 1.387 . S
C2703 H2688 0.930 . S
C2703 C2698 1.390 . S
C2703 C2702 1.387 . S
H2704 C2716 0.930 . S
H2705 C2718 0.930 . S
H2706 C2719 0.930 . S
H2707 C2723 0.959 . S
H2708 C2723 0.959 . S
H2709 C2723 0.961 . S
H2710 C2724 0.960 . S
H2711 C2724 0.961 . S
H2712 C2724 0.959 . S
H2713 C2727 0.929 . S
H2714 C2728 0.931 . S
H2715 C2730 0.930 . S
C2716 H2704 0.930 . S
C2716 C2717 1.399 . S
C2716 C2721 1.399 . S
C2717 C2716 1.399 . S
C2717 C2718 1.376 . S
C2718 H2705 0.930 . S
C2718 C2717 1.376 . S
C2718 C2719 1.388 . S
C2719 H2706 0.930 . S
C2719 C2718 1.388 . S
C2719 C2720 1.390 . S
C2720 C2719 1.390 . S
C2720 C2721 1.394 . S
C2720 C2726 1.465 . S
C2721 C2716 1.399 . S
C2721 C2720 1.394 . S
C2721 C2722 1.516 . S
C2722 C2721 1.516 . S
C2722 C2723 1.502 . S
C2722 C2724 1.561 . S
C2722 C2725 1.526 . S
C2723 H2707 0.959 . S
C2723 H2708 0.959 . S
C2723 H2709 0.961 . S
C2723 C2722 1.502 . S
C2724 H2710 0.960 . S
C2724 H2711 0.961 . S
C2724 H2712 0.959 . S
C2724 C2722 1.561 . S
C2725 C2722 1.526 . S
C2725 C2726 1.396 . S
C2725 C2730 1.390 . S
C2726 C2720 1.465 . S
C2726 C2725 1.396 . S
C2726 C2727 1.399 . S
C2727 H2713 0.929 . S
C2727 C2726 1.399 . S
C2727 C2728 1.385 . S
C2728 H2714 0.931 . S
C2728 C2727 1.385 . S
C2728 C2729 1.389 . S
C2729 C2728 1.389 . S
C2729 C2730 1.387 . S
C2730 H2715 0.930 . S
C2730 C2725 1.390 . S
C2730 C2729 1.387 . S
H2731 C2743 0.930 . S
H2732 C2745 0.930 . S
H2733 C2746 0.930 . S
H2734 C2750 0.959 . S
H2735 C2750 0.959 . S
H2736 C2750 0.961 . S
H2737 C2751 0.960 . S
H2738 C2751 0.961 . S
H2739 C2751 0.959 . S
H2740 C2754 0.929 . S
H2741 C2755 0.931 . S
H2742 C2757 0.930 . S
C2743 H2731 0.930 . S
C2743 C2744 1.399 . S
C2743 C2748 1.399 . S
C2744 C2743 1.399 . S
C2744 C2745 1.376 . S
C2745 H2732 0.930 . S
C2745 C2744 1.376 . S
C2745 C2746 1.388 . S
C2746 H2733 0.930 . S
C2746 C2745 1.388 . S
C2746 C2747 1.390 . S
C2747 C2746 1.390 . S
C2747 C2748 1.394 . S
C2747 C2753 1.465 . S
C2748 C2743 1.399 . S
C2748 C2747 1.394 . S
C2748 C2749 1.516 . S
C2749 C2748 1.516 . S
C2749 C2750 1.502 . S
C2749 C2751 1.561 . S
C2749 C2752 1.526 . S
C2750 H2734 0.959 . S
C2750 H2735 0.959 . S
C2750 H2736 0.961 . S
C2750 C2749 1.502 . S
C2751 H2737 0.960 . S
C2751 H2738 0.961 . S
C2751 H2739 0.959 . S
C2751 C2749 1.561 . S
C2752 C2749 1.526 . S
C2752 C2753 1.396 . S
C2752 C2757 1.390 . S
C2753 C2747 1.465 . S
C2753 C2752 1.396 . S
C2753 C2754 1.399 . S
C2754 H2740 0.929 . S
C2754 C2753 1.399 . S
C2754 C2755 1.385 . S
C2755 H2741 0.931 . S
C2755 C2754 1.385 . S
C2755 C2756 1.389 . S
C2756 C2755 1.389 . S
C2756 C2757 1.387 . S
C2757 H2742 0.930 . S
C2757 C2752 1.390 . S
C2757 C2756 1.387 . S
H2758 C2770 0.930 . S
H2759 C2772 0.930 . S
H2760 C2773 0.930 . S
H2761 C2777 0.959 . S
H2762 C2777 0.959 . S
H2763 C2777 0.961 . S
H2764 C2778 0.960 . S
H2765 C2778 0.961 . S
H2766 C2778 0.959 . S
H2767 C2781 0.929 . S
H2768 C2782 0.931 . S
H2769 C2784 0.930 . S
C2770 H2758 0.930 . S
C2770 C2771 1.399 . S
C2770 C2775 1.399 . S
C2771 C2770 1.399 . S
C2771 C2772 1.376 . S
C2772 H2759 0.930 . S
C2772 C2771 1.376 . S
C2772 C2773 1.388 . S
C2773 H2760 0.930 . S
C2773 C2772 1.388 . S
C2773 C2774 1.390 . S
C2774 C2773 1.390 . S
C2774 C2775 1.394 . S
C2774 C2780 1.465 . S
C2775 C2770 1.399 . S
C2775 C2774 1.394 . S
C2775 C2776 1.516 . S
C2776 C2775 1.516 . S
C2776 C2777 1.502 . S
C2776 C2778 1.561 . S
C2776 C2779 1.526 . S
C2777 H2761 0.959 . S
C2777 H2762 0.959 . S
C2777 H2763 0.961 . S
C2777 C2776 1.502 . S
C2778 H2764 0.960 . S
C2778 H2765 0.961 . S
C2778 H2766 0.959 . S
C2778 C2776 1.561 . S
C2779 C2776 1.526 . S
C2779 C2780 1.396 . S
C2779 C2784 1.390 . S
C2780 C2774 1.465 . S
C2780 C2779 1.396 . S
C2780 C2781 1.399 . S
C2781 H2767 0.929 . S
C2781 C2780 1.399 . S
C2781 C2782 1.385 . S
C2782 H2768 0.931 . S
C2782 C2781 1.385 . S
C2782 C2783 1.389 . S
C2783 C2782 1.389 . S
C2783 C2784 1.387 . S
C2784 H2769 0.930 . S
C2784 C2779 1.390 . S
C2784 C2783 1.387 . S
H2785 C2797 0.930 . S
H2786 C2799 0.930 . S
H2787 C2800 0.930 . S
H2788 C2804 0.959 . S
H2789 C2804 0.959 . S
H2790 C2804 0.961 . S
H2791 C2805 0.960 . S
H2792 C2805 0.961 . S
H2793 C2805 0.959 . S
H2794 C2808 0.929 1_545 S
H2795 C2809 0.931 . S
H2796 C2811 0.930 . S
C2797 H2785 0.930 . S
C2797 C2798 1.399 . S
C2797 C2802 1.399 . S
C2798 C2797 1.399 . S
C2798 C2799 1.376 . S
C2799 H2786 0.930 . S
C2799 C2798 1.376 . S
C2799 C2800 1.388 . S
C2800 H2787 0.930 . S
C2800 C2799 1.388 . S
C2800 C2801 1.390 . S
C2801 C2800 1.390 . S
C2801 C2802 1.394 . S
C2801 C2807 1.465 . S
C2802 C2797 1.399 . S
C2802 C2801 1.394 . S
C2802 C2803 1.516 . S
C2803 C2802 1.516 . S
C2803 C2804 1.502 . S
C2803 C2805 1.561 . S
C2803 C2806 1.526 . S
C2804 H2788 0.959 . S
C2804 H2789 0.959 . S
C2804 H2790 0.961 . S
C2804 C2803 1.502 . S
C2805 H2791 0.960 . S
C2805 H2792 0.961 . S
C2805 H2793 0.959 . S
C2805 C2803 1.561 . S
C2806 C2803 1.526 . S
C2806 C2807 1.396 . S
C2806 C2811 1.390 . S
C2807 C2801 1.465 . S
C2807 C2806 1.396 . S
C2807 C2808 1.399 . S
C2808 H2794 0.929 1_565 S
C2808 C2807 1.399 . S
C2808 C2809 1.385 1_565 S
C2809 H2795 0.931 . S
C2809 C2808 1.385 1_545 S
C2809 C2810 1.389 . S
C2810 C2809 1.389 . S
C2810 C2811 1.387 1_545 S
C2811 H2796 0.930 . S
C2811 C2806 1.390 . S
C2811 C2810 1.387 1_565 S
H2812 C2824 0.930 . S
H2813 C2826 0.930 . S
H2814 C2827 0.930 . S
H2815 C2831 0.959 . S
H2816 C2831 0.959 . S
H2817 C2831 0.961 . S
H2818 C2832 0.960 . S
H2819 C2832 0.961 . S
H2820 C2832 0.959 . S
H2821 C2835 0.929 . S
H2822 C2836 0.931 . S
H2823 C2838 0.930 . S
C2824 H2812 0.930 . S
C2824 C2825 1.399 . S
C2824 C2829 1.399 . S
C2825 C2824 1.399 . S
C2825 C2826 1.376 . S
C2826 H2813 0.930 . S
C2826 C2825 1.376 . S
C2826 C2827 1.388 . S
C2827 H2814 0.930 . S
C2827 C2826 1.388 . S
C2827 C2828 1.390 . S
C2828 C2827 1.390 . S
C2828 C2829 1.394 . S
C2828 C2834 1.465 . S
C2829 C2824 1.399 . S
C2829 C2828 1.394 . S
C2829 C2830 1.516 . S
C2830 C2829 1.516 . S
C2830 C2831 1.502 . S
C2830 C2832 1.561 . S
C2830 C2833 1.526 . S
C2831 H2815 0.959 . S
C2831 H2816 0.959 . S
C2831 H2817 0.961 . S
C2831 C2830 1.502 . S
C2832 H2818 0.960 . S
C2832 H2819 0.961 . S
C2832 H2820 0.959 . S
C2832 C2830 1.561 . S
C2833 C2830 1.526 . S
C2833 C2834 1.396 . S
C2833 C2838 1.390 . S
C2834 C2828 1.465 . S
C2834 C2833 1.396 . S
C2834 C2835 1.399 . S
C2835 H2821 0.929 . S
C2835 C2834 1.399 . S
C2835 C2836 1.385 . S
C2836 H2822 0.931 . S
C2836 C2835 1.385 . S
C2836 C2837 1.389 . S
C2837 C2836 1.389 . S
C2837 C2838 1.387 . S
C2838 H2823 0.930 . S
C2838 C2833 1.390 . S
C2838 C2837 1.387 . S
H2839 C2851 0.930 . S
H2840 C2853 0.930 . S
H2841 C2854 0.930 . S
H2842 C2858 0.959 . S
H2843 C2858 0.959 . S
H2844 C2858 0.961 . S
H2845 C2859 0.960 . S
H2846 C2859 0.961 . S
H2847 C2859 0.959 . S
H2848 C2862 0.929 . S
H2849 C2863 0.931 . S
H2850 C2865 0.930 . S
C2851 H2839 0.930 . S
C2851 C2852 1.399 . S
C2851 C2856 1.399 . S
C2852 C2851 1.399 . S
C2852 C2853 1.376 . S
C2853 H2840 0.930 . S
C2853 C2852 1.376 . S
C2853 C2854 1.388 . S
C2854 H2841 0.930 . S
C2854 C2853 1.388 . S
C2854 C2855 1.390 . S
C2855 C2854 1.390 . S
C2855 C2856 1.394 . S
C2855 C2861 1.465 . S
C2856 C2851 1.399 . S
C2856 C2855 1.394 . S
C2856 C2857 1.516 . S
C2857 C2856 1.516 . S
C2857 C2858 1.502 . S
C2857 C2859 1.561 . S
C2857 C2860 1.526 . S
C2858 H2842 0.959 . S
C2858 H2843 0.959 . S
C2858 H2844 0.961 . S
C2858 C2857 1.502 . S
C2859 H2845 0.960 . S
C2859 H2846 0.961 . S
C2859 H2847 0.959 . S
C2859 C2857 1.561 . S
C2860 C2857 1.526 . S
C2860 C2861 1.396 . S
C2860 C2865 1.390 . S
C2861 C2855 1.465 . S
C2861 C2860 1.396 . S
C2861 C2862 1.399 . S
C2862 H2848 0.929 . S
C2862 C2861 1.399 . S
C2862 C2863 1.385 . S
C2863 H2849 0.931 . S
C2863 C2862 1.385 . S
C2863 C2864 1.389 . S
C2864 C2863 1.389 . S
C2864 C2865 1.387 . S
C2865 H2850 0.930 . S
C2865 C2860 1.390 . S
C2865 C2864 1.387 . S
H2866 C2878 0.930 . S
H2867 C2880 0.930 . S
H2868 C2881 0.930 . S
H2869 C2885 0.959 . S
H2870 C2885 0.959 . S
H2871 C2885 0.961 . S
H2872 C2886 0.960 . S
H2873 C2886 0.961 . S
H2874 C2886 0.959 . S
H2875 C2889 0.929 . S
H2876 C2890 0.931 . S
H2877 C2892 0.930 . S
C2878 H2866 0.930 . S
C2878 C2879 1.399 . S
C2878 C2883 1.399 . S
C2879 C2878 1.399 . S
C2879 C2880 1.376 . S
C2880 H2867 0.930 . S
C2880 C2879 1.376 . S
C2880 C2881 1.388 . S
C2881 H2868 0.930 . S
C2881 C2880 1.388 . S
C2881 C2882 1.390 . S
C2882 C2881 1.390 . S
C2882 C2883 1.394 . S
C2882 C2888 1.465 . S
C2883 C2878 1.399 . S
C2883 C2882 1.394 . S
C2883 C2884 1.516 . S
C2884 C2883 1.516 . S
C2884 C2885 1.502 . S
C2884 C2886 1.561 . S
C2884 C2887 1.526 . S
C2885 H2869 0.959 . S
C2885 H2870 0.959 . S
C2885 H2871 0.961 . S
C2885 C2884 1.502 . S
C2886 H2872 0.960 . S
C2886 H2873 0.961 . S
C2886 H2874 0.959 . S
C2886 C2884 1.561 . S
C2887 C2884 1.526 . S
C2887 C2888 1.396 . S
C2887 C2892 1.390 . S
C2888 C2882 1.465 . S
C2888 C2887 1.396 . S
C2888 C2889 1.399 . S
C2889 H2875 0.929 . S
C2889 C2888 1.399 . S
C2889 C2890 1.385 . S
C2890 H2876 0.931 . S
C2890 C2889 1.385 . S
C2890 C2891 1.389 . S
C2891 C2890 1.389 . S
C2891 C2892 1.387 . S
C2892 H2877 0.930 . S
C2892 C2887 1.390 . S
C2892 C2891 1.387 . S
H2893 C2905 0.930 . S
H2894 C2907 0.930 . S
H2895 C2908 0.930 . S
H2896 C2912 0.959 1_565 S
H2897 C2912 0.959 1_565 S
H2898 C2912 0.961 . S
H2899 C2913 0.960 . S
H2900 C2913 0.961 . S
H2901 C2913 0.959 . S
H2902 C2916 0.929 . S
H2903 C2917 0.931 . S
H2904 C2919 0.930 . S
C2905 H2893 0.930 . S
C2905 C2906 1.399 . S
C2905 C2910 1.399 . S
C2906 C2905 1.399 . S
C2906 C2907 1.376 . S
C2907 H2894 0.930 . S
C2907 C2906 1.376 . S
C2907 C2908 1.388 . S
C2908 H2895 0.930 . S
C2908 C2907 1.388 . S
C2908 C2909 1.390 . S
C2909 C2908 1.390 . S
C2909 C2910 1.394 . S
C2909 C2915 1.465 . S
C2910 C2905 1.399 . S
C2910 C2909 1.394 . S
C2910 C2911 1.516 . S
C2911 C2910 1.516 . S
C2911 C2912 1.502 . S
C2911 C2913 1.561 . S
C2911 C2914 1.526 . S
C2912 H2896 0.959 1_545 S
C2912 H2897 0.959 1_545 S
C2912 H2898 0.961 . S
C2912 C2911 1.502 . S
C2913 H2899 0.960 . S
C2913 H2900 0.961 . S
C2913 H2901 0.959 . S
C2913 C2911 1.561 . S
C2914 C2911 1.526 . S
C2914 C2915 1.396 . S
C2914 C2919 1.390 1_545 S
C2915 C2909 1.465 . S
C2915 C2914 1.396 . S
C2915 C2916 1.399 . S
C2916 H2902 0.929 . S
C2916 C2915 1.399 . S
C2916 C2917 1.385 1_545 S
C2917 H2903 0.931 . S
C2917 C2916 1.385 1_565 S
C2917 C2918 1.389 . S
C2918 C2917 1.389 . S
C2918 C2919 1.387 . S
C2919 H2904 0.930 . S
C2919 C2914 1.390 1_565 S
C2919 C2918 1.387 . S
H2920 C2932 0.930 . S
H2921 C2934 0.930 . S
H2922 C2935 0.930 . S
H2923 C2939 0.959 . S
H2924 C2939 0.959 . S
H2925 C2939 0.961 . S
H2926 C2940 0.960 . S
H2927 C2940 0.961 . S
H2928 C2940 0.959 . S
H2929 C2943 0.929 . S
H2930 C2944 0.931 . S
H2931 C2946 0.930 . S
C2932 H2920 0.930 . S
C2932 C2933 1.399 . S
C2932 C2937 1.399 . S
C2933 C2932 1.399 . S
C2933 C2934 1.376 . S
C2934 H2921 0.930 . S
C2934 C2933 1.376 . S
C2934 C2935 1.388 . S
C2935 H2922 0.930 . S
C2935 C2934 1.388 . S
C2935 C2936 1.390 . S
C2936 C2935 1.390 . S
C2936 C2937 1.394 . S
C2936 C2942 1.465 . S
C2937 C2932 1.399 . S
C2937 C2936 1.394 . S
C2937 C2938 1.516 . S
C2938 C2937 1.516 . S
C2938 C2939 1.502 . S
C2938 C2940 1.561 . S
C2938 C2941 1.526 . S
C2939 H2923 0.959 . S
C2939 H2924 0.959 . S
C2939 H2925 0.961 . S
C2939 C2938 1.502 . S
C2940 H2926 0.960 . S
C2940 H2927 0.961 . S
C2940 H2928 0.959 . S
C2940 C2938 1.561 . S
C2941 C2938 1.526 . S
C2941 C2942 1.396 . S
C2941 C2946 1.390 . S
C2942 C2936 1.465 . S
C2942 C2941 1.396 . S
C2942 C2943 1.399 . S
C2943 H2929 0.929 . S
C2943 C2942 1.399 . S
C2943 C2944 1.385 . S
C2944 H2930 0.931 . S
C2944 C2943 1.385 . S
C2944 C2945 1.389 . S
C2945 C2944 1.389 . S
C2945 C2946 1.387 . S
C2946 H2931 0.930 . S
C2946 C2941 1.390 . S
C2946 C2945 1.387 . S
H2947 C2959 0.930 . S
H2948 C2961 0.930 . S
H2949 C2962 0.930 . S
H2950 C2966 0.959 . S
H2951 C2966 0.959 . S
H2952 C2966 0.961 . S
H2953 C2967 0.960 . S
H2954 C2967 0.961 . S
H2955 C2967 0.959 . S
H2956 C2970 0.929 . S
H2957 C2971 0.931 . S
H2958 C2973 0.930 . S
C2959 H2947 0.930 . S
C2959 C2960 1.399 . S
C2959 C2964 1.399 . S
C2960 C2959 1.399 . S
C2960 C2961 1.376 . S
C2961 H2948 0.930 . S
C2961 C2960 1.376 . S
C2961 C2962 1.388 . S
C2962 H2949 0.930 . S
C2962 C2961 1.388 . S
C2962 C2963 1.390 . S
C2963 C2962 1.390 . S
C2963 C2964 1.394 . S
C2963 C2969 1.465 . S
C2964 C2959 1.399 . S
C2964 C2963 1.394 . S
C2964 C2965 1.516 . S
C2965 C2964 1.516 . S
C2965 C2966 1.502 . S
C2965 C2967 1.561 . S
C2965 C2968 1.526 . S
C2966 H2950 0.959 . S
C2966 H2951 0.959 . S
C2966 H2952 0.961 . S
C2966 C2965 1.502 . S
C2967 H2953 0.960 . S
C2967 H2954 0.961 . S
C2967 H2955 0.959 . S
C2967 C2965 1.561 . S
C2968 C2965 1.526 . S
C2968 C2969 1.396 . S
C2968 C2973 1.390 . S
C2969 C2963 1.465 . S
C2969 C2968 1.396 . S
C2969 C2970 1.399 . S
C2970 H2956 0.929 . S
C2970 C2969 1.399 . S
C2970 C2971 1.385 . S
C2971 H2957 0.931 . S
C2971 C2970 1.385 . S
C2971 C2972 1.389 . S
C2972 C2971 1.389 . S
C2972 C2973 1.387 . S
C2973 H2958 0.930 . S
C2973 C2968 1.390 . S
C2973 C2972 1.387 . S
H2974 C2986 0.930 . S
H2975 C2988 0.930 . S
H2976 C2989 0.930 . S
H2977 C2993 0.959 . S
H2978 C2993 0.959 1_655 S
H2979 C2993 0.961 1_655 S
H2980 C2994 0.960 . S
H2981 C2994 0.961 . S
H2982 C2994 0.959 1_455 S
H2983 C2997 0.929 . S
H2984 C2998 0.931 . S
H2985 C3000 0.930 . S
C2986 H2974 0.930 . S
C2986 C2987 1.399 . S
C2986 C2991 1.399 . S
C2987 C2986 1.399 . S
C2987 C2988 1.376 . S
C2988 H2975 0.930 . S
C2988 C2987 1.376 . S
C2988 C2989 1.388 . S
C2989 H2976 0.930 . S
C2989 C2988 1.388 . S
C2989 C2990 1.390 . S
C2990 C2989 1.390 . S
C2990 C2991 1.394 . S
C2990 C2996 1.465 . S
C2991 C2986 1.399 . S
C2991 C2990 1.394 . S
C2991 C2992 1.516 . S
C2992 C2991 1.516 . S
C2992 C2993 1.502 . S
C2992 C2994 1.561 1_455 S
C2992 C2995 1.526 . S
C2993 H2977 0.959 . S
C2993 H2978 0.959 1_455 S
C2993 H2979 0.961 1_455 S
C2993 C2992 1.502 . S
C2994 H2980 0.960 . S
C2994 H2981 0.961 . S
C2994 H2982 0.959 1_655 S
C2994 C2992 1.561 1_655 S
C2995 C2992 1.526 . S
C2995 C2996 1.396 . S
C2995 C3000 1.390 . S
C2996 C2990 1.465 . S
C2996 C2995 1.396 . S
C2996 C2997 1.399 . S
C2997 H2983 0.929 . S
C2997 C2996 1.399 . S
C2997 C2998 1.385 . S
C2998 H2984 0.931 . S
C2998 C2997 1.385 . S
C2998 C2999 1.389 . S
C2999 C2998 1.389 . S
C2999 C3000 1.387 . S
C3000 H2985 0.930 . S
C3000 C2995 1.390 . S
C3000 C2999 1.387 . S
H3001 C3013 0.930 . S
H3002 C3015 0.930 . S
H3003 C3016 0.930 . S
H3004 C3020 0.959 . S
H3005 C3020 0.959 . S
H3006 C3020 0.961 . S
H3007 C3021 0.960 . S
H3008 C3021 0.961 . S
H3009 C3021 0.959 . S
H3010 C3024 0.929 . S
H3011 C3025 0.931 . S
H3012 C3027 0.930 . S
C3013 H3001 0.930 . S
C3013 C3014 1.399 . S
C3013 C3018 1.399 . S
C3014 C3013 1.399 . S
C3014 C3015 1.376 . S
C3015 H3002 0.930 . S
C3015 C3014 1.376 . S
C3015 C3016 1.388 . S
C3016 H3003 0.930 . S
C3016 C3015 1.388 . S
C3016 C3017 1.390 . S
C3017 C3016 1.390 . S
C3017 C3018 1.394 . S
C3017 C3023 1.465 . S
C3018 C3013 1.399 . S
C3018 C3017 1.394 . S
C3018 C3019 1.516 . S
C3019 C3018 1.516 . S
C3019 C3020 1.502 . S
C3019 C3021 1.561 . S
C3019 C3022 1.526 . S
C3020 H3004 0.959 . S
C3020 H3005 0.959 . S
C3020 H3006 0.961 . S
C3020 C3019 1.502 . S
C3021 H3007 0.960 . S
C3021 H3008 0.961 . S
C3021 H3009 0.959 . S
C3021 C3019 1.561 . S
C3022 C3019 1.526 . S
C3022 C3023 1.396 . S
C3022 C3027 1.390 . S
C3023 C3017 1.465 . S
C3023 C3022 1.396 . S
C3023 C3024 1.399 . S
C3024 H3010 0.929 . S
C3024 C3023 1.399 . S
C3024 C3025 1.385 . S
C3025 H3011 0.931 . S
C3025 C3024 1.385 . S
C3025 C3026 1.389 . S
C3026 C3025 1.389 . S
C3026 C3027 1.387 . S
C3027 H3012 0.930 . S
C3027 C3022 1.390 . S
C3027 C3026 1.387 . S
H3028 C3040 0.930 . S
H3029 C3042 0.930 1_556 S
H3030 C3043 0.954 . S
H3031 C3047 0.959 . S
H3032 C3047 0.959 . S
H3033 C3047 0.961 . S
H3034 C3048 0.960 . S
H3035 C3048 0.961 . S
H3036 C3048 0.959 . S
H3037 C3051 0.929 1_556 S
H3038 C3052 0.931 . S
H3039 C3054 0.930 . S
C3040 H3028 0.930 . S
C3040 C3041 1.399 . S
C3040 C3045 1.399 . S
C3041 C3040 1.399 . S
C3041 C3042 1.376 . S
C3042 H3029 0.930 1_554 S
C3042 C3041 1.376 . S
C3042 C3043 1.394 1_554 S
C3043 H3030 0.954 . S
C3043 C3042 1.394 1_556 S
C3043 C3044 1.360 1_556 S
C3044 C3043 1.360 1_554 S
C3044 C3045 1.394 . S
C3044 C3050 1.465 . S
C3045 C3040 1.399 . S
C3045 C3044 1.394 . S
C3045 C3046 1.516 . S
C3046 C3045 1.516 . S
C3046 C3047 1.502 . S
C3046 C3048 1.561 . S
C3046 C3049 1.526 . S
C3047 H3031 0.959 . S
C3047 H3032 0.959 . S
C3047 H3033 0.961 . S
C3047 C3046 1.502 . S
C3048 H3034 0.960 . S
C3048 H3035 0.961 . S
C3048 H3036 0.959 . S
C3048 C3046 1.561 . S
C3049 C3046 1.526 . S
C3049 C3050 1.396 . S
C3049 C3054 1.390 . S
C3050 C3044 1.465 . S
C3050 C3049 1.396 . S
C3050 C3051 1.399 . S
C3051 H3037 0.929 1_554 S
C3051 C3050 1.399 . S
C3051 C3052 1.385 . S
C3052 H3038 0.931 . S
C3052 C3051 1.385 . S
C3052 C3053 1.389 . S
C3053 C3052 1.389 . S
C3053 C3054 1.387 . S
C3054 H3039 0.930 . S
C3054 C3049 1.390 . S
C3054 C3053 1.387 . S
H3055 C3067 0.930 . S
H3056 C3069 0.930 . S
H3057 C3070 0.930 . S
H3058 C3074 0.959 . S
H3059 C3074 0.959 . S
H3060 C3074 0.961 . S
H3061 C3075 0.960 . S
H3062 C3075 0.961 . S
H3063 C3075 0.959 . S
H3064 C3078 0.929 . S
H3065 C3079 0.931 . S
H3066 C3081 0.930 . S
C3067 H3055 0.930 . S
C3067 C3068 1.399 . S
C3067 C3072 1.399 . S
C3068 C3067 1.399 . S
C3068 C3069 1.376 . S
C3069 H3056 0.930 . S
C3069 C3068 1.376 . S
C3069 C3070 1.388 . S
C3070 H3057 0.930 . S
C3070 C3069 1.388 . S
C3070 C3071 1.390 . S
C3071 C3070 1.390 . S
C3071 C3072 1.394 . S
C3071 C3077 1.465 . S
C3072 C3067 1.399 . S
C3072 C3071 1.394 . S
C3072 C3073 1.516 . S
C3073 C3072 1.516 . S
C3073 C3074 1.502 . S
C3073 C3075 1.561 . S
C3073 C3076 1.526 . S
C3074 H3058 0.959 . S
C3074 H3059 0.959 . S
C3074 H3060 0.961 . S
C3074 C3073 1.502 . S
C3075 H3061 0.960 . S
C3075 H3062 0.961 . S
C3075 H3063 0.959 . S
C3075 C3073 1.561 . S
C3076 C3073 1.526 . S
C3076 C3077 1.396 . S
C3076 C3081 1.390 . S
C3077 C3071 1.465 . S
C3077 C3076 1.396 . S
C3077 C3078 1.399 . S
C3078 H3064 0.929 . S
C3078 C3077 1.399 . S
C3078 C3079 1.385 . S
C3079 H3065 0.931 . S
C3079 C3078 1.385 . S
C3079 C3080 1.389 . S
C3080 C3079 1.389 . S
C3080 C3081 1.387 . S
C3081 H3066 0.930 . S
C3081 C3076 1.390 . S
C3081 C3080 1.387 . S
H3082 C3094 0.930 . S
H3083 C3096 0.930 . S
H3084 C3097 0.930 . S
H3085 C3101 0.959 . S
H3086 C3101 0.959 . S
H3087 C3101 0.961 . S
H3088 C3102 0.960 . S
H3089 C3102 0.961 . S
H3090 C3102 0.959 . S
H3091 C3105 0.929 . S
H3092 C3106 0.931 . S
H3093 C3108 0.930 . S
C3094 H3082 0.930 . S
C3094 C3095 1.399 . S
C3094 C3099 1.399 . S
C3095 C3094 1.399 . S
C3095 C3096 1.376 . S
C3096 H3083 0.930 . S
C3096 C3095 1.376 . S
C3096 C3097 1.388 . S
C3097 H3084 0.930 . S
C3097 C3096 1.388 . S
C3097 C3098 1.390 . S
C3098 C3097 1.390 . S
C3098 C3099 1.394 . S
C3098 C3104 1.465 . S
C3099 C3094 1.399 . S
C3099 C3098 1.394 . S
C3099 C3100 1.516 . S
C3100 C3099 1.516 . S
C3100 C3101 1.502 . S
C3100 C3102 1.561 . S
C3100 C3103 1.526 . S
C3101 H3085 0.959 . S
C3101 H3086 0.959 . S
C3101 H3087 0.961 . S
C3101 C3100 1.502 . S
C3102 H3088 0.960 . S
C3102 H3089 0.961 . S
C3102 H3090 0.959 . S
C3102 C3100 1.561 . S
C3103 C3100 1.526 . S
C3103 C3104 1.396 . S
C3103 C3108 1.390 . S
C3104 C3098 1.465 . S
C3104 C3103 1.396 . S
C3104 C3105 1.399 . S
C3105 H3091 0.929 . S
C3105 C3104 1.399 . S
C3105 C3106 1.385 . S
C3106 H3092 0.931 . S
C3106 C3105 1.385 . S
C3106 C3107 1.389 . S
C3107 C3106 1.389 . S
C3107 C3108 1.387 . S
C3108 H3093 0.930 . S
C3108 C3103 1.390 . S
C3108 C3107 1.387 . S
H3109 C3121 0.930 . S
H3110 C3123 0.930 . S
H3111 C3124 0.930 . S
H3112 C3128 0.959 . S
H3113 C3128 0.959 . S
H3114 C3128 0.961 . S
H3115 C3129 0.960 . S
H3116 C3129 0.961 . S
H3117 C3129 0.959 . S
H3118 C3132 0.929 . S
H3119 C3133 0.931 . S
H3120 C3135 0.930 . S
C3121 H3109 0.930 . S
C3121 C3122 1.399 . S
C3121 C3126 1.399 . S
C3122 C3121 1.399 . S
C3122 C3123 1.376 . S
C3123 H3110 0.930 . S
C3123 C3122 1.376 . S
C3123 C3124 1.388 . S
C3124 H3111 0.930 . S
C3124 C3123 1.388 . S
C3124 C3125 1.390 . S
C3125 C3124 1.390 . S
C3125 C3126 1.394 . S
C3125 C3131 1.465 . S
C3126 C3121 1.399 . S
C3126 C3125 1.394 . S
C3126 C3127 1.516 . S
C3127 C3126 1.516 . S
C3127 C3128 1.502 . S
C3127 C3129 1.561 . S
C3127 C3130 1.526 . S
C3128 H3112 0.959 . S
C3128 H3113 0.959 . S
C3128 H3114 0.961 . S
C3128 C3127 1.502 . S
C3129 H3115 0.960 . S
C3129 H3116 0.961 . S
C3129 H3117 0.959 . S
C3129 C3127 1.561 . S
C3130 C3127 1.526 . S
C3130 C3131 1.396 . S
C3130 C3135 1.390 . S
C3131 C3125 1.465 . S
C3131 C3130 1.396 . S
C3131 C3132 1.399 . S
C3132 H3118 0.929 . S
C3132 C3131 1.399 . S
C3132 C3133 1.385 . S
C3133 H3119 0.931 . S
C3133 C3132 1.385 . S
C3133 C3134 1.389 . S
C3134 C3133 1.389 . S
C3134 C3135 1.387 . S
C3135 H3120 0.930 . S
C3135 C3130 1.390 . S
C3135 C3134 1.387 . S
H3136 C3148 0.930 . S
H3137 C3150 0.930 . S
H3138 C3151 0.930 . S
H3139 C3155 0.959 . S
H3140 C3155 0.959 . S
H3141 C3155 0.961 . S
H3142 C3156 0.960 . S
H3143 C3156 0.961 . S
H3144 C3156 0.959 . S
H3145 C3159 0.929 . S
H3146 C3160 0.931 . S
H3147 C3162 0.930 . S
C3148 H3136 0.930 . S
C3148 C3149 1.399 . S
C3148 C3153 1.399 . S
C3149 C3148 1.399 . S
C3149 C3150 1.376 . S
C3150 H3137 0.930 . S
C3150 C3149 1.376 . S
C3150 C3151 1.388 . S
C3151 H3138 0.930 . S
C3151 C3150 1.388 . S
C3151 C3152 1.390 . S
C3152 C3151 1.390 . S
C3152 C3153 1.394 . S
C3152 C3158 1.465 . S
C3153 C3148 1.399 . S
C3153 C3152 1.394 . S
C3153 C3154 1.516 . S
C3154 C3153 1.516 . S
C3154 C3155 1.502 . S
C3154 C3156 1.561 . S
C3154 C3157 1.526 . S
C3155 H3139 0.959 . S
C3155 H3140 0.959 . S
C3155 H3141 0.961 . S
C3155 C3154 1.502 . S
C3156 H3142 0.960 . S
C3156 H3143 0.961 . S
C3156 H3144 0.959 . S
C3156 C3154 1.561 . S
C3157 C3154 1.526 . S
C3157 C3158 1.396 . S
C3157 C3162 1.390 . S
C3158 C3152 1.465 . S
C3158 C3157 1.396 . S
C3158 C3159 1.399 . S
C3159 H3145 0.929 . S
C3159 C3158 1.399 . S
C3159 C3160 1.385 . S
C3160 H3146 0.931 . S
C3160 C3159 1.385 . S
C3160 C3161 1.389 . S
C3161 C3160 1.389 . S
C3161 C3162 1.387 . S
C3162 H3147 0.930 . S
C3162 C3157 1.390 . S
C3162 C3161 1.387 . S
H3163 C3175 0.930 . S
H3164 C3177 0.930 . S
H3165 C3178 0.930 . S
H3166 C3182 0.959 . S
H3167 C3182 0.959 . S
H3168 C3182 0.961 . S
H3169 C3183 0.960 . S
H3170 C3183 0.961 . S
H3171 C3183 0.959 . S
H3172 C3186 0.929 . S
H3173 C3187 0.931 . S
H3174 C3189 0.930 . S
C3175 H3163 0.930 . S
C3175 C3176 1.399 . S
C3175 C3180 1.399 . S
C3176 C3175 1.399 . S
C3176 C3177 1.376 . S
C3177 H3164 0.930 . S
C3177 C3176 1.376 . S
C3177 C3178 1.388 . S
C3178 H3165 0.930 . S
C3178 C3177 1.388 . S
C3178 C3179 1.390 . S
C3179 C3178 1.390 . S
C3179 C3180 1.394 . S
C3179 C3185 1.465 . S
C3180 C3175 1.399 . S
C3180 C3179 1.394 . S
C3180 C3181 1.516 . S
C3181 C3180 1.516 . S
C3181 C3182 1.502 . S
C3181 C3183 1.561 . S
C3181 C3184 1.526 . S
C3182 H3166 0.959 . S
C3182 H3167 0.959 . S
C3182 H3168 0.961 . S
C3182 C3181 1.502 . S
C3183 H3169 0.960 . S
C3183 H3170 0.961 . S
C3183 H3171 0.959 . S
C3183 C3181 1.561 . S
C3184 C3181 1.526 . S
C3184 C3185 1.396 . S
C3184 C3189 1.390 . S
C3185 C3179 1.465 . S
C3185 C3184 1.396 . S
C3185 C3186 1.399 . S
C3186 H3172 0.929 . S
C3186 C3185 1.399 . S
C3186 C3187 1.385 . S
C3187 H3173 0.931 . S
C3187 C3186 1.385 . S
C3187 C3188 1.389 . S
C3188 C3187 1.389 . S
C3188 C3189 1.387 . S
C3189 H3174 0.930 . S
C3189 C3184 1.390 . S
C3189 C3188 1.387 . S
H3190 C3202 0.930 . S
H3191 C3204 0.930 . S
H3192 C3205 0.930 . S
H3193 C3209 0.959 . S
H3194 C3209 0.959 . S
H3195 C3209 0.961 . S
H3196 C3210 0.960 . S
H3197 C3210 0.961 . S
H3198 C3210 0.959 . S
H3199 C3213 0.929 1_655 S
H3200 C3214 0.931 . S
H3201 C3216 0.930 . S
C3202 H3190 0.930 . S
C3202 C3203 1.399 1_455 S
C3202 C3207 1.399 . S
C3203 C3202 1.399 1_655 S
C3203 C3204 1.376 . S
C3204 H3191 0.930 . S
C3204 C3203 1.376 . S
C3204 C3205 1.388 . S
C3205 H3192 0.930 . S
C3205 C3204 1.388 . S
C3205 C3206 1.390 1_655 S
C3206 C3205 1.390 1_455 S
C3206 C3207 1.394 . S
C3206 C3212 1.465 . S
C3207 C3202 1.399 . S
C3207 C3206 1.394 . S
C3207 C3208 1.516 . S
C3208 C3207 1.516 . S
C3208 C3209 1.502 . S
C3208 C3210 1.561 . S
C3208 C3211 1.526 . S
C3209 H3193 0.959 . S
C3209 H3194 0.959 . S
C3209 H3195 0.961 . S
C3209 C3208 1.502 . S
C3210 H3196 0.960 . S
C3210 H3197 0.961 . S
C3210 H3198 0.959 . S
C3210 C3208 1.561 . S
C3211 C3208 1.526 . S
C3211 C3212 1.396 . S
C3211 C3216 1.390 1_556 S
C3212 C3206 1.465 . S
C3212 C3211 1.396 . S
C3212 C3213 1.399 . S
C3213 H3199 0.929 1_455 S
C3213 C3212 1.399 . S
C3213 C3214 1.385 1_556 S
C3214 H3200 0.931 . S
C3214 C3213 1.385 1_554 S
C3214 C3215 1.389 . S
C3215 C3214 1.389 . S
C3215 C3216 1.387 . S
C3216 H3201 0.930 . S
C3216 C3211 1.390 1_554 S
C3216 C3215 1.387 . S
H3217 C3229 0.930 . S
H3218 C3231 0.930 . S
H3219 C3232 0.930 . S
H3220 C3236 0.959 . S
H3221 C3236 0.959 . S
H3222 C3236 0.961 . S
H3223 C3237 0.960 . S
H3224 C3237 0.961 . S
H3225 C3237 0.959 . S
H3226 C3240 0.929 . S
H3227 C3241 0.931 . S
H3228 C3243 0.930 . S
C3229 H3217 0.930 . S
C3229 C3230 1.399 . S
C3229 C3234 1.399 . S
C3230 C3229 1.399 . S
C3230 C3231 1.376 . S
C3231 H3218 0.930 . S
C3231 C3230 1.376 . S
C3231 C3232 1.388 . S
C3232 H3219 0.930 . S
C3232 C3231 1.388 . S
C3232 C3233 1.390 . S
C3233 C3232 1.390 . S
C3233 C3234 1.394 . S
C3233 C3239 1.465 . S
C3234 C3229 1.399 . S
C3234 C3233 1.394 . S
C3234 C3235 1.516 . S
C3235 C3234 1.516 . S
C3235 C3236 1.502 . S
C3235 C3237 1.561 . S
C3235 C3238 1.526 . S
C3236 H3220 0.959 . S
C3236 H3221 0.959 . S
C3236 H3222 0.961 . S
C3236 C3235 1.502 . S
C3237 H3223 0.960 . S
C3237 H3224 0.961 . S
C3237 H3225 0.959 . S
C3237 C3235 1.561 . S
C3238 C3235 1.526 . S
C3238 C3239 1.396 . S
C3238 C3243 1.390 . S
C3239 C3233 1.465 . S
C3239 C3238 1.396 . S
C3239 C3240 1.399 . S
C3240 H3226 0.929 . S
C3240 C3239 1.399 . S
C3240 C3241 1.385 . S
C3241 H3227 0.931 . S
C3241 C3240 1.385 . S
C3241 C3242 1.389 . S
C3242 C3241 1.389 . S
C3242 C3243 1.387 . S
C3243 H3228 0.930 . S
C3243 C3238 1.390 . S
C3243 C3242 1.387 . S
H3244 C3256 0.930 . S
H3245 C3258 0.930 . S
H3246 C3259 0.930 . S
H3247 C3263 0.959 . S
H3248 C3263 0.959 . S
H3249 C3263 0.961 . S
H3250 C3264 0.960 . S
H3251 C3264 0.961 . S
H3252 C3264 0.959 . S
H3253 C3267 0.929 . S
H3254 C3268 0.931 . S
H3255 C3270 0.930 . S
C3256 H3244 0.930 . S
C3256 C3257 1.399 . S
C3256 C3261 1.399 . S
C3257 C3256 1.399 . S
C3257 C3258 1.376 . S
C3258 H3245 0.930 . S
C3258 C3257 1.376 . S
C3258 C3259 1.388 . S
C3259 H3246 0.930 . S
C3259 C3258 1.388 . S
C3259 C3260 1.390 . S
C3260 C3259 1.390 . S
C3260 C3261 1.394 . S
C3260 C3266 1.465 . S
C3261 C3256 1.399 . S
C3261 C3260 1.394 . S
C3261 C3262 1.516 . S
C3262 C3261 1.516 . S
C3262 C3263 1.502 . S
C3262 C3264 1.561 . S
C3262 C3265 1.526 . S
C3263 H3247 0.959 . S
C3263 H3248 0.959 . S
C3263 H3249 0.961 . S
C3263 C3262 1.502 . S
C3264 H3250 0.960 . S
C3264 H3251 0.961 . S
C3264 H3252 0.959 . S
C3264 C3262 1.561 . S
C3265 C3262 1.526 . S
C3265 C3266 1.396 . S
C3265 C3270 1.390 . S
C3266 C3260 1.465 . S
C3266 C3265 1.396 . S
C3266 C3267 1.399 . S
C3267 H3253 0.929 . S
C3267 C3266 1.399 . S
C3267 C3268 1.385 . S
C3268 H3254 0.931 . S
C3268 C3267 1.385 . S
C3268 C3269 1.389 . S
C3269 C3268 1.389 . S
C3269 C3270 1.387 . S
C3270 H3255 0.930 . S
C3270 C3265 1.390 . S
C3270 C3269 1.387 . S
H3271 C3283 0.930 . S
H3272 C3285 0.930 . S
H3273 C3286 0.930 . S
H3274 C3290 0.959 . S
H3275 C3290 0.959 . S
H3276 C3290 0.961 . S
H3277 C3291 0.960 . S
H3278 C3291 0.961 . S
H3279 C3291 0.959 . S
H3280 C3294 0.929 . S
H3281 C3295 0.931 . S
H3282 C3297 0.930 . S
C3283 H3271 0.930 . S
C3283 C3284 1.399 . S
C3283 C3288 1.399 . S
C3284 C3283 1.399 . S
C3284 C3285 1.376 . S
C3285 H3272 0.930 . S
C3285 C3284 1.376 . S
C3285 C3286 1.388 . S
C3286 H3273 0.930 . S
C3286 C3285 1.388 . S
C3286 C3287 1.390 . S
C3287 C3286 1.390 . S
C3287 C3288 1.394 . S
C3287 C3293 1.465 . S
C3288 C3283 1.399 . S
C3288 C3287 1.394 . S
C3288 C3289 1.516 . S
C3289 C3288 1.516 . S
C3289 C3290 1.502 . S
C3289 C3291 1.561 . S
C3289 C3292 1.526 . S
C3290 H3274 0.959 . S
C3290 H3275 0.959 . S
C3290 H3276 0.961 . S
C3290 C3289 1.502 . S
C3291 H3277 0.960 . S
C3291 H3278 0.961 . S
C3291 H3279 0.959 . S
C3291 C3289 1.561 . S
C3292 C3289 1.526 . S
C3292 C3293 1.396 . S
C3292 C3297 1.390 . S
C3293 C3287 1.465 . S
C3293 C3292 1.396 . S
C3293 C3294 1.399 . S
C3294 H3280 0.929 . S
C3294 C3293 1.399 . S
C3294 C3295 1.385 . S
C3295 H3281 0.931 . S
C3295 C3294 1.385 . S
C3295 C3296 1.389 . S
C3296 C3295 1.389 . S
C3296 C3297 1.387 . S
C3297 H3282 0.930 . S
C3297 C3292 1.390 . S
C3297 C3296 1.387 . S
H3298 C3310 0.930 . S
H3299 C3312 0.930 . S
H3300 C3313 0.930 . S
H3301 C3317 0.959 . S
H3302 C3317 0.959 . S
H3303 C3317 0.961 . S
H3304 C3318 0.960 . S
H3305 C3318 0.961 . S
H3306 C3318 0.959 . S
H3307 C3321 0.929 . S
H3308 C3322 0.931 . S
H3309 C3324 0.930 1_655 S
C3310 H3298 0.930 . S
C3310 C3311 1.399 . S
C3310 C3315 1.399 . S
C3311 C3310 1.399 . S
C3311 C3312 1.376 1_655 S
C3312 H3299 0.930 . S
C3312 C3311 1.376 1_455 S
C3312 C3313 1.388 . S
C3313 H3300 0.930 . S
C3313 C3312 1.388 . S
C3313 C3314 1.390 . S
C3314 C3313 1.390 . S
C3314 C3315 1.394 1_455 S
C3314 C3320 1.465 . S
C3315 C3310 1.399 . S
C3315 C3314 1.394 1_655 S
C3315 C3316 1.516 . S
C3316 C3315 1.516 . S
C3316 C3317 1.502 . S
C3316 C3318 1.561 . S
C3316 C3319 1.526 . S
C3317 H3301 0.959 . S
C3317 H3302 0.959 . S
C3317 H3303 0.961 . S
C3317 C3316 1.502 . S
C3318 H3304 0.960 . S
C3318 H3305 0.961 . S
C3318 H3306 0.959 . S
C3318 C3316 1.561 . S
C3319 C3316 1.526 . S
C3319 C3320 1.396 1_655 S
C3319 C3324 1.390 1_655 S
C3320 C3314 1.465 . S
C3320 C3319 1.396 1_455 S
C3320 C3321 1.399 . S
C3321 H3307 0.929 . S
C3321 C3320 1.399 . S
C3321 C3322 1.385 . S
C3322 H3308 0.931 . S
C3322 C3321 1.385 . S
C3322 C3323 1.389 . S
C3323 C3322 1.389 . S
C3323 C3324 1.387 . S
C3324 H3309 0.930 1_455 S
C3324 C3319 1.390 1_455 S
C3324 C3323 1.387 . S
H3325 C3337 0.930 . S
H3326 C3339 0.930 . S
H3327 C3340 0.930 . S
H3328 C3344 0.959 . S
H3329 C3344 0.959 . S
H3330 C3344 0.961 . S
H3331 C3345 0.960 . S
H3332 C3345 0.961 . S
H3333 C3345 0.959 . S
H3334 C3348 0.929 . S
H3335 C3349 0.931 . S
H3336 C3351 0.930 . S
C3337 H3325 0.930 . S
C3337 C3338 1.399 . S
C3337 C3342 1.399 . S
C3338 C3337 1.399 . S
C3338 C3339 1.376 . S
C3339 H3326 0.930 . S
C3339 C3338 1.376 . S
C3339 C3340 1.388 . S
C3340 H3327 0.930 . S
C3340 C3339 1.388 . S
C3340 C3341 1.390 . S
C3341 C3340 1.390 . S
C3341 C3342 1.394 . S
C3341 C3347 1.465 . S
C3342 C3337 1.399 . S
C3342 C3341 1.394 . S
C3342 C3343 1.516 . S
C3343 C3342 1.516 . S
C3343 C3344 1.502 . S
C3343 C3345 1.561 . S
C3343 C3346 1.526 . S
C3344 H3328 0.959 . S
C3344 H3329 0.959 . S
C3344 H3330 0.961 . S
C3344 C3343 1.502 . S
C3345 H3331 0.960 . S
C3345 H3332 0.961 . S
C3345 H3333 0.959 . S
C3345 C3343 1.561 . S
C3346 C3343 1.526 . S
C3346 C3347 1.396 . S
C3346 C3351 1.390 . S
C3347 C3341 1.465 . S
C3347 C3346 1.396 . S
C3347 C3348 1.399 . S
C3348 H3334 0.929 . S
C3348 C3347 1.399 . S
C3348 C3349 1.385 . S
C3349 H3335 0.931 . S
C3349 C3348 1.385 . S
C3349 C3350 1.389 . S
C3350 C3349 1.389 . S
C3350 C3351 1.387 . S
C3351 H3336 0.930 . S
C3351 C3346 1.390 . S
C3351 C3350 1.387 . S
H3352 C3364 0.930 . S
H3353 C3366 0.930 . S
H3354 C3367 0.930 . S
H3355 C3371 0.959 . S
H3356 C3371 0.959 . S
H3357 C3371 0.961 . S
H3358 C3372 0.960 . S
H3359 C3372 0.961 . S
H3360 C3372 0.959 . S
H3361 C3375 0.929 . S
H3362 C3376 0.931 . S
H3363 C3378 0.930 . S
C3364 H3352 0.930 . S
C3364 C3365 1.399 . S
C3364 C3369 1.399 . S
C3365 C3364 1.399 . S
C3365 C3366 1.376 . S
C3366 H3353 0.930 . S
C3366 C3365 1.376 . S
C3366 C3367 1.388 . S
C3367 H3354 0.930 . S
C3367 C3366 1.388 . S
C3367 C3368 1.390 . S
C3368 C3367 1.390 . S
C3368 C3369 1.394 . S
C3368 C3374 1.465 . S
C3369 C3364 1.399 . S
C3369 C3368 1.394 . S
C3369 C3370 1.516 . S
C3370 C3369 1.516 . S
C3370 C3371 1.502 . S
C3370 C3372 1.561 . S
C3370 C3373 1.526 . S
C3371 H3355 0.959 . S
C3371 H3356 0.959 . S
C3371 H3357 0.961 . S
C3371 C3370 1.502 . S
C3372 H3358 0.960 . S
C3372 H3359 0.961 . S
C3372 H3360 0.959 . S
C3372 C3370 1.561 . S
C3373 C3370 1.526 . S
C3373 C3374 1.396 . S
C3373 C3378 1.390 . S
C3374 C3368 1.465 . S
C3374 C3373 1.396 . S
C3374 C3375 1.399 . S
C3375 H3361 0.929 . S
C3375 C3374 1.399 . S
C3375 C3376 1.385 . S
C3376 H3362 0.931 . S
C3376 C3375 1.385 . S
C3376 C3377 1.389 . S
C3377 C3376 1.389 . S
C3377 C3378 1.387 . S
C3378 H3363 0.930 . S
C3378 C3373 1.390 . S
C3378 C3377 1.387 . S
H3379 C3391 0.930 1_565 S
H3380 C3393 0.930 . S
H3381 C3394 0.930 . S
H3382 C3398 0.959 . S
H3383 C3398 0.959 . S
H3384 C3398 0.961 . S
H3385 C3399 0.989 . S
H3386 C3399 0.979 . S
H3387 C3399 0.916 1_545 S
H3388 C3402 0.929 . S
H3389 C3403 0.931 . S
H3390 C3405 0.930 . S
C3391 H3379 0.930 1_545 S
C3391 C3392 1.399 . S
C3391 C3396 1.399 . S
C3392 C3391 1.399 . S
C3392 C3393 1.376 . S
C3393 H3380 0.930 . S
C3393 C3392 1.376 . S
C3393 C3394 1.388 . S
C3394 H3381 0.930 . S
C3394 C3393 1.388 . S
C3394 C3395 1.390 . S
C3395 C3394 1.390 . S
C3395 C3396 1.394 . S
C3395 C3401 1.465 . S
C3396 C3391 1.399 . S
C3396 C3395 1.394 . S
C3396 C3397 1.516 . S
C3397 C3396 1.516 . S
C3397 C3398 1.502 1_545 S
C3397 C3399 1.560 1_545 S
C3397 C3400 1.526 . S
C3398 H3382 0.959 . S
C3398 H3383 0.959 . S
C3398 H3384 0.961 . S
C3398 C3397 1.502 1_565 S
C3399 H3385 0.989 . S
C3399 H3386 0.979 . S
C3399 H3387 0.916 1_565 S
C3399 C3397 1.560 1_565 S
C3400 C3397 1.526 . S
C3400 C3401 1.396 . S
C3400 C3405 1.390 . S
C3401 C3395 1.465 . S
C3401 C3400 1.396 . S
C3401 C3402 1.399 . S
C3402 H3388 0.929 . S
C3402 C3401 1.399 . S
C3402 C3403 1.385 . S
C3403 H3389 0.931 . S
C3403 C3402 1.385 . S
C3403 C3404 1.389 . S
C3404 C3403 1.389 . S
C3404 C3405 1.387 . S
C3405 H3390 0.930 . S
C3405 C3400 1.390 . S
C3405 C3404 1.387 . S
H3406 C3418 0.930 . S
H3407 C3420 0.930 . S
H3408 C3421 0.930 . S
H3409 C3425 0.959 . S
H3410 C3425 0.959 . S
H3411 C3425 0.961 . S
H3412 C3426 0.960 . S
H3413 C3426 0.961 . S
H3414 C3426 0.959 . S
H3415 C3429 0.929 . S
H3416 C3430 0.931 . S
H3417 C3432 0.930 . S
C3418 H3406 0.930 . S
C3418 C3419 1.399 . S
C3418 C3423 1.399 . S
C3419 C3418 1.399 . S
C3419 C3420 1.376 . S
C3420 H3407 0.930 . S
C3420 C3419 1.376 . S
C3420 C3421 1.388 . S
C3421 H3408 0.930 . S
C3421 C3420 1.388 . S
C3421 C3422 1.390 . S
C3422 C3421 1.390 . S
C3422 C3423 1.394 . S
C3422 C3428 1.465 . S
C3423 C3418 1.399 . S
C3423 C3422 1.394 . S
C3423 C3424 1.516 . S
C3424 C3423 1.516 . S
C3424 C3425 1.502 . S
C3424 C3426 1.561 . S
C3424 C3427 1.526 . S
C3425 H3409 0.959 . S
C3425 H3410 0.959 . S
C3425 H3411 0.961 . S
C3425 C3424 1.502 . S
C3426 H3412 0.960 . S
C3426 H3413 0.961 . S
C3426 H3414 0.959 . S
C3426 C3424 1.561 . S
C3427 C3424 1.526 . S
C3427 C3428 1.396 . S
C3427 C3432 1.390 . S
C3428 C3422 1.465 . S
C3428 C3427 1.396 . S
C3428 C3429 1.399 . S
C3429 H3415 0.929 . S
C3429 C3428 1.399 . S
C3429 C3430 1.385 . S
C3430 H3416 0.931 . S
C3430 C3429 1.385 . S
C3430 C3431 1.389 . S
C3431 C3430 1.389 . S
C3431 C3432 1.387 . S
C3432 H3417 0.930 . S
C3432 C3427 1.390 . S
C3432 C3431 1.387 . S
H3433 C3445 0.930 . S
H3434 C3447 0.930 . S
H3435 C3448 0.930 . S
H3436 C3452 0.959 . S
H3437 C3452 0.959 . S
H3438 C3452 0.961 . S
H3439 C3453 0.960 . S
H3440 C3453 0.961 . S
H3441 C3453 0.959 . S
H3442 C3456 0.929 . S
H3443 C3457 0.931 . S
H3444 C3459 0.930 . S
C3445 H3433 0.930 . S
C3445 C3446 1.399 . S
C3445 C3450 1.399 . S
C3446 C3445 1.399 . S
C3446 C3447 1.376 . S
C3447 H3434 0.930 . S
C3447 C3446 1.376 . S
C3447 C3448 1.388 . S
C3448 H3435 0.930 . S
C3448 C3447 1.388 . S
C3448 C3449 1.390 . S
C3449 C3448 1.390 . S
C3449 C3450 1.394 . S
C3449 C3455 1.465 . S
C3450 C3445 1.399 . S
C3450 C3449 1.394 . S
C3450 C3451 1.516 . S
C3451 C3450 1.516 . S
C3451 C3452 1.502 . S
C3451 C3453 1.561 . S
C3451 C3454 1.526 . S
C3452 H3436 0.959 . S
C3452 H3437 0.959 . S
C3452 H3438 0.961 . S
C3452 C3451 1.502 . S
C3453 H3439 0.960 . S
C3453 H3440 0.961 . S
C3453 H3441 0.959 . S
C3453 C3451 1.561 . S
C3454 C3451 1.526 . S
C3454 C3455 1.396 . S
C3454 C3459 1.390 . S
C3455 C3449 1.465 . S
C3455 C3454 1.396 . S
C3455 C3456 1.399 . S
C3456 H3442 0.929 . S
C3456 C3455 1.399 . S
C3456 C3457 1.385 . S
C3457 H3443 0.931 . S
C3457 C3456 1.385 . S
C3457 C3458 1.389 . S
C3458 C3457 1.389 . S
C3458 C3459 1.387 . S
C3459 H3444 0.930 . S
C3459 C3454 1.390 . S
C3459 C3458 1.387 . S
H3460 C3472 0.930 . S
H3461 C3474 0.930 . S
H3462 C3475 0.930 . S
H3463 C3479 0.959 . S
H3464 C3479 0.959 . S
H3465 C3479 0.961 . S
H3466 C3480 0.960 . S
H3467 C3480 0.961 . S
H3468 C3480 0.959 . S
H3469 C3483 0.929 . S
H3470 C3484 0.931 . S
H3471 C3486 0.930 . S
C3472 H3460 0.930 . S
C3472 C3473 1.399 . S
C3472 C3477 1.399 . S
C3473 C3472 1.399 . S
C3473 C3474 1.376 . S
C3474 H3461 0.930 . S
C3474 C3473 1.376 . S
C3474 C3475 1.388 . S
C3475 H3462 0.930 . S
C3475 C3474 1.388 . S
C3475 C3476 1.390 . S
C3476 C3475 1.390 . S
C3476 C3477 1.394 . S
C3476 C3482 1.465 . S
C3477 C3472 1.399 . S
C3477 C3476 1.394 . S
C3477 C3478 1.516 . S
C3478 C3477 1.516 . S
C3478 C3479 1.502 . S
C3478 C3480 1.561 . S
C3478 C3481 1.526 . S
C3479 H3463 0.959 . S
C3479 H3464 0.959 . S
C3479 H3465 0.961 . S
C3479 C3478 1.502 . S
C3480 H3466 0.960 . S
C3480 H3467 0.961 . S
C3480 H3468 0.959 . S
C3480 C3478 1.561 . S
C3481 C3478 1.526 . S
C3481 C3482 1.396 . S
C3481 C3486 1.390 . S
C3482 C3476 1.465 . S
C3482 C3481 1.396 . S
C3482 C3483 1.399 . S
C3483 H3469 0.929 . S
C3483 C3482 1.399 . S
C3483 C3484 1.385 . S
C3484 H3470 0.931 . S
C3484 C3483 1.385 . S
C3484 C3485 1.389 . S
C3485 C3484 1.389 . S
C3485 C3486 1.387 . S
C3486 H3471 0.930 . S
C3486 C3481 1.390 . S
C3486 C3485 1.387 . S
H3487 C3499 0.930 . S
H3488 C3501 0.930 . S
H3489 C3502 0.930 . S
H3490 C3506 0.959 . S
H3491 C3506 0.959 . S
H3492 C3506 0.961 . S
H3493 C3507 0.960 . S
H3494 C3507 0.961 . S
H3495 C3507 0.959 . S
H3496 C3510 0.929 . S
H3497 C3511 0.931 . S
H3498 C3513 0.930 . S
C3499 H3487 0.930 . S
C3499 C3500 1.399 . S
C3499 C3504 1.399 . S
C3500 C3499 1.399 . S
C3500 C3501 1.376 . S
C3501 H3488 0.930 . S
C3501 C3500 1.376 . S
C3501 C3502 1.388 . S
C3502 H3489 0.930 . S
C3502 C3501 1.388 . S
C3502 C3503 1.390 . S
C3503 C3502 1.390 . S
C3503 C3504 1.394 . S
C3503 C3509 1.465 . S
C3504 C3499 1.399 . S
C3504 C3503 1.394 . S
C3504 C3505 1.516 . S
C3505 C3504 1.516 . S
C3505 C3506 1.502 . S
C3505 C3507 1.561 . S
C3505 C3508 1.526 . S
C3506 H3490 0.959 . S
C3506 H3491 0.959 . S
C3506 H3492 0.961 . S
C3506 C3505 1.502 . S
C3507 H3493 0.960 . S
C3507 H3494 0.961 . S
C3507 H3495 0.959 . S
C3507 C3505 1.561 . S
C3508 C3505 1.526 . S
C3508 C3509 1.396 . S
C3508 C3513 1.390 . S
C3509 C3503 1.465 . S
C3509 C3508 1.396 . S
C3509 C3510 1.399 . S
C3510 H3496 0.929 . S
C3510 C3509 1.399 . S
C3510 C3511 1.385 . S
C3511 H3497 0.931 . S
C3511 C3510 1.385 . S
C3511 C3512 1.389 . S
C3512 C3511 1.389 . S
C3512 C3513 1.387 . S
C3513 H3498 0.930 . S
C3513 C3508 1.390 . S
C3513 C3512 1.387 . S
H3514 C3526 0.930 . S
H3515 C3528 0.930 . S
H3516 C3529 0.930 . S
H3517 C3533 0.959 . S
H3518 C3533 0.959 . S
H3519 C3533 0.961 . S
H3520 C3534 0.960 . S
H3521 C3534 0.961 . S
H3522 C3534 0.959 . S
H3523 C3537 0.929 . S
H3524 C3538 0.931 . S
H3525 C3540 0.930 . S
C3526 H3514 0.930 . S
C3526 C3527 1.399 . S
C3526 C3531 1.399 . S
C3527 C3526 1.399 . S
C3527 C3528 1.376 . S
C3528 H3515 0.930 . S
C3528 C3527 1.376 . S
C3528 C3529 1.388 . S
C3529 H3516 0.930 . S
C3529 C3528 1.388 . S
C3529 C3530 1.390 . S
C3530 C3529 1.390 . S
C3530 C3531 1.394 . S
C3530 C3536 1.465 . S
C3531 C3526 1.399 . S
C3531 C3530 1.394 . S
C3531 C3532 1.516 . S
C3532 C3531 1.516 . S
C3532 C3533 1.502 . S
C3532 C3534 1.561 . S
C3532 C3535 1.526 . S
C3533 H3517 0.959 . S
C3533 H3518 0.959 . S
C3533 H3519 0.961 . S
C3533 C3532 1.502 . S
C3534 H3520 0.960 . S
C3534 H3521 0.961 . S
C3534 H3522 0.959 . S
C3534 C3532 1.561 . S
C3535 C3532 1.526 . S
C3535 C3536 1.396 . S
C3535 C3540 1.390 . S
C3536 C3530 1.465 . S
C3536 C3535 1.396 . S
C3536 C3537 1.399 . S
C3537 H3523 0.929 . S
C3537 C3536 1.399 . S
C3537 C3538 1.385 . S
C3538 H3524 0.931 . S
C3538 C3537 1.385 . S
C3538 C3539 1.389 . S
C3539 C3538 1.389 . S
C3539 C3540 1.387 . S
C3540 H3525 0.930 . S
C3540 C3535 1.390 . S
C3540 C3539 1.387 . S
H3541 C3553 0.930 . S
H3542 C3555 0.930 . S
H3543 C3556 0.930 . S
H3544 C3560 0.959 . S
H3545 C3560 0.959 . S
H3546 C3560 0.961 . S
H3547 C3561 0.960 . S
H3548 C3561 0.961 . S
H3549 C3561 0.959 . S
H3550 C3564 0.929 . S
H3551 C3565 0.931 . S
H3552 C3567 0.930 . S
C3553 H3541 0.930 . S
C3553 C3554 1.399 . S
C3553 C3558 1.399 . S
C3554 C3553 1.399 . S
C3554 C3555 1.376 . S
C3555 H3542 0.930 . S
C3555 C3554 1.376 . S
C3555 C3556 1.388 . S
C3556 H3543 0.930 . S
C3556 C3555 1.388 . S
C3556 C3557 1.390 . S
C3557 C3556 1.390 . S
C3557 C3558 1.394 . S
C3557 C3563 1.465 . S
C3558 C3553 1.399 . S
C3558 C3557 1.394 . S
C3558 C3559 1.516 . S
C3559 C3558 1.516 . S
C3559 C3560 1.502 . S
C3559 C3561 1.561 . S
C3559 C3562 1.526 . S
C3560 H3544 0.959 . S
C3560 H3545 0.959 . S
C3560 H3546 0.961 . S
C3560 C3559 1.502 . S
C3561 H3547 0.960 . S
C3561 H3548 0.961 . S
C3561 H3549 0.959 . S
C3561 C3559 1.561 . S
C3562 C3559 1.526 . S
C3562 C3563 1.396 . S
C3562 C3567 1.390 . S
C3563 C3557 1.465 . S
C3563 C3562 1.396 . S
C3563 C3564 1.399 . S
C3564 H3550 0.929 . S
C3564 C3563 1.399 . S
C3564 C3565 1.385 . S
C3565 H3551 0.931 . S
C3565 C3564 1.385 . S
C3565 C3566 1.389 . S
C3566 C3565 1.389 . S
C3566 C3567 1.387 . S
C3567 H3552 0.930 . S
C3567 C3562 1.390 . S
C3567 C3566 1.387 . S
C989 C106 1.677 . S
C1001 C342 1.611 . S
C1016 C65 1.967 . S
C1028 C394 1.827 . S
C1043 C79 1.803 . S
C1055 C426 1.871 1_565 S
C1082 C475 2.298 . S
C1070 C90 2.293 . S
C1097 C21 0.866 . S
C1109 C511 0.880 . S
C1136 C542 0.494 . S
C1124 C35 0.690 . S
C1163 C594 0.229 . S
C1151 C50 0.327 . S
C1178 C6 1.768 . S
C1190 C622 1.804 . S
C1217 C354 2.155 . S
C1205 C232 2.382 . S
C1232 C245 1.629 . S
C1244 C395 1.692 . S
C1271 C425 1.787 . S
C1259 C274 1.986 1_545 S
C1298 C462 0.555 . S
C1286 C175 0.724 . S
C1313 C231 1.582 . S
C1325 C506 1.619 . S
C1352 C554 1.872 . S
C1340 C246 1.931 . S
C1379 C595 1.498 . S
C1367 C273 1.397 . S
C1406 C634 1.934 . S
C1394 C176 2.232 . S
C1433 C355 2.342 . S
C1421 C160 2.248 . S
C1448 C289 1.538 1_554 S
C1460 C665 1.461 . S
C1487 C715 2.440 . S
C1475 C328 2.381 . S
C1514 C742 1.178 . S
C1502 C317 1.217 . S
C1529 C118 2.602 . S
C1541 C635 2.661 . S
C1556 C132 1.286 . S
C1568 C431 1.361 . S
C1583 C331 2.549 . S
C1595 C794 2.467 . S
C1622 C822 1.408 . S
C1610 C303 1.447 . S
C1649 C351 1.315 . S
C1637 C63 1.266 . S
C1676 C825 2.184 . S
C1664 C107 2.280 1_655 S
C1691 C92 1.392 . S
C1703 C435 1.390 . S
C1718 C78 2.860 . S
C1730 C786 2.942 . S
C1757 C502 1.110 . S
C1745 C8 1.174 . S
C1772 C51 0.599 . S
C1784 C711 0.653 . S
C1811 C585 0.629 . S
C1799 C37 0.715 . S
C1838 C871 1.630 . S
C1826 C20 1.703 . S
C1865 C345 1.850 1_556 S
C1853 C147 1.996 . S
C1892 C826 1.882 . S
C1880 C316 1.868 . S
C1907 C119 1.857 . S
C1919 C434 1.798 . S
C1934 C288 0.690 . S
C1946 C791 0.604 . S
C1961 C148 1.967 . S
C1973 C515 1.972 . S
C2000 C705 1.914 . S
C1988 C315 1.846 . S
C2015 C120 1.863 . S
C2027 C586 1.846 . S
C2042 C287 1.685 . S
C2054 C865 1.579 . S
C2069 C188 2.104 . S
C2081 C346 2.154 1_655 S
C2096 C177 2.015 . S
C2108 C674 1.988 . S
C2123 C258 2.595 . S
C2135 C546 2.633 . S
C2150 C247 1.153 . S
C2162 C751 1.144 . S
C2189 C866 2.368 . S
C2177 C272 2.329 . S
C2204 C216 1.205 . S
C2216 C422 1.143 . S
C2243 C465 2.667 . S
C2231 C261 2.723 . S
C2270 C391 1.369 . S
C2258 C205 1.450 . S
C2285 C76 1.323 . S
C2297 C902 1.430 . S
C2324 C834 1.920 . S
C2312 C93 2.068 . S
C2339 C105 1.420 . S
C2351 C946 1.513 . S
C2366 C62 2.321 . S
C2378 C795 2.327 . S
C2393 C49 0.855 . S
C2405 C671 0.890 . S
C2432 C702 0.794 . S
C2420 C9 0.878 . S
C2459 C754 0.218 . S
C2447 C22 0.323 . S
C2486 C862 1.840 . S
C2474 C36 1.972 . S
C2513 C914 2.133 . S
C2501 C260 2.327 . S
C2528 C189 1.426 1_556 S
C2540 C835 1.522 . S
C2567 C945 1.709 . S
C2555 C204 1.901 . S
C2594 C782 0.637 . S
C2582 C217 0.509 . S
C2621 C666 1.970 . S
C2609 C259 1.853 . S
C2636 C190 2.050 . S
C2648 C714 1.982 . S
C2675 C755 1.692 . S
C2663 C203 1.636 . S
C2690 C218 2.326 . S
C2702 C874 2.039 . S
C2729 C915 2.296 . S
C2717 C314 2.208 . S
C2744 C135 1.689 . S
C2756 C505 1.618 . S
C2783 C555 2.342 . S
C2771 C146 2.247 . S
C2810 C582 1.203 . S
C2798 C163 1.185 . S
C2837 C875 2.711 . S
C2825 C300 2.602 . S
C2852 C286 1.244 . S
C2864 C951 1.245 . S
C2891 C474 2.355 . S
C2879 C149 2.497 . S
C2918 C382 1.389 . S
C2906 C121 1.423 . S
C2933 C91 1.111 . S
C2945 C911 1.215 . S
C2972 C385 1.744 . S
C2960 C77 1.906 . S
C2987 C64 1.335 . S
C2999 C955 1.319 . S
C3014 C104 2.503 . S
C3026 C466 2.528 . S
C3041 C34 0.840 . S
C3053 C662 0.872 . S
C3080 C551 0.539 . S
C3068 C23 0.659 . S
C3095 C7 0.323 . S
C3107 C745 0.447 . S
C3122 C48 1.299 . S
C3134 C631 1.434 . S
C3161 C905 1.917 . S
C3149 C329 1.942 . S
C3176 C162 1.885 . S
C3188 C386 1.901 . S
C3215 C954 1.743 . S
C3203 C301 1.881 . S
C3230 C134 0.772 . S
C3242 C471 0.639 . S
C3257 C330 1.930 . S
C3269 C675 1.944 . S
C3296 C545 1.928 . S
C3284 C161 1.874 1_556 S
C3311 C302 1.801 . S
C3323 C746 1.786 . S
C3350 C625 1.559 . S
C3338 C133 1.590 . S
C3377 C906 2.451 . S
C3365 C244 2.343 . S
C3404 C514 2.005 1_655 S
C3392 C219 1.958 1_545 S
C3419 C230 2.270 . S
C3431 C706 2.294 . S
C3458 C591 1.201 . S
C3446 C191 1.215 . S
C3473 C202 2.492 . S
C3485 C626 2.629 . S
C3500 C174 1.222 . S
C3512 C942 1.230 . S
C3539 C785 2.739 . S
C3527 C233 2.774 1_565 S
C3566 C831 1.379 . S
C3554 C275 1.493 . S
