# Generated by pormake.
# Topology pth, (4,4)-cn, num edge types: 1
# Building blocks:
#     Node 0, Type 0, BuildingBlock: QUQFOY_clean_sbu_3, # of connection points: 4
#     Node 1, Type 0, BuildingBlock: QUQFOY_clean_sbu_3, # of connection points: 4
#     Node 2, Type 0, BuildingBlock: QUQFOY_clean_sbu_3, # of connection points: 4
#     Node 3, Type 1, BuildingBlock: KOZSID_clean_sbu_0, # of connection points: 4
#     Node 4, Type 1, BuildingBlock: KOZSID_clean_sbu_0, # of connection points: 4
#     Node 5, Type 1, BuildingBlock: KOZSID_clean_sbu_0, # of connection points: 4
#     Edge 6, Type (0, 1), BuildingBlock: UVAHIK_clean_linker_0, # of connection points: 2
#     Edge 7, Type (0, 1), BuildingBlock: UVAHIK_clean_linker_0, # of connection points: 2
#     Edge 8, Type (0, 1), BuildingBlock: UVAHIK_clean_linker_0, # of connection points: 2
#     Edge 9, Type (0, 1), BuildingBlock: UVAHIK_clean_linker_0, # of connection points: 2
#     Edge 10, Type (0, 1), BuildingBlock: UVAHIK_clean_linker_0, # of connection points: 2
#     Edge 11, Type (0, 1), BuildingBlock: UVAHIK_clean_linker_0, # of connection points: 2
#     Edge 12, Type (0, 1), BuildingBlock: UVAHIK_clean_linker_0, # of connection points: 2
#     Edge 13, Type (0, 1), BuildingBlock: UVAHIK_clean_linker_0, # of connection points: 2
#     Edge 14, Type (0, 1), BuildingBlock: UVAHIK_clean_linker_0, # of connection points: 2
#     Edge 15, Type (0, 1), BuildingBlock: UVAHIK_clean_linker_0, # of connection points: 2
#     Edge 16, Type (0, 1), BuildingBlock: UVAHIK_clean_linker_0, # of connection points: 2
#     Edge 17, Type (0, 1), BuildingBlock: UVAHIK_clean_linker_0, # of connection points: 2
# Relax obj value: 0.007
# Max RMSD: 0.064
# Mean RMSD: 0.043
data_MOF--net-pth--node1-QUQFOY_clean_sbu_3--node2-KOZSID_clean_sbu_0--edge1-UVAHIK_clean_linker_0
_symmetry_space_group_name_H-M    P1
_symmetry_Int_Tables_number       1
_symmetry_cell_setting            triclinic
loop_
_symmetry_equiv_pos_as_xyz
'x, y, z'
_cell_length_a     33.94109
_cell_length_b     33.673223
_cell_length_c     79.964233
_cell_angle_alpha  88.030086
_cell_angle_beta   88.76766
_cell_angle_gamma 120.75194
loop_
_atom_site_label
_atom_site_type_symbol
_atom_site_fract_x
_atom_site_fract_y
_atom_site_fract_z
_atom_type_partial_charge
C0 C 0.01897 0.12675 0.04523 0.0
O1 O -0.00281 0.12198 0.03201 0.0
Cd2 Cd 0.99385 0.07459 0.00979 0.0
O3 O 0.03943 0.10431 0.04769 0.0
Cd4 Cd 0.05096 0.04636 0.03354 0.0
C5 C 0.10993 0.12369 0.00134 0.0
O6 O 0.97519 0.00136 0.02223 0.0
O7 O 0.02713 0.98869 0.01232 0.0
O8 O 0.03561 0.00427 0.06042 0.0
C9 C 0.9854 0.97778 0.01301 0.0
O10 O 0.07088 0.11506 -0.00345 0.0
C11 C 0.07119 0.00092 0.05985 0.0
O12 O 0.11351 0.10584 0.01512 0.0
O13 O 0.09867 0.02023 0.04716 0.0
C14 C 0.12986 0.09977 0.37961 0.0
O15 O 0.14943 0.12482 0.36636 0.0
Cd16 Cd 0.10757 0.12877 0.34322 0.0
O17 O 0.08627 0.07757 0.38156 0.0
Cd18 Cd 0.01862 0.06741 0.36672 0.0
C19 C 0.0398 0.01208 0.3368 0.0
O20 O 0.05105 0.14502 0.35351 0.0
O21 O 0.98697 0.0918 0.34426 0.0
O22 O 0.99163 0.0816 0.39283 0.0
C23 C 0.01769 0.13428 0.34415 0.0
O24 O 0.07207 0.05237 0.33182 0.0
C25 C 0.95164 0.04612 0.39306 0.0
O26 O 0.01549 0.00612 0.35007 0.0
O27 O 0.94292 0.01897 0.3812 0.0
C28 C 0.9838 0.0877 0.67924 0.0
O29 O 0.98855 0.11122 0.69191 0.0
Cd30 Cd 0.03203 0.11285 0.71537 0.0
O31 O 0.00464 0.06534 0.678 0.0
Cd32 Cd 0.0594 0.05189 0.69358 0.0
C33 C 0.97777 0.99495 0.72437 0.0
O34 O 0.10485 0.12778 0.70497 0.0
O35 O 0.11315 0.07329 0.71605 0.0
O36 O 0.1032 0.068 0.66737 0.0
C37 C 0.12573 0.11585 0.71506 0.0
O38 O 0.9874 0.03506 0.72849 0.0
C39 C 0.10651 0.03214 0.66824 0.0
O40 O -0.00329 0.98985 0.71132 0.0
O41 O 0.08625 0.0039 0.68077 0.0
C42 C 0.09735 0.64753 0.17538 0.0
C43 C 0.14217 0.68047 0.17025 0.0
C44 C 0.17005 0.6713 0.17956 0.0
C45 C 0.14082 0.63325 0.18969 0.0
N46 N 0.09588 0.61728 0.18735 0.0
Co47 Co 0.04191 0.56174 0.19902 0.0
N48 N 0.08299 0.55077 0.21369 0.0
C49 C 0.12922 0.57718 0.21408 0.0
C50 C 0.14786 0.56168 0.22577 0.0
C51 C 0.1114 0.5229 0.23327 0.0
C52 C 0.07251 0.51682 0.22559 0.0
N53 N 0.988 0.50519 0.21029 0.0
C54 C 0.9867 0.47455 0.22206 0.0
C55 C 0.94214 0.43857 0.22584 0.0
C56 C 0.91425 0.44676 0.21613 0.0
C57 C 0.94323 0.48691 0.20694 0.0
N58 N 0.00079 0.57384 0.18474 0.0
C59 C 0.95436 0.54922 0.18514 0.0
C60 C 0.9355 0.56737 0.17465 0.0
C61 C 0.97199 0.60627 0.16721 0.0
C62 C 0.01123 0.6094 0.17354 0.0
N63 N 0.04552 0.52213 0.18195 0.0
C64 C 0.04891 0.46282 0.1587 0.0
C65 C 0.00858 0.46335 0.16186 0.0
C66 C 0.00767 0.49297 0.1734 0.0
C67 C 0.08775 0.4929 0.16723 0.0
C68 C 0.08537 0.52217 0.17867 0.0
N69 N 0.03815 0.60121 0.21608 0.0
C70 C 0.99289 0.62169 0.23357 0.0
C71 C 0.03245 0.6601 0.23892 0.0
C72 C 0.07498 0.66789 0.233 0.0
C73 C 0.07704 0.6381 0.22175 0.0
C74 C -0.00352 0.59302 0.22223 0.0
H75 H 0.11045 0.64591 0.21768 0.0
H76 H 0.96499 0.56489 0.21843 0.0
H77 H 0.97571 0.49118 0.17529 0.0
H78 H 0.11613 0.54429 0.18475 0.0
C79 C 0.15442 0.61424 0.20247 0.0
C80 C 0.05751 0.6475 0.16892 0.0
C81 C 0.02665 0.47756 0.22972 0.0
C82 C 0.92941 0.50897 0.19542 0.0
H83 H 0.15355 0.70876 0.16096 0.0
H84 H 0.20718 0.69078 0.17929 0.0
H85 H 0.18376 0.57626 0.22828 0.0
H86 H 0.11331 0.50114 0.24311 0.0
H87 H 0.93093 0.40925 0.23464 0.0
H88 H 0.87725 0.42587 0.21578 0.0
H89 H 0.89948 0.55417 0.17276 0.0
H90 H 0.9698 0.6299 0.15831 0.0
H91 H 0.97738 0.44024 0.15572 0.0
H92 H 0.11996 0.49411 0.16504 0.0
H93 H 0.95915 0.61449 0.23771 0.0
H94 H 0.10662 0.69693 0.237 0.0
C95 C 0.45398 0.99487 0.558 0.0
C96 C 0.4216 0.95164 0.56508 0.0
C97 C 0.4253 0.91982 0.55615 0.0
C98 C 0.45977 0.94535 0.54428 0.0
N99 N 0.47882 0.99161 0.54522 0.0
Co100 Co 0.53014 0.0415 0.53053 0.0
N101 N 0.5324 0.99465 0.51639 0.0
C102 C 0.50429 0.94815 0.51779 0.0
C103 C 0.51429 0.9251 0.50623 0.0
C104 C 0.55147 0.95883 0.49704 0.0
C105 C 0.56217 0.0006 0.50366 0.0
N106 N 0.58234 0.09136 0.51604 0.0
C107 C 0.60835 0.08788 0.50372 0.0
C108 C 0.64343 0.13108 0.49761 0.0
C109 C 0.63973 0.16302 0.50647 0.0
C110 C 0.60295 0.13764 0.51751 0.0
N111 N 0.52702 0.08837 0.5445 0.0
C112 C 0.55343 0.13501 0.54247 0.0
C113 C 0.54136 0.1581 0.55328 0.0
C114 C 0.50452 0.12428 0.5626 0.0
C115 C 0.4964 0.08229 0.55697 0.0
N116 N 0.57539 0.04005 0.54546 0.0
C117 C 0.64275 0.0394 0.56521 0.0
C118 C 0.64433 0.08069 0.56089 0.0
C119 C 0.61057 0.0802 0.55115 0.0
C120 C 0.60642 -0.00177 0.55974 0.0
C121 C 0.57339 -0.00065 0.54991 0.0
N122 N 0.48496 0.0431 0.5156 0.0
C123 C 0.45929 0.08691 0.49943 0.0
C124 C 0.41919 0.04651 0.49566 0.0
C125 C 0.41285 0.0042 0.50181 0.0
C126 C 0.44591 0.0033 0.51169 0.0
C127 C 0.49138 0.08444 0.50929 0.0
H128 H 0.4389 0.97005 0.51615 0.0
H129 H 0.52096 0.11656 0.51168 0.0
H130 H 0.61393 0.11287 0.54833 0.0
H131 H 0.54688 0.96695 0.54592 0.0
C132 C 0.47196 0.92694 0.53113 0.0
C133 C 0.45773 0.03769 0.56316 0.0
C134 C 0.60264 0.04453 0.49815 0.0
C135 C 0.58818 0.15609 0.52987 0.0
H136 H 0.39693 0.94392 0.57532 0.0
H137 H 0.40425 0.88252 0.55774 0.0
H138 H 0.49766 0.88809 0.50504 0.0
H139 H 0.56962 0.95326 0.48695 0.0
H140 H 0.66972 0.13879 0.48803 0.0
H141 H 0.66202 0.20025 0.50534 0.0
H142 H 0.55673 0.19514 0.554 0.0
H143 H 0.48522 0.13001 0.57217 0.0
H144 H 0.67133 0.11338 0.56513 0.0
H145 H 0.60389 0.96538 0.56277 0.0
H146 H 0.46623 0.12051 0.49467 0.0
H147 H 0.38217 0.97193 0.49927 0.0
C148 C 0.63097 0.58662 0.83625 0.0
C149 C 0.66605 0.58029 0.8303 0.0
C150 C 0.66318 0.54432 0.83971 0.0
C151 C 0.62697 0.53098 0.8509 0.0
N152 N 0.6061 0.55594 0.84914 0.0
Co153 Co 0.55401 0.55008 0.86356 0.0
N154 N 0.55062 0.49776 0.87763 0.0
C155 C 0.57677 0.47838 0.87565 0.0
C156 C 0.56501 0.44154 0.88664 0.0
C157 C 0.52878 0.4366 0.89612 0.0
C158 C 0.52072 0.47113 0.8904 0.0
N159 N 0.50276 0.54505 0.87821 0.0
C160 C 0.47837 0.51484 0.89125 0.0
C161 C 0.4462 0.52393 0.89827 0.0
C162 C 0.44977 0.56067 0.88913 0.0
C163 C 0.48395 0.57206 0.87719 0.0
N164 N 0.55652 0.6015 0.84923 0.0
C165 C 0.52877 0.61924 0.85067 0.0
C166 C 0.53803 0.6535 0.83877 0.0
C167 C 0.57408 0.65824 0.8292 0.0
C168 C 0.58498 0.62668 0.83595 0.0
N169 N 0.50891 0.50451 0.8486 0.0
C170 C 0.44449 0.43939 0.82756 0.0
C171 C 0.43797 0.47352 0.83421 0.0
C172 C 0.47031 0.50542 0.84461 0.0
C173 C 0.48375 0.43835 0.83165 0.0
C174 C 0.51523 0.47095 0.8421 0.0
N175 N 0.59908 0.5957 0.87855 0.0
C176 C 0.62827 0.66608 0.89339 0.0
C177 C 0.66274 0.66011 0.9 0.0
C178 C 0.66496 0.6215 0.89562 0.0
C179 C 0.63315 0.59009 0.88495 0.0
C180 C 0.5971 0.63376 0.88278 0.0
H181 H 0.63682 0.5615 0.88212 0.0
H182 H 0.57181 0.64046 0.87814 0.0
H183 H 0.46317 0.53036 0.84933 0.0
H184 H 0.54441 0.46828 0.84471 0.0
C185 C 0.61184 0.49527 0.86322 0.0
C186 C 0.62371 0.62322 0.82966 0.0
C187 C 0.48312 0.47602 0.89701 0.0
C188 C 0.49644 0.6052 0.86402 0.0
H189 H 0.69158 0.59996 0.82036 0.0
H190 H 0.68525 0.52997 0.83866 0.0
H191 H 0.58047 0.42032 0.88747 0.0
H192 H 0.51003 0.41004 0.90594 0.0
H193 H 0.42203 0.50528 0.9087 0.0
H194 H 0.42905 0.57638 0.89071 0.0
H195 H 0.52123 0.67337 0.83743 0.0
H196 H 0.59098 0.68273 0.81863 0.0
H197 H 0.40774 0.47535 0.83158 0.0
H198 H 0.4906 0.41289 0.82663 0.0
H199 H 0.62554 0.69584 0.89621 0.0
H200 H 0.69072 0.61502 0.90058 0.0
C201 C 0.04625 0.16623 0.0722 0.0
C202 C 0.02157 0.15958 0.05762 0.0
C203 C 0.04979 0.19834 0.0836 0.0
C204 C 0.99485 0.26349 0.09667 0.0
H205 H 0.11234 0.34546 0.11539 0.0
C206 C 0.02681 0.42238 0.13177 0.0
C207 C 0.04978 0.43035 0.14681 0.0
C208 C 0.02478 0.38954 0.1211 0.0
C209 C 0.07921 0.32249 0.1104 0.0
H210 H 0.98107 0.18138 0.04367 0.0
H211 H 0.98759 0.23747 0.06345 0.0
H212 H 0.10508 0.28651 0.09665 0.0
H213 H 0.08943 0.41071 0.16228 0.0
H214 H 0.08604 0.35334 0.14354 0.0
H215 H 0.96901 0.29955 0.1103 0.0
C216 C 0.00374 0.21749 0.06618 0.0
C217 C 0.07502 0.28869 0.09969 0.0
C218 C 0.00021 0.18546 0.05479 0.0
C219 C 0.07186 0.40568 0.1507 0.0
C220 C 0.06986 0.37279 0.13999 0.0
C221 C -0.00095 0.29726 0.10733 0.0
C222 C 0.02867 0.2244 0.08069 0.0
C223 C 0.03286 0.25908 0.0926 0.0
C224 C 0.04572 0.36392 0.12519 0.0
C225 C 0.04135 0.32739 0.1142 0.0
H226 H 0.06306 0.14681 0.07478 0.0
H227 H 0.0688 0.2025 0.09476 0.0
H228 H 0.96169 0.24064 0.09167 0.0
H229 H 0.01023 0.44147 0.12826 0.0
H230 H 0.00676 0.38419 0.10961 0.0
C231 C 0.87086 0.00193 0.40528 0.0
C232 C 0.91619 0.03912 0.40583 0.0
C233 C 0.83654 -0.00147 0.4163 0.0
C234 C 0.81769 0.04398 0.45552 0.0
H235 H 0.7019 0.01277 0.43639 0.0
C236 C 0.64778 0.05914 0.47112 0.0
C237 C 0.63966 0.04426 0.48808 0.0
C238 C 0.68126 0.05658 0.46153 0.0
C239 C 0.73416 0.02188 0.4419 0.0
H240 H 0.96141 0.10095 0.41877 0.0
H241 H 0.90174 0.09539 0.43774 0.0
H242 H 0.76086 0.01047 0.41928 0.0
H243 H 0.659 0.01466 0.50842 0.0
H244 H 0.71719 0.00945 0.49167 0.0
H245 H 0.79165 0.05705 0.47794 0.0
C246 C 0.89259 0.06849 0.42898 0.0
C247 C 0.76771 0.01987 0.43216 0.0
C248 C 0.92682 0.07182 0.41802 0.0
C249 C 0.66524 0.02671 0.49536 0.0
C250 C 0.69857 0.02396 0.48578 0.0
C251 C 0.78419 0.04612 0.46524 0.0
C252 C 0.84689 0.03227 0.42807 0.0
C253 C 0.81004 0.03127 0.43881 0.0
C254 C 0.70691 0.03873 0.46873 0.0
C255 C 0.74215 0.03545 0.45851 0.0
H256 H 0.86163 0.97608 0.39607 0.0
H257 H 0.8018 0.96978 0.41545 0.0
H258 H 0.84972 0.05253 0.46109 0.0
H259 H 0.62801 0.07243 0.4653 0.0
H260 H 0.68723 0.06883 0.4485 0.0
C261 C 0.92132 0.90952 0.72853 0.0
C262 C 0.9427 0.95414 0.73466 0.0
C263 C 0.88574 0.87188 0.73795 0.0
C264 C 0.80049 0.84618 0.77267 0.0
H265 H 0.78846 0.72524 0.77515 0.0
C266 C 0.68589 0.70491 0.82294 0.0
C267 C 0.65829 0.65982 0.81771 0.0
C268 C 0.71886 0.73957 0.81189 0.0
C269 C 0.79116 0.75873 0.77441 0.0
H270 H 0.94494 0.99387 0.75581 0.0
H271 H 0.88417 0.92849 0.77231 0.0
H272 H 0.85057 0.78804 0.75767 0.0
H273 H 0.64247 0.61519 0.79698 0.0
H274 H 0.70096 0.67595 0.77754 0.0
H275 H 0.7418 0.81719 0.7897 0.0
C276 C 0.89367 0.92257 0.76003 0.0
C277 C 0.82665 0.79466 0.76439 0.0
C278 C 0.92882 0.96007 0.7506 0.0
C279 C 0.66381 0.64981 0.80124 0.0
C280 C 0.69719 0.6844 0.7902 0.0
C281 C 0.76535 0.81045 0.78276 0.0
C282 C 0.8711 0.87816 0.75373 0.0
C283 C 0.83209 0.83901 0.76359 0.0
C284 C 0.725 0.72963 0.79543 0.0
C285 C 0.76064 0.76654 0.78389 0.0
H286 H 0.93116 0.90386 0.71627 0.0
H287 H 0.86891 0.83817 0.73268 0.0
H288 H 0.8029 0.87954 0.77202 0.0
H289 H 0.68207 0.71317 0.83563 0.0
H290 H 0.74012 0.77401 0.8163 0.0
C291 C 0.04503 0.94924 0.08587 0.0
C292 C 0.07825 0.97298 0.07279 0.0
C293 C 0.04885 0.919 0.09716 0.0
C294 C 0.1013 0.84681 0.10048 0.0
H295 H 0.05771 0.82997 0.14686 0.0
C296 C 0.08112 0.73083 0.16505 0.0
C297 C 0.06429 0.68757 0.15822 0.0
C298 C 0.0878 0.76878 0.15503 0.0
C299 C 0.07059 0.83453 0.13401 0.0
H300 H 0.14262 0.9851 0.06173 0.0
H301 H 0.14976 0.93276 0.08169 0.0
H302 H 0.06296 0.8931 0.12931 0.0
H303 H 0.0419 0.64956 0.13573 0.0
H304 H 0.05223 0.71551 0.11819 0.0
H305 H 0.10946 0.78856 0.10524 0.0
C306 C 0.12026 0.93692 0.083 0.0
C307 C 0.07309 0.87045 0.12388 0.0
C308 C 0.11635 0.96714 0.07164 0.0
C309 C 0.05468 0.68273 0.1412 0.0
C310 C 0.06106 0.72058 0.13119 0.0
C311 C 0.09899 0.811 0.11063 0.0
C312 C 0.08612 0.91188 0.09572 0.0
C313 C 0.08774 0.87657 0.10691 0.0
C314 C 0.07759 0.76408 0.13799 0.0
C315 C 0.08292 0.80397 0.12746 0.0
H316 H 0.01519 0.95287 0.0871 0.0
H317 H 0.02159 0.89988 0.10665 0.0
H318 H 0.11234 0.85021 0.08743 0.0
H319 H 0.08906 0.73518 0.17815 0.0
H320 H 0.10122 0.80187 0.16062 0.0
C321 C 0.13651 0.06508 0.40689 0.0
C322 C 0.15778 0.09525 0.39268 0.0
C323 C 0.16282 0.05944 0.41889 0.0
C324 C 0.22598 0.03264 0.43593 0.0
H325 H 0.33765 0.13904 0.44998 0.0
C326 C 0.3635 0.01792 0.47261 0.0
C327 C 0.38466 0.04894 0.4853 0.0
C328 C 0.33321 0.02228 0.46219 0.0
C329 C 0.30634 0.10901 0.4463 0.0
H330 H 0.22345 0.14356 0.38009 0.0
H331 H 0.26922 0.13359 0.40101 0.0
H332 H 0.2899 0.15021 0.43028 0.0
H333 H 0.38887 0.10738 0.49757 0.0
H334 H 0.33614 0.11501 0.4794 0.0
H335 H 0.2424 0.99146 0.45203 0.0
C336 C 0.23222 0.11458 0.40291 0.0
C337 C 0.27927 0.11538 0.43488 0.0
C338 C 0.20594 0.12011 0.39088 0.0
C339 C 0.37384 0.08353 0.48768 0.0
C340 C 0.34364 0.0879 0.47728 0.0
C341 C 0.25318 0.02624 0.44731 0.0
C342 C 0.21093 0.08398 0.41699 0.0
C343 C 0.23891 0.07726 0.42951 0.0
C344 C 0.32348 0.05774 0.46428 0.0
C345 C 0.29374 0.06436 0.45257 0.0
H346 H 0.09949 0.04545 0.40869 0.0
H347 H 0.14548 0.03603 0.42971 0.0
H348 H 0.19527 0.00255 0.43191 0.0
H349 H 0.37147 0.99119 0.47036 0.0
H350 H 0.31855 -0.00121 0.45218 0.0
C351 C 0.17914 0.13399 0.73847 0.0
C352 C 0.15937 0.1489 0.7264 0.0
C353 C 0.20987 0.16497 0.74954 0.0
C354 C 0.24479 0.27664 0.7679 0.0
H355 H 0.35417 0.27387 0.77879 0.0
C356 C 0.3909 0.41942 0.80401 0.0
C357 C 0.41078 0.40535 0.81634 0.0
C358 C 0.35961 0.38753 0.79331 0.0
C359 C 0.3235 0.2747 0.77602 0.0
H360 H 0.15677 0.20808 0.71628 0.0
H361 H 0.21084 0.26228 0.73546 0.0
H362 H 0.30119 0.21947 0.75937 0.0
H363 H 0.41264 0.34658 0.82735 0.0
H364 H 0.35807 0.29091 0.80861 0.0
H365 H 0.26723 0.33202 0.78449 0.0
C366 C 0.20204 0.22648 0.73655 0.0
C367 C 0.29317 0.24357 0.7649 0.0
C368 C 0.1713 0.19551 0.72549 0.0
C369 C 0.39849 0.35864 0.8178 0.0
C370 C 0.36723 0.32676 0.80708 0.0
C371 C 0.27515 0.30781 0.779 0.0
C372 C 0.22148 0.21151 0.74876 0.0
C373 C 0.25355 0.2443 0.76068 0.0
C374 C 0.34755 0.3409 0.7947 0.0
C375 C 0.31489 0.30726 0.78314 0.0
H376 H 0.17053 0.09824 0.7395 0.0
H377 H 0.22388 0.15225 0.75892 0.0
H378 H 0.21414 0.27753 0.76513 0.0
H379 H 0.40017 0.45528 0.80241 0.0
H380 H 0.34552 0.3996 0.78373 0.0
C381 C 0.92539 0.10506 0.66821 0.0
C382 C 0.95195 0.08425 0.66623 0.0
C383 C 0.89297 0.09908 0.65656 0.0
C384 C 0.8068 0.05365 0.63677 0.0
H385 H 0.83351 0.06264 0.58892 0.0
C386 C 0.66683 0.00732 0.58904 0.0
C387 C 0.67869 0.03972 0.57551 0.0
C388 C 0.70052 0.00998 0.59947 0.0
C389 C 0.82561 0.06008 0.60225 0.0
H390 H 0.96613 0.04188 0.65019 0.0
H391 H 0.90944 0.03149 0.62987 0.0
H392 H 0.89289 0.07528 0.60841 0.0
H393 H 0.73528 0.0989 0.56182 0.0
H394 H 0.79398 0.1038 0.58012 0.0
H395 H 0.73988 0.03931 0.63066 0.0
C396 C 0.91387 0.05254 0.64042 0.0
C397 C 0.85946 0.06698 0.61339 0.0
C398 C 0.94621 0.05836 0.6521 0.0
C399 C 0.72506 0.07381 0.57229 0.0
C400 C 0.75873 0.07632 0.58266 0.0
C401 C 0.77293 0.04654 0.62564 0.0
C402 C 0.88649 0.07231 0.64266 0.0
C403 C 0.8505 0.06422 0.63077 0.0
C404 C 0.74673 0.04489 0.59652 0.0
C405 C 0.78205 0.04999 0.60827 0.0
H406 H 0.92903 0.12538 0.6789 0.0
H407 H 0.87286 0.11536 0.65847 0.0
H408 H 0.79871 0.05071 0.65009 0.0
H409 H 0.63136 0.9808 0.59186 0.0
H410 H 0.69035 0.98496 0.60996 0.0
C411 C 0.90571 0.93231 0.00293 0.0
C412 C 0.95164 0.94335 0.00204 0.0
C413 C 0.87415 0.90113 -0.0079 0.0
C414 C 0.86764 0.85234 0.95122 0.0
H415 H 0.74519 0.75804 0.9675 0.0
C416 C 0.74247 0.70672 0.91024 0.0
C417 C 0.69596 0.69366 0.91148 0.0
C418 C 0.77356 0.73751 0.92126 0.0
C419 C 0.77906 0.78456 0.96272 0.0
H420 H 0.0004 0.92986 -0.01067 0.0
H421 H 0.94523 0.87536 0.97044 0.0
H422 H 0.7996 0.81055 0.98703 0.0
H423 H 0.64565 0.70276 0.92529 0.0
H424 H 0.70014 0.75737 0.94428 0.0
H425 H 0.84712 0.8267 0.92689 0.0
C426 C 0.93377 0.89117 0.9794 0.0
C427 C 0.81022 0.81454 0.97391 0.0
C428 C 0.96526 0.92216 -0.00972 0.0
C429 C 0.68133 0.71245 0.9239 0.0
C430 C 0.71244 0.74329 0.93491 0.0
C431 C 0.83645 0.8225 0.94001 0.0
C432 C 0.88796 0.88056 0.98013 0.0
C433 C 0.85486 0.84865 0.96828 0.0
C434 C 0.75887 0.75603 0.93376 0.0
C435 C 0.79183 0.78819 0.94563 0.0
H436 H 0.89418 0.94809 0.01187 0.0
H437 H 0.83917 0.8939 -0.00714 0.0
H438 H 0.90159 0.8788 0.94647 0.0
H439 H 0.75496 0.69332 0.90068 0.0
H440 H 0.809 0.74626 0.92013 0.0
C441 C 0.05643 0.97968 0.31181 0.0
C442 C 0.03155 0.97211 0.32705 0.0
C443 C 0.05017 0.94258 0.30266 0.0
C444 C 0.01266 0.81943 0.30684 0.0
H445 H 0.01504 0.82999 0.25832 0.0
C446 C -0.0025 0.67681 0.26373 0.0
C447 C 0.02923 0.69293 0.24995 0.0
C448 C 0.99325 0.70801 0.27362 0.0
C449 C 0.01453 0.82664 0.27186 0.0
H450 H 0.98015 0.91936 0.34453 0.0
H451 H 0.96913 0.85417 0.32839 0.0
H452 H 0.01374 0.88913 0.27462 0.0
H453 H 0.08127 0.75425 0.23572 0.0
H454 H 0.07413 0.80862 0.25302 0.0
H455 H 0.01402 0.75704 0.30396 0.0
C456 C 0.99369 0.88906 0.32365 0.0
C457 C 0.01375 0.86047 0.2812 0.0
C458 C -0.00015 0.92637 0.33284 0.0
C459 C 0.05685 0.7408 0.24635 0.0
C460 C 0.05236 0.7719 0.25613 0.0
C461 C 0.01328 0.78539 0.29746 0.0
C462 C 0.01886 0.89685 0.30846 0.0
C463 C 0.01396 0.85787 0.29877 0.0
C464 C 0.02031 0.75586 0.26979 0.0
C465 C 0.01534 0.78931 0.27987 0.0
H466 H 0.08118 0.01438 0.30695 0.0
H467 H 0.07068 0.94979 0.29116 0.0
H468 H 0.01314 0.81663 0.32036 0.0
H469 H 0.97599 0.64007 0.26686 0.0
H470 H 0.96821 0.6947 0.28405 0.0
C471 C 0.15949 0.05954 0.64282 0.0
C472 C 0.13547 0.02572 0.65582 0.0
C473 C 0.19056 0.05646 0.63203 0.0
C474 C 0.26373 0.0052 0.63012 0.0
H475 H 0.28098 0.0478 0.58341 0.0
C476 C 0.37671 0.01904 0.56654 0.0
C477 C 0.41963 0.03532 0.57343 0.0
C478 C 0.33999 0.01487 0.57626 0.0
C479 C 0.27636 0.0353 0.59638 0.0
H480 H 0.12389 0.96112 0.66729 0.0
H481 H 0.17774 0.95527 0.64821 0.0
H482 H 0.21803 0.04278 0.60036 0.0
H483 H 0.45831 0.05953 0.59572 0.0
H484 H 0.39444 0.05355 0.61274 0.0
H485 H 0.32167 0.99704 0.62606 0.0
C486 C 0.1731 0.98466 0.64658 0.0
C487 C 0.24053 0.0329 0.60615 0.0
C488 C 0.142 0.98781 0.65743 0.0
C489 C 0.42544 0.04727 0.59018 0.0
C490 C 0.38878 0.04334 0.59992 0.0
C491 C 0.29949 0.00744 0.62033 0.0
C492 C 0.19829 0.01936 0.63392 0.0
C493 C 0.2341 0.01836 0.6232 0.0
C494 C 0.34555 0.027 0.59308 0.0
C495 C 0.30655 0.023 0.60338 0.0
H496 H 0.15535 0.08926 0.64125 0.0
H497 H 0.20975 0.08413 0.62259 0.0
H498 H 0.2601 0.9943 0.64325 0.0
H499 H 0.37159 0.00921 0.55365 0.0
H500 H 0.30707 0.00151 0.57066 0.0
C501 C 0.19533 0.17645 -0.00257 0.0
C502 C 0.15144 0.15599 -0.00913 0.0
C503 C 0.23399 0.20912 0.98769 0.0
C504 C 0.27617 0.25047 0.94412 0.0
H505 H 0.35865 0.36804 0.96297 0.0
C506 C 0.40329 0.40975 0.90251 0.0
C507 C 0.447 0.43903 0.9084 0.0
C508 C 0.36925 0.37417 0.91299 0.0
C509 C 0.33642 0.33517 0.95758 0.0
H510 H 0.11391 0.15273 0.96881 0.0
H511 H 0.18124 0.2092 0.95187 0.0
H512 H 0.2963 0.30615 0.98056 0.0
H513 H 0.48982 0.45531 0.92971 0.0
H514 H 0.43052 0.39232 0.94812 0.0
H515 H 0.31601 0.27917 0.92116 0.0
C516 C 0.18579 0.20008 0.96451 0.0
C517 C 0.30072 0.29976 0.96767 0.0
C518 C 0.14719 0.16794 0.97427 0.0
C519 C 0.4562 0.43279 0.92498 0.0
C520 C 0.42222 0.397 0.93548 0.0
C521 C 0.312 0.28568 0.93408 0.0
C522 C 0.22951 0.22136 0.97116 0.0
C523 C 0.26982 0.25735 0.96095 0.0
C524 C 0.37838 0.36709 0.92957 0.0
C525 C 0.34209 0.32875 0.9406 0.0
H526 H 0.19971 0.16801 0.01018 0.0
H527 H 0.26738 0.22483 -0.00692 0.0
H528 H 0.25323 0.21786 0.93869 0.0
H529 H 0.3956 0.41437 0.88975 0.0
H530 H 0.33563 0.35246 0.90814 0.0
C531 C 0.97922 0.15584 0.32234 0.0
C532 C 0.01625 0.16897 0.33278 0.0
C533 C 0.97815 0.18843 0.31138 0.0
C534 C 0.0269 0.31401 0.30381 0.0
H535 H 0.98854 0.28092 0.25853 0.0
C536 C 0.03526 0.4095 0.23625 0.0
C537 C 0.02108 0.43978 0.24139 0.0
C538 C 0.03222 0.37523 0.24746 0.0
C539 C -0.00048 0.29073 0.27111 0.0
H540 H 0.08111 0.22656 0.33998 0.0
H541 H 0.07944 0.2834 0.32073 0.0
H542 H 0.98912 0.224 0.27807 0.0
H543 H 0.99238 0.4585 0.26192 0.0
H544 H 0.98641 0.39805 0.28162 0.0
H545 H 0.03838 0.38109 0.29674 0.0
C546 C 0.05097 0.24802 0.32116 0.0
C547 C -0.00061 0.25799 0.28236 0.0
C548 C 0.05205 0.21541 0.33212 0.0
C549 C 0.00337 0.43523 0.25779 0.0
C550 C 0.00031 0.40096 0.26902 0.0
C551 C 0.02697 0.34673 0.29258 0.0
C552 C 0.01406 0.23485 0.31064 0.0
C553 C 0.01329 0.26934 0.29881 0.0
C554 C 0.01501 0.37078 0.26401 0.0
C555 C 0.01349 0.33552 0.27608 0.0
H556 H 0.95102 0.12033 0.32261 0.0
H557 H 0.94896 0.17733 0.30359 0.0
H558 H 0.03734 0.32365 0.31646 0.0
H559 H 0.04926 0.41285 0.22363 0.0
H560 H 0.04438 0.35295 0.24327 0.0
loop_
_geom_bond_atom_site_label_1
_geom_bond_atom_site_label_2
_geom_bond_distance
_geom_bond_site_symmetry_2
_ccdc_geom_bond_type
C0 O1 1.306 . S
C0 O3 1.160 . S
O1 C0 1.306 . S
O1 Cd2 2.228 . S
Cd2 O1 2.228 . S
Cd2 O6 2.280 1_455 S
Cd2 O10 2.277 . S
O3 C0 1.160 . S
O3 Cd4 2.203 . S
Cd4 O3 2.203 . S
Cd4 O6 2.392 1_455 S
Cd4 O7 2.333 1_545 S
Cd4 O8 2.352 1_545 S
Cd4 O12 2.277 . S
Cd4 O13 2.356 1_545 S
C5 O10 1.209 . S
C5 O12 1.226 . S
O6 Cd2 2.280 1_655 S
O6 Cd4 2.392 1_655 S
O6 C9 1.310 1_645 S
O7 Cd4 2.333 1_565 S
O7 C9 1.214 . S
O8 Cd4 2.352 1_565 S
O8 C11 1.258 . S
C9 O6 1.310 1_465 S
C9 O7 1.214 . S
O10 Cd2 2.277 . S
O10 C5 1.209 . S
C11 O8 1.258 . S
C11 O13 1.282 . S
O12 Cd4 2.277 . S
O12 C5 1.226 . S
O13 Cd4 2.356 1_565 S
O13 C11 1.282 . S
C14 O15 1.306 . S
C14 O17 1.160 . S
O15 C14 1.306 . S
O15 Cd16 2.228 . S
Cd16 O15 2.228 . S
Cd16 O20 2.273 . S
Cd16 O24 2.277 . S
O17 C14 1.160 . S
O17 Cd18 2.203 . S
Cd18 O17 2.203 . S
Cd18 O20 2.411 . S
Cd18 O21 2.333 1_455 S
Cd18 O22 2.352 1_455 S
Cd18 O26 2.277 1_445 S
Cd18 O27 2.356 1_455 S
C19 O24 1.194 1_565 S
C19 O26 1.222 1_455 S
O20 Cd16 2.273 . S
O20 Cd18 2.411 . S
O20 C23 1.320 . S
O21 Cd18 2.333 1_655 S
O21 C23 1.214 1_655 S
O22 Cd18 2.352 1_655 S
O22 C25 1.258 . S
C23 O20 1.320 . S
C23 O21 1.214 1_455 S
O24 Cd16 2.277 . S
O24 C19 1.194 1_545 S
C25 O22 1.258 . S
C25 O27 1.282 . S
O26 Cd18 2.277 1_665 S
O26 C19 1.222 1_655 S
O27 Cd18 2.356 1_655 S
O27 C25 1.282 . S
C28 O29 1.306 . S
C28 O31 1.160 1_655 S
O29 C28 1.306 . S
O29 Cd30 2.228 1_655 S
Cd30 O29 2.228 1_455 S
Cd30 O34 2.273 . S
Cd30 O38 2.277 1_455 S
O31 C28 1.160 1_455 S
O31 Cd32 2.203 . S
Cd32 O31 2.203 . S
Cd32 O34 2.411 . S
Cd32 O35 2.333 . S
Cd32 O36 2.352 . S
Cd32 O40 2.277 1_545 S
Cd32 O41 2.356 . S
C33 O38 1.209 1_565 S
C33 O40 1.226 1_655 S
O34 Cd30 2.273 . S
O34 Cd32 2.411 . S
O34 C37 1.320 . S
O35 Cd32 2.333 . S
O35 C37 1.214 . S
O36 Cd32 2.352 . S
O36 C39 1.258 . S
C37 O34 1.320 . S
C37 O35 1.214 . S
O38 Cd30 2.277 1_655 S
O38 C33 1.209 1_545 S
C39 O36 1.258 . S
C39 O41 1.282 . S
O40 Cd32 2.277 1_565 S
O40 C33 1.226 1_455 S
O41 Cd32 2.356 . S
O41 C39 1.282 . S
C42 C43 1.443 . S
C42 N46 1.376 . S
C42 C80 1.389 . S
C43 C42 1.443 . S
C43 C44 1.340 . S
C43 H83 0.951 . S
C44 C43 1.340 . S
C44 C45 1.439 . S
C44 H84 0.950 . S
C45 C44 1.439 . S
C45 N46 1.374 . S
C45 C79 1.395 . S
N46 C42 1.376 . S
N46 C45 1.374 . S
N46 Co47 2.008 . S
Co47 N46 2.008 . S
Co47 N48 1.995 . S
Co47 N53 2.008 1_455 S
Co47 N58 2.018 . S
Co47 N63 2.282 . S
Co47 N69 2.282 . S
N48 Co47 1.995 . S
N48 C49 1.376 . S
N48 C52 1.383 . S
C49 N48 1.376 . S
C49 C50 1.446 . S
C49 C79 1.391 . S
C50 C49 1.446 . S
C50 C51 1.339 . S
C50 H85 0.949 . S
C51 C50 1.339 . S
C51 C52 1.439 . S
C51 H86 0.950 . S
C52 N48 1.383 . S
C52 C51 1.439 . S
C52 C81 1.392 . S
N53 Co47 2.008 1_655 S
N53 C54 1.376 1_655 S
N53 C57 1.374 . S
C54 N53 1.376 1_455 S
C54 C55 1.443 1_455 S
C54 C81 1.389 . S
C55 C54 1.443 1_655 S
C55 C56 1.340 . S
C55 H87 0.951 . S
C56 C55 1.340 . S
C56 C57 1.439 . S
C56 H88 0.950 . S
C57 N53 1.374 . S
C57 C56 1.439 . S
C57 C82 1.395 . S
N58 Co47 2.018 . S
N58 C59 1.355 1_455 S
N58 C62 1.375 . S
C59 N58 1.355 1_655 S
C59 C60 1.446 . S
C59 C82 1.391 . S
C60 C59 1.446 . S
C60 C61 1.339 . S
C60 H89 0.949 . S
C61 C60 1.339 . S
C61 C62 1.439 1_655 S
C61 H90 0.950 . S
C62 N58 1.375 . S
C62 C61 1.439 1_455 S
C62 C80 1.392 . S
N63 Co47 2.282 . S
N63 C66 1.332 . S
N63 C68 1.332 . S
C64 C65 1.386 . S
C64 C67 1.388 . S
C65 C64 1.386 . S
C65 C66 1.382 . S
C65 H91 0.950 1_455 S
C66 N63 1.332 . S
C66 C65 1.382 . S
C66 H77 0.952 1_455 S
C67 C64 1.388 . S
C67 C68 1.382 . S
C67 H92 0.950 . S
C68 N63 1.332 . S
C68 C67 1.382 . S
C68 H78 0.948 . S
N69 Co47 2.282 . S
N69 C73 1.332 . S
N69 C74 1.332 . S
C70 C71 1.388 . S
C70 C74 1.382 . S
C70 H93 0.950 1_455 S
C71 C70 1.388 . S
C71 C72 1.386 . S
C72 C71 1.386 . S
C72 C73 1.382 . S
C72 H94 0.950 . S
C73 N69 1.332 . S
C73 C72 1.382 . S
C73 H75 0.952 . S
C74 N69 1.332 . S
C74 C70 1.382 . S
C74 H76 0.948 1_455 S
H75 C73 0.952 . S
H76 C74 0.948 1_655 S
H77 C66 0.952 1_655 S
H78 C68 0.948 . S
C79 C45 1.395 . S
C79 C49 1.391 . S
C80 C42 1.389 . S
C80 C62 1.392 . S
C81 C52 1.392 . S
C81 C54 1.389 . S
C82 C57 1.395 . S
C82 C59 1.391 . S
H83 C43 0.951 . S
H84 C44 0.950 . S
H85 C50 0.949 . S
H86 C51 0.950 . S
H87 C55 0.951 . S
H88 C56 0.950 . S
H89 C60 0.949 . S
H90 C61 0.950 . S
H91 C65 0.950 1_655 S
H92 C67 0.950 . S
H93 C70 0.950 1_655 S
H94 C72 0.950 . S
C95 C96 1.443 1_545 S
C95 N99 1.376 . S
C95 C133 1.389 . S
C96 C95 1.443 1_565 S
C96 C97 1.340 . S
C96 H136 0.951 . S
C97 C96 1.340 . S
C97 C98 1.439 . S
C97 H137 0.950 . S
C98 C97 1.439 . S
C98 N99 1.374 1_565 S
C98 C132 1.395 . S
N99 C95 1.376 . S
N99 C98 1.374 1_545 S
N99 Co100 2.008 . S
Co100 N99 2.008 . S
Co100 N101 1.995 . S
Co100 N106 2.008 . S
Co100 N111 1.995 . S
Co100 N116 2.282 . S
Co100 N122 2.282 . S
N101 Co100 1.995 . S
N101 C102 1.376 1_545 S
N101 C105 1.383 . S
C102 N101 1.376 1_565 S
C102 C103 1.446 . S
C102 C132 1.391 . S
C103 C102 1.446 . S
C103 C104 1.339 . S
C103 H138 0.949 . S
C104 C103 1.339 . S
C104 C105 1.439 1_565 S
C104 H139 0.950 . S
C105 N101 1.383 . S
C105 C104 1.439 1_545 S
C105 C134 1.392 . S
N106 Co100 2.008 . S
N106 C107 1.376 . S
N106 C110 1.374 . S
C107 N106 1.376 . S
C107 C108 1.443 . S
C107 C134 1.389 . S
C108 C107 1.443 . S
C108 C109 1.340 . S
C108 H140 0.951 . S
C109 C108 1.340 . S
C109 C110 1.439 . S
C109 H141 0.950 . S
C110 N106 1.374 . S
C110 C109 1.439 . S
C110 C135 1.395 . S
N111 Co100 1.995 . S
N111 C112 1.376 . S
N111 C115 1.383 . S
C112 N111 1.376 . S
C112 C113 1.446 . S
C112 C135 1.391 . S
C113 C112 1.446 . S
C113 C114 1.339 . S
C113 H142 0.949 . S
C114 C113 1.339 . S
C114 C115 1.439 . S
C114 H143 0.950 . S
C115 N111 1.383 . S
C115 C114 1.439 . S
C115 C133 1.392 . S
N116 Co100 2.282 . S
N116 C119 1.332 . S
N116 C121 1.332 . S
C117 C118 1.386 . S
C117 C120 1.388 . S
C118 C117 1.386 . S
C118 C119 1.382 . S
C118 H144 0.950 . S
C119 N116 1.332 . S
C119 C118 1.382 . S
C119 H130 0.952 . S
C120 C117 1.388 . S
C120 C121 1.382 . S
C120 H145 0.950 1_545 S
C121 N116 1.332 . S
C121 C120 1.382 . S
C121 H131 0.948 1_545 S
N122 Co100 2.282 . S
N122 C126 1.332 . S
N122 C127 1.332 . S
C123 C124 1.388 . S
C123 C127 1.382 . S
C123 H146 0.950 . S
C124 C123 1.388 . S
C124 C125 1.386 . S
C125 C124 1.386 . S
C125 C126 1.382 . S
C125 H147 0.941 1_545 S
C126 N122 1.332 . S
C126 C125 1.382 . S
C126 H128 0.952 . S
C127 N122 1.332 . S
C127 C123 1.382 . S
C127 H129 0.948 . S
H128 C126 0.952 . S
H129 C127 0.948 . S
H130 C119 0.952 . S
H131 C121 0.948 1_565 S
C132 C98 1.395 . S
C132 C102 1.391 . S
C133 C95 1.389 . S
C133 C115 1.392 . S
C134 C105 1.392 . S
C134 C107 1.389 . S
C135 C110 1.395 . S
C135 C112 1.391 . S
H136 C96 0.951 . S
H137 C97 0.950 . S
H138 C103 0.949 . S
H139 C104 0.950 . S
H140 C108 0.951 . S
H141 C109 0.950 . S
H142 C113 0.949 . S
H143 C114 0.950 . S
H144 C118 0.950 . S
H145 C120 0.950 1_565 S
H146 C123 0.950 . S
H147 C125 0.941 1_565 S
C148 C149 1.443 . S
C148 N152 1.376 . S
C148 C186 1.389 . S
C149 C148 1.443 . S
C149 C150 1.340 . S
C149 H189 0.951 . S
C150 C149 1.340 . S
C150 C151 1.439 . S
C150 H190 0.950 . S
C151 C150 1.439 . S
C151 N152 1.374 . S
C151 C185 1.395 . S
N152 C148 1.376 . S
N152 C151 1.374 . S
N152 Co153 2.008 . S
Co153 N152 2.008 . S
Co153 N154 1.995 . S
Co153 N159 2.008 . S
Co153 N164 1.995 . S
Co153 N169 2.282 . S
Co153 N175 2.282 . S
N154 Co153 1.995 . S
N154 C155 1.376 . S
N154 C158 1.383 . S
C155 N154 1.376 . S
C155 C156 1.446 . S
C155 C185 1.391 . S
C156 C155 1.446 . S
C156 C157 1.339 . S
C156 H191 0.949 . S
C157 C156 1.339 . S
C157 C158 1.439 . S
C157 H192 0.950 . S
C158 N154 1.383 . S
C158 C157 1.439 . S
C158 C187 1.392 . S
N159 Co153 2.008 . S
N159 C160 1.376 . S
N159 C163 1.374 . S
C160 N159 1.376 . S
C160 C161 1.443 . S
C160 C187 1.389 . S
C161 C160 1.443 . S
C161 C162 1.340 . S
C161 H193 0.951 . S
C162 C161 1.340 . S
C162 C163 1.439 . S
C162 H194 0.950 . S
C163 N159 1.374 . S
C163 C162 1.439 . S
C163 C188 1.395 . S
N164 Co153 1.995 . S
N164 C165 1.376 . S
N164 C168 1.383 . S
C165 N164 1.376 . S
C165 C166 1.446 . S
C165 C188 1.391 . S
C166 C165 1.446 . S
C166 C167 1.339 . S
C166 H195 0.949 . S
C167 C166 1.339 . S
C167 C168 1.439 . S
C167 H196 0.950 . S
C168 N164 1.383 . S
C168 C167 1.439 . S
C168 C186 1.392 . S
N169 Co153 2.282 . S
N169 C172 1.332 . S
N169 C174 1.332 . S
C170 C171 1.386 . S
C170 C173 1.388 . S
C171 C170 1.386 . S
C171 C172 1.382 . S
C171 H197 0.950 . S
C172 N169 1.332 . S
C172 C171 1.382 . S
C172 H183 0.952 . S
C173 C170 1.388 . S
C173 C174 1.382 . S
C173 H198 0.950 . S
C174 N169 1.332 . S
C174 C173 1.382 . S
C174 H184 0.948 . S
N175 Co153 2.282 . S
N175 C179 1.332 . S
N175 C180 1.332 . S
C176 C177 1.388 . S
C176 C180 1.382 . S
C176 H199 0.950 . S
C177 C176 1.388 . S
C177 C178 1.386 . S
C178 C177 1.386 . S
C178 C179 1.382 . S
C178 H200 0.950 . S
C179 N175 1.332 . S
C179 C178 1.382 . S
C179 H181 0.952 . S
C180 N175 1.332 . S
C180 C176 1.382 . S
C180 H182 0.948 . S
H181 C179 0.952 . S
H182 C180 0.948 . S
H183 C172 0.952 . S
H184 C174 0.948 . S
C185 C151 1.395 . S
C185 C155 1.391 . S
C186 C148 1.389 . S
C186 C168 1.392 . S
C187 C158 1.392 . S
C187 C160 1.389 . S
C188 C163 1.395 . S
C188 C165 1.391 . S
H189 C149 0.951 . S
H190 C150 0.950 . S
H191 C156 0.949 . S
H192 C157 0.950 . S
H193 C161 0.951 . S
H194 C162 0.950 . S
H195 C166 0.949 . S
H196 C167 0.950 . S
H197 C171 0.950 . S
H198 C173 0.950 . S
H199 C176 0.950 . S
H200 C178 0.950 . S
C201 C202 1.349 . S
C201 C203 1.327 . S
C201 H226 0.950 . S
C202 C201 1.349 . S
C202 C218 1.349 . S
C203 C201 1.327 . S
C203 C222 1.429 . S
C203 H227 0.950 . S
C204 C221 1.574 . S
C204 C223 1.368 . S
C204 H228 0.949 . S
H205 C209 0.949 . S
C206 C207 1.349 . S
C206 C208 1.327 . S
C206 H229 0.950 . S
C207 C206 1.349 . S
C207 C219 1.349 . S
C208 C206 1.327 . S
C208 C224 1.429 . S
C208 H230 0.950 . S
C209 H205 0.949 . S
C209 C217 1.574 . S
C209 C225 1.368 . S
H210 C218 0.950 . S
H211 C216 0.950 . S
H212 C217 0.949 . S
H213 C219 0.950 . S
H214 C220 0.950 . S
H215 C221 0.949 . S
C216 H211 0.950 . S
C216 C218 1.327 . S
C216 C222 1.429 . S
C217 C209 1.574 . S
C217 H212 0.949 . S
C217 C223 1.368 . S
C218 C202 1.349 . S
C218 H210 0.950 . S
C218 C216 1.327 . S
C219 C207 1.349 . S
C219 H213 0.950 . S
C219 C220 1.327 . S
C220 H214 0.950 . S
C220 C219 1.327 . S
C220 C224 1.429 . S
C221 C204 1.574 . S
C221 H215 0.949 . S
C221 C225 1.368 . S
C222 C203 1.429 . S
C222 C216 1.429 . S
C222 C223 1.523 . S
C223 C204 1.368 . S
C223 C217 1.368 . S
C223 C222 1.523 . S
C224 C208 1.429 . S
C224 C220 1.429 . S
C224 C225 1.523 . S
C225 C209 1.368 . S
C225 C221 1.368 . S
C225 C224 1.523 . S
H226 C201 0.950 . S
H227 C203 0.950 . S
H228 C204 0.949 . S
H229 C206 0.950 . S
H230 C208 0.950 . S
C231 C232 1.349 . S
C231 C233 1.327 . S
C231 H256 0.950 1_545 S
C232 C231 1.349 . S
C232 C248 1.349 . S
C233 C231 1.327 . S
C233 C252 1.429 . S
C233 H257 0.950 1_545 S
C234 C251 1.574 . S
C234 C253 1.368 . S
C234 H258 0.949 . S
H235 C239 0.941 1_565 S
C236 C237 1.349 . S
C236 C238 1.327 . S
C236 H259 0.950 . S
C237 C236 1.349 . S
C237 C249 1.349 . S
C238 C236 1.327 . S
C238 C254 1.429 . S
C238 H260 0.950 . S
C239 H235 0.941 1_545 S
C239 C247 1.574 . S
C239 C255 1.368 . S
H240 C248 0.950 . S
H241 C246 0.950 . S
H242 C247 0.949 1_565 S
H243 C249 0.950 . S
H244 C250 0.950 . S
H245 C251 0.949 . S
C246 H241 0.950 . S
C246 C248 1.327 . S
C246 C252 1.429 . S
C247 C239 1.574 . S
C247 H242 0.949 1_545 S
C247 C253 1.368 . S
C248 C232 1.349 . S
C248 H240 0.950 . S
C248 C246 1.327 . S
C249 C237 1.349 . S
C249 H243 0.950 . S
C249 C250 1.327 . S
C250 H244 0.950 . S
C250 C249 1.327 . S
C250 C254 1.429 . S
C251 C234 1.574 . S
C251 H245 0.949 . S
C251 C255 1.368 . S
C252 C233 1.429 . S
C252 C246 1.429 . S
C252 C253 1.523 . S
C253 C234 1.368 . S
C253 C247 1.368 . S
C253 C252 1.523 . S
C254 C238 1.429 . S
C254 C250 1.429 . S
C254 C255 1.523 . S
C255 C239 1.368 . S
C255 C251 1.368 . S
C255 C254 1.523 . S
H256 C231 0.950 1_565 S
H257 C233 0.950 1_565 S
H258 C234 0.949 . S
H259 C236 0.950 . S
H260 C238 0.950 . S
C261 C262 1.349 . S
C261 C263 1.327 . S
C261 H286 0.950 . S
C262 C261 1.349 . S
C262 C278 1.349 . S
C263 C261 1.327 . S
C263 C282 1.429 . S
C263 H287 0.950 . S
C264 C281 1.574 . S
C264 C283 1.368 . S
C264 H288 0.949 . S
H265 C269 0.949 . S
C266 C267 1.349 . S
C266 C268 1.327 . S
C266 H289 0.950 . S
C267 C266 1.349 . S
C267 C279 1.349 . S
C268 C266 1.327 . S
C268 C284 1.429 . S
C268 H290 0.950 . S
C269 H265 0.949 . S
C269 C277 1.574 . S
C269 C285 1.368 . S
H270 C278 0.950 . S
H271 C276 0.950 . S
H272 C277 0.949 . S
H273 C279 0.950 . S
H274 C280 0.950 . S
H275 C281 0.949 . S
C276 H271 0.950 . S
C276 C278 1.327 . S
C276 C282 1.429 . S
C277 C269 1.574 . S
C277 H272 0.949 . S
C277 C283 1.368 . S
C278 C262 1.349 . S
C278 H270 0.950 . S
C278 C276 1.327 . S
C279 C267 1.349 . S
C279 H273 0.950 . S
C279 C280 1.327 . S
C280 H274 0.950 . S
C280 C279 1.327 . S
C280 C284 1.429 . S
C281 C264 1.574 . S
C281 H275 0.949 . S
C281 C285 1.368 . S
C282 C263 1.429 . S
C282 C276 1.429 . S
C282 C283 1.523 . S
C283 C264 1.368 . S
C283 C277 1.368 . S
C283 C282 1.523 . S
C284 C268 1.429 . S
C284 C280 1.429 . S
C284 C285 1.523 . S
C285 C269 1.368 . S
C285 C281 1.368 . S
C285 C284 1.523 . S
H286 C261 0.950 . S
H287 C263 0.950 . S
H288 C264 0.949 . S
H289 C266 0.950 . S
H290 C268 0.950 . S
C291 C292 1.349 . S
C291 C293 1.327 . S
C291 H316 0.950 . S
C292 C291 1.349 . S
C292 C308 1.349 . S
C293 C291 1.327 . S
C293 C312 1.429 . S
C293 H317 0.950 1_455 S
C294 C311 1.574 . S
C294 C313 1.368 . S
C294 H318 0.949 . S
H295 C299 0.949 1_655 S
C296 C297 1.349 . S
C296 C298 1.327 . S
C296 H319 0.950 . S
C297 C296 1.349 . S
C297 C309 1.349 . S
C298 C296 1.327 . S
C298 C314 1.429 . S
C298 H320 0.950 . S
C299 H295 0.949 1_455 S
C299 C307 1.574 . S
C299 C315 1.368 . S
H300 C308 0.950 . S
H301 C306 0.950 . S
H302 C307 0.949 1_655 S
H303 C309 0.950 1_655 S
H304 C310 0.950 1_655 S
H305 C311 0.949 . S
C306 H301 0.950 . S
C306 C308 1.327 . S
C306 C312 1.429 . S
C307 C299 1.574 . S
C307 H302 0.949 1_455 S
C307 C313 1.368 . S
C308 C292 1.349 . S
C308 H300 0.950 . S
C308 C306 1.327 . S
C309 C297 1.349 . S
C309 H303 0.950 1_455 S
C309 C310 1.327 . S
C310 H304 0.950 1_455 S
C310 C309 1.327 . S
C310 C314 1.429 . S
C311 C294 1.574 . S
C311 H305 0.949 . S
C311 C315 1.368 . S
C312 C293 1.429 . S
C312 C306 1.429 . S
C312 C313 1.523 . S
C313 C294 1.368 . S
C313 C307 1.368 . S
C313 C312 1.523 . S
C314 C298 1.429 . S
C314 C310 1.429 . S
C314 C315 1.523 . S
C315 C299 1.368 . S
C315 C311 1.368 . S
C315 C314 1.523 . S
H316 C291 0.950 . S
H317 C293 0.950 1_655 S
H318 C294 0.949 . S
H319 C296 0.950 . S
H320 C298 0.950 . S
C321 C322 1.349 . S
C321 C323 1.327 . S
C321 H346 0.950 . S
C322 C321 1.349 . S
C322 C338 1.349 . S
C323 C321 1.327 . S
C323 C342 1.429 . S
C323 H347 0.950 . S
C324 C341 1.574 . S
C324 C343 1.368 . S
C324 H348 0.949 . S
H325 C329 0.949 . S
C326 C327 1.349 . S
C326 C328 1.327 . S
C326 H349 0.950 . S
C327 C326 1.349 . S
C327 C339 1.349 . S
C328 C326 1.327 . S
C328 C344 1.429 . S
C328 H350 0.950 . S
C329 H325 0.949 . S
C329 C337 1.574 . S
C329 C345 1.368 . S
H330 C338 0.950 . S
H331 C336 0.950 . S
H332 C337 0.949 . S
H333 C339 0.950 . S
H334 C340 0.950 . S
H335 C341 0.949 . S
C336 H331 0.950 . S
C336 C338 1.327 . S
C336 C342 1.429 . S
C337 C329 1.574 . S
C337 H332 0.949 . S
C337 C343 1.368 . S
C338 C322 1.349 . S
C338 H330 0.950 . S
C338 C336 1.327 . S
C339 C327 1.349 . S
C339 H333 0.950 . S
C339 C340 1.327 . S
C340 H334 0.950 . S
C340 C339 1.327 . S
C340 C344 1.429 . S
C341 C324 1.574 . S
C341 H335 0.949 . S
C341 C345 1.368 . S
C342 C323 1.429 . S
C342 C336 1.429 . S
C342 C343 1.523 . S
C343 C324 1.368 . S
C343 C337 1.368 . S
C343 C342 1.523 . S
C344 C328 1.429 . S
C344 C340 1.429 . S
C344 C345 1.523 . S
C345 C329 1.368 . S
C345 C341 1.368 . S
C345 C344 1.523 . S
H346 C321 0.950 . S
H347 C323 0.950 . S
H348 C324 0.949 . S
H349 C326 0.950 . S
H350 C328 0.950 . S
C351 C352 1.349 . S
C351 C353 1.327 . S
C351 H376 0.950 . S
C352 C351 1.349 . S
C352 C368 1.349 . S
C353 C351 1.327 . S
C353 C372 1.429 . S
C353 H377 0.950 . S
C354 C371 1.574 . S
C354 C373 1.368 . S
C354 H378 0.949 . S
H355 C359 0.949 . S
C356 C357 1.349 . S
C356 C358 1.327 . S
C356 H379 0.950 . S
C357 C356 1.349 . S
C357 C369 1.349 . S
C358 C356 1.327 . S
C358 C374 1.429 . S
C358 H380 0.950 . S
C359 H355 0.949 . S
C359 C367 1.574 . S
C359 C375 1.368 . S
H360 C368 0.950 . S
H361 C366 0.950 . S
H362 C367 0.949 . S
H363 C369 0.950 . S
H364 C370 0.950 . S
H365 C371 0.949 . S
C366 H361 0.950 . S
C366 C368 1.327 . S
C366 C372 1.429 . S
C367 C359 1.574 . S
C367 H362 0.949 . S
C367 C373 1.368 . S
C368 C352 1.349 . S
C368 H360 0.950 . S
C368 C366 1.327 . S
C369 C357 1.349 . S
C369 H363 0.950 . S
C369 C370 1.327 . S
C370 H364 0.950 . S
C370 C369 1.327 . S
C370 C374 1.429 . S
C371 C354 1.574 . S
C371 H365 0.949 . S
C371 C375 1.368 . S
C372 C353 1.429 . S
C372 C366 1.429 . S
C372 C373 1.523 . S
C373 C354 1.368 . S
C373 C367 1.368 . S
C373 C372 1.523 . S
C374 C358 1.429 . S
C374 C370 1.429 . S
C374 C375 1.523 . S
C375 C359 1.368 . S
C375 C371 1.368 . S
C375 C374 1.523 . S
H376 C351 0.950 . S
H377 C353 0.950 . S
H378 C354 0.949 . S
H379 C356 0.950 . S
H380 C358 0.950 . S
C381 C382 1.349 . S
C381 C383 1.327 . S
C381 H406 0.950 1_655 S
C382 C381 1.349 . S
C382 C398 1.349 . S
C383 C381 1.327 . S
C383 C402 1.429 . S
C383 H407 0.950 . S
C384 C401 1.574 . S
C384 C403 1.368 . S
C384 H408 0.949 1_545 S
H385 C389 0.949 . S
C386 C387 1.349 . S
C386 C388 1.327 . S
C386 H409 0.950 . S
C387 C386 1.349 . S
C387 C399 1.349 . S
C388 C386 1.327 . S
C388 C404 1.429 . S
C388 H410 0.950 . S
C389 H385 0.949 . S
C389 C397 1.574 . S
C389 C405 1.368 . S
H390 C398 0.950 1_565 S
H391 C396 0.950 1_565 S
H392 C397 0.949 . S
H393 C399 0.950 . S
H394 C400 0.950 . S
H395 C401 0.946 1_565 S
C396 H391 0.950 1_545 S
C396 C398 1.327 . S
C396 C402 1.429 . S
C397 C389 1.574 . S
C397 H392 0.949 . S
C397 C403 1.368 . S
C398 C382 1.349 . S
C398 H390 0.950 1_545 S
C398 C396 1.327 . S
C399 C387 1.349 . S
C399 H393 0.950 . S
C399 C400 1.327 . S
C400 H394 0.950 . S
C400 C399 1.327 . S
C400 C404 1.429 . S
C401 C384 1.574 . S
C401 H395 0.946 1_545 S
C401 C405 1.368 . S
C402 C383 1.429 . S
C402 C396 1.429 . S
C402 C403 1.523 . S
C403 C384 1.368 . S
C403 C397 1.368 . S
C403 C402 1.523 . S
C404 C388 1.429 . S
C404 C400 1.429 . S
C404 C405 1.523 . S
C405 C389 1.368 . S
C405 C401 1.368 . S
C405 C404 1.523 . S
H406 C381 0.950 1_455 S
H407 C383 0.950 . S
H408 C384 0.949 1_565 S
H409 C386 0.950 . S
H410 C388 0.950 . S
C411 C412 1.349 . S
C411 C413 1.327 . S
C411 H436 0.950 . S
C412 C411 1.349 . S
C412 C428 1.349 1_554 S
C413 C411 1.327 . S
C413 C432 1.429 1_554 S
C413 H437 0.950 . S
C414 C431 1.574 . S
C414 C433 1.368 . S
C414 H438 0.949 . S
H415 C419 0.949 . S
C416 C417 1.349 . S
C416 C418 1.327 . S
C416 H439 0.950 . S
C417 C416 1.349 . S
C417 C429 1.349 . S
C418 C416 1.327 . S
C418 C434 1.429 . S
C418 H440 0.950 . S
C419 H415 0.949 . S
C419 C427 1.574 . S
C419 C435 1.368 . S
H420 C428 0.950 1_455 S
H421 C426 0.950 . S
H422 C427 0.949 . S
H423 C429 0.950 . S
H424 C430 0.950 . S
H425 C431 0.949 . S
C426 H421 0.950 . S
C426 C428 1.327 . S
C426 C432 1.429 . S
C427 C419 1.574 . S
C427 H422 0.949 . S
C427 C433 1.368 . S
C428 C412 1.349 1_556 S
C428 H420 0.950 1_655 S
C428 C426 1.327 . S
C429 C417 1.349 . S
C429 H423 0.950 . S
C429 C430 1.327 . S
C430 H424 0.950 . S
C430 C429 1.327 . S
C430 C434 1.429 . S
C431 C414 1.574 . S
C431 H425 0.949 . S
C431 C435 1.368 . S
C432 C413 1.429 1_556 S
C432 C426 1.429 . S
C432 C433 1.523 . S
C433 C414 1.368 . S
C433 C427 1.368 . S
C433 C432 1.523 . S
C434 C418 1.429 . S
C434 C430 1.429 . S
C434 C435 1.523 . S
C435 C419 1.368 . S
C435 C431 1.368 . S
C435 C434 1.523 . S
H436 C411 0.950 . S
H437 C413 0.950 . S
H438 C414 0.949 . S
H439 C416 0.950 . S
H440 C418 0.950 . S
C441 C442 1.349 . S
C441 C443 1.327 . S
C441 H466 0.950 1_565 S
C442 C441 1.349 . S
C442 C458 1.349 1_455 S
C443 C441 1.327 . S
C443 C462 1.429 . S
C443 H467 0.950 . S
C444 C461 1.574 . S
C444 C463 1.368 1_655 S
C444 H468 0.949 . S
H445 C449 0.949 . S
C446 C447 1.349 . S
C446 C448 1.327 . S
C446 H469 0.950 1_455 S
C447 C446 1.349 . S
C447 C459 1.349 . S
C448 C446 1.327 . S
C448 C464 1.429 . S
C448 H470 0.950 1_455 S
C449 H445 0.949 . S
C449 C457 1.574 . S
C449 C465 1.368 . S
H450 C458 0.950 . S
H451 C456 0.950 . S
H452 C457 0.949 . S
H453 C459 0.950 . S
H454 C460 0.950 . S
H455 C461 0.949 . S
C456 H451 0.950 . S
C456 C458 1.327 . S
C456 C462 1.429 1_655 S
C457 C449 1.574 . S
C457 H452 0.949 . S
C457 C463 1.368 . S
C458 C442 1.349 1_655 S
C458 H450 0.950 . S
C458 C456 1.327 . S
C459 C447 1.349 . S
C459 H453 0.950 . S
C459 C460 1.327 . S
C460 H454 0.950 . S
C460 C459 1.327 . S
C460 C464 1.429 . S
C461 C444 1.574 . S
C461 H455 0.949 . S
C461 C465 1.368 1_655 S
C462 C443 1.429 . S
C462 C456 1.429 1_455 S
C462 C463 1.523 . S
C463 C444 1.368 1_455 S
C463 C457 1.368 . S
C463 C462 1.523 . S
C464 C448 1.429 . S
C464 C460 1.429 . S
C464 C465 1.523 . S
C465 C449 1.368 . S
C465 C461 1.368 1_455 S
C465 C464 1.523 . S
H466 C441 0.950 1_545 S
H467 C443 0.950 . S
H468 C444 0.949 . S
H469 C446 0.950 1_655 S
H470 C448 0.950 1_655 S
C471 C472 1.349 . S
C471 C473 1.327 . S
C471 H496 0.950 . S
C472 C471 1.349 . S
C472 C488 1.349 . S
C473 C471 1.327 . S
C473 C492 1.429 . S
C473 H497 0.950 . S
C474 C491 1.574 . S
C474 C493 1.368 . S
C474 H498 0.949 1_545 S
H475 C479 0.949 . S
C476 C477 1.349 . S
C476 C478 1.327 . S
C476 H499 0.950 . S
C477 C476 1.349 . S
C477 C489 1.349 . S
C478 C476 1.327 . S
C478 C494 1.429 . S
C478 H500 0.950 . S
C479 H475 0.949 . S
C479 C487 1.574 . S
C479 C495 1.368 . S
H480 C488 0.950 1_565 S
H481 C486 0.950 1_565 S
H482 C487 0.949 . S
H483 C489 0.950 . S
H484 C490 0.950 . S
H485 C491 0.932 1_565 S
C486 H481 0.950 1_545 S
C486 C488 1.327 . S
C486 C492 1.429 . S
C487 C479 1.574 . S
C487 H482 0.949 . S
C487 C493 1.368 . S
C488 C472 1.349 . S
C488 H480 0.950 1_545 S
C488 C486 1.327 . S
C489 C477 1.349 . S
C489 H483 0.950 . S
C489 C490 1.327 . S
C490 H484 0.950 . S
C490 C489 1.327 . S
C490 C494 1.429 . S
C491 C474 1.574 . S
C491 H485 0.932 1_545 S
C491 C495 1.368 . S
C492 C473 1.429 . S
C492 C486 1.429 . S
C492 C493 1.523 . S
C493 C474 1.368 . S
C493 C487 1.368 . S
C493 C492 1.523 . S
C494 C478 1.429 . S
C494 C490 1.429 . S
C494 C495 1.523 . S
C495 C479 1.368 . S
C495 C491 1.368 . S
C495 C494 1.523 . S
H496 C471 0.950 . S
H497 C473 0.950 . S
H498 C474 0.949 1_565 S
H499 C476 0.950 . S
H500 C478 0.950 . S
C501 C502 1.349 . S
C501 C503 1.318 1_554 S
C501 H526 0.950 . S
C502 C501 1.349 . S
C502 C518 1.349 1_554 S
C503 C501 1.318 1_556 S
C503 C522 1.442 . S
C503 H527 0.945 1_556 S
C504 C521 1.574 . S
C504 C523 1.368 . S
C504 H528 0.949 . S
H505 C509 0.949 . S
C506 C507 1.349 . S
C506 C508 1.327 . S
C506 H529 0.950 . S
C507 C506 1.349 . S
C507 C519 1.349 . S
C508 C506 1.327 . S
C508 C524 1.429 . S
C508 H530 0.950 . S
C509 H505 0.949 . S
C509 C517 1.574 . S
C509 C525 1.368 . S
H510 C518 0.950 . S
H511 C516 0.950 . S
H512 C517 0.949 . S
H513 C519 0.950 . S
H514 C520 0.950 . S
H515 C521 0.949 . S
C516 H511 0.950 . S
C516 C518 1.327 . S
C516 C522 1.429 . S
C517 C509 1.574 . S
C517 H512 0.949 . S
C517 C523 1.368 . S
C518 C502 1.349 1_556 S
C518 H510 0.950 . S
C518 C516 1.327 . S
C519 C507 1.349 . S
C519 H513 0.950 . S
C519 C520 1.327 . S
C520 H514 0.950 . S
C520 C519 1.327 . S
C520 C524 1.429 . S
C521 C504 1.574 . S
C521 H515 0.949 . S
C521 C525 1.368 . S
C522 C503 1.442 . S
C522 C516 1.429 . S
C522 C523 1.523 . S
C523 C504 1.368 . S
C523 C517 1.368 . S
C523 C522 1.523 . S
C524 C508 1.429 . S
C524 C520 1.429 . S
C524 C525 1.523 . S
C525 C509 1.368 . S
C525 C521 1.368 . S
C525 C524 1.523 . S
H526 C501 0.950 . S
H527 C503 0.945 1_554 S
H528 C504 0.949 . S
H529 C506 0.950 . S
H530 C508 0.950 . S
C531 C532 1.349 1_655 S
C531 C533 1.327 . S
C531 H556 0.950 . S
C532 C531 1.349 1_455 S
C532 C548 1.349 . S
C533 C531 1.327 . S
C533 C552 1.429 1_655 S
C533 H557 0.950 . S
C534 C551 1.574 . S
C534 C553 1.368 . S
C534 H558 0.949 . S
H535 C539 0.949 . S
C536 C537 1.349 . S
C536 C538 1.327 . S
C536 H559 0.950 . S
C537 C536 1.349 . S
C537 C549 1.349 . S
C538 C536 1.327 . S
C538 C554 1.429 . S
C538 H560 0.950 . S
C539 H535 0.949 . S
C539 C547 1.574 . S
C539 C555 1.368 1_655 S
H540 C548 0.950 . S
H541 C546 0.950 . S
H542 C547 0.949 . S
H543 C549 0.950 1_655 S
H544 C550 0.950 1_655 S
H545 C551 0.949 . S
C546 H541 0.950 . S
C546 C548 1.327 . S
C546 C552 1.429 . S
C547 C539 1.574 . S
C547 H542 0.949 . S
C547 C553 1.368 1_655 S
C548 C532 1.349 . S
C548 H540 0.950 . S
C548 C546 1.327 . S
C549 C537 1.349 . S
C549 H543 0.950 1_455 S
C549 C550 1.327 . S
C550 H544 0.950 1_455 S
C550 C549 1.327 . S
C550 C554 1.429 . S
C551 C534 1.574 . S
C551 H545 0.949 . S
C551 C555 1.368 . S
C552 C533 1.429 1_455 S
C552 C546 1.429 . S
C552 C553 1.523 . S
C553 C534 1.368 . S
C553 C547 1.368 1_455 S
C553 C552 1.523 . S
C554 C538 1.429 . S
C554 C550 1.429 . S
C554 C555 1.523 . S
C555 C539 1.368 1_455 S
C555 C551 1.368 . S
C555 C554 1.523 . S
H556 C531 0.950 . S
H557 C533 0.950 . S
H558 C534 0.949 . S
H559 C536 0.950 . S
H560 C538 0.950 . S
C207 C64 1.444 . S
C202 C0 1.440 . S
C232 C25 1.487 . S
C237 C134 1.488 . S
C262 C33 1.507 . S
C267 C186 1.507 . S
C292 C11 1.435 . S
C297 C80 1.435 . S
C327 C124 1.481 . S
C322 C14 1.476 . S
C352 C37 1.499 . S
C357 C170 1.505 . S
C387 C117 1.480 . S
C382 C28 1.475 . S
C412 C9 1.498 1_655 S
C417 C177 1.504 . S
C447 C71 1.537 . S
C442 C19 1.557 . S
C477 C133 1.487 . S
C472 C39 1.487 . S
C507 C187 1.506 . S
C502 C5 1.506 . S
C532 C23 1.548 . S
C537 C81 1.556 . S
