# Generated by pormake.
# Topology fgl, (4,4)-cn, num edge types: 1
# Building blocks:
#     Node 0, Type 0, BuildingBlock: ESEHIV_clean_sbu_0, # of connection points: 4
#     Node 1, Type 0, BuildingBlock: ESEHIV_clean_sbu_0, # of connection points: 4
#     Node 2, Type 0, BuildingBlock: ESEHIV_clean_sbu_0, # of connection points: 4
#     Node 3, Type 0, BuildingBlock: ESEHIV_clean_sbu_0, # of connection points: 4
#     Node 4, Type 0, BuildingBlock: ESEHIV_clean_sbu_0, # of connection points: 4
#     Node 5, Type 0, BuildingBlock: ESEHIV_clean_sbu_0, # of connection points: 4
#     Node 6, Type 0, BuildingBlock: ESEHIV_clean_sbu_0, # of connection points: 4
#     Node 7, Type 0, BuildingBlock: ESEHIV_clean_sbu_0, # of connection points: 4
#     Node 8, Type 0, BuildingBlock: ESEHIV_clean_sbu_0, # of connection points: 4
#     Node 9, Type 0, BuildingBlock: ESEHIV_clean_sbu_0, # of connection points: 4
#     Node 10, Type 0, BuildingBlock: ESEHIV_clean_sbu_0, # of connection points: 4
#     Node 11, Type 0, BuildingBlock: ESEHIV_clean_sbu_0, # of connection points: 4
#     Node 12, Type 0, BuildingBlock: ESEHIV_clean_sbu_0, # of connection points: 4
#     Node 13, Type 0, BuildingBlock: ESEHIV_clean_sbu_0, # of connection points: 4
#     Node 14, Type 0, BuildingBlock: ESEHIV_clean_sbu_0, # of connection points: 4
#     Node 15, Type 0, BuildingBlock: ESEHIV_clean_sbu_0, # of connection points: 4
#     Node 16, Type 0, BuildingBlock: ESEHIV_clean_sbu_0, # of connection points: 4
#     Node 17, Type 0, BuildingBlock: ESEHIV_clean_sbu_0, # of connection points: 4
#     Node 18, Type 1, BuildingBlock: TATPOV_clean_sbu_0, # of connection points: 4
#     Node 19, Type 1, BuildingBlock: TATPOV_clean_sbu_0, # of connection points: 4
#     Node 20, Type 1, BuildingBlock: TATPOV_clean_sbu_0, # of connection points: 4
#     Node 21, Type 1, BuildingBlock: TATPOV_clean_sbu_0, # of connection points: 4
#     Node 22, Type 1, BuildingBlock: TATPOV_clean_sbu_0, # of connection points: 4
#     Node 23, Type 1, BuildingBlock: TATPOV_clean_sbu_0, # of connection points: 4
#     Node 24, Type 1, BuildingBlock: TATPOV_clean_sbu_0, # of connection points: 4
#     Node 25, Type 1, BuildingBlock: TATPOV_clean_sbu_0, # of connection points: 4
#     Node 26, Type 1, BuildingBlock: TATPOV_clean_sbu_0, # of connection points: 4
#     Node 27, Type 1, BuildingBlock: TATPOV_clean_sbu_0, # of connection points: 4
#     Node 28, Type 1, BuildingBlock: TATPOV_clean_sbu_0, # of connection points: 4
#     Node 29, Type 1, BuildingBlock: TATPOV_clean_sbu_0, # of connection points: 4
#     Node 30, Type 1, BuildingBlock: TATPOV_clean_sbu_0, # of connection points: 4
#     Node 31, Type 1, BuildingBlock: TATPOV_clean_sbu_0, # of connection points: 4
#     Node 32, Type 1, BuildingBlock: TATPOV_clean_sbu_0, # of connection points: 4
#     Node 33, Type 1, BuildingBlock: TATPOV_clean_sbu_0, # of connection points: 4
#     Node 34, Type 1, BuildingBlock: TATPOV_clean_sbu_0, # of connection points: 4
#     Node 35, Type 1, BuildingBlock: TATPOV_clean_sbu_0, # of connection points: 4
#     Edge 36, Type (0, 1), BuildingBlock: UVAHIK_clean_linker_0, # of connection points: 2
#     Edge 37, Type (0, 1), BuildingBlock: UVAHIK_clean_linker_0, # of connection points: 2
#     Edge 38, Type (0, 1), BuildingBlock: UVAHIK_clean_linker_0, # of connection points: 2
#     Edge 39, Type (0, 1), BuildingBlock: UVAHIK_clean_linker_0, # of connection points: 2
#     Edge 40, Type (0, 1), BuildingBlock: UVAHIK_clean_linker_0, # of connection points: 2
#     Edge 41, Type (0, 1), BuildingBlock: UVAHIK_clean_linker_0, # of connection points: 2
#     Edge 42, Type (0, 1), BuildingBlock: UVAHIK_clean_linker_0, # of connection points: 2
#     Edge 43, Type (0, 1), BuildingBlock: UVAHIK_clean_linker_0, # of connection points: 2
#     Edge 44, Type (0, 1), BuildingBlock: UVAHIK_clean_linker_0, # of connection points: 2
#     Edge 45, Type (0, 1), BuildingBlock: UVAHIK_clean_linker_0, # of connection points: 2
#     Edge 46, Type (0, 1), BuildingBlock: UVAHIK_clean_linker_0, # of connection points: 2
#     Edge 47, Type (0, 1), BuildingBlock: UVAHIK_clean_linker_0, # of connection points: 2
#     Edge 48, Type (0, 1), BuildingBlock: UVAHIK_clean_linker_0, # of connection points: 2
#     Edge 49, Type (0, 1), BuildingBlock: UVAHIK_clean_linker_0, # of connection points: 2
#     Edge 50, Type (0, 1), BuildingBlock: UVAHIK_clean_linker_0, # of connection points: 2
#     Edge 51, Type (0, 1), BuildingBlock: UVAHIK_clean_linker_0, # of connection points: 2
#     Edge 52, Type (0, 1), BuildingBlock: UVAHIK_clean_linker_0, # of connection points: 2
#     Edge 53, Type (0, 1), BuildingBlock: UVAHIK_clean_linker_0, # of connection points: 2
#     Edge 54, Type (0, 1), BuildingBlock: UVAHIK_clean_linker_0, # of connection points: 2
#     Edge 55, Type (0, 1), BuildingBlock: UVAHIK_clean_linker_0, # of connection points: 2
#     Edge 56, Type (0, 1), BuildingBlock: UVAHIK_clean_linker_0, # of connection points: 2
#     Edge 57, Type (0, 1), BuildingBlock: UVAHIK_clean_linker_0, # of connection points: 2
#     Edge 58, Type (0, 1), BuildingBlock: UVAHIK_clean_linker_0, # of connection points: 2
#     Edge 59, Type (0, 1), BuildingBlock: UVAHIK_clean_linker_0, # of connection points: 2
#     Edge 60, Type (0, 1), BuildingBlock: UVAHIK_clean_linker_0, # of connection points: 2
#     Edge 61, Type (0, 1), BuildingBlock: UVAHIK_clean_linker_0, # of connection points: 2
#     Edge 62, Type (0, 1), BuildingBlock: UVAHIK_clean_linker_0, # of connection points: 2
#     Edge 63, Type (0, 1), BuildingBlock: UVAHIK_clean_linker_0, # of connection points: 2
#     Edge 64, Type (0, 1), BuildingBlock: UVAHIK_clean_linker_0, # of connection points: 2
#     Edge 65, Type (0, 1), BuildingBlock: UVAHIK_clean_linker_0, # of connection points: 2
#     Edge 66, Type (0, 1), BuildingBlock: UVAHIK_clean_linker_0, # of connection points: 2
#     Edge 67, Type (0, 1), BuildingBlock: UVAHIK_clean_linker_0, # of connection points: 2
#     Edge 68, Type (0, 1), BuildingBlock: UVAHIK_clean_linker_0, # of connection points: 2
#     Edge 69, Type (0, 1), BuildingBlock: UVAHIK_clean_linker_0, # of connection points: 2
#     Edge 70, Type (0, 1), BuildingBlock: UVAHIK_clean_linker_0, # of connection points: 2
#     Edge 71, Type (0, 1), BuildingBlock: UVAHIK_clean_linker_0, # of connection points: 2
#     Edge 72, Type (0, 1), BuildingBlock: UVAHIK_clean_linker_0, # of connection points: 2
#     Edge 73, Type (0, 1), BuildingBlock: UVAHIK_clean_linker_0, # of connection points: 2
#     Edge 74, Type (0, 1), BuildingBlock: UVAHIK_clean_linker_0, # of connection points: 2
#     Edge 75, Type (0, 1), BuildingBlock: UVAHIK_clean_linker_0, # of connection points: 2
#     Edge 76, Type (0, 1), BuildingBlock: UVAHIK_clean_linker_0, # of connection points: 2
#     Edge 77, Type (0, 1), BuildingBlock: UVAHIK_clean_linker_0, # of connection points: 2
#     Edge 78, Type (0, 1), BuildingBlock: UVAHIK_clean_linker_0, # of connection points: 2
#     Edge 79, Type (0, 1), BuildingBlock: UVAHIK_clean_linker_0, # of connection points: 2
#     Edge 80, Type (0, 1), BuildingBlock: UVAHIK_clean_linker_0, # of connection points: 2
#     Edge 81, Type (0, 1), BuildingBlock: UVAHIK_clean_linker_0, # of connection points: 2
#     Edge 82, Type (0, 1), BuildingBlock: UVAHIK_clean_linker_0, # of connection points: 2
#     Edge 83, Type (0, 1), BuildingBlock: UVAHIK_clean_linker_0, # of connection points: 2
#     Edge 84, Type (0, 1), BuildingBlock: UVAHIK_clean_linker_0, # of connection points: 2
#     Edge 85, Type (0, 1), BuildingBlock: UVAHIK_clean_linker_0, # of connection points: 2
#     Edge 86, Type (0, 1), BuildingBlock: UVAHIK_clean_linker_0, # of connection points: 2
#     Edge 87, Type (0, 1), BuildingBlock: UVAHIK_clean_linker_0, # of connection points: 2
#     Edge 88, Type (0, 1), BuildingBlock: UVAHIK_clean_linker_0, # of connection points: 2
#     Edge 89, Type (0, 1), BuildingBlock: UVAHIK_clean_linker_0, # of connection points: 2
#     Edge 90, Type (0, 1), BuildingBlock: UVAHIK_clean_linker_0, # of connection points: 2
#     Edge 91, Type (0, 1), BuildingBlock: UVAHIK_clean_linker_0, # of connection points: 2
#     Edge 92, Type (0, 1), BuildingBlock: UVAHIK_clean_linker_0, # of connection points: 2
#     Edge 93, Type (0, 1), BuildingBlock: UVAHIK_clean_linker_0, # of connection points: 2
#     Edge 94, Type (0, 1), BuildingBlock: UVAHIK_clean_linker_0, # of connection points: 2
#     Edge 95, Type (0, 1), BuildingBlock: UVAHIK_clean_linker_0, # of connection points: 2
#     Edge 96, Type (0, 1), BuildingBlock: UVAHIK_clean_linker_0, # of connection points: 2
#     Edge 97, Type (0, 1), BuildingBlock: UVAHIK_clean_linker_0, # of connection points: 2
#     Edge 98, Type (0, 1), BuildingBlock: UVAHIK_clean_linker_0, # of connection points: 2
#     Edge 99, Type (0, 1), BuildingBlock: UVAHIK_clean_linker_0, # of connection points: 2
#     Edge 100, Type (0, 1), BuildingBlock: UVAHIK_clean_linker_0, # of connection points: 2
#     Edge 101, Type (0, 1), BuildingBlock: UVAHIK_clean_linker_0, # of connection points: 2
#     Edge 102, Type (0, 1), BuildingBlock: UVAHIK_clean_linker_0, # of connection points: 2
#     Edge 103, Type (0, 1), BuildingBlock: UVAHIK_clean_linker_0, # of connection points: 2
#     Edge 104, Type (0, 1), BuildingBlock: UVAHIK_clean_linker_0, # of connection points: 2
#     Edge 105, Type (0, 1), BuildingBlock: UVAHIK_clean_linker_0, # of connection points: 2
#     Edge 106, Type (0, 1), BuildingBlock: UVAHIK_clean_linker_0, # of connection points: 2
#     Edge 107, Type (0, 1), BuildingBlock: UVAHIK_clean_linker_0, # of connection points: 2
# Relax obj value: 0.028
# Max RMSD: 0.130
# Mean RMSD: 0.102
data_MOF--net-fgl--node1-ESEHIV_clean_sbu_0--node2-TATPOV_clean_sbu_0--edge1-UVAHIK_clean_linker_0
_symmetry_space_group_name_H-M    P1
_symmetry_Int_Tables_number       1
_symmetry_cell_setting            triclinic
loop_
_symmetry_equiv_pos_as_xyz
'x, y, z'
_cell_length_a     94.63318
_cell_length_b     97.938488
_cell_length_c     65.90615
_cell_angle_alpha  90.23621
_cell_angle_beta   90.336782
_cell_angle_gamma 120.02266
loop_
_atom_site_label
_atom_site_type_symbol
_atom_site_fract_x
_atom_site_fract_y
_atom_site_fract_z
_atom_type_partial_charge
Cu0 Cu 0.03409 0.5463 1.00642 0.0
N1 N 0.04691 0.55991 0.02723 0.0
N2 N 0.0532 0.57525 0.05487 0.0
C3 C 0.04253 0.56822 0.03938 0.0
C4 C 0.06479 0.57121 0.05232 0.0
C5 C 0.06088 0.56175 0.03522 0.0
O6 O 0.01768 0.55195 0.99972 0.0
C7 C 0.01542 0.51243 0.00675 0.0
O8 O 0.01001 0.51335 0.98871 0.0
H9 H 0.03125 0.56841 0.03749 0.0
H10 H 0.06738 0.55611 0.02947 0.0
N11 N 0.04649 0.54877 0.98323 0.0
N12 N 0.05247 0.54213 0.95322 0.0
C13 C 0.0456 0.53702 0.97159 0.0
C14 C 0.05466 0.5619 0.9721 0.0
C15 C 0.05841 0.55786 0.95361 0.0
C16 C 0.01131 0.54993 0.98212 0.0
O17 O 0.01442 0.54204 0.9684 0.0
H18 H 0.03925 0.52481 0.9761 0.0
H19 H 0.05656 0.57337 0.97646 0.0
O20 O 0.02494 0.52497 0.01656 0.0
H21 H 0.07518 0.5746 0.06229 0.0
H22 H 0.06389 0.5657 0.94091 0.0
Cu23 Cu 0.53946 0.55824 0.02406 0.0
N24 N 0.55627 0.55989 0.0076 0.0
N25 N 0.57301 0.56756 0.98097 0.0
C26 C 0.56234 0.56986 0.99186 0.0
C27 C 0.57374 0.55567 0.99026 0.0
C28 C 0.56346 0.55101 0.00678 0.0
O29 O 0.54129 0.57903 0.02227 0.0
C30 C 0.51769 0.52672 0.01844 0.0
O31 O 0.52995 0.52653 0.02763 0.0
H32 H 0.55843 0.57819 0.98792 0.0
H33 H 0.56109 0.54156 0.01709 0.0
N34 N 0.54183 0.5541 0.05124 0.0
N35 N 0.53412 0.54453 0.08257 0.0
C36 C 0.52924 0.54643 0.06401 0.0
C37 C 0.55525 0.55722 0.06201 0.0
C38 C 0.55052 0.55131 0.08136 0.0
C39 C 0.54072 0.58676 0.03755 0.0
O40 O 0.53541 0.57949 0.05491 0.0
H41 H 0.51667 0.54202 0.0595 0.0
H42 H 0.56754 0.56324 0.05617 0.0
O43 O 0.519 0.54005 0.01438 0.0
H44 H 0.58105 0.55062 0.98534 0.0
H45 H 0.55857 0.55203 0.09356 0.0
Cu46 Cu 0.51358 0.01758 0.01414 0.0
N47 N 0.50415 0.01329 0.98828 0.0
N48 N 0.49204 0.01384 0.95933 0.0
C49 C 0.49586 0.01925 0.97868 0.0
C50 C 0.49825 0.00418 0.95683 0.0
C51 C 0.50569 0.00389 0.97465 0.0
O52 O 0.5001 1.00118 0.03336 0.0
C53 C 0.54418 0.03197 0.99837 0.0
O54 O 0.5376 0.03939 0.98928 0.0
H55 H 0.49285 0.02746 0.9857 0.0
H56 H 0.51214 0.99755 0.97741 0.0
N57 N 0.51558 0.03588 0.02552 0.0
N58 N 0.52414 0.05378 0.05057 0.0
C59 C 0.52785 0.04497 0.03834 0.0
C60 C 0.50365 0.03915 0.02953 0.0
C61 C 0.50892 0.05023 0.04501 0.0
C62 C 0.48577 0.99007 0.029 0.0
O63 O 0.48098 0.98755 0.00994 0.0
H64 H 0.53834 0.04347 0.0406 0.0
H65 H 0.49138 0.03262 0.0234 0.0
O66 O 0.53558 0.02116 0.01097 0.0
H67 H 0.49794 0.9981 0.94295 0.0
H68 H 0.50158 0.05422 0.05278 0.0
Cu69 Cu 0.51197 0.03491 0.52698 0.0
N70 N 0.51131 0.02524 0.50215 0.0
N71 N 0.51981 0.02296 0.47135 0.0
C72 C 0.52365 0.03137 0.48883 0.0
C73 C 0.50441 0.01095 0.4739 0.0
C74 C 0.49918 0.01241 0.49288 0.0
O75 O 0.5313 0.03726 0.54125 0.0
C76 C 0.50118 0.05301 0.5078 0.0
O77 O 0.49183 0.03914 0.49934 0.0
H78 H 0.53516 0.04198 0.49192 0.0
H79 H 0.48716 0.00502 0.49904 0.0
N80 N 0.49356 0.02313 0.54308 0.0
N81 N 0.47514 0.01855 0.56724 0.0
C82 C 0.4887 0.02948 0.55769 0.0
C83 C 0.48276 0.00756 0.54334 0.0
C84 C 0.47139 0.00471 0.55818 0.0
C85 C 0.53058 0.02435 0.54627 0.0
O86 O 0.51703 0.01106 0.54244 0.0
H87 H 0.49527 0.04193 0.56136 0.0
H88 H 0.48319 0.99885 0.53367 0.0
O89 O 0.51186 0.05445 0.52089 0.0
H90 H 0.49717 1.0021 0.4626 0.0
H91 H 0.46114 0.99329 0.56186 0.0
Cu92 Cu 0.04036 0.55159 0.49952 0.0
N93 N 0.05391 0.54578 0.51321 0.0
N94 N 0.06044 0.53319 0.53652 0.0
C95 C 0.04859 0.53549 0.52865 0.0
C96 C 0.07386 0.54256 0.52556 0.0
C97 C 0.06979 0.55031 0.51115 0.0
O98 O 0.01894 0.53287 0.50175 0.0
C99 C 0.05504 0.58304 0.50986 0.0
O100 O 0.06631 0.58322 0.49811 0.0
H101 H 0.03623 0.53003 0.53425 0.0
H102 H 0.07782 0.55866 0.50006 0.0
N103 N 0.04589 0.5569 0.4722 0.0
N104 N 0.04754 0.56791 0.44188 0.0
C105 C 0.04166 0.5658 0.46095 0.0
C106 C 0.05476 0.55319 0.45986 0.0
C107 C 0.05582 0.55998 0.44117 0.0
C108 C 0.01049 0.52479 0.48657 0.0
O109 O 0.01416 0.53101 0.4684 0.0
H110 H 0.03461 0.57085 0.46685 0.0
H111 H 0.06007 0.54607 0.46415 0.0
O112 O 0.0421 0.56996 0.51312 0.0
H113 H 0.08575 0.54367 0.52762 0.0
H114 H 0.06208 0.55899 0.42805 0.0
Cu115 Cu 0.51346 0.55189 0.52251 0.0
N116 N 0.53378 0.56721 0.51296 0.0
N117 N 0.56032 0.58238 0.50683 0.0
C118 C 0.54878 0.56907 0.51573 0.0
C119 C 0.55232 0.589 0.49809 0.0
C120 C 0.53598 0.57959 0.50181 0.0
O121 O 0.50928 0.5593 0.54788 0.0
C122 C 0.50148 0.54483 0.48345 0.0
O123 O 0.51632 0.54727 0.48085 0.0
H124 H 0.55123 0.56113 0.52445 0.0
H125 H 0.5263 0.58167 0.49689 0.0
N126 N 0.51256 0.53307 0.52915 0.0
N127 N 0.49765 0.50813 0.53942 0.0
C128 C 0.49873 0.51922 0.52647 0.0
C129 C 0.52078 0.53065 0.54411 0.0
C130 C 0.51158 0.51523 0.5505 0.0
C131 C 0.51341 0.57356 0.55174 0.0
O132 O 0.51822 0.58376 0.53687 0.0
H133 H 0.48856 0.51803 0.51745 0.0
H134 H 0.53155 0.5399 0.55163 0.0
O135 O 0.49725 0.5467 0.5011 0.0
H136 H 0.55792 0.59987 0.48959 0.0
H137 H 0.51416 0.51016 0.56358 0.0
Cu138 Cu 0.69646 0.89123 0.34407 0.0
N139 N 0.67993 0.89621 0.34545 0.0
N140 N 0.66478 0.90715 0.33802 0.0
C141 C 0.67825 0.90638 0.33345 0.0
C142 C 0.65766 0.89697 0.35341 0.0
C143 C 0.66705 0.89022 0.35796 0.0
O144 O 0.71789 0.91012 0.34554 0.0
C145 C 0.70044 0.88678 0.30184 0.0
O146 O 0.70905 0.90225 0.30143 0.0
H147 H 0.68668 0.91294 0.32147 0.0
H148 H 0.66461 0.88153 0.36951 0.0
N149 N 0.69474 0.87798 0.36519 0.0
N150 N 0.69545 0.8585 0.38172 0.0
C151 C 0.69632 0.86512 0.36352 0.0
C152 C 0.69273 0.87955 0.38509 0.0
C153 C 0.69321 0.86755 0.39536 0.0
C154 C 0.725 0.92013 0.35987 0.0
O155 O 0.74031 0.9311 0.35745 0.0
H156 H 0.69856 0.861 0.3493 0.0
H157 H 0.69118 0.88884 0.39168 0.0
O158 O 0.6941 0.87997 0.31852 0.0
H159 H 0.64658 0.89468 0.36099 0.0
H160 H 0.69197 0.86562 0.41157 0.0
Cu161 Cu 0.19189 0.8991 0.37017 0.0
N162 N 0.17169 0.88649 0.35738 0.0
N163 N 0.15087 0.86445 0.3441 0.0
C164 C 0.16516 0.87087 0.35448 0.0
C165 C 0.14837 0.87664 0.34036 0.0
C166 C 0.16123 0.8902 0.3485 0.0
O167 O 0.19085 0.88791 0.39519 0.0
C168 C 0.20781 0.90743 0.33385 0.0
O169 O 0.19578 0.91026 0.33082 0.0
H170 H 0.17117 0.8645 0.35936 0.0
H171 H 0.16301 0.90196 0.34739 0.0
N172 N 0.19606 0.91947 0.37656 0.0
N173 N 0.21063 0.94499 0.38521 0.0
C174 C 0.21094 0.93159 0.38143 0.0
C175 C 0.18594 0.9254 0.37739 0.0
C176 C 0.19492 0.94118 0.38263 0.0
C177 C 0.18216 0.88874 0.40935 0.0
O178 O 0.17575 0.89781 0.40681 0.0
H179 H 0.2218 0.93057 0.38207 0.0
H180 H 0.17291 0.91872 0.37489 0.0
O181 O 0.20882 0.90193 0.35097 0.0
H182 H 0.1381 0.87594 0.33213 0.0
H183 H 0.19019 0.94909 0.38494 0.0
Cu184 Cu 0.20545 0.41238 0.33861 0.0
N185 N 0.20451 0.42495 0.31815 0.0
N186 N 0.19526 0.43103 0.29039 0.0
C187 C 0.19128 0.42175 0.3069 0.0
C188 C 0.21161 0.44044 0.29131 0.0
C189 C 0.21729 0.43665 0.30845 0.0
O190 O 0.18335 0.39758 0.34735 0.0
C191 C 0.2266 0.39947 0.33736 0.0
O192 O 0.22636 0.40013 0.35724 0.0
H193 H 0.17918 0.41198 0.30986 0.0
H194 H 0.22993 0.4413 0.31275 0.0
N195 N 0.21699 0.42453 0.36121 0.0
N196 N 0.22669 0.42967 0.39301 0.0
C197 C 0.2154 0.41895 0.38017 0.0
C198 C 0.22952 0.43946 0.36208 0.0
C199 C 0.23558 0.44265 0.38169 0.0
C200 C 0.17626 0.40384 0.35675 0.0
O201 O 0.18408 0.41925 0.35911 0.0
H202 H 0.20691 0.40682 0.38405 0.0
H203 H 0.2344 0.44722 0.34923 0.0
O204 O 0.21732 0.40276 0.32701 0.0
H205 H 0.21898 0.44895 0.27994 0.0
H206 H 0.24611 0.45344 0.38698 0.0
Cu207 Cu 0.17857 0.35467 0.8618 0.0
N208 N 0.17718 0.3451 0.83667 0.0
N209 N 0.18472 0.34225 0.80552 0.0
C210 C 0.18915 0.35092 0.82281 0.0
C211 C 0.16928 0.33049 0.80871 0.0
C212 C 0.16465 0.3323 0.82791 0.0
O213 O 0.1988 0.35848 0.87498 0.0
C214 C 0.1624 0.36955 0.84924 0.0
O215 O 0.1511 0.35462 0.8477 0.0
H216 H 0.2007 0.36163 0.82525 0.0
H217 H 0.15289 0.325 0.83478 0.0
N218 N 0.16143 0.34198 0.87924 0.0
N219 N 0.14335 0.33583 0.90423 0.0
C220 C 0.15584 0.34754 0.89401 0.0
C221 C 0.15228 0.32617 0.88021 0.0
C222 C 0.14105 0.32234 0.89555 0.0
C223 C 0.20052 0.34636 0.87546 0.0
O224 O 0.18899 0.33314 0.86734 0.0
H225 H 0.16069 0.35999 0.89692 0.0
H226 H 0.1537 0.318 0.87055 0.0
O227 O 0.17658 0.37312 0.8557 0.0
H228 H 0.16178 0.32124 0.79798 0.0
H229 H 0.13208 0.31055 0.90014 0.0
Cu230 Cu 0.6799 0.87758 0.83385 0.0
N231 N 0.66238 0.85781 0.82692 0.0
N232 N 0.64916 0.83174 0.82165 0.0
C233 C 0.66299 0.84444 0.82841 0.0
C234 C 0.63942 0.83739 0.81555 0.0
C235 C 0.64762 0.85351 0.81885 0.0
O236 O 0.69286 0.87326 0.85372 0.0
C237 C 0.68242 0.89422 0.7988 0.0
O238 O 0.66798 0.89085 0.80537 0.0
H239 H 0.67371 0.84419 0.83369 0.0
H240 H 0.64322 0.8615 0.81524 0.0
N241 N 0.67339 0.89024 0.84745 0.0
N242 N 0.67661 0.91192 0.86287 0.0
C243 C 0.68406 0.90424 0.85579 0.0
C244 C 0.65858 0.88888 0.84952 0.0
C245 C 0.66057 0.90238 0.85891 0.0
C246 C 0.6859 0.86853 0.87092 0.0
O247 O 0.6716 0.86737 0.87358 0.0
H248 H 0.69714 0.90903 0.85579 0.0
H249 H 0.64725 0.87906 0.844 0.0
O250 O 0.69049 0.88912 0.80874 0.0
H251 H 0.62733 0.83044 0.80901 0.0
H252 H 0.65105 0.90509 0.86229 0.0
Cu253 Cu 0.19195 0.8796 0.8648 0.0
N254 N 0.1933 0.86712 0.84431 0.0
N255 N 0.18723 0.85334 0.8153 0.0
C256 C 0.18172 0.85894 0.8302 0.0
C257 C 0.20285 0.85804 0.82044 0.0
C258 C 0.20655 0.86654 0.83835 0.0
O259 O 0.16903 0.87066 0.87158 0.0
C260 C 0.20212 0.90442 0.83649 0.0
O261 O 0.19269 0.89307 0.82379 0.0
H262 H 0.16989 0.85814 0.83011 0.0
H263 H 0.2183 0.87254 0.84597 0.0
N264 N 0.20336 0.87926 0.88779 0.0
N265 N 0.21697 0.88675 0.91735 0.0
C266 C 0.21128 0.89113 0.90125 0.0
C267 C 0.20414 0.86695 0.89546 0.0
C268 C 0.21253 0.87153 0.91369 0.0
C269 C 0.16432 0.87158 0.88934 0.0
O270 O 0.1752 0.88055 0.90303 0.0
H271 H 0.21216 0.90252 0.89966 0.0
H272 H 0.19863 0.85537 0.8885 0.0
O273 O 0.20237 0.9012 0.85515 0.0
H274 H 0.21116 0.85591 0.81158 0.0
H275 H 0.21505 0.86416 0.92353 0.0
Cu276 Cu 0.39898 0.2502 0.70606 0.0
N277 N 0.40154 0.26933 0.69717 0.0
N278 N 0.39366 0.28586 0.68575 0.0
C279 C 0.38894 0.27181 0.69435 0.0
C280 C 0.40991 0.29259 0.6831 0.0
C281 C 0.4148 0.28239 0.69041 0.0
O282 O 0.39135 0.24793 0.73403 0.0
C283 C 0.38825 0.23728 0.66797 0.0
O284 O 0.40011 0.25149 0.66357 0.0
H285 H 0.3764 0.26306 0.69748 0.0
H286 H 0.42702 0.28416 0.69014 0.0
N287 N 0.41841 0.2497 0.70586 0.0
N288 N 0.43342 0.23815 0.71017 0.0
C289 C 0.42066 0.23939 0.71681 0.0
C290 C 0.43026 0.25531 0.69183 0.0
C291 C 0.43955 0.24818 0.69446 0.0
C292 C 0.4017 0.25848 0.74607 0.0
O293 O 0.41604 0.26876 0.73882 0.0
H294 H 0.41202 0.23172 0.72799 0.0
H295 H 0.43119 0.26289 0.67942 0.0
O296 O 0.38468 0.2338 0.68662 0.0
H297 H 0.41758 0.30386 0.67599 0.0
H298 H 0.44932 0.24946 0.68474 0.0
Cu299 Cu 0.86951 0.21109 0.67594 0.0
N300 N 0.88738 0.21403 0.66064 0.0
N301 N 0.90657 0.22509 0.63683 0.0
C302 C 0.89612 0.22677 0.64899 0.0
C303 C 0.90437 0.21068 0.64103 0.0
C304 C 0.89253 0.20388 0.65578 0.0
O305 O 0.87124 0.23191 0.67533 0.0
C306 C 0.84719 0.17971 0.66782 0.0
O307 O 0.85762 0.17832 0.67961 0.0
H308 H 0.89405 0.23667 0.64844 0.0
H309 H 0.88751 0.19211 0.66178 0.0
N310 N 0.87063 0.20545 0.70281 0.0
N311 N 0.8618 0.19519 0.73352 0.0
C312 C 0.85816 0.19985 0.71599 0.0
C313 C 0.88257 0.20421 0.71228 0.0
C314 C 0.87712 0.19782 0.73126 0.0
C315 C 0.87177 0.23975 0.6911 0.0
O316 O 0.86726 0.23252 0.70859 0.0
H317 H 0.84642 0.19871 0.71249 0.0
H318 H 0.89421 0.20728 0.70563 0.0
O319 O 0.84983 0.19351 0.66358 0.0
H320 H 0.91051 0.20525 0.63357 0.0
H321 H 0.88384 0.19521 0.74245 0.0
Cu322 Cu 0.86877 0.73814 0.68124 0.0
N323 N 0.86927 0.75279 0.66296 0.0
N324 N 0.86488 0.7612 0.63343 0.0
C325 C 0.86042 0.74875 0.64573 0.0
C326 C 0.87708 0.77363 0.64341 0.0
C327 C 0.87982 0.76837 0.66162 0.0
O328 O 0.84611 0.72178 0.685 0.0
C329 C 0.8982 0.7407 0.67159 0.0
O330 O 0.90313 0.75412 0.68123 0.0
H331 H 0.85159 0.73667 0.6418 0.0
H332 H 0.88936 0.77526 0.67256 0.0
N333 N 0.87688 0.74691 0.70681 0.0
N334 N 0.8867 0.74871 0.73817 0.0
C335 C 0.8809 0.73977 0.72123 0.0
C336 C 0.8801 0.76083 0.71489 0.0
C337 C 0.88629 0.76202 0.73426 0.0
C338 C 0.83722 0.7268 0.69271 0.0
O339 O 0.84386 0.74199 0.69639 0.0
H340 H 0.88001 0.72841 0.71905 0.0
H341 H 0.87813 0.7695 0.70727 0.0
O342 O 0.88294 0.731 0.66988 0.0
H343 H 0.88387 0.78555 0.63774 0.0
H344 H 0.89013 0.77187 0.74464 0.0
Cu345 Cu 0.83966 0.70204 0.16258 0.0
N346 N 0.83999 0.69195 0.13863 0.0
N347 N 0.85044 0.68781 0.11053 0.0
C348 C 0.8535 0.69657 0.12755 0.0
C349 C 0.83435 0.67711 0.11101 0.0
C350 C 0.82789 0.67976 0.12837 0.0
O351 O 0.85968 0.70692 0.17735 0.0
C352 C 0.83545 0.7242 0.13848 0.0
O353 O 0.83901 0.71804 0.12299 0.0
H354 H 0.86535 0.70632 0.13185 0.0
H355 H 0.81525 0.67347 0.13291 0.0
N356 N 0.8221 0.6891 0.17915 0.0
N357 N 0.80498 0.68298 0.20519 0.0
C358 C 0.81738 0.69464 0.19485 0.0
C359 C 0.81235 0.67333 0.17945 0.0
C360 C 0.80177 0.66951 0.19557 0.0
C361 C 0.86046 0.69484 0.18295 0.0
O362 O 0.84802 0.6808 0.17879 0.0
H363 H 0.82336 0.70701 0.19894 0.0
H364 H 0.81309 0.66517 0.16903 0.0
O365 O 0.83666 0.72002 0.15643 0.0
H366 H 0.82764 0.66835 0.09937 0.0
H367 H 0.79251 0.65774 0.19988 0.0
Cu368 Cu 0.3828 0.22099 0.19755 0.0
N369 N 0.38804 0.20789 0.18273 0.0
N370 N 0.38749 0.18605 0.17141 0.0
C371 C 0.38148 0.19221 0.18495 0.0
C372 C 0.39829 0.19846 0.16032 0.0
C373 C 0.3986 0.21189 0.16734 0.0
O374 O 0.372 0.20944 0.22228 0.0
C375 C 0.36441 0.22184 0.16308 0.0
O376 O 0.36274 0.20806 0.15839 0.0
H377 H 0.37247 0.18552 0.19632 0.0
H378 H 0.40581 0.22369 0.16146 0.0
N379 N 0.40196 0.23921 0.2052 0.0
N380 N 0.4183 0.2646 0.21315 0.0
C381 C 0.40454 0.25396 0.20342 0.0
C382 C 0.41459 0.24052 0.21625 0.0
C383 C 0.42468 0.25622 0.22129 0.0
C384 C 0.37421 0.21603 0.23966 0.0
O385 O 0.38164 0.23149 0.2408 0.0
H386 H 0.39588 0.25669 0.19641 0.0
H387 H 0.41585 0.23067 0.22123 0.0
O388 O 0.37101 0.22827 0.18003 0.0
H389 H 0.40523 0.1979 0.14767 0.0
H390 H 0.43549 0.261 0.23082 0.0
Cu391 Cu 0.83411 0.2332 0.18556 0.0
N392 N 0.82423 0.23426 0.16144 0.0
N393 N 0.81632 0.22791 0.12908 0.0
C394 C 0.8198 0.22328 0.14676 0.0
C395 C 0.81828 0.2423 0.13296 0.0
C396 C 0.82326 0.24625 0.15292 0.0
O397 O 0.81874 0.21394 0.19921 0.0
C398 C 0.86241 0.2414 0.16352 0.0
O399 O 0.85692 0.24905 0.15277 0.0
H400 H 0.82014 0.2125 0.14883 0.0
H401 H 0.82721 0.25756 0.16002 0.0
N402 N 0.83967 0.24994 0.2035 0.0
N403 N 0.84981 0.2641 0.23197 0.0
C404 C 0.84893 0.25241 0.22016 0.0
C405 C 0.83444 0.26042 0.20475 0.0
C406 C 0.84079 0.26926 0.22226 0.0
C407 C 0.80667 0.2138 0.20785 0.0
O408 O 0.80527 0.22647 0.20703 0.0
H409 H 0.85465 0.2455 0.22369 0.0
H410 H 0.82597 0.26109 0.19433 0.0
O411 O 0.85426 0.23341 0.17874 0.0
H412 H 0.8174 0.24995 0.12182 0.0
H413 H 0.83836 0.27829 0.22783 0.0
Zn414 Zn 0.03633 0.6967 0.22185 0.0
Zn415 Zn 0.02691 0.67725 0.25204 0.0
O416 O 0.03116 0.66561 0.22799 0.0
O417 O 0.03671 0.68147 0.20203 0.0
O418 O 0.02338 0.66253 0.27593 0.0
O419 O 0.05684 0.71293 0.23563 0.0
O420 O 0.04642 0.69847 0.26282 0.0
C421 C 0.03439 0.66856 0.20918 0.0
C422 C 0.00443 0.689 0.23681 0.0
O423 O 0.00593 0.67915 0.24804 0.0
O424 O 0.01593 0.69798 0.22516 0.0
C425 C 0.03525 0.66011 0.27918 0.0
O426 O 0.04795 0.66691 0.26719 0.0
C427 C 0.05735 0.71111 0.25455 0.0
Zn428 Zn 0.39745 0.40883 0.30351 0.0
Zn429 Zn 0.41238 0.43033 0.2754 0.0
O430 O 0.42144 0.44297 0.30229 0.0
O431 O 0.40722 0.42536 0.32548 0.0
O432 O 0.42634 0.44611 0.25386 0.0
O433 O 0.40797 0.39626 0.29553 0.0
O434 O 0.41737 0.41225 0.2695 0.0
C435 C 0.41761 0.43938 0.32084 0.0
C436 C 0.37518 0.41305 0.27781 0.0
O437 O 0.38825 0.42443 0.27055 0.0
O438 O 0.37597 0.40405 0.29096 0.0
C439 C 0.42203 0.45237 0.24006 0.0
O440 O 0.40675 0.44899 0.23895 0.0
C441 C 0.41552 0.4001 0.27889 0.0
Zn442 Zn 0.6403 0.04401 0.22076 0.0
Zn443 Zn 0.62716 0.04822 0.25413 0.0
O444 O 0.6138 0.05084 0.23102 0.0
O445 O 0.62565 0.04869 0.2035 0.0
O446 O 0.61503 0.04785 0.27947 0.0
O447 O 0.63426 0.02182 0.22795 0.0
O448 O 0.62619 0.02678 0.25684 0.0
C449 C 0.61507 0.05116 0.21174 0.0
C450 C 0.66308 0.07053 0.24594 0.0
O451 O 0.65056 0.06723 0.2566 0.0
O452 O 0.66183 0.06207 0.23067 0.0
C453 C 0.61843 0.05886 0.29222 0.0
O454 O 0.63125 0.07285 0.28933 0.0
C455 C 0.62889 0.01767 0.24572 0.0
Zn456 Zn 0.01836 0.40505 0.78197 0.0
Zn457 Zn 0.0313 0.42201 0.75016 0.0
O458 O 0.00942 0.40181 0.74014 0.0
O459 O 0.99879 0.38816 0.76786 0.0
O460 O 0.03938 0.43536 0.72445 0.0
O461 O 0.01676 0.42199 0.79667 0.0
O462 O 0.0296 0.43745 0.771 0.0
C463 C 0.99797 0.38974 0.74895 0.0
C464 C 0.05059 0.41003 0.77438 0.0
O465 O 0.04997 0.41768 0.75905 0.0
O466 O 0.03847 0.40338 0.7861 0.0
C467 C 0.02903 0.43681 0.71359 0.0
O468 O 0.01372 0.42968 0.71936 0.0
C469 C 0.02334 0.43546 0.78863 0.0
Zn470 Zn 0.6493 0.67722 0.71991 0.0
Zn471 Zn 0.63964 0.65862 0.75168 0.0
O472 O 0.64164 0.67971 0.76175 0.0
O473 O 0.65292 0.69599 0.7363 0.0
O474 O 0.63252 0.645 0.77716 0.0
O475 O 0.62762 0.66371 0.70644 0.0
O476 O 0.62028 0.64653 0.73123 0.0
C477 C 0.6476 0.69347 0.75425 0.0
C478 C 0.67096 0.66579 0.72823 0.0
O479 O 0.6617 0.65994 0.7436 0.0
O480 O 0.66775 0.67323 0.71507 0.0
C481 C 0.63729 0.65138 0.79462 0.0
O482 O 0.64721 0.66669 0.79588 0.0
C483 C 0.61725 0.65074 0.71417 0.0
Zn484 Zn 0.38355 0.06627 0.80828 0.0
Zn485 Zn 0.38931 0.05424 0.77496 0.0
O486 O 0.39674 0.07756 0.76792 0.0
O487 O 0.39164 0.08723 0.79528 0.0
O488 O 0.395 0.04622 0.74946 0.0
O489 O 0.39928 0.0624 0.82423 0.0
O490 O 0.40326 0.05152 0.79716 0.0
C491 C 0.39703 0.08908 0.77739 0.0
C492 C 0.35462 0.03922 0.7924 0.0
O493 O 0.36433 0.03948 0.77883 0.0
O494 O 0.35995 0.04949 0.80646 0.0
C495 C 0.40831 0.05541 0.74052 0.0
O496 O 0.41779 0.06959 0.7481 0.0
C497 C 0.4061 0.05558 0.81583 0.0
Zn498 Zn 0.7003 0.01511 0.55133 0.0
Zn499 Zn 0.69621 0.99728 0.58149 0.0
O500 O 0.69726 0.98467 0.55557 0.0
O501 O 0.69811 0.9996 0.53021 0.0
O502 O 0.69493 0.9831 0.60547 0.0
O503 O 0.72199 0.03258 0.56041 0.0
O504 O 0.71722 0.01913 0.5886 0.0
C505 C 0.69737 0.98708 0.53645 0.0
C506 C 0.6715 0.00844 0.57272 0.0
O507 O 0.67492 0.99928 0.58282 0.0
O508 O 0.68087 0.01679 0.55871 0.0
C509 C 0.69507 0.98708 0.62396 0.0
O510 O 0.6955 1.00046 0.62787 0.0
C511 C 0.72596 0.03172 0.5785 0.0
Zn512 Zn 0.06481 0.73935 0.62949 0.0
Zn513 Zn 0.078 0.75782 0.59914 0.0
O514 O 0.09207 0.77095 0.62422 0.0
O515 O 0.07861 0.75578 0.64987 0.0
O516 O 0.08999 0.77182 0.57501 0.0
O517 O 0.07036 0.72334 0.62021 0.0
O518 O 0.07866 0.73725 0.59227 0.0
C519 C 0.0902 0.7686 0.64331 0.0
C520 C 0.04167 0.74452 0.60818 0.0
O521 O 0.05423 0.75445 0.59833 0.0
O522 O 0.04304 0.73618 0.62178 0.0
C523 C 0.09548 0.78663 0.57492 0.0
O524 O 0.09277 0.79323 0.59068 0.0
C525 C 0.07559 0.72493 0.60228 0.0
Zn526 Zn 0.30403 0.36299 0.55812 0.0
Zn527 Zn 0.29836 0.37338 0.5919 0.0
O528 O 0.28271 0.37402 0.56995 0.0
O529 O 0.28524 0.36208 0.54309 0.0
O530 O 0.28949 0.37694 0.61815 0.0
O531 O 0.30279 0.34379 0.5703 0.0
O532 O 0.29845 0.35281 0.59873 0.0
C533 C 0.27856 0.3689 0.5518 0.0
C534 C 0.33099 0.39339 0.57278 0.0
O535 O 0.32199 0.3915 0.58808 0.0
O536 O 0.32578 0.38332 0.55844 0.0
C537 C 0.27439 0.36717 0.62077 0.0
O538 O 0.26636 0.35663 0.60649 0.0
C539 C 0.30054 0.3426 0.58924 0.0
Zn540 Zn 0.68107 0.75859 0.11941 0.0
Zn541 Zn 0.68994 0.77669 0.0882 0.0
O542 O 0.66859 0.75566 0.07893 0.0
O543 O 0.66145 0.74093 0.10625 0.0
O544 O 0.69477 0.79089 0.06313 0.0
O545 O 0.67836 0.7734 0.13733 0.0
O546 O 0.68769 0.79023 0.11214 0.0
C547 C 0.65883 0.74279 0.08793 0.0
C548 C 0.71316 0.76638 0.10646 0.0
O549 O 0.71037 0.77376 0.09244 0.0
O550 O 0.70245 0.75902 0.1198 0.0
C551 C 0.69775 0.78737 0.04561 0.0
O552 O 0.69845 0.77438 0.04345 0.0
C553 C 0.68271 0.78695 0.13048 0.0
Zn554 Zn 0.34291 0.00458 0.09583 0.0
Zn555 Zn 0.32724 0.98982 0.12778 0.0
O556 O 0.335 0.01359 0.13428 0.0
O557 O 0.35127 0.02573 0.10872 0.0
O558 O 0.31369 0.97814 0.15241 0.0
O559 O 0.32294 0.99532 0.07829 0.0
O560 O 0.31051 0.97939 0.10372 0.0
C561 C 0.34511 0.02636 0.12543 0.0
C562 C 0.35562 0.98613 0.11249 0.0
O563 O 0.34587 0.98427 0.12689 0.0
O564 O 0.35605 0.99373 0.09682 0.0
C565 C 0.3198 0.97761 0.16947 0.0
O566 O 0.33575 0.98494 0.17162 0.0
C567 C 0.31048 0.98342 0.08531 0.0
Zn568 Zn 0.03524 0.37508 0.1351 0.0
Zn569 Zn 0.0493 0.37007 0.10364 0.0
O570 O 0.04133 0.38475 0.09184 0.0
O571 O 0.02898 0.38814 0.11795 0.0
O572 O 0.06094 0.36664 0.07998 0.0
O573 O 0.05595 0.38549 0.15095 0.0
O574 O 0.06782 0.38054 0.12563 0.0
C575 C 0.03334 0.39078 0.09959 0.0
C576 C 0.02048 0.34243 0.12543 0.0
O577 O 0.03046 0.34754 0.11068 0.0
O578 O 0.02035 0.35189 0.13843 0.0
C579 C 0.05362 0.35587 0.06663 0.0
O580 O 0.03775 0.34652 0.06789 0.0
C581 C 0.0685 0.38608 0.14343 0.0
Zn582 Zn 0.37052 0.34919 0.92697 0.0
Zn583 Zn 0.36705 0.33537 0.96162 0.0
O584 O 0.37161 0.32202 0.94 0.0
O585 O 0.37875 0.33666 0.91256 0.0
O586 O 0.36547 0.32397 0.98852 0.0
O587 O 0.3862 0.37041 0.93844 0.0
O588 O 0.3858 0.35881 0.96712 0.0
C589 C 0.37672 0.32451 0.92171 0.0
C590 C 0.33825 0.33675 0.94199 0.0
O591 O 0.34443 0.3341 0.95774 0.0
O592 O 0.34664 0.34215 0.9261 0.0
C593 C 0.35764 0.30895 0.98952 0.0
O594 O 0.35007 0.30079 0.97315 0.0
C595 C 0.39132 0.37132 0.95644 0.0
Zn596 Zn 0.74442 0.08548 0.97023 0.0
Zn597 Zn 0.7444 0.09863 0.93503 0.0
O598 O 0.76066 0.11679 0.95383 0.0
O599 O 0.76238 0.10573 0.98199 0.0
O600 O 0.75029 0.10853 0.90714 0.0
O601 O 0.74894 0.06914 0.95844 0.0
O602 O 0.74618 0.07877 0.92963 0.0
C603 C 0.76671 0.11796 0.97151 0.0
C604 C 0.71336 0.08432 0.95813 0.0
O605 O 0.72074 0.09189 0.94223 0.0
O606 O 0.72082 0.0807 0.97121 0.0
C607 C 0.75521 0.12289 0.90298 0.0
O608 O 0.75473 0.13219 0.91705 0.0
C609 C 0.748 0.06851 0.93929 0.0
Zn610 Zn 0.99827 0.70213 0.89157 0.0
Zn611 Zn 0.98249 0.70366 0.92424 0.0
O612 O 0.96915 0.70507 0.90043 0.0
O613 O 0.98262 0.70489 0.87343 0.0
O614 O 0.96886 0.70241 0.94837 0.0
O615 O 0.99387 0.68044 0.89881 0.0
O616 O 0.98313 0.68289 0.92713 0.0
C617 C 0.97092 0.7058 0.88124 0.0
C618 C 0.0178 0.72928 0.91756 0.0
O619 O 0.00462 0.72424 0.92754 0.0
O620 O 0.01839 0.72154 0.90246 0.0
C621 C 0.96783 0.7139 0.95572 0.0
O622 O 0.97664 0.728 0.94791 0.0
C623 C 0.98747 0.67505 0.91585 0.0
Zn624 Zn 0.36898 0.10562 0.4935 0.0
Zn625 Zn 0.3738 0.12355 0.46265 0.0
O626 O 0.3535 0.10179 0.45453 0.0
O627 O 0.35204 0.08619 0.47929 0.0
O628 O 0.37606 0.13721 0.4378 0.0
O629 O 0.36241 0.1178 0.51148 0.0
O630 O 0.37011 0.13538 0.4872 0.0
C631 C 0.34692 0.08808 0.46237 0.0
C632 C 0.4012 0.11793 0.47898 0.0
O633 O 0.39582 0.123 0.46471 0.0
O634 O 0.39223 0.1108 0.4939 0.0
C635 C 0.37374 0.13146 0.41988 0.0
O636 O 0.3707 0.11691 0.41751 0.0
C637 C 0.36503 0.13106 0.50531 0.0
Zn638 Zn 0.99147 0.3656 0.40104 0.0
Zn639 Zn 0.98283 0.34631 0.43181 0.0
O640 O 0.98308 0.36633 0.44367 0.0
O641 O 0.99153 0.38257 0.41778 0.0
O642 O 0.97591 0.33099 0.45549 0.0
O643 O 0.97108 0.35132 0.38588 0.0
O644 O 0.96401 0.33416 0.41067 0.0
C645 C 0.98677 0.37964 0.43595 0.0
C646 C 0.01502 0.35639 0.40865 0.0
O647 O 0.00543 0.3491 0.4233 0.0
O648 O 0.01164 0.36437 0.39657 0.0
C649 C 0.97813 0.33537 0.47401 0.0
O650 O 0.98545 0.3505 0.47836 0.0
C651 C 0.96107 0.33813 0.3934 0.0
Zn652 Zn 0.73246 0.72049 0.46828 0.0
Zn653 Zn 0.74083 0.71347 0.43435 0.0
O654 O 0.73181 0.72809 0.42591 0.0
O655 O 0.72035 0.72966 0.4541 0.0
O656 O 0.74698 0.70755 0.40772 0.0
O657 O 0.75582 0.73453 0.47631 0.0
O658 O 0.76266 0.7247 0.45061 0.0
C659 C 0.72323 0.73269 0.43544 0.0
C660 C 0.71763 0.68759 0.46345 0.0
O661 O 0.7235 0.69175 0.4457 0.0
O662 O 0.72078 0.69791 0.47702 0.0
C663 C 0.75379 0.71756 0.39366 0.0
O664 O 0.75707 0.73214 0.39663 0.0
C665 C 0.7666 0.7333 0.46656 0.0
C666 C 0.01384 0.49503 0.03528 0.0
C667 C 0.01276 0.49716 0.01438 0.0
C668 C 0.01325 0.48136 0.04244 0.0
C669 C 0.02472 0.45264 0.02878 0.0
H670 H 0.99772 0.4288 0.07396 0.0
C671 C 0.03076 0.40217 0.06642 0.0
C672 C 0.02937 0.40124 0.08766 0.0
C673 C 0.02684 0.41213 0.05555 0.0
C674 C 0.00549 0.43541 0.06147 0.0
H675 H 0.01002 0.48659 0.98459 0.0
H676 H 0.00943 0.46278 0.99718 0.0
H677 H 0.99399 0.44944 0.05875 0.0
H678 H 0.02304 0.41027 0.11412 0.0
H679 H 0.01685 0.42786 0.09548 0.0
H680 H 0.03689 0.43932 0.03216 0.0
C681 C 0.0105 0.47164 0.00795 0.0
C682 C 0.00323 0.44714 0.05269 0.0
C683 C 0.01071 0.48518 1.0008 0.0
C684 C 0.02409 0.41054 0.09775 0.0
C685 C 0.02038 0.42057 0.08698 0.0
C686 C 0.02718 0.44107 0.0378 0.0
C687 C 0.01193 0.4697 0.02883 0.0
C688 C 0.01301 0.45605 0.03651 0.0
C689 C 0.02158 0.42147 0.06573 0.0
C690 C 0.01783 0.43253 0.05457 0.0
H691 H 0.01546 0.50409 0.04607 0.0
H692 H 0.0145 0.48019 0.0586 0.0
H693 H 0.0325 0.45945 0.0164 0.0
H694 H 0.03474 0.39511 0.0582 0.0
H695 H 0.02779 0.41241 0.03918 0.0
C696 C 0.54879 0.61278 0.05412 0.0
C697 C 0.5491 0.60429 0.03704 0.0
C698 C 0.55879 0.62918 0.05525 0.0
C699 C 0.59773 0.66111 0.03537 0.0
H700 H 0.58544 0.68755 0.0656 0.0
C701 C 0.64457 0.72643 0.0567 0.0
C702 C 0.64449 0.72964 0.0775 0.0
C703 C 0.63174 0.71256 0.04801 0.0
C704 C 0.58907 0.68035 0.05706 0.0
H705 H 0.55968 0.60662 0.00725 0.0
H706 H 0.57701 0.63528 0.00913 0.0
H707 H 0.5648 0.66051 0.057 0.0
H708 H 0.63052 0.72132 0.10517 0.0
H709 H 0.60827 0.69756 0.09012 0.0
H710 H 0.62212 0.68089 0.03595 0.0
C711 C 0.56916 0.62919 0.0218 0.0
C712 C 0.57723 0.66481 0.05218 0.0
C713 C 0.55909 0.61275 0.02064 0.0
C714 C 0.63099 0.71918 0.08912 0.0
C715 C 0.61814 0.70556 0.08043 0.0
C716 C 0.60957 0.6767 0.0402 0.0
C717 C 0.56943 0.6376 0.03933 0.0
C718 C 0.58148 0.65481 0.04181 0.0
C719 C 0.61846 0.70187 0.05989 0.0
C720 C 0.60548 0.68635 0.05165 0.0
H721 H 0.54128 0.6067 0.06705 0.0
H722 H 0.55874 0.63515 0.06909 0.0
H723 H 0.60153 0.65376 0.02753 0.0
H724 H 0.65485 0.73423 0.04739 0.0
H725 H 0.63231 0.71008 0.0321 0.0
C726 C 0.45712 0.97194 0.04011 0.0
C727 C 0.4734 0.98291 0.04522 0.0
C728 C 0.44467 0.96788 0.05416 0.0
C729 C 0.43602 0.986 0.0976 0.0
H730 H 0.39407 0.94749 0.09437 0.0
C731 C 0.37809 0.9835 0.12893 0.0
C732 C 0.36652 0.97945 0.11327 0.0
C733 C 0.39086 0.98023 0.12686 0.0
C734 C 0.40576 0.95825 0.09566 0.0
H735 H 0.48951 0.99707 0.0698 0.0
H736 H 0.46778 0.98972 0.09446 0.0
H737 H 0.41799 0.9483 0.07935 0.0
H738 H 0.3584 0.96793 0.08401 0.0
H739 H 0.38023 0.96182 0.08063 0.0
H740 H 0.42362 0.99612 0.11318 0.0
C741 C 0.4646 0.98455 0.0794 0.0
C742 C 0.41946 0.95876 0.08696 0.0
C743 C 0.47709 0.98866 0.06529 0.0
C744 C 0.36715 0.97108 0.09632 0.0
C745 C 0.37963 0.96753 0.09445 0.0
C746 C 0.42234 0.98545 0.10645 0.0
C747 C 0.44816 0.97461 0.07375 0.0
C748 C 0.43461 0.97286 0.08699 0.0
C749 C 0.39199 0.97258 0.1093 0.0
C750 C 0.40693 0.97179 0.10477 0.0
H751 H 0.45383 0.96721 0.02483 0.0
H752 H 0.43219 0.96029 0.04911 0.0
H753 H 0.44739 0.99712 0.09781 0.0
H754 H 0.37792 0.99015 0.14202 0.0
H755 H 0.40023 0.98426 0.13854 0.0
C756 C 0.49024 0.06551 0.48449 0.0
C757 C 0.49782 0.06592 0.50307 0.0
C758 C 0.48426 0.07574 0.48084 0.0
C759 C 0.46729 0.09639 0.50876 0.0
H760 H 0.46607 0.11302 0.45587 0.0
C761 C 0.42704 0.12388 0.49625 0.0
C762 C 0.41751 0.11938 0.47844 0.0
C763 C 0.44034 0.12149 0.49821 0.0
C764 C 0.46621 0.1084 0.47072 0.0
H765 H 0.50579 0.07793 0.53208 0.0
H766 H 0.4952 0.09589 0.52578 0.0
H767 H 0.48349 0.10154 0.46151 0.0
H768 H 0.41484 0.10952 0.44831 0.0
H769 H 0.43788 0.10488 0.4518 0.0
H770 H 0.44953 0.10247 0.51783 0.0
C771 C 0.49388 0.08757 0.51402 0.0
C772 C 0.47626 0.10187 0.47398 0.0
C773 C 0.50008 0.07739 0.51758 0.0
C774 C 0.42216 0.11333 0.46208 0.0
C775 C 0.43536 0.11064 0.46416 0.0
C776 C 0.45719 0.10281 0.50549 0.0
C777 C 0.48553 0.08658 0.49578 0.0
C778 C 0.47672 0.09553 0.49296 0.0
C779 C 0.44423 0.11412 0.48259 0.0
C780 C 0.45628 0.10871 0.48633 0.0
H781 H 0.48836 0.05682 0.47296 0.0
H782 H 0.47779 0.0745 0.46672 0.0
H783 H 0.46707 0.09137 0.52345 0.0
H784 H 0.42369 0.12858 0.5091 0.0
H785 H 0.44714 0.12479 0.51238 0.0
C786 C 1.00061 0.49983 0.50635 0.0
C787 C 1.00007 0.50746 0.48854 0.0
C788 C 0.99414 0.48348 0.50651 0.0
C789 C 0.9696 0.44662 0.47595 0.0
H790 H 1.00192 0.43616 0.49485 0.0
C791 C 0.98166 0.40215 0.43611 0.0
C792 C 0.98441 0.39146 0.44719 0.0
C793 C 0.97966 0.41365 0.44596 0.0
C794 C 0.99256 0.43874 0.48995 0.0
H795 H 0.99095 0.50369 0.45758 0.0
H796 H 0.97976 0.47534 0.4578 0.0
H797 H 0.00476 0.46161 0.50389 0.0
H798 H 0.987 0.3843 0.4774 0.0
H799 H 0.98405 0.40506 0.49484 0.0
H800 H 0.95807 0.42416 0.46085 0.0
C801 C 0.98514 0.4819 0.4717 0.0
C802 C 0.99416 0.45333 0.49512 0.0
C803 C 0.99165 0.49822 0.47151 0.0
C804 C 0.98492 0.39241 0.4685 0.0
C805 C 0.98323 0.40424 0.47844 0.0
C806 C 0.96807 0.4321 0.4707 0.0
C807 C 0.9869 0.4744 0.48892 0.0
C808 C 0.98308 0.45771 0.48743 0.0
C809 C 0.98057 0.41495 0.46719 0.0
C810 C 0.97992 0.42831 0.47692 0.0
H811 H 0.00694 0.50657 0.5198 0.0
H812 H 0.99547 0.47804 0.52012 0.0
H813 H 0.96067 0.44947 0.47014 0.0
H814 H 0.98104 0.40167 0.41968 0.0
H815 H 0.9779 0.42188 0.43686 0.0
C816 C 0.58461 0.57934 0.50334 0.0
C817 C 0.57769 0.58888 0.50701 0.0
C818 C 0.60155 0.58618 0.50122 0.0
C819 C 0.64043 0.62269 0.51221 0.0
H820 H 0.65575 0.61468 0.46156 0.0
C821 C 0.69377 0.66147 0.45378 0.0
C822 C 0.70577 0.67102 0.46806 0.0
C823 C 0.68012 0.64737 0.45985 0.0
C824 C 0.6517 0.61698 0.47584 0.0
H825 H 0.58285 0.61275 0.51239 0.0
H826 H 0.61226 0.62467 0.509 0.0
H827 H 0.62726 0.59779 0.47137 0.0
H828 H 0.7141 0.67256 0.4991 0.0
H829 H 0.69077 0.64765 0.50947 0.0
H830 H 0.66425 0.64248 0.51618 0.0
C831 C 0.60476 0.61197 0.50766 0.0
C832 C 0.63544 0.6072 0.48155 0.0
C833 C 0.58793 0.60519 0.50943 0.0
C834 C 0.70484 0.66548 0.48789 0.0
C835 C 0.69142 0.65127 0.49384 0.0
C836 C 0.6566 0.63245 0.50653 0.0
C837 C 0.61175 0.6026 0.50321 0.0
C838 C 0.62952 0.6104 0.4994 0.0
C839 C 0.67842 0.64251 0.48023 0.0
C840 C 0.66231 0.6301 0.48791 0.0
H841 H 0.57687 0.56673 0.5013 0.0
H842 H 0.60666 0.57871 0.49779 0.0
H843 H 0.63622 0.62532 0.52616 0.0
H844 H 0.69421 0.66552 0.4384 0.0
H845 H 0.67036 0.64101 0.44893 0.0
C846 C 0.99883 0.55904 0.95571 0.0
C847 C 0.00315 0.55886 0.97611 0.0
C848 C 0.99379 0.56952 0.94928 0.0
C849 C 0.97957 0.5967 0.96603 0.0
H850 H 0.004 0.62107 0.9196 0.0
C851 C 0.98409 0.65602 0.94343 0.0
C852 C 0.98562 0.65987 0.92273 0.0
C853 C 0.98389 0.64231 0.94988 0.0
C854 C 0.99679 0.61422 0.93232 0.0
H855 H 0.00441 0.56879 1.00603 0.0
H856 H 0.99555 0.58705 0.99476 0.0
H857 H 0.00695 0.59907 0.93083 0.0
H858 H 0.98712 0.65191 0.89249 0.0
H859 H 0.98619 0.62786 0.90359 0.0
H860 H 0.96942 0.61194 0.96751 0.0
C861 C 0.9961 0.57909 0.98375 0.0
C862 C 0.99853 0.60159 0.93879 0.0
C863 C 1.00124 0.56865 0.99018 0.0
C864 C 0.98618 0.6494 0.90858 0.0
C865 C 0.98575 0.63563 0.91497 0.0
C866 C 0.9777 0.60929 0.95942 0.0
C867 C 0.99285 0.57998 0.96312 0.0
C868 C 0.99002 0.59273 0.95576 0.0
C869 C 0.98503 0.63209 0.93574 0.0
C870 C 0.98636 0.61827 0.94252 0.0
H871 H 1.00004 0.55159 0.94448 0.0
H872 H 0.9911 0.56977 0.93333 0.0
H873 H 0.97281 0.59003 0.97912 0.0
H874 H 0.98366 0.66388 0.9547 0.0
H875 H 0.98346 0.64006 0.966 0.0
C876 C 0.49982 0.49812 0.02517 0.0
C877 C 0.50279 0.51143 0.01386 0.0
C878 C 0.48682 0.48321 0.02027 0.0
C879 C 0.44818 0.46184 0.99037 0.0
H880 H 0.45686 0.42721 0.99488 0.0
C881 C 0.4068 0.40072 0.95367 0.0
C882 C 0.40339 0.38713 0.9647 0.0
C883 C 0.41811 0.41574 0.96087 0.0
C884 C 0.45415 0.43669 0.9938 0.0
H885 H 0.49408 0.51958 0.98888 0.0
H886 H 0.47141 0.49329 0.97986 0.0
H887 H 0.47794 0.45376 1.00445 0.0
H888 H 0.40925 0.37882 0.99215 0.0
H889 H 0.42928 0.40524 1.00472 0.0
H890 H 0.42447 0.44469 0.97918 0.0
C891 C 0.47907 0.49447 0.99278 0.0
C892 C 0.46624 0.45197 0.9993 0.0
C893 C 0.49207 0.50955 0.99788 0.0
C894 C 0.41159 0.38901 0.98326 0.0
C895 C 0.4231 0.40413 0.99041 0.0
C896 C 0.43611 0.44655 0.98472 0.0
C897 C 0.47648 0.48105 1.00371 0.0
C898 C 0.46345 0.46478 0.9977 0.0
C899 C 0.42647 0.41768 0.97927 0.0
C900 C 0.43896 0.43379 0.98632 0.0
H901 H 0.50768 0.49918 0.03782 0.0
H902 H 0.48498 0.47332 0.02947 0.0
H903 H 0.44546 0.47131 0.98918 0.0
H904 H 0.40072 0.3998 0.93934 0.0
H905 H 0.42055 0.42586 0.95176 0.0
C906 C 0.56933 0.04685 0.97777 0.0
C907 C 0.56127 0.03648 0.99382 0.0
C908 C 0.58557 0.0517 0.97349 0.0
C909 C 0.61801 0.04168 0.98207 0.0
H910 H 0.64654 0.08524 0.9667 0.0
C911 C 0.68777 0.06946 0.97813 0.0
C912 C 0.69591 0.07917 0.96151 0.0
C913 C 0.6713 0.06415 0.98144 0.0
C914 C 0.63868 0.073 0.97073 0.0
H915 H 0.56395 0.02292 0.0179 0.0
H916 H 0.59255 0.03161 0.01065 0.0
H917 H 0.61801 0.07609 0.97433 0.0
H918 H 0.69302 0.09099 0.93541 0.0
H919 H 0.66406 0.08172 0.94132 0.0
H920 H 0.6388 0.0387 0.97874 0.0
C921 C 0.58617 0.03583 1.00118 0.0
C922 C 0.62232 0.06773 0.97511 0.0
C923 C 0.56981 0.03089 1.0054 0.0
C924 C 0.68713 0.08354 0.94835 0.0
C925 C 0.67058 0.07828 0.95177 0.0
C926 C 0.6344 0.04698 0.97778 0.0
C927 C 0.59428 0.04639 0.98523 0.0
C928 C 0.61176 0.052 0.98083 0.0
C929 C 0.66248 0.06844 0.96831 0.0
C930 C 0.64493 0.06271 0.97211 0.0
H931 H 0.56309 0.05128 0.9684 0.0
H932 H 0.59127 0.05955 0.96084 0.0
H933 H 0.61019 0.02943 0.98608 0.0
H934 H 0.6941 0.06585 0.98863 0.0
H935 H 0.66549 0.05681 0.99449 0.0
C936 C 0.56084 0.0365 0.55324 0.0
C937 C 0.54486 0.02369 0.55465 0.0
C938 C 0.57423 0.03487 0.5591 0.0
C939 C 0.58546 0.00381 0.56629 0.0
H940 H 0.6249 0.03795 0.59026 0.0
C941 C 0.64219 0.99736 0.58394 0.0
C942 C 0.65692 0.00995 0.57683 0.0
C943 C 0.6281 0.99875 0.58489 0.0
C944 C 0.61398 0.02828 0.58354 0.0
H945 H 0.5304 0.99939 0.56438 0.0
H946 H 0.5535 0.9967 0.5749 0.0
H947 H 0.60131 0.0413 0.5846 0.0
H948 H 0.6686 0.03412 0.5663 0.0
H949 H 0.64439 0.03652 0.56805 0.0
H950 H 0.59824 0.99092 0.56488 0.0
C951 C 0.55584 0.00788 0.56878 0.0
C952 C 0.60046 0.03024 0.58021 0.0
C953 C 0.54255 0.00947 0.56284 0.0
C954 C 0.65743 0.02413 0.57172 0.0
C955 C 0.64353 0.02557 0.57289 0.0
C956 C 0.59897 1.00185 0.56965 0.0
C957 C 0.5719 0.02041 0.56659 0.0
C958 C 0.58608 0.01811 0.57126 0.0
C959 C 0.62857 0.01284 0.57907 0.0
C960 C 0.61352 0.01415 0.57799 0.0
H961 H 0.56306 0.04758 0.54691 0.0
H962 H 0.58641 0.04477 0.55705 0.0
H963 H 0.57472 0.99426 0.5591 0.0
H964 H 0.6414 0.98628 0.58793 0.0
H965 H 0.61678 0.98874 0.58988 0.0
C966 C 0.06867 0.61239 0.5098 0.0
C967 C 0.05754 0.59796 0.51874 0.0
C968 C 0.07152 0.62664 0.51828 0.0
C969 C 0.07147 0.64489 0.56604 0.0
H970 H 0.06771 0.67601 0.53385 0.0
C971 C 0.07034 0.69733 0.60308 0.0
C972 C 0.07655 0.7117 0.59272 0.0
C973 C 0.06955 0.68418 0.59375 0.0
C974 C 0.06916 0.66762 0.54299 0.0
H975 H 0.04063 0.5871 0.54349 0.0
H976 H 0.04597 0.61217 0.55869 0.0
H977 H 0.0628 0.65141 0.51801 0.0
H978 H 0.08739 0.72365 0.56459 0.0
H979 H 0.08657 0.70073 0.54843 0.0
H980 H 0.07827 0.66108 0.59088 0.0
C981 C 0.05235 0.61235 0.54501 0.0
C982 C 0.0662 0.65348 0.53393 0.0
C983 C 0.04925 0.59805 0.53629 0.0
C984 C 0.0825 0.71274 0.57296 0.0
C985 C 0.08189 0.69955 0.56366 0.0
C986 C 0.07472 0.65912 0.57502 0.0
C987 C 0.06352 0.62676 0.53608 0.0
C988 C 0.06707 0.6419 0.54547 0.0
C989 C 0.07518 0.68503 0.57386 0.0
C990 C 0.07331 0.67057 0.56373 0.0
H991 H 0.07518 0.61268 0.4962 0.0
H992 H 0.08023 0.63759 0.51117 0.0
H993 H 0.07251 0.63624 0.57515 0.0
H994 H 0.06554 0.69601 0.61827 0.0
H995 H 0.06399 0.6732 0.602 0.0
C996 C 0.47774 0.49059 0.56479 0.0
C997 C 0.48252 0.49422 0.54445 0.0
C998 C 0.46161 0.4794 0.56952 0.0
C999 C 0.42064 0.46267 0.54676 0.0
H1000 H 0.40668 0.43253 0.59064 0.0
C1001 C 0.35534 0.41119 0.55244 0.0
C1002 C 0.34783 0.40689 0.57149 0.0
C1003 C 0.3717 0.42274 0.55083 0.0
C1004 C 0.41042 0.44108 0.57855 0.0
H1005 H 0.47466 0.48813 0.51322 0.0
H1006 H 0.44665 0.46834 0.52136 0.0
H1007 H 0.43587 0.44971 0.5843 0.0
H1008 H 0.35152 0.41159 0.60382 0.0
H1009 H 0.38043 0.43195 0.60098 0.0
H1010 H 0.39531 0.45399 0.5408 0.0
C1011 C 0.45518 0.47443 0.53369 0.0
C1012 C 0.42712 0.45085 0.57486 0.0
C1013 C 0.47122 0.48562 0.529 0.0
C1014 C 0.35697 0.41473 0.58893 0.0
C1015 C 0.37352 0.42626 0.58732 0.0
C1016 C 0.40403 0.45294 0.55043 0.0
C1017 C 0.45001 0.47163 0.55397 0.0
C1018 C 0.43239 0.46154 0.55865 0.0
C1019 C 0.38105 0.43027 0.56823 0.0
C1020 C 0.39871 0.44183 0.5661 0.0
H1021 H 0.48612 0.49717 0.57703 0.0
H1022 H 0.45802 0.47753 0.58529 0.0
H1023 H 0.42427 0.4711 0.53454 0.0
H1024 H 0.34863 0.40541 0.53869 0.0
H1025 H 0.37716 0.42542 0.53592 0.0
C1026 C 0.70418 0.84387 0.40406 0.0
C1027 C 0.6972 0.84498 0.38574 0.0
C1028 C 0.70611 0.83088 0.40786 0.0
C1029 C 0.70028 0.79845 0.41751 0.0
H1030 H 0.71249 0.77928 0.37456 0.0
C1031 C 0.7041 0.74313 0.43335 0.0
C1032 C 0.71761 0.74264 0.42555 0.0
C1033 C 0.70011 0.7542 0.42635 0.0
C1034 C 0.70917 0.78455 0.38675 0.0
H1035 H 0.68655 0.83324 0.35713 0.0
H1036 H 0.68957 0.81035 0.3639 0.0
H1037 H 0.70929 0.80197 0.36712 0.0
H1038 H 0.73708 0.75282 0.40358 0.0
H1039 H 0.73048 0.7726 0.39173 0.0
H1040 H 0.70088 0.78162 0.43737 0.0
C1041 C 0.69393 0.81969 0.37516 0.0
C1042 C 0.70714 0.79745 0.38244 0.0
C1043 C 0.69214 0.83278 0.37129 0.0
C1044 C 0.72656 0.75291 0.40981 0.0
C1045 C 0.72273 0.76422 0.403 0.0
C1046 C 0.70243 0.78569 0.42185 0.0
C1047 C 0.70093 0.81857 0.39351 0.0
C1048 C 0.70275 0.80462 0.39781 0.0
C1049 C 0.70974 0.76529 0.41164 0.0
C1050 C 0.70692 0.77855 0.40656 0.0
H1051 H 0.70846 0.85321 0.41532 0.0
H1052 H 0.71188 0.83061 0.42197 0.0
H1053 H 0.69665 0.80348 0.42968 0.0
H1054 H 0.69683 0.73519 0.4453 0.0
H1055 H 0.68971 0.75434 0.4329 0.0
C1056 C 0.23673 0.96062 0.40372 0.0
C1057 C 0.22413 0.95999 0.39164 0.0
C1058 C 0.24963 0.97509 0.41042 0.0
C1059 C 0.27276 0.01733 0.39968 0.0
H1060 H 0.28459 0.02105 0.45666 0.0
C1061 C 0.3237 0.0758 0.43693 0.0
C1062 C 0.33322 0.07419 0.45217 0.0
C1063 C 0.31008 0.06241 0.42864 0.0
C1064 C 0.28164 0.02019 0.44064 0.0
H1065 H 0.2154 0.97406 0.37671 0.0
H1066 H 0.23816 0.99949 0.3883 0.0
H1067 H 0.2616 0.99669 0.44383 0.0
H1068 H 0.33641 0.05726 0.46984 0.0
H1069 H 0.31325 0.03418 0.45508 0.0
H1070 H 0.29312 0.04073 0.39639 0.0
C1071 C 0.23794 0.98872 0.39263 0.0
C1072 C 0.26839 0.00622 0.43333 0.0
C1073 C 0.22487 0.9742 0.38614 0.0
C1074 C 0.3292 0.05897 0.45837 0.0
C1075 C 0.3158 0.04568 0.44999 0.0
C1076 C 0.28619 0.03131 0.40697 0.0
C1077 C 0.25036 0.98929 0.40502 0.0
C1078 C 0.26392 0.00455 0.41274 0.0
C1079 C 0.30582 0.04718 0.43533 0.0
C1080 C 0.29096 0.03282 0.42751 0.0
H1081 H 0.23644 0.9499 0.40835 0.0
H1082 H 0.25911 0.97517 0.41982 0.0
H1083 H 0.26959 0.01633 0.3837 0.0
H1084 H 0.3265 0.08738 0.43183 0.0
H1085 H 0.30266 0.06404 0.41742 0.0
C1086 C 0.14941 0.37841 0.35971 0.0
C1087 C 0.15959 0.39435 0.36503 0.0
C1088 C 0.13333 0.37005 0.36686 0.0
C1089 C 0.09735 0.36066 0.37152 0.0
H1090 H 0.0863 0.36972 0.42459 0.0
C1091 C 0.03802 0.36052 0.3864 0.0
C1092 C 0.03015 0.35573 0.40521 0.0
C1093 C 0.05278 0.36102 0.38302 0.0
C1094 C 0.08911 0.36677 0.40986 0.0
H1095 H 0.16108 0.41382 0.38266 0.0
H1096 H 0.13332 0.39942 0.39486 0.0
H1097 H 0.11468 0.37825 0.41676 0.0
H1098 H 0.03145 0.34723 0.43508 0.0
H1099 H 0.0576 0.34828 0.42921 0.0
H1100 H 0.07184 0.34955 0.36445 0.0
C1101 C 0.13765 0.39324 0.38536 0.0
C1102 C 0.10541 0.37182 0.40529 0.0
C1103 C 0.15357 0.40157 0.37814 0.0
C1104 C 0.03723 0.351 0.42044 0.0
C1105 C 0.0522 0.35165 0.41709 0.0
C1106 C 0.08106 0.35562 0.3761 0.0
C1107 C 0.12724 0.37744 0.37964 0.0
C1108 C 0.10979 0.36936 0.3858 0.0
C1109 C 0.06021 0.35681 0.39837 0.0
C1110 C 0.07683 0.35916 0.39505 0.0
H1111 H 0.15371 0.37251 0.34968 0.0
H1112 H 0.12563 0.35786 0.36224 0.0
H1113 H 0.10027 0.35858 0.35637 0.0
H1114 H 0.03289 0.36415 0.37425 0.0
H1115 H 0.0587 0.36531 0.36855 0.0
C1116 C 0.14446 0.38091 0.85329 0.0
C1117 C 0.15793 0.38145 0.84376 0.0
C1118 C 0.13716 0.38906 0.84527 0.0
C1119 C 0.12918 0.40112 0.79643 0.0
H1120 H 0.10855 0.41857 0.83015 0.0
C1121 C 0.07959 0.41624 0.76753 0.0
C1122 C 0.06563 0.40955 0.77983 0.0
C1123 C 0.09383 0.41624 0.77385 0.0
C1124 C 0.11431 0.41382 0.82048 0.0
H1125 H 0.17462 0.3911 0.81864 0.0
H1126 H 0.16171 0.40543 0.80433 0.0
H1127 H 0.12923 0.41358 0.84483 0.0
H1128 H 0.05576 0.39746 0.80831 0.0
H1129 H 0.08027 0.3976 0.81912 0.0
H1130 H 0.11362 0.40076 0.77228 0.0
C1131 C 0.15694 0.39884 0.81819 0.0
C1132 C 0.12616 0.41097 0.82889 0.0
C1133 C 0.16445 0.39083 0.82649 0.0
C1134 C 0.06621 0.40278 0.79838 0.0
C1135 C 0.08036 0.40296 0.80473 0.0
C1136 C 0.11729 0.40401 0.78797 0.0
C1137 C 0.14296 0.39771 0.82725 0.0
C1138 C 0.13325 0.40399 0.8172 0.0
C1139 C 0.0944 0.40981 0.79271 0.0
C1140 C 0.10926 0.40979 0.80015 0.0
H1141 H 0.13905 0.37348 0.86639 0.0
H1142 H 0.12629 0.38772 0.85249 0.0
H1143 H 0.13434 0.39564 0.78703 0.0
H1144 H 0.07957 0.42155 0.75316 0.0
H1145 H 0.10448 0.42153 0.76423 0.0
C1146 C 0.65487 0.81079 0.83232 0.0
C1147 C 0.64632 0.81586 0.8198 0.0
C1148 C 0.65368 0.79616 0.82907 0.0
C1149 C 0.65929 0.77202 0.80716 0.0
H1150 H 0.61941 0.73363 0.79248 0.0
C1151 C 0.65827 0.72218 0.76007 0.0
C1152 C 0.64784 0.7065 0.76596 0.0
C1153 C 0.65782 0.73458 0.76991 0.0
C1154 C 0.6306 0.74421 0.79681 0.0
H1155 H 0.62913 0.80907 0.7947 0.0
H1156 H 0.62697 0.78344 0.78912 0.0
H1157 H 0.6181 0.75679 0.80404 0.0
H1158 H 0.62893 0.69155 0.78703 0.0
H1159 H 0.62794 0.71338 0.8041 0.0
H1160 H 0.67184 0.75965 0.79938 0.0
C1161 C 0.63458 0.79083 0.80149 0.0
C1162 C 0.62987 0.75749 0.80324 0.0
C1163 C 0.63582 0.80554 0.80468 0.0
C1164 C 0.63714 0.70351 0.78221 0.0
C1165 C 0.6365 0.71597 0.79188 0.0
C1166 C 0.66003 0.75883 0.80055 0.0
C1167 C 0.64383 0.78617 0.81332 0.0
C1168 C 0.64424 0.7716 0.80822 0.0
C1169 C 0.64679 0.73161 0.78572 0.0
C1170 C 0.64573 0.74488 0.79499 0.0
H1171 H 0.66274 0.81826 0.84444 0.0
H1172 H 0.66073 0.79277 0.83868 0.0
H1173 H 0.67059 0.78275 0.8107 0.0
H1174 H 0.66668 0.72488 0.74764 0.0
H1175 H 0.66578 0.7465 0.76471 0.0
C1176 C 0.21854 0.9217 0.80789 0.0
C1177 C 0.21457 0.91995 0.82861 0.0
C1178 C 0.23198 0.93552 0.80083 0.0
C1179 C 0.26043 0.9772 0.81264 0.0
H1180 H 0.29258 0.97077 0.78461 0.0
C1181 C 0.32753 0.02559 0.8094 0.0
C1182 C 0.33722 0.0266 0.79274 0.0
C1183 C 0.31144 0.01334 0.81079 0.0
C1184 C 0.28364 0.97286 0.79198 0.0
H1185 H 0.22103 0.93169 0.85796 0.0
H1186 H 0.24429 0.95599 0.84551 0.0
H1187 H 0.266 0.94818 0.79242 0.0
H1188 H 0.33734 0.01567 0.76413 0.0
H1189 H 0.30895 0.99434 0.76631 0.0
H1190 H 0.27792 1.00183 0.81222 0.0
C1191 C 0.23706 0.94659 0.83479 0.0
C1192 C 0.26841 0.95988 0.79653 0.0
C1193 C 0.22377 0.93267 0.84192 0.0
C1194 C 0.33024 0.01521 0.7772 0.0
C1195 C 0.31399 1.00293 0.77852 0.0
C1196 C 0.27554 0.9902 0.80783 0.0
C1197 C 0.24154 0.94798 0.81428 0.0
C1198 C 0.25683 0.9619 0.80735 0.0
C1199 C 0.30443 1.00176 0.79547 0.0
C1200 C 0.28755 0.98817 0.79797 0.0
H1201 H 0.21174 0.91212 0.79723 0.0
H1202 H 0.23512 0.93634 0.78493 0.0
H1203 H 0.25162 0.97909 0.82075 0.0
H1204 H 0.33247 0.03408 0.82174 0.0
H1205 H 0.30469 0.01271 0.8243 0.0
C1206 C 0.64253 0.91201 0.3276 0.0
C1207 C 0.65923 0.91684 0.32844 0.0
C1208 C 0.63718 0.92135 0.31799 0.0
C1209 C 0.65043 0.95364 0.2808 0.0
H1210 H 0.61624 0.95924 0.30447 0.0
C1211 C 0.62909 0.99235 0.2416 0.0
C1212 C 0.6275 0.00308 0.25422 0.0
C1213 C 0.63026 0.97985 0.24992 0.0
C1214 C 0.62582 0.95782 0.29769 0.0
H1215 H 0.68344 0.93547 0.32043 0.0
H1216 H 0.6742 0.95181 0.3039 0.0
H1217 H 0.62436 0.94188 0.32082 0.0
H1218 H 0.62496 0.00861 0.28543 0.0
H1219 H 0.62736 0.98705 0.29996 0.0
H1220 H 0.65246 0.97007 0.25821 0.0
C1221 C 0.66516 0.94063 0.31018 0.0
C1222 C 0.63037 0.94774 0.30694 0.0
C1223 C 0.67048 0.93127 0.31969 0.0
C1224 C 0.62618 1.00054 0.27527 0.0
C1225 C 0.62749 0.98811 0.28361 0.0
C1226 C 0.64595 0.96374 0.27161 0.0
C1227 C 0.64844 0.93574 0.3091 0.0
C1228 C 0.64289 0.94571 0.29874 0.0
C1229 C 0.63001 0.97789 0.27106 0.0
C1230 C 0.63371 0.9661 0.28005 0.0
H1231 H 0.63356 0.90087 0.33401 0.0
H1232 H 0.62421 0.91716 0.31723 0.0
H1233 H 0.65993 0.95215 0.27388 0.0
H1234 H 0.62996 0.99387 0.2253 0.0
H1235 H 0.6318 0.97197 0.23978 0.0
C1236 C 0.12977 0.84422 0.32125 0.0
C1237 C 0.1411 0.84825 0.33726 0.0
C1238 C 0.121 0.82872 0.31392 0.0
C1239 C 0.10908 0.7872 0.32599 0.0
H1240 H 0.10224 0.78188 0.26781 0.0
C1241 C 0.06573 0.72699 0.28681 0.0
C1242 C 0.06941 0.7246 0.26695 0.0
C1243 C 0.07556 0.74139 0.29685 0.0
C1244 C 0.10423 0.78308 0.28407 0.0
H1245 H 0.15143 0.8387 0.35863 0.0
H1246 H 0.13664 0.81193 0.34536 0.0
H1247 H 0.11678 0.8082 0.28229 0.0
H1248 H 0.08701 0.73479 0.24275 0.0
H1249 H 0.1045 0.75952 0.26049 0.0
H1250 H 0.09688 0.76198 0.3276 0.0
C1251 C 0.1344 0.82073 0.3386 0.0
C1252 C 0.11234 0.79825 0.29244 0.0
C1253 C 0.14308 0.83621 0.34605 0.0
C1254 C 0.08376 0.73637 0.25796 0.0
C1255 C 0.09369 0.75062 0.26807 0.0
C1256 C 0.10104 0.77197 0.31758 0.0
C1257 C 0.12338 0.81682 0.32227 0.0
C1258 C 0.11479 0.80054 0.31352 0.0
C1259 C 0.08937 0.7536 0.2873 0.0
C1260 C 0.09848 0.76971 0.29648 0.0
H1261 H 0.12787 0.85305 0.31399 0.0
H1262 H 0.11238 0.82611 0.30159 0.0
H1263 H 0.11062 0.78849 0.34231 0.0
H1264 H 0.0547 0.71816 0.29407 0.0
H1265 H 0.0718 0.74325 0.3116 0.0
C1266 C 0.2529 0.39924 0.33869 0.0
C1267 C 0.23981 0.39815 0.32718 0.0
C1268 C 0.26666 0.40057 0.32916 0.0
C1269 C 0.28264 0.39334 0.28267 0.0
H1270 H 0.32395 0.42774 0.30244 0.0
C1271 C 0.3449 0.3965 0.27585 0.0
C1272 C 0.35901 0.41129 0.27342 0.0
C1273 C 0.32954 0.39521 0.27691 0.0
C1274 C 0.31252 0.41824 0.29649 0.0
H1275 H 0.23057 0.39668 0.29656 0.0
H1276 H 0.25458 0.39861 0.2799 0.0
H1277 H 0.29846 0.42412 0.31627 0.0
H1278 H 0.36801 0.43617 0.26867 0.0
H1279 H 0.34108 0.43394 0.27079 0.0
H1280 H 0.29682 0.38711 0.26343 0.0
C1281 C 0.25417 0.39863 0.29632 0.0
C1282 C 0.29794 0.41606 0.30459 0.0
C1283 C 0.24045 0.39753 0.30588 0.0
C1284 C 0.35734 0.42461 0.27046 0.0
C1285 C 0.34196 0.42335 0.27185 0.0
C1286 C 0.29728 0.39538 0.27475 0.0
C1287 C 0.2676 0.40062 0.3079 0.0
C1288 C 0.28287 0.40343 0.29805 0.0
C1289 C 0.32799 0.40871 0.27586 0.0
C1290 C 0.31239 0.40774 0.2818 0.0
H1291 H 0.25285 0.39974 0.35511 0.0
H1292 H 0.27675 0.40184 0.33844 0.0
H1293 H 0.27117 0.38352 0.27735 0.0
H1294 H 0.34583 0.38602 0.27812 0.0
H1295 H 0.31905 0.38379 0.2801 0.0
C1296 C 0.2245 0.35757 0.89995 0.0
C1297 C 0.21486 0.34652 0.88493 0.0
C1298 C 0.23705 0.35637 0.90984 0.0
C1299 C 0.25086 0.3271 0.91881 0.0
H1300 H 0.2926 0.36377 0.93221 0.0
C1301 C 0.31112 0.32659 0.92559 0.0
C1302 C 0.32167 0.3346 0.94193 0.0
C1303 C 0.29679 0.32716 0.92277 0.0
C1304 C 0.2809 0.35344 0.92886 0.0
H1305 H 0.21139 0.3261 0.86778 0.0
H1306 H 0.23333 0.32437 0.88424 0.0
H1307 H 0.27053 0.3673 0.91854 0.0
H1308 H 0.32554 0.34936 0.96828 0.0
H1309 H 0.30048 0.35072 0.96303 0.0
H1310 H 0.26156 0.31329 0.92804 0.0
C1311 C 0.23094 0.33358 0.88914 0.0
C1312 C 0.26824 0.35544 0.92103 0.0
C1313 C 0.2184 0.33467 0.87951 0.0
C1314 C 0.31741 0.34283 0.9558 0.0
C1315 C 0.30321 0.34375 0.95268 0.0
C1316 C 0.26355 0.32513 0.92632 0.0
C1317 C 0.24025 0.34417 0.90476 0.0
C1318 C 0.25318 0.34228 0.91536 0.0
C1319 C 0.29292 0.33612 0.93592 0.0
C1320 C 0.27881 0.33826 0.93101 0.0
H1321 H 0.22203 0.36681 0.90448 0.0
H1322 H 0.24395 0.36475 0.92178 0.0
H1323 H 0.2393 0.31666 0.91526 0.0
H1324 H 0.31429 0.32037 0.91453 0.0
H1325 H 0.28917 0.32128 0.90963 0.0
C1326 C 0.67966 0.93839 0.8652 0.0
C1327 C 0.68461 0.92765 0.87106 0.0
C1328 C 0.68843 0.9541 0.87178 0.0
C1329 C 0.71449 0.97951 0.91219 0.0
H1330 H 0.73043 0.01296 0.87245 0.0
C1331 C 0.75023 0.0441 0.93825 0.0
C1332 C 0.74615 0.05441 0.92855 0.0
C1333 C 0.74542 0.02926 0.92984 0.0
C1334 C 0.72594 0.0038 0.88379 0.0
H1335 H 0.70214 0.92461 0.88881 0.0
H1336 H 0.7172 0.95201 0.9009 0.0
H1337 H 0.71533 0.98547 0.86121 0.0
H1338 H 0.73468 0.05765 0.90184 0.0
H1339 H 0.72578 0.03172 0.88763 0.0
H1340 H 0.72422 0.99758 0.93488 0.0
C1341 C 0.70672 0.94833 0.89099 0.0
C1342 C 0.71733 0.98807 0.87731 0.0
C1343 C 0.69816 0.93273 0.88407 0.0
C1344 C 0.73808 0.05 0.90966 0.0
C1345 C 0.73301 0.03507 0.90146 0.0
C1346 C 0.7228 0.99522 0.91871 0.0
C1347 C 0.70206 0.95919 0.88467 0.0
C1348 C 0.71145 0.97582 0.89147 0.0
C1349 C 0.73614 0.02429 0.91176 0.0
C1350 C 0.72855 0.0076 0.90462 0.0
H1351 H 0.66935 0.93476 0.85501 0.0
H1352 H 0.68456 0.96226 0.86684 0.0
H1353 H 0.70998 0.97023 0.92339 0.0
H1354 H 0.75659 0.04724 0.95273 0.0
H1355 H 0.74852 0.02149 0.93792 0.0
C1356 C 0.13533 0.85129 0.88091 0.0
C1357 C 0.14733 0.86043 0.8955 0.0
C1358 C 0.12005 0.83907 0.8869 0.0
C1359 C 0.08619 0.81735 0.90521 0.0
H1360 H 0.08969 0.78762 0.94069 0.0
C1361 C 0.03028 0.75761 0.92825 0.0
C1362 C 0.03217 0.74486 0.9221 0.0
C1363 C 0.04377 0.77293 0.92882 0.0
C1364 C 0.08851 0.79592 0.931 0.0
H1365 H 0.15236 0.8644 0.92782 0.0
H1366 H 0.12577 0.84291 0.93817 0.0
H1367 H 0.11392 0.81305 0.93368 0.0
H1368 H 0.04966 0.73792 0.91296 0.0
H1369 H 0.07323 0.76453 0.91471 0.0
H1370 H 0.06083 0.79997 0.90215 0.0
C1371 C 0.12822 0.84524 0.92214 0.0
C1372 C 0.10233 0.81048 0.92705 0.0
C1373 C 0.14341 0.85759 0.91618 0.0
C1374 C 0.04787 0.74754 0.91777 0.0
C1375 C 0.06135 0.76275 0.91881 0.0
C1376 C 0.07229 0.80287 0.90945 0.0
C1377 C 0.11653 0.83563 0.90756 0.0
C1378 C 0.1014 0.82118 0.91373 0.0
C1379 C 0.05938 0.77564 0.92378 0.0
C1380 C 0.07342 0.79187 0.92197 0.0
H1381 H 0.13795 0.85319 0.86486 0.0
H1382 H 0.11129 0.83179 0.87532 0.0
H1383 H 0.08514 0.82541 0.89494 0.0
H1384 H 0.01828 0.75587 0.93148 0.0
H1385 H 0.04196 0.7827 0.93273 0.0
C1386 C 0.43452 0.22052 0.73578 0.0
C1387 C 0.43676 0.22584 0.71569 0.0
C1388 C 0.43495 0.2069 0.74072 0.0
C1389 C 0.42565 0.16941 0.71786 0.0
H1390 H 0.44103 0.16332 0.76981 0.0
C1391 C 0.41001 0.10761 0.74807 0.0
C1392 C 0.40428 0.10491 0.76813 0.0
C1393 C 0.41719 0.1228 0.73987 0.0
C1394 C 0.4367 0.16484 0.75521 0.0
H1395 H 0.44198 0.2215 0.68513 0.0
H1396 H 0.44278 0.19761 0.69377 0.0
H1397 H 0.449 0.18994 0.75877 0.0
H1398 H 0.40165 0.11609 0.79527 0.0
H1399 H 0.41398 0.1423 0.78103 0.0
H1400 H 0.4128 0.14423 0.71472 0.0
C1401 C 0.44064 0.20399 0.70568 0.0
C1402 C 0.44128 0.18007 0.74889 0.0
C1403 C 0.44034 0.21774 0.70078 0.0
C1404 C 0.40591 0.11769 0.77977 0.0
C1405 C 0.41315 0.13279 0.77167 0.0
C1406 C 0.42106 0.15414 0.7242 0.0
C1407 C 0.43754 0.19822 0.72562 0.0
C1408 C 0.43533 0.18249 0.73048 0.0
C1409 C 0.41892 0.13556 0.75169 0.0
C1410 C 0.42607 0.15169 0.74328 0.0
H1411 H 0.4318 0.22661 0.74754 0.0
H1412 H 0.43235 0.20271 0.75618 0.0
H1413 H 0.42076 0.17087 0.70365 0.0
H1414 H 0.40897 0.09802 0.73873 0.0
H1415 H 0.42152 0.12461 0.7244 0.0
C1416 C 0.89124 0.26555 0.67457 0.0
C1417 C 0.88099 0.25729 0.69086 0.0
C1418 C 0.90242 0.28176 0.67623 0.0
C1419 C 0.91371 0.31757 0.70789 0.0
H1420 H 0.9581 0.32966 0.69337 0.0
C1421 C 0.96927 0.36744 0.7484 0.0
C1422 C 0.98359 0.37732 0.73767 0.0
C1423 C 0.95598 0.35476 0.7388 0.0
C1424 C 0.94574 0.32662 0.69713 0.0
H1425 H 0.87372 0.25989 0.72111 0.0
H1426 H 0.89299 0.28799 0.72396 0.0
H1427 H 0.93569 0.30373 0.68336 0.0
H1428 H 0.99499 0.38182 0.70818 0.0
H1429 H 0.97162 0.35931 0.69128 0.0
H1430 H 0.92384 0.3402 0.72236 0.0
C1431 C 0.89247 0.28202 0.70987 0.0
C1432 C 0.93286 0.31173 0.6914 0.0
C1433 C 0.88142 0.26584 0.70827 0.0
C1434 C 0.98412 0.37444 0.71684 0.0
C1435 C 0.97079 0.36152 0.70722 0.0
C1436 C 0.92657 0.33242 0.71363 0.0
C1437 C 0.90346 0.29012 0.69413 0.0
C1438 C 0.91673 0.30682 0.69726 0.0
C1439 C 0.95661 0.35146 0.71818 0.0
C1440 C 0.94281 0.33694 0.7089 0.0
H1441 H 0.89125 0.25937 0.66091 0.0
H1442 H 0.91053 0.28766 0.66371 0.0
H1443 H 0.90142 0.31434 0.7123 0.0
H1444 H 0.96838 0.36933 0.76444 0.0
H1445 H 0.9454 0.34718 0.74782 0.0
C1446 C 0.81149 0.72225 0.70885 0.0
C1447 C 0.81991 0.71611 0.69818 0.0
C1448 C 0.79519 0.71265 0.71411 0.0
C1449 C 0.76307 0.68896 0.73219 0.0
H1450 H 0.7327 0.6625 0.69027 0.0
C1451 C 0.69371 0.66222 0.74251 0.0
C1452 C 0.68613 0.66499 0.7259 0.0
C1453 C 0.70931 0.66399 0.74052 0.0
C1454 C 0.74102 0.66977 0.70221 0.0
H1455 H 0.81775 0.69488 0.68481 0.0
H1456 H 0.78896 0.67795 0.69394 0.0
H1457 H 0.762 0.67476 0.68456 0.0
H1458 H 0.68846 0.67066 0.69385 0.0
H1459 H 0.71539 0.67384 0.69046 0.0
H1460 H 0.7422 0.68485 0.74932 0.0
C1461 C 0.79512 0.69031 0.6982 0.0
C1462 C 0.75783 0.67667 0.699 0.0
C1463 C 0.8116 0.69998 0.69301 0.0
C1464 C 0.69399 0.66856 0.70703 0.0
C1465 C 0.70944 0.67023 0.70501 0.0
C1466 C 0.74629 0.6821 0.73538 0.0
C1467 C 0.78674 0.69656 0.70885 0.0
C1468 C 0.76906 0.68684 0.71365 0.0
C1469 C 0.71753 0.66842 0.72183 0.0
C1470 C 0.73505 0.6729 0.72012 0.0
H1471 H 0.81745 0.73461 0.71313 0.0
H1472 H 0.78908 0.71797 0.72191 0.0
H1473 H 0.77139 0.69649 0.74397 0.0
H1474 H 0.68796 0.65942 0.75724 0.0
H1475 H 0.71512 0.66233 0.75373 0.0
C1476 C 0.82613 0.73829 0.11493 0.0
C1477 C 0.82732 0.73363 0.13474 0.0
C1478 C 0.81644 0.74504 0.11072 0.0
C1479 C 0.79371 0.7628 0.13504 0.0
H1480 H 0.76644 0.74723 0.08673 0.0
C1481 C 0.73333 0.76276 0.12681 0.0
C1482 C 0.7288 0.7663 0.10803 0.0
C1483 C 0.74734 0.76155 0.12875 0.0
C1484 C 0.77416 0.75193 0.10008 0.0
H1485 H 0.81966 0.73303 0.16582 0.0
H1486 H 0.80265 0.74462 0.15851 0.0
H1487 H 0.78732 0.74004 0.09292 0.0
H1488 H 0.73575 0.77162 0.07655 0.0
H1489 H 0.76038 0.76926 0.07987 0.0
H1490 H 0.7801 0.7742 0.14253 0.0
C1491 C 0.80938 0.74325 0.14619 0.0
C1492 C 0.78617 0.74781 0.10367 0.0
C1493 C 0.81913 0.73655 0.15041 0.0
C1494 C 0.73892 0.76891 0.09122 0.0
C1495 C 0.75295 0.76748 0.09311 0.0
C1496 C 0.78166 0.76684 0.13149 0.0
C1497 C 0.8076 0.74728 0.1262 0.0
C1498 C 0.7959 0.75293 0.12142 0.0
C1499 C 0.75726 0.76371 0.11193 0.0
C1500 C 0.7715 0.76119 0.11419 0.0
H1501 H 0.83233 0.7363 0.10248 0.0
H1502 H 0.81567 0.74828 0.09523 0.0
H1503 H 0.80117 0.76727 0.14863 0.0
H1504 H 0.7259 0.76075 0.14014 0.0
H1505 H 0.75012 0.75843 0.14338 0.0
C1506 C 0.39327 0.16557 0.15832 0.0
C1507 C 0.38302 0.16967 0.16887 0.0
C1508 C 0.38872 0.14977 0.15518 0.0
C1509 C 0.362 0.10928 0.17348 0.0
H1510 H 0.36851 0.0977 0.11948 0.0
C1511 C 0.33937 0.04425 0.14733 0.0
C1512 C 0.34956 0.0421 0.13385 0.0
C1513 C 0.34303 0.05953 0.15309 0.0
C1514 C 0.36679 0.10073 0.13474 0.0
H1515 H 0.35989 0.16003 0.1846 0.0
H1516 H 0.35212 0.13249 0.17928 0.0
H1517 H 0.37578 0.1248 0.12669 0.0
H1518 H 0.37213 0.0542 0.11697 0.0
H1519 H 0.37868 0.08049 0.12735 0.0
H1520 H 0.35316 0.08513 0.18153 0.0
C1521 C 0.36373 0.14161 0.17354 0.0
C1522 C 0.37095 0.11629 0.13885 0.0
C1523 C 0.36823 0.15745 0.17659 0.0
C1524 C 0.36385 0.05542 0.1271 0.0
C1525 C 0.36756 0.07056 0.13295 0.0
C1526 C 0.35792 0.09364 0.16939 0.0
C1527 C 0.37384 0.13759 0.16258 0.0
C1528 C 0.36879 0.12082 0.1583 0.0
C1529 C 0.35701 0.07288 0.14555 0.0
C1530 C 0.36048 0.08923 0.15001 0.0
H1531 H 0.40488 0.17456 0.15251 0.0
H1532 H 0.39693 0.14708 0.14698 0.0
H1533 H 0.36025 0.11242 0.18865 0.0
H1534 H 0.32826 0.03421 0.15277 0.0
H1535 H 0.33462 0.06088 0.16281 0.0
C1536 C 0.88532 0.24896 0.13955 0.0
C1537 C 0.8787 0.24367 0.15888 0.0
C1538 C 0.90167 0.25391 0.13579 0.0
C1539 C 0.93995 0.2734 0.16322 0.0
H1540 H 0.958 0.27109 0.11148 0.0
C1541 C 0.00581 0.31843 0.14634 0.0
C1542 C 0.00827 0.32562 0.12733 0.0
C1543 C 0.99183 0.30397 0.14997 0.0
C1544 C 0.95318 0.27188 0.12602 0.0
H1545 H 0.88367 0.23834 0.18906 0.0
H1546 H 0.91246 0.24721 0.18255 0.0
H1547 H 0.92918 0.25297 0.1185 0.0
H1548 H 0.99874 0.32303 0.0968 0.0
H1549 H 0.97384 0.29807 0.10327 0.0
H1550 H 0.96337 0.2929 0.17038 0.0
C1551 C 0.90494 0.24753 0.17032 0.0
C1552 C 0.93669 0.26144 0.13007 0.0
C1553 C 0.88847 0.24239 0.17403 0.0
C1554 C 0.99713 0.3176 0.11153 0.0
C1555 C 0.98288 0.30326 0.11529 0.0
C1556 C 0.95634 0.2839 0.15913 0.0
C1557 C 0.91183 0.25383 0.15134 0.0
C1558 C 0.9298 0.26242 0.14849 0.0
C1559 C 0.97971 0.29663 0.13486 0.0
C1560 C 0.96309 0.28361 0.14024 0.0
H1561 H 0.87804 0.24994 0.12751 0.0
H1562 H 0.90659 0.25881 0.12107 0.0
H1563 H 0.935 0.27467 0.17742 0.0
H1564 H 0.01434 0.32441 0.15871 0.0
H1565 H 0.99011 0.299 0.16501 0.0
C1566 C 0.38485 0.29737 0.65882 0.0
C1567 C 0.38297 0.29121 0.67843 0.0
C1568 C 0.37331 0.30085 0.65083 0.0
C1569 C 0.34497 0.31348 0.66211 0.0
H1570 H 0.32102 0.29045 0.61394 0.0
C1571 C 0.30192 0.33019 0.62189 0.0
C1572 C 0.3034 0.3312 0.60067 0.0
C1573 C 0.30817 0.32222 0.63301 0.0
C1574 C 0.32767 0.2971 0.62728 0.0
H1575 H 0.36809 0.28438 0.70538 0.0
H1576 H 0.34816 0.29113 0.69165 0.0
H1577 H 0.34032 0.28412 0.63002 0.0
H1578 H 0.31139 0.32353 0.57438 0.0
H1579 H 0.3227 0.31026 0.59356 0.0
H1580 H 0.33335 0.32723 0.6588 0.0
C1581 C 0.35839 0.29295 0.68241 0.0
C1582 C 0.33864 0.29339 0.63649 0.0
C1583 C 0.36972 0.28912 0.69021 0.0
C1584 C 0.31007 0.32304 0.59072 0.0
C1585 C 0.31652 0.3153 0.6018 0.0
C1586 C 0.33427 0.31744 0.65264 0.0
C1587 C 0.35996 0.29855 0.66253 0.0
C1588 C 0.34754 0.30173 0.65376 0.0
C1589 C 0.3162 0.31526 0.62315 0.0
C1590 C 0.32571 0.30951 0.63485 0.0
H1591 H 0.39487 0.29889 0.64942 0.0
H1592 H 0.37474 0.30523 0.63548 0.0
H1593 H 0.35177 0.32004 0.67544 0.0
H1594 H 0.29668 0.33622 0.63001 0.0
H1595 H 0.30727 0.32206 0.64938 0.0
C1596 C 0.82705 0.1511 0.67079 0.0
C1597 C 0.83295 0.16513 0.65974 0.0
C1598 C 0.81495 0.13674 0.6627 0.0
C1599 C 0.78404 0.1186 0.62091 0.0
H1600 H 0.78797 0.08189 0.63307 0.0
C1601 C 0.74791 0.06005 0.57675 0.0
C1602 C 0.73959 0.04612 0.58814 0.0
C1603 C 0.75924 0.07428 0.58594 0.0
C1604 C 0.78662 0.09199 0.6297 0.0
H1605 H 0.83048 0.17518 0.6317 0.0
H1606 H 0.80958 0.14995 0.61714 0.0
H1607 H 0.80743 0.10742 0.64778 0.0
H1608 H 0.73729 0.03624 0.61813 0.0
H1609 H 0.7575 0.0612 0.63417 0.0
H1610 H 0.76348 0.10311 0.60228 0.0
C1611 C 0.81408 0.15007 0.63231 0.0
C1612 C 0.79774 0.10668 0.63819 0.0
C1613 C 0.82608 0.16456 0.64061 0.0
C1614 C 0.74348 0.0467 0.60888 0.0
C1615 C 0.75502 0.061 0.61807 0.0
C1616 C 0.77304 0.10394 0.61222 0.0
C1617 C 0.80856 0.13589 0.64312 0.0
C1618 C 0.79661 0.12022 0.63397 0.0
C1619 C 0.76275 0.07501 0.60676 0.0
C1620 C 0.77422 0.09047 0.61649 0.0
H1621 H 0.83196 0.15117 0.68571 0.0
H1622 H 0.81072 0.12626 0.67182 0.0
H1623 H 0.78254 0.12861 0.61752 0.0
H1624 H 0.74534 0.06013 0.56073 0.0
H1625 H 0.76519 0.08479 0.57673 0.0
C1626 C 0.92579 0.74362 0.67204 0.0
C1627 C 0.91056 0.7377 0.66235 0.0
C1628 C 0.93838 0.74254 0.6627 0.0
C1629 C 0.9562 0.74305 0.61484 0.0
H1630 H 0.97787 0.72427 0.64398 0.0
C1631 C 0.01161 0.72761 0.60776 0.0
C1632 C 0.02531 0.74262 0.60494 0.0
C1633 C 0.99616 0.72582 0.61013 0.0
C1634 C 0.97188 0.72943 0.63552 0.0
H1635 H 0.89649 0.72602 0.63531 0.0
H1636 H 0.91889 0.72447 0.61857 0.0
H1637 H 0.9533 0.72268 0.65792 0.0
H1638 H 0.03344 0.76735 0.60062 0.0
H1639 H 0.00615 0.76422 0.60488 0.0
H1640 H 0.97532 0.7504 0.59282 0.0
C1641 C 0.92088 0.72975 0.63355 0.0
C1642 C 0.95785 0.72854 0.64355 0.0
C1643 C 0.90807 0.73049 0.64317 0.0
C1644 C 0.02305 0.75565 0.60268 0.0
C1645 C 0.00746 0.75385 0.60516 0.0
C1646 C 0.97049 0.74418 0.60692 0.0
C1647 C 0.93614 0.73583 0.64326 0.0
C1648 C 0.94995 0.73544 0.63341 0.0
C1649 C 0.99403 0.739 0.60986 0.0
C1650 C 0.97848 0.73741 0.61725 0.0
H1651 H 0.92804 0.74928 0.6868 0.0
H1652 H 0.95005 0.74734 0.67046 0.0
H1653 H 0.95038 0.7486 0.60687 0.0
H1654 H 0.01298 0.71733 0.60933 0.0
H1655 H 0.98599 0.7142 0.61334 0.0
C1656 C 0.89037 0.71005 0.19265 0.0
C1657 C 0.8752 0.69603 0.19281 0.0
C1658 C 0.9044 0.7103 0.20027 0.0
C1659 C 0.91847 0.68782 0.23212 0.0
H1660 H 0.95697 0.70819 0.19858 0.0
C1661 C 0.97397 0.67753 0.24085 0.0
C1662 C 0.98949 0.69037 0.23667 0.0
C1663 C 0.95992 0.67878 0.23784 0.0
C1664 C 0.94644 0.70263 0.20836 0.0
H1665 H 0.86279 0.67148 0.20192 0.0
H1666 H 0.88704 0.67195 0.21503 0.0
H1667 H 0.93309 0.71009 0.18955 0.0
H1668 H 1.00252 0.71489 0.22753 0.0
H1669 H 0.97837 0.71717 0.22293 0.0
H1670 H 0.93184 0.68023 0.25083 0.0
C1671 C 0.8882 0.68277 0.20915 0.0
C1672 C 0.93271 0.70376 0.20316 0.0
C1673 C 0.87428 0.68249 0.20145 0.0
C1674 C 0.99072 0.70466 0.23055 0.0
C1675 C 0.97683 0.70595 0.22777 0.0
C1676 C 0.93225 0.68673 0.23738 0.0
C1677 C 0.90351 0.69659 0.20836 0.0
C1678 C 0.9185 0.6963 0.21488 0.0
C1679 C 0.96119 0.69293 0.23076 0.0
C1680 C 0.94643 0.6941 0.22553 0.0
H1681 H 0.8915 0.72067 0.1861 0.0
H1682 H 0.91598 0.72121 0.19962 0.0
H1683 H 0.90777 0.68204 0.24161 0.0
H1684 H 0.97263 0.66636 0.24554 0.0
H1685 H 0.94807 0.66848 0.24027 0.0
C1686 C 0.42918 0.28778 0.23597 0.0
C1687 C 0.42326 0.28089 0.21682 0.0
C1688 C 0.43194 0.30292 0.24034 0.0
C1689 C 0.41906 0.33102 0.22264 0.0
H1690 H 0.45029 0.3582 0.26347 0.0
C1691 C 0.42316 0.3893 0.24894 0.0
C1692 C 0.42124 0.38984 0.27001 0.0
C1693 C 0.42653 0.3781 0.24048 0.0
C1694 C 0.44158 0.35075 0.25195 0.0
H1695 H 0.41657 0.28472 0.18683 0.0
H1696 H 0.422 0.31139 0.19407 0.0
H1697 H 0.45082 0.33479 0.25167 0.0
H1698 H 0.42228 0.37973 0.29881 0.0
H1699 H 0.42849 0.36047 0.28409 0.0
H1700 H 0.40986 0.34703 0.22304 0.0
C1701 C 0.42397 0.30496 0.20603 0.0
C1702 C 0.44178 0.33727 0.24528 0.0
C1703 C 0.42095 0.28973 0.20179 0.0
C1704 C 0.42361 0.37955 0.28251 0.0
C1705 C 0.42727 0.36858 0.2741 0.0
C1706 C 0.41904 0.34461 0.2291 0.0
C1707 C 0.42907 0.31162 0.22554 0.0
C1708 C 0.43025 0.32699 0.2309 0.0
C1709 C 0.42838 0.36749 0.25299 0.0
C1710 C 0.43004 0.35441 0.24416 0.0
H1711 H 0.43085 0.28116 0.24791 0.0
H1712 H 0.4356 0.30746 0.25564 0.0
H1713 H 0.40979 0.32332 0.21184 0.0
H1714 H 0.42136 0.39706 0.23892 0.0
H1715 H 0.42739 0.37753 0.22415 0.0
C1716 C 0.79256 0.18473 0.21479 0.0
C1717 C 0.79387 0.19951 0.21793 0.0
C1718 C 0.77952 0.17112 0.223 0.0
C1719 C 0.7374 0.15634 0.24059 0.0
H1720 H 0.74077 0.1202 0.25746 0.0
C1721 C 0.68018 0.09767 0.26099 0.0
C1722 C 0.67905 0.08474 0.25021 0.0
C1723 C 0.69505 0.1119 0.26211 0.0
C1724 C 0.73965 0.13023 0.25286 0.0
H1725 H 0.78307 0.21175 0.23312 0.0
H1726 H 0.76062 0.18816 0.24774 0.0
H1727 H 0.7655 0.14494 0.24959 0.0
H1728 H 0.69281 0.07621 0.23348 0.0
H1729 H 0.71857 0.10086 0.23548 0.0
H1730 H 0.71156 0.14155 0.24335 0.0
C1731 C 0.76937 0.18696 0.2385 0.0
C1732 C 0.75381 0.14437 0.24826 0.0
C1733 C 0.78229 0.2005 0.23017 0.0
C1734 C 0.69325 0.086 0.24175 0.0
C1735 C 0.70808 0.10011 0.24304 0.0
C1736 C 0.72328 0.14224 0.24527 0.0
C1737 C 0.76759 0.17205 0.23466 0.0
C1738 C 0.75282 0.1575 0.24162 0.0
C1739 C 0.70906 0.11336 0.2527 0.0
C1740 C 0.72421 0.12891 0.25099 0.0
H1741 H 0.80129 0.18359 0.20541 0.0
H1742 H 0.77845 0.15983 0.21954 0.0
H1743 H 0.73611 0.16611 0.23525 0.0
H1744 H 0.66945 0.09704 0.26768 0.0
H1745 H 0.6955 0.1219 0.26982 0.0
C1746 C 0.03795 0.5168 0.93438 0.0
C1747 C 0.05088 0.53247 0.93574 0.0
C1748 C 0.03591 0.50758 0.91721 0.0
C1749 C 0.04608 0.50952 0.86285 0.0
H1750 H 0.0321 0.46538 0.87098 0.0
C1751 C 0.03855 0.46416 0.7989 0.0
C1752 C 0.02514 0.44886 0.80114 0.0
C1753 C 0.04206 0.47578 0.81379 0.0
C1754 C 0.03585 0.47765 0.86841 0.0
H1755 H 0.07185 0.55064 0.9199 0.0
H1756 H 0.06829 0.53443 0.8898 0.0
H1757 H 0.03838 0.48273 0.9002 0.0
H1758 H 0.00409 0.43419 0.81966 0.0
H1759 H 0.01 0.45436 0.84519 0.0
H1760 H 0.04354 0.50424 0.83088 0.0
C1761 C 0.05966 0.52939 0.90207 0.0
C1762 C 0.03947 0.48761 0.88519 0.0
C1763 C 0.06172 0.53866 0.91934 0.0
C1764 C 0.01464 0.44579 0.81762 0.0
C1765 C 0.01809 0.45733 0.83235 0.0
C1766 C 0.0425 0.49949 0.84596 0.0
C1767 C 0.04673 0.51371 0.90084 0.0
C1768 C 0.0443 0.5036 0.88269 0.0
C1769 C 0.03219 0.47224 0.83108 0.0
C1770 C 0.03701 0.48337 0.84861 0.0
H1771 H 0.02906 0.51167 0.94634 0.0
H1772 H 0.02559 0.49568 0.91663 0.0
H1773 H 0.04971 0.52176 0.86039 0.0
H1774 H 0.04691 0.46686 0.78641 0.0
H1775 H 0.05299 0.48719 0.81237 0.0
C1776 C 0.58601 0.59154 0.96 0.0
C1777 C 0.58092 0.5755 0.96252 0.0
C1778 C 0.59306 0.59917 0.94182 0.0
C1779 C 0.59379 0.59225 0.88758 0.0
H1780 H 0.63366 0.63283 0.88809 0.0
C1781 C 0.62373 0.62542 0.81301 0.0
C1782 C 0.63137 0.64196 0.81345 0.0
C1783 C 0.61825 0.61674 0.83099 0.0
C1784 C 0.62238 0.62162 0.88761 0.0
H1785 H 0.57915 0.55484 0.94794 0.0
H1786 H 0.59123 0.56813 0.91589 0.0
H1787 H 0.62284 0.61893 0.91983 0.0
H1788 H 0.63896 0.66232 0.8331 0.0
H1789 H 0.62894 0.64732 0.86407 0.0
H1790 H 0.59287 0.59514 0.85552 0.0
C1791 C 0.58988 0.5748 0.92811 0.0
C1792 C 0.61626 0.61362 0.90585 0.0
C1793 C 0.5831 0.56724 0.94647 0.0
C1794 C 0.63329 0.6496 0.83221 0.0
C1795 C 0.62763 0.64095 0.85007 0.0
C1796 C 0.59977 0.60038 0.86933 0.0
C1797 C 0.59492 0.59085 0.9256 0.0
C1798 C 0.60184 0.59891 0.90606 0.0
C1799 C 0.6201 0.62439 0.84981 0.0
C1800 C 0.61409 0.61527 0.86908 0.0
H1801 H 0.58456 0.5982 0.97214 0.0
H1802 H 0.59675 0.61151 0.94028 0.0
H1803 H 0.58257 0.58098 0.88731 0.0
H1804 H 0.62213 0.61918 0.79881 0.0
H1805 H 0.61274 0.60404 0.83012 0.0
C1806 C 0.48282 0.03178 0.94603 0.0
C1807 C 0.4838 0.01797 0.94411 0.0
C1808 C 0.47526 0.03595 0.93095 0.0
C1809 C 0.44655 0.01946 0.88721 0.0
H1810 H 0.46446 0.06357 0.87385 0.0
C1811 C 0.42065 0.04043 0.82216 0.0
C1812 C 0.41704 0.05213 0.82812 0.0
C1813 C 0.42997 0.03648 0.83483 0.0
C1814 C 0.45934 0.05121 0.87744 0.0
H1815 H 0.47714 0.99755 0.92482 0.0
H1816 H 0.46459 0.00511 0.89834 0.0
H1817 H 0.47816 0.05607 0.89919 0.0
H1818 H 0.4209 0.06931 0.8516 0.0
H1819 H 0.43726 0.06256 0.87345 0.0
H1820 H 0.42776 0.01466 0.86533 0.0
C1821 C 0.46946 0.01262 0.91164 0.0
C1822 C 0.46711 0.04691 0.89205 0.0
C1823 C 0.47689 0.00839 0.92678 0.0
C1824 C 0.4234 0.06017 0.84661 0.0
C1825 C 0.43287 0.05639 0.85909 0.0
C1826 C 0.43888 0.02376 0.87246 0.0
C1827 C 0.46858 0.02648 0.91349 0.0
C1828 C 0.46069 0.03099 0.89734 0.0
C1829 C 0.43606 0.04437 0.85348 0.0
C1830 C 0.44507 0.03969 0.86764 0.0
H1831 H 0.48807 0.03954 0.95902 0.0
H1832 H 0.47458 0.04657 0.93306 0.0
H1833 H 0.44113 0.00711 0.89107 0.0
H1834 H 0.4159 0.03403 0.80801 0.0
H1835 H 0.43236 0.02722 0.83013 0.0
C1836 C 0.45551 0.00859 0.59584 0.0
C1837 C 0.46671 0.02117 0.58378 0.0
C1838 C 0.44762 0.01123 0.61203 0.0
C1839 C 0.4384 0.04133 0.6333 0.0
H1840 H 0.43151 0.01807 0.68321 0.0
C1841 C 0.42573 0.06175 0.70972 0.0
C1842 C 0.41324 0.05041 0.72187 0.0
C1843 C 0.43076 0.05725 0.69229 0.0
C1844 C 0.43318 0.02452 0.66928 0.0
H1845 H 0.47799 0.04646 0.57941 0.0
H1846 H 0.4649 0.0511 0.60788 0.0
H1847 H 0.44324 0.01205 0.65398 0.0
H1848 H 0.39624 0.0254 0.72522 0.0
H1849 H 0.40528 0.0175 0.6948 0.0
H1850 H 0.42887 0.05417 0.64892 0.0
C1851 C 0.46192 0.03909 0.60462 0.0
C1852 C 0.43987 0.02106 0.65248 0.0
C1853 C 0.46968 0.03644 0.58836 0.0
C1854 C 0.40587 0.03442 0.71615 0.0
C1855 C 0.41109 0.02989 0.69882 0.0
C1856 C 0.4319 0.0449 0.65015 0.0
C1857 C 0.45078 0.02655 0.61672 0.0
C1858 C 0.44276 0.02955 0.6343 0.0
C1859 C 0.42357 0.04128 0.68668 0.0
C1860 C 0.42938 0.03666 0.6684 0.0
H1861 H 0.4529 0.99667 0.59301 0.0
H1862 H 0.43898 1.00123 0.62081 0.0
H1863 H 0.44004 0.04787 0.61947 0.0
H1864 H 0.43166 0.07416 0.71365 0.0
H1865 H 0.44051 0.06628 0.68337 0.0
C1866 C 0.07244 0.52565 0.5651 0.0
C1867 C 0.05883 0.52296 0.55326 0.0
C1868 C 0.07063 0.51603 0.58176 0.0
C1869 C 0.04144 0.47709 0.60455 0.0
H1870 H 0.0654 0.49605 0.65441 0.0
C1871 C 0.02181 0.44556 0.68143 0.0
C1872 C 0.03388 0.44635 0.69473 0.0
C1873 C 0.02607 0.45456 0.66376 0.0
C1874 C 0.05877 0.49054 0.64052 0.0
H1875 H 0.03269 0.50755 0.5495 0.0
H1876 H 0.02949 0.49125 0.5786 0.0
H1877 H 0.0706 0.51234 0.62431 0.0
H1878 H 0.05999 0.45735 0.6998 0.0
H1879 H 0.06745 0.47327 0.66888 0.0
H1880 H 0.02931 0.4554 0.62091 0.0
C1881 C 0.04163 0.50066 0.57497 0.0
C1882 C 0.06177 0.49988 0.62321 0.0
C1883 C 0.04344 0.51022 0.55836 0.0
C1884 C 0.05038 0.45643 0.68987 0.0
C1885 C 0.05465 0.46561 0.67223 0.0
C1886 C 0.03837 0.46782 0.62185 0.0
C1887 C 0.05517 0.50343 0.587 0.0
C1888 C 0.05295 0.49333 0.60506 0.0
C1889 C 0.04252 0.46474 0.65892 0.0
C1890 C 0.04681 0.47445 0.64015 0.0
H1891 H 0.08446 0.53537 0.56174 0.0
H1892 H 0.08137 0.51845 0.5905 0.0
H1893 H 0.03469 0.4715 0.59077 0.0
H1894 H 0.00898 0.43794 0.68464 0.0
H1895 H 0.0164 0.45374 0.65403 0.0
C1896 C 0.51438 0.56873 0.58895 0.0
C1897 C 0.51653 0.57919 0.57312 0.0
C1898 C 0.52053 0.57445 0.60841 0.0
C1899 C 0.53889 0.61045 0.64125 0.0
H1900 H 0.56595 0.59395 0.66141 0.0
C1901 C 0.59703 0.64761 0.68755 0.0
C1902 C 0.60173 0.6408 0.703 0.0
C1903 C 0.58313 0.63845 0.67577 0.0
C1904 C 0.55818 0.59848 0.65633 0.0
H1905 H 0.52564 0.60375 0.56581 0.0
H1906 H 0.53638 0.61371 0.59963 0.0
H1907 H 0.54717 0.58076 0.63319 0.0
H1908 H 0.59514 0.61902 0.71863 0.0
H1909 H 0.57072 0.6028 0.69768 0.0
H1910 H 0.55047 0.62859 0.66385 0.0
C1911 C 0.52993 0.60108 0.59707 0.0
C1912 C 0.54739 0.59091 0.64011 0.0
C1913 C 0.52381 0.59537 0.5776 0.0
C1914 C 0.59185 0.62459 0.70681 0.0
C1915 C 0.57793 0.61532 0.69479 0.0
C1916 C 0.54967 0.61801 0.65746 0.0
C1917 C 0.52888 0.59074 0.61251 0.0
C1918 C 0.53803 0.59712 0.63194 0.0
C1919 C 0.57353 0.62216 0.679 0.0
C1920 C 0.55986 0.61243 0.66471 0.0
H1921 H 0.50872 0.55616 0.58609 0.0
H1922 H 0.51927 0.56615 0.62006 0.0
H1923 H 0.53163 0.61536 0.63558 0.0
H1924 H 0.60428 0.66008 0.68427 0.0
H1925 H 0.58028 0.64408 0.66357 0.0
C1926 C 0.0572 0.5834 0.09108 0.0
C1927 C 0.05163 0.58404 0.07147 0.0
C1928 C 0.05485 0.59129 0.10734 0.0
C1929 C 0.02993 0.6095 0.12222 0.0
H1930 H 0.06283 0.62988 0.16441 0.0
C1931 C 0.03307 0.658 0.17431 0.0
C1932 C 0.03523 0.65705 0.19528 0.0
C1933 C 0.03424 0.64765 0.16075 0.0
C1934 C 0.05345 0.62405 0.15288 0.0
H1935 H 0.03983 0.59396 0.05342 0.0
H1936 H 0.03615 0.60806 0.08149 0.0
H1937 H 0.067 0.61511 0.13738 0.0
H1938 H 0.04033 0.64444 0.21847 0.0
H1939 H 0.04278 0.62642 0.19446 0.0
H1940 H 0.01673 0.61901 0.13731 0.0
C1941 C 0.04183 0.60105 0.08457 0.0
C1942 C 0.0558 0.61557 0.13737 0.0
C1943 C 0.04401 0.59303 0.06841 0.0
C1944 C 0.03855 0.64541 0.2024 0.0
C1945 C 0.04003 0.63518 0.1887 0.0
C1946 C 0.02768 0.61812 0.13754 0.0
C1947 C 0.04702 0.60014 0.10434 0.0
C1948 C 0.04419 0.60839 0.12162 0.0
C1949 C 0.03783 0.6362 0.16773 0.0
C1950 C 0.03952 0.62568 0.15286 0.0
H1951 H 0.06295 0.57642 0.09397 0.0
H1952 H 0.05886 0.59015 0.12234 0.0
H1953 H 0.02048 0.60379 0.11075 0.0
H1954 H 0.03044 0.66677 0.1683 0.0
H1955 H 0.03264 0.64882 0.14468 0.0
C1956 C 0.52883 0.52988 0.11492 0.0
C1957 C 0.52375 0.53652 0.09965 0.0
C1958 C 0.51844 0.52154 0.13096 0.0
C1959 C 0.48098 0.51508 0.15763 0.0
H1960 H 0.47895 0.47647 0.17544 0.0
C1961 C 0.42969 0.47007 0.20963 0.0
C1962 C 0.43413 0.4629 0.2249 0.0
C1963 C 0.44102 0.47962 0.19505 0.0
C1964 C 0.47949 0.48732 0.17083 0.0
H1965 H 0.50383 0.53996 0.08984 0.0
H1966 H 0.48569 0.5252 0.11732 0.0
H1967 H 0.49809 0.49216 0.14906 0.0
H1968 H 0.4541 0.46036 0.23688 0.0
H1969 H 0.47379 0.47702 0.21156 0.0
H1970 H 0.46221 0.51011 0.17926 0.0
C1971 C 0.49776 0.52652 0.11706 0.0
C1972 C 0.49051 0.49635 0.1557 0.0
C1973 C 0.50812 0.53484 0.10108 0.0
C1974 C 0.45021 0.46564 0.22532 0.0
C1975 C 0.4615 0.47513 0.21071 0.0
C1976 C 0.46992 0.50602 0.17272 0.0
C1977 C 0.50271 0.51966 0.13217 0.0
C1978 C 0.49136 0.51032 0.14881 0.0
C1979 C 0.45704 0.48219 0.19532 0.0
C1980 C 0.46899 0.492 0.17947 0.0
H1981 H 0.54071 0.53083 0.11431 0.0
H1982 H 0.52277 0.5166 0.14244 0.0
H1983 H 0.48146 0.5259 0.15298 0.0
H1984 H 0.41742 0.46821 0.20882 0.0
H1985 H 0.43711 0.48473 0.18329 0.0
C1986 C 0.54969 0.06807 0.07016 0.0
C1987 C 0.53263 0.06093 0.06927 0.0
C1988 C 0.55785 0.07156 0.08882 0.0
C1989 C 0.54993 0.05601 0.14037 0.0
H1990 H 0.59535 0.08795 0.1481 0.0
C1991 C 0.59046 0.05426 0.20602 0.0
C1992 C 0.60484 0.05514 0.19875 0.0
C1993 C 0.58091 0.05791 0.19328 0.0
C1994 C 0.58262 0.07904 0.14624 0.0
H1995 H 0.51082 0.05303 0.08723 0.0
H1996 H 0.5251 0.05942 0.11993 0.0
H1997 H 0.57972 0.09038 0.12016 0.0
H1998 H 0.62067 0.06095 0.17265 0.0
H1999 H 0.60418 0.0674 0.1507 0.0
H2000 H 0.55307 0.04442 0.16608 0.0
C2001 C 0.53216 0.06208 0.10616 0.0
C2002 C 0.57368 0.0804 0.13023 0.0
C2003 C 0.52399 0.0586 0.08741 0.0
C2004 C 0.60962 0.06004 0.17871 0.0
C2005 C 0.60026 0.06392 0.16617 0.0
C2006 C 0.55886 0.05472 0.1565 0.0
C2007 C 0.54911 0.06801 0.10708 0.0
C2008 C 0.55742 0.06855 0.12657 0.0
C2009 C 0.58577 0.06282 0.17324 0.0
C2010 C 0.57547 0.06589 0.15906 0.0
H2011 H 0.55662 0.07006 0.05639 0.0
H2012 H 0.57088 0.076 0.08886 0.0
H2013 H 0.5375 0.04657 0.13793 0.0
H2014 H 0.58648 0.05054 0.22141 0.0
H2015 H 0.56975 0.05694 0.19907 0.0
C2016 C 0.52691 0.01486 0.43903 0.0
C2017 C 0.52974 0.02665 0.45339 0.0
C2018 C 0.53645 0.0185 0.42157 0.0
C2019 C 0.57618 0.04825 0.4005 0.0
H2020 H 0.55549 0.03016 0.3487 0.0
C2021 C 0.61145 0.06758 0.32478 0.0
C2022 C 0.60814 0.05564 0.31047 0.0
C2023 C 0.60182 0.06432 0.34212 0.0
C2024 C 0.5615 0.03519 0.36307 0.0
H2025 H 0.54474 0.05164 0.46025 0.0
H2026 H 0.56136 0.0579 0.43001 0.0
H2027 H 0.53892 0.0237 0.37915 0.0
H2028 H 0.59206 0.03088 0.30323 0.0
H2029 H 0.57551 0.02519 0.33345 0.0
H2030 H 0.59878 0.05965 0.38446 0.0
C2031 C 0.55192 0.04578 0.43241 0.0
C2032 C 0.55199 0.03147 0.38054 0.0
C2033 C 0.54237 0.04216 0.44981 0.0
C2034 C 0.59494 0.0404 0.31387 0.0
C2035 C 0.58536 0.03714 0.33118 0.0
C2036 C 0.58571 0.05193 0.38304 0.0
C2037 C 0.54908 0.03401 0.41806 0.0
C2038 C 0.55921 0.03794 0.39947 0.0
C2039 C 0.58867 0.04904 0.34555 0.0
C2040 C 0.5785 0.04542 0.3641 0.0
H2041 H 0.51745 1.00277 0.44137 0.0
H2042 H 0.53408 0.00911 0.41095 0.0
H2043 H 0.58217 0.05327 0.41489 0.0
H2044 H 0.62149 0.07946 0.32262 0.0
H2045 H 0.6046 0.07381 0.35275 0.0
C2046 C 0.03224 0.57951 0.42556 0.0
C2047 C 0.0456 0.57693 0.42582 0.0
C2048 C 0.03046 0.58838 0.41013 0.0
C2049 C 0.05423 0.61847 0.37138 0.0
H2050 H 0.01194 0.60533 0.34683 0.0
C2051 C 0.04831 0.64721 0.2983 0.0
C2052 C 0.03527 0.65015 0.29621 0.0
C2053 C 0.04894 0.6383 0.31441 0.0
C2054 C 0.02381 0.6093 0.35369 0.0
H2055 H 0.06762 0.58184 0.40991 0.0
H2056 H 0.06446 0.5971 0.38299 0.0
H2057 H 0.01427 0.58979 0.37422 0.0
H2058 H 0.01249 0.64577 0.3095 0.0
H2059 H 0.01365 0.63025 0.3379 0.0
H2060 H 0.0638 0.63796 0.351 0.0
C2061 C 0.05538 0.59236 0.39482 0.0
C2062 C 0.02515 0.60036 0.3694 0.0
C2063 C 0.05711 0.58343 0.41017 0.0
C2064 C 0.02271 0.64373 0.31062 0.0
C2065 C 0.02335 0.63478 0.32686 0.0
C2066 C 0.05288 0.6274 0.35576 0.0
C2067 C 0.04207 0.59501 0.3946 0.0
C2068 C 0.04042 0.60474 0.37831 0.0
C2069 C 0.03658 0.63206 0.32907 0.0
C2070 C 0.0377 0.62286 0.34649 0.0
H2071 H 0.02303 0.57456 0.43719 0.0
H2072 H 0.02012 0.59025 0.41056 0.0
H2073 H 0.06612 0.62242 0.37815 0.0
H2074 H 0.05816 0.65183 0.28745 0.0
H2075 H 0.05913 0.6362 0.31527 0.0
C2076 C 0.49532 0.54053 0.44653 0.0
C2077 C 0.48963 0.53777 0.46657 0.0
C2078 C 0.48515 0.53155 0.43052 0.0
C2079 C 0.45207 0.49181 0.42143 0.0
H2080 H 0.45179 0.50673 0.36709 0.0
C2081 C 0.41735 0.44832 0.35631 0.0
C2082 C 0.42464 0.45155 0.33709 0.0
C2083 C 0.42367 0.45962 0.37181 0.0
C2084 C 0.45187 0.50236 0.38213 0.0
H2085 H 0.4686 0.52411 0.48553 0.0
H2086 H 0.45074 0.5082 0.45743 0.0
H2087 H 0.4649 0.52572 0.39483 0.0
H2088 H 0.44425 0.46928 0.31902 0.0
H2089 H 0.4557 0.4889 0.34635 0.0
H2090 H 0.43978 0.46856 0.40881 0.0
C2091 C 0.4631 0.51736 0.45416 0.0
C2092 C 0.45926 0.51324 0.39803 0.0
C2093 C 0.47325 0.52653 0.4702 0.0
C2094 C 0.43836 0.46643 0.33367 0.0
C2095 C 0.44483 0.47771 0.34931 0.0
C2096 C 0.44483 0.48096 0.40554 0.0
C2097 C 0.46913 0.51947 0.43425 0.0
C2098 C 0.45958 0.50808 0.41781 0.0
C2099 C 0.4376 0.47441 0.36863 0.0
C2100 C 0.44476 0.48607 0.38562 0.0
H2101 H 0.5079 0.54915 0.44333 0.0
H2102 H 0.49019 0.53341 0.4154 0.0
H2103 H 0.45241 0.48747 0.43641 0.0
H2104 H 0.40661 0.43707 0.35941 0.0
H2105 H 0.41752 0.45674 0.38628 0.0
C2106 C 0.70637 0.88474 0.26506 0.0
C2107 C 0.69831 0.87735 0.28309 0.0
C2108 C 0.70462 0.87584 0.24751 0.0
C2109 C 0.69217 0.83492 0.23093 0.0
H2110 H 0.68985 0.84986 0.17727 0.0
C2111 C 0.67323 0.79346 0.16238 0.0
C2112 C 0.68277 0.7988 0.14476 0.0
C2113 C 0.67493 0.80392 0.17789 0.0
C2114 C 0.69063 0.8456 0.19214 0.0
H2115 H 0.68182 0.85475 0.29656 0.0
H2116 H 0.67851 0.83932 0.26602 0.0
H2117 H 0.69313 0.8662 0.20715 0.0
H2118 H 0.70096 0.81961 0.12923 0.0
H2119 H 0.70393 0.83809 0.15659 0.0
H2120 H 0.68952 0.81431 0.21607 0.0
C2121 C 0.68649 0.85198 0.26548 0.0
C2122 C 0.69253 0.85497 0.2093 0.0
C2123 C 0.6883 0.86085 0.28303 0.0
C2124 C 0.6934 0.81511 0.14256 0.0
C2125 C 0.69512 0.82568 0.15825 0.0
C2126 C 0.69019 0.82558 0.21387 0.0
C2127 C 0.69472 0.85931 0.24748 0.0
C2128 C 0.69315 0.84967 0.22898 0.0
C2129 C 0.68625 0.82009 0.17639 0.0
C2130 C 0.68919 0.83067 0.19425 0.0
H2131 H 0.71421 0.89742 0.26452 0.0
H2132 H 0.7113 0.88193 0.23408 0.0
H2133 H 0.69304 0.83058 0.2457 0.0
H2134 H 0.66474 0.78102 0.16452 0.0
H2135 H 0.66758 0.79923 0.19136 0.0
C2136 C 0.21568 0.91279 0.29754 0.0
C2137 C 0.21998 0.91137 0.31755 0.0
C2138 C 0.22721 0.91803 0.2821 0.0
C2139 C 0.27105 0.94251 0.27326 0.0
H2140 H 0.25916 0.92474 0.21896 0.0
C2141 C 0.31573 0.96791 0.20545 0.0
C2142 C 0.30904 0.96889 0.18675 0.0
C2143 C 0.3056 0.95978 0.22177 0.0
C2144 C 0.26266 0.92995 0.23398 0.0
H2145 H 0.23976 0.91406 0.33698 0.0
H2146 H 0.26016 0.92343 0.30982 0.0
H2147 H 0.24037 0.91198 0.24685 0.0
H2148 H 0.28638 0.96206 0.17065 0.0
H2149 H 0.26879 0.94812 0.19908 0.0
H2150 H 0.29317 0.96073 0.26028 0.0
C2151 C 0.24775 0.92043 0.30618 0.0
C2152 C 0.2519 0.92258 0.25 0.0
C2153 C 0.23607 0.91495 0.32169 0.0
C2154 C 0.29198 0.9615 0.18478 0.0
C2155 C 0.28186 0.9534 0.20108 0.0
C2156 C 0.28183 0.94994 0.25718 0.0
C2157 C 0.24346 0.92215 0.28622 0.0
C2158 C 0.25581 0.92893 0.26978 0.0
C2159 C 0.28852 0.9524 0.21982 0.0
C2160 C 0.27764 0.94392 0.23725 0.0
H2161 H 0.20339 0.9101 0.2938 0.0
H2162 H 0.2235 0.91938 0.26702 0.0
H2163 H 0.27438 0.94781 0.28825 0.0
H2164 H 0.32882 0.97341 0.20751 0.0
H2165 H 0.31118 0.95913 0.23585 0.0
C2166 C 0.18987 0.4309 0.25363 0.0
C2167 C 0.18455 0.42937 0.27381 0.0
C2168 C 0.17909 0.4282 0.2375 0.0
C2169 C 0.14132 0.42773 0.22413 0.0
H2170 H 0.13493 0.39638 0.18341 0.0
C2171 C 0.08318 0.39721 0.17619 0.0
C2172 C 0.08363 0.3929 0.15593 0.0
C2173 C 0.09704 0.40337 0.18851 0.0
C2174 C 0.13678 0.40541 0.19437 0.0
H2175 H 0.16403 0.42427 0.29296 0.0
H2176 H 0.14522 0.41987 0.26478 0.0
H2177 H 0.15657 0.40439 0.20894 0.0
H2178 H 0.09918 0.39183 0.13269 0.0
H2179 H 0.1237 0.40293 0.15431 0.0
H2180 H 0.12167 0.42887 0.20975 0.0
C2181 C 0.15769 0.42305 0.26146 0.0
C2182 C 0.14913 0.40993 0.20903 0.0
C2183 C 0.16838 0.42547 0.27755 0.0
C2184 C 0.09842 0.39502 0.14824 0.0
C2185 C 0.11243 0.40132 0.16064 0.0
C2186 C 0.12915 0.42338 0.20937 0.0
C2187 C 0.16289 0.42423 0.24128 0.0
C2188 C 0.1512 0.42082 0.22436 0.0
C2189 C 0.11188 0.40558 0.18095 0.0
C2190 C 0.12638 0.4118 0.19468 0.0
H2191 H 0.20223 0.43371 0.25034 0.0
H2192 H 0.18338 0.4292 0.22208 0.0
H2193 H 0.14285 0.43634 0.23559 0.0
H2194 H 0.072 0.39564 0.18275 0.0
H2195 H 0.09598 0.40609 0.20417 0.0
C2196 C 0.11804 0.32596 0.92428 0.0
C2197 C 0.13438 0.3375 0.92081 0.0
C2198 C 0.10928 0.32777 0.9401 0.0
C2199 C 0.11461 0.34865 0.9889 0.0
H2200 H 0.0702 0.33931 0.97911 0.0
C2201 C 0.07961 0.36446 0.04747 0.0
C2202 C 0.06287 0.35377 0.04994 0.0
C2203 C 0.08829 0.36241 0.03176 0.0
C2204 C 0.08251 0.34178 0.98223 0.0
H2205 H 0.15438 0.35983 0.9316 0.0
H2206 H 0.13911 0.36302 0.95906 0.0
H2207 H 0.08532 0.3356 0.95189 0.0
H2208 H 0.04217 0.33247 0.03783 0.0
H2209 H 0.05733 0.32873 0.01075 0.0
H2210 H 0.1118 0.35471 0.01926 0.0
C2211 C 0.13307 0.35255 0.94957 0.0
C2212 C 0.09119 0.33966 0.96658 0.0
C2213 C 0.14178 0.3508 0.93368 0.0
C2214 C 0.05503 0.34098 0.03634 0.0
C2215 C 0.06373 0.33888 0.02069 0.0
C2216 C 0.10591 0.35069 1.00458 0.0
C2217 C 0.11668 0.34109 0.95294 0.0
C2218 C 0.10736 0.34311 0.9697 0.0
C2219 C 0.08048 0.34957 0.01817 0.0
C2220 C 0.08975 0.34733 1.00146 0.0
H2221 H 0.11193 0.31564 0.91457 0.0
H2222 H 0.09672 0.31865 0.94239 0.0
H2223 H 0.12697 0.35121 0.9919 0.0
H2224 H 0.08603 0.37449 0.05761 0.0
H2225 H 0.10111 0.37102 0.03014 0.0
C2226 C 0.70026 0.85454 0.88476 0.0
C2227 C 0.6928 0.86368 0.8879 0.0
C2228 C 0.70368 0.84755 0.90132 0.0
C2229 C 0.70768 0.84897 0.95792 0.0
H2230 H 0.69274 0.80434 0.9532 0.0
C2231 C 0.69671 0.81003 0.02883 0.0
C2232 C 0.69964 0.79732 0.02755 0.0
C2233 C 0.69778 0.81885 0.01156 0.0
C2234 C 0.69725 0.81686 0.9548 0.0
H2235 H 0.68381 0.87326 0.91084 0.0
H2236 H 0.69005 0.86153 0.93944 0.0
H2237 H 0.69239 0.81887 0.92342 0.0
H2238 H 0.70636 0.78421 0.00698 0.0
H2239 H 0.70854 0.7997 0.97713 0.0
H2240 H 0.71246 0.84702 0.98926 0.0
C2241 C 0.69326 0.85962 0.92437 0.0
C2242 C 0.69706 0.82521 0.93763 0.0
C2243 C 0.68963 0.86634 0.90791 0.0
C2244 C 0.70392 0.79385 0.00859 0.0
C2245 C 0.70507 0.80271 0.99136 0.0
C2246 C 0.70797 0.84066 0.97505 0.0
C2247 C 0.69997 0.84982 0.92134 0.0
C2248 C 0.702 0.84133 0.93901 0.0
C2249 C 0.70189 0.81528 0.99249 0.0
C2250 C 0.7025 0.82439 0.97388 0.0
H2251 H 0.70262 0.85209 0.8695 0.0
H2252 H 0.70894 0.84014 0.89843 0.0
H2253 H 0.7118 0.86142 0.95953 0.0
H2254 H 0.6933 0.81303 0.04312 0.0
H2255 H 0.69498 0.82826 0.01312 0.0
C2256 C 0.23392 0.9127 0.93411 0.0
C2257 C 0.22522 0.89614 0.93511 0.0
C2258 C 0.24176 0.92184 0.9513 0.0
C2259 C 0.24291 0.92078 0.0075 0.0
H2260 H 0.28589 0.95729 1.00058 0.0
C2261 C 0.28692 0.95722 0.07416 0.0
C2262 C 0.29692 0.97352 0.07112 0.0
C2263 C 0.27647 0.94752 0.05861 0.0
C2264 C 0.27379 0.94728 1.00278 0.0
H2265 H 0.21781 0.87628 0.95526 0.0
H2266 H 0.2318 0.89223 0.98516 0.0
H2267 H 0.27147 0.94087 0.9714 0.0
H2268 H 0.30275 0.99259 0.05015 0.0
H2269 H 0.28435 0.97584 0.02343 0.0
H2270 H 0.24541 0.92722 0.03905 0.0
C2271 C 0.2324 0.89813 0.97106 0.0
C2272 C 0.26552 0.93783 0.98601 0.0
C2273 C 0.22455 0.88897 0.95383 0.0
C2274 C 0.29537 0.98005 0.05287 0.0
C2275 C 0.28491 0.97042 0.03748 0.0
C2276 C 0.25122 0.93027 0.02436 0.0
C2277 C 0.24116 0.91468 0.96998 0.0
C2278 C 0.24994 0.92452 0.98809 0.0
C2279 C 0.27581 0.95398 0.03982 0.0
C2280 C 0.26672 0.94371 0.02215 0.0
H2281 H 0.23483 0.91864 0.91997 0.0
H2282 H 0.24823 0.93456 0.94995 0.0
H2283 H 0.23086 0.91068 0.00961 0.0
H2284 H 0.28789 0.95184 0.08804 0.0
H2285 H 0.26962 0.9349 0.06092 0.0
C2286 C 0.724 0.91984 0.39762 0.0
C2287 C 0.71691 0.92017 0.37897 0.0
C2288 C 0.7191 0.9237 0.41576 0.0
C2289 C 0.70302 0.94891 0.43288 0.0
H2290 H 0.69998 0.93028 0.48562 0.0
C2291 C 0.68802 0.97409 0.50266 0.0
C2292 C 0.69633 0.97551 0.52098 0.0
C2293 C 0.68856 0.96508 0.48655 0.0
C2294 C 0.70094 0.93573 0.47105 0.0
H2295 H 0.69929 0.925 0.36468 0.0
H2296 H 0.6903 0.93128 0.39629 0.0
H2297 H 0.70382 0.91803 0.45523 0.0
H2298 H 0.71125 0.96801 0.53705 0.0
H2299 H 0.71269 0.95252 0.50851 0.0
H2300 H 0.7008 0.96689 0.4484 0.0
C2301 C 0.69957 0.92789 0.39699 0.0
C2302 C 0.70307 0.92865 0.4536 0.0
C2303 C 0.70444 0.92395 0.37888 0.0
C2304 C 0.70466 0.96708 0.52313 0.0
C2305 C 0.70546 0.9582 0.50675 0.0
C2306 C 0.70105 0.95603 0.45023 0.0
C2307 C 0.70721 0.92831 0.41561 0.0
C2308 C 0.70408 0.93514 0.43426 0.0
C2309 C 0.69776 0.95743 0.488 0.0
C2310 C 0.69989 0.94954 0.46962 0.0
H2311 H 0.73392 0.91731 0.39804 0.0
H2312 H 0.72537 0.92404 0.42972 0.0
H2313 H 0.7042 0.95453 0.41837 0.0
H2314 H 0.68128 0.98026 0.50061 0.0
H2315 H 0.68198 0.96439 0.47273 0.0
C2316 C 0.17241 0.88311 0.44502 0.0
C2317 C 0.17756 0.87859 0.42757 0.0
C2318 C 0.16574 0.87285 0.46136 0.0
C2319 C 0.143 0.83074 0.47319 0.0
H2320 H 0.15155 0.84588 0.52885 0.0
C2321 C 0.10996 0.78992 0.54172 0.0
C2322 C 0.10546 0.79649 0.55773 0.0
C2323 C 0.11987 0.79942 0.52597 0.0
C2324 C 0.14887 0.84146 0.5134 0.0
H2325 H 0.18013 0.85984 0.4138 0.0
H2326 H 0.16829 0.84172 0.4425 0.0
H2327 H 0.16765 0.86339 0.5016 0.0
H2328 H 0.10771 0.81822 0.56943 0.0
H2329 H 0.12462 0.83464 0.54193 0.0
H2330 H 0.1239 0.80894 0.48493 0.0
C2331 C 0.16947 0.85329 0.44345 0.0
C2332 C 0.15818 0.85151 0.49776 0.0
C2333 C 0.1764 0.86371 0.42712 0.0
C2334 C 0.11098 0.81275 0.55745 0.0
C2335 C 0.12082 0.82221 0.5417 0.0
C2336 C 0.1336 0.82069 0.48885 0.0
C2337 C 0.16384 0.85768 0.46066 0.0
C2338 C 0.15519 0.84638 0.47742 0.0
C2339 C 0.12553 0.81573 0.5258 0.0
C2340 C 0.13621 0.82601 0.50916 0.0
H2341 H 0.17312 0.89449 0.44584 0.0
H2342 H 0.1614 0.87659 0.47423 0.0
H2343 H 0.14024 0.82646 0.45767 0.0
H2344 H 0.10599 0.77745 0.54147 0.0
H2345 H 0.12333 0.794 0.51411 0.0
C2346 C 0.21798 0.41492 0.42516 0.0
C2347 C 0.23037 0.42651 0.41311 0.0
C2348 C 0.22185 0.40994 0.44316 0.0
C2349 C 0.23405 0.40516 0.48466 0.0
H2350 H 0.2683 0.39509 0.47575 0.0
C2351 C 0.26466 0.38475 0.54604 0.0
C2352 C 0.2679 0.37287 0.53965 0.0
C2353 C 0.25782 0.39091 0.53249 0.0
C2354 C 0.25867 0.39779 0.47846 0.0
H2355 H 0.25644 0.44262 0.4112 0.0
H2356 H 0.26316 0.43399 0.4426 0.0
H2357 H 0.26166 0.40824 0.44928 0.0
H2358 H 0.26499 0.35705 0.51476 0.0
H2359 H 0.25311 0.36774 0.49134 0.0
H2360 H 0.23112 0.39452 0.51397 0.0
C2361 C 0.25047 0.42868 0.43802 0.0
C2362 C 0.25501 0.4055 0.4634 0.0
C2363 C 0.2466 0.43372 0.42012 0.0
C2364 C 0.26289 0.36636 0.52009 0.0
C2365 C 0.25614 0.37251 0.50663 0.0
C2366 C 0.23788 0.39758 0.49993 0.0
C2367 C 0.23819 0.41639 0.44938 0.0
C2368 C 0.24259 0.40918 0.46623 0.0
C2369 C 0.25418 0.38527 0.5124 0.0
C2370 C 0.25008 0.39363 0.4968 0.0
H2371 H 0.20535 0.40931 0.42029 0.0
H2372 H 0.21213 0.40043 0.45157 0.0
H2373 H 0.22443 0.40788 0.48723 0.0
H2374 H 0.26835 0.39 0.56102 0.0
H2375 H 0.25639 0.40073 0.53732 0.0
C2376 C 0.2114 0.35482 0.78797 0.0
C2377 C 0.19427 0.3454 0.78727 0.0
C2378 C 0.22061 0.35828 0.77025 0.0
C2379 C 0.21688 0.35903 0.71418 0.0
H2380 H 0.25822 0.35973 0.71455 0.0
C2381 C 0.2489 0.35743 0.64094 0.0
C2382 C 0.26597 0.36687 0.63982 0.0
C2383 C 0.24077 0.35621 0.65904 0.0
C2384 C 0.24681 0.3598 0.71426 0.0
H2385 H 0.17352 0.33219 0.76711 0.0
H2386 H 0.18956 0.33781 0.73642 0.0
H2387 H 0.24275 0.35439 0.74588 0.0
H2388 H 0.28788 0.38265 0.65685 0.0
H2389 H 0.27361 0.38046 0.68866 0.0
H2390 H 0.2208 0.36413 0.68248 0.0
C2391 C 0.19587 0.34279 0.75065 0.0
C2392 C 0.23792 0.35673 0.73223 0.0
C2393 C 0.18665 0.33937 0.76836 0.0
C2394 C 0.27472 0.37529 0.65721 0.0
C2395 C 0.26656 0.37396 0.67545 0.0
C2396 C 0.22572 0.36202 0.69623 0.0
C2397 C 0.21297 0.35236 0.75133 0.0
C2398 C 0.22275 0.35615 0.73238 0.0
C2399 C 0.24949 0.36433 0.67657 0.0
C2400 C 0.24071 0.36228 0.696 0.0
H2401 H 0.21776 0.35952 0.80222 0.0
H2402 H 0.23373 0.36578 0.77138 0.0
H2403 H 0.20544 0.35903 0.71378 0.0
H2404 H 0.24176 0.35078 0.62784 0.0
H2405 H 0.22765 0.34855 0.65942 0.0
C2406 C 0.68752 0.91858 0.78112 0.0
C2407 C 0.68911 0.90507 0.78129 0.0
C2408 C 0.69083 0.92771 0.76365 0.0
C2409 C 0.69035 0.92484 0.70812 0.0
H2410 H 0.71155 0.97042 0.71139 0.0
C2411 C 0.69687 0.9638 0.63761 0.0
C2412 C 0.69529 0.97717 0.64105 0.0
C2413 C 0.69761 0.95495 0.65395 0.0
C2414 C 0.70541 0.95769 0.71016 0.0
H2415 H 0.69558 0.89056 0.76321 0.0
H2416 H 0.70127 0.90652 0.73226 0.0
H2417 H 0.71106 0.95551 0.7411 0.0
H2418 H 0.69292 0.99144 0.66456 0.0
H2419 H 0.69381 0.97598 0.69273 0.0
H2420 H 0.68424 0.92699 0.67734 0.0
C2421 C 0.69759 0.91011 0.74587 0.0
C2422 C 0.70523 0.94913 0.72724 0.0
C2423 C 0.69453 0.90108 0.76362 0.0
C2424 C 0.69426 0.98131 0.66124 0.0
C2425 C 0.69492 0.97246 0.6775 0.0
C2426 C 0.69042 0.93342 0.69101 0.0
C2427 C 0.69556 0.92345 0.74562 0.0
C2428 C 0.69745 0.93257 0.72661 0.0
C2429 C 0.69675 0.95921 0.6742 0.0
C2430 C 0.69768 0.94999 0.69187 0.0
H2431 H 0.68317 0.92184 0.79444 0.0
H2432 H 0.68895 0.93774 0.76405 0.0
H2433 H 0.68411 0.9121 0.70711 0.0
H2434 H 0.69776 0.96027 0.6223 0.0
H2435 H 0.69915 0.94493 0.65069 0.0
C2436 C 0.16162 0.8368 0.7962 0.0
C2437 C 0.17874 0.84578 0.7967 0.0
C2438 C 0.15326 0.83027 0.778 0.0
C2439 C 0.15818 0.81902 0.72592 0.0
H2440 H 0.11733 0.8184 0.71686 0.0
C2441 C 0.11759 0.79157 0.65355 0.0
C2442 C 0.10133 0.78052 0.65825 0.0
C2443 C 0.12824 0.80169 0.66869 0.0
C2444 C 0.12874 0.81852 0.71915 0.0
H2445 H 0.20051 0.85484 0.77835 0.0
H2446 H 0.18591 0.84346 0.74651 0.0
H2447 H 0.13372 0.83153 0.74692 0.0
H2448 H 0.08331 0.77189 0.68217 0.0
H2449 H 0.10164 0.78956 0.70822 0.0
H2450 H 0.15297 0.80579 0.69812 0.0
C2451 C 0.17895 0.84132 0.76029 0.0
C2452 C 0.13809 0.82596 0.73644 0.0
C2453 C 0.18733 0.84782 0.77856 0.0
C2454 C 0.09578 0.78021 0.67807 0.0
C2455 C 0.10627 0.79041 0.693 0.0
C2456 C 0.14883 0.81164 0.7085 0.0
C2457 C 0.1618 0.83261 0.75975 0.0
C2458 C 0.15271 0.82595 0.74034 0.0
C2459 C 0.12266 0.80112 0.6886 0.0
C2460 C 0.13381 0.81097 0.70523 0.0
H2461 H 0.15466 0.83478 0.80994 0.0
H2462 H 0.14007 0.8233 0.77827 0.0
H2463 H 0.16933 0.81873 0.72847 0.0
H2464 H 0.1222 0.79203 0.63842 0.0
H2465 H 0.14082 0.80988 0.6649 0.0
C2466 C 0.37181 0.2092 0.65505 0.0
C2467 C 0.38088 0.22546 0.65129 0.0
C2468 C 0.367 0.19829 0.63893 0.0
C2469 C 0.36374 0.19489 0.58208 0.0
H2470 H 0.36992 0.15913 0.59088 0.0
C2471 C 0.37031 0.1579 0.51689 0.0
C2472 C 0.36314 0.14158 0.52002 0.0
C2473 C 0.37021 0.16778 0.53236 0.0
C2474 C 0.36792 0.16894 0.58819 0.0
H2475 H 0.39121 0.243 0.62755 0.0
H2476 H 0.38314 0.22422 0.59984 0.0
H2477 H 0.37308 0.17646 0.61919 0.0
H2478 H 0.3493 0.12278 0.5414 0.0
H2479 H 0.34903 0.13986 0.56796 0.0
H2480 H 0.35906 0.18753 0.55086 0.0
C2481 C 0.37954 0.21973 0.61506 0.0
C2482 C 0.36967 0.17886 0.6045 0.0
C2483 C 0.38431 0.23056 0.63107 0.0
C2484 C 0.35516 0.13532 0.5385 0.0
C2485 C 0.35506 0.14512 0.55384 0.0
C2486 C 0.3621 0.185 0.56572 0.0
C2487 C 0.37112 0.20344 0.61874 0.0
C2488 C 0.36775 0.19207 0.60167 0.0
C2489 C 0.36294 0.16152 0.55121 0.0
C2490 C 0.36425 0.17194 0.56855 0.0
H2491 H 0.36896 0.20488 0.67044 0.0
H2492 H 0.3603 0.18582 0.64234 0.0
H2493 H 0.36194 0.20481 0.57934 0.0
H2494 H 0.37657 0.16311 0.50287 0.0
H2495 H 0.37642 0.18039 0.52986 0.0
C2496 C 0.92257 0.2521 0.62337 0.0
C2497 C 0.91629 0.23579 0.62103 0.0
C2498 C 0.93076 0.26244 0.60748 0.0
C2499 C 0.93333 0.26371 0.55198 0.0
H2500 H 0.97213 0.30433 0.56137 0.0
C2501 C 0.96593 0.30746 0.48639 0.0
C2502 C 0.9722 0.32358 0.49057 0.0
C2503 C 0.96015 0.2964 0.50208 0.0
C2504 C 0.96119 0.29312 0.55848 0.0
H2505 H 0.91394 0.21758 0.60021 0.0
H2506 H 0.92826 0.23566 0.57235 0.0
H2507 H 0.96044 0.28575 0.58923 0.0
H2508 H 0.97723 0.34066 0.51459 0.0
H2509 H 0.96684 0.32145 0.54175 0.0
H2510 H 0.93373 0.2712 0.52142 0.0
C2511 C 0.9268 0.24042 0.58654 0.0
C2512 C 0.95454 0.28243 0.57447 0.0
C2513 C 0.91875 0.23009 0.60255 0.0
C2514 C 0.97259 0.32836 0.51081 0.0
C2515 C 0.96671 0.31731 0.52645 0.0
C2516 C 0.93989 0.27445 0.53602 0.0
C2517 C 0.93276 0.25671 0.58876 0.0
C2518 C 0.94044 0.26766 0.57146 0.0
C2519 C 0.96039 0.30116 0.52234 0.0
C2520 C 0.95384 0.28938 0.53908 0.0
H2521 H 0.92097 0.25686 0.63747 0.0
H2522 H 0.93509 0.27489 0.60966 0.0
H2523 H 0.92234 0.25251 0.54922 0.0
H2524 H 0.96552 0.30336 0.47099 0.0
H2525 H 0.95561 0.28411 0.49831 0.0
C2526 C 0.84317 0.74862 0.60744 0.0
C2527 C 0.85884 0.7607 0.61313 0.0
C2528 C 0.83754 0.74742 0.58756 0.0
C2529 C 0.83211 0.74204 0.54248 0.0
H2530 H 0.83438 0.77864 0.51692 0.0
C2531 C 0.79328 0.73412 0.4721 0.0
C2532 C 0.78326 0.74071 0.47525 0.0
C2533 C 0.8073 0.739 0.48408 0.0
C2534 C 0.83381 0.76834 0.52374 0.0
H2535 H 0.88082 0.78115 0.6023 0.0
H2536 H 0.87079 0.7792 0.5675 0.0
H2537 H 0.84915 0.7818 0.54872 0.0
H2538 H 0.78093 0.75868 0.49173 0.0
H2539 H 0.80515 0.7671 0.5125 0.0
H2540 H 0.81595 0.72841 0.51837 0.0
C2541 C 0.86294 0.77063 0.57854 0.0
C2542 C 0.84235 0.77017 0.54189 0.0
C2543 C 0.86864 0.77179 0.59849 0.0
C2544 C 0.78832 0.75325 0.48914 0.0
C2545 C 0.80233 0.75819 0.50094 0.0
C2546 C 0.8236 0.74022 0.52438 0.0
C2547 C 0.8474 0.75831 0.57284 0.0
C2548 C 0.841 0.75692 0.55187 0.0
C2549 C 0.81159 0.75065 0.49921 0.0
C2550 C 0.8238 0.75325 0.51525 0.0
H2551 H 0.83516 0.74009 0.61838 0.0
H2552 H 0.82533 0.73804 0.58379 0.0
H2553 H 0.83112 0.73166 0.54964 0.0
H2554 H 0.78969 0.72446 0.46144 0.0
H2555 H 0.81432 0.7331 0.48223 0.0
C2556 C 0.79053 0.67267 0.23772 0.0
C2557 C 0.79749 0.68476 0.22327 0.0
C2558 C 0.78422 0.67489 0.25581 0.0
C2559 C 0.77022 0.70038 0.27998 0.0
H2560 H 0.78075 0.68689 0.33026 0.0
C2561 C 0.76419 0.72361 0.35805 0.0
C2562 C 0.75779 0.71283 0.37409 0.0
C2563 C 0.76787 0.71918 0.33952 0.0
C2564 C 0.77752 0.69055 0.31634 0.0
H2565 H 0.80261 0.70841 0.21622 0.0
H2566 H 0.79196 0.71239 0.24776 0.0
H2567 H 0.78884 0.68069 0.29798 0.0
H2568 H 0.75028 0.6889 0.38319 0.0
H2569 H 0.75673 0.68117 0.35081 0.0
H2570 H 0.75917 0.71049 0.29835 0.0
C2571 C 0.79127 0.70114 0.24513 0.0
C2572 C 0.78213 0.68697 0.29782 0.0
C2573 C 0.79758 0.69893 0.22712 0.0
C2574 C 0.75521 0.69751 0.37117 0.0
C2575 C 0.75897 0.69309 0.35264 0.0
C2576 C 0.76566 0.704 0.29847 0.0
C2577 C 0.78464 0.68922 0.25981 0.0
C2578 C 0.77872 0.69201 0.27942 0.0
C2579 C 0.76531 0.70387 0.33659 0.0
C2580 C 0.76943 0.69929 0.31689 0.0
H2581 H 0.79034 0.66164 0.2353 0.0
H2582 H 0.77904 0.66539 0.26668 0.0
H2583 H 0.76712 0.70419 0.26609 0.0
H2584 H 0.76635 0.73551 0.35977 0.0
H2585 H 0.77296 0.72784 0.32756 0.0
C2586 C 0.37402 0.2141 0.27773 0.0
C2587 C 0.3711 0.20668 0.2586 0.0
C2588 C 0.3732 0.20594 0.29552 0.0
C2589 C 0.35852 0.16566 0.31643 0.0
H2590 H 0.39176 0.18842 0.35755 0.0
C2591 C 0.37019 0.13361 0.38241 0.0
C2592 C 0.37359 0.14058 0.40186 0.0
C2593 C 0.36943 0.14176 0.36541 0.0
C2594 C 0.38225 0.18191 0.34637 0.0
H2595 H 0.36456 0.18459 0.2434 0.0
H2596 H 0.36324 0.17041 0.27433 0.0
H2597 H 0.39072 0.20211 0.32727 0.0
H2598 H 0.37898 0.16181 0.41851 0.0
H2599 H 0.37764 0.17606 0.38883 0.0
H2600 H 0.35018 0.14542 0.33545 0.0
C2601 C 0.366 0.18253 0.27565 0.0
C2602 C 0.38163 0.18978 0.32895 0.0
C2603 C 0.36678 0.19068 0.25784 0.0
C2604 C 0.37638 0.15606 0.40379 0.0
C2605 C 0.37566 0.16426 0.38672 0.0
C2606 C 0.35917 0.15778 0.33383 0.0
C2607 C 0.36949 0.19012 0.29475 0.0
C2608 C 0.3698 0.18177 0.31365 0.0
C2609 C 0.37207 0.15718 0.36729 0.0
C2610 C 0.3711 0.16576 0.34902 0.0
H2611 H 0.37733 0.22638 0.27898 0.0
H2612 H 0.37564 0.21213 0.30991 0.0
H2613 H 0.34906 0.15911 0.30522 0.0
H2614 H 0.36802 0.12174 0.38025 0.0
H2615 H 0.36692 0.13599 0.35071 0.0
C2616 C 0.86034 0.25893 0.26374 0.0
C2617 C 0.85796 0.2693 0.25137 0.0
C2618 C 0.86865 0.26407 0.28228 0.0
C2619 C 0.88304 0.29632 0.32063 0.0
H2620 H 0.91604 0.285 0.3326 0.0
C2621 C 0.93986 0.33477 0.36838 0.0
C2622 C 0.94592 0.32784 0.38191 0.0
C2623 C 0.92642 0.32547 0.356 0.0
C2624 C 0.90664 0.28799 0.32973 0.0
H2625 H 0.86235 0.29315 0.24888 0.0
H2626 H 0.87702 0.30222 0.28108 0.0
H2627 H 0.89775 0.27294 0.30356 0.0
H2628 H 0.94236 0.30569 0.39356 0.0
H2629 H 0.91881 0.28922 0.37131 0.0
H2630 H 0.89246 0.31192 0.34627 0.0
C2631 C 0.87219 0.29001 0.27665 0.0
C2632 C 0.89616 0.28111 0.31306 0.0
C2633 C 0.86383 0.28485 0.25814 0.0
C2634 C 0.93791 0.31132 0.38326 0.0
C2635 C 0.92452 0.30194 0.37052 0.0
C2636 C 0.89354 0.30324 0.33721 0.0
C2637 C 0.8748 0.27972 0.28889 0.0
C2638 C 0.88455 0.28553 0.30798 0.0
C2639 C 0.91878 0.30897 0.35663 0.0
C2640 C 0.90576 0.29948 0.34158 0.0
H2641 H 0.85567 0.24678 0.2592 0.0
H2642 H 0.87021 0.25577 0.29147 0.0
H2643 H 0.87397 0.2997 0.31743 0.0
H2644 H 0.9457 0.34748 0.3671 0.0
H2645 H 0.92244 0.33125 0.3453 0.0
C2646 C 0.41008 0.272 0.77978 0.0
C2647 C 0.39781 0.2603 0.76741 0.0
C2648 C 0.40665 0.27499 0.79932 0.0
C2649 C 0.3727 0.27073 0.83127 0.0
H2650 H 0.40694 0.2875 0.87233 0.0
C2651 C 0.36712 0.29722 0.90827 0.0
C2652 C 0.37947 0.31308 0.91022 0.0
C2653 C 0.36838 0.28739 0.89368 0.0
C2654 C 0.3972 0.2827 0.8611 0.0
H2655 H 0.37229 0.24219 0.76625 0.0
H2656 H 0.36628 0.24726 0.80076 0.0
H2657 H 0.41043 0.27582 0.84139 0.0
H2658 H 0.40308 0.33089 0.8993 0.0
H2659 H 0.40567 0.31361 0.87463 0.0
H2660 H 0.35959 0.27783 0.85115 0.0
C2661 C 0.37857 0.25429 0.79511 0.0
C2662 C 0.39923 0.27611 0.84326 0.0
C2663 C 0.38202 0.2513 0.77538 0.0
C2664 C 0.39349 0.31866 0.89824 0.0
C2665 C 0.39494 0.30877 0.88412 0.0
C2666 C 0.37058 0.27713 0.84932 0.0
C2667 C 0.39085 0.26631 0.80729 0.0
C2668 C 0.3873 0.2706 0.82771 0.0
C2669 C 0.38221 0.29317 0.88123 0.0
C2670 C 0.38305 0.28367 0.86409 0.0
H2671 H 0.42239 0.27922 0.77424 0.0
H2672 H 0.41639 0.28456 0.80789 0.0
H2673 H 0.36328 0.26672 0.81968 0.0
H2674 H 0.35607 0.29273 0.91709 0.0
H2675 H 0.3584 0.27541 0.89176 0.0
C2676 C 0.84049 0.19359 0.75644 0.0
C2677 C 0.85113 0.18823 0.75057 0.0
C2678 C 0.82983 0.18665 0.77269 0.0
C2679 C 0.82173 0.15974 0.81687 0.0
H2680 H 0.77965 0.15755 0.81602 0.0
C2681 C 0.77002 0.12144 0.87238 0.0
C2682 C 0.76396 0.12959 0.88371 0.0
C2683 C 0.78004 0.12849 0.85565 0.0
C2684 C 0.79139 0.15815 0.81646 0.0
H2685 H 0.85881 0.17126 0.75683 0.0
H2686 H 0.8398 0.15862 0.78458 0.0
H2687 H 0.7984 0.1698 0.78788 0.0
H2688 H 0.76313 0.15128 0.88576 0.0
H2689 H 0.78026 0.16339 0.85599 0.0
H2690 H 0.8143 0.14749 0.84515 0.0
C2691 C 0.83999 0.16857 0.77723 0.0
C2692 C 0.80224 0.16528 0.8004 0.0
C2693 C 0.85088 0.17575 0.76124 0.0
C2694 C 0.7676 0.14469 0.87736 0.0
C2695 C 0.77738 0.15162 0.86033 0.0
C2696 C 0.81075 0.15234 0.83268 0.0
C2697 C 0.82929 0.17392 0.78326 0.0
C2698 C 0.81763 0.16624 0.80037 0.0
C2699 C 0.78398 0.14371 0.8496 0.0
C2700 C 0.79549 0.15151 0.83266 0.0
H2701 H 0.84058 0.20333 0.7486 0.0
H2702 H 0.82215 0.19142 0.77705 0.0
H2703 H 0.83353 0.16051 0.81778 0.0
H2704 H 0.76754 0.10983 0.87687 0.0
H2705 H 0.78487 0.12209 0.84753 0.0
C2706 C 0.88687 0.72922 0.76163 0.0
C2707 C 0.89298 0.74501 0.75598 0.0
C2708 C 0.89396 0.72544 0.77766 0.0
C2709 C 0.90748 0.72106 0.81769 0.0
H2710 H 0.9547 0.74174 0.81586 0.0
C2711 C 0.94742 0.71064 0.87632 0.0
C2712 C 0.96013 0.70893 0.86807 0.0
C2713 C 0.93827 0.71501 0.86398 0.0
C2714 C 0.94151 0.73585 0.81655 0.0
H2715 H 0.91093 0.76924 0.76322 0.0
H2716 H 0.92334 0.76265 0.79134 0.0
H2717 H 0.94023 0.74992 0.79269 0.0
H2718 H 0.97281 0.70997 0.84025 0.0
H2719 H 0.95688 0.71753 0.81887 0.0
H2720 H 0.90883 0.70672 0.84128 0.0
C2721 C 0.91311 0.7532 0.78323 0.0
C2722 C 0.93324 0.74067 0.80345 0.0
C2723 C 0.90592 0.75698 0.76726 0.0
C2724 C 0.96317 0.71124 0.84715 0.0
C2725 C 0.95412 0.71569 0.8349 0.0
C2726 C 0.91579 0.7163 0.83092 0.0
C2727 C 0.90739 0.73736 0.78835 0.0
C2728 C 0.91612 0.73318 0.80366 0.0
C2729 C 0.94176 0.71787 0.84322 0.0
C2730 C 0.93288 0.72347 0.83022 0.0
H2731 H 0.87674 0.71975 0.75342 0.0
H2732 H 0.88935 0.71313 0.78113 0.0
H2733 H 0.89429 0.71515 0.81828 0.0
H2734 H 0.94476 0.70894 0.89237 0.0
H2735 H 0.92881 0.71663 0.87079 0.0
C2736 C 0.86048 0.6773 0.08345 0.0
C2737 C 0.86191 0.69012 0.09476 0.0
C2738 C 0.87194 0.67962 0.06854 0.0
C2739 C 0.91388 0.70889 0.0517 0.0
H2740 H 0.90038 0.68434 1.00183 0.0
C2741 C 0.95593 0.72385 0.98195 0.0
C2742 C 0.95615 0.71114 0.97225 0.0
C2743 C 0.94458 0.72115 0.99715 0.0
C2744 C 0.90435 0.69119 0.01576 0.0
H2745 H 0.87608 0.71548 0.09876 0.0
H2746 H 0.89579 0.7196 0.07259 0.0
H2747 H 0.88012 0.67983 0.02759 0.0
H2748 H 0.9446 0.68562 0.971 0.0
H2749 H 0.92477 0.68096 0.9974 0.0
H2750 H 0.93807 0.72044 0.03961 0.0
C2751 C 0.88618 0.70767 0.07559 0.0
C2752 C 0.89275 0.68858 0.03057 0.0
C2753 C 0.87484 0.70532 0.0906 0.0
C2754 C 0.94479 0.69569 0.97815 0.0
C2755 C 0.93335 0.69299 0.99319 0.0
C2756 C 0.92544 0.71159 0.03681 0.0
C2757 C 0.88499 0.69484 0.06446 0.0
C2758 C 0.89735 0.69742 0.04874 0.0
C2759 C 0.93309 0.70568 1.00283 0.0
C2760 C 0.9208 0.70278 0.01867 0.0
H2761 H 0.85071 0.66545 0.08646 0.0
H2762 H 0.87073 0.66942 0.06047 0.0
H2763 H 0.91798 0.71571 0.06564 0.0
H2764 H 0.9645 0.73589 0.97776 0.0
H2765 H 0.94459 0.73116 1.0042 0.0
C2766 C 0.36743 0.24721 0.14923 0.0
C2767 C 0.36114 0.23084 0.14729 0.0
C2768 C 0.36628 0.25594 0.13308 0.0
C2769 C 0.36058 0.25361 0.07684 0.0
H2770 H 0.35488 0.28983 0.08435 0.0
C2771 C 0.34939 0.284 0.00876 0.0
C2772 C 0.35745 0.30058 0.00851 0.0
C2773 C 0.34956 0.27592 0.02617 0.0
C2774 C 0.35664 0.27984 0.08199 0.0
H2775 H 0.34796 0.21078 0.12707 0.0
H2776 H 0.34556 0.22581 0.09931 0.0
H2777 H 0.3551 0.27487 0.11385 0.0
H2778 H 0.37182 0.32163 0.02675 0.0
H2779 H 0.37213 0.30751 0.05721 0.0
H2780 H 0.36208 0.25851 0.04506 0.0
C2781 C 0.35182 0.23205 0.11305 0.0
C2782 C 0.35677 0.27123 0.09895 0.0
C2783 C 0.35306 0.22336 0.12911 0.0
C2784 C 0.36548 0.30887 0.02636 0.0
C2785 C 0.36559 0.30075 0.04387 0.0
C2786 C 0.36039 0.26216 0.05996 0.0
C2787 C 0.35875 0.24854 0.11456 0.0
C2788 C 0.35864 0.25791 0.09662 0.0
C2789 C 0.35776 0.28415 0.04395 0.0
C2790 C 0.35832 0.27535 0.06222 0.0
H2791 H 0.37384 0.25341 0.16294 0.0
H2792 H 0.37187 0.2686 0.13486 0.0
H2793 H 0.36249 0.24372 0.07435 0.0
H2794 H 0.343 0.27716 0.9954 0.0
H2795 H 0.34315 0.26316 0.02569 0.0
C2796 C 0.8196 0.20976 0.10599 0.0
C2797 C 0.81373 0.2202 0.10959 0.0
C2798 C 0.81712 0.20219 0.08727 0.0
C2799 C 0.79013 0.18964 0.04242 0.0
H2800 H 0.82191 0.17898 0.0224 0.0
C2801 C 0.77553 0.14658 0.97529 0.0
C2802 C 0.7771 0.13359 0.98103 0.0
C2803 C 0.78276 0.1604 0.98705 0.0
C2804 C 0.81299 0.18199 0.02771 0.0
H2805 H 0.80087 0.23105 0.09604 0.0
H2806 H 0.79673 0.21796 0.06305 0.0
H2807 H 0.82913 0.19752 0.05069 0.0
H2808 H 0.78847 0.12528 1.00254 0.0
H2809 H 0.80136 0.14947 0.02274 0.0
H2810 H 0.77389 0.17381 0.01965 0.0
C2811 C 0.8031 0.21552 0.07492 0.0
C2812 C 0.81706 0.19252 0.04398 0.0
C2813 C 0.80556 0.2231 0.09377 0.0
C2814 C 0.78702 0.13509 0.99779 0.0
C2815 C 0.79446 0.14897 0.0093 0.0
C2816 C 0.78612 0.17923 0.02599 0.0
C2817 C 0.80881 0.20492 0.07149 0.0
C2818 C 0.80547 0.196 0.05204 0.0
C2819 C 0.79193 0.16155 1.00447 0.0
C2820 C 0.79733 0.17489 0.01895 0.0
H2821 H 0.82626 0.20744 0.11756 0.0
H2822 H 0.82144 0.19392 0.08536 0.0
H2823 H 0.78086 0.19195 0.0483 0.0
H2824 H 0.7679 0.14573 0.96248 0.0
H2825 H 0.7807 0.16998 0.98296 0.0
loop_
_geom_bond_atom_site_label_1
_geom_bond_atom_site_label_2
_geom_bond_distance
_geom_bond_site_symmetry_2
_ccdc_geom_bond_type
Cu0 N1 1.999 . S
Cu0 O6 1.974 1_554 S
Cu0 N11 1.985 1_554 S
Cu0 O20 1.959 . S
N1 Cu0 1.999 . S
N1 C3 1.263 . S
N1 C5 1.389 . S
N2 C3 1.358 . S
N2 C4 1.400 . S
C3 N1 1.263 . S
C3 N2 1.358 . S
C3 H9 0.930 . S
C4 N2 1.400 . S
C4 C5 1.351 . S
C4 H21 0.930 . S
C5 N1 1.389 . S
C5 C4 1.351 . S
C5 H10 0.930 . S
O6 Cu0 1.974 1_556 S
O6 C16 1.282 . S
C7 O8 1.261 . S
C7 O20 1.251 . S
O8 C7 1.261 . S
H9 C3 0.930 . S
H10 C5 0.930 . S
N11 Cu0 1.985 1_556 S
N11 C13 1.335 . S
N11 C14 1.390 . S
N12 C13 1.345 . S
N12 C15 1.336 . S
C13 N11 1.335 . S
C13 N12 1.345 . S
C13 H18 0.930 . S
C14 N11 1.390 . S
C14 C15 1.346 . S
C14 H19 0.930 . S
C15 N12 1.336 . S
C15 C14 1.346 . S
C15 H22 0.929 . S
C16 O6 1.282 . S
C16 O17 1.216 . S
O17 C16 1.216 . S
H18 C13 0.930 . S
H19 C14 0.930 . S
O20 Cu0 1.959 . S
O20 C7 1.251 . S
H21 C4 0.930 . S
H22 C15 0.929 . S
Cu23 N24 1.999 1_554 S
Cu23 O29 1.974 . S
Cu23 N34 1.985 . S
Cu23 O43 1.959 1_554 S
N24 Cu23 1.999 1_556 S
N24 C26 1.263 . S
N24 C28 1.389 . S
N25 C26 1.358 . S
N25 C27 1.400 . S
C26 N24 1.263 . S
C26 N25 1.358 . S
C26 H32 0.930 . S
C27 N25 1.400 . S
C27 C28 1.351 . S
C27 H44 0.930 . S
C28 N24 1.389 . S
C28 C27 1.351 . S
C28 H33 0.930 . S
O29 Cu23 1.974 . S
O29 C39 1.282 . S
C30 O31 1.263 . S
C30 O43 1.251 . S
O31 C30 1.263 . S
H32 C26 0.930 . S
H33 C28 0.930 . S
N34 Cu23 1.985 . S
N34 C36 1.335 . S
N34 C37 1.390 . S
N35 C36 1.345 . S
N35 C38 1.336 . S
C36 N34 1.335 . S
C36 N35 1.345 . S
C36 H41 0.930 . S
C37 N34 1.390 . S
C37 C38 1.346 . S
C37 H42 0.930 . S
C38 N35 1.336 . S
C38 C37 1.346 . S
C38 H45 0.929 . S
C39 O29 1.282 . S
C39 O40 1.216 . S
O40 C39 1.216 . S
H41 C36 0.930 . S
H42 C37 0.930 . S
O43 Cu23 1.959 1_556 S
O43 C30 1.251 . S
H44 C27 0.930 . S
H45 C38 0.929 . S
Cu46 N47 1.999 1_554 S
Cu46 O52 1.974 . S
Cu46 N57 1.985 . S
Cu46 O66 1.959 . S
N47 Cu46 1.999 1_556 S
N47 C49 1.263 . S
N47 C51 1.389 . S
N48 C49 1.358 . S
N48 C50 1.400 . S
C49 N47 1.263 . S
C49 N48 1.358 . S
C49 H55 0.930 . S
C50 N48 1.400 . S
C50 C51 1.351 . S
C50 H67 0.930 . S
C51 N47 1.389 . S
C51 C50 1.351 . S
C51 H56 0.930 . S
O52 Cu46 1.974 . S
O52 C62 1.282 . S
C53 O54 1.261 . S
C53 O66 1.251 . S
O54 C53 1.261 . S
H55 C49 0.930 . S
H56 C51 0.930 . S
N57 Cu46 1.985 . S
N57 C59 1.335 . S
N57 C60 1.390 . S
N58 C59 1.345 . S
N58 C61 1.336 . S
C59 N57 1.335 . S
C59 N58 1.345 . S
C59 H64 0.930 . S
C60 N57 1.390 . S
C60 C61 1.346 . S
C60 H65 0.930 . S
C61 N58 1.336 . S
C61 C60 1.346 . S
C61 H68 0.929 . S
C62 O52 1.282 . S
C62 O63 1.216 . S
O63 C62 1.216 . S
H64 C59 0.930 . S
H65 C60 0.930 . S
O66 Cu46 1.959 . S
O66 C53 1.251 . S
H67 C50 0.930 . S
H68 C61 0.929 . S
Cu69 N70 1.999 . S
Cu69 O75 1.974 . S
Cu69 N80 1.985 . S
Cu69 O89 1.959 . S
N70 Cu69 1.999 . S
N70 C72 1.263 . S
N70 C74 1.389 . S
N71 C72 1.358 . S
N71 C73 1.400 . S
C72 N70 1.263 . S
C72 N71 1.358 . S
C72 H78 0.930 . S
C73 N71 1.400 . S
C73 C74 1.351 . S
C73 H90 0.930 . S
C74 N70 1.389 . S
C74 C73 1.351 . S
C74 H79 0.930 . S
O75 Cu69 1.974 . S
O75 C85 1.282 . S
C76 O77 1.261 . S
C76 O89 1.251 . S
O77 C76 1.261 . S
H78 C72 0.930 . S
H79 C74 0.930 . S
N80 Cu69 1.985 . S
N80 C82 1.335 . S
N80 C83 1.390 . S
N81 C82 1.345 . S
N81 C84 1.336 . S
C82 N80 1.335 . S
C82 N81 1.345 . S
C82 H87 0.930 . S
C83 N80 1.390 . S
C83 C84 1.346 . S
C83 H88 0.930 . S
C84 N81 1.336 . S
C84 C83 1.346 . S
C84 H91 0.929 . S
C85 O75 1.282 . S
C85 O86 1.216 1_545 S
O86 C85 1.216 1_565 S
H87 C82 0.930 . S
H88 C83 0.930 . S
O89 Cu69 1.959 . S
O89 C76 1.251 . S
H90 C73 0.930 . S
H91 C84 0.929 . S
Cu92 N93 1.999 . S
Cu92 O98 1.974 . S
Cu92 N103 1.985 . S
Cu92 O112 1.959 . S
N93 Cu92 1.999 . S
N93 C95 1.263 . S
N93 C97 1.389 . S
N94 C95 1.358 . S
N94 C96 1.400 . S
C95 N93 1.263 . S
C95 N94 1.358 . S
C95 H101 0.930 . S
C96 N94 1.400 . S
C96 C97 1.351 . S
C96 H113 0.930 . S
C97 N93 1.389 . S
C97 C96 1.351 . S
C97 H102 0.930 . S
O98 Cu92 1.974 . S
O98 C108 1.282 . S
C99 O100 1.261 . S
C99 O112 1.251 . S
O100 C99 1.261 . S
H101 C95 0.930 . S
H102 C97 0.930 . S
N103 Cu92 1.985 . S
N103 C105 1.335 . S
N103 C106 1.390 . S
N104 C105 1.345 . S
N104 C107 1.336 . S
C105 N103 1.335 . S
C105 N104 1.345 . S
C105 H110 0.930 . S
C106 N103 1.390 . S
C106 C107 1.346 . S
C106 H111 0.930 . S
C107 N104 1.336 . S
C107 C106 1.346 . S
C107 H114 0.929 . S
C108 O98 1.282 . S
C108 O109 1.216 . S
O109 C108 1.216 . S
H110 C105 0.930 . S
H111 C106 0.930 . S
O112 Cu92 1.959 . S
O112 C99 1.251 . S
H113 C96 0.930 . S
H114 C107 0.929 . S
Cu115 N116 1.999 . S
Cu115 O121 1.974 . S
Cu115 N126 1.985 . S
Cu115 O135 1.959 . S
N116 Cu115 1.999 . S
N116 C118 1.263 . S
N116 C120 1.389 . S
N117 C118 1.358 . S
N117 C119 1.400 . S
C118 N116 1.263 . S
C118 N117 1.358 . S
C118 H124 0.930 . S
C119 N117 1.400 . S
C119 C120 1.351 . S
C119 H136 0.930 . S
C120 N116 1.389 . S
C120 C119 1.351 . S
C120 H125 0.930 . S
O121 Cu115 1.974 . S
O121 C131 1.282 . S
C122 O123 1.261 . S
C122 O135 1.251 . S
O123 C122 1.261 . S
H124 C118 0.930 . S
H125 C120 0.930 . S
N126 Cu115 1.985 . S
N126 C128 1.335 . S
N126 C129 1.390 . S
N127 C128 1.345 . S
N127 C130 1.336 . S
C128 N126 1.335 . S
C128 N127 1.345 . S
C128 H133 0.930 . S
C129 N126 1.390 . S
C129 C130 1.346 . S
C129 H134 0.930 . S
C130 N127 1.336 . S
C130 C129 1.346 . S
C130 H137 0.929 . S
C131 O121 1.282 . S
C131 O132 1.216 . S
O132 C131 1.216 . S
H133 C128 0.930 . S
H134 C129 0.930 . S
O135 Cu115 1.959 . S
O135 C122 1.251 . S
H136 C119 0.930 . S
H137 C130 0.929 . S
Cu138 N139 1.999 . S
Cu138 O144 1.974 . S
Cu138 N149 1.985 . S
Cu138 O158 1.959 . S
N139 Cu138 1.999 . S
N139 C141 1.263 . S
N139 C143 1.389 . S
N140 C141 1.358 . S
N140 C142 1.400 . S
C141 N139 1.263 . S
C141 N140 1.358 . S
C141 H147 0.930 . S
C142 N140 1.400 . S
C142 C143 1.351 . S
C142 H159 0.930 . S
C143 N139 1.389 . S
C143 C142 1.351 . S
C143 H148 0.930 . S
O144 Cu138 1.974 . S
O144 C154 1.282 . S
C145 O146 1.261 . S
C145 O158 1.251 . S
O146 C145 1.261 . S
H147 C141 0.930 . S
H148 C143 0.930 . S
N149 Cu138 1.985 . S
N149 C151 1.335 . S
N149 C152 1.390 . S
N150 C151 1.345 . S
N150 C153 1.336 . S
C151 N149 1.335 . S
C151 N150 1.345 . S
C151 H156 0.930 . S
C152 N149 1.390 . S
C152 C153 1.346 . S
C152 H157 0.930 . S
C153 N150 1.336 . S
C153 C152 1.346 . S
C153 H160 0.929 . S
C154 O144 1.282 . S
C154 O155 1.216 . S
O155 C154 1.216 . S
H156 C151 0.930 . S
H157 C152 0.930 . S
O158 Cu138 1.959 . S
O158 C145 1.251 . S
H159 C142 0.930 . S
H160 C153 0.929 . S
Cu161 N162 1.999 . S
Cu161 O167 1.974 . S
Cu161 N172 1.985 . S
Cu161 O181 1.959 . S
N162 Cu161 1.999 . S
N162 C164 1.263 . S
N162 C166 1.389 . S
N163 C164 1.358 . S
N163 C165 1.400 . S
C164 N162 1.263 . S
C164 N163 1.358 . S
C164 H170 0.930 . S
C165 N163 1.400 . S
C165 C166 1.351 . S
C165 H182 0.930 . S
C166 N162 1.389 . S
C166 C165 1.351 . S
C166 H171 0.930 . S
O167 Cu161 1.974 . S
O167 C177 1.282 . S
C168 O169 1.261 . S
C168 O181 1.251 . S
O169 C168 1.261 . S
H170 C164 0.930 . S
H171 C166 0.930 . S
N172 Cu161 1.985 . S
N172 C174 1.335 . S
N172 C175 1.390 . S
N173 C174 1.345 . S
N173 C176 1.336 . S
C174 N172 1.335 . S
C174 N173 1.345 . S
C174 H179 0.930 . S
C175 N172 1.390 . S
C175 C176 1.346 . S
C175 H180 0.930 . S
C176 N173 1.336 . S
C176 C175 1.346 . S
C176 H183 0.929 . S
C177 O167 1.282 . S
C177 O178 1.216 . S
O178 C177 1.216 . S
H179 C174 0.930 . S
H180 C175 0.930 . S
O181 Cu161 1.959 . S
O181 C168 1.251 . S
H182 C165 0.930 . S
H183 C176 0.929 . S
Cu184 N185 1.999 . S
Cu184 O190 1.974 . S
Cu184 N195 1.985 . S
Cu184 O204 1.959 . S
N185 Cu184 1.999 . S
N185 C187 1.263 . S
N185 C189 1.389 . S
N186 C187 1.358 . S
N186 C188 1.400 . S
C187 N185 1.263 . S
C187 N186 1.358 . S
C187 H193 0.930 . S
C188 N186 1.400 . S
C188 C189 1.351 . S
C188 H205 0.930 . S
C189 N185 1.389 . S
C189 C188 1.351 . S
C189 H194 0.930 . S
O190 Cu184 1.974 . S
O190 C200 1.282 . S
C191 O192 1.261 . S
C191 O204 1.251 . S
O192 C191 1.261 . S
H193 C187 0.930 . S
H194 C189 0.930 . S
N195 Cu184 1.985 . S
N195 C197 1.335 . S
N195 C198 1.390 . S
N196 C197 1.345 . S
N196 C199 1.336 . S
C197 N195 1.335 . S
C197 N196 1.345 . S
C197 H202 0.930 . S
C198 N195 1.390 . S
C198 C199 1.346 . S
C198 H203 0.930 . S
C199 N196 1.336 . S
C199 C198 1.346 . S
C199 H206 0.929 . S
C200 O190 1.282 . S
C200 O201 1.216 . S
O201 C200 1.216 . S
H202 C197 0.930 . S
H203 C198 0.930 . S
O204 Cu184 1.959 . S
O204 C191 1.251 . S
H205 C188 0.930 . S
H206 C199 0.929 . S
Cu207 N208 1.999 . S
Cu207 O213 1.974 . S
Cu207 N218 1.985 . S
Cu207 O227 1.959 . S
N208 Cu207 1.999 . S
N208 C210 1.263 . S
N208 C212 1.389 . S
N209 C210 1.358 . S
N209 C211 1.400 . S
C210 N208 1.263 . S
C210 N209 1.358 . S
C210 H216 0.930 . S
C211 N209 1.400 . S
C211 C212 1.351 . S
C211 H228 0.930 . S
C212 N208 1.389 . S
C212 C211 1.351 . S
C212 H217 0.930 . S
O213 Cu207 1.974 . S
O213 C223 1.282 . S
C214 O215 1.261 . S
C214 O227 1.251 . S
O215 C214 1.261 . S
H216 C210 0.930 . S
H217 C212 0.930 . S
N218 Cu207 1.985 . S
N218 C220 1.335 . S
N218 C221 1.390 . S
N219 C220 1.345 . S
N219 C222 1.336 . S
C220 N218 1.335 . S
C220 N219 1.345 . S
C220 H225 0.930 . S
C221 N218 1.390 . S
C221 C222 1.346 . S
C221 H226 0.930 . S
C222 N219 1.336 . S
C222 C221 1.346 . S
C222 H229 0.929 . S
C223 O213 1.282 . S
C223 O224 1.216 . S
O224 C223 1.216 . S
H225 C220 0.930 . S
H226 C221 0.930 . S
O227 Cu207 1.959 . S
O227 C214 1.251 . S
H228 C211 0.930 . S
H229 C222 0.929 . S
Cu230 N231 1.999 . S
Cu230 O236 1.974 . S
Cu230 N241 1.985 . S
Cu230 O250 1.959 . S
N231 Cu230 1.999 . S
N231 C233 1.263 . S
N231 C235 1.389 . S
N232 C233 1.358 . S
N232 C234 1.400 . S
C233 N231 1.263 . S
C233 N232 1.358 . S
C233 H239 0.930 . S
C234 N232 1.400 . S
C234 C235 1.351 . S
C234 H251 0.930 . S
C235 N231 1.389 . S
C235 C234 1.351 . S
C235 H240 0.930 . S
O236 Cu230 1.974 . S
O236 C246 1.282 . S
C237 O238 1.261 . S
C237 O250 1.251 . S
O238 C237 1.261 . S
H239 C233 0.930 . S
H240 C235 0.930 . S
N241 Cu230 1.985 . S
N241 C243 1.335 . S
N241 C244 1.390 . S
N242 C243 1.345 . S
N242 C245 1.336 . S
C243 N241 1.335 . S
C243 N242 1.345 . S
C243 H248 0.930 . S
C244 N241 1.390 . S
C244 C245 1.346 . S
C244 H249 0.930 . S
C245 N242 1.336 . S
C245 C244 1.346 . S
C245 H252 0.929 . S
C246 O236 1.282 . S
C246 O247 1.216 . S
O247 C246 1.216 . S
H248 C243 0.930 . S
H249 C244 0.930 . S
O250 Cu230 1.959 . S
O250 C237 1.251 . S
H251 C234 0.930 . S
H252 C245 0.929 . S
Cu253 N254 1.999 . S
Cu253 O259 1.974 . S
Cu253 N264 1.985 . S
Cu253 O273 1.959 . S
N254 Cu253 1.999 . S
N254 C256 1.263 . S
N254 C258 1.389 . S
N255 C256 1.358 . S
N255 C257 1.400 . S
C256 N254 1.263 . S
C256 N255 1.358 . S
C256 H262 0.930 . S
C257 N255 1.400 . S
C257 C258 1.351 . S
C257 H274 0.930 . S
C258 N254 1.389 . S
C258 C257 1.351 . S
C258 H263 0.930 . S
O259 Cu253 1.974 . S
O259 C269 1.282 . S
C260 O261 1.261 . S
C260 O273 1.251 . S
O261 C260 1.261 . S
H262 C256 0.930 . S
H263 C258 0.930 . S
N264 Cu253 1.985 . S
N264 C266 1.335 . S
N264 C267 1.390 . S
N265 C266 1.345 . S
N265 C268 1.336 . S
C266 N264 1.335 . S
C266 N265 1.345 . S
C266 H271 0.930 . S
C267 N264 1.390 . S
C267 C268 1.346 . S
C267 H272 0.930 . S
C268 N265 1.336 . S
C268 C267 1.346 . S
C268 H275 0.929 . S
C269 O259 1.282 . S
C269 O270 1.216 . S
O270 C269 1.216 . S
H271 C266 0.930 . S
H272 C267 0.930 . S
O273 Cu253 1.959 . S
O273 C260 1.251 . S
H274 C257 0.930 . S
H275 C268 0.929 . S
Cu276 N277 1.999 . S
Cu276 O282 1.974 . S
Cu276 N287 1.985 . S
Cu276 O296 1.959 . S
N277 Cu276 1.999 . S
N277 C279 1.263 . S
N277 C281 1.389 . S
N278 C279 1.358 . S
N278 C280 1.400 . S
C279 N277 1.263 . S
C279 N278 1.358 . S
C279 H285 0.930 . S
C280 N278 1.400 . S
C280 C281 1.351 . S
C280 H297 0.930 . S
C281 N277 1.389 . S
C281 C280 1.351 . S
C281 H286 0.930 . S
O282 Cu276 1.974 . S
O282 C292 1.282 . S
C283 O284 1.261 . S
C283 O296 1.251 . S
O284 C283 1.261 . S
H285 C279 0.930 . S
H286 C281 0.930 . S
N287 Cu276 1.985 . S
N287 C289 1.335 . S
N287 C290 1.390 . S
N288 C289 1.345 . S
N288 C291 1.336 . S
C289 N287 1.335 . S
C289 N288 1.345 . S
C289 H294 0.930 . S
C290 N287 1.390 . S
C290 C291 1.346 . S
C290 H295 0.930 . S
C291 N288 1.336 . S
C291 C290 1.346 . S
C291 H298 0.929 . S
C292 O282 1.282 . S
C292 O293 1.216 . S
O293 C292 1.216 . S
H294 C289 0.930 . S
H295 C290 0.930 . S
O296 Cu276 1.959 . S
O296 C283 1.251 . S
H297 C280 0.930 . S
H298 C291 0.929 . S
Cu299 N300 1.999 . S
Cu299 O305 1.974 . S
Cu299 N310 1.985 . S
Cu299 O319 1.959 . S
N300 Cu299 1.999 . S
N300 C302 1.263 . S
N300 C304 1.389 . S
N301 C302 1.358 . S
N301 C303 1.400 . S
C302 N300 1.263 . S
C302 N301 1.358 . S
C302 H308 0.930 . S
C303 N301 1.400 . S
C303 C304 1.351 . S
C303 H320 0.930 . S
C304 N300 1.389 . S
C304 C303 1.351 . S
C304 H309 0.930 . S
O305 Cu299 1.974 . S
O305 C315 1.282 . S
C306 O307 1.261 . S
C306 O319 1.251 . S
O307 C306 1.261 . S
H308 C302 0.930 . S
H309 C304 0.930 . S
N310 Cu299 1.985 . S
N310 C312 1.335 . S
N310 C313 1.390 . S
N311 C312 1.345 . S
N311 C314 1.336 . S
C312 N310 1.335 . S
C312 N311 1.345 . S
C312 H317 0.930 . S
C313 N310 1.390 . S
C313 C314 1.346 . S
C313 H318 0.930 . S
C314 N311 1.336 . S
C314 C313 1.346 . S
C314 H321 0.929 . S
C315 O305 1.282 . S
C315 O316 1.216 . S
O316 C315 1.216 . S
H317 C312 0.930 . S
H318 C313 0.930 . S
O319 Cu299 1.959 . S
O319 C306 1.251 . S
H320 C303 0.930 . S
H321 C314 0.929 . S
Cu322 N323 1.999 . S
Cu322 O328 1.974 . S
Cu322 N333 1.985 . S
Cu322 O342 1.959 . S
N323 Cu322 1.999 . S
N323 C325 1.263 . S
N323 C327 1.389 . S
N324 C325 1.358 . S
N324 C326 1.400 . S
C325 N323 1.263 . S
C325 N324 1.358 . S
C325 H331 0.930 . S
C326 N324 1.400 . S
C326 C327 1.351 . S
C326 H343 0.930 . S
C327 N323 1.389 . S
C327 C326 1.351 . S
C327 H332 0.930 . S
O328 Cu322 1.974 . S
O328 C338 1.282 . S
C329 O330 1.261 . S
C329 O342 1.251 . S
O330 C329 1.261 . S
H331 C325 0.930 . S
H332 C327 0.930 . S
N333 Cu322 1.985 . S
N333 C335 1.335 . S
N333 C336 1.390 . S
N334 C335 1.345 . S
N334 C337 1.336 . S
C335 N333 1.335 . S
C335 N334 1.345 . S
C335 H340 0.930 . S
C336 N333 1.390 . S
C336 C337 1.346 . S
C336 H341 0.930 . S
C337 N334 1.336 . S
C337 C336 1.346 . S
C337 H344 0.929 . S
C338 O328 1.282 . S
C338 O339 1.216 . S
O339 C338 1.216 . S
H340 C335 0.930 . S
H341 C336 0.930 . S
O342 Cu322 1.959 . S
O342 C329 1.251 . S
H343 C326 0.930 . S
H344 C337 0.929 . S
Cu345 N346 1.999 . S
Cu345 O351 1.974 . S
Cu345 N356 1.985 . S
Cu345 O365 1.959 . S
N346 Cu345 1.999 . S
N346 C348 1.263 . S
N346 C350 1.389 . S
N347 C348 1.358 . S
N347 C349 1.400 . S
C348 N346 1.263 . S
C348 N347 1.358 . S
C348 H354 0.930 . S
C349 N347 1.400 . S
C349 C350 1.351 . S
C349 H366 0.930 . S
C350 N346 1.389 . S
C350 C349 1.351 . S
C350 H355 0.930 . S
O351 Cu345 1.974 . S
O351 C361 1.282 . S
C352 O353 1.261 . S
C352 O365 1.251 . S
O353 C352 1.261 . S
H354 C348 0.930 . S
H355 C350 0.930 . S
N356 Cu345 1.985 . S
N356 C358 1.335 . S
N356 C359 1.390 . S
N357 C358 1.345 . S
N357 C360 1.336 . S
C358 N356 1.335 . S
C358 N357 1.345 . S
C358 H363 0.930 . S
C359 N356 1.390 . S
C359 C360 1.346 . S
C359 H364 0.930 . S
C360 N357 1.336 . S
C360 C359 1.346 . S
C360 H367 0.929 . S
C361 O351 1.282 . S
C361 O362 1.216 . S
O362 C361 1.216 . S
H363 C358 0.930 . S
H364 C359 0.930 . S
O365 Cu345 1.959 . S
O365 C352 1.251 . S
H366 C349 0.930 . S
H367 C360 0.929 . S
Cu368 N369 1.999 . S
Cu368 O374 1.974 . S
Cu368 N379 1.985 . S
Cu368 O388 1.959 . S
N369 Cu368 1.999 . S
N369 C371 1.263 . S
N369 C373 1.389 . S
N370 C371 1.358 . S
N370 C372 1.400 . S
C371 N369 1.263 . S
C371 N370 1.358 . S
C371 H377 0.930 . S
C372 N370 1.400 . S
C372 C373 1.351 . S
C372 H389 0.930 . S
C373 N369 1.389 . S
C373 C372 1.351 . S
C373 H378 0.930 . S
O374 Cu368 1.974 . S
O374 C384 1.282 . S
C375 O376 1.261 . S
C375 O388 1.251 . S
O376 C375 1.261 . S
H377 C371 0.930 . S
H378 C373 0.930 . S
N379 Cu368 1.985 . S
N379 C381 1.335 . S
N379 C382 1.390 . S
N380 C381 1.345 . S
N380 C383 1.336 . S
C381 N379 1.335 . S
C381 N380 1.345 . S
C381 H386 0.930 . S
C382 N379 1.390 . S
C382 C383 1.346 . S
C382 H387 0.930 . S
C383 N380 1.336 . S
C383 C382 1.346 . S
C383 H390 0.929 . S
C384 O374 1.282 . S
C384 O385 1.216 . S
O385 C384 1.216 . S
H386 C381 0.930 . S
H387 C382 0.930 . S
O388 Cu368 1.959 . S
O388 C375 1.251 . S
H389 C372 0.930 . S
H390 C383 0.929 . S
Cu391 N392 1.999 . S
Cu391 O397 1.974 . S
Cu391 N402 1.985 . S
Cu391 O411 1.959 . S
N392 Cu391 1.999 . S
N392 C394 1.263 . S
N392 C396 1.389 . S
N393 C394 1.358 . S
N393 C395 1.400 . S
C394 N392 1.263 . S
C394 N393 1.358 . S
C394 H400 0.930 . S
C395 N393 1.400 . S
C395 C396 1.351 . S
C395 H412 0.930 . S
C396 N392 1.389 . S
C396 C395 1.351 . S
C396 H401 0.930 . S
O397 Cu391 1.974 . S
O397 C407 1.282 . S
C398 O399 1.261 . S
C398 O411 1.251 . S
O399 C398 1.261 . S
H400 C394 0.930 . S
H401 C396 0.930 . S
N402 Cu391 1.985 . S
N402 C404 1.335 . S
N402 C405 1.390 . S
N403 C404 1.345 . S
N403 C406 1.336 . S
C404 N402 1.335 . S
C404 N403 1.345 . S
C404 H409 0.930 . S
C405 N402 1.390 . S
C405 C406 1.346 . S
C405 H410 0.930 . S
C406 N403 1.336 . S
C406 C405 1.346 . S
C406 H413 0.929 . S
C407 O397 1.282 . S
C407 O408 1.216 . S
O408 C407 1.216 . S
H409 C404 0.930 . S
H410 C405 0.930 . S
O411 Cu391 1.959 . S
O411 C398 1.251 . S
H412 C395 0.930 . S
H413 C406 0.929 . S
Zn414 O417 2.031 . S
Zn414 O419 2.049 . S
Zn414 O424 2.067 . S
Zn415 O416 1.962 . S
Zn415 O418 1.986 . S
Zn415 O420 1.996 . S
Zn415 O423 1.943 . S
O416 Zn415 1.962 . S
O416 C421 1.254 . S
O417 Zn414 2.031 . S
O417 C421 1.269 . S
O418 Zn415 1.986 . S
O418 C425 1.262 . S
O419 Zn414 2.049 . S
O419 C427 1.260 . S
O420 Zn415 1.996 . S
O420 C427 1.257 . S
C421 O416 1.254 . S
C421 O417 1.269 . S
C422 O423 1.249 1_655 S
C422 O424 1.270 1_655 S
O423 Zn415 1.943 . S
O423 C422 1.249 1_455 S
O424 Zn414 2.067 . S
O424 C422 1.270 1_455 S
C425 O418 1.262 . S
C425 O426 1.232 . S
O426 C425 1.232 . S
C427 O419 1.260 . S
C427 O420 1.257 . S
Zn428 O431 2.031 . S
Zn428 O433 2.049 . S
Zn428 O438 2.067 . S
Zn429 O430 1.962 . S
Zn429 O432 1.986 . S
Zn429 O434 1.996 . S
Zn429 O437 1.943 . S
O430 Zn429 1.962 . S
O430 C435 1.254 . S
O431 Zn428 2.031 . S
O431 C435 1.269 . S
O432 Zn429 1.986 . S
O432 C439 1.262 . S
O433 Zn428 2.049 . S
O433 C441 1.260 . S
O434 Zn429 1.996 . S
O434 C441 1.257 . S
C435 O430 1.254 . S
C435 O431 1.269 . S
C436 O437 1.249 . S
C436 O438 1.270 . S
O437 Zn429 1.943 . S
O437 C436 1.249 . S
O438 Zn428 2.067 . S
O438 C436 1.270 . S
C439 O432 1.262 . S
C439 O440 1.232 . S
O440 C439 1.232 . S
C441 O433 1.260 . S
C441 O434 1.257 . S
Zn442 O445 2.031 . S
Zn442 O447 2.049 . S
Zn442 O452 2.067 . S
Zn443 O444 1.962 . S
Zn443 O446 1.986 . S
Zn443 O448 1.996 . S
Zn443 O451 1.943 . S
O444 Zn443 1.962 . S
O444 C449 1.254 . S
O445 Zn442 2.031 . S
O445 C449 1.269 . S
O446 Zn443 1.986 . S
O446 C453 1.262 . S
O447 Zn442 2.049 . S
O447 C455 1.260 . S
O448 Zn443 1.996 . S
O448 C455 1.257 . S
C449 O444 1.254 . S
C449 O445 1.269 . S
C450 O451 1.249 . S
C450 O452 1.270 . S
O451 Zn443 1.943 . S
O451 C450 1.249 . S
O452 Zn442 2.067 . S
O452 C450 1.270 . S
C453 O446 1.262 . S
C453 O454 1.232 . S
O454 C453 1.232 . S
C455 O447 1.260 . S
C455 O448 1.257 . S
Zn456 O459 2.031 . S
Zn456 O461 2.049 . S
Zn456 O466 2.067 . S
Zn457 O458 1.962 . S
Zn457 O460 1.986 . S
Zn457 O462 1.996 . S
Zn457 O465 1.943 . S
O458 Zn457 1.962 . S
O458 C463 1.254 . S
O459 Zn456 2.031 . S
O459 C463 1.270 . S
O460 Zn457 1.986 . S
O460 C467 1.262 . S
O461 Zn456 2.049 . S
O461 C469 1.260 . S
O462 Zn457 1.996 . S
O462 C469 1.257 . S
C463 O458 1.254 . S
C463 O459 1.270 . S
C464 O465 1.249 . S
C464 O466 1.270 . S
O465 Zn457 1.943 . S
O465 C464 1.249 . S
O466 Zn456 2.067 . S
O466 C464 1.270 . S
C467 O460 1.262 . S
C467 O468 1.232 . S
O468 C467 1.232 . S
C469 O461 1.260 . S
C469 O462 1.257 . S
Zn470 O473 2.031 . S
Zn470 O475 2.049 . S
Zn470 O480 2.067 . S
Zn471 O472 1.962 . S
Zn471 O474 1.986 . S
Zn471 O476 1.996 . S
Zn471 O479 1.943 . S
O472 Zn471 1.962 . S
O472 C477 1.254 . S
O473 Zn470 2.031 . S
O473 C477 1.269 . S
O474 Zn471 1.986 . S
O474 C481 1.262 . S
O475 Zn470 2.049 . S
O475 C483 1.260 . S
O476 Zn471 1.996 . S
O476 C483 1.257 . S
C477 O472 1.254 . S
C477 O473 1.269 . S
C478 O479 1.249 . S
C478 O480 1.270 . S
O479 Zn471 1.943 . S
O479 C478 1.249 . S
O480 Zn470 2.067 . S
O480 C478 1.270 . S
C481 O474 1.262 . S
C481 O482 1.232 . S
O482 C481 1.232 . S
C483 O475 1.260 . S
C483 O476 1.257 . S
Zn484 O487 2.031 . S
Zn484 O489 2.049 . S
Zn484 O494 2.067 . S
Zn485 O486 1.962 . S
Zn485 O488 1.986 . S
Zn485 O490 1.996 . S
Zn485 O493 1.943 . S
O486 Zn485 1.962 . S
O486 C491 1.254 . S
O487 Zn484 2.031 . S
O487 C491 1.269 . S
O488 Zn485 1.986 . S
O488 C495 1.262 . S
O489 Zn484 2.049 . S
O489 C497 1.260 . S
O490 Zn485 1.996 . S
O490 C497 1.257 . S
C491 O486 1.254 . S
C491 O487 1.269 . S
C492 O493 1.249 . S
C492 O494 1.270 . S
O493 Zn485 1.943 . S
O493 C492 1.249 . S
O494 Zn484 2.067 . S
O494 C492 1.270 . S
C495 O488 1.262 . S
C495 O496 1.232 . S
O496 C495 1.232 . S
C497 O489 1.260 . S
C497 O490 1.257 . S
Zn498 O501 2.031 1_545 S
Zn498 O503 2.049 . S
Zn498 O508 2.067 . S
Zn499 O500 1.962 . S
Zn499 O502 1.986 . S
Zn499 O504 1.996 1_565 S
Zn499 O507 1.943 . S
O500 Zn499 1.962 . S
O500 C505 1.254 . S
O501 Zn498 2.031 1_565 S
O501 C505 1.269 . S
O502 Zn499 1.986 . S
O502 C509 1.262 . S
O503 Zn498 2.049 . S
O503 C511 1.260 . S
O504 Zn499 1.996 1_545 S
O504 C511 1.257 . S
C505 O500 1.254 . S
C505 O501 1.269 . S
C506 O507 1.249 1_545 S
C506 O508 1.270 . S
O507 Zn499 1.943 . S
O507 C506 1.249 1_565 S
O508 Zn498 2.067 . S
O508 C506 1.270 . S
C509 O502 1.262 . S
C509 O510 1.232 . S
O510 C509 1.232 . S
C511 O503 1.260 . S
C511 O504 1.257 . S
Zn512 O515 2.031 . S
Zn512 O517 2.049 . S
Zn512 O522 2.067 . S
Zn513 O514 1.962 . S
Zn513 O516 1.986 . S
Zn513 O518 1.996 . S
Zn513 O521 1.943 . S
O514 Zn513 1.962 . S
O514 C519 1.254 . S
O515 Zn512 2.031 . S
O515 C519 1.269 . S
O516 Zn513 1.986 . S
O516 C523 1.262 . S
O517 Zn512 2.049 . S
O517 C525 1.260 . S
O518 Zn513 1.996 . S
O518 C525 1.257 . S
C519 O514 1.254 . S
C519 O515 1.269 . S
C520 O521 1.249 . S
C520 O522 1.270 . S
O521 Zn513 1.943 . S
O521 C520 1.249 . S
O522 Zn512 2.067 . S
O522 C520 1.270 . S
C523 O516 1.262 . S
C523 O524 1.232 . S
O524 C523 1.232 . S
C525 O517 1.260 . S
C525 O518 1.257 . S
Zn526 O529 2.031 . S
Zn526 O531 2.049 . S
Zn526 O536 2.067 . S
Zn527 O528 1.962 . S
Zn527 O530 1.986 . S
Zn527 O532 1.996 . S
Zn527 O535 1.943 . S
O528 Zn527 1.962 . S
O528 C533 1.254 . S
O529 Zn526 2.031 . S
O529 C533 1.269 . S
O530 Zn527 1.986 . S
O530 C537 1.262 . S
O531 Zn526 2.049 . S
O531 C539 1.260 . S
O532 Zn527 1.996 . S
O532 C539 1.257 . S
C533 O528 1.254 . S
C533 O529 1.269 . S
C534 O535 1.249 . S
C534 O536 1.270 . S
O535 Zn527 1.943 . S
O535 C534 1.249 . S
O536 Zn526 2.067 . S
O536 C534 1.270 . S
C537 O530 1.262 . S
C537 O538 1.232 . S
O538 C537 1.232 . S
C539 O531 1.260 . S
C539 O532 1.257 . S
Zn540 O543 2.031 . S
Zn540 O545 2.049 . S
Zn540 O550 2.067 . S
Zn541 O542 1.962 . S
Zn541 O544 1.986 . S
Zn541 O546 1.996 . S
Zn541 O549 1.943 . S
O542 Zn541 1.962 . S
O542 C547 1.254 . S
O543 Zn540 2.031 . S
O543 C547 1.269 . S
O544 Zn541 1.986 . S
O544 C551 1.262 . S
O545 Zn540 2.049 . S
O545 C553 1.260 . S
O546 Zn541 1.996 . S
O546 C553 1.257 . S
C547 O542 1.254 . S
C547 O543 1.269 . S
C548 O549 1.249 . S
C548 O550 1.270 . S
O549 Zn541 1.943 . S
O549 C548 1.249 . S
O550 Zn540 2.067 . S
O550 C548 1.270 . S
C551 O544 1.262 . S
C551 O552 1.232 . S
O552 C551 1.232 . S
C553 O545 1.260 . S
C553 O546 1.257 . S
Zn554 O557 2.031 . S
Zn554 O559 2.049 1_545 S
Zn554 O564 2.067 . S
Zn555 O556 1.962 1_565 S
Zn555 O558 1.986 . S
Zn555 O560 1.996 . S
Zn555 O563 1.943 . S
O556 Zn555 1.962 1_545 S
O556 C561 1.254 . S
O557 Zn554 2.031 . S
O557 C561 1.269 . S
O558 Zn555 1.986 . S
O558 C565 1.262 . S
O559 Zn554 2.049 1_565 S
O559 C567 1.260 . S
O560 Zn555 1.996 . S
O560 C567 1.257 . S
C561 O556 1.254 . S
C561 O557 1.269 . S
C562 O563 1.249 1_545 S
C562 O564 1.270 . S
O563 Zn555 1.943 . S
O563 C562 1.249 1_565 S
O564 Zn554 2.067 . S
O564 C562 1.270 . S
C565 O558 1.262 . S
C565 O566 1.232 . S
O566 C565 1.232 . S
C567 O559 1.260 . S
C567 O560 1.257 . S
Zn568 O571 2.031 . S
Zn568 O573 2.049 . S
Zn568 O578 2.067 . S
Zn569 O570 1.962 . S
Zn569 O572 1.986 . S
Zn569 O574 1.996 . S
Zn569 O577 1.943 . S
O570 Zn569 1.962 . S
O570 C575 1.254 . S
O571 Zn568 2.031 . S
O571 C575 1.269 . S
O572 Zn569 1.986 . S
O572 C579 1.262 . S
O573 Zn568 2.049 . S
O573 C581 1.260 . S
O574 Zn569 1.996 . S
O574 C581 1.257 . S
C575 O570 1.254 . S
C575 O571 1.269 . S
C576 O577 1.249 . S
C576 O578 1.270 . S
O577 Zn569 1.943 . S
O577 C576 1.249 . S
O578 Zn568 2.067 . S
O578 C576 1.270 . S
C579 O572 1.262 . S
C579 O580 1.232 . S
O580 C579 1.232 . S
C581 O573 1.260 . S
C581 O574 1.257 . S
Zn582 O585 2.031 . S
Zn582 O587 2.049 . S
Zn582 O592 2.067 . S
Zn583 O584 1.962 . S
Zn583 O586 1.986 . S
Zn583 O588 1.996 . S
Zn583 O591 1.943 . S
O584 Zn583 1.962 . S
O584 C589 1.254 . S
O585 Zn582 2.031 . S
O585 C589 1.269 . S
O586 Zn583 1.986 . S
O586 C593 1.262 . S
O587 Zn582 2.049 . S
O587 C595 1.260 . S
O588 Zn583 1.996 . S
O588 C595 1.257 . S
C589 O584 1.254 . S
C589 O585 1.269 . S
C590 O591 1.249 . S
C590 O592 1.270 . S
O591 Zn583 1.943 . S
O591 C590 1.249 . S
O592 Zn582 2.067 . S
O592 C590 1.270 . S
C593 O586 1.262 . S
C593 O594 1.232 . S
O594 C593 1.232 . S
C595 O587 1.260 . S
C595 O588 1.257 . S
Zn596 O599 2.031 . S
Zn596 O601 2.049 . S
Zn596 O606 2.067 . S
Zn597 O598 1.962 . S
Zn597 O600 1.986 . S
Zn597 O602 1.996 . S
Zn597 O605 1.943 . S
O598 Zn597 1.962 . S
O598 C603 1.254 . S
O599 Zn596 2.031 . S
O599 C603 1.269 . S
O600 Zn597 1.986 . S
O600 C607 1.262 . S
O601 Zn596 2.049 . S
O601 C609 1.260 . S
O602 Zn597 1.996 . S
O602 C609 1.257 . S
C603 O598 1.254 . S
C603 O599 1.269 . S
C604 O605 1.249 . S
C604 O606 1.270 . S
O605 Zn597 1.943 . S
O605 C604 1.249 . S
O606 Zn596 2.067 . S
O606 C604 1.270 . S
C607 O600 1.262 . S
C607 O608 1.232 . S
O608 C607 1.232 . S
C609 O601 1.260 . S
C609 O602 1.257 . S
Zn610 O613 2.031 . S
Zn610 O615 2.049 . S
Zn610 O620 2.067 1_655 S
Zn611 O612 1.962 . S
Zn611 O614 1.986 . S
Zn611 O616 1.996 . S
Zn611 O619 1.943 . S
O612 Zn611 1.962 . S
O612 C617 1.254 . S
O613 Zn610 2.031 . S
O613 C617 1.269 . S
O614 Zn611 1.986 . S
O614 C621 1.262 . S
O615 Zn610 2.049 . S
O615 C623 1.260 . S
O616 Zn611 1.996 . S
O616 C623 1.257 . S
C617 O612 1.254 . S
C617 O613 1.269 . S
C618 O619 1.249 1_455 S
C618 O620 1.270 . S
O619 Zn611 1.943 . S
O619 C618 1.249 1_655 S
O620 Zn610 2.067 1_455 S
O620 C618 1.270 . S
C621 O614 1.262 . S
C621 O622 1.232 . S
O622 C621 1.232 . S
C623 O615 1.260 . S
C623 O616 1.257 . S
Zn624 O627 2.031 . S
Zn624 O629 2.049 . S
Zn624 O634 2.067 . S
Zn625 O626 1.962 . S
Zn625 O628 1.986 . S
Zn625 O630 1.996 . S
Zn625 O633 1.943 . S
O626 Zn625 1.962 . S
O626 C631 1.254 . S
O627 Zn624 2.031 . S
O627 C631 1.269 . S
O628 Zn625 1.986 . S
O628 C635 1.262 . S
O629 Zn624 2.049 . S
O629 C637 1.260 . S
O630 Zn625 1.996 . S
O630 C637 1.257 . S
C631 O626 1.254 . S
C631 O627 1.269 . S
C632 O633 1.249 . S
C632 O634 1.270 . S
O633 Zn625 1.943 . S
O633 C632 1.249 . S
O634 Zn624 2.067 . S
O634 C632 1.270 . S
C635 O628 1.262 . S
C635 O636 1.232 . S
O636 C635 1.232 . S
C637 O629 1.260 . S
C637 O630 1.257 . S
Zn638 O641 2.031 . S
Zn638 O643 2.049 . S
Zn638 O648 2.067 1_655 S
Zn639 O640 1.962 . S
Zn639 O642 1.986 . S
Zn639 O644 1.996 . S
Zn639 O647 1.943 . S
O640 Zn639 1.962 . S
O640 C645 1.254 . S
O641 Zn638 2.031 . S
O641 C645 1.269 . S
O642 Zn639 1.986 . S
O642 C649 1.262 . S
O643 Zn638 2.049 . S
O643 C651 1.260 . S
O644 Zn639 1.996 . S
O644 C651 1.257 . S
C645 O640 1.254 . S
C645 O641 1.269 . S
C646 O647 1.249 1_455 S
C646 O648 1.270 . S
O647 Zn639 1.943 . S
O647 C646 1.249 1_655 S
O648 Zn638 2.067 1_455 S
O648 C646 1.270 . S
C649 O642 1.262 . S
C649 O650 1.232 . S
O650 C649 1.232 . S
C651 O643 1.260 . S
C651 O644 1.257 . S
Zn652 O655 2.031 . S
Zn652 O657 2.049 . S
Zn652 O662 2.067 . S
Zn653 O654 1.962 . S
Zn653 O656 1.986 . S
Zn653 O658 1.996 . S
Zn653 O661 1.943 . S
O654 Zn653 1.962 . S
O654 C659 1.254 . S
O655 Zn652 2.031 . S
O655 C659 1.269 . S
O656 Zn653 1.986 . S
O656 C663 1.262 . S
O657 Zn652 2.049 . S
O657 C665 1.260 . S
O658 Zn653 1.996 . S
O658 C665 1.257 . S
C659 O654 1.254 . S
C659 O655 1.269 . S
C660 O661 1.249 . S
C660 O662 1.270 . S
O661 Zn653 1.943 . S
O661 C660 1.249 . S
O662 Zn652 2.067 . S
O662 C660 1.270 . S
C663 O656 1.262 . S
C663 O664 1.232 . S
O664 C663 1.232 . S
C665 O657 1.260 . S
C665 O658 1.257 . S
C666 C667 1.349 . S
C666 C668 1.327 . S
C666 H691 0.950 . S
C667 C666 1.349 . S
C667 C683 1.349 . S
C668 C666 1.327 . S
C668 C687 1.429 . S
C668 H692 0.950 . S
C669 C686 1.574 . S
C669 C688 1.368 . S
C669 H693 0.949 . S
H670 C674 0.949 . S
C671 C672 1.349 . S
C671 C673 1.327 . S
C671 H694 0.950 . S
C672 C671 1.349 . S
C672 C684 1.349 . S
C673 C671 1.327 . S
C673 C689 1.429 . S
C673 H695 0.950 . S
C674 H670 0.949 . S
C674 C682 1.574 . S
C674 C690 1.368 . S
H675 C683 0.950 . S
H676 C681 0.950 . S
H677 C682 0.949 . S
H678 C684 0.950 . S
H679 C685 0.950 . S
H680 C686 0.949 . S
C681 H676 0.950 . S
C681 C683 1.327 . S
C681 C687 1.429 . S
C682 C674 1.574 . S
C682 H677 0.949 . S
C682 C688 1.368 . S
C683 C667 1.349 . S
C683 H675 0.950 . S
C683 C681 1.327 . S
C684 C672 1.349 . S
C684 H678 0.950 . S
C684 C685 1.327 . S
C685 H679 0.950 . S
C685 C684 1.327 . S
C685 C689 1.429 . S
C686 C669 1.574 . S
C686 H680 0.949 . S
C686 C690 1.368 . S
C687 C668 1.429 . S
C687 C681 1.429 . S
C687 C688 1.523 . S
C688 C669 1.368 . S
C688 C682 1.368 . S
C688 C687 1.523 . S
C689 C673 1.429 . S
C689 C685 1.429 . S
C689 C690 1.523 . S
C690 C674 1.368 . S
C690 C686 1.368 . S
C690 C689 1.523 . S
H691 C666 0.950 . S
H692 C668 0.950 . S
H693 C669 0.949 . S
H694 C671 0.950 . S
H695 C673 0.950 . S
C696 C697 1.349 . S
C696 C698 1.327 . S
C696 H721 0.950 . S
C697 C696 1.349 . S
C697 C713 1.349 . S
C698 C696 1.327 . S
C698 C717 1.429 . S
C698 H722 0.950 . S
C699 C716 1.574 . S
C699 C718 1.368 . S
C699 H723 0.949 . S
H700 C704 0.949 . S
C701 C702 1.349 . S
C701 C703 1.327 . S
C701 H724 0.950 . S
C702 C701 1.349 . S
C702 C714 1.349 . S
C703 C701 1.327 . S
C703 C719 1.429 . S
C703 H725 0.950 . S
C704 H700 0.949 . S
C704 C712 1.574 . S
C704 C720 1.368 . S
H705 C713 0.950 . S
H706 C711 0.950 . S
H707 C712 0.949 . S
H708 C714 0.950 . S
H709 C715 0.950 . S
H710 C716 0.949 . S
C711 H706 0.950 . S
C711 C713 1.327 . S
C711 C717 1.429 . S
C712 C704 1.574 . S
C712 H707 0.949 . S
C712 C718 1.368 . S
C713 C697 1.349 . S
C713 H705 0.950 . S
C713 C711 1.327 . S
C714 C702 1.349 . S
C714 H708 0.950 . S
C714 C715 1.327 . S
C715 H709 0.950 . S
C715 C714 1.327 . S
C715 C719 1.429 . S
C716 C699 1.574 . S
C716 H710 0.949 . S
C716 C720 1.368 . S
C717 C698 1.429 . S
C717 C711 1.429 . S
C717 C718 1.523 . S
C718 C699 1.368 . S
C718 C712 1.368 . S
C718 C717 1.523 . S
C719 C703 1.429 . S
C719 C715 1.429 . S
C719 C720 1.523 . S
C720 C704 1.368 . S
C720 C716 1.368 . S
C720 C719 1.523 . S
H721 C696 0.950 . S
H722 C698 0.950 . S
H723 C699 0.949 . S
H724 C701 0.950 . S
H725 C703 0.950 . S
C726 C727 1.349 . S
C726 C728 1.327 . S
C726 H751 0.950 . S
C727 C726 1.349 . S
C727 C743 1.349 . S
C728 C726 1.327 . S
C728 C747 1.429 . S
C728 H752 0.950 . S
C729 C746 1.574 . S
C729 C748 1.368 . S
C729 H753 0.949 . S
H730 C734 0.949 . S
C731 C732 1.349 . S
C731 C733 1.327 . S
C731 H754 0.950 1_545 S
C732 C731 1.349 . S
C732 C744 1.349 . S
C733 C731 1.327 . S
C733 C749 1.429 . S
C733 H755 0.950 . S
C734 H730 0.949 . S
C734 C742 1.574 . S
C734 C750 1.368 . S
H735 C743 0.950 . S
H736 C741 0.950 . S
H737 C742 0.949 . S
H738 C744 0.950 . S
H739 C745 0.950 . S
H740 C746 0.949 . S
C741 H736 0.950 . S
C741 C743 1.327 . S
C741 C747 1.429 . S
C742 C734 1.574 . S
C742 H737 0.949 . S
C742 C748 1.368 . S
C743 C727 1.349 . S
C743 H735 0.950 . S
C743 C741 1.327 . S
C744 C732 1.349 . S
C744 H738 0.950 . S
C744 C745 1.327 . S
C745 H739 0.950 . S
C745 C744 1.327 . S
C745 C749 1.429 . S
C746 C729 1.574 . S
C746 H740 0.949 . S
C746 C750 1.368 . S
C747 C728 1.429 . S
C747 C741 1.429 . S
C747 C748 1.523 . S
C748 C729 1.368 . S
C748 C742 1.368 . S
C748 C747 1.523 . S
C749 C733 1.429 . S
C749 C745 1.429 . S
C749 C750 1.523 . S
C750 C734 1.368 . S
C750 C746 1.368 . S
C750 C749 1.523 . S
H751 C726 0.950 . S
H752 C728 0.950 . S
H753 C729 0.949 . S
H754 C731 0.950 1_565 S
H755 C733 0.950 . S
C756 C757 1.349 . S
C756 C758 1.327 . S
C756 H781 0.950 . S
C757 C756 1.349 . S
C757 C773 1.349 . S
C758 C756 1.327 . S
C758 C777 1.429 . S
C758 H782 0.950 . S
C759 C776 1.574 . S
C759 C778 1.368 . S
C759 H783 0.949 . S
H760 C764 0.949 . S
C761 C762 1.349 . S
C761 C763 1.327 . S
C761 H784 0.950 . S
C762 C761 1.349 . S
C762 C774 1.349 . S
C763 C761 1.327 . S
C763 C779 1.429 . S
C763 H785 0.950 . S
C764 H760 0.949 . S
C764 C772 1.574 . S
C764 C780 1.368 . S
H765 C773 0.950 . S
H766 C771 0.950 . S
H767 C772 0.949 . S
H768 C774 0.950 . S
H769 C775 0.950 . S
H770 C776 0.949 . S
C771 H766 0.950 . S
C771 C773 1.327 . S
C771 C777 1.429 . S
C772 C764 1.574 . S
C772 H767 0.949 . S
C772 C778 1.368 . S
C773 C757 1.349 . S
C773 H765 0.950 . S
C773 C771 1.327 . S
C774 C762 1.349 . S
C774 H768 0.950 . S
C774 C775 1.327 . S
C775 H769 0.950 . S
C775 C774 1.327 . S
C775 C779 1.429 . S
C776 C759 1.574 . S
C776 H770 0.949 . S
C776 C780 1.368 . S
C777 C758 1.429 . S
C777 C771 1.429 . S
C777 C778 1.523 . S
C778 C759 1.368 . S
C778 C772 1.368 . S
C778 C777 1.523 . S
C779 C763 1.429 . S
C779 C775 1.429 . S
C779 C780 1.523 . S
C780 C764 1.368 . S
C780 C776 1.368 . S
C780 C779 1.523 . S
H781 C756 0.950 . S
H782 C758 0.950 . S
H783 C759 0.949 . S
H784 C761 0.950 . S
H785 C763 0.950 . S
C786 C787 1.349 . S
C786 C788 1.327 . S
C786 H811 0.950 . S
C787 C786 1.349 . S
C787 C803 1.349 . S
C788 C786 1.327 . S
C788 C807 1.429 . S
C788 H812 0.950 . S
C789 C806 1.574 . S
C789 C808 1.368 . S
C789 H813 0.949 . S
H790 C794 0.949 1_655 S
C791 C792 1.349 1_455 S
C791 C793 1.327 . S
C791 H814 0.950 . S
C792 C791 1.349 1_655 S
C792 C804 1.349 . S
C793 C791 1.327 . S
C793 C809 1.429 . S
C793 H815 0.950 . S
C794 H790 0.949 1_455 S
C794 C802 1.574 . S
C794 C810 1.368 . S
H795 C803 0.950 . S
H796 C801 0.950 . S
H797 C802 0.949 . S
H798 C804 0.950 . S
H799 C805 0.950 . S
H800 C806 0.949 . S
C801 H796 0.950 . S
C801 C803 1.327 . S
C801 C807 1.429 . S
C802 C794 1.574 . S
C802 H797 0.949 . S
C802 C808 1.368 . S
C803 C787 1.349 . S
C803 H795 0.950 . S
C803 C801 1.327 . S
C804 C792 1.349 . S
C804 H798 0.950 . S
C804 C805 1.327 . S
C805 H799 0.950 . S
C805 C804 1.327 . S
C805 C809 1.429 1_655 S
C806 C789 1.574 . S
C806 H800 0.949 . S
C806 C810 1.368 . S
C807 C788 1.429 . S
C807 C801 1.429 . S
C807 C808 1.523 . S
C808 C789 1.368 . S
C808 C802 1.368 . S
C808 C807 1.523 . S
C809 C793 1.429 . S
C809 C805 1.429 1_455 S
C809 C810 1.523 . S
C810 C794 1.368 . S
C810 C806 1.368 . S
C810 C809 1.523 . S
H811 C786 0.950 . S
H812 C788 0.950 . S
H813 C789 0.949 . S
H814 C791 0.950 . S
H815 C793 0.950 . S
C816 C817 1.349 . S
C816 C818 1.327 . S
C816 H841 0.950 . S
C817 C816 1.349 . S
C817 C833 1.349 . S
C818 C816 1.327 . S
C818 C837 1.429 . S
C818 H842 0.950 . S
C819 C836 1.574 . S
C819 C838 1.368 . S
C819 H843 0.949 . S
H820 C824 0.949 . S
C821 C822 1.349 . S
C821 C823 1.327 . S
C821 H844 0.950 . S
C822 C821 1.349 . S
C822 C834 1.349 . S
C823 C821 1.327 . S
C823 C839 1.429 . S
C823 H845 0.950 . S
C824 H820 0.949 . S
C824 C832 1.574 . S
C824 C840 1.368 . S
H825 C833 0.950 . S
H826 C831 0.950 . S
H827 C832 0.949 . S
H828 C834 0.950 . S
H829 C835 0.950 . S
H830 C836 0.949 . S
C831 H826 0.950 . S
C831 C833 1.327 . S
C831 C837 1.429 . S
C832 C824 1.574 . S
C832 H827 0.949 . S
C832 C838 1.368 . S
C833 C817 1.349 . S
C833 H825 0.950 . S
C833 C831 1.327 . S
C834 C822 1.349 . S
C834 H828 0.950 . S
C834 C835 1.327 . S
C835 H829 0.950 . S
C835 C834 1.327 . S
C835 C839 1.429 . S
C836 C819 1.574 . S
C836 H830 0.949 . S
C836 C840 1.368 . S
C837 C818 1.429 . S
C837 C831 1.429 . S
C837 C838 1.523 . S
C838 C819 1.368 . S
C838 C832 1.368 . S
C838 C837 1.523 . S
C839 C823 1.429 . S
C839 C835 1.429 . S
C839 C840 1.523 . S
C840 C824 1.368 . S
C840 C836 1.368 . S
C840 C839 1.523 . S
H841 C816 0.950 . S
H842 C818 0.950 . S
H843 C819 0.949 . S
H844 C821 0.950 . S
H845 C823 0.950 . S
C846 C847 1.349 . S
C846 C848 1.327 . S
C846 H871 0.950 . S
C847 C846 1.349 . S
C847 C863 1.349 . S
C848 C846 1.327 . S
C848 C867 1.429 . S
C848 H872 0.950 1_455 S
C849 C866 1.574 . S
C849 C868 1.368 . S
C849 H873 0.949 . S
H850 C854 0.949 . S
C851 C852 1.349 1_455 S
C851 C853 1.327 . S
C851 H874 0.950 . S
C852 C851 1.349 1_655 S
C852 C864 1.349 . S
C853 C851 1.327 . S
C853 C869 1.429 1_455 S
C853 H875 0.950 . S
C854 H850 0.949 . S
C854 C862 1.574 . S
C854 C870 1.368 1_655 S
H855 C863 0.950 1_554 S
H856 C861 0.950 . S
H857 C862 0.949 . S
H858 C864 0.950 . S
H859 C865 0.950 . S
H860 C866 0.949 . S
C861 H856 0.950 . S
C861 C863 1.327 . S
C861 C867 1.429 . S
C862 C854 1.574 . S
C862 H857 0.949 . S
C862 C868 1.368 1_655 S
C863 C847 1.349 . S
C863 H855 0.950 1_556 S
C863 C861 1.327 . S
C864 C852 1.349 . S
C864 H858 0.950 . S
C864 C865 1.327 . S
C865 H859 0.950 . S
C865 C864 1.327 . S
C865 C869 1.429 . S
C866 C849 1.574 . S
C866 H860 0.949 . S
C866 C870 1.368 . S
C867 C848 1.429 . S
C867 C861 1.429 . S
C867 C868 1.523 . S
C868 C849 1.368 . S
C868 C862 1.368 1_455 S
C868 C867 1.523 . S
C869 C853 1.429 1_655 S
C869 C865 1.429 . S
C869 C870 1.523 1_655 S
C870 C854 1.368 1_455 S
C870 C866 1.368 . S
C870 C869 1.523 1_455 S
H871 C846 0.950 . S
H872 C848 0.950 1_655 S
H873 C849 0.949 . S
H874 C851 0.950 . S
H875 C853 0.950 . S
C876 C877 1.349 1_554 S
C876 C878 1.332 . S
C876 H901 0.950 . S
C877 C876 1.349 1_556 S
C877 C893 1.349 . S
C878 C876 1.332 . S
C878 C897 1.408 1_554 S
C878 H902 0.966 . S
C879 C896 1.574 . S
C879 C898 1.368 . S
C879 H903 0.949 . S
H880 C884 0.949 . S
C881 C882 1.349 . S
C881 C883 1.327 . S
C881 H904 0.950 . S
C882 C881 1.349 . S
C882 C894 1.349 . S
C883 C881 1.327 . S
C883 C899 1.429 . S
C883 H905 0.950 . S
C884 H880 0.949 . S
C884 C892 1.574 . S
C884 C900 1.368 . S
H885 C893 0.950 . S
H886 C891 0.950 . S
H887 C892 0.949 1_554 S
H888 C894 0.950 . S
H889 C895 0.950 . S
H890 C896 0.949 . S
C891 H886 0.950 . S
C891 C893 1.327 . S
C891 C897 1.429 . S
C892 C884 1.574 . S
C892 H887 0.949 1_556 S
C892 C898 1.368 . S
C893 C877 1.349 . S
C893 H885 0.950 . S
C893 C891 1.327 . S
C894 C882 1.349 . S
C894 H888 0.950 . S
C894 C895 1.327 . S
C895 H889 0.950 . S
C895 C894 1.327 . S
C895 C899 1.429 . S
C896 C879 1.574 . S
C896 H890 0.949 . S
C896 C900 1.368 . S
C897 C878 1.408 1_556 S
C897 C891 1.429 . S
C897 C898 1.523 . S
C898 C879 1.368 . S
C898 C892 1.368 . S
C898 C897 1.523 . S
C899 C883 1.429 . S
C899 C895 1.429 . S
C899 C900 1.523 . S
C900 C884 1.368 . S
C900 C896 1.368 . S
C900 C899 1.523 . S
H901 C876 0.950 . S
H902 C878 0.966 . S
H903 C879 0.949 . S
H904 C881 0.950 . S
H905 C883 0.950 . S
C906 C907 1.349 . S
C906 C908 1.327 . S
C906 H931 0.950 . S
C907 C906 1.349 . S
C907 C923 1.349 1_556 S
C908 C906 1.327 . S
C908 C927 1.429 . S
C908 H932 0.950 . S
C909 C926 1.574 . S
C909 C928 1.368 . S
C909 H933 0.949 . S
H910 C914 0.949 . S
C911 C912 1.349 . S
C911 C913 1.327 . S
C911 H934 0.950 . S
C912 C911 1.349 . S
C912 C924 1.349 . S
C913 C911 1.327 . S
C913 C929 1.429 . S
C913 H935 0.950 . S
C914 H910 0.949 . S
C914 C922 1.574 . S
C914 C930 1.368 . S
H915 C923 0.950 . S
H916 C921 0.950 1_554 S
H917 C922 0.949 . S
H918 C924 0.950 . S
H919 C925 0.950 . S
H920 C926 0.949 . S
C921 H916 0.950 1_556 S
C921 C923 1.327 1_556 S
C921 C927 1.429 . S
C922 C914 1.574 . S
C922 H917 0.949 . S
C922 C928 1.368 . S
C923 C907 1.349 1_554 S
C923 H915 0.950 . S
C923 C921 1.327 1_554 S
C924 C912 1.349 . S
C924 H918 0.950 . S
C924 C925 1.327 . S
C925 H919 0.950 . S
C925 C924 1.327 . S
C925 C929 1.429 . S
C926 C909 1.574 . S
C926 H920 0.949 . S
C926 C930 1.368 . S
C927 C908 1.429 . S
C927 C921 1.429 . S
C927 C928 1.523 . S
C928 C909 1.368 . S
C928 C922 1.368 . S
C928 C927 1.523 . S
C929 C913 1.429 . S
C929 C925 1.429 . S
C929 C930 1.523 . S
C930 C914 1.368 . S
C930 C926 1.368 . S
C930 C929 1.523 . S
H931 C906 0.950 . S
H932 C908 0.950 . S
H933 C909 0.949 . S
H934 C911 0.950 . S
H935 C913 0.950 . S
C936 C937 1.349 . S
C936 C938 1.327 . S
C936 H961 0.950 . S
C937 C936 1.349 . S
C937 C953 1.349 1_545 S
C938 C936 1.327 . S
C938 C957 1.429 . S
C938 H962 0.950 . S
C939 C956 1.574 . S
C939 C958 1.368 1_565 S
C939 H963 0.949 . S
H940 C944 0.949 . S
C941 C942 1.349 . S
C941 C943 1.327 . S
C941 H964 0.950 . S
C942 C941 1.349 . S
C942 C954 1.349 1_565 S
C943 C941 1.327 . S
C943 C959 1.368 1_565 S
C943 H965 0.950 . S
C944 H940 0.949 . S
C944 C952 1.574 . S
C944 C960 1.368 . S
H945 C953 0.950 . S
H946 C951 0.950 . S
H947 C952 0.949 . S
H948 C954 0.950 . S
H949 C955 0.950 . S
H950 C956 0.949 . S
C951 H946 0.950 . S
C951 C953 1.327 . S
C951 C957 1.429 1_565 S
C952 C944 1.574 . S
C952 H947 0.949 . S
C952 C958 1.368 . S
C953 C937 1.349 1_565 S
C953 H945 0.950 . S
C953 C951 1.327 . S
C954 C942 1.349 1_545 S
C954 H948 0.950 . S
C954 C955 1.327 . S
C955 H949 0.950 . S
C955 C954 1.327 . S
C955 C959 1.445 . S
C956 C939 1.574 . S
C956 H950 0.949 . S
C956 C960 1.368 1_565 S
C957 C938 1.429 . S
C957 C951 1.429 1_545 S
C957 C958 1.523 . S
C958 C939 1.368 1_545 S
C958 C952 1.368 . S
C958 C957 1.523 . S
C959 C943 1.368 1_545 S
C959 C955 1.445 . S
C959 C960 1.567 . S
C960 C944 1.368 . S
C960 C956 1.368 1_545 S
C960 C959 1.567 . S
H961 C936 0.950 . S
H962 C938 0.950 . S
H963 C939 0.949 . S
H964 C941 0.950 . S
H965 C943 0.950 . S
C966 C967 1.349 . S
C966 C968 1.327 . S
C966 H991 0.950 . S
C967 C966 1.349 . S
C967 C983 1.349 . S
C968 C966 1.327 . S
C968 C987 1.429 . S
C968 H992 0.950 . S
C969 C986 1.574 . S
C969 C988 1.368 . S
C969 H993 0.949 . S
H970 C974 0.949 . S
C971 C972 1.349 . S
C971 C973 1.327 . S
C971 H994 0.950 . S
C972 C971 1.349 . S
C972 C984 1.349 . S
C973 C971 1.327 . S
C973 C989 1.429 . S
C973 H995 0.950 . S
C974 H970 0.949 . S
C974 C982 1.574 . S
C974 C990 1.368 . S
H975 C983 0.950 . S
H976 C981 0.950 . S
H977 C982 0.949 . S
H978 C984 0.950 . S
H979 C985 0.950 . S
H980 C986 0.949 . S
C981 H976 0.950 . S
C981 C983 1.327 . S
C981 C987 1.429 . S
C982 C974 1.574 . S
C982 H977 0.949 . S
C982 C988 1.368 . S
C983 C967 1.349 . S
C983 H975 0.950 . S
C983 C981 1.327 . S
C984 C972 1.349 . S
C984 H978 0.950 . S
C984 C985 1.327 . S
C985 H979 0.950 . S
C985 C984 1.327 . S
C985 C989 1.429 . S
C986 C969 1.574 . S
C986 H980 0.949 . S
C986 C990 1.368 . S
C987 C968 1.429 . S
C987 C981 1.429 . S
C987 C988 1.523 . S
C988 C969 1.368 . S
C988 C982 1.368 . S
C988 C987 1.523 . S
C989 C973 1.429 . S
C989 C985 1.429 . S
C989 C990 1.523 . S
C990 C974 1.368 . S
C990 C986 1.368 . S
C990 C989 1.523 . S
H991 C966 0.950 . S
H992 C968 0.950 . S
H993 C969 0.949 . S
H994 C971 0.950 . S
H995 C973 0.950 . S
C996 C997 1.349 . S
C996 C998 1.327 . S
C996 H1021 0.950 . S
C997 C996 1.349 . S
C997 C1013 1.349 . S
C998 C996 1.327 . S
C998 C1017 1.429 . S
C998 H1022 0.950 . S
C999 C1016 1.574 . S
C999 C1018 1.368 . S
C999 H1023 0.949 . S
H1000 C1004 0.949 . S
C1001 C1002 1.349 . S
C1001 C1003 1.327 . S
C1001 H1024 0.950 . S
C1002 C1001 1.349 . S
C1002 C1014 1.349 . S
C1003 C1001 1.327 . S
C1003 C1019 1.429 . S
C1003 H1025 0.950 . S
C1004 H1000 0.949 . S
C1004 C1012 1.574 . S
C1004 C1020 1.368 . S
H1005 C1013 0.950 . S
H1006 C1011 0.950 . S
H1007 C1012 0.949 . S
H1008 C1014 0.950 . S
H1009 C1015 0.950 . S
H1010 C1016 0.949 . S
C1011 H1006 0.950 . S
C1011 C1013 1.327 . S
C1011 C1017 1.429 . S
C1012 C1004 1.574 . S
C1012 H1007 0.949 . S
C1012 C1018 1.368 . S
C1013 C997 1.349 . S
C1013 H1005 0.950 . S
C1013 C1011 1.327 . S
C1014 C1002 1.349 . S
C1014 H1008 0.950 . S
C1014 C1015 1.327 . S
C1015 H1009 0.950 . S
C1015 C1014 1.327 . S
C1015 C1019 1.429 . S
C1016 C999 1.574 . S
C1016 H1010 0.949 . S
C1016 C1020 1.368 . S
C1017 C998 1.429 . S
C1017 C1011 1.429 . S
C1017 C1018 1.523 . S
C1018 C999 1.368 . S
C1018 C1012 1.368 . S
C1018 C1017 1.523 . S
C1019 C1003 1.429 . S
C1019 C1015 1.429 . S
C1019 C1020 1.523 . S
C1020 C1004 1.368 . S
C1020 C1016 1.368 . S
C1020 C1019 1.523 . S
H1021 C996 0.950 . S
H1022 C998 0.950 . S
H1023 C999 0.949 . S
H1024 C1001 0.950 . S
H1025 C1003 0.950 . S
C1026 C1027 1.349 . S
C1026 C1028 1.327 . S
C1026 H1051 0.950 . S
C1027 C1026 1.349 . S
C1027 C1043 1.349 . S
C1028 C1026 1.327 . S
C1028 C1047 1.429 . S
C1028 H1052 0.950 . S
C1029 C1046 1.574 . S
C1029 C1048 1.368 . S
C1029 H1053 0.949 . S
H1030 C1034 0.949 . S
C1031 C1032 1.349 . S
C1031 C1033 1.327 . S
C1031 H1054 0.950 . S
C1032 C1031 1.349 . S
C1032 C1044 1.349 . S
C1033 C1031 1.327 . S
C1033 C1049 1.429 . S
C1033 H1055 0.950 . S
C1034 H1030 0.949 . S
C1034 C1042 1.574 . S
C1034 C1050 1.368 . S
H1035 C1043 0.950 . S
H1036 C1041 0.950 . S
H1037 C1042 0.949 . S
H1038 C1044 0.950 . S
H1039 C1045 0.950 . S
H1040 C1046 0.949 . S
C1041 H1036 0.950 . S
C1041 C1043 1.327 . S
C1041 C1047 1.429 . S
C1042 C1034 1.574 . S
C1042 H1037 0.949 . S
C1042 C1048 1.368 . S
C1043 C1027 1.349 . S
C1043 H1035 0.950 . S
C1043 C1041 1.327 . S
C1044 C1032 1.349 . S
C1044 H1038 0.950 . S
C1044 C1045 1.327 . S
C1045 H1039 0.950 . S
C1045 C1044 1.327 . S
C1045 C1049 1.429 . S
C1046 C1029 1.574 . S
C1046 H1040 0.949 . S
C1046 C1050 1.368 . S
C1047 C1028 1.429 . S
C1047 C1041 1.429 . S
C1047 C1048 1.523 . S
C1048 C1029 1.368 . S
C1048 C1042 1.368 . S
C1048 C1047 1.523 . S
C1049 C1033 1.429 . S
C1049 C1045 1.429 . S
C1049 C1050 1.523 . S
C1050 C1034 1.368 . S
C1050 C1046 1.368 . S
C1050 C1049 1.523 . S
H1051 C1026 0.950 . S
H1052 C1028 0.950 . S
H1053 C1029 0.949 . S
H1054 C1031 0.950 . S
H1055 C1033 0.950 . S
C1056 C1057 1.349 . S
C1056 C1058 1.327 . S
C1056 H1081 0.950 . S
C1057 C1056 1.349 . S
C1057 C1073 1.349 . S
C1058 C1056 1.327 . S
C1058 C1077 1.429 . S
C1058 H1082 0.950 . S
C1059 C1076 1.574 . S
C1059 C1078 1.368 1_545 S
C1059 H1083 0.949 . S
H1060 C1064 0.949 . S
C1061 C1062 1.349 . S
C1061 C1063 1.327 . S
C1061 H1084 0.950 . S
C1062 C1061 1.349 . S
C1062 C1074 1.349 . S
C1063 C1061 1.327 . S
C1063 C1079 1.429 . S
C1063 H1085 0.950 . S
C1064 H1060 0.949 . S
C1064 C1072 1.574 1_545 S
C1064 C1080 1.368 . S
H1065 C1073 0.950 . S
H1066 C1071 0.950 . S
H1067 C1072 0.949 . S
H1068 C1074 0.950 . S
H1069 C1075 0.950 . S
H1070 C1076 0.949 . S
C1071 H1066 0.950 . S
C1071 C1073 1.327 . S
C1071 C1077 1.429 . S
C1072 C1064 1.574 1_565 S
C1072 H1067 0.949 . S
C1072 C1078 1.368 . S
C1073 C1057 1.349 . S
C1073 H1065 0.950 . S
C1073 C1071 1.327 . S
C1074 C1062 1.349 . S
C1074 H1068 0.950 . S
C1074 C1075 1.327 . S
C1075 H1069 0.950 . S
C1075 C1074 1.327 . S
C1075 C1079 1.429 . S
C1076 C1059 1.574 . S
C1076 H1070 0.949 . S
C1076 C1080 1.368 . S
C1077 C1058 1.429 . S
C1077 C1071 1.429 . S
C1077 C1078 1.523 . S
C1078 C1059 1.368 1_565 S
C1078 C1072 1.368 . S
C1078 C1077 1.523 . S
C1079 C1063 1.429 . S
C1079 C1075 1.429 . S
C1079 C1080 1.523 . S
C1080 C1064 1.368 . S
C1080 C1076 1.368 . S
C1080 C1079 1.523 . S
H1081 C1056 0.950 . S
H1082 C1058 0.950 . S
H1083 C1059 0.949 . S
H1084 C1061 0.950 . S
H1085 C1063 0.950 . S
C1086 C1087 1.349 . S
C1086 C1088 1.327 . S
C1086 H1111 0.950 . S
C1087 C1086 1.349 . S
C1087 C1103 1.349 . S
C1088 C1086 1.327 . S
C1088 C1107 1.429 . S
C1088 H1112 0.950 . S
C1089 C1106 1.574 . S
C1089 C1108 1.368 . S
C1089 H1113 0.949 . S
H1090 C1094 0.949 . S
C1091 C1092 1.349 . S
C1091 C1093 1.327 . S
C1091 H1114 0.950 . S
C1092 C1091 1.349 . S
C1092 C1104 1.349 . S
C1093 C1091 1.327 . S
C1093 C1109 1.429 . S
C1093 H1115 0.950 . S
C1094 H1090 0.949 . S
C1094 C1102 1.574 . S
C1094 C1110 1.368 . S
H1095 C1103 0.950 . S
H1096 C1101 0.950 . S
H1097 C1102 0.949 . S
H1098 C1104 0.950 . S
H1099 C1105 0.950 . S
H1100 C1106 0.949 . S
C1101 H1096 0.950 . S
C1101 C1103 1.327 . S
C1101 C1107 1.429 . S
C1102 C1094 1.574 . S
C1102 H1097 0.949 . S
C1102 C1108 1.368 . S
C1103 C1087 1.349 . S
C1103 H1095 0.950 . S
C1103 C1101 1.327 . S
C1104 C1092 1.349 . S
C1104 H1098 0.950 . S
C1104 C1105 1.327 . S
C1105 H1099 0.950 . S
C1105 C1104 1.327 . S
C1105 C1109 1.429 . S
C1106 C1089 1.574 . S
C1106 H1100 0.949 . S
C1106 C1110 1.368 . S
C1107 C1088 1.429 . S
C1107 C1101 1.429 . S
C1107 C1108 1.523 . S
C1108 C1089 1.368 . S
C1108 C1102 1.368 . S
C1108 C1107 1.523 . S
C1109 C1093 1.429 . S
C1109 C1105 1.429 . S
C1109 C1110 1.523 . S
C1110 C1094 1.368 . S
C1110 C1106 1.368 . S
C1110 C1109 1.523 . S
H1111 C1086 0.950 . S
H1112 C1088 0.950 . S
H1113 C1089 0.949 . S
H1114 C1091 0.950 . S
H1115 C1093 0.950 . S
C1116 C1117 1.349 . S
C1116 C1118 1.327 . S
C1116 H1141 0.950 . S
C1117 C1116 1.349 . S
C1117 C1133 1.349 . S
C1118 C1116 1.327 . S
C1118 C1137 1.429 . S
C1118 H1142 0.950 . S
C1119 C1136 1.574 . S
C1119 C1138 1.368 . S
C1119 H1143 0.949 . S
H1120 C1124 0.949 . S
C1121 C1122 1.349 . S
C1121 C1123 1.327 . S
C1121 H1144 0.950 . S
C1122 C1121 1.349 . S
C1122 C1134 1.349 . S
C1123 C1121 1.327 . S
C1123 C1139 1.429 . S
C1123 H1145 0.950 . S
C1124 H1120 0.949 . S
C1124 C1132 1.574 . S
C1124 C1140 1.368 . S
H1125 C1133 0.950 . S
H1126 C1131 0.950 . S
H1127 C1132 0.949 . S
H1128 C1134 0.950 . S
H1129 C1135 0.950 . S
H1130 C1136 0.949 . S
C1131 H1126 0.950 . S
C1131 C1133 1.327 . S
C1131 C1137 1.429 . S
C1132 C1124 1.574 . S
C1132 H1127 0.949 . S
C1132 C1138 1.368 . S
C1133 C1117 1.349 . S
C1133 H1125 0.950 . S
C1133 C1131 1.327 . S
C1134 C1122 1.349 . S
C1134 H1128 0.950 . S
C1134 C1135 1.327 . S
C1135 H1129 0.950 . S
C1135 C1134 1.327 . S
C1135 C1139 1.429 . S
C1136 C1119 1.574 . S
C1136 H1130 0.949 . S
C1136 C1140 1.368 . S
C1137 C1118 1.429 . S
C1137 C1131 1.429 . S
C1137 C1138 1.523 . S
C1138 C1119 1.368 . S
C1138 C1132 1.368 . S
C1138 C1137 1.523 . S
C1139 C1123 1.429 . S
C1139 C1135 1.429 . S
C1139 C1140 1.523 . S
C1140 C1124 1.368 . S
C1140 C1136 1.368 . S
C1140 C1139 1.523 . S
H1141 C1116 0.950 . S
H1142 C1118 0.950 . S
H1143 C1119 0.949 . S
H1144 C1121 0.950 . S
H1145 C1123 0.950 . S
C1146 C1147 1.349 . S
C1146 C1148 1.327 . S
C1146 H1171 0.950 . S
C1147 C1146 1.349 . S
C1147 C1163 1.349 . S
C1148 C1146 1.327 . S
C1148 C1167 1.429 . S
C1148 H1172 0.950 . S
C1149 C1166 1.574 . S
C1149 C1168 1.368 . S
C1149 H1173 0.949 . S
H1150 C1154 0.949 . S
C1151 C1152 1.349 . S
C1151 C1153 1.327 . S
C1151 H1174 0.950 . S
C1152 C1151 1.349 . S
C1152 C1164 1.349 . S
C1153 C1151 1.327 . S
C1153 C1169 1.429 . S
C1153 H1175 0.950 . S
C1154 H1150 0.949 . S
C1154 C1162 1.574 . S
C1154 C1170 1.368 . S
H1155 C1163 0.950 . S
H1156 C1161 0.950 . S
H1157 C1162 0.949 . S
H1158 C1164 0.950 . S
H1159 C1165 0.950 . S
H1160 C1166 0.949 . S
C1161 H1156 0.950 . S
C1161 C1163 1.327 . S
C1161 C1167 1.429 . S
C1162 C1154 1.574 . S
C1162 H1157 0.949 . S
C1162 C1168 1.368 . S
C1163 C1147 1.349 . S
C1163 H1155 0.950 . S
C1163 C1161 1.327 . S
C1164 C1152 1.349 . S
C1164 H1158 0.950 . S
C1164 C1165 1.327 . S
C1165 H1159 0.950 . S
C1165 C1164 1.327 . S
C1165 C1169 1.429 . S
C1166 C1149 1.574 . S
C1166 H1160 0.949 . S
C1166 C1170 1.368 . S
C1167 C1148 1.429 . S
C1167 C1161 1.429 . S
C1167 C1168 1.523 . S
C1168 C1149 1.368 . S
C1168 C1162 1.368 . S
C1168 C1167 1.523 . S
C1169 C1153 1.429 . S
C1169 C1165 1.429 . S
C1169 C1170 1.523 . S
C1170 C1154 1.368 . S
C1170 C1166 1.368 . S
C1170 C1169 1.523 . S
H1171 C1146 0.950 . S
H1172 C1148 0.950 . S
H1173 C1149 0.949 . S
H1174 C1151 0.950 . S
H1175 C1153 0.950 . S
C1176 C1177 1.349 . S
C1176 C1178 1.327 . S
C1176 H1201 0.950 . S
C1177 C1176 1.349 . S
C1177 C1193 1.349 . S
C1178 C1176 1.327 . S
C1178 C1197 1.429 . S
C1178 H1202 0.950 . S
C1179 C1196 1.574 . S
C1179 C1198 1.368 . S
C1179 H1203 0.949 . S
H1180 C1184 0.949 . S
C1181 C1182 1.349 1_565 S
C1181 C1183 1.327 . S
C1181 H1204 0.950 . S
C1182 C1181 1.349 1_545 S
C1182 C1194 1.352 1_545 S
C1183 C1181 1.327 . S
C1183 C1199 1.429 . S
C1183 H1205 0.950 . S
C1184 H1180 0.949 . S
C1184 C1192 1.574 . S
C1184 C1200 1.368 . S
H1185 C1193 0.950 . S
H1186 C1191 0.950 . S
H1187 C1192 0.949 . S
H1188 C1194 0.945 1_545 S
H1189 C1195 0.950 . S
H1190 C1196 0.949 . S
C1191 H1186 0.950 . S
C1191 C1193 1.327 . S
C1191 C1197 1.429 . S
C1192 C1184 1.574 . S
C1192 H1187 0.949 . S
C1192 C1198 1.368 . S
C1193 C1177 1.349 . S
C1193 H1185 0.950 . S
C1193 C1191 1.327 . S
C1194 C1182 1.352 1_565 S
C1194 H1188 0.945 1_565 S
C1194 C1195 1.329 . S
C1195 H1189 0.950 . S
C1195 C1194 1.329 . S
C1195 C1199 1.429 . S
C1196 C1179 1.574 . S
C1196 H1190 0.949 . S
C1196 C1200 1.368 . S
C1197 C1178 1.429 . S
C1197 C1191 1.429 . S
C1197 C1198 1.523 . S
C1198 C1179 1.368 . S
C1198 C1192 1.368 . S
C1198 C1197 1.523 . S
C1199 C1183 1.429 . S
C1199 C1195 1.429 . S
C1199 C1200 1.523 . S
C1200 C1184 1.368 . S
C1200 C1196 1.368 . S
C1200 C1199 1.523 . S
H1201 C1176 0.950 . S
H1202 C1178 0.950 . S
H1203 C1179 0.949 . S
H1204 C1181 0.950 . S
H1205 C1183 0.950 . S
C1206 C1207 1.349 . S
C1206 C1208 1.327 . S
C1206 H1231 0.950 . S
C1207 C1206 1.349 . S
C1207 C1223 1.349 . S
C1208 C1206 1.327 . S
C1208 C1227 1.429 . S
C1208 H1232 0.950 . S
C1209 C1226 1.574 . S
C1209 C1228 1.368 . S
C1209 H1233 0.949 . S
H1210 C1214 0.949 . S
C1211 C1212 1.349 . S
C1211 C1213 1.327 . S
C1211 H1234 0.950 . S
C1212 C1211 1.349 . S
C1212 C1224 1.349 . S
C1213 C1211 1.327 . S
C1213 C1229 1.429 . S
C1213 H1235 0.950 . S
C1214 H1210 0.949 . S
C1214 C1222 1.574 . S
C1214 C1230 1.368 . S
H1215 C1223 0.950 . S
H1216 C1221 0.950 . S
H1217 C1222 0.949 . S
H1218 C1224 0.950 . S
H1219 C1225 1.005 . S
H1220 C1226 0.949 1_545 S
C1221 H1216 0.950 . S
C1221 C1223 1.327 . S
C1221 C1227 1.429 . S
C1222 C1214 1.574 . S
C1222 H1217 0.949 . S
C1222 C1228 1.368 . S
C1223 C1207 1.349 . S
C1223 H1215 0.950 . S
C1223 C1221 1.327 . S
C1224 C1212 1.349 . S
C1224 H1218 0.950 . S
C1224 C1225 1.259 1_545 S
C1225 H1219 1.005 . S
C1225 C1224 1.259 1_565 S
C1225 C1229 1.446 1_565 S
C1226 C1209 1.574 . S
C1226 H1220 0.949 1_565 S
C1226 C1230 1.368 . S
C1227 C1208 1.429 . S
C1227 C1221 1.429 . S
C1227 C1228 1.523 . S
C1228 C1209 1.368 . S
C1228 C1222 1.368 . S
C1228 C1227 1.523 . S
C1229 C1213 1.429 . S
C1229 C1225 1.446 1_545 S
C1229 C1230 1.523 1_545 S
C1230 C1214 1.368 . S
C1230 C1226 1.368 . S
C1230 C1229 1.523 1_565 S
H1231 C1206 0.950 . S
H1232 C1208 0.950 . S
H1233 C1209 0.949 . S
H1234 C1211 0.950 . S
H1235 C1213 0.950 . S
C1236 C1237 1.349 . S
C1236 C1238 1.327 . S
C1236 H1261 0.950 . S
C1237 C1236 1.349 . S
C1237 C1253 1.349 . S
C1238 C1236 1.327 . S
C1238 C1257 1.429 . S
C1238 H1262 0.950 . S
C1239 C1256 1.574 . S
C1239 C1258 1.368 . S
C1239 H1263 0.949 . S
H1240 C1244 0.949 . S
C1241 C1242 1.349 . S
C1241 C1243 1.327 . S
C1241 H1264 0.950 . S
C1242 C1241 1.349 . S
C1242 C1254 1.349 . S
C1243 C1241 1.327 . S
C1243 C1259 1.429 . S
C1243 H1265 0.950 . S
C1244 H1240 0.949 . S
C1244 C1252 1.574 . S
C1244 C1260 1.368 . S
H1245 C1253 0.950 . S
H1246 C1251 0.950 . S
H1247 C1252 0.949 . S
H1248 C1254 0.950 . S
H1249 C1255 0.950 . S
H1250 C1256 0.949 . S
C1251 H1246 0.950 . S
C1251 C1253 1.327 . S
C1251 C1257 1.429 . S
C1252 C1244 1.574 . S
C1252 H1247 0.949 . S
C1252 C1258 1.368 . S
C1253 C1237 1.349 . S
C1253 H1245 0.950 . S
C1253 C1251 1.327 . S
C1254 C1242 1.349 . S
C1254 H1248 0.950 . S
C1254 C1255 1.327 . S
C1255 H1249 0.950 . S
C1255 C1254 1.327 . S
C1255 C1259 1.429 . S
C1256 C1239 1.574 . S
C1256 H1250 0.949 . S
C1256 C1260 1.368 . S
C1257 C1238 1.429 . S
C1257 C1251 1.429 . S
C1257 C1258 1.523 . S
C1258 C1239 1.368 . S
C1258 C1252 1.368 . S
C1258 C1257 1.523 . S
C1259 C1243 1.429 . S
C1259 C1255 1.429 . S
C1259 C1260 1.523 . S
C1260 C1244 1.368 . S
C1260 C1256 1.368 . S
C1260 C1259 1.523 . S
H1261 C1236 0.950 . S
H1262 C1238 0.950 . S
H1263 C1239 0.949 . S
H1264 C1241 0.950 . S
H1265 C1243 0.950 . S
C1266 C1267 1.349 . S
C1266 C1268 1.327 . S
C1266 H1291 0.950 . S
C1267 C1266 1.349 . S
C1267 C1283 1.349 . S
C1268 C1266 1.327 . S
C1268 C1287 1.429 . S
C1268 H1292 0.950 . S
C1269 C1286 1.574 . S
C1269 C1288 1.368 . S
C1269 H1293 0.949 . S
H1270 C1274 0.949 . S
C1271 C1272 1.349 . S
C1271 C1273 1.327 . S
C1271 H1294 0.950 . S
C1272 C1271 1.349 . S
C1272 C1284 1.349 . S
C1273 C1271 1.327 . S
C1273 C1289 1.429 . S
C1273 H1295 0.950 . S
C1274 H1270 0.949 . S
C1274 C1282 1.574 . S
C1274 C1290 1.368 . S
H1275 C1283 0.950 . S
H1276 C1281 0.950 . S
H1277 C1282 0.949 . S
H1278 C1284 0.950 . S
H1279 C1285 0.950 . S
H1280 C1286 0.949 . S
C1281 H1276 0.950 . S
C1281 C1283 1.327 . S
C1281 C1287 1.429 . S
C1282 C1274 1.574 . S
C1282 H1277 0.949 . S
C1282 C1288 1.368 . S
C1283 C1267 1.349 . S
C1283 H1275 0.950 . S
C1283 C1281 1.327 . S
C1284 C1272 1.349 . S
C1284 H1278 0.950 . S
C1284 C1285 1.327 . S
C1285 H1279 0.950 . S
C1285 C1284 1.327 . S
C1285 C1289 1.429 . S
C1286 C1269 1.574 . S
C1286 H1280 0.949 . S
C1286 C1290 1.368 . S
C1287 C1268 1.429 . S
C1287 C1281 1.429 . S
C1287 C1288 1.523 . S
C1288 C1269 1.368 . S
C1288 C1282 1.368 . S
C1288 C1287 1.523 . S
C1289 C1273 1.429 . S
C1289 C1285 1.429 . S
C1289 C1290 1.523 . S
C1290 C1274 1.368 . S
C1290 C1286 1.368 . S
C1290 C1289 1.523 . S
H1291 C1266 0.950 . S
H1292 C1268 0.950 . S
H1293 C1269 0.949 . S
H1294 C1271 0.950 . S
H1295 C1273 0.950 . S
C1296 C1297 1.349 . S
C1296 C1298 1.327 . S
C1296 H1321 0.950 . S
C1297 C1296 1.349 . S
C1297 C1313 1.349 . S
C1298 C1296 1.327 . S
C1298 C1317 1.429 . S
C1298 H1322 0.950 . S
C1299 C1316 1.574 . S
C1299 C1318 1.368 . S
C1299 H1323 0.949 . S
H1300 C1304 0.949 . S
C1301 C1302 1.349 . S
C1301 C1303 1.327 . S
C1301 H1324 0.950 . S
C1302 C1301 1.349 . S
C1302 C1314 1.349 . S
C1303 C1301 1.327 . S
C1303 C1319 1.429 . S
C1303 H1325 0.950 . S
C1304 H1300 0.949 . S
C1304 C1312 1.574 . S
C1304 C1320 1.368 . S
H1305 C1313 0.950 . S
H1306 C1311 0.950 . S
H1307 C1312 0.949 . S
H1308 C1314 0.950 . S
H1309 C1315 0.950 . S
H1310 C1316 0.949 . S
C1311 H1306 0.950 . S
C1311 C1313 1.327 . S
C1311 C1317 1.429 . S
C1312 C1304 1.574 . S
C1312 H1307 0.949 . S
C1312 C1318 1.368 . S
C1313 C1297 1.349 . S
C1313 H1305 0.950 . S
C1313 C1311 1.327 . S
C1314 C1302 1.349 . S
C1314 H1308 0.950 . S
C1314 C1315 1.327 . S
C1315 H1309 0.950 . S
C1315 C1314 1.327 . S
C1315 C1319 1.429 . S
C1316 C1299 1.574 . S
C1316 H1310 0.949 . S
C1316 C1320 1.368 . S
C1317 C1298 1.429 . S
C1317 C1311 1.429 . S
C1317 C1318 1.523 . S
C1318 C1299 1.368 . S
C1318 C1312 1.368 . S
C1318 C1317 1.523 . S
C1319 C1303 1.429 . S
C1319 C1315 1.429 . S
C1319 C1320 1.523 . S
C1320 C1304 1.368 . S
C1320 C1316 1.368 . S
C1320 C1319 1.523 . S
H1321 C1296 0.950 . S
H1322 C1298 0.950 . S
H1323 C1299 0.949 . S
H1324 C1301 0.950 . S
H1325 C1303 0.950 . S
C1326 C1327 1.349 . S
C1326 C1328 1.327 . S
C1326 H1351 0.950 . S
C1327 C1326 1.349 . S
C1327 C1343 1.349 . S
C1328 C1326 1.327 . S
C1328 C1347 1.429 . S
C1328 H1352 0.950 . S
C1329 C1346 1.574 1_565 S
C1329 C1348 1.368 . S
C1329 H1353 0.949 . S
H1330 C1334 0.949 . S
C1331 C1332 1.349 . S
C1331 C1333 1.327 . S
C1331 H1354 0.950 . S
C1332 C1331 1.349 . S
C1332 C1344 1.349 . S
C1333 C1331 1.327 . S
C1333 C1349 1.429 . S
C1333 H1355 0.950 . S
C1334 H1330 0.949 . S
C1334 C1342 1.574 1_545 S
C1334 C1350 1.368 . S
H1335 C1343 0.950 . S
H1336 C1341 0.950 . S
H1337 C1342 0.949 . S
H1338 C1344 0.950 . S
H1339 C1345 0.950 . S
H1340 C1346 0.949 . S
C1341 H1336 0.950 . S
C1341 C1343 1.327 . S
C1341 C1347 1.429 . S
C1342 C1334 1.574 1_565 S
C1342 H1337 0.949 . S
C1342 C1348 1.368 . S
C1343 C1327 1.349 . S
C1343 H1335 0.950 . S
C1343 C1341 1.327 . S
C1344 C1332 1.349 . S
C1344 H1338 0.950 . S
C1344 C1345 1.327 . S
C1345 H1339 0.950 . S
C1345 C1344 1.327 . S
C1345 C1349 1.429 . S
C1346 C1329 1.574 1_545 S
C1346 H1340 0.949 . S
C1346 C1350 1.368 . S
C1347 C1328 1.429 . S
C1347 C1341 1.429 . S
C1347 C1348 1.523 . S
C1348 C1329 1.368 . S
C1348 C1342 1.368 . S
C1348 C1347 1.523 . S
C1349 C1333 1.429 . S
C1349 C1345 1.429 . S
C1349 C1350 1.523 . S
C1350 C1334 1.368 . S
C1350 C1346 1.368 . S
C1350 C1349 1.523 . S
H1351 C1326 0.950 . S
H1352 C1328 0.950 . S
H1353 C1329 0.949 . S
H1354 C1331 0.950 . S
H1355 C1333 0.950 . S
C1356 C1357 1.349 . S
C1356 C1358 1.327 . S
C1356 H1381 0.950 . S
C1357 C1356 1.349 . S
C1357 C1373 1.349 . S
C1358 C1356 1.327 . S
C1358 C1377 1.429 . S
C1358 H1382 0.950 . S
C1359 C1376 1.574 . S
C1359 C1378 1.368 . S
C1359 H1383 0.949 . S
H1360 C1364 0.949 . S
C1361 C1362 1.349 . S
C1361 C1363 1.327 . S
C1361 H1384 0.950 . S
C1362 C1361 1.349 . S
C1362 C1374 1.349 . S
C1363 C1361 1.327 . S
C1363 C1379 1.429 . S
C1363 H1385 0.950 . S
C1364 H1360 0.949 . S
C1364 C1372 1.574 . S
C1364 C1380 1.368 . S
H1365 C1373 0.950 . S
H1366 C1371 0.950 . S
H1367 C1372 0.949 . S
H1368 C1374 0.950 . S
H1369 C1375 0.950 . S
H1370 C1376 0.949 . S
C1371 H1366 0.950 . S
C1371 C1373 1.327 . S
C1371 C1377 1.429 . S
C1372 C1364 1.574 . S
C1372 H1367 0.949 . S
C1372 C1378 1.368 . S
C1373 C1357 1.349 . S
C1373 H1365 0.950 . S
C1373 C1371 1.327 . S
C1374 C1362 1.349 . S
C1374 H1368 0.950 . S
C1374 C1375 1.327 . S
C1375 H1369 0.950 . S
C1375 C1374 1.327 . S
C1375 C1379 1.429 . S
C1376 C1359 1.574 . S
C1376 H1370 0.949 . S
C1376 C1380 1.368 . S
C1377 C1358 1.429 . S
C1377 C1371 1.429 . S
C1377 C1378 1.523 . S
C1378 C1359 1.368 . S
C1378 C1372 1.368 . S
C1378 C1377 1.523 . S
C1379 C1363 1.429 . S
C1379 C1375 1.429 . S
C1379 C1380 1.523 . S
C1380 C1364 1.368 . S
C1380 C1376 1.368 . S
C1380 C1379 1.523 . S
H1381 C1356 0.950 . S
H1382 C1358 0.950 . S
H1383 C1359 0.949 . S
H1384 C1361 0.950 . S
H1385 C1363 0.950 . S
C1386 C1387 1.349 . S
C1386 C1388 1.327 . S
C1386 H1411 0.950 . S
C1387 C1386 1.349 . S
C1387 C1403 1.349 . S
C1388 C1386 1.327 . S
C1388 C1407 1.429 . S
C1388 H1412 0.950 . S
C1389 C1406 1.574 . S
C1389 C1408 1.368 . S
C1389 H1413 0.949 . S
H1390 C1394 0.949 . S
C1391 C1392 1.349 . S
C1391 C1393 1.327 . S
C1391 H1414 0.950 . S
C1392 C1391 1.349 . S
C1392 C1404 1.349 . S
C1393 C1391 1.327 . S
C1393 C1409 1.429 . S
C1393 H1415 0.950 . S
C1394 H1390 0.949 . S
C1394 C1402 1.574 . S
C1394 C1410 1.368 . S
H1395 C1403 0.950 . S
H1396 C1401 0.950 . S
H1397 C1402 0.949 . S
H1398 C1404 0.950 . S
H1399 C1405 0.950 . S
H1400 C1406 0.949 . S
C1401 H1396 0.950 . S
C1401 C1403 1.327 . S
C1401 C1407 1.429 . S
C1402 C1394 1.574 . S
C1402 H1397 0.949 . S
C1402 C1408 1.368 . S
C1403 C1387 1.349 . S
C1403 H1395 0.950 . S
C1403 C1401 1.327 . S
C1404 C1392 1.349 . S
C1404 H1398 0.950 . S
C1404 C1405 1.327 . S
C1405 H1399 0.950 . S
C1405 C1404 1.327 . S
C1405 C1409 1.429 . S
C1406 C1389 1.574 . S
C1406 H1400 0.949 . S
C1406 C1410 1.368 . S
C1407 C1388 1.429 . S
C1407 C1401 1.429 . S
C1407 C1408 1.523 . S
C1408 C1389 1.368 . S
C1408 C1402 1.368 . S
C1408 C1407 1.523 . S
C1409 C1393 1.429 . S
C1409 C1405 1.429 . S
C1409 C1410 1.523 . S
C1410 C1394 1.368 . S
C1410 C1406 1.368 . S
C1410 C1409 1.523 . S
H1411 C1386 0.950 . S
H1412 C1388 0.950 . S
H1413 C1389 0.949 . S
H1414 C1391 0.950 . S
H1415 C1393 0.950 . S
C1416 C1417 1.349 . S
C1416 C1418 1.327 . S
C1416 H1441 0.950 . S
C1417 C1416 1.349 . S
C1417 C1433 1.349 . S
C1418 C1416 1.327 . S
C1418 C1437 1.429 . S
C1418 H1442 0.950 . S
C1419 C1436 1.574 . S
C1419 C1438 1.368 . S
C1419 H1443 0.949 . S
H1420 C1424 0.949 . S
C1421 C1422 1.349 . S
C1421 C1423 1.327 . S
C1421 H1444 0.950 . S
C1422 C1421 1.349 . S
C1422 C1434 1.349 . S
C1423 C1421 1.327 . S
C1423 C1439 1.429 . S
C1423 H1445 0.950 . S
C1424 H1420 0.949 . S
C1424 C1432 1.574 . S
C1424 C1440 1.368 . S
H1425 C1433 0.950 . S
H1426 C1431 0.950 . S
H1427 C1432 0.949 . S
H1428 C1434 0.950 . S
H1429 C1435 0.950 . S
H1430 C1436 0.949 . S
C1431 H1426 0.950 . S
C1431 C1433 1.327 . S
C1431 C1437 1.429 . S
C1432 C1424 1.574 . S
C1432 H1427 0.949 . S
C1432 C1438 1.368 . S
C1433 C1417 1.349 . S
C1433 H1425 0.950 . S
C1433 C1431 1.327 . S
C1434 C1422 1.349 . S
C1434 H1428 0.950 . S
C1434 C1435 1.327 . S
C1435 H1429 0.950 . S
C1435 C1434 1.327 . S
C1435 C1439 1.429 . S
C1436 C1419 1.574 . S
C1436 H1430 0.949 . S
C1436 C1440 1.368 . S
C1437 C1418 1.429 . S
C1437 C1431 1.429 . S
C1437 C1438 1.523 . S
C1438 C1419 1.368 . S
C1438 C1432 1.368 . S
C1438 C1437 1.523 . S
C1439 C1423 1.429 . S
C1439 C1435 1.429 . S
C1439 C1440 1.523 . S
C1440 C1424 1.368 . S
C1440 C1436 1.368 . S
C1440 C1439 1.523 . S
H1441 C1416 0.950 . S
H1442 C1418 0.950 . S
H1443 C1419 0.949 . S
H1444 C1421 0.950 . S
H1445 C1423 0.950 . S
C1446 C1447 1.349 . S
C1446 C1448 1.327 . S
C1446 H1471 0.950 . S
C1447 C1446 1.349 . S
C1447 C1463 1.349 . S
C1448 C1446 1.327 . S
C1448 C1467 1.429 . S
C1448 H1472 0.950 . S
C1449 C1466 1.574 . S
C1449 C1468 1.368 . S
C1449 H1473 0.949 . S
H1450 C1454 0.949 . S
C1451 C1452 1.349 . S
C1451 C1453 1.327 . S
C1451 H1474 0.950 . S
C1452 C1451 1.349 . S
C1452 C1464 1.349 . S
C1453 C1451 1.327 . S
C1453 C1469 1.429 . S
C1453 H1475 0.950 . S
C1454 H1450 0.949 . S
C1454 C1462 1.574 . S
C1454 C1470 1.368 . S
H1455 C1463 0.950 . S
H1456 C1461 0.950 . S
H1457 C1462 0.949 . S
H1458 C1464 0.950 . S
H1459 C1465 0.950 . S
H1460 C1466 0.949 . S
C1461 H1456 0.950 . S
C1461 C1463 1.327 . S
C1461 C1467 1.429 . S
C1462 C1454 1.574 . S
C1462 H1457 0.949 . S
C1462 C1468 1.368 . S
C1463 C1447 1.349 . S
C1463 H1455 0.950 . S
C1463 C1461 1.327 . S
C1464 C1452 1.349 . S
C1464 H1458 0.950 . S
C1464 C1465 1.327 . S
C1465 H1459 0.950 . S
C1465 C1464 1.327 . S
C1465 C1469 1.429 . S
C1466 C1449 1.574 . S
C1466 H1460 0.949 . S
C1466 C1470 1.368 . S
C1467 C1448 1.429 . S
C1467 C1461 1.429 . S
C1467 C1468 1.523 . S
C1468 C1449 1.368 . S
C1468 C1462 1.368 . S
C1468 C1467 1.523 . S
C1469 C1453 1.429 . S
C1469 C1465 1.429 . S
C1469 C1470 1.523 . S
C1470 C1454 1.368 . S
C1470 C1466 1.368 . S
C1470 C1469 1.523 . S
H1471 C1446 0.950 . S
H1472 C1448 0.950 . S
H1473 C1449 0.949 . S
H1474 C1451 0.950 . S
H1475 C1453 0.950 . S
C1476 C1477 1.349 . S
C1476 C1478 1.327 . S
C1476 H1501 0.950 . S
C1477 C1476 1.349 . S
C1477 C1493 1.349 . S
C1478 C1476 1.327 . S
C1478 C1497 1.429 . S
C1478 H1502 0.950 . S
C1479 C1496 1.574 . S
C1479 C1498 1.368 . S
C1479 H1503 0.949 . S
H1480 C1484 0.949 . S
C1481 C1482 1.349 . S
C1481 C1483 1.327 . S
C1481 H1504 0.950 . S
C1482 C1481 1.349 . S
C1482 C1494 1.349 . S
C1483 C1481 1.327 . S
C1483 C1499 1.429 . S
C1483 H1505 0.950 . S
C1484 H1480 0.949 . S
C1484 C1492 1.574 . S
C1484 C1500 1.368 . S
H1485 C1493 0.950 . S
H1486 C1491 0.950 . S
H1487 C1492 0.949 . S
H1488 C1494 0.950 . S
H1489 C1495 0.950 . S
H1490 C1496 0.949 . S
C1491 H1486 0.950 . S
C1491 C1493 1.327 . S
C1491 C1497 1.429 . S
C1492 C1484 1.574 . S
C1492 H1487 0.949 . S
C1492 C1498 1.368 . S
C1493 C1477 1.349 . S
C1493 H1485 0.950 . S
C1493 C1491 1.327 . S
C1494 C1482 1.349 . S
C1494 H1488 0.950 . S
C1494 C1495 1.327 . S
C1495 H1489 0.950 . S
C1495 C1494 1.327 . S
C1495 C1499 1.429 . S
C1496 C1479 1.574 . S
C1496 H1490 0.949 . S
C1496 C1500 1.368 . S
C1497 C1478 1.429 . S
C1497 C1491 1.429 . S
C1497 C1498 1.523 . S
C1498 C1479 1.368 . S
C1498 C1492 1.368 . S
C1498 C1497 1.523 . S
C1499 C1483 1.429 . S
C1499 C1495 1.429 . S
C1499 C1500 1.523 . S
C1500 C1484 1.368 . S
C1500 C1496 1.368 . S
C1500 C1499 1.523 . S
H1501 C1476 0.950 . S
H1502 C1478 0.950 . S
H1503 C1479 0.949 . S
H1504 C1481 0.950 . S
H1505 C1483 0.950 . S
C1506 C1507 1.349 . S
C1506 C1508 1.327 . S
C1506 H1531 0.950 . S
C1507 C1506 1.349 . S
C1507 C1523 1.349 . S
C1508 C1506 1.327 . S
C1508 C1527 1.429 . S
C1508 H1532 0.950 . S
C1509 C1526 1.574 . S
C1509 C1528 1.368 . S
C1509 H1533 0.949 . S
H1510 C1514 0.949 . S
C1511 C1512 1.349 . S
C1511 C1513 1.327 . S
C1511 H1534 0.950 . S
C1512 C1511 1.349 . S
C1512 C1524 1.349 . S
C1513 C1511 1.327 . S
C1513 C1529 1.429 . S
C1513 H1535 0.950 . S
C1514 H1510 0.949 . S
C1514 C1522 1.574 . S
C1514 C1530 1.368 . S
H1515 C1523 0.950 . S
H1516 C1521 0.950 . S
H1517 C1522 0.949 . S
H1518 C1524 0.950 . S
H1519 C1525 0.950 . S
H1520 C1526 0.949 . S
C1521 H1516 0.950 . S
C1521 C1523 1.327 . S
C1521 C1527 1.429 . S
C1522 C1514 1.574 . S
C1522 H1517 0.949 . S
C1522 C1528 1.368 . S
C1523 C1507 1.349 . S
C1523 H1515 0.950 . S
C1523 C1521 1.327 . S
C1524 C1512 1.349 . S
C1524 H1518 0.950 . S
C1524 C1525 1.327 . S
C1525 H1519 0.950 . S
C1525 C1524 1.327 . S
C1525 C1529 1.429 . S
C1526 C1509 1.574 . S
C1526 H1520 0.949 . S
C1526 C1530 1.368 . S
C1527 C1508 1.429 . S
C1527 C1521 1.429 . S
C1527 C1528 1.523 . S
C1528 C1509 1.368 . S
C1528 C1522 1.368 . S
C1528 C1527 1.523 . S
C1529 C1513 1.429 . S
C1529 C1525 1.429 . S
C1529 C1530 1.523 . S
C1530 C1514 1.368 . S
C1530 C1526 1.368 . S
C1530 C1529 1.523 . S
H1531 C1506 0.950 . S
H1532 C1508 0.950 . S
H1533 C1509 0.949 . S
H1534 C1511 0.950 . S
H1535 C1513 0.950 . S
C1536 C1537 1.349 . S
C1536 C1538 1.327 . S
C1536 H1561 0.950 . S
C1537 C1536 1.349 . S
C1537 C1553 1.349 . S
C1538 C1536 1.327 . S
C1538 C1557 1.429 . S
C1538 H1562 0.950 . S
C1539 C1556 1.574 . S
C1539 C1558 1.368 . S
C1539 H1563 0.949 . S
H1540 C1544 0.949 . S
C1541 C1542 1.349 . S
C1541 C1543 1.327 1_455 S
C1541 H1564 0.950 . S
C1542 C1541 1.349 . S
C1542 C1554 1.349 . S
C1543 C1541 1.327 1_655 S
C1543 C1559 1.429 . S
C1543 H1565 0.950 . S
C1544 H1540 0.949 . S
C1544 C1552 1.574 . S
C1544 C1560 1.368 . S
H1545 C1553 0.950 . S
H1546 C1551 0.950 . S
H1547 C1552 0.949 . S
H1548 C1554 0.950 . S
H1549 C1555 0.950 . S
H1550 C1556 0.949 . S
C1551 H1546 0.950 . S
C1551 C1553 1.327 . S
C1551 C1557 1.429 . S
C1552 C1544 1.574 . S
C1552 H1547 0.949 . S
C1552 C1558 1.368 . S
C1553 C1537 1.349 . S
C1553 H1545 0.950 . S
C1553 C1551 1.327 . S
C1554 C1542 1.349 . S
C1554 H1548 0.950 . S
C1554 C1555 1.327 1_455 S
C1555 H1549 0.950 . S
C1555 C1554 1.327 1_655 S
C1555 C1559 1.429 . S
C1556 C1539 1.574 . S
C1556 H1550 0.949 . S
C1556 C1560 1.368 . S
C1557 C1538 1.429 . S
C1557 C1551 1.429 . S
C1557 C1558 1.523 . S
C1558 C1539 1.368 . S
C1558 C1552 1.368 . S
C1558 C1557 1.523 . S
C1559 C1543 1.429 . S
C1559 C1555 1.429 . S
C1559 C1560 1.523 . S
C1560 C1544 1.368 . S
C1560 C1556 1.368 . S
C1560 C1559 1.523 . S
H1561 C1536 0.950 . S
H1562 C1538 0.950 . S
H1563 C1539 0.949 . S
H1564 C1541 0.950 . S
H1565 C1543 0.950 . S
C1566 C1567 1.349 . S
C1566 C1568 1.327 . S
C1566 H1591 0.950 . S
C1567 C1566 1.349 . S
C1567 C1583 1.349 . S
C1568 C1566 1.327 . S
C1568 C1587 1.429 . S
C1568 H1592 0.950 . S
C1569 C1586 1.574 . S
C1569 C1588 1.368 . S
C1569 H1593 0.949 . S
H1570 C1574 0.949 . S
C1571 C1572 1.349 . S
C1571 C1573 1.327 . S
C1571 H1594 0.950 . S
C1572 C1571 1.349 . S
C1572 C1584 1.349 . S
C1573 C1571 1.327 . S
C1573 C1589 1.429 . S
C1573 H1595 0.950 . S
C1574 H1570 0.949 . S
C1574 C1582 1.574 . S
C1574 C1590 1.368 . S
H1575 C1583 0.950 . S
H1576 C1581 0.950 . S
H1577 C1582 0.949 . S
H1578 C1584 0.950 . S
H1579 C1585 0.950 . S
H1580 C1586 0.949 . S
C1581 H1576 0.950 . S
C1581 C1583 1.327 . S
C1581 C1587 1.429 . S
C1582 C1574 1.574 . S
C1582 H1577 0.949 . S
C1582 C1588 1.368 . S
C1583 C1567 1.349 . S
C1583 H1575 0.950 . S
C1583 C1581 1.327 . S
C1584 C1572 1.349 . S
C1584 H1578 0.950 . S
C1584 C1585 1.327 . S
C1585 H1579 0.950 . S
C1585 C1584 1.327 . S
C1585 C1589 1.429 . S
C1586 C1569 1.574 . S
C1586 H1580 0.949 . S
C1586 C1590 1.368 . S
C1587 C1568 1.429 . S
C1587 C1581 1.429 . S
C1587 C1588 1.523 . S
C1588 C1569 1.368 . S
C1588 C1582 1.368 . S
C1588 C1587 1.523 . S
C1589 C1573 1.429 . S
C1589 C1585 1.429 . S
C1589 C1590 1.523 . S
C1590 C1574 1.368 . S
C1590 C1586 1.368 . S
C1590 C1589 1.523 . S
H1591 C1566 0.950 . S
H1592 C1568 0.950 . S
H1593 C1569 0.949 . S
H1594 C1571 0.950 . S
H1595 C1573 0.950 . S
C1596 C1597 1.349 . S
C1596 C1598 1.327 . S
C1596 H1621 0.950 . S
C1597 C1596 1.349 . S
C1597 C1613 1.349 . S
C1598 C1596 1.327 . S
C1598 C1617 1.429 . S
C1598 H1622 0.950 . S
C1599 C1616 1.574 . S
C1599 C1618 1.368 . S
C1599 H1623 0.949 . S
H1600 C1604 0.949 . S
C1601 C1602 1.349 . S
C1601 C1603 1.327 . S
C1601 H1624 0.950 . S
C1602 C1601 1.349 . S
C1602 C1614 1.349 . S
C1603 C1601 1.327 . S
C1603 C1619 1.429 . S
C1603 H1625 0.950 . S
C1604 H1600 0.949 . S
C1604 C1612 1.574 . S
C1604 C1620 1.368 . S
H1605 C1613 0.950 . S
H1606 C1611 0.950 . S
H1607 C1612 0.949 . S
H1608 C1614 0.950 . S
H1609 C1615 0.950 . S
H1610 C1616 0.949 . S
C1611 H1606 0.950 . S
C1611 C1613 1.327 . S
C1611 C1617 1.429 . S
C1612 C1604 1.574 . S
C1612 H1607 0.949 . S
C1612 C1618 1.368 . S
C1613 C1597 1.349 . S
C1613 H1605 0.950 . S
C1613 C1611 1.327 . S
C1614 C1602 1.349 . S
C1614 H1608 0.950 . S
C1614 C1615 1.327 . S
C1615 H1609 0.950 . S
C1615 C1614 1.327 . S
C1615 C1619 1.429 . S
C1616 C1599 1.574 . S
C1616 H1610 0.949 . S
C1616 C1620 1.368 . S
C1617 C1598 1.429 . S
C1617 C1611 1.429 . S
C1617 C1618 1.523 . S
C1618 C1599 1.368 . S
C1618 C1612 1.368 . S
C1618 C1617 1.523 . S
C1619 C1603 1.429 . S
C1619 C1615 1.429 . S
C1619 C1620 1.523 . S
C1620 C1604 1.368 . S
C1620 C1616 1.368 . S
C1620 C1619 1.523 . S
H1621 C1596 0.950 . S
H1622 C1598 0.950 . S
H1623 C1599 0.949 . S
H1624 C1601 0.950 . S
H1625 C1603 0.950 . S
C1626 C1627 1.349 . S
C1626 C1628 1.327 . S
C1626 H1651 0.950 . S
C1627 C1626 1.349 . S
C1627 C1643 1.349 . S
C1628 C1626 1.327 . S
C1628 C1647 1.429 . S
C1628 H1652 0.950 . S
C1629 C1646 1.574 . S
C1629 C1648 1.368 . S
C1629 H1653 0.949 . S
H1630 C1634 0.949 . S
C1631 C1632 1.349 . S
C1631 C1633 1.327 . S
C1631 H1654 0.950 . S
C1632 C1631 1.349 . S
C1632 C1644 1.349 . S
C1633 C1631 1.327 . S
C1633 C1649 1.429 1_455 S
C1633 H1655 0.950 1_455 S
C1634 H1630 0.949 . S
C1634 C1642 1.574 . S
C1634 C1650 1.368 . S
H1635 C1643 0.950 . S
H1636 C1641 0.950 . S
H1637 C1642 0.949 . S
H1638 C1644 0.950 . S
H1639 C1645 0.950 . S
H1640 C1646 0.949 . S
C1641 H1636 0.950 . S
C1641 C1643 1.327 . S
C1641 C1647 1.429 . S
C1642 C1634 1.574 . S
C1642 H1637 0.949 . S
C1642 C1648 1.368 . S
C1643 C1627 1.349 . S
C1643 H1635 0.950 . S
C1643 C1641 1.327 . S
C1644 C1632 1.349 . S
C1644 H1638 0.950 . S
C1644 C1645 1.327 . S
C1645 H1639 0.950 . S
C1645 C1644 1.327 . S
C1645 C1649 1.429 1_455 S
C1646 C1629 1.574 . S
C1646 H1640 0.949 . S
C1646 C1650 1.368 . S
C1647 C1628 1.429 . S
C1647 C1641 1.429 . S
C1647 C1648 1.523 . S
C1648 C1629 1.368 . S
C1648 C1642 1.368 . S
C1648 C1647 1.523 . S
C1649 C1633 1.429 1_655 S
C1649 C1645 1.429 1_655 S
C1649 C1650 1.523 . S
C1650 C1634 1.368 . S
C1650 C1646 1.368 . S
C1650 C1649 1.523 . S
H1651 C1626 0.950 . S
H1652 C1628 0.950 . S
H1653 C1629 0.949 . S
H1654 C1631 0.950 . S
H1655 C1633 0.950 1_655 S
C1656 C1657 1.349 . S
C1656 C1658 1.327 . S
C1656 H1681 0.950 . S
C1657 C1656 1.349 . S
C1657 C1673 1.349 . S
C1658 C1656 1.327 . S
C1658 C1677 1.429 . S
C1658 H1682 0.950 . S
C1659 C1676 1.574 . S
C1659 C1678 1.368 . S
C1659 H1683 0.949 . S
H1660 C1664 0.949 . S
C1661 C1662 1.349 . S
C1661 C1663 1.327 . S
C1661 H1684 0.950 . S
C1662 C1661 1.349 . S
C1662 C1674 1.349 . S
C1663 C1661 1.327 . S
C1663 C1679 1.429 . S
C1663 H1685 0.950 . S
C1664 H1660 0.949 . S
C1664 C1672 1.574 . S
C1664 C1680 1.368 . S
H1665 C1673 0.950 . S
H1666 C1671 0.950 . S
H1667 C1672 0.949 . S
H1668 C1674 0.950 . S
H1669 C1675 0.950 . S
H1670 C1676 0.949 . S
C1671 H1666 0.950 . S
C1671 C1673 1.327 . S
C1671 C1677 1.429 . S
C1672 C1664 1.574 . S
C1672 H1667 0.949 . S
C1672 C1678 1.368 . S
C1673 C1657 1.349 . S
C1673 H1665 0.950 . S
C1673 C1671 1.327 . S
C1674 C1662 1.349 . S
C1674 H1668 0.950 . S
C1674 C1675 1.327 . S
C1675 H1669 0.950 . S
C1675 C1674 1.327 . S
C1675 C1679 1.429 . S
C1676 C1659 1.574 . S
C1676 H1670 0.949 . S
C1676 C1680 1.368 . S
C1677 C1658 1.429 . S
C1677 C1671 1.429 . S
C1677 C1678 1.523 . S
C1678 C1659 1.368 . S
C1678 C1672 1.368 . S
C1678 C1677 1.523 . S
C1679 C1663 1.429 . S
C1679 C1675 1.429 . S
C1679 C1680 1.523 . S
C1680 C1664 1.368 . S
C1680 C1676 1.368 . S
C1680 C1679 1.523 . S
H1681 C1656 0.950 . S
H1682 C1658 0.950 . S
H1683 C1659 0.949 . S
H1684 C1661 0.950 . S
H1685 C1663 0.950 . S
C1686 C1687 1.349 . S
C1686 C1688 1.327 . S
C1686 H1711 0.950 . S
C1687 C1686 1.349 . S
C1687 C1703 1.349 . S
C1688 C1686 1.327 . S
C1688 C1707 1.429 . S
C1688 H1712 0.950 . S
C1689 C1706 1.574 . S
C1689 C1708 1.368 . S
C1689 H1713 0.949 . S
H1690 C1694 0.949 . S
C1691 C1692 1.349 . S
C1691 C1693 1.327 . S
C1691 H1714 0.950 . S
C1692 C1691 1.349 . S
C1692 C1704 1.349 . S
C1693 C1691 1.327 . S
C1693 C1709 1.429 . S
C1693 H1715 0.950 . S
C1694 H1690 0.949 . S
C1694 C1702 1.574 . S
C1694 C1710 1.368 . S
H1695 C1703 0.950 . S
H1696 C1701 0.950 . S
H1697 C1702 0.949 . S
H1698 C1704 0.950 . S
H1699 C1705 0.950 . S
H1700 C1706 0.949 . S
C1701 H1696 0.950 . S
C1701 C1703 1.327 . S
C1701 C1707 1.429 . S
C1702 C1694 1.574 . S
C1702 H1697 0.949 . S
C1702 C1708 1.368 . S
C1703 C1687 1.349 . S
C1703 H1695 0.950 . S
C1703 C1701 1.327 . S
C1704 C1692 1.349 . S
C1704 H1698 0.950 . S
C1704 C1705 1.327 . S
C1705 H1699 0.950 . S
C1705 C1704 1.327 . S
C1705 C1709 1.429 . S
C1706 C1689 1.574 . S
C1706 H1700 0.949 . S
C1706 C1710 1.368 . S
C1707 C1688 1.429 . S
C1707 C1701 1.429 . S
C1707 C1708 1.523 . S
C1708 C1689 1.368 . S
C1708 C1702 1.368 . S
C1708 C1707 1.523 . S
C1709 C1693 1.429 . S
C1709 C1705 1.429 . S
C1709 C1710 1.523 . S
C1710 C1694 1.368 . S
C1710 C1706 1.368 . S
C1710 C1709 1.523 . S
H1711 C1686 0.950 . S
H1712 C1688 0.950 . S
H1713 C1689 0.949 . S
H1714 C1691 0.950 . S
H1715 C1693 0.950 . S
C1716 C1717 1.349 . S
C1716 C1718 1.327 . S
C1716 H1741 0.950 . S
C1717 C1716 1.349 . S
C1717 C1733 1.349 . S
C1718 C1716 1.327 . S
C1718 C1737 1.429 . S
C1718 H1742 0.950 . S
C1719 C1736 1.574 . S
C1719 C1738 1.368 . S
C1719 H1743 0.949 . S
H1720 C1724 0.949 . S
C1721 C1722 1.349 . S
C1721 C1723 1.327 . S
C1721 H1744 0.950 . S
C1722 C1721 1.349 . S
C1722 C1734 1.349 . S
C1723 C1721 1.327 . S
C1723 C1739 1.429 . S
C1723 H1745 0.950 . S
C1724 H1720 0.949 . S
C1724 C1732 1.574 . S
C1724 C1740 1.368 . S
H1725 C1733 0.950 . S
H1726 C1731 0.950 . S
H1727 C1732 0.949 . S
H1728 C1734 0.950 . S
H1729 C1735 0.950 . S
H1730 C1736 0.949 . S
C1731 H1726 0.950 . S
C1731 C1733 1.327 . S
C1731 C1737 1.429 . S
C1732 C1724 1.574 . S
C1732 H1727 0.949 . S
C1732 C1738 1.368 . S
C1733 C1717 1.349 . S
C1733 H1725 0.950 . S
C1733 C1731 1.327 . S
C1734 C1722 1.349 . S
C1734 H1728 0.950 . S
C1734 C1735 1.327 . S
C1735 H1729 0.950 . S
C1735 C1734 1.327 . S
C1735 C1739 1.429 . S
C1736 C1719 1.574 . S
C1736 H1730 0.949 . S
C1736 C1740 1.368 . S
C1737 C1718 1.429 . S
C1737 C1731 1.429 . S
C1737 C1738 1.523 . S
C1738 C1719 1.368 . S
C1738 C1732 1.368 . S
C1738 C1737 1.523 . S
C1739 C1723 1.429 . S
C1739 C1735 1.429 . S
C1739 C1740 1.523 . S
C1740 C1724 1.368 . S
C1740 C1736 1.368 . S
C1740 C1739 1.523 . S
H1741 C1716 0.950 . S
H1742 C1718 0.950 . S
H1743 C1719 0.949 . S
H1744 C1721 0.950 . S
H1745 C1723 0.950 . S
C1746 C1747 1.349 . S
C1746 C1748 1.327 . S
C1746 H1771 0.950 . S
C1747 C1746 1.349 . S
C1747 C1763 1.349 . S
C1748 C1746 1.327 . S
C1748 C1767 1.429 . S
C1748 H1772 0.950 . S
C1749 C1766 1.574 . S
C1749 C1768 1.368 . S
C1749 H1773 0.949 . S
H1750 C1754 0.949 . S
C1751 C1752 1.349 . S
C1751 C1753 1.327 . S
C1751 H1774 0.950 . S
C1752 C1751 1.349 . S
C1752 C1764 1.349 . S
C1753 C1751 1.327 . S
C1753 C1769 1.429 . S
C1753 H1775 0.950 . S
C1754 H1750 0.949 . S
C1754 C1762 1.574 . S
C1754 C1770 1.368 . S
H1755 C1763 0.950 . S
H1756 C1761 0.950 . S
H1757 C1762 0.949 . S
H1758 C1764 0.950 . S
H1759 C1765 0.950 . S
H1760 C1766 0.949 . S
C1761 H1756 0.950 . S
C1761 C1763 1.327 . S
C1761 C1767 1.429 . S
C1762 C1754 1.574 . S
C1762 H1757 0.949 . S
C1762 C1768 1.368 . S
C1763 C1747 1.349 . S
C1763 H1755 0.950 . S
C1763 C1761 1.327 . S
C1764 C1752 1.349 . S
C1764 H1758 0.950 . S
C1764 C1765 1.327 . S
C1765 H1759 0.950 . S
C1765 C1764 1.327 . S
C1765 C1769 1.429 . S
C1766 C1749 1.574 . S
C1766 H1760 0.949 . S
C1766 C1770 1.368 . S
C1767 C1748 1.429 . S
C1767 C1761 1.429 . S
C1767 C1768 1.523 . S
C1768 C1749 1.368 . S
C1768 C1762 1.368 . S
C1768 C1767 1.523 . S
C1769 C1753 1.429 . S
C1769 C1765 1.429 . S
C1769 C1770 1.523 . S
C1770 C1754 1.368 . S
C1770 C1766 1.368 . S
C1770 C1769 1.523 . S
H1771 C1746 0.950 . S
H1772 C1748 0.950 . S
H1773 C1749 0.949 . S
H1774 C1751 0.950 . S
H1775 C1753 0.950 . S
C1776 C1777 1.349 . S
C1776 C1778 1.327 . S
C1776 H1801 0.950 . S
C1777 C1776 1.349 . S
C1777 C1793 1.349 . S
C1778 C1776 1.327 . S
C1778 C1797 1.429 . S
C1778 H1802 0.950 . S
C1779 C1796 1.574 . S
C1779 C1798 1.368 . S
C1779 H1803 0.949 . S
H1780 C1784 0.949 . S
C1781 C1782 1.349 . S
C1781 C1783 1.327 . S
C1781 H1804 0.950 . S
C1782 C1781 1.349 . S
C1782 C1794 1.349 . S
C1783 C1781 1.327 . S
C1783 C1799 1.429 . S
C1783 H1805 0.950 . S
C1784 H1780 0.949 . S
C1784 C1792 1.574 . S
C1784 C1800 1.368 . S
H1785 C1793 0.950 . S
H1786 C1791 0.950 . S
H1787 C1792 0.949 . S
H1788 C1794 0.950 . S
H1789 C1795 0.950 . S
H1790 C1796 0.949 . S
C1791 H1786 0.950 . S
C1791 C1793 1.327 . S
C1791 C1797 1.429 . S
C1792 C1784 1.574 . S
C1792 H1787 0.949 . S
C1792 C1798 1.368 . S
C1793 C1777 1.349 . S
C1793 H1785 0.950 . S
C1793 C1791 1.327 . S
C1794 C1782 1.349 . S
C1794 H1788 0.950 . S
C1794 C1795 1.327 . S
C1795 H1789 0.950 . S
C1795 C1794 1.327 . S
C1795 C1799 1.429 . S
C1796 C1779 1.574 . S
C1796 H1790 0.949 . S
C1796 C1800 1.368 . S
C1797 C1778 1.429 . S
C1797 C1791 1.429 . S
C1797 C1798 1.523 . S
C1798 C1779 1.368 . S
C1798 C1792 1.368 . S
C1798 C1797 1.523 . S
C1799 C1783 1.429 . S
C1799 C1795 1.429 . S
C1799 C1800 1.523 . S
C1800 C1784 1.368 . S
C1800 C1796 1.368 . S
C1800 C1799 1.523 . S
H1801 C1776 0.950 . S
H1802 C1778 0.950 . S
H1803 C1779 0.949 . S
H1804 C1781 0.950 . S
H1805 C1783 0.950 . S
C1806 C1807 1.349 . S
C1806 C1808 1.327 . S
C1806 H1831 0.950 . S
C1807 C1806 1.349 . S
C1807 C1823 1.349 . S
C1808 C1806 1.327 . S
C1808 C1827 1.429 . S
C1808 H1832 0.950 . S
C1809 C1826 1.574 . S
C1809 C1828 1.368 . S
C1809 H1833 0.949 . S
H1810 C1814 0.949 . S
C1811 C1812 1.349 . S
C1811 C1813 1.327 . S
C1811 H1834 0.950 . S
C1812 C1811 1.349 . S
C1812 C1824 1.349 . S
C1813 C1811 1.327 . S
C1813 C1829 1.429 . S
C1813 H1835 0.950 . S
C1814 H1810 0.949 . S
C1814 C1822 1.574 . S
C1814 C1830 1.368 . S
H1815 C1823 0.950 . S
H1816 C1821 0.950 . S
H1817 C1822 0.949 . S
H1818 C1824 0.950 . S
H1819 C1825 0.950 . S
H1820 C1826 0.949 . S
C1821 H1816 0.950 . S
C1821 C1823 1.327 . S
C1821 C1827 1.429 . S
C1822 C1814 1.574 . S
C1822 H1817 0.949 . S
C1822 C1828 1.368 . S
C1823 C1807 1.349 . S
C1823 H1815 0.950 . S
C1823 C1821 1.327 . S
C1824 C1812 1.349 . S
C1824 H1818 0.950 . S
C1824 C1825 1.327 . S
C1825 H1819 0.950 . S
C1825 C1824 1.327 . S
C1825 C1829 1.429 . S
C1826 C1809 1.574 . S
C1826 H1820 0.949 . S
C1826 C1830 1.368 . S
C1827 C1808 1.429 . S
C1827 C1821 1.429 . S
C1827 C1828 1.523 . S
C1828 C1809 1.368 . S
C1828 C1822 1.368 . S
C1828 C1827 1.523 . S
C1829 C1813 1.429 . S
C1829 C1825 1.429 . S
C1829 C1830 1.523 . S
C1830 C1814 1.368 . S
C1830 C1826 1.368 . S
C1830 C1829 1.523 . S
H1831 C1806 0.950 . S
H1832 C1808 0.950 . S
H1833 C1809 0.949 . S
H1834 C1811 0.950 . S
H1835 C1813 0.950 . S
C1836 C1837 1.349 . S
C1836 C1838 1.327 . S
C1836 H1861 0.950 . S
C1837 C1836 1.349 . S
C1837 C1853 1.349 . S
C1838 C1836 1.327 . S
C1838 C1857 1.429 . S
C1838 H1862 0.950 . S
C1839 C1856 1.574 . S
C1839 C1858 1.368 . S
C1839 H1863 0.949 . S
H1840 C1844 0.949 . S
C1841 C1842 1.349 . S
C1841 C1843 1.327 . S
C1841 H1864 0.950 . S
C1842 C1841 1.349 . S
C1842 C1854 1.349 . S
C1843 C1841 1.327 . S
C1843 C1859 1.429 . S
C1843 H1865 0.950 . S
C1844 H1840 0.949 . S
C1844 C1852 1.574 . S
C1844 C1860 1.368 . S
H1845 C1853 0.950 . S
H1846 C1851 0.950 . S
H1847 C1852 0.949 . S
H1848 C1854 0.950 . S
H1849 C1855 0.950 . S
H1850 C1856 0.949 . S
C1851 H1846 0.950 . S
C1851 C1853 1.327 . S
C1851 C1857 1.429 . S
C1852 C1844 1.574 . S
C1852 H1847 0.949 . S
C1852 C1858 1.368 . S
C1853 C1837 1.349 . S
C1853 H1845 0.950 . S
C1853 C1851 1.327 . S
C1854 C1842 1.349 . S
C1854 H1848 0.950 . S
C1854 C1855 1.327 . S
C1855 H1849 0.950 . S
C1855 C1854 1.327 . S
C1855 C1859 1.429 . S
C1856 C1839 1.574 . S
C1856 H1850 0.949 . S
C1856 C1860 1.368 . S
C1857 C1838 1.429 . S
C1857 C1851 1.429 . S
C1857 C1858 1.523 . S
C1858 C1839 1.368 . S
C1858 C1852 1.368 . S
C1858 C1857 1.523 . S
C1859 C1843 1.429 . S
C1859 C1855 1.429 . S
C1859 C1860 1.523 . S
C1860 C1844 1.368 . S
C1860 C1856 1.368 . S
C1860 C1859 1.523 . S
H1861 C1836 0.950 . S
H1862 C1838 0.950 . S
H1863 C1839 0.949 . S
H1864 C1841 0.950 . S
H1865 C1843 0.950 . S
C1866 C1867 1.349 . S
C1866 C1868 1.327 . S
C1866 H1891 0.950 . S
C1867 C1866 1.349 . S
C1867 C1883 1.349 . S
C1868 C1866 1.327 . S
C1868 C1887 1.429 . S
C1868 H1892 0.950 . S
C1869 C1886 1.574 . S
C1869 C1888 1.368 . S
C1869 H1893 0.949 . S
H1870 C1874 0.949 . S
C1871 C1872 1.349 . S
C1871 C1873 1.327 . S
C1871 H1894 0.950 . S
C1872 C1871 1.349 . S
C1872 C1884 1.349 . S
C1873 C1871 1.327 . S
C1873 C1889 1.429 . S
C1873 H1895 0.950 . S
C1874 H1870 0.949 . S
C1874 C1882 1.574 . S
C1874 C1890 1.368 . S
H1875 C1883 0.950 . S
H1876 C1881 0.950 . S
H1877 C1882 0.949 . S
H1878 C1884 0.950 . S
H1879 C1885 0.950 . S
H1880 C1886 0.949 . S
C1881 H1876 0.950 . S
C1881 C1883 1.327 . S
C1881 C1887 1.429 . S
C1882 C1874 1.574 . S
C1882 H1877 0.949 . S
C1882 C1888 1.368 . S
C1883 C1867 1.349 . S
C1883 H1875 0.950 . S
C1883 C1881 1.327 . S
C1884 C1872 1.349 . S
C1884 H1878 0.950 . S
C1884 C1885 1.327 . S
C1885 H1879 0.950 . S
C1885 C1884 1.327 . S
C1885 C1889 1.429 . S
C1886 C1869 1.574 . S
C1886 H1880 0.949 . S
C1886 C1890 1.368 . S
C1887 C1868 1.429 . S
C1887 C1881 1.429 . S
C1887 C1888 1.523 . S
C1888 C1869 1.368 . S
C1888 C1882 1.368 . S
C1888 C1887 1.523 . S
C1889 C1873 1.429 . S
C1889 C1885 1.429 . S
C1889 C1890 1.523 . S
C1890 C1874 1.368 . S
C1890 C1886 1.368 . S
C1890 C1889 1.523 . S
H1891 C1866 0.950 . S
H1892 C1868 0.950 . S
H1893 C1869 0.949 . S
H1894 C1871 0.950 . S
H1895 C1873 0.950 . S
C1896 C1897 1.349 . S
C1896 C1898 1.327 . S
C1896 H1921 0.950 . S
C1897 C1896 1.349 . S
C1897 C1913 1.349 . S
C1898 C1896 1.327 . S
C1898 C1917 1.429 . S
C1898 H1922 0.950 . S
C1899 C1916 1.574 . S
C1899 C1918 1.368 . S
C1899 H1923 0.949 . S
H1900 C1904 0.949 . S
C1901 C1902 1.349 . S
C1901 C1903 1.327 . S
C1901 H1924 0.950 . S
C1902 C1901 1.349 . S
C1902 C1914 1.349 . S
C1903 C1901 1.327 . S
C1903 C1919 1.429 . S
C1903 H1925 0.950 . S
C1904 H1900 0.949 . S
C1904 C1912 1.574 . S
C1904 C1920 1.368 . S
H1905 C1913 0.950 . S
H1906 C1911 0.950 . S
H1907 C1912 0.949 . S
H1908 C1914 0.950 . S
H1909 C1915 0.950 . S
H1910 C1916 0.949 . S
C1911 H1906 0.950 . S
C1911 C1913 1.327 . S
C1911 C1917 1.429 . S
C1912 C1904 1.574 . S
C1912 H1907 0.949 . S
C1912 C1918 1.368 . S
C1913 C1897 1.349 . S
C1913 H1905 0.950 . S
C1913 C1911 1.327 . S
C1914 C1902 1.349 . S
C1914 H1908 0.950 . S
C1914 C1915 1.327 . S
C1915 H1909 0.950 . S
C1915 C1914 1.327 . S
C1915 C1919 1.429 . S
C1916 C1899 1.574 . S
C1916 H1910 0.949 . S
C1916 C1920 1.368 . S
C1917 C1898 1.429 . S
C1917 C1911 1.429 . S
C1917 C1918 1.523 . S
C1918 C1899 1.368 . S
C1918 C1912 1.368 . S
C1918 C1917 1.523 . S
C1919 C1903 1.429 . S
C1919 C1915 1.429 . S
C1919 C1920 1.523 . S
C1920 C1904 1.368 . S
C1920 C1916 1.368 . S
C1920 C1919 1.523 . S
H1921 C1896 0.950 . S
H1922 C1898 0.950 . S
H1923 C1899 0.949 . S
H1924 C1901 0.950 . S
H1925 C1903 0.950 . S
C1926 C1927 1.349 . S
C1926 C1928 1.327 . S
C1926 H1951 0.950 . S
C1927 C1926 1.349 . S
C1927 C1943 1.349 . S
C1928 C1926 1.327 . S
C1928 C1947 1.429 . S
C1928 H1952 0.950 . S
C1929 C1946 1.574 . S
C1929 C1948 1.368 . S
C1929 H1953 0.949 . S
H1930 C1934 0.949 . S
C1931 C1932 1.349 . S
C1931 C1933 1.327 . S
C1931 H1954 0.950 . S
C1932 C1931 1.349 . S
C1932 C1944 1.349 . S
C1933 C1931 1.327 . S
C1933 C1949 1.429 . S
C1933 H1955 0.950 . S
C1934 H1930 0.949 . S
C1934 C1942 1.574 . S
C1934 C1950 1.368 . S
H1935 C1943 0.950 . S
H1936 C1941 0.950 . S
H1937 C1942 0.949 . S
H1938 C1944 0.950 . S
H1939 C1945 0.950 . S
H1940 C1946 0.949 . S
C1941 H1936 0.950 . S
C1941 C1943 1.327 . S
C1941 C1947 1.429 . S
C1942 C1934 1.574 . S
C1942 H1937 0.949 . S
C1942 C1948 1.368 . S
C1943 C1927 1.349 . S
C1943 H1935 0.950 . S
C1943 C1941 1.327 . S
C1944 C1932 1.349 . S
C1944 H1938 0.950 . S
C1944 C1945 1.327 . S
C1945 H1939 0.950 . S
C1945 C1944 1.327 . S
C1945 C1949 1.429 . S
C1946 C1929 1.574 . S
C1946 H1940 0.949 . S
C1946 C1950 1.368 . S
C1947 C1928 1.429 . S
C1947 C1941 1.429 . S
C1947 C1948 1.523 . S
C1948 C1929 1.368 . S
C1948 C1942 1.368 . S
C1948 C1947 1.523 . S
C1949 C1933 1.429 . S
C1949 C1945 1.429 . S
C1949 C1950 1.523 . S
C1950 C1934 1.368 . S
C1950 C1946 1.368 . S
C1950 C1949 1.523 . S
H1951 C1926 0.950 . S
H1952 C1928 0.950 . S
H1953 C1929 0.949 . S
H1954 C1931 0.950 . S
H1955 C1933 0.950 . S
C1956 C1957 1.349 . S
C1956 C1958 1.327 . S
C1956 H1981 0.950 . S
C1957 C1956 1.349 . S
C1957 C1973 1.349 . S
C1958 C1956 1.327 . S
C1958 C1977 1.429 . S
C1958 H1982 0.950 . S
C1959 C1976 1.574 . S
C1959 C1978 1.368 . S
C1959 H1983 0.949 . S
H1960 C1964 0.949 . S
C1961 C1962 1.349 . S
C1961 C1963 1.327 . S
C1961 H1984 0.950 . S
C1962 C1961 1.349 . S
C1962 C1974 1.349 . S
C1963 C1961 1.327 . S
C1963 C1979 1.429 . S
C1963 H1985 0.950 . S
C1964 H1960 0.949 . S
C1964 C1972 1.574 . S
C1964 C1980 1.368 . S
H1965 C1973 0.950 . S
H1966 C1971 0.950 . S
H1967 C1972 0.949 . S
H1968 C1974 0.950 . S
H1969 C1975 0.950 . S
H1970 C1976 0.949 . S
C1971 H1966 0.950 . S
C1971 C1973 1.327 . S
C1971 C1977 1.429 . S
C1972 C1964 1.574 . S
C1972 H1967 0.949 . S
C1972 C1978 1.368 . S
C1973 C1957 1.349 . S
C1973 H1965 0.950 . S
C1973 C1971 1.327 . S
C1974 C1962 1.349 . S
C1974 H1968 0.950 . S
C1974 C1975 1.327 . S
C1975 H1969 0.950 . S
C1975 C1974 1.327 . S
C1975 C1979 1.429 . S
C1976 C1959 1.574 . S
C1976 H1970 0.949 . S
C1976 C1980 1.368 . S
C1977 C1958 1.429 . S
C1977 C1971 1.429 . S
C1977 C1978 1.523 . S
C1978 C1959 1.368 . S
C1978 C1972 1.368 . S
C1978 C1977 1.523 . S
C1979 C1963 1.429 . S
C1979 C1975 1.429 . S
C1979 C1980 1.523 . S
C1980 C1964 1.368 . S
C1980 C1976 1.368 . S
C1980 C1979 1.523 . S
H1981 C1956 0.950 . S
H1982 C1958 0.950 . S
H1983 C1959 0.949 . S
H1984 C1961 0.950 . S
H1985 C1963 0.950 . S
C1986 C1987 1.349 . S
C1986 C1988 1.327 . S
C1986 H2011 0.950 . S
C1987 C1986 1.349 . S
C1987 C2003 1.349 . S
C1988 C1986 1.327 . S
C1988 C2007 1.429 . S
C1988 H2012 0.950 . S
C1989 C2006 1.574 . S
C1989 C2008 1.368 . S
C1989 H2013 0.949 . S
H1990 C1994 0.949 . S
C1991 C1992 1.349 . S
C1991 C1993 1.327 . S
C1991 H2014 0.950 . S
C1992 C1991 1.349 . S
C1992 C2004 1.349 . S
C1993 C1991 1.327 . S
C1993 C2009 1.429 . S
C1993 H2015 0.950 . S
C1994 H1990 0.949 . S
C1994 C2002 1.574 . S
C1994 C2010 1.368 . S
H1995 C2003 0.950 . S
H1996 C2001 0.950 . S
H1997 C2002 0.949 . S
H1998 C2004 0.950 . S
H1999 C2005 0.950 . S
H2000 C2006 0.949 . S
C2001 H1996 0.950 . S
C2001 C2003 1.327 . S
C2001 C2007 1.429 . S
C2002 C1994 1.574 . S
C2002 H1997 0.949 . S
C2002 C2008 1.368 . S
C2003 C1987 1.349 . S
C2003 H1995 0.950 . S
C2003 C2001 1.327 . S
C2004 C1992 1.349 . S
C2004 H1998 0.950 . S
C2004 C2005 1.327 . S
C2005 H1999 0.950 . S
C2005 C2004 1.327 . S
C2005 C2009 1.429 . S
C2006 C1989 1.574 . S
C2006 H2000 0.949 . S
C2006 C2010 1.368 . S
C2007 C1988 1.429 . S
C2007 C2001 1.429 . S
C2007 C2008 1.523 . S
C2008 C1989 1.368 . S
C2008 C2002 1.368 . S
C2008 C2007 1.523 . S
C2009 C1993 1.429 . S
C2009 C2005 1.429 . S
C2009 C2010 1.523 . S
C2010 C1994 1.368 . S
C2010 C2006 1.368 . S
C2010 C2009 1.523 . S
H2011 C1986 0.950 . S
H2012 C1988 0.950 . S
H2013 C1989 0.949 . S
H2014 C1991 0.950 . S
H2015 C1993 0.950 . S
C2016 C2017 1.349 . S
C2016 C2018 1.327 . S
C2016 H2041 0.950 . S
C2017 C2016 1.349 . S
C2017 C2033 1.349 . S
C2018 C2016 1.327 . S
C2018 C2037 1.429 . S
C2018 H2042 0.950 . S
C2019 C2036 1.574 . S
C2019 C2038 1.368 . S
C2019 H2043 0.949 . S
H2020 C2024 0.949 . S
C2021 C2022 1.349 . S
C2021 C2023 1.327 . S
C2021 H2044 0.950 . S
C2022 C2021 1.349 . S
C2022 C2034 1.349 . S
C2023 C2021 1.327 . S
C2023 C2039 1.429 . S
C2023 H2045 0.950 . S
C2024 H2020 0.949 . S
C2024 C2032 1.574 . S
C2024 C2040 1.368 . S
H2025 C2033 0.950 . S
H2026 C2031 0.950 . S
H2027 C2032 0.949 . S
H2028 C2034 0.950 . S
H2029 C2035 0.950 . S
H2030 C2036 0.949 . S
C2031 H2026 0.950 . S
C2031 C2033 1.327 . S
C2031 C2037 1.429 . S
C2032 C2024 1.574 . S
C2032 H2027 0.949 . S
C2032 C2038 1.368 . S
C2033 C2017 1.349 . S
C2033 H2025 0.950 . S
C2033 C2031 1.327 . S
C2034 C2022 1.349 . S
C2034 H2028 0.950 . S
C2034 C2035 1.327 . S
C2035 H2029 0.950 . S
C2035 C2034 1.327 . S
C2035 C2039 1.429 . S
C2036 C2019 1.574 . S
C2036 H2030 0.949 . S
C2036 C2040 1.368 . S
C2037 C2018 1.429 . S
C2037 C2031 1.429 . S
C2037 C2038 1.523 . S
C2038 C2019 1.368 . S
C2038 C2032 1.368 . S
C2038 C2037 1.523 . S
C2039 C2023 1.429 . S
C2039 C2035 1.429 . S
C2039 C2040 1.523 . S
C2040 C2024 1.368 . S
C2040 C2036 1.368 . S
C2040 C2039 1.523 . S
H2041 C2016 0.950 . S
H2042 C2018 0.950 . S
H2043 C2019 0.949 . S
H2044 C2021 0.950 . S
H2045 C2023 0.950 . S
C2046 C2047 1.349 . S
C2046 C2048 1.327 . S
C2046 H2071 0.950 . S
C2047 C2046 1.349 . S
C2047 C2063 1.349 . S
C2048 C2046 1.327 . S
C2048 C2067 1.429 . S
C2048 H2072 0.950 . S
C2049 C2066 1.574 . S
C2049 C2068 1.368 . S
C2049 H2073 0.949 . S
H2050 C2054 0.949 . S
C2051 C2052 1.349 . S
C2051 C2053 1.327 . S
C2051 H2074 0.950 . S
C2052 C2051 1.349 . S
C2052 C2064 1.349 . S
C2053 C2051 1.327 . S
C2053 C2069 1.429 . S
C2053 H2075 0.950 . S
C2054 H2050 0.949 . S
C2054 C2062 1.574 . S
C2054 C2070 1.368 . S
H2055 C2063 0.950 . S
H2056 C2061 0.950 . S
H2057 C2062 0.949 . S
H2058 C2064 0.950 . S
H2059 C2065 0.950 . S
H2060 C2066 0.949 . S
C2061 H2056 0.950 . S
C2061 C2063 1.327 . S
C2061 C2067 1.429 . S
C2062 C2054 1.574 . S
C2062 H2057 0.949 . S
C2062 C2068 1.368 . S
C2063 C2047 1.349 . S
C2063 H2055 0.950 . S
C2063 C2061 1.327 . S
C2064 C2052 1.349 . S
C2064 H2058 0.950 . S
C2064 C2065 1.327 . S
C2065 H2059 0.950 . S
C2065 C2064 1.327 . S
C2065 C2069 1.429 . S
C2066 C2049 1.574 . S
C2066 H2060 0.949 . S
C2066 C2070 1.368 . S
C2067 C2048 1.429 . S
C2067 C2061 1.429 . S
C2067 C2068 1.523 . S
C2068 C2049 1.368 . S
C2068 C2062 1.368 . S
C2068 C2067 1.523 . S
C2069 C2053 1.429 . S
C2069 C2065 1.429 . S
C2069 C2070 1.523 . S
C2070 C2054 1.368 . S
C2070 C2066 1.368 . S
C2070 C2069 1.523 . S
H2071 C2046 0.950 . S
H2072 C2048 0.950 . S
H2073 C2049 0.949 . S
H2074 C2051 0.950 . S
H2075 C2053 0.950 . S
C2076 C2077 1.349 . S
C2076 C2078 1.327 . S
C2076 H2101 0.950 . S
C2077 C2076 1.349 . S
C2077 C2093 1.349 . S
C2078 C2076 1.327 . S
C2078 C2097 1.429 . S
C2078 H2102 0.950 . S
C2079 C2096 1.574 . S
C2079 C2098 1.368 . S
C2079 H2103 0.949 . S
H2080 C2084 0.949 . S
C2081 C2082 1.349 . S
C2081 C2083 1.327 . S
C2081 H2104 0.950 . S
C2082 C2081 1.349 . S
C2082 C2094 1.349 . S
C2083 C2081 1.327 . S
C2083 C2099 1.429 . S
C2083 H2105 0.950 . S
C2084 H2080 0.949 . S
C2084 C2092 1.574 . S
C2084 C2100 1.368 . S
H2085 C2093 0.950 . S
H2086 C2091 0.950 . S
H2087 C2092 0.949 . S
H2088 C2094 0.950 . S
H2089 C2095 0.950 . S
H2090 C2096 0.949 . S
C2091 H2086 0.950 . S
C2091 C2093 1.327 . S
C2091 C2097 1.429 . S
C2092 C2084 1.574 . S
C2092 H2087 0.949 . S
C2092 C2098 1.368 . S
C2093 C2077 1.349 . S
C2093 H2085 0.950 . S
C2093 C2091 1.327 . S
C2094 C2082 1.349 . S
C2094 H2088 0.950 . S
C2094 C2095 1.327 . S
C2095 H2089 0.950 . S
C2095 C2094 1.327 . S
C2095 C2099 1.429 . S
C2096 C2079 1.574 . S
C2096 H2090 0.949 . S
C2096 C2100 1.368 . S
C2097 C2078 1.429 . S
C2097 C2091 1.429 . S
C2097 C2098 1.523 . S
C2098 C2079 1.368 . S
C2098 C2092 1.368 . S
C2098 C2097 1.523 . S
C2099 C2083 1.429 . S
C2099 C2095 1.429 . S
C2099 C2100 1.523 . S
C2100 C2084 1.368 . S
C2100 C2096 1.368 . S
C2100 C2099 1.523 . S
H2101 C2076 0.950 . S
H2102 C2078 0.950 . S
H2103 C2079 0.949 . S
H2104 C2081 0.950 . S
H2105 C2083 0.950 . S
C2106 C2107 1.349 . S
C2106 C2108 1.327 . S
C2106 H2131 0.950 . S
C2107 C2106 1.349 . S
C2107 C2123 1.349 . S
C2108 C2106 1.327 . S
C2108 C2127 1.429 . S
C2108 H2132 0.950 . S
C2109 C2126 1.574 . S
C2109 C2128 1.368 . S
C2109 H2133 0.949 . S
H2110 C2114 0.949 . S
C2111 C2112 1.349 . S
C2111 C2113 1.327 . S
C2111 H2134 0.950 . S
C2112 C2111 1.349 . S
C2112 C2124 1.349 . S
C2113 C2111 1.327 . S
C2113 C2129 1.429 . S
C2113 H2135 0.950 . S
C2114 H2110 0.949 . S
C2114 C2122 1.574 . S
C2114 C2130 1.368 . S
H2115 C2123 0.950 . S
H2116 C2121 0.950 . S
H2117 C2122 0.949 . S
H2118 C2124 0.950 . S
H2119 C2125 0.950 . S
H2120 C2126 0.949 . S
C2121 H2116 0.950 . S
C2121 C2123 1.327 . S
C2121 C2127 1.429 . S
C2122 C2114 1.574 . S
C2122 H2117 0.949 . S
C2122 C2128 1.368 . S
C2123 C2107 1.349 . S
C2123 H2115 0.950 . S
C2123 C2121 1.327 . S
C2124 C2112 1.349 . S
C2124 H2118 0.950 . S
C2124 C2125 1.327 . S
C2125 H2119 0.950 . S
C2125 C2124 1.327 . S
C2125 C2129 1.429 . S
C2126 C2109 1.574 . S
C2126 H2120 0.949 . S
C2126 C2130 1.368 . S
C2127 C2108 1.429 . S
C2127 C2121 1.429 . S
C2127 C2128 1.523 . S
C2128 C2109 1.368 . S
C2128 C2122 1.368 . S
C2128 C2127 1.523 . S
C2129 C2113 1.429 . S
C2129 C2125 1.429 . S
C2129 C2130 1.523 . S
C2130 C2114 1.368 . S
C2130 C2126 1.368 . S
C2130 C2129 1.523 . S
H2131 C2106 0.950 . S
H2132 C2108 0.950 . S
H2133 C2109 0.949 . S
H2134 C2111 0.950 . S
H2135 C2113 0.950 . S
C2136 C2137 1.349 . S
C2136 C2138 1.327 . S
C2136 H2161 0.950 . S
C2137 C2136 1.349 . S
C2137 C2153 1.349 . S
C2138 C2136 1.327 . S
C2138 C2157 1.429 . S
C2138 H2162 0.950 . S
C2139 C2156 1.574 . S
C2139 C2158 1.368 . S
C2139 H2163 0.949 . S
H2140 C2144 0.949 . S
C2141 C2142 1.349 . S
C2141 C2143 1.327 . S
C2141 H2164 0.950 . S
C2142 C2141 1.349 . S
C2142 C2154 1.349 . S
C2143 C2141 1.327 . S
C2143 C2159 1.429 . S
C2143 H2165 0.950 . S
C2144 H2140 0.949 . S
C2144 C2152 1.574 . S
C2144 C2160 1.368 . S
H2145 C2153 0.950 . S
H2146 C2151 0.950 . S
H2147 C2152 0.949 . S
H2148 C2154 0.950 . S
H2149 C2155 0.950 . S
H2150 C2156 0.949 . S
C2151 H2146 0.950 . S
C2151 C2153 1.327 . S
C2151 C2157 1.429 . S
C2152 C2144 1.574 . S
C2152 H2147 0.949 . S
C2152 C2158 1.368 . S
C2153 C2137 1.349 . S
C2153 H2145 0.950 . S
C2153 C2151 1.327 . S
C2154 C2142 1.349 . S
C2154 H2148 0.950 . S
C2154 C2155 1.327 . S
C2155 H2149 0.950 . S
C2155 C2154 1.327 . S
C2155 C2159 1.429 . S
C2156 C2139 1.574 . S
C2156 H2150 0.949 . S
C2156 C2160 1.368 . S
C2157 C2138 1.429 . S
C2157 C2151 1.429 . S
C2157 C2158 1.523 . S
C2158 C2139 1.368 . S
C2158 C2152 1.368 . S
C2158 C2157 1.523 . S
C2159 C2143 1.429 . S
C2159 C2155 1.429 . S
C2159 C2160 1.523 . S
C2160 C2144 1.368 . S
C2160 C2156 1.368 . S
C2160 C2159 1.523 . S
H2161 C2136 0.950 . S
H2162 C2138 0.950 . S
H2163 C2139 0.949 . S
H2164 C2141 0.950 . S
H2165 C2143 0.950 . S
C2166 C2167 1.349 . S
C2166 C2168 1.327 . S
C2166 H2191 0.950 . S
C2167 C2166 1.349 . S
C2167 C2183 1.349 . S
C2168 C2166 1.327 . S
C2168 C2187 1.429 . S
C2168 H2192 0.950 . S
C2169 C2186 1.574 . S
C2169 C2188 1.368 . S
C2169 H2193 0.949 . S
H2170 C2174 0.949 . S
C2171 C2172 1.349 . S
C2171 C2173 1.327 . S
C2171 H2194 0.950 . S
C2172 C2171 1.349 . S
C2172 C2184 1.349 . S
C2173 C2171 1.327 . S
C2173 C2189 1.429 . S
C2173 H2195 0.950 . S
C2174 H2170 0.949 . S
C2174 C2182 1.574 . S
C2174 C2190 1.368 . S
H2175 C2183 0.950 . S
H2176 C2181 0.950 . S
H2177 C2182 0.949 . S
H2178 C2184 0.950 . S
H2179 C2185 0.950 . S
H2180 C2186 0.949 . S
C2181 H2176 0.950 . S
C2181 C2183 1.327 . S
C2181 C2187 1.429 . S
C2182 C2174 1.574 . S
C2182 H2177 0.949 . S
C2182 C2188 1.368 . S
C2183 C2167 1.349 . S
C2183 H2175 0.950 . S
C2183 C2181 1.327 . S
C2184 C2172 1.349 . S
C2184 H2178 0.950 . S
C2184 C2185 1.327 . S
C2185 H2179 0.950 . S
C2185 C2184 1.327 . S
C2185 C2189 1.429 . S
C2186 C2169 1.574 . S
C2186 H2180 0.949 . S
C2186 C2190 1.368 . S
C2187 C2168 1.429 . S
C2187 C2181 1.429 . S
C2187 C2188 1.523 . S
C2188 C2169 1.368 . S
C2188 C2182 1.368 . S
C2188 C2187 1.523 . S
C2189 C2173 1.429 . S
C2189 C2185 1.429 . S
C2189 C2190 1.523 . S
C2190 C2174 1.368 . S
C2190 C2186 1.368 . S
C2190 C2189 1.523 . S
H2191 C2166 0.950 . S
H2192 C2168 0.950 . S
H2193 C2169 0.949 . S
H2194 C2171 0.950 . S
H2195 C2173 0.950 . S
C2196 C2197 1.349 . S
C2196 C2198 1.327 . S
C2196 H2221 0.950 . S
C2197 C2196 1.349 . S
C2197 C2213 1.349 . S
C2198 C2196 1.327 . S
C2198 C2217 1.429 . S
C2198 H2222 0.950 . S
C2199 C2216 1.567 1_556 S
C2199 C2218 1.368 . S
C2199 H2223 0.949 . S
H2200 C2204 0.949 . S
C2201 C2202 1.349 . S
C2201 C2203 1.327 . S
C2201 H2224 0.950 . S
C2202 C2201 1.349 . S
C2202 C2214 1.349 . S
C2203 C2201 1.327 . S
C2203 C2219 1.429 . S
C2203 H2225 0.950 . S
C2204 H2200 0.949 . S
C2204 C2212 1.574 . S
C2204 C2220 1.368 . S
H2205 C2213 0.950 . S
H2206 C2211 0.950 . S
H2207 C2212 0.949 . S
H2208 C2214 0.950 . S
H2209 C2215 0.950 . S
H2210 C2216 0.957 . S
C2211 H2206 0.950 . S
C2211 C2213 1.327 . S
C2211 C2217 1.429 . S
C2212 C2204 1.574 . S
C2212 H2207 0.949 . S
C2212 C2218 1.368 . S
C2213 C2197 1.349 . S
C2213 H2205 0.950 . S
C2213 C2211 1.327 . S
C2214 C2202 1.349 . S
C2214 H2208 0.950 . S
C2214 C2215 1.327 . S
C2215 H2209 0.950 . S
C2215 C2214 1.327 . S
C2215 C2219 1.429 . S
C2216 C2199 1.567 1_554 S
C2216 H2210 0.957 . S
C2216 C2220 1.367 1_554 S
C2217 C2198 1.429 . S
C2217 C2211 1.429 . S
C2217 C2218 1.523 . S
C2218 C2199 1.368 . S
C2218 C2212 1.368 . S
C2218 C2217 1.523 . S
C2219 C2203 1.429 . S
C2219 C2215 1.429 . S
C2219 C2220 1.523 1_554 S
C2220 C2204 1.368 . S
C2220 C2216 1.367 1_556 S
C2220 C2219 1.523 1_556 S
H2221 C2196 0.950 . S
H2222 C2198 0.950 . S
H2223 C2199 0.949 . S
H2224 C2201 0.950 . S
H2225 C2203 0.950 . S
C2226 C2227 1.349 . S
C2226 C2228 1.327 . S
C2226 H2251 0.950 . S
C2227 C2226 1.349 . S
C2227 C2243 1.349 . S
C2228 C2226 1.327 . S
C2228 C2247 1.429 . S
C2228 H2252 0.950 . S
C2229 C2246 1.574 . S
C2229 C2248 1.368 . S
C2229 H2253 0.949 . S
H2230 C2234 0.949 . S
C2231 C2232 1.349 . S
C2231 C2233 1.327 . S
C2231 H2254 0.950 . S
C2232 C2231 1.349 . S
C2232 C2244 1.349 . S
C2233 C2231 1.327 . S
C2233 C2249 1.408 1_554 S
C2233 H2255 0.950 . S
C2234 H2230 0.949 . S
C2234 C2242 1.574 . S
C2234 C2250 1.368 . S
H2235 C2243 0.950 . S
H2236 C2241 0.950 . S
H2237 C2242 0.949 . S
H2238 C2244 0.950 . S
H2239 C2245 0.950 1_556 S
H2240 C2246 0.949 . S
C2241 H2236 0.950 . S
C2241 C2243 1.327 . S
C2241 C2247 1.429 . S
C2242 C2234 1.574 . S
C2242 H2237 0.949 . S
C2242 C2248 1.368 . S
C2243 C2227 1.349 . S
C2243 H2235 0.950 . S
C2243 C2241 1.327 . S
C2244 C2232 1.349 . S
C2244 H2238 0.950 . S
C2244 C2245 1.327 . S
C2245 H2239 0.950 1_554 S
C2245 C2244 1.327 . S
C2245 C2249 1.427 1_554 S
C2246 C2229 1.574 . S
C2246 H2240 0.949 . S
C2246 C2250 1.368 . S
C2247 C2228 1.429 . S
C2247 C2241 1.429 . S
C2247 C2248 1.523 . S
C2248 C2229 1.368 . S
C2248 C2242 1.368 . S
C2248 C2247 1.523 . S
C2249 C2233 1.408 1_556 S
C2249 C2245 1.427 1_556 S
C2249 C2250 1.544 . S
C2250 C2234 1.368 . S
C2250 C2246 1.368 . S
C2250 C2249 1.544 . S
H2251 C2226 0.950 . S
H2252 C2228 0.950 . S
H2253 C2229 0.949 . S
H2254 C2231 0.950 . S
H2255 C2233 0.950 . S
C2256 C2257 1.349 . S
C2256 C2258 1.327 . S
C2256 H2281 0.950 . S
C2257 C2256 1.349 . S
C2257 C2273 1.349 . S
C2258 C2256 1.327 . S
C2258 C2277 1.429 . S
C2258 H2282 0.950 . S
C2259 C2276 1.574 1_556 S
C2259 C2278 1.368 . S
C2259 H2283 0.949 . S
H2260 C2264 0.949 . S
C2261 C2262 1.349 . S
C2261 C2263 1.327 . S
C2261 H2284 0.950 . S
C2262 C2261 1.349 . S
C2262 C2274 1.349 . S
C2263 C2261 1.327 . S
C2263 C2279 1.429 . S
C2263 H2285 0.950 . S
C2264 H2260 0.949 . S
C2264 C2272 1.574 . S
C2264 C2280 1.347 1_556 S
H2265 C2273 0.950 . S
H2266 C2271 0.950 . S
H2267 C2272 0.949 . S
H2268 C2274 0.950 . S
H2269 C2275 0.950 . S
H2270 C2276 0.949 . S
C2271 H2266 0.950 . S
C2271 C2273 1.327 . S
C2271 C2277 1.429 . S
C2272 C2264 1.574 . S
C2272 H2267 0.949 . S
C2272 C2278 1.368 . S
C2273 C2257 1.349 . S
C2273 H2265 0.950 . S
C2273 C2271 1.327 . S
C2274 C2262 1.349 . S
C2274 H2268 0.950 . S
C2274 C2275 1.327 . S
C2275 H2269 0.950 . S
C2275 C2274 1.327 . S
C2275 C2279 1.429 . S
C2276 C2259 1.574 1_554 S
C2276 H2270 0.949 . S
C2276 C2280 1.371 . S
C2277 C2258 1.429 . S
C2277 C2271 1.429 . S
C2277 C2278 1.523 . S
C2278 C2259 1.368 . S
C2278 C2272 1.368 . S
C2278 C2277 1.523 . S
C2279 C2263 1.429 . S
C2279 C2275 1.429 . S
C2279 C2280 1.548 . S
C2280 C2264 1.347 1_554 S
C2280 C2276 1.371 . S
C2280 C2279 1.548 . S
H2281 C2256 0.950 . S
H2282 C2258 0.950 . S
H2283 C2259 0.949 . S
H2284 C2261 0.950 . S
H2285 C2263 0.950 . S
C2286 C2287 1.349 . S
C2286 C2288 1.327 . S
C2286 H2311 0.950 . S
C2287 C2286 1.349 . S
C2287 C2303 1.349 . S
C2288 C2286 1.327 . S
C2288 C2307 1.429 . S
C2288 H2312 0.950 . S
C2289 C2306 1.574 . S
C2289 C2308 1.368 . S
C2289 H2313 0.949 . S
H2290 C2294 0.949 . S
C2291 C2292 1.349 . S
C2291 C2293 1.327 . S
C2291 H2314 0.950 . S
C2292 C2291 1.349 . S
C2292 C2304 1.349 . S
C2293 C2291 1.327 . S
C2293 C2309 1.429 . S
C2293 H2315 0.950 . S
C2294 H2290 0.949 . S
C2294 C2302 1.574 . S
C2294 C2310 1.368 . S
H2295 C2303 0.950 . S
H2296 C2301 0.950 . S
H2297 C2302 0.949 . S
H2298 C2304 0.950 . S
H2299 C2305 0.950 . S
H2300 C2306 0.949 . S
C2301 H2296 0.950 . S
C2301 C2303 1.327 . S
C2301 C2307 1.429 . S
C2302 C2294 1.574 . S
C2302 H2297 0.949 . S
C2302 C2308 1.368 . S
C2303 C2287 1.349 . S
C2303 H2295 0.950 . S
C2303 C2301 1.327 . S
C2304 C2292 1.349 . S
C2304 H2298 0.950 . S
C2304 C2305 1.327 . S
C2305 H2299 0.950 . S
C2305 C2304 1.327 . S
C2305 C2309 1.429 . S
C2306 C2289 1.574 . S
C2306 H2300 0.949 . S
C2306 C2310 1.368 . S
C2307 C2288 1.429 . S
C2307 C2301 1.429 . S
C2307 C2308 1.523 . S
C2308 C2289 1.368 . S
C2308 C2302 1.368 . S
C2308 C2307 1.523 . S
C2309 C2293 1.429 . S
C2309 C2305 1.429 . S
C2309 C2310 1.523 . S
C2310 C2294 1.368 . S
C2310 C2306 1.368 . S
C2310 C2309 1.523 . S
H2311 C2286 0.950 . S
H2312 C2288 0.950 . S
H2313 C2289 0.949 . S
H2314 C2291 0.950 . S
H2315 C2293 0.950 . S
C2316 C2317 1.349 . S
C2316 C2318 1.327 . S
C2316 H2341 0.950 . S
C2317 C2316 1.349 . S
C2317 C2333 1.349 . S
C2318 C2316 1.327 . S
C2318 C2337 1.429 . S
C2318 H2342 0.950 . S
C2319 C2336 1.574 . S
C2319 C2338 1.368 . S
C2319 H2343 0.949 . S
H2320 C2324 0.949 . S
C2321 C2322 1.349 . S
C2321 C2323 1.327 . S
C2321 H2344 0.950 . S
C2322 C2321 1.349 . S
C2322 C2334 1.349 . S
C2323 C2321 1.327 . S
C2323 C2339 1.429 . S
C2323 H2345 0.950 . S
C2324 H2320 0.949 . S
C2324 C2332 1.574 . S
C2324 C2340 1.368 . S
H2325 C2333 0.950 . S
H2326 C2331 0.950 . S
H2327 C2332 0.949 . S
H2328 C2334 0.950 . S
H2329 C2335 0.950 . S
H2330 C2336 0.949 . S
C2331 H2326 0.950 . S
C2331 C2333 1.327 . S
C2331 C2337 1.429 . S
C2332 C2324 1.574 . S
C2332 H2327 0.949 . S
C2332 C2338 1.368 . S
C2333 C2317 1.349 . S
C2333 H2325 0.950 . S
C2333 C2331 1.327 . S
C2334 C2322 1.349 . S
C2334 H2328 0.950 . S
C2334 C2335 1.327 . S
C2335 H2329 0.950 . S
C2335 C2334 1.327 . S
C2335 C2339 1.429 . S
C2336 C2319 1.574 . S
C2336 H2330 0.949 . S
C2336 C2340 1.368 . S
C2337 C2318 1.429 . S
C2337 C2331 1.429 . S
C2337 C2338 1.523 . S
C2338 C2319 1.368 . S
C2338 C2332 1.368 . S
C2338 C2337 1.523 . S
C2339 C2323 1.429 . S
C2339 C2335 1.429 . S
C2339 C2340 1.523 . S
C2340 C2324 1.368 . S
C2340 C2336 1.368 . S
C2340 C2339 1.523 . S
H2341 C2316 0.950 . S
H2342 C2318 0.950 . S
H2343 C2319 0.949 . S
H2344 C2321 0.950 . S
H2345 C2323 0.950 . S
C2346 C2347 1.349 . S
C2346 C2348 1.327 . S
C2346 H2371 0.950 . S
C2347 C2346 1.349 . S
C2347 C2363 1.349 . S
C2348 C2346 1.327 . S
C2348 C2367 1.429 . S
C2348 H2372 0.950 . S
C2349 C2366 1.574 . S
C2349 C2368 1.368 . S
C2349 H2373 0.949 . S
H2350 C2354 0.949 . S
C2351 C2352 1.349 . S
C2351 C2353 1.327 . S
C2351 H2374 0.950 . S
C2352 C2351 1.349 . S
C2352 C2364 1.349 . S
C2353 C2351 1.327 . S
C2353 C2369 1.429 . S
C2353 H2375 0.950 . S
C2354 H2350 0.949 . S
C2354 C2362 1.574 . S
C2354 C2370 1.368 . S
H2355 C2363 0.950 . S
H2356 C2361 0.950 . S
H2357 C2362 0.949 . S
H2358 C2364 0.950 . S
H2359 C2365 0.950 . S
H2360 C2366 0.949 . S
C2361 H2356 0.950 . S
C2361 C2363 1.327 . S
C2361 C2367 1.429 . S
C2362 C2354 1.574 . S
C2362 H2357 0.949 . S
C2362 C2368 1.368 . S
C2363 C2347 1.349 . S
C2363 H2355 0.950 . S
C2363 C2361 1.327 . S
C2364 C2352 1.349 . S
C2364 H2358 0.950 . S
C2364 C2365 1.327 . S
C2365 H2359 0.950 . S
C2365 C2364 1.327 . S
C2365 C2369 1.429 . S
C2366 C2349 1.574 . S
C2366 H2360 0.949 . S
C2366 C2370 1.368 . S
C2367 C2348 1.429 . S
C2367 C2361 1.429 . S
C2367 C2368 1.523 . S
C2368 C2349 1.368 . S
C2368 C2362 1.368 . S
C2368 C2367 1.523 . S
C2369 C2353 1.429 . S
C2369 C2365 1.429 . S
C2369 C2370 1.523 . S
C2370 C2354 1.368 . S
C2370 C2366 1.368 . S
C2370 C2369 1.523 . S
H2371 C2346 0.950 . S
H2372 C2348 0.950 . S
H2373 C2349 0.949 . S
H2374 C2351 0.950 . S
H2375 C2353 0.950 . S
C2376 C2377 1.349 . S
C2376 C2378 1.327 . S
C2376 H2401 0.950 . S
C2377 C2376 1.349 . S
C2377 C2393 1.349 . S
C2378 C2376 1.327 . S
C2378 C2397 1.429 . S
C2378 H2402 0.950 . S
C2379 C2396 1.574 . S
C2379 C2398 1.368 . S
C2379 H2403 0.949 . S
H2380 C2384 0.949 . S
C2381 C2382 1.349 . S
C2381 C2383 1.327 . S
C2381 H2404 0.950 . S
C2382 C2381 1.349 . S
C2382 C2394 1.349 . S
C2383 C2381 1.327 . S
C2383 C2399 1.429 . S
C2383 H2405 0.950 . S
C2384 H2380 0.949 . S
C2384 C2392 1.574 . S
C2384 C2400 1.368 . S
H2385 C2393 0.950 . S
H2386 C2391 0.950 . S
H2387 C2392 0.949 . S
H2388 C2394 0.950 . S
H2389 C2395 0.950 . S
H2390 C2396 0.949 . S
C2391 H2386 0.950 . S
C2391 C2393 1.327 . S
C2391 C2397 1.429 . S
C2392 C2384 1.574 . S
C2392 H2387 0.949 . S
C2392 C2398 1.368 . S
C2393 C2377 1.349 . S
C2393 H2385 0.950 . S
C2393 C2391 1.327 . S
C2394 C2382 1.349 . S
C2394 H2388 0.950 . S
C2394 C2395 1.327 . S
C2395 H2389 0.950 . S
C2395 C2394 1.327 . S
C2395 C2399 1.429 . S
C2396 C2379 1.574 . S
C2396 H2390 0.949 . S
C2396 C2400 1.368 . S
C2397 C2378 1.429 . S
C2397 C2391 1.429 . S
C2397 C2398 1.523 . S
C2398 C2379 1.368 . S
C2398 C2392 1.368 . S
C2398 C2397 1.523 . S
C2399 C2383 1.429 . S
C2399 C2395 1.429 . S
C2399 C2400 1.523 . S
C2400 C2384 1.368 . S
C2400 C2396 1.368 . S
C2400 C2399 1.523 . S
H2401 C2376 0.950 . S
H2402 C2378 0.950 . S
H2403 C2379 0.949 . S
H2404 C2381 0.950 . S
H2405 C2383 0.950 . S
C2406 C2407 1.349 . S
C2406 C2408 1.327 . S
C2406 H2431 0.950 . S
C2407 C2406 1.349 . S
C2407 C2423 1.349 . S
C2408 C2406 1.327 . S
C2408 C2427 1.429 . S
C2408 H2432 0.950 . S
C2409 C2426 1.574 . S
C2409 C2428 1.368 . S
C2409 H2433 0.949 . S
H2410 C2414 0.949 . S
C2411 C2412 1.349 . S
C2411 C2413 1.327 . S
C2411 H2434 0.950 . S
C2412 C2411 1.349 . S
C2412 C2424 1.349 . S
C2413 C2411 1.327 . S
C2413 C2429 1.429 . S
C2413 H2435 0.950 . S
C2414 H2410 0.949 . S
C2414 C2422 1.574 . S
C2414 C2430 1.368 . S
H2415 C2423 0.950 . S
H2416 C2421 0.950 . S
H2417 C2422 0.949 . S
H2418 C2424 0.950 . S
H2419 C2425 0.950 . S
H2420 C2426 0.949 . S
C2421 H2416 0.950 . S
C2421 C2423 1.327 . S
C2421 C2427 1.429 . S
C2422 C2414 1.574 . S
C2422 H2417 0.949 . S
C2422 C2428 1.368 . S
C2423 C2407 1.349 . S
C2423 H2415 0.950 . S
C2423 C2421 1.327 . S
C2424 C2412 1.349 . S
C2424 H2418 0.950 . S
C2424 C2425 1.327 . S
C2425 H2419 0.950 . S
C2425 C2424 1.327 . S
C2425 C2429 1.429 . S
C2426 C2409 1.574 . S
C2426 H2420 0.949 . S
C2426 C2430 1.368 . S
C2427 C2408 1.429 . S
C2427 C2421 1.429 . S
C2427 C2428 1.523 . S
C2428 C2409 1.368 . S
C2428 C2422 1.368 . S
C2428 C2427 1.523 . S
C2429 C2413 1.429 . S
C2429 C2425 1.429 . S
C2429 C2430 1.523 . S
C2430 C2414 1.368 . S
C2430 C2426 1.368 . S
C2430 C2429 1.523 . S
H2431 C2406 0.950 . S
H2432 C2408 0.950 . S
H2433 C2409 0.949 . S
H2434 C2411 0.950 . S
H2435 C2413 0.950 . S
C2436 C2437 1.349 . S
C2436 C2438 1.327 . S
C2436 H2461 0.950 . S
C2437 C2436 1.349 . S
C2437 C2453 1.349 . S
C2438 C2436 1.327 . S
C2438 C2457 1.429 . S
C2438 H2462 0.950 . S
C2439 C2456 1.574 . S
C2439 C2458 1.368 . S
C2439 H2463 0.949 . S
H2440 C2444 0.949 . S
C2441 C2442 1.349 . S
C2441 C2443 1.327 . S
C2441 H2464 0.950 . S
C2442 C2441 1.349 . S
C2442 C2454 1.349 . S
C2443 C2441 1.327 . S
C2443 C2459 1.429 . S
C2443 H2465 0.950 . S
C2444 H2440 0.949 . S
C2444 C2452 1.574 . S
C2444 C2460 1.368 . S
H2445 C2453 0.950 . S
H2446 C2451 0.950 . S
H2447 C2452 0.949 . S
H2448 C2454 0.950 . S
H2449 C2455 0.950 . S
H2450 C2456 0.949 . S
C2451 H2446 0.950 . S
C2451 C2453 1.327 . S
C2451 C2457 1.429 . S
C2452 C2444 1.574 . S
C2452 H2447 0.949 . S
C2452 C2458 1.368 . S
C2453 C2437 1.349 . S
C2453 H2445 0.950 . S
C2453 C2451 1.327 . S
C2454 C2442 1.349 . S
C2454 H2448 0.950 . S
C2454 C2455 1.327 . S
C2455 H2449 0.950 . S
C2455 C2454 1.327 . S
C2455 C2459 1.429 . S
C2456 C2439 1.574 . S
C2456 H2450 0.949 . S
C2456 C2460 1.368 . S
C2457 C2438 1.429 . S
C2457 C2451 1.429 . S
C2457 C2458 1.523 . S
C2458 C2439 1.368 . S
C2458 C2452 1.368 . S
C2458 C2457 1.523 . S
C2459 C2443 1.429 . S
C2459 C2455 1.429 . S
C2459 C2460 1.523 . S
C2460 C2444 1.368 . S
C2460 C2456 1.368 . S
C2460 C2459 1.523 . S
H2461 C2436 0.950 . S
H2462 C2438 0.950 . S
H2463 C2439 0.949 . S
H2464 C2441 0.950 . S
H2465 C2443 0.950 . S
C2466 C2467 1.349 . S
C2466 C2468 1.327 . S
C2466 H2491 0.950 . S
C2467 C2466 1.349 . S
C2467 C2483 1.349 . S
C2468 C2466 1.327 . S
C2468 C2487 1.429 . S
C2468 H2492 0.950 . S
C2469 C2486 1.574 . S
C2469 C2488 1.368 . S
C2469 H2493 0.949 . S
H2470 C2474 0.949 . S
C2471 C2472 1.349 . S
C2471 C2473 1.327 . S
C2471 H2494 0.950 . S
C2472 C2471 1.349 . S
C2472 C2484 1.349 . S
C2473 C2471 1.327 . S
C2473 C2489 1.429 . S
C2473 H2495 0.950 . S
C2474 H2470 0.949 . S
C2474 C2482 1.574 . S
C2474 C2490 1.368 . S
H2475 C2483 0.950 . S
H2476 C2481 0.950 . S
H2477 C2482 0.949 . S
H2478 C2484 0.950 . S
H2479 C2485 0.950 . S
H2480 C2486 0.949 . S
C2481 H2476 0.950 . S
C2481 C2483 1.327 . S
C2481 C2487 1.429 . S
C2482 C2474 1.574 . S
C2482 H2477 0.949 . S
C2482 C2488 1.368 . S
C2483 C2467 1.349 . S
C2483 H2475 0.950 . S
C2483 C2481 1.327 . S
C2484 C2472 1.349 . S
C2484 H2478 0.950 . S
C2484 C2485 1.327 . S
C2485 H2479 0.950 . S
C2485 C2484 1.327 . S
C2485 C2489 1.429 . S
C2486 C2469 1.574 . S
C2486 H2480 0.949 . S
C2486 C2490 1.368 . S
C2487 C2468 1.429 . S
C2487 C2481 1.429 . S
C2487 C2488 1.523 . S
C2488 C2469 1.368 . S
C2488 C2482 1.368 . S
C2488 C2487 1.523 . S
C2489 C2473 1.429 . S
C2489 C2485 1.429 . S
C2489 C2490 1.523 . S
C2490 C2474 1.368 . S
C2490 C2486 1.368 . S
C2490 C2489 1.523 . S
H2491 C2466 0.950 . S
H2492 C2468 0.950 . S
H2493 C2469 0.949 . S
H2494 C2471 0.950 . S
H2495 C2473 0.950 . S
C2496 C2497 1.349 . S
C2496 C2498 1.327 . S
C2496 H2521 0.950 . S
C2497 C2496 1.349 . S
C2497 C2513 1.349 . S
C2498 C2496 1.327 . S
C2498 C2517 1.429 . S
C2498 H2522 0.950 . S
C2499 C2516 1.574 . S
C2499 C2518 1.368 . S
C2499 H2523 0.949 . S
H2500 C2504 0.949 . S
C2501 C2502 1.349 . S
C2501 C2503 1.327 . S
C2501 H2524 0.950 . S
C2502 C2501 1.349 . S
C2502 C2514 1.349 . S
C2503 C2501 1.327 . S
C2503 C2519 1.429 . S
C2503 H2525 0.950 . S
C2504 H2500 0.949 . S
C2504 C2512 1.574 . S
C2504 C2520 1.368 . S
H2505 C2513 0.950 . S
H2506 C2511 0.950 . S
H2507 C2512 0.949 . S
H2508 C2514 0.950 . S
H2509 C2515 0.950 . S
H2510 C2516 0.949 . S
C2511 H2506 0.950 . S
C2511 C2513 1.327 . S
C2511 C2517 1.429 . S
C2512 C2504 1.574 . S
C2512 H2507 0.949 . S
C2512 C2518 1.368 . S
C2513 C2497 1.349 . S
C2513 H2505 0.950 . S
C2513 C2511 1.327 . S
C2514 C2502 1.349 . S
C2514 H2508 0.950 . S
C2514 C2515 1.327 . S
C2515 H2509 0.950 . S
C2515 C2514 1.327 . S
C2515 C2519 1.429 . S
C2516 C2499 1.574 . S
C2516 H2510 0.949 . S
C2516 C2520 1.368 . S
C2517 C2498 1.429 . S
C2517 C2511 1.429 . S
C2517 C2518 1.523 . S
C2518 C2499 1.368 . S
C2518 C2512 1.368 . S
C2518 C2517 1.523 . S
C2519 C2503 1.429 . S
C2519 C2515 1.429 . S
C2519 C2520 1.523 . S
C2520 C2504 1.368 . S
C2520 C2516 1.368 . S
C2520 C2519 1.523 . S
H2521 C2496 0.950 . S
H2522 C2498 0.950 . S
H2523 C2499 0.949 . S
H2524 C2501 0.950 . S
H2525 C2503 0.950 . S
C2526 C2527 1.349 . S
C2526 C2528 1.327 . S
C2526 H2551 0.950 . S
C2527 C2526 1.349 . S
C2527 C2543 1.349 . S
C2528 C2526 1.327 . S
C2528 C2547 1.429 . S
C2528 H2552 0.950 . S
C2529 C2546 1.574 . S
C2529 C2548 1.368 . S
C2529 H2553 0.949 . S
H2530 C2534 0.949 . S
C2531 C2532 1.349 . S
C2531 C2533 1.327 . S
C2531 H2554 0.950 . S
C2532 C2531 1.349 . S
C2532 C2544 1.349 . S
C2533 C2531 1.327 . S
C2533 C2549 1.429 . S
C2533 H2555 0.950 . S
C2534 H2530 0.949 . S
C2534 C2542 1.574 . S
C2534 C2550 1.368 . S
H2535 C2543 0.950 . S
H2536 C2541 0.950 . S
H2537 C2542 0.949 . S
H2538 C2544 0.950 . S
H2539 C2545 0.950 . S
H2540 C2546 0.949 . S
C2541 H2536 0.950 . S
C2541 C2543 1.327 . S
C2541 C2547 1.429 . S
C2542 C2534 1.574 . S
C2542 H2537 0.949 . S
C2542 C2548 1.368 . S
C2543 C2527 1.349 . S
C2543 H2535 0.950 . S
C2543 C2541 1.327 . S
C2544 C2532 1.349 . S
C2544 H2538 0.950 . S
C2544 C2545 1.327 . S
C2545 H2539 0.950 . S
C2545 C2544 1.327 . S
C2545 C2549 1.429 . S
C2546 C2529 1.574 . S
C2546 H2540 0.949 . S
C2546 C2550 1.368 . S
C2547 C2528 1.429 . S
C2547 C2541 1.429 . S
C2547 C2548 1.523 . S
C2548 C2529 1.368 . S
C2548 C2542 1.368 . S
C2548 C2547 1.523 . S
C2549 C2533 1.429 . S
C2549 C2545 1.429 . S
C2549 C2550 1.523 . S
C2550 C2534 1.368 . S
C2550 C2546 1.368 . S
C2550 C2549 1.523 . S
H2551 C2526 0.950 . S
H2552 C2528 0.950 . S
H2553 C2529 0.949 . S
H2554 C2531 0.950 . S
H2555 C2533 0.950 . S
C2556 C2557 1.349 . S
C2556 C2558 1.327 . S
C2556 H2581 0.950 . S
C2557 C2556 1.349 . S
C2557 C2573 1.349 . S
C2558 C2556 1.327 . S
C2558 C2577 1.429 . S
C2558 H2582 0.950 . S
C2559 C2576 1.574 . S
C2559 C2578 1.368 . S
C2559 H2583 0.949 . S
H2560 C2564 0.949 . S
C2561 C2562 1.349 . S
C2561 C2563 1.327 . S
C2561 H2584 0.950 . S
C2562 C2561 1.349 . S
C2562 C2574 1.349 . S
C2563 C2561 1.327 . S
C2563 C2579 1.429 . S
C2563 H2585 0.950 . S
C2564 H2560 0.949 . S
C2564 C2572 1.574 . S
C2564 C2580 1.368 . S
H2565 C2573 0.950 . S
H2566 C2571 0.950 . S
H2567 C2572 0.949 . S
H2568 C2574 0.950 . S
H2569 C2575 0.950 . S
H2570 C2576 0.949 . S
C2571 H2566 0.950 . S
C2571 C2573 1.327 . S
C2571 C2577 1.429 . S
C2572 C2564 1.574 . S
C2572 H2567 0.949 . S
C2572 C2578 1.368 . S
C2573 C2557 1.349 . S
C2573 H2565 0.950 . S
C2573 C2571 1.327 . S
C2574 C2562 1.349 . S
C2574 H2568 0.950 . S
C2574 C2575 1.327 . S
C2575 H2569 0.950 . S
C2575 C2574 1.327 . S
C2575 C2579 1.429 . S
C2576 C2559 1.574 . S
C2576 H2570 0.949 . S
C2576 C2580 1.368 . S
C2577 C2558 1.429 . S
C2577 C2571 1.429 . S
C2577 C2578 1.523 . S
C2578 C2559 1.368 . S
C2578 C2572 1.368 . S
C2578 C2577 1.523 . S
C2579 C2563 1.429 . S
C2579 C2575 1.429 . S
C2579 C2580 1.523 . S
C2580 C2564 1.368 . S
C2580 C2576 1.368 . S
C2580 C2579 1.523 . S
H2581 C2556 0.950 . S
H2582 C2558 0.950 . S
H2583 C2559 0.949 . S
H2584 C2561 0.950 . S
H2585 C2563 0.950 . S
C2586 C2587 1.349 . S
C2586 C2588 1.327 . S
C2586 H2611 0.950 . S
C2587 C2586 1.349 . S
C2587 C2603 1.349 . S
C2588 C2586 1.327 . S
C2588 C2607 1.429 . S
C2588 H2612 0.950 . S
C2589 C2606 1.574 . S
C2589 C2608 1.368 . S
C2589 H2613 0.949 . S
H2590 C2594 0.949 . S
C2591 C2592 1.349 . S
C2591 C2593 1.327 . S
C2591 H2614 0.950 . S
C2592 C2591 1.349 . S
C2592 C2604 1.349 . S
C2593 C2591 1.327 . S
C2593 C2609 1.429 . S
C2593 H2615 0.950 . S
C2594 H2590 0.949 . S
C2594 C2602 1.574 . S
C2594 C2610 1.368 . S
H2595 C2603 0.950 . S
H2596 C2601 0.950 . S
H2597 C2602 0.949 . S
H2598 C2604 0.950 . S
H2599 C2605 0.950 . S
H2600 C2606 0.949 . S
C2601 H2596 0.950 . S
C2601 C2603 1.327 . S
C2601 C2607 1.429 . S
C2602 C2594 1.574 . S
C2602 H2597 0.949 . S
C2602 C2608 1.368 . S
C2603 C2587 1.349 . S
C2603 H2595 0.950 . S
C2603 C2601 1.327 . S
C2604 C2592 1.349 . S
C2604 H2598 0.950 . S
C2604 C2605 1.327 . S
C2605 H2599 0.950 . S
C2605 C2604 1.327 . S
C2605 C2609 1.429 . S
C2606 C2589 1.574 . S
C2606 H2600 0.949 . S
C2606 C2610 1.368 . S
C2607 C2588 1.429 . S
C2607 C2601 1.429 . S
C2607 C2608 1.523 . S
C2608 C2589 1.368 . S
C2608 C2602 1.368 . S
C2608 C2607 1.523 . S
C2609 C2593 1.429 . S
C2609 C2605 1.429 . S
C2609 C2610 1.523 . S
C2610 C2594 1.368 . S
C2610 C2606 1.368 . S
C2610 C2609 1.523 . S
H2611 C2586 0.950 . S
H2612 C2588 0.950 . S
H2613 C2589 0.949 . S
H2614 C2591 0.950 . S
H2615 C2593 0.950 . S
C2616 C2617 1.349 . S
C2616 C2618 1.327 . S
C2616 H2641 0.950 . S
C2617 C2616 1.349 . S
C2617 C2633 1.349 . S
C2618 C2616 1.327 . S
C2618 C2637 1.429 . S
C2618 H2642 0.950 . S
C2619 C2636 1.574 . S
C2619 C2638 1.368 . S
C2619 H2643 0.949 . S
H2620 C2624 0.949 . S
C2621 C2622 1.349 . S
C2621 C2623 1.327 . S
C2621 H2644 0.950 . S
C2622 C2621 1.349 . S
C2622 C2634 1.349 . S
C2623 C2621 1.327 . S
C2623 C2639 1.429 . S
C2623 H2645 0.950 . S
C2624 H2620 0.949 . S
C2624 C2632 1.574 . S
C2624 C2640 1.368 . S
H2625 C2633 0.950 . S
H2626 C2631 0.950 . S
H2627 C2632 0.949 . S
H2628 C2634 0.950 . S
H2629 C2635 0.950 . S
H2630 C2636 0.949 . S
C2631 H2626 0.950 . S
C2631 C2633 1.327 . S
C2631 C2637 1.429 . S
C2632 C2624 1.574 . S
C2632 H2627 0.949 . S
C2632 C2638 1.368 . S
C2633 C2617 1.349 . S
C2633 H2625 0.950 . S
C2633 C2631 1.327 . S
C2634 C2622 1.349 . S
C2634 H2628 0.950 . S
C2634 C2635 1.327 . S
C2635 H2629 0.950 . S
C2635 C2634 1.327 . S
C2635 C2639 1.429 . S
C2636 C2619 1.574 . S
C2636 H2630 0.949 . S
C2636 C2640 1.368 . S
C2637 C2618 1.429 . S
C2637 C2631 1.429 . S
C2637 C2638 1.523 . S
C2638 C2619 1.368 . S
C2638 C2632 1.368 . S
C2638 C2637 1.523 . S
C2639 C2623 1.429 . S
C2639 C2635 1.429 . S
C2639 C2640 1.523 . S
C2640 C2624 1.368 . S
C2640 C2636 1.368 . S
C2640 C2639 1.523 . S
H2641 C2616 0.950 . S
H2642 C2618 0.950 . S
H2643 C2619 0.949 . S
H2644 C2621 0.950 . S
H2645 C2623 0.950 . S
C2646 C2647 1.349 . S
C2646 C2648 1.327 . S
C2646 H2671 0.950 . S
C2647 C2646 1.349 . S
C2647 C2663 1.349 . S
C2648 C2646 1.327 . S
C2648 C2667 1.429 . S
C2648 H2672 0.950 . S
C2649 C2666 1.574 . S
C2649 C2668 1.368 . S
C2649 H2673 0.949 . S
H2650 C2654 0.949 . S
C2651 C2652 1.349 . S
C2651 C2653 1.327 . S
C2651 H2674 0.950 . S
C2652 C2651 1.349 . S
C2652 C2664 1.349 . S
C2653 C2651 1.327 . S
C2653 C2669 1.429 . S
C2653 H2675 0.950 . S
C2654 H2650 0.949 . S
C2654 C2662 1.574 . S
C2654 C2670 1.368 . S
H2655 C2663 0.950 . S
H2656 C2661 0.950 . S
H2657 C2662 0.949 . S
H2658 C2664 0.950 . S
H2659 C2665 0.950 . S
H2660 C2666 0.949 . S
C2661 H2656 0.950 . S
C2661 C2663 1.327 . S
C2661 C2667 1.429 . S
C2662 C2654 1.574 . S
C2662 H2657 0.949 . S
C2662 C2668 1.368 . S
C2663 C2647 1.349 . S
C2663 H2655 0.950 . S
C2663 C2661 1.327 . S
C2664 C2652 1.349 . S
C2664 H2658 0.950 . S
C2664 C2665 1.327 . S
C2665 H2659 0.950 . S
C2665 C2664 1.327 . S
C2665 C2669 1.429 . S
C2666 C2649 1.574 . S
C2666 H2660 0.949 . S
C2666 C2670 1.368 . S
C2667 C2648 1.429 . S
C2667 C2661 1.429 . S
C2667 C2668 1.523 . S
C2668 C2649 1.368 . S
C2668 C2662 1.368 . S
C2668 C2667 1.523 . S
C2669 C2653 1.429 . S
C2669 C2665 1.429 . S
C2669 C2670 1.523 . S
C2670 C2654 1.368 . S
C2670 C2666 1.368 . S
C2670 C2669 1.523 . S
H2671 C2646 0.950 . S
H2672 C2648 0.950 . S
H2673 C2649 0.949 . S
H2674 C2651 0.950 . S
H2675 C2653 0.950 . S
C2676 C2677 1.349 . S
C2676 C2678 1.327 . S
C2676 H2701 0.950 . S
C2677 C2676 1.349 . S
C2677 C2693 1.349 . S
C2678 C2676 1.327 . S
C2678 C2697 1.429 . S
C2678 H2702 0.950 . S
C2679 C2696 1.574 . S
C2679 C2698 1.368 . S
C2679 H2703 0.949 . S
H2680 C2684 0.949 . S
C2681 C2682 1.349 . S
C2681 C2683 1.327 . S
C2681 H2704 0.950 . S
C2682 C2681 1.349 . S
C2682 C2694 1.349 . S
C2683 C2681 1.327 . S
C2683 C2699 1.429 . S
C2683 H2705 0.950 . S
C2684 H2680 0.949 . S
C2684 C2692 1.574 . S
C2684 C2700 1.368 . S
H2685 C2693 0.950 . S
H2686 C2691 0.950 . S
H2687 C2692 0.949 . S
H2688 C2694 0.950 . S
H2689 C2695 0.950 . S
H2690 C2696 0.949 . S
C2691 H2686 0.950 . S
C2691 C2693 1.327 . S
C2691 C2697 1.429 . S
C2692 C2684 1.574 . S
C2692 H2687 0.949 . S
C2692 C2698 1.368 . S
C2693 C2677 1.349 . S
C2693 H2685 0.950 . S
C2693 C2691 1.327 . S
C2694 C2682 1.349 . S
C2694 H2688 0.950 . S
C2694 C2695 1.327 . S
C2695 H2689 0.950 . S
C2695 C2694 1.327 . S
C2695 C2699 1.429 . S
C2696 C2679 1.574 . S
C2696 H2690 0.949 . S
C2696 C2700 1.368 . S
C2697 C2678 1.429 . S
C2697 C2691 1.429 . S
C2697 C2698 1.523 . S
C2698 C2679 1.368 . S
C2698 C2692 1.368 . S
C2698 C2697 1.523 . S
C2699 C2683 1.429 . S
C2699 C2695 1.429 . S
C2699 C2700 1.523 . S
C2700 C2684 1.368 . S
C2700 C2696 1.368 . S
C2700 C2699 1.523 . S
H2701 C2676 0.950 . S
H2702 C2678 0.950 . S
H2703 C2679 0.949 . S
H2704 C2681 0.950 . S
H2705 C2683 0.950 . S
C2706 C2707 1.349 . S
C2706 C2708 1.327 . S
C2706 H2731 0.950 . S
C2707 C2706 1.349 . S
C2707 C2723 1.349 . S
C2708 C2706 1.327 . S
C2708 C2727 1.429 . S
C2708 H2732 0.950 . S
C2709 C2726 1.574 . S
C2709 C2728 1.368 . S
C2709 H2733 0.949 . S
H2710 C2714 0.949 . S
C2711 C2712 1.349 . S
C2711 C2713 1.327 . S
C2711 H2734 0.950 . S
C2712 C2711 1.349 . S
C2712 C2724 1.349 . S
C2713 C2711 1.327 . S
C2713 C2729 1.429 . S
C2713 H2735 0.950 . S
C2714 H2710 0.949 . S
C2714 C2722 1.574 . S
C2714 C2730 1.368 . S
H2715 C2723 0.950 . S
H2716 C2721 0.950 . S
H2717 C2722 0.949 . S
H2718 C2724 0.950 . S
H2719 C2725 0.950 . S
H2720 C2726 0.949 . S
C2721 H2716 0.950 . S
C2721 C2723 1.327 . S
C2721 C2727 1.429 . S
C2722 C2714 1.574 . S
C2722 H2717 0.949 . S
C2722 C2728 1.368 . S
C2723 C2707 1.349 . S
C2723 H2715 0.950 . S
C2723 C2721 1.327 . S
C2724 C2712 1.349 . S
C2724 H2718 0.950 . S
C2724 C2725 1.327 . S
C2725 H2719 0.950 . S
C2725 C2724 1.327 . S
C2725 C2729 1.429 . S
C2726 C2709 1.574 . S
C2726 H2720 0.949 . S
C2726 C2730 1.368 . S
C2727 C2708 1.429 . S
C2727 C2721 1.429 . S
C2727 C2728 1.523 . S
C2728 C2709 1.368 . S
C2728 C2722 1.368 . S
C2728 C2727 1.523 . S
C2729 C2713 1.429 . S
C2729 C2725 1.429 . S
C2729 C2730 1.523 . S
C2730 C2714 1.368 . S
C2730 C2726 1.368 . S
C2730 C2729 1.523 . S
H2731 C2706 0.950 . S
H2732 C2708 0.950 . S
H2733 C2709 0.949 . S
H2734 C2711 0.950 . S
H2735 C2713 0.950 . S
C2736 C2737 1.349 . S
C2736 C2738 1.327 . S
C2736 H2761 0.950 . S
C2737 C2736 1.349 . S
C2737 C2753 1.349 . S
C2738 C2736 1.327 . S
C2738 C2757 1.429 . S
C2738 H2762 0.950 . S
C2739 C2756 1.574 . S
C2739 C2758 1.368 . S
C2739 H2763 0.949 . S
H2740 C2744 0.949 . S
C2741 C2742 1.349 . S
C2741 C2743 1.327 1_556 S
C2741 H2764 0.950 . S
C2742 C2741 1.349 . S
C2742 C2754 1.349 . S
C2743 C2741 1.327 1_554 S
C2743 C2759 1.429 . S
C2743 H2765 0.950 . S
C2744 H2740 0.949 . S
C2744 C2752 1.574 . S
C2744 C2760 1.368 . S
H2745 C2753 0.950 . S
H2746 C2751 0.950 . S
H2747 C2752 0.949 . S
H2748 C2754 0.950 . S
H2749 C2755 0.950 . S
H2750 C2756 0.949 . S
C2751 H2746 0.950 . S
C2751 C2753 1.327 . S
C2751 C2757 1.429 . S
C2752 C2744 1.574 . S
C2752 H2747 0.949 . S
C2752 C2758 1.368 . S
C2753 C2737 1.349 . S
C2753 H2745 0.950 . S
C2753 C2751 1.327 . S
C2754 C2742 1.349 . S
C2754 H2748 0.950 . S
C2754 C2755 1.327 . S
C2755 H2749 0.950 . S
C2755 C2754 1.327 . S
C2755 C2759 1.429 1_556 S
C2756 C2739 1.574 . S
C2756 H2750 0.949 . S
C2756 C2760 1.368 . S
C2757 C2738 1.429 . S
C2757 C2751 1.429 . S
C2757 C2758 1.523 . S
C2758 C2739 1.368 . S
C2758 C2752 1.368 . S
C2758 C2757 1.523 . S
C2759 C2743 1.429 . S
C2759 C2755 1.429 1_554 S
C2759 C2760 1.523 . S
C2760 C2744 1.368 . S
C2760 C2756 1.368 . S
C2760 C2759 1.523 . S
H2761 C2736 0.950 . S
H2762 C2738 0.950 . S
H2763 C2739 0.949 . S
H2764 C2741 0.950 . S
H2765 C2743 0.950 . S
C2766 C2767 1.349 . S
C2766 C2768 1.327 . S
C2766 H2791 0.950 . S
C2767 C2766 1.349 . S
C2767 C2783 1.349 . S
C2768 C2766 1.327 . S
C2768 C2787 1.429 . S
C2768 H2792 0.950 . S
C2769 C2786 1.574 . S
C2769 C2788 1.368 . S
C2769 H2793 0.949 . S
H2770 C2774 0.949 . S
C2771 C2772 1.349 . S
C2771 C2773 1.327 1_556 S
C2771 H2794 0.950 . S
C2772 C2771 1.349 . S
C2772 C2784 1.349 1_556 S
C2773 C2771 1.327 1_554 S
C2773 C2789 1.429 . S
C2773 H2795 0.950 . S
C2774 H2770 0.949 . S
C2774 C2782 1.574 . S
C2774 C2790 1.368 . S
H2775 C2783 0.950 . S
H2776 C2781 0.950 . S
H2777 C2782 0.949 . S
H2778 C2784 0.950 . S
H2779 C2785 0.950 . S
H2780 C2786 0.949 . S
C2781 H2776 0.950 . S
C2781 C2783 1.327 . S
C2781 C2787 1.429 . S
C2782 C2774 1.574 . S
C2782 H2777 0.949 . S
C2782 C2788 1.368 . S
C2783 C2767 1.349 . S
C2783 H2775 0.950 . S
C2783 C2781 1.327 . S
C2784 C2772 1.349 1_554 S
C2784 H2778 0.950 . S
C2784 C2785 1.327 . S
C2785 H2779 0.950 . S
C2785 C2784 1.327 . S
C2785 C2789 1.429 . S
C2786 C2769 1.574 . S
C2786 H2780 0.949 . S
C2786 C2790 1.368 . S
C2787 C2768 1.429 . S
C2787 C2781 1.429 . S
C2787 C2788 1.523 . S
C2788 C2769 1.368 . S
C2788 C2782 1.368 . S
C2788 C2787 1.523 . S
C2789 C2773 1.429 . S
C2789 C2785 1.429 . S
C2789 C2790 1.523 . S
C2790 C2774 1.368 . S
C2790 C2786 1.368 . S
C2790 C2789 1.523 . S
H2791 C2766 0.950 . S
H2792 C2768 0.950 . S
H2793 C2769 0.949 . S
H2794 C2771 0.950 . S
H2795 C2773 0.950 . S
C2796 C2797 1.349 . S
C2796 C2798 1.327 . S
C2796 H2821 0.950 . S
C2797 C2796 1.349 . S
C2797 C2813 1.349 . S
C2798 C2796 1.327 . S
C2798 C2817 1.429 . S
C2798 H2822 0.950 . S
C2799 C2816 1.574 . S
C2799 C2818 1.368 . S
C2799 H2823 0.949 . S
H2800 C2804 0.949 . S
C2801 C2802 1.349 . S
C2801 C2803 1.327 1_556 S
C2801 H2824 0.950 . S
C2802 C2801 1.349 . S
C2802 C2814 1.349 . S
C2803 C2801 1.327 1_554 S
C2803 C2819 1.429 . S
C2803 H2825 0.950 . S
C2804 H2800 0.949 . S
C2804 C2812 1.574 . S
C2804 C2820 1.368 . S
H2805 C2813 0.950 . S
H2806 C2811 0.950 . S
H2807 C2812 0.949 . S
H2808 C2814 0.950 . S
H2809 C2815 0.950 1_554 S
H2810 C2816 0.949 . S
C2811 H2806 0.950 . S
C2811 C2813 1.327 . S
C2811 C2817 1.429 . S
C2812 C2804 1.574 . S
C2812 H2807 0.949 . S
C2812 C2818 1.368 . S
C2813 C2797 1.349 . S
C2813 H2805 0.950 . S
C2813 C2811 1.327 . S
C2814 C2802 1.349 . S
C2814 H2808 0.950 . S
C2814 C2815 1.327 . S
C2815 H2809 0.950 1_556 S
C2815 C2814 1.327 . S
C2815 C2819 1.429 1_556 S
C2816 C2799 1.574 . S
C2816 H2810 0.949 . S
C2816 C2820 1.368 . S
C2817 C2798 1.429 . S
C2817 C2811 1.429 . S
C2817 C2818 1.523 . S
C2818 C2799 1.368 . S
C2818 C2812 1.368 . S
C2818 C2817 1.523 . S
C2819 C2803 1.429 . S
C2819 C2815 1.429 1_554 S
C2819 C2820 1.523 . S
C2820 C2804 1.368 . S
C2820 C2816 1.368 . S
C2820 C2819 1.523 . S
H2821 C2796 0.950 . S
H2822 C2798 0.950 . S
H2823 C2799 0.949 . S
H2824 C2801 0.950 . S
H2825 C2803 0.950 . S
C667 C7 1.418 . S
C672 C575 1.419 . S
C702 C547 1.703 . S
C697 C39 1.691 . S
C732 C562 1.498 . S
C727 C62 1.553 . S
C757 C76 1.851 . S
C762 C632 1.802 . S
C787 C108 1.398 . S
C792 C645 1.396 . S
C817 N117 1.351 . S
C822 C660 1.322 . S
C852 C623 1.203 . S
C847 C16 1.242 . S
C877 C30 1.685 . S
C882 C595 1.604 . S
C912 C604 1.388 . S
C907 C53 1.435 1_556 S
C937 C85 1.828 . S
C942 C506 1.766 1_565 S
C972 C525 1.502 . S
C967 C99 1.572 . S
C997 N127 1.283 . S
C1002 C534 1.295 . S
C1027 N150 1.099 . S
C1032 C659 1.121 . S
C1062 C631 1.473 . S
C1057 N173 1.445 . S
C1092 C646 1.351 . S
C1087 C200 1.391 . S
C1117 C214 1.663 . S
C1122 C464 1.613 . S
C1147 N232 1.447 . S
C1152 C477 1.467 . S
C1177 C260 1.530 . S
C1182 C492 1.483 . S
C1212 C455 1.055 . S
C1207 N140 1.070 . S
C1237 N163 1.155 . S
C1242 C427 1.138 . S
C1272 C436 1.460 . S
C1267 C191 1.510 . S
C1302 C590 1.840 . S
C1297 C223 1.898 . S
C1332 C609 1.308 . S
C1327 N242 1.311 . S
C1362 C618 1.480 . S
C1357 C269 1.515 . S
C1387 N288 1.221 . S
C1392 C491 1.243 . S
C1417 C315 1.423 . S
C1422 C463 1.435 1_655 S
C1447 C338 1.626 . S
C1452 C478 1.580 . S
C1477 C352 1.883 . S
C1482 C548 1.836 . S
C1512 C561 1.509 . S
C1507 N370 1.492 . S
C1542 C576 1.541 . S
C1537 C398 1.585 . S
C1572 C539 1.015 . S
C1567 N278 1.017 . S
C1597 C306 1.594 . S
C1602 C511 1.516 . S
C1627 C329 1.547 . S
C1632 C520 1.499 . S
C1662 C422 1.520 . S
C1657 C361 1.570 . S
C1687 N380 1.355 . S
C1692 C441 1.347 . S
C1722 C450 1.423 . S
C1717 C407 1.461 . S
C1752 C469 1.246 . S
C1747 N12 1.281 . S
C1777 N25 1.414 . S
C1782 C481 1.409 . S
C1812 C497 1.123 . S
C1807 N48 1.167 . S
C1842 C495 1.229 . S
C1837 N81 1.226 . S
C1872 C467 1.412 . S
C1867 N94 1.388 . S
C1902 C483 1.405 . S
C1897 C131 1.481 . S
C1932 C421 1.306 . S
C1927 N2 1.287 . S
C1957 N35 1.313 . S
C1962 C439 1.341 . S
C1987 N58 1.110 . S
C1992 C449 1.129 . S
C2022 C453 1.179 . S
C2017 N71 1.146 . S
C2052 C425 1.286 . S
C2047 N104 1.273 . S
C2082 C435 1.514 . S
C2077 C122 1.514 . S
C2107 C145 1.910 . S
C2112 C553 1.811 . S
C2137 C168 1.548 . S
C2142 C565 1.527 . S
C2167 N186 1.298 . S
C2172 C581 1.254 . S
C2202 C579 1.237 . S
C2197 N219 1.231 . S
C2232 C551 1.684 . S
C2227 C246 1.690 . S
C2262 C567 1.331 . S
C2257 N265 1.397 . S
C2292 C505 1.809 . S
C2287 C154 1.814 . S
C2317 C177 1.620 . S
C2322 C523 1.614 . S
C2347 N196 1.142 . S
C2352 C533 1.162 . S
C2377 N209 1.045 . S
C2382 C537 1.082 . S
C2407 C237 1.743 . S
C2412 C509 1.738 . S
C2442 C519 1.395 . S
C2437 N255 1.346 . S
C2467 C283 1.696 . S
C2472 C637 1.592 . S
C2497 N301 1.301 . S
C2502 C649 1.304 . S
C2527 N324 1.149 . S
C2532 C665 1.105 . S
C2562 C663 1.062 . S
C2557 N357 1.054 . S
C2592 C635 1.636 . S
C2587 C384 1.654 . S
C2617 N403 1.235 . S
C2622 C651 1.185 . S
C2647 C292 1.803 . S
C2652 C589 1.803 . S
C2682 C607 1.199 . S
C2677 N311 1.180 . S
C2707 N334 1.216 . S
C2712 C617 1.241 . S
C2737 N347 1.190 . S
C2742 C621 1.224 . S
C2772 C593 1.788 . S
C2767 C375 1.794 . S
C2797 N393 1.268 . S
C2802 C603 1.315 . S
