# Generated by pormake.
# Topology gar, (4,6)-cn, num edge types: 1
# Building blocks:
#     Node 0, Type 0, BuildingBlock: QUQFOY_clean_sbu_1, # of connection points: 4
#     Node 1, Type 0, BuildingBlock: QUQFOY_clean_sbu_1, # of connection points: 4
#     Node 2, Type 0, BuildingBlock: QUQFOY_clean_sbu_1, # of connection points: 4
#     Node 3, Type 0, BuildingBlock: QUQFOY_clean_sbu_1, # of connection points: 4
#     Node 4, Type 0, BuildingBlock: QUQFOY_clean_sbu_1, # of connection points: 4
#     Node 5, Type 0, BuildingBlock: QUQFOY_clean_sbu_1, # of connection points: 4
#     Node 6, Type 0, BuildingBlock: QUQFOY_clean_sbu_1, # of connection points: 4
#     Node 7, Type 0, BuildingBlock: QUQFOY_clean_sbu_1, # of connection points: 4
#     Node 8, Type 0, BuildingBlock: QUQFOY_clean_sbu_1, # of connection points: 4
#     Node 9, Type 0, BuildingBlock: QUQFOY_clean_sbu_1, # of connection points: 4
#     Node 10, Type 0, BuildingBlock: QUQFOY_clean_sbu_1, # of connection points: 4
#     Node 11, Type 0, BuildingBlock: QUQFOY_clean_sbu_1, # of connection points: 4
#     Node 12, Type 0, BuildingBlock: QUQFOY_clean_sbu_1, # of connection points: 4
#     Node 13, Type 0, BuildingBlock: QUQFOY_clean_sbu_1, # of connection points: 4
#     Node 14, Type 0, BuildingBlock: QUQFOY_clean_sbu_1, # of connection points: 4
#     Node 15, Type 0, BuildingBlock: QUQFOY_clean_sbu_1, # of connection points: 4
#     Node 16, Type 0, BuildingBlock: QUQFOY_clean_sbu_1, # of connection points: 4
#     Node 17, Type 0, BuildingBlock: QUQFOY_clean_sbu_1, # of connection points: 4
#     Node 18, Type 0, BuildingBlock: QUQFOY_clean_sbu_1, # of connection points: 4
#     Node 19, Type 0, BuildingBlock: QUQFOY_clean_sbu_1, # of connection points: 4
#     Node 20, Type 0, BuildingBlock: QUQFOY_clean_sbu_1, # of connection points: 4
#     Node 21, Type 0, BuildingBlock: QUQFOY_clean_sbu_1, # of connection points: 4
#     Node 22, Type 0, BuildingBlock: QUQFOY_clean_sbu_1, # of connection points: 4
#     Node 23, Type 0, BuildingBlock: QUQFOY_clean_sbu_1, # of connection points: 4
#     Node 24, Type 1, BuildingBlock: MIFKUJ_clean_sbu_0, # of connection points: 6
#     Node 25, Type 1, BuildingBlock: MIFKUJ_clean_sbu_0, # of connection points: 6
#     Node 26, Type 1, BuildingBlock: MIFKUJ_clean_sbu_0, # of connection points: 6
#     Node 27, Type 1, BuildingBlock: MIFKUJ_clean_sbu_0, # of connection points: 6
#     Node 28, Type 1, BuildingBlock: MIFKUJ_clean_sbu_0, # of connection points: 6
#     Node 29, Type 1, BuildingBlock: MIFKUJ_clean_sbu_0, # of connection points: 6
#     Node 30, Type 1, BuildingBlock: MIFKUJ_clean_sbu_0, # of connection points: 6
#     Node 31, Type 1, BuildingBlock: MIFKUJ_clean_sbu_0, # of connection points: 6
#     Node 32, Type 1, BuildingBlock: MIFKUJ_clean_sbu_0, # of connection points: 6
#     Node 33, Type 1, BuildingBlock: MIFKUJ_clean_sbu_0, # of connection points: 6
#     Node 34, Type 1, BuildingBlock: MIFKUJ_clean_sbu_0, # of connection points: 6
#     Node 35, Type 1, BuildingBlock: MIFKUJ_clean_sbu_0, # of connection points: 6
#     Node 36, Type 1, BuildingBlock: MIFKUJ_clean_sbu_0, # of connection points: 6
#     Node 37, Type 1, BuildingBlock: MIFKUJ_clean_sbu_0, # of connection points: 6
#     Node 38, Type 1, BuildingBlock: MIFKUJ_clean_sbu_0, # of connection points: 6
#     Node 39, Type 1, BuildingBlock: MIFKUJ_clean_sbu_0, # of connection points: 6
#     Edge 40, Type (0, 1), BuildingBlock: CIFDUS_clean_linker_0, # of connection points: 2
#     Edge 41, Type (0, 1), BuildingBlock: CIFDUS_clean_linker_0, # of connection points: 2
#     Edge 42, Type (0, 1), BuildingBlock: CIFDUS_clean_linker_0, # of connection points: 2
#     Edge 43, Type (0, 1), BuildingBlock: CIFDUS_clean_linker_0, # of connection points: 2
#     Edge 44, Type (0, 1), BuildingBlock: CIFDUS_clean_linker_0, # of connection points: 2
#     Edge 45, Type (0, 1), BuildingBlock: CIFDUS_clean_linker_0, # of connection points: 2
#     Edge 46, Type (0, 1), BuildingBlock: CIFDUS_clean_linker_0, # of connection points: 2
#     Edge 47, Type (0, 1), BuildingBlock: CIFDUS_clean_linker_0, # of connection points: 2
#     Edge 48, Type (0, 1), BuildingBlock: CIFDUS_clean_linker_0, # of connection points: 2
#     Edge 49, Type (0, 1), BuildingBlock: CIFDUS_clean_linker_0, # of connection points: 2
#     Edge 50, Type (0, 1), BuildingBlock: CIFDUS_clean_linker_0, # of connection points: 2
#     Edge 51, Type (0, 1), BuildingBlock: CIFDUS_clean_linker_0, # of connection points: 2
#     Edge 52, Type (0, 1), BuildingBlock: CIFDUS_clean_linker_0, # of connection points: 2
#     Edge 53, Type (0, 1), BuildingBlock: CIFDUS_clean_linker_0, # of connection points: 2
#     Edge 54, Type (0, 1), BuildingBlock: CIFDUS_clean_linker_0, # of connection points: 2
#     Edge 55, Type (0, 1), BuildingBlock: CIFDUS_clean_linker_0, # of connection points: 2
#     Edge 56, Type (0, 1), BuildingBlock: CIFDUS_clean_linker_0, # of connection points: 2
#     Edge 57, Type (0, 1), BuildingBlock: CIFDUS_clean_linker_0, # of connection points: 2
#     Edge 58, Type (0, 1), BuildingBlock: CIFDUS_clean_linker_0, # of connection points: 2
#     Edge 59, Type (0, 1), BuildingBlock: CIFDUS_clean_linker_0, # of connection points: 2
#     Edge 60, Type (0, 1), BuildingBlock: CIFDUS_clean_linker_0, # of connection points: 2
#     Edge 61, Type (0, 1), BuildingBlock: CIFDUS_clean_linker_0, # of connection points: 2
#     Edge 62, Type (0, 1), BuildingBlock: CIFDUS_clean_linker_0, # of connection points: 2
#     Edge 63, Type (0, 1), BuildingBlock: CIFDUS_clean_linker_0, # of connection points: 2
#     Edge 64, Type (0, 1), BuildingBlock: CIFDUS_clean_linker_0, # of connection points: 2
#     Edge 65, Type (0, 1), BuildingBlock: CIFDUS_clean_linker_0, # of connection points: 2
#     Edge 66, Type (0, 1), BuildingBlock: CIFDUS_clean_linker_0, # of connection points: 2
#     Edge 67, Type (0, 1), BuildingBlock: CIFDUS_clean_linker_0, # of connection points: 2
#     Edge 68, Type (0, 1), BuildingBlock: CIFDUS_clean_linker_0, # of connection points: 2
#     Edge 69, Type (0, 1), BuildingBlock: CIFDUS_clean_linker_0, # of connection points: 2
#     Edge 70, Type (0, 1), BuildingBlock: CIFDUS_clean_linker_0, # of connection points: 2
#     Edge 71, Type (0, 1), BuildingBlock: CIFDUS_clean_linker_0, # of connection points: 2
#     Edge 72, Type (0, 1), BuildingBlock: CIFDUS_clean_linker_0, # of connection points: 2
#     Edge 73, Type (0, 1), BuildingBlock: CIFDUS_clean_linker_0, # of connection points: 2
#     Edge 74, Type (0, 1), BuildingBlock: CIFDUS_clean_linker_0, # of connection points: 2
#     Edge 75, Type (0, 1), BuildingBlock: CIFDUS_clean_linker_0, # of connection points: 2
#     Edge 76, Type (0, 1), BuildingBlock: CIFDUS_clean_linker_0, # of connection points: 2
#     Edge 77, Type (0, 1), BuildingBlock: CIFDUS_clean_linker_0, # of connection points: 2
#     Edge 78, Type (0, 1), BuildingBlock: CIFDUS_clean_linker_0, # of connection points: 2
#     Edge 79, Type (0, 1), BuildingBlock: CIFDUS_clean_linker_0, # of connection points: 2
#     Edge 80, Type (0, 1), BuildingBlock: CIFDUS_clean_linker_0, # of connection points: 2
#     Edge 81, Type (0, 1), BuildingBlock: CIFDUS_clean_linker_0, # of connection points: 2
#     Edge 82, Type (0, 1), BuildingBlock: CIFDUS_clean_linker_0, # of connection points: 2
#     Edge 83, Type (0, 1), BuildingBlock: CIFDUS_clean_linker_0, # of connection points: 2
#     Edge 84, Type (0, 1), BuildingBlock: CIFDUS_clean_linker_0, # of connection points: 2
#     Edge 85, Type (0, 1), BuildingBlock: CIFDUS_clean_linker_0, # of connection points: 2
#     Edge 86, Type (0, 1), BuildingBlock: CIFDUS_clean_linker_0, # of connection points: 2
#     Edge 87, Type (0, 1), BuildingBlock: CIFDUS_clean_linker_0, # of connection points: 2
#     Edge 88, Type (0, 1), BuildingBlock: CIFDUS_clean_linker_0, # of connection points: 2
#     Edge 89, Type (0, 1), BuildingBlock: CIFDUS_clean_linker_0, # of connection points: 2
#     Edge 90, Type (0, 1), BuildingBlock: CIFDUS_clean_linker_0, # of connection points: 2
#     Edge 91, Type (0, 1), BuildingBlock: CIFDUS_clean_linker_0, # of connection points: 2
#     Edge 92, Type (0, 1), BuildingBlock: CIFDUS_clean_linker_0, # of connection points: 2
#     Edge 93, Type (0, 1), BuildingBlock: CIFDUS_clean_linker_0, # of connection points: 2
#     Edge 94, Type (0, 1), BuildingBlock: CIFDUS_clean_linker_0, # of connection points: 2
#     Edge 95, Type (0, 1), BuildingBlock: CIFDUS_clean_linker_0, # of connection points: 2
#     Edge 96, Type (0, 1), BuildingBlock: CIFDUS_clean_linker_0, # of connection points: 2
#     Edge 97, Type (0, 1), BuildingBlock: CIFDUS_clean_linker_0, # of connection points: 2
#     Edge 98, Type (0, 1), BuildingBlock: CIFDUS_clean_linker_0, # of connection points: 2
#     Edge 99, Type (0, 1), BuildingBlock: CIFDUS_clean_linker_0, # of connection points: 2
#     Edge 100, Type (0, 1), BuildingBlock: CIFDUS_clean_linker_0, # of connection points: 2
#     Edge 101, Type (0, 1), BuildingBlock: CIFDUS_clean_linker_0, # of connection points: 2
#     Edge 102, Type (0, 1), BuildingBlock: CIFDUS_clean_linker_0, # of connection points: 2
#     Edge 103, Type (0, 1), BuildingBlock: CIFDUS_clean_linker_0, # of connection points: 2
#     Edge 104, Type (0, 1), BuildingBlock: CIFDUS_clean_linker_0, # of connection points: 2
#     Edge 105, Type (0, 1), BuildingBlock: CIFDUS_clean_linker_0, # of connection points: 2
#     Edge 106, Type (0, 1), BuildingBlock: CIFDUS_clean_linker_0, # of connection points: 2
#     Edge 107, Type (0, 1), BuildingBlock: CIFDUS_clean_linker_0, # of connection points: 2
#     Edge 108, Type (0, 1), BuildingBlock: CIFDUS_clean_linker_0, # of connection points: 2
#     Edge 109, Type (0, 1), BuildingBlock: CIFDUS_clean_linker_0, # of connection points: 2
#     Edge 110, Type (0, 1), BuildingBlock: CIFDUS_clean_linker_0, # of connection points: 2
#     Edge 111, Type (0, 1), BuildingBlock: CIFDUS_clean_linker_0, # of connection points: 2
#     Edge 112, Type (0, 1), BuildingBlock: CIFDUS_clean_linker_0, # of connection points: 2
#     Edge 113, Type (0, 1), BuildingBlock: CIFDUS_clean_linker_0, # of connection points: 2
#     Edge 114, Type (0, 1), BuildingBlock: CIFDUS_clean_linker_0, # of connection points: 2
#     Edge 115, Type (0, 1), BuildingBlock: CIFDUS_clean_linker_0, # of connection points: 2
#     Edge 116, Type (0, 1), BuildingBlock: CIFDUS_clean_linker_0, # of connection points: 2
#     Edge 117, Type (0, 1), BuildingBlock: CIFDUS_clean_linker_0, # of connection points: 2
#     Edge 118, Type (0, 1), BuildingBlock: CIFDUS_clean_linker_0, # of connection points: 2
#     Edge 119, Type (0, 1), BuildingBlock: CIFDUS_clean_linker_0, # of connection points: 2
#     Edge 120, Type (0, 1), BuildingBlock: CIFDUS_clean_linker_0, # of connection points: 2
#     Edge 121, Type (0, 1), BuildingBlock: CIFDUS_clean_linker_0, # of connection points: 2
#     Edge 122, Type (0, 1), BuildingBlock: CIFDUS_clean_linker_0, # of connection points: 2
#     Edge 123, Type (0, 1), BuildingBlock: CIFDUS_clean_linker_0, # of connection points: 2
#     Edge 124, Type (0, 1), BuildingBlock: CIFDUS_clean_linker_0, # of connection points: 2
#     Edge 125, Type (0, 1), BuildingBlock: CIFDUS_clean_linker_0, # of connection points: 2
#     Edge 126, Type (0, 1), BuildingBlock: CIFDUS_clean_linker_0, # of connection points: 2
#     Edge 127, Type (0, 1), BuildingBlock: CIFDUS_clean_linker_0, # of connection points: 2
#     Edge 128, Type (0, 1), BuildingBlock: CIFDUS_clean_linker_0, # of connection points: 2
#     Edge 129, Type (0, 1), BuildingBlock: CIFDUS_clean_linker_0, # of connection points: 2
#     Edge 130, Type (0, 1), BuildingBlock: CIFDUS_clean_linker_0, # of connection points: 2
#     Edge 131, Type (0, 1), BuildingBlock: CIFDUS_clean_linker_0, # of connection points: 2
#     Edge 132, Type (0, 1), BuildingBlock: CIFDUS_clean_linker_0, # of connection points: 2
#     Edge 133, Type (0, 1), BuildingBlock: CIFDUS_clean_linker_0, # of connection points: 2
#     Edge 134, Type (0, 1), BuildingBlock: CIFDUS_clean_linker_0, # of connection points: 2
#     Edge 135, Type (0, 1), BuildingBlock: CIFDUS_clean_linker_0, # of connection points: 2
# Relax obj value: 0.119
# Max RMSD: 0.303
# Mean RMSD: 0.169
data_MOF--net-gar--node1-QUQFOY_clean_sbu_1--node2-MIFKUJ_clean_sbu_0--edge1-CIFDUS_clean_linker_0
_symmetry_space_group_name_H-M    P1
_symmetry_Int_Tables_number       1
_symmetry_cell_setting            triclinic
loop_
_symmetry_equiv_pos_as_xyz
'x, y, z'
_cell_length_a     51.054744
_cell_length_b     51.149955
_cell_length_c     48.802139
_cell_angle_alpha  95.243142
_cell_angle_beta   95.215413
_cell_angle_gamma 102.24278
loop_
_atom_site_label
_atom_site_type_symbol
_atom_site_fract_x
_atom_site_fract_y
_atom_site_fract_z
_atom_type_partial_charge
O0 O 0.03239 0.22049 0.4057 0.0
Cd1 Cd 0.02944 0.25467 0.38753 0.0
Cd2 Cd 0.0192 0.26987 0.43903 0.0
O3 O 0.03092 0.23593 0.44909 0.0
O4 O 0.04575 0.24975 0.35252 0.0
O5 O 0.06351 0.28224 0.38638 0.0
C6 C 0.06514 0.26981 0.36252 0.0
C7 C 0.03564 0.31113 0.46487 0.0
C8 C 0.03378 0.2174 0.43127 0.0
C9 C 0.9745 0.2636 0.3933 0.0
O10 O 0.98112 0.26538 0.41922 0.0
O11 O 0.99166 0.2612 0.37648 0.0
O12 O 0.0195 0.2921 0.47453 0.0
O13 O 0.04374 0.30609 0.441 0.0
O14 O 0.98467 0.6848 0.62442 0.0
Cd15 Cd 0.99337 0.71898 0.65257 0.0
Cd16 Cd 0.00736 0.74413 0.60817 0.0
O17 O 0.99382 0.70609 0.58788 0.0
O18 O 0.96886 0.7173 0.68242 0.0
O19 O 0.96925 0.74458 0.64957 0.0
C20 C 0.95927 0.73576 0.67121 0.0
C21 C 0.99648 0.7797 0.58658 0.0
C22 C 0.98615 0.68438 0.59848 0.0
C23 C 0.05084 0.74663 0.65556 0.0
O24 O 0.04439 0.7529 0.63166 0.0
O25 O 0.03313 0.73308 0.66849 0.0
O26 O 0.01399 0.76718 0.57775 0.0
O27 O 0.98457 0.77156 0.60743 0.0
O28 O 0.59638 0.77069 0.92046 0.0
Cd29 Cd 0.56767 0.77602 0.94593 0.0
Cd30 Cd 0.5456 0.7907 0.8983 0.0
O31 O 0.5768 0.77823 0.88077 0.0
O32 O 0.57814 0.75858 0.97836 0.0
O33 O 0.53931 0.74405 0.95165 0.0
C34 C 0.55562 0.74116 0.97244 0.0
C35 C 0.50146 0.77506 0.87778 0.0
C36 C 0.59608 0.77137 0.8945 0.0
C37 C 0.55964 0.83179 0.94892 0.0
O38 O 0.55256 0.82701 0.92296 0.0
O39 O 0.56588 0.81361 0.96248 0.0
O40 O 0.51823 0.79313 0.86753 0.0
O41 O 0.51015 0.76512 0.89935 0.0
O42 O 0.48507 0.19752 0.10993 0.0
Cd43 Cd 0.49872 0.2325 0.13683 0.0
Cd44 Cd 0.51431 0.25183 0.0895 0.0
O45 O 0.4952 0.21431 0.0712 0.0
O46 O 0.48121 0.22636 0.17125 0.0
O47 O 0.47473 0.25815 0.14527 0.0
C48 C 0.46986 0.2461 0.16702 0.0
C49 C 0.50744 0.28947 0.06975 0.0
C50 C 0.48538 0.19452 0.08379 0.0
C51 C 0.55794 0.25234 0.13499 0.0
O52 O 0.55199 0.25659 0.11025 0.0
O53 O 0.53952 0.24324 0.14969 0.0
O54 O 0.52134 0.27394 0.05863 0.0
O55 O 0.49633 0.28281 0.09163 0.0
O56 O 0.025 0.73063 0.15834 0.0
Cd57 Cd 0.03051 0.76612 0.1838 0.0
Cd58 Cd 0.04772 0.78726 0.13712 0.0
O59 O 0.03576 0.74776 0.12 0.0
O60 O 0.00926 0.75573 0.21489 0.0
O61 O 0.99958 0.78439 0.18628 0.0
C62 C 0.99356 0.77091 0.20687 0.0
C63 C 0.0351 0.81925 0.11046 0.0
C64 C 0.02779 0.72751 0.13275 0.0
C65 C 0.08838 0.79451 0.18808 0.0
O66 O 0.08386 0.79771 0.16265 0.0
O67 O 0.0693 0.78343 0.20107 0.0
O68 O 0.05387 0.80721 0.10424 0.0
O69 O 0.02353 0.81338 0.13227 0.0
O70 O 0.55038 0.74533 0.37216 0.0
Cd71 Cd 0.52365 0.74398 0.40156 0.0
Cd72 Cd 0.49716 0.76331 0.35545 0.0
O73 O 0.52994 0.75868 0.33593 0.0
O74 O 0.54488 0.73063 0.43153 0.0
O75 O 0.50469 0.70807 0.41215 0.0
C76 C 0.52572 0.70947 0.42951 0.0
C77 C 0.45385 0.74524 0.33413 0.0
C78 C 0.54998 0.75125 0.34742 0.0
C79 C 0.50823 0.79824 0.40972 0.0
O80 O 0.50122 0.7965 0.38386 0.0
O81 O 0.51633 0.77918 0.42041 0.0
O82 O 0.46889 0.76593 0.32584 0.0
O83 O 0.46384 0.73411 0.35414 0.0
O84 O 0.51504 0.22216 0.6592 0.0
Cd85 Cd 0.52116 0.25691 0.68606 0.0
Cd86 Cd 0.5384 0.27973 0.64137 0.0
O87 O 0.52501 0.24116 0.62156 0.0
O88 O 0.49568 0.25019 0.71474 0.0
O89 O 0.49393 0.27961 0.68439 0.0
C90 C 0.48393 0.26773 0.70456 0.0
C91 C 0.52558 0.3159 0.62211 0.0
C92 C 0.51739 0.22017 0.63342 0.0
C93 C 0.57933 0.28292 0.69131 0.0
O94 O 0.57477 0.28721 0.66621 0.0
O95 O 0.56008 0.27213 0.70426 0.0
O96 O 0.54295 0.30419 0.61155 0.0
O97 O 0.5152 0.30681 0.64344 0.0
O98 O 0.00141 0.19166 0.88517 0.0
Cd99 Cd 0.9971 0.21991 0.85827 0.0
Cd100 Cd 0.98975 0.24743 0.90544 0.0
O101 O 0.001 0.2167 0.92435 0.0
O102 O 0.01575 0.21199 0.82539 0.0
O103 O 0.02993 0.24839 0.85572 0.0
C104 C 0.03343 0.23399 0.83377 0.0
C105 C 0.00952 0.29208 0.92104 0.0
C106 C 0.00373 0.19487 0.91153 0.0
C107 C 0.94344 0.23318 0.86012 0.0
O108 O 0.95145 0.24121 0.88548 0.0
O109 O 0.9592 0.22491 0.84439 0.0
O110 O 0.99209 0.27798 0.93449 0.0
O111 O 0.01656 0.28035 0.89922 0.0
O112 O 0.39516 0.01413 0.23587 0.0
Cd113 Cd 0.3748 0.02066 0.26966 0.0
Cd114 Cd 0.42158 0.01427 0.2973 0.0
O115 O 0.4348 0.01588 0.25896 0.0
O116 O 0.37628 0.05869 0.2852 0.0
O117 O 0.3427 0.03391 0.25566 0.0
C118 C 0.35332 0.05638 0.27062 0.0
C119 C 0.45036 0.0365 0.33602 0.0
C120 C 0.42004 0.01385 0.23616 0.0
C121 C 0.37115 0.97248 0.30033 0.0
O122 O 0.39674 0.97872 0.30427 0.0
O123 O 0.35822 0.98781 0.28861 0.0
O124 O 0.45503 0.01574 0.322 0.0
O125 O 0.42961 0.04546 0.32738 0.0
O126 O 0.2778 0.13625 0.54948 0.0
Cd127 Cd 0.27045 0.11356 0.51134 0.0
Cd128 Cd 0.25435 0.15999 0.49733 0.0
O129 O 0.26853 0.17443 0.53831 0.0
O130 O 0.29013 0.0842 0.51691 0.0
O131 O 0.30103 0.11437 0.48785 0.0
C132 C 0.30613 0.09408 0.49964 0.0
C133 C 0.26374 0.18828 0.46215 0.0
C134 C 0.27624 0.16041 0.55637 0.0
C135 C 0.21189 0.10729 0.49294 0.0
O136 O 0.21753 0.13261 0.49178 0.0
O137 O 0.23054 0.09495 0.49858 0.0
O138 O 0.24706 0.19193 0.47965 0.0
O139 O 0.2757 0.16862 0.4648 0.0
O140 O 0.14095 0.99141 0.73551 0.0
Cd141 Cd 0.16613 -0.00041 0.77245 0.0
Cd142 Cd 0.1201 0.01951 0.787 0.0
O143 O 0.10407 0.00407 0.74646 0.0
O144 O 0.19627 0.9818 0.76296 0.0
O145 O 0.16987 0.96839 0.79453 0.0
C146 C 0.18933 0.96494 0.78043 0.0
C147 C 0.09797 0.00642 0.82569 0.0
C148 C 0.11709 0.99413 0.72866 0.0
C149 C 0.17392 0.05978 0.78964 0.0
O150 O 0.14856 0.05587 0.79099 0.0
O151 O 0.1849 0.03994 0.78448 0.0
O152 O 0.08975 0.0228 0.81006 0.0
O153 O 0.11848 0.99708 0.8191 0.0
O154 O 0.24824 0.88219 0.06011 0.0
Cd155 Cd 0.24674 0.90035 0.02412 0.0
Cd156 Cd 0.24295 0.84843 0.00121 0.0
O157 O 0.23237 0.84097 0.03954 0.0
O158 O 0.23821 0.93607 0.03338 0.0
O159 O 0.21048 0.90228 0.00631 0.0
C160 C 0.21541 0.92663 0.01846 0.0
C161 C 0.22538 0.81493 0.96464 0.0
C162 C 0.23939 0.85723 0.06148 0.0
C163 C 0.29387 0.89005 0.99804 0.0
O164 O 0.28282 0.86534 0.99792 0.0
O165 O 0.2813 0.90806 0.00501 0.0
O166 O 0.24103 0.81089 0.98519 0.0
O167 O 0.21833 0.83776 0.96542 0.0
O168 O 0.26157 0.36742 0.09794 0.0
Cd169 Cd 0.26523 0.39966 0.07414 0.0
Cd170 Cd 0.28131 0.363 0.03777 0.0
O171 O 0.2753 0.33859 0.06914 0.0
O172 O 0.24297 0.42351 0.09048 0.0
O173 O 0.2344 0.40406 0.04722 0.0
C174 C 0.22819 0.41944 0.06696 0.0
C175 C 0.2649 0.34681 0.99169 0.0
C176 C 0.26709 0.34452 0.09225 0.0
C177 C 0.32069 0.41633 0.05686 0.0
O178 O 0.31544 0.39341 0.04258 0.0
O179 O 0.30337 0.42323 0.07153 0.0
O180 O 0.2852 0.33956 0.00398 0.0
O181 O 0.2531 0.36245 0.00603 0.0
O182 O 0.79258 0.14695 0.09404 0.0
Cd183 Cd 0.78091 0.1146 0.06312 0.0
Cd184 Cd 0.76353 0.15323 0.03467 0.0
O185 O 0.78323 0.1781 0.06888 0.0
O186 O 0.80261 0.0883 0.07346 0.0
O187 O 0.80563 0.10745 0.03464 0.0
C188 C 0.81357 0.09134 0.05083 0.0
C189 C 0.7639 0.1727 0.99315 0.0
C190 C 0.79246 0.17148 0.0916 0.0
C191 C 0.7219 0.10525 0.04809 0.0
O192 O 0.72737 0.12807 0.03904 0.0
O193 O 0.74068 0.09468 0.05765 0.0
O194 O 0.75043 0.1796 0.01252 0.0
O195 O 0.77763 0.15467 0.99737 0.0
O196 O 0.13395 0.48301 0.19585 0.0
Cd197 Cd 0.16419 0.49567 0.22848 0.0
Cd198 Cd 0.1227 0.50545 0.25419 0.0
O199 O 0.09936 0.486 0.21887 0.0
O200 O 0.19442 0.4794 0.2182 0.0
O201 O 0.17372 0.47069 0.25539 0.0
C202 C 0.19209 0.46683 0.23989 0.0
C203 C 0.10718 0.49718 0.29644 0.0
C204 C 0.10864 0.47988 0.19653 0.0
C205 C 0.16675 0.55298 0.24645 0.0
O206 O 0.14339 0.54456 0.25354 0.0
O207 O 0.17978 0.5364 0.23672 0.0
O208 O 0.09584 0.51055 0.27969 0.0
O209 O 0.12709 0.4875 0.28872 0.0
O210 O 0.76812 0.88442 0.59817 0.0
Cd211 Cd 0.76944 0.90749 0.56527 0.0
Cd212 Cd 0.78515 0.86308 0.54085 0.0
O213 O 0.77511 0.84671 0.57717 0.0
O214 O 0.74498 0.93345 0.5695 0.0
O215 O 0.73759 0.89947 0.53626 0.0
C216 C 0.72998 0.91985 0.54797 0.0
C217 C 0.76817 0.84302 0.49587 0.0
C218 C 0.77011 0.86004 0.59872 0.0
C219 C 0.82525 0.91714 0.54846 0.0
O220 O 0.82071 0.89172 0.54252 0.0
O221 O 0.80691 0.92815 0.55699 0.0
O222 O 0.78676 0.83465 0.51 0.0
O223 O 0.75808 0.86147 0.50805 0.0
O224 O 0.89334 0.01048 0.1866 0.0
Cd225 Cd 0.87076 0.00633 0.21999 0.0
Cd226 Cd 0.91862 0.99728 0.24325 0.0
O227 O 0.9335 0.00946 0.20701 0.0
O228 O 0.83964 0.02397 0.21251 0.0
O229 O 0.87179 0.03858 0.24734 0.0
C230 C 0.84971 0.04121 0.2338 0.0
C231 C 0.93763 0.01445 0.28843 0.0
C232 C 0.9185 0.01211 0.18556 0.0
C233 C 0.86938 0.95144 0.23721 0.0
O234 O 0.89493 0.95901 0.24147 0.0
O235 O 0.85523 0.96781 0.22977 0.0
O236 O 0.94845 0.99848 0.27338 0.0
O237 O 0.91728 0.02238 0.27694 0.0
O238 O 0.29991 0.65858 0.59777 0.0
Cd239 Cd 0.28675 0.62998 0.56385 0.0
Cd240 Cd 0.28072 0.67295 0.53995 0.0
O241 O 0.29998 0.6945 0.57615 0.0
O242 O 0.30109 0.59825 0.57256 0.0
O243 O 0.31199 0.62084 0.53709 0.0
C244 C 0.31446 0.60131 0.55146 0.0
C245 C 0.29116 0.68853 0.4983 0.0
C246 C 0.30454 0.68405 0.59816 0.0
C247 C 0.23056 0.63116 0.54489 0.0
O248 O 0.24068 0.65464 0.53919 0.0
O249 O 0.24577 0.61654 0.55413 0.0
O250 O 0.27861 0.70094 0.51508 0.0
O251 O 0.29904 0.66761 0.50583 0.0
O252 O 0.40533 0.50547 0.69393 0.0
Cd253 Cd 0.3779 0.50329 0.72336 0.0
Cd254 Cd 0.42177 0.49441 0.7547 0.0
O255 O 0.44223 0.50451 0.72079 0.0
O256 O 0.3507 0.52387 0.71003 0.0
O257 O 0.3771 0.53605 0.74964 0.0
C258 C 0.35858 0.54066 0.73209 0.0
C259 C 0.43741 0.51347 0.80031 0.0
C260 C 0.43062 0.50658 0.69711 0.0
C261 C 0.37121 0.44913 0.74352 0.0
O262 O 0.39622 0.4568 0.75213 0.0
O263 O 0.35881 0.46517 0.73212 0.0
O264 O 0.44834 0.49578 0.78803 0.0
O265 O 0.41864 0.52152 0.78605 0.0
O266 O 0.6249 0.97639 0.70172 0.0
Cd267 Cd 0.65344 0.99065 0.73575 0.0
Cd268 Cd 0.60671 0.99882 0.75747 0.0
O269 O 0.58773 0.97745 0.72113 0.0
O270 O 0.68518 0.97646 0.72583 0.0
O271 O 0.66382 0.96502 0.76184 0.0
C272 C 0.68259 0.96239 0.74642 0.0
C273 C 0.58481 0.995 0.79719 0.0
C274 C 0.59929 0.97181 0.70016 0.0
C275 C 0.65099 0.04748 0.75125 0.0
O276 O 0.62702 0.03758 0.75578 0.0
O277 O 0.66648 0.03213 0.74443 0.0
O278 O 0.57569 0.00571 0.77659 0.0
O279 O 0.60583 0.98507 0.79473 0.0
O280 O 0.77767 0.63406 0.0474 0.0
Cd281 Cd 0.76973 0.61007 0.00986 0.0
Cd282 Cd 0.75 0.65444 0.99599 0.0
O283 O 0.76596 0.6711 0.0359 0.0
O284 O 0.7904 0.58145 0.01628 0.0
O285 O 0.79999 0.61045 0.98588 0.0
C286 C 0.80588 0.59089 0.9984 0.0
C287 C 0.76285 0.67569 0.957 0.0
C288 C 0.77537 0.65806 0.05395 0.0
C289 C 0.70985 0.60113 0.99439 0.0
O290 O 0.71359 0.62646 0.99341 0.0
O291 O 0.72983 0.59011 0.99834 0.0
O292 O 0.74657 0.68426 0.97256 0.0
O293 O 0.77207 0.65518 0.96376 0.0
O294 O 0.90004 0.5223 0.73023 0.0
Cd295 Cd 0.87996 0.52547 0.7647 0.0
Cd296 Cd 0.92837 0.52526 0.79112 0.0
O297 O 0.94069 0.53115 0.75307 0.0
O298 O 0.85005 0.54373 0.75557 0.0
O299 O 0.88513 0.56116 0.78701 0.0
C300 C 0.86282 0.56345 0.77357 0.0
C301 C 0.95942 0.5445 0.82924 0.0
C302 C 0.92549 0.52654 0.73035 0.0
C303 C 0.88216 0.47713 0.79212 0.0
O304 O 0.90739 0.48713 0.79599 0.0
O305 O 0.86617 0.49035 0.78147 0.0
O306 O 0.9639 0.52616 0.81165 0.0
O307 O 0.9374 0.5528 0.82488 0.0
O308 O 0.75102 0.38207 0.55909 0.0
Cd309 Cd 0.7491 0.40588 0.52739 0.0
Cd310 Cd 0.76718 0.36152 0.4982 0.0
O311 O 0.76476 0.34882 0.53679 0.0
O312 O 0.72982 0.43358 0.5413 0.0
O313 O 0.71466 0.40488 0.50361 0.0
C314 C 0.71178 0.42488 0.52039 0.0
C315 C 0.75922 0.32663 0.46187 0.0
C316 C 0.75811 0.35968 0.55874 0.0
C317 C 0.80104 0.41873 0.50165 0.0
O318 O 0.79734 0.39388 0.49306 0.0
O319 O 0.78439 0.42737 0.51591 0.0
O320 O 0.78038 0.33143 0.47954 0.0
O321 O 0.74207 0.34166 0.46478 0.0
O322 O 0.64715 0.50005 0.24103 0.0
Cd323 Cd 0.67183 0.50564 0.27819 0.0
Cd324 Cd 0.62957 0.52722 0.2947 0.0
O325 O 0.61191 0.51431 0.25433 0.0
O326 O 0.69837 0.48256 0.2713 0.0
O327 O 0.66924 0.47513 0.30201 0.0
C328 C 0.68817 0.46781 0.28942 0.0
C329 C 0.60565 0.51523 0.33248 0.0
C330 C 0.62372 0.50443 0.23539 0.0
C331 C 0.68482 0.56492 0.29692 0.0
O332 O 0.65974 0.56222 0.29922 0.0
O333 O 0.6944 0.54442 0.29056 0.0
O334 O 0.60024 0.53348 0.31767 0.0
O335 O 0.62468 0.50361 0.32579 0.0
Zn336 Zn 0.03158 0.99193 0.01979 0.0
Zn337 Zn 0.97877 0.01141 0.99027 0.0
C338 C 0.01148 0.95168 0.05199 0.0
O339 O 0.02262 0.97218 0.07053 0.0
C340 C 0.9979 0.05286 0.96194 0.0
O341 O 0.98171 0.03435 0.94412 0.0
O342 O 0.06876 0.98826 0.03306 0.0
O343 O 0.03248 0.9959 0.97874 0.0
O344 O 0.99001 0.98707 0.95999 0.0
C345 C 0.08954 0.99506 0.02065 0.0
O346 O 0.0887 0.01007 0.00027 0.0
O347 O 0.01099 0.95497 0.0264 0.0
C348 C 0.9369 0.03431 0.00147 0.0
O349 O 0.95721 0.04581 0.02017 0.0
O350 O 0.94048 0.01687 0.9826 0.0
O351 O 0.97865 0.00121 0.02947 0.0
O352 O 0.0204 0.01975 0.04613 0.0
O353 O 0.00128 0.04843 0.98712 0.0
C354 C 0.01509 0.98985 0.95744 0.0
C355 C 0.99554 0.01378 0.04952 0.0
Zn356 Zn 0.25935 0.75622 0.30045 0.0
Zn357 Zn 0.2745 0.77808 0.24758 0.0
C358 C 0.21469 0.7114 0.28729 0.0
O359 O 0.20306 0.72719 0.30247 0.0
C360 C 0.31639 0.81761 0.27842 0.0
O361 O 0.33 0.80539 0.26181 0.0
O362 O 0.26031 0.75415 0.34107 0.0
O363 O 0.29843 0.75838 0.29417 0.0
O364 O 0.29604 0.74985 0.24889 0.0
C365 C 0.27094 0.7354 0.34898 0.0
O366 O 0.27854 0.71922 0.33034 0.0
O367 O 0.23892 0.71997 0.28269 0.0
C368 C 0.27193 0.81797 0.21247 0.0
O369 O 0.2678 0.83048 0.23584 0.0
O370 O 0.27676 0.79454 0.21209 0.0
O371 O 0.23498 0.76611 0.24741 0.0
O372 O 0.23719 0.78343 0.29041 0.0
O373 O 0.29106 0.80875 0.27743 0.0
C374 C 0.30767 0.74924 0.27285 0.0
C375 C 0.2251 0.77861 0.26598 0.0
Zn376 Zn 0.48916 0.02462 0.53047 0.0
Zn377 Zn 0.54952 0.99649 0.5082 0.0
C378 C 0.49644 0.06583 0.57348 0.0
O379 O 0.4828 0.04512 0.58406 0.0
C380 C 0.51681 0.9436 0.48761 0.0
O381 O 0.51271 0.94289 0.51372 0.0
O382 O 0.44866 0.02204 0.52568 0.0
O383 O 0.50017 0.02188 0.49168 0.0
O384 O 0.54468 0.03036 0.49239 0.0
C385 C 0.44182 0.04062 0.5129 0.0
O386 O 0.46075 0.05826 0.50387 0.0
O387 O 0.50349 0.06223 0.54934 0.0
C388 C 0.5949 0.97154 0.51284 0.0
O389 O 0.57509 0.95019 0.50683 0.0
O390 O 0.58942 0.9948 0.51412 0.0
O391 O 0.5363 0.99039 0.54457 0.0
O392 O 0.49867 -0.00022 0.55784 0.0
O393 O 0.53076 0.96492 0.48016 0.0
C394 C 0.52168 0.03291 0.48209 0.0
C395 C 0.51936 0.98996 0.56206 0.0
Zn396 Zn 0.28611 0.25289 0.76527 0.0
Zn397 Zn 0.23192 0.26953 0.77589 0.0
C398 C 0.28069 0.22256 0.71348 0.0
O399 O 0.29132 0.20784 0.73013 0.0
C400 C 0.24484 0.2993 0.82904 0.0
O401 O 0.23154 0.3145 0.81568 0.0
O402 O 0.32509 0.2498 0.76859 0.0
O403 O 0.289 0.29299 0.77614 0.0
O404 O 0.25137 0.29656 0.7528 0.0
C405 C 0.33937 0.26564 0.75427 0.0
O406 O 0.32789 0.2819 0.74046 0.0
O407 O 0.27459 0.2439 0.72396 0.0
C408 C 0.18283 0.26288 0.7971 0.0
O409 O 0.19592 0.24884 0.8123 0.0
O410 O 0.19407 0.27473 0.77804 0.0
O411 O 0.22616 0.2299 0.76345 0.0
O412 O 0.26364 0.2234 0.78477 0.0
O413 O 0.24945 0.2784 0.81581 0.0
C414 C 0.2759 0.30662 0.76187 0.0
C415 C 0.23875 0.21474 0.77595 0.0
Zn416 Zn 0.02634 0.97207 0.51635 0.0
Zn417 Zn 0.01307 0.02652 0.50455 0.0
C418 C 0.05402 0.97862 0.5699 0.0
O419 O 0.0681 0.96543 0.55479 0.0
C420 C 0.98458 0.02114 0.45043 0.0
O421 O 0.97048 0.03491 0.46486 0.0
O422 O 0.02626 0.93295 0.51523 0.0
O423 O 0.98847 0.97124 0.5 0.0
O424 O 0.98364 0.00685 0.52549 0.0
C425 C 0.00844 0.92067 0.52892 0.0
O426 O 0.99297 0.93434 0.54137 0.0
O427 O 0.03389 0.98575 0.55779 0.0
C428 C 0.02707 0.07673 0.48945 0.0
O429 O 0.04065 0.06231 0.47511 0.0
O430 O 0.01178 0.06544 0.50614 0.0
O431 O 0.0528 0.029 0.51663 0.0
O432 O 0.05712 0.99005 0.49688 0.0
O433 O 0.00388 0.0132 0.46316 0.0
C434 C 0.97383 0.98302 0.51414 0.0
C435 C 0.06711 0.01473 0.50497 0.0
Zn436 Zn 0.24669 0.77625 0.76897 0.0
Zn437 Zn 0.29536 0.72242 0.80052 0.0
C438 C 0.20015 0.76861 0.73172 0.0
O439 O 0.21676 0.78764 0.72155 0.0
C440 C 0.34226 0.72677 0.83707 0.0
O441 O 0.32505 0.70844 0.84747 0.0
O442 O 0.24603 0.81642 0.77824 0.0
O443 O 0.25675 0.75628 0.80102 0.0
O444 O 0.2718 0.73174 0.83046 0.0
C445 C 0.2248 0.82063 0.78821 0.0
O446 O 0.20672 0.79979 0.7934 0.0
O447 O 0.20878 0.75872 0.75278 0.0
C448 C 0.31212 0.67629 0.77717 0.0
O449 O 0.32951 0.69589 0.76877 0.0
O450 O 0.29352 0.68208 0.7908 0.0
O451 O 0.28618 0.74247 0.76788 0.0
O452 O 0.27065 0.76778 0.73936 0.0
O453 O 0.33397 0.73736 0.81632 0.0
C454 C 0.25786 0.74903 0.82518 0.0
C455 C 0.28426 0.75002 0.74384 0.0
Zn456 Zn 0.51833 0.01863 0.99374 0.0
Zn457 Zn 0.49406 0.99351 0.04277 0.0
C458 C 0.56283 0.05674 0.01974 0.0
O459 O 0.54837 0.07116 0.00668 0.0
C460 C 0.44846 0.95741 0.01246 0.0
O461 O 0.46067 0.94012 0.02363 0.0
O462 O 0.52948 0.02288 0.9556 0.0
O463 O 0.50463 0.979 0.99051 0.0
O464 O 0.52084 0.97169 0.03134 0.0
C465 C 0.54901 0.0114 0.95229 0.0
O466 O 0.55934 0.00113 0.97332 0.0
O467 O 0.55334 0.03159 0.01911 0.0
C468 C 0.46008 0.99491 0.083 0.0
O469 O 0.4495 0.00619 0.06292 0.0
O470 O 0.48134 0.98622 0.07978 0.0
O471 O 0.50582 0.03358 0.04733 0.0
O472 O 0.49241 0.04111 0.0053 0.0
O473 O 0.46004 0.98222 0.01599 0.0
C474 C 0.51712 0.96547 0.00528 0.0
C475 C 0.49471 0.04733 0.03137 0.0
Zn476 Zn 0.30719 0.25065 0.26358 0.0
Zn477 Zn 0.25358 0.29424 0.29219 0.0
C478 C 0.35057 0.2867 0.24222 0.0
O479 O 0.33096 0.29467 0.22839 0.0
C480 C 0.19392 0.2722 0.28195 0.0
O481 O 0.19708 0.25963 0.25819 0.0
O482 O 0.31332 0.21359 0.25482 0.0
O483 O 0.29681 0.2513 0.30284 0.0
O484 O 0.27024 0.27542 0.32151 0.0
C485 C 0.30162 0.19224 0.26399 0.0
O486 O 0.28088 0.19255 0.27801 0.0
O487 O 0.34502 0.27182 0.26137 0.0
C488 C 0.25019 0.34408 0.28029 0.0
O489 O 0.23588 0.32708 0.25996 0.0
O490 O 0.26269 0.335 0.29971 0.0
O491 O 0.25787 0.28385 0.25198 0.0
O492 O 0.28271 0.25886 0.23198 0.0
O493 O 0.21435 0.28606 0.29749 0.0
C494 C 0.28543 0.25875 0.32341 0.0
C495 C 0.26527 0.27323 0.23026 0.0
Zn496 Zn 0.52076 0.4896 0.03025 0.0
Zn497 Zn 0.50345 0.54156 0.02075 0.0
C498 C 0.55117 0.49755 0.08137 0.0
O499 O 0.56503 0.48644 0.06407 0.0
C500 C 0.47859 0.53577 0.96441 0.0
O501 O 0.4635 0.55014 0.9765 0.0
O502 O 0.521 0.4504 0.03032 0.0
O503 O 0.48243 0.48667 0.0137 0.0
O504 O 0.47467 0.51972 0.04077 0.0
C505 C 0.50383 0.44007 0.04591 0.0
O506 O 0.49013 0.45558 0.05858 0.0
O507 O 0.52933 0.50335 0.07162 0.0
C508 C 0.51588 0.59402 0.01097 0.0
O509 O 0.53394 0.58339 0.99929 0.0
O510 O 0.49815 0.57931 0.02285 0.0
O511 O 0.54335 0.54596 0.03422 0.0
O512 O 0.55055 0.50997 0.01065 0.0
O513 O 0.49699 0.52844 0.97928 0.0
C514 C 0.4665 0.49626 0.02806 0.0
C515 C 0.55887 0.53445 0.02083 0.0
Zn516 Zn 0.74781 0.27915 0.25922 0.0
Zn517 Zn 0.77921 0.21512 0.28014 0.0
C518 C 0.70406 0.27354 0.21766 0.0
O519 O 0.72238 0.28999 0.20642 0.0
C520 C 0.82712 0.23326 0.31436 0.0
O521 O 0.81099 0.22086 0.33091 0.0
O522 O 0.75223 0.31971 0.26816 0.0
O523 O 0.74983 0.25936 0.29338 0.0
O524 O 0.76085 0.22548 0.31318 0.0
C525 C 0.73341 0.32762 0.27966 0.0
O526 O 0.71354 0.30946 0.28653 0.0
O527 O 0.71056 0.26549 0.24059 0.0
C528 C 0.76845 0.15814 0.25345 0.0
O529 O 0.75127 0.16472 0.23504 0.0
O530 O 0.77989 0.17537 0.27377 0.0
O531 O 0.76331 0.23077 0.2484 0.0
O532 O 0.77315 0.26942 0.23229 0.0
O533 O 0.818 0.23401 0.28944 0.0
C534 C 0.75127 0.24659 0.31448 0.0
C535 C 0.77721 0.24585 0.23326 0.0
Zn536 Zn 0.02954 0.51602 0.49123 0.0
Zn537 Zn 0.0012 0.49202 0.54015 0.0
C538 C 0.07718 0.55249 0.51161 0.0
O539 O 0.06332 0.56735 0.49841 0.0
C540 C 0.95152 0.49382 0.50004 0.0
O541 O 0.95563 0.52006 0.50551 0.0
O542 O 0.03568 0.52166 0.45218 0.0
O543 O 0.01757 0.47542 0.48879 0.0
O544 O 0.02526 0.46717 0.53191 0.0
C545 C 0.05338 0.50964 0.44384 0.0
O546 O 0.06565 0.49683 0.46129 0.0
O547 O 0.06631 0.52791 0.51266 0.0
C548 C 0.96573 0.49669 0.5793 0.0
O549 O 0.9561 0.50814 0.55893 0.0
O550 O 0.98638 0.48685 0.57667 0.0
O551 O 0.02055 0.53031 0.5461 0.0
O552 O 0.0071 0.54125 0.50597 0.0
O553 O 0.96816 0.48127 0.51086 0.0
C554 C 0.02521 0.46071 0.50617 0.0
C555 C 0.0107 0.54622 0.53216 0.0
Zn556 Zn 0.79655 0.75593 0.26201 0.0
Zn557 Zn 0.74145 0.76797 0.27954 0.0
C558 C 0.78863 0.72524 0.21058 0.0
O559 O 0.80207 0.71219 0.22669 0.0
C560 C 0.75234 0.79498 0.33329 0.0
O561 O 0.73675 0.80837 0.32025 0.0
O562 O 0.83647 0.75795 0.26064 0.0
O563 O 0.79629 0.795 0.27495 0.0
O564 O 0.7559 0.79864 0.25833 0.0
C565 C 0.84578 0.77498 0.24448 0.0
O566 O 0.82927 0.78788 0.23212 0.0
O567 O 0.78161 0.74596 0.22136 0.0
C568 C 0.69477 0.74882 0.30144 0.0
O569 O 0.71245 0.73656 0.31276 0.0
O570 O 0.70225 0.76537 0.28422 0.0
O571 O 0.74138 0.73113 0.2614 0.0
O572 O 0.7786 0.72507 0.28306 0.0
O573 O 0.75981 0.77603 0.31943 0.0
C574 C 0.78096 0.80879 0.26405 0.0
C575 C 0.75377 0.71611 0.27426 0.0
Zn576 Zn 0.75698 0.25116 0.80077 0.0
Zn577 Zn 0.77216 0.2777 0.74905 0.0
C578 C 0.72246 0.20315 0.77865 0.0
O579 O 0.70773 0.21486 0.7944 0.0
C580 C 0.80814 0.32446 0.77606 0.0
O581 O 0.82467 0.31282 0.76282 0.0
O582 O 0.75594 0.23966 0.83898 0.0
O583 O 0.7959 0.2678 0.80007 0.0
O584 O 0.79818 0.25362 0.75687 0.0
C585 C 0.76985 0.22215 0.84303 0.0
O586 O 0.78229 0.2137 0.82272 0.0
O587 O 0.74611 0.21596 0.77598 0.0
C588 C 0.7629 0.31018 0.70912 0.0
O589 O 0.75155 0.31884 0.73021 0.0
O590 O 0.77474 0.29082 0.71154 0.0
O591 O 0.73245 0.2629 0.74849 0.0
O592 O 0.72937 0.27321 0.79262 0.0
O593 O 0.78363 0.31217 0.77512 0.0
C594 C 0.80828 0.25747 0.78206 0.0
C595 C 0.71937 0.27053 0.76745 0.0
Zn596 Zn 0.78324 0.73993 0.76466 0.0
Zn597 Zn 0.76733 0.79511 0.79055 0.0
C598 C 0.82929 0.75582 0.7387 0.0
O599 O 0.81045 0.74664 0.71784 0.0
C600 C 0.7222 0.77755 0.81378 0.0
O601 O 0.73989 0.79258 0.83323 0.0
O602 O 0.78385 0.70076 0.75468 0.0
O603 O 0.77353 0.74011 0.80406 0.0
O604 O 0.78846 0.78234 0.82232 0.0
C605 C 0.80101 0.6941 0.77179 0.0
O606 O 0.81404 0.71221 0.79201 0.0
O607 O 0.82249 0.75737 0.76315 0.0
C608 C 0.74771 0.83969 0.78009 0.0
O609 O 0.73784 0.82174 0.75865 0.0
O610 O 0.76288 0.83351 0.79951 0.0
O611 O 0.78064 0.7953 0.75274 0.0
O612 O 0.76106 0.75405 0.73477 0.0
O613 O 0.72896 0.77402 0.7895 0.0
C614 C 0.78207 0.75733 0.82516 0.0
C615 C 0.76896 0.77889 0.73192 0.0
Zn616 Zn 0.53428 0.49411 0.52269 0.0
Zn617 Zn 0.47837 0.52036 0.4958 0.0
C618 C 0.52092 0.44873 0.55167 0.0
O619 O 0.52664 0.46831 0.57213 0.0
C620 C 0.51531 0.57307 0.49714 0.0
O621 O 0.53095 0.56028 0.48388 0.0
O622 O 0.57427 0.49933 0.53533 0.0
O623 O 0.53051 0.49853 0.48099 0.0
O624 O 0.49365 0.50878 0.46153 0.0
C625 C 0.591 0.50113 0.51743 0.0
O626 O 0.58314 0.50538 0.49221 0.0
O627 O 0.52157 0.45458 0.52691 0.0
C628 C 0.43191 0.53349 0.50838 0.0
O629 O 0.44842 0.53899 0.53141 0.0
O630 O 0.43989 0.52357 0.48663 0.0
O631 O 0.4767 0.4964 0.52665 0.0
O632 O 0.51559 0.51398 0.55102 0.0
O633 O 0.49564 0.55961 0.50771 0.0
C634 C 0.51632 0.50262 0.45959 0.0
C635 C 0.49014 0.50575 0.54992 0.0
Zn636 Zn 0.99306 0.52983 0.03427 0.0
Zn637 Zn 0.05458 0.49857 0.0063 0.0
C638 C 0.99755 0.57152 0.07682 0.0
O639 O 0.98427 0.55101 0.08797 0.0
C640 C 0.04179 0.44813 0.97683 0.0
O641 O 0.05971 0.46201 0.96293 0.0
O642 O 0.95213 0.52406 0.02589 0.0
O643 O 0.01206 0.52724 0.99933 0.0
O644 O 0.04278 0.51718 0.97396 0.0
C645 C 0.94462 0.54362 0.01543 0.0
O646 O 0.96319 0.56402 0.01019 0.0
O647 O 0.00478 0.5675 0.05286 0.0
C648 C 0.09897 0.47746 0.02495 0.0
O649 O 0.07882 0.46212 0.03484 0.0
O650 O 0.09443 0.4966 0.01149 0.0
O651 O 0.04161 0.51668 0.03916 0.0
O652 O 0.00706 0.50691 0.06212 0.0
O653 O 0.0343 0.46013 0.99769 0.0
C654 C 0.02187 0.52684 0.97627 0.0
C655 C 0.03092 0.50483 0.05839 0.0
H656 H 0.01783 0.14909 0.89197 0.0
H657 H 0.99963 0.19045 0.96656 0.0
H658 H 0.0011 0.15101 0.99085 0.0
H659 H 0.00125 0.10258 0.98881 0.0
H660 H 0.01718 0.06119 0.91327 0.0
H661 H 0.02357 0.10292 0.89167 0.0
C662 C 0.01447 0.14962 0.91363 0.0
C663 C 0.00811 0.17247 0.92724 0.0
C664 C 0.01501 0.12681 0.92735 0.0
C665 C 0.0043 0.17299 0.95547 0.0
C666 C 0.00511 0.15042 0.9694 0.0
C667 C 0.007 0.10303 0.96797 0.0
C668 C 0.00869 0.07903 0.95253 0.0
C669 C 0.00962 0.12692 0.9553 0.0
C670 C 0.01573 0.07956 0.92541 0.0
C671 C 0.01919 0.10333 0.913 0.0
H672 H 0.10587 0.7912 0.24202 0.0
H673 H 0.13449 0.80961 0.16381 0.0
H674 H 0.18019 0.80885 0.18237 0.0
H675 H 0.21061 0.79684 0.21837 0.0
H676 H 0.18305 0.77905 0.29691 0.0
H677 H 0.13827 0.78584 0.28071 0.0
C678 C 0.12218 0.79556 0.22919 0.0
C679 C 0.11659 0.79993 0.20136 0.0
C680 C 0.14849 0.79484 0.23991 0.0
C681 C 0.13807 0.80593 0.18519 0.0
C682 C 0.16424 0.80536 0.19573 0.0
C683 C 0.19488 0.79486 0.23207 0.0
C684 C 0.19979 0.78705 0.25856 0.0
C685 C 0.16943 0.79883 0.22265 0.0
C686 C 0.17956 0.78497 0.27637 0.0
C687 C 0.15399 0.78872 0.26706 0.0
H688 H 0.50634 0.84755 0.39405 0.0
H689 H 0.50774 0.80397 0.46569 0.0
H690 H 0.50747 0.84472 0.49571 0.0
H691 H 0.50955 0.89306 0.50194 0.0
H692 H 0.51168 0.93772 0.43102 0.0
H693 H 0.50741 0.89607 0.40026 0.0
C694 C 0.50638 0.84694 0.41621 0.0
C695 C 0.50715 0.82279 0.42764 0.0
C696 C 0.50678 0.87059 0.43344 0.0
C697 C 0.50737 0.82235 0.4564 0.0
C698 C 0.50713 0.84561 0.47358 0.0
C699 C 0.50862 0.89364 0.47971 0.0
C700 C 0.5108 0.91836 0.46871 0.0
C701 C 0.50717 0.86988 0.46236 0.0
C702 C 0.51001 0.91887 0.43992 0.0
C703 C 0.50768 0.89511 0.42238 0.0
H704 H 0.45352 0.24042 0.74032 0.0
H705 H 0.45779 0.30676 0.69093 0.0
H706 H 0.41428 0.31304 0.70374 0.0
H707 H 0.37387 0.29793 0.72627 0.0
H708 H 0.36835 0.2307 0.77451 0.0
H709 H 0.41369 0.22671 0.76503 0.0
C710 C 0.44507 0.25644 0.73261 0.0
C711 C 0.45884 0.273 0.71457 0.0
C712 C 0.41979 0.25969 0.73972 0.0
C713 C 0.44758 0.29363 0.70472 0.0
C714 C 0.42267 0.29723 0.71201 0.0
C715 C 0.38259 0.28247 0.7349 0.0
C716 C 0.36763 0.26449 0.7509 0.0
C717 C 0.40841 0.28007 0.72906 0.0
C718 C 0.37939 0.24476 0.76207 0.0
C719 C 0.40529 0.24242 0.7566 0.0
H720 H 0.0233 0.80468 0.54753 0.0
H721 H 0.95943 0.80913 0.59884 0.0
H722 H 0.95583 0.85235 0.58314 0.0
H723 H 0.97371 0.89049 0.55842 0.0
H724 H 0.03909 0.88705 0.50888 0.0
H725 H 0.03903 0.84149 0.52019 0.0
C726 C 0.00835 0.81492 0.55502 0.0
C727 C 0.99184 0.8039 0.57451 0.0
C728 C 0.00681 0.83996 0.54641 0.0
C729 C 0.9725 0.81734 0.58396 0.0
C730 C 0.97047 0.84205 0.57505 0.0
C731 C 0.98782 0.87972 0.54988 0.0
C732 C 0.00662 0.89223 0.53314 0.0
C733 C 0.988 0.85383 0.55686 0.0
C734 C 0.02456 0.87791 0.52201 0.0
C735 C 0.02456 0.8519 0.52849 0.0
H736 H 0.45995 0.74268 0.89811 0.0
H737 H 0.47865 0.79009 0.83076 0.0
H738 H 0.4311 0.77969 0.81246 0.0
H739 H 0.38406 0.75785 0.81596 0.0
H740 H 0.36525 0.71047 0.8833 0.0
H741 H 0.41291 0.72031 0.90124 0.0
C742 C 0.45365 0.75058 0.87932 0.0
C743 C 0.47285 0.76713 0.86585 0.0
C744 C 0.4262 0.74473 0.869 0.0
C745 C 0.46431 0.7773 0.84158 0.0
C746 C 0.43709 0.77143 0.83111 0.0
C747 C 0.39036 0.74976 0.83462 0.0
C748 C 0.37108 0.73355 0.84831 0.0
C749 C 0.41783 0.75535 0.84477 0.0
C750 C 0.37964 0.72307 0.87236 0.0
C751 C 0.40692 0.72863 0.88264 0.0
H752 H 0.47698 0.14703 0.1056 0.0
H753 H 0.47946 0.18072 0.0277 0.0
H754 H 0.47939 0.13671 0.00362 0.0
H755 H 0.48544 0.09037 0.00586 0.0
H756 H 0.48583 0.05819 0.08464 0.0
H757 H 0.47789 0.09979 0.10707 0.0
C758 C 0.47686 0.14467 0.08327 0.0
C759 C 0.47865 0.1672 0.06856 0.0
C760 C 0.47784 0.11961 0.06972 0.0
C761 C 0.47838 0.16372 0.03959 0.0
C762 C 0.4785 0.13859 0.0258 0.0
C763 C 0.48337 0.09237 0.02783 0.0
C764 C 0.48669 0.07146 0.04362 0.0
C765 C 0.47938 0.11666 0.04083 0.0
C766 C 0.48383 0.07422 0.07208 0.0
C767 C 0.47922 0.09797 0.08496 0.0
H768 H 0.07512 0.245 0.31416 0.0
H769 H 0.11022 0.30953 0.37894 0.0
H770 H 0.15275 0.31676 0.35859 0.0
H771 H 0.18078 0.30261 0.32466 0.0
H772 H 0.14632 0.23762 0.26022 0.0
H773 H 0.10252 0.23278 0.27821 0.0
C774 C 0.09195 0.26088 0.32365 0.0
C775 C 0.08955 0.2766 0.34816 0.0
C776 C 0.11648 0.26466 0.31208 0.0
C777 C 0.11154 0.29712 0.36013 0.0
C778 C 0.13591 0.30119 0.34857 0.0
C779 C 0.1637 0.2874 0.31444 0.0
C780 C 0.16689 0.27025 0.29133 0.0
C781 C 0.13874 0.28469 0.32493 0.0
C782 C 0.14443 0.25098 0.27811 0.0
C783 C 0.11941 0.24819 0.28842 0.0
H784 H 0.97163 0.02185 0.17506 0.0
H785 H 0.89027 0.00876 0.13477 0.0
H786 H 0.90706 0.00905 0.08974 0.0
H787 H 0.94423 0.01005 0.06141 0.0
H788 H 0.02604 0.02544 0.10054 0.0
H789 H 0.0097 0.02711 0.14624 0.0
C790 C 0.9576 0.01927 0.15645 0.0
C791 C 0.92963 0.01501 0.1585 0.0
C792 C 0.96744 0.01966 0.13031 0.0
C793 C 0.91184 0.01199 0.13404 0.0
C794 C 0.92142 0.01207 0.10815 0.0
C795 C 0.95859 0.01413 0.0799 0.0
C796 C 0.98633 0.01742 0.07744 0.0
C797 C 0.94909 0.01545 0.10601 0.0
C798 C 0.00457 0.02276 0.10173 0.0
C799 C 0.99521 0.02365 0.1279 0.0
H800 H 0.2737 0.72957 0.47716 0.0
H801 H 0.31413 0.66552 0.45653 0.0
H802 H 0.31251 0.67543 0.4084 0.0
H803 H 0.29647 0.69995 0.37181 0.0
H804 H 0.25471 0.76296 0.3925 0.0
H805 H 0.25994 0.75564 0.44123 0.0
C806 C 0.28247 0.71794 0.46224 0.0
C807 C 0.29385 0.69671 0.47033 0.0
C808 C 0.28092 0.72333 0.43464 0.0
C809 C 0.3052 0.68193 0.45078 0.0
C810 C 0.30415 0.68749 0.42326 0.0
C811 C 0.28855 0.71213 0.38697 0.0
C812 C 0.27494 0.73175 0.37854 0.0
C813 C 0.29149 0.70773 0.41487 0.0
C814 C 0.26509 0.74759 0.39846 0.0
C815 C 0.2681 0.74345 0.42631 0.0
H816 H 0.54803 0.97687 0.68645 0.0
H817 H 0.61465 0.95102 0.65218 0.0
H818 H 0.59255 0.94975 0.60542 0.0
H819 H 0.55865 0.96349 0.57492 0.0
H820 H 0.49414 0.99343 0.60917 0.0
H821 H 0.51083 0.98504 0.65536 0.0
C822 C 0.55742 0.97027 0.66879 0.0
C823 C 0.58317 0.96447 0.67276 0.0
C824 C 0.54515 0.97069 0.64198 0.0
C825 C 0.595 0.9559 0.64966 0.0
C826 C 0.58242 0.95528 0.62292 0.0
C827 C 0.54792 0.96781 0.59239 0.0
C828 C 0.52551 0.97965 0.58869 0.0
C829 C 0.55817 0.96388 0.61891 0.0
C830 C 0.51158 0.98457 0.61147 0.0
C831 C 0.52121 0.97991 0.63791 0.0
H832 H 0.28465 0.3127 0.95711 0.0
H833 H 0.22686 0.36327 0.9586 0.0
H834 H 0.21598 0.35324 0.90846 0.0
H835 H 0.22373 0.33123 0.86412 0.0
H836 H 0.28061 0.27976 0.86235 0.0
H837 H 0.29111 0.28915 0.91274 0.0
C838 C 0.26955 0.3214 0.94651 0.0
C839 C 0.25666 0.33881 0.96164 0.0
C840 C 0.26341 0.31558 0.91762 0.0
C841 C 0.23707 0.3498 0.94753 0.0
C842 C 0.23091 0.34417 0.91882 0.0
C843 C 0.23855 0.32216 0.87471 0.0
C844 C 0.25162 0.30506 0.85946 0.0
C845 C 0.24417 0.32734 0.90364 0.0
C846 C 0.27038 0.29309 0.87359 0.0
C847 C 0.27635 0.29844 0.90239 0.0
H848 H 0.97393 0.99423 0.32 0.0
H849 H 0.92031 0.04897 0.32497 0.0
H850 H 0.93011 0.05565 0.37533 0.0
H851 H 0.95219 0.04451 0.41803 0.0
H852 H 0.00583 0.9898 0.41361 0.0
H853 H 0.99756 0.98442 0.36297 0.0
C854 C 0.96464 0.0079 0.33205 0.0
C855 C 0.94637 0.02108 0.31861 0.0
C856 C 0.97008 0.01138 0.36114 0.0
C857 C 0.93445 0.03859 0.33467 0.0
C858 C 0.93994 0.04232 0.36352 0.0
C859 C 0.96205 0.03131 0.40606 0.0
C860 C 0.97943 0.01737 0.41969 0.0
C861 C 0.95737 0.0285 0.37699 0.0
C862 C 0.99225 0.00066 0.40371 0.0
C863 C 0.98757 0.99763 0.37473 0.0
H864 H 0.30333 0.66775 0.64926 0.0
H865 H 0.31791 0.73918 0.60711 0.0
H866 H 0.31604 0.76692 0.65007 0.0
H867 H 0.30341 0.76985 0.69782 0.0
H868 H 0.28406 0.69734 0.73728 0.0
H869 H 0.29472 0.67108 0.69737 0.0
C870 C 0.30675 0.68945 0.64955 0.0
C871 C 0.31034 0.7013 0.62494 0.0
C872 C 0.30455 0.70509 0.67393 0.0
C873 C 0.31484 0.72949 0.62575 0.0
C874 C 0.3136 0.74537 0.65027 0.0
C875 C 0.30215 0.7484 0.69777 0.0
C876 C 0.29389 0.73558 0.72076 0.0
C877 C 0.30732 0.73324 0.67419 0.0
C878 C 0.29176 0.70775 0.72039 0.0
C879 C 0.29742 0.69268 0.69738 0.0
H880 H 0.60534 0.98444 0.84711 0.0
H881 H 0.53784 0.00982 0.80647 0.0
H882 H 0.52086 0.01773 0.85095 0.0
H883 H 0.5261 0.01899 0.90174 0.0
H884 H 0.59409 0.99395 0.94197 0.0
H885 H 0.61 0.98465 0.89741 0.0
C886 C 0.58674 0.99137 0.84794 0.0
C887 C 0.5729 0.99652 0.82357 0.0
C888 C 0.57733 0.99632 0.87359 0.0
C889 C 0.5489 0.00569 0.82499 0.0
C890 C 0.53922 0.01035 0.85042 0.0
C891 C 0.54448 0.01168 0.90072 0.0
C892 C 0.55895 0.00737 0.92513 0.0
C893 C 0.5535 0.00614 0.87492 0.0
C894 C 0.58257 0.99755 0.92348 0.0
C895 C 0.59169 0.99212 0.89799 0.0
H896 H 0.23448 0.33859 0.13372 0.0
H897 H 0.29819 0.30799 0.09885 0.0
H898 H 0.30135 0.28069 0.13703 0.0
H899 H 0.2892 0.26911 0.18268 0.0
H900 H 0.2231 0.29665 0.21589 0.0
H901 H 0.21752 0.32127 0.17598 0.0
C902 C 0.24883 0.3257 0.13435 0.0
C903 C 0.26632 0.32561 0.11365 0.0
C904 C 0.25027 0.30967 0.1562 0.0
C905 C 0.28452 0.30848 0.11451 0.0
C906 C 0.2864 0.2929 0.13641 0.0
C907 C 0.27319 0.28002 0.18101 0.0
C908 C 0.2574 0.28202 0.20301 0.0
C909 C 0.26979 0.29378 0.15769 0.0
C910 C 0.23645 0.29587 0.20002 0.0
C911 C 0.23309 0.3098 0.17704 0.0
H912 H 0.16544 0.91366 0.03331 0.0
H913 H 0.22056 0.97623 0.00113 0.0
H914 H 0.1866 0.00379 0.99953 0.0
H915 H 0.14072 0.00943 0.00669 0.0
H916 H 0.08756 0.94807 0.04309 0.0
H917 H 0.12135 0.92093 0.04418 0.0
C918 C 0.16982 0.93328 0.02581 0.0
C919 C 0.19499 0.94285 0.0168 0.0
C920 C 0.1507 0.94931 0.02606 0.0
C921 C 0.20102 0.96851 0.00782 0.0
C922 C 0.1817 0.98423 0.00702 0.0
C923 C 0.13671 0.99026 0.01513 0.0
C924 C 0.11166 0.9808 0.02469 0.0
C925 C 0.15643 0.9748 0.01607 0.0
C926 C 0.10675 0.95598 0.03575 0.0
C927 C 0.12598 0.94028 0.03619 0.0
H928 H 0.66693 0.6186 0.01129 0.0
H929 H 0.69077 0.54696 0.97897 0.0
H930 H 0.64593 0.51983 0.98352 0.0
H931 H 0.60024 0.51639 0.9984 0.0
H932 H 0.57894 0.58824 0.03456 0.0
H933 H 0.62231 0.61515 0.02685 0.0
C934 C 0.66221 0.5971 0.00484 0.0
C935 C 0.68206 0.58489 0.99447 0.0
C936 C 0.63682 0.58156 0.00848 0.0
C937 C 0.67579 0.55689 0.98685 0.0
C938 C 0.65018 0.54136 0.98956 0.0
C939 C 0.6051 0.53792 0.00457 0.0
C940 C 0.58606 0.55018 0.0168 0.0
C941 C 0.63059 0.55343 0.00068 0.0
C942 C 0.59292 0.57813 0.0249 0.0
C943 C 0.61782 0.59366 0.02051 0.0
H944 H 0.7281 0.44817 0.26683 0.0
H945 H 0.66712 0.42996 0.32226 0.0
H946 H 0.67737 0.3858 0.32579 0.0
H947 H 0.70095 0.35099 0.31022 0.0
H948 H 0.76187 0.36885 0.25474 0.0
H949 H 0.75454 0.41458 0.25441 0.0
C950 C 0.71723 0.43467 0.27993 0.0
C951 C 0.69665 0.44235 0.29405 0.0
C952 C 0.72313 0.40917 0.28175 0.0
C953 C 0.68295 0.42461 0.31106 0.0
C954 C 0.68876 0.39929 0.31304 0.0
C955 C 0.71283 0.36495 0.29825 0.0
C956 C 0.73174 0.35637 0.2823 0.0
C957 C 0.70838 0.39114 0.29802 0.0
C958 C 0.74717 0.37487 0.26719 0.0
C959 C 0.74289 0.401 0.26689 0.0
H960 H 0.84451 0.40599 0.48003 0.0
H961 H 0.81358 0.47367 0.51173 0.0
H962 H 0.85685 0.504 0.50875 0.0
H963 H 0.90482 0.51023 0.50327 0.0
H964 H 0.93679 0.442 0.4756 0.0
H965 H 0.89148 0.41301 0.47012 0.0
C966 C 0.84706 0.42743 0.4859 0.0
C967 C 0.82596 0.43748 0.49649 0.0
C968 C 0.87218 0.44464 0.48483 0.0
C969 C 0.8296 0.46534 0.50386 0.0
C970 C 0.85433 0.48271 0.50213 0.0
C971 C 0.90179 0.48918 0.49526 0.0
C972 C 0.92408 0.47819 0.48994 0.0
C973 C 0.87598 0.47245 0.49348 0.0
C974 C 0.91988 0.45084 0.47988 0.0
C975 C 0.89405 0.43425 0.47696 0.0
H976 H 0.37573 0.10815 0.2658 0.0
H977 H 0.30022 0.05448 0.27397 0.0
H978 H 0.27709 0.09183 0.2727 0.0
H979 H 0.27864 0.14002 0.2694 0.0
H980 H 0.35375 0.19238 0.25672 0.0
H981 H 0.37664 0.15533 0.25916 0.0
C982 C 0.35425 0.10479 0.26746 0.0
C983 C 0.33966 0.07892 0.27041 0.0
C984 C 0.34099 0.12606 0.26561 0.0
C985 C 0.31176 0.07443 0.27187 0.0
C986 C 0.29857 0.09571 0.2711 0.0
C987 C 0.29996 0.14321 0.26702 0.0
C988 C 0.31444 0.16891 0.263 0.0
C989 C 0.31299 0.12164 0.26793 0.0
C990 C 0.34205 0.17275 0.2597 0.0
C991 C 0.35525 0.15162 0.26126 0.0
H992 H 0.32256 0.053 0.52301 0.0
H993 H 0.34543 0.11255 0.4672 0.0
H994 H 0.38866 0.09971 0.46492 0.0
H995 H 0.42129 0.07425 0.48161 0.0
H996 H 0.39905 0.01518 0.53801 0.0
H997 H 0.35411 0.02501 0.537 0.0
C998 C 0.33684 0.06297 0.51007 0.0
C999 C 0.33078 0.08388 0.49545 0.0
C1000 C 0.36185 0.05569 0.5091 0.0
C1001 C 0.34954 0.09647 0.47872 0.0
C1002 C 0.37433 0.08919 0.47748 0.0
C1003 C 0.40657 0.06334 0.49356 0.0
C1004 C 0.41365 0.04419 0.51012 0.0
C1005 C 0.38092 0.06926 0.49305 0.0
C1006 C 0.39419 0.03005 0.52516 0.0
C1007 C 0.36851 0.03574 0.52465 0.0
H1008 H 0.66849 0.6103 0.2871 0.0
H1009 H 0.74016 0.581 0.30765 0.0
H1010 H 0.76831 0.62562 0.30408 0.0
H1011 H 0.7724 0.67281 0.29249 0.0
H1012 H 0.69949 0.69865 0.26715 0.0
H1013 H 0.67232 0.65589 0.27531 0.0
C1014 C 0.69026 0.61371 0.29125 0.0
C1015 C 0.70214 0.59238 0.29791 0.0
C1016 C 0.70624 0.63894 0.28805 0.0
C1017 C 0.73045 0.59711 0.30261 0.0
C1018 C 0.74657 0.62261 0.30045 0.0
C1019 C 0.75059 0.66906 0.28889 0.0
C1020 C 0.73819 0.68927 0.27951 0.0
C1021 C 0.7347 0.64366 0.29273 0.0
C1022 C 0.70981 0.68379 0.27459 0.0
C1023 C 0.69408 0.65921 0.27922 0.0
H1024 H 0.8298 0.45015 0.79121 0.0
H1025 H 0.91187 0.44044 0.80415 0.0
H1026 H 0.89576 0.39214 0.80407 0.0
H1027 H 0.85884 0.35215 0.79383 0.0
H1028 H 0.77671 0.3613 0.78114 0.0
H1029 H 0.79234 0.41029 0.78816 0.0
C1030 C 0.84413 0.43752 0.79446 0.0
C1031 C 0.87199 0.44886 0.79708 0.0
C1032 C 0.83475 0.40962 0.79429 0.0
C1033 C 0.8903 0.43226 0.80177 0.0
C1034 C 0.88113 0.40457 0.80166 0.0
C1035 C 0.84435 0.3649 0.79318 0.0
C1036 C 0.81677 0.35324 0.78659 0.0
C1037 C 0.85348 0.39296 0.79695 0.0
C1038 C 0.7981 0.36986 0.78616 0.0
C1039 C 0.80704 0.39788 0.78995 0.0
H1040 H 0.00475 0.85561 0.12313 0.0
H1041 H 0.04931 0.82872 0.05923 0.0
H1042 H 0.04137 0.86495 0.03263 0.0
H1043 H 0.02656 0.90745 0.03016 0.0
H1044 H 0.98577 0.93668 0.096 0.0
H1045 H 0.98672 0.89615 0.11879 0.0
C1046 C 0.01239 0.85747 0.10321 0.0
C1047 C 0.02784 0.83967 0.09336 0.0
C1048 C 0.00829 0.87877 0.08827 0.0
C1049 C 0.03761 0.84235 0.06748 0.0
C1050 C 0.03303 0.86303 0.05218 0.0
C1051 C 0.01708 0.90442 0.04899 0.0
C1052 C 0.00582 0.9247 0.06129 0.0
C1053 C 0.01899 0.88177 0.06268 0.0
C1054 C 0.99429 0.92107 0.0861 0.0
C1055 C 0.99508 0.89807 0.09925 0.0
H1056 H 0.92244 0.22916 0.80577 0.0
H1057 H 0.90293 0.24172 0.88963 0.0
H1058 H 0.85947 0.24966 0.87248 0.0
H1059 H 0.82833 0.25572 0.83452 0.0
H1060 H 0.84596 0.24302 0.75014 0.0
H1061 H 0.88907 0.23262 0.76674 0.0
C1062 C 0.90854 0.23335 0.82024 0.0
C1063 C 0.91608 0.23509 0.84897 0.0
C1064 C 0.88347 0.2382 0.81023 0.0
C1065 C 0.89782 0.24052 0.86745 0.0
C1066 C 0.87294 0.24511 0.85769 0.0
C1067 C 0.84147 0.2506 0.81961 0.0
C1068 C 0.83404 0.25035 0.79114 0.0
C1069 C 0.86582 0.2445 0.82923 0.0
C1070 C 0.85128 0.24344 0.7722 0.0
C1071 C 0.87589 0.23749 0.78169 0.0
H1072 H 0.50541 0.17179 0.65342 0.0
H1073 H 0.52033 0.20783 0.57808 0.0
H1074 H 0.51634 0.16331 0.55304 0.0
H1075 H 0.50887 0.11404 0.55266 0.0
H1076 H 0.4936 0.07853 0.62819 0.0
H1077 H 0.49784 0.12304 0.65306 0.0
C1078 C 0.50765 0.16998 0.63148 0.0
C1079 C 0.51313 0.19317 0.61769 0.0
C1080 C 0.50555 0.14441 0.61728 0.0
C1081 C 0.51604 0.19034 0.58925 0.0
C1082 C 0.51388 0.16488 0.57491 0.0
C1083 C 0.50673 0.11611 0.57462 0.0
C1084 C 0.50104 0.09305 0.58859 0.0
C1085 C 0.50881 0.14178 0.58877 0.0
C1086 C 0.49799 0.09598 0.61695 0.0
C1087 C 0.50034 0.12141 0.6312 0.0
H1088 H 0.58907 0.72475 0.35976 0.0
H1089 H 0.56461 0.77667 0.30226 0.0
H1090 H 0.60702 0.77964 0.28175 0.0
H1091 H 0.65248 0.76991 0.28259 0.0
H1092 H 0.67579 0.71751 0.34037 0.0
H1093 H 0.63236 0.71234 0.35826 0.0
C1094 C 0.59291 0.7366 0.34261 0.0
C1095 C 0.57392 0.75072 0.33276 0.0
C1096 C 0.61722 0.73828 0.33108 0.0
C1097 C 0.57898 0.76563 0.31025 0.0
C1098 C 0.60326 0.76744 0.29861 0.0
C1099 C 0.64794 0.75724 0.29895 0.0
C1100 C 0.66748 0.74443 0.31034 0.0
C1101 C 0.62276 0.75425 0.30924 0.0
C1102 C 0.66123 0.72783 0.33135 0.0
C1103 C 0.63637 0.72482 0.34165 0.0
H1104 H 0.01869 0.19634 0.47784 0.0
H1105 H 0.05581 0.1802 0.40393 0.0
H1106 H 0.05835 0.13567 0.41661 0.0
H1107 H 0.04803 0.10084 0.44719 0.0
H1108 H 0.00828 0.11528 0.51967 0.0
H1109 H 0.00881 0.16126 0.50905 0.0
C1110 C 0.02763 0.18317 0.46471 0.0
C1111 C 0.03711 0.19146 0.44004 0.0
C1112 C 0.02838 0.15738 0.47175 0.0
C1113 C 0.04832 0.17415 0.42299 0.0
C1114 C 0.04977 0.14874 0.4302 0.0
C1115 C 0.03964 0.11407 0.46083 0.0
C1116 C 0.02813 0.10476 0.48417 0.0
C1117 C 0.03953 0.14006 0.45431 0.0
C1118 C 0.01717 0.12205 0.50151 0.0
C1119 C 0.01749 0.14828 0.49547 0.0
H1120 H 0.57896 0.23646 0.18216 0.0
H1121 H 0.60117 0.28104 0.11365 0.0
H1122 H 0.64847 0.29088 0.13278 0.0
H1123 H 0.68339 0.28754 0.16933 0.0
H1124 H 0.66124 0.24251 0.23756 0.0
H1125 H 0.61407 0.23198 0.21798 0.0
C1126 C 0.59414 0.24836 0.17144 0.0
C1127 C 0.58654 0.25808 0.14661 0.0
C1128 C 0.62132 0.2538 0.18242 0.0
C1129 C 0.60648 0.27327 0.13281 0.0
C1130 C 0.63354 0.27894 0.14373 0.0
C1131 C 0.66827 0.27534 0.17987 0.0
C1132 C 0.67581 0.26596 0.20491 0.0
C1133 C 0.64117 0.26937 0.16855 0.0
C1134 C 0.65598 0.25006 0.21825 0.0
C1135 C 0.62898 0.24405 0.20712 0.0
H1136 H 0.54482 0.87361 0.92665 0.0
H1137 H 0.56973 0.84785 0.00477 0.0
H1138 H 0.55999 0.88781 0.02953 0.0
H1139 H 0.54084 0.92835 0.02894 0.0
H1140 H 0.51481 0.95215 0.95003 0.0
H1141 H 0.52853 0.91472 0.92585 0.0
C1142 C 0.54845 0.87682 0.94908 0.0
C1143 C 0.55772 0.85765 0.9638 0.0
C1144 C 0.54228 0.8994 0.96316 0.0
C1145 C 0.56246 0.86227 0.99289 0.0
C1146 C 0.55677 0.88505 0.0071 0.0
C1147 C 0.53829 0.92534 0.00648 0.0
C1148 C 0.52653 0.94287 0.99143 0.0
C1149 C 0.54604 0.90344 0.99246 0.0
C1150 C 0.52351 0.93883 0.96227 0.0
C1151 C 0.53143 0.91744 0.9483 0.0
H1152 H 0.94308 0.7334 0.72278 0.0
H1153 H 0.92462 0.76047 0.64355 0.0
H1154 H 0.88415 0.77248 0.65897 0.0
H1155 H 0.85156 0.77065 0.69304 0.0
H1156 H 0.87003 0.74466 0.77271 0.0
H1157 H 0.91328 0.73749 0.75937 0.0
C1158 C 0.93031 0.74216 0.70903 0.0
C1159 C 0.93655 0.7456 0.68192 0.0
C1160 C 0.90716 0.7493 0.71814 0.0
C1161 C 0.92014 0.75745 0.66445 0.0
C1162 C 0.89698 0.7643 0.67324 0.0
C1163 C 0.86538 0.76401 0.70769 0.0
C1164 C 0.85766 0.75803 0.7337 0.0
C1165 C 0.88997 0.7597 0.69977 0.0
C1166 C 0.87568 0.7496 0.75263 0.0
C1167 C 0.90025 0.74519 0.74488 0.0
H1168 H 0.04616 0.00644 0.83626 0.0
H1169 H 0.12096 0.99121 0.87246 0.0
H1170 H 0.10161 0.98355 0.91582 0.0
H1171 H 0.0643 0.98352 0.94435 0.0
H1172 H 0.98823 0.99535 0.90746 0.0
H1173 H 0.00704 0.00167 0.86358 0.0
C1174 C 0.05814 0.00127 0.85359 0.0
C1175 C 0.08511 -0.00034 0.85114 0.0
C1176 C 0.04665 0.9963 0.87841 0.0
C1177 C 0.10021 0.99258 0.87371 0.0
C1178 C 0.08916 0.98826 0.89858 0.0
C1179 C 0.05169 0.98722 0.92666 0.0
C1180 C 0.02496 0.98945 0.92953 0.0
C1181 C 0.06251 0.99038 0.90129 0.0
C1182 C 0.0089 0.9938 0.90612 0.0
C1183 C 0.0197 0.99749 0.88095 0.0
H1184 H 0.74575 0.37683 0.60935 0.0
H1185 H 0.77452 0.31297 0.56591 0.0
H1186 H 0.77914 0.29225 0.60863 0.0
H1187 H 0.77531 0.29238 0.65855 0.0
H1188 H 0.74599 0.35611 0.70146 0.0
H1189 H 0.74147 0.37672 0.65878 0.0
C1190 C 0.75295 0.35833 0.60916 0.0
C1191 C 0.75977 0.34654 0.58443 0.0
C1192 C 0.75561 0.34651 0.63377 0.0
C1193 C 0.76907 0.32253 0.58463 0.0
C1194 C 0.77179 0.31066 0.60908 0.0
C1195 C 0.76805 0.31083 0.65854 0.0
C1196 C 0.76107 0.32269 0.68314 0.0
C1197 C 0.76523 0.32253 0.63381 0.0
C1198 C 0.75149 0.3465 0.68279 0.0
C1199 C 0.74886 0.35834 0.65839 0.0
H1200 H 0.49933 0.02831 0.35438 0.0
H1201 H 0.43685 0.06787 0.37839 0.0
H1202 H 0.4571 0.07468 0.42654 0.0
H1203 H 0.4874 0.06175 0.46226 0.0
H1204 H 0.5487 0.02064 0.4386 0.0
H1205 H 0.53457 0.02263 0.38969 0.0
C1206 C 0.49052 0.03899 0.37006 0.0
C1207 C 0.4663 0.04703 0.36301 0.0
C1208 C 0.50195 0.04232 0.39773 0.0
C1209 C 0.45536 0.0613 0.38336 0.0
C1210 C 0.46683 0.06503 0.41092 0.0
C1211 C 0.49797 0.05376 0.44638 0.0
C1212 C 0.51862 0.04062 0.45385 0.0
C1213 C 0.48931 0.05444 0.41844 0.0
C1214 C 0.5327 0.03083 0.43325 0.0
C1215 C 0.52445 0.03174 0.40532 0.0
H1216 H 0.75953 0.70091 0.08026 0.0
H1217 H 0.80626 0.64116 0.09394 0.0
H1218 H 0.81426 0.65676 0.14321 0.0
H1219 H 0.80679 0.68586 0.18262 0.0
H1220 H 0.76004 0.74576 0.17035 0.0
H1221 H 0.75313 0.73148 0.12037 0.0
C1222 C 0.77173 0.69154 0.09399 0.0
C1223 C 0.78222 0.66982 0.08333 0.0
C1224 C 0.77599 0.7004 0.1226 0.0
C1225 C 0.79782 0.65779 0.1015 0.0
C1226 C 0.80238 0.66666 0.12974 0.0
C1227 C 0.79501 0.69584 0.16911 0.0
C1228 C 0.78379 0.71674 0.18031 0.0
C1229 C 0.79126 0.68765 0.14055 0.0
C1230 C 0.7688 0.72952 0.16233 0.0
C1231 C 0.7649 0.7214 0.13373 0.0
H1232 H 0.07537 0.01077 0.70038 0.0
H1233 H 0.13316 0.96097 0.69028 0.0
H1234 H 0.11845 0.9518 0.64091 0.0
H1235 H 0.09102 0.95922 0.60024 0.0
H1236 H 0.03302 0.00887 0.60853 0.0
H1237 H 0.046 0.01682 0.65881 0.0
C1238 C 0.08448 0.99765 0.6874 0.0
C1239 C 0.10547 0.98669 0.69916 0.0
C1240 C 0.07612 0.99265 0.65861 0.0
C1241 C 0.11713 0.96986 0.68192 0.0
C1242 C 0.10876 0.9646 0.65358 0.0
C1243 C 0.08113 0.97183 0.61293 0.0
C1244 C 0.06121 0.98361 0.60048 0.0
C1245 C 0.08862 0.9762 0.64165 0.0
C1246 C 0.04852 -0.00036 0.61748 0.0
C1247 C 0.05593 0.00416 0.64626 0.0
H1248 H 0.72503 0.31937 0.41416 0.0
H1249 H 0.78665 0.28675 0.45654 0.0
H1250 H 0.78673 0.25603 0.41537 0.0
H1251 H 0.77348 0.24243 0.36581 0.0
H1252 H 0.71348 0.27611 0.32249 0.0
H1253 H 0.70833 0.30221 0.36547 0.0
C1254 C 0.7381 0.3052 0.4145 0.0
C1255 C 0.75603 0.30558 0.43823 0.0
C1256 C 0.73852 0.28796 0.39049 0.0
C1257 C 0.77287 0.2871 0.4384 0.0
C1258 C 0.77295 0.2695 0.41487 0.0
C1259 C 0.75883 0.25501 0.36594 0.0
C1260 C 0.74423 0.25784 0.34101 0.0
C1261 C 0.75647 0.27032 0.39056 0.0
C1262 C 0.72541 0.27425 0.34138 0.0
C1263 C 0.72241 0.28907 0.36595 0.0
H1264 H 0.39415 0.00671 0.18403 0.0
H1265 H 0.47213 0.0116 0.22918 0.0
H1266 H 0.49103 0.00379 0.18579 0.0
H1267 H 0.48571 0.99691 0.13476 0.0
H1268 H 0.40799 0.99361 0.09006 0.0
H1269 H 0.38862 -0.001 0.13354 0.0
C1270 C 0.41529 0.00612 0.18443 0.0
C1271 C 0.43167 0.00987 0.20983 0.0
C1272 C 0.42605 0.00165 0.15946 0.0
C1273 C 0.45903 0.00891 0.20991 0.0
C1274 C 0.46987 0.00434 0.18511 0.0
C1275 C 0.46446 0.99694 0.13464 0.0
C1276 C 0.44826 0.9948 0.10937 0.0
C1277 C 0.45359 0.00075 0.15975 0.0
C1278 C 0.42084 0.99528 0.10936 0.0
C1279 C 0.40977 0.99845 0.13417 0.0
H1280 H 0.76322 0.72732 0.94611 0.0
H1281 H 0.7781 0.65218 0.91061 0.0
H1282 H 0.78632 0.67117 0.86721 0.0
H1283 H 0.78695 0.70821 0.83852 0.0
H1284 H 0.77561 0.78465 0.87449 0.0
H1285 H 0.76852 0.76619 0.91852 0.0
C1286 C 0.76841 0.71518 0.9289 0.0
C1287 C 0.76977 0.68824 0.93153 0.0
C1288 C 0.7737 0.72646 0.90409 0.0
C1289 C 0.7769 0.67291 0.90918 0.0
C1290 C 0.78154 0.68375 0.8843 0.0
C1291 C 0.78323 0.72097 0.85607 0.0
C1292 C 0.78149 0.74772 0.85303 0.0
C1293 C 0.77969 0.71037 0.88142 0.0
C1294 C 0.77696 0.764 0.87614 0.0
C1295 C 0.7728 0.7534 0.90132 0.0
H1296 H 0.8304 0.07861 0.00041 0.0
H1297 H 0.84631 0.07365 0.088 0.0
H1298 H 0.88478 0.05407 0.07992 0.0
H1299 H 0.91557 0.04113 0.04877 0.0
H1300 H 0.89957 0.04287 0.96086 0.0
H1301 H 0.85921 0.06065 0.96809 0.0
C1302 C 0.84225 0.07309 0.01763 0.0
C1303 C 0.83568 0.07785 0.04481 0.0
C1304 C 0.86423 0.06126 0.01278 0.0
C1305 C 0.85093 0.07024 0.06691 0.0
C1306 C 0.87299 0.05908 0.06234 0.0
C1307 C 0.90302 0.04502 0.03113 0.0
C1308 C 0.91047 0.04089 0.00437 0.0
C1309 C 0.88 0.05487 0.03548 0.0
C1310 C 0.89404 0.0458 0.98164 0.0
C1311 C 0.87114 0.05615 0.98584 0.0
H1312 H 0.3601 0.40733 0.02628 0.0
H1313 H 0.34053 0.46748 0.08397 0.0
H1314 H 0.38377 0.498 0.08003 0.0
H1315 H 0.42739 0.50744 0.05983 0.0
H1316 H 0.44524 0.44614 0.00201 0.0
H1317 H 0.40241 0.41644 0.00641 0.0
C1318 C 0.36517 0.42708 0.03811 0.0
C1319 C 0.34701 0.43502 0.05542 0.0
C1320 C 0.38982 0.44445 0.03563 0.0
C1321 C 0.3541 0.46078 0.07049 0.0
C1322 C 0.37882 0.47827 0.06821 0.0
C1323 C 0.4218 0.48764 0.04812 0.0
C1324 C 0.43961 0.47918 0.03056 0.0
C1325 C 0.39687 0.47034 0.05075 0.0
C1326 C 0.43204 0.45336 0.01563 0.0
C1327 C 0.4075 0.43622 0.01815 0.0
H1328 H 0.34114 0.56216 0.7786 0.0
H1329 H 0.35245 0.57456 0.69391 0.0
H1330 H 0.33819 0.61727 0.69999 0.0
H1331 H 0.32487 0.6523 0.73016 0.0
H1332 H 0.30868 0.63824 0.81328 0.0
H1333 H 0.32208 0.5949 0.80713 0.0
C1334 C 0.34028 0.57421 0.76151 0.0
C1335 C 0.34812 0.56547 0.73594 0.0
C1336 C 0.33111 0.59836 0.76489 0.0
C1337 C 0.34654 0.58096 0.71378 0.0
C1338 C 0.33844 0.60538 0.71726 0.0
C1339 C 0.32381 0.63948 0.74673 0.0
C1340 C 0.31583 0.64838 0.77213 0.0
C1341 C 0.33095 0.61442 0.74279 0.0
C1342 C 0.31452 0.63165 0.79346 0.0
C1343 C 0.3224 0.60699 0.79 0.0
H1344 H 0.20185 0.58117 0.55166 0.0
H1345 H 0.19281 0.65812 0.52706 0.0
H1346 H 0.14439 0.64091 0.51647 0.0
H1347 H 0.10505 0.60369 0.51187 0.0
H1348 H 0.11344 0.52627 0.53533 0.0
H1349 H 0.16168 0.54416 0.54901 0.0
C1350 C 0.18927 0.59422 0.54414 0.0
C1351 C 0.20102 0.62084 0.53999 0.0
C1352 C 0.16134 0.58415 0.53787 0.0
C1353 C 0.18438 0.63749 0.53031 0.0
C1354 C 0.15665 0.6277 0.52424 0.0
C1355 C 0.11734 0.59072 0.52015 0.0
C1356 C 0.10571 0.56365 0.52239 0.0
C1357 C 0.14499 0.601 0.5276 0.0
C1358 C 0.12193 0.5472 0.53333 0.0
C1359 C 0.14952 0.55738 0.54107 0.0
H1360 H 0.69275 0.93861 0.79331 0.0
H1361 H 0.70996 0.94109 0.70845 0.0
H1362 H 0.73365 0.90481 0.71233 0.0
H1363 H 0.74604 0.86975 0.73824 0.0
H1364 H 0.73147 0.86763 0.82362 0.0
H1365 H 0.71058 0.90663 0.82139 0.0
C1366 C 0.70195 0.93136 0.77581 0.0
C1367 C 0.6993 0.94236 0.75053 0.0
C1368 C 0.716 0.91058 0.77828 0.0
C1369 C 0.71162 0.933 0.72813 0.0
C1370 C 0.72514 0.91217 0.73027 0.0
C1371 C 0.73873 0.8782 0.7565 0.0
C1372 C 0.74012 0.86595 0.781 0.0
C1373 C 0.72698 0.90049 0.75502 0.0
C1374 C 0.73076 0.87699 0.80461 0.0
C1375 C 0.71862 0.89908 0.80322 0.0
H1376 H 0.71321 0.96659 0.56013 0.0
H1377 H 0.68917 0.88853 0.51204 0.0
H1378 H 0.64595 0.89825 0.49619 0.0
H1379 H 0.61419 0.9279 0.49734 0.0
H1380 H 0.63791 0.00665 0.5438 0.0
H1381 H 0.68213 0.99783 0.55866 0.0
C1382 C 0.69853 0.95177 0.54611 0.0
C1383 C 0.70438 0.92676 0.53748 0.0
C1384 C 0.67368 0.95762 0.53674 0.0
C1385 C 0.68525 0.9079 0.51906 0.0
C1386 C 0.66046 0.91342 0.50999 0.0
C1387 C 0.62908 0.94324 0.51059 0.0
C1388 C 0.6227 0.96783 0.5196 0.0
C1389 C 0.65437 0.93807 0.51889 0.0
C1390 C 0.64235 0.98759 0.53649 0.0
C1391 C 0.66757 0.98248 0.54511 0.0
H1392 H 0.31738 0.42491 0.73003 0.0
H1393 H 0.39268 0.41086 0.76681 0.0
H1394 H 0.36995 0.36621 0.7757 0.0
H1395 H 0.32892 0.33119 0.77394 0.0
H1396 H 0.25331 0.34388 0.73677 0.0
H1397 H 0.2759 0.38885 0.72736 0.0
C1398 C 0.32883 0.41206 0.73991 0.0
C1399 C 0.35678 0.42149 0.74776 0.0
C1400 C 0.31556 0.3861 0.74508 0.0
C1401 C 0.3712 0.40439 0.76053 0.0
C1402 C 0.3582 0.37874 0.7657 0.0
C1403 C 0.31728 0.34372 0.76377 0.0
C1404 C 0.28939 0.33407 0.75617 0.0
C1405 C 0.33041 0.36944 0.75823 0.0
C1406 C 0.27479 0.35071 0.7429 0.0
C1407 C 0.28772 0.37647 0.73749 0.0
H1408 H 0.14378 0.59332 0.26548 0.0
H1409 H 0.21703 0.57834 0.23585 0.0
H1410 H 0.23767 0.62641 0.24421 0.0
H1411 H 0.23567 0.67224 0.26204 0.0
H1412 H 0.16269 0.68697 0.29249 0.0
H1413 H 0.1411 0.63933 0.2814 0.0
C1414 C 0.16423 0.60052 0.26072 0.0
C1415 C 0.17888 0.5822 0.25022 0.0
C1416 C 0.17602 0.62812 0.26571 0.0
C1417 C 0.20531 0.59197 0.24405 0.0
C1418 C 0.21714 0.61946 0.24882 0.0
C1419 C 0.21495 0.6651 0.26603 0.0
C1420 C 0.20086 0.68311 0.27823 0.0
C1421 C 0.20278 0.63765 0.25994 0.0
C1422 C 0.17404 0.67352 0.28323 0.0
C1423 C 0.16169 0.64627 0.27695 0.0
H1424 H 0.48716 0.67645 0.45295 0.0
H1425 H 0.57154 0.69218 0.4414 0.0
H1426 H 0.57674 0.65249 0.46387 0.0
H1427 H 0.55627 0.61113 0.48321 0.0
H1428 H 0.47253 0.59719 0.49769 0.0
H1429 H 0.4683 0.63857 0.47842 0.0
C1430 C 0.50668 0.67122 0.45561 0.0
C1431 C 0.52883 0.68685 0.44525 0.0
C1432 C 0.50969 0.64878 0.46921 0.0
C1433 C 0.55418 0.6803 0.44918 0.0
C1434 C 0.55716 0.65762 0.46198 0.0
C1435 C 0.53727 0.61748 0.48268 0.0
C1436 C 0.51476 0.60094 0.49163 0.0
C1437 C 0.53494 0.64142 0.47164 0.0
C1438 C 0.49028 0.60953 0.49102 0.0
C1439 C 0.48772 0.6331 0.47973 0.0
H1440 H 0.59734 0.27627 0.74425 0.0
H1441 H 0.62505 0.29904 0.6669 0.0
H1442 H 0.67099 0.2984 0.68447 0.0
H1443 H 0.7023 0.2868 0.71952 0.0
H1444 H 0.67621 0.26569 0.79776 0.0
H1445 H 0.63046 0.27012 0.78202 0.0
C1446 C 0.61348 0.2815 0.7314 0.0
C1447 C 0.60759 0.28726 0.7041 0.0
C1448 C 0.64002 0.28101 0.7416 0.0
C1449 C 0.62886 0.29431 0.68788 0.0
C1450 C 0.65518 0.29383 0.69784 0.0
C1451 C 0.68671 0.28349 0.73331 0.0
C1452 C 0.69247 0.27564 0.75962 0.0
C1453 C 0.6608 0.28643 0.72429 0.0
C1454 C 0.67216 0.27168 0.77736 0.0
C1455 C 0.64604 0.27416 0.76834 0.0
H1456 H 0.99346 0.32293 0.96163 0.0
H1457 H 0.04821 0.32668 0.89893 0.0
H1458 H 0.06271 0.3754 0.91058 0.0
H1459 H 0.05908 0.41684 0.93772 0.0
H1460 H 0.00422 0.41331 0.0003 0.0
H1461 H 0.99031 0.36443 0.98931 0.0
C1462 C 0.00872 0.33436 0.95064 0.0
C1463 C 0.01975 0.3212 0.92945 0.0
C1464 C 0.01672 0.36237 0.95722 0.0
C1465 C 0.03941 0.33632 0.91533 0.0
C1466 C 0.04764 0.36418 0.92192 0.0
C1467 C 0.044 0.40544 0.94892 0.0
C1468 C 0.03259 0.41871 0.96971 0.0
C1469 C 0.03625 0.37741 0.94263 0.0
C1470 C 0.01323 0.40358 0.98413 0.0
C1471 C 0.00533 0.37564 0.97791 0.0
H1472 H 0.95751 0.80194 0.19631 0.0
H1473 H 0.97288 0.73998 0.24589 0.0
H1474 H 0.92906 0.73658 0.26319 0.0
H1475 H 0.88494 0.74906 0.26181 0.0
H1476 H 0.87009 0.81124 0.21219 0.0
H1477 H 0.91501 0.81669 0.19757 0.0
C1478 C 0.9514 0.78789 0.21112 0.0
C1479 C 0.96838 0.77114 0.21961 0.0
C1480 C 0.92611 0.7859 0.22089 0.0
C1481 C 0.9602 0.75312 0.23893 0.0
C1482 C 0.93507 0.75107 0.2488 0.0
C1483 C 0.89164 0.76394 0.248 0.0
C1484 C 0.874 0.77943 0.23788 0.0
C1485 C 0.91763 0.76702 0.23954 0.0
C1486 C 0.88308 0.79878 0.22011 0.0
C1487 C 0.90883 0.80198 0.2117 0.0
H1488 H 0.47923 0.32571 0.08757 0.0
H1489 H 0.53369 0.31126 0.02814 0.0
H1490 H 0.53668 0.35643 0.01454 0.0
H1491 H 0.52631 0.40118 0.02192 0.0
H1492 H 0.47171 0.41512 0.08147 0.0
H1493 H 0.46635 0.36906 0.09253 0.0
C1494 C 0.4915 0.33232 0.07142 0.0
C1495 C 0.50635 0.31528 0.05907 0.0
C1496 C 0.49334 0.35835 0.06387 0.0
C1497 C 0.52206 0.32406 0.03804 0.0
C1498 C 0.5239 0.34992 0.03032 0.0
C1499 C 0.51315 0.39406 0.0372 0.0
C1500 C 0.49973 0.41164 0.05105 0.0
C1501 C 0.51006 0.36744 0.0435 0.0
C1502 C 0.4825 0.40208 0.07061 0.0
C1503 C 0.47936 0.3757 0.07699 0.0
H1504 H 0.95336 0.26241 0.33972 0.0
H1505 H 0.932 0.26248 0.42341 0.0
H1506 H 0.88455 0.25557 0.40616 0.0
H1507 H 0.84897 0.24539 0.36744 0.0
H1508 H 0.86949 0.24494 0.2836 0.0
H1509 H 0.91755 0.25656 0.30085 0.0
C1510 C 0.93835 0.26116 0.35419 0.0
C1511 C 0.94621 0.26253 0.38277 0.0
C1512 C 0.91099 0.25704 0.34415 0.0
C1513 C 0.92653 0.26125 0.40128 0.0
C1514 C 0.89935 0.25726 0.39146 0.0
C1515 C 0.86396 0.24805 0.35294 0.0
C1516 C 0.85582 0.24389 0.32434 0.0
C1517 C 0.89135 0.25446 0.36295 0.0
C1518 C 0.87536 0.24792 0.30575 0.0
C1519 C 0.90279 0.25442 0.31559 0.0
H1520 H 0.98565 0.63566 0.61595 0.0
H1521 H 0.98062 0.67524 0.54189 0.0
H1522 H 0.98545 0.63474 0.51395 0.0
H1523 H 0.99674 0.58998 0.51148 0.0
H1524 H 0.00449 0.55247 0.58671 0.0
H1525 H 0.99296 0.59011 0.61306 0.0
C1526 C 0.98501 0.63528 0.59363 0.0
C1527 C 0.98308 0.65849 0.58109 0.0
C1528 C 0.9888 0.61238 0.57787 0.0
C1529 C 0.98232 0.65765 0.55211 0.0
C1530 C 0.98524 0.63456 0.53612 0.0
C1531 C 0.99566 0.59002 0.53357 0.0
C1532 C 0.00189 0.56866 0.5471 0.0
C1533 C 0.98948 0.61213 0.54891 0.0
C1534 C 1.00024 0.56885 0.57576 0.0
C1535 C 0.99353 0.59035 0.59093 0.0
H1536 H 0.6043 0.7726 0.83988 0.0
H1537 H 0.6397 0.75599 0.91849 0.0
H1538 H 0.68048 0.7515 0.8983 0.0
H1539 H 0.70838 0.75866 0.86066 0.0
H1540 H 0.67475 0.77657 0.78223 0.0
H1541 H 0.63067 0.77338 0.7997 0.0
C1542 C 0.62079 0.76765 0.85247 0.0
C1543 C 0.61914 0.76529 0.88083 0.0
C1544 C 0.64447 0.76528 0.84077 0.0
C1545 C 0.64054 0.75843 0.89675 0.0
C1546 C 0.66391 0.75578 0.88523 0.0
C1547 C 0.69115 0.76115 0.84719 0.0
C1548 C 0.6946 0.76805 0.82042 0.0
C1549 C 0.6664 0.76007 0.8576 0.0
C1550 C 0.67233 0.77107 0.80292 0.0
C1551 C 0.6473 0.7696 0.81304 0.0
H1552 H 0.41077 0.49672 0.6427 0.0
H1553 H 0.48562 0.52138 0.69641 0.0
H1554 H 0.51086 0.52406 0.65597 0.0
H1555 H 0.51161 0.51875 0.60485 0.0
H1556 H 0.43607 0.49097 0.55237 0.0
H1557 H 0.41147 0.49038 0.59261 0.0
C1558 C 0.43261 0.50286 0.64566 0.0
C1559 C 0.44619 0.509 0.67266 0.0
C1560 C 0.447 0.50381 0.62236 0.0
C1561 C 0.47456 0.51655 0.67591 0.0
C1562 C 0.48904 0.51808 0.65275 0.0
C1563 C 0.48978 0.51262 0.60223 0.0
C1564 C 0.47586 0.50531 0.57535 0.0
C1565 C 0.47548 0.51164 0.62579 0.0
C1566 C 0.44751 0.49705 0.57258 0.0
C1567 C 0.43328 0.49662 0.59568 0.0
H1568 H 0.7902 0.16327 0.94841 0.0
H1569 H 0.73534 0.20969 0.979 0.0
H1570 H 0.73257 0.22935 0.93552 0.0
H1571 H 0.74506 0.23293 0.88847 0.0
H1572 H 0.8 0.18663 0.85782 0.0
H1573 H 0.80338 0.1675 0.90158 0.0
C1574 C 0.7777 0.17773 0.94557 0.0
C1575 C 0.763 0.18493 0.9669 0.0
C1576 C 0.77614 0.189 0.92046 0.0
C1577 C 0.7469 0.20374 0.96292 0.0
C1578 C 0.74525 0.21502 0.93803 0.0
C1579 C 0.75781 0.2187 0.89139 0.0
C1580 C 0.77211 0.21115 0.86986 0.0
C1581 C 0.75969 0.20772 0.91662 0.0
C1582 C 0.78861 0.19271 0.874 0.0
C1583 C 0.79061 0.18174 0.89904 0.0
H1584 H 0.12231 0.49011 0.14617 0.0
H1585 H 0.05403 0.45892 0.18876 0.0
H1586 H 0.02328 0.46025 0.14754 0.0
H1587 H 0.01595 0.47648 0.1017 0.0
H1588 H 0.08534 0.51481 0.06416 0.0
H1589 H 0.11532 0.50444 0.10079 0.0
C1590 C 0.10074 0.4829 0.14623 0.0
C1591 C 0.09045 0.47445 0.1704 0.0
C1592 C 0.08329 0.48533 0.12329 0.0
C1593 C 0.06241 0.46555 0.1703 0.0
C1594 C 0.04483 0.4665 0.14684 0.0
C1595 C 0.03761 0.48203 0.10134 0.0
C1596 C 0.04829 0.49555 0.0796 0.0
C1597 C 0.05503 0.47736 0.12355 0.0
C1598 C 0.07645 0.50339 0.07991 0.0
C1599 C 0.09373 0.49775 0.10109 0.0
H1600 H 0.79025 0.80962 0.4623 0.0
H1601 H 0.72865 0.85591 0.4619 0.0
H1602 H 0.71866 0.84511 0.41187 0.0
H1603 H 0.72845 0.82431 0.36809 0.0
H1604 H 0.78939 0.7774 0.36743 0.0
H1605 H 0.79868 0.78677 0.41801 0.0
C1606 C 0.77442 0.81708 0.45131 0.0
C1607 C 0.76027 0.83364 0.46594 0.0
C1608 C 0.76888 0.81096 0.42231 0.0
C1609 C 0.73989 0.84318 0.45128 0.0
C1610 C 0.73422 0.8371 0.42259 0.0
C1611 C 0.74386 0.81616 0.37891 0.0
C1612 C 0.75844 0.80042 0.36389 0.0
C1613 C 0.74884 0.82138 0.40787 0.0
C1614 C 0.778 0.78971 0.37843 0.0
C1615 C 0.78327 0.79503 0.40736 0.0
H1616 H 0.4724 0.49642 0.83662 0.0
H1617 H 0.41809 0.55047 0.83184 0.0
H1618 H 0.42622 0.56211 0.88197 0.0
H1619 H 0.44723 0.55567 0.92732 0.0
H1620 H 0.5016 0.50175 0.93254 0.0
H1621 H 0.49486 0.49127 0.8821 0.0
C1622 C 0.46254 0.51095 0.84649 0.0
C1623 C 0.4446 0.52251 0.83038 0.0
C1624 C 0.4671 0.51738 0.87546 0.0
C1625 C 0.43198 0.54126 0.84362 0.0
C1626 C 0.43654 0.54786 0.87235 0.0
C1627 C 0.45761 0.54158 0.91749 0.0
C1628 C 0.47475 0.52936 0.93379 0.0
C1629 C 0.45376 0.53578 0.8885 0.0
C1630 C 0.48823 0.51138 0.92057 0.0
C1631 C 0.4844 0.5054 0.8917 0.0
H1632 H 0.80656 0.16429 0.14538 0.0
H1633 H 0.79294 0.22502 0.09318 0.0
H1634 H 0.79209 0.25598 0.13381 0.0
H1635 H 0.78636 0.26245 0.18307 0.0
H1636 H 0.80046 0.20262 0.23569 0.0
H1637 H 0.81018 0.17473 0.19612 0.0
C1638 C 0.80407 0.18451 0.14289 0.0
C1639 C 0.79905 0.19197 0.11619 0.0
C1640 C 0.80316 0.20221 0.16641 0.0
C1641 C 0.79632 0.21846 0.11343 0.0
C1642 C 0.79576 0.23624 0.13669 0.0
C1643 C 0.79236 0.2437 0.18607 0.0
C1644 C 0.79139 0.23384 0.21198 0.0
C1645 C 0.79781 0.22785 0.16316 0.0
C1646 C 0.79969 0.20981 0.2156 0.0
C1647 C 0.80545 0.19401 0.19301 0.0
H1648 H 0.06952 0.5197 0.31872 0.0
H1649 H 0.12563 0.46948 0.3367 0.0
H1650 H 0.1134 0.46862 0.38397 0.0
H1651 H 0.08807 0.48353 0.42037 0.0
H1652 H 0.0327 0.53455 0.40247 0.0
H1653 H 0.04352 0.53376 0.35471 0.0
C1654 C 0.07896 0.50837 0.33287 0.0
C1655 C 0.09849 0.4947 0.32425 0.0
C1656 C 0.07215 0.5083 0.35999 0.0
C1657 C 0.11055 0.48018 0.34286 0.0
C1658 C 0.10363 0.47975 0.36988 0.0
C1659 C 0.07836 0.49451 0.40605 0.0
C1660 C 0.05973 0.50922 0.41497 0.0
C1661 C 0.0847 0.49401 0.37872 0.0
C1662 C 0.0472 0.52318 0.39612 0.0
C1663 C 0.05334 0.5227 0.36883 0.0
H1664 H 0.76318 0.80664 0.6075 0.0
H1665 H 0.77323 0.88653 0.65019 0.0
H1666 H 0.77352 0.86841 0.69452 0.0
H1667 H 0.77292 0.83057 0.72151 0.0
H1668 H 0.7601 0.74995 0.68015 0.0
H1669 H 0.75907 0.76767 0.63509 0.0
C1670 C 0.7653 0.82004 0.6265 0.0
C1671 C 0.76836 0.848 0.62535 0.0
C1672 C 0.76512 0.8094 0.65223 0.0
C1673 C 0.77082 0.86498 0.65026 0.0
C1674 C 0.77109 0.85465 0.67574 0.0
C1675 C 0.76961 0.81673 0.7027 0.0
C1676 C 0.76664 0.78893 0.70431 0.0
C1677 C 0.76853 0.82698 0.67699 0.0
C1678 C 0.76239 0.77143 0.67957 0.0
C1679 C 0.76187 0.78158 0.65379 0.0
H1680 H 0.69185 0.45584 0.55791 0.0
H1681 H 0.68075 0.42365 0.47172 0.0
H1682 H 0.64408 0.44674 0.46295 0.0
H1683 H 0.61459 0.47499 0.47985 0.0
H1684 H 0.62249 0.50405 0.56665 0.0
H1685 H 0.66137 0.48355 0.57514 0.0
C1686 C 0.68139 0.45392 0.53721 0.0
C1687 C 0.68899 0.4381 0.51546 0.0
C1688 C 0.65997 0.46683 0.53244 0.0
C1689 C 0.67515 0.43557 0.48881 0.0
C1690 C 0.65429 0.44887 0.48376 0.0
C1691 C 0.62507 0.47722 0.50058 0.0
C1692 C 0.61601 0.49135 0.52256 0.0
C1693 C 0.64653 0.46449 0.50541 0.0
C1694 C 0.62932 0.49346 0.5494 0.0
C1695 C 0.65141 0.48164 0.55425 0.0
H1696 H 0.19096 0.05291 0.49038 0.0
H1697 H 0.16796 0.12958 0.49226 0.0
H1698 H 0.12158 0.10768 0.49639 0.0
H1699 H 0.08813 0.06757 0.50264 0.0
H1700 H 0.10918 0.9901 0.49767 0.0
H1701 H 0.15581 0.01157 0.49201 0.0
C1702 C 0.17574 0.06477 0.49135 0.0
C1703 C 0.18314 0.09295 0.49125 0.0
C1704 C 0.14882 0.05199 0.4936 0.0
C1705 C 0.16302 0.10792 0.49231 0.0
C1706 C 0.13643 0.09544 0.49486 0.0
C1707 C 0.10279 0.05527 0.50007 0.0
C1708 C 0.09519 0.02728 0.50073 0.0
C1709 C 0.12923 0.06762 0.49607 0.0
C1710 C 0.11452 0.01171 0.49728 0.0
C1711 C 0.14118 0.02398 0.49403 0.0
H1712 H 0.17603 0.92302 0.81126 0.0
H1713 H 0.23108 0.95357 0.7537 0.0
H1714 H 0.24881 0.9128 0.75272 0.0
H1715 H 0.24622 0.86655 0.76532 0.0
H1716 H 0.19021 0.83601 0.82205 0.0
H1717 H 0.17571 0.87844 0.82637 0.0
C1718 C 0.19214 0.92094 0.79877 0.0
C1719 C 0.20203 0.94138 0.78249 0.0
C1720 C 0.20208 0.8972 0.798 0.0
C1721 C 0.22294 0.9382 0.76641 0.0
C1722 C 0.23311 0.9148 0.76577 0.0
C1723 C 0.23118 0.86938 0.77896 0.0
C1724 C 0.21922 0.84797 0.79315 0.0
C1725 C 0.22249 0.89389 0.78107 0.0
C1726 C 0.19961 0.85198 0.81063 0.0
C1727 C 0.19124 0.8763 0.81314 0.0
H1728 H 0.32301 0.94033 0.99368 0.0
H1729 H 0.32908 0.85721 0.99124 0.0
H1730 H 0.37781 0.87073 0.99139 0.0
H1731 H 0.41899 0.90644 0.99889 0.0
H1732 H 0.41311 0.9896 0.00219 0.0
H1733 H 0.36402 0.97569 0.99447 0.0
C1734 C 0.33493 0.92513 0.99276 0.0
C1735 C 0.32247 0.89787 0.99307 0.0
C1736 C 0.36302 0.93304 0.99317 0.0
C1737 C 0.33816 0.87839 0.99136 0.0
C1738 C 0.36608 0.88608 0.99152 0.0
C1739 C 0.40699 0.9215 0.99741 0.0
C1740 C 0.41964 0.94898 0.00164 0.0
C1741 C 0.37878 0.91341 0.99345 0.0
C1742 C 0.40386 0.96828 0.9992 0.0
C1743 C 0.37576 0.96036 0.99497 0.0
H1744 H 0.82214 0.57787 0.74256 0.0
H1745 H 0.88092 0.6051 0.81437 0.0
H1746 H 0.86596 0.64726 0.82055 0.0
H1747 H 0.83762 0.67688 0.80482 0.0
H1748 H 0.7796 0.65107 0.73226 0.0
H1749 H 0.7928 0.60765 0.72718 0.0
C1750 C 0.83154 0.59295 0.75967 0.0
C1751 C 0.85266 0.58834 0.77798 0.0
C1752 C 0.82307 0.61737 0.7629 0.0
C1753 C 0.86471 0.60815 0.79995 0.0
C1754 C 0.85617 0.63227 0.8035 0.0
C1755 C 0.82771 0.66178 0.78789 0.0
C1756 C 0.80768 0.66726 0.76888 0.0
C1757 C 0.83559 0.63717 0.78496 0.0
C1758 C 0.79509 0.64738 0.74715 0.0
C1759 C 0.80266 0.62259 0.74424 0.0
H1760 H 0.82324 0.55013 0.02178 0.0
H1761 H 0.84516 0.6103 0.96637 0.0
H1762 H 0.88918 0.59908 0.96493 0.0
H1763 H 0.92294 0.57538 0.98279 0.0
H1764 H 0.90169 0.5154 0.03841 0.0
H1765 H 0.8558 0.52309 0.03608 0.0
C1766 C 0.8375 0.56055 0.00908 0.0
C1767 C 0.83093 0.58127 0.99442 0.0
C1768 C 0.86297 0.55415 0.00853 0.0
C1769 C 0.84963 0.59439 0.97795 0.0
C1770 C 0.8749 0.58804 0.97718 0.0
C1771 C 0.90821 0.56378 0.99422 0.0
C1772 C 0.91585 0.54509 0.01106 0.0
C1773 C 0.88201 0.56847 0.99294 0.0
C1774 C 0.89638 0.52993 0.02535 0.0
C1775 C 0.87017 0.53444 0.02413 0.0
H1776 H 0.15593 0.10594 0.78601 0.0
H1777 H 0.22916 0.07685 0.79645 0.0
H1778 H 0.25597 0.1223 0.79468 0.0
H1779 H 0.25854 0.17026 0.78751 0.0
H1780 H 0.18453 0.19777 0.7746 0.0
H1781 H 0.15841 0.15331 0.78002 0.0
C1782 C 0.17777 0.10952 0.78826 0.0
C1783 C 0.19041 0.08786 0.79142 0.0
C1784 C 0.19306 0.13558 0.78652 0.0
C1785 C 0.21879 0.09304 0.79399 0.0
C1786 C 0.23418 0.11908 0.7929 0.0
C1787 C 0.23672 0.16653 0.78608 0.0
C1788 C 0.22363 0.18746 0.78051 0.0
C1789 C 0.22154 0.14049 0.78874 0.0
C1790 C 0.19527 0.18213 0.77861 0.0
C1791 C 0.18021 0.15664 0.78178 0.0
H1792 H 0.39263 0.93005 0.31181 0.0
H1793 H 0.31673 0.95425 0.30001 0.0
H1794 H 0.29237 0.90744 0.29785 0.0
H1795 H 0.29309 0.85948 0.29077 0.0
H1796 H 0.36927 0.83552 0.29782 0.0
H1797 H 0.39305 0.88233 0.31099 0.0
C1798 C 0.37075 0.9252 0.30945 0.0
C1799 C 0.35654 0.94554 0.30555 0.0
C1800 C 0.35692 0.89819 0.30711 0.0
C1801 C 0.32817 0.93891 0.30266 0.0
C1802 C 0.31421 0.91213 0.30134 0.0
C1803 C 0.31481 0.86446 0.296 0.0
C1804 C 0.32951 0.84426 0.29306 0.0
C1805 C 0.32842 0.89153 0.30225 0.0
C1806 C 0.35763 0.85089 0.29972 0.0
C1807 C 0.37122 0.87763 0.30712 0.0
H1808 H 0.53255 0.33173 0.57107 0.0
H1809 H 0.50366 0.35398 0.64832 0.0
H1810 H 0.49739 0.39629 0.6322 0.0
H1811 H 0.50397 0.42862 0.59788 0.0
H1812 H 0.53159 0.40612 0.52005 0.0
H1813 H 0.53406 0.36202 0.53445 0.0
C1814 C 0.52465 0.34575 0.58425 0.0
C1815 C 0.51894 0.33993 0.61099 0.0
C1816 C 0.52088 0.36996 0.57475 0.0
C1817 C 0.50831 0.35805 0.62769 0.0
C1818 C 0.50479 0.38228 0.61852 0.0
C1819 C 0.51017 0.41389 0.58392 0.0
C1820 C 0.51787 0.42066 0.55809 0.0
C1821 C 0.51156 0.38868 0.59235 0.0
C1822 C 0.52552 0.40134 0.54003 0.0
C1823 C 0.52713 0.37621 0.54834 0.0
H1824 H 0.4312 0.75198 0.28362 0.0
H1825 H 0.41223 0.72007 0.36004 0.0
H1826 H 0.36414 0.71553 0.34606 0.0
H1827 H 0.32854 0.72702 0.3153 0.0
H1828 H 0.34702 0.75761 0.2382 0.0
H1829 H 0.39437 0.75599 0.24905 0.0
C1830 C 0.41646 0.7435 0.29692 0.0
C1831 C 0.42516 0.73679 0.323 0.0
C1832 C 0.3889 0.741 0.28875 0.0
C1833 C 0.40597 0.72543 0.3399 0.0
C1834 C 0.37851 0.72303 0.332 0.0
C1835 C 0.34285 0.7328 0.30064 0.0
C1836 C 0.33452 0.74288 0.27627 0.0
C1837 C 0.36988 0.73172 0.30698 0.0
C1838 C 0.35306 0.7499 0.25716 0.0
C1839 C 0.38013 0.74913 0.26344 0.0
H1840 H 0.01057 0.68026 0.15366 0.0
H1841 H 0.03363 0.71302 0.07866 0.0
H1842 H 0.02684 0.66758 0.05493 0.0
H1843 H 0.01469 0.61862 0.05558 0.0
H1844 H 0.99114 0.58604 0.13047 0.0
H1845 H 0.99798 0.63147 0.15418 0.0
C1846 C 0.01406 0.67752 0.1321 0.0
C1847 C 0.02264 0.70004 0.11801 0.0
C1848 C 0.01018 0.65139 0.1186 0.0
C1849 C 0.02701 0.69605 0.09004 0.0
C1850 C 0.0232 0.67008 0.07645 0.0
C1851 C 0.01119 0.62146 0.07713 0.0
C1852 C 0.00253 0.59901 0.09128 0.0
C1853 C 0.01491 0.64762 0.09057 0.0
C1854 C 0.99783 0.603 0.11911 0.0
C1855 C 0.00171 0.62896 0.13269 0.0
H1856 H 0.07955 0.27024 0.85384 0.0
H1857 H 0.04278 0.2134 0.78292 0.0
H1858 H 0.08563 0.22049 0.76305 0.0
H1859 H 0.13481 0.23874 0.76863 0.0
H1860 H 0.172 0.29235 0.84144 0.0
H1861 H 0.12779 0.29099 0.85774 0.0
C1862 C 0.08079 0.25978 0.8338 0.0
C1863 C 0.05811 0.2412 0.81996 0.0
C1864 C 0.10565 0.26332 0.82294 0.0
C1865 C 0.06004 0.22768 0.79408 0.0
C1866 C 0.08453 0.23168 0.78272 0.0
C1867 C 0.13296 0.25062 0.78765 0.0
C1868 C 0.15621 0.26589 0.80375 0.0
C1869 C 0.10764 0.24887 0.79733 0.0
C1870 C 0.15407 0.28075 0.82871 0.0
C1871 C 0.12889 0.27983 0.83806 0.0
H1872 H 0.50795 0.70483 0.9715 0.0
H1873 H 0.59138 0.72381 0.00684 0.0
H1874 H 0.58527 0.68049 0.02503 0.0
H1875 H 0.55812 0.63503 0.02522 0.0
H1876 H 0.47454 0.6156 0.99146 0.0
H1877 H 0.47858 0.66147 0.97855 0.0
C1878 C 0.52462 0.69962 0.98359 0.0
C1879 C 0.55018 0.71721 0.98735 0.0
C1880 C 0.52098 0.67462 0.99409 0.0
C1881 C 0.57154 0.71049 0.00344 0.0
C1882 C 0.56812 0.68569 0.01379 0.0
C1883 C 0.54069 0.64118 0.01566 0.0
C1884 C 0.51619 0.62236 0.00903 0.0
C1885 C 0.54323 0.6673 0.0084 0.0
C1886 C 0.49354 0.63013 0.99679 0.0
C1887 C 0.49594 0.65618 0.98924 0.0
H1888 H 0.07453 0.7274 0.69941 0.0
H1889 H 0.09145 0.78287 0.63833 0.0
H1890 H 0.13907 0.79403 0.65621 0.0
H1891 H 0.17595 0.78782 0.68866 0.0
H1892 H 0.15966 0.73216 0.74961 0.0
H1893 H 0.11177 0.72113 0.73208 0.0
C1894 C 0.08861 0.74207 0.69015 0.0
C1895 C 0.07941 0.75429 0.6676 0.0
C1896 C 0.11611 0.7482 0.70031 0.0
C1897 C 0.09797 0.7731 0.65568 0.0
C1898 C 0.12524 0.77949 0.66585 0.0
C1899 C 0.16198 0.77319 0.69809 0.0
C1900 C 0.17139 0.76082 0.72038 0.0
C1901 C 0.13454 0.76705 0.68802 0.0
C1902 C 0.15297 0.74194 0.73235 0.0
C1903 C 0.12556 0.73568 0.72241 0.0
H1904 H 0.04614 0.35693 0.44087 0.0
H1905 H 0.03545 0.32689 0.51976 0.0
H1906 H 0.03399 0.37186 0.5406 0.0
H1907 H 0.03006 0.41823 0.53473 0.0
H1908 H 0.03594 0.44617 0.45415 0.0
H1909 H 0.04497 0.40363 0.43568 0.0
C1910 C 0.04423 0.3604 0.4628 0.0
C1911 C 0.04094 0.33877 0.4788 0.0
C1912 C 0.04201 0.38586 0.4742 0.0
C1913 C 0.03802 0.34336 0.50707 0.0
C1914 C 0.03699 0.36899 0.51892 0.0
C1915 C 0.0336 0.41508 0.51322 0.0
C1916 C 0.0322 0.43531 0.49586 0.0
C1917 C 0.03798 0.39016 0.50243 0.0
C1918 C 0.03677 0.43092 0.46799 0.0
C1919 C 0.04198 0.40657 0.45736 0.0
H1920 H 0.44091 0.28514 0.16313 0.0
H1921 H 0.45734 0.22488 0.2146 0.0
H1922 H 0.4246 0.2351 0.24488 0.0
H1923 H 0.38838 0.25792 0.25432 0.0
H1924 H 0.37008 0.31676 0.20192 0.0
H1925 H 0.4069 0.31082 0.17498 0.0
C1926 C 0.4375 0.27442 0.1811 0.0
C1927 C 0.45136 0.25404 0.18634 0.0
C1928 C 0.41835 0.28021 0.1984 0.0
C1929 C 0.4468 0.24048 0.20986 0.0
C1930 C 0.42809 0.24634 0.22728 0.0
C1931 C 0.39277 0.26993 0.2374 0.0
C1932 C 0.37632 0.28766 0.23009 0.0
C1933 C 0.41336 0.26577 0.22144 0.0
C1934 C 0.38234 0.30292 0.20799 0.0
C1935 C 0.40329 0.29938 0.19243 0.0
H1936 H 0.55932 0.52921 0.34555 0.0
H1937 H 0.61839 0.48569 0.37384 0.0
H1938 H 0.59517 0.47645 0.41482 0.0
H1939 H 0.55892 0.48225 0.44356 0.0
H1940 H 0.49998 0.52577 0.41475 0.0
H1941 H 0.52189 0.53284 0.37287 0.0
C1942 C 0.5671 0.51761 0.36061 0.0
C1943 C 0.59074 0.50836 0.35665 0.0
C1944 C 0.55353 0.51222 0.38404 0.0
C1945 C 0.60029 0.49312 0.37631 0.0
C1946 C 0.58701 0.48783 0.3998 0.0
C1947 C 0.55086 0.49328 0.42815 0.0
C1948 C 0.52794 0.50371 0.43264 0.0
C1949 C 0.56375 0.49752 0.40404 0.0
C1950 C 0.51749 0.51742 0.412 0.0
C1951 C 0.53014 0.52166 0.38803 0.0
H1952 H 0.25691 0.88483 0.11255 0.0
H1953 H 0.22491 0.80464 0.07074 0.0
H1954 H 0.23308 0.78548 0.11367 0.0
H1955 H 0.25128 0.79118 0.16249 0.0
H1956 H 0.28157 0.87102 0.20514 0.0
H1957 H 0.27241 0.89066 0.16233 0.0
C1958 C 0.25141 0.86319 0.11289 0.0
C1959 C 0.24055 0.84624 0.08839 0.0
C1960 C 0.25628 0.85221 0.13765 0.0
C1961 C 0.23341 0.81822 0.08925 0.0
C1962 C 0.23821 0.80717 0.11376 0.0
C1963 C 0.25609 0.81286 0.16228 0.0
C1964 C 0.26752 0.82969 0.18658 0.0
C1965 C 0.25013 0.82393 0.13791 0.0
C1966 C 0.27298 0.85775 0.18644 0.0
C1967 C 0.26766 0.86895 0.16206 0.0
H1968 H 0.94361 0.55064 0.87989 0.0
H1969 H 0.014 0.55267 0.83701 0.0
H1970 H 0.04116 0.55101 0.88054 0.0
H1971 H 0.04277 0.54123 0.92902 0.0
H1972 H 0.97031 0.53251 0.96943 0.0
H1973 H 0.94613 0.54478 0.9291 0.0
C1974 C 0.96511 0.55172 0.88034 0.0
C1975 C 0.97693 0.55185 0.85555 0.0
C1976 C 0.98009 0.54902 0.90503 0.0
C1977 C 0.00463 0.55264 0.85606 0.0
C1978 C 0.02005 0.5514 0.88084 0.0
C1979 C 0.02181 0.54243 0.92907 0.0
C1980 C 0.00846 0.53654 0.95242 0.0
C1981 C 0.00767 0.54825 0.90519 0.0
C1982 C 0.98127 0.53797 0.95216 0.0
C1983 C 0.96732 0.54461 0.9289 0.0
H1984 H 0.26106 0.20376 0.58233 0.0
H1985 H 0.30319 0.14071 0.59742 0.0
H1986 H 0.30812 0.15448 0.64702 0.0
H1987 H 0.299 0.18287 0.68621 0.0
H1988 H 0.25682 0.24604 0.67236 0.0
H1989 H 0.25327 0.23366 0.62222 0.0
C1990 C 0.27162 0.19328 0.59646 0.0
C1991 C 0.28166 0.17116 0.5861 0.0
C1992 C 0.27409 0.20108 0.62521 0.0
C1993 C 0.29513 0.15769 0.60476 0.0
C1994 C 0.29792 0.16551 0.63318 0.0
C1995 C 0.28894 0.19396 0.6723 0.0
C1996 C 0.27799 0.21521 0.68308 0.0
C1997 C 0.28712 0.18686 0.64364 0.0
C1998 C 0.2653 0.22949 0.66464 0.0
C1999 C 0.26333 0.22245 0.63596 0.0
H2000 H 0.57961 0.52094 0.21208 0.0
H2001 H 0.6399 0.47645 0.19251 0.0
H2002 H 0.62269 0.4707 0.14376 0.0
H2003 H 0.59194 0.47926 0.10645 0.0
H2004 H 0.53104 0.52331 0.12428 0.0
H2005 H 0.54715 0.52833 0.17388 0.0
C2006 C 0.5888 0.50977 0.19717 0.0
C2007 C 0.61116 0.49925 0.20611 0.0
C2008 C 0.57888 0.50665 0.1688 0.0
C2009 C 0.62282 0.48492 0.18639 0.0
C2010 C 0.61302 0.48162 0.1584 0.0
C2011 C 0.58211 0.49005 0.12107 0.0
C2012 C 0.56042 0.50109 0.11154 0.0
C2013 C 0.59133 0.49266 0.14935 0.0
C2014 C 0.54786 0.51472 0.13099 0.0
C2015 C 0.55705 0.51754 0.15936 0.0
H2016 H 0.22189 0.82762 0.91251 0.0
H2017 H 0.22021 0.76057 0.96023 0.0
H2018 H 0.22677 0.73231 0.91931 0.0
H2019 H 0.24071 0.72931 0.87217 0.0
H2020 H 0.24965 0.79919 0.82813 0.0
H2021 H 0.23218 0.82361 0.86479 0.0
C2022 C 0.22197 0.80655 0.91366 0.0
C2023 C 0.22059 0.79611 0.93917 0.0
C2024 C 0.22748 0.79105 0.89062 0.0
C2025 C 0.22122 0.76894 0.94065 0.0
C2026 C 0.22527 0.75289 0.91736 0.0
C2027 C 0.23835 0.74971 0.87053 0.0
C2028 C 0.24541 0.76222 0.84699 0.0
C2029 C 0.22976 0.76415 0.8926 0.0
C2030 C 0.24279 0.78877 0.84527 0.0
C2031 C 0.23332 0.80289 0.86653 0.0
H2032 H 0.89915 0.51346 0.67848 0.0
H2033 H 0.97881 0.53144 0.72364 0.0
H2034 H 0.99816 0.52135 0.68111 0.0
H2035 H 0.99246 0.50738 0.6309 0.0
H2036 H 0.9131 0.4914 0.58576 0.0
H2037 H 0.89351 0.50016 0.62859 0.0
C2038 C 0.92076 0.51537 0.67903 0.0
C2039 C 0.93745 0.52319 0.7042 0.0
C2040 C 0.93176 0.50942 0.65458 0.0
C2041 C 0.96545 0.52553 0.70451 0.0
C2042 C 0.97656 0.5196 0.68024 0.0
C2043 C 0.97085 0.50534 0.63067 0.0
C2044 C 0.9541 0.49838 0.60554 0.0
C2045 C 0.95988 0.5113 0.6552 0.0
C2046 C 0.92623 0.49651 0.60511 0.0
C2047 C 0.91508 0.50168 0.62948 0.0
H2048 H 0.2941 0.18384 0.41895 0.0
H2049 H 0.24271 0.23194 0.45397 0.0
H2050 H 0.24653 0.25902 0.41542 0.0
H2051 H 0.26211 0.26765 0.37051 0.0
H2052 H 0.31288 0.21943 0.33446 0.0
H2053 H 0.31185 0.1942 0.37466 0.0
C2054 C 0.28393 0.20038 0.41826 0.0
C2055 C 0.268 0.20565 0.43936 0.0
C2056 C 0.28603 0.21593 0.39576 0.0
C2057 C 0.25499 0.22724 0.43805 0.0
C2058 C 0.25715 0.24281 0.41595 0.0
C2059 C 0.27323 0.25183 0.37148 0.0
C2060 C 0.28746 0.2455 0.34928 0.0
C2061 C 0.27229 0.23713 0.39451 0.0
C2062 C 0.30172 0.22486 0.35114 0.0
C2063 C 0.30107 0.21029 0.37413 0.0
H2064 H 0.338 0.595 0.50383 0.0
H2065 H 0.33236 0.56764 0.5847 0.0
H2066 H 0.36601 0.54136 0.57672 0.0
H2067 H 0.40019 0.52984 0.54903 0.0
H2068 H 0.40639 0.55606 0.46799 0.0
H2069 H 0.36891 0.57862 0.47342 0.0
C2070 C 0.344 0.58309 0.51956 0.0
C2071 C 0.333 0.5836 0.54498 0.0
C2072 C 0.36335 0.56778 0.51478 0.0
C2073 C 0.34062 0.56775 0.56502 0.0
C2074 C 0.35989 0.5527 0.56051 0.0
C2075 C 0.39292 0.54004 0.53233 0.0
C2076 C 0.40594 0.54152 0.50826 0.0
C2077 C 0.37178 0.55307 0.53578 0.0
C2078 C 0.3964 0.55456 0.48662 0.0
C2079 C 0.37523 0.56768 0.48988 0.0
H2080 H 0.86399 0.90129 0.52109 0.0
H2081 H 0.84661 0.97056 0.56704 0.0
H2082 H 0.89096 0.99742 0.56049 0.0
H2083 H 0.93512 0.00095 0.54181 0.0
H2084 H 0.95056 0.93106 0.49484 0.0
H2085 H 0.90665 0.90494 0.50175 0.0
C2086 C 0.86984 0.92224 0.52979 0.0
C2087 C 0.852 0.93379 0.54467 0.0
C2088 C 0.89513 0.93756 0.52572 0.0
C2089 C 0.85993 0.9611 0.55549 0.0
C2090 C 0.88532 0.97648 0.55177 0.0
C2091 C 0.92881 0.98004 0.53303 0.0
C2092 C 0.94632 0.96808 0.51791 0.0
C2093 C 0.90315 0.96491 0.53691 0.0
C2094 C 0.93768 0.94094 0.5066 0.0
C2095 C 0.9125 0.92585 0.51055 0.0
H2096 H 0.80417 0.0526 0.20848 0.0
H2097 H 0.86551 0.07995 0.27807 0.0
H2098 H 0.84468 0.11731 0.2913 0.0
H2099 H 0.81021 0.14327 0.28217 0.0
H2100 H 0.74947 0.11679 0.21194 0.0
H2101 H 0.76875 0.07793 0.20015 0.0
C2102 C 0.81294 0.06666 0.22662 0.0
C2103 C 0.83647 0.06345 0.2422 0.0
C2104 C 0.80092 0.08825 0.23406 0.0
C2105 C 0.84749 0.0819 0.26564 0.0
C2106 C 0.83556 0.1033 0.27325 0.0
C2107 C 0.80093 0.12886 0.26445 0.0
C2108 C 0.77833 0.13302 0.24801 0.0
C2109 C 0.8124 0.10679 0.2575 0.0
C2110 C 0.7668 0.11414 0.22502 0.0
C2111 C 0.77789 0.09194 0.21819 0.0
H2112 H 0.67943 0.12862 0.04784 0.0
H2113 H 0.70011 0.05109 0.04682 0.0
H2114 H 0.65204 0.02885 0.04086 0.0
H2115 H 0.6042 0.0317 0.03161 0.0
H2116 H 0.58482 0.10994 0.03252 0.0
H2117 H 0.63237 0.13166 0.04325 0.0
C2118 C 0.67346 0.10684 0.04646 0.0
C2119 C 0.69324 0.09148 0.04731 0.0
C2120 C 0.64602 0.09435 0.04303 0.0
C2121 C 0.68521 0.06333 0.04608 0.0
C2122 C 0.65775 0.05064 0.0426 0.0
C2123 C 0.61038 0.05349 0.03471 0.0
C2124 C 0.59103 0.06919 0.03098 0.0
C2125 C 0.63796 0.06595 0.04048 0.0
C2126 C 0.59933 0.0974 0.03499 0.0
C2127 C 0.62653 0.10986 0.04107 0.0
H2128 H 0.20175 0.44594 0.28852 0.0
H2129 H 0.22088 0.4445 0.20407 0.0
H2130 H 0.24508 0.40905 0.21103 0.0
H2131 H 0.25558 0.37458 0.23891 0.0
H2132 H 0.23722 0.37518 0.32329 0.0
H2133 H 0.21867 0.41535 0.31896 0.0
C2134 C 0.2115 0.43805 0.2718 0.0
C2135 C 0.20912 0.4475 0.24568 0.0
C2136 C 0.22566 0.41767 0.27599 0.0
C2137 C 0.22222 0.43745 0.22431 0.0
C2138 C 0.23609 0.41716 0.22824 0.0
C2139 C 0.24836 0.38415 0.25662 0.0
C2140 C 0.24776 0.37222 0.28135 0.0
C2141 C 0.2373 0.40666 0.25371 0.0
C2142 C 0.23822 0.38441 0.30419 0.0
C2143 C 0.22724 0.40708 0.30154 0.0
H2144 H 0.20915 0.44026 0.02153 0.0
H2145 H 0.19387 0.4254 0.10482 0.0
H2146 H 0.15313 0.44316 0.09951 0.0
H2147 H 0.12072 0.46076 0.07054 0.0
H2148 H 0.13724 0.47983 0.98878 0.0
H2149 H 0.17883 0.46293 0.99411 0.0
C2150 C 0.19685 0.441 0.03845 0.0
C2151 C 0.20421 0.43121 0.0634 0.0
C2152 C 0.17384 0.45209 0.03555 0.0
C2153 C 0.18851 0.43273 0.08541 0.0
C2154 C 0.16522 0.44286 0.08239 0.0
C2155 C 0.13367 0.46164 0.05407 0.0
C2156 C 0.126 0.47145 0.02931 0.0
C2157 C 0.15759 0.45236 0.0575 0.0
C2158 C 0.14292 0.47255 0.00812 0.0
C2159 C 0.16654 0.46268 0.0111 0.0
H2160 H 0.81533 0.92772 0.23204 0.0
H2161 H 0.89427 0.9126 0.25397 0.0
H2162 H 0.87382 0.86784 0.26463 0.0
H2163 H 0.83398 0.83328 0.2687 0.0
H2164 H 0.75466 0.84672 0.2457 0.0
H2165 H 0.77486 0.89194 0.2349 0.0
C2166 C 0.82806 0.91461 0.23905 0.0
C2167 C 0.85636 0.9237 0.24223 0.0
C2168 C 0.81613 0.88865 0.24522 0.0
C2169 C 0.87248 0.90631 0.25132 0.0
C2170 C 0.8608 0.88065 0.25752 0.0
C2171 C 0.82099 0.846 0.26129 0.0
C2172 C 0.7928 0.83653 0.25806 0.0
C2173 C 0.83271 0.87169 0.25473 0.0
C2174 C 0.77642 0.85345 0.24842 0.0
C2175 C 0.78797 0.87931 0.24219 0.0
H2176 H 0.70079 0.07774 0.74416 0.0
H2177 H 0.62194 0.08425 0.7657 0.0
H2178 H 0.63661 0.13283 0.77352 0.0
H2179 H 0.67202 0.17332 0.777 0.0
H2180 H 0.75141 0.16837 0.7566 0.0
H2181 H 0.73616 0.1195 0.74507 0.0
C2182 C 0.68682 0.08982 0.75043 0.0
C2183 C 0.66038 0.07719 0.75456 0.0
C2184 C 0.6954 0.11807 0.75503 0.0
C2185 C 0.64248 0.09323 0.76252 0.0
C2186 C 0.6508 0.12113 0.76699 0.0
C2187 C 0.68599 0.16164 0.7698 0.0
C2188 C 0.71283 0.17441 0.76789 0.0
C2189 C 0.67725 0.1337 0.76369 0.0
C2190 C 0.73058 0.15899 0.75824 0.0
C2191 C 0.72192 0.13103 0.75182 0.0
loop_
_geom_bond_atom_site_label_1
_geom_bond_atom_site_label_2
_geom_bond_distance
_geom_bond_site_symmetry_2
_ccdc_geom_bond_type
O0 Cd1 2.223 . S
O0 C8 1.315 . S
Cd1 O0 2.223 . S
Cd1 O4 2.297 . S
Cd1 O5 2.439 . S
Cd1 O11 2.240 1_455 S
Cd2 O3 2.240 . S
Cd2 O10 2.223 1_455 S
Cd2 O12 2.297 . S
Cd2 O13 2.439 . S
O3 Cd2 2.240 . S
O3 C8 1.279 . S
O4 Cd1 2.297 . S
O4 C6 1.247 . S
O5 Cd1 2.439 . S
O5 C6 1.208 . S
C6 O4 1.247 . S
C6 O5 1.208 . S
C7 O12 1.247 . S
C7 O13 1.208 . S
C8 O0 1.315 . S
C8 O3 1.279 . S
C9 O10 1.315 . S
C9 O11 1.279 . S
O10 Cd2 2.223 1_655 S
O10 C9 1.315 . S
O11 Cd1 2.240 1_655 S
O11 C9 1.279 . S
O12 Cd2 2.297 . S
O12 C7 1.247 . S
O13 Cd2 2.439 . S
O13 C7 1.208 . S
O14 Cd15 2.223 1_455 S
O14 C22 1.315 1_455 S
Cd15 O14 2.223 1_655 S
Cd15 O18 2.297 . S
Cd15 O19 2.439 . S
Cd15 O25 2.240 1_655 S
Cd16 O17 2.240 1_455 S
Cd16 O24 2.223 . S
Cd16 O26 2.297 . S
Cd16 O27 2.439 . S
O17 Cd16 2.240 1_655 S
O17 C22 1.279 . S
O18 Cd15 2.297 . S
O18 C20 1.247 . S
O19 Cd15 2.439 . S
O19 C20 1.208 . S
C20 O18 1.247 . S
C20 O19 1.208 . S
C21 O26 1.247 . S
C21 O27 1.208 . S
C22 O14 1.315 1_655 S
C22 O17 1.279 . S
C23 O24 1.315 . S
C23 O25 1.279 . S
O24 Cd16 2.223 . S
O24 C23 1.315 . S
O25 Cd15 2.240 1_455 S
O25 C23 1.279 . S
O26 Cd16 2.297 . S
O26 C21 1.247 . S
O27 Cd16 2.439 . S
O27 C21 1.208 . S
O28 Cd29 2.223 . S
O28 C36 1.315 . S
Cd29 O28 2.223 . S
Cd29 O32 2.297 . S
Cd29 O33 2.439 . S
Cd29 O39 2.240 . S
Cd30 O31 2.240 . S
Cd30 O38 2.223 . S
Cd30 O40 2.297 . S
Cd30 O41 2.439 . S
O31 Cd30 2.240 . S
O31 C36 1.279 . S
O32 Cd29 2.297 . S
O32 C34 1.247 . S
O33 Cd29 2.439 . S
O33 C34 1.208 . S
C34 O32 1.247 . S
C34 O33 1.208 . S
C35 O40 1.247 . S
C35 O41 1.208 . S
C36 O28 1.315 . S
C36 O31 1.279 . S
C37 O38 1.315 . S
C37 O39 1.279 . S
O38 Cd30 2.223 . S
O38 C37 1.315 . S
O39 Cd29 2.240 . S
O39 C37 1.279 . S
O40 Cd30 2.297 . S
O40 C35 1.247 . S
O41 Cd30 2.439 . S
O41 C35 1.208 . S
O42 Cd43 2.223 . S
O42 C50 1.315 . S
Cd43 O42 2.223 . S
Cd43 O46 2.297 . S
Cd43 O47 2.439 . S
Cd43 O53 2.240 . S
Cd44 O45 2.240 . S
Cd44 O52 2.223 . S
Cd44 O54 2.297 . S
Cd44 O55 2.439 . S
O45 Cd44 2.240 . S
O45 C50 1.279 . S
O46 Cd43 2.297 . S
O46 C48 1.247 . S
O47 Cd43 2.439 . S
O47 C48 1.208 . S
C48 O46 1.247 . S
C48 O47 1.208 . S
C49 O54 1.247 . S
C49 O55 1.208 . S
C50 O42 1.315 . S
C50 O45 1.279 . S
C51 O52 1.315 . S
C51 O53 1.279 . S
O52 Cd44 2.223 . S
O52 C51 1.315 . S
O53 Cd43 2.240 . S
O53 C51 1.279 . S
O54 Cd44 2.297 . S
O54 C49 1.247 . S
O55 Cd44 2.439 . S
O55 C49 1.208 . S
O56 Cd57 2.223 . S
O56 C64 1.315 . S
Cd57 O56 2.223 . S
Cd57 O60 2.297 1_455 S
Cd57 O61 2.439 1_455 S
Cd57 O67 2.240 . S
Cd58 O59 2.240 . S
Cd58 O66 2.223 . S
Cd58 O68 2.297 . S
Cd58 O69 2.439 . S
O59 Cd58 2.240 . S
O59 C64 1.279 . S
O60 Cd57 2.297 1_655 S
O60 C62 1.247 . S
O61 Cd57 2.439 1_655 S
O61 C62 1.208 . S
C62 O60 1.247 . S
C62 O61 1.208 . S
C63 O68 1.247 . S
C63 O69 1.208 . S
C64 O56 1.315 . S
C64 O59 1.279 . S
C65 O66 1.315 . S
C65 O67 1.279 . S
O66 Cd58 2.223 . S
O66 C65 1.315 . S
O67 Cd57 2.240 . S
O67 C65 1.279 . S
O68 Cd58 2.297 . S
O68 C63 1.247 . S
O69 Cd58 2.439 . S
O69 C63 1.208 . S
O70 Cd71 2.223 . S
O70 C78 1.315 . S
Cd71 O70 2.223 . S
Cd71 O74 2.297 . S
Cd71 O75 2.439 . S
Cd71 O81 2.240 . S
Cd72 O73 2.240 . S
Cd72 O80 2.223 . S
Cd72 O82 2.297 . S
Cd72 O83 2.439 . S
O73 Cd72 2.240 . S
O73 C78 1.279 . S
O74 Cd71 2.297 . S
O74 C76 1.247 . S
O75 Cd71 2.439 . S
O75 C76 1.208 . S
C76 O74 1.247 . S
C76 O75 1.208 . S
C77 O82 1.247 . S
C77 O83 1.208 . S
C78 O70 1.315 . S
C78 O73 1.279 . S
C79 O80 1.315 . S
C79 O81 1.279 . S
O80 Cd72 2.223 . S
O80 C79 1.315 . S
O81 Cd71 2.240 . S
O81 C79 1.279 . S
O82 Cd72 2.297 . S
O82 C77 1.247 . S
O83 Cd72 2.439 . S
O83 C77 1.208 . S
O84 Cd85 2.223 . S
O84 C92 1.315 . S
Cd85 O84 2.223 . S
Cd85 O88 2.297 . S
Cd85 O89 2.439 . S
Cd85 O95 2.240 . S
Cd86 O87 2.240 . S
Cd86 O94 2.223 . S
Cd86 O96 2.297 . S
Cd86 O97 2.439 . S
O87 Cd86 2.240 . S
O87 C92 1.279 . S
O88 Cd85 2.297 . S
O88 C90 1.247 . S
O89 Cd85 2.439 . S
O89 C90 1.208 . S
C90 O88 1.247 . S
C90 O89 1.208 . S
C91 O96 1.247 . S
C91 O97 1.208 . S
C92 O84 1.315 . S
C92 O87 1.279 . S
C93 O94 1.315 . S
C93 O95 1.279 . S
O94 Cd86 2.223 . S
O94 C93 1.315 . S
O95 Cd85 2.240 . S
O95 C93 1.279 . S
O96 Cd86 2.297 . S
O96 C91 1.247 . S
O97 Cd86 2.439 . S
O97 C91 1.208 . S
O98 Cd99 2.223 1_655 S
O98 C106 1.315 . S
Cd99 O98 2.223 1_455 S
Cd99 O102 2.297 . S
Cd99 O103 2.439 . S
Cd99 O109 2.240 1_455 S
Cd100 O101 2.240 1_655 S
Cd100 O108 2.223 . S
Cd100 O110 2.297 . S
Cd100 O111 2.439 1_655 S
O101 Cd100 2.240 1_455 S
O101 C106 1.279 1_455 S
O102 Cd99 2.297 . S
O102 C104 1.247 . S
O103 Cd99 2.439 . S
O103 C104 1.208 . S
C104 O102 1.247 . S
C104 O103 1.208 . S
C105 O110 1.268 . S
C105 O111 1.188 1_655 S
C106 O98 1.315 . S
C106 O101 1.279 1_655 S
C107 O108 1.315 . S
C107 O109 1.279 . S
O108 Cd100 2.223 . S
O108 C107 1.315 . S
O109 Cd99 2.240 1_655 S
O109 C107 1.279 . S
O110 Cd100 2.297 . S
O110 C105 1.268 . S
O111 Cd100 2.439 1_455 S
O111 C105 1.188 1_455 S
O112 Cd113 2.223 . S
O112 C120 1.315 . S
Cd113 O112 2.223 . S
Cd113 O116 2.297 . S
Cd113 O117 2.439 . S
Cd113 O123 2.240 1_545 S
Cd114 O115 2.240 . S
Cd114 O122 2.223 1_545 S
Cd114 O124 2.297 . S
Cd114 O125 2.439 . S
O115 Cd114 2.240 . S
O115 C120 1.279 . S
O116 Cd113 2.297 . S
O116 C118 1.247 . S
O117 Cd113 2.439 . S
O117 C118 1.208 . S
C118 O116 1.247 . S
C118 O117 1.208 . S
C119 O124 1.247 . S
C119 O125 1.208 . S
C120 O112 1.315 . S
C120 O115 1.279 . S
C121 O122 1.315 . S
C121 O123 1.279 . S
O122 Cd114 2.223 1_565 S
O122 C121 1.315 . S
O123 Cd113 2.240 1_565 S
O123 C121 1.279 . S
O124 Cd114 2.297 . S
O124 C119 1.247 . S
O125 Cd114 2.439 . S
O125 C119 1.208 . S
O126 Cd127 2.223 . S
O126 C134 1.315 . S
Cd127 O126 2.223 . S
Cd127 O130 2.297 . S
Cd127 O131 2.439 . S
Cd127 O137 2.240 . S
Cd128 O129 2.240 . S
Cd128 O136 2.223 . S
Cd128 O138 2.297 . S
Cd128 O139 2.439 . S
O129 Cd128 2.240 . S
O129 C134 1.279 . S
O130 Cd127 2.297 . S
O130 C132 1.247 . S
O131 Cd127 2.439 . S
O131 C132 1.208 . S
C132 O130 1.247 . S
C132 O131 1.208 . S
C133 O138 1.247 . S
C133 O139 1.208 . S
C134 O126 1.315 . S
C134 O129 1.279 . S
C135 O136 1.315 . S
C135 O137 1.279 . S
O136 Cd128 2.223 . S
O136 C135 1.315 . S
O137 Cd127 2.240 . S
O137 C135 1.279 . S
O138 Cd128 2.297 . S
O138 C133 1.247 . S
O139 Cd128 2.439 . S
O139 C133 1.208 . S
O140 Cd141 2.223 . S
O140 C148 1.315 . S
Cd141 O140 2.223 . S
Cd141 O144 2.297 1_545 S
Cd141 O145 2.439 1_545 S
Cd141 O151 2.240 . S
Cd142 O143 2.239 1_545 S
Cd142 O150 2.223 . S
Cd142 O152 2.297 . S
Cd142 O153 2.439 . S
O143 Cd142 2.239 1_565 S
O143 C148 1.278 1_565 S
O144 Cd141 2.297 1_565 S
O144 C146 1.247 . S
O145 Cd141 2.439 1_565 S
O145 C146 1.208 . S
C146 O144 1.247 . S
C146 O145 1.208 . S
C147 O152 1.247 . S
C147 O153 1.208 . S
C148 O140 1.315 . S
C148 O143 1.278 1_545 S
C149 O150 1.315 . S
C149 O151 1.279 . S
O150 Cd142 2.223 . S
O150 C149 1.315 . S
O151 Cd141 2.240 . S
O151 C149 1.279 . S
O152 Cd142 2.297 . S
O152 C147 1.247 . S
O153 Cd142 2.439 . S
O153 C147 1.208 . S
O154 Cd155 2.223 . S
O154 C162 1.315 . S
Cd155 O154 2.223 . S
Cd155 O158 2.297 . S
Cd155 O159 2.439 1_554 S
Cd155 O165 2.224 1_554 S
Cd156 O157 2.240 1_556 S
Cd156 O164 2.223 1_556 S
Cd156 O166 2.297 . S
Cd156 O167 2.439 . S
O157 Cd156 2.240 1_554 S
O157 C162 1.279 . S
O158 Cd155 2.297 . S
O158 C160 1.247 . S
O159 Cd155 2.439 1_556 S
O159 C160 1.208 1_556 S
C160 O158 1.247 . S
C160 O159 1.208 1_554 S
C161 O166 1.247 . S
C161 O167 1.208 . S
C162 O154 1.315 . S
C162 O157 1.279 . S
C163 O164 1.315 . S
C163 O165 1.270 1_554 S
O164 Cd156 2.223 1_554 S
O164 C163 1.315 . S
O165 Cd155 2.224 1_556 S
O165 C163 1.270 1_556 S
O166 Cd156 2.297 . S
O166 C161 1.247 . S
O167 Cd156 2.439 . S
O167 C161 1.208 . S
O168 Cd169 2.223 . S
O168 C176 1.315 . S
Cd169 O168 2.223 . S
Cd169 O172 2.297 . S
Cd169 O173 2.439 . S
Cd169 O179 2.240 . S
Cd170 O171 2.240 . S
Cd170 O178 2.223 . S
Cd170 O180 2.297 1_554 S
Cd170 O181 2.439 1_554 S
O171 Cd170 2.240 . S
O171 C176 1.279 . S
O172 Cd169 2.297 . S
O172 C174 1.247 . S
O173 Cd169 2.439 . S
O173 C174 1.208 . S
C174 O172 1.247 . S
C174 O173 1.208 . S
C175 O180 1.247 . S
C175 O181 1.208 . S
C176 O168 1.315 . S
C176 O171 1.279 . S
C177 O178 1.315 . S
C177 O179 1.279 . S
O178 Cd170 2.223 . S
O178 C177 1.315 . S
O179 Cd169 2.240 . S
O179 C177 1.279 . S
O180 Cd170 2.297 1_556 S
O180 C175 1.247 . S
O181 Cd170 2.439 1_556 S
O181 C175 1.208 . S
O182 Cd183 2.223 . S
O182 C190 1.315 . S
Cd183 O182 2.223 . S
Cd183 O186 2.297 . S
Cd183 O187 2.439 . S
Cd183 O193 2.240 . S
Cd184 O185 2.240 . S
Cd184 O192 2.223 . S
Cd184 O194 2.297 1_554 S
Cd184 O195 2.439 1_554 S
O185 Cd184 2.240 . S
O185 C190 1.279 . S
O186 Cd183 2.297 . S
O186 C188 1.247 . S
O187 Cd183 2.439 . S
O187 C188 1.208 . S
C188 O186 1.247 . S
C188 O187 1.208 . S
C189 O194 1.247 . S
C189 O195 1.208 . S
C190 O182 1.315 . S
C190 O185 1.279 . S
C191 O192 1.315 . S
C191 O193 1.279 . S
O192 Cd184 2.223 . S
O192 C191 1.315 . S
O193 Cd183 2.240 . S
O193 C191 1.279 . S
O194 Cd184 2.297 1_556 S
O194 C189 1.247 . S
O195 Cd184 2.439 1_556 S
O195 C189 1.208 . S
O196 Cd197 2.223 . S
O196 C204 1.315 . S
Cd197 O196 2.223 . S
Cd197 O200 2.297 . S
Cd197 O201 2.439 . S
Cd197 O207 2.240 . S
Cd198 O199 2.240 . S
Cd198 O206 2.223 . S
Cd198 O208 2.297 . S
Cd198 O209 2.439 . S
O199 Cd198 2.240 . S
O199 C204 1.279 . S
O200 Cd197 2.297 . S
O200 C202 1.247 . S
O201 Cd197 2.439 . S
O201 C202 1.208 . S
C202 O200 1.247 . S
C202 O201 1.208 . S
C203 O208 1.247 . S
C203 O209 1.208 . S
C204 O196 1.315 . S
C204 O199 1.279 . S
C205 O206 1.315 . S
C205 O207 1.279 . S
O206 Cd198 2.223 . S
O206 C205 1.315 . S
O207 Cd197 2.240 . S
O207 C205 1.279 . S
O208 Cd198 2.297 . S
O208 C203 1.247 . S
O209 Cd198 2.439 . S
O209 C203 1.208 . S
O210 Cd211 2.223 . S
O210 C218 1.315 . S
Cd211 O210 2.223 . S
Cd211 O214 2.297 . S
Cd211 O215 2.439 . S
Cd211 O221 2.240 . S
Cd212 O213 2.240 . S
Cd212 O220 2.223 . S
Cd212 O222 2.297 . S
Cd212 O223 2.439 . S
O213 Cd212 2.240 . S
O213 C218 1.279 . S
O214 Cd211 2.297 . S
O214 C216 1.247 . S
O215 Cd211 2.439 . S
O215 C216 1.208 . S
C216 O214 1.247 . S
C216 O215 1.208 . S
C217 O222 1.247 . S
C217 O223 1.208 . S
C218 O210 1.315 . S
C218 O213 1.279 . S
C219 O220 1.315 . S
C219 O221 1.279 . S
O220 Cd212 2.223 . S
O220 C219 1.315 . S
O221 Cd211 2.240 . S
O221 C219 1.279 . S
O222 Cd212 2.297 . S
O222 C217 1.247 . S
O223 Cd212 2.439 . S
O223 C217 1.208 . S
O224 Cd225 2.223 1_565 S
O224 C232 1.315 1_565 S
Cd225 O224 2.223 1_545 S
Cd225 O228 2.297 . S
Cd225 O229 2.439 . S
Cd225 O235 2.240 1_545 S
Cd226 O227 2.240 1_565 S
Cd226 O234 2.223 . S
Cd226 O236 2.297 . S
Cd226 O237 2.439 1_565 S
O227 Cd226 2.240 1_545 S
O227 C232 1.279 . S
O228 Cd225 2.297 . S
O228 C230 1.247 . S
O229 Cd225 2.439 . S
O229 C230 1.208 . S
C230 O228 1.247 . S
C230 O229 1.208 . S
C231 O236 1.247 1_545 S
C231 O237 1.208 . S
C232 O224 1.315 1_545 S
C232 O227 1.279 . S
C233 O234 1.315 . S
C233 O235 1.279 . S
O234 Cd226 2.223 . S
O234 C233 1.315 . S
O235 Cd225 2.240 1_565 S
O235 C233 1.279 . S
O236 Cd226 2.297 . S
O236 C231 1.247 1_565 S
O237 Cd226 2.439 1_545 S
O237 C231 1.208 . S
O238 Cd239 2.223 . S
O238 C246 1.315 . S
Cd239 O238 2.223 . S
Cd239 O242 2.297 . S
Cd239 O243 2.439 . S
Cd239 O249 2.240 . S
Cd240 O241 2.240 . S
Cd240 O248 2.223 . S
Cd240 O250 2.297 . S
Cd240 O251 2.439 . S
O241 Cd240 2.240 . S
O241 C246 1.279 . S
O242 Cd239 2.297 . S
O242 C244 1.247 . S
O243 Cd239 2.439 . S
O243 C244 1.208 . S
C244 O242 1.247 . S
C244 O243 1.208 . S
C245 O250 1.247 . S
C245 O251 1.208 . S
C246 O238 1.315 . S
C246 O241 1.279 . S
C247 O248 1.315 . S
C247 O249 1.279 . S
O248 Cd240 2.223 . S
O248 C247 1.315 . S
O249 Cd239 2.240 . S
O249 C247 1.279 . S
O250 Cd240 2.297 . S
O250 C245 1.247 . S
O251 Cd240 2.439 . S
O251 C245 1.208 . S
O252 Cd253 2.223 . S
O252 C260 1.315 . S
Cd253 O252 2.223 . S
Cd253 O256 2.297 . S
Cd253 O257 2.439 . S
Cd253 O263 2.240 . S
Cd254 O255 2.240 . S
Cd254 O262 2.223 . S
Cd254 O264 2.297 . S
Cd254 O265 2.439 . S
O255 Cd254 2.240 . S
O255 C260 1.279 . S
O256 Cd253 2.297 . S
O256 C258 1.247 . S
O257 Cd253 2.439 . S
O257 C258 1.208 . S
C258 O256 1.247 . S
C258 O257 1.208 . S
C259 O264 1.247 . S
C259 O265 1.208 . S
C260 O252 1.315 . S
C260 O255 1.279 . S
C261 O262 1.315 . S
C261 O263 1.279 . S
O262 Cd254 2.223 . S
O262 C261 1.315 . S
O263 Cd253 2.240 . S
O263 C261 1.279 . S
O264 Cd254 2.297 . S
O264 C259 1.247 . S
O265 Cd254 2.439 . S
O265 C259 1.208 . S
O266 Cd267 2.223 1_545 S
O266 C274 1.315 1_545 S
Cd267 O266 2.223 1_565 S
Cd267 O270 2.297 . S
Cd267 O271 2.439 . S
Cd267 O277 2.240 1_565 S
Cd268 O269 2.240 1_545 S
Cd268 O276 2.223 . S
Cd268 O278 2.297 . S
Cd268 O279 2.439 1_545 S
O269 Cd268 2.240 1_565 S
O269 C274 1.279 . S
O270 Cd267 2.297 . S
O270 C272 1.247 . S
O271 Cd267 2.439 . S
O271 C272 1.208 . S
C272 O270 1.247 . S
C272 O271 1.208 . S
C273 O278 1.247 . S
C273 O279 1.208 1_545 S
C274 O266 1.315 1_565 S
C274 O269 1.279 . S
C275 O276 1.315 . S
C275 O277 1.279 . S
O276 Cd268 2.223 . S
O276 C275 1.315 . S
O277 Cd267 2.240 1_545 S
O277 C275 1.279 . S
O278 Cd268 2.297 . S
O278 C273 1.247 . S
O279 Cd268 2.439 1_565 S
O279 C273 1.208 1_565 S
O280 Cd281 2.223 . S
O280 C288 1.315 . S
Cd281 O280 2.223 . S
Cd281 O284 2.297 . S
Cd281 O285 2.439 1_554 S
Cd281 O291 2.240 1_554 S
Cd282 O283 2.240 1_556 S
Cd282 O290 2.223 1_556 S
Cd282 O292 2.297 . S
Cd282 O293 2.439 . S
O283 Cd282 2.240 1_554 S
O283 C288 1.279 . S
O284 Cd281 2.297 . S
O284 C286 1.247 . S
O285 Cd281 2.439 1_556 S
O285 C286 1.208 1_556 S
C286 O284 1.247 . S
C286 O285 1.208 1_554 S
C287 O292 1.247 . S
C287 O293 1.208 . S
C288 O280 1.315 . S
C288 O283 1.279 . S
C289 O290 1.315 1_556 S
C289 O291 1.279 . S
O290 Cd282 2.223 1_554 S
O290 C289 1.315 1_554 S
O291 Cd281 2.240 1_556 S
O291 C289 1.279 . S
O292 Cd282 2.297 . S
O292 C287 1.247 . S
O293 Cd282 2.439 . S
O293 C287 1.208 . S
O294 Cd295 2.223 . S
O294 C302 1.315 . S
Cd295 O294 2.223 . S
Cd295 O298 2.297 . S
Cd295 O299 2.439 . S
Cd295 O305 2.240 . S
Cd296 O297 2.240 . S
Cd296 O304 2.223 . S
Cd296 O306 2.297 . S
Cd296 O307 2.439 . S
O297 Cd296 2.240 . S
O297 C302 1.279 . S
O298 Cd295 2.297 . S
O298 C300 1.247 . S
O299 Cd295 2.439 . S
O299 C300 1.208 . S
C300 O298 1.247 . S
C300 O299 1.208 . S
C301 O306 1.247 . S
C301 O307 1.208 . S
C302 O294 1.315 . S
C302 O297 1.279 . S
C303 O304 1.315 . S
C303 O305 1.279 . S
O304 Cd296 2.223 . S
O304 C303 1.315 . S
O305 Cd295 2.240 . S
O305 C303 1.279 . S
O306 Cd296 2.297 . S
O306 C301 1.247 . S
O307 Cd296 2.439 . S
O307 C301 1.208 . S
O308 Cd309 2.223 . S
O308 C316 1.315 . S
Cd309 O308 2.223 . S
Cd309 O312 2.297 . S
Cd309 O313 2.439 . S
Cd309 O319 2.240 . S
Cd310 O311 2.240 . S
Cd310 O318 2.223 . S
Cd310 O320 2.297 . S
Cd310 O321 2.439 . S
O311 Cd310 2.240 . S
O311 C316 1.279 . S
O312 Cd309 2.297 . S
O312 C314 1.247 . S
O313 Cd309 2.439 . S
O313 C314 1.208 . S
C314 O312 1.247 . S
C314 O313 1.208 . S
C315 O320 1.247 . S
C315 O321 1.208 . S
C316 O308 1.315 . S
C316 O311 1.279 . S
C317 O318 1.315 . S
C317 O319 1.279 . S
O318 Cd310 2.223 . S
O318 C317 1.315 . S
O319 Cd309 2.240 . S
O319 C317 1.279 . S
O320 Cd310 2.297 . S
O320 C315 1.247 . S
O321 Cd310 2.439 . S
O321 C315 1.208 . S
O322 Cd323 2.223 . S
O322 C330 1.315 . S
Cd323 O322 2.223 . S
Cd323 O326 2.297 . S
Cd323 O327 2.439 . S
Cd323 O333 2.240 . S
Cd324 O325 2.240 . S
Cd324 O332 2.223 . S
Cd324 O334 2.297 . S
Cd324 O335 2.439 . S
O325 Cd324 2.240 . S
O325 C330 1.279 . S
O326 Cd323 2.297 . S
O326 C328 1.247 . S
O327 Cd323 2.439 . S
O327 C328 1.208 . S
C328 O326 1.247 . S
C328 O327 1.208 . S
C329 O334 1.247 . S
C329 O335 1.208 . S
C330 O322 1.315 . S
C330 O325 1.279 . S
C331 O332 1.315 . S
C331 O333 1.279 . S
O332 Cd324 2.223 . S
O332 C331 1.315 . S
O333 Cd323 2.240 . S
O333 C331 1.279 . S
O334 Cd324 2.297 . S
O334 C329 1.247 . S
O335 Cd324 2.439 . S
O335 C329 1.208 . S
Zn336 O342 1.969 1_565 S
Zn336 O343 1.965 1_565 S
Zn336 O347 2.024 . S
Zn336 O352 1.969 1_565 S
Zn337 O344 1.969 1_654 S
Zn337 O350 1.969 1_554 S
Zn337 O351 1.965 . S
Zn337 O353 2.024 1_655 S
C338 O339 1.229 . S
C338 O347 1.058 . S
O339 C338 1.229 . S
C340 O341 1.246 1_554 S
C340 O353 1.058 . S
O341 C340 1.246 1_556 S
O342 Zn336 1.969 1_545 S
O342 C345 1.267 1_545 S
O343 Zn336 1.965 1_545 S
O343 C354 1.260 1_554 S
O344 Zn337 1.969 1_456 S
O344 C354 1.258 . S
C345 O342 1.267 1_565 S
C345 O346 1.228 . S
O346 C345 1.228 . S
O347 Zn336 2.024 . S
O347 C338 1.058 . S
C348 O349 1.228 . S
C348 O350 1.267 1_554 S
O349 C348 1.228 . S
O350 Zn337 1.969 1_556 S
O350 C348 1.267 1_556 S
O351 Zn337 1.965 . S
O351 C355 1.260 1_655 S
O352 Zn336 1.969 1_545 S
O352 C355 1.258 . S
O353 Zn337 2.024 1_455 S
O353 C340 1.058 . S
C354 O343 1.260 1_556 S
C354 O344 1.258 . S
C355 O351 1.260 1_455 S
C355 O352 1.258 . S
Zn356 O362 1.969 . S
Zn356 O363 1.965 . S
Zn356 O367 2.024 . S
Zn356 O372 1.969 . S
Zn357 O364 1.969 . S
Zn357 O370 1.969 . S
Zn357 O371 1.965 . S
Zn357 O373 2.024 . S
C358 O359 1.229 . S
C358 O367 1.058 . S
O359 C358 1.229 . S
C360 O361 1.229 . S
C360 O373 1.058 . S
O361 C360 1.229 . S
O362 Zn356 1.969 . S
O362 C365 1.267 . S
O363 Zn356 1.965 . S
O363 C374 1.260 . S
O364 Zn357 1.969 . S
O364 C374 1.258 . S
C365 O362 1.267 . S
C365 O366 1.228 . S
O366 C365 1.228 . S
O367 Zn356 2.024 . S
O367 C358 1.058 . S
C368 O369 1.228 . S
C368 O370 1.267 . S
O369 C368 1.228 . S
O370 Zn357 1.969 . S
O370 C368 1.267 . S
O371 Zn357 1.965 . S
O371 C375 1.260 . S
O372 Zn356 1.969 . S
O372 C375 1.258 . S
O373 Zn357 2.024 . S
O373 C360 1.058 . S
C374 O363 1.260 . S
C374 O364 1.258 . S
C375 O371 1.260 . S
C375 O372 1.258 . S
Zn376 O382 1.969 . S
Zn376 O383 1.965 . S
Zn376 O387 2.024 . S
Zn376 O392 1.969 . S
Zn377 O384 1.969 . S
Zn377 O390 1.969 . S
Zn377 O391 1.965 1_565 S
Zn377 O393 2.024 . S
C378 O379 1.229 . S
C378 O387 1.058 . S
O379 C378 1.229 . S
C380 O381 1.229 . S
C380 O393 1.058 . S
O381 C380 1.229 . S
O382 Zn376 1.969 . S
O382 C385 1.267 . S
O383 Zn376 1.965 . S
O383 C394 1.260 . S
O384 Zn377 1.969 . S
O384 C394 1.258 1_565 S
C385 O382 1.267 . S
C385 O386 1.228 . S
O386 C385 1.228 . S
O387 Zn376 2.024 . S
O387 C378 1.058 . S
C388 O389 1.228 . S
C388 O390 1.267 . S
O389 C388 1.228 . S
O390 Zn377 1.969 . S
O390 C388 1.267 . S
O391 Zn377 1.965 1_545 S
O391 C395 1.260 . S
O392 Zn376 1.969 . S
O392 C395 1.258 . S
O393 Zn377 2.024 . S
O393 C380 1.058 . S
C394 O383 1.260 . S
C394 O384 1.258 1_545 S
C395 O391 1.260 . S
C395 O392 1.258 . S
Zn396 O402 1.969 . S
Zn396 O403 1.965 . S
Zn396 O407 2.024 . S
Zn396 O412 1.969 . S
Zn397 O404 1.969 . S
Zn397 O410 1.969 . S
Zn397 O411 1.965 . S
Zn397 O413 2.024 . S
C398 O399 1.229 . S
C398 O407 1.058 . S
O399 C398 1.229 . S
C400 O401 1.229 . S
C400 O413 1.058 . S
O401 C400 1.229 . S
O402 Zn396 1.969 . S
O402 C405 1.267 . S
O403 Zn396 1.965 . S
O403 C414 1.260 . S
O404 Zn397 1.969 . S
O404 C414 1.258 . S
C405 O402 1.267 . S
C405 O406 1.228 . S
O406 C405 1.228 . S
O407 Zn396 2.024 . S
O407 C398 1.058 . S
C408 O409 1.228 . S
C408 O410 1.267 . S
O409 C408 1.228 . S
O410 Zn397 1.969 . S
O410 C408 1.267 . S
O411 Zn397 1.965 . S
O411 C415 1.260 . S
O412 Zn396 1.969 . S
O412 C415 1.258 . S
O413 Zn397 2.024 . S
O413 C400 1.058 . S
C414 O403 1.260 . S
C414 O404 1.258 . S
C415 O411 1.260 . S
C415 O412 1.258 . S
Zn416 O422 1.969 . S
Zn416 O423 1.965 . S
Zn416 O427 2.024 1_565 S
Zn416 O432 1.969 1_565 S
Zn417 O424 1.969 1_455 S
Zn417 O430 1.969 . S
Zn417 O431 1.965 . S
Zn417 O433 2.024 . S
C418 O419 1.229 1_545 S
C418 O427 1.058 . S
O419 C418 1.229 1_565 S
C420 O421 1.229 . S
C420 O433 1.058 1_655 S
O421 C420 1.229 . S
O422 Zn416 1.969 . S
O422 C425 1.267 . S
O423 Zn416 1.965 . S
O423 C434 1.260 1_455 S
O424 Zn417 1.969 1_655 S
O424 C434 1.258 1_545 S
C425 O422 1.267 . S
C425 O426 1.228 . S
O426 C425 1.228 . S
O427 Zn416 2.024 1_545 S
O427 C418 1.058 . S
C428 O429 1.228 . S
C428 O430 1.267 . S
O429 C428 1.228 . S
O430 Zn417 1.969 . S
O430 C428 1.267 . S
O431 Zn417 1.965 . S
O431 C435 1.260 . S
O432 Zn416 1.969 1_545 S
O432 C435 1.258 . S
O433 Zn417 2.024 . S
O433 C420 1.058 1_455 S
C434 O423 1.260 1_655 S
C434 O424 1.258 1_565 S
C435 O431 1.260 . S
C435 O432 1.258 . S
Zn436 O442 1.969 . S
Zn436 O443 1.965 . S
Zn436 O447 2.024 . S
Zn436 O452 1.969 . S
Zn437 O444 1.969 . S
Zn437 O450 1.969 . S
Zn437 O451 1.965 . S
Zn437 O453 2.024 . S
C438 O439 1.229 . S
C438 O447 1.058 . S
O439 C438 1.229 . S
C440 O441 1.229 . S
C440 O453 1.058 . S
O441 C440 1.229 . S
O442 Zn436 1.969 . S
O442 C445 1.267 . S
O443 Zn436 1.965 . S
O443 C454 1.260 . S
O444 Zn437 1.969 . S
O444 C454 1.258 . S
C445 O442 1.267 . S
C445 O446 1.228 . S
O446 C445 1.228 . S
O447 Zn436 2.024 . S
O447 C438 1.058 . S
C448 O449 1.228 . S
C448 O450 1.267 . S
O449 C448 1.228 . S
O450 Zn437 1.969 . S
O450 C448 1.267 . S
O451 Zn437 1.965 . S
O451 C455 1.260 . S
O452 Zn436 1.969 . S
O452 C455 1.258 . S
O453 Zn437 2.024 . S
O453 C440 1.058 . S
C454 O443 1.260 . S
C454 O444 1.258 . S
C455 O451 1.260 . S
C455 O452 1.258 . S
Zn456 O462 1.969 1_554 S
Zn456 O463 1.965 1_545 S
Zn456 O467 2.024 . S
Zn456 O472 1.969 . S
Zn457 O464 1.969 . S
Zn457 O470 1.969 . S
Zn457 O471 1.965 1_565 S
Zn457 O473 2.024 . S
C458 O459 1.229 . S
C458 O467 1.058 . S
O459 C458 1.229 . S
C460 O461 1.229 . S
C460 O473 1.058 . S
O461 C460 1.229 . S
O462 Zn456 1.969 1_556 S
O462 C465 1.267 . S
O463 Zn456 1.965 1_565 S
O463 C474 1.260 . S
O464 Zn457 1.969 . S
O464 C474 1.258 . S
C465 O462 1.267 . S
C465 O466 1.228 . S
O466 C465 1.228 . S
O467 Zn456 2.024 . S
O467 C458 1.058 . S
C468 O469 1.228 1_565 S
C468 O470 1.267 . S
O469 C468 1.228 1_545 S
O470 Zn457 1.969 . S
O470 C468 1.267 . S
O471 Zn457 1.965 1_545 S
O471 C475 1.260 . S
O472 Zn456 1.969 . S
O472 C475 1.258 . S
O473 Zn457 2.024 . S
O473 C460 1.058 . S
C474 O463 1.260 . S
C474 O464 1.258 . S
C475 O471 1.260 . S
C475 O472 1.258 . S
Zn476 O482 1.969 . S
Zn476 O483 1.965 . S
Zn476 O487 2.024 . S
Zn476 O492 1.969 . S
Zn477 O484 1.969 . S
Zn477 O490 1.969 . S
Zn477 O491 1.965 . S
Zn477 O493 2.024 . S
C478 O479 1.229 . S
C478 O487 1.058 . S
O479 C478 1.229 . S
C480 O481 1.229 . S
C480 O493 1.058 . S
O481 C480 1.229 . S
O482 Zn476 1.969 . S
O482 C485 1.267 . S
O483 Zn476 1.965 . S
O483 C494 1.260 . S
O484 Zn477 1.969 . S
O484 C494 1.258 . S
C485 O482 1.267 . S
C485 O486 1.228 . S
O486 C485 1.228 . S
O487 Zn476 2.024 . S
O487 C478 1.058 . S
C488 O489 1.228 . S
C488 O490 1.267 . S
O489 C488 1.228 . S
O490 Zn477 1.969 . S
O490 C488 1.267 . S
O491 Zn477 1.965 . S
O491 C495 1.260 . S
O492 Zn476 1.969 . S
O492 C495 1.258 . S
O493 Zn477 2.024 . S
O493 C480 1.058 . S
C494 O483 1.260 . S
C494 O484 1.258 . S
C495 O491 1.260 . S
C495 O492 1.258 . S
Zn496 O502 1.969 . S
Zn496 O503 1.965 . S
Zn496 O507 2.024 . S
Zn496 O512 1.969 . S
Zn497 O504 1.969 1_556 S
Zn497 O510 1.969 1_556 S
Zn497 O511 1.965 1_556 S
Zn497 O513 2.024 . S
C498 O499 1.229 . S
C498 O507 1.058 . S
O499 C498 1.229 . S
C500 O501 1.229 . S
C500 O513 1.058 . S
O501 C500 1.229 . S
O502 Zn496 1.969 . S
O502 C505 1.267 . S
O503 Zn496 1.965 . S
O503 C514 1.260 . S
O504 Zn497 1.969 1_554 S
O504 C514 1.258 . S
C505 O502 1.267 . S
C505 O506 1.228 . S
O506 C505 1.228 . S
O507 Zn496 2.024 . S
O507 C498 1.058 . S
C508 O509 1.228 . S
C508 O510 1.267 1_556 S
O509 C508 1.228 . S
O510 Zn497 1.969 1_554 S
O510 C508 1.267 1_554 S
O511 Zn497 1.965 1_554 S
O511 C515 1.260 . S
O512 Zn496 1.969 . S
O512 C515 1.258 . S
O513 Zn497 2.024 . S
O513 C500 1.058 . S
C514 O503 1.260 . S
C514 O504 1.258 . S
C515 O511 1.260 . S
C515 O512 1.258 . S
Zn516 O522 1.969 . S
Zn516 O523 1.965 . S
Zn516 O527 2.024 . S
Zn516 O532 1.969 . S
Zn517 O524 1.969 . S
Zn517 O530 1.969 . S
Zn517 O531 1.965 . S
Zn517 O533 2.024 . S
C518 O519 1.229 . S
C518 O527 1.058 . S
O519 C518 1.229 . S
C520 O521 1.229 . S
C520 O533 1.058 . S
O521 C520 1.229 . S
O522 Zn516 1.969 . S
O522 C525 1.267 . S
O523 Zn516 1.965 . S
O523 C534 1.260 . S
O524 Zn517 1.969 . S
O524 C534 1.258 . S
C525 O522 1.267 . S
C525 O526 1.228 . S
O526 C525 1.228 . S
O527 Zn516 2.024 . S
O527 C518 1.058 . S
C528 O529 1.228 . S
C528 O530 1.267 . S
O529 C528 1.228 . S
O530 Zn517 1.969 . S
O530 C528 1.267 . S
O531 Zn517 1.965 . S
O531 C535 1.260 . S
O532 Zn516 1.969 . S
O532 C535 1.258 . S
O533 Zn517 2.024 . S
O533 C520 1.058 . S
C534 O523 1.260 . S
C534 O524 1.258 . S
C535 O531 1.260 . S
C535 O532 1.258 . S
Zn536 O542 1.969 . S
Zn536 O543 1.965 . S
Zn536 O547 2.024 . S
Zn536 O552 1.969 . S
Zn537 O544 1.969 . S
Zn537 O550 1.969 . S
Zn537 O551 1.965 1_655 S
Zn537 O553 2.024 . S
C538 O539 1.229 . S
C538 O547 1.058 . S
O539 C538 1.229 . S
C540 O541 1.229 . S
C540 O553 1.058 . S
O541 C540 1.229 . S
O542 Zn536 1.969 . S
O542 C545 1.267 . S
O543 Zn536 1.965 . S
O543 C554 1.260 . S
O544 Zn537 1.969 . S
O544 C554 1.258 1_655 S
C545 O542 1.267 . S
C545 O546 1.228 . S
O546 C545 1.228 . S
O547 Zn536 2.024 . S
O547 C538 1.058 . S
C548 O549 1.228 . S
C548 O550 1.267 . S
O549 C548 1.228 . S
O550 Zn537 1.969 . S
O550 C548 1.267 . S
O551 Zn537 1.965 1_455 S
O551 C555 1.260 . S
O552 Zn536 1.969 . S
O552 C555 1.258 . S
O553 Zn537 2.024 . S
O553 C540 1.058 . S
C554 O543 1.260 . S
C554 O544 1.258 1_455 S
C555 O551 1.260 . S
C555 O552 1.258 . S
Zn556 O562 1.969 . S
Zn556 O563 1.965 . S
Zn556 O567 2.024 . S
Zn556 O572 1.969 . S
Zn557 O564 1.969 . S
Zn557 O570 1.969 . S
Zn557 O571 1.965 . S
Zn557 O573 2.024 . S
C558 O559 1.229 . S
C558 O567 1.058 . S
O559 C558 1.229 . S
C560 O561 1.229 . S
C560 O573 1.058 . S
O561 C560 1.229 . S
O562 Zn556 1.969 . S
O562 C565 1.267 . S
O563 Zn556 1.965 . S
O563 C574 1.260 . S
O564 Zn557 1.969 . S
O564 C574 1.258 . S
C565 O562 1.267 . S
C565 O566 1.228 . S
O566 C565 1.228 . S
O567 Zn556 2.024 . S
O567 C558 1.058 . S
C568 O569 1.228 . S
C568 O570 1.267 . S
O569 C568 1.228 . S
O570 Zn557 1.969 . S
O570 C568 1.267 . S
O571 Zn557 1.965 . S
O571 C575 1.260 . S
O572 Zn556 1.969 . S
O572 C575 1.258 . S
O573 Zn557 2.024 . S
O573 C560 1.058 . S
C574 O563 1.260 . S
C574 O564 1.258 . S
C575 O571 1.260 . S
C575 O572 1.258 . S
Zn576 O582 1.969 . S
Zn576 O583 1.965 . S
Zn576 O587 2.024 . S
Zn576 O592 1.969 . S
Zn577 O584 1.969 . S
Zn577 O590 1.969 . S
Zn577 O591 1.965 . S
Zn577 O593 2.024 . S
C578 O579 1.229 . S
C578 O587 1.058 . S
O579 C578 1.229 . S
C580 O581 1.229 . S
C580 O593 1.058 . S
O581 C580 1.229 . S
O582 Zn576 1.969 . S
O582 C585 1.267 . S
O583 Zn576 1.965 . S
O583 C594 1.260 . S
O584 Zn577 1.969 . S
O584 C594 1.258 . S
C585 O582 1.267 . S
C585 O586 1.228 . S
O586 C585 1.228 . S
O587 Zn576 2.024 . S
O587 C578 1.058 . S
C588 O589 1.228 . S
C588 O590 1.267 . S
O589 C588 1.228 . S
O590 Zn577 1.969 . S
O590 C588 1.267 . S
O591 Zn577 1.965 . S
O591 C595 1.260 . S
O592 Zn576 1.969 . S
O592 C595 1.258 . S
O593 Zn577 2.024 . S
O593 C580 1.058 . S
C594 O583 1.260 . S
C594 O584 1.258 . S
C595 O591 1.260 . S
C595 O592 1.258 . S
Zn596 O602 1.969 . S
Zn596 O603 1.965 . S
Zn596 O607 2.024 . S
Zn596 O612 1.969 . S
Zn597 O604 1.969 . S
Zn597 O610 1.969 . S
Zn597 O611 1.965 . S
Zn597 O613 2.024 . S
C598 O599 1.229 . S
C598 O607 1.058 . S
O599 C598 1.229 . S
C600 O601 1.229 . S
C600 O613 1.058 . S
O601 C600 1.229 . S
O602 Zn596 1.969 . S
O602 C605 1.267 . S
O603 Zn596 1.965 . S
O603 C614 1.260 . S
O604 Zn597 1.969 . S
O604 C614 1.258 . S
C605 O602 1.267 . S
C605 O606 1.228 . S
O606 C605 1.228 . S
O607 Zn596 2.024 . S
O607 C598 1.058 . S
C608 O609 1.228 . S
C608 O610 1.267 . S
O609 C608 1.228 . S
O610 Zn597 1.969 . S
O610 C608 1.267 . S
O611 Zn597 1.965 . S
O611 C615 1.260 . S
O612 Zn596 1.969 . S
O612 C615 1.258 . S
O613 Zn597 2.024 . S
O613 C600 1.058 . S
C614 O603 1.260 . S
C614 O604 1.258 . S
C615 O611 1.260 . S
C615 O612 1.258 . S
Zn616 O622 1.969 . S
Zn616 O623 1.965 . S
Zn616 O627 2.024 . S
Zn616 O632 1.969 . S
Zn617 O624 1.969 . S
Zn617 O630 1.969 . S
Zn617 O631 1.965 . S
Zn617 O633 2.024 . S
C618 O619 1.229 . S
C618 O627 1.058 . S
O619 C618 1.229 . S
C620 O621 1.229 . S
C620 O633 1.058 . S
O621 C620 1.229 . S
O622 Zn616 1.969 . S
O622 C625 1.267 . S
O623 Zn616 1.965 . S
O623 C634 1.260 . S
O624 Zn617 1.969 . S
O624 C634 1.258 . S
C625 O622 1.267 . S
C625 O626 1.228 . S
O626 C625 1.228 . S
O627 Zn616 2.024 . S
O627 C618 1.058 . S
C628 O629 1.228 . S
C628 O630 1.267 . S
O629 C628 1.228 . S
O630 Zn617 1.969 . S
O630 C628 1.267 . S
O631 Zn617 1.965 . S
O631 C635 1.260 . S
O632 Zn616 1.969 . S
O632 C635 1.258 . S
O633 Zn617 2.024 . S
O633 C620 1.058 . S
C634 O623 1.260 . S
C634 O624 1.258 . S
C635 O631 1.260 . S
C635 O632 1.258 . S
Zn636 O642 1.969 . S
Zn636 O643 1.965 . S
Zn636 O647 2.024 1_655 S
Zn636 O652 1.969 1_655 S
Zn637 O644 1.969 1_554 S
Zn637 O650 1.969 . S
Zn637 O651 1.965 . S
Zn637 O653 2.024 . S
C638 O639 1.229 . S
C638 O647 1.058 . S
O639 C638 1.229 . S
C640 O641 1.229 1_554 S
C640 O653 1.058 . S
O641 C640 1.229 1_556 S
O642 Zn636 1.969 . S
O642 C645 1.267 . S
O643 Zn636 1.965 . S
O643 C654 1.244 1_654 S
O644 Zn637 1.969 1_556 S
O644 C654 1.260 . S
C645 O642 1.267 . S
C645 O646 1.228 . S
O646 C645 1.228 . S
O647 Zn636 2.024 1_455 S
O647 C638 1.058 . S
C648 O649 1.228 . S
C648 O650 1.267 . S
O649 C648 1.228 . S
O650 Zn637 1.969 . S
O650 C648 1.267 . S
O651 Zn637 1.965 . S
O651 C655 1.260 . S
O652 Zn636 1.969 1_455 S
O652 C655 1.258 . S
O653 Zn637 2.024 . S
O653 C640 1.058 . S
C654 O643 1.244 1_456 S
C654 O644 1.260 . S
C655 O651 1.260 . S
C655 O652 1.258 . S
H656 C662 0.930 . S
H657 C665 0.930 . S
H658 C666 0.930 . S
H659 C667 0.902 1_654 S
H660 C670 0.930 . S
H661 C671 0.930 . S
C662 H656 0.930 . S
C662 C663 1.355 1_455 S
C662 C664 1.415 . S
C663 C662 1.355 1_655 S
C663 C665 1.419 . S
C664 C662 1.415 . S
C664 C669 1.425 1_455 S
C664 C671 1.409 . S
C665 H657 0.930 . S
C665 C663 1.419 . S
C665 C666 1.362 . S
C666 H658 0.930 . S
C666 C665 1.362 . S
C666 C669 1.409 . S
C667 H659 0.902 1_456 S
C667 C668 1.388 . S
C667 C669 1.409 1_455 S
C668 C667 1.388 . S
C668 C670 1.419 . S
C669 C664 1.425 1_655 S
C669 C666 1.409 . S
C669 C667 1.409 1_655 S
C670 H660 0.930 . S
C670 C668 1.419 . S
C670 C671 1.362 . S
C671 H661 0.930 . S
C671 C664 1.409 . S
C671 C670 1.362 . S
H672 C678 0.930 . S
H673 C681 0.930 . S
H674 C682 0.930 . S
H675 C683 0.930 . S
H676 C686 0.930 . S
H677 C687 0.930 . S
C678 H672 0.930 . S
C678 C679 1.355 . S
C678 C680 1.415 . S
C679 C678 1.355 . S
C679 C681 1.419 . S
C680 C678 1.415 . S
C680 C685 1.425 . S
C680 C687 1.409 . S
C681 H673 0.930 . S
C681 C679 1.419 . S
C681 C682 1.362 . S
C682 H674 0.930 . S
C682 C681 1.362 . S
C682 C685 1.409 . S
C683 H675 0.930 . S
C683 C684 1.355 . S
C683 C685 1.415 . S
C684 C683 1.355 . S
C684 C686 1.419 . S
C685 C680 1.425 . S
C685 C682 1.409 . S
C685 C683 1.415 . S
C686 H676 0.930 . S
C686 C684 1.419 . S
C686 C687 1.362 . S
C687 H677 0.930 . S
C687 C680 1.409 . S
C687 C686 1.362 . S
H688 C694 0.930 . S
H689 C697 0.930 . S
H690 C698 0.930 . S
H691 C699 0.930 . S
H692 C702 0.930 . S
H693 C703 0.930 . S
C694 H688 0.930 . S
C694 C695 1.355 . S
C694 C696 1.415 . S
C695 C694 1.355 . S
C695 C697 1.419 . S
C696 C694 1.415 . S
C696 C701 1.425 . S
C696 C703 1.409 . S
C697 H689 0.930 . S
C697 C695 1.419 . S
C697 C698 1.362 . S
C698 H690 0.930 . S
C698 C697 1.362 . S
C698 C701 1.409 . S
C699 H691 0.930 . S
C699 C700 1.355 . S
C699 C701 1.415 . S
C700 C699 1.355 . S
C700 C702 1.419 . S
C701 C696 1.425 . S
C701 C698 1.409 . S
C701 C699 1.415 . S
C702 H692 0.930 . S
C702 C700 1.419 . S
C702 C703 1.362 . S
C703 H693 0.930 . S
C703 C696 1.409 . S
C703 C702 1.362 . S
H704 C710 0.930 . S
H705 C713 0.930 . S
H706 C714 0.930 . S
H707 C715 0.930 . S
H708 C718 0.930 . S
H709 C719 0.930 . S
C710 H704 0.930 . S
C710 C711 1.355 . S
C710 C712 1.415 . S
C711 C710 1.355 . S
C711 C713 1.419 . S
C712 C710 1.415 . S
C712 C717 1.425 . S
C712 C719 1.409 . S
C713 H705 0.930 . S
C713 C711 1.419 . S
C713 C714 1.362 . S
C714 H706 0.930 . S
C714 C713 1.362 . S
C714 C717 1.409 . S
C715 H707 0.930 . S
C715 C716 1.355 . S
C715 C717 1.415 . S
C716 C715 1.355 . S
C716 C718 1.419 . S
C717 C712 1.425 . S
C717 C714 1.409 . S
C717 C715 1.415 . S
C718 H708 0.930 . S
C718 C716 1.419 . S
C718 C719 1.362 . S
C719 H709 0.930 . S
C719 C712 1.409 . S
C719 C718 1.362 . S
H720 C726 0.930 . S
H721 C729 0.930 . S
H722 C730 0.930 . S
H723 C731 0.930 . S
H724 C734 0.930 . S
H725 C735 0.927 1_655 S
C726 H720 0.930 . S
C726 C727 1.355 . S
C726 C728 1.415 . S
C727 C726 1.355 . S
C727 C729 1.419 . S
C728 C726 1.415 . S
C728 C733 1.425 . S
C728 C735 1.409 . S
C729 H721 0.930 . S
C729 C727 1.419 . S
C729 C730 1.362 . S
C730 H722 0.930 . S
C730 C729 1.362 . S
C730 C733 1.409 . S
C731 H723 0.930 . S
C731 C732 1.355 . S
C731 C733 1.415 . S
C732 C731 1.355 . S
C732 C734 1.419 . S
C733 C728 1.425 . S
C733 C730 1.409 . S
C733 C731 1.415 . S
C734 H724 0.930 . S
C734 C732 1.419 . S
C734 C735 1.362 . S
C735 H725 0.927 1_455 S
C735 C728 1.409 . S
C735 C734 1.362 . S
H736 C742 0.930 . S
H737 C745 0.930 . S
H738 C746 0.930 . S
H739 C747 0.930 . S
H740 C750 0.930 . S
H741 C751 0.930 . S
C742 H736 0.930 . S
C742 C743 1.355 . S
C742 C744 1.415 . S
C743 C742 1.355 . S
C743 C745 1.419 . S
C744 C742 1.415 . S
C744 C749 1.425 . S
C744 C751 1.409 . S
C745 H737 0.930 . S
C745 C743 1.419 . S
C745 C746 1.362 . S
C746 H738 0.930 . S
C746 C745 1.362 . S
C746 C749 1.409 . S
C747 H739 0.930 . S
C747 C748 1.355 . S
C747 C749 1.415 . S
C748 C747 1.355 . S
C748 C750 1.419 . S
C749 C744 1.425 . S
C749 C746 1.409 . S
C749 C747 1.415 . S
C750 H740 0.930 . S
C750 C748 1.419 . S
C750 C751 1.362 . S
C751 H741 0.930 . S
C751 C744 1.409 . S
C751 C750 1.362 . S
H752 C758 0.930 . S
H753 C761 0.930 . S
H754 C762 0.930 . S
H755 C763 0.930 . S
H756 C766 0.930 . S
H757 C767 0.930 . S
C758 H752 0.930 . S
C758 C759 1.355 . S
C758 C760 1.415 . S
C759 C758 1.355 . S
C759 C761 1.419 . S
C760 C758 1.415 . S
C760 C765 1.425 . S
C760 C767 1.409 . S
C761 H753 0.930 . S
C761 C759 1.419 . S
C761 C762 1.362 . S
C762 H754 0.930 . S
C762 C761 1.362 . S
C762 C765 1.409 . S
C763 H755 0.930 . S
C763 C764 1.355 . S
C763 C765 1.415 . S
C764 C763 1.355 . S
C764 C766 1.419 . S
C765 C760 1.425 . S
C765 C762 1.409 . S
C765 C763 1.415 . S
C766 H756 0.930 . S
C766 C764 1.419 . S
C766 C767 1.362 . S
C767 H757 0.930 . S
C767 C760 1.409 . S
C767 C766 1.362 . S
H768 C774 0.930 . S
H769 C777 0.930 . S
H770 C778 0.930 . S
H771 C779 0.930 . S
H772 C782 0.930 . S
H773 C783 0.930 . S
C774 H768 0.930 . S
C774 C775 1.355 . S
C774 C776 1.415 . S
C775 C774 1.355 . S
C775 C777 1.419 . S
C776 C774 1.415 . S
C776 C781 1.425 . S
C776 C783 1.409 . S
C777 H769 0.930 . S
C777 C775 1.419 . S
C777 C778 1.362 . S
C778 H770 0.930 . S
C778 C777 1.362 . S
C778 C781 1.409 . S
C779 H771 0.930 . S
C779 C780 1.355 . S
C779 C781 1.415 . S
C780 C779 1.355 . S
C780 C782 1.419 . S
C781 C776 1.425 . S
C781 C778 1.409 . S
C781 C779 1.415 . S
C782 H772 0.930 . S
C782 C780 1.419 . S
C782 C783 1.362 . S
C783 H773 0.930 . S
C783 C776 1.409 . S
C783 C782 1.362 . S
H784 C790 0.930 . S
H785 C793 0.930 . S
H786 C794 0.930 . S
H787 C795 0.930 . S
H788 C798 0.930 1_465 S
H789 C799 0.930 . S
C790 H784 0.930 . S
C790 C791 1.355 1_565 S
C790 C792 1.415 1_565 S
C791 C790 1.355 1_545 S
C791 C793 1.419 . S
C792 C790 1.415 1_545 S
C792 C797 1.425 . S
C792 C799 1.409 1_545 S
C793 H785 0.930 . S
C793 C791 1.419 . S
C793 C794 1.362 . S
C794 H786 0.930 . S
C794 C793 1.362 . S
C794 C797 1.409 . S
C795 H787 0.930 . S
C795 C796 1.355 . S
C795 C797 1.415 . S
C796 C795 1.355 . S
C796 C798 1.419 . S
C797 C792 1.425 . S
C797 C794 1.409 . S
C797 C795 1.415 . S
C798 H788 0.930 1_645 S
C798 C796 1.419 . S
C798 C799 1.362 1_545 S
C799 H789 0.930 . S
C799 C792 1.409 1_565 S
C799 C798 1.362 1_565 S
H800 C806 0.930 . S
H801 C809 0.930 . S
H802 C810 0.930 . S
H803 C811 0.930 . S
H804 C814 0.930 . S
H805 C815 0.930 . S
C806 H800 0.930 . S
C806 C807 1.355 . S
C806 C808 1.415 . S
C807 C806 1.355 . S
C807 C809 1.419 . S
C808 C806 1.415 . S
C808 C813 1.425 . S
C808 C815 1.409 . S
C809 H801 0.930 . S
C809 C807 1.419 . S
C809 C810 1.362 . S
C810 H802 0.930 . S
C810 C809 1.362 . S
C810 C813 1.409 . S
C811 H803 0.930 . S
C811 C812 1.355 . S
C811 C813 1.415 . S
C812 C811 1.355 . S
C812 C814 1.419 . S
C813 C808 1.425 . S
C813 C810 1.409 . S
C813 C811 1.415 . S
C814 H804 0.930 . S
C814 C812 1.419 . S
C814 C815 1.362 . S
C815 H805 0.930 . S
C815 C808 1.409 . S
C815 C814 1.362 . S
H816 C822 0.930 . S
H817 C825 0.930 . S
H818 C826 0.930 . S
H819 C827 0.930 . S
H820 C830 0.930 . S
H821 C831 0.930 . S
C822 H816 0.930 . S
C822 C823 1.355 1_565 S
C822 C824 1.415 . S
C823 C822 1.355 1_545 S
C823 C825 1.419 . S
C824 C822 1.415 . S
C824 C829 1.425 1_565 S
C824 C831 1.409 . S
C825 H817 0.930 . S
C825 C823 1.419 . S
C825 C826 1.362 . S
C826 H818 0.930 . S
C826 C825 1.362 . S
C826 C829 1.409 . S
C827 H819 0.930 . S
C827 C828 1.355 . S
C827 C829 1.415 . S
C828 C827 1.355 . S
C828 C830 1.419 1_545 S
C829 C824 1.425 1_545 S
C829 C826 1.409 . S
C829 C827 1.415 . S
C830 H820 0.930 . S
C830 C828 1.419 1_565 S
C830 C831 1.362 . S
C831 H821 0.930 . S
C831 C824 1.409 . S
C831 C830 1.362 . S
H832 C838 0.930 . S
H833 C841 0.930 . S
H834 C842 0.930 . S
H835 C843 0.930 . S
H836 C846 0.930 . S
H837 C847 0.930 . S
C838 H832 0.930 . S
C838 C839 1.355 . S
C838 C840 1.415 . S
C839 C838 1.355 . S
C839 C841 1.419 . S
C840 C838 1.415 . S
C840 C845 1.425 . S
C840 C847 1.409 . S
C841 H833 0.930 . S
C841 C839 1.419 . S
C841 C842 1.362 . S
C842 H834 0.930 . S
C842 C841 1.362 . S
C842 C845 1.409 . S
C843 H835 0.930 . S
C843 C844 1.355 . S
C843 C845 1.415 . S
C844 C843 1.355 . S
C844 C846 1.419 . S
C845 C840 1.425 . S
C845 C842 1.409 . S
C845 C843 1.415 . S
C846 H836 0.930 . S
C846 C844 1.419 . S
C846 C847 1.362 . S
C847 H837 0.930 . S
C847 C840 1.409 . S
C847 C846 1.362 . S
H848 C854 0.930 . S
H849 C857 0.930 . S
H850 C858 0.930 . S
H851 C859 0.930 . S
H852 C862 0.930 . S
H853 C863 0.930 . S
C854 H848 0.930 . S
C854 C855 1.355 1_565 S
C854 C856 1.415 . S
C855 C854 1.355 1_545 S
C855 C857 1.419 . S
C856 C854 1.415 . S
C856 C861 1.425 1_565 S
C856 C863 1.409 . S
C857 H849 0.930 . S
C857 C855 1.419 . S
C857 C858 1.362 . S
C858 H850 0.930 . S
C858 C857 1.362 . S
C858 C861 1.409 . S
C859 H851 0.930 . S
C859 C860 1.355 . S
C859 C861 1.415 . S
C860 C859 1.355 . S
C860 C862 1.419 1_545 S
C861 C856 1.425 1_545 S
C861 C858 1.409 . S
C861 C859 1.415 . S
C862 H852 0.930 . S
C862 C860 1.419 1_565 S
C862 C863 1.362 . S
C863 H853 0.930 . S
C863 C856 1.409 . S
C863 C862 1.362 . S
H864 C870 0.930 . S
H865 C873 0.930 . S
H866 C874 0.930 . S
H867 C875 0.930 . S
H868 C878 0.930 . S
H869 C879 0.930 . S
C870 H864 0.930 . S
C870 C871 1.355 . S
C870 C872 1.415 . S
C871 C870 1.355 . S
C871 C873 1.419 . S
C872 C870 1.415 . S
C872 C877 1.425 . S
C872 C879 1.409 . S
C873 H865 0.930 . S
C873 C871 1.419 . S
C873 C874 1.362 . S
C874 H866 0.930 . S
C874 C873 1.362 . S
C874 C877 1.409 . S
C875 H867 0.930 . S
C875 C876 1.355 . S
C875 C877 1.415 . S
C876 C875 1.355 . S
C876 C878 1.419 . S
C877 C872 1.425 . S
C877 C874 1.409 . S
C877 C875 1.415 . S
C878 H868 0.930 . S
C878 C876 1.419 . S
C878 C879 1.362 . S
C879 H869 0.930 . S
C879 C872 1.409 . S
C879 C878 1.362 . S
H880 C886 0.930 1_565 S
H881 C889 0.930 . S
H882 C890 0.930 . S
H883 C891 0.930 . S
H884 C894 0.930 1_565 S
H885 C895 0.930 . S
C886 H880 0.930 1_545 S
C886 C887 1.355 . S
C886 C888 1.415 . S
C887 C886 1.355 . S
C887 C889 1.419 . S
C888 C886 1.415 . S
C888 C893 1.425 . S
C888 C895 1.409 1_545 S
C889 H881 0.930 . S
C889 C887 1.419 . S
C889 C890 1.362 . S
C890 H882 0.930 . S
C890 C889 1.362 . S
C890 C893 1.409 . S
C891 H883 0.930 . S
C891 C892 1.355 . S
C891 C893 1.415 . S
C892 C891 1.355 . S
C892 C894 1.419 . S
C893 C888 1.425 . S
C893 C890 1.409 . S
C893 C891 1.415 . S
C894 H884 0.930 1_545 S
C894 C892 1.419 . S
C894 C895 1.362 1_545 S
C895 H885 0.930 . S
C895 C888 1.409 1_565 S
C895 C894 1.362 1_565 S
H896 C902 0.930 . S
H897 C905 0.930 . S
H898 C906 0.930 . S
H899 C907 0.930 . S
H900 C910 0.930 . S
H901 C911 0.930 . S
C902 H896 0.930 . S
C902 C903 1.355 . S
C902 C904 1.415 . S
C903 C902 1.355 . S
C903 C905 1.419 . S
C904 C902 1.415 . S
C904 C909 1.425 . S
C904 C911 1.409 . S
C905 H897 0.930 . S
C905 C903 1.419 . S
C905 C906 1.362 . S
C906 H898 0.930 . S
C906 C905 1.362 . S
C906 C909 1.409 . S
C907 H899 0.930 . S
C907 C908 1.355 . S
C907 C909 1.415 . S
C908 C907 1.355 . S
C908 C910 1.419 . S
C909 C904 1.425 . S
C909 C906 1.409 . S
C909 C907 1.415 . S
C910 H900 0.930 . S
C910 C908 1.419 . S
C910 C911 1.362 . S
C911 H901 0.930 . S
C911 C904 1.409 . S
C911 C910 1.362 . S
H912 C918 0.930 . S
H913 C921 0.930 . S
H914 C922 0.930 . S
H915 C923 0.930 1_545 S
H916 C926 0.930 . S
H917 C927 0.930 . S
C918 H912 0.930 . S
C918 C919 1.355 . S
C918 C920 1.415 . S
C919 C918 1.355 . S
C919 C921 1.419 . S
C920 C918 1.415 . S
C920 C925 1.425 . S
C920 C927 1.409 . S
C921 H913 0.930 . S
C921 C919 1.419 . S
C921 C922 1.362 . S
C922 H914 0.930 . S
C922 C921 1.362 . S
C922 C925 1.409 . S
C923 H915 0.930 1_565 S
C923 C924 1.355 . S
C923 C925 1.415 . S
C924 C923 1.355 . S
C924 C926 1.419 . S
C925 C920 1.425 . S
C925 C922 1.409 . S
C925 C923 1.415 . S
C926 H916 0.930 . S
C926 C924 1.419 . S
C926 C927 1.362 . S
C927 H917 0.930 . S
C927 C920 1.409 . S
C927 C926 1.362 . S
H928 C934 0.930 . S
H929 C937 0.932 . S
H930 C938 0.930 . S
H931 C939 0.930 . S
H932 C942 0.930 . S
H933 C943 0.930 . S
C934 H928 0.930 . S
C934 C935 1.355 . S
C934 C936 1.415 . S
C935 C934 1.355 . S
C935 C937 1.419 1_554 S
C936 C934 1.415 . S
C936 C941 1.425 . S
C936 C943 1.409 . S
C937 H929 0.932 . S
C937 C935 1.419 1_556 S
C937 C938 1.360 1_556 S
C938 H930 0.930 . S
C938 C937 1.360 1_554 S
C938 C941 1.409 . S
C939 H931 0.930 . S
C939 C940 1.355 . S
C939 C941 1.415 . S
C940 C939 1.355 . S
C940 C942 1.419 . S
C941 C936 1.425 . S
C941 C938 1.409 . S
C941 C939 1.415 . S
C942 H932 0.930 . S
C942 C940 1.419 . S
C942 C943 1.362 . S
C943 H933 0.930 . S
C943 C936 1.409 . S
C943 C942 1.362 . S
H944 C950 0.930 . S
H945 C953 0.930 . S
H946 C954 0.930 . S
H947 C955 0.930 . S
H948 C958 0.930 . S
H949 C959 0.930 . S
C950 H944 0.930 . S
C950 C951 1.355 . S
C950 C952 1.415 . S
C951 C950 1.355 . S
C951 C953 1.419 . S
C952 C950 1.415 . S
C952 C957 1.425 . S
C952 C959 1.409 . S
C953 H945 0.930 . S
C953 C951 1.419 . S
C953 C954 1.362 . S
C954 H946 0.930 . S
C954 C953 1.362 . S
C954 C957 1.409 . S
C955 H947 0.930 . S
C955 C956 1.355 . S
C955 C957 1.415 . S
C956 C955 1.355 . S
C956 C958 1.419 . S
C957 C952 1.425 . S
C957 C954 1.409 . S
C957 C955 1.415 . S
C958 H948 0.930 . S
C958 C956 1.419 . S
C958 C959 1.362 . S
C959 H949 0.930 . S
C959 C952 1.409 . S
C959 C958 1.362 . S
H960 C966 0.930 . S
H961 C969 0.930 . S
H962 C970 0.930 . S
H963 C971 0.930 . S
H964 C974 0.930 . S
H965 C975 0.930 . S
C966 H960 0.930 . S
C966 C967 1.355 . S
C966 C968 1.415 . S
C967 C966 1.355 . S
C967 C969 1.419 . S
C968 C966 1.415 . S
C968 C973 1.425 . S
C968 C975 1.409 . S
C969 H961 0.930 . S
C969 C967 1.419 . S
C969 C970 1.362 . S
C970 H962 0.930 . S
C970 C969 1.362 . S
C970 C973 1.409 . S
C971 H963 0.930 . S
C971 C972 1.355 . S
C971 C973 1.415 . S
C972 C971 1.355 . S
C972 C974 1.419 . S
C973 C968 1.425 . S
C973 C970 1.409 . S
C973 C971 1.415 . S
C974 H964 0.930 . S
C974 C972 1.419 . S
C974 C975 1.362 . S
C975 H965 0.930 . S
C975 C968 1.409 . S
C975 C974 1.362 . S
H976 C982 0.930 . S
H977 C985 0.930 . S
H978 C986 0.930 . S
H979 C987 0.930 . S
H980 C990 0.930 . S
H981 C991 0.930 . S
C982 H976 0.930 . S
C982 C983 1.355 . S
C982 C984 1.415 . S
C983 C982 1.355 . S
C983 C985 1.419 . S
C984 C982 1.415 . S
C984 C989 1.425 . S
C984 C991 1.409 . S
C985 H977 0.930 . S
C985 C983 1.419 . S
C985 C986 1.362 . S
C986 H978 0.930 . S
C986 C985 1.362 . S
C986 C989 1.409 . S
C987 H979 0.930 . S
C987 C988 1.355 . S
C987 C989 1.415 . S
C988 C987 1.355 . S
C988 C990 1.419 . S
C989 C984 1.425 . S
C989 C986 1.409 . S
C989 C987 1.415 . S
C990 H980 0.930 . S
C990 C988 1.419 . S
C990 C991 1.362 . S
C991 H981 0.930 . S
C991 C984 1.409 . S
C991 C990 1.362 . S
H992 C998 0.930 . S
H993 C1001 0.930 . S
H994 C1002 0.930 . S
H995 C1003 0.930 . S
H996 C1006 0.930 . S
H997 C1007 0.930 . S
C998 H992 0.930 . S
C998 C999 1.355 . S
C998 C1000 1.415 . S
C999 C998 1.355 . S
C999 C1001 1.419 . S
C1000 C998 1.415 . S
C1000 C1005 1.425 . S
C1000 C1007 1.409 . S
C1001 H993 0.930 . S
C1001 C999 1.419 . S
C1001 C1002 1.362 . S
C1002 H994 0.930 . S
C1002 C1001 1.362 . S
C1002 C1005 1.409 . S
C1003 H995 0.930 . S
C1003 C1004 1.355 . S
C1003 C1005 1.415 . S
C1004 C1003 1.355 . S
C1004 C1006 1.419 . S
C1005 C1000 1.425 . S
C1005 C1002 1.409 . S
C1005 C1003 1.415 . S
C1006 H996 0.930 . S
C1006 C1004 1.419 . S
C1006 C1007 1.362 . S
C1007 H997 0.930 . S
C1007 C1000 1.409 . S
C1007 C1006 1.362 . S
H1008 C1014 0.930 . S
H1009 C1017 0.930 . S
H1010 C1018 0.930 . S
H1011 C1019 0.930 . S
H1012 C1022 0.930 . S
H1013 C1023 0.930 . S
C1014 H1008 0.930 . S
C1014 C1015 1.355 . S
C1014 C1016 1.415 . S
C1015 C1014 1.355 . S
C1015 C1017 1.419 . S
C1016 C1014 1.415 . S
C1016 C1021 1.425 . S
C1016 C1023 1.409 . S
C1017 H1009 0.930 . S
C1017 C1015 1.419 . S
C1017 C1018 1.362 . S
C1018 H1010 0.930 . S
C1018 C1017 1.362 . S
C1018 C1021 1.409 . S
C1019 H1011 0.930 . S
C1019 C1020 1.355 . S
C1019 C1021 1.415 . S
C1020 C1019 1.355 . S
C1020 C1022 1.419 . S
C1021 C1016 1.425 . S
C1021 C1018 1.409 . S
C1021 C1019 1.415 . S
C1022 H1012 0.930 . S
C1022 C1020 1.419 . S
C1022 C1023 1.362 . S
C1023 H1013 0.930 . S
C1023 C1016 1.409 . S
C1023 C1022 1.362 . S
H1024 C1030 0.930 . S
H1025 C1033 0.930 . S
H1026 C1034 0.930 . S
H1027 C1035 0.930 . S
H1028 C1038 0.930 . S
H1029 C1039 0.930 . S
C1030 H1024 0.930 . S
C1030 C1031 1.355 . S
C1030 C1032 1.415 . S
C1031 C1030 1.355 . S
C1031 C1033 1.419 . S
C1032 C1030 1.415 . S
C1032 C1037 1.425 . S
C1032 C1039 1.409 . S
C1033 H1025 0.930 . S
C1033 C1031 1.419 . S
C1033 C1034 1.362 . S
C1034 H1026 0.930 . S
C1034 C1033 1.362 . S
C1034 C1037 1.409 . S
C1035 H1027 0.930 . S
C1035 C1036 1.355 . S
C1035 C1037 1.415 . S
C1036 C1035 1.355 . S
C1036 C1038 1.419 . S
C1037 C1032 1.425 . S
C1037 C1034 1.409 . S
C1037 C1035 1.415 . S
C1038 H1028 0.930 . S
C1038 C1036 1.419 . S
C1038 C1039 1.362 . S
C1039 H1029 0.930 . S
C1039 C1032 1.409 . S
C1039 C1038 1.362 . S
H1040 C1046 0.930 . S
H1041 C1049 0.930 . S
H1042 C1050 0.930 . S
H1043 C1051 0.930 . S
H1044 C1054 0.930 . S
H1045 C1055 0.930 . S
C1046 H1040 0.930 . S
C1046 C1047 1.355 . S
C1046 C1048 1.415 . S
C1047 C1046 1.355 . S
C1047 C1049 1.419 . S
C1048 C1046 1.415 . S
C1048 C1053 1.425 . S
C1048 C1055 1.409 1_455 S
C1049 H1041 0.930 . S
C1049 C1047 1.419 . S
C1049 C1050 1.362 . S
C1050 H1042 0.930 . S
C1050 C1049 1.362 . S
C1050 C1053 1.409 . S
C1051 H1043 0.930 . S
C1051 C1052 1.355 . S
C1051 C1053 1.415 . S
C1052 C1051 1.355 . S
C1052 C1054 1.419 1_455 S
C1053 C1048 1.425 . S
C1053 C1050 1.409 . S
C1053 C1051 1.415 . S
C1054 H1044 0.930 . S
C1054 C1052 1.419 1_655 S
C1054 C1055 1.362 . S
C1055 H1045 0.930 . S
C1055 C1048 1.409 1_655 S
C1055 C1054 1.362 . S
H1056 C1062 0.930 . S
H1057 C1065 0.930 . S
H1058 C1066 0.930 . S
H1059 C1067 0.930 . S
H1060 C1070 0.930 . S
H1061 C1071 0.930 . S
C1062 H1056 0.930 . S
C1062 C1063 1.355 . S
C1062 C1064 1.415 . S
C1063 C1062 1.355 . S
C1063 C1065 1.419 . S
C1064 C1062 1.415 . S
C1064 C1069 1.425 . S
C1064 C1071 1.409 . S
C1065 H1057 0.930 . S
C1065 C1063 1.419 . S
C1065 C1066 1.362 . S
C1066 H1058 0.930 . S
C1066 C1065 1.362 . S
C1066 C1069 1.409 . S
C1067 H1059 0.930 . S
C1067 C1068 1.355 . S
C1067 C1069 1.415 . S
C1068 C1067 1.355 . S
C1068 C1070 1.419 . S
C1069 C1064 1.425 . S
C1069 C1066 1.409 . S
C1069 C1067 1.415 . S
C1070 H1060 0.930 . S
C1070 C1068 1.419 . S
C1070 C1071 1.362 . S
C1071 H1061 0.930 . S
C1071 C1064 1.409 . S
C1071 C1070 1.362 . S
H1072 C1078 0.930 . S
H1073 C1081 0.930 . S
H1074 C1082 0.930 . S
H1075 C1083 0.930 . S
H1076 C1086 0.930 . S
H1077 C1087 0.930 . S
C1078 H1072 0.930 . S
C1078 C1079 1.355 . S
C1078 C1080 1.415 . S
C1079 C1078 1.355 . S
C1079 C1081 1.419 . S
C1080 C1078 1.415 . S
C1080 C1085 1.425 . S
C1080 C1087 1.409 . S
C1081 H1073 0.930 . S
C1081 C1079 1.419 . S
C1081 C1082 1.362 . S
C1082 H1074 0.930 . S
C1082 C1081 1.362 . S
C1082 C1085 1.409 . S
C1083 H1075 0.930 . S
C1083 C1084 1.355 . S
C1083 C1085 1.415 . S
C1084 C1083 1.355 . S
C1084 C1086 1.419 . S
C1085 C1080 1.425 . S
C1085 C1082 1.409 . S
C1085 C1083 1.415 . S
C1086 H1076 0.930 . S
C1086 C1084 1.419 . S
C1086 C1087 1.362 . S
C1087 H1077 0.930 . S
C1087 C1080 1.409 . S
C1087 C1086 1.362 . S
H1088 C1094 0.930 . S
H1089 C1097 0.930 . S
H1090 C1098 0.930 . S
H1091 C1099 0.930 . S
H1092 C1102 0.930 . S
H1093 C1103 0.930 . S
C1094 H1088 0.930 . S
C1094 C1095 1.355 . S
C1094 C1096 1.415 . S
C1095 C1094 1.355 . S
C1095 C1097 1.419 . S
C1096 C1094 1.415 . S
C1096 C1101 1.425 . S
C1096 C1103 1.409 . S
C1097 H1089 0.930 . S
C1097 C1095 1.419 . S
C1097 C1098 1.362 . S
C1098 H1090 0.930 . S
C1098 C1097 1.362 . S
C1098 C1101 1.409 . S
C1099 H1091 0.930 . S
C1099 C1100 1.355 . S
C1099 C1101 1.415 . S
C1100 C1099 1.355 . S
C1100 C1102 1.419 . S
C1101 C1096 1.425 . S
C1101 C1098 1.409 . S
C1101 C1099 1.415 . S
C1102 H1092 0.930 . S
C1102 C1100 1.419 . S
C1102 C1103 1.362 . S
C1103 H1093 0.930 . S
C1103 C1096 1.409 . S
C1103 C1102 1.362 . S
H1104 C1110 0.930 . S
H1105 C1113 0.930 . S
H1106 C1114 0.930 . S
H1107 C1115 0.930 . S
H1108 C1118 0.930 . S
H1109 C1119 0.930 1_655 S
C1110 H1104 0.930 . S
C1110 C1111 1.355 . S
C1110 C1112 1.415 . S
C1111 C1110 1.355 . S
C1111 C1113 1.419 . S
C1112 C1110 1.415 . S
C1112 C1117 1.425 . S
C1112 C1119 1.409 . S
C1113 H1105 0.930 . S
C1113 C1111 1.419 . S
C1113 C1114 1.362 . S
C1114 H1106 0.930 . S
C1114 C1113 1.362 . S
C1114 C1117 1.409 . S
C1115 H1107 0.930 . S
C1115 C1116 1.355 . S
C1115 C1117 1.415 . S
C1116 C1115 1.355 . S
C1116 C1118 1.419 . S
C1117 C1112 1.425 . S
C1117 C1114 1.409 . S
C1117 C1115 1.415 . S
C1118 H1108 0.930 . S
C1118 C1116 1.419 . S
C1118 C1119 1.362 . S
C1119 H1109 0.930 1_455 S
C1119 C1112 1.409 . S
C1119 C1118 1.362 . S
H1120 C1126 0.930 . S
H1121 C1129 0.930 . S
H1122 C1130 0.930 . S
H1123 C1131 0.930 . S
H1124 C1134 0.930 . S
H1125 C1135 0.930 . S
C1126 H1120 0.930 . S
C1126 C1127 1.355 . S
C1126 C1128 1.415 . S
C1127 C1126 1.355 . S
C1127 C1129 1.419 . S
C1128 C1126 1.415 . S
C1128 C1133 1.425 . S
C1128 C1135 1.409 . S
C1129 H1121 0.930 . S
C1129 C1127 1.419 . S
C1129 C1130 1.362 . S
C1130 H1122 0.930 . S
C1130 C1129 1.362 . S
C1130 C1133 1.409 . S
C1131 H1123 0.930 . S
C1131 C1132 1.355 . S
C1131 C1133 1.415 . S
C1132 C1131 1.355 . S
C1132 C1134 1.419 . S
C1133 C1128 1.425 . S
C1133 C1130 1.409 . S
C1133 C1131 1.415 . S
C1134 H1124 0.930 . S
C1134 C1132 1.419 . S
C1134 C1135 1.362 . S
C1135 H1125 0.930 . S
C1135 C1128 1.409 . S
C1135 C1134 1.362 . S
H1136 C1142 0.930 . S
H1137 C1145 0.930 . S
H1138 C1146 0.930 . S
H1139 C1147 0.930 1_554 S
H1140 C1150 0.930 . S
H1141 C1151 0.930 . S
C1142 H1136 0.930 . S
C1142 C1143 1.355 . S
C1142 C1144 1.415 . S
C1143 C1142 1.355 . S
C1143 C1145 1.419 . S
C1144 C1142 1.415 . S
C1144 C1149 1.425 . S
C1144 C1151 1.409 . S
C1145 H1137 0.930 . S
C1145 C1143 1.419 . S
C1145 C1146 1.362 . S
C1146 H1138 0.930 . S
C1146 C1145 1.362 . S
C1146 C1149 1.409 . S
C1147 H1139 0.930 1_556 S
C1147 C1148 1.355 . S
C1147 C1149 1.415 . S
C1148 C1147 1.355 . S
C1148 C1150 1.419 . S
C1149 C1144 1.425 . S
C1149 C1146 1.409 . S
C1149 C1147 1.415 . S
C1150 H1140 0.930 . S
C1150 C1148 1.419 . S
C1150 C1151 1.362 . S
C1151 H1141 0.930 . S
C1151 C1144 1.409 . S
C1151 C1150 1.362 . S
H1152 C1158 0.930 . S
H1153 C1161 0.930 . S
H1154 C1162 0.930 . S
H1155 C1163 0.930 . S
H1156 C1166 0.930 . S
H1157 C1167 0.930 . S
C1158 H1152 0.930 . S
C1158 C1159 1.355 . S
C1158 C1160 1.415 . S
C1159 C1158 1.355 . S
C1159 C1161 1.419 . S
C1160 C1158 1.415 . S
C1160 C1165 1.425 . S
C1160 C1167 1.409 . S
C1161 H1153 0.930 . S
C1161 C1159 1.419 . S
C1161 C1162 1.362 . S
C1162 H1154 0.930 . S
C1162 C1161 1.362 . S
C1162 C1165 1.409 . S
C1163 H1155 0.930 . S
C1163 C1164 1.355 . S
C1163 C1165 1.415 . S
C1164 C1163 1.355 . S
C1164 C1166 1.419 . S
C1165 C1160 1.425 . S
C1165 C1162 1.409 . S
C1165 C1163 1.415 . S
C1166 H1156 0.930 . S
C1166 C1164 1.419 . S
C1166 C1167 1.362 . S
C1167 H1157 0.930 . S
C1167 C1160 1.409 . S
C1167 C1166 1.362 . S
H1168 C1174 0.930 . S
H1169 C1177 0.930 . S
H1170 C1178 0.930 . S
H1171 C1179 0.930 . S
H1172 C1182 0.930 . S
H1173 C1183 0.930 . S
C1174 H1168 0.930 . S
C1174 C1175 1.355 . S
C1174 C1176 1.415 . S
C1175 C1174 1.355 . S
C1175 C1177 1.419 . S
C1176 C1174 1.415 . S
C1176 C1181 1.425 . S
C1176 C1183 1.409 . S
C1177 H1169 0.930 . S
C1177 C1175 1.419 . S
C1177 C1178 1.362 . S
C1178 H1170 0.930 . S
C1178 C1177 1.362 . S
C1178 C1181 1.409 . S
C1179 H1171 0.930 . S
C1179 C1180 1.355 . S
C1179 C1181 1.415 . S
C1180 C1179 1.355 . S
C1180 C1182 1.419 . S
C1181 C1176 1.425 . S
C1181 C1178 1.409 . S
C1181 C1179 1.415 . S
C1182 H1172 0.930 . S
C1182 C1180 1.419 . S
C1182 C1183 1.362 . S
C1183 H1173 0.930 . S
C1183 C1176 1.409 . S
C1183 C1182 1.362 . S
H1184 C1190 0.930 . S
H1185 C1193 0.930 . S
H1186 C1194 0.930 . S
H1187 C1195 0.930 . S
H1188 C1198 0.930 . S
H1189 C1199 0.930 . S
C1190 H1184 0.930 . S
C1190 C1191 1.355 . S
C1190 C1192 1.415 . S
C1191 C1190 1.355 . S
C1191 C1193 1.419 . S
C1192 C1190 1.415 . S
C1192 C1197 1.425 . S
C1192 C1199 1.409 . S
C1193 H1185 0.930 . S
C1193 C1191 1.419 . S
C1193 C1194 1.362 . S
C1194 H1186 0.930 . S
C1194 C1193 1.362 . S
C1194 C1197 1.409 . S
C1195 H1187 0.930 . S
C1195 C1196 1.355 . S
C1195 C1197 1.415 . S
C1196 C1195 1.355 . S
C1196 C1198 1.419 . S
C1197 C1192 1.425 . S
C1197 C1194 1.409 . S
C1197 C1195 1.415 . S
C1198 H1188 0.930 . S
C1198 C1196 1.419 . S
C1198 C1199 1.362 . S
C1199 H1189 0.930 . S
C1199 C1192 1.409 . S
C1199 C1198 1.362 . S
H1200 C1206 0.930 . S
H1201 C1209 0.930 . S
H1202 C1210 0.930 . S
H1203 C1211 0.930 . S
H1204 C1214 0.930 . S
H1205 C1215 0.930 . S
C1206 H1200 0.930 . S
C1206 C1207 1.355 . S
C1206 C1208 1.415 . S
C1207 C1206 1.355 . S
C1207 C1209 1.419 . S
C1208 C1206 1.415 . S
C1208 C1213 1.425 . S
C1208 C1215 1.409 . S
C1209 H1201 0.930 . S
C1209 C1207 1.419 . S
C1209 C1210 1.362 . S
C1210 H1202 0.930 . S
C1210 C1209 1.362 . S
C1210 C1213 1.409 . S
C1211 H1203 0.930 . S
C1211 C1212 1.355 . S
C1211 C1213 1.415 . S
C1212 C1211 1.355 . S
C1212 C1214 1.419 . S
C1213 C1208 1.425 . S
C1213 C1210 1.409 . S
C1213 C1211 1.415 . S
C1214 H1204 0.930 . S
C1214 C1212 1.419 . S
C1214 C1215 1.362 . S
C1215 H1205 0.930 . S
C1215 C1208 1.409 . S
C1215 C1214 1.362 . S
H1216 C1222 0.930 . S
H1217 C1225 0.930 . S
H1218 C1226 0.930 . S
H1219 C1227 0.930 . S
H1220 C1230 0.930 . S
H1221 C1231 0.930 . S
C1222 H1216 0.930 . S
C1222 C1223 1.355 . S
C1222 C1224 1.415 . S
C1223 C1222 1.355 . S
C1223 C1225 1.419 . S
C1224 C1222 1.415 . S
C1224 C1229 1.425 . S
C1224 C1231 1.409 . S
C1225 H1217 0.930 . S
C1225 C1223 1.419 . S
C1225 C1226 1.362 . S
C1226 H1218 0.930 . S
C1226 C1225 1.362 . S
C1226 C1229 1.409 . S
C1227 H1219 0.930 . S
C1227 C1228 1.355 . S
C1227 C1229 1.415 . S
C1228 C1227 1.355 . S
C1228 C1230 1.419 . S
C1229 C1224 1.425 . S
C1229 C1226 1.409 . S
C1229 C1227 1.415 . S
C1230 H1220 0.930 . S
C1230 C1228 1.419 . S
C1230 C1231 1.362 . S
C1231 H1221 0.930 . S
C1231 C1224 1.409 . S
C1231 C1230 1.362 . S
H1232 C1238 0.930 . S
H1233 C1241 0.930 . S
H1234 C1242 0.930 . S
H1235 C1243 0.930 . S
H1236 C1246 0.930 . S
H1237 C1247 0.930 . S
C1238 H1232 0.930 . S
C1238 C1239 1.355 . S
C1238 C1240 1.415 . S
C1239 C1238 1.355 . S
C1239 C1241 1.419 . S
C1240 C1238 1.415 . S
C1240 C1245 1.425 . S
C1240 C1247 1.409 . S
C1241 H1233 0.930 . S
C1241 C1239 1.419 . S
C1241 C1242 1.362 . S
C1242 H1234 0.930 . S
C1242 C1241 1.362 . S
C1242 C1245 1.409 . S
C1243 H1235 0.930 . S
C1243 C1244 1.355 . S
C1243 C1245 1.415 . S
C1244 C1243 1.355 . S
C1244 C1246 1.419 . S
C1245 C1240 1.425 . S
C1245 C1242 1.409 . S
C1245 C1243 1.415 . S
C1246 H1236 0.930 . S
C1246 C1244 1.419 . S
C1246 C1247 1.362 . S
C1247 H1237 0.930 . S
C1247 C1240 1.409 . S
C1247 C1246 1.362 . S
H1248 C1254 0.930 . S
H1249 C1257 0.930 . S
H1250 C1258 0.930 . S
H1251 C1259 0.930 . S
H1252 C1262 0.930 . S
H1253 C1263 0.930 . S
C1254 H1248 0.930 . S
C1254 C1255 1.355 . S
C1254 C1256 1.415 . S
C1255 C1254 1.355 . S
C1255 C1257 1.419 . S
C1256 C1254 1.415 . S
C1256 C1261 1.425 . S
C1256 C1263 1.409 . S
C1257 H1249 0.930 . S
C1257 C1255 1.419 . S
C1257 C1258 1.362 . S
C1258 H1250 0.930 . S
C1258 C1257 1.362 . S
C1258 C1261 1.409 . S
C1259 H1251 0.930 . S
C1259 C1260 1.355 . S
C1259 C1261 1.415 . S
C1260 C1259 1.355 . S
C1260 C1262 1.419 . S
C1261 C1256 1.425 . S
C1261 C1258 1.409 . S
C1261 C1259 1.415 . S
C1262 H1252 0.930 . S
C1262 C1260 1.419 . S
C1262 C1263 1.362 . S
C1263 H1253 0.930 . S
C1263 C1256 1.409 . S
C1263 C1262 1.362 . S
H1264 C1270 0.949 . S
H1265 C1273 0.930 . S
H1266 C1274 0.930 . S
H1267 C1275 0.930 . S
H1268 C1278 0.930 . S
H1269 C1279 0.930 . S
C1270 H1264 0.949 . S
C1270 C1271 1.333 1_565 S
C1270 C1272 1.419 . S
C1271 C1270 1.333 1_545 S
C1271 C1273 1.419 . S
C1272 C1270 1.419 . S
C1272 C1277 1.425 1_565 S
C1272 C1279 1.409 . S
C1273 H1265 0.930 . S
C1273 C1271 1.419 . S
C1273 C1274 1.362 . S
C1274 H1266 0.930 . S
C1274 C1273 1.362 . S
C1274 C1277 1.409 . S
C1275 H1267 0.930 . S
C1275 C1276 1.355 1_545 S
C1275 C1277 1.415 . S
C1276 C1275 1.355 1_565 S
C1276 C1278 1.419 . S
C1277 C1272 1.425 1_545 S
C1277 C1274 1.409 . S
C1277 C1275 1.415 . S
C1278 H1268 0.930 . S
C1278 C1276 1.419 . S
C1278 C1279 1.362 . S
C1279 H1269 0.930 . S
C1279 C1272 1.409 . S
C1279 C1278 1.362 . S
H1280 C1286 0.930 . S
H1281 C1289 0.930 . S
H1282 C1290 0.930 . S
H1283 C1291 0.930 . S
H1284 C1294 0.930 . S
H1285 C1295 0.930 . S
C1286 H1280 0.930 . S
C1286 C1287 1.355 . S
C1286 C1288 1.415 . S
C1287 C1286 1.355 . S
C1287 C1289 1.419 . S
C1288 C1286 1.415 . S
C1288 C1293 1.425 . S
C1288 C1295 1.409 . S
C1289 H1281 0.930 . S
C1289 C1287 1.419 . S
C1289 C1290 1.362 . S
C1290 H1282 0.930 . S
C1290 C1289 1.362 . S
C1290 C1293 1.409 . S
C1291 H1283 0.930 . S
C1291 C1292 1.355 . S
C1291 C1293 1.415 . S
C1292 C1291 1.355 . S
C1292 C1294 1.419 . S
C1293 C1288 1.425 . S
C1293 C1290 1.409 . S
C1293 C1291 1.415 . S
C1294 H1284 0.930 . S
C1294 C1292 1.419 . S
C1294 C1295 1.362 . S
C1295 H1285 0.930 . S
C1295 C1288 1.409 . S
C1295 C1294 1.362 . S
H1296 C1302 0.930 1_556 S
H1297 C1305 0.930 . S
H1298 C1306 0.930 . S
H1299 C1307 0.930 . S
H1300 C1310 0.930 . S
H1301 C1311 0.930 . S
C1302 H1296 0.930 1_554 S
C1302 C1303 1.355 . S
C1302 C1304 1.415 . S
C1303 C1302 1.355 . S
C1303 C1305 1.419 . S
C1304 C1302 1.415 . S
C1304 C1309 1.425 . S
C1304 C1311 1.409 1_554 S
C1305 H1297 0.930 . S
C1305 C1303 1.419 . S
C1305 C1306 1.362 . S
C1306 H1298 0.930 . S
C1306 C1305 1.362 . S
C1306 C1309 1.409 . S
C1307 H1299 0.930 . S
C1307 C1308 1.355 . S
C1307 C1309 1.415 . S
C1308 C1307 1.355 . S
C1308 C1310 1.419 1_554 S
C1309 C1304 1.425 . S
C1309 C1306 1.409 . S
C1309 C1307 1.415 . S
C1310 H1300 0.930 . S
C1310 C1308 1.419 1_556 S
C1310 C1311 1.362 . S
C1311 H1301 0.930 . S
C1311 C1304 1.409 1_556 S
C1311 C1310 1.362 . S
H1312 C1318 0.930 . S
H1313 C1321 0.930 . S
H1314 C1322 0.930 . S
H1315 C1323 0.930 . S
H1316 C1326 0.930 . S
H1317 C1327 0.930 . S
C1318 H1312 0.930 . S
C1318 C1319 1.355 . S
C1318 C1320 1.415 . S
C1319 C1318 1.355 . S
C1319 C1321 1.419 . S
C1320 C1318 1.415 . S
C1320 C1325 1.425 . S
C1320 C1327 1.409 . S
C1321 H1313 0.930 . S
C1321 C1319 1.419 . S
C1321 C1322 1.362 . S
C1322 H1314 0.930 . S
C1322 C1321 1.362 . S
C1322 C1325 1.409 . S
C1323 H1315 0.930 . S
C1323 C1324 1.355 . S
C1323 C1325 1.415 . S
C1324 C1323 1.355 . S
C1324 C1326 1.419 . S
C1325 C1320 1.425 . S
C1325 C1322 1.409 . S
C1325 C1323 1.415 . S
C1326 H1316 0.930 . S
C1326 C1324 1.419 . S
C1326 C1327 1.362 . S
C1327 H1317 0.930 . S
C1327 C1320 1.409 . S
C1327 C1326 1.362 . S
H1328 C1334 0.930 . S
H1329 C1337 0.930 . S
H1330 C1338 0.930 . S
H1331 C1339 0.930 . S
H1332 C1342 0.930 . S
H1333 C1343 0.930 . S
C1334 H1328 0.930 . S
C1334 C1335 1.355 . S
C1334 C1336 1.415 . S
C1335 C1334 1.355 . S
C1335 C1337 1.419 . S
C1336 C1334 1.415 . S
C1336 C1341 1.425 . S
C1336 C1343 1.409 . S
C1337 H1329 0.930 . S
C1337 C1335 1.419 . S
C1337 C1338 1.362 . S
C1338 H1330 0.930 . S
C1338 C1337 1.362 . S
C1338 C1341 1.409 . S
C1339 H1331 0.930 . S
C1339 C1340 1.355 . S
C1339 C1341 1.415 . S
C1340 C1339 1.355 . S
C1340 C1342 1.419 . S
C1341 C1336 1.425 . S
C1341 C1338 1.409 . S
C1341 C1339 1.415 . S
C1342 H1332 0.930 . S
C1342 C1340 1.419 . S
C1342 C1343 1.362 . S
C1343 H1333 0.930 . S
C1343 C1336 1.409 . S
C1343 C1342 1.362 . S
H1344 C1350 0.930 . S
H1345 C1353 0.930 . S
H1346 C1354 0.930 . S
H1347 C1355 0.930 . S
H1348 C1358 0.930 . S
H1349 C1359 0.930 . S
C1350 H1344 0.930 . S
C1350 C1351 1.355 . S
C1350 C1352 1.415 . S
C1351 C1350 1.355 . S
C1351 C1353 1.419 . S
C1352 C1350 1.415 . S
C1352 C1357 1.425 . S
C1352 C1359 1.409 . S
C1353 H1345 0.930 . S
C1353 C1351 1.419 . S
C1353 C1354 1.362 . S
C1354 H1346 0.930 . S
C1354 C1353 1.362 . S
C1354 C1357 1.409 . S
C1355 H1347 0.930 . S
C1355 C1356 1.355 . S
C1355 C1357 1.415 . S
C1356 C1355 1.355 . S
C1356 C1358 1.419 . S
C1357 C1352 1.425 . S
C1357 C1354 1.409 . S
C1357 C1355 1.415 . S
C1358 H1348 0.930 . S
C1358 C1356 1.419 . S
C1358 C1359 1.362 . S
C1359 H1349 0.930 . S
C1359 C1352 1.409 . S
C1359 C1358 1.362 . S
H1360 C1366 0.930 . S
H1361 C1369 0.930 . S
H1362 C1370 0.930 . S
H1363 C1371 0.930 . S
H1364 C1374 0.930 . S
H1365 C1375 0.930 . S
C1366 H1360 0.930 . S
C1366 C1367 1.355 . S
C1366 C1368 1.415 . S
C1367 C1366 1.355 . S
C1367 C1369 1.419 . S
C1368 C1366 1.415 . S
C1368 C1373 1.425 . S
C1368 C1375 1.409 . S
C1369 H1361 0.930 . S
C1369 C1367 1.419 . S
C1369 C1370 1.362 . S
C1370 H1362 0.930 . S
C1370 C1369 1.362 . S
C1370 C1373 1.409 . S
C1371 H1363 0.930 . S
C1371 C1372 1.355 . S
C1371 C1373 1.415 . S
C1372 C1371 1.355 . S
C1372 C1374 1.419 . S
C1373 C1368 1.425 . S
C1373 C1370 1.409 . S
C1373 C1371 1.415 . S
C1374 H1364 0.930 . S
C1374 C1372 1.419 . S
C1374 C1375 1.362 . S
C1375 H1365 0.930 . S
C1375 C1368 1.409 . S
C1375 C1374 1.362 . S
H1376 C1382 0.930 . S
H1377 C1385 0.930 . S
H1378 C1386 0.930 . S
H1379 C1387 0.930 . S
H1380 C1390 0.922 1_545 S
H1381 C1391 0.930 . S
C1382 H1376 0.930 . S
C1382 C1383 1.355 . S
C1382 C1384 1.415 . S
C1383 C1382 1.355 . S
C1383 C1385 1.419 . S
C1384 C1382 1.415 . S
C1384 C1389 1.425 . S
C1384 C1391 1.409 . S
C1385 H1377 0.930 . S
C1385 C1383 1.419 . S
C1385 C1386 1.362 . S
C1386 H1378 0.930 . S
C1386 C1385 1.362 . S
C1386 C1389 1.409 . S
C1387 H1379 0.930 . S
C1387 C1388 1.355 . S
C1387 C1389 1.415 . S
C1388 C1387 1.355 . S
C1388 C1390 1.419 . S
C1389 C1384 1.425 . S
C1389 C1386 1.409 . S
C1389 C1387 1.415 . S
C1390 H1380 0.922 1_565 S
C1390 C1388 1.419 . S
C1390 C1391 1.362 . S
C1391 H1381 0.930 . S
C1391 C1384 1.409 . S
C1391 C1390 1.362 . S
H1392 C1398 0.930 . S
H1393 C1401 0.930 . S
H1394 C1402 0.930 . S
H1395 C1403 0.930 . S
H1396 C1406 0.930 . S
H1397 C1407 0.930 . S
C1398 H1392 0.930 . S
C1398 C1399 1.355 . S
C1398 C1400 1.415 . S
C1399 C1398 1.355 . S
C1399 C1401 1.419 . S
C1400 C1398 1.415 . S
C1400 C1405 1.425 . S
C1400 C1407 1.409 . S
C1401 H1393 0.930 . S
C1401 C1399 1.419 . S
C1401 C1402 1.362 . S
C1402 H1394 0.930 . S
C1402 C1401 1.362 . S
C1402 C1405 1.409 . S
C1403 H1395 0.930 . S
C1403 C1404 1.355 . S
C1403 C1405 1.415 . S
C1404 C1403 1.355 . S
C1404 C1406 1.419 . S
C1405 C1400 1.425 . S
C1405 C1402 1.409 . S
C1405 C1403 1.415 . S
C1406 H1396 0.930 . S
C1406 C1404 1.419 . S
C1406 C1407 1.362 . S
C1407 H1397 0.930 . S
C1407 C1400 1.409 . S
C1407 C1406 1.362 . S
H1408 C1414 0.930 . S
H1409 C1417 0.930 . S
H1410 C1418 0.930 . S
H1411 C1419 0.930 . S
H1412 C1422 0.930 . S
H1413 C1423 0.930 . S
C1414 H1408 0.930 . S
C1414 C1415 1.355 . S
C1414 C1416 1.415 . S
C1415 C1414 1.355 . S
C1415 C1417 1.419 . S
C1416 C1414 1.415 . S
C1416 C1421 1.425 . S
C1416 C1423 1.409 . S
C1417 H1409 0.930 . S
C1417 C1415 1.419 . S
C1417 C1418 1.362 . S
C1418 H1410 0.930 . S
C1418 C1417 1.362 . S
C1418 C1421 1.409 . S
C1419 H1411 0.930 . S
C1419 C1420 1.355 . S
C1419 C1421 1.415 . S
C1420 C1419 1.355 . S
C1420 C1422 1.419 . S
C1421 C1416 1.425 . S
C1421 C1418 1.409 . S
C1421 C1419 1.415 . S
C1422 H1412 0.930 . S
C1422 C1420 1.419 . S
C1422 C1423 1.362 . S
C1423 H1413 0.930 . S
C1423 C1416 1.409 . S
C1423 C1422 1.362 . S
H1424 C1430 0.930 . S
H1425 C1433 0.930 . S
H1426 C1434 0.930 . S
H1427 C1435 0.930 . S
H1428 C1438 0.930 . S
H1429 C1439 0.930 . S
C1430 H1424 0.930 . S
C1430 C1431 1.355 . S
C1430 C1432 1.415 . S
C1431 C1430 1.355 . S
C1431 C1433 1.419 . S
C1432 C1430 1.415 . S
C1432 C1437 1.425 . S
C1432 C1439 1.409 . S
C1433 H1425 0.930 . S
C1433 C1431 1.419 . S
C1433 C1434 1.362 . S
C1434 H1426 0.930 . S
C1434 C1433 1.362 . S
C1434 C1437 1.409 . S
C1435 H1427 0.930 . S
C1435 C1436 1.355 . S
C1435 C1437 1.415 . S
C1436 C1435 1.355 . S
C1436 C1438 1.419 . S
C1437 C1432 1.425 . S
C1437 C1434 1.409 . S
C1437 C1435 1.415 . S
C1438 H1428 0.930 . S
C1438 C1436 1.419 . S
C1438 C1439 1.362 . S
C1439 H1429 0.930 . S
C1439 C1432 1.409 . S
C1439 C1438 1.362 . S
H1440 C1446 0.930 . S
H1441 C1449 0.930 . S
H1442 C1450 0.930 . S
H1443 C1451 0.930 . S
H1444 C1454 0.930 . S
H1445 C1455 0.930 . S
C1446 H1440 0.930 . S
C1446 C1447 1.355 . S
C1446 C1448 1.415 . S
C1447 C1446 1.355 . S
C1447 C1449 1.419 . S
C1448 C1446 1.415 . S
C1448 C1453 1.425 . S
C1448 C1455 1.409 . S
C1449 H1441 0.930 . S
C1449 C1447 1.419 . S
C1449 C1450 1.362 . S
C1450 H1442 0.930 . S
C1450 C1449 1.362 . S
C1450 C1453 1.409 . S
C1451 H1443 0.930 . S
C1451 C1452 1.355 . S
C1451 C1453 1.415 . S
C1452 C1451 1.355 . S
C1452 C1454 1.419 . S
C1453 C1448 1.425 . S
C1453 C1450 1.409 . S
C1453 C1451 1.415 . S
C1454 H1444 0.930 . S
C1454 C1452 1.419 . S
C1454 C1455 1.362 . S
C1455 H1445 0.930 . S
C1455 C1448 1.409 . S
C1455 C1454 1.362 . S
H1456 C1462 0.930 . S
H1457 C1465 0.930 . S
H1458 C1466 0.930 . S
H1459 C1467 0.930 . S
H1460 C1470 0.930 . S
H1461 C1471 0.930 . S
C1462 H1456 0.930 . S
C1462 C1463 1.358 . S
C1462 C1464 1.415 . S
C1463 C1462 1.358 . S
C1463 C1465 1.414 1_455 S
C1464 C1462 1.415 . S
C1464 C1469 1.425 1_455 S
C1464 C1471 1.409 . S
C1465 H1457 0.930 . S
C1465 C1463 1.414 1_655 S
C1465 C1466 1.362 . S
C1466 H1458 0.930 . S
C1466 C1465 1.362 . S
C1466 C1469 1.409 . S
C1467 H1459 0.930 . S
C1467 C1468 1.355 1_656 S
C1467 C1469 1.415 . S
C1468 C1467 1.355 1_454 S
C1468 C1470 1.419 . S
C1469 C1464 1.425 1_655 S
C1469 C1466 1.409 . S
C1469 C1467 1.415 . S
C1470 H1460 0.930 . S
C1470 C1468 1.419 . S
C1470 C1471 1.362 1_554 S
C1471 H1461 0.930 . S
C1471 C1464 1.409 . S
C1471 C1470 1.362 1_556 S
H1472 C1478 0.930 . S
H1473 C1481 0.930 . S
H1474 C1482 0.930 . S
H1475 C1483 0.930 . S
H1476 C1486 0.930 . S
H1477 C1487 0.930 . S
C1478 H1472 0.930 . S
C1478 C1479 1.355 . S
C1478 C1480 1.415 . S
C1479 C1478 1.355 . S
C1479 C1481 1.419 . S
C1480 C1478 1.415 . S
C1480 C1485 1.425 . S
C1480 C1487 1.409 . S
C1481 H1473 0.930 . S
C1481 C1479 1.419 . S
C1481 C1482 1.362 . S
C1482 H1474 0.930 . S
C1482 C1481 1.362 . S
C1482 C1485 1.409 . S
C1483 H1475 0.930 . S
C1483 C1484 1.355 . S
C1483 C1485 1.415 . S
C1484 C1483 1.355 . S
C1484 C1486 1.419 . S
C1485 C1480 1.425 . S
C1485 C1482 1.409 . S
C1485 C1483 1.415 . S
C1486 H1476 0.930 . S
C1486 C1484 1.419 . S
C1486 C1487 1.362 . S
C1487 H1477 0.930 . S
C1487 C1480 1.409 . S
C1487 C1486 1.362 . S
H1488 C1494 0.930 . S
H1489 C1497 0.930 . S
H1490 C1498 0.930 . S
H1491 C1499 0.930 . S
H1492 C1502 0.930 . S
H1493 C1503 0.930 . S
C1494 H1488 0.930 . S
C1494 C1495 1.355 . S
C1494 C1496 1.415 . S
C1495 C1494 1.355 . S
C1495 C1497 1.419 . S
C1496 C1494 1.415 . S
C1496 C1501 1.425 . S
C1496 C1503 1.409 . S
C1497 H1489 0.930 . S
C1497 C1495 1.419 . S
C1497 C1498 1.362 . S
C1498 H1490 0.930 . S
C1498 C1497 1.362 . S
C1498 C1501 1.409 . S
C1499 H1491 0.930 . S
C1499 C1500 1.355 . S
C1499 C1501 1.415 . S
C1500 C1499 1.355 . S
C1500 C1502 1.419 . S
C1501 C1496 1.425 . S
C1501 C1498 1.409 . S
C1501 C1499 1.415 . S
C1502 H1492 0.930 . S
C1502 C1500 1.419 . S
C1502 C1503 1.362 . S
C1503 H1493 0.930 . S
C1503 C1496 1.409 . S
C1503 C1502 1.362 . S
H1504 C1510 0.930 . S
H1505 C1513 0.930 . S
H1506 C1514 0.930 . S
H1507 C1515 0.930 . S
H1508 C1518 0.930 . S
H1509 C1519 0.930 . S
C1510 H1504 0.930 . S
C1510 C1511 1.355 . S
C1510 C1512 1.415 . S
C1511 C1510 1.355 . S
C1511 C1513 1.419 . S
C1512 C1510 1.415 . S
C1512 C1517 1.425 . S
C1512 C1519 1.409 . S
C1513 H1505 0.930 . S
C1513 C1511 1.419 . S
C1513 C1514 1.362 . S
C1514 H1506 0.930 . S
C1514 C1513 1.362 . S
C1514 C1517 1.409 . S
C1515 H1507 0.930 . S
C1515 C1516 1.355 . S
C1515 C1517 1.415 . S
C1516 C1515 1.355 . S
C1516 C1518 1.419 . S
C1517 C1512 1.425 . S
C1517 C1514 1.409 . S
C1517 C1515 1.415 . S
C1518 H1508 0.930 . S
C1518 C1516 1.419 . S
C1518 C1519 1.362 . S
C1519 H1509 0.930 . S
C1519 C1512 1.409 . S
C1519 C1518 1.362 . S
H1520 C1526 0.930 . S
H1521 C1529 0.930 . S
H1522 C1530 0.930 . S
H1523 C1531 0.930 . S
H1524 C1534 0.930 . S
H1525 C1535 0.930 . S
C1526 H1520 0.930 . S
C1526 C1527 1.355 1_455 S
C1526 C1528 1.415 . S
C1527 C1526 1.355 1_655 S
C1527 C1529 1.419 . S
C1528 C1526 1.415 . S
C1528 C1533 1.425 1_455 S
C1528 C1535 1.409 . S
C1529 H1521 0.930 . S
C1529 C1527 1.419 . S
C1529 C1530 1.362 . S
C1530 H1522 0.930 . S
C1530 C1529 1.362 . S
C1530 C1533 1.409 . S
C1531 H1523 0.930 . S
C1531 C1532 1.355 1_655 S
C1531 C1533 1.415 . S
C1532 C1531 1.355 1_455 S
C1532 C1534 1.419 . S
C1533 C1528 1.425 1_655 S
C1533 C1530 1.409 . S
C1533 C1531 1.415 . S
C1534 H1524 0.930 . S
C1534 C1532 1.419 . S
C1534 C1535 1.362 . S
C1535 H1525 0.930 . S
C1535 C1528 1.409 . S
C1535 C1534 1.362 . S
H1536 C1542 0.930 . S
H1537 C1545 0.930 . S
H1538 C1546 0.930 . S
H1539 C1547 0.930 . S
H1540 C1550 0.930 . S
H1541 C1551 0.930 . S
C1542 H1536 0.930 . S
C1542 C1543 1.355 . S
C1542 C1544 1.415 . S
C1543 C1542 1.355 . S
C1543 C1545 1.419 . S
C1544 C1542 1.415 . S
C1544 C1549 1.425 . S
C1544 C1551 1.409 . S
C1545 H1537 0.930 . S
C1545 C1543 1.419 . S
C1545 C1546 1.362 . S
C1546 H1538 0.930 . S
C1546 C1545 1.362 . S
C1546 C1549 1.409 . S
C1547 H1539 0.930 . S
C1547 C1548 1.355 . S
C1547 C1549 1.415 . S
C1548 C1547 1.355 . S
C1548 C1550 1.419 . S
C1549 C1544 1.425 . S
C1549 C1546 1.409 . S
C1549 C1547 1.415 . S
C1550 H1540 0.930 . S
C1550 C1548 1.419 . S
C1550 C1551 1.362 . S
C1551 H1541 0.930 . S
C1551 C1544 1.409 . S
C1551 C1550 1.362 . S
H1552 C1558 0.930 . S
H1553 C1561 0.930 . S
H1554 C1562 0.930 . S
H1555 C1563 0.930 . S
H1556 C1566 0.930 . S
H1557 C1567 0.930 . S
C1558 H1552 0.930 . S
C1558 C1559 1.355 . S
C1558 C1560 1.415 . S
C1559 C1558 1.355 . S
C1559 C1561 1.419 . S
C1560 C1558 1.415 . S
C1560 C1565 1.425 . S
C1560 C1567 1.409 . S
C1561 H1553 0.930 . S
C1561 C1559 1.419 . S
C1561 C1562 1.362 . S
C1562 H1554 0.930 . S
C1562 C1561 1.362 . S
C1562 C1565 1.409 . S
C1563 H1555 0.930 . S
C1563 C1564 1.355 . S
C1563 C1565 1.415 . S
C1564 C1563 1.355 . S
C1564 C1566 1.419 . S
C1565 C1560 1.425 . S
C1565 C1562 1.409 . S
C1565 C1563 1.415 . S
C1566 H1556 0.930 . S
C1566 C1564 1.419 . S
C1566 C1567 1.362 . S
C1567 H1557 0.930 . S
C1567 C1560 1.409 . S
C1567 C1566 1.362 . S
H1568 C1574 0.930 . S
H1569 C1577 0.930 . S
H1570 C1578 0.930 . S
H1571 C1579 0.930 . S
H1572 C1582 0.930 . S
H1573 C1583 0.930 . S
C1574 H1568 0.930 . S
C1574 C1575 1.355 . S
C1574 C1576 1.415 . S
C1575 C1574 1.355 . S
C1575 C1577 1.419 . S
C1576 C1574 1.415 . S
C1576 C1581 1.425 . S
C1576 C1583 1.409 . S
C1577 H1569 0.930 . S
C1577 C1575 1.419 . S
C1577 C1578 1.362 . S
C1578 H1570 0.930 . S
C1578 C1577 1.362 . S
C1578 C1581 1.409 . S
C1579 H1571 0.930 . S
C1579 C1580 1.355 . S
C1579 C1581 1.415 . S
C1580 C1579 1.355 . S
C1580 C1582 1.419 . S
C1581 C1576 1.425 . S
C1581 C1578 1.409 . S
C1581 C1579 1.415 . S
C1582 H1572 0.930 . S
C1582 C1580 1.419 . S
C1582 C1583 1.362 . S
C1583 H1573 0.930 . S
C1583 C1576 1.409 . S
C1583 C1582 1.362 . S
H1584 C1590 0.930 . S
H1585 C1593 0.930 . S
H1586 C1594 0.930 . S
H1587 C1595 0.930 . S
H1588 C1598 0.930 . S
H1589 C1599 0.930 . S
C1590 H1584 0.930 . S
C1590 C1591 1.355 . S
C1590 C1592 1.415 . S
C1591 C1590 1.355 . S
C1591 C1593 1.419 . S
C1592 C1590 1.415 . S
C1592 C1597 1.425 . S
C1592 C1599 1.409 . S
C1593 H1585 0.930 . S
C1593 C1591 1.419 . S
C1593 C1594 1.362 . S
C1594 H1586 0.930 . S
C1594 C1593 1.362 . S
C1594 C1597 1.409 . S
C1595 H1587 0.930 . S
C1595 C1596 1.355 . S
C1595 C1597 1.415 . S
C1596 C1595 1.355 . S
C1596 C1598 1.419 . S
C1597 C1592 1.425 . S
C1597 C1594 1.409 . S
C1597 C1595 1.415 . S
C1598 H1588 0.930 . S
C1598 C1596 1.419 . S
C1598 C1599 1.362 . S
C1599 H1589 0.930 . S
C1599 C1592 1.409 . S
C1599 C1598 1.362 . S
H1600 C1606 0.930 . S
H1601 C1609 0.930 . S
H1602 C1610 0.930 . S
H1603 C1611 0.930 . S
H1604 C1614 0.930 . S
H1605 C1615 0.930 . S
C1606 H1600 0.930 . S
C1606 C1607 1.355 . S
C1606 C1608 1.415 . S
C1607 C1606 1.355 . S
C1607 C1609 1.419 . S
C1608 C1606 1.415 . S
C1608 C1613 1.425 . S
C1608 C1615 1.409 . S
C1609 H1601 0.930 . S
C1609 C1607 1.419 . S
C1609 C1610 1.362 . S
C1610 H1602 0.930 . S
C1610 C1609 1.362 . S
C1610 C1613 1.409 . S
C1611 H1603 0.930 . S
C1611 C1612 1.355 . S
C1611 C1613 1.415 . S
C1612 C1611 1.355 . S
C1612 C1614 1.419 . S
C1613 C1608 1.425 . S
C1613 C1610 1.409 . S
C1613 C1611 1.415 . S
C1614 H1604 0.930 . S
C1614 C1612 1.419 . S
C1614 C1615 1.362 . S
C1615 H1605 0.930 . S
C1615 C1608 1.409 . S
C1615 C1614 1.362 . S
H1616 C1622 0.930 . S
H1617 C1625 0.930 . S
H1618 C1626 0.930 . S
H1619 C1627 0.930 . S
H1620 C1630 0.930 . S
H1621 C1631 0.930 . S
C1622 H1616 0.930 . S
C1622 C1623 1.355 . S
C1622 C1624 1.415 . S
C1623 C1622 1.355 . S
C1623 C1625 1.419 . S
C1624 C1622 1.415 . S
C1624 C1629 1.425 . S
C1624 C1631 1.409 . S
C1625 H1617 0.930 . S
C1625 C1623 1.419 . S
C1625 C1626 1.362 . S
C1626 H1618 0.930 . S
C1626 C1625 1.362 . S
C1626 C1629 1.409 . S
C1627 H1619 0.930 . S
C1627 C1628 1.355 . S
C1627 C1629 1.415 . S
C1628 C1627 1.355 . S
C1628 C1630 1.419 . S
C1629 C1624 1.425 . S
C1629 C1626 1.409 . S
C1629 C1627 1.415 . S
C1630 H1620 0.930 . S
C1630 C1628 1.419 . S
C1630 C1631 1.362 . S
C1631 H1621 0.930 . S
C1631 C1624 1.409 . S
C1631 C1630 1.362 . S
H1632 C1638 0.930 . S
H1633 C1641 0.930 . S
H1634 C1642 0.930 . S
H1635 C1643 0.930 . S
H1636 C1646 0.930 . S
H1637 C1647 0.930 . S
C1638 H1632 0.930 . S
C1638 C1639 1.355 . S
C1638 C1640 1.415 . S
C1639 C1638 1.355 . S
C1639 C1641 1.419 . S
C1640 C1638 1.415 . S
C1640 C1645 1.425 . S
C1640 C1647 1.409 . S
C1641 H1633 0.930 . S
C1641 C1639 1.419 . S
C1641 C1642 1.362 . S
C1642 H1634 0.930 . S
C1642 C1641 1.362 . S
C1642 C1645 1.409 . S
C1643 H1635 0.930 . S
C1643 C1644 1.355 . S
C1643 C1645 1.415 . S
C1644 C1643 1.355 . S
C1644 C1646 1.419 . S
C1645 C1640 1.425 . S
C1645 C1642 1.409 . S
C1645 C1643 1.415 . S
C1646 H1636 0.930 . S
C1646 C1644 1.419 . S
C1646 C1647 1.362 . S
C1647 H1637 0.930 . S
C1647 C1640 1.409 . S
C1647 C1646 1.362 . S
H1648 C1654 0.930 . S
H1649 C1657 0.930 . S
H1650 C1658 0.930 . S
H1651 C1659 0.930 . S
H1652 C1662 0.930 . S
H1653 C1663 0.930 . S
C1654 H1648 0.930 . S
C1654 C1655 1.355 . S
C1654 C1656 1.415 . S
C1655 C1654 1.355 . S
C1655 C1657 1.419 . S
C1656 C1654 1.415 . S
C1656 C1661 1.425 . S
C1656 C1663 1.409 . S
C1657 H1649 0.930 . S
C1657 C1655 1.419 . S
C1657 C1658 1.362 . S
C1658 H1650 0.930 . S
C1658 C1657 1.362 . S
C1658 C1661 1.409 . S
C1659 H1651 0.930 . S
C1659 C1660 1.355 . S
C1659 C1661 1.415 . S
C1660 C1659 1.355 . S
C1660 C1662 1.419 . S
C1661 C1656 1.425 . S
C1661 C1658 1.409 . S
C1661 C1659 1.415 . S
C1662 H1652 0.930 . S
C1662 C1660 1.419 . S
C1662 C1663 1.362 . S
C1663 H1653 0.930 . S
C1663 C1656 1.409 . S
C1663 C1662 1.362 . S
H1664 C1670 0.930 . S
H1665 C1673 0.930 . S
H1666 C1674 0.930 . S
H1667 C1675 0.930 . S
H1668 C1678 0.930 . S
H1669 C1679 0.930 . S
C1670 H1664 0.930 . S
C1670 C1671 1.355 . S
C1670 C1672 1.415 . S
C1671 C1670 1.355 . S
C1671 C1673 1.419 . S
C1672 C1670 1.415 . S
C1672 C1677 1.425 . S
C1672 C1679 1.409 . S
C1673 H1665 0.930 . S
C1673 C1671 1.419 . S
C1673 C1674 1.362 . S
C1674 H1666 0.930 . S
C1674 C1673 1.362 . S
C1674 C1677 1.409 . S
C1675 H1667 0.930 . S
C1675 C1676 1.355 . S
C1675 C1677 1.415 . S
C1676 C1675 1.355 . S
C1676 C1678 1.419 . S
C1677 C1672 1.425 . S
C1677 C1674 1.409 . S
C1677 C1675 1.415 . S
C1678 H1668 0.930 . S
C1678 C1676 1.419 . S
C1678 C1679 1.362 . S
C1679 H1669 0.930 . S
C1679 C1672 1.409 . S
C1679 C1678 1.362 . S
H1680 C1686 0.930 . S
H1681 C1689 0.930 . S
H1682 C1690 0.930 . S
H1683 C1691 0.930 . S
H1684 C1694 0.930 . S
H1685 C1695 0.930 . S
C1686 H1680 0.930 . S
C1686 C1687 1.355 . S
C1686 C1688 1.415 . S
C1687 C1686 1.355 . S
C1687 C1689 1.419 . S
C1688 C1686 1.415 . S
C1688 C1693 1.425 . S
C1688 C1695 1.409 . S
C1689 H1681 0.930 . S
C1689 C1687 1.419 . S
C1689 C1690 1.362 . S
C1690 H1682 0.930 . S
C1690 C1689 1.362 . S
C1690 C1693 1.409 . S
C1691 H1683 0.930 . S
C1691 C1692 1.355 . S
C1691 C1693 1.415 . S
C1692 C1691 1.355 . S
C1692 C1694 1.419 . S
C1693 C1688 1.425 . S
C1693 C1690 1.409 . S
C1693 C1691 1.415 . S
C1694 H1684 0.930 . S
C1694 C1692 1.419 . S
C1694 C1695 1.362 . S
C1695 H1685 0.930 . S
C1695 C1688 1.409 . S
C1695 C1694 1.362 . S
H1696 C1702 0.930 . S
H1697 C1705 0.930 . S
H1698 C1706 0.930 . S
H1699 C1707 0.930 . S
H1700 C1710 0.930 . S
H1701 C1711 0.930 . S
C1702 H1696 0.930 . S
C1702 C1703 1.355 . S
C1702 C1704 1.415 . S
C1703 C1702 1.355 . S
C1703 C1705 1.419 . S
C1704 C1702 1.415 . S
C1704 C1709 1.425 . S
C1704 C1711 1.409 . S
C1705 H1697 0.930 . S
C1705 C1703 1.419 . S
C1705 C1706 1.362 . S
C1706 H1698 0.930 . S
C1706 C1705 1.362 . S
C1706 C1709 1.409 . S
C1707 H1699 0.930 . S
C1707 C1708 1.355 . S
C1707 C1709 1.415 . S
C1708 C1707 1.355 . S
C1708 C1710 1.419 . S
C1709 C1704 1.425 . S
C1709 C1706 1.409 . S
C1709 C1707 1.415 . S
C1710 H1700 0.930 . S
C1710 C1708 1.419 . S
C1710 C1711 1.362 . S
C1711 H1701 0.930 . S
C1711 C1704 1.409 . S
C1711 C1710 1.362 . S
H1712 C1718 0.930 . S
H1713 C1721 0.930 . S
H1714 C1722 0.930 . S
H1715 C1723 0.930 . S
H1716 C1726 0.930 . S
H1717 C1727 0.930 . S
C1718 H1712 0.930 . S
C1718 C1719 1.355 . S
C1718 C1720 1.415 . S
C1719 C1718 1.355 . S
C1719 C1721 1.419 . S
C1720 C1718 1.415 . S
C1720 C1725 1.425 . S
C1720 C1727 1.409 . S
C1721 H1713 0.930 . S
C1721 C1719 1.419 . S
C1721 C1722 1.362 . S
C1722 H1714 0.930 . S
C1722 C1721 1.362 . S
C1722 C1725 1.409 . S
C1723 H1715 0.930 . S
C1723 C1724 1.355 . S
C1723 C1725 1.415 . S
C1724 C1723 1.355 . S
C1724 C1726 1.419 . S
C1725 C1720 1.425 . S
C1725 C1722 1.409 . S
C1725 C1723 1.415 . S
C1726 H1716 0.930 . S
C1726 C1724 1.419 . S
C1726 C1727 1.362 . S
C1727 H1717 0.930 . S
C1727 C1720 1.409 . S
C1727 C1726 1.362 . S
H1728 C1734 0.930 . S
H1729 C1737 0.930 . S
H1730 C1738 0.930 . S
H1731 C1739 0.930 . S
H1732 C1742 0.930 1_545 S
H1733 C1743 0.930 . S
C1734 H1728 0.930 . S
C1734 C1735 1.355 . S
C1734 C1736 1.415 . S
C1735 C1734 1.355 . S
C1735 C1737 1.419 . S
C1736 C1734 1.415 . S
C1736 C1741 1.425 . S
C1736 C1743 1.409 . S
C1737 H1729 0.930 . S
C1737 C1735 1.419 . S
C1737 C1738 1.362 . S
C1738 H1730 0.930 . S
C1738 C1737 1.362 . S
C1738 C1741 1.409 . S
C1739 H1731 0.930 . S
C1739 C1740 1.355 . S
C1739 C1741 1.415 . S
C1740 C1739 1.355 . S
C1740 C1742 1.419 . S
C1741 C1736 1.425 . S
C1741 C1738 1.409 . S
C1741 C1739 1.415 . S
C1742 H1732 0.930 1_565 S
C1742 C1740 1.419 . S
C1742 C1743 1.362 . S
C1743 H1733 0.930 . S
C1743 C1736 1.409 . S
C1743 C1742 1.362 . S
H1744 C1750 0.930 . S
H1745 C1753 0.930 . S
H1746 C1754 0.930 . S
H1747 C1755 0.930 . S
H1748 C1758 0.930 . S
H1749 C1759 0.930 . S
C1750 H1744 0.930 . S
C1750 C1751 1.355 . S
C1750 C1752 1.415 . S
C1751 C1750 1.355 . S
C1751 C1753 1.419 . S
C1752 C1750 1.415 . S
C1752 C1757 1.425 . S
C1752 C1759 1.409 . S
C1753 H1745 0.930 . S
C1753 C1751 1.419 . S
C1753 C1754 1.362 . S
C1754 H1746 0.930 . S
C1754 C1753 1.362 . S
C1754 C1757 1.409 . S
C1755 H1747 0.930 . S
C1755 C1756 1.355 . S
C1755 C1757 1.415 . S
C1756 C1755 1.355 . S
C1756 C1758 1.419 . S
C1757 C1752 1.425 . S
C1757 C1754 1.409 . S
C1757 C1755 1.415 . S
C1758 H1748 0.930 . S
C1758 C1756 1.419 . S
C1758 C1759 1.362 . S
C1759 H1749 0.930 . S
C1759 C1752 1.409 . S
C1759 C1758 1.362 . S
H1760 C1766 0.930 . S
H1761 C1769 0.930 . S
H1762 C1770 0.930 . S
H1763 C1771 0.930 . S
H1764 C1774 0.930 . S
H1765 C1775 0.930 . S
C1766 H1760 0.930 . S
C1766 C1767 1.355 . S
C1766 C1768 1.415 . S
C1767 C1766 1.355 . S
C1767 C1769 1.419 . S
C1768 C1766 1.415 . S
C1768 C1773 1.425 . S
C1768 C1775 1.409 . S
C1769 H1761 0.930 . S
C1769 C1767 1.419 . S
C1769 C1770 1.362 . S
C1770 H1762 0.930 . S
C1770 C1769 1.362 . S
C1770 C1773 1.409 . S
C1771 H1763 0.930 . S
C1771 C1772 1.355 . S
C1771 C1773 1.415 . S
C1772 C1771 1.355 . S
C1772 C1774 1.419 . S
C1773 C1768 1.425 . S
C1773 C1770 1.409 . S
C1773 C1771 1.415 . S
C1774 H1764 0.930 . S
C1774 C1772 1.419 . S
C1774 C1775 1.362 . S
C1775 H1765 0.930 . S
C1775 C1768 1.409 . S
C1775 C1774 1.362 . S
H1776 C1782 0.930 . S
H1777 C1785 0.930 . S
H1778 C1786 0.930 . S
H1779 C1787 0.930 . S
H1780 C1790 0.930 . S
H1781 C1791 0.930 . S
C1782 H1776 0.930 . S
C1782 C1783 1.355 . S
C1782 C1784 1.415 . S
C1783 C1782 1.355 . S
C1783 C1785 1.419 . S
C1784 C1782 1.415 . S
C1784 C1789 1.425 . S
C1784 C1791 1.409 . S
C1785 H1777 0.930 . S
C1785 C1783 1.419 . S
C1785 C1786 1.362 . S
C1786 H1778 0.930 . S
C1786 C1785 1.362 . S
C1786 C1789 1.409 . S
C1787 H1779 0.930 . S
C1787 C1788 1.355 . S
C1787 C1789 1.415 . S
C1788 C1787 1.355 . S
C1788 C1790 1.419 . S
C1789 C1784 1.425 . S
C1789 C1786 1.409 . S
C1789 C1787 1.415 . S
C1790 H1780 0.930 . S
C1790 C1788 1.419 . S
C1790 C1791 1.362 . S
C1791 H1781 0.930 . S
C1791 C1784 1.409 . S
C1791 C1790 1.362 . S
H1792 C1798 0.930 . S
H1793 C1801 0.930 . S
H1794 C1802 0.930 . S
H1795 C1803 0.930 . S
H1796 C1806 0.930 . S
H1797 C1807 0.930 . S
C1798 H1792 0.930 . S
C1798 C1799 1.355 . S
C1798 C1800 1.415 . S
C1799 C1798 1.355 . S
C1799 C1801 1.419 . S
C1800 C1798 1.415 . S
C1800 C1805 1.425 . S
C1800 C1807 1.409 . S
C1801 H1793 0.930 . S
C1801 C1799 1.419 . S
C1801 C1802 1.362 . S
C1802 H1794 0.930 . S
C1802 C1801 1.362 . S
C1802 C1805 1.409 . S
C1803 H1795 0.930 . S
C1803 C1804 1.355 . S
C1803 C1805 1.415 . S
C1804 C1803 1.355 . S
C1804 C1806 1.419 . S
C1805 C1800 1.425 . S
C1805 C1802 1.409 . S
C1805 C1803 1.415 . S
C1806 H1796 0.930 . S
C1806 C1804 1.419 . S
C1806 C1807 1.362 . S
C1807 H1797 0.930 . S
C1807 C1800 1.409 . S
C1807 C1806 1.362 . S
H1808 C1814 0.930 . S
H1809 C1817 0.930 . S
H1810 C1818 0.930 . S
H1811 C1819 0.930 . S
H1812 C1822 0.930 . S
H1813 C1823 0.930 . S
C1814 H1808 0.930 . S
C1814 C1815 1.355 . S
C1814 C1816 1.415 . S
C1815 C1814 1.355 . S
C1815 C1817 1.419 . S
C1816 C1814 1.415 . S
C1816 C1821 1.425 . S
C1816 C1823 1.409 . S
C1817 H1809 0.930 . S
C1817 C1815 1.419 . S
C1817 C1818 1.362 . S
C1818 H1810 0.930 . S
C1818 C1817 1.362 . S
C1818 C1821 1.409 . S
C1819 H1811 0.930 . S
C1819 C1820 1.355 . S
C1819 C1821 1.415 . S
C1820 C1819 1.355 . S
C1820 C1822 1.419 . S
C1821 C1816 1.425 . S
C1821 C1818 1.409 . S
C1821 C1819 1.415 . S
C1822 H1812 0.930 . S
C1822 C1820 1.419 . S
C1822 C1823 1.362 . S
C1823 H1813 0.930 . S
C1823 C1816 1.409 . S
C1823 C1822 1.362 . S
H1824 C1830 0.930 . S
H1825 C1833 0.930 . S
H1826 C1834 0.930 . S
H1827 C1835 0.930 . S
H1828 C1838 0.930 . S
H1829 C1839 0.930 . S
C1830 H1824 0.930 . S
C1830 C1831 1.355 . S
C1830 C1832 1.415 . S
C1831 C1830 1.355 . S
C1831 C1833 1.419 . S
C1832 C1830 1.415 . S
C1832 C1837 1.425 . S
C1832 C1839 1.409 . S
C1833 H1825 0.930 . S
C1833 C1831 1.419 . S
C1833 C1834 1.362 . S
C1834 H1826 0.930 . S
C1834 C1833 1.362 . S
C1834 C1837 1.409 . S
C1835 H1827 0.930 . S
C1835 C1836 1.355 . S
C1835 C1837 1.415 . S
C1836 C1835 1.355 . S
C1836 C1838 1.419 . S
C1837 C1832 1.425 . S
C1837 C1834 1.409 . S
C1837 C1835 1.415 . S
C1838 H1828 0.930 . S
C1838 C1836 1.419 . S
C1838 C1839 1.362 . S
C1839 H1829 0.930 . S
C1839 C1832 1.409 . S
C1839 C1838 1.362 . S
H1840 C1846 0.930 . S
H1841 C1849 0.930 . S
H1842 C1850 0.930 . S
H1843 C1851 0.930 . S
H1844 C1854 0.930 . S
H1845 C1855 0.930 . S
C1846 H1840 0.930 . S
C1846 C1847 1.355 . S
C1846 C1848 1.415 . S
C1847 C1846 1.355 . S
C1847 C1849 1.419 . S
C1848 C1846 1.415 . S
C1848 C1853 1.425 . S
C1848 C1855 1.409 . S
C1849 H1841 0.930 . S
C1849 C1847 1.419 . S
C1849 C1850 1.362 . S
C1850 H1842 0.930 . S
C1850 C1849 1.362 . S
C1850 C1853 1.409 . S
C1851 H1843 0.930 . S
C1851 C1852 1.355 . S
C1851 C1853 1.415 . S
C1852 C1851 1.355 . S
C1852 C1854 1.419 . S
C1853 C1848 1.425 . S
C1853 C1850 1.409 . S
C1853 C1851 1.415 . S
C1854 H1844 0.930 . S
C1854 C1852 1.419 . S
C1854 C1855 1.362 . S
C1855 H1845 0.930 . S
C1855 C1848 1.409 . S
C1855 C1854 1.362 . S
H1856 C1862 0.930 . S
H1857 C1865 0.930 . S
H1858 C1866 0.930 . S
H1859 C1867 0.930 . S
H1860 C1870 0.930 . S
H1861 C1871 0.930 . S
C1862 H1856 0.930 . S
C1862 C1863 1.355 . S
C1862 C1864 1.415 . S
C1863 C1862 1.355 . S
C1863 C1865 1.419 . S
C1864 C1862 1.415 . S
C1864 C1869 1.425 . S
C1864 C1871 1.409 . S
C1865 H1857 0.930 . S
C1865 C1863 1.419 . S
C1865 C1866 1.362 . S
C1866 H1858 0.930 . S
C1866 C1865 1.362 . S
C1866 C1869 1.409 . S
C1867 H1859 0.930 . S
C1867 C1868 1.355 . S
C1867 C1869 1.415 . S
C1868 C1867 1.355 . S
C1868 C1870 1.419 . S
C1869 C1864 1.425 . S
C1869 C1866 1.409 . S
C1869 C1867 1.415 . S
C1870 H1860 0.930 . S
C1870 C1868 1.419 . S
C1870 C1871 1.362 . S
C1871 H1861 0.930 . S
C1871 C1864 1.409 . S
C1871 C1870 1.362 . S
H1872 C1878 0.930 . S
H1873 C1881 0.930 . S
H1874 C1882 0.930 . S
H1875 C1883 0.930 . S
H1876 C1886 0.930 . S
H1877 C1887 0.930 . S
C1878 H1872 0.930 . S
C1878 C1879 1.355 . S
C1878 C1880 1.415 . S
C1879 C1878 1.355 . S
C1879 C1881 1.419 . S
C1880 C1878 1.415 . S
C1880 C1885 1.425 . S
C1880 C1887 1.409 . S
C1881 H1873 0.930 . S
C1881 C1879 1.419 . S
C1881 C1882 1.362 . S
C1882 H1874 0.930 . S
C1882 C1881 1.362 . S
C1882 C1885 1.409 . S
C1883 H1875 0.930 . S
C1883 C1884 1.355 . S
C1883 C1885 1.415 . S
C1884 C1883 1.355 . S
C1884 C1886 1.419 . S
C1885 C1880 1.425 . S
C1885 C1882 1.409 . S
C1885 C1883 1.415 . S
C1886 H1876 0.930 . S
C1886 C1884 1.419 . S
C1886 C1887 1.362 . S
C1887 H1877 0.930 . S
C1887 C1880 1.409 . S
C1887 C1886 1.362 . S
H1888 C1894 0.930 . S
H1889 C1897 0.930 . S
H1890 C1898 0.930 . S
H1891 C1899 0.930 . S
H1892 C1902 0.930 . S
H1893 C1903 0.930 . S
C1894 H1888 0.930 . S
C1894 C1895 1.355 . S
C1894 C1896 1.415 . S
C1895 C1894 1.355 . S
C1895 C1897 1.419 . S
C1896 C1894 1.415 . S
C1896 C1901 1.425 . S
C1896 C1903 1.409 . S
C1897 H1889 0.930 . S
C1897 C1895 1.419 . S
C1897 C1898 1.362 . S
C1898 H1890 0.930 . S
C1898 C1897 1.362 . S
C1898 C1901 1.409 . S
C1899 H1891 0.930 . S
C1899 C1900 1.355 . S
C1899 C1901 1.415 . S
C1900 C1899 1.355 . S
C1900 C1902 1.419 . S
C1901 C1896 1.425 . S
C1901 C1898 1.409 . S
C1901 C1899 1.415 . S
C1902 H1892 0.930 . S
C1902 C1900 1.419 . S
C1902 C1903 1.362 . S
C1903 H1893 0.930 . S
C1903 C1896 1.409 . S
C1903 C1902 1.362 . S
H1904 C1910 0.930 . S
H1905 C1913 0.930 1_655 S
H1906 C1914 0.930 1_655 S
H1907 C1915 0.930 1_655 S
H1908 C1918 0.930 . S
H1909 C1919 0.930 . S
C1910 H1904 0.930 . S
C1910 C1911 1.355 . S
C1910 C1912 1.415 . S
C1911 C1910 1.355 . S
C1911 C1913 1.419 . S
C1912 C1910 1.415 . S
C1912 C1917 1.425 . S
C1912 C1919 1.409 . S
C1913 H1905 0.930 1_455 S
C1913 C1911 1.419 . S
C1913 C1914 1.362 . S
C1914 H1906 0.930 1_455 S
C1914 C1913 1.362 . S
C1914 C1917 1.409 . S
C1915 H1907 0.930 1_455 S
C1915 C1916 1.355 . S
C1915 C1917 1.415 . S
C1916 C1915 1.355 . S
C1916 C1918 1.419 . S
C1917 C1912 1.425 . S
C1917 C1914 1.409 . S
C1917 C1915 1.415 . S
C1918 H1908 0.930 . S
C1918 C1916 1.419 . S
C1918 C1919 1.362 . S
C1919 H1909 0.930 . S
C1919 C1912 1.409 . S
C1919 C1918 1.362 . S
H1920 C1926 0.930 . S
H1921 C1929 0.930 . S
H1922 C1930 0.930 . S
H1923 C1931 0.930 . S
H1924 C1934 0.930 . S
H1925 C1935 0.930 . S
C1926 H1920 0.930 . S
C1926 C1927 1.355 . S
C1926 C1928 1.415 . S
C1927 C1926 1.355 . S
C1927 C1929 1.419 . S
C1928 C1926 1.415 . S
C1928 C1933 1.425 . S
C1928 C1935 1.409 . S
C1929 H1921 0.930 . S
C1929 C1927 1.419 . S
C1929 C1930 1.362 . S
C1930 H1922 0.930 . S
C1930 C1929 1.362 . S
C1930 C1933 1.409 . S
C1931 H1923 0.930 . S
C1931 C1932 1.355 . S
C1931 C1933 1.415 . S
C1932 C1931 1.355 . S
C1932 C1934 1.419 . S
C1933 C1928 1.425 . S
C1933 C1930 1.409 . S
C1933 C1931 1.415 . S
C1934 H1924 0.930 . S
C1934 C1932 1.419 . S
C1934 C1935 1.362 . S
C1935 H1925 0.930 . S
C1935 C1928 1.409 . S
C1935 C1934 1.362 . S
H1936 C1942 0.930 . S
H1937 C1945 0.930 . S
H1938 C1946 0.930 . S
H1939 C1947 0.930 . S
H1940 C1950 0.930 . S
H1941 C1951 0.930 . S
C1942 H1936 0.930 . S
C1942 C1943 1.355 . S
C1942 C1944 1.415 . S
C1943 C1942 1.355 . S
C1943 C1945 1.419 . S
C1944 C1942 1.415 . S
C1944 C1949 1.425 . S
C1944 C1951 1.409 . S
C1945 H1937 0.930 . S
C1945 C1943 1.419 . S
C1945 C1946 1.362 . S
C1946 H1938 0.930 . S
C1946 C1945 1.362 . S
C1946 C1949 1.409 . S
C1947 H1939 0.930 . S
C1947 C1948 1.355 . S
C1947 C1949 1.415 . S
C1948 C1947 1.355 . S
C1948 C1950 1.419 . S
C1949 C1944 1.425 . S
C1949 C1946 1.409 . S
C1949 C1947 1.415 . S
C1950 H1940 0.930 . S
C1950 C1948 1.419 . S
C1950 C1951 1.362 . S
C1951 H1941 0.930 . S
C1951 C1944 1.409 . S
C1951 C1950 1.362 . S
H1952 C1958 0.930 . S
H1953 C1961 0.930 . S
H1954 C1962 0.930 . S
H1955 C1963 0.930 . S
H1956 C1966 0.930 . S
H1957 C1967 0.930 . S
C1958 H1952 0.930 . S
C1958 C1959 1.355 . S
C1958 C1960 1.415 . S
C1959 C1958 1.355 . S
C1959 C1961 1.419 . S
C1960 C1958 1.415 . S
C1960 C1965 1.425 . S
C1960 C1967 1.409 . S
C1961 H1953 0.930 . S
C1961 C1959 1.419 . S
C1961 C1962 1.362 . S
C1962 H1954 0.930 . S
C1962 C1961 1.362 . S
C1962 C1965 1.409 . S
C1963 H1955 0.930 . S
C1963 C1964 1.355 . S
C1963 C1965 1.415 . S
C1964 C1963 1.355 . S
C1964 C1966 1.419 . S
C1965 C1960 1.425 . S
C1965 C1962 1.409 . S
C1965 C1963 1.415 . S
C1966 H1956 0.930 . S
C1966 C1964 1.419 . S
C1966 C1967 1.362 . S
C1967 H1957 0.930 . S
C1967 C1960 1.409 . S
C1967 C1966 1.362 . S
H1968 C1974 0.930 . S
H1969 C1977 0.930 . S
H1970 C1978 0.930 1_455 S
H1971 C1979 0.970 . S
H1972 C1982 0.930 . S
H1973 C1983 0.930 . S
C1974 H1968 0.930 . S
C1974 C1975 1.355 . S
C1974 C1976 1.415 . S
C1975 C1974 1.355 . S
C1975 C1977 1.419 . S
C1976 C1974 1.415 . S
C1976 C1981 1.425 . S
C1976 C1983 1.409 . S
C1977 H1969 0.930 . S
C1977 C1975 1.419 . S
C1977 C1978 1.362 . S
C1978 H1970 0.930 1_655 S
C1978 C1977 1.362 . S
C1978 C1981 1.409 . S
C1979 H1971 0.970 . S
C1979 C1980 1.340 1_455 S
C1979 C1981 1.391 1_455 S
C1980 C1979 1.340 1_655 S
C1980 C1982 1.419 . S
C1981 C1976 1.425 . S
C1981 C1978 1.409 . S
C1981 C1979 1.391 1_655 S
C1982 H1972 0.930 . S
C1982 C1980 1.419 . S
C1982 C1983 1.362 . S
C1983 H1973 0.930 . S
C1983 C1976 1.409 . S
C1983 C1982 1.362 . S
H1984 C1990 0.930 . S
H1985 C1993 0.930 . S
H1986 C1994 0.930 . S
H1987 C1995 0.930 . S
H1988 C1998 0.930 . S
H1989 C1999 0.930 . S
C1990 H1984 0.930 . S
C1990 C1991 1.355 . S
C1990 C1992 1.415 . S
C1991 C1990 1.355 . S
C1991 C1993 1.419 . S
C1992 C1990 1.415 . S
C1992 C1997 1.425 . S
C1992 C1999 1.409 . S
C1993 H1985 0.930 . S
C1993 C1991 1.419 . S
C1993 C1994 1.362 . S
C1994 H1986 0.930 . S
C1994 C1993 1.362 . S
C1994 C1997 1.409 . S
C1995 H1987 0.930 . S
C1995 C1996 1.355 . S
C1995 C1997 1.415 . S
C1996 C1995 1.355 . S
C1996 C1998 1.419 . S
C1997 C1992 1.425 . S
C1997 C1994 1.409 . S
C1997 C1995 1.415 . S
C1998 H1988 0.930 . S
C1998 C1996 1.419 . S
C1998 C1999 1.362 . S
C1999 H1989 0.930 . S
C1999 C1992 1.409 . S
C1999 C1998 1.362 . S
H2000 C2006 0.930 . S
H2001 C2009 0.930 . S
H2002 C2010 0.930 . S
H2003 C2011 0.930 . S
H2004 C2014 0.930 . S
H2005 C2015 0.930 . S
C2006 H2000 0.930 . S
C2006 C2007 1.355 . S
C2006 C2008 1.415 . S
C2007 C2006 1.355 . S
C2007 C2009 1.419 . S
C2008 C2006 1.415 . S
C2008 C2013 1.425 . S
C2008 C2015 1.409 . S
C2009 H2001 0.930 . S
C2009 C2007 1.419 . S
C2009 C2010 1.362 . S
C2010 H2002 0.930 . S
C2010 C2009 1.362 . S
C2010 C2013 1.409 . S
C2011 H2003 0.930 . S
C2011 C2012 1.355 . S
C2011 C2013 1.415 . S
C2012 C2011 1.355 . S
C2012 C2014 1.419 . S
C2013 C2008 1.425 . S
C2013 C2010 1.409 . S
C2013 C2011 1.415 . S
C2014 H2004 0.930 . S
C2014 C2012 1.419 . S
C2014 C2015 1.362 . S
C2015 H2005 0.930 . S
C2015 C2008 1.409 . S
C2015 C2014 1.362 . S
H2016 C2022 0.930 . S
H2017 C2025 0.930 . S
H2018 C2026 0.930 . S
H2019 C2027 0.930 . S
H2020 C2030 0.930 . S
H2021 C2031 0.930 . S
C2022 H2016 0.930 . S
C2022 C2023 1.355 . S
C2022 C2024 1.415 . S
C2023 C2022 1.355 . S
C2023 C2025 1.419 . S
C2024 C2022 1.415 . S
C2024 C2029 1.425 . S
C2024 C2031 1.409 . S
C2025 H2017 0.930 . S
C2025 C2023 1.419 . S
C2025 C2026 1.362 . S
C2026 H2018 0.930 . S
C2026 C2025 1.362 . S
C2026 C2029 1.409 . S
C2027 H2019 0.930 . S
C2027 C2028 1.355 . S
C2027 C2029 1.415 . S
C2028 C2027 1.355 . S
C2028 C2030 1.419 . S
C2029 C2024 1.425 . S
C2029 C2026 1.409 . S
C2029 C2027 1.415 . S
C2030 H2020 0.930 . S
C2030 C2028 1.419 . S
C2030 C2031 1.362 . S
C2031 H2021 0.930 . S
C2031 C2024 1.409 . S
C2031 C2030 1.362 . S
H2032 C2038 0.930 . S
H2033 C2041 0.930 . S
H2034 C2042 0.930 . S
H2035 C2043 0.930 . S
H2036 C2046 0.930 . S
H2037 C2047 0.930 . S
C2038 H2032 0.930 . S
C2038 C2039 1.355 . S
C2038 C2040 1.415 . S
C2039 C2038 1.355 . S
C2039 C2041 1.419 . S
C2040 C2038 1.415 . S
C2040 C2045 1.425 . S
C2040 C2047 1.409 . S
C2041 H2033 0.930 . S
C2041 C2039 1.419 . S
C2041 C2042 1.362 . S
C2042 H2034 0.930 . S
C2042 C2041 1.362 . S
C2042 C2045 1.409 . S
C2043 H2035 0.930 . S
C2043 C2044 1.355 . S
C2043 C2045 1.415 . S
C2044 C2043 1.355 . S
C2044 C2046 1.419 . S
C2045 C2040 1.425 . S
C2045 C2042 1.409 . S
C2045 C2043 1.415 . S
C2046 H2036 0.930 . S
C2046 C2044 1.419 . S
C2046 C2047 1.362 . S
C2047 H2037 0.930 . S
C2047 C2040 1.409 . S
C2047 C2046 1.362 . S
H2048 C2054 0.930 . S
H2049 C2057 0.930 . S
H2050 C2058 0.930 . S
H2051 C2059 0.930 . S
H2052 C2062 0.930 . S
H2053 C2063 0.930 . S
C2054 H2048 0.930 . S
C2054 C2055 1.355 . S
C2054 C2056 1.415 . S
C2055 C2054 1.355 . S
C2055 C2057 1.419 . S
C2056 C2054 1.415 . S
C2056 C2061 1.425 . S
C2056 C2063 1.409 . S
C2057 H2049 0.930 . S
C2057 C2055 1.419 . S
C2057 C2058 1.362 . S
C2058 H2050 0.930 . S
C2058 C2057 1.362 . S
C2058 C2061 1.409 . S
C2059 H2051 0.930 . S
C2059 C2060 1.355 . S
C2059 C2061 1.415 . S
C2060 C2059 1.355 . S
C2060 C2062 1.419 . S
C2061 C2056 1.425 . S
C2061 C2058 1.409 . S
C2061 C2059 1.415 . S
C2062 H2052 0.930 . S
C2062 C2060 1.419 . S
C2062 C2063 1.362 . S
C2063 H2053 0.930 . S
C2063 C2056 1.409 . S
C2063 C2062 1.362 . S
H2064 C2070 0.930 . S
H2065 C2073 0.930 . S
H2066 C2074 0.930 . S
H2067 C2075 0.930 . S
H2068 C2078 0.930 . S
H2069 C2079 0.930 . S
C2070 H2064 0.930 . S
C2070 C2071 1.355 . S
C2070 C2072 1.415 . S
C2071 C2070 1.355 . S
C2071 C2073 1.419 . S
C2072 C2070 1.415 . S
C2072 C2077 1.425 . S
C2072 C2079 1.409 . S
C2073 H2065 0.930 . S
C2073 C2071 1.419 . S
C2073 C2074 1.362 . S
C2074 H2066 0.930 . S
C2074 C2073 1.362 . S
C2074 C2077 1.409 . S
C2075 H2067 0.930 . S
C2075 C2076 1.355 . S
C2075 C2077 1.415 . S
C2076 C2075 1.355 . S
C2076 C2078 1.419 . S
C2077 C2072 1.425 . S
C2077 C2074 1.409 . S
C2077 C2075 1.415 . S
C2078 H2068 0.930 . S
C2078 C2076 1.419 . S
C2078 C2079 1.362 . S
C2079 H2069 0.930 . S
C2079 C2072 1.409 . S
C2079 C2078 1.362 . S
H2080 C2086 0.930 . S
H2081 C2089 0.930 . S
H2082 C2090 0.930 . S
H2083 C2091 0.921 1_545 S
H2084 C2094 0.930 . S
H2085 C2095 0.930 . S
C2086 H2080 0.930 . S
C2086 C2087 1.355 . S
C2086 C2088 1.415 . S
C2087 C2086 1.355 . S
C2087 C2089 1.419 . S
C2088 C2086 1.415 . S
C2088 C2093 1.425 . S
C2088 C2095 1.409 . S
C2089 H2081 0.930 . S
C2089 C2087 1.419 . S
C2089 C2090 1.362 . S
C2090 H2082 0.930 . S
C2090 C2089 1.362 . S
C2090 C2093 1.409 . S
C2091 H2083 0.921 1_565 S
C2091 C2092 1.355 . S
C2091 C2093 1.415 . S
C2092 C2091 1.355 . S
C2092 C2094 1.419 . S
C2093 C2088 1.425 . S
C2093 C2090 1.409 . S
C2093 C2091 1.415 . S
C2094 H2084 0.930 . S
C2094 C2092 1.419 . S
C2094 C2095 1.362 . S
C2095 H2085 0.930 . S
C2095 C2088 1.409 . S
C2095 C2094 1.362 . S
H2096 C2102 0.930 . S
H2097 C2105 0.930 . S
H2098 C2106 0.930 . S
H2099 C2107 0.930 . S
H2100 C2110 0.930 . S
H2101 C2111 0.930 . S
C2102 H2096 0.930 . S
C2102 C2103 1.355 . S
C2102 C2104 1.415 . S
C2103 C2102 1.355 . S
C2103 C2105 1.419 . S
C2104 C2102 1.415 . S
C2104 C2109 1.425 . S
C2104 C2111 1.409 . S
C2105 H2097 0.930 . S
C2105 C2103 1.419 . S
C2105 C2106 1.362 . S
C2106 H2098 0.930 . S
C2106 C2105 1.362 . S
C2106 C2109 1.409 . S
C2107 H2099 0.930 . S
C2107 C2108 1.355 . S
C2107 C2109 1.415 . S
C2108 C2107 1.355 . S
C2108 C2110 1.419 . S
C2109 C2104 1.425 . S
C2109 C2106 1.409 . S
C2109 C2107 1.415 . S
C2110 H2100 0.930 . S
C2110 C2108 1.419 . S
C2110 C2111 1.362 . S
C2111 H2101 0.930 . S
C2111 C2104 1.409 . S
C2111 C2110 1.362 . S
H2112 C2118 0.930 . S
H2113 C2121 0.929 1_556 S
H2114 C2122 0.930 1_556 S
H2115 C2123 0.930 . S
H2116 C2126 0.930 . S
H2117 C2127 0.930 . S
C2118 H2112 0.930 . S
C2118 C2119 1.355 . S
C2118 C2120 1.415 . S
C2119 C2118 1.355 . S
C2119 C2121 1.419 . S
C2120 C2118 1.415 . S
C2120 C2125 1.425 . S
C2120 C2127 1.409 . S
C2121 H2113 0.929 1_554 S
C2121 C2119 1.419 . S
C2121 C2122 1.362 . S
C2122 H2114 0.930 1_554 S
C2122 C2121 1.362 . S
C2122 C2125 1.409 . S
C2123 H2115 0.930 . S
C2123 C2124 1.355 . S
C2123 C2125 1.415 . S
C2124 C2123 1.355 . S
C2124 C2126 1.419 . S
C2125 C2120 1.425 . S
C2125 C2122 1.409 . S
C2125 C2123 1.415 . S
C2126 H2116 0.930 . S
C2126 C2124 1.419 . S
C2126 C2127 1.362 . S
C2127 H2117 0.930 . S
C2127 C2120 1.409 . S
C2127 C2126 1.362 . S
H2128 C2134 0.930 . S
H2129 C2137 0.930 . S
H2130 C2138 0.930 . S
H2131 C2139 0.930 . S
H2132 C2142 0.930 . S
H2133 C2143 0.930 . S
C2134 H2128 0.930 . S
C2134 C2135 1.355 . S
C2134 C2136 1.415 . S
C2135 C2134 1.355 . S
C2135 C2137 1.419 . S
C2136 C2134 1.415 . S
C2136 C2141 1.425 . S
C2136 C2143 1.409 . S
C2137 H2129 0.930 . S
C2137 C2135 1.419 . S
C2137 C2138 1.362 . S
C2138 H2130 0.930 . S
C2138 C2137 1.362 . S
C2138 C2141 1.409 . S
C2139 H2131 0.930 . S
C2139 C2140 1.355 . S
C2139 C2141 1.415 . S
C2140 C2139 1.355 . S
C2140 C2142 1.419 . S
C2141 C2136 1.425 . S
C2141 C2138 1.409 . S
C2141 C2139 1.415 . S
C2142 H2132 0.930 . S
C2142 C2140 1.419 . S
C2142 C2143 1.362 . S
C2143 H2133 0.930 . S
C2143 C2136 1.409 . S
C2143 C2142 1.362 . S
H2144 C2150 0.930 . S
H2145 C2153 0.930 . S
H2146 C2154 0.930 . S
H2147 C2155 0.930 . S
H2148 C2158 0.930 . S
H2149 C2159 0.930 . S
C2150 H2144 0.930 . S
C2150 C2151 1.355 . S
C2150 C2152 1.415 . S
C2151 C2150 1.355 . S
C2151 C2153 1.419 . S
C2152 C2150 1.415 . S
C2152 C2157 1.425 . S
C2152 C2159 1.409 . S
C2153 H2145 0.930 . S
C2153 C2151 1.419 . S
C2153 C2154 1.362 . S
C2154 H2146 0.930 . S
C2154 C2153 1.362 . S
C2154 C2157 1.409 . S
C2155 H2147 0.930 . S
C2155 C2156 1.355 . S
C2155 C2157 1.415 . S
C2156 C2155 1.355 . S
C2156 C2158 1.419 . S
C2157 C2152 1.425 . S
C2157 C2154 1.409 . S
C2157 C2155 1.415 . S
C2158 H2148 0.930 . S
C2158 C2156 1.419 . S
C2158 C2159 1.362 . S
C2159 H2149 0.930 . S
C2159 C2152 1.409 . S
C2159 C2158 1.362 . S
H2160 C2166 0.930 . S
H2161 C2169 0.930 . S
H2162 C2170 0.930 . S
H2163 C2171 0.930 . S
H2164 C2174 0.930 . S
H2165 C2175 0.930 . S
C2166 H2160 0.930 . S
C2166 C2167 1.355 . S
C2166 C2168 1.415 . S
C2167 C2166 1.355 . S
C2167 C2169 1.419 . S
C2168 C2166 1.415 . S
C2168 C2173 1.425 . S
C2168 C2175 1.409 . S
C2169 H2161 0.930 . S
C2169 C2167 1.419 . S
C2169 C2170 1.362 . S
C2170 H2162 0.930 . S
C2170 C2169 1.362 . S
C2170 C2173 1.409 . S
C2171 H2163 0.930 . S
C2171 C2172 1.355 . S
C2171 C2173 1.415 . S
C2172 C2171 1.355 . S
C2172 C2174 1.419 . S
C2173 C2168 1.425 . S
C2173 C2170 1.409 . S
C2173 C2171 1.415 . S
C2174 H2164 0.930 . S
C2174 C2172 1.419 . S
C2174 C2175 1.362 . S
C2175 H2165 0.930 . S
C2175 C2168 1.409 . S
C2175 C2174 1.362 . S
H2176 C2182 0.930 . S
H2177 C2185 0.930 . S
H2178 C2186 0.930 . S
H2179 C2187 0.930 . S
H2180 C2190 0.930 . S
H2181 C2191 0.930 . S
C2182 H2176 0.930 . S
C2182 C2183 1.355 . S
C2182 C2184 1.415 . S
C2183 C2182 1.355 . S
C2183 C2185 1.419 . S
C2184 C2182 1.415 . S
C2184 C2189 1.425 . S
C2184 C2191 1.409 . S
C2185 H2177 0.930 . S
C2185 C2183 1.419 . S
C2185 C2186 1.362 . S
C2186 H2178 0.930 . S
C2186 C2185 1.362 . S
C2186 C2189 1.409 . S
C2187 H2179 0.930 . S
C2187 C2188 1.355 . S
C2187 C2189 1.415 . S
C2188 C2187 1.355 . S
C2188 C2190 1.419 . S
C2189 C2184 1.425 . S
C2189 C2186 1.409 . S
C2189 C2187 1.415 . S
C2190 H2180 0.930 . S
C2190 C2188 1.419 . S
C2190 C2191 1.362 . S
C2191 H2181 0.930 . S
C2191 C2184 1.409 . S
C2191 C2190 1.362 . S
C663 C106 1.873 . S
C668 C340 1.615 1_556 S
C679 C65 1.494 . S
C684 C375 1.492 . S
C695 C79 1.519 . S
C700 C380 1.319 . S
C716 C405 1.193 . S
C711 C90 1.236 . S
C727 C21 1.271 . S
C732 C425 1.231 . S
C748 C440 1.065 . S
C743 C35 1.113 . S
C764 C475 1.535 . S
C759 C50 1.575 . S
C775 C6 1.510 . S
C780 C480 1.358 . S
C796 C355 1.766 1_655 S
C791 C232 1.898 . S
C807 C245 1.111 . S
C812 C365 1.094 . S
C828 C395 1.468 . S
C823 C274 1.494 1_545 S
C844 C400 1.187 . S
C839 C175 1.268 . S
C855 C231 1.120 . S
C860 C420 1.112 . S
C876 C455 1.401 . S
C871 C246 1.435 . S
C892 C465 0.838 . S
C887 C273 0.882 . S
C908 C495 1.699 . S
C903 C176 1.846 . S
C924 C345 1.330 . S
C919 C160 1.454 . S
C935 C289 1.749 1_554 S
C940 C515 1.695 . S
C956 C525 1.506 . S
C951 C328 1.557 . S
C972 C540 1.145 . S
C967 C317 1.285 . S
C983 C118 1.414 . S
C988 C485 1.278 . S
C999 C132 1.559 . S
C1004 C385 1.509 . S
C1015 C331 1.823 . S
C1020 C575 1.770 . S
C1036 C580 1.260 . S
C1031 C303 1.315 . S
C1052 C338 1.277 . S
C1047 C63 1.408 . S
C1068 C594 1.854 . S
C1063 C107 1.821 . S
C1079 C92 1.290 . S
C1084 C378 1.136 . S
C1095 C78 1.735 . S
C1100 C568 1.605 . S
C1116 C428 1.676 . S
C1111 C8 1.703 . S
C1127 C51 1.269 . S
C1132 C518 1.231 . S
C1148 C474 1.818 1_556 S
C1143 C37 1.856 . S
C1164 C598 1.284 . S
C1159 C20 1.437 . S
C1180 C354 1.596 . S
C1175 C147 1.616 . S
C1196 C588 1.133 . S
C1191 C316 1.265 . S
C1207 C119 1.423 . S
C1212 C394 1.422 . S
C1223 C288 1.364 . S
C1228 C558 1.302 . S
C1239 C148 1.357 . S
C1244 C418 1.296 . S
C1260 C534 1.420 . S
C1255 C315 1.364 . S
C1271 C120 1.265 . S
C1276 C468 1.135 . S
C1287 C287 1.620 . S
C1292 C614 1.594 . S
C1303 C188 1.373 . S
C1308 C348 1.298 . S
C1319 C177 2.011 . S
C1324 C514 2.006 . S
C1335 C258 1.628 . S
C1340 C448 1.562 . S
C1351 C247 1.292 . S
C1356 C538 1.229 . S
C1372 C608 1.207 . S
C1367 C272 1.320 . S
C1383 C216 1.483 . S
C1388 C388 1.423 . S
C1404 C414 2.031 . S
C1399 C261 1.982 . S
C1420 C358 1.112 . S
C1415 C205 1.308 . S
C1431 C76 1.409 . S
C1436 C620 1.224 . S
C1452 C595 1.495 . S
C1447 C93 1.568 . S
C1463 C105 1.140 1_455 S
C1468 C640 1.017 . S
C1479 C62 1.229 . S
C1484 C565 1.162 . S
C1495 C49 1.194 . S
C1500 C505 1.129 . S
C1516 C520 1.385 . S
C1511 C9 1.522 . S
C1532 C555 1.436 . S
C1527 C22 1.503 . S
C1548 C600 1.615 . S
C1543 C36 1.855 . S
C1564 C635 1.700 . S
C1559 C260 1.846 . S
C1575 C189 0.887 . S
C1580 C585 0.848 . S
C1596 C655 1.353 . S
C1591 C204 1.435 . S
C1612 C560 1.110 . S
C1607 C217 1.119 . S
C1628 C500 1.156 . S
C1623 C259 1.252 . S
C1639 C190 1.505 . S
C1644 C535 1.483 . S
C1660 C545 1.070 . S
C1655 C203 1.094 . S
C1671 C218 1.899 . S
C1676 C615 1.768 . S
C1692 C625 1.289 . S
C1687 C314 1.421 . S
C1703 C135 1.813 . S
C1708 C435 1.758 . S
C1724 C445 1.398 . S
C1719 C146 1.464 . S
C1740 C460 1.248 . S
C1735 C163 1.310 . S
C1756 C605 1.411 . S
C1751 C300 1.520 . S
C1767 C286 1.509 . S
C1772 C645 1.453 . S
C1788 C415 1.721 . S
C1783 C149 1.747 . S
C1804 C360 1.169 . S
C1799 C121 1.292 . S
C1815 C91 1.392 . S
C1820 C618 1.269 . S
C1836 C374 1.482 . S
C1831 C77 1.474 . S
C1847 C64 1.257 . S
C1852 C638 1.110 . S
C1863 C104 1.380 . S
C1868 C408 1.312 . S
C1879 C34 1.387 . S
C1884 C508 1.338 . S
C1900 C438 1.180 . S
C1895 C23 1.230 . S
C1911 C7 1.407 . S
C1916 C554 1.450 . S
C1927 C48 1.324 . S
C1932 C478 1.168 . S
C1948 C634 1.573 . S
C1943 C329 1.599 . S
C1959 C162 1.258 . S
C1964 C368 1.110 . S
C1980 C654 1.399 1_655 S
C1975 C301 1.366 . S
C1991 C134 1.357 . S
C1996 C398 1.272 . S
C2007 C330 1.355 . S
C2012 C498 1.313 . S
C2028 C454 1.373 . S
C2023 C161 1.376 . S
C2039 C302 1.256 . S
C2044 C548 1.114 . S
C2060 C494 1.530 . S
C2055 C133 1.537 . S
C2076 C628 1.357 . S
C2071 C244 1.476 . S
C2092 C434 1.984 . S
C2087 C219 1.985 . S
C2103 C230 1.437 . S
C2108 C528 1.335 . S
C2124 C458 1.145 . S
C2119 C191 1.299 . S
C2135 C202 1.483 . S
C2140 C488 1.353 . S
C2151 C174 1.636 . S
C2156 C648 1.572 . S
C2172 C574 2.015 . S
C2167 C233 1.952 . S
C2188 C578 1.211 . S
C2183 C275 1.293 . S
