# Generated by pormake.
# Topology ibd, (4,6)-cn, num edge types: 1
# Building blocks:
#     Node 0, Type 0, BuildingBlock: CEKHIL_clean_sbu_0, # of connection points: 4
#     Node 1, Type 0, BuildingBlock: CEKHIL_clean_sbu_0, # of connection points: 4
#     Node 2, Type 0, BuildingBlock: CEKHIL_clean_sbu_0, # of connection points: 4
#     Node 3, Type 0, BuildingBlock: CEKHIL_clean_sbu_0, # of connection points: 4
#     Node 4, Type 0, BuildingBlock: CEKHIL_clean_sbu_0, # of connection points: 4
#     Node 5, Type 0, BuildingBlock: CEKHIL_clean_sbu_0, # of connection points: 4
#     Node 6, Type 0, BuildingBlock: CEKHIL_clean_sbu_0, # of connection points: 4
#     Node 7, Type 0, BuildingBlock: CEKHIL_clean_sbu_0, # of connection points: 4
#     Node 8, Type 0, BuildingBlock: CEKHIL_clean_sbu_0, # of connection points: 4
#     Node 9, Type 0, BuildingBlock: CEKHIL_clean_sbu_0, # of connection points: 4
#     Node 10, Type 0, BuildingBlock: CEKHIL_clean_sbu_0, # of connection points: 4
#     Node 11, Type 0, BuildingBlock: CEKHIL_clean_sbu_0, # of connection points: 4
#     Node 12, Type 0, BuildingBlock: CEKHIL_clean_sbu_0, # of connection points: 4
#     Node 13, Type 0, BuildingBlock: CEKHIL_clean_sbu_0, # of connection points: 4
#     Node 14, Type 0, BuildingBlock: CEKHIL_clean_sbu_0, # of connection points: 4
#     Node 15, Type 0, BuildingBlock: CEKHIL_clean_sbu_0, # of connection points: 4
#     Node 16, Type 0, BuildingBlock: CEKHIL_clean_sbu_0, # of connection points: 4
#     Node 17, Type 0, BuildingBlock: CEKHIL_clean_sbu_0, # of connection points: 4
#     Node 18, Type 0, BuildingBlock: CEKHIL_clean_sbu_0, # of connection points: 4
#     Node 19, Type 0, BuildingBlock: CEKHIL_clean_sbu_0, # of connection points: 4
#     Node 20, Type 0, BuildingBlock: CEKHIL_clean_sbu_0, # of connection points: 4
#     Node 21, Type 0, BuildingBlock: CEKHIL_clean_sbu_0, # of connection points: 4
#     Node 22, Type 0, BuildingBlock: CEKHIL_clean_sbu_0, # of connection points: 4
#     Node 23, Type 0, BuildingBlock: CEKHIL_clean_sbu_0, # of connection points: 4
#     Node 24, Type 1, BuildingBlock: OJICUG_clean_sbu_0, # of connection points: 6
#     Node 25, Type 1, BuildingBlock: OJICUG_clean_sbu_0, # of connection points: 6
#     Node 26, Type 1, BuildingBlock: OJICUG_clean_sbu_0, # of connection points: 6
#     Node 27, Type 1, BuildingBlock: OJICUG_clean_sbu_0, # of connection points: 6
#     Node 28, Type 1, BuildingBlock: OJICUG_clean_sbu_0, # of connection points: 6
#     Node 29, Type 1, BuildingBlock: OJICUG_clean_sbu_0, # of connection points: 6
#     Node 30, Type 1, BuildingBlock: OJICUG_clean_sbu_0, # of connection points: 6
#     Node 31, Type 1, BuildingBlock: OJICUG_clean_sbu_0, # of connection points: 6
#     Node 32, Type 1, BuildingBlock: OJICUG_clean_sbu_0, # of connection points: 6
#     Node 33, Type 1, BuildingBlock: OJICUG_clean_sbu_0, # of connection points: 6
#     Node 34, Type 1, BuildingBlock: OJICUG_clean_sbu_0, # of connection points: 6
#     Node 35, Type 1, BuildingBlock: OJICUG_clean_sbu_0, # of connection points: 6
#     Node 36, Type 1, BuildingBlock: OJICUG_clean_sbu_0, # of connection points: 6
#     Node 37, Type 1, BuildingBlock: OJICUG_clean_sbu_0, # of connection points: 6
#     Node 38, Type 1, BuildingBlock: OJICUG_clean_sbu_0, # of connection points: 6
#     Node 39, Type 1, BuildingBlock: OJICUG_clean_sbu_0, # of connection points: 6
#     Edge 40, Type (0, 1), BuildingBlock: KIFKEQ_clean_linker_1, # of connection points: 2
#     Edge 41, Type (0, 1), BuildingBlock: KIFKEQ_clean_linker_1, # of connection points: 2
#     Edge 42, Type (0, 1), BuildingBlock: KIFKEQ_clean_linker_1, # of connection points: 2
#     Edge 43, Type (0, 1), BuildingBlock: KIFKEQ_clean_linker_1, # of connection points: 2
#     Edge 44, Type (0, 1), BuildingBlock: KIFKEQ_clean_linker_1, # of connection points: 2
#     Edge 45, Type (0, 1), BuildingBlock: KIFKEQ_clean_linker_1, # of connection points: 2
#     Edge 46, Type (0, 1), BuildingBlock: KIFKEQ_clean_linker_1, # of connection points: 2
#     Edge 47, Type (0, 1), BuildingBlock: KIFKEQ_clean_linker_1, # of connection points: 2
#     Edge 48, Type (0, 1), BuildingBlock: KIFKEQ_clean_linker_1, # of connection points: 2
#     Edge 49, Type (0, 1), BuildingBlock: KIFKEQ_clean_linker_1, # of connection points: 2
#     Edge 50, Type (0, 1), BuildingBlock: KIFKEQ_clean_linker_1, # of connection points: 2
#     Edge 51, Type (0, 1), BuildingBlock: KIFKEQ_clean_linker_1, # of connection points: 2
#     Edge 52, Type (0, 1), BuildingBlock: KIFKEQ_clean_linker_1, # of connection points: 2
#     Edge 53, Type (0, 1), BuildingBlock: KIFKEQ_clean_linker_1, # of connection points: 2
#     Edge 54, Type (0, 1), BuildingBlock: KIFKEQ_clean_linker_1, # of connection points: 2
#     Edge 55, Type (0, 1), BuildingBlock: KIFKEQ_clean_linker_1, # of connection points: 2
#     Edge 56, Type (0, 1), BuildingBlock: KIFKEQ_clean_linker_1, # of connection points: 2
#     Edge 57, Type (0, 1), BuildingBlock: KIFKEQ_clean_linker_1, # of connection points: 2
#     Edge 58, Type (0, 1), BuildingBlock: KIFKEQ_clean_linker_1, # of connection points: 2
#     Edge 59, Type (0, 1), BuildingBlock: KIFKEQ_clean_linker_1, # of connection points: 2
#     Edge 60, Type (0, 1), BuildingBlock: KIFKEQ_clean_linker_1, # of connection points: 2
#     Edge 61, Type (0, 1), BuildingBlock: KIFKEQ_clean_linker_1, # of connection points: 2
#     Edge 62, Type (0, 1), BuildingBlock: KIFKEQ_clean_linker_1, # of connection points: 2
#     Edge 63, Type (0, 1), BuildingBlock: KIFKEQ_clean_linker_1, # of connection points: 2
#     Edge 64, Type (0, 1), BuildingBlock: KIFKEQ_clean_linker_1, # of connection points: 2
#     Edge 65, Type (0, 1), BuildingBlock: KIFKEQ_clean_linker_1, # of connection points: 2
#     Edge 66, Type (0, 1), BuildingBlock: KIFKEQ_clean_linker_1, # of connection points: 2
#     Edge 67, Type (0, 1), BuildingBlock: KIFKEQ_clean_linker_1, # of connection points: 2
#     Edge 68, Type (0, 1), BuildingBlock: KIFKEQ_clean_linker_1, # of connection points: 2
#     Edge 69, Type (0, 1), BuildingBlock: KIFKEQ_clean_linker_1, # of connection points: 2
#     Edge 70, Type (0, 1), BuildingBlock: KIFKEQ_clean_linker_1, # of connection points: 2
#     Edge 71, Type (0, 1), BuildingBlock: KIFKEQ_clean_linker_1, # of connection points: 2
#     Edge 72, Type (0, 1), BuildingBlock: KIFKEQ_clean_linker_1, # of connection points: 2
#     Edge 73, Type (0, 1), BuildingBlock: KIFKEQ_clean_linker_1, # of connection points: 2
#     Edge 74, Type (0, 1), BuildingBlock: KIFKEQ_clean_linker_1, # of connection points: 2
#     Edge 75, Type (0, 1), BuildingBlock: KIFKEQ_clean_linker_1, # of connection points: 2
#     Edge 76, Type (0, 1), BuildingBlock: KIFKEQ_clean_linker_1, # of connection points: 2
#     Edge 77, Type (0, 1), BuildingBlock: KIFKEQ_clean_linker_1, # of connection points: 2
#     Edge 78, Type (0, 1), BuildingBlock: KIFKEQ_clean_linker_1, # of connection points: 2
#     Edge 79, Type (0, 1), BuildingBlock: KIFKEQ_clean_linker_1, # of connection points: 2
#     Edge 80, Type (0, 1), BuildingBlock: KIFKEQ_clean_linker_1, # of connection points: 2
#     Edge 81, Type (0, 1), BuildingBlock: KIFKEQ_clean_linker_1, # of connection points: 2
#     Edge 82, Type (0, 1), BuildingBlock: KIFKEQ_clean_linker_1, # of connection points: 2
#     Edge 83, Type (0, 1), BuildingBlock: KIFKEQ_clean_linker_1, # of connection points: 2
#     Edge 84, Type (0, 1), BuildingBlock: KIFKEQ_clean_linker_1, # of connection points: 2
#     Edge 85, Type (0, 1), BuildingBlock: KIFKEQ_clean_linker_1, # of connection points: 2
#     Edge 86, Type (0, 1), BuildingBlock: KIFKEQ_clean_linker_1, # of connection points: 2
#     Edge 87, Type (0, 1), BuildingBlock: KIFKEQ_clean_linker_1, # of connection points: 2
#     Edge 88, Type (0, 1), BuildingBlock: KIFKEQ_clean_linker_1, # of connection points: 2
#     Edge 89, Type (0, 1), BuildingBlock: KIFKEQ_clean_linker_1, # of connection points: 2
#     Edge 90, Type (0, 1), BuildingBlock: KIFKEQ_clean_linker_1, # of connection points: 2
#     Edge 91, Type (0, 1), BuildingBlock: KIFKEQ_clean_linker_1, # of connection points: 2
#     Edge 92, Type (0, 1), BuildingBlock: KIFKEQ_clean_linker_1, # of connection points: 2
#     Edge 93, Type (0, 1), BuildingBlock: KIFKEQ_clean_linker_1, # of connection points: 2
#     Edge 94, Type (0, 1), BuildingBlock: KIFKEQ_clean_linker_1, # of connection points: 2
#     Edge 95, Type (0, 1), BuildingBlock: KIFKEQ_clean_linker_1, # of connection points: 2
#     Edge 96, Type (0, 1), BuildingBlock: KIFKEQ_clean_linker_1, # of connection points: 2
#     Edge 97, Type (0, 1), BuildingBlock: KIFKEQ_clean_linker_1, # of connection points: 2
#     Edge 98, Type (0, 1), BuildingBlock: KIFKEQ_clean_linker_1, # of connection points: 2
#     Edge 99, Type (0, 1), BuildingBlock: KIFKEQ_clean_linker_1, # of connection points: 2
#     Edge 100, Type (0, 1), BuildingBlock: KIFKEQ_clean_linker_1, # of connection points: 2
#     Edge 101, Type (0, 1), BuildingBlock: KIFKEQ_clean_linker_1, # of connection points: 2
#     Edge 102, Type (0, 1), BuildingBlock: KIFKEQ_clean_linker_1, # of connection points: 2
#     Edge 103, Type (0, 1), BuildingBlock: KIFKEQ_clean_linker_1, # of connection points: 2
#     Edge 104, Type (0, 1), BuildingBlock: KIFKEQ_clean_linker_1, # of connection points: 2
#     Edge 105, Type (0, 1), BuildingBlock: KIFKEQ_clean_linker_1, # of connection points: 2
#     Edge 106, Type (0, 1), BuildingBlock: KIFKEQ_clean_linker_1, # of connection points: 2
#     Edge 107, Type (0, 1), BuildingBlock: KIFKEQ_clean_linker_1, # of connection points: 2
#     Edge 108, Type (0, 1), BuildingBlock: KIFKEQ_clean_linker_1, # of connection points: 2
#     Edge 109, Type (0, 1), BuildingBlock: KIFKEQ_clean_linker_1, # of connection points: 2
#     Edge 110, Type (0, 1), BuildingBlock: KIFKEQ_clean_linker_1, # of connection points: 2
#     Edge 111, Type (0, 1), BuildingBlock: KIFKEQ_clean_linker_1, # of connection points: 2
#     Edge 112, Type (0, 1), BuildingBlock: KIFKEQ_clean_linker_1, # of connection points: 2
#     Edge 113, Type (0, 1), BuildingBlock: KIFKEQ_clean_linker_1, # of connection points: 2
#     Edge 114, Type (0, 1), BuildingBlock: KIFKEQ_clean_linker_1, # of connection points: 2
#     Edge 115, Type (0, 1), BuildingBlock: KIFKEQ_clean_linker_1, # of connection points: 2
#     Edge 116, Type (0, 1), BuildingBlock: KIFKEQ_clean_linker_1, # of connection points: 2
#     Edge 117, Type (0, 1), BuildingBlock: KIFKEQ_clean_linker_1, # of connection points: 2
#     Edge 118, Type (0, 1), BuildingBlock: KIFKEQ_clean_linker_1, # of connection points: 2
#     Edge 119, Type (0, 1), BuildingBlock: KIFKEQ_clean_linker_1, # of connection points: 2
#     Edge 120, Type (0, 1), BuildingBlock: KIFKEQ_clean_linker_1, # of connection points: 2
#     Edge 121, Type (0, 1), BuildingBlock: KIFKEQ_clean_linker_1, # of connection points: 2
#     Edge 122, Type (0, 1), BuildingBlock: KIFKEQ_clean_linker_1, # of connection points: 2
#     Edge 123, Type (0, 1), BuildingBlock: KIFKEQ_clean_linker_1, # of connection points: 2
#     Edge 124, Type (0, 1), BuildingBlock: KIFKEQ_clean_linker_1, # of connection points: 2
#     Edge 125, Type (0, 1), BuildingBlock: KIFKEQ_clean_linker_1, # of connection points: 2
#     Edge 126, Type (0, 1), BuildingBlock: KIFKEQ_clean_linker_1, # of connection points: 2
#     Edge 127, Type (0, 1), BuildingBlock: KIFKEQ_clean_linker_1, # of connection points: 2
#     Edge 128, Type (0, 1), BuildingBlock: KIFKEQ_clean_linker_1, # of connection points: 2
#     Edge 129, Type (0, 1), BuildingBlock: KIFKEQ_clean_linker_1, # of connection points: 2
#     Edge 130, Type (0, 1), BuildingBlock: KIFKEQ_clean_linker_1, # of connection points: 2
#     Edge 131, Type (0, 1), BuildingBlock: KIFKEQ_clean_linker_1, # of connection points: 2
#     Edge 132, Type (0, 1), BuildingBlock: KIFKEQ_clean_linker_1, # of connection points: 2
#     Edge 133, Type (0, 1), BuildingBlock: KIFKEQ_clean_linker_1, # of connection points: 2
#     Edge 134, Type (0, 1), BuildingBlock: KIFKEQ_clean_linker_1, # of connection points: 2
#     Edge 135, Type (0, 1), BuildingBlock: KIFKEQ_clean_linker_1, # of connection points: 2
# Relax obj value: 0.371
# Max RMSD: 0.283
# Mean RMSD: 0.280
data_MOF--net-ibd--node1-CEKHIL_clean_sbu_0--node2-OJICUG_clean_sbu_0--edge1-KIFKEQ_clean_linker_1
_symmetry_space_group_name_H-M    P1
_symmetry_Int_Tables_number       1
_symmetry_cell_setting            triclinic
loop_
_symmetry_equiv_pos_as_xyz
'x, y, z'
_cell_length_a     49.583499
_cell_length_b     49.593266
_cell_length_c     49.588125
_cell_angle_alpha  90.413125
_cell_angle_beta   90.354702
_cell_angle_gamma 90.909724
loop_
_atom_site_label
_atom_site_type_symbol
_atom_site_fract_x
_atom_site_fract_y
_atom_site_fract_z
_atom_type_partial_charge
Co0 Co 0.01491 0.28593 0.38017 0.0
O1 O 0.00275 0.3077 0.35062 0.0
O2 O 0.98466 0.26839 0.36259 0.0
C3 C 0.01943 0.32016 0.40979 0.0
O4 O 0.0201 0.2579 0.40893 0.0
Co5 Co 0.07012 0.29256 0.40938 0.0
O6 O 0.05647 0.26506 0.43522 0.0
C7 C 0.06672 0.26638 0.3557 0.0
C8 C 0.98438 0.28903 0.34666 0.0
C9 C 0.03522 0.25164 0.4289 0.0
O10 O 0.04079 0.2666 0.3563 0.0
O11 O 0.08187 0.27775 0.37359 0.0
O12 O -0.00415 0.30892 0.40566 0.0
O13 O 0.03893 0.31126 0.39533 0.0
Co14 Co 0.01417 0.74896 0.62057 0.0
O15 O 0.98472 0.74711 0.64567 0.0
O16 O 0.01134 0.78284 0.63973 0.0
C17 C 0.99083 0.72984 0.58627 0.0
O18 O 0.04518 0.75981 0.59602 0.0
Co19 Co 0.03918 0.69901 0.59283 0.0
O20 O 0.05771 0.72549 0.56944 0.0
C21 C 0.05113 0.71132 0.65023 0.0
C22 C 0.99067 0.77203 0.65177 0.0
C23 C 0.05895 0.75025 0.57635 0.0
O24 O 0.03953 0.73433 0.64858 0.0
O25 O 0.05137 0.69404 0.63094 0.0
O26 O 0.98864 0.7555 0.59124 0.0
O27 O 0.00598 0.71663 0.60254 0.0
Co28 Co 0.52216 0.80144 0.87852 0.0
O29 O 0.51328 0.82884 0.85263 0.0
O30 O 0.48723 0.79388 0.86383 0.0
C31 C 0.53843 0.82904 0.91098 0.0
O32 O 0.52222 0.76967 0.90351 0.0
Co33 Co 0.5791 0.78891 0.90004 0.0
O34 O 0.56135 0.76279 0.92491 0.0
C35 C 0.56324 0.77204 0.84481 0.0
C36 C 0.4908 0.8152 0.84925 0.0
C37 C 0.53669 0.75679 0.92036 0.0
O38 O 0.53892 0.7792 0.84946 0.0
O39 O 0.58265 0.77603 0.86162 0.0
O40 O 0.51253 0.82531 0.90809 0.0
O41 O 0.55346 0.81756 0.8932 0.0
Co42 Co 0.46742 0.2345 0.11802 0.0
O43 O 0.44577 0.23375 0.15009 0.0
O44 O 0.47509 0.2662 0.13947 0.0
C45 C 0.43424 0.22311 0.08904 0.0
O46 O 0.49254 0.24327 0.08723 0.0
Co47 Co 0.47647 0.18404 0.08191 0.0
O48 O 0.49555 0.20928 0.05735 0.0
C49 C 0.50396 0.1892 0.13457 0.0
C50 C 0.45715 0.25683 0.15608 0.0
C51 C 0.50131 0.23326 0.06507 0.0
O52 O 0.49645 0.21384 0.13678 0.0
O53 O 0.496 0.17329 0.1156 0.0
O54 O 0.43718 0.24802 0.09704 0.0
O55 O 0.44995 0.20588 0.10018 0.0
Co56 Co 0.98713 0.75814 0.12011 0.0
O57 O 0.9891 0.78229 0.09002 0.0
O58 O 0.95722 0.75103 0.09588 0.0
C59 C -0.00529 0.78956 0.15207 0.0
O60 O 0.97743 0.73057 0.14856 0.0
Co61 Co 0.03563 0.7495 0.15902 0.0
O62 O 0.00753 0.73341 0.18255 0.0
C63 C 0.03471 0.72315 0.10533 0.0
C64 C 0.9668 0.77085 0.08164 0.0
C65 C 0.9852 0.72489 0.17258 0.0
O66 O 0.0106 0.73147 0.10085 0.0
O67 O 0.04852 0.72966 0.12637 0.0
O68 O 0.97055 0.78599 0.14226 0.0
O69 O 0.01352 0.77573 0.14099 0.0
Co70 Co 0.4644 0.70449 0.36311 0.0
O71 O 0.43935 0.71467 0.39095 0.0
O72 O 0.47726 0.73665 0.381 0.0
C73 C 0.43383 0.69579 0.33038 0.0
O74 O 0.49474 0.70231 0.33643 0.0
Co75 Co 0.46673 0.64829 0.3358 0.0
O76 O 0.49275 0.66531 0.31027 0.0
C77 C 0.4895 0.65628 0.39045 0.0
C78 C 0.45576 0.73496 0.39569 0.0
C79 C 0.50334 0.68799 0.3168 0.0
O80 O 0.48509 0.68171 0.38898 0.0
O81 O 0.48177 0.6392 0.37239 0.0
O82 O 0.44155 0.72047 0.33564 0.0
O83 O 0.4431 0.67753 0.34626 0.0
Co84 Co 0.50254 0.25307 0.61782 0.0
O85 O 0.50234 0.27652 0.58715 0.0
O86 O 0.46941 0.24781 0.59788 0.0
C87 C 0.51644 0.28443 0.64774 0.0
O88 O 0.49462 0.22666 0.64769 0.0
Co89 Co 0.55457 0.24082 0.65061 0.0
O90 O 0.52995 0.22142 0.67555 0.0
C91 C 0.54507 0.21499 0.5976 0.0
C92 C 0.47833 0.26675 0.58214 0.0
C93 C 0.5055 0.21658 0.66881 0.0
O94 O 0.52097 0.2242 0.59661 0.0
O95 O 0.56231 0.2214 0.61596 0.0
O96 O 0.49113 0.28258 0.64091 0.0
O97 O 0.53262 0.26879 0.63496 0.0
Co98 Co 0.95923 0.25739 0.87071 0.0
O99 O 0.93378 0.27536 0.89337 0.0
O100 O 0.97575 0.28946 0.88538 0.0
C101 C 0.93102 0.24865 0.83626 0.0
O102 O 0.991 0.24639 0.84842 0.0
Co103 Co 0.95461 0.19798 0.8519 0.0
O104 O 0.98533 0.20654 0.82756 0.0
C105 C 0.97229 0.21074 0.90756 0.0
C106 C 0.95297 0.29318 0.89747 0.0
C107 C -0.00111 0.22815 0.83199 0.0
O108 O 0.97263 0.23603 0.90206 0.0
O109 O 0.96408 0.1925 0.8909 0.0
O110 O 0.94246 0.27234 0.8387 0.0
O111 O 0.93541 0.23181 0.85549 0.0
Co112 Co 0.36667 0.00373 0.22012 0.0
O113 O 0.40321 0.00881 0.20762 0.0
O114 O 0.38224 0.9694 0.21343 0.0
C115 C 0.34738 0.03487 0.19407 0.0
O116 O 0.32998 0.98922 0.23096 0.0
Co117 Co 0.33335 0.04692 0.2495 0.0
O118 O 0.30213 0.02184 0.24397 0.0
C119 C 0.37877 0.02106 0.27757 0.0
C120 C 0.40389 0.98258 0.20651 0.0
C121 C 0.30653 -0.00263 0.23769 0.0
O122 O 0.38024 0.00355 0.25841 0.0
O123 O 0.36265 0.04099 0.27696 0.0
O124 O 0.35252 0.0111 0.18428 0.0
O125 O 0.3559 0.03964 0.21834 0.0
Co126 Co 0.23405 0.12525 0.51865 0.0
O127 O 0.23453 0.09228 0.53857 0.0
O128 O 0.27019 0.11166 0.51941 0.0
C129 C 0.20886 0.14865 0.54769 0.0
O130 O 0.24158 0.15899 0.49681 0.0
Co131 Co 0.18017 0.14708 0.49572 0.0
O132 O 0.20299 0.17673 0.48139 0.0
C133 C 0.20516 0.09981 0.47072 0.0
C134 C 0.26005 0.09154 0.53285 0.0
C135 C 0.22862 0.17681 0.48346 0.0
O136 O 0.2265 0.10414 0.48492 0.0
O137 O 0.18351 0.11322 0.47362 0.0
O138 O 0.23466 0.14637 0.55183 0.0
O139 O 0.1989 0.13482 0.52774 0.0
Co140 Co 0.12216 0.95203 0.71976 0.0
O141 O 0.14214 0.93994 0.68925 0.0
O142 O 0.13126 0.9146 0.7244 0.0
C143 C 0.0909 0.97375 0.69593 0.0
O144 O 0.1006 0.95707 0.75402 0.0
Co145 Co 0.11551 0.01311 0.73221 0.0
O146 O 0.0895 0.00048 0.75987 0.0
C147 C 0.16795 0.98721 0.73991 0.0
C148 C 0.14314 0.91677 0.70118 0.0
C149 C 0.08794 0.97573 0.76659 0.0
O150 O 0.15661 0.96375 0.7384 0.0
O151 O 0.15558 0.00911 0.73498 0.0
O152 O 0.08839 0.94785 0.69947 0.0
O153 O 0.11272 0.98493 0.7051 0.0
Co154 Co 0.2184 0.87878 0.02076 0.0
O155 O 0.2111 0.84727 0.04259 0.0
O156 O 0.2516 0.86324 0.03155 0.0
C157 C 0.18951 0.90693 0.04054 0.0
O158 O 0.23543 0.90978 0.00049 0.0
Co159 Co 0.17735 0.90602 0.98297 0.0
O160 O 0.20618 0.93312 0.97561 0.0
C161 C 0.20008 0.85349 0.9678 0.0
C162 C 0.23725 0.8452 0.04395 0.0
C163 C 0.22985 0.92932 0.98474 0.0
O164 O 0.21712 0.85552 0.98738 0.0
O165 O 0.18134 0.87051 0.96385 0.0
O166 O 0.21288 0.90237 0.05151 0.0
O167 O 0.18337 0.89267 0.01937 0.0
Co168 Co 0.29166 0.35459 0.96935 0.0
O169 O 0.30792 0.32072 0.96036 0.0
O170 O 0.26988 0.33604 0.94271 0.0
C171 C 0.32861 0.38138 0.96779 0.0
O172 O 0.26877 0.38762 0.97241 0.0
Co173 Co 0.30628 0.38726 0.02123 0.0
O174 O 0.28273 0.41546 0.0057 0.0
C175 C 0.27109 0.33916 0.02498 0.0
C176 C 0.28751 0.31702 0.94402 0.0
C177 C 0.26727 0.40976 0.98575 0.0
O178 O 0.27061 0.33704 -0.00089 0.0
O179 O 0.28592 0.35632 0.03784 0.0
O180 O 0.31607 0.37442 0.94564 0.0
O181 O 0.32043 0.36947 0.98939 0.0
Co182 Co 0.72041 0.11184 0.015 0.0
O183 O 0.74909 0.08621 0.01972 0.0
O184 O 0.72101 0.08735 0.98486 0.0
C185 C 0.7454 0.14832 0.02655 0.0
O186 O 0.69033 0.13505 0.00059 0.0
Co187 Co 0.69728 0.14882 0.05925 0.0
O188 O 0.68029 0.16854 0.02916 0.0
C189 C 0.68489 0.09036 0.0595 0.0
C190 C 0.74185 0.07661 -0.00378 0.0
C191 C 0.67849 0.15723 0.00609 0.0
O192 O 0.69473 0.08781 0.0356 0.0
O193 O 0.68575 0.11255 0.07284 0.0
O194 O 0.7466 0.13848 0.00221 0.0
O195 O 0.73023 0.13533 0.04323 0.0
Co196 Co 0.13317 0.51268 0.21318 0.0
O197 O 0.16604 0.49374 0.20658 0.0
O198 O 0.15832 0.51953 0.24229 0.0
C199 C 0.10597 0.47748 0.20337 0.0
O200 O 0.10185 0.53368 0.22831 0.0
Co201 Co 0.08928 0.52144 0.16934 0.0
O202 O 0.06593 0.52721 0.20116 0.0
C203 C 0.13961 0.55406 0.16899 0.0
C204 C 0.17403 0.50273 0.23002 0.0
C205 C 0.07637 0.53448 0.22365 0.0
O206 O 0.14649 0.54473 0.1922 0.0
O207 O 0.11875 0.54585 0.15578 0.0
O208 O 0.11699 0.47967 0.22713 0.0
O209 O 0.11295 0.49554 0.18602 0.0
Co210 Co 0.76385 0.86205 0.5051 0.0
O211 O 0.78018 0.82711 0.50623 0.0
O212 O 0.7555 0.84274 0.4724 0.0
C213 C 0.8 0.88601 0.5196 0.0
O214 O 0.74438 0.89609 0.4955 0.0
Co215 Co 0.75608 0.89881 0.55533 0.0
O216 O 0.74397 0.92637 0.52927 0.0
C217 C 0.71987 0.85163 0.54606 0.0
C218 C 0.76982 0.82344 0.48228 0.0
C219 C 0.73854 0.91934 0.50507 0.0
O220 O 0.73051 0.84738 0.52285 0.0
O221 O 0.72859 0.86966 0.56271 0.0
O222 O 0.79804 0.87859 0.49445 0.0
O223 O 0.78136 0.87696 0.53536 0.0
Co224 Co 0.88251 0.98432 0.25502 0.0
O225 O 0.9167 0.96841 0.26232 0.0
O226 O 0.89784 0.00016 0.28736 0.0
C227 C 0.86002 0.94548 0.24635 0.0
O228 O 0.84745 0.00458 0.255 0.0
Co229 Co 0.85471 0.97987 0.19895 0.0
O230 O 0.82373 -0.00278 0.21685 0.0
C231 C 0.90043 0.01779 0.20699 0.0
C232 C 0.91769 0.98378 0.28366 0.0
C233 C 0.82624 0.00746 0.24039 0.0
O234 O 0.90023 0.01294 0.23243 0.0
O235 O 0.8854 0.00506 0.18992 0.0
O236 O 0.86415 0.95347 0.27107 0.0
O237 O 0.87155 0.95988 0.22793 0.0
Co238 Co 0.22794 0.62413 0.51502 0.0
O239 O 0.24723 0.59109 0.52059 0.0
O240 O 0.22655 0.60269 0.4827 0.0
C241 C 0.26027 0.65053 0.53352 0.0
O242 O 0.20774 0.65587 0.49973 0.0
Co243 Co 0.20969 0.6634 0.55933 0.0
O244 O 0.19946 0.68826 0.53005 0.0
C245 C 0.18339 0.60976 0.55308 0.0
C246 C 0.24169 0.58581 0.49541 0.0
C247 C 0.19907 0.67933 0.50594 0.0
O248 O 0.1941 0.60692 0.52963 0.0
O249 O 0.18888 0.62979 0.56871 0.0
O250 O 0.26197 0.64291 0.50845 0.0
O251 O 0.23957 0.64172 0.54666 0.0
Co252 Co 0.37685 0.45858 0.76034 0.0
O253 O 0.40945 0.43884 0.76652 0.0
O254 O 0.39469 0.47238 0.7921 0.0
C255 C 0.34951 0.42312 0.75111 0.0
O256 O 0.34495 0.48355 0.76188 0.0
Co257 Co 0.34577 0.45955 0.7059 0.0
O258 O 0.31739 0.47889 0.72608 0.0
C259 C 0.39831 0.48759 0.71154 0.0
C260 C 0.41321 0.45486 0.78718 0.0
C261 C 0.32306 0.48891 0.74918 0.0
O262 O 0.39776 0.48424 0.73719 0.0
O263 O 0.38044 0.47797 0.69526 0.0
O264 O 0.35484 0.42974 0.77607 0.0
O265 O 0.36229 0.43674 0.73302 0.0
Co266 Co 0.62868 0.03245 0.72113 0.0
O267 O 0.65597 0.00649 0.71196 0.0
O268 O 0.65286 0.02781 0.75116 0.0
C269 C 0.59382 0.00793 0.70468 0.0
O270 O 0.60344 0.0583 0.73994 0.0
Co271 Co 0.59123 0.06063 0.68037 0.0
O272 O 0.57054 0.07216 0.71239 0.0
C273 C 0.64895 0.07599 0.6838 0.0
C274 C 0.66489 0.00992 0.73649 0.0
C275 C 0.58109 0.07038 0.73576 0.0
O276 O 0.6515 0.06267 0.7059 0.0
O277 O 0.62722 0.07583 0.66973 0.0
O278 O 0.60334 0.00305 0.72863 0.0
O279 O 0.60628 0.02634 0.69112 0.0
Co280 Co 0.77801 0.62106 0.00754 0.0
O281 O 0.78182 0.6009 0.04008 0.0
O282 O 0.81479 0.60888 0.0111 0.0
C283 C 0.75489 0.6545 0.02671 0.0
O284 O 0.78172 0.64232 0.9727 0.0
Co285 Co 0.72114 0.63199 0.98362 0.0
O286 O 0.74094 0.65517 0.95784 0.0
C287 C 0.74331 0.57739 0.98337 0.0
C288 C 0.8069 0.59801 0.03361 0.0
C289 C 0.76658 0.65529 0.95622 0.0
O290 O 0.76717 0.5871 0.98756 0.0
O291 O 0.72205 0.59164 0.98426 0.0
O292 O 0.7811 0.6547 0.02803 0.0
O293 O 0.74378 0.63359 0.0155 0.0
Co294 Co 0.8627 0.52958 0.75063 0.0
O295 O 0.89551 0.53698 0.73092 0.0
O296 O 0.87794 0.49643 0.7391 0.0
C297 C 0.83754 0.56047 0.73 0.0
O298 O 0.8299 0.51249 0.76792 0.0
Co299 Co 0.83392 0.56891 0.78836 0.0
O300 O 0.80524 0.54087 0.7924 0.0
C301 C 0.88497 0.54453 0.80577 0.0
C302 C 0.89676 0.5109 0.72799 0.0
C303 C 0.80922 0.51763 0.78232 0.0
O304 O 0.88379 0.52854 0.78528 0.0
O305 O 0.86804 0.56338 0.80965 0.0
O306 O 0.84157 0.53711 0.71882 0.0
O307 O 0.84998 0.56521 0.75264 0.0
Co308 Co 0.72849 0.3628 0.50678 0.0
O309 O 0.73266 0.33199 0.53018 0.0
O310 O 0.76219 0.34634 0.49986 0.0
C311 C 0.71418 0.39199 0.53824 0.0
O312 O 0.73417 0.39298 0.48059 0.0
Co313 Co 0.67606 0.39287 0.49396 0.0
O314 O 0.70044 0.42234 0.48074 0.0
C315 C 0.68652 0.3403 0.4676 0.0
C316 C 0.7562 0.32961 0.51891 0.0
C317 C 0.72424 0.41571 0.47424 0.0
O318 O 0.71032 0.34006 0.47807 0.0
O319 O 0.66917 0.35844 0.47297 0.0
O320 O 0.73968 0.38675 0.53605 0.0
O321 O 0.69797 0.37799 0.52288 0.0
Co322 Co 0.61211 0.49252 0.22592 0.0
O323 O 0.6416 0.48939 0.20133 0.0
O324 O 0.62674 0.45693 0.22833 0.0
C325 C 0.58457 0.51237 0.19646 0.0
O326 O 0.58213 0.48733 0.25302 0.0
Co327 Co 0.58924 0.54772 0.24363 0.0
O328 O 0.56327 0.52641 0.26528 0.0
C329 C 0.64077 0.52916 0.26631 0.0
C330 C 0.64344 0.46474 0.20976 0.0
C331 C 0.56508 0.50089 0.26671 0.0
O332 O 0.63721 0.50596 0.25502 0.0
O333 O 0.62511 0.54907 0.26246 0.0
O334 O 0.58686 0.48629 0.19634 0.0
O335 O 0.59993 0.52562 0.21316 0.0
Sc336 Sc 0.0942 0.17881 0.13232 0.0
Sc337 Sc 0.12165 0.11815 0.15479 0.0
Sc338 Sc 0.13824 0.14205 0.09091 0.0
O339 O 0.11796 0.14641 0.12595 0.0
C340 C 0.08209 0.16619 0.07076 0.0
C341 C 0.05914 0.12894 0.15432 0.0
C342 C 0.12156 0.08185 0.10097 0.0
C343 C 0.11872 0.17173 0.19053 0.0
C344 C 0.14628 0.20437 0.10427 0.0
C345 C 0.18147 0.12356 0.13517 0.0
O346 O 0.07522 0.17493 0.09375 0.0
O347 O 0.07895 0.11314 0.15628 0.0
O348 O 0.12443 0.10124 0.08461 0.0
O349 O 0.1107 0.1866 0.17154 0.0
O350 O 0.15423 0.18217 0.09448 0.0
O351 O 0.16469 0.12156 0.15435 0.0
O352 O 0.12418 0.20688 0.11692 0.0
O353 O 0.12158 0.14649 0.18786 0.0
O354 O 0.17446 0.12852 0.11097 0.0
O355 O 0.06159 0.1538 0.14822 0.0
O356 O 0.10456 0.15492 0.06653 0.0
O357 O 0.12222 0.0852 0.12639 0.0
Sc358 Sc 0.15892 0.86788 0.37564 0.0
Sc359 Sc 0.08932 0.86172 0.38034 0.0
Sc360 Sc 0.11756 0.90905 0.33785 0.0
O361 O 0.12195 0.87944 0.36445 0.0
C362 C 0.16711 0.92991 0.37417 0.0
C363 C 0.12547 0.86366 0.43067 0.0
C364 C 0.07079 0.9231 0.37601 0.0
C365 C 0.13104 0.81274 0.37526 0.0
C366 C 0.16699 0.88224 0.31301 0.0
C367 C 0.07052 0.86706 0.32096 0.0
O368 O 0.16939 0.90834 0.38769 0.0
O369 O 0.10354 0.87156 0.42015 0.0
O370 O 0.09222 0.93124 0.36458 0.0
O371 O 0.14974 0.8268 0.3645 0.0
O372 O 0.14268 0.88904 0.3094 0.0
O373 O 0.07361 0.85142 0.34097 0.0
O374 O 0.17609 0.87591 0.33619 0.0
O375 O 0.1091 0.82319 0.38321 0.0
O376 O 0.08295 0.88964 0.31904 0.0
O377 O 0.1463 0.8588 0.41659 0.0
O378 O 0.15164 0.93169 0.3537 0.0
O379 O 0.06595 0.89819 0.38022 0.0
Sc380 Sc 0.41367 0.84458 0.61594 0.0
Sc381 Sc 0.35241 0.85853 0.58239 0.0
Sc382 Sc 0.37082 0.89531 0.64033 0.0
O383 O 0.37914 0.86621 0.61278 0.0
C384 C 0.39697 0.85129 0.67782 0.0
C385 C 0.36984 0.79972 0.60044 0.0
C386 C 0.3129 0.86789 0.63181 0.0
C387 C 0.40815 0.84981 0.55199 0.0
C388 C 0.43411 0.90388 0.63194 0.0
C389 C 0.35143 0.92243 0.58546 0.0
O390 O 0.40978 0.83981 0.65893 0.0
O391 O 0.35377 0.81626 0.58975 0.0
O392 O 0.33005 0.88131 0.64573 0.0
O393 O 0.42192 0.84591 0.5733 0.0
O394 O 0.41091 0.91176 0.63894 0.0
O395 O 0.34813 0.90042 0.57249 0.0
O396 O 0.43834 0.88051 0.62213 0.0
O397 O 0.38328 0.85552 0.55247 0.0
O398 O 0.35928 0.92347 0.60988 0.0
O399 O 0.3926 0.80641 0.6106 0.0
O400 O 0.38163 0.87111 0.67397 0.0
O401 O 0.31784 0.85921 0.60827 0.0
Sc402 Sc 0.3879 0.07157 0.84732 0.0
Sc403 Sc 0.38369 0.1405 0.85586 0.0
Sc404 Sc 0.33654 0.09859 0.88586 0.0
O405 O 0.36916 0.10364 0.86301 0.0
C406 C 0.32827 0.05598 0.83701 0.0
C407 C 0.39436 0.11556 0.80096 0.0
C408 C 0.31991 0.15072 0.85667 0.0
C409 C 0.43747 0.10533 0.86211 0.0
C410 C 0.36663 0.04846 0.90338 0.0
C411 C 0.36917 0.14611 0.91648 0.0
O412 O 0.35158 0.05961 0.82691 0.0
O413 O 0.38076 0.13311 0.81345 0.0
O414 O 0.3131 0.12689 0.86338 0.0
O415 O 0.42501 0.08326 0.86711 0.0
O416 O 0.3579 0.07114 0.91081 0.0
O417 O 0.38665 0.14947 0.89806 0.0
O418 O 0.37621 0.04475 0.87992 0.0
O419 O 0.42495 0.12666 0.8557 0.0
O420 O 0.34881 0.13025 0.91386 0.0
O421 O 0.40132 0.09357 0.81195 0.0
O422 O 0.32126 0.06623 0.85962 0.0
O423 O 0.34443 0.15844 0.85506 0.0
Sc424 Sc 0.66003 0.34856 0.89608 0.0
Sc425 Sc 0.59207 0.35016 0.88163 0.0
Sc426 Sc 0.63568 0.39505 0.85047 0.0
O427 O 0.62903 0.36499 0.87615 0.0
C428 C 0.67338 0.40875 0.90232 0.0
C429 C 0.61229 0.34333 0.93865 0.0
C430 C 0.58102 0.41334 0.87438 0.0
C431 C 0.6291 0.29731 0.88145 0.0
C432 C 0.68828 0.36759 0.84175 0.0
C433 C 0.5913 0.35888 0.8194 0.0
O434 O 0.66862 0.38672 0.91465 0.0
O435 O 0.59613 0.35652 0.9241 0.0
O436 O 0.60489 0.41996 0.8675 0.0
O437 O 0.6512 0.31016 0.87745 0.0
O438 O 0.66554 0.37141 0.83095 0.0
O439 O 0.58614 0.34367 0.83933 0.0
O440 O 0.68992 0.3599 0.86609 0.0
O441 O 0.60696 0.30944 0.88565 0.0
O442 O 0.60707 0.37938 0.82102 0.0
O443 O 0.63516 0.33603 0.92992 0.0
O444 O 0.66525 0.41322 0.87821 0.0
O445 O 0.57365 0.389 0.87835 0.0
Sc446 Sc 0.9006 0.33618 0.12482 0.0
Sc447 Sc 0.8719 0.38954 0.16187 0.0
Sc448 Sc 0.84962 0.37533 0.09586 0.0
O449 O 0.874 0.36689 0.12762 0.0
C450 C 0.90494 0.36349 0.0668 0.0
C451 C 0.93518 0.38074 0.15667 0.0
C452 C 0.86607 0.43434 0.11674 0.0
C453 C 0.88088 0.33078 0.18578 0.0
C454 C 0.84961 0.31105 0.0938 0.0
C455 C 0.80988 0.38245 0.14526 0.0
O456 O 0.91372 0.34814 0.08521 0.0
O457 O 0.91486 0.3932 0.16558 0.0
O458 O 0.85695 0.4177 0.09931 0.0
O459 O 0.89142 0.32121 0.16449 0.0
O460 O 0.84003 0.33381 0.08774 0.0
O461 O 0.82861 0.38781 0.16216 0.0
O462 O 0.87082 0.30846 0.10805 0.0
O463 O 0.87201 0.35466 0.18727 0.0
O464 O 0.81429 0.37717 0.12058 0.0
O465 O 0.93327 0.36028 0.14116 0.0
O466 O 0.88225 0.37483 0.06808 0.0
O467 O 0.87236 0.42755 0.1406 0.0
Sc468 Sc 0.87701 0.57395 0.34804 0.0
Sc469 Sc 0.89544 0.63815 0.36779 0.0
Sc470 Sc 0.84986 0.6013 0.40599 0.0
O471 O 0.87404 0.60463 0.37421 0.0
C472 C 0.81591 0.57558 0.35627 0.0
C473 C 0.88279 0.62448 0.3093 0.0
C474 C 0.83993 0.66116 0.39081 0.0
C475 C 0.93609 0.59014 0.35294 0.0
C476 C 0.86456 0.54291 0.40296 0.0
C477 C 0.90151 0.63363 0.43003 0.0
O478 O 0.83515 0.57683 0.33939 0.0
O479 O 0.87861 0.64105 0.3283 0.0
O480 O 0.83037 0.63823 0.39722 0.0
O481 O 0.91893 0.57131 0.35722 0.0
O482 O 0.86792 0.56412 0.417 0.0
O483 O 0.91251 0.63729 0.40724 0.0
O484 O 0.86627 0.54357 0.37741 0.0
O485 O 0.9296 0.61503 0.35283 0.0
O486 O 0.87828 0.62247 0.4327 0.0
O487 O 0.88683 0.59964 0.31385 0.0
O488 O 0.81903 0.58057 0.38149 0.0
O489 O 0.86386 0.66448 0.38201 0.0
Sc490 Sc 0.89364 0.85389 0.86414 0.0
Sc491 Sc 0.83006 0.87391 0.88228 0.0
Sc492 Sc 0.86748 0.91205 0.83654 0.0
O493 O 0.86368 0.88007 0.86077 0.0
C494 C 0.92651 0.90966 0.85767 0.0
C495 C 0.8766 0.85603 0.92314 0.0
C496 C 0.83932 0.93561 0.8902 0.0
C497 C 0.8408 0.81548 0.86617 0.0
C498 C 0.89283 0.86319 0.80221 0.0
C499 C 0.80663 0.89964 0.8276 0.0
O500 O 0.92532 0.88407 0.85936 0.0
O501 O 0.85178 0.85599 0.91618 0.0
O502 O 0.84809 0.9386 0.86612 0.0
O503 O 0.86609 0.81971 0.86928 0.0
O504 O 0.88713 0.88818 0.80485 0.0
O505 O 0.80367 0.89133 0.85172 0.0
O506 O 0.89271 0.84686 0.82184 0.0
O507 O 0.82415 0.83467 0.86475 0.0
O508 O 0.82969 0.90337 0.81723 0.0
O509 O 0.8955 0.86056 0.9066 0.0
O510 O 0.90574 0.9237 0.85355 0.0
O511 O 0.8351 0.91261 0.90068 0.0
Sc512 Sc 0.87407 0.12294 0.56499 0.0
Sc513 Sc 0.92387 0.15148 0.60822 0.0
Sc514 Sc 0.88128 0.09982 0.63142 0.0
O515 O 0.89317 0.12475 0.60142 0.0
C516 C 0.82584 0.11873 0.60763 0.0
C517 C 0.88179 0.18592 0.57439 0.0
C518 C 0.89511 0.15353 0.66476 0.0
C519 C 0.93537 0.13372 0.54773 0.0
C520 C 0.87539 0.06129 0.5794 0.0
C521 C 0.94453 0.09663 0.63467 0.0
O522 O 0.8342 0.12067 0.58343 0.0
O523 O 0.90161 0.18451 0.59076 0.0
O524 O 0.88566 0.12965 0.66312 0.0
O525 O 0.91125 0.12616 0.5423 0.0
O526 O 0.87508 0.06578 0.60465 0.0
O527 O 0.94886 0.12062 0.62638 0.0
O528 O 0.87657 0.08002 0.56216 0.0
O529 O 0.94266 0.14243 0.57078 0.0
O530 O 0.92117 0.08619 0.63699 0.0
O531 O 0.87002 0.1655 0.56391 0.0
O532 O 0.84084 0.11241 0.6273 0.0
O533 O 0.90851 0.16445 0.64606 0.0
Sc534 Sc 0.6064 0.07198 0.34012 0.0
Sc535 Sc 0.64417 0.11118 0.38657 0.0
Sc536 Sc 0.58041 0.1317 0.36649 0.0
O537 O 0.61043 0.10486 0.36434 0.0
C538 C 0.58346 0.12053 0.3045 0.0
C539 C 0.6676 0.08802 0.33107 0.0
C540 C 0.63229 0.17095 0.3727 0.0
C541 C 0.63511 0.04836 0.39252 0.0
C542 C 0.54682 0.07617 0.35994 0.0
C543 C 0.59641 0.12643 0.42705 0.0
O544 O 0.58959 0.09583 0.3076 0.0
O545 O 0.67065 0.09925 0.3541 0.0
O546 O 0.60699 0.16646 0.37179 0.0
O547 O 0.62344 0.04494 0.36977 0.0
O548 O 0.54866 0.10168 0.36206 0.0
O549 O 0.62131 0.12347 0.42164 0.0
O550 O 0.56707 0.06165 0.35509 0.0
O551 O 0.64236 0.07125 0.40174 0.0
O552 O 0.57812 0.12708 0.40903 0.0
O553 O 0.64511 0.07861 0.32271 0.0
O554 O 0.58167 0.13715 0.32402 0.0
O555 O 0.64919 0.15207 0.3739 0.0
Sc556 Sc 0.66433 0.85923 0.13136 0.0
Sc557 Sc 0.60177 0.82876 0.14531 0.0
Sc558 Sc 0.6333 0.8712 0.19401 0.0
O559 O 0.63317 0.85306 0.15698 0.0
C560 C 0.69527 0.85657 0.18793 0.0
C561 C 0.65228 0.79721 0.12225 0.0
C562 C 0.61091 0.81156 0.20623 0.0
C563 C 0.61336 0.86023 0.09131 0.0
C564 C 0.65592 0.9178 0.1556 0.0
C565 C 0.57174 0.87589 0.17687 0.0
O566 O 0.69436 0.85496 0.16238 0.0
O567 O 0.62738 0.79828 0.12805 0.0
O568 O 0.62149 0.83392 0.2141 0.0
O569 O 0.63822 0.86461 0.09656 0.0
O570 O 0.64443 0.91034 0.1773 0.0
O571 O 0.57196 0.85617 0.16038 0.0
O572 O 0.6638 0.90156 0.13756 0.0
O573 O 0.59764 0.84822 0.10748 0.0
O574 O 0.59234 0.88337 0.19038 0.0
O575 O 0.66819 0.81739 0.12342 0.0
O576 O 0.67477 0.86191 0.20212 0.0
O577 O 0.60317 0.8071 0.18216 0.0
Sc578 Sc 0.3531 0.62313 0.04367 0.0
Sc579 Sc 0.3995 0.65222 0.09024 0.0
Sc580 Sc 0.37142 0.58867 0.10263 0.0
O581 O 0.37472 0.62134 0.0787 0.0
C582 C 0.31094 0.60059 0.08718 0.0
C583 C 0.34854 0.683 0.0667 0.0
C584 C 0.37759 0.63561 0.14714 0.0
C585 C 0.41057 0.64765 0.02725 0.0
C586 C 0.36665 0.56106 0.04397 0.0
C587 C 0.4339 0.59957 0.10312 0.0
O588 O 0.31624 0.61019 0.06394 0.0
O589 O 0.3698 0.68232 0.08116 0.0
O590 O 0.37384 0.6111 0.14028 0.0
O591 O 0.38787 0.63702 0.02065 0.0
O592 O 0.36883 0.56055 0.06947 0.0
O593 O 0.43174 0.62506 0.10097 0.0
O594 O 0.36245 0.58266 0.03116 0.0
O595 O 0.41692 0.65412 0.05125 0.0
O596 O 0.41378 0.58343 0.10262 0.0
O597 O 0.34071 0.66338 0.05193 0.0
O598 O 0.32898 0.59272 0.10348 0.0
O599 O 0.38485 0.65358 0.1306 0.0
Sc600 Sc 0.12305 0.57944 0.8597 0.0
Sc601 Sc 0.16238 0.61301 0.90895 0.0
Sc602 Sc 0.10024 0.63792 0.89019 0.0
O603 O 0.12868 0.61002 0.88613 0.0
C604 C 0.10273 0.63156 0.82779 0.0
C605 C 0.1849 0.59068 0.85253 0.0
C606 C 0.15468 0.67335 0.89644 0.0
C607 C 0.14971 0.55108 0.91126 0.0
C608 C 0.06389 0.58487 0.87985 0.0
C609 C 0.1157 0.62932 0.94989 0.0
O610 O 0.10674 0.6062 0.82914 0.0
O611 O 0.18833 0.59826 0.87696 0.0
O612 O 0.12918 0.67022 0.89755 0.0
O613 O 0.13971 0.55008 0.88746 0.0
O614 O 0.06702 0.61013 0.88329 0.0
O615 O 0.14067 0.6276 0.94419 0.0
O616 O 0.08345 0.56957 0.8745 0.0
O617 O 0.1562 0.57301 0.92317 0.0
O618 O 0.09728 0.62954 0.93204 0.0
O619 O 0.16177 0.58622 0.84223 0.0
O620 O 0.10229 0.64685 0.84842 0.0
O621 O 0.17062 0.65356 0.89627 0.0
Sc622 Sc 0.14267 0.37501 0.62094 0.0
Sc623 Sc 0.0773 0.35246 0.63749 0.0
Sc624 Sc 0.11379 0.39457 0.68257 0.0
O625 O 0.11127 0.37403 0.64699 0.0
C626 C 0.17397 0.37381 0.67726 0.0
C627 C 0.12423 0.31354 0.61804 0.0
C628 C 0.08641 0.33875 0.6995 0.0
C629 C 0.09195 0.37777 0.58092 0.0
C630 C 0.13874 0.43614 0.64035 0.0
C631 C 0.05263 0.40417 0.66559 0.0
O632 O 0.17263 0.36907 0.65208 0.0
O633 O 0.09991 0.31744 0.62496 0.0
O634 O 0.10145 0.35912 0.70525 0.0
O635 O 0.117 0.3809 0.58597 0.0
O636 O 0.12617 0.43143 0.66224 0.0
O637 O 0.05087 0.38473 0.64883 0.0
O638 O 0.14645 0.4177 0.62441 0.0
O639 O 0.07545 0.36784 0.59765 0.0
O640 O 0.07354 0.40885 0.67976 0.0
O641 O 0.1415 0.33249 0.6157 0.0
O642 O 0.15454 0.38357 0.69038 0.0
O643 O 0.07566 0.33507 0.67647 0.0
Sc644 Sc 0.57931 0.64531 0.6181 0.0
Sc645 Sc 0.62217 0.60462 0.65682 0.0
Sc646 Sc 0.64427 0.62986 0.59455 0.0
O647 O 0.61519 0.62647 0.6231 0.0
C648 C 0.59032 0.6241 0.55887 0.0
C649 C 0.56037 0.59051 0.64566 0.0
C650 C 0.64784 0.56795 0.61054 0.0
C651 C 0.59271 0.65648 0.68018 0.0
C652 C 0.62154 0.68917 0.59689 0.0
C653 C 0.67986 0.63219 0.64824 0.0
O654 O 0.5744 0.63029 0.5778 0.0
O655 O 0.5832 0.58557 0.65597 0.0
O656 O 0.65113 0.58726 0.59407 0.0
O657 O 0.58093 0.6622 0.65815 0.0
O658 O 0.64049 0.67264 0.59343 0.0
O659 O 0.66182 0.62122 0.66267 0.0
O660 O 0.59794 0.68228 0.60421 0.0
O661 O 0.6079 0.63622 0.68278 0.0
O662 O 0.6767 0.63618 0.62317 0.0
O663 O 0.5559 0.61106 0.63131 0.0
O664 O 0.61585 0.6242 0.56165 0.0
O665 O 0.6375 0.57094 0.63382 0.0
Sc666 Sc 0.33003 0.3796 0.39769 0.0
Sc667 Sc 0.36984 0.40995 0.34998 0.0
Sc668 Sc 0.39036 0.35167 0.37989 0.0
O669 O 0.36326 0.38032 0.3757 0.0
C670 C 0.37558 0.35988 0.43867 0.0
C671 C 0.34253 0.43985 0.4001 0.0
C672 C 0.42693 0.40452 0.37131 0.0
C673 C 0.30974 0.40205 0.34032 0.0
C674 C 0.33392 0.31977 0.38656 0.0
C675 C 0.39089 0.35771 0.31877 0.0
O676 O 0.35063 0.36136 0.43225 0.0
O677 O 0.34951 0.43958 0.37534 0.0
O678 O 0.42437 0.37885 0.37099 0.0
O679 O 0.30586 0.39799 0.36548 0.0
O680 O 0.35955 0.3211 0.38945 0.0
O681 O 0.39036 0.38337 0.32136 0.0
O682 O 0.32004 0.34059 0.38212 0.0
O683 O 0.33295 0.40071 0.32984 0.0
O684 O 0.38632 0.34177 0.33821 0.0
O685 O 0.3398 0.4185 0.41381 0.0
O686 O 0.39434 0.36181 0.42147 0.0
O687 O 0.40668 0.41975 0.3701 0.0
H688 H 0.04558 0.22398 0.32745 0.0
H689 H 0.11725 0.27433 0.33517 0.0
H690 H 0.06653 0.19894 0.29096 0.0
H691 H 0.13808 0.24931 0.2981 0.0
H692 H 0.11515 0.14652 0.23909 0.0
H693 H 0.10881 0.16827 0.28287 0.0
H694 H 0.12222 0.24622 0.24675 0.0
H695 H 0.12834 0.22466 0.20289 0.0
C696 C 0.06582 0.22966 0.32135 0.0
C697 C 0.0797 0.25124 0.33389 0.0
C698 C 0.07792 0.2151 0.30076 0.0
C699 C 0.10396 0.22212 0.29207 0.0
C700 C 0.11804 0.24351 0.30471 0.0
C701 C 0.1061 0.25779 0.32574 0.0
C702 C 0.11757 0.16823 0.24063 0.0
C703 C 0.12164 0.18399 0.21753 0.0
C704 C 0.1139 0.18061 0.26564 0.0
C705 C 0.11473 0.20883 0.26791 0.0
C706 C 0.12156 0.2244 0.24542 0.0
C707 C 0.12484 0.21208 0.22033 0.0
H708 H 0.08955 0.73853 0.53216 0.0
H709 H 0.06725 0.80449 0.5846 0.0
H710 H 0.11269 0.77011 0.50279 0.0
H711 H 0.09105 0.83605 0.55533 0.0
H712 H 0.08922 0.87706 0.46954 0.0
H713 H 0.07959 0.85175 0.51021 0.0
H714 H 0.14955 0.80284 0.4962 0.0
H715 H 0.159 0.82793 0.45516 0.0
C716 C 0.09002 0.75969 0.53775 0.0
C717 C 0.07609 0.76899 0.56051 0.0
C718 C 0.1036 0.7778 0.52102 0.0
C719 C 0.10366 0.80562 0.52668 0.0
C720 C 0.0911 0.81476 0.55029 0.0
C721 C 0.07746 0.79664 0.56704 0.0
C722 C 0.10303 0.86145 0.47555 0.0
C723 C 0.12456 0.8542 0.45886 0.0
C724 C 0.09759 0.847 0.49898 0.0
C725 C 0.11353 0.82495 0.50614 0.0
C726 C 0.13664 0.81944 0.49091 0.0
C727 C 0.14218 0.83401 0.46752 0.0
H728 H 0.48797 0.86139 0.81968 0.0
H729 H 0.44939 0.78351 0.83099 0.0
H730 H 0.45843 0.86932 0.78089 0.0
H731 H 0.42038 0.79135 0.79205 0.0
H732 H 0.38827 0.88103 0.72328 0.0
H733 H 0.40593 0.87255 0.76837 0.0
H734 H 0.43666 0.79619 0.74114 0.0
H735 H 0.41944 0.80468 0.69578 0.0
C736 C 0.47296 0.84621 0.81413 0.0
C737 C 0.47111 0.82179 0.82814 0.0
C738 C 0.45601 0.85078 0.79212 0.0
C739 C 0.43732 0.83083 0.78363 0.0
C740 C 0.43473 0.80692 0.79828 0.0
C741 C 0.45131 0.80253 0.82052 0.0
C742 C 0.39825 0.86213 0.72699 0.0
C743 C 0.4028 0.84363 0.70589 0.0
C744 C 0.40841 0.85741 0.75275 0.0
C745 C 0.42275 0.8339 0.75796 0.0
C746 C 0.42555 0.81445 0.7375 0.0
C747 C 0.41581 0.81936 0.71158 0.0
H748 H 0.4155 0.17295 0.07735 0.0
H749 H 0.41437 0.25513 0.04912 0.0
H750 H 0.39312 0.15774 0.03607 0.0
H751 H 0.39191 0.23978 0.00743 0.0
H752 H 0.40341 0.18864 0.92683 0.0
H753 H 0.41194 0.21097 0.96998 0.0
H754 H 0.35117 0.16046 0.00716 0.0
H755 H 0.34258 0.13791 0.96398 0.0
C756 C 0.40997 0.18781 0.06247 0.0
C757 C 0.4169 0.21513 0.06616 0.0
C758 C 0.39695 0.17914 0.03896 0.0
C759 C 0.39093 0.1976 0.01856 0.0
C760 C 0.39651 0.22518 0.02286 0.0
C761 C 0.40924 0.23394 0.04666 0.0
C762 C 0.39167 0.18243 0.94412 0.0
C763 C 0.3727 0.16114 0.9421 0.0
C764 C 0.39631 0.19548 0.96874 0.0
C765 C 0.38222 0.18737 0.99184 0.0
C766 C 0.36237 0.16696 0.98961 0.0
C767 C 0.35753 0.15405 0.96492 0.0
H768 H 0.03987 0.81826 0.16307 0.0
H769 H 0.9627 0.79529 0.19638 0.0
H770 H 0.05254 0.84012 0.20557 0.0
H771 H 0.97577 0.81675 0.23959 0.0
H772 H 0.04194 0.8194 0.31437 0.0
H773 H 0.01758 0.80407 0.27381 0.0
H774 H 0.03459 0.8804 0.23582 0.0
H775 H 0.05861 0.89594 0.27598 0.0
C776 C 0.02551 0.81828 0.17945 0.0
C777 C 0.00033 0.80535 0.17659 0.0
C778 C 0.0327 0.8308 0.20367 0.0
C779 C 0.01505 0.8301 0.22567 0.0
C780 C 0.9896 0.81755 0.22277 0.0
C781 C 0.9821 0.80552 0.19815 0.0
C782 C 0.04007 0.83309 0.29756 0.0
C783 C 0.05276 0.85866 0.29822 0.0
C784 C 0.02595 0.82438 0.2745 0.0
C785 C 0.02449 0.84107 0.25181 0.0
C786 C 0.03566 0.86717 0.25308 0.0
C787 C 0.04953 0.87593 0.27607 0.0
H788 H 0.49071 0.77305 0.41598 0.0
H789 H 0.40874 0.74308 0.42264 0.0
H790 H 0.48201 0.80685 0.45088 0.0
H791 H 0.40006 0.77696 0.45736 0.0
H792 H 0.45813 0.82899 0.54193 0.0
H793 H 0.47135 0.80465 0.50134 0.0
H794 H 0.39771 0.82823 0.46181 0.0
H795 H 0.38437 0.85267 0.50217 0.0
C796 C 0.47081 0.77377 0.42481 0.0
C797 C 0.45038 0.75539 0.41666 0.0
C798 C 0.46589 0.7931 0.44475 0.0
C799 C 0.44033 0.79466 0.4566 0.0
C800 C 0.41984 0.77648 0.44822 0.0
C801 C 0.42486 0.75693 0.42855 0.0
C802 C 0.4451 0.82974 0.52435 0.0
C803 C 0.41987 0.84229 0.5256 0.0
C804 C 0.4527 0.81575 0.50109 0.0
C805 C 0.43519 0.81403 0.47875 0.0
C806 C 0.41127 0.82876 0.47903 0.0
C807 C 0.40376 0.8429 0.50214 0.0
H808 H 0.45338 0.20045 0.65954 0.0
H809 H 0.51999 0.19039 0.71517 0.0
H810 H 0.42548 0.17075 0.68678 0.0
H811 H 0.49171 0.16092 0.74268 0.0
H812 H 0.3782 0.15464 0.76643 0.0
H813 H 0.40515 0.17566 0.73134 0.0
H814 H 0.46727 0.11675 0.74342 0.0
H815 H 0.44046 0.09587 0.77893 0.0
C816 C 0.46213 0.19192 0.67757 0.0
C817 C 0.48889 0.19808 0.68533 0.0
C818 C 0.44609 0.17487 0.69314 0.0
C819 C 0.45639 0.16357 0.71683 0.0
C820 C 0.48334 0.16909 0.72429 0.0
C821 C 0.49944 0.1862 0.70869 0.0
C822 C 0.3973 0.14576 0.76114 0.0
C823 C 0.40729 0.12376 0.77556 0.0
C824 C 0.41272 0.15775 0.74099 0.0
C825 C 0.43847 0.14804 0.73493 0.0
C826 C 0.44766 0.12487 0.74801 0.0
C827 C 0.43214 0.11273 0.76809 0.0
H828 H 0.9857 0.15979 0.92296 0.0
H829 H 0.98522 0.24258 0.95107 0.0
H830 H 0.00966 0.14684 0.96385 0.0
H831 H 0.00931 0.22954 0.99172 0.0
H832 H 0.03453 0.19325 0.07119 0.0
H833 H 0.00457 0.20179 0.0333 0.0
H834 H 0.05678 0.15678 0.98078 0.0
H835 H 0.08683 0.14793 0.01871 0.0
C836 C 0.99036 0.17516 0.93798 0.0
C837 C 0.98377 0.20227 0.93364 0.0
C838 C 0.00423 0.16774 0.96127 0.0
C839 C 0.0115 0.18722 0.98077 0.0
C840 C 0.0038 0.21408 0.97706 0.0
C841 C 0.99014 0.22155 0.9537 0.0
C842 C 0.03961 0.18496 0.05163 0.0
C843 C 0.06325 0.17006 0.04795 0.0
C844 C 0.02244 0.18995 0.02995 0.0
C845 C 0.02842 0.18001 0.00416 0.0
C846 C 0.05157 0.16445 0.00055 0.0
C847 C 0.06887 0.15957 0.02223 0.0
H848 H 0.31806 0.02604 0.14793 0.0
H849 H 0.33506 0.08579 0.20984 0.0
H850 H 0.28189 0.05389 0.13047 0.0
H851 H 0.29926 0.11383 0.19208 0.0
H852 H 0.22177 0.1125 0.09931 0.0
H853 H 0.26703 0.09669 0.10991 0.0
H854 H 0.25058 0.10565 0.19494 0.0
H855 H 0.2058 0.12169 0.18449 0.0
C856 C 0.31449 0.0454 0.15739 0.0
C857 C 0.32894 0.05351 0.18055 0.0
C858 C 0.29391 0.06145 0.14728 0.0
C859 C 0.28754 0.08587 0.16016 0.0
C860 C 0.30344 0.09488 0.18205 0.0
C861 C 0.32393 0.07883 0.19219 0.0
C862 C 0.22804 0.11161 0.12024 0.0
C863 C 0.21005 0.11793 0.14109 0.0
C864 C 0.2539 0.10246 0.12627 0.0
C865 C 0.26225 0.09976 0.15323 0.0
C866 C 0.24485 0.10775 0.17395 0.0
C867 C 0.21905 0.1167 0.16796 0.0
H868 H 0.24386 0.06165 0.46482 0.0
H869 H 0.16703 0.08685 0.43257 0.0
H870 H 0.24157 0.02127 0.4366 0.0
H871 H 0.16478 0.04636 0.40464 0.0
H872 H 0.17083 0.97808 0.3481 0.0
H873 H 0.18638 0.02104 0.36693 0.0
H874 H 0.21045 0.98108 0.44015 0.0
H875 H 0.19509 0.93798 0.42137 0.0
C876 C 0.2267 0.05883 0.45142 0.0
C877 C 0.2054 0.07727 0.45119 0.0
C878 C 0.22543 0.03569 0.43534 0.0
C879 C 0.20299 0.03071 0.4186 0.0
C880 C 0.18248 0.04988 0.41718 0.0
C881 C 0.18363 0.07293 0.43338 0.0
C882 C 0.17986 0.97832 0.36805 0.0
C883 C 0.18111 0.95472 0.38355 0.0
C884 C 0.18877 0.00293 0.37875 0.0
C885 C 0.19918 0.00436 0.40507 0.0
C886 C 0.20257 0.98049 0.41972 0.0
C887 C 0.19361 0.95583 0.40903 0.0
H888 H 0.16935 0.87739 0.72867 0.0
H889 H 0.15588 0.9088 0.64883 0.0
H890 H 0.20823 0.85259 0.71203 0.0
H891 H 0.19447 0.88436 0.63228 0.0
H892 H 0.26816 0.84626 0.60641 0.0
H893 H 0.22214 0.84457 0.62357 0.0
H894 H 0.25051 0.87663 0.70005 0.0
H895 H 0.29628 0.87801 0.68321 0.0
C896 C 0.17404 0.8781 0.70738 0.0
C897 C 0.16018 0.89546 0.69011 0.0
C898 C 0.19633 0.86403 0.69789 0.0
C899 C 0.20474 0.86703 0.67101 0.0
C900 C 0.18858 0.88159 0.65308 0.0
C901 C 0.16656 0.89581 0.6626 0.0
C902 C 0.26465 0.85244 0.62706 0.0
C903 C 0.28577 0.86303 0.6432 0.0
C904 C 0.23831 0.85133 0.6369 0.0
C905 C 0.23267 0.86067 0.66305 0.0
C906 C 0.25416 0.86903 0.67989 0.0
C907 C 0.28041 0.87024 0.67006 0.0
H908 H 0.23318 0.95759 0.93787 0.0
H909 H 0.27794 0.93894 0.01027 0.0
H910 H 0.27261 0.98174 0.92036 0.0
H911 H 0.31725 0.96348 0.99279 0.0
H912 H 0.35276 -0.00144 0.8843 0.0
H913 H 0.32172 0.96717 0.90624 0.0
H914 H 0.32689 0.01443 0.97954 0.0
H915 H 0.35774 0.04615 0.95756 0.0
C916 C 0.2513 0.95893 0.95016 0.0
C917 C 0.25249 0.94641 0.97541 0.0
C918 C 0.27394 0.97239 0.94 0.0
C919 C 0.29801 0.97396 0.95509 0.0
C920 C 0.29897 0.96228 0.98072 0.0
C921 C 0.27648 0.94837 0.99069 0.0
C922 C 0.34827 0.00165 0.90544 0.0
C923 C 0.35741 0.02499 0.91914 0.0
C924 C 0.33021 0.98387 0.91785 0.0
C925 C 0.32152 0.98886 0.94428 0.0
C926 C 0.33321 0.0103 0.95906 0.0
C927 C 0.35094 0.02834 0.94653 0.0
H928 H 0.25313 0.00564 0.24873 0.0
H929 H 0.31015 0.9427 0.23181 0.0
H930 H 0.21861 0.97145 0.25795 0.0
H931 H 0.27555 0.90866 0.24105 0.0
H932 H 0.22122 0.87251 0.31228 0.0
H933 H 0.25443 0.89707 0.28572 0.0
H934 H 0.19061 0.93239 0.23882 0.0
H935 H 0.15725 0.90778 0.26519 0.0
C936 C 0.25821 0.98458 0.24655 0.0
C937 C 0.28454 0.97696 0.23999 0.0
C938 C 0.23835 0.96498 0.25157 0.0
C939 C 0.24448 0.9374 0.25027 0.0
C940 C 0.27037 0.92977 0.24234 0.0
C941 C 0.29015 0.94934 0.2371 0.0
C942 C 0.21423 0.8847 0.29567 0.0
C943 C 0.18654 0.88875 0.29143 0.0
C944 C 0.2333 0.89877 0.28041 0.0
C945 C 0.225 0.91715 0.2607 0.0
C946 C 0.19748 0.91873 0.25429 0.0
C947 C 0.1784 0.90446 0.26935 0.0
H948 H 0.24109 0.04215 0.54712 0.0
H949 H 0.31498 0.08688 0.53227 0.0
H950 H 0.26693 0.00167 0.55538 0.0
H951 H 0.34096 0.0461 0.54102 0.0
H952 H 0.36675 0.97365 0.59999 0.0
H953 H 0.34724 0.01562 0.58414 0.0
H954 H 0.29816 0.97077 0.52673 0.0
H955 H 0.3177 0.92873 0.54233 0.0
C956 C 0.26287 0.04337 0.5458 0.0
C957 C 0.27607 0.06766 0.5392 0.0
C958 C 0.27761 0.02013 0.55022 0.0
C959 C 0.30584 0.02082 0.54851 0.0
C960 C 0.31917 0.04516 0.54232 0.0
C961 C 0.30434 0.0684 0.53741 0.0
C962 C 0.35218 0.97278 0.58362 0.0
C963 C 0.34345 0.94788 0.57265 0.0
C964 C 0.34118 -0.0032 0.57448 0.0
C965 C 0.32104 -0.00375 0.5545 0.0
C966 C 0.31351 0.97157 0.54237 0.0
C967 C 0.32478 0.94758 0.55122 0.0
H968 H 0.19336 0.95612 0.77722 0.0
H969 H 0.20522 0.02446 0.72486 0.0
H970 H 0.23656 0.96663 0.79965 0.0
H971 H 0.24822 0.03467 0.74688 0.0
H972 H 0.28173 0.03273 0.85565 0.0
H973 H 0.24705 0.00881 0.82935 0.0
H974 H 0.29532 0.01744 0.75767 0.0
H975 H 0.3301 0.04138 0.78385 0.0
C976 C 0.20557 0.97286 0.77003 0.0
C977 C 0.19593 0.98974 0.74963 0.0
C978 C 0.23012 0.97891 0.7829 0.0
C979 C 0.24553 0.00153 0.77505 0.0
C980 C 0.23683 0.01702 0.75319 0.0
C981 C 0.21215 0.0113 0.74073 0.0
C982 C 0.28508 0.02929 0.83434 0.0
C983 C 0.3084 0.03939 0.82172 0.0
C984 C 0.2654 0.01528 0.81939 0.0
C985 C 0.26858 0.01135 0.79153 0.0
C986 C 0.29243 0.02031 0.77914 0.0
C987 C 0.31225 0.03405 0.79413 0.0
H988 H 0.19345 0.93404 0.08815 0.0
H989 H 0.14742 0.93008 0.01391 0.0
H990 H 0.16858 0.97366 0.10202 0.0
H991 H 0.12256 0.97007 0.0278 0.0
H992 H 0.11272 0.03545 0.12916 0.0
H993 H 0.12212 0.98974 0.11418 0.0
H994 H 0.13849 0.01898 0.03405 0.0
H995 H 0.12902 0.06481 0.04885 0.0
C996 C 0.17779 0.94146 0.07495 0.0
C997 C 0.17255 0.92919 0.04987 0.0
C998 C 0.16337 0.96399 0.08299 0.0
C999 C 0.14361 0.97486 0.06598 0.0
C1000 C 0.13773 0.96208 0.04123 0.0
C1001 C 0.15194 0.93924 0.03334 0.0
C1002 C 0.11774 0.03213 0.10818 0.0
C1003 C 0.12083 0.0539 0.09037 0.0
C1004 C 0.12311 0.00593 0.09965 0.0
C1005 C 0.13152 0.00097 0.07314 0.0
C1006 C 0.13202 0.02227 0.05462 0.0
C1007 C 0.12671 0.04855 0.06316 0.0
H1008 H 0.22364 0.31706 0.00747 0.0
H1009 H 0.27577 0.32323 0.07753 0.0
H1010 H 0.1921 0.28895 0.03274 0.0
H1011 H 0.24418 0.2945 0.10269 0.0
H1012 H 0.13121 0.25549 0.0916 0.0
H1013 H 0.16115 0.29227 0.07654 0.0
H1014 H 0.23042 0.24314 0.09272 0.0
H1015 H 0.20067 0.20637 0.10711 0.0
C1016 C 0.22837 0.31237 0.02826 0.0
C1017 C 0.25229 0.32205 0.04046 0.0
C1018 C 0.21014 0.29663 0.04279 0.0
C1019 C 0.21569 0.28989 0.06964 0.0
C1020 C 0.23948 0.29966 0.08201 0.0
C1021 C 0.25752 0.31593 0.06761 0.0
C1022 C 0.15285 0.2529 0.0925 0.0
C1023 C 0.16374 0.22814 0.1001 0.0
C1024 C 0.16989 0.2738 0.08387 0.0
C1025 C 0.19797 0.27033 0.08343 0.0
C1026 C 0.20885 0.24631 0.09305 0.0
C1027 C 0.19186 0.22527 0.10107 0.0
H1028 H 0.68142 0.1466 0.95207 0.0
H1029 H 0.64362 0.19937 0.00993 0.0
H1030 H 0.66405 0.17388 0.9153 0.0
H1031 H 0.62614 0.2264 0.97305 0.0
H1032 H 0.67205 0.26329 0.8775 0.0
H1033 H 0.67834 0.22264 0.90396 0.0
H1034 H 0.59581 0.22611 0.93074 0.0
H1035 H 0.58921 0.26646 0.90412 0.0
C1036 C 0.66889 0.16363 0.95697 0.0
C1037 C 0.66417 0.17103 0.98399 0.0
C1038 C 0.65902 0.17922 0.93586 0.0
C1039 C 0.64386 0.20221 0.94136 0.0
C1040 C 0.63757 0.20858 0.96825 0.0
C1041 C 0.64776 0.19322 0.98938 0.0
C1042 C 0.65493 0.25485 0.88818 0.0
C1043 C 0.63037 0.26858 0.88921 0.0
C1044 C 0.65853 0.23152 0.90331 0.0
C1045 C 0.63769 0.22166 0.91981 0.0
C1046 C 0.61229 0.23359 0.91847 0.0
C1047 C 0.60856 0.25667 0.90307 0.0
H1048 H 0.07733 0.44694 0.23902 0.0
H1049 H 0.08593 0.46387 0.15411 0.0
H1050 H 0.03788 0.41827 0.22894 0.0
H1051 H 0.04667 0.43529 0.14411 0.0
H1052 H 0.9837 0.36895 0.13374 0.0
H1053 H 0.02809 0.38719 0.14657 0.0
H1054 H 0.99192 0.43237 0.21135 0.0
H1055 H 0.94773 0.41427 0.19875 0.0
C1056 C 0.07105 0.44416 0.21822 0.0
C1057 C 0.08436 0.45779 0.19735 0.0
C1058 C 0.04853 0.42785 0.21248 0.0
C1059 C 0.0393 0.42473 0.18579 0.0
C1060 C 0.05355 0.4372 0.16482 0.0
C1061 C 0.07584 0.45371 0.17057 0.0
C1062 C 0.98529 0.38257 0.15087 0.0
C1063 C 0.96221 0.39046 0.16503 0.0
C1064 C 0.01064 0.39296 0.15817 0.0
C1065 C 0.01331 0.41108 0.17994 0.0
C1066 C 0.99041 0.41816 0.19469 0.0
C1067 C 0.96509 0.40804 0.18725 0.0
H1068 H 0.76713 0.81766 0.42772 0.0
H1069 H 0.78498 0.77447 0.5009 0.0
H1070 H 0.77976 0.77817 0.40092 0.0
H1071 H 0.79691 0.73488 0.47409 0.0
H1072 H 0.79268 0.66237 0.41871 0.0
H1073 H 0.77142 0.70179 0.43818 0.0
H1074 H 0.82884 0.75365 0.39799 0.0
H1075 H 0.85075 0.71416 0.37867 0.0
C1076 C 0.77334 0.79959 0.43805 0.0
C1077 C 0.77521 0.79904 0.46634 0.0
C1078 C 0.78059 0.77714 0.42273 0.0
C1079 C 0.78915 0.75366 0.43555 0.0
C1080 C 0.79012 0.75279 0.46383 0.0
C1081 C 0.78346 0.7754 0.47912 0.0
C1082 C 0.80055 0.68213 0.41347 0.0
C1083 C 0.82378 0.68509 0.3975 0.0
C1084 C 0.78834 0.70464 0.42471 0.0
C1085 C 0.79877 0.73052 0.41976 0.0
C1086 C 0.82051 0.73377 0.40201 0.0
C1087 C 0.83305 0.71119 0.39106 0.0
H1088 H 0.92858 0.05569 0.23655 0.0
H1089 H 0.91482 0.02757 0.15476 0.0
H1090 H 0.96292 0.08734 0.22046 0.0
H1091 H 0.94922 0.05926 0.13886 0.0
H1092 H 0.04247 0.07922 0.13893 0.0
H1093 H -0.00017 0.05671 0.14888 0.0
H1094 H 0.97215 0.12866 0.18897 0.0
H1095 H 0.0152 0.15161 0.17854 0.0
C1096 C 0.93263 0.05646 0.21513 0.0
C1097 C 0.91929 0.03877 0.19699 0.0
C1098 C 0.95206 0.07482 0.20592 0.0
C1099 C 0.95869 0.07563 0.17848 0.0
C1100 C 0.94448 0.0589 0.16016 0.0
C1101 C 0.92486 0.04074 0.1693 0.0
C1102 C 0.02716 0.09038 0.14958 0.0
C1103 C 0.03212 0.11701 0.15825 0.0
C1104 C 0.00268 0.07758 0.15503 0.0
C1105 C 0.98276 0.09099 0.16964 0.0
C1106 C 0.98729 0.11796 0.17767 0.0
C1107 C 0.01176 0.13104 0.17168 0.0
H1108 H 0.30266 0.67738 0.51041 0.0
H1109 H 0.26604 0.65969 0.58726 0.0
H1110 H 0.33552 0.70712 0.53301 0.0
H1111 H 0.29929 0.68867 0.60989 0.0
H1112 H 0.32383 0.78005 0.62098 0.0
H1113 H 0.30201 0.73749 0.60887 0.0
H1114 H 0.37336 0.71372 0.56558 0.0
H1115 H 0.39523 0.75689 0.57791 0.0
C1116 C 0.30192 0.67954 0.53215 0.0
C1117 C 0.28144 0.66684 0.54702 0.0
C1118 C 0.32096 0.69623 0.54514 0.0
C1119 C 0.31987 0.7003 0.57322 0.0
C1120 C 0.30039 0.68617 0.5882 0.0
C1121 C 0.28127 0.66973 0.57521 0.0
C1122 C 0.33518 0.76522 0.60981 0.0
C1123 C 0.36103 0.77149 0.60028 0.0
C1124 C 0.32277 0.74081 0.6029 0.0
C1125 C 0.33588 0.72239 0.58599 0.0
C1126 C 0.36273 0.72771 0.5784 0.0
C1127 C 0.37533 0.75217 0.58565 0.0
H1128 H 0.02323 0.52203 0.22985 0.0
H1129 H 0.08928 0.5669 0.26692 0.0
H1130 H 0.99387 0.53522 0.26672 0.0
H1131 H 0.05948 0.58046 0.30378 0.0
H1132 H 0.97629 0.62328 0.33358 0.0
H1133 H 0.01402 0.60958 0.30543 0.0
H1134 H 0.9935 0.52598 0.3192 0.0
H1135 H 0.95606 0.53934 0.34753 0.0
C1136 C 0.03142 0.53487 0.24577 0.0
C1137 C 0.0585 0.54354 0.24546 0.0
C1138 C 0.01471 0.54216 0.26699 0.0
C1139 C 0.0246 0.55859 0.28812 0.0
C1140 C 0.05152 0.56768 0.28771 0.0
C1141 C 0.06846 0.55993 0.26667 0.0
C1142 C 0.98029 0.60198 0.33132 0.0
C1143 C 0.96274 0.58242 0.34231 0.0
C1144 C 0.0019 0.59419 0.31522 0.0
C1145 C 0.00616 0.56678 0.30982 0.0
C1146 C 0.99025 0.54726 0.32279 0.0
C1147 C 0.96886 0.55498 0.33906 0.0
H1148 H 0.42127 0.47473 0.8381 0.0
H1149 H 0.46174 0.43528 0.77214 0.0
H1150 H 0.46337 0.47501 0.8644 0.0
H1151 H 0.50371 0.43612 0.79812 0.0
H1152 H 0.5792 0.45479 0.83886 0.0
H1153 H 0.53765 0.47254 0.8199 0.0
H1154 H 0.49174 0.43309 0.88229 0.0
H1155 H 0.53321 0.41491 0.90107 0.0
C1156 C 0.43919 0.46628 0.82921 0.0
C1157 C 0.43827 0.45468 0.80324 0.0
C1158 C 0.4632 0.46662 0.84417 0.0
C1159 C 0.48675 0.45602 0.83305 0.0
C1160 C 0.4859 0.44491 0.80691 0.0
C1161 C 0.46183 0.44405 0.79222 0.0
C1162 C 0.56044 0.45102 0.84938 0.0
C1163 C 0.55931 0.43301 0.8711 0.0
C1164 C 0.53665 0.461 0.83835 0.0
C1165 C 0.5116 0.45357 0.84932 0.0
C1166 C 0.51085 0.43896 0.87343 0.0
C1167 C 0.53458 0.42861 0.88419 0.0
H1168 H 0.94014 0.7594 0.66896 0.0
H1169 H 0.00326 0.81997 0.67696 0.0
H1170 H 0.91258 0.78416 0.70072 0.0
H1171 H 0.97612 0.8443 0.70985 0.0
H1172 H 0.91508 0.89052 0.75921 0.0
H1173 H 0.93631 0.87044 0.71941 0.0
H1174 H 0.91354 0.79104 0.7476 0.0
H1175 H 0.89185 0.81088 0.7862 0.0
C1176 C 0.9482 0.77796 0.67768 0.0
C1177 C 0.97401 0.78754 0.6708 0.0
C1178 C 0.9324 0.79218 0.69592 0.0
C1179 C 0.9422 0.81611 0.70816 0.0
C1180 C 0.96777 0.82612 0.70064 0.0
C1181 C 0.98346 0.81204 0.68202 0.0
C1182 C 0.9141 0.86884 0.75644 0.0
C1183 C 0.90195 0.8523 0.77596 0.0
C1184 C 0.92651 0.8573 0.73384 0.0
C1185 C 0.92681 0.82907 0.73033 0.0
C1186 C 0.91348 0.81282 0.74929 0.0
C1187 C 0.90118 0.82425 0.77167 0.0
H1188 H 0.01007 0.20684 0.40917 0.0
H1189 H 0.04305 0.24145 0.48263 0.0
H1190 H 0.99174 0.16891 0.43429 0.0
H1191 H 0.02369 0.204 0.50816 0.0
H1192 H 0.99028 0.13526 0.55129 0.0
H1193 H 0.02062 0.15723 0.5195 0.0
H1194 H 0.95428 0.16529 0.46329 0.0
H1195 H 0.92434 0.14272 0.49466 0.0
C1196 C 0.0135 0.20622 0.43076 0.0
C1197 C 0.0275 0.22732 0.44411 0.0
C1198 C 0.00298 0.18448 0.44514 0.0
C1199 C 0.00581 0.18355 0.47329 0.0
C1200 C 0.02132 0.20387 0.48644 0.0
C1201 C 0.03226 0.22548 0.47191 0.0
C1202 C 0.98246 0.14086 0.5317 0.0
C1203 C 0.95481 0.13778 0.52565 0.0
C1204 C -0.00021 0.1537 0.51361 0.0
C1205 C 0.98976 0.16378 0.4892 0.0
C1206 C 0.96279 0.15782 0.4819 0.0
C1207 C 0.94552 0.14478 0.4999 0.0
H1208 H 0.5094 0.13671 0.14932 0.0
H1209 H 0.53912 0.21737 0.16688 0.0
H1210 H 0.53412 0.11977 0.18803 0.0
H1211 H 0.5649 0.20026 0.20486 0.0
H1212 H 0.56393 0.16968 0.29144 0.0
H1213 H 0.55033 0.18556 0.24769 0.0
H1214 H 0.57563 0.11066 0.21133 0.0
H1215 H 0.58859 0.09414 0.25583 0.0
C1216 C 0.52174 0.15071 0.1611 0.0
C1217 C 0.52187 0.17845 0.15553 0.0
C1218 C 0.53609 0.14096 0.18316 0.0
C1219 C 0.55112 0.15875 0.1998 0.0
C1220 C 0.5529 0.18617 0.19286 0.0
C1221 C 0.53819 0.19597 0.17112 0.0
C1222 C 0.56688 0.15656 0.27419 0.0
C1223 C 0.57714 0.1305 0.27722 0.0
C1224 C 0.55932 0.16584 0.24894 0.0
C1225 C 0.56203 0.14946 0.22594 0.0
C1226 C 0.57306 0.12367 0.22874 0.0
C1227 C 0.58052 0.11423 0.25419 0.0
H1228 H 0.59068 0.82842 0.92782 0.0
H1229 H 0.51294 0.86096 0.94763 0.0
H1230 H 0.60905 0.8455 0.97009 0.0
H1231 H 0.5317 0.87956 0.98953 0.0
H1232 H 0.6407 0.87755 0.04631 0.0
H1233 H 0.62277 0.87987 0.00042 0.0
H1234 H 0.54327 0.85929 0.03012 0.0
H1235 H 0.56074 0.85834 0.07552 0.0
C1236 C 0.57766 0.83979 0.94098 0.0
C1237 C 0.55022 0.84279 0.93479 0.0
C1238 C 0.5883 0.84994 0.96515 0.0
C1239 C 0.57182 0.86369 0.98349 0.0
C1240 C 0.54483 0.8685 0.9762 0.0
C1241 C 0.53406 0.85791 0.9522 0.0
C1242 C 0.61928 0.87424 0.04304 0.0
C1243 C 0.60231 0.86702 0.06447 0.0
C1244 C 0.60901 0.87539 0.01672 0.0
C1245 C 0.58166 0.86917 0.01141 0.0
C1246 C 0.56438 0.86434 0.03325 0.0
C1247 C 0.57454 0.86344 0.05942 0.0
H1248 H 0.89203 0.21019 0.83089 0.0
H1249 H 0.94076 0.26631 0.7854 0.0
H1250 H 0.87511 0.18984 0.7891 0.0
H1251 H 0.92531 0.2451 0.74359 0.0
H1252 H 0.89143 0.13435 0.71594 0.0
H1253 H 0.8937 0.16055 0.75752 0.0
H1254 H 0.89211 0.23432 0.71147 0.0
H1255 H 0.89136 0.2079 0.66988 0.0
C1256 C 0.89888 0.21829 0.81184 0.0
C1257 C 0.9178 0.23958 0.8112 0.0
C1258 C 0.88937 0.20654 0.78792 0.0
C1259 C 0.89919 0.21543 0.76292 0.0
C1260 C 0.91699 0.23786 0.76238 0.0
C1261 C 0.92602 0.24999 0.78633 0.0
C1262 C 0.89111 0.15615 0.7148 0.0
C1263 C 0.89173 0.16913 0.68981 0.0
C1264 C 0.89223 0.17126 0.73864 0.0
C1265 C 0.89344 0.19965 0.73791 0.0
C1266 C 0.89195 0.21254 0.7128 0.0
C1267 C 0.89138 0.19742 0.68899 0.0
H1268 H 0.51352 0.17777 0.57159 0.0
H1269 H 0.59521 0.20897 0.57672 0.0
H1270 H 0.52634 0.1482 0.53456 0.0
H1271 H 0.60778 0.18074 0.53864 0.0
H1272 H 0.62761 0.1237 0.47289 0.0
H1273 H 0.61529 0.13826 0.51823 0.0
H1274 H 0.5352 0.15664 0.48931 0.0
H1275 H 0.54698 0.14111 0.44488 0.0
C1276 C 0.53421 0.17831 0.56467 0.0
C1277 C 0.55328 0.19596 0.57652 0.0
C1278 C 0.54158 0.16142 0.54349 0.0
C1279 C 0.56797 0.16243 0.53327 0.0
C1280 C 0.58735 0.17917 0.54612 0.0
C1281 C 0.58011 0.1956 0.56775 0.0
C1282 C 0.60724 0.13039 0.47643 0.0
C1283 C 0.58842 0.13165 0.45519 0.0
C1284 C 0.60022 0.13884 0.50236 0.0
C1285 C 0.57434 0.1489 0.50739 0.0
C1286 C 0.55518 0.14867 0.48641 0.0
C1287 C 0.56207 0.13997 0.46071 0.0
H1288 H 0.54587 0.716 0.33746 0.0
H1289 H 0.5124 0.68557 0.26247 0.0
H1290 H 0.57966 0.74191 0.31288 0.0
H1291 H 0.54554 0.71238 0.23759 0.0
H1292 H 0.61043 0.75763 0.19675 0.0
H1293 H 0.59092 0.72261 0.22513 0.0
H1294 H 0.57694 0.78213 0.28744 0.0
H1295 H 0.59732 0.8169 0.2593 0.0
C1296 C 0.54602 0.71463 0.31563 0.0
C1297 C 0.5264 0.69911 0.30175 0.0
C1298 C 0.56527 0.72959 0.30157 0.0
C1299 C 0.56503 0.72969 0.27327 0.0
C1300 C 0.54649 0.71264 0.25941 0.0
C1301 C 0.52742 0.69731 0.27358 0.0
C1302 C 0.60377 0.76305 0.21682 0.0
C1303 C 0.60505 0.79002 0.22577 0.0
C1304 C 0.59243 0.74302 0.23298 0.0
C1305 C 0.58185 0.74959 0.25833 0.0
C1306 C 0.58505 0.77625 0.26809 0.0
C1307 C 0.59671 0.79626 0.25199 0.0
H1308 H 0.91291 0.76623 0.07057 0.0
H1309 H 0.98743 0.80014 0.0404 0.0
H1310 H 0.88794 0.78882 0.03491 0.0
H1311 H 0.96296 0.82141 0.00393 0.0
H1312 H 0.915 0.87775 0.956 0.0
H1313 H 0.93473 0.85731 -0.00416 0.0
H1314 H 0.87769 0.79064 0.98872 0.0
H1315 H 0.85697 0.81227 0.94983 0.0
C1316 C 0.92397 0.7781 0.05596 0.0
C1317 C 0.95206 0.78159 0.05827 0.0
C1318 C 0.90968 0.79106 0.03549 0.0
C1319 C 0.92329 0.80741 0.0167 0.0
C1320 C 0.95159 0.80981 0.01851 0.0
C1321 C 0.96574 0.79732 0.03922 0.0
C1322 C 0.90629 0.8591 0.9635 0.0
C1323 C 0.8845 0.84657 0.95003 0.0
C1324 C 0.91782 0.84711 0.98605 0.0
C1325 C 0.90836 0.82186 -0.00486 0.0
C1326 C 0.8855 0.8101 0.98246 0.0
C1327 C 0.87354 0.82249 0.96021 0.0
H1328 H 0.68559 0.01209 0.7875 0.0
H1329 H 0.69128 0.96815 0.71226 0.0
H1330 H 0.71752 0.98162 0.80819 0.0
H1331 H 0.72309 0.9373 0.73317 0.0
H1332 H 0.80408 0.91209 0.77403 0.0
H1333 H 0.76908 0.93711 0.75107 0.0
H1334 H 0.72053 0.93481 0.82306 0.0
H1335 H 0.75587 0.91016 0.84634 0.0
C1336 C 0.69372 -0.00405 0.77533 0.0
C1337 C 0.68594 0.99258 0.7482 0.0
C1338 C 0.71179 0.97827 0.78731 0.0
C1339 C 0.72258 0.95677 0.77246 0.0
C1340 C 0.71519 0.95368 0.74516 0.0
C1341 C 0.69701 0.97138 0.73316 0.0
C1342 C 0.78574 0.91646 0.78488 0.0
C1343 C 0.78296 0.90935 0.81218 0.0
C1344 C 0.76561 0.93077 0.77163 0.0
C1345 C 0.74221 0.93838 0.78536 0.0
C1346 C 0.73861 0.92974 0.8121 0.0
C1347 C 0.75873 0.91532 0.82535 0.0
H1348 H 0.80552 0.90641 0.57027 0.0
H1349 H 0.8376 0.91344 0.48977 0.0
H1350 H 0.83102 0.94619 0.58422 0.0
H1351 H 0.86414 0.95303 0.50403 0.0
H1352 H 0.88269 0.01499 0.60802 0.0
H1353 H 0.87274 0.96891 0.5932 0.0
H1354 H 0.85122 -0.00177 0.51416 0.0
H1355 H 0.86205 0.04397 0.52862 0.0
C1356 C 0.81852 0.91615 0.55568 0.0
C1357 C 0.81913 0.90721 0.52878 0.0
C1358 C 0.83342 0.93886 0.56377 0.0
C1359 C 0.84943 0.95301 0.54517 0.0
C1360 C 0.85158 0.94285 0.51871 0.0
C1361 C 0.83649 0.92014 0.51056 0.0
C1362 C 0.87621 0.01151 0.58737 0.0
C1363 C 0.87266 0.03317 0.56964 0.0
C1364 C 0.8705 0.98512 0.57888 0.0
C1365 C 0.86083 0.9799 0.55261 0.0
C1366 C 0.8589 0.00143 0.53445 0.0
C1367 C 0.86488 0.02775 0.54283 0.0
H1368 H 0.81896 0.0223 0.29276 0.0
H1369 H 0.7835 0.02907 0.21327 0.0
H1370 H 0.78182 0.04713 0.31177 0.0
H1371 H 0.74667 0.05495 0.23224 0.0
H1372 H 0.72025 0.10366 0.3406 0.0
H1373 H 0.75992 0.08926 0.31583 0.0
H1374 H 0.70846 0.04584 0.25917 0.0
H1375 H 0.6691 0.06102 0.28299 0.0
C1376 C 0.8034 0.02944 0.27926 0.0
C1377 C 0.80403 0.02348 0.25153 0.0
C1378 C 0.78222 0.04397 0.29015 0.0
C1379 C 0.76127 0.05315 0.27355 0.0
C1380 C 0.7623 0.04786 0.24566 0.0
C1381 C 0.78339 0.03304 0.23478 0.0
C1382 C 0.71742 0.09149 0.32255 0.0
C1383 C 0.6915 0.08313 0.3141 0.0
C1384 C 0.74015 0.08309 0.30845 0.0
C1385 C 0.7374 0.066 0.28577 0.0
C1386 C 0.7114 0.05913 0.27639 0.0
C1387 C 0.68875 0.06771 0.29028 0.0
H1388 H 0.68825 0.03769 0.04334 0.0
H1389 H 0.65867 0.08806 0.10797 0.0
H1390 H 0.67935 -0.00213 0.07051 0.0
H1391 H 0.65006 0.04801 0.13516 0.0
H1392 H 0.61946 0.95858 0.16009 0.0
H1393 H 0.62279 0.00233 0.13705 0.0
H1394 H 0.70422 0.98422 0.11332 0.0
H1395 H 0.70084 0.94099 0.13597 0.0
C1396 C 0.67941 0.04029 0.06309 0.0
C1397 C 0.67463 0.06611 0.07361 0.0
C1398 C 0.67451 0.0175 0.07873 0.0
C1399 C 0.66463 0.02003 0.10513 0.0
C1400 C 0.65785 0.04558 0.11494 0.0
C1401 C 0.66288 0.06846 0.09933 0.0
C1402 C 0.63831 0.96452 0.15073 0.0
C1403 C 0.65985 0.94652 0.14955 0.0
C1404 C 0.64012 0.98932 0.13737 0.0
C1405 C 0.66346 -0.00388 0.12275 0.0
C1406 C 0.68572 0.97907 0.12377 0.0
C1407 C 0.68392 0.95452 0.13698 0.0
H1408 H 0.65282 0.10191 0.63537 0.0
H1409 H 0.69886 0.08298 0.70701 0.0
H1410 H 0.69337 0.12037 0.61451 0.0
H1411 H 0.73927 0.10134 0.686 0.0
H1412 H 0.78104 0.10145 0.57947 0.0
H1413 H 0.73519 0.0983 0.5975 0.0
H1414 H 0.76115 0.14268 0.6686 0.0
H1415 H 0.80679 0.1453 0.65084 0.0
C1416 C 0.67146 0.10203 0.64688 0.0
C1417 C 0.67264 0.09063 0.67282 0.0
C1418 C 0.69467 0.11255 0.63481 0.0
C1419 C 0.71945 0.11219 0.64854 0.0
C1420 C 0.72036 0.10217 0.67501 0.0
C1421 C 0.69722 0.09147 0.68701 0.0
C1422 C 0.77662 0.11127 0.59848 0.0
C1423 C 0.79736 0.12314 0.61405 0.0
C1424 C 0.75045 0.10949 0.60884 0.0
C1425 C 0.74484 0.11973 0.63476 0.0
C1426 C 0.76507 0.13406 0.64889 0.0
C1427 C 0.79111 0.13565 0.63868 0.0
H1428 H 0.73025 0.97346 0.51172 0.0
H1429 H 0.71045 0.90568 0.45956 0.0
H1430 H 0.70199 0.00219 0.4841 0.0
H1431 H 0.68138 0.93398 0.43276 0.0
H1432 H 0.65745 0.00202 0.37414 0.0
H1433 H 0.68203 0.9696 0.40133 0.0
H1434 H 0.65609 0.01023 0.47396 0.0
H1435 H 0.63273 0.0432 0.44662 0.0
C1436 C 0.71981 0.9647 0.49444 0.0
C1437 C 0.72267 0.93737 0.4878 0.0
C1438 C 0.70337 0.98106 0.47875 0.0
C1439 C 0.68915 0.9703 0.45635 0.0
C1440 C 0.69224 0.943 0.44965 0.0
C1441 C 0.70893 0.92677 0.46509 0.0
C1442 C 0.65644 0.00344 0.39593 0.0
C1443 C 0.64338 0.02502 0.40838 0.0
C1444 C 0.6706 0.98499 0.41155 0.0
C1445 C 0.67153 0.98769 0.43985 0.0
C1446 C 0.65652 0.00808 0.45222 0.0
C1447 C 0.6428 0.0267 0.43662 0.0
H1448 H 0.84331 0.92907 0.19644 0.0
H1449 H 0.83379 0.9118 0.28114 0.0
H1450 H 0.80709 0.89735 0.18555 0.0
H1451 H 0.79791 0.87917 0.2702 0.0
H1452 H 0.74333 0.84065 0.16653 0.0
H1453 H 0.78812 0.85281 0.18353 0.0
H1454 H 0.75253 0.88575 0.25573 0.0
H1455 H 0.70808 0.87283 0.23927 0.0
C1456 C 0.83385 0.91802 0.2127 0.0
C1457 C 0.84093 0.92334 0.23966 0.0
C1458 C 0.81324 0.89953 0.20645 0.0
C1459 C 0.79939 0.88581 0.22704 0.0
C1460 C 0.80787 0.88973 0.25391 0.0
C1461 C 0.82841 0.9084 0.26017 0.0
C1462 C 0.74515 0.84976 0.1864 0.0
C1463 C 0.72209 0.85654 0.20118 0.0
C1464 C 0.77082 0.85682 0.19608 0.0
C1465 C 0.77386 0.87101 0.22058 0.0
C1466 C 0.75102 0.87489 0.23674 0.0
C1467 C 0.72539 0.8676 0.22719 0.0
H1468 H 0.7881 0.0521 0.01312 0.0
H1469 H 0.73203 0.05549 0.94623 0.0
H1470 H 0.81588 0.02081 0.98747 0.0
H1471 H 0.75951 0.02415 0.92085 0.0
H1472 H 0.82485 0.98559 0.87208 0.0
H1473 H 0.80362 0.02133 0.89837 0.0
H1474 H 0.81286 0.97428 0.97071 0.0
H1475 H 0.83433 0.93898 0.94471 0.0
C1476 C 0.7816 0.04602 0.99306 0.0
C1477 C 0.75782 0.05619 0.98176 0.0
C1478 C 0.79753 0.02816 0.97834 0.0
C1479 C 0.79005 0.02022 0.952 0.0
C1480 C 0.76615 0.03029 0.94085 0.0
C1481 C 0.75022 0.04801 0.95556 0.0
C1482 C 0.82291 0.9832 0.89368 0.0
C1483 C 0.83104 0.95935 0.90625 0.0
C1484 C 0.81051 0.00352 0.9087 0.0
C1485 C 0.80623 0.00046 0.93658 0.0
C1486 C 0.81592 0.97735 0.94933 0.0
C1487 C 0.82811 0.95703 0.93436 0.0
H1488 H 0.81848 0.67464 0.95538 0.0
H1489 H 0.74354 0.67533 0.91048 0.0
H1490 H 0.83699 0.70919 0.92602 0.0
H1491 H 0.76241 0.7092 0.88036 0.0
H1492 H 0.78807 0.79914 0.87048 0.0
H1493 H 0.77145 0.7558 0.88587 0.0
H1494 H 0.85235 0.72466 0.88346 0.0
H1495 H 0.86923 0.76857 0.86891 0.0
C1496 C 0.8062 0.68164 0.93878 0.0
C1497 C 0.77938 0.67261 0.93559 0.0
C1498 C 0.81689 0.70138 0.92176 0.0
C1499 C 0.80108 0.7123 0.90096 0.0
C1500 C 0.77494 0.70172 0.89655 0.0
C1501 C 0.76415 0.68223 0.91377 0.0
C1502 C 0.80231 0.78294 0.87263 0.0
C1503 C 0.83009 0.78758 0.86903 0.0
C1504 C 0.79271 0.7579 0.88135 0.0
C1505 C 0.81062 0.73677 0.88641 0.0
C1506 C 0.83809 0.74069 0.88043 0.0
C1507 C 0.84774 0.76584 0.8719 0.0
H1508 H 0.21587 0.7954 0.05567 0.0
H1509 H 0.28923 0.84338 0.06043 0.0
H1510 H 0.24138 0.75521 0.06745 0.0
H1511 H 0.31463 0.80353 0.07159 0.0
H1512 H 0.35418 0.72776 0.09938 0.0
H1513 H 0.32438 0.76646 0.10181 0.0
H1514 H 0.27361 0.73068 0.03966 0.0
H1515 H 0.30282 0.69207 0.03748 0.0
C1516 C 0.23727 0.79745 0.0599 0.0
C1517 C 0.2507 0.82231 0.05672 0.0
C1518 C 0.2519 0.77448 0.06643 0.0
C1519 C 0.28009 0.77616 0.07 0.0
C1520 C 0.29298 0.80153 0.06908 0.0
C1521 C 0.27843 0.82435 0.06247 0.0
C1522 C 0.33666 0.72817 0.08625 0.0
C1523 C 0.33111 0.70692 0.06802 0.0
C1524 C 0.31953 0.75026 0.08775 0.0
C1525 C 0.29654 0.75151 0.07107 0.0
C1526 C 0.29081 0.73008 0.0532 0.0
C1527 C 0.30785 0.70808 0.05169 0.0
H1528 H 0.89099 0.56677 0.85625 0.0
H1529 H 0.93207 0.51822 0.79709 0.0
H1530 H 0.93244 0.57037 0.8828 0.0
H1531 H 0.97356 0.52277 0.82283 0.0
H1532 H 0.01696 0.61199 0.88679 0.0
H1533 H 0.97183 0.59631 0.87585 0.0
H1534 H 0.00176 0.51621 0.86075 0.0
H1535 H 0.04749 0.53233 0.87072 0.0
C1536 C 0.90876 0.55659 0.84908 0.0
C1537 C 0.90837 0.54267 0.82429 0.0
C1538 C 0.93256 0.55873 0.86425 0.0
C1539 C 0.95656 0.54735 0.85474 0.0
C1540 C 0.95553 0.53165 0.831 0.0
C1541 C 0.93167 0.52921 0.81604 0.0
C1542 C 0.01398 0.5909 0.88161 0.0
C1543 C 0.03602 0.57362 0.87895 0.0
C1544 C 0.98789 0.58177 0.87556 0.0
C1545 C 0.9831 0.55504 0.86695 0.0
C1546 C 0.00482 0.5371 0.86668 0.0
C1547 C 0.03103 0.54631 0.87253 0.0
H1548 H 0.22199 0.17258 0.59553 0.0
H1549 H 0.1587 0.16694 0.5354 0.0
H1550 H 0.19763 0.20812 0.61865 0.0
H1551 H 0.13484 0.2033 0.55786 0.0
H1552 H 0.09407 0.26709 0.60875 0.0
H1553 H 0.11133 0.22235 0.59723 0.0
H1554 H 0.19293 0.25379 0.604 0.0
H1555 H 0.17608 0.29751 0.61589 0.0
C1556 C 0.20277 0.17883 0.58738 0.0
C1557 C 0.19252 0.16754 0.56336 0.0
C1558 C 0.18881 0.19913 0.6006 0.0
C1559 C 0.16459 0.20886 0.58975 0.0
C1560 C 0.15338 0.19618 0.56678 0.0
C1561 C 0.16719 0.17556 0.55376 0.0
C1562 C 0.11567 0.26421 0.60809 0.0
C1563 C 0.13368 0.28592 0.61286 0.0
C1564 C 0.12552 0.23869 0.60146 0.0
C1565 C 0.15348 0.23453 0.59983 0.0
C1566 C 0.1713 0.25609 0.60556 0.0
C1567 C 0.16156 0.28137 0.61202 0.0
H1568 H 0.06066 0.00857 0.80155 0.0
H1569 H 0.0733 0.92474 0.78152 0.0
H1570 H 0.02578 -0.00481 0.83345 0.0
H1571 H 0.038 0.91153 0.81235 0.0
H1572 H 0.93782 0.96128 0.84197 0.0
H1573 H 0.98106 0.97911 0.82771 0.0
H1574 H 0.01976 0.90697 0.85592 0.0
H1575 H 0.97602 0.8885 0.86918 0.0
C1576 C 0.05621 0.98729 0.80412 0.0
C1577 C 0.06948 0.96776 0.78862 0.0
C1578 C 0.03616 0.97962 0.82237 0.0
C1579 C 0.02878 0.95229 0.82531 0.0
C1580 C 0.04328 0.93274 0.811 0.0
C1581 C 0.06344 0.94037 0.793 0.0
C1582 C 0.95558 0.94941 0.84577 0.0
C1583 C 0.95332 0.92311 0.85603 0.0
C1584 C 0.98055 0.95977 0.83771 0.0
C1585 C 0.00391 0.94422 0.84005 0.0
C1586 C 0.00205 0.91915 0.85308 0.0
C1587 C 0.97698 0.90862 0.86083 0.0
H1588 H 0.63624 0.31939 0.45732 0.0
H1589 H 0.71961 0.31268 0.43401 0.0
H1590 H 0.62424 0.28147 0.42803 0.0
H1591 H 0.70753 0.27582 0.40335 0.0
H1592 H 0.68287 0.18727 0.38824 0.0
H1593 H 0.69619 0.23072 0.40649 0.0
H1594 H 0.61815 0.26238 0.38524 0.0
H1595 H 0.60424 0.21806 0.36819 0.0
C1596 C 0.65192 0.31008 0.44551 0.0
C1597 C 0.67891 0.31865 0.44829 0.0
C1598 C 0.64503 0.28848 0.42843 0.0
C1599 C 0.66492 0.2753 0.41331 0.0
C1600 C 0.69174 0.28492 0.41513 0.0
C1601 C 0.69869 0.30611 0.43266 0.0
C1602 C 0.66865 0.20357 0.38689 0.0
C1603 C 0.64227 0.19896 0.3772 0.0
C1604 C 0.67639 0.22873 0.39731 0.0
C1605 C 0.65812 0.25014 0.39789 0.0
C1606 C 0.63251 0.24618 0.38592 0.0
C1607 C 0.6246 0.22082 0.37585 0.0
H1608 H 0.94302 0.53391 0.70787 0.0
H1609 H 0.89932 0.45812 0.71408 0.0
H1610 H 0.98041 0.51048 0.68635 0.0
H1611 H 0.9365 0.43488 0.69321 0.0
H1612 H 0.00174 0.3995 0.64359 0.0
H1613 H 0.96329 0.42842 0.65246 0.0
H1614 H 0.01329 0.47882 0.70444 0.0
H1615 H 0.05158 0.45056 0.6953 0.0
C1616 C 0.94131 0.51236 0.70439 0.0
C1617 C 0.91849 0.49777 0.71297 0.0
C1618 C 0.96265 0.49897 0.69214 0.0
C1619 C 0.96138 0.47084 0.68818 0.0
C1620 C 0.93797 0.45658 0.69564 0.0
C1621 C 0.91678 0.46989 0.70792 0.0
C1622 C 0.00456 0.41692 0.65666 0.0
C1623 C 0.0296 0.42241 0.6691 0.0
C1624 C 0.98258 0.43346 0.66172 0.0
C1625 C 0.98529 0.4558 0.67923 0.0
C1626 C 0.01062 0.46197 0.69061 0.0
C1627 C 0.0325 0.44548 0.68561 0.0
H1628 H 0.56283 0.4928 0.14967 0.0
H1629 H 0.56654 0.56356 0.20091 0.0
H1630 H 0.53212 0.51572 0.1192 0.0
H1631 H 0.53479 0.586 0.17145 0.0
H1632 H 0.48215 0.62599 0.11315 0.0
H1633 H 0.52377 0.60583 0.12941 0.0
H1634 H 0.48653 0.5266 0.1223 0.0
H1635 H 0.44597 0.54636 0.10505 0.0
C1636 C 0.55692 0.51321 0.15444 0.0
C1637 C 0.56655 0.52629 0.17781 0.0
C1638 C 0.53942 0.52638 0.13701 0.0
C1639 C 0.53078 0.55262 0.143 0.0
C1640 C 0.54131 0.56598 0.16594 0.0
C1641 C 0.5592 0.55299 0.18307 0.0
C1642 C 0.48317 0.60425 0.1145 0.0
C1643 C 0.46054 0.58785 0.1085 0.0
C1644 C 0.50692 0.59271 0.12395 0.0
C1645 C 0.50832 0.56465 0.12765 0.0
C1646 C 0.48636 0.54824 0.11957 0.0
C1647 C 0.46284 0.55968 0.10997 0.0
H1648 H 0.52731 0.759 0.8046 0.0
H1649 H 0.61132 0.75199 0.82725 0.0
H1650 H 0.53523 0.73217 0.76435 0.0
H1651 H 0.61926 0.72557 0.78651 0.0
H1652 H 0.56398 0.70314 0.6825 0.0
H1653 H 0.55828 0.73299 0.72114 0.0
H1654 H 0.60694 0.68047 0.76988 0.0
H1655 H 0.61316 0.65084 0.73119 0.0
C1656 C 0.54755 0.75199 0.80089 0.0
C1657 C 0.56864 0.75748 0.81932 0.0
C1658 C 0.55209 0.73673 0.77769 0.0
C1659 C 0.57783 0.72665 0.77234 0.0
C1660 C 0.5991 0.73272 0.79034 0.0
C1661 C 0.59457 0.74799 0.8136 0.0
C1662 C 0.57349 0.69792 0.70143 0.0
C1663 C 0.58896 0.6745 0.70373 0.0
C1664 C 0.57015 0.71502 0.72359 0.0
C1665 C 0.58217 0.70908 0.74853 0.0
C1666 C 0.59775 0.68579 0.75082 0.0
C1667 C 0.60112 0.66869 0.72867 0.0
H1668 H 0.52889 0.21883 0.01951 0.0
H1669 H 0.51556 0.28604 0.07367 0.0
H1670 H 0.55948 0.24699 0.99307 0.0
H1671 H 0.54634 0.31387 0.04744 0.0
H1672 H 0.57017 0.36025 0.96906 0.0
H1673 H 0.54535 0.33383 0.00215 0.0
H1674 H 0.60413 0.27073 -0.00399 0.0
H1675 H 0.62887 0.29702 0.96264 0.0
C1676 C 0.5325 0.23953 0.02582 0.0
C1677 C 0.51963 0.25019 0.04862 0.0
C1678 C 0.55024 0.25556 0.01085 0.0
C1679 C 0.55537 0.28258 0.01832 0.0
C1680 C 0.54264 0.29317 0.04115 0.0
C1681 C 0.52501 0.27716 0.05616 0.0
C1682 C 0.57816 0.34105 0.97528 0.0
C1683 C 0.60137 0.33068 0.96317 0.0
C1684 C 0.56397 0.32592 0.99425 0.0
C1685 C 0.57264 0.30007 0.00134 0.0
C1686 C 0.59681 0.29044 0.99057 0.0
C1687 C 0.61115 0.30567 0.97175 0.0
H1688 H 0.96885 0.33466 0.32145 0.0
H1689 H 0.95346 0.24872 0.32386 0.0
H1690 H 0.93538 0.33882 0.28559 0.0
H1691 H 0.92013 0.2529 0.28735 0.0
H1692 H 0.86357 0.34534 0.23604 0.0
H1693 H 0.88338 0.33085 0.27843 0.0
H1694 H 0.92629 0.26844 0.23648 0.0
H1695 H 0.90675 0.2829 0.19385 0.0
C1696 C 0.95824 0.31668 0.31434 0.0
C1697 C 0.9638 0.29138 0.32529 0.0
C1698 C 0.93888 0.31909 0.29406 0.0
C1699 C 0.92499 0.2962 0.28401 0.0
C1700 C 0.93046 0.27084 0.29495 0.0
C1701 C 0.94951 0.26849 0.31572 0.0
C1702 C 0.87649 0.32793 0.23584 0.0
C1703 C 0.88431 0.31591 0.21137 0.0
C1704 C 0.88785 0.31971 0.26016 0.0
C1705 C 0.90686 0.29907 0.26048 0.0
C1706 C 0.91179 0.28455 0.23667 0.0
C1707 C 0.90058 0.29291 0.21224 0.0
H1708 H 0.98205 0.67608 0.58079 0.0
H1709 H 0.96762 0.7521 0.54159 0.0
H1710 H 0.95936 0.65216 0.54378 0.0
H1711 H 0.94513 0.7279 0.50419 0.0
H1712 H 0.94349 0.66967 0.43023 0.0
H1713 H 0.96342 0.69336 0.46865 0.0
H1714 H 0.91066 0.64961 0.5223 0.0
H1715 H 0.89013 0.62581 0.48364 0.0
C1716 C 0.97401 0.68767 0.56424 0.0
C1717 C 0.97669 0.71593 0.56391 0.0
C1718 C 0.96087 0.67397 0.54322 0.0
C1719 C 0.95057 0.68823 0.52128 0.0
C1720 C 0.95307 0.71652 0.52094 0.0
C1721 C 0.96584 0.73032 0.54226 0.0
C1722 C 0.93618 0.66481 0.45018 0.0
C1723 C 0.91519 0.64575 0.45386 0.0
C1724 C 0.94745 0.67865 0.47211 0.0
C1725 C 0.93832 0.67348 0.49825 0.0
C1726 C 0.91794 0.65392 0.50221 0.0
C1727 C 0.90628 0.64031 0.48015 0.0
H1728 H 0.56826 0.2969 0.66105 0.0
H1729 H 0.48596 0.30918 0.68599 0.0
H1730 H 0.58453 0.32012 0.70157 0.0
H1731 H 0.50237 0.33247 0.72672 0.0
H1732 H 0.54781 0.32574 0.81019 0.0
H1733 H 0.52774 0.3132 0.7669 0.0
H1734 H 0.5848 0.36527 0.72626 0.0
H1735 H 0.60509 0.37793 0.76965 0.0
C1736 C 0.55367 0.30489 0.67505 0.0
C1737 C 0.52589 0.30101 0.67064 0.0
C1738 C 0.56298 0.31837 0.69808 0.0
C1739 C 0.54466 0.32795 0.71721 0.0
C1740 C 0.51684 0.32507 0.71228 0.0
C1741 C 0.5075 0.31183 0.68903 0.0
C1742 C 0.55602 0.33466 0.79207 0.0
C1743 C 0.57828 0.35252 0.79328 0.0
C1744 C 0.5443 0.32771 0.76734 0.0
C1745 C 0.55477 0.33831 0.74336 0.0
C1746 C 0.57649 0.35678 0.74454 0.0
C1747 C 0.58806 0.36397 0.76934 0.0
H1748 H 0.90625 0.31409 0.91584 0.0
H1749 H 0.99292 0.32166 0.92326 0.0
H1750 H 0.9011 0.34374 0.95467 0.0
H1751 H 0.98772 0.35116 0.96257 0.0
H1752 H 0.89293 0.39478 0.02332 0.0
H1753 H 0.9103 0.38933 0.97785 0.0
H1754 H 0.96884 0.33295 0.00731 0.0
H1755 H 0.95158 0.33821 0.05279 0.0
C1756 C 0.92416 0.32267 0.92539 0.0
C1757 C 0.94992 0.31523 0.91701 0.0
C1758 C 0.92125 0.3399 0.94742 0.0
C1759 C 0.94407 0.34958 0.96163 0.0
C1760 C 0.96988 0.34389 0.9519 0.0
C1761 C 0.97279 0.327 0.92951 0.0
C1762 C 0.91 0.38176 0.02029 0.0
C1763 C 0.92017 0.36603 0.04144 0.0
C1764 C 0.92002 0.37885 0.99427 0.0
C1765 C 0.94046 0.36035 0.98911 0.0
C1766 C 0.95302 0.34738 0.01079 0.0
C1767 C 0.94292 0.35017 0.03682 0.0
H1768 H 0.9469 0.68805 0.15574 0.0
H1769 H 0.98312 0.72392 0.22727 0.0
H1770 H 0.91647 0.66108 0.18416 0.0
H1771 H 0.95242 0.69747 0.2553 0.0
H1772 H 0.87184 0.6749 0.29133 0.0
H1773 H 0.89383 0.69782 0.25398 0.0
H1774 H 0.93012 0.62327 0.22924 0.0
H1775 H 0.90856 0.60005 0.26704 0.0
C1776 C 0.94831 0.69019 0.17746 0.0
C1777 C 0.96735 0.70805 0.18937 0.0
C1778 C 0.931 0.67477 0.19358 0.0
C1779 C 0.93216 0.67755 0.22169 0.0
C1780 C 0.95117 0.69527 0.23356 0.0
C1781 C 0.96878 0.71023 0.21756 0.0
C1782 C 0.88387 0.66313 0.27755 0.0
C1783 C 0.88899 0.63579 0.28252 0.0
C1784 C 0.89637 0.67629 0.2562 0.0
C1785 C 0.91379 0.66225 0.23921 0.0
C1786 C 0.91666 0.63436 0.24223 0.0
C1787 C 0.9043 0.62114 0.26382 0.0
H1788 H 0.52674 0.6851 0.41919 0.0
H1789 H 0.48943 0.60591 0.413 0.0
H1790 H 0.55402 0.67009 0.45698 0.0
H1791 H 0.51665 0.59101 0.45154 0.0
H1792 H 0.53931 0.60644 0.54671 0.0
H1793 H 0.51681 0.60848 0.50284 0.0
H1794 H 0.59162 0.63408 0.46629 0.0
H1795 H 0.61433 0.6318 0.51009 0.0
C1796 C 0.52434 0.66448 0.42595 0.0
C1797 C 0.50579 0.64673 0.41334 0.0
C1798 C 0.54021 0.65581 0.44734 0.0
C1799 C 0.53757 0.62935 0.45688 0.0
C1800 C 0.5191 0.61147 0.44433 0.0
C1801 C 0.50355 0.62 0.42243 0.0
C1802 C 0.55112 0.61182 0.52918 0.0
C1803 C 0.57845 0.61943 0.53186 0.0
C1804 C 0.53827 0.61278 0.5041 0.0
C1805 C 0.55249 0.62172 0.48141 0.0
C1806 C 0.58027 0.62728 0.48364 0.0
C1807 C 0.59324 0.62591 0.50865 0.0
H1808 H 0.81798 0.55917 0.67893 0.0
H1809 H 0.81752 0.60671 0.75227 0.0
H1810 H 0.78511 0.58874 0.65892 0.0
H1811 H 0.78438 0.63675 0.732 0.0
H1812 H 0.7282 0.64038 0.6228 0.0
H1813 H 0.77265 0.63361 0.64271 0.0
H1814 H 0.73656 0.62686 0.72149 0.0
H1815 H 0.69241 0.63417 0.70183 0.0
C1816 C 0.81112 0.57623 0.69063 0.0
C1817 C 0.81984 0.58034 0.71732 0.0
C1818 C 0.79257 0.59348 0.679 0.0
C1819 C 0.78215 0.61514 0.69387 0.0
C1820 C 0.79202 0.62016 0.72012 0.0
C1821 C 0.81086 0.60295 0.73172 0.0
C1822 C 0.72987 0.63846 0.64449 0.0
C1823 C 0.70672 0.63677 0.66063 0.0
C1824 C 0.75533 0.63451 0.65587 0.0
C1825 C 0.75795 0.62888 0.68351 0.0
C1826 C 0.73523 0.63098 0.7001 0.0
C1827 C 0.70983 0.63489 0.68876 0.0
H1828 H 0.77574 0.54599 0.95213 0.0
H1829 H 0.70244 0.54461 -0.00128 0.0
H1830 H 0.76466 0.50064 0.93459 0.0
H1831 H 0.69163 0.49962 0.98167 0.0
H1832 H 0.68292 0.41407 0.9564 0.0
H1833 H 0.7069 0.45097 0.97952 0.0
H1834 H 0.72497 0.48747 0.90278 0.0
H1835 H 0.70114 0.45062 0.87957 0.0
C1836 C 0.75769 0.53569 0.95911 0.0
C1837 C 0.73971 0.54874 0.97641 0.0
C1838 C 0.75134 0.50991 0.94907 0.0
C1839 C 0.72728 0.49678 0.95677 0.0
C1840 C 0.71042 0.50917 0.9756 0.0
C1841 C 0.71647 0.53499 0.98517 0.0
C1842 C 0.6923 0.42979 0.94445 0.0
C1843 C 0.68959 0.42984 0.91623 0.0
C1844 C 0.70608 0.4508 0.95768 0.0
C1845 C 0.71765 0.47202 0.9429 0.0
C1846 C 0.7164 0.47122 0.91462 0.0
C1847 C 0.70239 0.45036 0.90139 0.0
H1848 H 0.66011 0.41677 0.23031 0.0
H1849 H 0.67246 0.47173 0.16412 0.0
H1850 H 0.69665 0.3887 0.21341 0.0
H1851 H 0.70865 0.44382 0.14734 0.0
H1852 H 0.79164 0.38604 0.19699 0.0
H1853 H 0.74691 0.39933 0.21131 0.0
H1854 H 0.71953 0.39781 0.12847 0.0
H1855 H 0.76436 0.38464 0.11394 0.0
C1856 C 0.67037 0.42262 0.21199 0.0
C1857 C 0.66377 0.44656 0.19868 0.0
C1858 C 0.69118 0.40658 0.20235 0.0
C1859 C 0.70533 0.41408 0.17906 0.0
C1860 C 0.69781 0.43735 0.16512 0.0
C1861 C 0.67731 0.45351 0.17491 0.0
C1862 C 0.77596 0.38798 0.18184 0.0
C1863 C 0.78171 0.38495 0.15427 0.0
C1864 C 0.75027 0.39534 0.1901 0.0
C1865 C 0.72996 0.39992 0.17093 0.0
C1866 C 0.73503 0.39469 0.14358 0.0
C1867 C 0.76068 0.38713 0.13531 0.0
H1868 H 0.76421 0.40234 0.44025 0.0
H1869 H 0.72614 0.47103 0.47707 0.0
H1870 H 0.80054 0.43115 0.42418 0.0
H1871 H 0.76248 0.50037 0.46014 0.0
H1872 H 0.84621 0.53824 0.45482 0.0
H1873 H 0.81088 0.5075 0.47031 0.0
H1874 H 0.81134 0.46642 0.39321 0.0
H1875 H 0.847 0.49655 0.37789 0.0
C1876 C 0.76335 0.42379 0.44441 0.0
C1877 C 0.74242 0.43448 0.46 0.0
C1878 C 0.78418 0.4403 0.43515 0.0
C1879 C 0.7846 0.46796 0.4412 0.0
C1880 C 0.76294 0.47898 0.45564 0.0
C1881 C 0.74192 0.46235 0.46492 0.0
C1882 C 0.83932 0.52221 0.44139 0.0
C1883 C 0.84932 0.5201 0.41497 0.0
C1884 C 0.81872 0.50491 0.45014 0.0
C1885 C 0.80782 0.48503 0.43273 0.0
C1886 C 0.81921 0.48161 0.40709 0.0
C1887 C 0.83981 0.49885 0.39835 0.0
H1888 H 0.80161 0.47127 0.75338 0.0
H1889 H 0.77575 0.51229 0.82571 0.0
H1890 H 0.77544 0.43131 0.76616 0.0
H1891 H 0.74965 0.47214 0.8385 0.0
H1892 H 0.6957 0.38195 0.78917 0.0
H1893 H 0.72585 0.41781 0.77322 0.0
H1894 H 0.76227 0.42396 0.85235 0.0
H1895 H 0.73248 0.3881 0.86832 0.0
C1896 C 0.79017 0.47181 0.77191 0.0
C1897 C 0.79079 0.49488 0.78862 0.0
C1898 C 0.77522 0.44894 0.77917 0.0
C1899 C 0.76094 0.44854 0.80348 0.0
C1900 C 0.76093 0.47182 0.81986 0.0
C1901 C 0.77558 0.49487 0.8124 0.0
C1902 C 0.71078 0.39031 0.8029 0.0
C1903 C 0.71155 0.38226 0.83004 0.0
C1904 C 0.7279 0.41093 0.79381 0.0
C1905 C 0.74587 0.42402 0.81178 0.0
C1906 C 0.74819 0.41451 0.83826 0.0
C1907 C 0.73138 0.39366 0.84726 0.0
H1908 H 0.79655 0.57914 0.08373 0.0
H1909 H 0.85735 0.57946 0.02171 0.0
H1910 H 0.82066 0.54462 0.10781 0.0
H1911 H 0.88212 0.54506 0.04636 0.0
H1912 H 0.86354 0.48015 0.14818 0.0
H1913 H 0.85884 0.52643 0.13195 0.0
H1914 H 0.86925 0.49818 0.05005 0.0
H1915 H 0.8744 0.45264 0.06618 0.0
C1916 C 0.81548 0.57228 0.07557 0.0
C1917 C 0.8247 0.58143 0.05046 0.0
C1918 C 0.82955 0.55269 0.08961 0.0
C1919 C 0.85315 0.54177 0.07884 0.0
C1920 C 0.86373 0.55278 0.05495 0.0
C1921 C 0.84959 0.57248 0.04085 0.0
C1922 C 0.86556 0.48408 0.12682 0.0
C1923 C 0.86861 0.46277 0.10836 0.0
C1924 C 0.8628 0.51051 0.11751 0.0
C1925 C 0.86328 0.51596 0.08966 0.0
C1926 C 0.86893 0.49488 0.07161 0.0
C1927 C 0.8715 0.46862 0.08085 0.0
H1928 H 0.68218 0.4945 0.27495 0.0
H1929 H 0.653 0.57315 0.2979 0.0
H1930 H 0.72338 0.50322 0.30078 0.0
H1931 H 0.69438 0.58178 0.32346 0.0
H1932 H 0.76698 0.58014 0.38123 0.0
H1933 H 0.72279 0.56595 0.36333 0.0
H1934 H 0.76078 0.53658 0.29093 0.0
H1935 H 0.80459 0.55051 0.30855 0.0
C1936 C 0.68438 0.5135 0.28571 0.0
C1937 C 0.6645 0.53331 0.28401 0.0
C1938 C 0.70797 0.51846 0.30045 0.0
C1939 C 0.71202 0.54322 0.31387 0.0
C1940 C 0.6916 0.56245 0.31341 0.0
C1941 C 0.66805 0.55758 0.29856 0.0
C1942 C 0.76585 0.57052 0.36157 0.0
C1943 C 0.7892 0.56668 0.34618 0.0
C1944 C 0.74063 0.56245 0.35137 0.0
C1945 C 0.73853 0.55009 0.32586 0.0
C1946 C 0.76192 0.54573 0.31082 0.0
C1947 C 0.78697 0.55401 0.32081 0.0
H1948 H 0.66236 0.40465 0.55051 0.0
H1949 H 0.74478 0.43298 0.55981 0.0
H1950 H 0.6465 0.44637 0.57125 0.0
H1951 H 0.72885 0.4747 0.58028 0.0
H1952 H 0.68509 0.55672 0.57221 0.0
H1953 H 0.70157 0.5128 0.55847 0.0
H1954 H 0.64935 0.47424 0.61641 0.0
H1955 H 0.63283 0.51849 0.63056 0.0
C1956 C 0.67707 0.41964 0.55729 0.0
C1957 C 0.70478 0.4157 0.55339 0.0
C1958 C 0.66799 0.44339 0.56926 0.0
C1959 C 0.68647 0.46372 0.57717 0.0
C1960 C 0.71421 0.45937 0.57414 0.0
C1961 C 0.7233 0.43548 0.56253 0.0
C1962 C 0.67705 0.53893 0.58207 0.0
C1963 C 0.65755 0.54107 0.6024 0.0
C1964 C 0.6867 0.51382 0.57435 0.0
C1965 C 0.67682 0.49023 0.5865 0.0
C1966 C 0.65724 0.4922 0.60675 0.0
C1967 C 0.64787 0.51747 0.61484 0.0
H1968 H 0.69851 0.84658 0.59651 0.0
H1969 H 0.68983 0.81684 0.51462 0.0
H1970 H 0.66638 0.81227 0.61162 0.0
H1971 H 0.65767 0.78267 0.52992 0.0
H1972 H 0.59538 0.72592 0.56587 0.0
H1973 H 0.61187 0.77167 0.55502 0.0
H1974 H 0.67885 0.76163 0.60998 0.0
H1975 H 0.66288 0.71617 0.62009 0.0
C1976 C 0.68933 0.83317 0.58163 0.0
C1977 C 0.69724 0.83396 0.55446 0.0
C1978 C 0.67086 0.81365 0.59031 0.0
C1979 C 0.65977 0.79485 0.57193 0.0
C1980 C 0.66582 0.79711 0.54443 0.0
C1981 C 0.68451 0.81644 0.53577 0.0
C1982 C 0.61324 0.73393 0.57598 0.0
C1983 C 0.62813 0.71777 0.59356 0.0
C1984 C 0.62262 0.75991 0.56981 0.0
C1985 C 0.64651 0.77006 0.58178 0.0
C1986 C 0.66019 0.75442 0.60077 0.0
C1987 C 0.65123 0.72839 0.60638 0.0
H1988 H 0.20529 0.67257 0.4516 0.0
H1989 H 0.16781 0.72414 0.51074 0.0
H1990 H 0.18675 0.69998 0.4154 0.0
H1991 H 0.14934 0.75138 0.47443 0.0
H1992 H 0.09923 0.77971 0.40594 0.0
H1993 H 0.11485 0.74439 0.43564 0.0
H1994 H 0.19385 0.74946 0.39987 0.0
H1995 H 0.1785 0.78522 0.37019 0.0
C1996 C 0.19301 0.68966 0.4569 0.0
C1997 C 0.18798 0.69615 0.48409 0.0
C1998 C 0.18248 0.70532 0.43615 0.0
C1999 C 0.16637 0.72752 0.44216 0.0
C2000 C 0.16129 0.73402 0.46928 0.0
C2001 C 0.17208 0.71859 0.49005 0.0
C2002 C 0.11974 0.77287 0.40374 0.0
C2003 C 0.13777 0.78582 0.38602 0.0
C2004 C 0.1287 0.75275 0.42097 0.0
C2005 C 0.15568 0.74475 0.42047 0.0
C2006 C 0.17295 0.75544 0.40075 0.0
C2007 C 0.16409 0.77586 0.38368 0.0
H2008 H 0.55543 0.97869 0.73139 0.0
H2009 H 0.57968 0.00412 0.65185 0.0
H2010 H 0.51649 0.95456 0.71157 0.0
H2011 H 0.54115 0.97954 0.63214 0.0
H2012 H 0.4864 0.90052 0.61421 0.0
H2013 H 0.52554 0.92657 0.63103 0.0
H2014 H 0.47369 0.97219 0.68323 0.0
H2015 H 0.43467 0.94689 0.66633 0.0
C2016 C 0.55248 0.97901 0.70973 0.0
C2017 C 0.57042 0.99327 0.69315 0.0
C2018 C 0.53026 0.96532 0.69845 0.0
C2019 C 0.52604 0.96528 0.6704 0.0
C2020 C 0.54416 0.97923 0.65379 0.0
C2021 C 0.56604 0.99335 0.66511 0.0
C2022 C 0.48332 0.9164 0.62894 0.0
C2023 C 0.45742 0.92158 0.63892 0.0
C2024 C 0.50566 0.93122 0.63854 0.0
C2025 C 0.50246 0.95103 0.6586 0.0
C2026 C 0.47659 0.95677 0.66797 0.0
C2027 C 0.45427 0.94239 0.65806 0.0
H2028 H 0.3069 0.26767 0.95598 0.0
H2029 H 0.26018 0.31006 0.89645 0.0
H2030 H 0.30218 0.22625 0.92934 0.0
H2031 H 0.25627 0.26852 0.86922 0.0
H2032 H 0.31927 0.19829 0.82948 0.0
H2033 H 0.30124 0.23987 0.84825 0.0
H2034 H 0.25926 0.194 0.90894 0.0
H2035 H 0.27659 0.15235 0.88985 0.0
C2036 C 0.29556 0.26807 0.93724 0.0
C2037 C 0.28407 0.29201 0.92814 0.0
C2038 C 0.29258 0.24436 0.92219 0.0
C2039 C 0.27852 0.24428 0.89751 0.0
C2040 C 0.26686 0.26814 0.88839 0.0
C2041 C 0.26923 0.29179 0.90386 0.0
C2042 C 0.30487 0.19695 0.84579 0.0
C2043 C 0.29978 0.17219 0.85856 0.0
C2044 C 0.29461 0.22075 0.85655 0.0
C2045 C 0.27942 0.21997 0.8803 0.0
C2046 C 0.27108 0.19496 0.89066 0.0
C2047 C 0.2809 0.17112 0.87958 0.0
H2048 H 0.45019 0.47973 0.72504 0.0
H2049 H 0.39934 0.52579 0.67229 0.0
H2050 H 0.48999 0.5013 0.70616 0.0
H2051 H 0.43903 0.54946 0.6548 0.0
H2052 H 0.5164 0.57622 0.6149 0.0
H2053 H 0.47752 0.54892 0.62881 0.0
H2054 H 0.51339 0.54094 0.70817 0.0
H2055 H 0.55265 0.56616 0.69347 0.0
C2056 C 0.44764 0.49493 0.70967 0.0
C2057 C 0.4219 0.50148 0.70027 0.0
C2058 C 0.47041 0.50746 0.69891 0.0
C2059 C 0.46788 0.52756 0.6792 0.0
C2060 C 0.44192 0.53386 0.66965 0.0
C2061 C 0.41913 0.52059 0.67983 0.0
C2062 C 0.51593 0.56817 0.63515 0.0
C2063 C 0.53749 0.57301 0.65307 0.0
C2064 C 0.4936 0.55276 0.64326 0.0
C2065 C 0.49215 0.54261 0.66968 0.0
C2066 C 0.51392 0.54763 0.68746 0.0
C2067 C 0.53646 0.56229 0.67911 0.0
H2068 H 0.75271 0.16641 0.07784 0.0
H2069 H 0.77366 0.18409 -0.00472 0.0
H2070 H 0.77953 0.20516 0.09321 0.0
H2071 H 0.80049 0.22323 0.01084 0.0
H2072 H 0.81391 0.30805 0.05185 0.0
H2073 H 0.78994 0.26827 0.03448 0.0
H2074 H 0.82959 0.21913 0.09379 0.0
H2075 H 0.85381 0.25898 0.11128 0.0
C2076 C 0.76301 0.17863 0.06296 0.0
C2077 C 0.76111 0.17229 0.03534 0.0
C2078 C 0.77852 0.20066 0.07181 0.0
C2079 C 0.79217 0.217 0.05322 0.0
C2080 C 0.79007 0.2109 0.02555 0.0
C2081 C 0.77479 0.18857 0.01668 0.0
C2082 C 0.81757 0.28878 0.06123 0.0
C2083 C 0.8356 0.28669 0.08312 0.0
C2084 C 0.80401 0.266 0.05109 0.0
C2085 C 0.80794 0.24073 0.06283 0.0
C2086 C 0.82612 0.2385 0.08452 0.0
C2087 C 0.84 0.26125 0.09446 0.0
H2088 H 0.58918 0.05856 0.78894 0.0
H2089 H 0.53934 0.10586 0.73598 0.0
H2090 H 0.56098 0.07106 0.8271 0.0
H2091 H 0.5114 0.11842 0.77418 0.0
H2092 H 0.47008 0.14709 0.8459 0.0
H2093 H 0.51106 0.14274 0.81966 0.0
H2094 H 0.51199 0.05749 0.83639 0.0
H2095 H 0.4708 0.06158 0.86247 0.0
C2096 C 0.57257 0.07206 0.7855 0.0
C2097 C 0.56633 0.081 0.75934 0.0
C2098 C 0.55644 0.07914 0.80738 0.0
C2099 C 0.53405 0.09567 0.8036 0.0
C2100 C 0.52874 0.10588 0.77774 0.0
C2101 C 0.54461 0.0985 0.75581 0.0
C2102 C 0.47943 0.12752 0.84481 0.0
C2103 C 0.46661 0.10449 0.85564 0.0
C2104 C 0.50287 0.12508 0.82963 0.0
C2105 C 0.51424 0.09969 0.82543 0.0
C2106 C 0.50354 0.07731 0.8392 0.0
C2107 C 0.4799 0.07968 0.85419 0.0
H2108 H 0.95353 0.94345 0.28664 0.0
H2109 H 0.93077 0.01771 0.32603 0.0
H2110 H 0.98825 0.9369 0.32064 0.0
H2111 H 0.96647 0.01115 0.36013 0.0
H2112 H 0.0693 0.9758 0.35962 0.0
H2113 H 0.0284 -0.00174 0.3452 0.0
H2114 H 0.98007 0.93609 0.38245 0.0
H2115 H 0.02073 0.91343 0.39709 0.0
C2116 C 0.95604 0.95847 0.30247 0.0
C2117 C 0.93948 0.9811 0.30369 0.0
C2118 C 0.97574 0.95459 0.32201 0.0
C2119 C 0.97953 0.97336 0.34301 0.0
C2120 C 0.96351 -0.00365 0.34417 0.0
C2121 C 0.94331 7e-05 0.3247 0.0
C2122 C 0.05003 0.96756 0.366 0.0
C2123 C 0.04822 0.94212 0.37838 0.0
C2124 C 0.02662 0.98063 0.3579 0.0
C2125 C 0.00137 0.96851 0.36238 0.0
C2126 C -0.00051 0.94567 0.37879 0.0
C2127 C 0.02283 0.93261 0.38694 0.0
H2128 H 0.46041 0.3112 0.16363 0.0
H2129 H 0.4355 0.23732 0.20232 0.0
H2130 H 0.44332 0.33718 0.20158 0.0
H2131 H 0.42007 0.2629 0.24112 0.0
H2132 H 0.3694 0.31321 0.29475 0.0
H2133 H 0.38541 0.29 0.25476 0.0
H2134 H 0.44873 0.35042 0.24631 0.0
H2135 H 0.43122 0.37454 0.28543 0.0
C2136 C 0.45169 0.30053 0.18054 0.0
C2137 C 0.44905 0.27232 0.18004 0.0
C2138 C 0.44198 0.31539 0.20238 0.0
C2139 C 0.42995 0.30227 0.22444 0.0
C2140 C 0.42836 0.27387 0.22421 0.0
C2141 C 0.43747 0.2591 0.20211 0.0
C2142 C 0.38649 0.32167 0.28401 0.0
C2143 C 0.39908 0.34561 0.293 0.0
C2144 C 0.39595 0.3082 0.26128 0.0
C2145 C 0.41877 0.31794 0.24745 0.0
C2146 C 0.43095 0.34239 0.25617 0.0
C2147 C 0.42099 0.35625 0.27859 0.0
H2148 H 0.54166 0.74068 0.9729 0.0
H2149 H 0.50202 0.72099 0.89742 0.0
H2150 H 0.51299 0.70751 -0.00427 0.0
H2151 H 0.47422 0.68714 0.91973 0.0
H2152 H 0.40233 0.66881 0.9772 0.0
H2153 H 0.43668 0.68989 0.94891 0.0
H2154 H 0.49897 0.66202 0.00293 0.0
H2155 H 0.46448 0.64193 0.03157 0.0
C2156 C 0.52737 0.72867 0.96114 0.0
C2157 C 0.52366 0.73361 0.93361 0.0
C2158 C 0.51098 0.70959 0.9741 0.0
C2159 C 0.49095 0.69492 0.95959 0.0
C2160 C 0.48888 0.69854 0.93163 0.0
C2161 C 0.50491 0.71782 0.91884 0.0
C2162 C 0.4234 0.66658 0.9825 0.0
C2163 C 0.4308 0.65411 0.00662 0.0
C2164 C 0.44317 0.67864 0.96635 0.0
C2165 C 0.47063 0.67808 0.97394 0.0
C2166 C 0.47802 0.66346 -0.00312 0.0
C2167 C 0.45829 0.65177 0.01314 0.0
H2168 H 0.04151 0.7317 0.70063 0.0
H2169 H 0.08817 0.6722 0.65811 0.0
H2170 H 0.05645 0.71311 0.74349 0.0
H2171 H 0.10354 0.65408 0.70084 0.0
H2172 H 0.09203 0.60651 0.77935 0.0
H2173 H 0.08258 0.62789 0.73626 0.0
H2174 H 0.0946 0.70641 0.77318 0.0
H2175 H 0.10337 0.6852 0.81626 0.0
C2176 C 0.05542 0.71507 0.70044 0.0
C2177 C 0.0634 0.70321 0.67604 0.0
C2178 C 0.064 0.70442 0.72498 0.0
C2179 C 0.08086 0.68186 0.72551 0.0
C2180 C 0.09003 0.67103 0.70107 0.0
C2181 C 0.08135 0.68155 0.67661 0.0
C2182 C 0.09278 0.62831 0.77822 0.0
C2183 C 0.0982 0.64412 0.80127 0.0
C2184 C 0.08753 0.64058 0.75352 0.0
C2185 C 0.08779 0.66887 0.75137 0.0
C2186 C 0.09382 0.68461 0.77429 0.0
C2187 C 0.09891 0.67239 0.79896 0.0
H2188 H 0.99333 0.32488 0.45785 0.0
H2189 H 0.05865 0.35852 0.41112 0.0
H2190 H 0.00974 0.34959 0.49748 0.0
H2191 H 0.07448 0.38428 0.45028 0.0
H2192 H 0.11861 0.37352 0.53321 0.0
H2193 H 0.09781 0.36898 0.48889 0.0
H2194 H 0.02049 0.38939 0.5227 0.0
H2195 H 0.0413 0.39294 0.56725 0.0
C2196 C 0.01062 0.33834 0.45588 0.0
C2197 C 0.02509 0.33945 0.43176 0.0
C2198 C 0.02001 0.35266 0.47852 0.0
C2199 C 0.04378 0.3686 0.47718 0.0
C2200 C 0.05656 0.37168 0.45218 0.0
C2201 C 0.04745 0.35702 0.42976 0.0
C2202 C 0.09737 0.37789 0.531 0.0
C2203 C 0.08144 0.38294 0.55365 0.0
C2204 C 0.08537 0.37538 0.50554 0.0
C2205 C 0.05728 0.37822 0.50234 0.0
C2206 C 0.042 0.38633 0.52462 0.0
C2207 C 0.05394 0.3885 0.55008 0.0
H2208 H 0.42901 0.72501 0.28433 0.0
H2209 H 0.40484 0.64971 0.32072 0.0
H2210 H 0.40915 0.71021 0.24169 0.0
H2211 H 0.38347 0.63532 0.27852 0.0
H2212 H 0.38878 0.6043 0.19059 0.0
H2213 H 0.39703 0.61958 0.2366 0.0
H2214 H 0.37174 0.69971 0.21492 0.0
H2215 H 0.36503 0.68456 0.16849 0.0
C2216 C 0.41882 0.70554 0.28334 0.0
C2217 C 0.41871 0.68838 0.30567 0.0
C2218 C 0.4072 0.69706 0.25891 0.0
C2219 C 0.39476 0.67139 0.25644 0.0
C2220 C 0.39339 0.65491 0.27939 0.0
C2221 C 0.40549 0.6632 0.30364 0.0
C2222 C 0.38444 0.62501 0.19583 0.0
C2223 C 0.37663 0.64332 0.17592 0.0
C2224 C 0.38909 0.63384 0.2223 0.0
C2225 C 0.38554 0.66109 0.22954 0.0
C2226 C 0.37552 0.67881 0.20998 0.0
C2227 C 0.3714 0.67009 0.18341 0.0
H2228 H 0.01394 0.70597 0.05685 0.0
H2229 H 0.08402 0.69918 0.10865 0.0
H2230 H 0.03537 0.67761 0.0234 0.0
H2231 H 0.1052 0.67031 0.07525 0.0
H2232 H 0.0688 0.6139 0.97332 0.0
H2233 H 0.05 0.6319 0.01483 0.0
H2234 H 0.12441 0.67609 0.03023 0.0
H2235 H 0.14349 0.65738 0.98897 0.0
C2236 C 0.03378 0.69823 0.06125 0.0
C2237 C 0.04728 0.70505 0.08537 0.0
C2238 C 0.04599 0.68173 0.04217 0.0
C2239 C 0.07193 0.67158 0.04679 0.0
C2240 C 0.08528 0.67798 0.07108 0.0
C2241 C 0.07308 0.69452 0.09019 0.0
C2242 C 0.08136 0.62691 0.98598 0.0
C2243 C 0.10739 0.63467 0.9778 0.0
C2244 C 0.07055 0.63734 0.00962 0.0
C2245 C 0.08545 0.65597 0.02536 0.0
C2246 C 0.11241 0.66178 0.01848 0.0
C2247 C 0.12337 0.65108 -0.00512 0.0
H2248 H 0.03731 0.26615 0.84358 0.0
H2249 H 0.01544 0.20516 0.78438 0.0
H2250 H 0.06714 0.28751 0.81167 0.0
H2251 H 0.04689 0.22574 0.75261 0.0
H2252 H 0.04794 0.29942 0.6967 0.0
H2253 H 0.03714 0.26545 0.72927 0.0
H2254 H 0.10225 0.29464 0.7807 0.0
H2255 H 0.11268 0.32989 0.74782 0.0
C2256 C 0.0396 0.25673 0.82397 0.0
C2257 C 0.0231 0.23471 0.81601 0.0
C2258 C 0.05708 0.26886 0.80569 0.0
C2259 C 0.05865 0.25898 0.77917 0.0
C2260 C 0.04531 0.23444 0.77262 0.0
C2261 C 0.02744 0.22248 0.79086 0.0
C2262 C 0.06023 0.29862 0.7148 0.0
C2263 C 0.08095 0.31772 0.71982 0.0
C2264 C 0.05428 0.27867 0.73341 0.0
C2265 C 0.06894 0.277 0.75763 0.0
C2266 C 0.0904 0.29547 0.76232 0.0
C2267 C 0.09629 0.31575 0.74361 0.0
H2268 H 0.42351 0.2627 0.57726 0.0
H2269 H 0.49412 0.29848 0.54054 0.0
H2270 H 0.39465 0.28769 0.54649 0.0
H2271 H 0.46556 0.32246 0.50913 0.0
H2272 H 0.41367 0.38183 0.47156 0.0
H2273 H 0.43619 0.35935 0.50875 0.0
H2274 H 0.38015 0.29198 0.50076 0.0
H2275 H 0.35681 0.31542 0.46449 0.0
C2276 C 0.43285 0.27553 0.56227 0.0
C2277 C 0.46103 0.27881 0.56134 0.0
C2278 C 0.41632 0.28989 0.54469 0.0
C2279 C 0.42772 0.30756 0.52569 0.0
C2280 C 0.456 0.30979 0.5241 0.0
C2281 C 0.47244 0.29576 0.54186 0.0
C2282 C 0.40562 0.36269 0.47855 0.0
C2283 C 0.38354 0.35035 0.46543 0.0
C2284 C 0.41875 0.34956 0.49949 0.0
C2285 C 0.41053 0.32345 0.50718 0.0
C2286 C 0.38704 0.31205 0.4954 0.0
C2287 C 0.37354 0.32551 0.47474 0.0
H2288 H 0.20477 0.46124 0.21242 0.0
H2289 H 0.1943 0.51543 0.28003 0.0
H2290 H 0.23601 0.43487 0.23887 0.0
H2291 H 0.22648 0.48955 0.30631 0.0
H2292 H 0.26064 0.42156 0.35609 0.0
H2293 H 0.22881 0.4466 0.32847 0.0
H2294 H 0.2792 0.43439 0.25875 0.0
H2295 H 0.31011 0.40858 0.28584 0.0
C2296 C 0.20966 0.46793 0.23274 0.0
C2297 C 0.19699 0.49038 0.24416 0.0
C2298 C 0.22759 0.45275 0.24796 0.0
C2299 C 0.23349 0.45982 0.2749 0.0
C2300 C 0.22185 0.48312 0.28586 0.0
C2301 C 0.20373 0.4982 0.27067 0.0
C2302 C 0.26454 0.42369 0.33474 0.0
C2303 C 0.28797 0.4131 0.32325 0.0
C2304 C 0.24655 0.43842 0.31898 0.0
C2305 C 0.25165 0.44289 0.29144 0.0
C2306 C 0.27448 0.43126 0.2798 0.0
C2307 C 0.2923 0.41646 0.29544 0.0
H2308 H 0.31832 0.42862 0.94253 0.0
H2309 H 0.37185 0.39187 -0.00011 0.0
H2310 H 0.3336 0.4732 0.95759 0.0
H2311 H 0.3886 0.43632 0.01388 0.0
H2312 H 0.3698 0.51061 0.06502 0.0
H2313 H 0.36757 0.4679 0.0415 0.0
H2314 H 0.36501 0.50927 0.96508 0.0
H2315 H 0.36623 0.55255 0.98898 0.0
C2316 C 0.33435 0.43013 0.95743 0.0
C2317 C 0.34382 0.40696 0.97025 0.0
C2318 C 0.34314 0.45571 0.96614 0.0
C2319 C 0.36187 0.45844 0.98749 0.0
C2320 C 0.3735 0.43501 -0.00197 0.0
C2321 C 0.36422 0.40953 0.98981 0.0
C2322 C 0.36905 0.51076 0.04319 0.0
C2323 C 0.36793 0.53512 0.02896 0.0
C2324 C 0.36807 0.4861 0.02958 0.0
C2325 C 0.36624 0.48497 0.00127 0.0
C2326 C 0.36613 0.50934 0.9869 0.0
C2327 C 0.3669 0.53417 0.0006 0.0
H2328 H 0.26906 0.49457 0.7391 0.0
H2329 H 0.33459 0.52609 0.7884 0.0
H2330 H 0.23779 0.52368 0.76281 0.0
H2331 H 0.30367 0.55596 0.81133 0.0
H2332 H 0.23433 0.57456 0.8702 0.0
H2333 H 0.26899 0.55296 0.84351 0.0
H2334 H 0.22333 0.56831 0.77079 0.0
H2335 H 0.18821 0.58897 0.79769 0.0
C2336 C 0.27684 0.50802 0.75471 0.0
C2337 C 0.30421 0.5078 0.76208 0.0
C2338 C 0.25897 0.52489 0.76821 0.0
C2339 C 0.26816 0.54217 0.78913 0.0
C2340 C 0.29575 0.54256 0.79575 0.0
C2341 C 0.31351 0.52547 0.78252 0.0
C2342 C 0.23202 0.57389 0.84847 0.0
C2343 C 0.20845 0.58323 0.83609 0.0
C2344 C 0.25191 0.56148 0.83309 0.0
C2345 C 0.24879 0.55847 0.80496 0.0
C2346 C 0.22607 0.56961 0.79245 0.0
C2347 C 0.20606 0.5817 0.80784 0.0
H2348 H 0.1699 0.56165 0.52869 0.0
H2349 H 0.16053 0.60647 0.60315 0.0
H2350 H 0.15438 0.52086 0.55119 0.0
H2351 H 0.14563 0.56543 0.62564 0.0
H2352 H 0.10913 0.4813 0.65191 0.0
H2353 H 0.113 0.52529 0.62951 0.0
H2354 H 0.18212 0.49709 0.58553 0.0
H2355 H 0.17836 0.4538 0.60753 0.0
C2356 C 0.16396 0.563 0.54964 0.0
C2357 C 0.16723 0.58718 0.56428 0.0
C2358 C 0.1552 0.5396 0.56256 0.0
C2359 C 0.14963 0.53991 0.59034 0.0
C2360 C 0.15 0.5646 0.60427 0.0
C2361 C 0.15867 0.58808 0.59133 0.0
C2362 C 0.1254 0.48481 0.63781 0.0
C2363 C 0.14329 0.46408 0.63125 0.0
C2364 C 0.12744 0.5098 0.62485 0.0
C2365 C 0.14731 0.51421 0.60516 0.0
C2366 C 0.16599 0.49394 0.59987 0.0
C2367 C 0.16402 0.46923 0.61273 0.0
H2368 H 0.17632 0.58838 0.19265 0.0
H2369 H 0.14539 0.56213 0.11495 0.0
H2370 H 0.21502 0.60936 0.17063 0.0
H2371 H 0.18466 0.58216 0.09311 0.0
H2372 H 0.26468 0.62006 0.06306 0.0
H2373 H 0.2189 0.61933 0.08197 0.0
H2374 H 0.24894 0.57834 0.15236 0.0
H2375 H 0.29359 0.5789 0.13405 0.0
C2376 C 0.17746 0.58767 0.17084 0.0
C2377 C 0.15842 0.57286 0.15558 0.0
C2378 C 0.19953 0.59973 0.15823 0.0
C2379 C 0.2032 0.59654 0.13029 0.0
C2380 C 0.18241 0.58479 0.11468 0.0
C2381 C 0.16002 0.57312 0.12727 0.0
C2382 C 0.26136 0.61091 0.08255 0.0
C2383 C 0.28285 0.59954 0.09698 0.0
C2384 C 0.23528 0.6107 0.09341 0.0
C2385 C 0.23056 0.59944 0.11894 0.0
C2386 C 0.25205 0.58803 0.13308 0.0
C2387 C 0.27773 0.58803 0.1223 0.0
H2388 H 0.26325 0.46334 -0.00107 0.0
H2389 H 0.22324 0.39881 0.95438 0.0
H2390 H 0.2292 0.49463 0.98315 0.0
H2391 H 0.18901 0.42982 0.93925 0.0
H2392 H 0.1622 0.5031 0.88746 0.0
H2393 H 0.18743 0.46683 0.90806 0.0
H2394 H 0.18191 0.50643 0.98572 0.0
H2395 H 0.15719 0.543 0.96499 0.0
C2396 C 0.24703 0.45579 0.98609 0.0
C2397 C 0.24613 0.42872 0.97766 0.0
C2398 C 0.22739 0.47363 0.97719 0.0
C2399 C 0.20641 0.46466 0.95989 0.0
C2400 C 0.20511 0.43741 0.95221 0.0
C2401 C 0.22477 0.41967 0.96092 0.0
C2402 C 0.16565 0.50364 0.90905 0.0
C2403 C 0.15809 0.52605 0.92453 0.0
C2404 C 0.18017 0.48288 0.92089 0.0
C2405 C 0.18715 0.4841 0.94843 0.0
C2406 C 0.17745 0.50532 0.96432 0.0
C2407 C 0.1631 0.52612 0.95248 0.0
H2408 H 0.31188 0.39856 0.7836 0.0
H2409 H 0.33645 0.40647 0.70059 0.0
H2410 H 0.27039 0.37544 0.76872 0.0
H2411 H 0.29502 0.38481 0.68571 0.0
H2412 H 0.21943 0.34836 0.65942 0.0
H2413 H 0.26387 0.34915 0.68084 0.0
H2414 H 0.23125 0.39277 0.74875 0.0
H2415 H 0.18705 0.39081 0.72814 0.0
C2416 C 0.30862 0.39497 0.76225 0.0
C2417 C 0.32702 0.40489 0.74322 0.0
C2418 C 0.28483 0.38186 0.75368 0.0
C2419 C 0.27902 0.37869 0.72596 0.0
C2420 C 0.29868 0.38661 0.7072 0.0
C2421 C 0.32242 0.39944 0.71575 0.0
C2422 C 0.22171 0.35759 0.67918 0.0
C2423 C 0.19984 0.37012 0.69173 0.0
C2424 C 0.24718 0.3581 0.69146 0.0
C2425 C 0.25135 0.37153 0.7163 0.0
C2426 C 0.22894 0.38206 0.72976 0.0
C2427 C 0.2035 0.38121 0.7177 0.0
H2428 H 0.25355 0.58433 0.44227 0.0
H2429 H 0.26104 0.53879 0.51568 0.0
H2430 H 0.28087 0.5518 0.41865 0.0
H2431 H 0.2867 0.50476 0.49164 0.0
H2432 H 0.35166 0.45911 0.45075 0.0
H2433 H 0.32791 0.49543 0.47331 0.0
H2434 H 0.28316 0.50999 0.39968 0.0
H2435 H 0.30859 0.47516 0.37693 0.0
C2436 C 0.2605 0.56688 0.45317 0.0
C2437 C 0.25516 0.56397 0.48076 0.0
C2438 C 0.27617 0.5481 0.43959 0.0
C2439 C 0.28628 0.52552 0.45311 0.0
C2440 C 0.28002 0.52221 0.48062 0.0
C2441 C 0.26496 0.54146 0.49439 0.0
C2442 C 0.33727 0.47074 0.43934 0.0
C2443 C 0.33212 0.4647 0.41212 0.0
C2444 C 0.32325 0.49122 0.45233 0.0
C2445 C 0.30311 0.50549 0.43858 0.0
C2446 C 0.29872 0.49989 0.41097 0.0
C2447 C 0.31333 0.47992 0.39782 0.0
H2448 H 0.27938 0.19681 0.49379 0.0
H2449 H 0.2133 0.20079 0.4369 0.0
H2450 H 0.30541 0.22847 0.4665 0.0
H2451 H 0.23969 0.231 0.40881 0.0
H2452 H 0.35464 0.27233 0.4054 0.0
H2453 H 0.32952 0.23542 0.4263 0.0
H2454 H 0.25475 0.27519 0.40757 0.0
H2455 H 0.27954 0.31089 0.38555 0.0
C2456 C 0.27051 0.20438 0.47537 0.0
C2457 C 0.24418 0.19671 0.46769 0.0
C2458 C 0.28554 0.22223 0.4595 0.0
C2459 C 0.27474 0.23235 0.43533 0.0
C2460 C 0.24852 0.22417 0.42752 0.0
C2461 C 0.23333 0.20682 0.44366 0.0
C2462 C 0.3328 0.27276 0.4051 0.0
C2463 C 0.31916 0.29476 0.39405 0.0
C2464 C 0.31839 0.25179 0.41744 0.0
C2465 C 0.29007 0.2525 0.41916 0.0
C2466 C 0.27647 0.27368 0.40654 0.0
C2467 C 0.2908 0.29437 0.39396 0.0
H2468 H 0.80515 0.3209 0.49687 0.0
H2469 H 0.75346 0.2952 0.56203 0.0
H2470 H 0.8399 0.29065 0.51228 0.0
H2471 H 0.78849 0.26432 0.57729 0.0
H2472 H 0.86579 0.22588 0.60852 0.0
H2473 H 0.83669 0.2637 0.59641 0.0
H2474 H 0.84243 0.24094 0.51237 0.0
H2475 H 0.87113 0.20354 0.52449 0.0
C2476 C 0.80115 0.3087 0.51447 0.0
C2477 C 0.77644 0.31021 0.52811 0.0
C2478 C 0.82113 0.29144 0.52331 0.0
C2479 C 0.81691 0.27524 0.54599 0.0
C2480 C 0.79237 0.27692 0.55994 0.0
C2481 C 0.77222 0.29426 0.55102 0.0
C2482 C 0.86147 0.22968 0.58745 0.0
C2483 C 0.87066 0.21211 0.56734 0.0
C2484 C 0.84459 0.25096 0.58057 0.0
C2485 C 0.83716 0.25503 0.5535 0.0
C2486 C 0.84795 0.23842 0.53336 0.0
C2487 C 0.86439 0.21707 0.54025 0.0
H2488 H 0.42596 0.99354 0.27826 0.0
H2489 H 0.37777 0.04715 0.32647 0.0
H2490 H 0.46418 0.00191 0.30784 0.0
H2491 H 0.41587 0.05465 0.35703 0.0
H2492 H 0.49817 0.10113 0.36124 0.0
H2493 H 0.45456 0.08148 0.35029 0.0
H2494 H 0.48949 0.00214 0.3481 0.0
H2495 H 0.53369 0.02214 0.35802 0.0
C2496 C 0.4232 0.00635 0.29578 0.0
C2497 C 0.39904 0.02027 0.29957 0.0
C2498 C 0.44519 0.01106 0.31296 0.0
C2499 C 0.4434 0.02953 0.33454 0.0
C2500 C 0.41822 0.04096 0.34012 0.0
C2501 C 0.39632 0.03656 0.32268 0.0
C2502 C 0.49656 0.07942 0.359 0.0
C2503 C 0.51962 0.06334 0.35974 0.0
C2504 C 0.47134 0.06803 0.35294 0.0
C2505 C 0.46847 0.04019 0.34775 0.0
C2506 C 0.49108 0.02374 0.35125 0.0
C2507 C 0.51642 0.03521 0.35705 0.0
H2508 H 0.77171 0.70308 0.04724 0.0
H2509 H 0.70104 0.65202 0.03606 0.0
H2510 H 0.7447 0.73558 0.07181 0.0
H2511 H 0.67428 0.6838 0.06163 0.0
H2512 H 0.63093 0.763 0.08435 0.0
H2513 H 0.65507 0.7275 0.06054 0.0
H2514 H 0.72333 0.73965 0.11429 0.0
H2515 H 0.69965 0.77584 0.13696 0.0
C2516 C 0.75042 0.69884 0.05009 0.0
C2517 C 0.73847 0.67509 0.03986 0.0
C2518 C 0.73498 0.71726 0.06439 0.0
C2519 C 0.7074 0.71205 0.06906 0.0
C2520 C 0.69539 0.68851 0.05826 0.0
C2521 C 0.71076 0.67028 0.04367 0.0
C2522 C 0.65083 0.75751 0.09134 0.0
C2523 C 0.66362 0.77205 0.11223 0.0
C2524 C 0.66471 0.7373 0.07772 0.0
C2525 C 0.69138 0.7312 0.08515 0.0
C2526 C 0.70319 0.74447 0.10749 0.0
C2527 C 0.68954 0.7649 0.12071 0.0
H2528 H 0.54768 0.51902 0.31534 0.0
H2529 H 0.54542 0.44954 0.2624 0.0
H2530 H 0.52136 0.49427 0.34856 0.0
H2531 H 0.51759 0.42526 0.29463 0.0
H2532 H 0.47407 0.38054 0.35601 0.0
H2533 H 0.51284 0.40344 0.33595 0.0
H2534 H 0.47738 0.4805 0.3545 0.0
H2535 H 0.43997 0.4578 0.37586 0.0
C2536 C 0.54117 0.49854 0.3107 0.0
C2537 C 0.54817 0.48628 0.2862 0.0
C2538 C 0.52614 0.48429 0.32974 0.0
C2539 C 0.51717 0.4577 0.32437 0.0
C2540 C 0.52457 0.44543 0.29987 0.0
C2541 C 0.54016 0.45946 0.28114 0.0
C2542 C 0.47513 0.40237 0.35669 0.0
C2543 C 0.4536 0.41736 0.36683 0.0
C2544 C 0.49716 0.41553 0.34482 0.0
C2545 C 0.49785 0.44385 0.34268 0.0
C2546 C 0.47771 0.45873 0.35558 0.0
C2547 C 0.456 0.44563 0.36773 0.0
H2548 H 0.22508 0.80585 0.97774 0.0
H2549 H 0.17629 0.84623 0.91835 0.0
H2550 H 0.21874 0.76354 0.95336 0.0
H2551 H 0.1707 0.80399 0.89341 0.0
H2552 H 0.12723 0.72036 0.89295 0.0
H2553 H 0.14368 0.7653 0.9039 0.0
H2554 H 0.22425 0.73486 0.91436 0.0
H2555 H 0.20752 0.68934 0.90408 0.0
C2556 C 0.21364 0.80587 0.95905 0.0
C2557 C 0.2007 0.82927 0.95028 0.0
C2558 C 0.21015 0.78159 0.94494 0.0
C2559 C 0.19384 0.78028 0.92164 0.0
C2560 C 0.18285 0.8042 0.91164 0.0
C2561 C 0.18611 0.82842 0.9259 0.0
C2562 C 0.14855 0.72321 0.89716 0.0
C2563 C 0.16594 0.70113 0.89817 0.0
C2564 C 0.15808 0.74913 0.90319 0.0
C2565 C 0.18528 0.75369 0.91026 0.0
C2566 C 0.2031 0.73192 0.90941 0.0
C2567 C 0.19353 0.70587 0.90338 0.0
H2568 H 0.40823 0.92873 0.19806 0.0
H2569 H 0.45461 0.00327 0.19791 0.0
H2570 H 0.44886 0.90356 0.18904 0.0
H2571 H 0.49546 0.97793 0.18842 0.0
H2572 H 0.52349 0.86856 0.15027 0.0
H2573 H 0.48312 0.89571 0.15442 0.0
H2574 H 0.52337 0.94608 0.21415 0.0
H2575 H 0.56378 0.91938 0.20984 0.0
C2576 C 0.4271 0.93978 0.1958 0.0
C2577 C 0.42831 0.96796 0.19883 0.0
C2578 C 0.45034 0.92534 0.19045 0.0
C2579 C 0.47532 0.93877 0.18808 0.0
C2580 C 0.47647 0.96705 0.19044 0.0
C2581 C 0.45312 0.98155 0.1957 0.0
C2582 C 0.52373 0.88539 0.16432 0.0
C2583 C 0.54686 0.89167 0.17981 0.0
C2584 C 0.50061 0.90092 0.16668 0.0
C2585 C 0.50017 0.92306 0.18452 0.0
C2586 C 0.52328 0.92941 0.19991 0.0
C2587 C 0.54635 0.9139 0.1976 0.0
H2588 H 0.03668 0.96337 0.69418 0.0
H2589 H 0.09786 0.02151 0.67111 0.0
H2590 H 0.00175 0.99364 0.67821 0.0
H2591 H 0.06331 0.05115 0.65385 0.0
H2592 H 0.99394 0.11086 0.65591 0.0
H2593 H 0.02966 0.08027 0.66953 0.0
H2594 H 0.98207 0.01242 0.63961 0.0
H2595 H 0.94619 0.04274 0.62738 0.0
C2596 C 0.04259 0.98239 0.68518 0.0
C2597 C 0.06979 0.99025 0.68393 0.0
C2598 C 0.02268 -0.00027 0.67595 0.0
C2599 C 0.02973 0.02496 0.66487 0.0
C2600 C 0.05711 0.03223 0.66284 0.0
C2601 C 0.07691 0.01515 0.6725 0.0
C2602 C 0.99134 0.08942 0.65219 0.0
C2603 C 0.9673 0.0791 0.64094 0.0
C2604 C 0.01176 0.07187 0.65985 0.0
C2605 C 0.00862 0.0438 0.65587 0.0
C2606 C 0.9849 0.03377 0.64365 0.0
C2607 C 0.96441 0.05119 0.63647 0.0
loop_
_geom_bond_atom_site_label_1
_geom_bond_atom_site_label_2
_geom_bond_distance
_geom_bond_site_symmetry_2
_ccdc_geom_bond_type
Co0 O1 2.216 1_655 S
Co0 O2 2.091 . S
Co0 O4 2.004 . S
Co0 O10 2.021 1_655 S
Co0 O12 2.140 . S
Co0 O13 2.244 1_655 S
O1 Co0 2.216 1_455 S
O1 C8 1.247 1_455 S
O2 Co0 2.091 . S
O2 C8 1.261 . S
C3 O12 1.220 1_455 S
C3 O13 1.272 . S
O4 Co0 2.004 . S
O4 C9 1.259 . S
Co5 O6 2.061 . S
Co5 O11 2.052 . S
Co5 O13 2.135 . S
O6 Co5 2.061 . S
O6 C9 1.235 1_455 S
C7 O10 1.238 . S
C7 O11 1.241 . S
C8 O1 1.247 1_655 S
C8 O2 1.261 . S
C9 O4 1.259 . S
C9 O6 1.235 1_655 S
O10 Co0 2.021 1_455 S
O10 C7 1.238 . S
O11 Co5 2.052 . S
O11 C7 1.241 . S
O12 Co0 2.140 . S
O12 C3 1.220 1_655 S
O13 Co0 2.244 1_455 S
O13 C3 1.272 . S
O13 Co5 2.135 . S
Co14 O15 2.216 . S
Co14 O16 2.091 . S
Co14 O18 2.004 1_655 S
Co14 O24 2.021 1_655 S
Co14 O26 2.137 . S
Co14 O27 2.244 . S
O15 Co14 2.216 . S
O15 C22 1.247 . S
O16 Co14 2.091 . S
O16 C22 1.261 . S
C17 O26 1.247 . S
C17 O27 1.272 . S
O18 Co14 2.004 1_455 S
O18 C23 1.259 . S
Co19 O20 2.061 . S
Co19 O25 2.052 . S
Co19 O27 2.135 1_455 S
O20 Co19 2.061 . S
O20 C23 1.235 . S
C21 O24 1.238 . S
C21 O25 1.241 . S
C22 O15 1.247 . S
C22 O16 1.261 . S
C23 O18 1.259 . S
C23 O20 1.235 . S
O24 Co14 2.021 1_455 S
O24 C21 1.238 . S
O25 Co19 2.052 . S
O25 C21 1.241 . S
O26 Co14 2.137 . S
O26 C17 1.247 . S
O27 Co14 2.244 . S
O27 C17 1.272 . S
O27 Co19 2.135 1_655 S
Co28 O29 2.216 . S
Co28 O30 2.091 . S
Co28 O32 2.004 . S
Co28 O38 2.021 . S
Co28 O40 2.137 . S
Co28 O41 2.244 . S
O29 Co28 2.216 . S
O29 C36 1.247 . S
O30 Co28 2.091 . S
O30 C36 1.261 . S
C31 O40 1.247 . S
C31 O41 1.272 . S
O32 Co28 2.004 . S
O32 C37 1.259 . S
Co33 O34 2.061 . S
Co33 O39 2.052 . S
Co33 O41 2.135 . S
O34 Co33 2.061 . S
O34 C37 1.235 . S
C35 O38 1.238 . S
C35 O39 1.241 . S
C36 O29 1.247 . S
C36 O30 1.261 . S
C37 O32 1.259 . S
C37 O34 1.235 . S
O38 Co28 2.021 . S
O38 C35 1.238 . S
O39 Co33 2.052 . S
O39 C35 1.241 . S
O40 Co28 2.137 . S
O40 C31 1.247 . S
O41 Co28 2.244 . S
O41 C31 1.272 . S
O41 Co33 2.135 . S
Co42 O43 2.216 . S
Co42 O44 2.091 . S
Co42 O46 2.004 . S
Co42 O52 2.021 . S
Co42 O54 2.137 . S
Co42 O55 2.244 . S
O43 Co42 2.216 . S
O43 C50 1.247 . S
O44 Co42 2.091 . S
O44 C50 1.261 . S
C45 O54 1.247 . S
C45 O55 1.272 . S
O46 Co42 2.004 . S
O46 C51 1.259 . S
Co47 O48 2.061 . S
Co47 O53 2.052 . S
Co47 O55 2.135 . S
O48 Co47 2.061 . S
O48 C51 1.235 . S
C49 O52 1.238 . S
C49 O53 1.241 . S
C50 O43 1.247 . S
C50 O44 1.261 . S
C51 O46 1.259 . S
C51 O48 1.235 . S
O52 Co42 2.021 . S
O52 C49 1.238 . S
O53 Co47 2.052 . S
O53 C49 1.241 . S
O54 Co42 2.137 . S
O54 C45 1.247 . S
O55 Co42 2.244 . S
O55 C45 1.272 . S
O55 Co47 2.135 . S
Co56 O57 2.216 1_655 S
Co56 O58 2.091 . S
Co56 O60 2.004 . S
Co56 O66 2.021 1_655 S
Co56 O68 2.137 . S
Co56 O69 2.244 1_655 S
O57 Co56 2.216 1_455 S
O57 C64 1.247 1_455 S
O58 Co56 2.091 . S
O58 C64 1.261 . S
C59 O68 1.247 1_455 S
C59 O69 1.272 . S
O60 Co56 2.004 . S
O60 C65 1.259 . S
Co61 O62 2.061 . S
Co61 O67 2.052 . S
Co61 O69 2.135 . S
O62 Co61 2.061 . S
O62 C65 1.235 1_455 S
C63 O66 1.238 . S
C63 O67 1.241 . S
C64 O57 1.247 1_655 S
C64 O58 1.261 . S
C65 O60 1.259 . S
C65 O62 1.235 1_655 S
O66 Co56 2.021 1_455 S
O66 C63 1.238 . S
O67 Co61 2.052 . S
O67 C63 1.241 . S
O68 Co56 2.137 . S
O68 C59 1.247 1_655 S
O69 Co56 2.244 1_455 S
O69 C59 1.272 . S
O69 Co61 2.135 . S
Co70 O71 2.216 . S
Co70 O72 2.091 . S
Co70 O74 2.004 . S
Co70 O80 2.021 . S
Co70 O82 2.137 . S
Co70 O83 2.244 . S
O71 Co70 2.216 . S
O71 C78 1.247 . S
O72 Co70 2.091 . S
O72 C78 1.261 . S
C73 O82 1.247 . S
C73 O83 1.272 . S
O74 Co70 2.004 . S
O74 C79 1.259 . S
Co75 O76 2.061 . S
Co75 O81 2.052 . S
Co75 O83 2.135 . S
O76 Co75 2.061 . S
O76 C79 1.235 . S
C77 O80 1.238 . S
C77 O81 1.241 . S
C78 O71 1.247 . S
C78 O72 1.261 . S
C79 O74 1.259 . S
C79 O76 1.235 . S
O80 Co70 2.021 . S
O80 C77 1.238 . S
O81 Co75 2.052 . S
O81 C77 1.241 . S
O82 Co70 2.137 . S
O82 C73 1.247 . S
O83 Co70 2.244 . S
O83 C73 1.272 . S
O83 Co75 2.135 . S
Co84 O85 2.216 . S
Co84 O86 2.091 . S
Co84 O88 2.004 . S
Co84 O94 2.021 . S
Co84 O96 2.137 . S
Co84 O97 2.244 . S
O85 Co84 2.216 . S
O85 C92 1.247 . S
O86 Co84 2.091 . S
O86 C92 1.261 . S
C87 O96 1.247 . S
C87 O97 1.272 . S
O88 Co84 2.004 . S
O88 C93 1.259 . S
Co89 O90 2.061 . S
Co89 O95 2.052 . S
Co89 O97 2.135 . S
O90 Co89 2.061 . S
O90 C93 1.235 . S
C91 O94 1.238 . S
C91 O95 1.241 . S
C92 O85 1.247 . S
C92 O86 1.261 . S
C93 O88 1.259 . S
C93 O90 1.235 . S
O94 Co84 2.021 . S
O94 C91 1.238 . S
O95 Co89 2.052 . S
O95 C91 1.241 . S
O96 Co84 2.137 . S
O96 C87 1.247 . S
O97 Co84 2.244 . S
O97 C87 1.272 . S
O97 Co89 2.135 . S
Co98 O99 2.216 . S
Co98 O100 2.091 . S
Co98 O102 2.004 1_655 S
Co98 O108 2.021 1_655 S
Co98 O110 2.137 . S
Co98 O111 2.244 . S
O99 Co98 2.216 . S
O99 C106 1.247 . S
O100 Co98 2.091 . S
O100 C106 1.261 . S
C101 O110 1.247 . S
C101 O111 1.272 . S
O102 Co98 2.004 1_455 S
O102 C107 1.259 . S
Co103 O104 2.061 . S
Co103 O109 2.052 . S
Co103 O111 2.135 1_455 S
O104 Co103 2.061 . S
O104 C107 1.235 . S
C105 O108 1.238 . S
C105 O109 1.241 . S
C106 O99 1.247 . S
C106 O100 1.261 . S
C107 O102 1.259 . S
C107 O104 1.235 . S
O108 Co98 2.021 1_455 S
O108 C105 1.238 . S
O109 Co103 2.052 . S
O109 C105 1.241 . S
O110 Co98 2.137 . S
O110 C101 1.247 . S
O111 Co98 2.244 . S
O111 C101 1.272 . S
O111 Co103 2.135 1_655 S
Co112 O113 2.216 1_565 S
Co112 O114 2.091 . S
Co112 O116 2.004 . S
Co112 O122 2.021 1_565 S
Co112 O124 2.138 . S
Co112 O125 2.244 1_565 S
O113 Co112 2.216 1_545 S
O113 C120 1.247 1_545 S
O114 Co112 2.091 . S
O114 C120 1.261 . S
C115 O124 1.242 1_545 S
C115 O125 1.272 . S
O116 Co112 2.004 . S
O116 C121 1.259 . S
Co117 O118 2.061 . S
Co117 O123 2.052 . S
Co117 O125 2.135 . S
O118 Co117 2.061 . S
O118 C121 1.235 1_545 S
C119 O122 1.238 . S
C119 O123 1.241 . S
C120 O113 1.247 1_565 S
C120 O114 1.261 . S
C121 O116 1.259 . S
C121 O118 1.235 1_565 S
O122 Co112 2.021 1_545 S
O122 C119 1.238 . S
O123 Co117 2.052 . S
O123 C119 1.241 . S
O124 Co112 2.138 . S
O124 C115 1.242 1_565 S
O125 Co112 2.244 1_545 S
O125 C115 1.272 . S
O125 Co117 2.135 . S
Co126 O127 2.216 . S
Co126 O128 2.091 . S
Co126 O130 2.004 . S
Co126 O136 2.021 . S
Co126 O138 2.137 . S
Co126 O139 2.244 . S
O127 Co126 2.216 . S
O127 C134 1.247 . S
O128 Co126 2.091 . S
O128 C134 1.261 . S
C129 O138 1.247 . S
C129 O139 1.272 . S
O130 Co126 2.004 . S
O130 C135 1.259 . S
Co131 O132 2.061 . S
Co131 O137 2.052 . S
Co131 O139 2.135 . S
O132 Co131 2.061 . S
O132 C135 1.235 . S
C133 O136 1.238 . S
C133 O137 1.241 . S
C134 O127 1.247 . S
C134 O128 1.261 . S
C135 O130 1.259 . S
C135 O132 1.235 . S
O136 Co126 2.021 . S
O136 C133 1.238 . S
O137 Co131 2.052 . S
O137 C133 1.241 . S
O138 Co126 2.137 . S
O138 C129 1.247 . S
O139 Co126 2.244 . S
O139 C129 1.272 . S
O139 Co131 2.135 . S
Co140 O141 2.216 1_565 S
Co140 O142 2.091 . S
Co140 O144 2.004 . S
Co140 O150 2.021 1_565 S
Co140 O152 2.137 . S
Co140 O153 2.244 1_565 S
O141 Co140 2.216 1_545 S
O141 C148 1.247 1_545 S
O142 Co140 2.091 . S
O142 C148 1.261 . S
C143 O152 1.247 1_545 S
C143 O153 1.272 . S
O144 Co140 2.004 . S
O144 C149 1.259 . S
Co145 O146 2.061 . S
Co145 O151 2.052 . S
Co145 O153 2.135 . S
O146 Co145 2.061 . S
O146 C149 1.235 1_545 S
C147 O150 1.238 . S
C147 O151 1.241 . S
C148 O141 1.247 1_565 S
C148 O142 1.261 . S
C149 O144 1.259 . S
C149 O146 1.235 1_565 S
O150 Co140 2.021 1_545 S
O150 C147 1.238 . S
O151 Co145 2.052 . S
O151 C147 1.241 . S
O152 Co140 2.137 . S
O152 C143 1.247 1_565 S
O153 Co140 2.244 1_545 S
O153 C143 1.272 . S
O153 Co145 2.135 . S
Co154 O155 2.216 . S
Co154 O156 2.091 . S
Co154 O158 2.004 1_554 S
Co154 O164 2.021 1_554 S
Co154 O166 2.137 . S
Co154 O167 2.244 . S
O155 Co154 2.216 . S
O155 C162 1.247 . S
O156 Co154 2.091 . S
O156 C162 1.261 . S
C157 O166 1.247 . S
C157 O167 1.272 . S
O158 Co154 2.004 1_556 S
O158 C163 1.259 . S
Co159 O160 2.061 . S
Co159 O165 2.052 . S
Co159 O167 2.135 1_556 S
O160 Co159 2.061 . S
O160 C163 1.235 . S
C161 O164 1.238 . S
C161 O165 1.241 . S
C162 O155 1.247 . S
C162 O156 1.261 . S
C163 O158 1.259 . S
C163 O160 1.235 . S
O164 Co154 2.021 1_556 S
O164 C161 1.238 . S
O165 Co159 2.052 . S
O165 C161 1.241 . S
O166 Co154 2.137 . S
O166 C157 1.247 . S
O167 Co154 2.244 . S
O167 C157 1.272 . S
O167 Co159 2.135 1_554 S
Co168 O169 2.216 1_556 S
Co168 O170 2.091 . S
Co168 O172 2.004 . S
Co168 O178 2.021 1_556 S
Co168 O180 2.137 . S
Co168 O181 2.244 1_556 S
O169 Co168 2.216 1_554 S
O169 C176 1.247 1_554 S
O170 Co168 2.091 . S
O170 C176 1.261 . S
C171 O180 1.247 1_554 S
C171 O181 1.272 . S
O172 Co168 2.004 . S
O172 C177 1.259 . S
Co173 O174 2.061 . S
Co173 O179 2.052 . S
Co173 O181 2.135 . S
O174 Co173 2.061 . S
O174 C177 1.235 1_554 S
C175 O178 1.238 . S
C175 O179 1.241 . S
C176 O169 1.247 1_556 S
C176 O170 1.261 . S
C177 O172 1.259 . S
C177 O174 1.235 1_556 S
O178 Co168 2.021 1_554 S
O178 C175 1.238 . S
O179 Co173 2.052 . S
O179 C175 1.241 . S
O180 Co168 2.137 . S
O180 C171 1.247 1_556 S
O181 Co168 2.244 1_554 S
O181 C171 1.272 . S
O181 Co173 2.135 . S
Co182 O183 2.216 1_556 S
Co182 O184 2.091 . S
Co182 O186 2.004 . S
Co182 O192 2.021 1_556 S
Co182 O194 2.137 . S
Co182 O195 2.244 1_556 S
O183 Co182 2.216 1_554 S
O183 C190 1.247 1_554 S
O184 Co182 2.091 . S
O184 C190 1.261 . S
C185 O194 1.247 1_554 S
C185 O195 1.272 . S
O186 Co182 2.004 . S
O186 C191 1.259 . S
Co187 O188 2.061 . S
Co187 O193 2.052 . S
Co187 O195 2.135 . S
O188 Co187 2.061 . S
O188 C191 1.235 1_554 S
C189 O192 1.238 . S
C189 O193 1.241 . S
C190 O183 1.247 1_556 S
C190 O184 1.261 . S
C191 O186 1.259 . S
C191 O188 1.235 1_556 S
O192 Co182 2.021 1_554 S
O192 C189 1.238 . S
O193 Co187 2.052 . S
O193 C189 1.241 . S
O194 Co182 2.137 . S
O194 C185 1.247 1_556 S
O195 Co182 2.244 1_554 S
O195 C185 1.272 . S
O195 Co187 2.135 . S
Co196 O197 2.216 . S
Co196 O198 2.091 . S
Co196 O200 2.004 . S
Co196 O206 2.021 . S
Co196 O208 2.137 . S
Co196 O209 2.244 . S
O197 Co196 2.216 . S
O197 C204 1.247 . S
O198 Co196 2.091 . S
O198 C204 1.261 . S
C199 O208 1.247 . S
C199 O209 1.272 . S
O200 Co196 2.004 . S
O200 C205 1.259 . S
Co201 O202 2.061 . S
Co201 O207 2.052 . S
Co201 O209 2.135 . S
O202 Co201 2.061 . S
O202 C205 1.235 . S
C203 O206 1.238 . S
C203 O207 1.241 . S
C204 O197 1.247 . S
C204 O198 1.261 . S
C205 O200 1.259 . S
C205 O202 1.235 . S
O206 Co196 2.021 . S
O206 C203 1.238 . S
O207 Co201 2.052 . S
O207 C203 1.241 . S
O208 Co196 2.137 . S
O208 C199 1.247 . S
O209 Co196 2.244 . S
O209 C199 1.272 . S
O209 Co201 2.135 . S
Co210 O211 2.216 . S
Co210 O212 2.091 . S
Co210 O214 2.004 . S
Co210 O220 2.021 . S
Co210 O222 2.137 . S
Co210 O223 2.244 . S
O211 Co210 2.216 . S
O211 C218 1.247 . S
O212 Co210 2.091 . S
O212 C218 1.261 . S
C213 O222 1.247 . S
C213 O223 1.272 . S
O214 Co210 2.004 . S
O214 C219 1.259 . S
Co215 O216 2.061 . S
Co215 O221 2.052 . S
Co215 O223 2.135 . S
O216 Co215 2.061 . S
O216 C219 1.235 . S
C217 O220 1.238 . S
C217 O221 1.241 . S
C218 O211 1.247 . S
C218 O212 1.261 . S
C219 O214 1.259 . S
C219 O216 1.235 . S
O220 Co210 2.021 . S
O220 C217 1.238 . S
O221 Co215 2.052 . S
O221 C217 1.241 . S
O222 Co210 2.137 . S
O222 C213 1.247 . S
O223 Co210 2.244 . S
O223 C213 1.272 . S
O223 Co215 2.135 . S
Co224 O225 2.216 . S
Co224 O226 2.091 . S
Co224 O228 2.004 1_565 S
Co224 O234 2.021 1_565 S
Co224 O236 2.137 . S
Co224 O237 2.244 . S
O225 Co224 2.216 . S
O225 C232 1.247 . S
O226 Co224 2.091 . S
O226 C232 1.261 . S
C227 O236 1.247 . S
C227 O237 1.272 . S
O228 Co224 2.004 1_545 S
O228 C233 1.259 . S
Co229 O230 2.061 . S
Co229 O235 2.052 . S
Co229 O237 2.135 1_545 S
O230 Co229 2.061 . S
O230 C233 1.235 . S
C231 O234 1.238 . S
C231 O235 1.241 . S
C232 O225 1.247 . S
C232 O226 1.261 . S
C233 O228 1.259 . S
C233 O230 1.235 . S
O234 Co224 2.021 1_545 S
O234 C231 1.238 . S
O235 Co229 2.052 . S
O235 C231 1.241 . S
O236 Co224 2.137 . S
O236 C227 1.247 . S
O237 Co224 2.244 . S
O237 C227 1.272 . S
O237 Co229 2.135 1_565 S
Co238 O239 2.216 . S
Co238 O240 2.091 . S
Co238 O242 2.004 . S
Co238 O248 2.021 . S
Co238 O250 2.137 . S
Co238 O251 2.244 . S
O239 Co238 2.216 . S
O239 C246 1.247 . S
O240 Co238 2.091 . S
O240 C246 1.261 . S
C241 O250 1.247 . S
C241 O251 1.272 . S
O242 Co238 2.004 . S
O242 C247 1.259 . S
Co243 O244 2.061 . S
Co243 O249 2.052 . S
Co243 O251 2.135 . S
O244 Co243 2.061 . S
O244 C247 1.235 . S
C245 O248 1.238 . S
C245 O249 1.241 . S
C246 O239 1.247 . S
C246 O240 1.261 . S
C247 O242 1.259 . S
C247 O244 1.235 . S
O248 Co238 2.021 . S
O248 C245 1.238 . S
O249 Co243 2.052 . S
O249 C245 1.241 . S
O250 Co238 2.137 . S
O250 C241 1.247 . S
O251 Co238 2.244 . S
O251 C241 1.272 . S
O251 Co243 2.135 . S
Co252 O253 2.216 . S
Co252 O254 2.091 . S
Co252 O256 2.004 . S
Co252 O262 2.021 . S
Co252 O264 2.137 . S
Co252 O265 2.244 . S
O253 Co252 2.216 . S
O253 C260 1.247 . S
O254 Co252 2.091 . S
O254 C260 1.261 . S
C255 O264 1.247 . S
C255 O265 1.272 . S
O256 Co252 2.004 . S
O256 C261 1.259 . S
Co257 O258 2.061 . S
Co257 O263 2.052 . S
Co257 O265 2.135 . S
O258 Co257 2.061 . S
O258 C261 1.235 . S
C259 O262 1.238 . S
C259 O263 1.241 . S
C260 O253 1.247 . S
C260 O254 1.261 . S
C261 O256 1.259 . S
C261 O258 1.235 . S
O262 Co252 2.021 . S
O262 C259 1.238 . S
O263 Co257 2.052 . S
O263 C259 1.241 . S
O264 Co252 2.137 . S
O264 C255 1.247 . S
O265 Co252 2.244 . S
O265 C255 1.272 . S
O265 Co257 2.135 . S
Co266 O267 2.216 . S
Co266 O268 2.091 . S
Co266 O270 2.004 1_565 S
Co266 O276 2.021 1_565 S
Co266 O278 2.137 . S
Co266 O279 2.244 . S
O267 Co266 2.216 . S
O267 C274 1.247 . S
O268 Co266 2.091 . S
O268 C274 1.261 . S
C269 O278 1.247 . S
C269 O279 1.272 . S
O270 Co266 2.004 1_545 S
O270 C275 1.259 . S
Co271 O272 2.061 . S
Co271 O277 2.052 . S
Co271 O279 2.135 1_545 S
O272 Co271 2.061 . S
O272 C275 1.235 . S
C273 O276 1.238 . S
C273 O277 1.241 . S
C274 O267 1.247 . S
C274 O268 1.261 . S
C275 O270 1.259 . S
C275 O272 1.235 . S
O276 Co266 2.021 1_545 S
O276 C273 1.238 . S
O277 Co271 2.052 . S
O277 C273 1.241 . S
O278 Co266 2.137 . S
O278 C269 1.247 . S
O279 Co266 2.244 . S
O279 C269 1.272 . S
O279 Co271 2.135 1_565 S
Co280 O281 2.216 . S
Co280 O282 2.091 . S
Co280 O284 2.004 1_554 S
Co280 O290 2.021 1_554 S
Co280 O292 2.137 . S
Co280 O293 2.244 . S
O281 Co280 2.216 . S
O281 C288 1.247 . S
O282 Co280 2.091 . S
O282 C288 1.261 . S
C283 O292 1.247 . S
C283 O293 1.272 . S
O284 Co280 2.004 1_556 S
O284 C289 1.259 . S
Co285 O286 2.061 . S
Co285 O291 2.052 . S
Co285 O293 2.135 1_556 S
O286 Co285 2.061 . S
O286 C289 1.235 . S
C287 O290 1.238 . S
C287 O291 1.241 . S
C288 O281 1.247 . S
C288 O282 1.261 . S
C289 O284 1.259 . S
C289 O286 1.235 . S
O290 Co280 2.021 1_556 S
O290 C287 1.238 . S
O291 Co285 2.052 . S
O291 C287 1.241 . S
O292 Co280 2.137 . S
O292 C283 1.247 . S
O293 Co280 2.244 . S
O293 C283 1.272 . S
O293 Co285 2.135 1_554 S
Co294 O295 2.216 . S
Co294 O296 2.091 . S
Co294 O298 2.004 . S
Co294 O304 2.021 . S
Co294 O306 2.137 . S
Co294 O307 2.244 . S
O295 Co294 2.216 . S
O295 C302 1.247 . S
O296 Co294 2.091 . S
O296 C302 1.261 . S
C297 O306 1.247 . S
C297 O307 1.272 . S
O298 Co294 2.004 . S
O298 C303 1.259 . S
Co299 O300 2.061 . S
Co299 O305 2.052 . S
Co299 O307 2.135 . S
O300 Co299 2.061 . S
O300 C303 1.235 . S
C301 O304 1.238 . S
C301 O305 1.241 . S
C302 O295 1.247 . S
C302 O296 1.261 . S
C303 O298 1.259 . S
C303 O300 1.235 . S
O304 Co294 2.021 . S
O304 C301 1.238 . S
O305 Co299 2.052 . S
O305 C301 1.241 . S
O306 Co294 2.137 . S
O306 C297 1.247 . S
O307 Co294 2.244 . S
O307 C297 1.272 . S
O307 Co299 2.135 . S
Co308 O309 2.216 . S
Co308 O310 2.091 . S
Co308 O312 2.004 . S
Co308 O318 2.021 . S
Co308 O320 2.137 . S
Co308 O321 2.244 . S
O309 Co308 2.216 . S
O309 C316 1.247 . S
O310 Co308 2.091 . S
O310 C316 1.261 . S
C311 O320 1.247 . S
C311 O321 1.272 . S
O312 Co308 2.004 . S
O312 C317 1.259 . S
Co313 O314 2.061 . S
Co313 O319 2.052 . S
Co313 O321 2.135 . S
O314 Co313 2.061 . S
O314 C317 1.235 . S
C315 O318 1.238 . S
C315 O319 1.241 . S
C316 O309 1.247 . S
C316 O310 1.261 . S
C317 O312 1.259 . S
C317 O314 1.235 . S
O318 Co308 2.021 . S
O318 C315 1.238 . S
O319 Co313 2.052 . S
O319 C315 1.241 . S
O320 Co308 2.137 . S
O320 C311 1.247 . S
O321 Co308 2.244 . S
O321 C311 1.272 . S
O321 Co313 2.135 . S
Co322 O323 2.216 . S
Co322 O324 2.091 . S
Co322 O326 2.004 . S
Co322 O332 2.021 . S
Co322 O334 2.137 . S
Co322 O335 2.244 . S
O323 Co322 2.216 . S
O323 C330 1.247 . S
O324 Co322 2.091 . S
O324 C330 1.261 . S
C325 O334 1.247 . S
C325 O335 1.272 . S
O326 Co322 2.004 . S
O326 C331 1.259 . S
Co327 O328 2.061 . S
Co327 O333 2.052 . S
Co327 O335 2.135 . S
O328 Co327 2.061 . S
O328 C331 1.235 . S
C329 O332 1.238 . S
C329 O333 1.241 . S
C330 O323 1.247 . S
C330 O324 1.261 . S
C331 O326 1.259 . S
C331 O328 1.235 . S
O332 Co322 2.021 . S
O332 C329 1.238 . S
O333 Co327 2.052 . S
O333 C329 1.241 . S
O334 Co322 2.137 . S
O334 C325 1.247 . S
O335 Co322 2.244 . S
O335 C325 1.272 . S
O335 Co327 2.135 . S
Sc336 O339 2.025 . S
Sc336 O346 2.105 . S
Sc336 O349 2.105 . S
Sc336 O352 2.105 . S
Sc336 O355 2.105 . S
Sc337 O339 2.025 . S
Sc337 O347 2.105 . S
Sc337 O351 2.105 . S
Sc337 O353 2.105 . S
Sc337 O357 2.105 . S
Sc338 O339 2.025 . S
Sc338 O348 2.105 . S
Sc338 O350 2.105 . S
Sc338 O354 2.105 . S
Sc338 O356 2.105 . S
O339 Sc336 2.025 . S
O339 Sc337 2.025 . S
O339 Sc338 2.025 . S
C340 O346 1.268 . S
C340 O356 1.268 . S
C341 O347 1.268 . S
C341 O355 1.268 . S
C342 O348 1.268 . S
C342 O357 1.268 . S
C343 O349 1.268 . S
C343 O353 1.268 . S
C344 O350 1.268 . S
C344 O352 1.268 . S
C345 O351 1.268 . S
C345 O354 1.268 . S
O346 Sc336 2.105 . S
O346 C340 1.268 . S
O347 Sc337 2.105 . S
O347 C341 1.268 . S
O348 Sc338 2.105 . S
O348 C342 1.268 . S
O349 Sc336 2.105 . S
O349 C343 1.268 . S
O350 Sc338 2.105 . S
O350 C344 1.268 . S
O351 Sc337 2.105 . S
O351 C345 1.268 . S
O352 Sc336 2.105 . S
O352 C344 1.268 . S
O353 Sc337 2.105 . S
O353 C343 1.268 . S
O354 Sc338 2.105 . S
O354 C345 1.268 . S
O355 Sc336 2.105 . S
O355 C341 1.268 . S
O356 Sc338 2.105 . S
O356 C340 1.268 . S
O357 Sc337 2.105 . S
O357 C342 1.268 . S
Sc358 O361 2.025 . S
Sc358 O368 2.105 . S
Sc358 O371 2.105 . S
Sc358 O374 2.105 . S
Sc358 O377 2.105 . S
Sc359 O361 2.025 . S
Sc359 O369 2.105 . S
Sc359 O373 2.105 . S
Sc359 O375 2.105 . S
Sc359 O379 2.105 . S
Sc360 O361 2.025 . S
Sc360 O370 2.105 . S
Sc360 O372 2.105 . S
Sc360 O376 2.105 . S
Sc360 O378 2.105 . S
O361 Sc358 2.025 . S
O361 Sc359 2.025 . S
O361 Sc360 2.025 . S
C362 O368 1.268 . S
C362 O378 1.268 . S
C363 O369 1.268 . S
C363 O377 1.268 . S
C364 O370 1.268 . S
C364 O379 1.268 . S
C365 O371 1.268 . S
C365 O375 1.268 . S
C366 O372 1.268 . S
C366 O374 1.268 . S
C367 O373 1.268 . S
C367 O376 1.268 . S
O368 Sc358 2.105 . S
O368 C362 1.268 . S
O369 Sc359 2.105 . S
O369 C363 1.268 . S
O370 Sc360 2.105 . S
O370 C364 1.268 . S
O371 Sc358 2.105 . S
O371 C365 1.268 . S
O372 Sc360 2.105 . S
O372 C366 1.268 . S
O373 Sc359 2.105 . S
O373 C367 1.268 . S
O374 Sc358 2.105 . S
O374 C366 1.268 . S
O375 Sc359 2.105 . S
O375 C365 1.268 . S
O376 Sc360 2.105 . S
O376 C367 1.268 . S
O377 Sc358 2.105 . S
O377 C363 1.268 . S
O378 Sc360 2.105 . S
O378 C362 1.268 . S
O379 Sc359 2.105 . S
O379 C364 1.268 . S
Sc380 O383 2.025 . S
Sc380 O390 2.105 . S
Sc380 O393 2.105 . S
Sc380 O396 2.105 . S
Sc380 O399 2.105 . S
Sc381 O383 2.025 . S
Sc381 O391 2.105 . S
Sc381 O395 2.105 . S
Sc381 O397 2.105 . S
Sc381 O401 2.105 . S
Sc382 O383 2.025 . S
Sc382 O392 2.105 . S
Sc382 O394 2.105 . S
Sc382 O398 2.105 . S
Sc382 O400 2.105 . S
O383 Sc380 2.025 . S
O383 Sc381 2.025 . S
O383 Sc382 2.025 . S
C384 O390 1.268 . S
C384 O400 1.268 . S
C385 O391 1.268 . S
C385 O399 1.268 . S
C386 O392 1.268 . S
C386 O401 1.268 . S
C387 O393 1.268 . S
C387 O397 1.268 . S
C388 O394 1.268 . S
C388 O396 1.268 . S
C389 O395 1.268 . S
C389 O398 1.268 . S
O390 Sc380 2.105 . S
O390 C384 1.268 . S
O391 Sc381 2.105 . S
O391 C385 1.268 . S
O392 Sc382 2.105 . S
O392 C386 1.268 . S
O393 Sc380 2.105 . S
O393 C387 1.268 . S
O394 Sc382 2.105 . S
O394 C388 1.268 . S
O395 Sc381 2.105 . S
O395 C389 1.268 . S
O396 Sc380 2.105 . S
O396 C388 1.268 . S
O397 Sc381 2.105 . S
O397 C387 1.268 . S
O398 Sc382 2.105 . S
O398 C389 1.268 . S
O399 Sc380 2.105 . S
O399 C385 1.268 . S
O400 Sc382 2.105 . S
O400 C384 1.268 . S
O401 Sc381 2.105 . S
O401 C386 1.268 . S
Sc402 O405 2.025 . S
Sc402 O412 2.105 . S
Sc402 O415 2.105 . S
Sc402 O418 2.105 . S
Sc402 O421 2.105 . S
Sc403 O405 2.025 . S
Sc403 O413 2.105 . S
Sc403 O417 2.105 . S
Sc403 O419 2.105 . S
Sc403 O423 2.105 . S
Sc404 O405 2.025 . S
Sc404 O414 2.105 . S
Sc404 O416 2.105 . S
Sc404 O420 2.105 . S
Sc404 O422 2.105 . S
O405 Sc402 2.025 . S
O405 Sc403 2.025 . S
O405 Sc404 2.025 . S
C406 O412 1.268 . S
C406 O422 1.268 . S
C407 O413 1.268 . S
C407 O421 1.268 . S
C408 O414 1.268 . S
C408 O423 1.268 . S
C409 O415 1.268 . S
C409 O419 1.268 . S
C410 O416 1.268 . S
C410 O418 1.268 . S
C411 O417 1.268 . S
C411 O420 1.268 . S
O412 Sc402 2.105 . S
O412 C406 1.268 . S
O413 Sc403 2.105 . S
O413 C407 1.268 . S
O414 Sc404 2.105 . S
O414 C408 1.268 . S
O415 Sc402 2.105 . S
O415 C409 1.268 . S
O416 Sc404 2.105 . S
O416 C410 1.268 . S
O417 Sc403 2.105 . S
O417 C411 1.268 . S
O418 Sc402 2.105 . S
O418 C410 1.268 . S
O419 Sc403 2.105 . S
O419 C409 1.268 . S
O420 Sc404 2.105 . S
O420 C411 1.268 . S
O421 Sc402 2.105 . S
O421 C407 1.268 . S
O422 Sc404 2.105 . S
O422 C406 1.268 . S
O423 Sc403 2.105 . S
O423 C408 1.268 . S
Sc424 O427 2.025 . S
Sc424 O434 2.105 . S
Sc424 O437 2.105 . S
Sc424 O440 2.105 . S
Sc424 O443 2.105 . S
Sc425 O427 2.025 . S
Sc425 O435 2.105 . S
Sc425 O439 2.105 . S
Sc425 O441 2.105 . S
Sc425 O445 2.105 . S
Sc426 O427 2.025 . S
Sc426 O436 2.105 . S
Sc426 O438 2.105 . S
Sc426 O442 2.105 . S
Sc426 O444 2.105 . S
O427 Sc424 2.025 . S
O427 Sc425 2.025 . S
O427 Sc426 2.025 . S
C428 O434 1.268 . S
C428 O444 1.268 . S
C429 O435 1.268 . S
C429 O443 1.268 . S
C430 O436 1.268 . S
C430 O445 1.268 . S
C431 O437 1.268 . S
C431 O441 1.268 . S
C432 O438 1.268 . S
C432 O440 1.268 . S
C433 O439 1.268 . S
C433 O442 1.268 . S
O434 Sc424 2.105 . S
O434 C428 1.268 . S
O435 Sc425 2.105 . S
O435 C429 1.268 . S
O436 Sc426 2.105 . S
O436 C430 1.268 . S
O437 Sc424 2.105 . S
O437 C431 1.268 . S
O438 Sc426 2.105 . S
O438 C432 1.268 . S
O439 Sc425 2.105 . S
O439 C433 1.268 . S
O440 Sc424 2.105 . S
O440 C432 1.268 . S
O441 Sc425 2.105 . S
O441 C431 1.268 . S
O442 Sc426 2.105 . S
O442 C433 1.268 . S
O443 Sc424 2.105 . S
O443 C429 1.268 . S
O444 Sc426 2.105 . S
O444 C428 1.268 . S
O445 Sc425 2.105 . S
O445 C430 1.268 . S
Sc446 O449 2.025 . S
Sc446 O456 2.105 . S
Sc446 O459 2.105 . S
Sc446 O462 2.105 . S
Sc446 O465 2.105 . S
Sc447 O449 2.025 . S
Sc447 O457 2.105 . S
Sc447 O461 2.105 . S
Sc447 O463 2.105 . S
Sc447 O467 2.105 . S
Sc448 O449 2.025 . S
Sc448 O458 2.105 . S
Sc448 O460 2.105 . S
Sc448 O464 2.105 . S
Sc448 O466 2.105 . S
O449 Sc446 2.025 . S
O449 Sc447 2.025 . S
O449 Sc448 2.025 . S
C450 O456 1.268 . S
C450 O466 1.268 . S
C451 O457 1.268 . S
C451 O465 1.268 . S
C452 O458 1.268 . S
C452 O467 1.268 . S
C453 O459 1.268 . S
C453 O463 1.268 . S
C454 O460 1.268 . S
C454 O462 1.268 . S
C455 O461 1.268 . S
C455 O464 1.268 . S
O456 Sc446 2.105 . S
O456 C450 1.268 . S
O457 Sc447 2.105 . S
O457 C451 1.268 . S
O458 Sc448 2.105 . S
O458 C452 1.268 . S
O459 Sc446 2.105 . S
O459 C453 1.268 . S
O460 Sc448 2.105 . S
O460 C454 1.268 . S
O461 Sc447 2.105 . S
O461 C455 1.268 . S
O462 Sc446 2.105 . S
O462 C454 1.268 . S
O463 Sc447 2.105 . S
O463 C453 1.268 . S
O464 Sc448 2.105 . S
O464 C455 1.268 . S
O465 Sc446 2.105 . S
O465 C451 1.268 . S
O466 Sc448 2.105 . S
O466 C450 1.268 . S
O467 Sc447 2.105 . S
O467 C452 1.268 . S
Sc468 O471 2.025 . S
Sc468 O478 2.105 . S
Sc468 O481 2.105 . S
Sc468 O484 2.105 . S
Sc468 O487 2.105 . S
Sc469 O471 2.025 . S
Sc469 O479 2.105 . S
Sc469 O483 2.105 . S
Sc469 O485 2.105 . S
Sc469 O489 2.105 . S
Sc470 O471 2.025 . S
Sc470 O480 2.105 . S
Sc470 O482 2.105 . S
Sc470 O486 2.105 . S
Sc470 O488 2.105 . S
O471 Sc468 2.025 . S
O471 Sc469 2.025 . S
O471 Sc470 2.025 . S
C472 O478 1.268 . S
C472 O488 1.268 . S
C473 O479 1.268 . S
C473 O487 1.268 . S
C474 O480 1.268 . S
C474 O489 1.268 . S
C475 O481 1.268 . S
C475 O485 1.268 . S
C476 O482 1.268 . S
C476 O484 1.268 . S
C477 O483 1.268 . S
C477 O486 1.268 . S
O478 Sc468 2.105 . S
O478 C472 1.268 . S
O479 Sc469 2.105 . S
O479 C473 1.268 . S
O480 Sc470 2.105 . S
O480 C474 1.268 . S
O481 Sc468 2.105 . S
O481 C475 1.268 . S
O482 Sc470 2.105 . S
O482 C476 1.268 . S
O483 Sc469 2.105 . S
O483 C477 1.268 . S
O484 Sc468 2.105 . S
O484 C476 1.268 . S
O485 Sc469 2.105 . S
O485 C475 1.268 . S
O486 Sc470 2.105 . S
O486 C477 1.268 . S
O487 Sc468 2.105 . S
O487 C473 1.268 . S
O488 Sc470 2.105 . S
O488 C472 1.268 . S
O489 Sc469 2.105 . S
O489 C474 1.268 . S
Sc490 O493 2.025 . S
Sc490 O500 2.105 . S
Sc490 O503 2.105 . S
Sc490 O506 2.105 . S
Sc490 O509 2.105 . S
Sc491 O493 2.025 . S
Sc491 O501 2.105 . S
Sc491 O505 2.105 . S
Sc491 O507 2.105 . S
Sc491 O511 2.105 . S
Sc492 O493 2.025 . S
Sc492 O502 2.105 . S
Sc492 O504 2.105 . S
Sc492 O508 2.105 . S
Sc492 O510 2.105 . S
O493 Sc490 2.025 . S
O493 Sc491 2.025 . S
O493 Sc492 2.025 . S
C494 O500 1.268 . S
C494 O510 1.268 . S
C495 O501 1.268 . S
C495 O509 1.268 . S
C496 O502 1.268 . S
C496 O511 1.268 . S
C497 O503 1.268 . S
C497 O507 1.268 . S
C498 O504 1.268 . S
C498 O506 1.268 . S
C499 O505 1.268 . S
C499 O508 1.268 . S
O500 Sc490 2.105 . S
O500 C494 1.268 . S
O501 Sc491 2.105 . S
O501 C495 1.268 . S
O502 Sc492 2.105 . S
O502 C496 1.268 . S
O503 Sc490 2.105 . S
O503 C497 1.268 . S
O504 Sc492 2.105 . S
O504 C498 1.268 . S
O505 Sc491 2.105 . S
O505 C499 1.268 . S
O506 Sc490 2.105 . S
O506 C498 1.268 . S
O507 Sc491 2.105 . S
O507 C497 1.268 . S
O508 Sc492 2.105 . S
O508 C499 1.268 . S
O509 Sc490 2.105 . S
O509 C495 1.268 . S
O510 Sc492 2.105 . S
O510 C494 1.268 . S
O511 Sc491 2.105 . S
O511 C496 1.268 . S
Sc512 O515 2.025 . S
Sc512 O522 2.105 . S
Sc512 O525 2.105 . S
Sc512 O528 2.105 . S
Sc512 O531 2.105 . S
Sc513 O515 2.025 . S
Sc513 O523 2.105 . S
Sc513 O527 2.105 . S
Sc513 O529 2.105 . S
Sc513 O533 2.105 . S
Sc514 O515 2.025 . S
Sc514 O524 2.105 . S
Sc514 O526 2.105 . S
Sc514 O530 2.105 . S
Sc514 O532 2.105 . S
O515 Sc512 2.025 . S
O515 Sc513 2.025 . S
O515 Sc514 2.025 . S
C516 O522 1.268 . S
C516 O532 1.268 . S
C517 O523 1.268 . S
C517 O531 1.268 . S
C518 O524 1.268 . S
C518 O533 1.268 . S
C519 O525 1.268 . S
C519 O529 1.268 . S
C520 O526 1.268 . S
C520 O528 1.268 . S
C521 O527 1.268 . S
C521 O530 1.268 . S
O522 Sc512 2.105 . S
O522 C516 1.268 . S
O523 Sc513 2.105 . S
O523 C517 1.268 . S
O524 Sc514 2.105 . S
O524 C518 1.268 . S
O525 Sc512 2.105 . S
O525 C519 1.268 . S
O526 Sc514 2.105 . S
O526 C520 1.268 . S
O527 Sc513 2.105 . S
O527 C521 1.268 . S
O528 Sc512 2.105 . S
O528 C520 1.268 . S
O529 Sc513 2.105 . S
O529 C519 1.268 . S
O530 Sc514 2.105 . S
O530 C521 1.268 . S
O531 Sc512 2.105 . S
O531 C517 1.268 . S
O532 Sc514 2.105 . S
O532 C516 1.268 . S
O533 Sc513 2.105 . S
O533 C518 1.268 . S
Sc534 O537 2.025 . S
Sc534 O544 2.105 . S
Sc534 O547 2.105 . S
Sc534 O550 2.105 . S
Sc534 O553 2.105 . S
Sc535 O537 2.025 . S
Sc535 O545 2.105 . S
Sc535 O549 2.105 . S
Sc535 O551 2.105 . S
Sc535 O555 2.105 . S
Sc536 O537 2.025 . S
Sc536 O546 2.105 . S
Sc536 O548 2.105 . S
Sc536 O552 2.105 . S
Sc536 O554 2.105 . S
O537 Sc534 2.025 . S
O537 Sc535 2.025 . S
O537 Sc536 2.025 . S
C538 O544 1.268 . S
C538 O554 1.268 . S
C539 O545 1.268 . S
C539 O553 1.268 . S
C540 O546 1.268 . S
C540 O555 1.268 . S
C541 O547 1.268 . S
C541 O551 1.268 . S
C542 O548 1.268 . S
C542 O550 1.268 . S
C543 O549 1.268 . S
C543 O552 1.268 . S
O544 Sc534 2.105 . S
O544 C538 1.268 . S
O545 Sc535 2.105 . S
O545 C539 1.268 . S
O546 Sc536 2.105 . S
O546 C540 1.268 . S
O547 Sc534 2.105 . S
O547 C541 1.268 . S
O548 Sc536 2.105 . S
O548 C542 1.268 . S
O549 Sc535 2.105 . S
O549 C543 1.268 . S
O550 Sc534 2.105 . S
O550 C542 1.268 . S
O551 Sc535 2.105 . S
O551 C541 1.268 . S
O552 Sc536 2.105 . S
O552 C543 1.268 . S
O553 Sc534 2.105 . S
O553 C539 1.268 . S
O554 Sc536 2.105 . S
O554 C538 1.268 . S
O555 Sc535 2.105 . S
O555 C540 1.268 . S
Sc556 O559 2.025 . S
Sc556 O566 2.105 . S
Sc556 O569 2.105 . S
Sc556 O572 2.105 . S
Sc556 O575 2.105 . S
Sc557 O559 2.025 . S
Sc557 O567 2.105 . S
Sc557 O571 2.105 . S
Sc557 O573 2.105 . S
Sc557 O577 2.105 . S
Sc558 O559 2.025 . S
Sc558 O568 2.105 . S
Sc558 O570 2.105 . S
Sc558 O574 2.105 . S
Sc558 O576 2.105 . S
O559 Sc556 2.025 . S
O559 Sc557 2.025 . S
O559 Sc558 2.025 . S
C560 O566 1.268 . S
C560 O576 1.268 . S
C561 O567 1.268 . S
C561 O575 1.268 . S
C562 O568 1.268 . S
C562 O577 1.268 . S
C563 O569 1.268 . S
C563 O573 1.268 . S
C564 O570 1.268 . S
C564 O572 1.268 . S
C565 O571 1.268 . S
C565 O574 1.268 . S
O566 Sc556 2.105 . S
O566 C560 1.268 . S
O567 Sc557 2.105 . S
O567 C561 1.268 . S
O568 Sc558 2.105 . S
O568 C562 1.268 . S
O569 Sc556 2.105 . S
O569 C563 1.268 . S
O570 Sc558 2.105 . S
O570 C564 1.268 . S
O571 Sc557 2.105 . S
O571 C565 1.268 . S
O572 Sc556 2.105 . S
O572 C564 1.268 . S
O573 Sc557 2.105 . S
O573 C563 1.268 . S
O574 Sc558 2.105 . S
O574 C565 1.268 . S
O575 Sc556 2.105 . S
O575 C561 1.268 . S
O576 Sc558 2.105 . S
O576 C560 1.268 . S
O577 Sc557 2.105 . S
O577 C562 1.268 . S
Sc578 O581 2.025 . S
Sc578 O588 2.105 . S
Sc578 O591 2.105 . S
Sc578 O594 2.105 . S
Sc578 O597 2.105 . S
Sc579 O581 2.025 . S
Sc579 O589 2.105 . S
Sc579 O593 2.105 . S
Sc579 O595 2.105 . S
Sc579 O599 2.105 . S
Sc580 O581 2.025 . S
Sc580 O590 2.105 . S
Sc580 O592 2.105 . S
Sc580 O596 2.105 . S
Sc580 O598 2.105 . S
O581 Sc578 2.025 . S
O581 Sc579 2.025 . S
O581 Sc580 2.025 . S
C582 O588 1.268 . S
C582 O598 1.268 . S
C583 O589 1.268 . S
C583 O597 1.268 . S
C584 O590 1.268 . S
C584 O599 1.268 . S
C585 O591 1.268 . S
C585 O595 1.268 . S
C586 O592 1.268 . S
C586 O594 1.268 . S
C587 O593 1.268 . S
C587 O596 1.268 . S
O588 Sc578 2.105 . S
O588 C582 1.268 . S
O589 Sc579 2.105 . S
O589 C583 1.268 . S
O590 Sc580 2.105 . S
O590 C584 1.268 . S
O591 Sc578 2.105 . S
O591 C585 1.268 . S
O592 Sc580 2.105 . S
O592 C586 1.268 . S
O593 Sc579 2.105 . S
O593 C587 1.268 . S
O594 Sc578 2.105 . S
O594 C586 1.268 . S
O595 Sc579 2.105 . S
O595 C585 1.268 . S
O596 Sc580 2.105 . S
O596 C587 1.268 . S
O597 Sc578 2.105 . S
O597 C583 1.268 . S
O598 Sc580 2.105 . S
O598 C582 1.268 . S
O599 Sc579 2.105 . S
O599 C584 1.268 . S
Sc600 O603 2.025 . S
Sc600 O610 2.105 . S
Sc600 O613 2.105 . S
Sc600 O616 2.105 . S
Sc600 O619 2.105 . S
Sc601 O603 2.025 . S
Sc601 O611 2.105 . S
Sc601 O615 2.105 . S
Sc601 O617 2.105 . S
Sc601 O621 2.105 . S
Sc602 O603 2.025 . S
Sc602 O612 2.105 . S
Sc602 O614 2.105 . S
Sc602 O618 2.105 . S
Sc602 O620 2.105 . S
O603 Sc600 2.025 . S
O603 Sc601 2.025 . S
O603 Sc602 2.025 . S
C604 O610 1.268 . S
C604 O620 1.268 . S
C605 O611 1.268 . S
C605 O619 1.268 . S
C606 O612 1.268 . S
C606 O621 1.268 . S
C607 O613 1.268 . S
C607 O617 1.268 . S
C608 O614 1.268 . S
C608 O616 1.268 . S
C609 O615 1.268 . S
C609 O618 1.268 . S
O610 Sc600 2.105 . S
O610 C604 1.268 . S
O611 Sc601 2.105 . S
O611 C605 1.268 . S
O612 Sc602 2.105 . S
O612 C606 1.268 . S
O613 Sc600 2.105 . S
O613 C607 1.268 . S
O614 Sc602 2.105 . S
O614 C608 1.268 . S
O615 Sc601 2.105 . S
O615 C609 1.268 . S
O616 Sc600 2.105 . S
O616 C608 1.268 . S
O617 Sc601 2.105 . S
O617 C607 1.268 . S
O618 Sc602 2.105 . S
O618 C609 1.268 . S
O619 Sc600 2.105 . S
O619 C605 1.268 . S
O620 Sc602 2.105 . S
O620 C604 1.268 . S
O621 Sc601 2.105 . S
O621 C606 1.268 . S
Sc622 O625 2.025 . S
Sc622 O632 2.105 . S
Sc622 O635 2.105 . S
Sc622 O638 2.105 . S
Sc622 O641 2.105 . S
Sc623 O625 2.025 . S
Sc623 O633 2.105 . S
Sc623 O637 2.105 . S
Sc623 O639 2.105 . S
Sc623 O643 2.105 . S
Sc624 O625 2.025 . S
Sc624 O634 2.105 . S
Sc624 O636 2.105 . S
Sc624 O640 2.105 . S
Sc624 O642 2.105 . S
O625 Sc622 2.025 . S
O625 Sc623 2.025 . S
O625 Sc624 2.025 . S
C626 O632 1.268 . S
C626 O642 1.268 . S
C627 O633 1.268 . S
C627 O641 1.268 . S
C628 O634 1.268 . S
C628 O643 1.268 . S
C629 O635 1.268 . S
C629 O639 1.268 . S
C630 O636 1.268 . S
C630 O638 1.268 . S
C631 O637 1.268 . S
C631 O640 1.268 . S
O632 Sc622 2.105 . S
O632 C626 1.268 . S
O633 Sc623 2.105 . S
O633 C627 1.268 . S
O634 Sc624 2.105 . S
O634 C628 1.268 . S
O635 Sc622 2.105 . S
O635 C629 1.268 . S
O636 Sc624 2.105 . S
O636 C630 1.268 . S
O637 Sc623 2.105 . S
O637 C631 1.268 . S
O638 Sc622 2.105 . S
O638 C630 1.268 . S
O639 Sc623 2.105 . S
O639 C629 1.268 . S
O640 Sc624 2.105 . S
O640 C631 1.268 . S
O641 Sc622 2.105 . S
O641 C627 1.268 . S
O642 Sc624 2.105 . S
O642 C626 1.268 . S
O643 Sc623 2.105 . S
O643 C628 1.268 . S
Sc644 O647 2.025 . S
Sc644 O654 2.105 . S
Sc644 O657 2.105 . S
Sc644 O660 2.105 . S
Sc644 O663 2.105 . S
Sc645 O647 2.025 . S
Sc645 O655 2.105 . S
Sc645 O659 2.105 . S
Sc645 O661 2.105 . S
Sc645 O665 2.105 . S
Sc646 O647 2.025 . S
Sc646 O656 2.105 . S
Sc646 O658 2.105 . S
Sc646 O662 2.105 . S
Sc646 O664 2.105 . S
O647 Sc644 2.025 . S
O647 Sc645 2.025 . S
O647 Sc646 2.025 . S
C648 O654 1.268 . S
C648 O664 1.268 . S
C649 O655 1.268 . S
C649 O663 1.268 . S
C650 O656 1.268 . S
C650 O665 1.268 . S
C651 O657 1.268 . S
C651 O661 1.268 . S
C652 O658 1.268 . S
C652 O660 1.268 . S
C653 O659 1.268 . S
C653 O662 1.268 . S
O654 Sc644 2.105 . S
O654 C648 1.268 . S
O655 Sc645 2.105 . S
O655 C649 1.268 . S
O656 Sc646 2.105 . S
O656 C650 1.268 . S
O657 Sc644 2.105 . S
O657 C651 1.268 . S
O658 Sc646 2.105 . S
O658 C652 1.268 . S
O659 Sc645 2.105 . S
O659 C653 1.268 . S
O660 Sc644 2.105 . S
O660 C652 1.268 . S
O661 Sc645 2.105 . S
O661 C651 1.268 . S
O662 Sc646 2.105 . S
O662 C653 1.268 . S
O663 Sc644 2.105 . S
O663 C649 1.268 . S
O664 Sc646 2.105 . S
O664 C648 1.268 . S
O665 Sc645 2.105 . S
O665 C650 1.268 . S
Sc666 O669 2.025 . S
Sc666 O676 2.105 . S
Sc666 O679 2.105 . S
Sc666 O682 2.105 . S
Sc666 O685 2.105 . S
Sc667 O669 2.025 . S
Sc667 O677 2.105 . S
Sc667 O681 2.105 . S
Sc667 O683 2.105 . S
Sc667 O687 2.105 . S
Sc668 O669 2.025 . S
Sc668 O678 2.105 . S
Sc668 O680 2.105 . S
Sc668 O684 2.105 . S
Sc668 O686 2.105 . S
O669 Sc666 2.025 . S
O669 Sc667 2.025 . S
O669 Sc668 2.025 . S
C670 O676 1.268 . S
C670 O686 1.268 . S
C671 O677 1.268 . S
C671 O685 1.268 . S
C672 O678 1.268 . S
C672 O687 1.268 . S
C673 O679 1.268 . S
C673 O683 1.268 . S
C674 O680 1.268 . S
C674 O682 1.268 . S
C675 O681 1.268 . S
C675 O684 1.268 . S
O676 Sc666 2.105 . S
O676 C670 1.268 . S
O677 Sc667 2.105 . S
O677 C671 1.268 . S
O678 Sc668 2.105 . S
O678 C672 1.268 . S
O679 Sc666 2.105 . S
O679 C673 1.268 . S
O680 Sc668 2.105 . S
O680 C674 1.268 . S
O681 Sc667 2.105 . S
O681 C675 1.268 . S
O682 Sc666 2.105 . S
O682 C674 1.268 . S
O683 Sc667 2.105 . S
O683 C673 1.268 . S
O684 Sc668 2.105 . S
O684 C675 1.268 . S
O685 Sc666 2.105 . S
O685 C671 1.268 . S
O686 Sc668 2.105 . S
O686 C670 1.268 . S
O687 Sc667 2.105 . S
O687 C672 1.268 . S
H688 C696 0.950 . S
H689 C701 0.950 . S
H690 C698 0.950 . S
H691 C700 0.950 . S
H692 C702 0.950 . S
H693 C704 0.950 . S
H694 C706 0.950 . S
H695 C707 0.950 . S
C696 H688 0.950 . S
C696 C697 1.386 . S
C696 C698 1.391 . S
C697 C696 1.386 . S
C697 C701 1.393 . S
C698 H690 0.950 . S
C698 C696 1.391 . S
C698 C699 1.400 . S
C699 C698 1.400 . S
C699 C700 1.398 . S
C699 C705 1.491 . S
C700 H691 0.950 . S
C700 C699 1.398 . S
C700 C701 1.391 . S
C701 H689 0.950 . S
C701 C697 1.393 . S
C701 C700 1.391 . S
C702 H692 0.950 . S
C702 C703 1.386 . S
C702 C704 1.391 . S
C703 C702 1.386 . S
C703 C707 1.393 . S
C704 H693 0.950 . S
C704 C702 1.391 . S
C704 C705 1.400 . S
C705 C699 1.491 . S
C705 C704 1.400 . S
C705 C706 1.398 . S
C706 H694 0.950 . S
C706 C705 1.398 . S
C706 C707 1.391 . S
C707 H695 0.950 . S
C707 C703 1.393 . S
C707 C706 1.391 . S
H708 C716 0.950 . S
H709 C721 0.950 . S
H710 C718 0.950 . S
H711 C720 0.950 . S
H712 C722 0.950 . S
H713 C724 0.950 . S
H714 C726 0.950 . S
H715 C727 0.950 . S
C716 H708 0.950 . S
C716 C717 1.386 . S
C716 C718 1.391 . S
C717 C716 1.386 . S
C717 C721 1.393 . S
C718 H710 0.950 . S
C718 C716 1.391 . S
C718 C719 1.400 . S
C719 C718 1.400 . S
C719 C720 1.398 . S
C719 C725 1.491 . S
C720 H711 0.950 . S
C720 C719 1.398 . S
C720 C721 1.391 . S
C721 H709 0.950 . S
C721 C717 1.393 . S
C721 C720 1.391 . S
C722 H712 0.950 . S
C722 C723 1.386 . S
C722 C724 1.391 . S
C723 C722 1.386 . S
C723 C727 1.393 . S
C724 H713 0.950 . S
C724 C722 1.391 . S
C724 C725 1.400 . S
C725 C719 1.491 . S
C725 C724 1.400 . S
C725 C726 1.398 . S
C726 H714 0.950 . S
C726 C725 1.398 . S
C726 C727 1.391 . S
C727 H715 0.950 . S
C727 C723 1.393 . S
C727 C726 1.391 . S
H728 C736 0.950 . S
H729 C741 0.950 . S
H730 C738 0.950 . S
H731 C740 0.950 . S
H732 C742 0.950 . S
H733 C744 0.950 . S
H734 C746 0.950 . S
H735 C747 0.950 . S
C736 H728 0.950 . S
C736 C737 1.386 . S
C736 C738 1.391 . S
C737 C736 1.386 . S
C737 C741 1.393 . S
C738 H730 0.950 . S
C738 C736 1.391 . S
C738 C739 1.400 . S
C739 C738 1.400 . S
C739 C740 1.398 . S
C739 C745 1.491 . S
C740 H731 0.950 . S
C740 C739 1.398 . S
C740 C741 1.391 . S
C741 H729 0.950 . S
C741 C737 1.393 . S
C741 C740 1.391 . S
C742 H732 0.950 . S
C742 C743 1.386 . S
C742 C744 1.391 . S
C743 C742 1.386 . S
C743 C747 1.393 . S
C744 H733 0.950 . S
C744 C742 1.391 . S
C744 C745 1.400 . S
C745 C739 1.491 . S
C745 C744 1.400 . S
C745 C746 1.398 . S
C746 H734 0.950 . S
C746 C745 1.398 . S
C746 C747 1.391 . S
C747 H735 0.950 . S
C747 C743 1.393 . S
C747 C746 1.391 . S
H748 C756 0.950 . S
H749 C761 0.950 . S
H750 C758 0.950 . S
H751 C760 0.950 . S
H752 C762 0.950 . S
H753 C764 0.950 . S
H754 C766 0.950 . S
H755 C767 0.950 . S
C756 H748 0.950 . S
C756 C757 1.386 . S
C756 C758 1.391 . S
C757 C756 1.386 . S
C757 C761 1.393 . S
C758 H750 0.950 . S
C758 C756 1.391 . S
C758 C759 1.400 . S
C759 C758 1.400 . S
C759 C760 1.398 . S
C759 C765 1.491 . S
C760 H751 0.950 . S
C760 C759 1.398 . S
C760 C761 1.391 . S
C761 H749 0.950 . S
C761 C757 1.393 . S
C761 C760 1.391 . S
C762 H752 0.950 . S
C762 C763 1.386 . S
C762 C764 1.391 . S
C763 C762 1.386 . S
C763 C767 1.393 . S
C764 H753 0.950 . S
C764 C762 1.391 . S
C764 C765 1.400 1_556 S
C765 C759 1.491 . S
C765 C764 1.400 1_554 S
C765 C766 1.398 . S
C766 H754 0.950 . S
C766 C765 1.398 . S
C766 C767 1.391 1_554 S
C767 H755 0.950 . S
C767 C763 1.393 . S
C767 C766 1.391 1_556 S
H768 C776 0.950 . S
H769 C781 0.950 . S
H770 C778 0.950 . S
H771 C780 0.950 . S
H772 C782 0.950 . S
H773 C784 0.950 . S
H774 C786 0.950 . S
H775 C787 0.950 . S
C776 H768 0.950 . S
C776 C777 1.386 . S
C776 C778 1.391 . S
C777 C776 1.386 . S
C777 C781 1.393 . S
C778 H770 0.950 . S
C778 C776 1.391 . S
C778 C779 1.400 . S
C779 C778 1.400 . S
C779 C780 1.398 . S
C779 C785 1.491 . S
C780 H771 0.950 . S
C780 C779 1.398 . S
C780 C781 1.391 . S
C781 H769 0.950 . S
C781 C777 1.393 . S
C781 C780 1.391 . S
C782 H772 0.950 . S
C782 C783 1.386 . S
C782 C784 1.391 . S
C783 C782 1.386 . S
C783 C787 1.393 . S
C784 H773 0.950 . S
C784 C782 1.391 . S
C784 C785 1.400 . S
C785 C779 1.491 . S
C785 C784 1.400 . S
C785 C786 1.398 . S
C786 H774 0.950 . S
C786 C785 1.398 . S
C786 C787 1.391 . S
C787 H775 0.950 . S
C787 C783 1.393 . S
C787 C786 1.391 . S
H788 C796 0.950 . S
H789 C801 0.950 . S
H790 C798 0.950 . S
H791 C800 0.950 . S
H792 C802 0.950 . S
H793 C804 0.950 . S
H794 C806 0.950 . S
H795 C807 0.950 . S
C796 H788 0.950 . S
C796 C797 1.386 . S
C796 C798 1.391 . S
C797 C796 1.386 . S
C797 C801 1.393 . S
C798 H790 0.950 . S
C798 C796 1.391 . S
C798 C799 1.400 . S
C799 C798 1.400 . S
C799 C800 1.398 . S
C799 C805 1.491 . S
C800 H791 0.950 . S
C800 C799 1.398 . S
C800 C801 1.391 . S
C801 H789 0.950 . S
C801 C797 1.393 . S
C801 C800 1.391 . S
C802 H792 0.950 . S
C802 C803 1.386 . S
C802 C804 1.391 . S
C803 C802 1.386 . S
C803 C807 1.393 . S
C804 H793 0.950 . S
C804 C802 1.391 . S
C804 C805 1.400 . S
C805 C799 1.491 . S
C805 C804 1.400 . S
C805 C806 1.398 . S
C806 H794 0.950 . S
C806 C805 1.398 . S
C806 C807 1.391 . S
C807 H795 0.950 . S
C807 C803 1.393 . S
C807 C806 1.391 . S
H808 C816 0.950 . S
H809 C821 0.950 . S
H810 C818 0.950 . S
H811 C820 0.950 . S
H812 C822 0.950 . S
H813 C824 0.950 . S
H814 C826 0.950 . S
H815 C827 0.950 . S
C816 H808 0.950 . S
C816 C817 1.386 . S
C816 C818 1.391 . S
C817 C816 1.386 . S
C817 C821 1.393 . S
C818 H810 0.950 . S
C818 C816 1.391 . S
C818 C819 1.400 . S
C819 C818 1.400 . S
C819 C820 1.398 . S
C819 C825 1.491 . S
C820 H811 0.950 . S
C820 C819 1.398 . S
C820 C821 1.391 . S
C821 H809 0.950 . S
C821 C817 1.393 . S
C821 C820 1.391 . S
C822 H812 0.950 . S
C822 C823 1.386 . S
C822 C824 1.391 . S
C823 C822 1.386 . S
C823 C827 1.393 . S
C824 H813 0.950 . S
C824 C822 1.391 . S
C824 C825 1.400 . S
C825 C819 1.491 . S
C825 C824 1.400 . S
C825 C826 1.398 . S
C826 H814 0.950 . S
C826 C825 1.398 . S
C826 C827 1.391 . S
C827 H815 0.950 . S
C827 C823 1.393 . S
C827 C826 1.391 . S
H828 C836 0.950 . S
H829 C841 0.950 . S
H830 C838 0.950 . S
H831 C840 0.950 . S
H832 C842 0.950 . S
H833 C844 0.950 . S
H834 C846 0.951 . S
H835 C847 0.950 . S
C836 H828 0.950 . S
C836 C837 1.386 . S
C836 C838 1.391 . S
C837 C836 1.386 . S
C837 C841 1.393 . S
C838 H830 0.950 . S
C838 C836 1.391 . S
C838 C839 1.400 . S
C839 C838 1.400 . S
C839 C840 1.398 . S
C839 C845 1.491 . S
C840 H831 0.950 . S
C840 C839 1.398 . S
C840 C841 1.391 . S
C841 H829 0.950 . S
C841 C837 1.393 . S
C841 C840 1.391 . S
C842 H832 0.950 . S
C842 C843 1.386 . S
C842 C844 1.391 . S
C843 C842 1.386 . S
C843 C847 1.393 . S
C844 H833 0.950 . S
C844 C842 1.391 . S
C844 C845 1.400 1_554 S
C845 C839 1.491 . S
C845 C844 1.400 1_556 S
C845 C846 1.398 . S
C846 H834 0.951 . S
C846 C845 1.398 . S
C846 C847 1.390 1_556 S
C847 H835 0.950 . S
C847 C843 1.393 . S
C847 C846 1.390 1_554 S
H848 C856 0.950 . S
H849 C861 0.950 . S
H850 C858 0.950 . S
H851 C860 0.950 . S
H852 C862 0.950 . S
H853 C864 0.950 . S
H854 C866 0.950 . S
H855 C867 0.950 . S
C856 H848 0.950 . S
C856 C857 1.386 . S
C856 C858 1.391 . S
C857 C856 1.386 . S
C857 C861 1.393 . S
C858 H850 0.950 . S
C858 C856 1.391 . S
C858 C859 1.400 . S
C859 C858 1.400 . S
C859 C860 1.398 . S
C859 C865 1.491 . S
C860 H851 0.950 . S
C860 C859 1.398 . S
C860 C861 1.391 . S
C861 H849 0.950 . S
C861 C857 1.393 . S
C861 C860 1.391 . S
C862 H852 0.950 . S
C862 C863 1.386 . S
C862 C864 1.391 . S
C863 C862 1.386 . S
C863 C867 1.393 . S
C864 H853 0.950 . S
C864 C862 1.391 . S
C864 C865 1.400 . S
C865 C859 1.491 . S
C865 C864 1.400 . S
C865 C866 1.398 . S
C866 H854 0.950 . S
C866 C865 1.398 . S
C866 C867 1.391 . S
C867 H855 0.950 . S
C867 C863 1.393 . S
C867 C866 1.391 . S
H868 C876 0.950 . S
H869 C881 0.950 . S
H870 C878 0.950 . S
H871 C880 0.950 . S
H872 C882 0.950 . S
H873 C884 0.950 . S
H874 C886 0.950 . S
H875 C887 0.950 . S
C876 H868 0.950 . S
C876 C877 1.386 . S
C876 C878 1.391 . S
C877 C876 1.386 . S
C877 C881 1.393 . S
C878 H870 0.950 . S
C878 C876 1.391 . S
C878 C879 1.400 . S
C879 C878 1.400 . S
C879 C880 1.398 . S
C879 C885 1.491 . S
C880 H871 0.950 . S
C880 C879 1.398 . S
C880 C881 1.391 . S
C881 H869 0.950 . S
C881 C877 1.393 . S
C881 C880 1.391 . S
C882 H872 0.950 . S
C882 C883 1.386 . S
C882 C884 1.391 1_565 S
C883 C882 1.386 . S
C883 C887 1.393 . S
C884 H873 0.950 . S
C884 C882 1.391 1_545 S
C884 C885 1.400 . S
C885 C879 1.491 . S
C885 C884 1.400 . S
C885 C886 1.398 1_545 S
C886 H874 0.950 . S
C886 C885 1.398 1_565 S
C886 C887 1.391 . S
C887 H875 0.950 . S
C887 C883 1.393 . S
C887 C886 1.391 . S
H888 C896 0.950 . S
H889 C901 0.950 . S
H890 C898 0.950 . S
H891 C900 0.950 . S
H892 C902 0.950 . S
H893 C904 0.950 . S
H894 C906 0.950 . S
H895 C907 0.950 . S
C896 H888 0.950 . S
C896 C897 1.386 . S
C896 C898 1.391 . S
C897 C896 1.386 . S
C897 C901 1.393 . S
C898 H890 0.950 . S
C898 C896 1.391 . S
C898 C899 1.400 . S
C899 C898 1.400 . S
C899 C900 1.398 . S
C899 C905 1.491 . S
C900 H891 0.950 . S
C900 C899 1.398 . S
C900 C901 1.391 . S
C901 H889 0.950 . S
C901 C897 1.393 . S
C901 C900 1.391 . S
C902 H892 0.950 . S
C902 C903 1.386 . S
C902 C904 1.391 . S
C903 C902 1.386 . S
C903 C907 1.393 . S
C904 H893 0.950 . S
C904 C902 1.391 . S
C904 C905 1.400 . S
C905 C899 1.491 . S
C905 C904 1.400 . S
C905 C906 1.398 . S
C906 H894 0.950 . S
C906 C905 1.398 . S
C906 C907 1.391 . S
C907 H895 0.950 . S
C907 C903 1.393 . S
C907 C906 1.391 . S
H908 C916 0.950 . S
H909 C921 0.950 . S
H910 C918 0.950 . S
H911 C920 0.950 . S
H912 C922 0.950 . S
H913 C924 0.950 1_565 S
H914 C926 0.950 . S
H915 C927 0.950 . S
C916 H908 0.950 . S
C916 C917 1.386 . S
C916 C918 1.391 . S
C917 C916 1.386 . S
C917 C921 1.393 . S
C918 H910 0.950 . S
C918 C916 1.391 . S
C918 C919 1.400 . S
C919 C918 1.400 . S
C919 C920 1.398 . S
C919 C925 1.518 . S
C920 H911 0.950 . S
C920 C919 1.398 . S
C920 C921 1.391 . S
C921 H909 0.950 . S
C921 C917 1.393 . S
C921 C920 1.391 . S
C922 H912 0.950 . S
C922 C923 1.386 . S
C922 C924 1.391 . S
C923 C922 1.386 . S
C923 C927 1.393 . S
C924 H913 0.950 1_545 S
C924 C922 1.391 . S
C924 C925 1.399 1_545 S
C925 C919 1.518 . S
C925 C924 1.399 1_565 S
C925 C926 1.372 1_565 S
C926 H914 0.950 . S
C926 C925 1.372 1_545 S
C926 C927 1.391 . S
C927 H915 0.950 . S
C927 C923 1.393 . S
C927 C926 1.391 . S
H928 C936 0.950 . S
H929 C941 0.950 . S
H930 C938 0.950 . S
H931 C940 0.950 . S
H932 C942 0.950 . S
H933 C944 0.950 . S
H934 C946 0.950 . S
H935 C947 0.950 . S
C936 H928 0.950 . S
C936 C937 1.386 . S
C936 C938 1.391 . S
C937 C936 1.386 . S
C937 C941 1.393 . S
C938 H930 0.950 . S
C938 C936 1.391 . S
C938 C939 1.400 . S
C939 C938 1.400 . S
C939 C940 1.398 . S
C939 C945 1.491 . S
C940 H931 0.950 . S
C940 C939 1.398 . S
C940 C941 1.391 . S
C941 H929 0.950 . S
C941 C937 1.393 . S
C941 C940 1.391 . S
C942 H932 0.950 . S
C942 C943 1.386 . S
C942 C944 1.391 . S
C943 C942 1.386 . S
C943 C947 1.393 . S
C944 H933 0.950 . S
C944 C942 1.391 . S
C944 C945 1.400 . S
C945 C939 1.491 . S
C945 C944 1.400 . S
C945 C946 1.398 . S
C946 H934 0.950 . S
C946 C945 1.398 . S
C946 C947 1.391 . S
C947 H935 0.950 . S
C947 C943 1.393 . S
C947 C946 1.391 . S
H948 C956 0.950 . S
H949 C961 0.950 . S
H950 C958 0.950 . S
H951 C960 0.950 . S
H952 C962 0.950 . S
H953 C964 0.950 . S
H954 C966 0.950 . S
H955 C967 0.950 . S
C956 H948 0.950 . S
C956 C957 1.386 . S
C956 C958 1.391 . S
C957 C956 1.386 . S
C957 C961 1.393 . S
C958 H950 0.950 . S
C958 C956 1.391 . S
C958 C959 1.400 . S
C959 C958 1.400 . S
C959 C960 1.398 . S
C959 C965 1.491 . S
C960 H951 0.950 . S
C960 C959 1.398 . S
C960 C961 1.391 . S
C961 H949 0.950 . S
C961 C957 1.393 . S
C961 C960 1.391 . S
C962 H952 0.950 . S
C962 C963 1.386 . S
C962 C964 1.391 1_565 S
C963 C962 1.386 . S
C963 C967 1.393 . S
C964 H953 0.950 . S
C964 C962 1.391 1_545 S
C964 C965 1.400 . S
C965 C959 1.491 . S
C965 C964 1.400 . S
C965 C966 1.398 1_545 S
C966 H954 0.950 . S
C966 C965 1.398 1_565 S
C966 C967 1.391 . S
C967 H955 0.950 . S
C967 C963 1.393 . S
C967 C966 1.391 . S
H968 C976 0.950 . S
H969 C981 0.950 . S
H970 C978 0.950 . S
H971 C980 0.950 . S
H972 C982 0.950 . S
H973 C984 0.950 . S
H974 C986 0.950 . S
H975 C987 0.950 . S
C976 H968 0.950 . S
C976 C977 1.386 . S
C976 C978 1.391 . S
C977 C976 1.386 . S
C977 C981 1.393 . S
C978 H970 0.950 . S
C978 C976 1.391 . S
C978 C979 1.400 . S
C979 C978 1.400 . S
C979 C980 1.398 . S
C979 C985 1.491 . S
C980 H971 0.950 . S
C980 C979 1.398 . S
C980 C981 1.391 . S
C981 H969 0.950 . S
C981 C977 1.393 . S
C981 C980 1.391 . S
C982 H972 0.950 . S
C982 C983 1.386 . S
C982 C984 1.391 . S
C983 C982 1.386 . S
C983 C987 1.393 . S
C984 H973 0.950 . S
C984 C982 1.391 . S
C984 C985 1.400 . S
C985 C979 1.491 . S
C985 C984 1.400 . S
C985 C986 1.398 . S
C986 H974 0.950 . S
C986 C985 1.398 . S
C986 C987 1.391 . S
C987 H975 0.950 . S
C987 C983 1.393 . S
C987 C986 1.391 . S
H988 C996 0.950 . S
H989 C1001 0.950 . S
H990 C998 0.950 . S
H991 C1000 0.950 . S
H992 C1002 0.950 . S
H993 C1004 0.950 . S
H994 C1006 0.950 . S
H995 C1007 0.950 . S
C996 H988 0.950 . S
C996 C997 1.386 . S
C996 C998 1.391 . S
C997 C996 1.386 . S
C997 C1001 1.393 . S
C998 H990 0.950 . S
C998 C996 1.391 . S
C998 C999 1.400 . S
C999 C998 1.400 . S
C999 C1000 1.398 . S
C999 C1005 1.491 . S
C1000 H991 0.950 . S
C1000 C999 1.398 . S
C1000 C1001 1.391 . S
C1001 H989 0.950 . S
C1001 C997 1.393 . S
C1001 C1000 1.391 . S
C1002 H992 0.950 . S
C1002 C1003 1.386 . S
C1002 C1004 1.391 1_545 S
C1003 C1002 1.386 . S
C1003 C1007 1.393 . S
C1004 H993 0.950 . S
C1004 C1002 1.391 1_565 S
C1004 C1005 1.400 . S
C1005 C999 1.491 . S
C1005 C1004 1.400 . S
C1005 C1006 1.398 1_565 S
C1006 H994 0.950 . S
C1006 C1005 1.398 1_545 S
C1006 C1007 1.391 . S
C1007 H995 0.950 . S
C1007 C1003 1.393 . S
C1007 C1006 1.391 . S
H1008 C1016 0.950 . S
H1009 C1021 0.950 . S
H1010 C1018 0.950 . S
H1011 C1020 0.950 . S
H1012 C1022 0.950 . S
H1013 C1024 0.950 . S
H1014 C1026 0.950 . S
H1015 C1027 0.950 . S
C1016 H1008 0.950 . S
C1016 C1017 1.386 . S
C1016 C1018 1.391 . S
C1017 C1016 1.386 . S
C1017 C1021 1.393 . S
C1018 H1010 0.950 . S
C1018 C1016 1.391 . S
C1018 C1019 1.400 . S
C1019 C1018 1.400 . S
C1019 C1020 1.398 . S
C1019 C1025 1.491 . S
C1020 H1011 0.950 . S
C1020 C1019 1.398 . S
C1020 C1021 1.391 . S
C1021 H1009 0.950 . S
C1021 C1017 1.393 . S
C1021 C1020 1.391 . S
C1022 H1012 0.950 . S
C1022 C1023 1.386 . S
C1022 C1024 1.391 . S
C1023 C1022 1.386 . S
C1023 C1027 1.393 . S
C1024 H1013 0.950 . S
C1024 C1022 1.391 . S
C1024 C1025 1.400 . S
C1025 C1019 1.491 . S
C1025 C1024 1.400 . S
C1025 C1026 1.398 . S
C1026 H1014 0.950 . S
C1026 C1025 1.398 . S
C1026 C1027 1.391 . S
C1027 H1015 0.950 . S
C1027 C1023 1.393 . S
C1027 C1026 1.391 . S
H1028 C1036 0.950 . S
H1029 C1041 0.950 . S
H1030 C1038 0.950 . S
H1031 C1040 0.950 . S
H1032 C1042 0.950 . S
H1033 C1044 0.950 . S
H1034 C1046 0.950 . S
H1035 C1047 0.950 . S
C1036 H1028 0.950 . S
C1036 C1037 1.386 . S
C1036 C1038 1.391 . S
C1037 C1036 1.386 . S
C1037 C1041 1.393 . S
C1038 H1030 0.950 . S
C1038 C1036 1.391 . S
C1038 C1039 1.400 . S
C1039 C1038 1.400 . S
C1039 C1040 1.398 . S
C1039 C1045 1.491 . S
C1040 H1031 0.950 . S
C1040 C1039 1.398 . S
C1040 C1041 1.391 . S
C1041 H1029 0.950 . S
C1041 C1037 1.393 . S
C1041 C1040 1.391 . S
C1042 H1032 0.950 . S
C1042 C1043 1.386 . S
C1042 C1044 1.391 . S
C1043 C1042 1.386 . S
C1043 C1047 1.393 . S
C1044 H1033 0.950 . S
C1044 C1042 1.391 . S
C1044 C1045 1.400 . S
C1045 C1039 1.491 . S
C1045 C1044 1.400 . S
C1045 C1046 1.398 . S
C1046 H1034 0.950 . S
C1046 C1045 1.398 . S
C1046 C1047 1.391 . S
C1047 H1035 0.950 . S
C1047 C1043 1.393 . S
C1047 C1046 1.391 . S
H1048 C1056 0.950 . S
H1049 C1061 0.950 . S
H1050 C1058 0.950 . S
H1051 C1060 0.950 . S
H1052 C1062 0.950 . S
H1053 C1064 0.950 . S
H1054 C1066 0.950 . S
H1055 C1067 0.950 . S
C1056 H1048 0.950 . S
C1056 C1057 1.386 . S
C1056 C1058 1.391 . S
C1057 C1056 1.386 . S
C1057 C1061 1.393 . S
C1058 H1050 0.950 . S
C1058 C1056 1.391 . S
C1058 C1059 1.400 . S
C1059 C1058 1.400 . S
C1059 C1060 1.398 . S
C1059 C1065 1.491 . S
C1060 H1051 0.950 . S
C1060 C1059 1.398 . S
C1060 C1061 1.391 . S
C1061 H1049 0.950 . S
C1061 C1057 1.393 . S
C1061 C1060 1.391 . S
C1062 H1052 0.950 . S
C1062 C1063 1.386 . S
C1062 C1064 1.391 1_655 S
C1063 C1062 1.386 . S
C1063 C1067 1.393 . S
C1064 H1053 0.950 . S
C1064 C1062 1.391 1_455 S
C1064 C1065 1.400 . S
C1065 C1059 1.491 . S
C1065 C1064 1.400 . S
C1065 C1066 1.398 1_455 S
C1066 H1054 0.950 . S
C1066 C1065 1.398 1_655 S
C1066 C1067 1.391 . S
C1067 H1055 0.950 . S
C1067 C1063 1.393 . S
C1067 C1066 1.391 . S
H1068 C1076 0.950 . S
H1069 C1081 0.950 . S
H1070 C1078 0.950 . S
H1071 C1080 0.950 . S
H1072 C1082 0.950 . S
H1073 C1084 0.950 . S
H1074 C1086 0.950 . S
H1075 C1087 0.950 . S
C1076 H1068 0.950 . S
C1076 C1077 1.386 . S
C1076 C1078 1.391 . S
C1077 C1076 1.386 . S
C1077 C1081 1.393 . S
C1078 H1070 0.950 . S
C1078 C1076 1.391 . S
C1078 C1079 1.400 . S
C1079 C1078 1.400 . S
C1079 C1080 1.398 . S
C1079 C1085 1.491 . S
C1080 H1071 0.950 . S
C1080 C1079 1.398 . S
C1080 C1081 1.391 . S
C1081 H1069 0.950 . S
C1081 C1077 1.393 . S
C1081 C1080 1.391 . S
C1082 H1072 0.950 . S
C1082 C1083 1.386 . S
C1082 C1084 1.391 . S
C1083 C1082 1.386 . S
C1083 C1087 1.393 . S
C1084 H1073 0.950 . S
C1084 C1082 1.391 . S
C1084 C1085 1.400 . S
C1085 C1079 1.491 . S
C1085 C1084 1.400 . S
C1085 C1086 1.398 . S
C1086 H1074 0.950 . S
C1086 C1085 1.398 . S
C1086 C1087 1.391 . S
C1087 H1075 0.950 . S
C1087 C1083 1.393 . S
C1087 C1086 1.391 . S
H1088 C1096 0.950 . S
H1089 C1101 0.950 . S
H1090 C1098 0.950 . S
H1091 C1100 0.950 . S
H1092 C1102 0.950 . S
H1093 C1104 0.950 . S
H1094 C1106 0.950 . S
H1095 C1107 0.950 . S
C1096 H1088 0.950 . S
C1096 C1097 1.386 . S
C1096 C1098 1.391 . S
C1097 C1096 1.386 . S
C1097 C1101 1.393 . S
C1098 H1090 0.950 . S
C1098 C1096 1.391 . S
C1098 C1099 1.400 . S
C1099 C1098 1.400 . S
C1099 C1100 1.398 . S
C1099 C1105 1.491 . S
C1100 H1091 0.950 . S
C1100 C1099 1.398 . S
C1100 C1101 1.391 . S
C1101 H1089 0.950 . S
C1101 C1097 1.393 . S
C1101 C1100 1.391 . S
C1102 H1092 0.950 . S
C1102 C1103 1.386 . S
C1102 C1104 1.391 1_455 S
C1103 C1102 1.386 . S
C1103 C1107 1.393 . S
C1104 H1093 0.950 . S
C1104 C1102 1.391 1_655 S
C1104 C1105 1.400 . S
C1105 C1099 1.491 . S
C1105 C1104 1.400 . S
C1105 C1106 1.398 1_655 S
C1106 H1094 0.950 . S
C1106 C1105 1.398 1_455 S
C1106 C1107 1.391 . S
C1107 H1095 0.950 . S
C1107 C1103 1.393 . S
C1107 C1106 1.391 . S
H1108 C1116 0.950 . S
H1109 C1121 0.950 . S
H1110 C1118 0.950 . S
H1111 C1120 0.950 . S
H1112 C1122 0.950 . S
H1113 C1124 0.950 . S
H1114 C1126 0.950 . S
H1115 C1127 0.950 . S
C1116 H1108 0.950 . S
C1116 C1117 1.386 . S
C1116 C1118 1.391 . S
C1117 C1116 1.386 . S
C1117 C1121 1.393 . S
C1118 H1110 0.950 . S
C1118 C1116 1.391 . S
C1118 C1119 1.400 . S
C1119 C1118 1.400 . S
C1119 C1120 1.398 . S
C1119 C1125 1.491 . S
C1120 H1111 0.950 . S
C1120 C1119 1.398 . S
C1120 C1121 1.391 . S
C1121 H1109 0.950 . S
C1121 C1117 1.393 . S
C1121 C1120 1.391 . S
C1122 H1112 0.950 . S
C1122 C1123 1.386 . S
C1122 C1124 1.391 . S
C1123 C1122 1.386 . S
C1123 C1127 1.393 . S
C1124 H1113 0.950 . S
C1124 C1122 1.391 . S
C1124 C1125 1.400 . S
C1125 C1119 1.491 . S
C1125 C1124 1.400 . S
C1125 C1126 1.398 . S
C1126 H1114 0.950 . S
C1126 C1125 1.398 . S
C1126 C1127 1.391 . S
C1127 H1115 0.950 . S
C1127 C1123 1.393 . S
C1127 C1126 1.391 . S
H1128 C1136 0.950 . S
H1129 C1141 0.950 . S
H1130 C1138 0.950 . S
H1131 C1140 0.950 . S
H1132 C1142 0.950 . S
H1133 C1144 0.950 . S
H1134 C1146 0.950 . S
H1135 C1147 0.950 . S
C1136 H1128 0.950 . S
C1136 C1137 1.386 . S
C1136 C1138 1.391 . S
C1137 C1136 1.386 . S
C1137 C1141 1.393 . S
C1138 H1130 0.950 . S
C1138 C1136 1.391 . S
C1138 C1139 1.400 . S
C1139 C1138 1.400 . S
C1139 C1140 1.398 . S
C1139 C1145 1.491 . S
C1140 H1131 0.950 . S
C1140 C1139 1.398 . S
C1140 C1141 1.391 . S
C1141 H1129 0.950 . S
C1141 C1137 1.393 . S
C1141 C1140 1.391 . S
C1142 H1132 0.950 . S
C1142 C1143 1.386 . S
C1142 C1144 1.391 1_655 S
C1143 C1142 1.386 . S
C1143 C1147 1.393 . S
C1144 H1133 0.950 . S
C1144 C1142 1.391 1_455 S
C1144 C1145 1.400 . S
C1145 C1139 1.491 . S
C1145 C1144 1.400 . S
C1145 C1146 1.398 1_455 S
C1146 H1134 0.950 . S
C1146 C1145 1.398 1_655 S
C1146 C1147 1.391 . S
C1147 H1135 0.950 . S
C1147 C1143 1.393 . S
C1147 C1146 1.391 . S
H1148 C1156 0.950 . S
H1149 C1161 0.950 . S
H1150 C1158 0.950 . S
H1151 C1160 0.950 . S
H1152 C1162 0.950 . S
H1153 C1164 0.950 . S
H1154 C1166 0.950 . S
H1155 C1167 0.950 . S
C1156 H1148 0.950 . S
C1156 C1157 1.386 . S
C1156 C1158 1.391 . S
C1157 C1156 1.386 . S
C1157 C1161 1.393 . S
C1158 H1150 0.950 . S
C1158 C1156 1.391 . S
C1158 C1159 1.400 . S
C1159 C1158 1.400 . S
C1159 C1160 1.398 . S
C1159 C1165 1.491 . S
C1160 H1151 0.950 . S
C1160 C1159 1.398 . S
C1160 C1161 1.391 . S
C1161 H1149 0.950 . S
C1161 C1157 1.393 . S
C1161 C1160 1.391 . S
C1162 H1152 0.950 . S
C1162 C1163 1.386 . S
C1162 C1164 1.391 . S
C1163 C1162 1.386 . S
C1163 C1167 1.393 . S
C1164 H1153 0.950 . S
C1164 C1162 1.391 . S
C1164 C1165 1.400 . S
C1165 C1159 1.491 . S
C1165 C1164 1.400 . S
C1165 C1166 1.398 . S
C1166 H1154 0.950 . S
C1166 C1165 1.398 . S
C1166 C1167 1.391 . S
C1167 H1155 0.950 . S
C1167 C1163 1.393 . S
C1167 C1166 1.391 . S
H1168 C1176 0.950 . S
H1169 C1181 0.950 . S
H1170 C1178 0.950 . S
H1171 C1180 0.950 . S
H1172 C1182 0.950 . S
H1173 C1184 0.950 . S
H1174 C1186 0.950 . S
H1175 C1187 0.950 . S
C1176 H1168 0.950 . S
C1176 C1177 1.386 . S
C1176 C1178 1.391 . S
C1177 C1176 1.386 . S
C1177 C1181 1.393 . S
C1178 H1170 0.950 . S
C1178 C1176 1.391 . S
C1178 C1179 1.400 . S
C1179 C1178 1.400 . S
C1179 C1180 1.398 . S
C1179 C1185 1.491 . S
C1180 H1171 0.950 . S
C1180 C1179 1.398 . S
C1180 C1181 1.391 . S
C1181 H1169 0.950 . S
C1181 C1177 1.393 . S
C1181 C1180 1.391 . S
C1182 H1172 0.950 . S
C1182 C1183 1.386 . S
C1182 C1184 1.391 . S
C1183 C1182 1.386 . S
C1183 C1187 1.393 . S
C1184 H1173 0.950 . S
C1184 C1182 1.391 . S
C1184 C1185 1.400 . S
C1185 C1179 1.491 . S
C1185 C1184 1.400 . S
C1185 C1186 1.398 . S
C1186 H1174 0.950 . S
C1186 C1185 1.398 . S
C1186 C1187 1.391 . S
C1187 H1175 0.950 . S
C1187 C1183 1.393 . S
C1187 C1186 1.391 . S
H1188 C1196 0.950 . S
H1189 C1201 0.950 . S
H1190 C1198 0.950 . S
H1191 C1200 0.950 . S
H1192 C1202 0.950 . S
H1193 C1204 0.950 . S
H1194 C1206 0.950 . S
H1195 C1207 0.950 . S
C1196 H1188 0.950 . S
C1196 C1197 1.386 . S
C1196 C1198 1.391 . S
C1197 C1196 1.386 . S
C1197 C1201 1.393 . S
C1198 H1190 0.950 . S
C1198 C1196 1.391 . S
C1198 C1199 1.400 . S
C1199 C1198 1.400 . S
C1199 C1200 1.398 . S
C1199 C1205 1.491 . S
C1200 H1191 0.950 . S
C1200 C1199 1.398 . S
C1200 C1201 1.391 . S
C1201 H1189 0.950 . S
C1201 C1197 1.393 . S
C1201 C1200 1.391 . S
C1202 H1192 0.950 . S
C1202 C1203 1.386 . S
C1202 C1204 1.391 . S
C1203 C1202 1.386 . S
C1203 C1207 1.393 . S
C1204 H1193 0.950 . S
C1204 C1202 1.391 . S
C1204 C1205 1.400 . S
C1205 C1199 1.491 . S
C1205 C1204 1.400 . S
C1205 C1206 1.398 . S
C1206 H1194 0.950 . S
C1206 C1205 1.398 . S
C1206 C1207 1.391 . S
C1207 H1195 0.950 . S
C1207 C1203 1.393 . S
C1207 C1206 1.391 . S
H1208 C1216 0.950 . S
H1209 C1221 0.950 . S
H1210 C1218 0.950 . S
H1211 C1220 0.950 . S
H1212 C1222 0.950 . S
H1213 C1224 0.950 . S
H1214 C1226 0.950 . S
H1215 C1227 0.950 . S
C1216 H1208 0.950 . S
C1216 C1217 1.386 . S
C1216 C1218 1.391 . S
C1217 C1216 1.386 . S
C1217 C1221 1.393 . S
C1218 H1210 0.950 . S
C1218 C1216 1.391 . S
C1218 C1219 1.400 . S
C1219 C1218 1.400 . S
C1219 C1220 1.398 . S
C1219 C1225 1.491 . S
C1220 H1211 0.950 . S
C1220 C1219 1.398 . S
C1220 C1221 1.391 . S
C1221 H1209 0.950 . S
C1221 C1217 1.393 . S
C1221 C1220 1.391 . S
C1222 H1212 0.950 . S
C1222 C1223 1.386 . S
C1222 C1224 1.391 . S
C1223 C1222 1.386 . S
C1223 C1227 1.393 . S
C1224 H1213 0.950 . S
C1224 C1222 1.391 . S
C1224 C1225 1.400 . S
C1225 C1219 1.491 . S
C1225 C1224 1.400 . S
C1225 C1226 1.398 . S
C1226 H1214 0.950 . S
C1226 C1225 1.398 . S
C1226 C1227 1.391 . S
C1227 H1215 0.950 . S
C1227 C1223 1.393 . S
C1227 C1226 1.391 . S
H1228 C1236 0.950 . S
H1229 C1241 0.950 . S
H1230 C1238 0.950 . S
H1231 C1240 0.950 . S
H1232 C1242 0.950 . S
H1233 C1244 0.961 . S
H1234 C1246 0.950 . S
H1235 C1247 0.950 . S
C1236 H1228 0.950 . S
C1236 C1237 1.386 . S
C1236 C1238 1.391 . S
C1237 C1236 1.386 . S
C1237 C1241 1.393 . S
C1238 H1230 0.950 . S
C1238 C1236 1.391 . S
C1238 C1239 1.400 . S
C1239 C1238 1.400 . S
C1239 C1240 1.398 . S
C1239 C1245 1.491 . S
C1240 H1231 0.950 . S
C1240 C1239 1.398 . S
C1240 C1241 1.391 . S
C1241 H1229 0.950 . S
C1241 C1237 1.393 . S
C1241 C1240 1.391 . S
C1242 H1232 0.950 . S
C1242 C1243 1.386 . S
C1242 C1244 1.379 1_554 S
C1243 C1242 1.386 . S
C1243 C1247 1.393 . S
C1244 H1233 0.961 . S
C1244 C1242 1.379 1_556 S
C1244 C1245 1.402 . S
C1245 C1239 1.491 . S
C1245 C1244 1.402 . S
C1245 C1246 1.398 1_556 S
C1246 H1234 0.950 . S
C1246 C1245 1.398 1_554 S
C1246 C1247 1.391 . S
C1247 H1235 0.950 . S
C1247 C1243 1.393 . S
C1247 C1246 1.391 . S
H1248 C1256 0.950 . S
H1249 C1261 0.950 . S
H1250 C1258 0.950 . S
H1251 C1260 0.950 . S
H1252 C1262 0.950 . S
H1253 C1264 0.950 . S
H1254 C1266 0.950 . S
H1255 C1267 0.950 . S
C1256 H1248 0.950 . S
C1256 C1257 1.386 . S
C1256 C1258 1.391 . S
C1257 C1256 1.386 . S
C1257 C1261 1.393 . S
C1258 H1250 0.950 . S
C1258 C1256 1.391 . S
C1258 C1259 1.400 . S
C1259 C1258 1.400 . S
C1259 C1260 1.398 . S
C1259 C1265 1.491 . S
C1260 H1251 0.950 . S
C1260 C1259 1.398 . S
C1260 C1261 1.391 . S
C1261 H1249 0.950 . S
C1261 C1257 1.393 . S
C1261 C1260 1.391 . S
C1262 H1252 0.950 . S
C1262 C1263 1.386 . S
C1262 C1264 1.391 . S
C1263 C1262 1.386 . S
C1263 C1267 1.393 . S
C1264 H1253 0.950 . S
C1264 C1262 1.391 . S
C1264 C1265 1.400 . S
C1265 C1259 1.491 . S
C1265 C1264 1.400 . S
C1265 C1266 1.398 . S
C1266 H1254 0.950 . S
C1266 C1265 1.398 . S
C1266 C1267 1.391 . S
C1267 H1255 0.950 . S
C1267 C1263 1.393 . S
C1267 C1266 1.391 . S
H1268 C1276 0.950 . S
H1269 C1281 0.950 . S
H1270 C1278 0.950 . S
H1271 C1280 0.950 . S
H1272 C1282 0.950 . S
H1273 C1284 0.950 . S
H1274 C1286 0.950 . S
H1275 C1287 0.950 . S
C1276 H1268 0.950 . S
C1276 C1277 1.386 . S
C1276 C1278 1.391 . S
C1277 C1276 1.386 . S
C1277 C1281 1.393 . S
C1278 H1270 0.950 . S
C1278 C1276 1.391 . S
C1278 C1279 1.400 . S
C1279 C1278 1.400 . S
C1279 C1280 1.398 . S
C1279 C1285 1.491 . S
C1280 H1271 0.950 . S
C1280 C1279 1.398 . S
C1280 C1281 1.391 . S
C1281 H1269 0.950 . S
C1281 C1277 1.393 . S
C1281 C1280 1.391 . S
C1282 H1272 0.950 . S
C1282 C1283 1.386 . S
C1282 C1284 1.391 . S
C1283 C1282 1.386 . S
C1283 C1287 1.393 . S
C1284 H1273 0.950 . S
C1284 C1282 1.391 . S
C1284 C1285 1.400 . S
C1285 C1279 1.491 . S
C1285 C1284 1.400 . S
C1285 C1286 1.398 . S
C1286 H1274 0.950 . S
C1286 C1285 1.398 . S
C1286 C1287 1.391 . S
C1287 H1275 0.950 . S
C1287 C1283 1.393 . S
C1287 C1286 1.391 . S
H1288 C1296 0.950 . S
H1289 C1301 0.950 . S
H1290 C1298 0.950 . S
H1291 C1300 0.950 . S
H1292 C1302 0.950 . S
H1293 C1304 0.950 . S
H1294 C1306 0.950 . S
H1295 C1307 0.950 . S
C1296 H1288 0.950 . S
C1296 C1297 1.386 . S
C1296 C1298 1.391 . S
C1297 C1296 1.386 . S
C1297 C1301 1.393 . S
C1298 H1290 0.950 . S
C1298 C1296 1.391 . S
C1298 C1299 1.400 . S
C1299 C1298 1.400 . S
C1299 C1300 1.398 . S
C1299 C1305 1.491 . S
C1300 H1291 0.950 . S
C1300 C1299 1.398 . S
C1300 C1301 1.391 . S
C1301 H1289 0.950 . S
C1301 C1297 1.393 . S
C1301 C1300 1.391 . S
C1302 H1292 0.950 . S
C1302 C1303 1.386 . S
C1302 C1304 1.391 . S
C1303 C1302 1.386 . S
C1303 C1307 1.393 . S
C1304 H1293 0.950 . S
C1304 C1302 1.391 . S
C1304 C1305 1.400 . S
C1305 C1299 1.491 . S
C1305 C1304 1.400 . S
C1305 C1306 1.398 . S
C1306 H1294 0.950 . S
C1306 C1305 1.398 . S
C1306 C1307 1.391 . S
C1307 H1295 0.950 . S
C1307 C1303 1.393 . S
C1307 C1306 1.391 . S
H1308 C1316 0.950 . S
H1309 C1321 0.950 1_455 S
H1310 C1318 0.950 . S
H1311 C1320 0.950 . S
H1312 C1322 0.950 . S
H1313 C1324 0.950 . S
H1314 C1326 0.950 . S
H1315 C1327 0.950 . S
C1316 H1308 0.950 . S
C1316 C1317 1.386 . S
C1316 C1318 1.391 . S
C1317 C1316 1.386 . S
C1317 C1321 1.393 . S
C1318 H1310 0.950 . S
C1318 C1316 1.391 . S
C1318 C1319 1.400 . S
C1319 C1318 1.400 . S
C1319 C1320 1.398 . S
C1319 C1325 1.491 . S
C1320 H1311 0.950 . S
C1320 C1319 1.398 . S
C1320 C1321 1.391 . S
C1321 H1309 0.950 1_655 S
C1321 C1317 1.393 . S
C1321 C1320 1.391 . S
C1322 H1312 0.950 . S
C1322 C1323 1.386 . S
C1322 C1324 1.391 . S
C1323 C1322 1.386 . S
C1323 C1327 1.393 . S
C1324 H1313 0.950 . S
C1324 C1322 1.391 . S
C1324 C1325 1.400 1_556 S
C1325 C1319 1.491 . S
C1325 C1324 1.400 1_554 S
C1325 C1326 1.398 . S
C1326 H1314 0.950 . S
C1326 C1325 1.398 . S
C1326 C1327 1.391 1_554 S
C1327 H1315 0.950 . S
C1327 C1323 1.393 . S
C1327 C1326 1.391 1_556 S
H1328 C1336 0.950 . S
H1329 C1341 0.950 . S
H1330 C1338 0.950 . S
H1331 C1340 0.950 . S
H1332 C1342 0.950 . S
H1333 C1344 0.950 . S
H1334 C1346 0.950 . S
H1335 C1347 0.950 . S
C1336 H1328 0.950 . S
C1336 C1337 1.386 . S
C1336 C1338 1.391 . S
C1337 C1336 1.386 . S
C1337 C1341 1.393 . S
C1338 H1330 0.950 . S
C1338 C1336 1.391 . S
C1338 C1339 1.400 . S
C1339 C1338 1.400 . S
C1339 C1340 1.398 . S
C1339 C1345 1.491 . S
C1340 H1331 0.950 . S
C1340 C1339 1.398 . S
C1340 C1341 1.391 . S
C1341 H1329 0.950 . S
C1341 C1337 1.393 . S
C1341 C1340 1.391 . S
C1342 H1332 0.950 . S
C1342 C1343 1.386 . S
C1342 C1344 1.391 . S
C1343 C1342 1.386 . S
C1343 C1347 1.393 . S
C1344 H1333 0.950 . S
C1344 C1342 1.391 . S
C1344 C1345 1.400 . S
C1345 C1339 1.491 . S
C1345 C1344 1.400 . S
C1345 C1346 1.398 . S
C1346 H1334 0.950 . S
C1346 C1345 1.398 . S
C1346 C1347 1.391 . S
C1347 H1335 0.950 . S
C1347 C1343 1.393 . S
C1347 C1346 1.391 . S
H1348 C1356 0.950 . S
H1349 C1361 0.950 . S
H1350 C1358 0.950 . S
H1351 C1360 0.950 . S
H1352 C1362 0.950 . S
H1353 C1364 0.950 1_565 S
H1354 C1366 0.950 . S
H1355 C1367 0.950 . S
C1356 H1348 0.950 . S
C1356 C1357 1.386 . S
C1356 C1358 1.391 . S
C1357 C1356 1.386 . S
C1357 C1361 1.393 . S
C1358 H1350 0.950 . S
C1358 C1356 1.391 . S
C1358 C1359 1.400 . S
C1359 C1358 1.400 . S
C1359 C1360 1.398 . S
C1359 C1365 1.491 . S
C1360 H1351 0.950 . S
C1360 C1359 1.398 . S
C1360 C1361 1.391 . S
C1361 H1349 0.950 . S
C1361 C1357 1.393 . S
C1361 C1360 1.391 . S
C1362 H1352 0.950 . S
C1362 C1363 1.386 . S
C1362 C1364 1.391 . S
C1363 C1362 1.386 . S
C1363 C1367 1.393 . S
C1364 H1353 0.950 1_545 S
C1364 C1362 1.391 . S
C1364 C1365 1.400 1_545 S
C1365 C1359 1.491 . S
C1365 C1364 1.400 1_565 S
C1365 C1366 1.398 1_565 S
C1366 H1354 0.950 . S
C1366 C1365 1.398 1_545 S
C1366 C1367 1.391 . S
C1367 H1355 0.950 . S
C1367 C1363 1.393 . S
C1367 C1366 1.391 . S
H1368 C1376 0.950 . S
H1369 C1381 0.950 . S
H1370 C1378 0.950 . S
H1371 C1380 0.950 . S
H1372 C1382 0.950 . S
H1373 C1384 0.950 . S
H1374 C1386 0.950 . S
H1375 C1387 0.950 . S
C1376 H1368 0.950 . S
C1376 C1377 1.386 . S
C1376 C1378 1.391 . S
C1377 C1376 1.386 . S
C1377 C1381 1.393 . S
C1378 H1370 0.950 . S
C1378 C1376 1.391 . S
C1378 C1379 1.400 . S
C1379 C1378 1.400 . S
C1379 C1380 1.398 . S
C1379 C1385 1.491 . S
C1380 H1371 0.950 . S
C1380 C1379 1.398 . S
C1380 C1381 1.391 . S
C1381 H1369 0.950 . S
C1381 C1377 1.393 . S
C1381 C1380 1.391 . S
C1382 H1372 0.950 . S
C1382 C1383 1.386 . S
C1382 C1384 1.391 . S
C1383 C1382 1.386 . S
C1383 C1387 1.393 . S
C1384 H1373 0.950 . S
C1384 C1382 1.391 . S
C1384 C1385 1.400 . S
C1385 C1379 1.491 . S
C1385 C1384 1.400 . S
C1385 C1386 1.398 . S
C1386 H1374 0.950 . S
C1386 C1385 1.398 . S
C1386 C1387 1.391 . S
C1387 H1375 0.950 . S
C1387 C1383 1.393 . S
C1387 C1386 1.391 . S
H1388 C1396 0.950 . S
H1389 C1401 0.950 . S
H1390 C1398 0.950 . S
H1391 C1400 0.950 . S
H1392 C1402 0.950 . S
H1393 C1404 0.950 1_545 S
H1394 C1406 0.950 1_545 S
H1395 C1407 0.950 . S
C1396 H1388 0.950 . S
C1396 C1397 1.386 . S
C1396 C1398 1.391 . S
C1397 C1396 1.386 . S
C1397 C1401 1.393 . S
C1398 H1390 0.950 . S
C1398 C1396 1.391 . S
C1398 C1399 1.400 . S
C1399 C1398 1.400 . S
C1399 C1400 1.398 . S
C1399 C1405 1.491 . S
C1400 H1391 0.950 . S
C1400 C1399 1.398 . S
C1400 C1401 1.391 . S
C1401 H1389 0.950 . S
C1401 C1397 1.393 . S
C1401 C1400 1.391 . S
C1402 H1392 0.950 . S
C1402 C1403 1.386 . S
C1402 C1404 1.391 . S
C1403 C1402 1.386 . S
C1403 C1407 1.393 . S
C1404 H1393 0.950 1_565 S
C1404 C1402 1.391 . S
C1404 C1405 1.400 1_565 S
C1405 C1399 1.491 . S
C1405 C1404 1.400 1_545 S
C1405 C1406 1.398 1_545 S
C1406 H1394 0.950 1_565 S
C1406 C1405 1.398 1_565 S
C1406 C1407 1.391 . S
C1407 H1395 0.950 . S
C1407 C1403 1.393 . S
C1407 C1406 1.391 . S
H1408 C1416 0.950 . S
H1409 C1421 0.950 . S
H1410 C1418 0.950 . S
H1411 C1420 0.950 . S
H1412 C1422 0.950 . S
H1413 C1424 0.950 . S
H1414 C1426 0.950 . S
H1415 C1427 0.950 . S
C1416 H1408 0.950 . S
C1416 C1417 1.386 . S
C1416 C1418 1.391 . S
C1417 C1416 1.386 . S
C1417 C1421 1.393 . S
C1418 H1410 0.950 . S
C1418 C1416 1.391 . S
C1418 C1419 1.400 . S
C1419 C1418 1.400 . S
C1419 C1420 1.398 . S
C1419 C1425 1.491 . S
C1420 H1411 0.950 . S
C1420 C1419 1.398 . S
C1420 C1421 1.391 . S
C1421 H1409 0.950 . S
C1421 C1417 1.393 . S
C1421 C1420 1.391 . S
C1422 H1412 0.950 . S
C1422 C1423 1.386 . S
C1422 C1424 1.391 . S
C1423 C1422 1.386 . S
C1423 C1427 1.393 . S
C1424 H1413 0.950 . S
C1424 C1422 1.391 . S
C1424 C1425 1.400 . S
C1425 C1419 1.491 . S
C1425 C1424 1.400 . S
C1425 C1426 1.398 . S
C1426 H1414 0.950 . S
C1426 C1425 1.398 . S
C1426 C1427 1.391 . S
C1427 H1415 0.950 . S
C1427 C1423 1.393 . S
C1427 C1426 1.391 . S
H1428 C1436 0.950 . S
H1429 C1441 0.950 . S
H1430 C1438 0.950 . S
H1431 C1440 0.950 . S
H1432 C1442 0.950 . S
H1433 C1444 0.950 . S
H1434 C1446 0.950 1_565 S
H1435 C1447 0.950 . S
C1436 H1428 0.950 . S
C1436 C1437 1.386 . S
C1436 C1438 1.391 . S
C1437 C1436 1.386 . S
C1437 C1441 1.393 . S
C1438 H1430 0.950 . S
C1438 C1436 1.391 . S
C1438 C1439 1.400 . S
C1439 C1438 1.400 . S
C1439 C1440 1.398 . S
C1439 C1445 1.491 1_565 S
C1440 H1431 0.950 . S
C1440 C1439 1.398 . S
C1440 C1441 1.391 . S
C1441 H1429 0.950 . S
C1441 C1437 1.393 . S
C1441 C1440 1.391 . S
C1442 H1432 0.950 . S
C1442 C1443 1.386 . S
C1442 C1444 1.391 . S
C1443 C1442 1.386 . S
C1443 C1447 1.393 . S
C1444 H1433 0.950 . S
C1444 C1442 1.391 . S
C1444 C1445 1.400 . S
C1445 C1439 1.491 1_545 S
C1445 C1444 1.400 . S
C1445 C1446 1.398 . S
C1446 H1434 0.950 1_545 S
C1446 C1445 1.398 . S
C1446 C1447 1.391 . S
C1447 H1435 0.950 . S
C1447 C1443 1.393 . S
C1447 C1446 1.391 . S
H1448 C1456 0.950 . S
H1449 C1461 0.950 . S
H1450 C1458 0.950 . S
H1451 C1460 0.950 . S
H1452 C1462 0.950 . S
H1453 C1464 0.950 . S
H1454 C1466 0.950 . S
H1455 C1467 0.950 . S
C1456 H1448 0.950 . S
C1456 C1457 1.386 . S
C1456 C1458 1.391 . S
C1457 C1456 1.386 . S
C1457 C1461 1.393 . S
C1458 H1450 0.950 . S
C1458 C1456 1.391 . S
C1458 C1459 1.400 . S
C1459 C1458 1.400 . S
C1459 C1460 1.398 . S
C1459 C1465 1.491 . S
C1460 H1451 0.950 . S
C1460 C1459 1.398 . S
C1460 C1461 1.391 . S
C1461 H1449 0.950 . S
C1461 C1457 1.393 . S
C1461 C1460 1.391 . S
C1462 H1452 0.950 . S
C1462 C1463 1.386 . S
C1462 C1464 1.391 . S
C1463 C1462 1.386 . S
C1463 C1467 1.393 . S
C1464 H1453 0.950 . S
C1464 C1462 1.391 . S
C1464 C1465 1.400 . S
C1465 C1459 1.491 . S
C1465 C1464 1.400 . S
C1465 C1466 1.398 . S
C1466 H1454 0.950 . S
C1466 C1465 1.398 . S
C1466 C1467 1.391 . S
C1467 H1455 0.950 . S
C1467 C1463 1.393 . S
C1467 C1466 1.391 . S
H1468 C1476 0.950 . S
H1469 C1481 0.950 . S
H1470 C1478 0.950 . S
H1471 C1480 0.950 . S
H1472 C1482 0.950 . S
H1473 C1484 0.950 . S
H1474 C1486 0.958 . S
H1475 C1487 0.950 . S
C1476 H1468 0.950 . S
C1476 C1477 1.386 . S
C1476 C1478 1.391 . S
C1477 C1476 1.386 . S
C1477 C1481 1.393 . S
C1478 H1470 0.950 . S
C1478 C1476 1.391 . S
C1478 C1479 1.400 . S
C1479 C1478 1.400 . S
C1479 C1480 1.398 . S
C1479 C1485 1.491 . S
C1480 H1471 0.950 . S
C1480 C1479 1.398 . S
C1480 C1481 1.391 . S
C1481 H1469 0.950 . S
C1481 C1477 1.393 . S
C1481 C1480 1.391 . S
C1482 H1472 0.950 . S
C1482 C1483 1.386 . S
C1482 C1484 1.391 . S
C1483 C1482 1.386 . S
C1483 C1487 1.393 . S
C1484 H1473 0.950 . S
C1484 C1482 1.391 . S
C1484 C1485 1.400 1_565 S
C1485 C1479 1.491 . S
C1485 C1484 1.400 1_545 S
C1485 C1486 1.400 . S
C1486 H1474 0.958 . S
C1486 C1485 1.400 . S
C1486 C1487 1.381 1_545 S
C1487 H1475 0.950 . S
C1487 C1483 1.393 . S
C1487 C1486 1.381 1_565 S
H1488 C1496 0.950 . S
H1489 C1501 0.950 . S
H1490 C1498 0.950 . S
H1491 C1500 0.950 . S
H1492 C1502 0.950 . S
H1493 C1504 0.950 . S
H1494 C1506 0.950 . S
H1495 C1507 0.950 . S
C1496 H1488 0.950 . S
C1496 C1497 1.386 . S
C1496 C1498 1.391 . S
C1497 C1496 1.386 . S
C1497 C1501 1.393 . S
C1498 H1490 0.950 . S
C1498 C1496 1.391 . S
C1498 C1499 1.400 . S
C1499 C1498 1.400 . S
C1499 C1500 1.398 . S
C1499 C1505 1.491 . S
C1500 H1491 0.950 . S
C1500 C1499 1.398 . S
C1500 C1501 1.391 . S
C1501 H1489 0.950 . S
C1501 C1497 1.393 . S
C1501 C1500 1.391 . S
C1502 H1492 0.950 . S
C1502 C1503 1.386 . S
C1502 C1504 1.391 . S
C1503 C1502 1.386 . S
C1503 C1507 1.393 . S
C1504 H1493 0.950 . S
C1504 C1502 1.391 . S
C1504 C1505 1.400 . S
C1505 C1499 1.491 . S
C1505 C1504 1.400 . S
C1505 C1506 1.398 . S
C1506 H1494 0.950 . S
C1506 C1505 1.398 . S
C1506 C1507 1.391 . S
C1507 H1495 0.950 . S
C1507 C1503 1.393 . S
C1507 C1506 1.391 . S
H1508 C1516 0.950 . S
H1509 C1521 0.950 . S
H1510 C1518 0.950 . S
H1511 C1520 0.950 . S
H1512 C1522 0.950 . S
H1513 C1524 0.950 . S
H1514 C1526 0.950 . S
H1515 C1527 0.950 . S
C1516 H1508 0.950 . S
C1516 C1517 1.386 . S
C1516 C1518 1.391 . S
C1517 C1516 1.386 . S
C1517 C1521 1.393 . S
C1518 H1510 0.950 . S
C1518 C1516 1.391 . S
C1518 C1519 1.400 . S
C1519 C1518 1.400 . S
C1519 C1520 1.398 . S
C1519 C1525 1.491 . S
C1520 H1511 0.950 . S
C1520 C1519 1.398 . S
C1520 C1521 1.391 . S
C1521 H1509 0.950 . S
C1521 C1517 1.393 . S
C1521 C1520 1.391 . S
C1522 H1512 0.950 . S
C1522 C1523 1.386 . S
C1522 C1524 1.391 . S
C1523 C1522 1.386 . S
C1523 C1527 1.393 . S
C1524 H1513 0.950 . S
C1524 C1522 1.391 . S
C1524 C1525 1.400 . S
C1525 C1519 1.491 . S
C1525 C1524 1.400 . S
C1525 C1526 1.398 . S
C1526 H1514 0.950 . S
C1526 C1525 1.398 . S
C1526 C1527 1.391 . S
C1527 H1515 0.950 . S
C1527 C1523 1.393 . S
C1527 C1526 1.391 . S
H1528 C1536 0.950 . S
H1529 C1541 0.950 . S
H1530 C1538 0.950 . S
H1531 C1540 0.950 . S
H1532 C1542 0.950 . S
H1533 C1544 0.950 . S
H1534 C1546 0.950 . S
H1535 C1547 0.950 . S
C1536 H1528 0.950 . S
C1536 C1537 1.386 . S
C1536 C1538 1.391 . S
C1537 C1536 1.386 . S
C1537 C1541 1.393 . S
C1538 H1530 0.950 . S
C1538 C1536 1.391 . S
C1538 C1539 1.400 . S
C1539 C1538 1.400 . S
C1539 C1540 1.398 . S
C1539 C1545 1.491 . S
C1540 H1531 0.950 . S
C1540 C1539 1.398 . S
C1540 C1541 1.391 . S
C1541 H1529 0.950 . S
C1541 C1537 1.393 . S
C1541 C1540 1.391 . S
C1542 H1532 0.950 . S
C1542 C1543 1.386 . S
C1542 C1544 1.391 . S
C1543 C1542 1.386 . S
C1543 C1547 1.393 . S
C1544 H1533 0.950 . S
C1544 C1542 1.391 . S
C1544 C1545 1.400 1_455 S
C1545 C1539 1.491 . S
C1545 C1544 1.400 1_655 S
C1545 C1546 1.398 . S
C1546 H1534 0.950 . S
C1546 C1545 1.398 . S
C1546 C1547 1.391 1_655 S
C1547 H1535 0.950 . S
C1547 C1543 1.393 . S
C1547 C1546 1.391 1_455 S
H1548 C1556 0.950 . S
H1549 C1561 0.950 . S
H1550 C1558 0.950 . S
H1551 C1560 0.950 . S
H1552 C1562 0.950 . S
H1553 C1564 0.950 . S
H1554 C1566 0.950 . S
H1555 C1567 0.950 . S
C1556 H1548 0.950 . S
C1556 C1557 1.386 . S
C1556 C1558 1.391 . S
C1557 C1556 1.386 . S
C1557 C1561 1.393 . S
C1558 H1550 0.950 . S
C1558 C1556 1.391 . S
C1558 C1559 1.400 . S
C1559 C1558 1.400 . S
C1559 C1560 1.398 . S
C1559 C1565 1.491 . S
C1560 H1551 0.950 . S
C1560 C1559 1.398 . S
C1560 C1561 1.391 . S
C1561 H1549 0.950 . S
C1561 C1557 1.393 . S
C1561 C1560 1.391 . S
C1562 H1552 0.950 . S
C1562 C1563 1.386 . S
C1562 C1564 1.391 . S
C1563 C1562 1.386 . S
C1563 C1567 1.393 . S
C1564 H1553 0.950 . S
C1564 C1562 1.391 . S
C1564 C1565 1.400 . S
C1565 C1559 1.491 . S
C1565 C1564 1.400 . S
C1565 C1566 1.398 . S
C1566 H1554 0.950 . S
C1566 C1565 1.398 . S
C1566 C1567 1.391 . S
C1567 H1555 0.950 . S
C1567 C1563 1.393 . S
C1567 C1566 1.391 . S
H1568 C1576 0.950 . S
H1569 C1581 0.950 . S
H1570 C1578 0.950 . S
H1571 C1580 0.950 . S
H1572 C1582 0.950 . S
H1573 C1584 0.950 . S
H1574 C1586 0.950 . S
H1575 C1587 0.950 . S
C1576 H1568 0.950 . S
C1576 C1577 1.386 . S
C1576 C1578 1.391 . S
C1577 C1576 1.386 . S
C1577 C1581 1.393 . S
C1578 H1570 0.950 . S
C1578 C1576 1.391 . S
C1578 C1579 1.400 . S
C1579 C1578 1.400 . S
C1579 C1580 1.398 . S
C1579 C1585 1.491 . S
C1580 H1571 0.950 . S
C1580 C1579 1.398 . S
C1580 C1581 1.391 . S
C1581 H1569 0.950 . S
C1581 C1577 1.393 . S
C1581 C1580 1.391 . S
C1582 H1572 0.950 . S
C1582 C1583 1.386 . S
C1582 C1584 1.391 . S
C1583 C1582 1.386 . S
C1583 C1587 1.393 . S
C1584 H1573 0.950 . S
C1584 C1582 1.391 . S
C1584 C1585 1.400 1_655 S
C1585 C1579 1.491 . S
C1585 C1584 1.400 1_455 S
C1585 C1586 1.398 . S
C1586 H1574 0.950 . S
C1586 C1585 1.398 . S
C1586 C1587 1.391 1_455 S
C1587 H1575 0.950 . S
C1587 C1583 1.393 . S
C1587 C1586 1.391 1_655 S
H1588 C1596 0.950 . S
H1589 C1601 0.950 . S
H1590 C1598 0.950 . S
H1591 C1600 0.950 . S
H1592 C1602 0.950 . S
H1593 C1604 0.950 . S
H1594 C1606 0.950 . S
H1595 C1607 0.950 . S
C1596 H1588 0.950 . S
C1596 C1597 1.386 . S
C1596 C1598 1.391 . S
C1597 C1596 1.386 . S
C1597 C1601 1.393 . S
C1598 H1590 0.950 . S
C1598 C1596 1.391 . S
C1598 C1599 1.400 . S
C1599 C1598 1.400 . S
C1599 C1600 1.398 . S
C1599 C1605 1.491 . S
C1600 H1591 0.950 . S
C1600 C1599 1.398 . S
C1600 C1601 1.391 . S
C1601 H1589 0.950 . S
C1601 C1597 1.393 . S
C1601 C1600 1.391 . S
C1602 H1592 0.950 . S
C1602 C1603 1.386 . S
C1602 C1604 1.391 . S
C1603 C1602 1.386 . S
C1603 C1607 1.393 . S
C1604 H1593 0.950 . S
C1604 C1602 1.391 . S
C1604 C1605 1.400 . S
C1605 C1599 1.491 . S
C1605 C1604 1.400 . S
C1605 C1606 1.398 . S
C1606 H1594 0.950 . S
C1606 C1605 1.398 . S
C1606 C1607 1.391 . S
C1607 H1595 0.950 . S
C1607 C1603 1.393 . S
C1607 C1606 1.391 . S
H1608 C1616 0.950 . S
H1609 C1621 0.950 . S
H1610 C1618 0.950 . S
H1611 C1620 0.950 . S
H1612 C1622 0.950 . S
H1613 C1624 0.950 1_655 S
H1614 C1626 0.950 . S
H1615 C1627 0.950 . S
C1616 H1608 0.950 . S
C1616 C1617 1.386 . S
C1616 C1618 1.391 . S
C1617 C1616 1.386 . S
C1617 C1621 1.393 . S
C1618 H1610 0.950 . S
C1618 C1616 1.391 . S
C1618 C1619 1.400 . S
C1619 C1618 1.400 . S
C1619 C1620 1.398 . S
C1619 C1625 1.491 1_655 S
C1620 H1611 0.950 . S
C1620 C1619 1.398 . S
C1620 C1621 1.391 . S
C1621 H1609 0.950 . S
C1621 C1617 1.393 . S
C1621 C1620 1.391 . S
C1622 H1612 0.950 . S
C1622 C1623 1.386 . S
C1622 C1624 1.391 . S
C1623 C1622 1.386 . S
C1623 C1627 1.393 . S
C1624 H1613 0.950 1_455 S
C1624 C1622 1.391 . S
C1624 C1625 1.400 . S
C1625 C1619 1.491 1_455 S
C1625 C1624 1.400 . S
C1625 C1626 1.398 . S
C1626 H1614 0.950 . S
C1626 C1625 1.398 . S
C1626 C1627 1.391 . S
C1627 H1615 0.950 . S
C1627 C1623 1.393 . S
C1627 C1626 1.391 . S
H1628 C1636 0.950 . S
H1629 C1641 0.950 . S
H1630 C1638 0.950 . S
H1631 C1640 0.950 . S
H1632 C1642 0.950 . S
H1633 C1644 0.950 . S
H1634 C1646 0.950 . S
H1635 C1647 0.950 . S
C1636 H1628 0.950 . S
C1636 C1637 1.386 . S
C1636 C1638 1.391 . S
C1637 C1636 1.386 . S
C1637 C1641 1.393 . S
C1638 H1630 0.950 . S
C1638 C1636 1.391 . S
C1638 C1639 1.400 . S
C1639 C1638 1.400 . S
C1639 C1640 1.398 . S
C1639 C1645 1.491 . S
C1640 H1631 0.950 . S
C1640 C1639 1.398 . S
C1640 C1641 1.391 . S
C1641 H1629 0.950 . S
C1641 C1637 1.393 . S
C1641 C1640 1.391 . S
C1642 H1632 0.950 . S
C1642 C1643 1.386 . S
C1642 C1644 1.391 . S
C1643 C1642 1.386 . S
C1643 C1647 1.393 . S
C1644 H1633 0.950 . S
C1644 C1642 1.391 . S
C1644 C1645 1.400 . S
C1645 C1639 1.491 . S
C1645 C1644 1.400 . S
C1645 C1646 1.398 . S
C1646 H1634 0.950 . S
C1646 C1645 1.398 . S
C1646 C1647 1.391 . S
C1647 H1635 0.950 . S
C1647 C1643 1.393 . S
C1647 C1646 1.391 . S
H1648 C1656 0.950 . S
H1649 C1661 0.950 . S
H1650 C1658 0.950 . S
H1651 C1660 0.950 . S
H1652 C1662 0.950 . S
H1653 C1664 0.950 . S
H1654 C1666 0.950 . S
H1655 C1667 0.950 . S
C1656 H1648 0.950 . S
C1656 C1657 1.386 . S
C1656 C1658 1.391 . S
C1657 C1656 1.386 . S
C1657 C1661 1.393 . S
C1658 H1650 0.950 . S
C1658 C1656 1.391 . S
C1658 C1659 1.400 . S
C1659 C1658 1.400 . S
C1659 C1660 1.398 . S
C1659 C1665 1.491 . S
C1660 H1651 0.950 . S
C1660 C1659 1.398 . S
C1660 C1661 1.391 . S
C1661 H1649 0.950 . S
C1661 C1657 1.393 . S
C1661 C1660 1.391 . S
C1662 H1652 0.950 . S
C1662 C1663 1.386 . S
C1662 C1664 1.391 . S
C1663 C1662 1.386 . S
C1663 C1667 1.393 . S
C1664 H1653 0.950 . S
C1664 C1662 1.391 . S
C1664 C1665 1.400 . S
C1665 C1659 1.491 . S
C1665 C1664 1.400 . S
C1665 C1666 1.398 . S
C1666 H1654 0.950 . S
C1666 C1665 1.398 . S
C1666 C1667 1.391 . S
C1667 H1655 0.950 . S
C1667 C1663 1.393 . S
C1667 C1666 1.391 . S
H1668 C1676 0.950 . S
H1669 C1681 0.950 . S
H1670 C1678 0.950 . S
H1671 C1680 0.950 . S
H1672 C1682 0.950 . S
H1673 C1684 0.943 1_554 S
H1674 C1686 0.948 1_554 S
H1675 C1687 0.950 . S
C1676 H1668 0.950 . S
C1676 C1677 1.386 . S
C1676 C1678 1.391 . S
C1677 C1676 1.386 . S
C1677 C1681 1.393 . S
C1678 H1670 0.950 . S
C1678 C1676 1.391 . S
C1678 C1679 1.400 . S
C1679 C1678 1.400 . S
C1679 C1680 1.398 . S
C1679 C1685 1.491 . S
C1680 H1671 0.950 . S
C1680 C1679 1.398 . S
C1680 C1681 1.391 . S
C1681 H1669 0.950 . S
C1681 C1677 1.393 . S
C1681 C1680 1.391 . S
C1682 H1672 0.950 . S
C1682 C1683 1.386 . S
C1682 C1684 1.391 . S
C1683 C1682 1.386 . S
C1683 C1687 1.393 . S
C1684 H1673 0.943 1_556 S
C1684 C1682 1.391 . S
C1684 C1685 1.400 1_556 S
C1685 C1679 1.491 . S
C1685 C1684 1.400 1_554 S
C1685 C1686 1.398 1_554 S
C1686 H1674 0.948 1_556 S
C1686 C1685 1.398 1_556 S
C1686 C1687 1.391 . S
C1687 H1675 0.950 . S
C1687 C1683 1.393 . S
C1687 C1686 1.391 . S
H1688 C1696 0.950 . S
H1689 C1701 0.950 . S
H1690 C1698 0.950 . S
H1691 C1700 0.950 . S
H1692 C1702 0.950 . S
H1693 C1704 0.950 . S
H1694 C1706 0.950 . S
H1695 C1707 0.950 . S
C1696 H1688 0.950 . S
C1696 C1697 1.386 . S
C1696 C1698 1.391 . S
C1697 C1696 1.386 . S
C1697 C1701 1.393 . S
C1698 H1690 0.950 . S
C1698 C1696 1.391 . S
C1698 C1699 1.400 . S
C1699 C1698 1.400 . S
C1699 C1700 1.398 . S
C1699 C1705 1.491 . S
C1700 H1691 0.950 . S
C1700 C1699 1.398 . S
C1700 C1701 1.391 . S
C1701 H1689 0.950 . S
C1701 C1697 1.393 . S
C1701 C1700 1.391 . S
C1702 H1692 0.950 . S
C1702 C1703 1.386 . S
C1702 C1704 1.391 . S
C1703 C1702 1.386 . S
C1703 C1707 1.393 . S
C1704 H1693 0.950 . S
C1704 C1702 1.391 . S
C1704 C1705 1.400 . S
C1705 C1699 1.491 . S
C1705 C1704 1.400 . S
C1705 C1706 1.398 . S
C1706 H1694 0.950 . S
C1706 C1705 1.398 . S
C1706 C1707 1.391 . S
C1707 H1695 0.950 . S
C1707 C1703 1.393 . S
C1707 C1706 1.391 . S
H1708 C1716 0.950 . S
H1709 C1721 0.950 . S
H1710 C1718 0.950 . S
H1711 C1720 0.950 . S
H1712 C1722 0.950 . S
H1713 C1724 0.950 . S
H1714 C1726 0.950 . S
H1715 C1727 0.950 . S
C1716 H1708 0.950 . S
C1716 C1717 1.386 . S
C1716 C1718 1.391 . S
C1717 C1716 1.386 . S
C1717 C1721 1.393 . S
C1718 H1710 0.950 . S
C1718 C1716 1.391 . S
C1718 C1719 1.400 . S
C1719 C1718 1.400 . S
C1719 C1720 1.398 . S
C1719 C1725 1.491 . S
C1720 H1711 0.950 . S
C1720 C1719 1.398 . S
C1720 C1721 1.391 . S
C1721 H1709 0.950 . S
C1721 C1717 1.393 . S
C1721 C1720 1.391 . S
C1722 H1712 0.950 . S
C1722 C1723 1.386 . S
C1722 C1724 1.391 . S
C1723 C1722 1.386 . S
C1723 C1727 1.393 . S
C1724 H1713 0.950 . S
C1724 C1722 1.391 . S
C1724 C1725 1.400 . S
C1725 C1719 1.491 . S
C1725 C1724 1.400 . S
C1725 C1726 1.398 . S
C1726 H1714 0.950 . S
C1726 C1725 1.398 . S
C1726 C1727 1.391 . S
C1727 H1715 0.950 . S
C1727 C1723 1.393 . S
C1727 C1726 1.391 . S
H1728 C1736 0.950 . S
H1729 C1741 0.950 . S
H1730 C1738 0.950 . S
H1731 C1740 0.950 . S
H1732 C1742 0.950 . S
H1733 C1744 0.950 . S
H1734 C1746 0.950 . S
H1735 C1747 0.950 . S
C1736 H1728 0.950 . S
C1736 C1737 1.386 . S
C1736 C1738 1.391 . S
C1737 C1736 1.386 . S
C1737 C1741 1.393 . S
C1738 H1730 0.950 . S
C1738 C1736 1.391 . S
C1738 C1739 1.400 . S
C1739 C1738 1.400 . S
C1739 C1740 1.398 . S
C1739 C1745 1.491 . S
C1740 H1731 0.950 . S
C1740 C1739 1.398 . S
C1740 C1741 1.391 . S
C1741 H1729 0.950 . S
C1741 C1737 1.393 . S
C1741 C1740 1.391 . S
C1742 H1732 0.950 . S
C1742 C1743 1.386 . S
C1742 C1744 1.391 . S
C1743 C1742 1.386 . S
C1743 C1747 1.393 . S
C1744 H1733 0.950 . S
C1744 C1742 1.391 . S
C1744 C1745 1.400 . S
C1745 C1739 1.491 . S
C1745 C1744 1.400 . S
C1745 C1746 1.398 . S
C1746 H1734 0.950 . S
C1746 C1745 1.398 . S
C1746 C1747 1.391 . S
C1747 H1735 0.950 . S
C1747 C1743 1.393 . S
C1747 C1746 1.391 . S
H1748 C1756 0.950 . S
H1749 C1761 0.950 . S
H1750 C1758 0.950 . S
H1751 C1760 0.950 . S
H1752 C1762 0.950 . S
H1753 C1764 0.950 . S
H1754 C1766 0.950 . S
H1755 C1767 0.950 . S
C1756 H1748 0.950 . S
C1756 C1757 1.386 . S
C1756 C1758 1.391 . S
C1757 C1756 1.386 . S
C1757 C1761 1.393 . S
C1758 H1750 0.950 . S
C1758 C1756 1.391 . S
C1758 C1759 1.400 . S
C1759 C1758 1.400 . S
C1759 C1760 1.398 . S
C1759 C1765 1.489 1_556 S
C1760 H1751 0.950 . S
C1760 C1759 1.398 . S
C1760 C1761 1.391 . S
C1761 H1749 0.950 . S
C1761 C1757 1.393 . S
C1761 C1760 1.391 . S
C1762 H1752 0.950 . S
C1762 C1763 1.386 . S
C1762 C1764 1.391 1_554 S
C1763 C1762 1.386 . S
C1763 C1767 1.393 . S
C1764 H1753 0.950 . S
C1764 C1762 1.391 1_556 S
C1764 C1765 1.400 1_556 S
C1765 C1759 1.489 1_554 S
C1765 C1764 1.400 1_554 S
C1765 C1766 1.400 . S
C1766 H1754 0.950 . S
C1766 C1765 1.400 . S
C1766 C1767 1.391 . S
C1767 H1755 0.950 . S
C1767 C1763 1.393 . S
C1767 C1766 1.391 . S
H1768 C1776 0.950 . S
H1769 C1781 0.950 . S
H1770 C1778 0.950 . S
H1771 C1780 0.950 . S
H1772 C1782 0.950 . S
H1773 C1784 0.950 . S
H1774 C1786 0.950 . S
H1775 C1787 0.950 . S
C1776 H1768 0.950 . S
C1776 C1777 1.386 . S
C1776 C1778 1.391 . S
C1777 C1776 1.386 . S
C1777 C1781 1.393 . S
C1778 H1770 0.950 . S
C1778 C1776 1.391 . S
C1778 C1779 1.400 . S
C1779 C1778 1.400 . S
C1779 C1780 1.398 . S
C1779 C1785 1.491 . S
C1780 H1771 0.950 . S
C1780 C1779 1.398 . S
C1780 C1781 1.391 . S
C1781 H1769 0.950 . S
C1781 C1777 1.393 . S
C1781 C1780 1.391 . S
C1782 H1772 0.950 . S
C1782 C1783 1.386 . S
C1782 C1784 1.391 . S
C1783 C1782 1.386 . S
C1783 C1787 1.393 . S
C1784 H1773 0.950 . S
C1784 C1782 1.391 . S
C1784 C1785 1.400 . S
C1785 C1779 1.491 . S
C1785 C1784 1.400 . S
C1785 C1786 1.398 . S
C1786 H1774 0.950 . S
C1786 C1785 1.398 . S
C1786 C1787 1.391 . S
C1787 H1775 0.950 . S
C1787 C1783 1.393 . S
C1787 C1786 1.391 . S
H1788 C1796 0.950 . S
H1789 C1801 0.950 . S
H1790 C1798 0.950 . S
H1791 C1800 0.950 . S
H1792 C1802 0.950 . S
H1793 C1804 0.950 . S
H1794 C1806 0.950 . S
H1795 C1807 0.950 . S
C1796 H1788 0.950 . S
C1796 C1797 1.386 . S
C1796 C1798 1.391 . S
C1797 C1796 1.386 . S
C1797 C1801 1.393 . S
C1798 H1790 0.950 . S
C1798 C1796 1.391 . S
C1798 C1799 1.400 . S
C1799 C1798 1.400 . S
C1799 C1800 1.398 . S
C1799 C1805 1.491 . S
C1800 H1791 0.950 . S
C1800 C1799 1.398 . S
C1800 C1801 1.391 . S
C1801 H1789 0.950 . S
C1801 C1797 1.393 . S
C1801 C1800 1.391 . S
C1802 H1792 0.950 . S
C1802 C1803 1.386 . S
C1802 C1804 1.391 . S
C1803 C1802 1.386 . S
C1803 C1807 1.393 . S
C1804 H1793 0.950 . S
C1804 C1802 1.391 . S
C1804 C1805 1.400 . S
C1805 C1799 1.491 . S
C1805 C1804 1.400 . S
C1805 C1806 1.398 . S
C1806 H1794 0.950 . S
C1806 C1805 1.398 . S
C1806 C1807 1.391 . S
C1807 H1795 0.950 . S
C1807 C1803 1.393 . S
C1807 C1806 1.391 . S
H1808 C1816 0.950 . S
H1809 C1821 0.950 . S
H1810 C1818 0.950 . S
H1811 C1820 0.950 . S
H1812 C1822 0.950 . S
H1813 C1824 0.950 . S
H1814 C1826 0.950 . S
H1815 C1827 0.950 . S
C1816 H1808 0.950 . S
C1816 C1817 1.386 . S
C1816 C1818 1.391 . S
C1817 C1816 1.386 . S
C1817 C1821 1.393 . S
C1818 H1810 0.950 . S
C1818 C1816 1.391 . S
C1818 C1819 1.400 . S
C1819 C1818 1.400 . S
C1819 C1820 1.398 . S
C1819 C1825 1.491 . S
C1820 H1811 0.950 . S
C1820 C1819 1.398 . S
C1820 C1821 1.391 . S
C1821 H1809 0.950 . S
C1821 C1817 1.393 . S
C1821 C1820 1.391 . S
C1822 H1812 0.950 . S
C1822 C1823 1.386 . S
C1822 C1824 1.391 . S
C1823 C1822 1.386 . S
C1823 C1827 1.393 . S
C1824 H1813 0.950 . S
C1824 C1822 1.391 . S
C1824 C1825 1.400 . S
C1825 C1819 1.491 . S
C1825 C1824 1.400 . S
C1825 C1826 1.398 . S
C1826 H1814 0.950 . S
C1826 C1825 1.398 . S
C1826 C1827 1.391 . S
C1827 H1815 0.950 . S
C1827 C1823 1.393 . S
C1827 C1826 1.391 . S
H1828 C1836 0.950 . S
H1829 C1841 0.950 . S
H1830 C1838 0.950 . S
H1831 C1840 0.950 . S
H1832 C1842 0.950 . S
H1833 C1844 0.950 . S
H1834 C1846 0.950 . S
H1835 C1847 0.950 . S
C1836 H1828 0.950 . S
C1836 C1837 1.386 . S
C1836 C1838 1.391 . S
C1837 C1836 1.386 . S
C1837 C1841 1.393 . S
C1838 H1830 0.950 . S
C1838 C1836 1.391 . S
C1838 C1839 1.400 . S
C1839 C1838 1.400 . S
C1839 C1840 1.398 . S
C1839 C1845 1.491 . S
C1840 H1831 0.950 . S
C1840 C1839 1.398 . S
C1840 C1841 1.391 . S
C1841 H1829 0.950 . S
C1841 C1837 1.393 . S
C1841 C1840 1.391 . S
C1842 H1832 0.950 . S
C1842 C1843 1.386 . S
C1842 C1844 1.391 . S
C1843 C1842 1.386 . S
C1843 C1847 1.393 . S
C1844 H1833 0.950 . S
C1844 C1842 1.391 . S
C1844 C1845 1.400 . S
C1845 C1839 1.491 . S
C1845 C1844 1.400 . S
C1845 C1846 1.398 . S
C1846 H1834 0.950 . S
C1846 C1845 1.398 . S
C1846 C1847 1.391 . S
C1847 H1835 0.950 . S
C1847 C1843 1.393 . S
C1847 C1846 1.391 . S
H1848 C1856 0.950 . S
H1849 C1861 0.950 . S
H1850 C1858 0.950 . S
H1851 C1860 0.950 . S
H1852 C1862 0.950 . S
H1853 C1864 0.950 . S
H1854 C1866 0.950 . S
H1855 C1867 0.950 . S
C1856 H1848 0.950 . S
C1856 C1857 1.386 . S
C1856 C1858 1.391 . S
C1857 C1856 1.386 . S
C1857 C1861 1.393 . S
C1858 H1850 0.950 . S
C1858 C1856 1.391 . S
C1858 C1859 1.400 . S
C1859 C1858 1.400 . S
C1859 C1860 1.398 . S
C1859 C1865 1.491 . S
C1860 H1851 0.950 . S
C1860 C1859 1.398 . S
C1860 C1861 1.391 . S
C1861 H1849 0.950 . S
C1861 C1857 1.393 . S
C1861 C1860 1.391 . S
C1862 H1852 0.950 . S
C1862 C1863 1.386 . S
C1862 C1864 1.391 . S
C1863 C1862 1.386 . S
C1863 C1867 1.393 . S
C1864 H1853 0.950 . S
C1864 C1862 1.391 . S
C1864 C1865 1.400 . S
C1865 C1859 1.491 . S
C1865 C1864 1.400 . S
C1865 C1866 1.398 . S
C1866 H1854 0.950 . S
C1866 C1865 1.398 . S
C1866 C1867 1.391 . S
C1867 H1855 0.950 . S
C1867 C1863 1.393 . S
C1867 C1866 1.391 . S
H1868 C1876 0.950 . S
H1869 C1881 0.950 . S
H1870 C1878 0.950 . S
H1871 C1880 0.950 . S
H1872 C1882 0.950 . S
H1873 C1884 0.950 . S
H1874 C1886 0.950 . S
H1875 C1887 0.950 . S
C1876 H1868 0.950 . S
C1876 C1877 1.386 . S
C1876 C1878 1.391 . S
C1877 C1876 1.386 . S
C1877 C1881 1.393 . S
C1878 H1870 0.950 . S
C1878 C1876 1.391 . S
C1878 C1879 1.400 . S
C1879 C1878 1.400 . S
C1879 C1880 1.398 . S
C1879 C1885 1.491 . S
C1880 H1871 0.950 . S
C1880 C1879 1.398 . S
C1880 C1881 1.391 . S
C1881 H1869 0.950 . S
C1881 C1877 1.393 . S
C1881 C1880 1.391 . S
C1882 H1872 0.950 . S
C1882 C1883 1.386 . S
C1882 C1884 1.391 . S
C1883 C1882 1.386 . S
C1883 C1887 1.393 . S
C1884 H1873 0.950 . S
C1884 C1882 1.391 . S
C1884 C1885 1.400 . S
C1885 C1879 1.491 . S
C1885 C1884 1.400 . S
C1885 C1886 1.398 . S
C1886 H1874 0.950 . S
C1886 C1885 1.398 . S
C1886 C1887 1.391 . S
C1887 H1875 0.950 . S
C1887 C1883 1.393 . S
C1887 C1886 1.391 . S
H1888 C1896 0.950 . S
H1889 C1901 0.950 . S
H1890 C1898 0.950 . S
H1891 C1900 0.950 . S
H1892 C1902 0.950 . S
H1893 C1904 0.950 . S
H1894 C1906 0.950 . S
H1895 C1907 0.950 . S
C1896 H1888 0.950 . S
C1896 C1897 1.386 . S
C1896 C1898 1.391 . S
C1897 C1896 1.386 . S
C1897 C1901 1.393 . S
C1898 H1890 0.950 . S
C1898 C1896 1.391 . S
C1898 C1899 1.400 . S
C1899 C1898 1.400 . S
C1899 C1900 1.398 . S
C1899 C1905 1.491 . S
C1900 H1891 0.950 . S
C1900 C1899 1.398 . S
C1900 C1901 1.391 . S
C1901 H1889 0.950 . S
C1901 C1897 1.393 . S
C1901 C1900 1.391 . S
C1902 H1892 0.950 . S
C1902 C1903 1.386 . S
C1902 C1904 1.391 . S
C1903 C1902 1.386 . S
C1903 C1907 1.393 . S
C1904 H1893 0.950 . S
C1904 C1902 1.391 . S
C1904 C1905 1.400 . S
C1905 C1899 1.491 . S
C1905 C1904 1.400 . S
C1905 C1906 1.398 . S
C1906 H1894 0.950 . S
C1906 C1905 1.398 . S
C1906 C1907 1.391 . S
C1907 H1895 0.950 . S
C1907 C1903 1.393 . S
C1907 C1906 1.391 . S
H1908 C1916 0.950 . S
H1909 C1921 0.950 . S
H1910 C1918 0.950 . S
H1911 C1920 0.950 . S
H1912 C1922 0.950 . S
H1913 C1924 0.950 . S
H1914 C1926 0.950 . S
H1915 C1927 0.950 . S
C1916 H1908 0.950 . S
C1916 C1917 1.386 . S
C1916 C1918 1.391 . S
C1917 C1916 1.386 . S
C1917 C1921 1.393 . S
C1918 H1910 0.950 . S
C1918 C1916 1.391 . S
C1918 C1919 1.400 . S
C1919 C1918 1.400 . S
C1919 C1920 1.398 . S
C1919 C1925 1.491 . S
C1920 H1911 0.950 . S
C1920 C1919 1.398 . S
C1920 C1921 1.391 . S
C1921 H1909 0.950 . S
C1921 C1917 1.393 . S
C1921 C1920 1.391 . S
C1922 H1912 0.950 . S
C1922 C1923 1.386 . S
C1922 C1924 1.391 . S
C1923 C1922 1.386 . S
C1923 C1927 1.393 . S
C1924 H1913 0.950 . S
C1924 C1922 1.391 . S
C1924 C1925 1.400 . S
C1925 C1919 1.491 . S
C1925 C1924 1.400 . S
C1925 C1926 1.398 . S
C1926 H1914 0.950 . S
C1926 C1925 1.398 . S
C1926 C1927 1.391 . S
C1927 H1915 0.950 . S
C1927 C1923 1.393 . S
C1927 C1926 1.391 . S
H1928 C1936 0.950 . S
H1929 C1941 0.950 . S
H1930 C1938 0.950 . S
H1931 C1940 0.950 . S
H1932 C1942 0.950 . S
H1933 C1944 0.950 . S
H1934 C1946 0.950 . S
H1935 C1947 0.950 . S
C1936 H1928 0.950 . S
C1936 C1937 1.386 . S
C1936 C1938 1.391 . S
C1937 C1936 1.386 . S
C1937 C1941 1.393 . S
C1938 H1930 0.950 . S
C1938 C1936 1.391 . S
C1938 C1939 1.400 . S
C1939 C1938 1.400 . S
C1939 C1940 1.398 . S
C1939 C1945 1.491 . S
C1940 H1931 0.950 . S
C1940 C1939 1.398 . S
C1940 C1941 1.391 . S
C1941 H1929 0.950 . S
C1941 C1937 1.393 . S
C1941 C1940 1.391 . S
C1942 H1932 0.950 . S
C1942 C1943 1.386 . S
C1942 C1944 1.391 . S
C1943 C1942 1.386 . S
C1943 C1947 1.393 . S
C1944 H1933 0.950 . S
C1944 C1942 1.391 . S
C1944 C1945 1.400 . S
C1945 C1939 1.491 . S
C1945 C1944 1.400 . S
C1945 C1946 1.398 . S
C1946 H1934 0.950 . S
C1946 C1945 1.398 . S
C1946 C1947 1.391 . S
C1947 H1935 0.950 . S
C1947 C1943 1.393 . S
C1947 C1946 1.391 . S
H1948 C1956 0.950 . S
H1949 C1961 0.950 . S
H1950 C1958 0.950 . S
H1951 C1960 0.950 . S
H1952 C1962 0.950 . S
H1953 C1964 0.950 . S
H1954 C1966 0.950 . S
H1955 C1967 0.950 . S
C1956 H1948 0.950 . S
C1956 C1957 1.386 . S
C1956 C1958 1.391 . S
C1957 C1956 1.386 . S
C1957 C1961 1.393 . S
C1958 H1950 0.950 . S
C1958 C1956 1.391 . S
C1958 C1959 1.400 . S
C1959 C1958 1.400 . S
C1959 C1960 1.398 . S
C1959 C1965 1.491 . S
C1960 H1951 0.950 . S
C1960 C1959 1.398 . S
C1960 C1961 1.391 . S
C1961 H1949 0.950 . S
C1961 C1957 1.393 . S
C1961 C1960 1.391 . S
C1962 H1952 0.950 . S
C1962 C1963 1.386 . S
C1962 C1964 1.391 . S
C1963 C1962 1.386 . S
C1963 C1967 1.393 . S
C1964 H1953 0.950 . S
C1964 C1962 1.391 . S
C1964 C1965 1.400 . S
C1965 C1959 1.491 . S
C1965 C1964 1.400 . S
C1965 C1966 1.398 . S
C1966 H1954 0.950 . S
C1966 C1965 1.398 . S
C1966 C1967 1.391 . S
C1967 H1955 0.950 . S
C1967 C1963 1.393 . S
C1967 C1966 1.391 . S
H1968 C1976 0.950 . S
H1969 C1981 0.950 . S
H1970 C1978 0.950 . S
H1971 C1980 0.950 . S
H1972 C1982 0.950 . S
H1973 C1984 0.950 . S
H1974 C1986 0.950 . S
H1975 C1987 0.950 . S
C1976 H1968 0.950 . S
C1976 C1977 1.386 . S
C1976 C1978 1.391 . S
C1977 C1976 1.386 . S
C1977 C1981 1.393 . S
C1978 H1970 0.950 . S
C1978 C1976 1.391 . S
C1978 C1979 1.400 . S
C1979 C1978 1.400 . S
C1979 C1980 1.398 . S
C1979 C1985 1.491 . S
C1980 H1971 0.950 . S
C1980 C1979 1.398 . S
C1980 C1981 1.391 . S
C1981 H1969 0.950 . S
C1981 C1977 1.393 . S
C1981 C1980 1.391 . S
C1982 H1972 0.950 . S
C1982 C1983 1.386 . S
C1982 C1984 1.391 . S
C1983 C1982 1.386 . S
C1983 C1987 1.393 . S
C1984 H1973 0.950 . S
C1984 C1982 1.391 . S
C1984 C1985 1.400 . S
C1985 C1979 1.491 . S
C1985 C1984 1.400 . S
C1985 C1986 1.398 . S
C1986 H1974 0.950 . S
C1986 C1985 1.398 . S
C1986 C1987 1.391 . S
C1987 H1975 0.950 . S
C1987 C1983 1.393 . S
C1987 C1986 1.391 . S
H1988 C1996 0.950 . S
H1989 C2001 0.950 . S
H1990 C1998 0.950 . S
H1991 C2000 0.950 . S
H1992 C2002 0.950 . S
H1993 C2004 0.950 . S
H1994 C2006 0.950 . S
H1995 C2007 0.950 . S
C1996 H1988 0.950 . S
C1996 C1997 1.386 . S
C1996 C1998 1.391 . S
C1997 C1996 1.386 . S
C1997 C2001 1.393 . S
C1998 H1990 0.950 . S
C1998 C1996 1.391 . S
C1998 C1999 1.400 . S
C1999 C1998 1.400 . S
C1999 C2000 1.398 . S
C1999 C2005 1.491 . S
C2000 H1991 0.950 . S
C2000 C1999 1.398 . S
C2000 C2001 1.391 . S
C2001 H1989 0.950 . S
C2001 C1997 1.393 . S
C2001 C2000 1.391 . S
C2002 H1992 0.950 . S
C2002 C2003 1.386 . S
C2002 C2004 1.391 . S
C2003 C2002 1.386 . S
C2003 C2007 1.393 . S
C2004 H1993 0.950 . S
C2004 C2002 1.391 . S
C2004 C2005 1.400 . S
C2005 C1999 1.491 . S
C2005 C2004 1.400 . S
C2005 C2006 1.398 . S
C2006 H1994 0.950 . S
C2006 C2005 1.398 . S
C2006 C2007 1.391 . S
C2007 H1995 0.950 . S
C2007 C2003 1.393 . S
C2007 C2006 1.391 . S
H2008 C2016 0.950 . S
H2009 C2021 0.950 . S
H2010 C2018 0.950 . S
H2011 C2020 0.950 . S
H2012 C2022 0.950 . S
H2013 C2024 0.950 . S
H2014 C2026 0.950 . S
H2015 C2027 0.950 . S
C2016 H2008 0.950 . S
C2016 C2017 1.386 . S
C2016 C2018 1.391 . S
C2017 C2016 1.386 . S
C2017 C2021 1.393 . S
C2018 H2010 0.950 . S
C2018 C2016 1.391 . S
C2018 C2019 1.400 . S
C2019 C2018 1.400 . S
C2019 C2020 1.398 . S
C2019 C2025 1.491 . S
C2020 H2011 0.950 . S
C2020 C2019 1.398 . S
C2020 C2021 1.391 . S
C2021 H2009 0.950 . S
C2021 C2017 1.393 . S
C2021 C2020 1.391 . S
C2022 H2012 0.950 . S
C2022 C2023 1.386 . S
C2022 C2024 1.391 . S
C2023 C2022 1.386 . S
C2023 C2027 1.393 . S
C2024 H2013 0.950 . S
C2024 C2022 1.391 . S
C2024 C2025 1.400 . S
C2025 C2019 1.491 . S
C2025 C2024 1.400 . S
C2025 C2026 1.398 . S
C2026 H2014 0.950 . S
C2026 C2025 1.398 . S
C2026 C2027 1.391 . S
C2027 H2015 0.950 . S
C2027 C2023 1.393 . S
C2027 C2026 1.391 . S
H2028 C2036 0.950 . S
H2029 C2041 0.950 . S
H2030 C2038 0.950 . S
H2031 C2040 0.950 . S
H2032 C2042 0.950 . S
H2033 C2044 0.950 . S
H2034 C2046 0.950 . S
H2035 C2047 0.950 . S
C2036 H2028 0.950 . S
C2036 C2037 1.386 . S
C2036 C2038 1.391 . S
C2037 C2036 1.386 . S
C2037 C2041 1.393 . S
C2038 H2030 0.950 . S
C2038 C2036 1.391 . S
C2038 C2039 1.400 . S
C2039 C2038 1.400 . S
C2039 C2040 1.398 . S
C2039 C2045 1.491 . S
C2040 H2031 0.950 . S
C2040 C2039 1.398 . S
C2040 C2041 1.391 . S
C2041 H2029 0.950 . S
C2041 C2037 1.393 . S
C2041 C2040 1.391 . S
C2042 H2032 0.950 . S
C2042 C2043 1.386 . S
C2042 C2044 1.391 . S
C2043 C2042 1.386 . S
C2043 C2047 1.393 . S
C2044 H2033 0.950 . S
C2044 C2042 1.391 . S
C2044 C2045 1.400 . S
C2045 C2039 1.491 . S
C2045 C2044 1.400 . S
C2045 C2046 1.398 . S
C2046 H2034 0.950 . S
C2046 C2045 1.398 . S
C2046 C2047 1.391 . S
C2047 H2035 0.950 . S
C2047 C2043 1.393 . S
C2047 C2046 1.391 . S
H2048 C2056 0.950 . S
H2049 C2061 0.950 . S
H2050 C2058 0.950 . S
H2051 C2060 0.950 . S
H2052 C2062 0.950 . S
H2053 C2064 0.950 . S
H2054 C2066 0.950 . S
H2055 C2067 0.950 . S
C2056 H2048 0.950 . S
C2056 C2057 1.386 . S
C2056 C2058 1.391 . S
C2057 C2056 1.386 . S
C2057 C2061 1.393 . S
C2058 H2050 0.950 . S
C2058 C2056 1.391 . S
C2058 C2059 1.400 . S
C2059 C2058 1.400 . S
C2059 C2060 1.398 . S
C2059 C2065 1.491 . S
C2060 H2051 0.950 . S
C2060 C2059 1.398 . S
C2060 C2061 1.391 . S
C2061 H2049 0.950 . S
C2061 C2057 1.393 . S
C2061 C2060 1.391 . S
C2062 H2052 0.950 . S
C2062 C2063 1.386 . S
C2062 C2064 1.391 . S
C2063 C2062 1.386 . S
C2063 C2067 1.393 . S
C2064 H2053 0.950 . S
C2064 C2062 1.391 . S
C2064 C2065 1.400 . S
C2065 C2059 1.491 . S
C2065 C2064 1.400 . S
C2065 C2066 1.398 . S
C2066 H2054 0.950 . S
C2066 C2065 1.398 . S
C2066 C2067 1.391 . S
C2067 H2055 0.950 . S
C2067 C2063 1.393 . S
C2067 C2066 1.391 . S
H2068 C2076 0.950 . S
H2069 C2081 0.950 . S
H2070 C2078 0.950 . S
H2071 C2080 0.950 . S
H2072 C2082 0.950 . S
H2073 C2084 0.950 . S
H2074 C2086 0.950 . S
H2075 C2087 0.950 . S
C2076 H2068 0.950 . S
C2076 C2077 1.386 . S
C2076 C2078 1.391 . S
C2077 C2076 1.386 . S
C2077 C2081 1.393 . S
C2078 H2070 0.950 . S
C2078 C2076 1.391 . S
C2078 C2079 1.400 . S
C2079 C2078 1.400 . S
C2079 C2080 1.398 . S
C2079 C2085 1.491 . S
C2080 H2071 0.950 . S
C2080 C2079 1.398 . S
C2080 C2081 1.391 . S
C2081 H2069 0.950 . S
C2081 C2077 1.393 . S
C2081 C2080 1.391 . S
C2082 H2072 0.950 . S
C2082 C2083 1.386 . S
C2082 C2084 1.391 . S
C2083 C2082 1.386 . S
C2083 C2087 1.393 . S
C2084 H2073 0.950 . S
C2084 C2082 1.391 . S
C2084 C2085 1.400 . S
C2085 C2079 1.491 . S
C2085 C2084 1.400 . S
C2085 C2086 1.398 . S
C2086 H2074 0.950 . S
C2086 C2085 1.398 . S
C2086 C2087 1.391 . S
C2087 H2075 0.950 . S
C2087 C2083 1.393 . S
C2087 C2086 1.391 . S
H2088 C2096 0.950 . S
H2089 C2101 0.950 . S
H2090 C2098 0.950 . S
H2091 C2100 0.950 . S
H2092 C2102 0.950 . S
H2093 C2104 0.950 . S
H2094 C2106 0.950 . S
H2095 C2107 0.950 . S
C2096 H2088 0.950 . S
C2096 C2097 1.386 . S
C2096 C2098 1.391 . S
C2097 C2096 1.386 . S
C2097 C2101 1.393 . S
C2098 H2090 0.950 . S
C2098 C2096 1.391 . S
C2098 C2099 1.400 . S
C2099 C2098 1.400 . S
C2099 C2100 1.398 . S
C2099 C2105 1.491 . S
C2100 H2091 0.950 . S
C2100 C2099 1.398 . S
C2100 C2101 1.391 . S
C2101 H2089 0.950 . S
C2101 C2097 1.393 . S
C2101 C2100 1.391 . S
C2102 H2092 0.950 . S
C2102 C2103 1.386 . S
C2102 C2104 1.391 . S
C2103 C2102 1.386 . S
C2103 C2107 1.393 . S
C2104 H2093 0.950 . S
C2104 C2102 1.391 . S
C2104 C2105 1.400 . S
C2105 C2099 1.491 . S
C2105 C2104 1.400 . S
C2105 C2106 1.398 . S
C2106 H2094 0.950 . S
C2106 C2105 1.398 . S
C2106 C2107 1.391 . S
C2107 H2095 0.950 . S
C2107 C2103 1.393 . S
C2107 C2106 1.391 . S
H2108 C2116 0.950 . S
H2109 C2121 0.950 . S
H2110 C2118 0.950 . S
H2111 C2120 0.950 . S
H2112 C2122 0.950 . S
H2113 C2124 0.950 . S
H2114 C2126 0.950 1_655 S
H2115 C2127 0.950 . S
C2116 H2108 0.950 . S
C2116 C2117 1.386 . S
C2116 C2118 1.391 . S
C2117 C2116 1.386 . S
C2117 C2121 1.393 . S
C2118 H2110 0.950 . S
C2118 C2116 1.391 . S
C2118 C2119 1.400 . S
C2119 C2118 1.400 . S
C2119 C2120 1.398 . S
C2119 C2125 1.485 1_655 S
C2120 H2111 0.950 . S
C2120 C2119 1.398 . S
C2120 C2121 1.391 . S
C2121 H2109 0.950 . S
C2121 C2117 1.393 . S
C2121 C2120 1.391 . S
C2122 H2112 0.950 . S
C2122 C2123 1.386 . S
C2122 C2124 1.391 . S
C2123 C2122 1.386 . S
C2123 C2127 1.393 . S
C2124 H2113 0.950 . S
C2124 C2122 1.391 . S
C2124 C2125 1.404 . S
C2125 C2119 1.485 1_455 S
C2125 C2124 1.404 . S
C2125 C2126 1.400 . S
C2126 H2114 0.950 1_455 S
C2126 C2125 1.400 . S
C2126 C2127 1.391 . S
C2127 H2115 0.950 . S
C2127 C2123 1.393 . S
C2127 C2126 1.391 . S
H2128 C2136 0.950 . S
H2129 C2141 0.950 . S
H2130 C2138 0.950 . S
H2131 C2140 0.950 . S
H2132 C2142 0.950 . S
H2133 C2144 0.950 . S
H2134 C2146 0.950 . S
H2135 C2147 0.950 . S
C2136 H2128 0.950 . S
C2136 C2137 1.386 . S
C2136 C2138 1.391 . S
C2137 C2136 1.386 . S
C2137 C2141 1.393 . S
C2138 H2130 0.950 . S
C2138 C2136 1.391 . S
C2138 C2139 1.400 . S
C2139 C2138 1.400 . S
C2139 C2140 1.398 . S
C2139 C2145 1.491 . S
C2140 H2131 0.950 . S
C2140 C2139 1.398 . S
C2140 C2141 1.391 . S
C2141 H2129 0.950 . S
C2141 C2137 1.393 . S
C2141 C2140 1.391 . S
C2142 H2132 0.950 . S
C2142 C2143 1.386 . S
C2142 C2144 1.391 . S
C2143 C2142 1.386 . S
C2143 C2147 1.393 . S
C2144 H2133 0.950 . S
C2144 C2142 1.391 . S
C2144 C2145 1.400 . S
C2145 C2139 1.491 . S
C2145 C2144 1.400 . S
C2145 C2146 1.398 . S
C2146 H2134 0.950 . S
C2146 C2145 1.398 . S
C2146 C2147 1.391 . S
C2147 H2135 0.950 . S
C2147 C2143 1.393 . S
C2147 C2146 1.391 . S
H2148 C2156 0.950 . S
H2149 C2161 0.950 . S
H2150 C2158 0.950 . S
H2151 C2160 0.950 . S
H2152 C2162 0.950 . S
H2153 C2164 0.946 . S
H2154 C2166 0.950 . S
H2155 C2167 0.950 . S
C2156 H2148 0.950 . S
C2156 C2157 1.386 . S
C2156 C2158 1.391 . S
C2157 C2156 1.386 . S
C2157 C2161 1.393 . S
C2158 H2150 0.950 . S
C2158 C2156 1.391 . S
C2158 C2159 1.400 . S
C2159 C2158 1.400 . S
C2159 C2160 1.398 . S
C2159 C2165 1.460 1_556 S
C2160 H2151 0.950 . S
C2160 C2159 1.398 . S
C2160 C2161 1.391 . S
C2161 H2149 0.950 . S
C2161 C2157 1.393 . S
C2161 C2160 1.391 . S
C2162 H2152 0.950 . S
C2162 C2163 1.386 . S
C2162 C2164 1.394 1_554 S
C2163 C2162 1.386 . S
C2163 C2167 1.393 . S
C2164 H2153 0.946 . S
C2164 C2162 1.394 1_556 S
C2164 C2165 1.400 1_556 S
C2165 C2159 1.460 1_554 S
C2165 C2164 1.400 1_554 S
C2165 C2166 1.431 . S
C2166 H2154 0.950 . S
C2166 C2165 1.431 . S
C2166 C2167 1.391 . S
C2167 H2155 0.950 . S
C2167 C2163 1.393 . S
C2167 C2166 1.391 . S
H2168 C2176 0.950 . S
H2169 C2181 0.950 . S
H2170 C2178 0.950 . S
H2171 C2180 0.950 . S
H2172 C2182 0.950 . S
H2173 C2184 0.950 . S
H2174 C2186 0.950 . S
H2175 C2187 0.950 . S
C2176 H2168 0.950 . S
C2176 C2177 1.386 . S
C2176 C2178 1.391 . S
C2177 C2176 1.386 . S
C2177 C2181 1.393 . S
C2178 H2170 0.950 . S
C2178 C2176 1.391 . S
C2178 C2179 1.400 . S
C2179 C2178 1.400 . S
C2179 C2180 1.398 . S
C2179 C2185 1.491 . S
C2180 H2171 0.950 . S
C2180 C2179 1.398 . S
C2180 C2181 1.391 . S
C2181 H2169 0.950 . S
C2181 C2177 1.393 . S
C2181 C2180 1.391 . S
C2182 H2172 0.950 . S
C2182 C2183 1.386 . S
C2182 C2184 1.391 . S
C2183 C2182 1.386 . S
C2183 C2187 1.393 . S
C2184 H2173 0.950 . S
C2184 C2182 1.391 . S
C2184 C2185 1.400 . S
C2185 C2179 1.491 . S
C2185 C2184 1.400 . S
C2185 C2186 1.398 . S
C2186 H2174 0.950 . S
C2186 C2185 1.398 . S
C2186 C2187 1.391 . S
C2187 H2175 0.950 . S
C2187 C2183 1.393 . S
C2187 C2186 1.391 . S
H2188 C2196 0.950 . S
H2189 C2201 0.950 . S
H2190 C2198 0.950 . S
H2191 C2200 0.950 . S
H2192 C2202 0.950 . S
H2193 C2204 0.950 . S
H2194 C2206 0.950 . S
H2195 C2207 0.950 . S
C2196 H2188 0.950 . S
C2196 C2197 1.386 . S
C2196 C2198 1.391 . S
C2197 C2196 1.386 . S
C2197 C2201 1.393 . S
C2198 H2190 0.950 . S
C2198 C2196 1.391 . S
C2198 C2199 1.400 . S
C2199 C2198 1.400 . S
C2199 C2200 1.398 . S
C2199 C2205 1.491 . S
C2200 H2191 0.950 . S
C2200 C2199 1.398 . S
C2200 C2201 1.391 . S
C2201 H2189 0.950 . S
C2201 C2197 1.393 . S
C2201 C2200 1.391 . S
C2202 H2192 0.950 . S
C2202 C2203 1.386 . S
C2202 C2204 1.391 . S
C2203 C2202 1.386 . S
C2203 C2207 1.393 . S
C2204 H2193 0.950 . S
C2204 C2202 1.391 . S
C2204 C2205 1.400 . S
C2205 C2199 1.491 . S
C2205 C2204 1.400 . S
C2205 C2206 1.398 . S
C2206 H2194 0.950 . S
C2206 C2205 1.398 . S
C2206 C2207 1.391 . S
C2207 H2195 0.950 . S
C2207 C2203 1.393 . S
C2207 C2206 1.391 . S
H2208 C2216 0.950 . S
H2209 C2221 0.950 . S
H2210 C2218 0.950 . S
H2211 C2220 0.950 . S
H2212 C2222 0.950 . S
H2213 C2224 0.950 . S
H2214 C2226 0.950 . S
H2215 C2227 0.950 . S
C2216 H2208 0.950 . S
C2216 C2217 1.386 . S
C2216 C2218 1.391 . S
C2217 C2216 1.386 . S
C2217 C2221 1.393 . S
C2218 H2210 0.950 . S
C2218 C2216 1.391 . S
C2218 C2219 1.400 . S
C2219 C2218 1.400 . S
C2219 C2220 1.398 . S
C2219 C2225 1.491 . S
C2220 H2211 0.950 . S
C2220 C2219 1.398 . S
C2220 C2221 1.391 . S
C2221 H2209 0.950 . S
C2221 C2217 1.393 . S
C2221 C2220 1.391 . S
C2222 H2212 0.950 . S
C2222 C2223 1.386 . S
C2222 C2224 1.391 . S
C2223 C2222 1.386 . S
C2223 C2227 1.393 . S
C2224 H2213 0.950 . S
C2224 C2222 1.391 . S
C2224 C2225 1.400 . S
C2225 C2219 1.491 . S
C2225 C2224 1.400 . S
C2225 C2226 1.398 . S
C2226 H2214 0.950 . S
C2226 C2225 1.398 . S
C2226 C2227 1.391 . S
C2227 H2215 0.950 . S
C2227 C2223 1.393 . S
C2227 C2226 1.391 . S
H2228 C2236 0.950 . S
H2229 C2241 0.950 . S
H2230 C2238 0.950 . S
H2231 C2240 0.950 . S
H2232 C2242 0.950 . S
H2233 C2244 0.950 1_554 S
H2234 C2246 0.950 . S
H2235 C2247 0.950 . S
C2236 H2228 0.950 . S
C2236 C2237 1.386 . S
C2236 C2238 1.391 . S
C2237 C2236 1.386 . S
C2237 C2241 1.393 . S
C2238 H2230 0.950 . S
C2238 C2236 1.391 . S
C2238 C2239 1.400 . S
C2239 C2238 1.400 . S
C2239 C2240 1.398 . S
C2239 C2245 1.491 . S
C2240 H2231 0.950 . S
C2240 C2239 1.398 . S
C2240 C2241 1.391 . S
C2241 H2229 0.950 . S
C2241 C2237 1.393 . S
C2241 C2240 1.391 . S
C2242 H2232 0.950 . S
C2242 C2243 1.386 . S
C2242 C2244 1.391 . S
C2243 C2242 1.386 . S
C2243 C2247 1.393 . S
C2244 H2233 0.950 1_556 S
C2244 C2242 1.391 . S
C2244 C2245 1.400 1_556 S
C2245 C2239 1.491 . S
C2245 C2244 1.400 1_554 S
C2245 C2246 1.398 1_554 S
C2246 H2234 0.950 . S
C2246 C2245 1.398 1_556 S
C2246 C2247 1.391 . S
C2247 H2235 0.950 . S
C2247 C2243 1.393 . S
C2247 C2246 1.391 . S
H2248 C2256 0.950 . S
H2249 C2261 0.950 . S
H2250 C2258 0.950 . S
H2251 C2260 0.950 . S
H2252 C2262 0.950 . S
H2253 C2264 0.950 . S
H2254 C2266 0.950 . S
H2255 C2267 0.950 . S
C2256 H2248 0.950 . S
C2256 C2257 1.386 . S
C2256 C2258 1.391 . S
C2257 C2256 1.386 . S
C2257 C2261 1.393 . S
C2258 H2250 0.950 . S
C2258 C2256 1.391 . S
C2258 C2259 1.400 . S
C2259 C2258 1.400 . S
C2259 C2260 1.398 . S
C2259 C2265 1.491 . S
C2260 H2251 0.950 . S
C2260 C2259 1.398 . S
C2260 C2261 1.391 . S
C2261 H2249 0.950 . S
C2261 C2257 1.393 . S
C2261 C2260 1.391 . S
C2262 H2252 0.950 . S
C2262 C2263 1.386 . S
C2262 C2264 1.391 . S
C2263 C2262 1.386 . S
C2263 C2267 1.393 . S
C2264 H2253 0.950 . S
C2264 C2262 1.391 . S
C2264 C2265 1.400 . S
C2265 C2259 1.491 . S
C2265 C2264 1.400 . S
C2265 C2266 1.398 . S
C2266 H2254 0.950 . S
C2266 C2265 1.398 . S
C2266 C2267 1.391 . S
C2267 H2255 0.950 . S
C2267 C2263 1.393 . S
C2267 C2266 1.391 . S
H2268 C2276 0.950 . S
H2269 C2281 0.950 . S
H2270 C2278 0.950 . S
H2271 C2280 0.950 . S
H2272 C2282 0.950 . S
H2273 C2284 0.950 . S
H2274 C2286 0.950 . S
H2275 C2287 0.950 . S
C2276 H2268 0.950 . S
C2276 C2277 1.386 . S
C2276 C2278 1.391 . S
C2277 C2276 1.386 . S
C2277 C2281 1.393 . S
C2278 H2270 0.950 . S
C2278 C2276 1.391 . S
C2278 C2279 1.400 . S
C2279 C2278 1.400 . S
C2279 C2280 1.398 . S
C2279 C2285 1.491 . S
C2280 H2271 0.950 . S
C2280 C2279 1.398 . S
C2280 C2281 1.391 . S
C2281 H2269 0.950 . S
C2281 C2277 1.393 . S
C2281 C2280 1.391 . S
C2282 H2272 0.950 . S
C2282 C2283 1.386 . S
C2282 C2284 1.391 . S
C2283 C2282 1.386 . S
C2283 C2287 1.393 . S
C2284 H2273 0.950 . S
C2284 C2282 1.391 . S
C2284 C2285 1.400 . S
C2285 C2279 1.491 . S
C2285 C2284 1.400 . S
C2285 C2286 1.398 . S
C2286 H2274 0.950 . S
C2286 C2285 1.398 . S
C2286 C2287 1.391 . S
C2287 H2275 0.950 . S
C2287 C2283 1.393 . S
C2287 C2286 1.391 . S
H2288 C2296 0.950 . S
H2289 C2301 0.950 . S
H2290 C2298 0.950 . S
H2291 C2300 0.950 . S
H2292 C2302 0.950 . S
H2293 C2304 0.950 . S
H2294 C2306 0.950 . S
H2295 C2307 0.950 . S
C2296 H2288 0.950 . S
C2296 C2297 1.386 . S
C2296 C2298 1.391 . S
C2297 C2296 1.386 . S
C2297 C2301 1.393 . S
C2298 H2290 0.950 . S
C2298 C2296 1.391 . S
C2298 C2299 1.400 . S
C2299 C2298 1.400 . S
C2299 C2300 1.398 . S
C2299 C2305 1.491 . S
C2300 H2291 0.950 . S
C2300 C2299 1.398 . S
C2300 C2301 1.391 . S
C2301 H2289 0.950 . S
C2301 C2297 1.393 . S
C2301 C2300 1.391 . S
C2302 H2292 0.950 . S
C2302 C2303 1.386 . S
C2302 C2304 1.391 . S
C2303 C2302 1.386 . S
C2303 C2307 1.393 . S
C2304 H2293 0.950 . S
C2304 C2302 1.391 . S
C2304 C2305 1.400 . S
C2305 C2299 1.491 . S
C2305 C2304 1.400 . S
C2305 C2306 1.398 . S
C2306 H2294 0.950 . S
C2306 C2305 1.398 . S
C2306 C2307 1.391 . S
C2307 H2295 0.950 . S
C2307 C2303 1.393 . S
C2307 C2306 1.391 . S
H2308 C2316 0.950 . S
H2309 C2321 0.950 . S
H2310 C2318 0.950 . S
H2311 C2320 0.950 . S
H2312 C2322 0.950 . S
H2313 C2324 0.950 . S
H2314 C2326 0.950 . S
H2315 C2327 0.950 . S
C2316 H2308 0.950 . S
C2316 C2317 1.386 . S
C2316 C2318 1.391 . S
C2317 C2316 1.386 . S
C2317 C2321 1.393 . S
C2318 H2310 0.950 . S
C2318 C2316 1.391 . S
C2318 C2319 1.400 . S
C2319 C2318 1.400 . S
C2319 C2320 1.398 . S
C2319 C2325 1.491 . S
C2320 H2311 0.950 . S
C2320 C2319 1.398 . S
C2320 C2321 1.391 . S
C2321 H2309 0.950 . S
C2321 C2317 1.393 . S
C2321 C2320 1.391 . S
C2322 H2312 0.950 . S
C2322 C2323 1.386 . S
C2322 C2324 1.391 . S
C2323 C2322 1.386 . S
C2323 C2327 1.393 . S
C2324 H2313 0.950 . S
C2324 C2322 1.391 . S
C2324 C2325 1.400 . S
C2325 C2319 1.491 . S
C2325 C2324 1.400 . S
C2325 C2326 1.398 . S
C2326 H2314 0.950 . S
C2326 C2325 1.398 . S
C2326 C2327 1.391 . S
C2327 H2315 0.950 . S
C2327 C2323 1.393 . S
C2327 C2326 1.391 . S
H2328 C2336 0.950 . S
H2329 C2341 0.950 . S
H2330 C2338 0.950 . S
H2331 C2340 0.950 . S
H2332 C2342 0.950 . S
H2333 C2344 0.950 . S
H2334 C2346 0.950 . S
H2335 C2347 0.950 . S
C2336 H2328 0.950 . S
C2336 C2337 1.386 . S
C2336 C2338 1.391 . S
C2337 C2336 1.386 . S
C2337 C2341 1.393 . S
C2338 H2330 0.950 . S
C2338 C2336 1.391 . S
C2338 C2339 1.400 . S
C2339 C2338 1.400 . S
C2339 C2340 1.398 . S
C2339 C2345 1.491 . S
C2340 H2331 0.950 . S
C2340 C2339 1.398 . S
C2340 C2341 1.391 . S
C2341 H2329 0.950 . S
C2341 C2337 1.393 . S
C2341 C2340 1.391 . S
C2342 H2332 0.950 . S
C2342 C2343 1.386 . S
C2342 C2344 1.391 . S
C2343 C2342 1.386 . S
C2343 C2347 1.393 . S
C2344 H2333 0.950 . S
C2344 C2342 1.391 . S
C2344 C2345 1.400 . S
C2345 C2339 1.491 . S
C2345 C2344 1.400 . S
C2345 C2346 1.398 . S
C2346 H2334 0.950 . S
C2346 C2345 1.398 . S
C2346 C2347 1.391 . S
C2347 H2335 0.950 . S
C2347 C2343 1.393 . S
C2347 C2346 1.391 . S
H2348 C2356 0.950 . S
H2349 C2361 0.950 . S
H2350 C2358 0.950 . S
H2351 C2360 0.950 . S
H2352 C2362 0.950 . S
H2353 C2364 0.950 . S
H2354 C2366 0.950 . S
H2355 C2367 0.950 . S
C2356 H2348 0.950 . S
C2356 C2357 1.386 . S
C2356 C2358 1.391 . S
C2357 C2356 1.386 . S
C2357 C2361 1.393 . S
C2358 H2350 0.950 . S
C2358 C2356 1.391 . S
C2358 C2359 1.400 . S
C2359 C2358 1.400 . S
C2359 C2360 1.398 . S
C2359 C2365 1.491 . S
C2360 H2351 0.950 . S
C2360 C2359 1.398 . S
C2360 C2361 1.391 . S
C2361 H2349 0.950 . S
C2361 C2357 1.393 . S
C2361 C2360 1.391 . S
C2362 H2352 0.950 . S
C2362 C2363 1.386 . S
C2362 C2364 1.391 . S
C2363 C2362 1.386 . S
C2363 C2367 1.393 . S
C2364 H2353 0.950 . S
C2364 C2362 1.391 . S
C2364 C2365 1.400 . S
C2365 C2359 1.491 . S
C2365 C2364 1.400 . S
C2365 C2366 1.398 . S
C2366 H2354 0.950 . S
C2366 C2365 1.398 . S
C2366 C2367 1.391 . S
C2367 H2355 0.950 . S
C2367 C2363 1.393 . S
C2367 C2366 1.391 . S
H2368 C2376 0.950 . S
H2369 C2381 0.950 . S
H2370 C2378 0.950 . S
H2371 C2380 0.950 . S
H2372 C2382 0.950 . S
H2373 C2384 0.950 . S
H2374 C2386 0.950 . S
H2375 C2387 0.950 . S
C2376 H2368 0.950 . S
C2376 C2377 1.386 . S
C2376 C2378 1.391 . S
C2377 C2376 1.386 . S
C2377 C2381 1.393 . S
C2378 H2370 0.950 . S
C2378 C2376 1.391 . S
C2378 C2379 1.400 . S
C2379 C2378 1.400 . S
C2379 C2380 1.398 . S
C2379 C2385 1.491 . S
C2380 H2371 0.950 . S
C2380 C2379 1.398 . S
C2380 C2381 1.391 . S
C2381 H2369 0.950 . S
C2381 C2377 1.393 . S
C2381 C2380 1.391 . S
C2382 H2372 0.950 . S
C2382 C2383 1.386 . S
C2382 C2384 1.391 . S
C2383 C2382 1.386 . S
C2383 C2387 1.393 . S
C2384 H2373 0.950 . S
C2384 C2382 1.391 . S
C2384 C2385 1.400 . S
C2385 C2379 1.491 . S
C2385 C2384 1.400 . S
C2385 C2386 1.398 . S
C2386 H2374 0.950 . S
C2386 C2385 1.398 . S
C2386 C2387 1.391 . S
C2387 H2375 0.950 . S
C2387 C2383 1.393 . S
C2387 C2386 1.391 . S
H2388 C2396 0.950 1_554 S
H2389 C2401 0.950 . S
H2390 C2398 0.950 . S
H2391 C2400 0.950 . S
H2392 C2402 0.950 . S
H2393 C2404 0.950 . S
H2394 C2406 0.950 . S
H2395 C2407 0.950 . S
C2396 H2388 0.950 1_556 S
C2396 C2397 1.386 . S
C2396 C2398 1.391 . S
C2397 C2396 1.386 . S
C2397 C2401 1.393 . S
C2398 H2390 0.950 . S
C2398 C2396 1.391 . S
C2398 C2399 1.400 . S
C2399 C2398 1.400 . S
C2399 C2400 1.398 . S
C2399 C2405 1.491 . S
C2400 H2391 0.950 . S
C2400 C2399 1.398 . S
C2400 C2401 1.391 . S
C2401 H2389 0.950 . S
C2401 C2397 1.393 . S
C2401 C2400 1.391 . S
C2402 H2392 0.950 . S
C2402 C2403 1.386 . S
C2402 C2404 1.391 . S
C2403 C2402 1.386 . S
C2403 C2407 1.393 . S
C2404 H2393 0.950 . S
C2404 C2402 1.391 . S
C2404 C2405 1.400 . S
C2405 C2399 1.491 . S
C2405 C2404 1.400 . S
C2405 C2406 1.398 . S
C2406 H2394 0.950 . S
C2406 C2405 1.398 . S
C2406 C2407 1.391 . S
C2407 H2395 0.950 . S
C2407 C2403 1.393 . S
C2407 C2406 1.391 . S
H2408 C2416 0.950 . S
H2409 C2421 0.950 . S
H2410 C2418 0.950 . S
H2411 C2420 0.950 . S
H2412 C2422 0.950 . S
H2413 C2424 0.950 . S
H2414 C2426 0.950 . S
H2415 C2427 0.950 . S
C2416 H2408 0.950 . S
C2416 C2417 1.386 . S
C2416 C2418 1.391 . S
C2417 C2416 1.386 . S
C2417 C2421 1.393 . S
C2418 H2410 0.950 . S
C2418 C2416 1.391 . S
C2418 C2419 1.400 . S
C2419 C2418 1.400 . S
C2419 C2420 1.398 . S
C2419 C2425 1.491 . S
C2420 H2411 0.950 . S
C2420 C2419 1.398 . S
C2420 C2421 1.391 . S
C2421 H2409 0.950 . S
C2421 C2417 1.393 . S
C2421 C2420 1.391 . S
C2422 H2412 0.950 . S
C2422 C2423 1.386 . S
C2422 C2424 1.391 . S
C2423 C2422 1.386 . S
C2423 C2427 1.393 . S
C2424 H2413 0.950 . S
C2424 C2422 1.391 . S
C2424 C2425 1.400 . S
C2425 C2419 1.491 . S
C2425 C2424 1.400 . S
C2425 C2426 1.398 . S
C2426 H2414 0.950 . S
C2426 C2425 1.398 . S
C2426 C2427 1.391 . S
C2427 H2415 0.950 . S
C2427 C2423 1.393 . S
C2427 C2426 1.391 . S
H2428 C2436 0.950 . S
H2429 C2441 0.950 . S
H2430 C2438 0.950 . S
H2431 C2440 0.950 . S
H2432 C2442 0.950 . S
H2433 C2444 0.950 . S
H2434 C2446 0.950 . S
H2435 C2447 0.950 . S
C2436 H2428 0.950 . S
C2436 C2437 1.386 . S
C2436 C2438 1.391 . S
C2437 C2436 1.386 . S
C2437 C2441 1.393 . S
C2438 H2430 0.950 . S
C2438 C2436 1.391 . S
C2438 C2439 1.400 . S
C2439 C2438 1.400 . S
C2439 C2440 1.398 . S
C2439 C2445 1.491 . S
C2440 H2431 0.950 . S
C2440 C2439 1.398 . S
C2440 C2441 1.391 . S
C2441 H2429 0.950 . S
C2441 C2437 1.393 . S
C2441 C2440 1.391 . S
C2442 H2432 0.950 . S
C2442 C2443 1.386 . S
C2442 C2444 1.391 . S
C2443 C2442 1.386 . S
C2443 C2447 1.393 . S
C2444 H2433 0.950 . S
C2444 C2442 1.391 . S
C2444 C2445 1.400 . S
C2445 C2439 1.491 . S
C2445 C2444 1.400 . S
C2445 C2446 1.398 . S
C2446 H2434 0.950 . S
C2446 C2445 1.398 . S
C2446 C2447 1.391 . S
C2447 H2435 0.950 . S
C2447 C2443 1.393 . S
C2447 C2446 1.391 . S
H2448 C2456 0.950 . S
H2449 C2461 0.950 . S
H2450 C2458 0.950 . S
H2451 C2460 0.950 . S
H2452 C2462 0.950 . S
H2453 C2464 0.950 . S
H2454 C2466 0.950 . S
H2455 C2467 0.950 . S
C2456 H2448 0.950 . S
C2456 C2457 1.386 . S
C2456 C2458 1.391 . S
C2457 C2456 1.386 . S
C2457 C2461 1.393 . S
C2458 H2450 0.950 . S
C2458 C2456 1.391 . S
C2458 C2459 1.400 . S
C2459 C2458 1.400 . S
C2459 C2460 1.398 . S
C2459 C2465 1.491 . S
C2460 H2451 0.950 . S
C2460 C2459 1.398 . S
C2460 C2461 1.391 . S
C2461 H2449 0.950 . S
C2461 C2457 1.393 . S
C2461 C2460 1.391 . S
C2462 H2452 0.950 . S
C2462 C2463 1.386 . S
C2462 C2464 1.391 . S
C2463 C2462 1.386 . S
C2463 C2467 1.393 . S
C2464 H2453 0.950 . S
C2464 C2462 1.391 . S
C2464 C2465 1.400 . S
C2465 C2459 1.491 . S
C2465 C2464 1.400 . S
C2465 C2466 1.398 . S
C2466 H2454 0.950 . S
C2466 C2465 1.398 . S
C2466 C2467 1.391 . S
C2467 H2455 0.950 . S
C2467 C2463 1.393 . S
C2467 C2466 1.391 . S
H2468 C2476 0.950 . S
H2469 C2481 0.950 . S
H2470 C2478 0.950 . S
H2471 C2480 0.950 . S
H2472 C2482 0.950 . S
H2473 C2484 0.950 . S
H2474 C2486 0.950 . S
H2475 C2487 0.950 . S
C2476 H2468 0.950 . S
C2476 C2477 1.386 . S
C2476 C2478 1.391 . S
C2477 C2476 1.386 . S
C2477 C2481 1.393 . S
C2478 H2470 0.950 . S
C2478 C2476 1.391 . S
C2478 C2479 1.400 . S
C2479 C2478 1.400 . S
C2479 C2480 1.398 . S
C2479 C2485 1.491 . S
C2480 H2471 0.950 . S
C2480 C2479 1.398 . S
C2480 C2481 1.391 . S
C2481 H2469 0.950 . S
C2481 C2477 1.393 . S
C2481 C2480 1.391 . S
C2482 H2472 0.950 . S
C2482 C2483 1.386 . S
C2482 C2484 1.391 . S
C2483 C2482 1.386 . S
C2483 C2487 1.393 . S
C2484 H2473 0.950 . S
C2484 C2482 1.391 . S
C2484 C2485 1.400 . S
C2485 C2479 1.491 . S
C2485 C2484 1.400 . S
C2485 C2486 1.398 . S
C2486 H2474 0.950 . S
C2486 C2485 1.398 . S
C2486 C2487 1.391 . S
C2487 H2475 0.950 . S
C2487 C2483 1.393 . S
C2487 C2486 1.391 . S
H2488 C2496 0.950 . S
H2489 C2501 0.950 . S
H2490 C2498 0.950 . S
H2491 C2500 0.950 . S
H2492 C2502 0.950 . S
H2493 C2504 0.950 . S
H2494 C2506 0.950 . S
H2495 C2507 0.950 . S
C2496 H2488 0.950 . S
C2496 C2497 1.386 . S
C2496 C2498 1.391 . S
C2497 C2496 1.386 . S
C2497 C2501 1.393 . S
C2498 H2490 0.950 . S
C2498 C2496 1.391 . S
C2498 C2499 1.400 . S
C2499 C2498 1.400 . S
C2499 C2500 1.398 . S
C2499 C2505 1.491 . S
C2500 H2491 0.950 . S
C2500 C2499 1.398 . S
C2500 C2501 1.391 . S
C2501 H2489 0.950 . S
C2501 C2497 1.393 . S
C2501 C2500 1.391 . S
C2502 H2492 0.950 . S
C2502 C2503 1.386 . S
C2502 C2504 1.391 . S
C2503 C2502 1.386 . S
C2503 C2507 1.393 . S
C2504 H2493 0.950 . S
C2504 C2502 1.391 . S
C2504 C2505 1.400 . S
C2505 C2499 1.491 . S
C2505 C2504 1.400 . S
C2505 C2506 1.398 . S
C2506 H2494 0.950 . S
C2506 C2505 1.398 . S
C2506 C2507 1.391 . S
C2507 H2495 0.950 . S
C2507 C2503 1.393 . S
C2507 C2506 1.391 . S
H2508 C2516 0.950 . S
H2509 C2521 0.950 . S
H2510 C2518 0.950 . S
H2511 C2520 0.950 . S
H2512 C2522 0.950 . S
H2513 C2524 0.950 . S
H2514 C2526 0.950 . S
H2515 C2527 0.950 . S
C2516 H2508 0.950 . S
C2516 C2517 1.386 . S
C2516 C2518 1.391 . S
C2517 C2516 1.386 . S
C2517 C2521 1.393 . S
C2518 H2510 0.950 . S
C2518 C2516 1.391 . S
C2518 C2519 1.400 . S
C2519 C2518 1.400 . S
C2519 C2520 1.398 . S
C2519 C2525 1.491 . S
C2520 H2511 0.950 . S
C2520 C2519 1.398 . S
C2520 C2521 1.391 . S
C2521 H2509 0.950 . S
C2521 C2517 1.393 . S
C2521 C2520 1.391 . S
C2522 H2512 0.950 . S
C2522 C2523 1.386 . S
C2522 C2524 1.391 . S
C2523 C2522 1.386 . S
C2523 C2527 1.393 . S
C2524 H2513 0.950 . S
C2524 C2522 1.391 . S
C2524 C2525 1.400 . S
C2525 C2519 1.491 . S
C2525 C2524 1.400 . S
C2525 C2526 1.398 . S
C2526 H2514 0.950 . S
C2526 C2525 1.398 . S
C2526 C2527 1.391 . S
C2527 H2515 0.950 . S
C2527 C2523 1.393 . S
C2527 C2526 1.391 . S
H2528 C2536 0.950 . S
H2529 C2541 0.950 . S
H2530 C2538 0.950 . S
H2531 C2540 0.950 . S
H2532 C2542 0.950 . S
H2533 C2544 0.950 . S
H2534 C2546 0.950 . S
H2535 C2547 0.950 . S
C2536 H2528 0.950 . S
C2536 C2537 1.386 . S
C2536 C2538 1.391 . S
C2537 C2536 1.386 . S
C2537 C2541 1.393 . S
C2538 H2530 0.950 . S
C2538 C2536 1.391 . S
C2538 C2539 1.400 . S
C2539 C2538 1.400 . S
C2539 C2540 1.398 . S
C2539 C2545 1.491 . S
C2540 H2531 0.950 . S
C2540 C2539 1.398 . S
C2540 C2541 1.391 . S
C2541 H2529 0.950 . S
C2541 C2537 1.393 . S
C2541 C2540 1.391 . S
C2542 H2532 0.950 . S
C2542 C2543 1.386 . S
C2542 C2544 1.391 . S
C2543 C2542 1.386 . S
C2543 C2547 1.393 . S
C2544 H2533 0.950 . S
C2544 C2542 1.391 . S
C2544 C2545 1.400 . S
C2545 C2539 1.491 . S
C2545 C2544 1.400 . S
C2545 C2546 1.398 . S
C2546 H2534 0.950 . S
C2546 C2545 1.398 . S
C2546 C2547 1.391 . S
C2547 H2535 0.950 . S
C2547 C2543 1.393 . S
C2547 C2546 1.391 . S
H2548 C2556 0.950 . S
H2549 C2561 0.950 . S
H2550 C2558 0.950 . S
H2551 C2560 0.950 . S
H2552 C2562 0.950 . S
H2553 C2564 0.950 . S
H2554 C2566 0.950 . S
H2555 C2567 0.950 . S
C2556 H2548 0.950 . S
C2556 C2557 1.386 . S
C2556 C2558 1.391 . S
C2557 C2556 1.386 . S
C2557 C2561 1.393 . S
C2558 H2550 0.950 . S
C2558 C2556 1.391 . S
C2558 C2559 1.400 . S
C2559 C2558 1.400 . S
C2559 C2560 1.398 . S
C2559 C2565 1.491 . S
C2560 H2551 0.950 . S
C2560 C2559 1.398 . S
C2560 C2561 1.391 . S
C2561 H2549 0.950 . S
C2561 C2557 1.393 . S
C2561 C2560 1.391 . S
C2562 H2552 0.950 . S
C2562 C2563 1.386 . S
C2562 C2564 1.391 . S
C2563 C2562 1.386 . S
C2563 C2567 1.393 . S
C2564 H2553 0.950 . S
C2564 C2562 1.391 . S
C2564 C2565 1.400 . S
C2565 C2559 1.491 . S
C2565 C2564 1.400 . S
C2565 C2566 1.398 . S
C2566 H2554 0.950 . S
C2566 C2565 1.398 . S
C2566 C2567 1.391 . S
C2567 H2555 0.950 . S
C2567 C2563 1.393 . S
C2567 C2566 1.391 . S
H2568 C2576 0.950 . S
H2569 C2581 0.950 . S
H2570 C2578 0.950 . S
H2571 C2580 0.950 . S
H2572 C2582 0.950 . S
H2573 C2584 0.950 . S
H2574 C2586 0.950 . S
H2575 C2587 0.950 . S
C2576 H2568 0.950 . S
C2576 C2577 1.386 . S
C2576 C2578 1.391 . S
C2577 C2576 1.386 . S
C2577 C2581 1.393 . S
C2578 H2570 0.950 . S
C2578 C2576 1.391 . S
C2578 C2579 1.400 . S
C2579 C2578 1.400 . S
C2579 C2580 1.398 . S
C2579 C2585 1.491 . S
C2580 H2571 0.950 . S
C2580 C2579 1.398 . S
C2580 C2581 1.391 . S
C2581 H2569 0.950 . S
C2581 C2577 1.393 . S
C2581 C2580 1.391 . S
C2582 H2572 0.950 . S
C2582 C2583 1.386 . S
C2582 C2584 1.391 . S
C2583 C2582 1.386 . S
C2583 C2587 1.393 . S
C2584 H2573 0.950 . S
C2584 C2582 1.391 . S
C2584 C2585 1.400 . S
C2585 C2579 1.491 . S
C2585 C2584 1.400 . S
C2585 C2586 1.398 . S
C2586 H2574 0.950 . S
C2586 C2585 1.398 . S
C2586 C2587 1.391 . S
C2587 H2575 0.950 . S
C2587 C2583 1.393 . S
C2587 C2586 1.391 . S
H2588 C2596 0.950 . S
H2589 C2601 0.950 . S
H2590 C2598 0.950 . S
H2591 C2600 0.950 . S
H2592 C2602 0.950 . S
H2593 C2604 0.950 . S
H2594 C2606 0.950 . S
H2595 C2607 0.950 . S
C2596 H2588 0.950 . S
C2596 C2597 1.386 . S
C2596 C2598 1.391 . S
C2597 C2596 1.386 . S
C2597 C2601 1.393 . S
C2598 H2590 0.950 . S
C2598 C2596 1.391 . S
C2598 C2599 1.400 . S
C2599 C2598 1.400 . S
C2599 C2600 1.398 . S
C2599 C2605 1.491 . S
C2600 H2591 0.950 . S
C2600 C2599 1.398 . S
C2600 C2601 1.391 . S
C2601 H2589 0.950 . S
C2601 C2597 1.393 . S
C2601 C2600 1.391 . S
C2602 H2592 0.950 . S
C2602 C2603 1.386 . S
C2602 C2604 1.391 1_655 S
C2603 C2602 1.386 . S
C2603 C2607 1.393 . S
C2604 H2593 0.950 . S
C2604 C2602 1.391 1_455 S
C2604 C2605 1.400 . S
C2605 C2599 1.491 . S
C2605 C2604 1.400 . S
C2605 C2606 1.398 1_455 S
C2606 H2594 0.950 . S
C2606 C2605 1.398 1_655 S
C2606 C2607 1.391 . S
C2607 H2595 0.950 . S
C2607 C2603 1.393 . S
C2607 C2606 1.391 . S
C703 C343 1.153 . S
C697 C7 1.218 . S
C717 C23 1.157 . S
C723 C363 1.113 . S
C743 C384 1.032 . S
C737 C36 1.090 . S
C763 C411 1.138 . S
C757 C45 1.182 . S
C783 C367 1.141 . S
C777 C59 1.180 . S
C797 C78 1.108 . S
C803 C387 1.076 . S
C823 C407 1.132 . S
C817 C93 1.176 . S
C837 C105 1.238 . S
C843 C340 1.191 . S
C857 C115 1.235 . S
C863 C345 1.161 . S
C883 C362 1.093 . S
C877 C133 1.152 . S
C903 C386 1.068 . S
C897 C148 1.135 . S
C923 C410 1.084 . S
C917 C163 1.123 . S
C943 C366 1.068 . S
C937 C121 1.131 . S
C963 C389 1.063 . S
C957 C134 1.128 . S
C977 C147 1.160 . S
C983 C406 1.110 . S
C1003 C342 1.160 . S
C997 C157 1.235 . S
C1017 C175 1.204 . S
C1023 C344 1.141 . S
C1037 C191 1.172 . S
C1043 C431 1.138 . S
C1063 C451 1.078 . S
C1057 C199 1.143 . S
C1083 C474 1.091 . S
C1077 C218 1.133 . S
C1097 C231 1.208 . S
C1103 C341 1.149 . S
C1117 C241 1.141 . S
C1123 C385 1.103 . S
C1143 C475 1.113 . S
C1137 C205 1.186 . S
C1163 C430 1.095 . S
C1157 C260 1.132 . S
C1183 C498 1.021 . S
C1177 C22 1.045 . S
C1203 C519 1.127 . S
C1197 C9 1.168 . S
C1217 C49 1.183 . S
C1223 C538 1.128 . S
C1237 C31 1.132 . S
C1243 C563 1.085 . S
C1257 C101 1.120 . S
C1263 C518 1.082 . S
C1277 C91 1.184 . S
C1283 C543 1.160 . S
C1303 C562 1.125 . S
C1297 C79 1.174 . S
C1317 C64 1.055 . S
C1323 C495 0.994 . S
C1337 C274 1.051 . S
C1343 C499 1.000 . S
C1363 C520 1.081 . S
C1357 C213 1.135 . S
C1383 C539 1.158 . S
C1377 C233 1.189 . S
C1403 C564 1.140 . S
C1397 C189 1.171 . S
C1423 C516 1.133 . S
C1417 C273 1.175 . S
C1443 C541 1.155 . S
C1437 C219 1.168 . S
C1463 C560 1.085 . S
C1457 C227 1.134 . S
C1477 C190 1.046 . S
C1483 C496 1.019 . S
C1503 C497 1.021 . S
C1497 C289 1.071 . S
C1517 C162 1.146 . S
C1523 C583 1.129 . S
C1543 C608 1.096 . S
C1537 C301 1.142 . S
C1557 C129 1.168 . S
C1563 C627 1.136 . S
C1583 C494 1.029 . S
C1577 C149 1.054 . S
C1603 C540 1.078 . S
C1597 C315 1.133 . S
C1623 C631 1.132 . S
C1617 C302 1.145 . S
C1637 C325 1.167 . S
C1643 C587 1.148 . S
C1657 C35 1.227 . S
C1663 C651 1.172 . S
C1677 C51 1.156 . S
C1683 C429 1.131 . S
C1703 C453 1.030 . S
C1697 C8 1.093 . S
C1717 C17 1.175 . S
C1723 C477 1.142 . S
C1737 C87 1.185 . S
C1743 C433 1.125 . S
C1757 C106 1.090 . S
C1763 C450 1.038 . S
C1783 C473 1.141 . S
C1777 C65 1.164 . S
C1803 C648 1.185 . S
C1797 C77 1.234 . S
C1823 C653 1.175 . S
C1817 C297 1.231 . S
C1843 C428 1.102 . S
C1837 C287 1.156 . S
C1863 C455 1.099 . S
C1857 C330 1.148 . S
C1877 C317 1.141 . S
C1883 C476 1.102 . S
C1903 C432 1.093 . S
C1897 C303 1.145 . S
C1917 C288 1.124 . S
C1923 C452 1.070 . S
C1943 C472 1.095 . S
C1937 C329 1.153 . S
C1957 C311 1.249 . S
C1963 C650 1.182 . S
C1983 C652 1.169 . S
C1977 C217 1.220 . S
C1997 C247 1.194 . S
C2003 C365 1.123 . S
C2023 C388 1.077 . S
C2017 C269 1.144 . S
C2037 C176 1.115 . S
C2043 C408 1.051 . S
C2063 C649 1.143 . S
C2057 C259 1.205 . S
C2083 C454 1.112 . S
C2077 C185 1.153 . S
C2103 C409 1.114 . S
C2097 C275 1.189 . S
C2123 C364 1.091 . S
C2117 C232 1.123 . S
C2137 C50 1.054 . S
C2143 C675 0.994 . S
C2157 C37 1.165 . S
C2163 C585 1.160 . S
C2177 C21 1.180 . S
C2183 C604 1.155 . S
C2203 C629 1.101 . S
C2197 C3 1.125 . S
C2223 C584 1.100 . S
C2217 C73 1.127 . S
C2237 C63 1.182 . S
C2243 C609 1.131 . S
C2263 C628 1.128 . S
C2257 C107 1.179 . S
C2277 C92 1.055 . S
C2283 C670 0.994 . S
C2303 C673 1.032 . S
C2297 C204 1.040 . S
C2317 C171 1.128 . S
C2323 C586 1.104 . S
C2337 C261 1.175 . S
C2343 C605 1.171 . S
C2363 C630 1.145 . S
C2357 C245 1.170 . S
C2383 C582 1.131 . S
C2377 C203 1.163 . S
C2397 C177 1.172 . S
C2403 C607 1.170 . S
C2423 C626 1.092 . S
C2417 C255 1.122 . S
C2443 C671 1.007 . S
C2437 C246 1.051 . S
C2463 C674 1.042 . S
C2457 C135 1.073 . S
C2483 C517 1.107 . S
C2477 C316 1.155 . S
C2497 C119 1.130 . S
C2503 C542 1.108 . S
C2517 C283 1.176 . S
C2523 C561 1.150 . S
C2543 C672 1.054 . S
C2537 C331 1.050 . S
C2563 C606 1.104 . S
C2557 C161 1.129 . S
C2583 C565 1.118 . S
C2577 C120 1.151 . S
C2603 C521 1.143 . S
C2597 C143 1.179 . S
