# Generated by pormake.
# Topology anh, (6,3)-cn, num edge types: 1
# Building blocks:
#     Node 0, Type 0, BuildingBlock: NUHQIS_clean_sbu_0, # of connection points: 6
#     Node 1, Type 0, BuildingBlock: NUHQIS_clean_sbu_0, # of connection points: 6
#     Node 2, Type 0, BuildingBlock: NUHQIS_clean_sbu_0, # of connection points: 6
#     Node 3, Type 1, BuildingBlock: OLANEW_clean_sbu_2, # of connection points: 3
#     Node 4, Type 1, BuildingBlock: OLANEW_clean_sbu_2, # of connection points: 3
#     Node 5, Type 1, BuildingBlock: OLANEW_clean_sbu_2, # of connection points: 3
#     Node 6, Type 1, BuildingBlock: OLANEW_clean_sbu_2, # of connection points: 3
#     Node 7, Type 1, BuildingBlock: OLANEW_clean_sbu_2, # of connection points: 3
#     Node 8, Type 1, BuildingBlock: OLANEW_clean_sbu_2, # of connection points: 3
#     Edge 9, Type (0, 1), BuildingBlock: EZIPEK_clean_linker_0, # of connection points: 2
#     Edge 10, Type (0, 1), BuildingBlock: EZIPEK_clean_linker_0, # of connection points: 2
#     Edge 11, Type (0, 1), BuildingBlock: EZIPEK_clean_linker_0, # of connection points: 2
#     Edge 12, Type (0, 1), BuildingBlock: EZIPEK_clean_linker_0, # of connection points: 2
#     Edge 13, Type (0, 1), BuildingBlock: EZIPEK_clean_linker_0, # of connection points: 2
#     Edge 14, Type (0, 1), BuildingBlock: EZIPEK_clean_linker_0, # of connection points: 2
#     Edge 15, Type (0, 1), BuildingBlock: EZIPEK_clean_linker_0, # of connection points: 2
#     Edge 16, Type (0, 1), BuildingBlock: EZIPEK_clean_linker_0, # of connection points: 2
#     Edge 17, Type (0, 1), BuildingBlock: EZIPEK_clean_linker_0, # of connection points: 2
#     Edge 18, Type (0, 1), BuildingBlock: EZIPEK_clean_linker_0, # of connection points: 2
#     Edge 19, Type (0, 1), BuildingBlock: EZIPEK_clean_linker_0, # of connection points: 2
#     Edge 20, Type (0, 1), BuildingBlock: EZIPEK_clean_linker_0, # of connection points: 2
#     Edge 21, Type (0, 1), BuildingBlock: EZIPEK_clean_linker_0, # of connection points: 2
#     Edge 22, Type (0, 1), BuildingBlock: EZIPEK_clean_linker_0, # of connection points: 2
#     Edge 23, Type (0, 1), BuildingBlock: EZIPEK_clean_linker_0, # of connection points: 2
#     Edge 24, Type (0, 1), BuildingBlock: EZIPEK_clean_linker_0, # of connection points: 2
#     Edge 25, Type (0, 1), BuildingBlock: EZIPEK_clean_linker_0, # of connection points: 2
#     Edge 26, Type (0, 1), BuildingBlock: EZIPEK_clean_linker_0, # of connection points: 2
# Relax obj value: 0.330
# Max RMSD: 0.143
# Mean RMSD: 0.120
data_MOF--net-anh--node1-NUHQIS_clean_sbu_0--node2-OLANEW_clean_sbu_2--edge1-EZIPEK_clean_linker_0
_symmetry_space_group_name_H-M    P1
_symmetry_Int_Tables_number       1
_symmetry_cell_setting            triclinic
loop_
_symmetry_equiv_pos_as_xyz
'x, y, z'
_cell_length_a     28.342022
_cell_length_b     28.212763
_cell_length_c     36.660846
_cell_angle_alpha  90.637718
_cell_angle_beta   92.7286
_cell_angle_gamma 120.27834
loop_
_atom_site_label
_atom_site_type_symbol
_atom_site_fract_x
_atom_site_fract_y
_atom_site_fract_z
_atom_type_partial_charge
Tb0 Tb 0.11963 0.51465 0.16892 0.0
Eu1 Eu 0.05967 0.58221 0.19299 0.0
C2 C 0.11666 0.54071 0.25145 0.0
C3 C 0.99377 0.44941 0.18309 0.0
C4 C 0.22762 0.48482 0.17788 0.0
C5 C 0.32633 0.52854 0.17762 0.0
C6 C 0.27485 0.50035 0.15906 0.0
C7 C 0.23242 0.49402 0.21612 0.0
C8 C 0.28393 0.52182 0.23472 0.0
C9 C 0.33111 0.54135 0.21521 0.0
C10 C 0.1765 0.47165 0.15705 0.0
O11 O 0.10327 0.54254 0.11746 0.0
O12 O 1.03497 0.55903 0.13273 0.0
O13 O 0.14503 0.64809 0.18111 0.0
O14 O 0.18535 0.59607 0.19034 0.0
C15 C 0.064 0.5526 0.10827 0.0
O16 O 1.03143 0.64005 0.18197 0.0
O17 O 1.0179 0.60112 0.23401 0.0
O18 O 0.10892 0.58156 0.24336 0.0
O19 O 0.11 0.50379 0.22683 0.0
O20 O 1.03214 0.45229 0.1626 0.0
O21 O 0.99926 0.49271 0.20084 0.0
C22 C 0.1888 0.64437 0.18818 0.0
O23 O 0.13183 0.44738 0.17459 0.0
O24 O 0.1796 0.51232 0.13873 0.0
C25 C 0.94923 0.61588 0.20888 0.0
C26 C 0.83907 0.58727 0.20121 0.0
C27 C 0.85406 0.54811 0.19315 0.0
C28 C 0.90897 0.56242 0.19684 0.0
C29 C 0.93417 0.65477 0.21734 0.0
C30 C 0.87927 0.64053 0.2135 0.0
C31 C 1.00685 0.6311 0.21244 0.0
H32 H 0.36259 0.54326 0.16229 0.0
H33 H 0.27217 0.49438 0.12962 0.0
H34 H 0.19677 0.4832 0.23135 0.0
H35 H 0.28709 0.53137 0.26376 0.0
H36 H 0.82339 0.5069 0.18355 0.0
H37 H 0.92011 0.53197 0.19014 0.0
H38 H 0.96485 0.69613 0.22666 0.0
H39 H 0.86814 0.67113 0.21972 0.0
Tb40 Tb 0.58196 0.07248 0.52509 0.0
Eu41 Eu 0.44793 1.00198 0.49964 0.0
C42 C 0.49229 1.0245 0.58471 0.0
C43 C 0.51779 0.94129 0.52617 0.0
C44 C 0.72607 0.18193 0.52529 0.0
C45 C 0.75309 0.25623 0.48344 0.0
C46 C 0.71209 0.20997 0.49948 0.0
C47 C 0.78117 0.20088 0.53529 0.0
C48 C 0.82213 0.24698 0.51919 0.0
C49 C 0.80831 0.27446 0.49292 0.0
C50 C 0.68344 0.1317 0.54067 0.0
O51 O 0.57927 0.06898 0.46514 0.0
O52 O 0.48763 1.02796 0.44643 0.0
O53 O 0.46683 0.08983 0.50176 0.0
O54 O 0.55729 0.13449 0.52445 0.0
C55 C 0.53935 0.05135 0.43945 0.0
O56 O 0.38148 0.94305 0.46209 0.0
O57 O 0.36269 0.97484 0.5097 0.0
O58 O 0.45214 1.01176 0.56032 0.0
O59 O 0.54325 0.04313 0.57656 0.0
O60 O 0.5639 0.98833 0.5316 0.0
O61 O 0.47182 0.93808 0.51364 0.0
C62 C 0.51186 0.13413 0.51455 0.0
O63 O 0.64634 0.13648 0.55722 0.0
O64 O 0.66176 0.08819 0.51887 0.0
C65 C 0.31233 0.87955 0.49635 0.0
C66 C 0.28327 0.77008 0.50624 0.0
C67 C 0.25827 0.78339 0.47725 0.0
C68 C 0.27312 0.8381 0.47216 0.0
C69 C 0.33184 0.86512 0.52781 0.0
C70 C 0.31765 0.81068 0.53264 0.0
C71 C 0.34395 0.93599 0.48419 0.0
H72 H 0.74193 0.27712 0.4632 0.0
H73 H 0.66958 0.19558 0.49141 0.0
H74 H 0.79248 0.17953 0.55508 0.0
H75 H 0.86466 0.26071 0.52671 0.0
H76 H 0.23189 0.75237 0.45652 0.0
H77 H 0.2582 0.84848 0.44753 0.0
H78 H 0.36246 0.89656 0.54666 0.0
H79 H 0.33762 0.8012 0.55495 0.0
Tb80 Tb 0.60154 0.65708 0.84597 0.0
Eu81 Eu 0.5348 0.52386 0.85085 0.0
C82 C 0.57314 0.60329 0.92181 0.0
C83 C 0.66757 0.59409 0.85839 0.0
C84 C 0.62099 0.79388 0.84808 0.0
C85 C 0.56216 0.81218 0.88477 0.0
C86 C 0.5963 0.79022 0.88119 0.0
C87 C 0.61393 0.823 0.81965 0.0
C88 C 0.57921 0.84417 0.82305 0.0
C89 C 0.5515 0.83698 0.85508 0.0
C90 C 0.6445 0.75902 0.84021 0.0
O91 O 0.60461 0.62186 0.79343 0.0
O92 O 0.52046 0.54612 0.79418 0.0
O93 O 0.47089 0.5465 0.86217 0.0
O94 O 0.51469 0.63439 0.84106 0.0
C95 C 0.56077 0.58221 0.77586 0.0
O96 O 0.50408 0.44524 0.82172 0.0
O97 O 0.49046 0.44721 0.87922 0.0
O98 O 0.56864 0.55814 0.90789 0.0
O99 O 0.57468 0.64164 0.90126 0.0
O100 O 0.66639 0.63985 0.86314 0.0
O101 O 0.62368 0.54761 0.84714 0.0
C102 C 0.4712 0.59179 0.85355 0.0
O103 O 0.65541 0.73685 0.86798 0.0
O104 O 0.61917 0.72353 0.81297 0.0
C105 C 0.51068 0.38094 0.85744 0.0
C106 C 0.55924 0.31558 0.85899 0.0
C107 C 0.5047 0.29345 0.84556 0.0
C108 C 0.48054 0.32603 0.84475 0.0
C109 C 0.56468 0.40256 0.87209 0.0
C110 C 0.58885 0.36994 0.87299 0.0
C111 C 0.48836 0.4172 0.85116 0.0
H112 H 0.54146 0.80687 0.90979 0.0
H113 H 0.60065 0.76765 0.90354 0.0
H114 H 0.63229 0.82605 0.79387 0.0
H115 H 0.5718 0.86376 0.80001 0.0
H116 H 0.4815 0.25149 0.83461 0.0
H117 H 0.4391 0.30899 0.83298 0.0
H118 H 0.58868 0.44515 0.88154 0.0
H119 H 0.63103 0.38752 0.88332 0.0
O120 O 0.64261 0.11914 0.28197 0.0
Cd121 Cd 0.68684 0.15226 0.22201 0.0
O122 O 0.57076 0.04029 0.26123 0.0
Cd123 Cd 0.49084 0.95951 0.2578 0.0
O124 O 0.4094 0.8843 0.24063 0.0
C125 C 0.40296 0.83799 0.22987 0.0
O126 O 0.44613 0.83229 0.22899 0.0
C127 C 0.59814 0.07467 0.28782 0.0
C128 C 0.78932 0.25027 0.21304 0.0
O129 O 0.74467 0.25132 0.21408 0.0
O130 O 0.78657 0.20407 0.21824 0.0
O131 O 0.53228 0.49084 0.61176 0.0
Cd132 Cd 0.51826 0.4426 0.55075 0.0
O133 O 0.52798 0.56301 0.59307 0.0
Cd134 Cd 0.52999 0.64377 0.59173 0.0
O135 O 0.53882 0.72446 0.57508 0.0
C136 C 0.49892 0.73235 0.56726 0.0
O137 O 0.44856 0.69136 0.5691 0.0
C138 C 0.53397 0.53622 0.6191 0.0
C139 C 0.51656 0.34106 0.54279 0.0
O140 O 0.56162 0.38719 0.54361 0.0
O141 O 0.47261 0.34229 0.54742 0.0
O142 O 0.12135 0.57847 0.94652 0.0
Cd143 Cd 0.16664 0.58851 0.88701 0.0
O144 O 1.04773 0.58206 0.92744 0.0
Cd145 Cd 0.96695 0.58007 0.92553 0.0
O146 O 0.88492 0.57184 0.90955 0.0
C147 C 0.87855 0.61096 0.89789 0.0
O148 O 0.92196 0.65979 0.89527 0.0
C149 C 0.0768 0.5773 0.9534 0.0
C150 C 0.26805 0.59079 0.87992 0.0
O151 O 0.26663 0.63513 0.88484 0.0
O152 O 0.22247 0.54528 0.88022 0.0
O153 O 0.22383 0.47403 0.38871 0.0
Cd154 Cd 0.24861 0.46319 0.45207 0.0
O155 O 0.17281 0.49943 0.41626 0.0
Cd156 Cd 0.11104 0.52366 0.41576 0.0
O157 O 1.026 0.48763 0.42863 0.0
C158 C 1.00647 0.4375 0.43593 0.0
O159 O 1.03749 0.41544 0.43378 0.0
C160 C 0.19048 0.49174 0.38698 0.0
C161 C 0.27177 0.56154 0.48575 0.0
O162 O 0.2232 0.51991 0.48458 0.0
O163 O 0.31047 0.55476 0.47509 0.0
O164 O 0.35223 0.9427 0.72534 0.0
Cd165 Cd 0.31135 0.91053 0.78372 0.0
O166 O 0.4299 0.99309 0.75717 0.0
Cd167 Cd 0.51744 0.05171 0.76368 0.0
O168 O 0.57786 0.13177 0.78779 0.0
C169 C 0.57931 0.13859 0.82223 0.0
O170 O 0.54686 0.09578 0.84078 0.0
C171 C 0.40355 0.97592 0.7264 0.0
C172 C 0.38507 0.89054 0.82355 0.0
O173 O 0.35012 0.85546 0.79961 0.0
O174 O 0.38275 0.93385 0.83071 0.0
O175 O 0.543 0.59074 0.09473 0.0
Cd176 Cd 0.5385 0.5768 0.16017 0.0
O177 O 0.61508 0.67491 0.09615 0.0
Cd178 Cd 0.61341 0.68649 0.15488 0.0
O179 O 0.57123 0.66319 0.20535 0.0
C180 C 0.54756 0.68768 0.21729 0.0
O181 O 0.55578 0.73235 0.20112 0.0
C182 C 0.57909 0.63157 0.07835 0.0
C183 C 0.62666 0.56384 0.18008 0.0
O184 O 0.58028 0.52183 0.17007 0.0
O185 O 0.63062 0.61094 0.18241 0.0
C186 C 0.40387 0.63699 0.23524 0.0
C187 C 0.38587 0.57996 0.23265 0.0
C188 C 0.47979 0.60029 0.24547 0.0
C189 C 0.49779 0.65586 0.23831 0.0
N190 N 0.48031 0.72928 0.24926 0.0
N191 N 0.40386 0.50606 0.24186 0.0
C192 C 0.46073 0.67505 0.24096 0.0
C193 C 0.42294 0.56115 0.2408 0.0
N194 N 0.36746 0.65479 0.22929 0.0
N195 N 0.5172 0.58594 0.25702 0.0
H196 H 0.36209 0.47705 0.23997 0.0
H197 H 0.429 0.48907 0.24373 0.0
H198 H 0.55833 0.61557 0.26271 0.0
H199 H 0.50711 0.54657 0.26441 0.0
H200 H 0.37921 0.69593 0.22665 0.0
H201 H 0.32537 0.62815 0.22528 0.0
H202 H 0.45531 0.74548 0.25441 0.0
H203 H 0.52202 0.75643 0.25528 0.0
C204 C 0.86694 0.31268 0.43966 0.0
C205 C 0.85243 0.32122 0.47462 0.0
C206 C 0.93473 0.4123 0.4813 0.0
C207 C 0.94975 0.40319 0.44667 0.0
N208 N 0.92398 0.35328 0.38867 0.0
N209 N 0.86351 0.38316 0.52432 0.0
C210 C 0.91362 0.35607 0.42444 0.0
C211 C 0.88338 0.3726 0.49393 0.0
N212 N 0.8379 0.26229 0.42192 0.0
N213 N 0.97081 0.45698 0.50302 0.0
H214 H 0.82603 0.35457 0.53419 0.0
H215 H 0.88152 0.42159 0.53772 0.0
H216 H 1.00845 0.48744 0.49453 0.0
H217 H 0.96499 0.46233 0.53024 0.0
H218 H 0.85039 0.25166 0.39847 0.0
H219 H 0.8029 0.22962 0.43189 0.0
H220 H 0.89677 0.32231 0.36999 0.0
H221 H 0.9576 0.38511 0.37679 0.0
C222 C 0.45257 0.81147 0.85492 0.0
C223 C 0.50881 0.85255 0.85593 0.0
C224 C 0.48448 0.92204 0.84122 0.0
C225 C 0.42797 0.88116 0.84094 0.0
N226 N 0.35971 0.79205 0.85996 0.0
N227 N 0.57742 0.94843 0.86149 0.0
C228 C 0.41256 0.82753 0.85204 0.0
C229 C 0.52436 0.90841 0.85309 0.0
N230 N 0.43705 0.75706 0.85418 0.0
N231 N 0.50084 0.97243 0.82749 0.0
H232 H 0.6075 0.93948 0.87042 0.0
H233 H 0.59005 0.99011 0.86321 0.0
H234 H 0.47413 0.9855 0.81858 0.0
H235 H 0.5414 0.99993 0.82221 0.0
H236 H 0.39651 0.72567 0.84945 0.0
H237 H 0.46484 0.74316 0.85493 0.0
H238 H 0.34727 0.75401 0.87116 0.0
H239 H 0.32986 0.80339 0.85921 0.0
C240 C 0.7498 0.56491 0.22628 0.0
C241 C 0.78139 0.57341 0.19557 0.0
C242 C 0.70474 0.56065 0.1546 0.0
C243 C 0.67622 0.55972 0.18558 0.0
N244 N 0.67076 0.5629 0.25081 0.0
N245 N 0.79187 0.58425 0.13071 0.0
C246 C 0.69835 0.56202 0.22145 0.0
C247 C 0.75945 0.57192 0.15968 0.0
N248 N 0.76877 0.55874 0.25985 0.0
N249 N 0.67959 0.55116 0.12035 0.0
H250 H 0.83213 0.59246 0.1332 0.0
H251 H 0.78046 0.59037 0.10456 0.0
H252 H 0.64005 0.54433 0.11548 0.0
H253 H 0.69599 0.54563 0.09696 0.0
H254 H 0.74561 0.54728 0.28272 0.0
H255 H 0.80638 0.5607 0.2642 0.0
H256 H 0.68743 0.57108 0.27763 0.0
H257 H 0.63174 0.55811 0.24814 0.0
C258 C 0.25643 0.67592 0.52856 0.0
C259 C 0.28425 0.71816 0.50385 0.0
C260 C 0.30596 0.65881 0.4682 0.0
C261 C 0.28092 0.6172 0.49401 0.0
N262 N 0.24296 0.59056 0.55283 0.0
N263 N 0.34894 0.75561 0.45685 0.0
C264 C 0.25932 0.62711 0.5255 0.0
C265 C 0.31346 0.71145 0.47589 0.0
N266 N 0.22595 0.68175 0.55409 0.0
N267 N 0.31921 0.64746 0.43512 0.0
H268 H 0.3572 0.7955 0.46241 0.0
H269 H 0.37436 0.75376 0.43798 0.0
H270 H 0.31302 0.60919 0.42713 0.0
H271 H 0.33115 0.67459 0.41385 0.0
H272 H 0.20002 0.65007 0.57032 0.0
H273 H 0.22356 0.71728 0.55719 0.0
H274 H 0.23146 0.59783 0.57789 0.0
H275 H 0.24602 0.55523 0.55178 0.0
C276 C 0.57845 0.2439 0.883 0.0
C277 C 0.58564 0.28207 0.8559 0.0
C278 C 0.62307 0.24061 0.81616 0.0
C279 C 0.6022 0.1951 0.83887 0.0
N280 N 0.5918 0.16864 0.90126 0.0
N281 N 0.62143 0.32239 0.79861 0.0
C282 C 0.59019 0.20169 0.87494 0.0
C283 C 0.61144 0.28308 0.82341 0.0
N284 N 0.55756 0.24633 0.91533 0.0
N285 N 0.65499 0.24343 0.78861 0.0
H286 H 0.61488 0.35502 0.80365 0.0
H287 H 0.63402 0.32147 0.77252 0.0
H288 H 0.66697 0.21428 0.7852 0.0
H289 H 0.67459 0.27718 0.7723 0.0
H290 H 0.54539 0.21606 0.93453 0.0
H291 H 0.55064 0.27818 0.92234 0.0
H292 H 0.5866 0.17308 0.92875 0.0
H293 H 0.60482 0.14075 0.89588 0.0
C294 C 0.49772 0.84494 0.50946 0.0
C295 C 0.51697 0.88905 0.53592 0.0
C296 C 0.5332 0.83318 0.58092 0.0
C297 C 0.50844 0.78731 0.55572 0.0
N298 N 0.46552 0.74829 0.49614 0.0
N299 N 0.5476 0.92268 0.59853 0.0
C300 C 0.49007 0.79289 0.52005 0.0
C301 C 0.53393 0.88273 0.57196 0.0
N302 N 0.48936 0.8537 0.47371 0.0
N303 N 0.55587 0.82943 0.61376 0.0
H304 H 0.54908 0.95958 0.5937 0.0
H305 H 0.55284 0.91759 0.62621 0.0
H306 H 0.55277 0.7931 0.62271 0.0
H307 H 0.58109 0.8632 0.63121 0.0
H308 H 0.48082 0.82558 0.45224 0.0
H309 H 0.49584 0.89138 0.4648 0.0
H310 H 0.44584 0.74728 0.47124 0.0
H311 H 0.4629 0.7109 0.50171 0.0
C312 C 0.76395 0.61981 0.84365 0.0
C313 C 0.72022 0.59472 0.86723 0.0
C314 C 0.78005 0.58029 0.91131 0.0
C315 C 0.82276 0.60219 0.88671 0.0
N316 N 0.85035 0.63106 0.82584 0.0
N317 N 0.68338 0.54103 0.92025 0.0
C318 C 0.81329 0.61878 0.85186 0.0
C319 C 0.72722 0.57156 0.89991 0.0
N320 N 0.75854 0.64491 0.81337 0.0
N321 N 0.79065 0.57099 0.94645 0.0
H322 H 0.64465 0.53525 0.91377 0.0
H323 H 0.68435 0.51777 0.94183 0.0
H324 H 0.82883 0.57805 0.95635 0.0
H325 H 0.76316 0.56129 0.96683 0.0
H326 H 0.79098 0.66957 0.79747 0.0
H327 H 0.72229 0.6441 0.80545 0.0
H328 H 0.84346 0.63806 0.79881 0.0
H329 H 0.88572 0.62869 0.83021 0.0
C330 C 0.24986 0.72874 0.22964 0.0
C331 C 0.24284 0.69578 0.19777 0.0
C332 C 0.33854 0.76095 0.18443 0.0
C333 C 0.34718 0.79014 0.21835 0.0
N334 N 0.31311 0.79373 0.27675 0.0
N335 N 0.28314 0.6773 0.14705 0.0
C336 C 0.30328 0.77208 0.24179 0.0
C337 C 0.28813 0.7108 0.176 0.0
N338 N 0.20573 0.71868 0.24877 0.0
N339 N 0.37743 0.78258 0.15928 0.0
H340 H 0.2462 0.64253 0.13827 0.0
H341 H 0.31641 0.6821 0.13317 0.0
H342 H 0.4137 0.82014 0.1636 0.0
H343 H 0.37142 0.76633 0.1327 0.0
H344 H 0.20741 0.74544 0.26928 0.0
H345 H 0.16638 0.68601 0.24255 0.0
H346 H 0.28436 0.77774 0.29651 0.0
H347 H 0.35169 0.82398 0.28734 0.0
C348 C 0.48413 0.19193 0.55073 0.0
C349 C 0.51114 0.1863 0.52067 0.0
C350 C 0.53779 0.28033 0.50352 0.0
C351 C 0.51502 0.28778 0.53539 0.0
N352 N 0.47527 0.25366 0.59286 0.0
N353 N 0.57158 0.22824 0.47204 0.0
C354 C 0.49021 0.24421 0.55985 0.0
C355 C 0.5405 0.23154 0.49824 0.0
N356 N 0.45288 0.14736 0.57086 0.0
N357 N 0.55425 0.31853 0.4772 0.0
H358 H 0.57316 0.19275 0.46647 0.0
H359 H 0.59903 0.26189 0.45778 0.0
H360 H 0.5514 0.35387 0.47925 0.0
H361 H 0.56564 0.31265 0.45171 0.0
H362 H 0.42711 0.14697 0.59031 0.0
H363 H 0.44967 0.10925 0.56645 0.0
H364 H 0.46263 0.22573 0.61363 0.0
H365 H 0.48045 0.2916 0.60103 0.0
C366 C 0.37183 0.56084 0.8362 0.0
C367 C 0.42032 0.59472 0.85846 0.0
C368 C 0.36824 0.62309 0.89626 0.0
C369 C 0.32061 0.59219 0.87257 0.0
N370 N 0.28139 0.54199 0.81491 0.0
N371 N 0.46692 0.66722 0.90509 0.0
C372 C 0.32353 0.56369 0.84119 0.0
C373 C 0.41923 0.62884 0.88693 0.0
N374 N 0.37185 0.52598 0.81002 0.0
N375 N 0.36436 0.64459 0.92882 0.0
H376 H 0.50487 0.67231 0.89975 0.0
H377 H 0.46949 0.69734 0.92312 0.0
H378 H 0.32773 0.63994 0.93731 0.0
H379 H 0.3961 0.66214 0.94909 0.0
H380 H 0.33635 0.49531 0.7961 0.0
H381 H 0.4071 0.52554 0.80363 0.0
H382 H 0.28337 0.52592 0.7897 0.0
H383 H 0.2464 0.54504 0.81657 0.0
C384 C 0.94175 0.36203 0.21694 0.0
C385 C 0.94284 0.3955 0.18795 0.0
C386 C 0.84494 0.33043 0.1728 0.0
C387 C 0.8423 0.30055 0.20451 0.0
N388 N 0.88722 0.29454 0.2604 0.0
N389 N 0.89392 0.41555 0.14099 0.0
C390 C 0.89058 0.31796 0.22746 0.0
C391 C 0.89391 0.38085 0.16671 0.0
N392 N 0.9898 0.37202 0.23432 0.0
N393 N 0.80168 0.30933 0.14739 0.0
H394 H 0.92936 0.4514 0.13463 0.0
H395 H 0.85831 0.41072 0.12777 0.0
H396 H 0.76597 0.27173 0.14988 0.0
H397 H 0.80325 0.32629 0.12207 0.0
H398 H 0.99237 0.34601 0.25322 0.0
H399 H 1.02781 0.40368 0.2273 0.0
H400 H 0.91971 0.30947 0.28007 0.0
H401 H 0.85048 0.26362 0.26973 0.0
C402 C 0.06926 0.60852 0.05349 0.0
C403 C 0.05326 0.55664 0.06846 0.0
C404 C 1.04123 0.51582 1.00665 0.0
C405 C 0.05925 0.56807 0.99173 0.0
N406 N 0.07742 0.66071 0.99933 0.0
N407 N 1.01033 0.45872 0.05947 0.0
C408 C 0.06857 0.61321 0.01469 0.0
C409 C 1.03479 0.50954 0.04497 0.0
N410 N 0.0884 0.65391 0.07634 0.0
N411 N 1.03187 0.47255 0.98419 0.0
H412 H 1.00441 0.45313 0.08733 0.0
H413 H 0.99149 0.42208 0.04384 0.0
H414 H 1.03281 0.47485 0.95582 0.0
H415 H 1.0254 0.43518 0.99359 0.0
H416 H 0.10697 0.69391 0.06743 0.0
H417 H 0.08852 0.65193 0.10473 0.0
H418 H 0.07943 0.6935 1.01405 0.0
H419 H 0.07816 0.66554 0.97116 0.0
C420 C 0.5758 1.02546 0.38587 0.0
C421 C 0.55315 0.05615 0.40028 0.0
C422 C 0.55134 0.09092 0.33915 0.0
C423 C 0.57885 0.06458 0.3257 0.0
N424 N 0.62233 1.0111 0.33666 0.0
N425 N 0.52427 0.12253 0.39183 0.0
C426 C 0.59232 1.03288 0.34917 0.0
C427 C 0.54193 0.08985 0.37715 0.0
N428 N 0.57948 0.98751 0.40682 0.0
N429 N 0.53319 0.11607 0.31533 0.0
H430 H 0.51625 0.12235 0.4193 0.0
H431 H 0.52139 0.15276 0.37759 0.0
H432 H 0.53979 0.11797 0.28749 0.0
H433 H 0.50786 0.13107 0.32238 0.0
H434 H 0.58974 0.95944 0.39677 0.0
H435 H 0.56783 0.9808 0.4337 0.0
H436 H 0.6393 0.99332 0.35345 0.0
H437 H 0.63336 1.01393 0.30968 0.0
C438 C 0.59609 0.56936 0.71674 0.0
C439 C 0.55711 0.57678 0.7351 0.0
C440 C 0.50433 0.56232 0.67653 0.0
C441 C 0.54449 0.55702 0.65804 0.0
N442 N 0.63512 0.56946 0.65926 0.0
N443 N 0.48113 0.59277 0.73158 0.0
C444 C 0.59244 0.56497 0.67783 0.0
C445 C 0.51332 0.57704 0.71468 0.0
N446 N 0.63482 0.56333 0.73642 0.0
N447 N 0.45633 0.55059 0.65815 0.0
H448 H 0.4869 0.60444 0.75928 0.0
H449 H 0.45215 0.59924 0.71759 0.0
H450 H 0.44829 0.54018 0.63028 0.0
H451 H 0.42285 0.54723 0.67102 0.0
H452 H 0.66034 0.55169 0.72463 0.0
H453 H 0.63831 0.56499 0.7649 0.0
H454 H 0.67327 0.58076 0.67183 0.0
H455 H 0.63422 0.56747 0.63078 0.0
C456 C 0.4473 0.95831 0.63386 0.0
C457 C 0.47743 1.01353 0.62309 0.0
C458 C 0.46134 0.04552 0.68119 0.0
C459 C 0.43259 0.9903 0.69215 0.0
N460 N 0.41188 0.89668 0.68366 0.0
N461 N 0.52134 0.11048 0.63815 0.0
C462 C 0.42971 0.94745 0.66989 0.0
C463 C 0.48749 0.05748 0.64748 0.0
N464 N 0.43395 0.91595 0.60934 0.0
N465 N 0.46116 0.08595 0.70198 0.0
H466 H 0.53956 0.12053 0.61318 0.0
H467 H 0.53464 0.14432 0.65605 0.0
H468 H 0.44239 0.07865 0.72671 0.0
H469 H 0.47619 0.12596 0.69368 0.0
H470 H 0.4062 0.87503 0.61418 0.0
H471 H 0.44771 0.92188 0.58307 0.0
H472 H 0.41443 0.86552 0.67005 0.0
H473 H 0.39975 0.88737 0.71031 0.0
C474 C 0.52876 0.60571 0.97859 0.0
C475 C 0.57513 0.61087 0.96187 0.0
C476 C 0.62395 0.62792 0.02185 0.0
C477 C 0.57932 0.62754 0.03817 0.0
N478 N 0.49384 0.62675 0.03163 0.0
N479 N 0.67023 0.63623 0.96633 0.0
C480 C 0.533 0.61953 0.01639 0.0
C481 C 0.62378 0.62468 0.98314 0.0
N482 N 0.48002 0.58549 0.95869 0.0
N483 N 0.66531 0.62893 0.04329 0.0
H484 H 0.67161 0.63445 0.93802 0.0
H485 H 0.70841 0.65202 0.98021 0.0
H486 H 0.66701 0.63124 0.07177 0.0
H487 H 0.69555 0.62286 0.03297 0.0
H488 H 0.44338 0.57559 0.97016 0.0
H489 H 0.47513 0.57378 0.93112 0.0
H490 H 0.46214 0.6272 0.01635 0.0
H491 H 0.49593 0.63758 0.05921 0.0
C492 C 0.19095 0.56467 0.30022 0.0
C493 C 0.13446 0.53495 0.28887 0.0
C494 C 0.11629 0.47308 0.33941 0.0
C495 C 0.17233 0.50414 0.3517 0.0
N496 N 0.26244 0.58272 0.34662 0.0
N497 N 1.0418 0.46775 0.30056 0.0
C498 C 0.20957 0.55079 0.33282 0.0
C499 C 0.09664 0.49123 0.30946 0.0
N500 N 0.2271 0.60502 0.27912 0.0
N501 N 0.08252 0.42482 0.35538 0.0
H502 H 1.02641 0.48075 0.2789 0.0
H503 H 1.01153 0.43904 0.31633 0.0
H504 H 0.09605 0.40976 0.37681 0.0
H505 H 1.04267 0.39726 0.34539 0.0
H506 H 0.26942 0.62292 0.28258 0.0
H507 H 0.21438 0.61948 0.25708 0.0
H508 H 0.28973 0.62117 0.33715 0.0
H509 H 0.27862 0.57197 0.36896 0.0
loop_
_geom_bond_atom_site_label_1
_geom_bond_atom_site_label_2
_geom_bond_distance
_geom_bond_site_symmetry_2
_ccdc_geom_bond_type
Tb0 C10 2.825 . S
Tb0 O11 2.347 . S
Tb0 O14 2.366 . S
Tb0 O19 2.418 . S
Tb0 O20 2.384 1_455 S
Tb0 O23 2.479 . S
Tb0 O24 2.471 . S
Eu1 O12 2.418 . S
Eu1 O13 2.384 1_655 S
Eu1 O16 2.479 . S
Eu1 O17 2.471 . S
Eu1 O18 2.347 1_655 S
Eu1 O21 2.366 . S
Eu1 C31 2.825 . S
C2 O18 1.259 . S
C2 O19 1.265 . S
C3 O20 1.255 . S
C3 O21 1.265 . S
C4 C6 1.380 . S
C4 C7 1.374 . S
C4 C10 1.507 . S
C5 C6 1.384 . S
C5 C9 1.387 . S
C5 H32 0.930 . S
C6 C4 1.380 . S
C6 C5 1.384 . S
C6 H33 0.931 . S
C7 C4 1.374 . S
C7 C8 1.390 . S
C7 H34 0.930 . S
C8 C7 1.390 . S
C8 C9 1.391 . S
C8 H35 0.930 . S
C9 C5 1.387 . S
C9 C8 1.391 . S
C10 Tb0 2.825 . S
C10 C4 1.507 . S
C10 O23 1.238 . S
C10 O24 1.247 . S
O11 Tb0 2.347 . S
O11 C15 1.259 . S
O12 Eu1 2.418 . S
O12 C15 1.265 1_655 S
O13 Eu1 2.384 1_455 S
O13 C22 1.255 . S
O14 Tb0 2.366 . S
O14 C22 1.265 . S
C15 O11 1.259 . S
C15 O12 1.265 1_455 S
O16 Eu1 2.479 . S
O16 C31 1.238 . S
O17 Eu1 2.471 . S
O17 C31 1.247 . S
O18 Eu1 2.347 1_455 S
O18 C2 1.259 . S
O19 Tb0 2.418 . S
O19 C2 1.265 . S
O20 Tb0 2.384 1_655 S
O20 C3 1.255 . S
O21 Eu1 2.366 . S
O21 C3 1.265 . S
C22 O13 1.255 . S
C22 O14 1.265 . S
O23 Tb0 2.479 . S
O23 C10 1.238 . S
O24 Tb0 2.471 . S
O24 C10 1.247 . S
C25 C28 1.380 . S
C25 C29 1.374 . S
C25 C31 1.507 . S
C26 C27 1.387 . S
C26 C30 1.391 . S
C27 C26 1.387 . S
C27 C28 1.384 . S
C27 H36 0.930 . S
C28 C25 1.380 . S
C28 C27 1.384 . S
C28 H37 0.931 . S
C29 C25 1.374 . S
C29 C30 1.390 . S
C29 H38 0.930 . S
C30 C26 1.391 . S
C30 C29 1.390 . S
C30 H39 0.930 . S
C31 Eu1 2.825 . S
C31 O16 1.238 . S
C31 O17 1.247 . S
C31 C25 1.507 . S
H32 C5 0.930 . S
H33 C6 0.931 . S
H34 C7 0.930 . S
H35 C8 0.930 . S
H36 C27 0.930 . S
H37 C28 0.931 . S
H38 C29 0.930 . S
H39 C30 0.930 . S
Tb40 C50 2.825 . S
Tb40 O51 2.347 . S
Tb40 O54 2.366 . S
Tb40 O59 2.418 . S
Tb40 O60 2.384 1_545 S
Tb40 O63 2.479 . S
Tb40 O64 2.471 . S
Eu41 O52 2.418 . S
Eu41 O53 2.384 . S
Eu41 O56 2.479 1_545 S
Eu41 O57 2.471 1_545 S
Eu41 O58 2.347 . S
Eu41 O61 2.366 1_545 S
Eu41 C71 2.825 1_545 S
C42 O58 1.259 . S
C42 O59 1.265 . S
C43 O60 1.255 . S
C43 O61 1.265 . S
C44 C46 1.380 . S
C44 C47 1.374 . S
C44 C50 1.507 . S
C45 C46 1.384 . S
C45 C49 1.387 . S
C45 H72 0.930 . S
C46 C44 1.380 . S
C46 C45 1.384 . S
C46 H73 0.931 . S
C47 C44 1.374 . S
C47 C48 1.390 . S
C47 H74 0.930 . S
C48 C47 1.390 . S
C48 C49 1.391 . S
C48 H75 0.930 . S
C49 C45 1.387 . S
C49 C48 1.391 . S
C50 Tb40 2.825 . S
C50 C44 1.507 . S
C50 O63 1.238 . S
C50 O64 1.247 . S
O51 Tb40 2.347 . S
O51 C55 1.259 . S
O52 Eu41 2.418 . S
O52 C55 1.265 . S
O53 Eu41 2.384 . S
O53 C62 1.255 . S
O54 Tb40 2.366 . S
O54 C62 1.265 . S
C55 O51 1.259 . S
C55 O52 1.265 . S
O56 Eu41 2.479 1_565 S
O56 C71 1.238 . S
O57 Eu41 2.471 1_565 S
O57 C71 1.247 . S
O58 Eu41 2.347 . S
O58 C42 1.259 . S
O59 Tb40 2.418 . S
O59 C42 1.265 . S
O60 Tb40 2.384 1_565 S
O60 C43 1.255 . S
O61 Eu41 2.366 1_565 S
O61 C43 1.265 . S
C62 O53 1.255 . S
C62 O54 1.265 . S
O63 Tb40 2.479 . S
O63 C50 1.238 . S
O64 Tb40 2.471 . S
O64 C50 1.247 . S
C65 C68 1.380 . S
C65 C69 1.374 . S
C65 C71 1.507 . S
C66 C67 1.387 . S
C66 C70 1.391 . S
C67 C66 1.387 . S
C67 C68 1.384 . S
C67 H76 0.930 . S
C68 C65 1.380 . S
C68 C67 1.384 . S
C68 H77 0.931 . S
C69 C65 1.374 . S
C69 C70 1.390 . S
C69 H78 0.930 . S
C70 C66 1.391 . S
C70 C69 1.390 . S
C70 H79 0.930 . S
C71 Eu41 2.825 1_565 S
C71 O56 1.238 . S
C71 O57 1.247 . S
C71 C65 1.507 . S
H72 C45 0.930 . S
H73 C46 0.931 . S
H74 C47 0.930 . S
H75 C48 0.930 . S
H76 C67 0.930 . S
H77 C68 0.931 . S
H78 C69 0.930 . S
H79 C70 0.930 . S
Tb80 C90 2.825 . S
Tb80 O91 2.347 . S
Tb80 O94 2.366 . S
Tb80 O99 2.418 . S
Tb80 O100 2.384 . S
Tb80 O103 2.479 . S
Tb80 O104 2.471 . S
Eu81 O92 2.418 . S
Eu81 O93 2.384 . S
Eu81 O96 2.479 . S
Eu81 O97 2.471 . S
Eu81 O98 2.347 . S
Eu81 O101 2.366 . S
Eu81 C111 2.825 . S
C82 O98 1.259 . S
C82 O99 1.265 . S
C83 O100 1.255 . S
C83 O101 1.265 . S
C84 C86 1.380 . S
C84 C87 1.374 . S
C84 C90 1.507 . S
C85 C86 1.384 . S
C85 C89 1.387 . S
C85 H112 0.930 . S
C86 C84 1.380 . S
C86 C85 1.384 . S
C86 H113 0.931 . S
C87 C84 1.374 . S
C87 C88 1.390 . S
C87 H114 0.930 . S
C88 C87 1.390 . S
C88 C89 1.391 . S
C88 H115 0.930 . S
C89 C85 1.387 . S
C89 C88 1.391 . S
C90 Tb80 2.825 . S
C90 C84 1.507 . S
C90 O103 1.238 . S
C90 O104 1.247 . S
O91 Tb80 2.347 . S
O91 C95 1.259 . S
O92 Eu81 2.418 . S
O92 C95 1.265 . S
O93 Eu81 2.384 . S
O93 C102 1.255 . S
O94 Tb80 2.366 . S
O94 C102 1.265 . S
C95 O91 1.259 . S
C95 O92 1.265 . S
O96 Eu81 2.479 . S
O96 C111 1.238 . S
O97 Eu81 2.471 . S
O97 C111 1.247 . S
O98 Eu81 2.347 . S
O98 C82 1.259 . S
O99 Tb80 2.418 . S
O99 C82 1.265 . S
O100 Tb80 2.384 . S
O100 C83 1.255 . S
O101 Eu81 2.366 . S
O101 C83 1.265 . S
C102 O93 1.255 . S
C102 O94 1.265 . S
O103 Tb80 2.479 . S
O103 C90 1.238 . S
O104 Tb80 2.471 . S
O104 C90 1.247 . S
C105 C108 1.380 . S
C105 C109 1.374 . S
C105 C111 1.507 . S
C106 C107 1.387 . S
C106 C110 1.391 . S
C107 C106 1.387 . S
C107 C108 1.384 . S
C107 H116 0.930 . S
C108 C105 1.380 . S
C108 C107 1.384 . S
C108 H117 0.931 . S
C109 C105 1.374 . S
C109 C110 1.390 . S
C109 H118 0.930 . S
C110 C106 1.391 . S
C110 C109 1.390 . S
C110 H119 0.930 . S
C111 Eu81 2.825 . S
C111 O96 1.238 . S
C111 O97 1.247 . S
C111 C105 1.507 . S
H112 C85 0.930 . S
H113 C86 0.931 . S
H114 C87 0.930 . S
H115 C88 0.930 . S
H116 C107 0.930 . S
H117 C108 0.931 . S
H118 C109 0.930 . S
H119 C110 0.930 . S
O120 Cd121 2.300 . S
O120 C127 1.275 . S
Cd121 O120 2.300 . S
Cd121 O129 2.381 . S
Cd121 O130 2.378 . S
O122 Cd123 2.385 . S
O122 C127 1.255 1_565 S
Cd123 O122 2.385 . S
Cd123 O124 2.317 . S
O124 Cd123 2.317 . S
O124 C125 1.232 . S
C125 O124 1.232 . S
C125 O126 1.218 . S
O126 C125 1.218 . S
C127 O120 1.275 . S
C127 O122 1.255 1_545 S
C128 O129 1.258 . S
C128 O130 1.256 . S
O129 Cd121 2.381 . S
O129 C128 1.258 . S
O130 Cd121 2.378 . S
O130 C128 1.256 . S
O131 Cd132 2.300 . S
O131 C138 1.275 . S
Cd132 O131 2.300 . S
Cd132 O140 2.381 . S
Cd132 O141 2.378 . S
O133 Cd134 2.385 . S
O133 C138 1.255 . S
Cd134 O133 2.385 . S
Cd134 O135 2.317 . S
O135 Cd134 2.317 . S
O135 C136 1.232 . S
C136 O135 1.232 . S
C136 O137 1.218 . S
O137 C136 1.218 . S
C138 O131 1.275 . S
C138 O133 1.255 . S
C139 O140 1.258 . S
C139 O141 1.256 . S
O140 Cd132 2.381 . S
O140 C139 1.258 . S
O141 Cd132 2.378 . S
O141 C139 1.256 . S
O142 Cd143 2.300 . S
O142 C149 1.275 . S
Cd143 O142 2.300 . S
Cd143 O151 2.381 . S
Cd143 O152 2.378 . S
O144 Cd145 2.385 . S
O144 C149 1.255 1_655 S
Cd145 O144 2.385 . S
Cd145 O146 2.317 . S
O146 Cd145 2.317 . S
O146 C147 1.232 . S
C147 O146 1.232 . S
C147 O148 1.218 . S
O148 C147 1.218 . S
C149 O142 1.275 . S
C149 O144 1.255 1_455 S
C150 O151 1.258 . S
C150 O152 1.256 . S
O151 Cd143 2.381 . S
O151 C150 1.258 . S
O152 Cd143 2.378 . S
O152 C150 1.256 . S
O153 Cd154 2.300 . S
O153 C160 1.275 1_455 S
Cd154 O153 2.300 . S
Cd154 O162 2.381 . S
Cd154 O163 2.378 . S
O155 Cd156 2.385 . S
O155 C160 1.255 . S
Cd156 O155 2.385 . S
Cd156 O157 2.317 . S
O157 Cd156 2.317 . S
O157 C158 1.232 . S
C158 O157 1.232 . S
C158 O159 1.218 . S
O159 C158 1.218 . S
C160 O153 1.275 1_655 S
C160 O155 1.255 . S
C161 O162 1.258 . S
C161 O163 1.256 . S
O162 Cd154 2.381 . S
O162 C161 1.258 . S
O163 Cd154 2.378 . S
O163 C161 1.256 . S
O164 Cd165 2.300 . S
O164 C171 1.275 1_565 S
Cd165 O164 2.300 . S
Cd165 O173 2.381 . S
Cd165 O174 2.378 . S
O166 Cd167 2.385 . S
O166 C171 1.255 . S
Cd167 O166 2.385 . S
Cd167 O168 2.317 . S
O168 Cd167 2.317 . S
O168 C169 1.232 . S
C169 O168 1.232 . S
C169 O170 1.218 . S
O170 C169 1.218 . S
C171 O164 1.275 1_545 S
C171 O166 1.255 . S
C172 O173 1.258 . S
C172 O174 1.256 . S
O173 Cd165 2.381 . S
O173 C172 1.258 . S
O174 Cd165 2.378 . S
O174 C172 1.256 . S
O175 Cd176 2.300 . S
O175 C182 1.275 . S
Cd176 O175 2.300 . S
Cd176 O184 2.381 . S
Cd176 O185 2.378 . S
O177 Cd178 2.385 . S
O177 C182 1.255 . S
Cd178 O177 2.385 . S
Cd178 O179 2.317 . S
O179 Cd178 2.317 . S
O179 C180 1.232 . S
C180 O179 1.232 . S
C180 O181 1.218 . S
O181 C180 1.218 . S
C182 O175 1.275 . S
C182 O177 1.255 . S
C183 O184 1.258 . S
C183 O185 1.256 . S
O184 Cd176 2.381 . S
O184 C183 1.258 . S
O185 Cd176 2.378 . S
O185 C183 1.256 . S
C186 C187 1.363 . S
C186 C192 1.379 . S
C186 N194 1.356 . S
C187 C186 1.363 . S
C187 C193 1.363 . S
C188 C189 1.363 . S
C188 C193 1.379 . S
C188 N195 1.356 . S
C189 C188 1.363 . S
C189 C192 1.363 . S
N190 C192 1.356 . S
N190 H202 0.984 . S
N190 H203 0.985 . S
N191 C193 1.356 . S
N191 H196 0.984 . S
N191 H197 0.985 . S
C192 C186 1.379 . S
C192 C189 1.363 . S
C192 N190 1.356 . S
C193 C187 1.363 . S
C193 C188 1.379 . S
C193 N191 1.356 . S
N194 C186 1.356 . S
N194 H200 0.984 . S
N194 H201 0.984 . S
N195 C188 1.356 . S
N195 H198 0.984 . S
N195 H199 0.985 . S
H196 N191 0.984 . S
H197 N191 0.985 . S
H198 N195 0.984 . S
H199 N195 0.985 . S
H200 N194 0.984 . S
H201 N194 0.984 . S
H202 N190 0.984 . S
H203 N190 0.985 . S
C204 C205 1.363 . S
C204 C210 1.379 . S
C204 N212 1.356 . S
C205 C204 1.363 . S
C205 C211 1.363 . S
C206 C207 1.363 . S
C206 C211 1.379 . S
C206 N213 1.356 . S
C207 C206 1.363 . S
C207 C210 1.363 . S
N208 C210 1.356 . S
N208 H220 0.984 . S
N208 H221 0.985 . S
N209 C211 1.356 . S
N209 H214 0.984 . S
N209 H215 0.985 . S
C210 C204 1.379 . S
C210 C207 1.363 . S
C210 N208 1.356 . S
C211 C205 1.363 . S
C211 C206 1.379 . S
C211 N209 1.356 . S
N212 C204 1.356 . S
N212 H218 0.984 . S
N212 H219 0.984 . S
N213 C206 1.356 . S
N213 H216 0.984 . S
N213 H217 0.985 . S
H214 N209 0.984 . S
H215 N209 0.985 . S
H216 N213 0.984 . S
H217 N213 0.985 . S
H218 N212 0.984 . S
H219 N212 0.984 . S
H220 N208 0.984 . S
H221 N208 0.985 . S
C222 C223 1.363 . S
C222 C228 1.379 . S
C222 N230 1.356 . S
C223 C222 1.363 . S
C223 C229 1.363 . S
C224 C225 1.363 . S
C224 C229 1.379 . S
C224 N231 1.356 . S
C225 C224 1.363 . S
C225 C228 1.363 . S
N226 C228 1.356 . S
N226 H238 0.984 . S
N226 H239 0.985 . S
N227 C229 1.356 . S
N227 H232 0.984 . S
N227 H233 0.985 . S
C228 C222 1.379 . S
C228 C225 1.363 . S
C228 N226 1.356 . S
C229 C223 1.363 . S
C229 C224 1.379 . S
C229 N227 1.356 . S
N230 C222 1.356 . S
N230 H236 0.984 . S
N230 H237 0.984 . S
N231 C224 1.356 . S
N231 H234 0.984 . S
N231 H235 0.985 . S
H232 N227 0.984 . S
H233 N227 0.985 . S
H234 N231 0.984 . S
H235 N231 0.985 . S
H236 N230 0.984 . S
H237 N230 0.984 . S
H238 N226 0.984 . S
H239 N226 0.985 . S
C240 C241 1.363 . S
C240 C246 1.379 . S
C240 N248 1.356 . S
C241 C240 1.363 . S
C241 C247 1.363 . S
C242 C243 1.363 . S
C242 C247 1.379 . S
C242 N249 1.356 . S
C243 C242 1.363 . S
C243 C246 1.363 . S
N244 C246 1.356 . S
N244 H256 0.984 . S
N244 H257 0.985 . S
N245 C247 1.356 . S
N245 H250 0.984 . S
N245 H251 0.985 . S
C246 C240 1.379 . S
C246 C243 1.363 . S
C246 N244 1.356 . S
C247 C241 1.363 . S
C247 C242 1.379 . S
C247 N245 1.356 . S
N248 C240 1.356 . S
N248 H254 0.984 . S
N248 H255 0.984 . S
N249 C242 1.356 . S
N249 H252 0.984 . S
N249 H253 0.985 . S
H250 N245 0.984 . S
H251 N245 0.985 . S
H252 N249 0.984 . S
H253 N249 0.985 . S
H254 N248 0.984 . S
H255 N248 0.984 . S
H256 N244 0.984 . S
H257 N244 0.985 . S
C258 C259 1.363 . S
C258 C264 1.379 . S
C258 N266 1.356 . S
C259 C258 1.363 . S
C259 C265 1.363 . S
C260 C261 1.363 . S
C260 C265 1.379 . S
C260 N267 1.356 . S
C261 C260 1.363 . S
C261 C264 1.363 . S
N262 C264 1.356 . S
N262 H274 0.984 . S
N262 H275 0.985 . S
N263 C265 1.356 . S
N263 H268 0.984 . S
N263 H269 0.985 . S
C264 C258 1.379 . S
C264 C261 1.363 . S
C264 N262 1.356 . S
C265 C259 1.363 . S
C265 C260 1.379 . S
C265 N263 1.356 . S
N266 C258 1.356 . S
N266 H272 0.984 . S
N266 H273 0.984 . S
N267 C260 1.356 . S
N267 H270 0.984 . S
N267 H271 0.985 . S
H268 N263 0.984 . S
H269 N263 0.985 . S
H270 N267 0.984 . S
H271 N267 0.985 . S
H272 N266 0.984 . S
H273 N266 0.984 . S
H274 N262 0.984 . S
H275 N262 0.985 . S
C276 C277 1.363 . S
C276 C282 1.379 . S
C276 N284 1.356 . S
C277 C276 1.363 . S
C277 C283 1.363 . S
C278 C279 1.363 . S
C278 C283 1.379 . S
C278 N285 1.356 . S
C279 C278 1.363 . S
C279 C282 1.363 . S
N280 C282 1.356 . S
N280 H292 0.984 . S
N280 H293 0.985 . S
N281 C283 1.356 . S
N281 H286 0.984 . S
N281 H287 0.985 . S
C282 C276 1.379 . S
C282 C279 1.363 . S
C282 N280 1.356 . S
C283 C277 1.363 . S
C283 C278 1.379 . S
C283 N281 1.356 . S
N284 C276 1.356 . S
N284 H290 0.984 . S
N284 H291 0.984 . S
N285 C278 1.356 . S
N285 H288 0.984 . S
N285 H289 0.985 . S
H286 N281 0.984 . S
H287 N281 0.985 . S
H288 N285 0.984 . S
H289 N285 0.985 . S
H290 N284 0.984 . S
H291 N284 0.984 . S
H292 N280 0.984 . S
H293 N280 0.985 . S
C294 C295 1.363 . S
C294 C300 1.379 . S
C294 N302 1.356 . S
C295 C294 1.363 . S
C295 C301 1.363 . S
C296 C297 1.363 . S
C296 C301 1.379 . S
C296 N303 1.356 . S
C297 C296 1.363 . S
C297 C300 1.363 . S
N298 C300 1.356 . S
N298 H310 0.984 . S
N298 H311 0.985 . S
N299 C301 1.356 . S
N299 H304 0.984 . S
N299 H305 0.985 . S
C300 C294 1.379 . S
C300 C297 1.363 . S
C300 N298 1.356 . S
C301 C295 1.363 . S
C301 C296 1.379 . S
C301 N299 1.356 . S
N302 C294 1.356 . S
N302 H308 0.984 . S
N302 H309 0.984 . S
N303 C296 1.356 . S
N303 H306 0.984 . S
N303 H307 0.985 . S
H304 N299 0.984 . S
H305 N299 0.985 . S
H306 N303 0.984 . S
H307 N303 0.985 . S
H308 N302 0.984 . S
H309 N302 0.984 . S
H310 N298 0.984 . S
H311 N298 0.985 . S
C312 C313 1.363 . S
C312 C318 1.379 . S
C312 N320 1.356 . S
C313 C312 1.363 . S
C313 C319 1.363 . S
C314 C315 1.363 . S
C314 C319 1.379 . S
C314 N321 1.356 . S
C315 C314 1.363 . S
C315 C318 1.363 . S
N316 C318 1.356 . S
N316 H328 0.984 . S
N316 H329 0.985 . S
N317 C319 1.356 . S
N317 H322 0.984 . S
N317 H323 0.985 . S
C318 C312 1.379 . S
C318 C315 1.363 . S
C318 N316 1.356 . S
C319 C313 1.363 . S
C319 C314 1.379 . S
C319 N317 1.356 . S
N320 C312 1.356 . S
N320 H326 0.984 . S
N320 H327 0.984 . S
N321 C314 1.356 . S
N321 H324 0.984 . S
N321 H325 0.985 . S
H322 N317 0.984 . S
H323 N317 0.985 . S
H324 N321 0.984 . S
H325 N321 0.985 . S
H326 N320 0.984 . S
H327 N320 0.984 . S
H328 N316 0.984 . S
H329 N316 0.985 . S
C330 C331 1.363 . S
C330 C336 1.379 . S
C330 N338 1.356 . S
C331 C330 1.363 . S
C331 C337 1.363 . S
C332 C333 1.363 . S
C332 C337 1.379 . S
C332 N339 1.356 . S
C333 C332 1.363 . S
C333 C336 1.363 . S
N334 C336 1.356 . S
N334 H346 0.984 . S
N334 H347 0.985 . S
N335 C337 1.356 . S
N335 H340 0.984 . S
N335 H341 0.985 . S
C336 C330 1.379 . S
C336 C333 1.363 . S
C336 N334 1.356 . S
C337 C331 1.363 . S
C337 C332 1.379 . S
C337 N335 1.356 . S
N338 C330 1.356 . S
N338 H344 0.984 . S
N338 H345 0.984 . S
N339 C332 1.356 . S
N339 H342 0.984 . S
N339 H343 0.985 . S
H340 N335 0.984 . S
H341 N335 0.985 . S
H342 N339 0.984 . S
H343 N339 0.985 . S
H344 N338 0.984 . S
H345 N338 0.984 . S
H346 N334 0.984 . S
H347 N334 0.985 . S
C348 C349 1.363 . S
C348 C354 1.379 . S
C348 N356 1.356 . S
C349 C348 1.363 . S
C349 C355 1.363 . S
C350 C351 1.363 . S
C350 C355 1.379 . S
C350 N357 1.356 . S
C351 C350 1.363 . S
C351 C354 1.363 . S
N352 C354 1.356 . S
N352 H364 0.984 . S
N352 H365 0.985 . S
N353 C355 1.356 . S
N353 H358 0.984 . S
N353 H359 0.985 . S
C354 C348 1.379 . S
C354 C351 1.363 . S
C354 N352 1.356 . S
C355 C349 1.363 . S
C355 C350 1.379 . S
C355 N353 1.356 . S
N356 C348 1.356 . S
N356 H362 0.984 . S
N356 H363 0.984 . S
N357 C350 1.356 . S
N357 H360 0.984 . S
N357 H361 0.985 . S
H358 N353 0.984 . S
H359 N353 0.985 . S
H360 N357 0.984 . S
H361 N357 0.985 . S
H362 N356 0.984 . S
H363 N356 0.984 . S
H364 N352 0.984 . S
H365 N352 0.985 . S
C366 C367 1.363 . S
C366 C372 1.379 . S
C366 N374 1.356 . S
C367 C366 1.363 . S
C367 C373 1.363 . S
C368 C369 1.363 . S
C368 C373 1.379 . S
C368 N375 1.356 . S
C369 C368 1.363 . S
C369 C372 1.363 . S
N370 C372 1.356 . S
N370 H382 0.984 . S
N370 H383 0.985 . S
N371 C373 1.356 . S
N371 H376 0.984 . S
N371 H377 0.985 . S
C372 C366 1.379 . S
C372 C369 1.363 . S
C372 N370 1.356 . S
C373 C367 1.363 . S
C373 C368 1.379 . S
C373 N371 1.356 . S
N374 C366 1.356 . S
N374 H380 0.984 . S
N374 H381 0.984 . S
N375 C368 1.356 . S
N375 H378 0.984 . S
N375 H379 0.985 . S
H376 N371 0.984 . S
H377 N371 0.985 . S
H378 N375 0.984 . S
H379 N375 0.985 . S
H380 N374 0.984 . S
H381 N374 0.984 . S
H382 N370 0.984 . S
H383 N370 0.985 . S
C384 C385 1.363 . S
C384 C390 1.379 . S
C384 N392 1.356 . S
C385 C384 1.363 . S
C385 C391 1.363 . S
C386 C387 1.363 . S
C386 C391 1.379 . S
C386 N393 1.356 . S
C387 C386 1.363 . S
C387 C390 1.363 . S
N388 C390 1.356 . S
N388 H400 0.984 . S
N388 H401 0.985 . S
N389 C391 1.356 . S
N389 H394 0.984 . S
N389 H395 0.985 . S
C390 C384 1.379 . S
C390 C387 1.363 . S
C390 N388 1.356 . S
C391 C385 1.363 . S
C391 C386 1.379 . S
C391 N389 1.356 . S
N392 C384 1.356 . S
N392 H398 0.984 . S
N392 H399 0.984 . S
N393 C386 1.356 . S
N393 H396 0.984 . S
N393 H397 0.985 . S
H394 N389 0.984 . S
H395 N389 0.985 . S
H396 N393 0.984 . S
H397 N393 0.985 . S
H398 N392 0.984 . S
H399 N392 0.984 . S
H400 N388 0.984 . S
H401 N388 0.985 . S
C402 C403 1.363 . S
C402 C408 1.379 . S
C402 N410 1.356 . S
C403 C402 1.363 . S
C403 C409 1.363 . S
C404 C405 1.363 1_554 S
C404 C409 1.379 . S
C404 N411 1.356 1_554 S
C405 C404 1.363 1_556 S
C405 C408 1.363 1_556 S
N406 C408 1.356 1_556 S
N406 H418 0.984 1_556 S
N406 H419 0.985 . S
N407 C409 1.356 . S
N407 H412 0.984 . S
N407 H413 0.985 . S
C408 C402 1.379 . S
C408 C405 1.363 1_554 S
C408 N406 1.356 1_554 S
C409 C403 1.363 . S
C409 C404 1.379 . S
C409 N407 1.356 . S
N410 C402 1.356 . S
N410 H416 0.984 . S
N410 H417 0.984 . S
N411 C404 1.356 1_556 S
N411 H414 0.984 . S
N411 H415 0.985 . S
H412 N407 0.984 . S
H413 N407 0.985 . S
H414 N411 0.984 . S
H415 N411 0.985 . S
H416 N410 0.984 . S
H417 N410 0.984 . S
H418 N406 0.984 1_554 S
H419 N406 0.985 . S
C420 C421 1.363 1_565 S
C420 C426 1.379 . S
C420 N428 1.356 . S
C421 C420 1.363 1_545 S
C421 C427 1.363 . S
C422 C423 1.363 . S
C422 C427 1.379 . S
C422 N429 1.356 . S
C423 C422 1.363 . S
C423 C426 1.363 1_545 S
N424 C426 1.356 . S
N424 H436 0.984 . S
N424 H437 0.985 . S
N425 C427 1.356 . S
N425 H430 0.984 . S
N425 H431 0.985 . S
C426 C420 1.379 . S
C426 C423 1.363 1_565 S
C426 N424 1.356 . S
C427 C421 1.363 . S
C427 C422 1.379 . S
C427 N425 1.356 . S
N428 C420 1.356 . S
N428 H434 0.984 . S
N428 H435 0.984 . S
N429 C422 1.356 . S
N429 H432 0.984 . S
N429 H433 0.985 . S
H430 N425 0.984 . S
H431 N425 0.985 . S
H432 N429 0.984 . S
H433 N429 0.985 . S
H434 N428 0.984 . S
H435 N428 0.984 . S
H436 N424 0.984 . S
H437 N424 0.985 . S
C438 C439 1.363 . S
C438 C444 1.379 . S
C438 N446 1.356 . S
C439 C438 1.363 . S
C439 C445 1.363 . S
C440 C441 1.363 . S
C440 C445 1.379 . S
C440 N447 1.356 . S
C441 C440 1.363 . S
C441 C444 1.363 . S
N442 C444 1.356 . S
N442 H454 0.984 . S
N442 H455 0.985 . S
N443 C445 1.356 . S
N443 H448 0.984 . S
N443 H449 0.985 . S
C444 C438 1.379 . S
C444 C441 1.363 . S
C444 N442 1.356 . S
C445 C439 1.363 . S
C445 C440 1.379 . S
C445 N443 1.356 . S
N446 C438 1.356 . S
N446 H452 0.984 . S
N446 H453 0.984 . S
N447 C440 1.356 . S
N447 H450 0.984 . S
N447 H451 0.985 . S
H448 N443 0.984 . S
H449 N443 0.985 . S
H450 N447 0.984 . S
H451 N447 0.985 . S
H452 N446 0.984 . S
H453 N446 0.984 . S
H454 N442 0.984 . S
H455 N442 0.985 . S
C456 C457 1.363 1_565 S
C456 C462 1.379 . S
C456 N464 1.356 . S
C457 C456 1.363 1_545 S
C457 C463 1.363 . S
C458 C459 1.363 . S
C458 C463 1.379 . S
C458 N465 1.356 . S
C459 C458 1.363 . S
C459 C462 1.363 1_545 S
N460 C462 1.356 . S
N460 H472 0.984 . S
N460 H473 0.985 . S
N461 C463 1.356 . S
N461 H466 0.984 . S
N461 H467 0.985 . S
C462 C456 1.379 . S
C462 C459 1.363 1_565 S
C462 N460 1.356 . S
C463 C457 1.363 . S
C463 C458 1.379 . S
C463 N461 1.356 . S
N464 C456 1.356 . S
N464 H470 0.984 . S
N464 H471 0.984 . S
N465 C458 1.356 . S
N465 H468 0.984 . S
N465 H469 0.985 . S
H466 N461 0.984 . S
H467 N461 0.985 . S
H468 N465 0.984 . S
H469 N465 0.985 . S
H470 N464 0.984 . S
H471 N464 0.984 . S
H472 N460 0.984 . S
H473 N460 0.985 . S
C474 C475 1.363 . S
C474 C480 1.379 . S
C474 N482 1.356 . S
C475 C474 1.363 . S
C475 C481 1.363 . S
C476 C477 1.363 . S
C476 C481 1.379 1_554 S
C476 N483 1.356 . S
C477 C476 1.363 . S
C477 C480 1.363 1_554 S
N478 C480 1.356 1_554 S
N478 H490 0.984 1_554 S
N478 H491 0.985 . S
N479 C481 1.356 . S
N479 H484 0.984 . S
N479 H485 0.985 . S
C480 C474 1.379 . S
C480 C477 1.363 1_556 S
C480 N478 1.356 1_556 S
C481 C475 1.363 . S
C481 C476 1.379 1_556 S
C481 N479 1.356 . S
N482 C474 1.356 . S
N482 H488 0.984 . S
N482 H489 0.984 . S
N483 C476 1.356 . S
N483 H486 0.984 . S
N483 H487 0.985 . S
H484 N479 0.984 . S
H485 N479 0.985 . S
H486 N483 0.984 . S
H487 N483 0.985 . S
H488 N482 0.984 . S
H489 N482 0.984 . S
H490 N478 0.984 1_556 S
H491 N478 0.985 . S
C492 C493 1.363 . S
C492 C498 1.379 . S
C492 N500 1.356 . S
C493 C492 1.363 . S
C493 C499 1.363 1_455 S
C494 C495 1.363 . S
C494 C499 1.379 . S
C494 N501 1.356 . S
C495 C494 1.363 . S
C495 C498 1.363 1_655 S
N496 C498 1.356 . S
N496 H508 0.984 . S
N496 H509 0.985 . S
N497 C499 1.356 . S
N497 H502 0.984 . S
N497 H503 0.985 . S
C498 C492 1.379 . S
C498 C495 1.363 1_455 S
C498 N496 1.356 . S
C499 C493 1.363 1_655 S
C499 C494 1.379 . S
C499 N497 1.356 . S
N500 C492 1.356 . S
N500 H506 0.984 . S
N500 H507 0.984 . S
N501 C494 1.356 . S
N501 H504 0.984 . S
N501 H505 0.985 . S
H502 N497 0.984 . S
H503 N497 0.985 . S
H504 N501 0.984 . S
H505 N501 0.985 . S
H506 N500 0.984 . S
H507 N500 0.984 . S
H508 N496 0.984 . S
H509 N496 0.985 . S
C187 C9 0.750 . S
C189 C180 0.750 . S
C205 C49 0.605 . S
C207 C158 0.648 . S
C223 C89 0.400 . S
C225 C172 0.394 . S
C241 C26 0.595 . S
C243 C183 0.508 . S
C261 C161 0.471 . S
C259 C66 0.641 . S
C279 C169 0.765 . S
C277 C106 0.785 . S
C295 C43 3.170 . S
C297 C136 2.817 . S
C313 C83 3.241 . S
C315 C147 2.878 . S
C331 C22 3.275 . S
C333 C125 2.895 . S
C351 C139 2.971 . S
C349 C62 3.068 . S
C369 C150 2.895 . S
C367 C102 2.979 . S
C385 C3 2.945 . S
C387 C128 2.866 . S
C405 C149 1.697 . S
C403 C15 1.711 . S
C421 C55 1.721 . S
C423 C127 1.701 . S
C439 C95 1.770 . S
C441 C138 1.700 . S
C459 C171 1.076 . S
C457 C42 1.127 . S
C477 C182 1.087 . S
C475 C82 1.156 . S
C493 C2 1.153 . S
C495 C160 1.108 . S
