# Generated by pormake.
# Topology pyr, (3,6)-cn, num edge types: 1
# Building blocks:
#     Node 0, Type 0, BuildingBlock: OLANEW_clean_sbu_2, # of connection points: 3
#     Node 1, Type 0, BuildingBlock: OLANEW_clean_sbu_2, # of connection points: 3
#     Node 2, Type 0, BuildingBlock: OLANEW_clean_sbu_2, # of connection points: 3
#     Node 3, Type 0, BuildingBlock: OLANEW_clean_sbu_2, # of connection points: 3
#     Node 4, Type 0, BuildingBlock: OLANEW_clean_sbu_2, # of connection points: 3
#     Node 5, Type 0, BuildingBlock: OLANEW_clean_sbu_2, # of connection points: 3
#     Node 6, Type 0, BuildingBlock: OLANEW_clean_sbu_2, # of connection points: 3
#     Node 7, Type 0, BuildingBlock: OLANEW_clean_sbu_2, # of connection points: 3
#     Node 8, Type 1, BuildingBlock: BETGAK_clean_sbu_0, # of connection points: 6
#     Node 9, Type 1, BuildingBlock: BETGAK_clean_sbu_0, # of connection points: 6
#     Node 10, Type 1, BuildingBlock: BETGAK_clean_sbu_0, # of connection points: 6
#     Node 11, Type 1, BuildingBlock: BETGAK_clean_sbu_0, # of connection points: 6
#     Edge 12, Type (0, 1), BuildingBlock: MIFKUJ_clean_linker_0, # of connection points: 2
#     Edge 13, Type (0, 1), BuildingBlock: MIFKUJ_clean_linker_0, # of connection points: 2
#     Edge 14, Type (0, 1), BuildingBlock: MIFKUJ_clean_linker_0, # of connection points: 2
#     Edge 15, Type (0, 1), BuildingBlock: MIFKUJ_clean_linker_0, # of connection points: 2
#     Edge 16, Type (0, 1), BuildingBlock: MIFKUJ_clean_linker_0, # of connection points: 2
#     Edge 17, Type (0, 1), BuildingBlock: MIFKUJ_clean_linker_0, # of connection points: 2
#     Edge 18, Type (0, 1), BuildingBlock: MIFKUJ_clean_linker_0, # of connection points: 2
#     Edge 19, Type (0, 1), BuildingBlock: MIFKUJ_clean_linker_0, # of connection points: 2
#     Edge 20, Type (0, 1), BuildingBlock: MIFKUJ_clean_linker_0, # of connection points: 2
#     Edge 21, Type (0, 1), BuildingBlock: MIFKUJ_clean_linker_0, # of connection points: 2
#     Edge 22, Type (0, 1), BuildingBlock: MIFKUJ_clean_linker_0, # of connection points: 2
#     Edge 23, Type (0, 1), BuildingBlock: MIFKUJ_clean_linker_0, # of connection points: 2
#     Edge 24, Type (0, 1), BuildingBlock: MIFKUJ_clean_linker_0, # of connection points: 2
#     Edge 25, Type (0, 1), BuildingBlock: MIFKUJ_clean_linker_0, # of connection points: 2
#     Edge 26, Type (0, 1), BuildingBlock: MIFKUJ_clean_linker_0, # of connection points: 2
#     Edge 27, Type (0, 1), BuildingBlock: MIFKUJ_clean_linker_0, # of connection points: 2
#     Edge 28, Type (0, 1), BuildingBlock: MIFKUJ_clean_linker_0, # of connection points: 2
#     Edge 29, Type (0, 1), BuildingBlock: MIFKUJ_clean_linker_0, # of connection points: 2
#     Edge 30, Type (0, 1), BuildingBlock: MIFKUJ_clean_linker_0, # of connection points: 2
#     Edge 31, Type (0, 1), BuildingBlock: MIFKUJ_clean_linker_0, # of connection points: 2
#     Edge 32, Type (0, 1), BuildingBlock: MIFKUJ_clean_linker_0, # of connection points: 2
#     Edge 33, Type (0, 1), BuildingBlock: MIFKUJ_clean_linker_0, # of connection points: 2
#     Edge 34, Type (0, 1), BuildingBlock: MIFKUJ_clean_linker_0, # of connection points: 2
#     Edge 35, Type (0, 1), BuildingBlock: MIFKUJ_clean_linker_0, # of connection points: 2
# Relax obj value: 0.096
# Max RMSD: 0.162
# Mean RMSD: 0.119
data_MOF--net-pyr--node1-OLANEW_clean_sbu_2--node2-BETGAK_clean_sbu_0--edge1-MIFKUJ_clean_linker_0
_symmetry_space_group_name_H-M    P1
_symmetry_Int_Tables_number       1
_symmetry_cell_setting            triclinic
loop_
_symmetry_equiv_pos_as_xyz
'x, y, z'
_cell_length_a     51.925412
_cell_length_b     57.012637
_cell_length_c     50.388084
_cell_angle_alpha  96.003391
_cell_angle_beta   87.976534
_cell_angle_gamma 101.84494
loop_
_atom_site_label
_atom_site_type_symbol
_atom_site_fract_x
_atom_site_fract_y
_atom_site_fract_z
_atom_type_partial_charge
O0 O 0.34807 0.273 0.20072 0.0
Cd1 Cd 0.33111 0.30873 0.22189 0.0
O2 O 0.32879 0.25379 0.23361 0.0
Cd3 Cd 0.31694 0.22678 0.26177 0.0
O4 O 0.29274 0.21243 0.29516 0.0
C5 C 0.28903 0.22636 0.31576 0.0
O6 O 0.3009 0.24914 0.31719 0.0
C7 C 0.34356 0.25404 0.21292 0.0
C8 C 0.29364 0.33105 0.2006 0.0
O9 O 0.31814 0.33671 0.19435 0.0
O10 O 0.28658 0.31387 0.21553 0.0
O11 O 0.33347 0.89263 0.65234 0.0
Cd12 Cd 0.309 0.8742 0.61258 0.0
O13 O 0.29884 0.87098 0.6695 0.0
Cd14 Cd 0.26576 0.85791 0.69553 0.0
O15 O 0.23271 0.86959 0.67931 0.0
C16 C 0.23965 0.88888 0.668 0.0
O17 O 0.26427 0.9004 0.6695 0.0
C18 C 0.32052 0.88598 0.67301 0.0
C19 C 0.32427 0.83086 0.59902 0.0
O20 O 0.33408 0.84944 0.58696 0.0
O21 O 0.30635 0.8325 0.61685 0.0
O22 O 0.71337 0.38711 0.85385 0.0
Cd23 Cd 0.67653 0.37622 0.81922 0.0
O24 O 0.70545 0.35841 0.88176 0.0
Cd25 Cd 0.67954 0.32386 0.89509 0.0
O26 O 0.65515 0.28809 0.90699 0.0
C27 C 0.64928 0.28445 0.93132 0.0
O28 O 0.65753 0.30211 0.94988 0.0
C29 C 0.71993 0.3778 0.87419 0.0
C30 C 0.65873 0.40506 0.78231 0.0
O31 O 0.64571 0.39953 0.80366 0.0
O32 O 0.68092 0.3985 0.77893 0.0
O33 O 0.92193 0.72381 0.37634 0.0
Cd34 Cd 0.90704 0.68136 0.35485 0.0
O35 O 0.89114 0.71794 0.40779 0.0
Cd36 Cd 0.87039 0.68184 0.39378 0.0
O37 O 0.83253 0.65882 0.40195 0.0
C38 C 0.82282 0.66428 0.42471 0.0
O39 O 0.83642 0.68188 0.4406 0.0
C40 C 0.91081 0.73136 0.39769 0.0
C41 C 0.92262 0.66154 0.30397 0.0
O42 O 0.90129 0.66965 0.30696 0.0
O43 O 0.93735 0.66408 0.32441 0.0
O44 O 0.72013 0.75393 0.7992 0.0
Cd45 Cd 0.69874 0.72378 0.82815 0.0
O46 O 0.70005 0.78127 0.81904 0.0
Cd47 Cd 0.68632 0.81501 0.83007 0.0
O48 O 0.66543 0.84105 0.85199 0.0
C49 C 0.64281 0.83363 0.86219 0.0
O50 O 0.63224 0.81054 0.85875 0.0
C51 C 0.71638 0.77539 0.80139 0.0
C52 C 0.7361 0.70111 0.84731 0.0
O53 O 0.72425 0.69299 0.82534 0.0
O54 O 0.73008 0.71982 0.86035 0.0
O55 O 0.69959 0.14389 0.45061 0.0
Cd56 Cd 0.71847 0.15282 0.49484 0.0
O57 O 0.73177 0.17169 0.43787 0.0
Cd58 Cd 0.74536 0.20303 0.41627 0.0
O59 O 0.73301 0.2347 0.43653 0.0
C60 C 0.71224 0.22943 0.45068 0.0
O61 O 0.70038 0.20676 0.45061 0.0
C62 C 0.71049 0.15664 0.43258 0.0
C63 C 0.76631 0.13887 0.49612 0.0
O64 O 0.74443 0.12392 0.49825 0.0
O65 O 0.76574 0.16086 0.49339 0.0
O66 O 0.41309 0.75957 0.22397 0.0
Cd67 Cd 0.41023 0.71967 0.24801 0.0
O68 O 0.38212 0.75034 0.19253 0.0
Cd69 Cd 0.35388 0.71485 0.1907 0.0
O70 O 0.31896 0.68734 0.1748 0.0
C71 C 0.29856 0.69431 0.16782 0.0
O72 O 0.29855 0.71748 0.17087 0.0
C73 C 0.40142 0.7652 0.20394 0.0
C74 C 0.42482 0.69537 0.29251 0.0
O75 O 0.44171 0.71134 0.28141 0.0
O76 O 0.4012 0.6917 0.28398 0.0
O77 O 0.17432 0.4095 0.73236 0.0
Cd78 Cd 0.1936 0.38953 0.69263 0.0
O79 O 0.1441 0.37682 0.7375 0.0
Cd80 Cd 0.15542 0.3515 0.70542 0.0
O81 O 0.14981 0.3153 0.68364 0.0
C82 C 0.12694 0.30641 0.6746 0.0
O83 O 0.10895 0.31971 0.67756 0.0
C84 C 0.15429 0.39872 0.74488 0.0
C85 C 0.24086 0.41345 0.66974 0.0
O86 O 0.21846 0.41647 0.6624 0.0
O87 O 0.24098 0.39988 0.68848 0.0
La88 La 0.01578 0.01893 0.5406 0.0
La89 La 0.99632 1.00491 0.59415 0.0
C90 C 0.02977 0.04134 0.50029 0.0
C91 C 0.05277 0.06019 0.49385 0.0
C92 C 0.07666 0.0539 0.48489 0.0
C93 C 0.09782 0.07144 0.47737 0.0
C94 C 0.09565 0.0957 0.47852 0.0
C95 C 0.07217 0.10219 0.48844 0.0
C96 C 0.05089 0.08459 0.4959 0.0
C97 C 0.04612 0.99663 0.56508 0.0
C98 C 0.03011 0.05589 0.59259 0.0
C99 C 0.98191 0.98444 0.63584 0.0
C100 C 0.95914 0.96647 0.64458 0.0
C101 C 0.93472 0.97287 0.65092 0.0
C102 C 0.914 0.95643 0.6612 0.0
C103 C 0.91716 0.93321 0.66544 0.0
C104 C 0.9413 0.92655 0.65838 0.0
C105 C 0.96211 0.94306 0.64818 0.0
C106 C 0.96648 0.02754 0.56945 0.0
C107 C 0.98299 0.96757 0.5419 0.0
O108 O 0.03442 0.02004 0.50305 0.0
O109 O 0.01307 0.04761 0.5184 0.0
O110 O 0.04438 0.99565 0.53953 0.0
O111 O 0.03404 0.01204 0.57587 0.0
O112 O 0.02545 0.05289 0.5667 0.0
O113 O 0.02487 0.03752 0.60729 0.0
O114 O 0.97733 1.00539 0.63148 0.0
O115 O 0.99794 0.97687 0.61784 0.0
O116 O 0.96985 0.03022 0.59487 0.0
O117 O 0.97803 0.01162 0.55894 0.0
O118 O 0.98715 0.97066 0.56797 0.0
O119 O 0.98813 0.98596 0.52724 0.0
H120 H 0.07893 0.03534 0.48315 0.0
H121 H 0.11578 0.06594 0.4701 0.0
H122 H 0.06985 0.12071 0.48934 0.0
H123 H 0.03277 0.09002 0.5027 0.0
H124 H 0.93164 0.99072 0.64841 0.0
H125 H 0.89551 0.96199 0.66603 0.0
H126 H 0.9444 0.90885 0.66157 0.0
H127 H 0.98073 0.93766 0.64362 0.0
La128 La 0.51784 0.03864 0.08152 0.0
La129 La 0.46845 0.0221 0.04327 0.0
C130 C 0.55835 0.06313 0.10404 0.0
C131 C 0.56542 0.07311 0.13156 0.0
C132 C 0.55997 0.05901 0.15316 0.0
C133 C 0.5675 0.06903 0.17897 0.0
C134 C 0.58057 0.09318 0.18338 0.0
C135 C 0.58526 0.1074 0.16197 0.0
C136 C 0.57764 0.09746 0.13627 0.0
C137 C 0.48433 1.00006 0.09843 0.0
C138 C 0.46604 0.06063 0.09322 0.0
C139 C 0.42919 0.99806 0.01841 0.0
C140 C 0.42526 0.98804 0.99027 0.0
C141 C 0.43295 1.00234 0.96908 0.0
C142 C 0.42873 0.99238 0.94262 0.0
C143 C 0.41679 0.968 0.93691 0.0
C144 C 0.41014 0.95357 0.95808 0.0
C145 C 0.41431 0.96351 0.98448 0.0
C146 C 0.50448 0.05876 0.02537 0.0
C147 C 0.51997 1.00105 0.03083 0.0
O148 O 0.55433 0.03963 0.09868 0.0
O149 O 0.54087 0.07258 0.09314 0.0
O150 O 0.50565 0.0115 0.11037 0.0
O151 O 0.48225 0.01192 0.07894 0.0
O152 O 0.49137 0.06199 0.09769 0.0
O153 O 0.45239 0.04428 0.07543 0.0
O154 O 0.43346 0.02159 0.02342 0.0
O155 O 0.44468 0.98835 0.03191 0.0
O156 O 0.4831 0.04802 0.01312 0.0
O157 O 0.50444 0.04768 0.04572 0.0
O158 O 0.49433 0.99846 0.02772 0.0
O159 O 0.53381 0.01797 0.04787 0.0
H160 H 0.55026 0.04023 0.1501 0.0
H161 H 0.56393 0.05777 0.19529 0.0
H162 H 0.59527 0.1261 0.16509 0.0
H163 H 0.58164 0.10871 0.11994 0.0
H164 H 0.44189 0.02125 0.97292 0.0
H165 H 0.43394 1.00396 0.9267 0.0
H166 H 0.4013 0.93463 0.95422 0.0
H167 H 0.40874 0.95204 1.00045 0.0
La168 La 0.53174 0.51584 0.51382 0.0
La169 La 0.52459 0.55476 0.5545 0.0
C170 C 0.55063 0.48414 0.48566 0.0
C171 C 0.56266 0.46395 0.49164 0.0
C172 C 0.54734 0.44309 0.50111 0.0
C173 C 0.55889 0.42396 0.50609 0.0
C174 C 0.58599 0.42517 0.5016 0.0
C175 C 0.60139 0.44625 0.49268 0.0
C176 C 0.58983 0.4654 0.48771 0.0
C177 C 0.48508 0.50989 0.53738 0.0
C178 C 0.54922 0.51505 0.57486 0.0
C179 C 0.50514 0.58499 0.58393 0.0
C180 C 0.495 0.60644 0.57932 0.0
C181 C 0.50859 0.62926 0.58965 0.0
C182 C 0.49847 0.64966 0.58682 0.0
C183 C 0.47475 0.64746 0.57349 0.0
C184 C 0.46167 0.62488 0.56215 0.0
C185 C 0.47168 0.60443 0.56509 0.0
C186 C 0.57166 0.56072 0.53241 0.0
C187 C 0.50853 0.55706 0.49309 0.0
O188 O 0.52551 0.48228 0.49106 0.0
O189 O 0.56406 0.50583 0.49268 0.0
O190 O 0.48881 0.50384 0.51228 0.0
O191 O 0.50692 0.51773 0.54831 0.0
O192 O 0.55241 0.50804 0.54914 0.0
O193 O 0.53504 0.53142 0.58221 0.0
O194 O 0.53051 0.58663 0.58028 0.0
O195 O 0.49146 0.56414 0.5741 0.0
O196 O 0.56705 0.56716 0.55726 0.0
O197 O 0.55021 0.55272 0.52056 0.0
O198 O 0.50753 0.5655 0.51868 0.0
O199 O 0.51953 0.53831 0.4857 0.0
H200 H 0.52636 0.44141 0.50453 0.0
H201 H 0.54653 0.40813 0.51331 0.0
H202 H 0.62225 0.44768 0.48867 0.0
H203 H 0.60211 0.48126 0.48044 0.0
H204 H 0.52669 0.63124 0.60048 0.0
H205 H 0.50868 0.66706 0.59574 0.0
H206 H 0.44311 0.62292 0.55213 0.0
H207 H 0.4608 0.58709 0.55678 0.0
La208 La 0.02203 0.49794 0.03163 0.0
La209 La 0.01467 0.54101 0.0081 0.0
C210 C 0.04162 0.46408 0.04601 0.0
C211 C 0.06395 0.46044 0.06197 0.0
C212 C 0.06143 0.45931 0.08974 0.0
C213 C 0.08122 0.45305 0.10417 0.0
C214 C 0.10406 0.44746 0.09127 0.0
C215 C 0.10691 0.44937 0.0636 0.0
C216 C 0.08716 0.45572 0.04919 0.0
C217 C 0.9957 0.52599 0.06255 0.0
C218 C 0.06636 0.5469 0.0394 0.0
C219 C 0.99616 0.57581 0.99539 0.0
C220 C 0.97331 0.58006 0.98115 0.0
C221 C 0.97476 0.58246 0.9536 0.0
C222 C 0.95426 0.58921 0.94089 0.0
C223 C 0.93201 0.59391 0.95552 0.0
C224 C 0.93014 0.59062 0.98283 0.0
C225 C 0.95057 0.58386 0.99551 0.0
C226 C 0.04285 0.51481 0.97781 0.0
C227 C 0.97032 0.49219 0.99943 0.0
O228 O 0.0225 0.47239 0.05879 0.0
O229 O 0.04727 0.47339 0.02333 0.0
O230 O 0.99062 0.50268 0.06097 0.0
O231 O 0.01562 0.53256 0.04815 0.0
O232 O 0.06032 0.52311 0.03937 0.0
O233 O 0.04942 0.55867 0.03075 0.0
O234 O 0.01398 0.56666 0.98121 0.0
O235 O 0.99132 0.56663 0.01826 0.0
O236 O 0.0472 0.53814 0.98038 0.0
O237 O 0.02244 0.50678 0.99124 0.0
O238 O 0.97696 0.51582 0.99845 0.0
O239 O 0.9864 0.48026 0.00958 0.0
H240 H 0.04384 0.46271 0.10032 0.0
H241 H 0.07838 0.45231 0.12548 0.0
H242 H 0.12394 0.44499 0.05274 0.0
H243 H 0.08972 0.45617 0.02781 0.0
H244 H 0.99209 0.57987 0.94198 0.0
H245 H 0.95636 0.59176 0.91986 0.0
H246 H 0.91306 0.59374 0.99455 0.0
H247 H 0.94883 0.58227 0.01676 0.0
H248 H 0.25697 0.182 0.31586 0.0
H249 H 0.22406 0.16787 0.34939 0.0
H250 H 0.24503 0.23601 0.39729 0.0
H251 H 0.27818 0.25049 0.36359 0.0
H252 H 0.23827 0.19475 0.42696 0.0
H253 H 0.18998 0.22827 0.36822 0.0
H254 H 0.17565 0.23706 0.32484 0.0
H255 H 0.14462 0.16178 0.30424 0.0
H256 H 0.159 0.15252 0.34741 0.0
H257 H 0.11744 0.14199 0.49924 0.0
H258 H 0.1509 0.17165 0.4779 0.0
H259 H 0.15439 0.11924 0.41035 0.0
H260 H 0.12129 0.08987 0.43126 0.0
H261 H 0.14645 0.16393 0.39693 0.0
H262 H 0.20222 0.13148 0.45428 0.0
H263 H 0.21856 0.12405 0.49737 0.0
H264 H 0.2354 0.20004 0.52162 0.0
H265 H 0.2189 0.20789 0.47873 0.0
C266 C 0.25475 0.19401 0.33354 0.0
C267 C 0.27015 0.21741 0.33696 0.0
C268 C 0.23585 0.18593 0.35266 0.0
C269 C 0.23193 0.201 0.37565 0.0
C270 C 0.24772 0.22415 0.37962 0.0
C271 C 0.26659 0.23237 0.36032 0.0
C272 C 0.21099 0.1922 0.39507 0.0
C273 C 0.21802 0.18854 0.42072 0.0
C274 C 0.1846 0.18429 0.38694 0.0
C275 C 0.17568 0.1897 0.36101 0.0
C276 C 0.18023 0.21358 0.35437 0.0
C277 C 0.17207 0.21865 0.32984 0.0
C278 C 0.15926 0.19999 0.31178 0.0
C279 C 0.15452 0.17622 0.31826 0.0
C280 C 0.16262 0.17106 0.34279 0.0
C281 C 0.12549 0.13686 0.47989 0.0
C282 C 0.11683 0.11357 0.46695 0.0
C283 C 0.14463 0.15374 0.46782 0.0
C284 C 0.15506 0.1476 0.44256 0.0
C285 C 0.14658 0.12433 0.42985 0.0
C286 C 0.12779 0.1075 0.44192 0.0
C287 C 0.17401 0.16527 0.42829 0.0
C288 C 0.16651 0.17074 0.40355 0.0
C289 C 0.19981 0.17506 0.43747 0.0
C290 C 0.20893 0.17023 0.4635 0.0
C291 C 0.20906 0.14657 0.46895 0.0
C292 C 0.21846 0.1423 0.49328 0.0
C293 C 0.22792 0.16156 0.51227 0.0
C294 C 0.228 0.18514 0.50694 0.0
C295 C 0.21864 0.1895 0.48262 0.0
H296 H 0.23526 0.15821 0.53106 0.0
H297 H 0.15298 0.20394 0.29277 0.0
H298 H 0.29284 0.88806 0.72076 0.0
H299 H 0.3105 0.90282 0.76488 0.0
H300 H 0.38788 0.92371 0.73008 0.0
H301 H 0.37053 0.90792 0.68598 0.0
H302 H 0.38989 0.89961 0.77169 0.0
H303 H 0.35029 0.96518 0.75341 0.0
H304 H 0.3148 0.98491 0.74168 0.0
H305 H 0.26971 0.96057 0.81023 0.0
H306 H 0.30474 0.94034 0.82214 0.0
H307 H 0.44626 0.97309 0.89061 0.0
H308 H 0.43157 0.95857 0.84483 0.0
H309 H 0.35517 0.92677 0.87539 0.0
H310 H 0.36963 0.94099 0.92085 0.0
H311 H 0.35405 0.95752 0.83547 0.0
H312 H 0.3926 0.89163 0.85346 0.0
H313 H 0.42645 0.86971 0.8644 0.0
H314 H 0.47239 0.89312 0.79597 0.0
H315 H 0.43913 0.91572 0.78499 0.0
C316 C 0.31363 0.89538 0.72242 0.0
C317 C 0.33034 0.89622 0.69983 0.0
C318 C 0.32365 0.90425 0.74769 0.0
C319 C 0.35051 0.91447 0.75077 0.0
C320 C 0.3671 0.91585 0.72818 0.0
C321 C 0.35711 0.90689 0.70297 0.0
C322 C 0.36164 0.92261 0.77763 0.0
C323 C 0.38242 0.91265 0.78548 0.0
C324 C 0.35128 0.93905 0.79583 0.0
C325 C 0.33006 0.95101 0.78851 0.0
C326 C 0.3327 0.96381 0.76584 0.0
C327 C 0.31268 0.97513 0.75918 0.0
C328 C 0.28998 0.97394 0.77516 0.0
C329 C 0.28728 0.96145 0.79784 0.0
C330 C 0.30722 0.95006 0.80456 0.0
C331 C 0.42642 0.96284 0.88749 0.0
C332 C 0.40909 0.9581 0.90928 0.0
C333 C 0.41812 0.95446 0.86142 0.0
C334 C 0.39231 0.94158 0.85684 0.0
C335 C 0.37518 0.93662 0.87857 0.0
C336 C 0.38353 0.94464 0.90452 0.0
C337 C 0.38234 0.93457 0.82943 0.0
C338 C 0.36174 0.94471 0.82154 0.0
C339 C 0.39283 0.91827 0.81121 0.0
C340 C 0.41356 0.9058 0.81869 0.0
C341 C 0.41016 0.89256 0.84105 0.0
C342 C 0.4292 0.87989 0.84719 0.0
C343 C 0.45162 0.88011 0.83097 0.0
C344 C 0.45508 0.89306 0.80861 0.0
C345 C 0.43617 0.90584 0.80245 0.0
H346 H 0.46624 0.87017 0.83566 0.0
H347 H 0.27452 0.98274 0.76999 0.0
H348 H 0.60705 0.40669 0.77416 0.0
H349 H 0.58874 0.42469 0.73886 0.0
H350 H 0.66689 0.44945 0.7079 0.0
H351 H 0.68528 0.43089 0.74278 0.0
H352 H 0.63657 0.48513 0.71126 0.0
H353 H 0.62777 0.40278 0.67536 0.0
H354 H 0.6139 0.35862 0.67339 0.0
H355 H 0.53293 0.36503 0.6805 0.0
H356 H 0.54634 0.40928 0.68291 0.0
H357 H 0.60091 0.5132 0.58213 0.0
H358 H 0.61951 0.49609 0.61824 0.0
H359 H 0.54159 0.47368 0.651 0.0
H360 H 0.52318 0.49171 0.61563 0.0
H361 H 0.57152 0.43691 0.64688 0.0
H362 H 0.57911 0.51829 0.68303 0.0
H363 H 0.59177 0.56258 0.68685 0.0
H364 H 0.67341 0.55833 0.68082 0.0
H365 H 0.66122 0.51395 0.67652 0.0
C366 C 0.62042 0.41605 0.75993 0.0
C367 C 0.64775 0.41733 0.76153 0.0
C368 C 0.60985 0.42624 0.73956 0.0
C369 C 0.6263 0.43841 0.72039 0.0
C370 C 0.65365 0.44016 0.72227 0.0
C371 C 0.66419 0.42951 0.7423 0.0
C372 C 0.61504 0.44952 0.69867 0.0
C373 C 0.62268 0.47447 0.69693 0.0
C374 C 0.59619 0.43593 0.68031 0.0
C375 C 0.5881 0.40938 0.67972 0.0
C376 C 0.60703 0.39481 0.67689 0.0
C377 C 0.59924 0.36975 0.67559 0.0
C378 C 0.57256 0.35903 0.67693 0.0
C379 C 0.5536 0.37336 0.67955 0.0
C380 C 0.56128 0.39843 0.68089 0.0
C381 C 0.58779 0.50456 0.59702 0.0
C382 C 0.56055 0.50367 0.59592 0.0
C383 C 0.59844 0.4949 0.61779 0.0
C384 C 0.58204 0.48353 0.63758 0.0
C385 C 0.55476 0.48231 0.63614 0.0
C386 C 0.54422 0.49262 0.61588 0.0
C387 C 0.59321 0.47249 0.65936 0.0
C388 C 0.5855 0.44756 0.66114 0.0
C389 C 0.61185 0.48612 0.67787 0.0
C390 C 0.61923 0.51276 0.679 0.0
C391 C 0.59975 0.52677 0.68203 0.0
C392 C 0.60685 0.5519 0.68442 0.0
C393 C 0.63337 0.56327 0.68397 0.0
C394 C 0.65286 0.5495 0.68107 0.0
C395 C 0.64587 0.52436 0.67864 0.0
H396 H 0.63883 0.58273 0.68596 0.0
H397 H 0.56657 0.33962 0.67585 0.0
H398 H 0.96962 0.64897 0.28875 0.0
H399 H 0.98028 0.62631 0.24723 0.0
H400 H 0.90155 0.62095 0.21943 0.0
H401 H 0.89079 0.64388 0.26087 0.0
H402 H 0.92022 0.57656 0.21058 0.0
H403 H 0.9482 0.65975 0.19396 0.0
H404 H 0.97172 0.70145 0.20625 0.0
H405 H 0.04494 0.6775 0.20596 0.0
H406 H 0.02177 0.63558 0.194 0.0
H407 H 0.94568 0.52868 0.07892 0.0
H408 H 0.93183 0.55318 0.11755 0.0
H409 H 0.01327 0.58066 0.13814 0.0
H410 H 0.02691 0.55793 0.09801 0.0
H411 H 0.99133 0.61436 0.15095 0.0
H412 H 0.96512 0.53151 0.16957 0.0
H413 H 0.94262 0.48905 0.16019 0.0
H414 H 0.86809 0.51054 0.15979 0.0
H415 H 0.89019 0.55317 0.16885 0.0
C416 C 0.95457 0.6431 0.27378 0.0
C417 C 0.9294 0.64852 0.27816 0.0
C418 C 0.96069 0.63007 0.25001 0.0
C419 C 0.94177 0.6219 0.23004 0.0
C420 C 0.91651 0.62698 0.23447 0.0
C421 C 0.91045 0.6403 0.25813 0.0
C422 C 0.9487 0.60871 0.20431 0.0
C423 C 0.93554 0.58488 0.19734 0.0
C424 C 0.9691 0.61927 0.18727 0.0
C425 C 0.98324 0.64454 0.19324 0.0
C426 C 0.96931 0.66339 0.19657 0.0
C427 C 0.98257 0.68705 0.2035 0.0
C428 C 0.0098 0.69212 0.20694 0.0
C429 C 0.02385 0.67354 0.2033 0.0
C430 C 0.01067 0.64983 0.19639 0.0
C431 C 0.96054 0.54013 0.09165 0.0
C432 C 0.98732 0.5413 0.08558 0.0
C433 C 0.95265 0.55397 0.11402 0.0
C434 C 0.97135 0.56836 0.13174 0.0
C435 C 0.99822 0.56978 0.12519 0.0
C436 C 0.00609 0.55667 0.10224 0.0
C437 C 0.9631 0.58177 0.15701 0.0
C438 C 0.97601 0.60579 0.16401 0.0
C439 C 0.94272 0.57118 0.17432 0.0
C440 C 0.92933 0.54552 0.16968 0.0
C441 C 0.94394 0.52717 0.16744 0.0
C442 C 0.93126 0.50308 0.16215 0.0
C443 C 0.90395 0.49711 0.15933 0.0
C444 C 0.88924 0.5152 0.16195 0.0
C445 C 0.90182 0.53932 0.1672 0.0
H446 H 0.89418 0.47846 0.15517 0.0
H447 H 0.02003 0.71044 0.21239 0.0
H448 H 0.32239 0.20557 0.21007 0.0
H449 H 0.34333 0.17228 0.19246 0.0
H450 H 0.41587 0.22308 0.18039 0.0
H451 H 0.39408 0.25624 0.19561 0.0
H452 H 0.41351 0.19522 0.1418 0.0
H453 H 0.40266 0.17824 0.23169 0.0
H454 H 0.38119 0.17052 0.27525 0.0
H455 H 0.32928 0.10794 0.23857 0.0
H456 H 0.35025 0.11543 0.19472 0.0
H457 H 0.48989 0.10328 0.12021 0.0
H458 H 0.46958 0.13523 0.14239 0.0
H459 H 0.39272 0.09323 0.12214 0.0
H460 H 0.41296 0.06106 0.09938 0.0
H461 H 0.39885 0.11586 0.17785 0.0
H462 H 0.41722 0.13798 0.08623 0.0
H463 H 0.44662 0.14804 0.0477 0.0
H464 H 0.49553 0.20462 0.09703 0.0
H465 H 0.46655 0.19476 0.13587 0.0
C466 C 0.34281 0.20952 0.20364 0.0
C467 C 0.3565 0.23352 0.20395 0.0
C468 C 0.35499 0.19041 0.19383 0.0
C469 C 0.38155 0.19476 0.18517 0.0
C470 C 0.39536 0.21887 0.18645 0.0
C471 C 0.38291 0.23794 0.19528 0.0
C472 C 0.39451 0.1746 0.17322 0.0
C473 C 0.41049 0.17811 0.15022 0.0
C474 C 0.39092 0.15188 0.18365 0.0
C475 C 0.37782 0.14758 0.20985 0.0
C476 C 0.38648 0.16297 0.23286 0.0
C477 C 0.37445 0.1586 0.25762 0.0
C478 C 0.35382 0.1388 0.25966 0.0
C479 C 0.34522 0.1233 0.23695 0.0
C480 C 0.35719 0.12759 0.21214 0.0
C481 C 0.46862 0.10061 0.12057 0.0
C482 C 0.4531 0.07939 0.10799 0.0
C483 C 0.45704 0.11905 0.13321 0.0
C484 C 0.4296 0.11676 0.13389 0.0
C485 C 0.41394 0.09544 0.12189 0.0
C486 C 0.42555 0.07705 0.10884 0.0
C487 C 0.41739 0.13679 0.14678 0.0
C488 C 0.40168 0.13316 0.16984 0.0
C489 C 0.42235 0.15983 0.13731 0.0
C490 C 0.43984 0.16549 0.11397 0.0
C491 C 0.43437 0.15242 0.08889 0.0
C492 C 0.45092 0.15813 0.06698 0.0
C493 C 0.47296 0.17692 0.06992 0.0
C494 C 0.47847 0.19007 0.09477 0.0
C495 C 0.46197 0.18445 0.11671 0.0
H496 H 0.48573 0.18132 0.05294 0.0
H497 H 0.34456 0.13543 0.27885 0.0
H498 H 0.25057 0.92627 0.63723 0.0
H499 H 0.21935 0.94413 0.61516 0.0
H500 H 0.15514 0.8909 0.64245 0.0
H501 H 0.18636 0.87252 0.66425 0.0
H502 H 0.1476 0.9025 0.59134 0.0
H503 H 0.17446 0.94379 0.67866 0.0
H504 H 0.2079 0.96518 0.71106 0.0
H505 H 0.23343 0.02017 0.6583 0.0
H506 H 0.20048 0.99882 0.62533 0.0
H507 H 0.03974 0.95828 0.59342 0.0
H508 H 0.07481 0.94094 0.61014 0.0
H509 H 0.13316 0.9986 0.58156 0.0
H510 H 0.09798 0.01602 0.56511 0.0
H511 H 0.1462 0.98614 0.62969 0.0
H512 H 0.11813 0.9482 0.54405 0.0
H513 H 0.08493 0.92812 0.51087 0.0
H514 H 0.06308 0.86819 0.55768 0.0
H515 H 0.09571 0.8882 0.59155 0.0
C516 C 0.22982 0.9182 0.63838 0.0
C517 C 0.2208 0.89835 0.65304 0.0
C518 C 0.21206 0.92836 0.62563 0.0
C519 C 0.18499 0.91907 0.62766 0.0
C520 C 0.17601 0.89836 0.64083 0.0
C521 C 0.19381 0.88803 0.65345 0.0
C522 C 0.16592 0.93238 0.61869 0.0
C523 C 0.14713 0.92071 0.59982 0.0
C524 C 0.16593 0.9564 0.62926 0.0
C525 C 0.1852 0.96958 0.64943 0.0
C526 C 0.1873 0.96038 0.67391 0.0
C527 C 0.20618 0.97248 0.69236 0.0
C528 C 0.22283 0.99399 0.68671 0.0
C529 C 0.22056 1.00348 0.66263 0.0
C530 C 0.2018 0.99138 0.64405 0.0
C531 C 0.06006 0.96741 0.59132 0.0
C532 C 0.06655 0.98823 0.57807 0.0
C533 C 0.07999 0.95752 0.60069 0.0
C534 C 0.10647 0.96834 0.5966 0.0
C535 C 0.11281 0.99 0.58472 0.0
C536 C 0.09287 0.99984 0.57531 0.0
C537 C 0.1275 0.95606 0.60287 0.0
C538 C 0.14674 0.96799 0.62108 0.0
C539 C 0.12809 0.93242 0.59142 0.0
C540 C 0.10923 0.91982 0.57051 0.0
C541 C 0.10616 0.9308 0.54738 0.0
C542 C 0.08741 0.91944 0.52845 0.0
C543 C 0.07185 0.89693 0.5322 0.0
C544 C 0.07511 0.88566 0.55483 0.0
C545 C 0.09374 0.89701 0.57391 0.0
H546 H 0.0573 0.88819 0.51756 0.0
H547 H 0.23744 1.00333 0.70102 0.0
H548 H 0.76422 0.40518 0.85322 0.0
H549 H 0.80616 0.42329 0.87488 0.0
H550 H 0.77577 0.39549 0.94846 0.0
H551 H 0.73389 0.37651 0.92657 0.0
H552 H 0.8037 0.44673 0.95354 0.0
H553 H 0.81642 0.36853 0.91701 0.0
H554 H 0.8176 0.33504 0.88214 0.0
H555 H 0.87463 0.38155 0.83739 0.0
H556 H 0.87346 0.41545 0.87181 0.0
H557 H 0.92617 0.46779 0.02382 0.0
H558 H 0.88359 0.44864 1.00336 0.0
H559 H 0.91496 0.46755 0.92635 0.0
H560 H 0.95715 0.48731 0.94696 0.0
H561 H 0.88631 0.42066 0.92333 0.0
H562 H 0.8742 0.49852 0.95682 0.0
H563 H 0.87395 0.53366 0.9897 0.0
H564 H 0.8168 0.49039 0.03755 0.0
H565 H 0.81702 0.45485 0.00513 0.0
C566 C 0.76635 0.40286 0.87403 0.0
C567 C 0.74544 0.38923 0.88803 0.0
C568 C 0.7905 0.41324 0.88642 0.0
C569 C 0.79441 0.41085 0.91342 0.0
C570 C 0.77343 0.39768 0.92765 0.0
C571 C 0.74944 0.38672 0.91505 0.0
C572 C 0.82042 0.42189 0.92654 0.0
C573 C 0.82166 0.44071 0.94721 0.0
C574 C 0.84425 0.41482 0.91783 0.0
C575 C 0.84457 0.39462 0.89682 0.0
C576 C 0.82894 0.37172 0.89956 0.0
C577 C 0.82968 0.35263 0.87992 0.0
C578 C 0.84611 0.35618 0.85752 0.0
C579 C 0.86186 0.37883 0.85472 0.0
C580 C 0.86116 0.39799 0.87429 0.0
C581 C 0.92397 0.4677 1.00251 0.0
C582 C 0.94506 0.47897 0.98698 0.0
C583 C 0.89956 0.45686 0.9908 0.0
C584 C 0.89576 0.45662 0.96318 0.0
C585 C 0.91714 0.46739 0.94763 0.0
C586 C 0.9413 0.47872 0.95943 0.0
C587 C 0.86958 0.44533 0.95054 0.0
C588 C 0.86834 0.42659 0.92982 0.0
C589 C 0.84583 0.45272 0.95894 0.0
C590 C 0.84589 0.47392 0.97872 0.0
C591 C 0.86181 0.49641 0.97452 0.0
C592 C 0.86162 0.51643 0.99303 0.0
C593 C 0.84544 0.51424 0.01575 0.0
C594 C 0.82938 0.49204 0.01997 0.0
C595 C 0.82952 0.47195 1.00153 0.0
H596 H 0.84527 0.52977 0.03004 0.0
H597 H 0.8467 0.34137 0.84237 0.0
H598 H 0.78603 0.63176 0.39469 0.0
H599 H 0.74235 0.61134 0.40937 0.0
H600 H 0.75665 0.64789 0.48842 0.0
H601 H 0.80003 0.6684 0.47401 0.0
H602 H 0.73826 0.59833 0.4878 0.0
H603 H 0.71744 0.66632 0.44989 0.0
H604 H 0.71537 0.6929 0.41479 0.0
H605 H 0.67081 0.63338 0.36558 0.0
H606 H 0.67293 0.60635 0.40028 0.0
H607 H 0.61692 0.58564 0.55518 0.0
H608 H 0.659 0.59966 0.53322 0.0
H609 H 0.62696 0.56545 0.45764 0.0
H610 H 0.5842 0.55223 0.47953 0.0
H611 H 0.65418 0.60905 0.4518 0.0
H612 H 0.67163 0.54174 0.49219 0.0
H613 H 0.67261 0.51614 0.52854 0.0
H614 H 0.72324 0.57468 0.57361 0.0
H615 H 0.7223 0.60072 0.53769 0.0
C616 C 0.77984 0.63542 0.41519 0.0
C617 C 0.79652 0.65163 0.43322 0.0
C618 C 0.75487 0.62385 0.42348 0.0
C619 C 0.74632 0.62818 0.44994 0.0
C620 C 0.76294 0.64429 0.46793 0.0
C621 C 0.78772 0.65601 0.45963 0.0
C622 C 0.72039 0.6155 0.45938 0.0
C623 C 0.71984 0.60073 0.48004 0.0
C624 C 0.69646 0.61812 0.44863 0.0
C625 C 0.69571 0.63423 0.42751 0.0
C626 C 0.70751 0.65882 0.43144 0.0
C627 C 0.70624 0.67399 0.41166 0.0
C628 C 0.69306 0.66482 0.38792 0.0
C629 C 0.68108 0.64045 0.38394 0.0
C630 C 0.68232 0.6252 0.40366 0.0
C631 C 0.61887 0.58096 0.53391 0.0
C632 C 0.59738 0.56775 0.51906 0.0
C633 C 0.643 0.58885 0.52139 0.0
C634 C 0.64634 0.58322 0.49384 0.0
C635 C 0.62489 0.56988 0.47894 0.0
C636 C 0.60055 0.56223 0.49146 0.0
C637 C 0.67199 0.59219 0.48068 0.0
C638 C 0.67254 0.60624 0.45928 0.0
C639 C 0.69599 0.58892 0.49073 0.0
C640 C 0.69678 0.57321 0.51228 0.0
C641 C 0.68286 0.54919 0.50991 0.0
C642 C 0.68343 0.5346 0.53044 0.0
C643 C 0.69795 0.54379 0.55338 0.0
C644 C 0.712 0.56758 0.55582 0.0
C645 C 0.7115 0.58225 0.53537 0.0
H646 H 0.69835 0.53247 0.56926 0.0
H647 H 0.69205 0.6766 0.37265 0.0
H648 H 0.30189 0.36667 0.16669 0.0
H649 H 0.27019 0.38918 0.1528 0.0
H650 H 0.21021 0.34971 0.20184 0.0
H651 H 0.24163 0.32672 0.21521 0.0
H652 H 0.19048 0.35093 0.15656 0.0
H653 H 0.23813 0.41196 0.21803 0.0
H654 H 0.27693 0.43879 0.23922 0.0
H655 H 0.29763 0.47042 0.16575 0.0
H656 H 0.25902 0.44367 0.14406 0.0
H657 H 0.09561 0.41875 0.13277 0.0
H658 H 0.12754 0.40239 0.15553 0.0
H659 H 0.18975 0.43771 0.10578 0.0
H660 H 0.15811 0.45546 0.08396 0.0
H661 H 0.2075 0.43956 0.15462 0.0
H662 H 0.15884 0.37458 0.09373 0.0
H663 H 0.11906 0.34699 0.07537 0.0
H664 H 0.09897 0.32278 0.15276 0.0
H665 H 0.13855 0.35033 0.17157 0.0
C666 C 0.28194 0.36275 0.17451 0.0
C667 C 0.2743 0.34466 0.19187 0.0
C668 C 0.26384 0.37587 0.16678 0.0
C669 C 0.23772 0.37146 0.17645 0.0
C670 C 0.23016 0.35354 0.194 0.0
C671 C 0.24819 0.34031 0.2016 0.0
C672 C 0.21784 0.38425 0.16688 0.0
C673 C 0.19412 0.37037 0.15663 0.0
C674 C 0.22247 0.40962 0.16649 0.0
C675 C 0.24582 0.42564 0.17935 0.0
C676 C 0.25107 0.42451 0.20633 0.0
C677 C 0.27299 0.43974 0.21846 0.0
C678 C 0.28977 0.45625 0.20382 0.0
C679 C 0.28462 0.45761 0.17705 0.0
C680 C 0.26269 0.44246 0.16485 0.0
C681 C 0.11612 0.42353 0.12691 0.0
C682 C 0.12403 0.43842 0.10622 0.0
C683 C 0.13441 0.4138 0.13978 0.0
C684 C 0.16112 0.41823 0.13202 0.0
C685 C 0.16928 0.43374 0.11205 0.0
C686 C 0.15102 0.44371 0.09933 0.0
C687 C 0.18032 0.40614 0.14407 0.0
C688 C 0.2039 0.42015 0.15475 0.0
C689 C 0.17542 0.38087 0.14532 0.0
C690 C 0.15147 0.36464 0.13406 0.0
C691 C 0.14581 0.36349 0.10684 0.0
C692 C 0.12335 0.34783 0.09635 0.0
C693 C 0.10647 0.33318 0.1129 0.0
C694 C 0.11204 0.33414 0.13997 0.0
C695 C 0.13449 0.34974 0.15054 0.0
H696 H 0.0891 0.32105 0.10474 0.0
H697 H 0.30674 0.46802 0.21324 0.0
H698 H 0.62811 0.24215 0.89964 0.0
H699 H 0.60418 0.2037 0.91444 0.0
H700 H 0.6112 0.23477 0.99626 0.0
H701 H 0.63519 0.27267 0.98177 0.0
H702 H 0.62237 0.19275 0.99411 0.0
H703 H 0.55142 0.22226 0.95902 0.0
H704 H 0.52733 0.23668 0.92481 0.0
H705 H 0.52513 0.1704 0.87507 0.0
H706 H 0.54951 0.1557 0.90884 0.0
H707 H 0.5339 0.09819 0.05578 0.0
H708 H 0.55895 0.13563 0.04001 0.0
H709 H 0.54185 0.10621 0.95864 0.0
H710 H 0.51593 0.06952 0.9746 0.0
H711 H 0.53625 0.14766 0.95974 0.0
H712 H 0.60855 0.11853 0.99414 0.0
H713 H 0.63587 0.10561 0.02669 0.0
H714 H 0.63736 0.17166 0.07666 0.0
H715 H 0.60986 0.18486 0.04456 0.0
C716 C 0.62449 0.24081 0.92078 0.0
C717 C 0.63382 0.26076 0.93941 0.0
C718 C 0.61059 0.21875 0.92929 0.0
C719 C 0.60552 0.21601 0.95666 0.0
C720 C 0.61473 0.23603 0.97509 0.0
C721 C 0.62852 0.25792 0.96667 0.0
C722 C 0.59161 0.19239 0.96656 0.0
C723 C 0.60335 0.18306 0.98675 0.0
C724 C 0.56706 0.17909 0.95672 0.0
C725 C 0.55257 0.188 0.93633 0.0
C726 C 0.54602 0.21085 0.94068 0.0
C727 C 0.53226 0.21906 0.92139 0.0
C728 C 0.52478 0.2045 0.89774 0.0
C729 C 0.53098 0.18168 0.89337 0.0
C730 C 0.54476 0.1734 0.91258 0.0
C731 C 0.5361 0.09946 0.03454 0.0
C732 C 0.52323 0.08047 0.01651 0.0
C733 C 0.55051 0.12108 0.02537 0.0
C734 C 0.55296 0.12421 0.99781 0.0
C735 C 0.5405 0.10484 0.97994 0.0
C736 C 0.52575 0.08357 0.98912 0.0
C737 C 0.56709 0.14771 0.98739 0.0
C738 C 0.55532 0.15715 0.96711 0.0
C739 C 0.59173 0.16112 0.9971 0.0
C740 C 0.60684 0.15251 0.01713 0.0
C741 C 0.61439 0.13013 0.01226 0.0
C742 C 0.63 0.12281 0.03058 0.0
C743 C 0.63826 0.13776 0.05377 0.0
C744 C 0.63088 0.16005 0.05874 0.0
C745 C 0.61528 0.16745 0.04051 0.0
H746 H 0.65046 0.13211 0.06785 0.0
H747 H 0.51411 0.21088 0.88285 0.0
H748 H 0.95351 0.74933 0.42945 0.0
H749 H 0.96296 0.78852 0.45663 0.0
H750 H 0.89459 0.80712 0.4247 0.0
H751 H 0.88536 0.76814 0.39767 0.0
H752 H 0.93279 0.8436 0.42437 0.0
H753 H 0.89577 0.79247 0.4903 0.0
H754 H 0.88893 0.75916 0.51897 0.0
H755 H 0.96704 0.78391 0.54941 0.0
H756 H 0.97445 0.81726 0.52074 0.0
H757 H 0.94069 0.95228 0.50932 0.0
H758 H 0.92491 0.91167 0.4874 0.0
H759 H 0.9889 0.8876 0.52162 0.0
H760 H 0.003 0.92766 0.54547 0.0
H761 H 0.94981 0.85343 0.52147 0.0
H762 H 0.98522 0.9045 0.44993 0.0
H763 H 0.98626 0.93905 0.42386 0.0
H764 H 0.9043 0.91408 0.4062 0.0
H765 H 0.90279 0.87947 0.43223 0.0
C766 C 0.94094 0.76209 0.42787 0.0
C767 C 0.91921 0.75611 0.41083 0.0
C768 C 0.94602 0.78429 0.44376 0.0
C769 C 0.9294 0.80088 0.44297 0.0
C770 C 0.90781 0.79481 0.42572 0.0
C771 C 0.90265 0.77263 0.41006 0.0
C772 C 0.93503 0.82498 0.45899 0.0
C773 C 0.93626 0.84563 0.44567 0.0
C774 C 0.93964 0.82794 0.48684 0.0
C775 C 0.93581 0.80716 0.50303 0.0
C776 C 0.91164 0.7906 0.50279 0.0
C777 C 0.90761 0.77178 0.51915 0.0
C778 C 0.92757 0.76936 0.53592 0.0
C779 C 0.95162 0.78576 0.53635 0.0
C780 C 0.95574 0.80463 0.52006 0.0
C781 C 0.95118 0.93819 0.51222 0.0
C782 C 0.97306 0.94303 0.52894 0.0
C783 C 0.94238 0.91499 0.49944 0.0
C784 C 0.95614 0.89644 0.50195 0.0
C785 C 0.97785 0.90138 0.5191 0.0
C786 C 0.986 0.92432 0.5327 0.0
C787 C 0.94835 0.87205 0.48666 0.0
C788 C 0.94656 0.85133 0.50013 0.0
C789 C 0.94274 0.86895 0.459 0.0
C790 C 0.94388 0.88955 0.4431 0.0
C791 C 0.96745 0.90644 0.4405 0.0
C792 C 0.96811 0.92601 0.42574 0.0
C793 C 0.94535 0.92878 0.41342 0.0
C794 C 0.92191 0.91192 0.41574 0.0
C795 C 0.92115 0.89231 0.43043 0.0
H796 H 0.9459 0.94396 0.40205 0.0
H797 H 0.92438 0.75483 0.54864 0.0
H798 H 0.34938 0.81587 0.55416 0.0
H799 H 0.37327 0.78283 0.54857 0.0
H800 H 0.3489 0.76423 0.6277 0.0
H801 H 0.3244 0.79693 0.63324 0.0
H802 H 0.40582 0.77411 0.61582 0.0
H803 H 0.3241 0.72547 0.58272 0.0
H804 H 0.2848 0.71572 0.55441 0.0
H805 H 0.33403 0.7175 0.48406 0.0
H806 H 0.37365 0.72747 0.51199 0.0
H807 H 0.45612 0.66917 0.61761 0.0
H808 H 0.43002 0.70038 0.62035 0.0
H809 H 0.43823 0.70318 0.53502 0.0
H810 H 0.46318 0.67067 0.53221 0.0
H811 H 0.38985 0.70225 0.54934 0.0
H812 H 0.47191 0.74954 0.58176 0.0
H813 H 0.51149 0.7592 0.60967 0.0
H814 H 0.46308 0.76117 0.68041 0.0
H815 H 0.42318 0.75129 0.65294 0.0
C816 C 0.34869 0.80443 0.57013 0.0
C817 C 0.33516 0.80892 0.59413 0.0
C818 C 0.36229 0.78561 0.56691 0.0
C819 C 0.36282 0.77131 0.58778 0.0
C820 C 0.3486 0.77519 0.61143 0.0
C821 C 0.33455 0.79373 0.61447 0.0
C822 C 0.37992 0.75356 0.58553 0.0
C823 C 0.40224 0.75819 0.60158 0.0
C824 C 0.37554 0.73341 0.56627 0.0
C825 C 0.35181 0.72746 0.54942 0.0
C826 C 0.32654 0.72399 0.56121 0.0
C827 C 0.30421 0.71836 0.54524 0.0
C828 C 0.30692 0.71606 0.51745 0.0
C829 C 0.33197 0.71931 0.50558 0.0
C830 C 0.35436 0.72491 0.52147 0.0
C831 C 0.45262 0.67678 0.59956 0.0
C832 C 0.4617 0.66798 0.57477 0.0
C833 C 0.43787 0.69464 0.60111 0.0
C834 C 0.43266 0.70448 0.57797 0.0
C835 C 0.44216 0.6959 0.55313 0.0
C836 C 0.45644 0.67753 0.55151 0.0
C837 C 0.41594 0.72266 0.57971 0.0
C838 C 0.39366 0.71821 0.56352 0.0
C839 C 0.42054 0.74314 0.59871 0.0
C840 C 0.44454 0.74956 0.61528 0.0
C841 C 0.4697 0.75195 0.60328 0.0
C842 C 0.49219 0.75747 0.61902 0.0
C843 C 0.4898 0.76077 0.6468 0.0
C844 C 0.46491 0.75863 0.65889 0.0
C845 C 0.44235 0.75313 0.64324 0.0
H846 H 0.50724 0.765 0.65895 0.0
H847 H 0.28961 0.71171 0.50512 0.0
H848 H 0.73051 0.82485 0.81068 0.0
H849 H 0.76172 0.85186 0.78441 0.0
H850 H 0.76944 0.79182 0.7272 0.0
H851 H 0.73837 0.76486 0.75322 0.0
H852 H 0.81628 0.81589 0.74381 0.0
H853 H 0.7391 0.83605 0.71076 0.0
H854 H 0.69658 0.84912 0.71375 0.0
H855 H 0.73328 0.91669 0.75532 0.0
H856 H 0.77597 0.9039 0.75288 0.0
H857 H 0.89936 0.88483 0.6516 0.0
H858 H 0.86344 0.85771 0.67257 0.0
H859 H 0.85083 0.9166 0.72924 0.0
H860 H 0.88641 0.94373 0.70826 0.0
H861 H 0.80551 0.8923 0.71111 0.0
H862 H 0.88239 0.87134 0.74556 0.0
H863 H 0.92449 0.85755 0.74389 0.0
H864 H 0.88805 0.7909 0.7003 0.0
H865 H 0.8458 0.80443 0.70142 0.0
C866 C 0.73821 0.81754 0.79211 0.0
C867 C 0.73187 0.79272 0.78401 0.0
C868 C 0.75617 0.83298 0.77715 0.0
C869 C 0.76795 0.82385 0.75382 0.0
C870 C 0.76073 0.79926 0.74518 0.0
C871 C 0.74292 0.78388 0.76008 0.0
C872 C 0.78937 0.83938 0.73957 0.0
C873 C 0.8138 0.83242 0.73627 0.0
C874 C 0.78633 0.8612 0.7303 0.0
C875 C 0.76068 0.86891 0.73188 0.0
C876 C 0.73806 0.85361 0.72075 0.0
C877 C 0.71394 0.86099 0.7223 0.0
C878 C 0.71221 0.88369 0.73478 0.0
C879 C 0.73463 0.89909 0.74569 0.0
C880 C 0.7588 0.8918 0.7442 0.0
C881 C 0.88902 0.89193 0.66864 0.0
C882 C 0.89564 0.91646 0.67817 0.0
C883 C 0.86852 0.87641 0.68064 0.0
C884 C 0.85451 0.88506 0.70264 0.0
C885 C 0.86122 0.90952 0.71222 0.0
C886 C 0.88153 0.92503 0.70015 0.0
C887 C 0.83252 0.8689 0.71549 0.0
C888 C 0.80797 0.87572 0.71853 0.0
C889 C 0.83544 0.84692 0.72454 0.0
C890 C 0.86101 0.83903 0.72329 0.0
C891 C 0.88343 0.85386 0.73536 0.0
C892 C 0.9073 0.84606 0.73457 0.0
C893 C 0.90897 0.8234 0.72192 0.0
C894 C 0.88675 0.80848 0.71004 0.0
C895 C 0.86284 0.8162 0.71075 0.0
H896 H 0.92745 0.81737 0.72139 0.0
H897 H 0.69352 0.88937 0.73595 0.0
H898 H 0.65865 0.15585 0.42721 0.0
H899 H 0.63417 0.15124 0.38583 0.0
H900 H 0.706 0.14994 0.34031 0.0
H901 H 0.73081 0.15639 0.38193 0.0
H902 H 0.67688 0.17202 0.31551 0.0
H903 H 0.65802 0.09578 0.35625 0.0
H904 H 0.64248 0.07093 0.39318 0.0
H905 H 0.5675 0.09166 0.39325 0.0
H906 H 0.58266 0.1167 0.35642 0.0
H907 H 0.63188 0.10599 0.19547 0.0
H908 H 0.65131 0.12148 0.23883 0.0
H909 H 0.57363 0.11887 0.27355 0.0
H910 H 0.55415 0.10201 0.23008 0.0
H911 H 0.60153 0.10253 0.30531 0.0
H912 H 0.61728 0.17471 0.26197 0.0
H913 H 0.63158 0.20037 0.22551 0.0
H914 H 0.71035 0.18883 0.23056 0.0
H915 H 0.69649 0.163 0.26696 0.0
C916 C 0.66919 0.15487 0.40832 0.0
C917 C 0.69647 0.15615 0.4076 0.0
C918 C 0.65519 0.15205 0.38469 0.0
C919 C 0.66804 0.14937 0.3599 0.0
C920 C 0.69557 0.15175 0.35918 0.0
C921 C 0.70974 0.15538 0.38289 0.0
C922 C 0.65276 0.14308 0.33483 0.0
C923 C 0.66056 0.1567 0.31321 0.0
C924 C 0.63075 0.12366 0.33204 0.0
C925 C 0.62153 0.10821 0.35376 0.0
C926 C 0.63825 0.09505 0.3642 0.0
C927 C 0.6295 0.08094 0.3851 0.0
C928 C 0.60404 0.07976 0.39559 0.0
C929 C 0.58721 0.09259 0.38512 0.0
C930 C 0.59585 0.1067 0.3642 0.0
C931 C 0.61905 0.10886 0.2124 0.0
C932 C 0.59166 0.10301 0.20966 0.0
C933 C 0.63011 0.11793 0.2371 0.0
C934 C 0.61399 0.12199 0.25938 0.0
C935 C 0.58648 0.11607 0.25662 0.0
C936 C 0.57537 0.10648 0.23191 0.0
C937 C 0.62606 0.1311 0.28575 0.0
C938 C 0.61765 0.11803 0.30763 0.0
C939 C 0.64733 0.15115 0.28883 0.0
C940 C 0.65582 0.16686 0.26712 0.0
C941 C 0.63763 0.17758 0.25523 0.0
C942 C 0.64566 0.19218 0.2346 0.0
C943 C 0.67185 0.19621 0.22571 0.0
C944 C 0.69008 0.18572 0.23749 0.0
C945 C 0.68217 0.17116 0.25818 0.0
H946 H 0.67802 0.20749 0.20971 0.0
H947 H 0.59734 0.06888 0.41181 0.0
H948 H 0.4709 0.70331 0.32132 0.0
H949 H 0.48331 0.67933 0.3545 0.0
H950 H 0.40893 0.62952 0.3444 0.0
H951 H 0.39606 0.65409 0.31201 0.0
H952 H 0.41868 0.63148 0.39338 0.0
H953 H 0.47194 0.61677 0.31817 0.0
H954 H 0.50274 0.62563 0.28044 0.0
H955 H 0.56249 0.66379 0.33479 0.0
H956 H 0.53194 0.65533 0.37285 0.0
H957 H 0.47008 0.53977 0.45548 0.0
H958 H 0.45416 0.56179 0.4219 0.0
H959 H 0.51021 0.62585 0.44903 0.0
H960 H 0.52524 0.60418 0.48332 0.0
H961 H 0.50828 0.61354 0.3903 0.0
H962 H 0.45014 0.62422 0.46621 0.0
H963 H 0.4177 0.60949 0.50069 0.0
H964 H 0.36475 0.57122 0.43988 0.0
H965 H 0.39709 0.58542 0.40502 0.0
C966 C 0.45708 0.6873 0.32615 0.0
C967 C 0.43239 0.68087 0.31364 0.0
C968 C 0.46433 0.6733 0.34515 0.0
C969 C 0.44747 0.65193 0.35206 0.0
C970 C 0.42261 0.6457 0.33983 0.0
C971 C 0.41521 0.65989 0.32108 0.0
C972 C 0.45576 0.63631 0.37185 0.0
C973 C 0.43822 0.62744 0.39231 0.0
C974 C 0.48115 0.63039 0.37105 0.0
C975 C 0.49957 0.63566 0.34831 0.0
C976 C 0.49159 0.62721 0.32205 0.0
C977 C 0.50901 0.63212 0.30062 0.0
C978 C 0.53452 0.64534 0.30521 0.0
C979 C 0.5427 0.65359 0.33126 0.0
C980 C 0.52536 0.64872 0.35278 0.0
C981 C 0.47895 0.55857 0.45431 0.0
C982 C 0.49893 0.57019 0.47222 0.0
C983 C 0.46979 0.57122 0.43508 0.0
C984 C 0.48086 0.59569 0.43267 0.0
C985 C 0.50118 0.6071 0.45028 0.0
C986 C 0.50976 0.59468 0.47 0.0
C987 C 0.47151 0.60943 0.41192 0.0
C988 C 0.4888 0.61775 0.39124 0.0
C989 C 0.44566 0.6141 0.41206 0.0
C990 C 0.42615 0.60571 0.433 0.0
C991 C 0.43168 0.61249 0.46018 0.0
C992 C 0.41329 0.60427 0.4798 0.0
C993 C 0.3892 0.58938 0.47248 0.0
C994 C 0.38344 0.58273 0.44552 0.0
C995 C 0.40178 0.59088 0.42583 0.0
H996 H 0.37498 0.58304 0.48769 0.0
H997 H 0.54798 0.64913 0.28859 0.0
H998 H 0.1726 0.44395 0.77068 0.0
H999 H 0.15327 0.46338 0.81002 0.0
H1000 H 0.09003 0.40128 0.81142 0.0
H1001 H 0.10899 0.38187 0.77222 0.0
H1002 H 0.07159 0.4427 0.82075 0.0
H1003 H 0.14035 0.40936 0.85451 0.0
H1004 H 0.18587 0.40302 0.8556 0.0
H1005 H 0.21403 0.47893 0.87498 0.0
H1006 H 0.16867 0.48574 0.87369 0.0
H1007 H 0.02363 0.46914 0.9536 0.0
H1008 H 0.042 0.44891 0.91397 0.0
H1009 H 0.10682 0.50968 0.91205 0.0
H1010 H 0.08857 0.52983 0.95133 0.0
H1011 H 0.12424 0.46845 0.90282 0.0
H1012 H 0.05578 0.50201 0.86985 0.0
H1013 H 0.01098 0.50923 0.8655 0.0
H1014 H 0.98248 0.43391 0.84262 0.0
H1015 H 0.02706 0.42616 0.84725 0.0
C1016 C 0.15453 0.43446 0.77929 0.0
C1017 C 0.14251 0.41125 0.76828 0.0
C1018 C 0.14352 0.44557 0.80185 0.0
C1019 C 0.12027 0.43371 0.81392 0.0
C1020 C 0.10794 0.41082 0.80256 0.0
C1021 C 0.11895 0.39969 0.78014 0.0
C1022 C 0.10907 0.44478 0.83874 0.0
C1023 C 0.08298 0.44803 0.83882 0.0
C1024 C 0.12401 0.45218 0.8622 0.0
C1025 C 0.15117 0.44808 0.86383 0.0
C1026 C 0.15627 0.4247 0.85892 0.0
C1027 C 0.18203 0.42103 0.85957 0.0
C1028 C 0.20283 0.44057 0.8653 0.0
C1029 C 0.1979 0.46381 0.87053 0.0
C1030 C 0.17216 0.46759 0.86989 0.0
C1031 C 0.04193 0.47801 0.94485 0.0
C1032 C 0.05465 0.50109 0.95556 0.0
C1033 C 0.05233 0.46654 0.92208 0.0
C1034 C 0.07573 0.47785 0.90975 0.0
C1035 C 0.08878 0.50055 0.92106 0.0
C1036 C 0.07829 0.51207 0.94354 0.0
C1037 C 0.08662 0.46638 0.88495 0.0
C1038 C 0.11273 0.46304 0.88485 0.0
C1039 C 0.07166 0.45894 0.86144 0.0
C1040 C 0.0447 0.46345 0.8593 0.0
C1041 C 0.0399 0.48693 0.86424 0.0
C1042 C 0.01455 0.49113 0.86164 0.0
C1043 C 0.99387 0.47203 0.8539 0.0
C1044 C 0.9985 0.44868 0.84871 0.0
C1045 C 0.0238 0.44437 0.85132 0.0
H1046 H 0.97428 0.47533 0.85183 0.0
H1047 H 0.22278 0.43769 0.86573 0.0
H1048 H 0.66036 0.88189 0.87598 0.0
H1049 H 0.63825 0.90928 0.90452 0.0
H1050 H 0.57198 0.8512 0.91436 0.0
H1051 H 0.59391 0.82364 0.88569 0.0
H1052 H 0.5566 0.89343 0.90587 0.0
H1053 H 0.61296 0.86788 0.96483 0.0
H1054 H 0.655 0.85921 0.97824 0.0
H1055 H 0.69206 0.9336 0.97589 0.0
H1056 H 0.65023 0.94266 0.96227 0.0
H1057 H 0.49813 0.95496 0.01321 0.0
H1058 H 0.51799 0.92592 0.98509 0.0
H1059 H 0.59068 0.97842 0.98234 0.0
H1060 H 0.57108 0.00733 0.01188 0.0
H1061 H 0.60163 0.93727 0.98715 0.0
H1062 H 0.54185 0.96199 0.92852 0.0
H1063 H 0.49902 0.96798 0.91375 0.0
H1064 H 0.46671 0.89251 0.91524 0.0
H1065 H 0.50919 0.88611 0.93036 0.0
C1066 C 0.64104 0.87492 0.8841 0.0
C1067 C 0.62899 0.85053 0.87863 0.0
C1068 C 0.62845 0.8906 0.90049 0.0
C1069 C 0.60357 0.88223 0.91179 0.0
C1070 C 0.59118 0.85804 0.90586 0.0
C1071 C 0.6038 0.84231 0.88953 0.0
C1072 C 0.59087 0.89872 0.93024 0.0
C1073 C 0.56624 0.90285 0.92382 0.0
C1074 C 0.60356 0.9111 0.95351 0.0
C1075 C 0.62855 0.90592 0.96239 0.0
C1076 C 0.63011 0.88237 0.9671 0.0
C1077 C 0.65388 0.87738 0.97475 0.0
C1078 C 0.6762 0.89583 0.97786 0.0
C1079 C 0.67475 0.91933 0.97347 0.0
C1080 C 0.651 0.92442 0.96586 0.0
C1081 C 0.51837 0.96037 0.00661 0.0
C1082 C 0.53299 0.98355 0.01453 0.0
C1083 C 0.52966 0.94376 0.9903 0.0
C1084 C 0.55563 0.95011 0.98076 0.0
C1085 C 0.57051 0.9731 0.98917 0.0
C1086 C 0.55935 0.98963 0.00607 0.0
C1087 C 0.5674 0.9326 0.96259 0.0
C1088 C 0.59189 0.92806 0.96916 0.0
C1089 C 0.55433 0.91965 0.93956 0.0
C1090 C 0.52867 0.92362 0.93081 0.0
C1091 C 0.52555 0.94671 0.92592 0.0
C1092 C 0.50134 0.95017 0.91744 0.0
C1093 C 0.48016 0.93064 0.91363 0.0
C1094 C 0.48313 0.90762 0.91825 0.0
C1095 C 0.50726 0.90407 0.92675 0.0
H1096 H 0.46146 0.93333 0.90705 0.0
H1097 H 0.69462 0.89193 0.98371 0.0
H1098 H 0.7742 0.09341 0.48529 0.0
H1099 H 0.81389 0.07862 0.49252 0.0
H1100 H 0.8545 0.15087 0.51845 0.0
H1101 H 0.81474 0.16604 0.51028 0.0
H1102 H 0.88779 0.12531 0.49093 0.0
H1103 H 0.82961 0.11528 0.56501 0.0
H1104 H 0.7876 0.10442 0.58951 0.0
H1105 H 0.78125 0.03029 0.55899 0.0
H1106 H 0.8231 0.04076 0.53405 0.0
H1107 H 0.9651 0.07438 0.58164 0.0
H1108 H 0.93742 0.09756 0.56162 0.0
H1109 H 0.90693 0.03559 0.50675 0.0
H1110 H 0.93595 0.01273 0.52579 0.0
H1111 H 0.87154 0.05939 0.55031 0.0
H1112 H 0.93453 0.0736 0.47682 0.0
H1113 H 0.97966 0.08762 0.46003 0.0
H1114 H 0.98014 0.15853 0.49858 0.0
H1115 H 0.93514 0.1448 0.51603 0.0
C1116 C 0.79166 0.10622 0.4922 0.0
C1117 C 0.79132 0.13079 0.49764 0.0
C1118 C 0.81432 0.09776 0.49632 0.0
C1119 C 0.83688 0.11359 0.5066 0.0
C1120 C 0.8372 0.13838 0.51062 0.0
C1121 C 0.81451 0.14697 0.50604 0.0
C1122 C 0.85904 0.10359 0.51501 0.0
C1123 C 0.88432 0.11105 0.50408 0.0
C1124 C 0.8546 0.08529 0.53255 0.0
C1125 C 0.82937 0.07885 0.54746 0.0
C1126 C 0.81915 0.09669 0.56335 0.0
C1127 C 0.79539 0.0906 0.57736 0.0
C1128 C 0.78173 0.06669 0.57575 0.0
C1129 C 0.79184 0.04881 0.56019 0.0
C1130 C 0.8156 0.05481 0.54615 0.0
C1131 C 0.95309 0.06602 0.56478 0.0
C1132 C 0.9524 0.04192 0.5552 0.0
C1133 C 0.93742 0.07923 0.55335 0.0
C1134 C 0.92038 0.0682 0.53275 0.0
C1135 C 0.92034 0.04436 0.52245 0.0
C1136 C 0.93673 0.03137 0.53332 0.0
C1137 C 0.89973 0.08025 0.52522 0.0
C1138 C 0.87485 0.07346 0.53689 0.0
C1139 C 0.9049 0.09962 0.50922 0.0
C1140 C 0.93153 0.10812 0.4979 0.0
C1141 C 0.94431 0.09215 0.48187 0.0
C1142 C 0.96986 0.10004 0.47221 0.0
C1143 C 0.98278 0.12394 0.47828 0.0
C1144 C 0.97011 0.14002 0.4939 0.0
C1145 C 0.94456 0.1322 0.50365 0.0
H1146 H 1.00259 0.13 0.47084 0.0
H1147 H 0.76334 0.06201 0.5866 0.0
H1148 H 0.29141 0.64488 0.15581 0.0
H1149 H 0.25305 0.61744 0.13502 0.0
H1150 H 0.21477 0.67733 0.1313 0.0
H1151 H 0.25253 0.70457 0.15234 0.0
H1152 H 0.18036 0.64052 0.14694 0.0
H1153 H 0.24668 0.65063 0.07635 0.0
H1154 H 0.28984 0.64819 0.05543 0.0
H1155 H 0.27408 0.57184 0.06052 0.0
H1156 H 0.231 0.5739 0.08188 0.0
H1157 H 0.08103 0.59569 0.05213 0.0
H1158 H 0.12115 0.61813 0.07407 0.0
H1159 H 0.1491 0.55217 0.07599 0.0
H1160 H 0.10891 0.52951 0.05394 0.0
H1161 H 0.18893 0.58849 0.06318 0.0
H1162 H 0.12281 0.57654 0.13047 0.0
H1163 H 0.07933 0.57701 0.15151 0.0
H1164 H 0.09456 0.65415 0.15453 0.0
H1165 H 0.13792 0.65413 0.13286 0.0
C1166 C 0.27478 0.65218 0.15064 0.0
C1167 C 0.27524 0.67704 0.15574 0.0
C1168 C 0.25285 0.63646 0.1386 0.0
C1169 C 0.23093 0.64524 0.1312 0.0
C1170 C 0.23128 0.66997 0.13672 0.0
C1171 C 0.25307 0.68561 0.14873 0.0
C1172 C 0.2076 0.62903 0.11763 0.0
C1173 C 0.1823 0.62936 0.12848 0.0
C1174 C 0.20991 0.61367 0.09398 0.0
C1175 C 0.23576 0.61247 0.08102 0.0
C1176 C 0.25251 0.63336 0.07321 0.0
C1177 C 0.27695 0.63204 0.06125 0.0
C1178 C 0.28473 0.60989 0.05673 0.0
C1179 C 0.26806 0.589 0.06409 0.0
C1180 C 0.24363 0.59023 0.07613 0.0
C1181 C 0.09574 0.5859 0.05703 0.0
C1182 C 0.09155 0.5607 0.05139 0.0
C1183 C 0.1187 0.59879 0.06971 0.0
C1184 C 0.13812 0.58687 0.07709 0.0
C1185 C 0.13443 0.56182 0.07065 0.0
C1186 C 0.11134 0.54886 0.05812 0.0
C1187 C 0.1618 0.60052 0.09217 0.0
C1188 C 0.18706 0.59961 0.08169 0.0
C1189 C 0.1595 0.61514 0.11634 0.0
C1190 C 0.13356 0.61531 0.12975 0.0
C1191 C 0.11682 0.59361 0.13539 0.0
C1192 C 0.09218 0.59379 0.14744 0.0
C1193 C 0.08416 0.61559 0.15429 0.0
C1194 C 0.10079 0.63727 0.14916 0.0
C1195 C 0.1254 0.63718 0.13697 0.0
H1196 H 0.06507 0.6157 0.16363 0.0
H1197 H 0.30366 0.6089 0.04747 0.0
H1198 H 0.24722 0.44287 0.62916 0.0
H1199 H 0.28824 0.46033 0.60676 0.0
H1200 H 0.3318 0.42627 0.65725 0.0
H1201 H 0.29099 0.40909 0.67996 0.0
H1202 H 0.35594 0.47144 0.65384 0.0
H1203 H 0.31847 0.40472 0.59031 0.0
H1204 H 0.28562 0.38007 0.55919 0.0
H1205 H 0.28803 0.44074 0.51466 0.0
H1206 H 0.32067 0.46581 0.54568 0.0
H1207 H 0.47855 0.48967 0.58425 0.0
H1208 H 0.43718 0.47431 0.60705 0.0
H1209 H 0.39447 0.49939 0.54735 0.0
H1210 H 0.43587 0.51262 0.52326 0.0
H1211 H 0.36913 0.45967 0.55585 0.0
H1212 H 0.40691 0.52683 0.61852 0.0
H1213 H 0.44081 0.55141 0.64859 0.0
H1214 H 0.43791 0.49146 0.69437 0.0
H1215 H 0.40423 0.46645 0.66442 0.0
C1216 C 0.26553 0.43913 0.63555 0.0
C1217 C 0.26577 0.4246 0.65644 0.0
C1218 C 0.28898 0.449 0.62257 0.0
C1219 C 0.31317 0.44443 0.63007 0.0
C1220 C 0.31344 0.43008 0.65105 0.0
C1221 C 0.29004 0.42025 0.66404 0.0
C1222 C 0.33832 0.45502 0.61663 0.0
C1223 C 0.35892 0.46871 0.63241 0.0
C1224 C 0.34206 0.45208 0.58859 0.0
C1225 C 0.32174 0.43721 0.57054 0.0
C1226 C 0.31174 0.41288 0.57409 0.0
C1227 C 0.29323 0.39881 0.5564 0.0
C1228 C 0.28467 0.40885 0.53502 0.0
C1229 C 0.29461 0.43299 0.53127 0.0
C1230 C 0.31311 0.44713 0.54889 0.0
C1231 C 0.46026 0.49193 0.57613 0.0
C1232 C 0.46024 0.50225 0.55204 0.0
C1233 C 0.43657 0.4834 0.58934 0.0
C1234 C 0.41243 0.48609 0.57943 0.0
C1235 C 0.41265 0.49696 0.55554 0.0
C1236 C 0.43628 0.50462 0.54178 0.0
C1237 C 0.38688 0.47643 0.59298 0.0
C1238 C 0.36618 0.46277 0.57725 0.0
C1239 C 0.38297 0.47963 0.62105 0.0
C1240 C 0.40318 0.49473 0.6391 0.0
C1241 C 0.4136 0.51886 0.63491 0.0
C1242 C 0.43277 0.53287 0.65195 0.0
C1243 C 0.44153 0.52299 0.67334 0.0
C1244 C 0.43111 0.49909 0.67779 0.0
C1245 C 0.41197 0.48501 0.66081 0.0
H1246 H 0.45637 0.53386 0.6865 0.0
H1247 H 0.2704 0.39791 0.52131 0.0
H1248 H 0.7628 0.7128 0.89421 0.0
H1249 H 0.79633 0.69358 0.91036 0.0
H1250 H 0.78902 0.64398 0.83896 0.0
H1251 H 0.75502 0.6628 0.82288 0.0
H1252 H 0.79143 0.62097 0.88203 0.0
H1253 H 0.84145 0.69149 0.84692 0.0
H1254 H 0.85319 0.73488 0.84145 0.0
H1255 H 0.87069 0.75058 0.92485 0.0
H1256 H 0.85873 0.70728 0.9309 0.0
H1257 H 0.90931 0.57962 0.90645 0.0
H1258 H 0.87638 0.59697 0.88577 0.0
H1259 H 0.876 0.64779 0.95544 0.0
H1260 H 0.90912 0.63094 0.9759 0.0
H1261 H 0.87858 0.6695 0.91001 0.0
H1262 H 0.82743 0.59871 0.94499 0.0
H1263 H 0.81393 0.55542 0.95047 0.0
H1264 H 0.79776 0.54013 0.86676 0.0
H1265 H 0.81167 0.5833 0.86067 0.0
C1266 C 0.76829 0.69779 0.88193 0.0
C1267 C 0.75629 0.68937 0.85722 0.0
C1268 C 0.78757 0.68689 0.89114 0.0
C1269 C 0.79546 0.66756 0.87569 0.0
C1270 C 0.78327 0.65891 0.85118 0.0
C1271 C 0.76389 0.66973 0.842 0.0
C1272 C 0.81634 0.65632 0.88523 0.0
C1273 C 0.81066 0.63149 0.88772 0.0
C1274 C 0.84127 0.67013 0.89305 0.0
C1275 C 0.84901 0.69615 0.88939 0.0
C1276 C 0.84768 0.7042 0.86412 0.0
C1277 C 0.85438 0.72878 0.86091 0.0
C1278 C 0.86262 0.74548 0.8828 0.0
C1279 C 0.86429 0.73762 0.90792 0.0
C1280 C 0.85759 0.71306 0.91124 0.0
C1281 C 0.90222 0.59453 0.91729 0.0
C1282 C 0.91163 0.60378 0.9429 0.0
C1283 C 0.88332 0.60432 0.90553 0.0
C1284 C 0.8736 0.62355 0.91918 0.0
C1285 C 0.88318 0.63292 0.94459 0.0
C1286 C 0.90192 0.62311 0.95637 0.0
C1287 C 0.85356 0.63417 0.90709 0.0
C1288 C 0.85944 0.65892 0.90409 0.0
C1289 C 0.82886 0.62024 0.89872 0.0
C1290 C 0.82094 0.59422 0.90231 0.0
C1291 C 0.82132 0.58609 0.92768 0.0
C1292 C 0.81353 0.56158 0.93091 0.0
C1293 C 0.80507 0.54502 0.90897 0.0
C1294 C 0.80439 0.55296 0.88373 0.0
C1295 C 0.81224 0.57745 0.88038 0.0
H1296 H 0.79898 0.52606 0.91152 0.0
H1297 H 0.86776 0.76451 0.88028 0.0
H1298 H 0.42387 0.81087 0.22875 0.0
H1299 H 0.4342 0.84949 0.2087 0.0
H1300 H 0.4091 0.81251 0.13217 0.0
H1301 H 0.39826 0.77434 0.15205 0.0
H1302 H 0.45301 0.84557 0.12497 0.0
H1303 H 0.37065 0.84565 0.16513 0.0
H1304 H 0.33513 0.84273 0.1991 0.0
H1305 H 0.37989 0.90313 0.2469 0.0
H1306 H 0.41591 0.90621 0.21333 0.0
H1307 H 0.45954 0.95866 0.0664 0.0
H1308 H 0.44262 0.91813 0.08084 0.0
H1309 H 0.46046 0.94621 0.16236 0.0
H1310 H 0.47682 0.98617 0.1481 0.0
H1311 H 0.41624 0.91559 0.16311 0.0
H1312 H 0.50013 0.91209 0.11589 0.0
H1313 H 0.52938 0.91296 0.07616 0.0
H1314 H 0.47339 0.8561 0.03486 0.0
H1315 H 0.44367 0.85514 0.0742 0.0
C1316 C 0.42073 0.81091 0.20763 0.0
C1317 C 0.41016 0.78916 0.19222 0.0
C1318 C 0.4265 0.83315 0.1961 0.0
C1319 C 0.42243 0.83435 0.16867 0.0
C1320 C 0.41257 0.81252 0.15324 0.0
C1321 C 0.40629 0.79051 0.1648 0.0
C1322 C 0.42818 0.85813 0.15605 0.0
C1323 C 0.4448 0.86079 0.13333 0.0
C1324 C 0.41721 0.87819 0.16611 0.0
C1325 C 0.39618 0.87591 0.18692 0.0
C1326 C 0.37311 0.85809 0.18308 0.0
C1327 C 0.35283 0.85646 0.2022 0.0
C1328 C 0.3553 0.87267 0.2252 0.0
C1329 C 0.37806 0.89054 0.22911 0.0
C1330 C 0.39842 0.89223 0.21004 0.0
C1331 C 0.45915 0.95629 0.08746 0.0
C1332 C 0.46925 0.97602 0.10609 0.0
C1333 C 0.44986 0.93287 0.09576 0.0
C1334 C 0.45046 0.92849 0.12292 0.0
C1335 C 0.45962 0.94853 0.14137 0.0
C1336 C 0.46898 0.97164 0.13312 0.0
C1337 C 0.44214 0.90352 0.13277 0.0
C1338 C 0.42475 0.90048 0.1549 0.0
C1339 C 0.45173 0.8829 0.12155 0.0
C1340 C 0.46955 0.88376 0.09788 0.0
C1341 C 0.49397 0.89994 0.09826 0.0
C1342 C 0.51064 0.90041 0.07581 0.0
C1343 C 0.50321 0.88466 0.05297 0.0
C1344 C 0.4791 0.86835 0.05253 0.0
C1345 C 0.46234 0.86784 0.07489 0.0
H1346 H 0.51616 0.88504 0.03564 0.0
H1347 H 0.33954 0.87143 0.23995 0.0
H1348 H 0.15796 0.27233 0.66824 0.0
H1349 H 0.14406 0.22933 0.6534 0.0
H1350 H 0.06572 0.23983 0.64044 0.0
H1351 H 0.07931 0.28253 0.65528 0.0
H1352 H 0.06466 0.20383 0.67045 0.0
H1353 H 0.10622 0.22835 0.58883 0.0
H1354 H 0.14184 0.24644 0.55909 0.0
H1355 H 0.18864 0.19681 0.57848 0.0
H1356 H 0.15348 0.1787 0.60876 0.0
H1357 H 0.00496 0.09288 0.60116 0.0
H1358 H 0.02375 0.13494 0.61585 0.0
H1359 H 0.09931 0.1164 0.62468 0.0
H1360 H 0.08025 0.07405 0.60962 0.0
H1361 H 0.10431 0.15576 0.59857 0.0
H1362 H 0.06092 0.13083 0.67985 0.0
H1363 H 0.02415 0.11311 0.70861 0.0
H1364 H 0.97953 0.16411 0.68821 0.0
H1365 H 0.01589 0.18194 0.65907 0.0
C1366 C 0.13786 0.26552 0.66191 0.0
C1367 C 0.1197 0.28088 0.66315 0.0
C1368 C 0.12997 0.24094 0.65333 0.0
C1369 C 0.10382 0.23132 0.64582 0.0
C1370 C 0.08596 0.2468 0.64625 0.0
C1371 C 0.09381 0.27127 0.65472 0.0
C1372 C 0.09433 0.20494 0.63941 0.0
C1373 C 0.07318 0.19338 0.65452 0.0
C1374 C 0.10592 0.19116 0.61914 0.0
C1375 C 0.12734 0.2024 0.6014 0.0
C1376 C 0.12425 0.2215 0.58706 0.0
C1377 C 0.14433 0.23172 0.57004 0.0
C1378 C 0.16754 0.22285 0.56698 0.0
C1379 C 0.17069 0.20372 0.58094 0.0
C1380 C 0.15069 0.19348 0.59805 0.0
C1381 C 0.02545 0.09777 0.60665 0.0
C1382 C 0.0411 0.08034 0.60469 0.0
C1383 C 0.03619 0.12178 0.61511 0.0
C1384 C 0.06291 0.12887 0.62174 0.0
C1385 C 0.07861 0.11135 0.61988 0.0
C1386 C 0.06773 0.08719 0.61153 0.0
C1387 C 0.07447 0.15473 0.62948 0.0
C1388 C 0.09598 0.16619 0.61465 0.0
C1389 C 0.06312 0.16855 0.6499 0.0
C1390 C 0.04106 0.15759 0.66711 0.0
C1391 C 0.04317 0.13812 0.68131 0.0
C1392 C 0.02242 0.12809 0.69772 0.0
C1393 C 0.9995 0.13745 0.70019 0.0
C1394 C 0.99728 0.15687 0.68626 0.0
C1395 C 0.01796 0.16695 0.66982 0.0
H1396 H 0.98348 0.12969 0.71294 0.0
H1397 H 0.18303 0.23073 0.55373 0.0
H1398 H 0.73568 0.27637 0.46559 0.0
H1399 H 0.71407 0.30827 0.48649 0.0
H1400 H 0.64088 0.25683 0.49039 0.0
H1401 H 0.66226 0.22485 0.47022 0.0
H1402 H 0.65094 0.30055 0.45415 0.0
H1403 H 0.6508 0.27488 0.54217 0.0
H1404 H 0.67059 0.26494 0.58222 0.0
H1405 H 0.7167 0.33683 0.59347 0.0
H1406 H 0.69748 0.3471 0.5532 0.0
H1407 H 0.56463 0.37772 0.48762 0.0
H1408 H 0.58548 0.34326 0.48836 0.0
H1409 H 0.65557 0.38999 0.52124 0.0
H1410 H 0.63425 0.42457 0.52193 0.0
H1411 H 0.64727 0.34778 0.54217 0.0
H1412 H 0.65063 0.37306 0.45377 0.0
H1413 H 0.63438 0.38314 0.41184 0.0
H1414 H 0.58575 0.31237 0.39967 0.0
H1415 H 0.60149 0.30197 0.4417 0.0
C1416 C 0.71513 0.2718 0.47145 0.0
C1417 C 0.70052 0.24826 0.46588 0.0
C1418 C 0.70295 0.28992 0.48369 0.0
C1419 C 0.67605 0.2847 0.49024 0.0
C1420 C 0.66179 0.26101 0.48593 0.0
C1421 C 0.674 0.24286 0.47414 0.0
C1422 C 0.66168 0.30445 0.49541 0.0
C1423 C 0.64972 0.31067 0.47349 0.0
C1424 C 0.66102 0.3179 0.52049 0.0
C1425 C 0.67301 0.31164 0.54438 0.0
C1426 C 0.66547 0.28847 0.55291 0.0
C1427 C 0.67649 0.2828 0.57574 0.0
C1428 C 0.69498 0.30021 0.59032 0.0
C1429 C 0.70243 0.32334 0.58212 0.0
C1430 C 0.69147 0.32909 0.5593 0.0
C1431 C 0.58422 0.38067 0.49568 0.0
C1432 C 0.59786 0.40399 0.50448 0.0
C1433 C 0.59622 0.36094 0.49581 0.0
C1434 C 0.62227 0.36415 0.5043 0.0
C1435 C 0.63551 0.38716 0.51441 0.0
C1436 C 0.62341 0.40693 0.5145 0.0
C1437 C 0.63619 0.34379 0.50082 0.0
C1438 C 0.64827 0.33756 0.52289 0.0
C1439 C 0.63727 0.33029 0.47572 0.0
C1440 C 0.62697 0.33687 0.45104 0.0
C1441 C 0.63621 0.35977 0.44232 0.0
C1442 C 0.62717 0.3655 0.41849 0.0
C1443 C 0.60898 0.34844 0.40315 0.0
C1444 C 0.59978 0.3256 0.41161 0.0
C1445 C 0.60875 0.31978 0.43543 0.0
H1446 H 0.60209 0.35289 0.38465 0.0
H1447 H 0.70345 0.2958 0.60801 0.0
loop_
_geom_bond_atom_site_label_1
_geom_bond_atom_site_label_2
_geom_bond_distance
_geom_bond_site_symmetry_2
_ccdc_geom_bond_type
O0 Cd1 2.300 . S
O0 C7 1.275 . S
Cd1 O0 2.300 . S
Cd1 O9 2.381 . S
Cd1 O10 2.378 . S
O2 Cd3 2.385 . S
O2 C7 1.255 . S
Cd3 O2 2.385 . S
Cd3 O4 2.317 . S
O4 Cd3 2.317 . S
O4 C5 1.232 . S
C5 O4 1.232 . S
C5 O6 1.218 . S
O6 C5 1.218 . S
C7 O0 1.275 . S
C7 O2 1.255 . S
C8 O9 1.258 . S
C8 O10 1.256 . S
O9 Cd1 2.381 . S
O9 C8 1.258 . S
O10 Cd1 2.378 . S
O10 C8 1.256 . S
O11 Cd12 2.300 . S
O11 C18 1.275 . S
Cd12 O11 2.300 . S
Cd12 O20 2.381 . S
Cd12 O21 2.378 . S
O13 Cd14 2.385 . S
O13 C18 1.255 . S
Cd14 O13 2.385 . S
Cd14 O15 2.317 . S
O15 Cd14 2.317 . S
O15 C16 1.232 . S
C16 O15 1.232 . S
C16 O17 1.218 . S
O17 C16 1.218 . S
C18 O11 1.275 . S
C18 O13 1.255 . S
C19 O20 1.258 . S
C19 O21 1.256 . S
O20 Cd12 2.381 . S
O20 C19 1.258 . S
O21 Cd12 2.378 . S
O21 C19 1.256 . S
O22 Cd23 2.300 . S
O22 C29 1.275 . S
Cd23 O22 2.300 . S
Cd23 O31 2.381 . S
Cd23 O32 2.378 . S
O24 Cd25 2.385 . S
O24 C29 1.255 . S
Cd25 O24 2.385 . S
Cd25 O26 2.317 . S
O26 Cd25 2.317 . S
O26 C27 1.232 . S
C27 O26 1.232 . S
C27 O28 1.218 . S
O28 C27 1.218 . S
C29 O22 1.275 . S
C29 O24 1.255 . S
C30 O31 1.258 . S
C30 O32 1.256 . S
O31 Cd23 2.381 . S
O31 C30 1.258 . S
O32 Cd23 2.378 . S
O32 C30 1.256 . S
O33 Cd34 2.300 . S
O33 C40 1.275 . S
Cd34 O33 2.300 . S
Cd34 O42 2.381 . S
Cd34 O43 2.378 . S
O35 Cd36 2.385 . S
O35 C40 1.255 . S
Cd36 O35 2.385 . S
Cd36 O37 2.317 . S
O37 Cd36 2.317 . S
O37 C38 1.232 . S
C38 O37 1.232 . S
C38 O39 1.218 . S
O39 C38 1.218 . S
C40 O33 1.275 . S
C40 O35 1.255 . S
C41 O42 1.258 . S
C41 O43 1.256 . S
O42 Cd34 2.381 . S
O42 C41 1.258 . S
O43 Cd34 2.378 . S
O43 C41 1.256 . S
O44 Cd45 2.300 . S
O44 C51 1.275 . S
Cd45 O44 2.300 . S
Cd45 O53 2.381 . S
Cd45 O54 2.378 . S
O46 Cd47 2.385 . S
O46 C51 1.255 . S
Cd47 O46 2.385 . S
Cd47 O48 2.317 . S
O48 Cd47 2.317 . S
O48 C49 1.232 . S
C49 O48 1.232 . S
C49 O50 1.218 . S
O50 C49 1.218 . S
C51 O44 1.275 . S
C51 O46 1.255 . S
C52 O53 1.258 . S
C52 O54 1.256 . S
O53 Cd45 2.381 . S
O53 C52 1.258 . S
O54 Cd45 2.378 . S
O54 C52 1.256 . S
O55 Cd56 2.300 . S
O55 C62 1.275 . S
Cd56 O55 2.300 . S
Cd56 O64 2.381 . S
Cd56 O65 2.378 . S
O57 Cd58 2.385 . S
O57 C62 1.255 . S
Cd58 O57 2.385 . S
Cd58 O59 2.317 . S
O59 Cd58 2.317 . S
O59 C60 1.232 . S
C60 O59 1.232 . S
C60 O61 1.218 . S
O61 C60 1.218 . S
C62 O55 1.275 . S
C62 O57 1.255 . S
C63 O64 1.258 . S
C63 O65 1.256 . S
O64 Cd56 2.381 . S
O64 C63 1.258 . S
O65 Cd56 2.378 . S
O65 C63 1.256 . S
O66 Cd67 2.300 . S
O66 C73 1.275 . S
Cd67 O66 2.300 . S
Cd67 O75 2.381 . S
Cd67 O76 2.378 . S
O68 Cd69 2.385 . S
O68 C73 1.255 . S
Cd69 O68 2.385 . S
Cd69 O70 2.317 . S
O70 Cd69 2.317 . S
O70 C71 1.232 . S
C71 O70 1.232 . S
C71 O72 1.218 . S
O72 C71 1.218 . S
C73 O66 1.275 . S
C73 O68 1.255 . S
C74 O75 1.258 . S
C74 O76 1.256 . S
O75 Cd67 2.381 . S
O75 C74 1.258 . S
O76 Cd67 2.378 . S
O76 C74 1.256 . S
O77 Cd78 2.300 . S
O77 C84 1.275 . S
Cd78 O77 2.300 . S
Cd78 O86 2.381 . S
Cd78 O87 2.378 . S
O79 Cd80 2.385 . S
O79 C84 1.255 . S
Cd80 O79 2.385 . S
Cd80 O81 2.317 . S
O81 Cd80 2.317 . S
O81 C82 1.232 . S
C82 O81 1.232 . S
C82 O83 1.218 . S
O83 C82 1.218 . S
C84 O77 1.275 . S
C84 O79 1.255 . S
C85 O86 1.258 . S
C85 O87 1.256 . S
O86 Cd78 2.381 . S
O86 C85 1.258 . S
O87 Cd78 2.378 . S
O87 C85 1.256 . S
La88 C90 2.928 . S
La88 O108 2.521 . S
La88 O109 2.628 . S
La88 O110 2.554 1_545 S
La88 O111 2.757 1_545 S
La88 O112 2.470 . S
La88 O117 2.482 1_455 S
La88 O119 2.503 1_445 S
La89 C99 2.928 1_545 S
La89 O111 2.482 1_645 S
La89 O113 2.503 1_655 S
La89 O114 2.521 1_545 S
La89 O115 2.628 1_545 S
La89 O116 2.554 . S
La89 O117 2.757 . S
La89 O118 2.470 1_545 S
C90 La88 2.928 . S
C90 C91 1.503 . S
C90 O108 1.261 . S
C90 O109 1.243 . S
C91 C90 1.503 . S
C91 C92 1.394 . S
C91 C96 1.373 . S
C92 C91 1.394 . S
C92 C93 1.380 . S
C92 H120 0.930 . S
C93 C92 1.380 . S
C93 C94 1.376 . S
C93 H121 0.930 . S
C94 C93 1.376 . S
C94 C95 1.370 . S
C95 C94 1.370 . S
C95 C96 1.396 . S
C95 H122 0.929 . S
C96 C91 1.373 . S
C96 C95 1.396 . S
C96 H123 0.929 . S
C97 O110 1.240 . S
C97 O111 1.289 . S
C98 O112 1.258 . S
C98 O113 1.256 . S
C99 La89 2.928 1_565 S
C99 C100 1.503 . S
C99 O114 1.261 . S
C99 O115 1.243 . S
C100 C99 1.503 . S
C100 C101 1.394 . S
C100 C105 1.373 . S
C101 C100 1.394 . S
C101 C102 1.380 . S
C101 H124 0.930 . S
C102 C101 1.380 . S
C102 C103 1.376 . S
C102 H125 0.930 . S
C103 C102 1.376 . S
C103 C104 1.370 . S
C104 C103 1.370 . S
C104 C105 1.396 . S
C104 H126 0.929 . S
C105 C100 1.373 . S
C105 C104 1.396 . S
C105 H127 0.929 . S
C106 O116 1.240 . S
C106 O117 1.289 . S
C107 O118 1.258 . S
C107 O119 1.256 . S
O108 La88 2.521 . S
O108 C90 1.261 . S
O109 La88 2.628 . S
O109 C90 1.243 . S
O110 La88 2.554 1_565 S
O110 C97 1.240 . S
O111 La88 2.757 1_565 S
O111 La89 2.482 1_465 S
O111 C97 1.289 . S
O112 La88 2.470 . S
O112 C98 1.258 . S
O113 La89 2.503 1_455 S
O113 C98 1.256 . S
O114 La89 2.521 1_565 S
O114 C99 1.261 . S
O115 La89 2.628 1_565 S
O115 C99 1.243 . S
O116 La89 2.554 . S
O116 C106 1.240 . S
O117 La88 2.482 1_655 S
O117 La89 2.757 . S
O117 C106 1.289 . S
O118 La89 2.470 1_565 S
O118 C107 1.258 . S
O119 La88 2.503 1_665 S
O119 C107 1.256 . S
H120 C92 0.930 . S
H121 C93 0.930 . S
H122 C95 0.929 . S
H123 C96 0.929 . S
H124 C101 0.930 . S
H125 C102 0.930 . S
H126 C104 0.929 . S
H127 C105 0.929 . S
La128 C130 2.928 . S
La128 O148 2.521 . S
La128 O149 2.628 . S
La128 O150 2.554 1_545 S
La128 O151 2.757 . S
La128 O152 2.470 . S
La128 O157 2.482 . S
La128 O159 2.503 . S
La129 C139 2.928 1_544 S
La129 O151 2.482 . S
La129 O153 2.503 . S
La129 O154 2.521 1_554 S
La129 O155 2.628 1_544 S
La129 O156 2.554 . S
La129 O157 2.757 . S
La129 O158 2.470 . S
C130 La128 2.928 . S
C130 C131 1.503 . S
C130 O148 1.261 . S
C130 O149 1.243 . S
C131 C130 1.503 . S
C131 C132 1.394 . S
C131 C136 1.373 . S
C132 C131 1.394 . S
C132 C133 1.380 . S
C132 H160 0.930 . S
C133 C132 1.380 . S
C133 C134 1.376 . S
C133 H161 0.930 . S
C134 C133 1.376 . S
C134 C135 1.370 . S
C135 C134 1.370 . S
C135 C136 1.396 . S
C135 H162 0.929 . S
C136 C131 1.373 . S
C136 C135 1.396 . S
C136 H163 0.929 . S
C137 O150 1.240 . S
C137 O151 1.289 1_565 S
C138 O152 1.258 . S
C138 O153 1.256 . S
C139 La129 2.928 1_566 S
C139 C140 1.503 . S
C139 O154 1.261 1_565 S
C139 O155 1.243 . S
C140 C139 1.503 . S
C140 C141 1.394 . S
C140 C145 1.373 . S
C141 C140 1.394 . S
C141 C142 1.380 . S
C141 H164 0.930 1_565 S
C142 C141 1.380 . S
C142 C143 1.376 . S
C142 H165 0.930 . S
C143 C142 1.376 . S
C143 C144 1.370 . S
C144 C143 1.370 . S
C144 C145 1.396 . S
C144 H166 0.929 . S
C145 C140 1.373 . S
C145 C144 1.396 . S
C145 H167 0.929 . S
C146 O156 1.240 . S
C146 O157 1.289 . S
C147 O158 1.263 . S
C147 O159 1.257 . S
O148 La128 2.521 . S
O148 C130 1.261 . S
O149 La128 2.628 . S
O149 C130 1.243 . S
O150 La128 2.554 1_565 S
O150 C137 1.240 . S
O151 La128 2.757 . S
O151 La129 2.482 . S
O151 C137 1.289 1_545 S
O152 La128 2.470 . S
O152 C138 1.258 . S
O153 La129 2.503 . S
O153 C138 1.256 . S
O154 La129 2.521 1_556 S
O154 C139 1.261 1_545 S
O155 La129 2.628 1_566 S
O155 C139 1.243 . S
O156 La129 2.554 . S
O156 C146 1.240 . S
O157 La128 2.482 . S
O157 La129 2.757 . S
O157 C146 1.289 . S
O158 La129 2.470 . S
O158 C147 1.263 . S
O159 La128 2.503 . S
O159 C147 1.257 . S
H160 C132 0.930 . S
H161 C133 0.930 . S
H162 C135 0.929 . S
H163 C136 0.929 . S
H164 C141 0.930 1_545 S
H165 C142 0.930 . S
H166 C144 0.929 . S
H167 C145 0.929 . S
La168 C170 2.928 . S
La168 O188 2.521 . S
La168 O189 2.628 . S
La168 O190 2.554 . S
La168 O191 2.757 . S
La168 O192 2.470 . S
La168 O197 2.482 . S
La168 O199 2.503 . S
La169 C179 2.928 . S
La169 O191 2.482 . S
La169 O193 2.503 . S
La169 O194 2.521 . S
La169 O195 2.628 . S
La169 O196 2.554 . S
La169 O197 2.757 . S
La169 O198 2.470 . S
C170 La168 2.928 . S
C170 C171 1.503 . S
C170 O188 1.261 . S
C170 O189 1.243 . S
C171 C170 1.503 . S
C171 C172 1.394 . S
C171 C176 1.373 . S
C172 C171 1.394 . S
C172 C173 1.380 . S
C172 H200 0.930 . S
C173 C172 1.380 . S
C173 C174 1.376 . S
C173 H201 0.930 . S
C174 C173 1.376 . S
C174 C175 1.370 . S
C175 C174 1.370 . S
C175 C176 1.396 . S
C175 H202 0.929 . S
C176 C171 1.373 . S
C176 C175 1.396 . S
C176 H203 0.929 . S
C177 O190 1.240 . S
C177 O191 1.289 . S
C178 O192 1.258 . S
C178 O193 1.256 . S
C179 La169 2.928 . S
C179 C180 1.503 . S
C179 O194 1.261 . S
C179 O195 1.243 . S
C180 C179 1.503 . S
C180 C181 1.394 . S
C180 C185 1.373 . S
C181 C180 1.394 . S
C181 C182 1.380 . S
C181 H204 0.930 . S
C182 C181 1.380 . S
C182 C183 1.376 . S
C182 H205 0.930 . S
C183 C182 1.376 . S
C183 C184 1.370 . S
C184 C183 1.370 . S
C184 C185 1.396 . S
C184 H206 0.929 . S
C185 C180 1.373 . S
C185 C184 1.396 . S
C185 H207 0.929 . S
C186 O196 1.240 . S
C186 O197 1.289 . S
C187 O198 1.258 . S
C187 O199 1.256 . S
O188 La168 2.521 . S
O188 C170 1.261 . S
O189 La168 2.628 . S
O189 C170 1.243 . S
O190 La168 2.554 . S
O190 C177 1.240 . S
O191 La168 2.757 . S
O191 La169 2.482 . S
O191 C177 1.289 . S
O192 La168 2.470 . S
O192 C178 1.258 . S
O193 La169 2.503 . S
O193 C178 1.256 . S
O194 La169 2.521 . S
O194 C179 1.261 . S
O195 La169 2.628 . S
O195 C179 1.243 . S
O196 La169 2.554 . S
O196 C186 1.240 . S
O197 La168 2.482 . S
O197 La169 2.757 . S
O197 C186 1.289 . S
O198 La169 2.470 . S
O198 C187 1.258 . S
O199 La168 2.503 . S
O199 C187 1.256 . S
H200 C172 0.930 . S
H201 C173 0.930 . S
H202 C175 0.929 . S
H203 C176 0.929 . S
H204 C181 0.930 . S
H205 C182 0.930 . S
H206 C184 0.929 . S
H207 C185 0.929 . S
La208 C210 2.928 . S
La208 O228 2.521 . S
La208 O229 2.628 . S
La208 O230 2.567 . S
La208 O231 2.774 . S
La208 O232 2.470 . S
La208 O237 2.482 1_554 S
La208 O239 2.503 1_455 S
La209 C219 2.928 1_455 S
La209 O231 2.490 1_556 S
La209 O233 2.503 1_556 S
La209 O234 2.521 1_455 S
La209 O235 2.628 1_455 S
La209 O236 2.554 . S
La209 O237 2.757 . S
La209 O238 2.470 1_455 S
C210 La208 2.928 . S
C210 C211 1.503 . S
C210 O228 1.261 . S
C210 O229 1.243 . S
C211 C210 1.503 . S
C211 C212 1.394 . S
C211 C216 1.373 . S
C212 C211 1.394 . S
C212 C213 1.380 . S
C212 H240 0.930 . S
C213 C212 1.380 . S
C213 C214 1.376 . S
C213 H241 0.930 . S
C214 C213 1.376 . S
C214 C215 1.370 . S
C215 C214 1.370 . S
C215 C216 1.396 . S
C215 H242 0.929 . S
C216 C211 1.373 . S
C216 C215 1.396 . S
C216 H243 0.929 . S
C217 O230 1.230 1_655 S
C217 O231 1.285 1_655 S
C218 O232 1.258 . S
C218 O233 1.256 . S
C219 La209 2.928 1_655 S
C219 C220 1.503 . S
C219 O234 1.261 . S
C219 O235 1.243 . S
C220 C219 1.503 . S
C220 C221 1.394 . S
C220 C225 1.373 . S
C221 C220 1.394 . S
C221 C222 1.380 . S
C221 H244 0.930 . S
C222 C221 1.380 . S
C222 C223 1.376 . S
C222 H245 0.930 . S
C223 C222 1.376 . S
C223 C224 1.370 . S
C224 C223 1.370 . S
C224 C225 1.396 . S
C224 H246 0.929 . S
C225 C220 1.373 . S
C225 C224 1.396 . S
C225 H247 0.929 . S
C226 O236 1.240 . S
C226 O237 1.289 . S
C227 O238 1.258 . S
C227 O239 1.256 1_556 S
O228 La208 2.521 . S
O228 C210 1.261 . S
O229 La208 2.628 . S
O229 C210 1.243 . S
O230 La208 2.567 . S
O230 C217 1.230 1_455 S
O231 La208 2.774 . S
O231 La209 2.490 1_554 S
O231 C217 1.285 1_455 S
O232 La208 2.470 . S
O232 C218 1.258 . S
O233 La209 2.503 1_554 S
O233 C218 1.256 . S
O234 La209 2.521 1_655 S
O234 C219 1.261 . S
O235 La209 2.628 1_655 S
O235 C219 1.243 . S
O236 La209 2.554 . S
O236 C226 1.240 . S
O237 La208 2.482 1_556 S
O237 La209 2.757 . S
O237 C226 1.289 . S
O238 La209 2.470 1_655 S
O238 C227 1.258 . S
O239 La208 2.503 1_655 S
O239 C227 1.256 1_554 S
H240 C212 0.930 . S
H241 C213 0.930 . S
H242 C215 0.929 . S
H243 C216 0.929 . S
H244 C221 0.930 . S
H245 C222 0.930 . S
H246 C224 0.929 . S
H247 C225 0.929 . S
H248 C266 0.951 . S
H249 C268 0.951 . S
H250 C270 0.950 . S
H251 C271 0.950 . S
H252 C273 0.950 . S
H253 C276 0.950 . S
H254 C277 0.950 . S
H255 C279 0.950 . S
H256 C280 0.950 . S
H257 C281 0.951 . S
H258 C283 0.951 . S
H259 C285 0.950 . S
H260 C286 0.950 . S
H261 C288 0.950 . S
H262 C291 0.950 . S
H263 C292 0.950 . S
H264 C294 0.950 . S
H265 C295 0.950 . S
C266 H248 0.951 . S
C266 C267 1.366 . S
C266 C268 1.388 . S
C267 C266 1.366 . S
C267 C271 1.385 . S
C268 H249 0.951 . S
C268 C266 1.388 . S
C268 C269 1.366 . S
C269 C268 1.366 . S
C269 C270 1.414 . S
C269 C272 1.499 . S
C270 H250 0.950 . S
C270 C269 1.414 . S
C270 C271 1.374 . S
C271 H251 0.950 . S
C271 C267 1.385 . S
C271 C270 1.374 . S
C272 C269 1.499 . S
C272 C273 1.373 . S
C272 C274 1.389 . S
C273 H252 0.950 . S
C273 C272 1.373 . S
C273 C289 1.377 . S
C274 C272 1.389 . S
C274 C275 1.524 . S
C274 C288 1.377 . S
C275 C274 1.524 . S
C275 C276 1.397 . S
C275 C280 1.363 . S
C276 H253 0.950 . S
C276 C275 1.397 . S
C276 C277 1.334 . S
C277 H254 0.950 . S
C277 C276 1.334 . S
C277 C278 1.287 . S
C278 C277 1.287 . S
C278 C279 1.524 . S
C278 H297 0.913 . S
C279 H255 0.950 . S
C279 C278 1.524 . S
C279 C280 1.415 . S
C280 H256 0.950 . S
C280 C275 1.363 . S
C280 C279 1.415 . S
C281 H257 0.951 . S
C281 C282 1.366 . S
C281 C283 1.388 . S
C282 C281 1.366 . S
C282 C286 1.385 . S
C283 H258 0.951 . S
C283 C281 1.388 . S
C283 C284 1.366 . S
C284 C283 1.366 . S
C284 C285 1.414 . S
C284 C287 1.499 . S
C285 H259 0.950 . S
C285 C284 1.414 . S
C285 C286 1.374 . S
C286 H260 0.950 . S
C286 C282 1.385 . S
C286 C285 1.374 . S
C287 C284 1.499 . S
C287 C288 1.373 . S
C287 C289 1.389 . S
C288 H261 0.950 . S
C288 C274 1.377 . S
C288 C287 1.373 . S
C289 C273 1.377 . S
C289 C287 1.389 . S
C289 C290 1.524 . S
C290 C289 1.524 . S
C290 C291 1.397 . S
C290 C295 1.363 . S
C291 H262 0.950 . S
C291 C290 1.397 . S
C291 C292 1.334 . S
C292 H263 0.950 . S
C292 C291 1.334 . S
C292 C293 1.287 . S
C293 C292 1.287 . S
C293 C294 1.524 . S
C293 H296 0.999 . S
C294 H264 0.950 . S
C294 C293 1.524 . S
C294 C295 1.415 . S
C295 H265 0.950 . S
C295 C290 1.363 . S
C295 C294 1.415 . S
H296 C293 0.999 . S
H297 C278 0.913 . S
H298 C316 0.951 . S
H299 C318 0.951 . S
H300 C320 0.950 . S
H301 C321 0.950 . S
H302 C323 0.950 . S
H303 C326 0.950 . S
H304 C327 0.950 . S
H305 C329 0.950 . S
H306 C330 0.950 . S
H307 C331 0.951 . S
H308 C333 0.951 . S
H309 C335 0.950 . S
H310 C336 0.950 . S
H311 C338 0.950 . S
H312 C341 0.950 . S
H313 C342 0.950 . S
H314 C344 0.950 . S
H315 C345 0.950 . S
C316 H298 0.951 . S
C316 C317 1.366 . S
C316 C318 1.388 . S
C317 C316 1.366 . S
C317 C321 1.385 . S
C318 H299 0.951 . S
C318 C316 1.388 . S
C318 C319 1.366 . S
C319 C318 1.366 . S
C319 C320 1.414 . S
C319 C322 1.499 . S
C320 H300 0.950 . S
C320 C319 1.414 . S
C320 C321 1.374 . S
C321 H301 0.950 . S
C321 C317 1.385 . S
C321 C320 1.374 . S
C322 C319 1.499 . S
C322 C323 1.373 . S
C322 C324 1.389 . S
C323 H302 0.950 . S
C323 C322 1.373 . S
C323 C339 1.377 . S
C324 C322 1.389 . S
C324 C325 1.524 . S
C324 C338 1.377 . S
C325 C324 1.524 . S
C325 C326 1.397 . S
C325 C330 1.363 . S
C326 H303 0.950 . S
C326 C325 1.397 . S
C326 C327 1.334 . S
C327 H304 0.950 . S
C327 C326 1.334 . S
C327 C328 1.287 . S
C328 C327 1.287 . S
C328 C329 1.524 . S
C328 H347 0.913 . S
C329 H305 0.950 . S
C329 C328 1.524 . S
C329 C330 1.415 . S
C330 H306 0.950 . S
C330 C325 1.363 . S
C330 C329 1.415 . S
C331 H307 0.951 . S
C331 C332 1.366 . S
C331 C333 1.388 . S
C332 C331 1.366 . S
C332 C336 1.385 . S
C333 H308 0.951 . S
C333 C331 1.388 . S
C333 C334 1.366 . S
C334 C333 1.366 . S
C334 C335 1.414 . S
C334 C337 1.499 . S
C335 H309 0.950 . S
C335 C334 1.414 . S
C335 C336 1.374 . S
C336 H310 0.950 . S
C336 C332 1.385 . S
C336 C335 1.374 . S
C337 C334 1.499 . S
C337 C338 1.373 . S
C337 C339 1.389 . S
C338 H311 0.950 . S
C338 C324 1.377 . S
C338 C337 1.373 . S
C339 C323 1.377 . S
C339 C337 1.389 . S
C339 C340 1.524 . S
C340 C339 1.524 . S
C340 C341 1.397 . S
C340 C345 1.363 . S
C341 H312 0.950 . S
C341 C340 1.397 . S
C341 C342 1.334 . S
C342 H313 0.950 . S
C342 C341 1.334 . S
C342 C343 1.287 . S
C343 C342 1.287 . S
C343 C344 1.524 . S
C343 H346 0.999 . S
C344 H314 0.950 . S
C344 C343 1.524 . S
C344 C345 1.415 . S
C345 H315 0.950 . S
C345 C340 1.363 . S
C345 C344 1.415 . S
H346 C343 0.999 . S
H347 C328 0.913 . S
H348 C366 0.951 . S
H349 C368 0.951 . S
H350 C370 0.950 . S
H351 C371 0.950 . S
H352 C373 0.950 . S
H353 C376 0.950 . S
H354 C377 0.950 . S
H355 C379 0.950 . S
H356 C380 0.950 . S
H357 C381 0.951 . S
H358 C383 0.951 . S
H359 C385 0.950 . S
H360 C386 0.950 . S
H361 C388 0.950 . S
H362 C391 0.950 . S
H363 C392 0.950 . S
H364 C394 0.950 . S
H365 C395 0.950 . S
C366 H348 0.951 . S
C366 C367 1.366 . S
C366 C368 1.388 . S
C367 C366 1.366 . S
C367 C371 1.385 . S
C368 H349 0.951 . S
C368 C366 1.388 . S
C368 C369 1.366 . S
C369 C368 1.366 . S
C369 C370 1.414 . S
C369 C372 1.499 . S
C370 H350 0.950 . S
C370 C369 1.414 . S
C370 C371 1.374 . S
C371 H351 0.950 . S
C371 C367 1.385 . S
C371 C370 1.374 . S
C372 C369 1.499 . S
C372 C373 1.373 . S
C372 C374 1.389 . S
C373 H352 0.950 . S
C373 C372 1.373 . S
C373 C389 1.377 . S
C374 C372 1.389 . S
C374 C375 1.524 . S
C374 C388 1.377 . S
C375 C374 1.524 . S
C375 C376 1.397 . S
C375 C380 1.363 . S
C376 H353 0.950 . S
C376 C375 1.397 . S
C376 C377 1.334 . S
C377 H354 0.950 . S
C377 C376 1.334 . S
C377 C378 1.287 . S
C378 C377 1.287 . S
C378 C379 1.524 . S
C378 H397 0.913 . S
C379 H355 0.950 . S
C379 C378 1.524 . S
C379 C380 1.415 . S
C380 H356 0.950 . S
C380 C375 1.363 . S
C380 C379 1.415 . S
C381 H357 0.951 . S
C381 C382 1.366 . S
C381 C383 1.388 . S
C382 C381 1.366 . S
C382 C386 1.385 . S
C383 H358 0.951 . S
C383 C381 1.388 . S
C383 C384 1.366 . S
C384 C383 1.366 . S
C384 C385 1.414 . S
C384 C387 1.499 . S
C385 H359 0.950 . S
C385 C384 1.414 . S
C385 C386 1.374 . S
C386 H360 0.950 . S
C386 C382 1.385 . S
C386 C385 1.374 . S
C387 C384 1.499 . S
C387 C388 1.373 . S
C387 C389 1.389 . S
C388 H361 0.950 . S
C388 C374 1.377 . S
C388 C387 1.373 . S
C389 C373 1.377 . S
C389 C387 1.389 . S
C389 C390 1.524 . S
C390 C389 1.524 . S
C390 C391 1.397 . S
C390 C395 1.363 . S
C391 H362 0.950 . S
C391 C390 1.397 . S
C391 C392 1.334 . S
C392 H363 0.950 . S
C392 C391 1.334 . S
C392 C393 1.287 . S
C393 C392 1.287 . S
C393 C394 1.524 . S
C393 H396 0.999 . S
C394 H364 0.950 . S
C394 C393 1.524 . S
C394 C395 1.415 . S
C395 H365 0.950 . S
C395 C390 1.363 . S
C395 C394 1.415 . S
H396 C393 0.999 . S
H397 C378 0.913 . S
H398 C416 0.951 . S
H399 C418 0.951 . S
H400 C420 0.950 . S
H401 C421 0.950 . S
H402 C423 0.950 . S
H403 C426 0.950 . S
H404 C427 0.950 . S
H405 C429 0.950 . S
H406 C430 0.961 . S
H407 C431 0.951 . S
H408 C433 0.951 . S
H409 C435 0.950 1_455 S
H410 C436 0.940 1_455 S
H411 C438 0.950 . S
H412 C441 0.950 . S
H413 C442 0.950 . S
H414 C444 0.950 . S
H415 C445 0.950 . S
C416 H398 0.951 . S
C416 C417 1.366 . S
C416 C418 1.388 . S
C417 C416 1.366 . S
C417 C421 1.385 . S
C418 H399 0.951 . S
C418 C416 1.388 . S
C418 C419 1.366 . S
C419 C418 1.366 . S
C419 C420 1.414 . S
C419 C422 1.499 . S
C420 H400 0.950 . S
C420 C419 1.414 . S
C420 C421 1.374 . S
C421 H401 0.950 . S
C421 C417 1.385 . S
C421 C420 1.374 . S
C422 C419 1.499 . S
C422 C423 1.373 . S
C422 C424 1.389 . S
C423 H402 0.950 . S
C423 C422 1.373 . S
C423 C439 1.377 . S
C424 C422 1.389 . S
C424 C425 1.524 . S
C424 C438 1.377 . S
C425 C424 1.524 . S
C425 C426 1.397 . S
C425 C430 1.347 1_655 S
C426 H403 0.950 . S
C426 C425 1.397 . S
C426 C427 1.334 . S
C427 H404 0.950 . S
C427 C426 1.334 . S
C427 C428 1.287 . S
C428 C427 1.287 . S
C428 C429 1.524 1_655 S
C428 H447 0.913 1_655 S
C429 H405 0.950 . S
C429 C428 1.524 1_455 S
C429 C430 1.420 . S
C430 H406 0.961 . S
C430 C425 1.347 1_455 S
C430 C429 1.420 . S
C431 H407 0.951 . S
C431 C432 1.366 . S
C431 C433 1.388 . S
C432 C431 1.366 . S
C432 C436 1.391 . S
C433 H408 0.951 . S
C433 C431 1.388 . S
C433 C434 1.366 . S
C434 C433 1.366 . S
C434 C435 1.414 . S
C434 C437 1.499 . S
C435 H409 0.950 1_655 S
C435 C434 1.414 . S
C435 C436 1.377 . S
C436 H410 0.940 1_655 S
C436 C432 1.391 . S
C436 C435 1.377 . S
C437 C434 1.499 . S
C437 C438 1.373 . S
C437 C439 1.389 . S
C438 H411 0.950 . S
C438 C424 1.377 . S
C438 C437 1.373 . S
C439 C423 1.377 . S
C439 C437 1.389 . S
C439 C440 1.524 . S
C440 C439 1.524 . S
C440 C441 1.397 . S
C440 C445 1.363 . S
C441 H412 0.950 . S
C441 C440 1.397 . S
C441 C442 1.334 . S
C442 H413 0.950 . S
C442 C441 1.334 . S
C442 C443 1.287 . S
C443 C442 1.287 . S
C443 C444 1.524 . S
C443 H446 0.999 . S
C444 H414 0.950 . S
C444 C443 1.524 . S
C444 C445 1.415 . S
C445 H415 0.950 . S
C445 C440 1.363 . S
C445 C444 1.415 . S
H446 C443 0.999 . S
H447 C428 0.913 1_455 S
H448 C466 0.951 . S
H449 C468 0.951 . S
H450 C470 0.950 . S
H451 C471 0.950 . S
H452 C473 0.950 . S
H453 C476 0.950 . S
H454 C477 0.950 . S
H455 C479 0.950 . S
H456 C480 0.950 . S
H457 C481 0.951 . S
H458 C483 0.951 . S
H459 C485 0.950 . S
H460 C486 0.950 . S
H461 C488 0.950 . S
H462 C491 0.950 . S
H463 C492 0.950 . S
H464 C494 0.950 . S
H465 C495 0.950 . S
C466 H448 0.951 . S
C466 C467 1.366 . S
C466 C468 1.388 . S
C467 C466 1.366 . S
C467 C471 1.385 . S
C468 H449 0.951 . S
C468 C466 1.388 . S
C468 C469 1.366 . S
C469 C468 1.366 . S
C469 C470 1.414 . S
C469 C472 1.499 . S
C470 H450 0.950 . S
C470 C469 1.414 . S
C470 C471 1.374 . S
C471 H451 0.950 . S
C471 C467 1.385 . S
C471 C470 1.374 . S
C472 C469 1.499 . S
C472 C473 1.373 . S
C472 C474 1.389 . S
C473 H452 0.950 . S
C473 C472 1.373 . S
C473 C489 1.377 . S
C474 C472 1.389 . S
C474 C475 1.524 . S
C474 C488 1.377 . S
C475 C474 1.524 . S
C475 C476 1.397 . S
C475 C480 1.363 . S
C476 H453 0.950 . S
C476 C475 1.397 . S
C476 C477 1.334 . S
C477 H454 0.950 . S
C477 C476 1.334 . S
C477 C478 1.287 . S
C478 C477 1.287 . S
C478 C479 1.524 . S
C478 H497 0.913 . S
C479 H455 0.950 . S
C479 C478 1.524 . S
C479 C480 1.415 . S
C480 H456 0.950 . S
C480 C475 1.363 . S
C480 C479 1.415 . S
C481 H457 0.951 . S
C481 C482 1.366 . S
C481 C483 1.388 . S
C482 C481 1.366 . S
C482 C486 1.385 . S
C483 H458 0.951 . S
C483 C481 1.388 . S
C483 C484 1.366 . S
C484 C483 1.366 . S
C484 C485 1.414 . S
C484 C487 1.499 . S
C485 H459 0.950 . S
C485 C484 1.414 . S
C485 C486 1.374 . S
C486 H460 0.950 . S
C486 C482 1.385 . S
C486 C485 1.374 . S
C487 C484 1.499 . S
C487 C488 1.373 . S
C487 C489 1.389 . S
C488 H461 0.950 . S
C488 C474 1.377 . S
C488 C487 1.373 . S
C489 C473 1.377 . S
C489 C487 1.389 . S
C489 C490 1.524 . S
C490 C489 1.524 . S
C490 C491 1.397 . S
C490 C495 1.363 . S
C491 H462 0.950 . S
C491 C490 1.397 . S
C491 C492 1.334 . S
C492 H463 0.950 . S
C492 C491 1.334 . S
C492 C493 1.287 . S
C493 C492 1.287 . S
C493 C494 1.524 . S
C493 H496 0.999 . S
C494 H464 0.950 . S
C494 C493 1.524 . S
C494 C495 1.415 . S
C495 H465 0.950 . S
C495 C490 1.363 . S
C495 C494 1.415 . S
H496 C493 0.999 . S
H497 C478 0.913 . S
H498 C516 0.951 . S
H499 C518 0.951 . S
H500 C520 0.950 . S
H501 C521 0.950 . S
H502 C523 0.950 . S
H503 C526 0.950 . S
H504 C527 0.950 . S
H505 C529 0.950 . S
H506 C530 0.950 . S
H507 C531 0.951 . S
H508 C533 0.951 . S
H509 C535 0.950 . S
H510 C536 0.950 1_545 S
H511 C538 0.950 . S
H512 C541 0.950 . S
H513 C542 0.950 . S
H514 C544 0.950 . S
H515 C545 0.950 . S
C516 H498 0.951 . S
C516 C517 1.366 . S
C516 C518 1.388 . S
C517 C516 1.366 . S
C517 C521 1.385 . S
C518 H499 0.951 . S
C518 C516 1.388 . S
C518 C519 1.366 . S
C519 C518 1.366 . S
C519 C520 1.414 . S
C519 C522 1.499 . S
C520 H500 0.950 . S
C520 C519 1.414 . S
C520 C521 1.374 . S
C521 H501 0.950 . S
C521 C517 1.385 . S
C521 C520 1.374 . S
C522 C519 1.499 . S
C522 C523 1.373 . S
C522 C524 1.389 . S
C523 H502 0.950 . S
C523 C522 1.373 . S
C523 C539 1.377 . S
C524 C522 1.389 . S
C524 C525 1.524 . S
C524 C538 1.377 . S
C525 C524 1.524 . S
C525 C526 1.397 . S
C525 C530 1.363 . S
C526 H503 0.950 . S
C526 C525 1.397 . S
C526 C527 1.334 . S
C527 H504 0.950 . S
C527 C526 1.334 . S
C527 C528 1.287 . S
C528 C527 1.287 . S
C528 C529 1.524 1_565 S
C528 H547 0.913 . S
C529 H505 0.950 . S
C529 C528 1.524 1_545 S
C529 C530 1.415 1_545 S
C530 H506 0.950 . S
C530 C525 1.363 . S
C530 C529 1.415 1_565 S
C531 H507 0.951 . S
C531 C532 1.366 . S
C531 C533 1.388 . S
C532 C531 1.366 . S
C532 C536 1.385 . S
C533 H508 0.951 . S
C533 C531 1.388 . S
C533 C534 1.366 . S
C534 C533 1.366 . S
C534 C535 1.414 . S
C534 C537 1.499 . S
C535 H509 0.950 . S
C535 C534 1.414 . S
C535 C536 1.374 . S
C536 H510 0.950 1_565 S
C536 C532 1.385 . S
C536 C535 1.374 . S
C537 C534 1.499 . S
C537 C538 1.373 . S
C537 C539 1.389 . S
C538 H511 0.950 . S
C538 C524 1.377 . S
C538 C537 1.373 . S
C539 C523 1.377 . S
C539 C537 1.389 . S
C539 C540 1.524 . S
C540 C539 1.524 . S
C540 C541 1.397 . S
C540 C545 1.363 . S
C541 H512 0.950 . S
C541 C540 1.397 . S
C541 C542 1.334 . S
C542 H513 0.950 . S
C542 C541 1.334 . S
C542 C543 1.287 . S
C543 C542 1.287 . S
C543 C544 1.524 . S
C543 H546 0.999 . S
C544 H514 0.950 . S
C544 C543 1.524 . S
C544 C545 1.415 . S
C545 H515 0.950 . S
C545 C540 1.363 . S
C545 C544 1.415 . S
H546 C543 0.999 . S
H547 C528 0.913 . S
H548 C566 0.951 . S
H549 C568 0.951 . S
H550 C570 0.950 . S
H551 C571 0.950 . S
H552 C573 0.950 . S
H553 C576 0.950 . S
H554 C577 0.950 . S
H555 C579 0.950 . S
H556 C580 0.950 . S
H557 C581 0.951 1_554 S
H558 C583 0.951 . S
H559 C585 0.950 . S
H560 C586 0.950 . S
H561 C588 0.950 . S
H562 C591 0.950 . S
H563 C592 0.950 . S
H564 C594 0.950 . S
H565 C595 0.950 . S
C566 H548 0.951 . S
C566 C567 1.366 . S
C566 C568 1.388 . S
C567 C566 1.366 . S
C567 C571 1.385 . S
C568 H549 0.951 . S
C568 C566 1.388 . S
C568 C569 1.366 . S
C569 C568 1.366 . S
C569 C570 1.414 . S
C569 C572 1.499 . S
C570 H550 0.950 . S
C570 C569 1.414 . S
C570 C571 1.374 . S
C571 H551 0.950 . S
C571 C567 1.385 . S
C571 C570 1.374 . S
C572 C569 1.499 . S
C572 C573 1.373 . S
C572 C574 1.389 . S
C573 H552 0.950 . S
C573 C572 1.373 . S
C573 C589 1.377 . S
C574 C572 1.389 . S
C574 C575 1.524 . S
C574 C588 1.377 . S
C575 C574 1.524 . S
C575 C576 1.397 . S
C575 C580 1.363 . S
C576 H553 0.950 . S
C576 C575 1.397 . S
C576 C577 1.334 . S
C577 H554 0.950 . S
C577 C576 1.334 . S
C577 C578 1.287 . S
C578 C577 1.287 . S
C578 C579 1.524 . S
C578 H597 0.913 . S
C579 H555 0.950 . S
C579 C578 1.524 . S
C579 C580 1.415 . S
C580 H556 0.950 . S
C580 C575 1.363 . S
C580 C579 1.415 . S
C581 H557 0.951 1_556 S
C581 C582 1.366 . S
C581 C583 1.388 . S
C582 C581 1.366 . S
C582 C586 1.385 . S
C583 H558 0.951 . S
C583 C581 1.388 . S
C583 C584 1.366 . S
C584 C583 1.366 . S
C584 C585 1.414 . S
C584 C587 1.499 . S
C585 H559 0.950 . S
C585 C584 1.414 . S
C585 C586 1.374 . S
C586 H560 0.950 . S
C586 C582 1.385 . S
C586 C585 1.374 . S
C587 C584 1.499 . S
C587 C588 1.373 . S
C587 C589 1.389 . S
C588 H561 0.950 . S
C588 C574 1.377 . S
C588 C587 1.373 . S
C589 C573 1.377 . S
C589 C587 1.389 . S
C589 C590 1.524 . S
C590 C589 1.524 . S
C590 C591 1.397 . S
C590 C595 1.363 . S
C591 H562 0.950 . S
C591 C590 1.397 . S
C591 C592 1.334 . S
C592 H563 0.950 . S
C592 C591 1.334 . S
C592 C593 1.287 1_556 S
C593 C592 1.287 1_554 S
C593 C594 1.524 . S
C593 H596 0.999 . S
C594 H564 0.950 . S
C594 C593 1.524 . S
C594 C595 1.415 1_554 S
C595 H565 0.950 . S
C595 C590 1.363 . S
C595 C594 1.415 1_556 S
H596 C593 0.999 . S
H597 C578 0.913 . S
H598 C616 0.951 . S
H599 C618 0.951 . S
H600 C620 0.950 . S
H601 C621 0.950 . S
H602 C623 0.950 . S
H603 C626 0.950 . S
H604 C627 0.950 . S
H605 C629 0.950 . S
H606 C630 0.950 . S
H607 C631 0.951 . S
H608 C633 0.951 . S
H609 C635 0.950 . S
H610 C636 0.950 . S
H611 C638 0.950 . S
H612 C641 0.950 . S
H613 C642 0.950 . S
H614 C644 0.950 . S
H615 C645 0.950 . S
C616 H598 0.951 . S
C616 C617 1.366 . S
C616 C618 1.388 . S
C617 C616 1.366 . S
C617 C621 1.385 . S
C618 H599 0.951 . S
C618 C616 1.388 . S
C618 C619 1.366 . S
C619 C618 1.366 . S
C619 C620 1.414 . S
C619 C622 1.499 . S
C620 H600 0.950 . S
C620 C619 1.414 . S
C620 C621 1.374 . S
C621 H601 0.950 . S
C621 C617 1.385 . S
C621 C620 1.374 . S
C622 C619 1.499 . S
C622 C623 1.373 . S
C622 C624 1.389 . S
C623 H602 0.950 . S
C623 C622 1.373 . S
C623 C639 1.377 . S
C624 C622 1.389 . S
C624 C625 1.524 . S
C624 C638 1.377 . S
C625 C624 1.524 . S
C625 C626 1.397 . S
C625 C630 1.363 . S
C626 H603 0.950 . S
C626 C625 1.397 . S
C626 C627 1.334 . S
C627 H604 0.950 . S
C627 C626 1.334 . S
C627 C628 1.287 . S
C628 C627 1.287 . S
C628 C629 1.524 . S
C628 H647 0.913 . S
C629 H605 0.950 . S
C629 C628 1.524 . S
C629 C630 1.415 . S
C630 H606 0.950 . S
C630 C625 1.363 . S
C630 C629 1.415 . S
C631 H607 0.951 . S
C631 C632 1.366 . S
C631 C633 1.388 . S
C632 C631 1.366 . S
C632 C636 1.385 . S
C633 H608 0.951 . S
C633 C631 1.388 . S
C633 C634 1.366 . S
C634 C633 1.366 . S
C634 C635 1.414 . S
C634 C637 1.499 . S
C635 H609 0.950 . S
C635 C634 1.414 . S
C635 C636 1.374 . S
C636 H610 0.950 . S
C636 C632 1.385 . S
C636 C635 1.374 . S
C637 C634 1.499 . S
C637 C638 1.373 . S
C637 C639 1.389 . S
C638 H611 0.950 . S
C638 C624 1.377 . S
C638 C637 1.373 . S
C639 C623 1.377 . S
C639 C637 1.389 . S
C639 C640 1.524 . S
C640 C639 1.524 . S
C640 C641 1.397 . S
C640 C645 1.363 . S
C641 H612 0.950 . S
C641 C640 1.397 . S
C641 C642 1.334 . S
C642 H613 0.950 . S
C642 C641 1.334 . S
C642 C643 1.287 . S
C643 C642 1.287 . S
C643 C644 1.524 . S
C643 H646 0.999 . S
C644 H614 0.950 . S
C644 C643 1.524 . S
C644 C645 1.415 . S
C645 H615 0.950 . S
C645 C640 1.363 . S
C645 C644 1.415 . S
H646 C643 0.999 . S
H647 C628 0.913 . S
H648 C666 0.951 . S
H649 C668 0.951 . S
H650 C670 0.950 . S
H651 C671 0.950 . S
H652 C673 0.950 . S
H653 C676 0.950 . S
H654 C677 0.950 . S
H655 C679 0.950 . S
H656 C680 0.950 . S
H657 C681 0.951 . S
H658 C683 0.951 . S
H659 C685 0.950 . S
H660 C686 0.950 . S
H661 C688 0.950 . S
H662 C691 0.950 . S
H663 C692 0.950 . S
H664 C694 0.950 . S
H665 C695 0.950 . S
C666 H648 0.951 . S
C666 C667 1.366 . S
C666 C668 1.388 . S
C667 C666 1.366 . S
C667 C671 1.385 . S
C668 H649 0.951 . S
C668 C666 1.388 . S
C668 C669 1.366 . S
C669 C668 1.366 . S
C669 C670 1.414 . S
C669 C672 1.499 . S
C670 H650 0.950 . S
C670 C669 1.414 . S
C670 C671 1.374 . S
C671 H651 0.950 . S
C671 C667 1.385 . S
C671 C670 1.374 . S
C672 C669 1.499 . S
C672 C673 1.373 . S
C672 C674 1.389 . S
C673 H652 0.950 . S
C673 C672 1.373 . S
C673 C689 1.377 . S
C674 C672 1.389 . S
C674 C675 1.524 . S
C674 C688 1.377 . S
C675 C674 1.524 . S
C675 C676 1.397 . S
C675 C680 1.363 . S
C676 H653 0.950 . S
C676 C675 1.397 . S
C676 C677 1.334 . S
C677 H654 0.950 . S
C677 C676 1.334 . S
C677 C678 1.287 . S
C678 C677 1.287 . S
C678 C679 1.524 . S
C678 H697 0.913 . S
C679 H655 0.950 . S
C679 C678 1.524 . S
C679 C680 1.415 . S
C680 H656 0.950 . S
C680 C675 1.363 . S
C680 C679 1.415 . S
C681 H657 0.951 . S
C681 C682 1.366 . S
C681 C683 1.388 . S
C682 C681 1.366 . S
C682 C686 1.385 . S
C683 H658 0.951 . S
C683 C681 1.388 . S
C683 C684 1.366 . S
C684 C683 1.366 . S
C684 C685 1.414 . S
C684 C687 1.499 . S
C685 H659 0.950 . S
C685 C684 1.414 . S
C685 C686 1.374 . S
C686 H660 0.950 . S
C686 C682 1.385 . S
C686 C685 1.374 . S
C687 C684 1.499 . S
C687 C688 1.373 . S
C687 C689 1.389 . S
C688 H661 0.950 . S
C688 C674 1.377 . S
C688 C687 1.373 . S
C689 C673 1.377 . S
C689 C687 1.389 . S
C689 C690 1.524 . S
C690 C689 1.524 . S
C690 C691 1.397 . S
C690 C695 1.363 . S
C691 H662 0.950 . S
C691 C690 1.397 . S
C691 C692 1.334 . S
C692 H663 0.950 . S
C692 C691 1.334 . S
C692 C693 1.287 . S
C693 C692 1.287 . S
C693 C694 1.524 . S
C693 H696 0.999 . S
C694 H664 0.950 . S
C694 C693 1.524 . S
C694 C695 1.415 . S
C695 H665 0.950 . S
C695 C690 1.363 . S
C695 C694 1.415 . S
H696 C693 0.999 . S
H697 C678 0.913 . S
H698 C716 0.951 . S
H699 C718 0.951 . S
H700 C720 0.950 . S
H701 C721 0.950 . S
H702 C723 0.950 . S
H703 C726 0.950 . S
H704 C727 0.950 . S
H705 C729 0.950 . S
H706 C730 0.950 . S
H707 C731 0.951 . S
H708 C733 0.951 . S
H709 C735 0.950 . S
H710 C736 0.950 . S
H711 C738 0.950 . S
H712 C741 0.950 . S
H713 C742 0.950 . S
H714 C744 0.950 . S
H715 C745 0.950 . S
C716 H698 0.951 . S
C716 C717 1.366 . S
C716 C718 1.388 . S
C717 C716 1.366 . S
C717 C721 1.385 . S
C718 H699 0.951 . S
C718 C716 1.388 . S
C718 C719 1.366 . S
C719 C718 1.366 . S
C719 C720 1.414 . S
C719 C722 1.499 . S
C720 H700 0.950 . S
C720 C719 1.414 . S
C720 C721 1.374 . S
C721 H701 0.950 . S
C721 C717 1.385 . S
C721 C720 1.374 . S
C722 C719 1.499 . S
C722 C723 1.373 . S
C722 C724 1.389 . S
C723 H702 0.950 . S
C723 C722 1.373 . S
C723 C739 1.377 . S
C724 C722 1.389 . S
C724 C725 1.524 . S
C724 C738 1.377 . S
C725 C724 1.524 . S
C725 C726 1.397 . S
C725 C730 1.363 . S
C726 H703 0.950 . S
C726 C725 1.397 . S
C726 C727 1.334 . S
C727 H704 0.950 . S
C727 C726 1.334 . S
C727 C728 1.287 . S
C728 C727 1.287 . S
C728 C729 1.524 . S
C728 H747 0.913 . S
C729 H705 0.950 . S
C729 C728 1.524 . S
C729 C730 1.415 . S
C730 H706 0.950 . S
C730 C725 1.363 . S
C730 C729 1.415 . S
C731 H707 0.951 . S
C731 C732 1.366 . S
C731 C733 1.388 . S
C732 C731 1.366 . S
C732 C736 1.385 1_554 S
C733 H708 0.951 . S
C733 C731 1.388 . S
C733 C734 1.366 1_554 S
C734 C733 1.366 1_556 S
C734 C735 1.414 . S
C734 C737 1.499 . S
C735 H709 0.950 . S
C735 C734 1.414 . S
C735 C736 1.374 . S
C736 H710 0.950 . S
C736 C732 1.385 1_556 S
C736 C735 1.374 . S
C737 C734 1.499 . S
C737 C738 1.373 . S
C737 C739 1.389 . S
C738 H711 0.950 . S
C738 C724 1.377 . S
C738 C737 1.373 . S
C739 C723 1.377 . S
C739 C737 1.389 . S
C739 C740 1.504 1_556 S
C740 C739 1.504 1_554 S
C740 C741 1.396 1_554 S
C740 C745 1.383 . S
C741 H712 0.950 . S
C741 C740 1.396 1_556 S
C741 C742 1.334 1_556 S
C742 H713 0.950 . S
C742 C741 1.334 1_554 S
C742 C743 1.287 . S
C743 C742 1.287 . S
C743 C744 1.524 . S
C743 H746 0.999 . S
C744 H714 0.950 . S
C744 C743 1.524 . S
C744 C745 1.415 . S
C745 H715 0.950 . S
C745 C740 1.383 . S
C745 C744 1.415 . S
H746 C743 0.999 . S
H747 C728 0.913 . S
H748 C766 0.951 . S
H749 C768 0.951 . S
H750 C770 0.950 . S
H751 C771 0.950 . S
H752 C773 0.950 . S
H753 C776 0.950 . S
H754 C777 0.950 . S
H755 C779 0.950 . S
H756 C780 0.950 . S
H757 C781 0.951 . S
H758 C783 0.951 . S
H759 C785 0.950 . S
H760 C786 0.950 . S
H761 C788 0.950 . S
H762 C791 0.950 . S
H763 C792 0.950 . S
H764 C794 0.950 . S
H765 C795 0.950 . S
C766 H748 0.951 . S
C766 C767 1.366 . S
C766 C768 1.388 . S
C767 C766 1.366 . S
C767 C771 1.385 . S
C768 H749 0.951 . S
C768 C766 1.388 . S
C768 C769 1.366 . S
C769 C768 1.366 . S
C769 C770 1.414 . S
C769 C772 1.499 . S
C770 H750 0.950 . S
C770 C769 1.414 . S
C770 C771 1.374 . S
C771 H751 0.950 . S
C771 C767 1.385 . S
C771 C770 1.374 . S
C772 C769 1.499 . S
C772 C773 1.373 . S
C772 C774 1.389 . S
C773 H752 0.950 . S
C773 C772 1.373 . S
C773 C789 1.377 . S
C774 C772 1.389 . S
C774 C775 1.524 . S
C774 C788 1.377 . S
C775 C774 1.524 . S
C775 C776 1.397 . S
C775 C780 1.363 . S
C776 H753 0.950 . S
C776 C775 1.397 . S
C776 C777 1.334 . S
C777 H754 0.950 . S
C777 C776 1.334 . S
C777 C778 1.287 . S
C778 C777 1.287 . S
C778 C779 1.524 . S
C778 H797 0.913 . S
C779 H755 0.950 . S
C779 C778 1.524 . S
C779 C780 1.415 . S
C780 H756 0.950 . S
C780 C775 1.363 . S
C780 C779 1.415 . S
C781 H757 0.951 . S
C781 C782 1.366 . S
C781 C783 1.388 . S
C782 C781 1.366 . S
C782 C786 1.385 . S
C783 H758 0.951 . S
C783 C781 1.388 . S
C783 C784 1.366 . S
C784 C783 1.366 . S
C784 C785 1.414 . S
C784 C787 1.499 . S
C785 H759 0.950 . S
C785 C784 1.414 . S
C785 C786 1.374 . S
C786 H760 0.950 . S
C786 C782 1.385 . S
C786 C785 1.374 . S
C787 C784 1.499 . S
C787 C788 1.373 . S
C787 C789 1.389 . S
C788 H761 0.950 . S
C788 C774 1.377 . S
C788 C787 1.373 . S
C789 C773 1.377 . S
C789 C787 1.389 . S
C789 C790 1.524 . S
C790 C789 1.524 . S
C790 C791 1.397 . S
C790 C795 1.363 . S
C791 H762 0.950 . S
C791 C790 1.397 . S
C791 C792 1.334 . S
C792 H763 0.950 . S
C792 C791 1.334 . S
C792 C793 1.287 . S
C793 C792 1.287 . S
C793 C794 1.524 . S
C793 H796 0.999 . S
C794 H764 0.950 . S
C794 C793 1.524 . S
C794 C795 1.415 . S
C795 H765 0.950 . S
C795 C790 1.363 . S
C795 C794 1.415 . S
H796 C793 0.999 . S
H797 C778 0.913 . S
H798 C816 0.951 . S
H799 C818 0.951 . S
H800 C820 0.950 . S
H801 C821 0.950 . S
H802 C823 0.950 . S
H803 C826 0.950 . S
H804 C827 0.950 . S
H805 C829 0.950 . S
H806 C830 0.950 . S
H807 C831 0.951 . S
H808 C833 0.951 . S
H809 C835 0.950 . S
H810 C836 0.950 . S
H811 C838 0.950 . S
H812 C841 0.950 . S
H813 C842 0.950 . S
H814 C844 0.950 . S
H815 C845 0.950 . S
C816 H798 0.951 . S
C816 C817 1.366 . S
C816 C818 1.388 . S
C817 C816 1.366 . S
C817 C821 1.385 . S
C818 H799 0.951 . S
C818 C816 1.388 . S
C818 C819 1.366 . S
C819 C818 1.366 . S
C819 C820 1.414 . S
C819 C822 1.499 . S
C820 H800 0.950 . S
C820 C819 1.414 . S
C820 C821 1.374 . S
C821 H801 0.950 . S
C821 C817 1.385 . S
C821 C820 1.374 . S
C822 C819 1.499 . S
C822 C823 1.373 . S
C822 C824 1.389 . S
C823 H802 0.950 . S
C823 C822 1.373 . S
C823 C839 1.377 . S
C824 C822 1.389 . S
C824 C825 1.524 . S
C824 C838 1.377 . S
C825 C824 1.524 . S
C825 C826 1.397 . S
C825 C830 1.363 . S
C826 H803 0.950 . S
C826 C825 1.397 . S
C826 C827 1.334 . S
C827 H804 0.950 . S
C827 C826 1.334 . S
C827 C828 1.287 . S
C828 C827 1.287 . S
C828 C829 1.524 . S
C828 H847 0.913 . S
C829 H805 0.950 . S
C829 C828 1.524 . S
C829 C830 1.415 . S
C830 H806 0.950 . S
C830 C825 1.363 . S
C830 C829 1.415 . S
C831 H807 0.951 . S
C831 C832 1.366 . S
C831 C833 1.388 . S
C832 C831 1.366 . S
C832 C836 1.385 . S
C833 H808 0.951 . S
C833 C831 1.388 . S
C833 C834 1.366 . S
C834 C833 1.366 . S
C834 C835 1.414 . S
C834 C837 1.499 . S
C835 H809 0.950 . S
C835 C834 1.414 . S
C835 C836 1.374 . S
C836 H810 0.950 . S
C836 C832 1.385 . S
C836 C835 1.374 . S
C837 C834 1.499 . S
C837 C838 1.373 . S
C837 C839 1.389 . S
C838 H811 0.950 . S
C838 C824 1.377 . S
C838 C837 1.373 . S
C839 C823 1.377 . S
C839 C837 1.389 . S
C839 C840 1.524 . S
C840 C839 1.524 . S
C840 C841 1.397 . S
C840 C845 1.363 . S
C841 H812 0.950 . S
C841 C840 1.397 . S
C841 C842 1.334 . S
C842 H813 0.950 . S
C842 C841 1.334 . S
C842 C843 1.287 . S
C843 C842 1.287 . S
C843 C844 1.524 . S
C843 H846 0.999 . S
C844 H814 0.950 . S
C844 C843 1.524 . S
C844 C845 1.415 . S
C845 H815 0.950 . S
C845 C840 1.363 . S
C845 C844 1.415 . S
H846 C843 0.999 . S
H847 C828 0.913 . S
H848 C866 0.951 . S
H849 C868 0.951 . S
H850 C870 0.950 . S
H851 C871 0.950 . S
H852 C873 0.950 . S
H853 C876 0.950 . S
H854 C877 0.950 . S
H855 C879 0.950 . S
H856 C880 0.950 . S
H857 C881 0.951 . S
H858 C883 0.951 . S
H859 C885 0.950 . S
H860 C886 0.950 . S
H861 C888 0.950 . S
H862 C891 0.950 . S
H863 C892 0.950 . S
H864 C894 0.950 . S
H865 C895 0.950 . S
C866 H848 0.951 . S
C866 C867 1.366 . S
C866 C868 1.388 . S
C867 C866 1.366 . S
C867 C871 1.385 . S
C868 H849 0.951 . S
C868 C866 1.388 . S
C868 C869 1.366 . S
C869 C868 1.366 . S
C869 C870 1.414 . S
C869 C872 1.499 . S
C870 H850 0.950 . S
C870 C869 1.414 . S
C870 C871 1.374 . S
C871 H851 0.950 . S
C871 C867 1.385 . S
C871 C870 1.374 . S
C872 C869 1.499 . S
C872 C873 1.373 . S
C872 C874 1.389 . S
C873 H852 0.950 . S
C873 C872 1.373 . S
C873 C889 1.377 . S
C874 C872 1.389 . S
C874 C875 1.524 . S
C874 C888 1.377 . S
C875 C874 1.524 . S
C875 C876 1.397 . S
C875 C880 1.363 . S
C876 H853 0.950 . S
C876 C875 1.397 . S
C876 C877 1.334 . S
C877 H854 0.950 . S
C877 C876 1.334 . S
C877 C878 1.287 . S
C878 C877 1.287 . S
C878 C879 1.524 . S
C878 H897 0.913 . S
C879 H855 0.950 . S
C879 C878 1.524 . S
C879 C880 1.415 . S
C880 H856 0.950 . S
C880 C875 1.363 . S
C880 C879 1.415 . S
C881 H857 0.951 . S
C881 C882 1.366 . S
C881 C883 1.388 . S
C882 C881 1.366 . S
C882 C886 1.385 . S
C883 H858 0.951 . S
C883 C881 1.388 . S
C883 C884 1.366 . S
C884 C883 1.366 . S
C884 C885 1.414 . S
C884 C887 1.499 . S
C885 H859 0.950 . S
C885 C884 1.414 . S
C885 C886 1.374 . S
C886 H860 0.950 . S
C886 C882 1.385 . S
C886 C885 1.374 . S
C887 C884 1.499 . S
C887 C888 1.373 . S
C887 C889 1.389 . S
C888 H861 0.950 . S
C888 C874 1.377 . S
C888 C887 1.373 . S
C889 C873 1.377 . S
C889 C887 1.389 . S
C889 C890 1.524 . S
C890 C889 1.524 . S
C890 C891 1.397 . S
C890 C895 1.363 . S
C891 H862 0.950 . S
C891 C890 1.397 . S
C891 C892 1.334 . S
C892 H863 0.950 . S
C892 C891 1.334 . S
C892 C893 1.287 . S
C893 C892 1.287 . S
C893 C894 1.524 . S
C893 H896 0.999 . S
C894 H864 0.950 . S
C894 C893 1.524 . S
C894 C895 1.415 . S
C895 H865 0.950 . S
C895 C890 1.363 . S
C895 C894 1.415 . S
H896 C893 0.999 . S
H897 C878 0.913 . S
H898 C916 0.951 . S
H899 C918 0.951 . S
H900 C920 0.950 . S
H901 C921 0.950 . S
H902 C923 0.950 . S
H903 C926 0.950 . S
H904 C927 0.950 . S
H905 C929 0.950 . S
H906 C930 0.950 . S
H907 C931 0.951 . S
H908 C933 0.951 . S
H909 C935 0.950 . S
H910 C936 0.950 . S
H911 C938 0.950 . S
H912 C941 0.950 . S
H913 C942 0.950 . S
H914 C944 0.950 . S
H915 C945 0.950 . S
C916 H898 0.951 . S
C916 C917 1.366 . S
C916 C918 1.388 . S
C917 C916 1.366 . S
C917 C921 1.385 . S
C918 H899 0.951 . S
C918 C916 1.388 . S
C918 C919 1.366 . S
C919 C918 1.366 . S
C919 C920 1.414 . S
C919 C922 1.499 . S
C920 H900 0.950 . S
C920 C919 1.414 . S
C920 C921 1.374 . S
C921 H901 0.950 . S
C921 C917 1.385 . S
C921 C920 1.374 . S
C922 C919 1.499 . S
C922 C923 1.373 . S
C922 C924 1.389 . S
C923 H902 0.950 . S
C923 C922 1.373 . S
C923 C939 1.377 . S
C924 C922 1.389 . S
C924 C925 1.524 . S
C924 C938 1.377 . S
C925 C924 1.524 . S
C925 C926 1.397 . S
C925 C930 1.363 . S
C926 H903 0.950 . S
C926 C925 1.397 . S
C926 C927 1.334 . S
C927 H904 0.950 . S
C927 C926 1.334 . S
C927 C928 1.287 . S
C928 C927 1.287 . S
C928 C929 1.524 . S
C928 H947 0.913 . S
C929 H905 0.950 . S
C929 C928 1.524 . S
C929 C930 1.415 . S
C930 H906 0.950 . S
C930 C925 1.363 . S
C930 C929 1.415 . S
C931 H907 0.951 . S
C931 C932 1.366 . S
C931 C933 1.388 . S
C932 C931 1.366 . S
C932 C936 1.385 . S
C933 H908 0.951 . S
C933 C931 1.388 . S
C933 C934 1.366 . S
C934 C933 1.366 . S
C934 C935 1.414 . S
C934 C937 1.499 . S
C935 H909 0.950 . S
C935 C934 1.414 . S
C935 C936 1.374 . S
C936 H910 0.950 . S
C936 C932 1.385 . S
C936 C935 1.374 . S
C937 C934 1.499 . S
C937 C938 1.373 . S
C937 C939 1.389 . S
C938 H911 0.950 . S
C938 C924 1.377 . S
C938 C937 1.373 . S
C939 C923 1.377 . S
C939 C937 1.389 . S
C939 C940 1.524 . S
C940 C939 1.524 . S
C940 C941 1.397 . S
C940 C945 1.363 . S
C941 H912 0.950 . S
C941 C940 1.397 . S
C941 C942 1.334 . S
C942 H913 0.950 . S
C942 C941 1.334 . S
C942 C943 1.287 . S
C943 C942 1.287 . S
C943 C944 1.524 . S
C943 H946 0.999 . S
C944 H914 0.950 . S
C944 C943 1.524 . S
C944 C945 1.415 . S
C945 H915 0.950 . S
C945 C940 1.363 . S
C945 C944 1.415 . S
H946 C943 0.999 . S
H947 C928 0.913 . S
H948 C966 0.951 . S
H949 C968 0.951 . S
H950 C970 0.950 . S
H951 C971 0.950 . S
H952 C973 0.950 . S
H953 C976 0.950 . S
H954 C977 0.950 . S
H955 C979 0.950 . S
H956 C980 0.950 . S
H957 C981 0.951 . S
H958 C983 0.951 . S
H959 C985 0.950 . S
H960 C986 0.950 . S
H961 C988 0.950 . S
H962 C991 0.950 . S
H963 C992 0.950 . S
H964 C994 0.950 . S
H965 C995 0.950 . S
C966 H948 0.951 . S
C966 C967 1.366 . S
C966 C968 1.388 . S
C967 C966 1.366 . S
C967 C971 1.385 . S
C968 H949 0.951 . S
C968 C966 1.388 . S
C968 C969 1.366 . S
C969 C968 1.366 . S
C969 C970 1.414 . S
C969 C972 1.499 . S
C970 H950 0.950 . S
C970 C969 1.414 . S
C970 C971 1.374 . S
C971 H951 0.950 . S
C971 C967 1.385 . S
C971 C970 1.374 . S
C972 C969 1.499 . S
C972 C973 1.373 . S
C972 C974 1.389 . S
C973 H952 0.950 . S
C973 C972 1.373 . S
C973 C989 1.377 . S
C974 C972 1.389 . S
C974 C975 1.524 . S
C974 C988 1.377 . S
C975 C974 1.524 . S
C975 C976 1.397 . S
C975 C980 1.363 . S
C976 H953 0.950 . S
C976 C975 1.397 . S
C976 C977 1.334 . S
C977 H954 0.950 . S
C977 C976 1.334 . S
C977 C978 1.287 . S
C978 C977 1.287 . S
C978 C979 1.524 . S
C978 H997 0.913 . S
C979 H955 0.950 . S
C979 C978 1.524 . S
C979 C980 1.415 . S
C980 H956 0.950 . S
C980 C975 1.363 . S
C980 C979 1.415 . S
C981 H957 0.951 . S
C981 C982 1.366 . S
C981 C983 1.388 . S
C982 C981 1.366 . S
C982 C986 1.385 . S
C983 H958 0.951 . S
C983 C981 1.388 . S
C983 C984 1.366 . S
C984 C983 1.366 . S
C984 C985 1.414 . S
C984 C987 1.499 . S
C985 H959 0.950 . S
C985 C984 1.414 . S
C985 C986 1.374 . S
C986 H960 0.950 . S
C986 C982 1.385 . S
C986 C985 1.374 . S
C987 C984 1.499 . S
C987 C988 1.373 . S
C987 C989 1.389 . S
C988 H961 0.950 . S
C988 C974 1.377 . S
C988 C987 1.373 . S
C989 C973 1.377 . S
C989 C987 1.389 . S
C989 C990 1.524 . S
C990 C989 1.524 . S
C990 C991 1.397 . S
C990 C995 1.363 . S
C991 H962 0.950 . S
C991 C990 1.397 . S
C991 C992 1.334 . S
C992 H963 0.950 . S
C992 C991 1.334 . S
C992 C993 1.287 . S
C993 C992 1.287 . S
C993 C994 1.524 . S
C993 H996 0.999 . S
C994 H964 0.950 . S
C994 C993 1.524 . S
C994 C995 1.415 . S
C995 H965 0.950 . S
C995 C990 1.363 . S
C995 C994 1.415 . S
H996 C993 0.999 . S
H997 C978 0.913 . S
H998 C1016 0.951 . S
H999 C1018 0.951 . S
H1000 C1020 0.950 . S
H1001 C1021 0.950 . S
H1002 C1023 0.950 . S
H1003 C1026 0.950 . S
H1004 C1027 0.950 . S
H1005 C1029 0.950 . S
H1006 C1030 0.950 . S
H1007 C1031 0.951 . S
H1008 C1033 0.951 . S
H1009 C1035 0.950 . S
H1010 C1036 0.950 . S
H1011 C1038 0.950 . S
H1012 C1041 0.950 . S
H1013 C1042 0.950 . S
H1014 C1044 0.950 1_655 S
H1015 C1045 0.950 . S
C1016 H998 0.951 . S
C1016 C1017 1.366 . S
C1016 C1018 1.388 . S
C1017 C1016 1.366 . S
C1017 C1021 1.385 . S
C1018 H999 0.951 . S
C1018 C1016 1.388 . S
C1018 C1019 1.366 . S
C1019 C1018 1.366 . S
C1019 C1020 1.414 . S
C1019 C1022 1.499 . S
C1020 H1000 0.950 . S
C1020 C1019 1.414 . S
C1020 C1021 1.374 . S
C1021 H1001 0.950 . S
C1021 C1017 1.385 . S
C1021 C1020 1.374 . S
C1022 C1019 1.499 . S
C1022 C1023 1.373 . S
C1022 C1024 1.389 . S
C1023 H1002 0.950 . S
C1023 C1022 1.373 . S
C1023 C1039 1.377 . S
C1024 C1022 1.389 . S
C1024 C1025 1.524 . S
C1024 C1038 1.377 . S
C1025 C1024 1.524 . S
C1025 C1026 1.397 . S
C1025 C1030 1.363 . S
C1026 H1003 0.950 . S
C1026 C1025 1.397 . S
C1026 C1027 1.334 . S
C1027 H1004 0.950 . S
C1027 C1026 1.334 . S
C1027 C1028 1.287 . S
C1028 C1027 1.287 . S
C1028 C1029 1.524 . S
C1028 H1047 0.913 . S
C1029 H1005 0.950 . S
C1029 C1028 1.524 . S
C1029 C1030 1.415 . S
C1030 H1006 0.950 . S
C1030 C1025 1.363 . S
C1030 C1029 1.415 . S
C1031 H1007 0.951 . S
C1031 C1032 1.366 . S
C1031 C1033 1.388 . S
C1032 C1031 1.366 . S
C1032 C1036 1.385 . S
C1033 H1008 0.951 . S
C1033 C1031 1.388 . S
C1033 C1034 1.366 . S
C1034 C1033 1.366 . S
C1034 C1035 1.414 . S
C1034 C1037 1.499 . S
C1035 H1009 0.950 . S
C1035 C1034 1.414 . S
C1035 C1036 1.374 . S
C1036 H1010 0.950 . S
C1036 C1032 1.385 . S
C1036 C1035 1.374 . S
C1037 C1034 1.499 . S
C1037 C1038 1.373 . S
C1037 C1039 1.389 . S
C1038 H1011 0.950 . S
C1038 C1024 1.377 . S
C1038 C1037 1.373 . S
C1039 C1023 1.377 . S
C1039 C1037 1.389 . S
C1039 C1040 1.524 . S
C1040 C1039 1.524 . S
C1040 C1041 1.397 . S
C1040 C1045 1.363 . S
C1041 H1012 0.950 . S
C1041 C1040 1.397 . S
C1041 C1042 1.334 . S
C1042 H1013 0.950 . S
C1042 C1041 1.334 . S
C1042 C1043 1.287 . S
C1043 C1042 1.287 . S
C1043 C1044 1.524 . S
C1043 H1046 0.999 1_455 S
C1044 H1014 0.950 1_455 S
C1044 C1043 1.524 . S
C1044 C1045 1.415 . S
C1045 H1015 0.950 . S
C1045 C1040 1.363 . S
C1045 C1044 1.415 . S
H1046 C1043 0.999 1_655 S
H1047 C1028 0.913 . S
H1048 C1066 0.951 . S
H1049 C1068 0.951 . S
H1050 C1070 0.950 . S
H1051 C1071 0.950 . S
H1052 C1073 0.950 . S
H1053 C1076 0.950 . S
H1054 C1077 0.950 . S
H1055 C1079 0.950 . S
H1056 C1080 0.950 . S
H1057 C1081 0.951 . S
H1058 C1083 0.951 . S
H1059 C1085 0.950 . S
H1060 C1086 0.950 . S
H1061 C1088 0.950 . S
H1062 C1091 0.950 . S
H1063 C1092 0.950 . S
H1064 C1094 0.950 . S
H1065 C1095 0.950 . S
C1066 H1048 0.951 . S
C1066 C1067 1.366 . S
C1066 C1068 1.388 . S
C1067 C1066 1.366 . S
C1067 C1071 1.385 . S
C1068 H1049 0.951 . S
C1068 C1066 1.388 . S
C1068 C1069 1.366 . S
C1069 C1068 1.366 . S
C1069 C1070 1.414 . S
C1069 C1072 1.499 . S
C1070 H1050 0.950 . S
C1070 C1069 1.414 . S
C1070 C1071 1.374 . S
C1071 H1051 0.950 . S
C1071 C1067 1.385 . S
C1071 C1070 1.374 . S
C1072 C1069 1.499 . S
C1072 C1073 1.373 . S
C1072 C1074 1.389 . S
C1073 H1052 0.950 . S
C1073 C1072 1.373 . S
C1073 C1089 1.377 . S
C1074 C1072 1.389 . S
C1074 C1075 1.524 . S
C1074 C1088 1.377 . S
C1075 C1074 1.524 . S
C1075 C1076 1.397 . S
C1075 C1080 1.363 . S
C1076 H1053 0.950 . S
C1076 C1075 1.397 . S
C1076 C1077 1.334 . S
C1077 H1054 0.950 . S
C1077 C1076 1.334 . S
C1077 C1078 1.287 . S
C1078 C1077 1.287 . S
C1078 C1079 1.524 . S
C1078 H1097 0.913 . S
C1079 H1055 0.950 . S
C1079 C1078 1.524 . S
C1079 C1080 1.415 . S
C1080 H1056 0.950 . S
C1080 C1075 1.363 . S
C1080 C1079 1.415 . S
C1081 H1057 0.951 . S
C1081 C1082 1.366 . S
C1081 C1083 1.388 . S
C1082 C1081 1.366 . S
C1082 C1086 1.385 . S
C1083 H1058 0.951 . S
C1083 C1081 1.388 . S
C1083 C1084 1.366 . S
C1084 C1083 1.366 . S
C1084 C1085 1.414 . S
C1084 C1087 1.499 . S
C1085 H1059 0.950 . S
C1085 C1084 1.414 . S
C1085 C1086 1.374 . S
C1086 H1060 0.950 . S
C1086 C1082 1.385 . S
C1086 C1085 1.374 . S
C1087 C1084 1.499 . S
C1087 C1088 1.373 . S
C1087 C1089 1.389 . S
C1088 H1061 0.950 . S
C1088 C1074 1.377 . S
C1088 C1087 1.373 . S
C1089 C1073 1.377 . S
C1089 C1087 1.389 . S
C1089 C1090 1.524 . S
C1090 C1089 1.524 . S
C1090 C1091 1.397 . S
C1090 C1095 1.363 . S
C1091 H1062 0.950 . S
C1091 C1090 1.397 . S
C1091 C1092 1.334 . S
C1092 H1063 0.950 . S
C1092 C1091 1.334 . S
C1092 C1093 1.287 . S
C1093 C1092 1.287 . S
C1093 C1094 1.524 . S
C1093 H1096 0.999 . S
C1094 H1064 0.950 . S
C1094 C1093 1.524 . S
C1094 C1095 1.415 . S
C1095 H1065 0.950 . S
C1095 C1090 1.363 . S
C1095 C1094 1.415 . S
H1096 C1093 0.999 . S
H1097 C1078 0.913 . S
H1098 C1116 0.951 . S
H1099 C1118 0.951 . S
H1100 C1120 0.950 . S
H1101 C1121 0.950 . S
H1102 C1123 0.950 . S
H1103 C1126 0.950 . S
H1104 C1127 0.950 . S
H1105 C1129 0.950 . S
H1106 C1130 0.950 . S
H1107 C1131 0.951 . S
H1108 C1133 0.951 . S
H1109 C1135 0.950 . S
H1110 C1136 0.950 . S
H1111 C1138 0.950 . S
H1112 C1141 0.950 . S
H1113 C1142 0.950 . S
H1114 C1144 0.950 . S
H1115 C1145 0.950 . S
C1116 H1098 0.951 . S
C1116 C1117 1.366 . S
C1116 C1118 1.388 . S
C1117 C1116 1.366 . S
C1117 C1121 1.385 . S
C1118 H1099 0.951 . S
C1118 C1116 1.388 . S
C1118 C1119 1.366 . S
C1119 C1118 1.366 . S
C1119 C1120 1.414 . S
C1119 C1122 1.499 . S
C1120 H1100 0.950 . S
C1120 C1119 1.414 . S
C1120 C1121 1.374 . S
C1121 H1101 0.950 . S
C1121 C1117 1.385 . S
C1121 C1120 1.374 . S
C1122 C1119 1.499 . S
C1122 C1123 1.373 . S
C1122 C1124 1.389 . S
C1123 H1102 0.950 . S
C1123 C1122 1.373 . S
C1123 C1139 1.377 . S
C1124 C1122 1.389 . S
C1124 C1125 1.524 . S
C1124 C1138 1.377 . S
C1125 C1124 1.524 . S
C1125 C1126 1.397 . S
C1125 C1130 1.363 . S
C1126 H1103 0.950 . S
C1126 C1125 1.397 . S
C1126 C1127 1.334 . S
C1127 H1104 0.950 . S
C1127 C1126 1.334 . S
C1127 C1128 1.287 . S
C1128 C1127 1.287 . S
C1128 C1129 1.524 . S
C1128 H1147 0.913 . S
C1129 H1105 0.950 . S
C1129 C1128 1.524 . S
C1129 C1130 1.415 . S
C1130 H1106 0.950 . S
C1130 C1125 1.363 . S
C1130 C1129 1.415 . S
C1131 H1107 0.951 . S
C1131 C1132 1.366 . S
C1131 C1133 1.388 . S
C1132 C1131 1.366 . S
C1132 C1136 1.385 . S
C1133 H1108 0.951 . S
C1133 C1131 1.388 . S
C1133 C1134 1.366 . S
C1134 C1133 1.366 . S
C1134 C1135 1.414 . S
C1134 C1137 1.499 . S
C1135 H1109 0.950 . S
C1135 C1134 1.414 . S
C1135 C1136 1.374 . S
C1136 H1110 0.950 . S
C1136 C1132 1.385 . S
C1136 C1135 1.374 . S
C1137 C1134 1.499 . S
C1137 C1138 1.373 . S
C1137 C1139 1.389 . S
C1138 H1111 0.950 . S
C1138 C1124 1.377 . S
C1138 C1137 1.373 . S
C1139 C1123 1.377 . S
C1139 C1137 1.389 . S
C1139 C1140 1.524 . S
C1140 C1139 1.524 . S
C1140 C1141 1.397 . S
C1140 C1145 1.363 . S
C1141 H1112 0.950 . S
C1141 C1140 1.397 . S
C1141 C1142 1.334 . S
C1142 H1113 0.950 . S
C1142 C1141 1.334 . S
C1142 C1143 1.287 . S
C1143 C1142 1.287 . S
C1143 C1144 1.524 . S
C1143 H1146 0.999 . S
C1144 H1114 0.950 . S
C1144 C1143 1.524 . S
C1144 C1145 1.415 . S
C1145 H1115 0.950 . S
C1145 C1140 1.363 . S
C1145 C1144 1.415 . S
H1146 C1143 0.999 . S
H1147 C1128 0.913 . S
H1148 C1166 0.951 . S
H1149 C1168 0.951 . S
H1150 C1170 0.950 . S
H1151 C1171 0.950 . S
H1152 C1173 0.950 . S
H1153 C1176 0.950 . S
H1154 C1177 0.950 . S
H1155 C1179 0.950 . S
H1156 C1180 0.950 . S
H1157 C1181 0.951 . S
H1158 C1183 0.951 . S
H1159 C1185 0.950 . S
H1160 C1186 0.950 . S
H1161 C1188 0.950 . S
H1162 C1191 0.950 . S
H1163 C1192 0.950 . S
H1164 C1194 0.950 . S
H1165 C1195 0.950 . S
C1166 H1148 0.951 . S
C1166 C1167 1.366 . S
C1166 C1168 1.388 . S
C1167 C1166 1.366 . S
C1167 C1171 1.385 . S
C1168 H1149 0.951 . S
C1168 C1166 1.388 . S
C1168 C1169 1.366 . S
C1169 C1168 1.366 . S
C1169 C1170 1.414 . S
C1169 C1172 1.499 . S
C1170 H1150 0.950 . S
C1170 C1169 1.414 . S
C1170 C1171 1.374 . S
C1171 H1151 0.950 . S
C1171 C1167 1.385 . S
C1171 C1170 1.374 . S
C1172 C1169 1.499 . S
C1172 C1173 1.373 . S
C1172 C1174 1.389 . S
C1173 H1152 0.950 . S
C1173 C1172 1.373 . S
C1173 C1189 1.377 . S
C1174 C1172 1.389 . S
C1174 C1175 1.524 . S
C1174 C1188 1.377 . S
C1175 C1174 1.524 . S
C1175 C1176 1.397 . S
C1175 C1180 1.363 . S
C1176 H1153 0.950 . S
C1176 C1175 1.397 . S
C1176 C1177 1.334 . S
C1177 H1154 0.950 . S
C1177 C1176 1.334 . S
C1177 C1178 1.287 . S
C1178 C1177 1.287 . S
C1178 C1179 1.524 . S
C1178 H1197 0.913 . S
C1179 H1155 0.950 . S
C1179 C1178 1.524 . S
C1179 C1180 1.415 . S
C1180 H1156 0.950 . S
C1180 C1175 1.363 . S
C1180 C1179 1.415 . S
C1181 H1157 0.951 . S
C1181 C1182 1.366 . S
C1181 C1183 1.388 . S
C1182 C1181 1.366 . S
C1182 C1186 1.385 . S
C1183 H1158 0.951 . S
C1183 C1181 1.388 . S
C1183 C1184 1.366 . S
C1184 C1183 1.366 . S
C1184 C1185 1.414 . S
C1184 C1187 1.499 . S
C1185 H1159 0.950 . S
C1185 C1184 1.414 . S
C1185 C1186 1.374 . S
C1186 H1160 0.950 . S
C1186 C1182 1.385 . S
C1186 C1185 1.374 . S
C1187 C1184 1.499 . S
C1187 C1188 1.373 . S
C1187 C1189 1.389 . S
C1188 H1161 0.950 . S
C1188 C1174 1.377 . S
C1188 C1187 1.373 . S
C1189 C1173 1.377 . S
C1189 C1187 1.389 . S
C1189 C1190 1.524 . S
C1190 C1189 1.524 . S
C1190 C1191 1.397 . S
C1190 C1195 1.363 . S
C1191 H1162 0.950 . S
C1191 C1190 1.397 . S
C1191 C1192 1.334 . S
C1192 H1163 0.950 . S
C1192 C1191 1.334 . S
C1192 C1193 1.287 . S
C1193 C1192 1.287 . S
C1193 C1194 1.524 . S
C1193 H1196 0.999 . S
C1194 H1164 0.950 . S
C1194 C1193 1.524 . S
C1194 C1195 1.415 . S
C1195 H1165 0.950 . S
C1195 C1190 1.363 . S
C1195 C1194 1.415 . S
H1196 C1193 0.999 . S
H1197 C1178 0.913 . S
H1198 C1216 0.951 . S
H1199 C1218 0.951 . S
H1200 C1220 0.950 . S
H1201 C1221 0.950 . S
H1202 C1223 0.950 . S
H1203 C1226 0.950 . S
H1204 C1227 0.950 . S
H1205 C1229 0.950 . S
H1206 C1230 0.950 . S
H1207 C1231 0.951 . S
H1208 C1233 0.951 . S
H1209 C1235 0.950 . S
H1210 C1236 0.950 . S
H1211 C1238 0.950 . S
H1212 C1241 0.950 . S
H1213 C1242 0.950 . S
H1214 C1244 0.950 . S
H1215 C1245 0.950 . S
C1216 H1198 0.951 . S
C1216 C1217 1.366 . S
C1216 C1218 1.388 . S
C1217 C1216 1.366 . S
C1217 C1221 1.385 . S
C1218 H1199 0.951 . S
C1218 C1216 1.388 . S
C1218 C1219 1.366 . S
C1219 C1218 1.366 . S
C1219 C1220 1.414 . S
C1219 C1222 1.499 . S
C1220 H1200 0.950 . S
C1220 C1219 1.414 . S
C1220 C1221 1.374 . S
C1221 H1201 0.950 . S
C1221 C1217 1.385 . S
C1221 C1220 1.374 . S
C1222 C1219 1.499 . S
C1222 C1223 1.373 . S
C1222 C1224 1.389 . S
C1223 H1202 0.950 . S
C1223 C1222 1.373 . S
C1223 C1239 1.377 . S
C1224 C1222 1.389 . S
C1224 C1225 1.524 . S
C1224 C1238 1.377 . S
C1225 C1224 1.524 . S
C1225 C1226 1.397 . S
C1225 C1230 1.363 . S
C1226 H1203 0.950 . S
C1226 C1225 1.397 . S
C1226 C1227 1.334 . S
C1227 H1204 0.950 . S
C1227 C1226 1.334 . S
C1227 C1228 1.287 . S
C1228 C1227 1.287 . S
C1228 C1229 1.524 . S
C1228 H1247 0.913 . S
C1229 H1205 0.950 . S
C1229 C1228 1.524 . S
C1229 C1230 1.415 . S
C1230 H1206 0.950 . S
C1230 C1225 1.363 . S
C1230 C1229 1.415 . S
C1231 H1207 0.951 . S
C1231 C1232 1.366 . S
C1231 C1233 1.388 . S
C1232 C1231 1.366 . S
C1232 C1236 1.385 . S
C1233 H1208 0.951 . S
C1233 C1231 1.388 . S
C1233 C1234 1.366 . S
C1234 C1233 1.366 . S
C1234 C1235 1.414 . S
C1234 C1237 1.499 . S
C1235 H1209 0.950 . S
C1235 C1234 1.414 . S
C1235 C1236 1.374 . S
C1236 H1210 0.950 . S
C1236 C1232 1.385 . S
C1236 C1235 1.374 . S
C1237 C1234 1.499 . S
C1237 C1238 1.373 . S
C1237 C1239 1.389 . S
C1238 H1211 0.950 . S
C1238 C1224 1.377 . S
C1238 C1237 1.373 . S
C1239 C1223 1.377 . S
C1239 C1237 1.389 . S
C1239 C1240 1.524 . S
C1240 C1239 1.524 . S
C1240 C1241 1.397 . S
C1240 C1245 1.363 . S
C1241 H1212 0.950 . S
C1241 C1240 1.397 . S
C1241 C1242 1.334 . S
C1242 H1213 0.950 . S
C1242 C1241 1.334 . S
C1242 C1243 1.287 . S
C1243 C1242 1.287 . S
C1243 C1244 1.524 . S
C1243 H1246 0.999 . S
C1244 H1214 0.950 . S
C1244 C1243 1.524 . S
C1244 C1245 1.415 . S
C1245 H1215 0.950 . S
C1245 C1240 1.363 . S
C1245 C1244 1.415 . S
H1246 C1243 0.999 . S
H1247 C1228 0.913 . S
H1248 C1266 0.951 . S
H1249 C1268 0.951 . S
H1250 C1270 0.950 . S
H1251 C1271 0.950 . S
H1252 C1273 0.950 . S
H1253 C1276 0.950 . S
H1254 C1277 0.950 . S
H1255 C1279 0.950 . S
H1256 C1280 0.950 . S
H1257 C1281 0.951 . S
H1258 C1283 0.951 . S
H1259 C1285 0.950 . S
H1260 C1286 0.950 . S
H1261 C1288 0.950 . S
H1262 C1291 0.950 . S
H1263 C1292 0.950 . S
H1264 C1294 0.950 . S
H1265 C1295 0.950 . S
C1266 H1248 0.951 . S
C1266 C1267 1.366 . S
C1266 C1268 1.388 . S
C1267 C1266 1.366 . S
C1267 C1271 1.385 . S
C1268 H1249 0.951 . S
C1268 C1266 1.388 . S
C1268 C1269 1.366 . S
C1269 C1268 1.366 . S
C1269 C1270 1.414 . S
C1269 C1272 1.499 . S
C1270 H1250 0.950 . S
C1270 C1269 1.414 . S
C1270 C1271 1.374 . S
C1271 H1251 0.950 . S
C1271 C1267 1.385 . S
C1271 C1270 1.374 . S
C1272 C1269 1.499 . S
C1272 C1273 1.373 . S
C1272 C1274 1.389 . S
C1273 H1252 0.950 . S
C1273 C1272 1.373 . S
C1273 C1289 1.377 . S
C1274 C1272 1.389 . S
C1274 C1275 1.524 . S
C1274 C1288 1.377 . S
C1275 C1274 1.524 . S
C1275 C1276 1.397 . S
C1275 C1280 1.363 . S
C1276 H1253 0.950 . S
C1276 C1275 1.397 . S
C1276 C1277 1.334 . S
C1277 H1254 0.950 . S
C1277 C1276 1.334 . S
C1277 C1278 1.287 . S
C1278 C1277 1.287 . S
C1278 C1279 1.524 . S
C1278 H1297 0.913 . S
C1279 H1255 0.950 . S
C1279 C1278 1.524 . S
C1279 C1280 1.415 . S
C1280 H1256 0.950 . S
C1280 C1275 1.363 . S
C1280 C1279 1.415 . S
C1281 H1257 0.951 . S
C1281 C1282 1.366 . S
C1281 C1283 1.388 . S
C1282 C1281 1.366 . S
C1282 C1286 1.385 . S
C1283 H1258 0.951 . S
C1283 C1281 1.388 . S
C1283 C1284 1.366 . S
C1284 C1283 1.366 . S
C1284 C1285 1.414 . S
C1284 C1287 1.499 . S
C1285 H1259 0.950 . S
C1285 C1284 1.414 . S
C1285 C1286 1.374 . S
C1286 H1260 0.950 . S
C1286 C1282 1.385 . S
C1286 C1285 1.374 . S
C1287 C1284 1.499 . S
C1287 C1288 1.373 . S
C1287 C1289 1.389 . S
C1288 H1261 0.950 . S
C1288 C1274 1.377 . S
C1288 C1287 1.373 . S
C1289 C1273 1.377 . S
C1289 C1287 1.389 . S
C1289 C1290 1.524 . S
C1290 C1289 1.524 . S
C1290 C1291 1.397 . S
C1290 C1295 1.363 . S
C1291 H1262 0.950 . S
C1291 C1290 1.397 . S
C1291 C1292 1.334 . S
C1292 H1263 0.950 . S
C1292 C1291 1.334 . S
C1292 C1293 1.287 . S
C1293 C1292 1.287 . S
C1293 C1294 1.524 . S
C1293 H1296 0.999 . S
C1294 H1264 0.950 . S
C1294 C1293 1.524 . S
C1294 C1295 1.415 . S
C1295 H1265 0.950 . S
C1295 C1290 1.363 . S
C1295 C1294 1.415 . S
H1296 C1293 0.999 . S
H1297 C1278 0.913 . S
H1298 C1316 0.951 . S
H1299 C1318 0.951 . S
H1300 C1320 0.950 . S
H1301 C1321 0.950 . S
H1302 C1323 0.950 . S
H1303 C1326 0.950 . S
H1304 C1327 0.950 . S
H1305 C1329 0.950 . S
H1306 C1330 0.950 . S
H1307 C1331 0.951 . S
H1308 C1333 0.951 . S
H1309 C1335 0.950 . S
H1310 C1336 0.950 . S
H1311 C1338 0.950 . S
H1312 C1341 0.950 . S
H1313 C1342 0.950 . S
H1314 C1344 0.950 . S
H1315 C1345 0.950 . S
C1316 H1298 0.951 . S
C1316 C1317 1.366 . S
C1316 C1318 1.388 . S
C1317 C1316 1.366 . S
C1317 C1321 1.385 . S
C1318 H1299 0.951 . S
C1318 C1316 1.388 . S
C1318 C1319 1.366 . S
C1319 C1318 1.366 . S
C1319 C1320 1.414 . S
C1319 C1322 1.499 . S
C1320 H1300 0.950 . S
C1320 C1319 1.414 . S
C1320 C1321 1.374 . S
C1321 H1301 0.950 . S
C1321 C1317 1.385 . S
C1321 C1320 1.374 . S
C1322 C1319 1.499 . S
C1322 C1323 1.373 . S
C1322 C1324 1.389 . S
C1323 H1302 0.950 . S
C1323 C1322 1.373 . S
C1323 C1339 1.377 . S
C1324 C1322 1.389 . S
C1324 C1325 1.524 . S
C1324 C1338 1.377 . S
C1325 C1324 1.524 . S
C1325 C1326 1.397 . S
C1325 C1330 1.363 . S
C1326 H1303 0.950 . S
C1326 C1325 1.397 . S
C1326 C1327 1.334 . S
C1327 H1304 0.950 . S
C1327 C1326 1.334 . S
C1327 C1328 1.287 . S
C1328 C1327 1.287 . S
C1328 C1329 1.524 . S
C1328 H1347 0.913 . S
C1329 H1305 0.950 . S
C1329 C1328 1.524 . S
C1329 C1330 1.415 . S
C1330 H1306 0.950 . S
C1330 C1325 1.363 . S
C1330 C1329 1.415 . S
C1331 H1307 0.951 . S
C1331 C1332 1.366 . S
C1331 C1333 1.388 . S
C1332 C1331 1.366 . S
C1332 C1336 1.385 . S
C1333 H1308 0.951 . S
C1333 C1331 1.388 . S
C1333 C1334 1.366 . S
C1334 C1333 1.366 . S
C1334 C1335 1.414 . S
C1334 C1337 1.499 . S
C1335 H1309 0.950 . S
C1335 C1334 1.414 . S
C1335 C1336 1.374 . S
C1336 H1310 0.950 . S
C1336 C1332 1.385 . S
C1336 C1335 1.374 . S
C1337 C1334 1.499 . S
C1337 C1338 1.373 . S
C1337 C1339 1.389 . S
C1338 H1311 0.950 . S
C1338 C1324 1.377 . S
C1338 C1337 1.373 . S
C1339 C1323 1.377 . S
C1339 C1337 1.389 . S
C1339 C1340 1.524 . S
C1340 C1339 1.524 . S
C1340 C1341 1.397 . S
C1340 C1345 1.363 . S
C1341 H1312 0.950 . S
C1341 C1340 1.397 . S
C1341 C1342 1.334 . S
C1342 H1313 0.950 . S
C1342 C1341 1.334 . S
C1342 C1343 1.287 . S
C1343 C1342 1.287 . S
C1343 C1344 1.524 . S
C1343 H1346 0.999 . S
C1344 H1314 0.950 . S
C1344 C1343 1.524 . S
C1344 C1345 1.415 . S
C1345 H1315 0.950 . S
C1345 C1340 1.363 . S
C1345 C1344 1.415 . S
H1346 C1343 0.999 . S
H1347 C1328 0.913 . S
H1348 C1366 0.951 . S
H1349 C1368 0.951 . S
H1350 C1370 0.950 . S
H1351 C1371 0.950 . S
H1352 C1373 0.950 . S
H1353 C1376 0.950 . S
H1354 C1377 0.950 . S
H1355 C1379 0.950 . S
H1356 C1380 0.950 . S
H1357 C1381 0.951 . S
H1358 C1383 0.951 . S
H1359 C1385 0.950 . S
H1360 C1386 0.950 . S
H1361 C1388 0.950 . S
H1362 C1391 0.950 . S
H1363 C1392 0.950 . S
H1364 C1394 0.986 . S
H1365 C1395 0.950 . S
C1366 H1348 0.951 . S
C1366 C1367 1.366 . S
C1366 C1368 1.388 . S
C1367 C1366 1.366 . S
C1367 C1371 1.385 . S
C1368 H1349 0.951 . S
C1368 C1366 1.388 . S
C1368 C1369 1.366 . S
C1369 C1368 1.366 . S
C1369 C1370 1.414 . S
C1369 C1372 1.499 . S
C1370 H1350 0.950 . S
C1370 C1369 1.414 . S
C1370 C1371 1.374 . S
C1371 H1351 0.950 . S
C1371 C1367 1.385 . S
C1371 C1370 1.374 . S
C1372 C1369 1.499 . S
C1372 C1373 1.373 . S
C1372 C1374 1.389 . S
C1373 H1352 0.950 . S
C1373 C1372 1.373 . S
C1373 C1389 1.377 . S
C1374 C1372 1.389 . S
C1374 C1375 1.524 . S
C1374 C1388 1.377 . S
C1375 C1374 1.524 . S
C1375 C1376 1.397 . S
C1375 C1380 1.363 . S
C1376 H1353 0.950 . S
C1376 C1375 1.397 . S
C1376 C1377 1.334 . S
C1377 H1354 0.950 . S
C1377 C1376 1.334 . S
C1377 C1378 1.287 . S
C1378 C1377 1.287 . S
C1378 C1379 1.524 . S
C1378 H1397 0.913 . S
C1379 H1355 0.950 . S
C1379 C1378 1.524 . S
C1379 C1380 1.415 . S
C1380 H1356 0.950 . S
C1380 C1375 1.363 . S
C1380 C1379 1.415 . S
C1381 H1357 0.951 . S
C1381 C1382 1.366 . S
C1381 C1383 1.388 . S
C1382 C1381 1.366 . S
C1382 C1386 1.385 . S
C1383 H1358 0.951 . S
C1383 C1381 1.388 . S
C1383 C1384 1.366 . S
C1384 C1383 1.366 . S
C1384 C1385 1.414 . S
C1384 C1387 1.499 . S
C1385 H1359 0.950 . S
C1385 C1384 1.414 . S
C1385 C1386 1.374 . S
C1386 H1360 0.950 . S
C1386 C1382 1.385 . S
C1386 C1385 1.374 . S
C1387 C1384 1.499 . S
C1387 C1388 1.373 . S
C1387 C1389 1.389 . S
C1388 H1361 0.950 . S
C1388 C1374 1.377 . S
C1388 C1387 1.373 . S
C1389 C1373 1.377 . S
C1389 C1387 1.389 . S
C1389 C1390 1.524 . S
C1390 C1389 1.524 . S
C1390 C1391 1.397 . S
C1390 C1395 1.363 . S
C1391 H1362 0.950 . S
C1391 C1390 1.397 . S
C1391 C1392 1.334 . S
C1392 H1363 0.950 . S
C1392 C1391 1.334 . S
C1392 C1393 1.287 . S
C1393 C1392 1.287 . S
C1393 C1394 1.508 1_455 S
C1393 H1396 0.999 1_455 S
C1394 H1364 0.986 . S
C1394 C1393 1.508 1_655 S
C1394 C1395 1.390 1_655 S
C1395 H1365 0.950 . S
C1395 C1390 1.363 . S
C1395 C1394 1.390 1_455 S
H1396 C1393 0.999 1_655 S
H1397 C1378 0.913 . S
H1398 C1416 0.951 . S
H1399 C1418 0.951 . S
H1400 C1420 0.950 . S
H1401 C1421 0.950 . S
H1402 C1423 0.950 . S
H1403 C1426 0.950 . S
H1404 C1427 0.950 . S
H1405 C1429 0.950 . S
H1406 C1430 0.950 . S
H1407 C1431 0.951 . S
H1408 C1433 0.951 . S
H1409 C1435 0.950 . S
H1410 C1436 0.950 . S
H1411 C1438 0.950 . S
H1412 C1441 0.950 . S
H1413 C1442 0.950 . S
H1414 C1444 0.950 . S
H1415 C1445 0.950 . S
C1416 H1398 0.951 . S
C1416 C1417 1.366 . S
C1416 C1418 1.388 . S
C1417 C1416 1.366 . S
C1417 C1421 1.385 . S
C1418 H1399 0.951 . S
C1418 C1416 1.388 . S
C1418 C1419 1.366 . S
C1419 C1418 1.366 . S
C1419 C1420 1.414 . S
C1419 C1422 1.499 . S
C1420 H1400 0.950 . S
C1420 C1419 1.414 . S
C1420 C1421 1.374 . S
C1421 H1401 0.950 . S
C1421 C1417 1.385 . S
C1421 C1420 1.374 . S
C1422 C1419 1.499 . S
C1422 C1423 1.373 . S
C1422 C1424 1.389 . S
C1423 H1402 0.950 . S
C1423 C1422 1.373 . S
C1423 C1439 1.377 . S
C1424 C1422 1.389 . S
C1424 C1425 1.524 . S
C1424 C1438 1.377 . S
C1425 C1424 1.524 . S
C1425 C1426 1.397 . S
C1425 C1430 1.363 . S
C1426 H1403 0.950 . S
C1426 C1425 1.397 . S
C1426 C1427 1.334 . S
C1427 H1404 0.950 . S
C1427 C1426 1.334 . S
C1427 C1428 1.287 . S
C1428 C1427 1.287 . S
C1428 C1429 1.524 . S
C1428 H1447 0.913 . S
C1429 H1405 0.950 . S
C1429 C1428 1.524 . S
C1429 C1430 1.415 . S
C1430 H1406 0.950 . S
C1430 C1425 1.363 . S
C1430 C1429 1.415 . S
C1431 H1407 0.951 . S
C1431 C1432 1.366 . S
C1431 C1433 1.388 . S
C1432 C1431 1.366 . S
C1432 C1436 1.385 . S
C1433 H1408 0.951 . S
C1433 C1431 1.388 . S
C1433 C1434 1.366 . S
C1434 C1433 1.366 . S
C1434 C1435 1.414 . S
C1434 C1437 1.499 . S
C1435 H1409 0.950 . S
C1435 C1434 1.414 . S
C1435 C1436 1.374 . S
C1436 H1410 0.950 . S
C1436 C1432 1.385 . S
C1436 C1435 1.374 . S
C1437 C1434 1.499 . S
C1437 C1438 1.373 . S
C1437 C1439 1.389 . S
C1438 H1411 0.950 . S
C1438 C1424 1.377 . S
C1438 C1437 1.373 . S
C1439 C1423 1.377 . S
C1439 C1437 1.389 . S
C1439 C1440 1.524 . S
C1440 C1439 1.524 . S
C1440 C1441 1.397 . S
C1440 C1445 1.363 . S
C1441 H1412 0.950 . S
C1441 C1440 1.397 . S
C1441 C1442 1.334 . S
C1442 H1413 0.950 . S
C1442 C1441 1.334 . S
C1442 C1443 1.287 . S
C1443 C1442 1.287 . S
C1443 C1444 1.524 . S
C1443 H1446 0.999 . S
C1444 H1414 0.950 . S
C1444 C1443 1.524 . S
C1444 C1445 1.415 . S
C1445 H1415 0.950 . S
C1445 C1440 1.363 . S
C1445 C1444 1.415 . S
H1446 C1443 0.999 . S
H1447 C1428 0.913 . S
C267 C5 1.005 . S
C282 C94 1.252 . S
C317 C18 0.978 . S
C332 C143 1.038 . S
C382 C178 2.285 . S
C367 C30 2.328 . S
C417 C41 1.957 . S
C432 C217 1.907 . S
C482 C138 2.431 . S
C467 C7 2.268 . S
C532 C97 1.051 . S
C517 C16 0.952 . S
C582 C227 1.900 . S
C567 C29 1.866 . S
C632 C186 1.068 . S
C617 C38 0.991 . S
C667 C8 1.560 . S
C682 C214 1.634 . S
C732 C146 2.574 . S
C717 C27 2.405 . S
C767 C40 2.428 . S
C782 C107 2.447 . S
C817 C19 0.494 . S
C832 C183 0.478 . S
C882 C103 1.089 . S
C867 C51 0.980 . S
C917 C62 1.329 . S
C932 C134 1.329 . S
C967 C74 2.418 . S
C982 C187 2.388 . S
C1017 C84 2.100 . S
C1032 C226 2.147 . S
C1067 C49 2.136 . S
C1082 C147 2.663 1_566 S
C1132 C106 1.004 . S
C1117 C63 1.023 . S
C1182 C218 1.760 . S
C1167 C71 1.631 . S
C1232 C177 1.201 . S
C1217 C85 1.213 . S
C1267 C52 1.535 . S
C1282 C223 1.613 . S
C1332 C137 2.635 . S
C1317 C73 2.688 . S
C1382 C98 1.885 . S
C1367 C82 1.617 . S
C1417 C60 0.741 . S
C1432 C174 0.732 . S
