# Generated by pormake.
# Topology ibd, (4,6)-cn, num edge types: 1
# Building blocks:
#     Node 0, Type 0, BuildingBlock: TATPOV_clean_sbu_0, # of connection points: 4
#     Node 1, Type 0, BuildingBlock: TATPOV_clean_sbu_0, # of connection points: 4
#     Node 2, Type 0, BuildingBlock: TATPOV_clean_sbu_0, # of connection points: 4
#     Node 3, Type 0, BuildingBlock: TATPOV_clean_sbu_0, # of connection points: 4
#     Node 4, Type 0, BuildingBlock: TATPOV_clean_sbu_0, # of connection points: 4
#     Node 5, Type 0, BuildingBlock: TATPOV_clean_sbu_0, # of connection points: 4
#     Node 6, Type 0, BuildingBlock: TATPOV_clean_sbu_0, # of connection points: 4
#     Node 7, Type 0, BuildingBlock: TATPOV_clean_sbu_0, # of connection points: 4
#     Node 8, Type 0, BuildingBlock: TATPOV_clean_sbu_0, # of connection points: 4
#     Node 9, Type 0, BuildingBlock: TATPOV_clean_sbu_0, # of connection points: 4
#     Node 10, Type 0, BuildingBlock: TATPOV_clean_sbu_0, # of connection points: 4
#     Node 11, Type 0, BuildingBlock: TATPOV_clean_sbu_0, # of connection points: 4
#     Node 12, Type 0, BuildingBlock: TATPOV_clean_sbu_0, # of connection points: 4
#     Node 13, Type 0, BuildingBlock: TATPOV_clean_sbu_0, # of connection points: 4
#     Node 14, Type 0, BuildingBlock: TATPOV_clean_sbu_0, # of connection points: 4
#     Node 15, Type 0, BuildingBlock: TATPOV_clean_sbu_0, # of connection points: 4
#     Node 16, Type 0, BuildingBlock: TATPOV_clean_sbu_0, # of connection points: 4
#     Node 17, Type 0, BuildingBlock: TATPOV_clean_sbu_0, # of connection points: 4
#     Node 18, Type 0, BuildingBlock: TATPOV_clean_sbu_0, # of connection points: 4
#     Node 19, Type 0, BuildingBlock: TATPOV_clean_sbu_0, # of connection points: 4
#     Node 20, Type 0, BuildingBlock: TATPOV_clean_sbu_0, # of connection points: 4
#     Node 21, Type 0, BuildingBlock: TATPOV_clean_sbu_0, # of connection points: 4
#     Node 22, Type 0, BuildingBlock: TATPOV_clean_sbu_0, # of connection points: 4
#     Node 23, Type 0, BuildingBlock: TATPOV_clean_sbu_0, # of connection points: 4
#     Node 24, Type 1, BuildingBlock: IZENUY_clean_sbu_0, # of connection points: 6
#     Node 25, Type 1, BuildingBlock: IZENUY_clean_sbu_0, # of connection points: 6
#     Node 26, Type 1, BuildingBlock: IZENUY_clean_sbu_0, # of connection points: 6
#     Node 27, Type 1, BuildingBlock: IZENUY_clean_sbu_0, # of connection points: 6
#     Node 28, Type 1, BuildingBlock: IZENUY_clean_sbu_0, # of connection points: 6
#     Node 29, Type 1, BuildingBlock: IZENUY_clean_sbu_0, # of connection points: 6
#     Node 30, Type 1, BuildingBlock: IZENUY_clean_sbu_0, # of connection points: 6
#     Node 31, Type 1, BuildingBlock: IZENUY_clean_sbu_0, # of connection points: 6
#     Node 32, Type 1, BuildingBlock: IZENUY_clean_sbu_0, # of connection points: 6
#     Node 33, Type 1, BuildingBlock: IZENUY_clean_sbu_0, # of connection points: 6
#     Node 34, Type 1, BuildingBlock: IZENUY_clean_sbu_0, # of connection points: 6
#     Node 35, Type 1, BuildingBlock: IZENUY_clean_sbu_0, # of connection points: 6
#     Node 36, Type 1, BuildingBlock: IZENUY_clean_sbu_0, # of connection points: 6
#     Node 37, Type 1, BuildingBlock: IZENUY_clean_sbu_0, # of connection points: 6
#     Node 38, Type 1, BuildingBlock: IZENUY_clean_sbu_0, # of connection points: 6
#     Node 39, Type 1, BuildingBlock: IZENUY_clean_sbu_0, # of connection points: 6
#     Edge 40, Type (0, 1), None
#     Edge 41, Type (0, 1), None
#     Edge 42, Type (0, 1), None
#     Edge 43, Type (0, 1), None
#     Edge 44, Type (0, 1), None
#     Edge 45, Type (0, 1), None
#     Edge 46, Type (0, 1), None
#     Edge 47, Type (0, 1), None
#     Edge 48, Type (0, 1), None
#     Edge 49, Type (0, 1), None
#     Edge 50, Type (0, 1), None
#     Edge 51, Type (0, 1), None
#     Edge 52, Type (0, 1), None
#     Edge 53, Type (0, 1), None
#     Edge 54, Type (0, 1), None
#     Edge 55, Type (0, 1), None
#     Edge 56, Type (0, 1), None
#     Edge 57, Type (0, 1), None
#     Edge 58, Type (0, 1), None
#     Edge 59, Type (0, 1), None
#     Edge 60, Type (0, 1), None
#     Edge 61, Type (0, 1), None
#     Edge 62, Type (0, 1), None
#     Edge 63, Type (0, 1), None
#     Edge 64, Type (0, 1), None
#     Edge 65, Type (0, 1), None
#     Edge 66, Type (0, 1), None
#     Edge 67, Type (0, 1), None
#     Edge 68, Type (0, 1), None
#     Edge 69, Type (0, 1), None
#     Edge 70, Type (0, 1), None
#     Edge 71, Type (0, 1), None
#     Edge 72, Type (0, 1), None
#     Edge 73, Type (0, 1), None
#     Edge 74, Type (0, 1), None
#     Edge 75, Type (0, 1), None
#     Edge 76, Type (0, 1), None
#     Edge 77, Type (0, 1), None
#     Edge 78, Type (0, 1), None
#     Edge 79, Type (0, 1), None
#     Edge 80, Type (0, 1), None
#     Edge 81, Type (0, 1), None
#     Edge 82, Type (0, 1), None
#     Edge 83, Type (0, 1), None
#     Edge 84, Type (0, 1), None
#     Edge 85, Type (0, 1), None
#     Edge 86, Type (0, 1), None
#     Edge 87, Type (0, 1), None
#     Edge 88, Type (0, 1), None
#     Edge 89, Type (0, 1), None
#     Edge 90, Type (0, 1), None
#     Edge 91, Type (0, 1), None
#     Edge 92, Type (0, 1), None
#     Edge 93, Type (0, 1), None
#     Edge 94, Type (0, 1), None
#     Edge 95, Type (0, 1), None
#     Edge 96, Type (0, 1), None
#     Edge 97, Type (0, 1), None
#     Edge 98, Type (0, 1), None
#     Edge 99, Type (0, 1), None
#     Edge 100, Type (0, 1), None
#     Edge 101, Type (0, 1), None
#     Edge 102, Type (0, 1), None
#     Edge 103, Type (0, 1), None
#     Edge 104, Type (0, 1), None
#     Edge 105, Type (0, 1), None
#     Edge 106, Type (0, 1), None
#     Edge 107, Type (0, 1), None
#     Edge 108, Type (0, 1), None
#     Edge 109, Type (0, 1), None
#     Edge 110, Type (0, 1), None
#     Edge 111, Type (0, 1), None
#     Edge 112, Type (0, 1), None
#     Edge 113, Type (0, 1), None
#     Edge 114, Type (0, 1), None
#     Edge 115, Type (0, 1), None
#     Edge 116, Type (0, 1), None
#     Edge 117, Type (0, 1), None
#     Edge 118, Type (0, 1), None
#     Edge 119, Type (0, 1), None
#     Edge 120, Type (0, 1), None
#     Edge 121, Type (0, 1), None
#     Edge 122, Type (0, 1), None
#     Edge 123, Type (0, 1), None
#     Edge 124, Type (0, 1), None
#     Edge 125, Type (0, 1), None
#     Edge 126, Type (0, 1), None
#     Edge 127, Type (0, 1), None
#     Edge 128, Type (0, 1), None
#     Edge 129, Type (0, 1), None
#     Edge 130, Type (0, 1), None
#     Edge 131, Type (0, 1), None
#     Edge 132, Type (0, 1), None
#     Edge 133, Type (0, 1), None
#     Edge 134, Type (0, 1), None
#     Edge 135, Type (0, 1), None
# Relax obj value: 0.315
# Max RMSD: 0.293
# Mean RMSD: 0.263
data_MOF--net-ibd--node1-TATPOV_clean_sbu_0--node2-IZENUY_clean_sbu_0--edge1-none
_symmetry_space_group_name_H-M    P1
_symmetry_Int_Tables_number       1
_symmetry_cell_setting            triclinic
loop_
_symmetry_equiv_pos_as_xyz
'x, y, z'
_cell_length_a     23.102288
_cell_length_b     22.919214
_cell_length_c     23.042422
_cell_angle_alpha  91.268715
_cell_angle_beta   91.598523
_cell_angle_gamma 91.089429
loop_
_atom_site_label
_atom_site_type_symbol
_atom_site_fract_x
_atom_site_fract_y
_atom_site_fract_z
_atom_type_partial_charge
Zn0 Zn 0.91923 0.31199 0.41649 0.0
Zn1 Zn 0.01107 0.26645 0.38037 0.0
O2 O 0.98637 0.20287 0.43378 0.0
O3 O 0.89598 0.22507 0.41572 0.0
O4 O 0.07583 0.24169 0.32828 0.0
O5 O 0.9165 0.36306 0.34511 0.0
O6 O 0.95288 0.28217 0.31342 0.0
C7 C 0.93291 0.19293 0.44066 0.0
C8 C 0.01511 0.34415 0.48554 0.0
O9 O 0.0398 0.33087 0.43806 0.0
O10 O 0.96104 0.33761 0.48963 0.0
C11 C 0.09764 0.19164 0.32131 0.0
O12 O 0.0903 0.15211 0.36095 0.0
C13 C 0.9242 0.32778 0.30382 0.0
Zn14 Zn 0.90395 0.78717 0.57357 0.0
Zn15 Zn 0.00169 0.74792 0.61842 0.0
O16 O 0.04239 0.80892 0.57143 0.0
O17 O 0.96376 0.82423 0.51842 0.0
O18 O 0.06203 0.71577 0.67224 0.0
O19 O 0.87731 0.82736 0.64743 0.0
O20 O 0.95216 0.78047 0.68175 0.0
C21 C 0.01815 0.83103 0.5272 0.0
C22 C 0.91792 0.66917 0.54281 0.0
O23 O 0.96919 0.68317 0.56084 0.0
O24 O 0.87692 0.7027 0.55533 0.0
C25 C 0.05131 0.6649 0.68976 0.0
O26 O 0.00992 0.63331 0.66361 0.0
C27 C 0.90796 0.81111 0.69012 0.0
Zn28 Zn 0.43788 0.86687 0.93219 0.0
Zn29 Zn 0.51617 0.77823 0.88507 0.0
O30 O 0.48373 0.7304 0.9507 0.0
O31 O 0.41532 0.79179 0.97558 0.0
O32 O 0.58345 0.73466 0.8518 0.0
O33 O 0.42072 0.87403 0.84541 0.0
O34 O 0.45831 0.79014 0.81747 0.0
C35 C 0.44041 0.74318 0.98097 0.0
C36 C 0.54161 0.88012 0.96203 0.0
O37 O 0.54169 0.85855 0.91092 0.0
O38 O 0.50224 0.916 0.97261 0.0
C39 C 0.62609 0.70735 0.8315 0.0
O40 O 0.67112 0.69724 0.86559 0.0
C41 C 0.42746 0.83467 0.80702 0.0
Zn42 Zn 0.41105 0.29554 0.0773 0.0
Zn43 Zn 0.50322 0.24615 0.12617 0.0
O44 O 0.55021 0.30318 0.07837 0.0
O45 O 0.47483 0.33227 0.02696 0.0
O46 O 0.55689 0.21243 0.18663 0.0
O47 O 0.3798 0.3353 0.14881 0.0
O48 O 0.4505 0.28312 0.18418 0.0
C49 C 0.52938 0.33186 0.03624 0.0
C50 C 0.41867 0.17425 0.04753 0.0
O51 O 0.46977 0.18213 0.0691 0.0
O52 O 0.38121 0.21293 0.05611 0.0
C53 C 0.55134 0.16004 0.20241 0.0
O54 O 0.51795 0.12339 0.17159 0.0
C55 C 0.40741 0.31553 0.19192 0.0
Zn56 Zn 0.95745 0.82209 0.16067 0.0
Zn57 Zn -0.00539 0.726 0.11032 0.0
O58 O 0.93343 0.68308 0.155 0.0
O59 O 0.92636 0.7581 0.2153 0.0
O60 O 0.02088 0.66831 0.05057 0.0
O61 O 0.91235 0.85245 0.09182 0.0
O62 O 0.96537 0.78434 0.05286 0.0
C63 C 0.91643 0.70443 0.20269 0.0
C64 C 0.07409 0.80576 0.184 0.0
O65 O 0.05924 0.75338 0.16969 0.0
O66 O 0.04335 0.84642 0.1648 0.0
C67 C 0.07348 0.66606 0.03728 0.0
O68 O 0.11289 0.69317 0.07065 0.0
C69 C 0.9334 0.82836 0.04752 0.0
Zn70 Zn 0.42562 0.79212 0.34581 0.0
Zn71 Zn 0.48771 0.71472 0.38393 0.0
O72 O 0.54593 0.75224 0.32638 0.0
O73 O 0.48018 0.80575 0.2834 0.0
O74 O 0.5343 0.66327 0.43935 0.0
O75 O 0.41649 0.8474 0.41349 0.0
O76 O 0.4429 0.76253 0.44582 0.0
C77 C 0.52978 0.78376 0.28409 0.0
C78 C 0.38433 0.68521 0.30717 0.0
O79 O 0.43246 0.66865 0.32911 0.0
O80 O 0.36379 0.73365 0.32286 0.0
C81 C 0.5593 0.69662 0.47773 0.0
O82 O 0.55774 0.75332 0.47087 0.0
C83 C 0.41967 0.81195 0.4541 0.0
Zn84 Zn 0.45307 0.32074 0.66482 0.0
Zn85 Zn 0.49316 0.2266 0.61664 0.0
O86 O 0.43246 0.18277 0.66071 0.0
O87 O 0.42001 0.25809 0.71917 0.0
O88 O 0.52152 0.16631 0.56085 0.0
O89 O 0.41045 0.35059 0.59414 0.0
O90 O 0.46361 0.28236 0.55561 0.0
C91 C 0.41269 0.20399 0.70718 0.0
C92 C 0.57068 0.30862 0.69279 0.0
O93 O 0.5576 0.2564 0.67605 0.0
O94 O 0.53696 0.3489 0.6782 0.0
C95 C 0.57482 0.16224 0.55126 0.0
O96 O 0.61256 0.18928 0.58662 0.0
C97 C 0.43108 0.32602 0.5499 0.0
Zn98 Zn 0.95932 0.3113 0.84528 0.0
Zn99 Zn 0.98602 0.21142 0.87676 0.0
O100 O 0.04875 0.24029 0.82056 0.0
O101 O 0.04493 0.33257 0.84307 0.0
O102 O 0.02532 0.15185 0.92855 0.0
O103 O 0.91115 0.33828 0.90983 0.0
O104 O 0.94636 0.25756 0.94294 0.0
C105 C 0.06895 0.29169 0.81571 0.0
C106 C 0.9073 0.21338 0.77741 0.0
O107 O 0.92456 0.18148 0.81917 0.0
O108 O 0.92014 0.26741 0.77722 0.0
C109 C 0.05781 0.18226 0.96373 0.0
O110 O 0.06492 0.2382 0.95418 0.0
C111 C 0.91681 0.30326 0.95039 0.0
Zn112 Zn 0.40665 0.89582 0.30045 0.0
Zn113 Zn 0.36967 -0.00216 0.26439 0.0
O114 O 0.4255 0.97115 0.20221 0.0
O115 O 0.40676 0.8786 0.21374 0.0
O116 O 0.31564 0.05971 0.23531 0.0
O117 O 0.33537 0.8704 0.34397 0.0
O118 O 0.30599 0.94611 0.29606 0.0
C119 C 0.43335 0.9184 0.1874 0.0
C120 C 0.47006 0.00322 0.34191 0.0
O121 O 0.42415 0.0296 0.32662 0.0
O122 O 0.47409 0.94851 0.33348 0.0
C123 C 0.3073 0.08031 0.18513 0.0
O124 O 0.34526 0.07116 0.14472 0.0
C125 C 0.29508 0.90248 0.32729 0.0
Zn126 Zn 0.29701 0.0726 0.41163 0.0
Zn127 Zn 0.24299 0.12145 0.50112 0.0
O128 O 0.29743 0.07197 0.54962 0.0
O129 O 0.33307 0.02209 0.47668 0.0
O130 O 0.21018 0.18043 0.55652 0.0
O131 O 0.33667 0.14528 0.38231 0.0
O132 O 0.28201 0.18048 0.45058 0.0
C133 C 0.32912 0.03121 0.53107 0.0
C134 C 0.17441 0.04459 0.4126 0.0
O135 O 0.17911 0.06707 0.46375 0.0
O136 O 0.21598 0.0507 0.37834 0.0
C137 C 0.15808 0.18994 0.56899 0.0
O138 O 0.11667 0.15388 0.54975 0.0
C139 C 0.31609 0.18846 0.40914 0.0
Zn140 Zn 0.16133 0.96392 0.8262 0.0
Zn141 Zn 0.11383 0.00227 0.72974 0.0
O142 O 0.16169 0.94161 0.68753 0.0
O143 O 0.21757 0.93082 0.76537 0.0
O144 O 0.05703 0.03372 0.67143 0.0
O145 O 0.09236 0.91843 0.85368 0.0
O146 O 0.0536 0.96875 0.78308 0.0
C147 C 0.20754 0.9221 0.71125 0.0
C148 C 0.18662 0.0809 0.81307 0.0
O149 O 0.17166 0.06656 0.76092 0.0
O150 O 0.16829 0.04954 0.85329 0.0
C151 C 0.04227 0.08667 0.67273 0.0
O152 O 0.07289 0.12489 0.70453 0.0
C153 C 0.04808 0.93629 0.8266 0.0
Zn154 Zn 0.30641 0.83828 0.95821 0.0
Zn155 Zn 0.21135 0.87576 -0.01115 0.0
O156 O 0.23768 0.81729 0.05164 0.0
O157 O 0.32921 0.83771 0.04389 0.0
O158 O 0.15429 0.93325 0.02298 0.0
O159 O 0.33483 0.90042 0.9076 0.0
O160 O 0.26417 0.94023 0.95436 0.0
C161 C 0.28953 0.81061 0.06937 0.0
C162 C 0.20542 0.77516 0.9096 0.0
O163 O 0.17672 0.8194 0.92641 0.0
O164 O 0.25904 0.77203 0.9219 0.0
C165 C 0.15126 0.94476 0.07709 0.0
O166 O 0.17361 0.90838 0.11437 0.0
C167 C 0.30727 0.94494 0.92132 0.0
Zn168 Zn 0.30141 0.41143 0.90427 0.0
Zn169 Zn 0.26173 0.37253 0.00321 0.0
O170 O 0.19917 0.42702 0.97367 0.0
O171 O 0.21591 0.41288 0.88179 0.0
O172 O 0.22482 0.3129 0.05487 0.0
O173 O 0.34685 0.34088 0.87781 0.0
O174 O 0.3003 0.31139 0.95325 0.0
C175 C 0.18597 0.43592 0.921 0.0
C176 C 0.33588 0.47587 0.01488 0.0
O177 O 0.31843 0.43041 0.04113 0.0
O178 O 0.33186 0.47828 0.95984 0.0
C179 C 0.19362 0.30659 0.09879 0.0
O180 O 0.17587 0.35256 0.12776 0.0
C181 C 0.33188 0.30043 0.91035 0.0
Zn182 Zn 0.82071 0.15989 0.96166 0.0
Zn183 Zn 0.72466 0.10847 -0.00298 0.0
O184 O 0.68051 0.15725 0.93871 0.0
O185 O 0.75724 0.21443 0.92953 0.0
O186 O 0.6697 0.0461 0.02403 0.0
O187 O 0.85326 0.09352 0.91473 0.0
O188 O 0.78204 0.05313 0.96165 0.0
C189 C 0.70333 0.20411 0.9207 0.0
C190 C 0.8044 0.18121 0.0794 0.0
O191 O 0.75284 0.1657 0.0638 0.0
O192 O 0.8453 0.16511 0.04785 0.0
C193 C 0.66026 0.03687 0.0769 0.0
O194 O 0.67894 0.07518 0.11667 0.0
C195 C 0.82661 0.04842 0.93098 0.0
Zn196 Zn 0.07465 0.39897 0.28791 0.0
Zn197 Zn 0.12152 0.4937 0.23942 0.0
O198 O 0.07136 0.53892 0.29477 0.0
O199 O 0.01942 0.46213 0.31923 0.0
O200 O 0.17863 0.55132 0.20792 0.0
O201 O 0.14665 0.37401 0.33215 0.0
O202 O 0.18096 0.44393 0.2786 0.0
C203 C 0.02818 0.5171 0.32021 0.0
C204 C 0.04865 0.40443 0.16744 0.0
O205 O 0.06714 0.45687 0.17564 0.0
O206 O 0.06139 0.3668 0.20487 0.0
C207 C 0.18902 0.56205 0.1555 0.0
O208 O 0.15463 0.54036 0.11376 0.0
C209 C 0.1892 0.40235 0.31302 0.0
Zn210 Zn 0.84234 0.90909 0.43193 0.0
Zn211 Zn 0.7777 0.87098 0.51037 0.0
O212 O 0.72394 0.93558 0.48163 0.0
O213 O 0.77549 0.95768 0.4059 0.0
O214 O 0.73272 0.81873 0.56203 0.0
O215 O 0.86672 0.8366 0.39175 0.0
O216 O 0.80493 0.8061 0.4553 0.0
C217 C 0.73229 0.96645 0.43737 0.0
C218 C 0.87484 0.95111 0.54124 0.0
O219 O 0.8402 0.91176 0.55835 0.0
O220 O 0.893 0.94977 0.49004 0.0
C221 C 0.70615 0.81419 0.60925 0.0
O222 O 0.70104 0.85948 0.64454 0.0
C223 C 0.83859 0.7958 0.41364 0.0
Zn224 Zn 0.83982 0.97008 0.31261 0.0
Zn225 Zn 0.86709 -0.0034 0.21622 0.0
O226 O 0.80463 0.05435 0.24689 0.0
O227 O 0.83056 0.05383 0.33799 0.0
O228 O 0.91689 0.04174 0.1606 0.0
O229 O 0.90585 0.92728 0.34552 0.0
O230 O 0.93456 0.95402 0.26053 0.0
C231 C 0.7991 0.07451 0.29812 0.0
C232 C 0.77375 0.91487 0.21171 0.0
O233 O 0.81399 0.93472 0.18022 0.0
O234 O 0.77422 0.9264 0.26595 0.0
C235 C 0.94963 0.07571 0.19197 0.0
O236 O 0.93928 0.08086 0.2476 0.0
C237 C 0.94402 0.92779 0.30801 0.0
Zn238 Zn 0.31275 0.66101 0.45745 0.0
Zn239 Zn 0.22282 0.61151 0.50327 0.0
O240 O 0.17383 0.65701 0.4449 0.0
O241 O 0.24814 0.7123 0.42196 0.0
O242 O 0.16957 0.55331 0.53989 0.0
O243 O 0.34479 0.59224 0.4148 0.0
O244 O 0.27769 0.55223 0.46761 0.0
C245 C 0.19398 0.70093 0.41875 0.0
C246 C 0.30699 0.68871 0.5768 0.0
O247 O 0.25506 0.67087 0.56627 0.0
O248 O 0.34493 0.67636 0.54025 0.0
C249 C 0.17965 0.53879 0.59193 0.0
O250 O 0.21722 0.5696 0.62425 0.0
C251 C 0.32056 0.5473 0.43447 0.0
Zn252 Zn 0.34419 0.43014 0.79458 0.0
Zn253 Zn 0.37949 0.49566 0.72147 0.0
O254 O 0.31839 0.55054 0.75793 0.0
O255 O 0.27616 0.47979 0.80442 0.0
O256 O 0.4299 0.54706 0.67162 0.0
O257 O 0.4116 0.42519 0.85109 0.0
O258 O 0.44517 0.45465 0.76861 0.0
C259 C 0.27469 0.53036 0.78417 0.0
C260 C 0.30867 0.38745 0.69031 0.0
O261 O 0.32808 0.43718 0.67498 0.0
O262 O 0.32659 0.36597 0.73741 0.0
C263 C 0.45736 0.58513 0.70333 0.0
O264 O 0.44404 0.59018 0.75822 0.0
C265 C 0.45329 0.43106 0.81774 0.0
Zn266 Zn 0.57761 0.90441 0.79087 0.0
Zn267 Zn 0.62356 0.00091 0.74493 0.0
O268 O 0.57381 0.04468 0.80274 0.0
O269 O 0.5218 0.96664 0.82327 0.0
O270 O 0.68011 0.05906 0.71166 0.0
O271 O 0.64972 0.87838 0.83358 0.0
O272 O 0.68361 0.94902 0.78057 0.0
C273 C 0.53016 0.02166 0.82658 0.0
C274 C 0.55084 0.91204 0.67181 0.0
O275 O 0.56765 0.96477 0.68189 0.0
O276 O 0.56548 0.87345 0.70744 0.0
C277 C 0.69532 0.05395 0.65936 0.0
O278 O 0.66605 0.01804 0.62376 0.0
C279 C 0.6921 0.90622 0.81347 0.0
Zn280 Zn 0.79723 0.57468 0.91082 0.0
Zn281 Zn 0.75452 0.62185 0.00564 0.0
O282 O 0.81145 0.57216 0.05009 0.0
O283 O 0.82666 0.51678 0.97304 0.0
O284 O 0.72257 0.67863 0.06348 0.0
O285 O 0.84122 0.64612 0.88438 0.0
O286 O 0.78854 0.68232 0.9537 0.0
C287 C 0.83132 0.52584 0.02765 0.0
C288 C 0.67938 0.54997 0.91802 0.0
O289 O 0.6909 0.56602 0.97052 0.0
O290 O 0.71423 0.56426 0.87922 0.0
C291 C 0.6687 0.68679 0.06572 0.0
O292 O 0.63266 0.65037 0.03778 0.0
C293 C 0.82117 0.68965 0.91104 0.0
Zn294 Zn 0.92821 0.43901 0.87285 0.0
Zn295 Zn 0.87671 0.50527 0.77902 0.0
O296 O 0.94533 0.48159 0.73146 0.0
O297 O 0.97487 0.41945 0.79795 0.0
O298 O 0.81941 0.55553 0.7367 0.0
O299 O 0.84228 0.41826 0.88242 0.0
O300 O 0.81962 0.43761 0.79172 0.0
C301 C 0.97982 0.44242 0.74834 0.0
C302 C 0.95095 0.54359 0.88165 0.0
O303 O 0.90082 0.53952 0.85744 0.0
O304 O 0.96191 0.50754 0.92097 0.0
C305 C 0.81292 0.59197 0.69644 0.0
O306 O 0.8578 0.6114 0.66837 0.0
C307 C 0.80676 0.41504 0.83982 0.0
Zn308 Zn 0.77557 0.32509 0.40314 0.0
Zn309 Zn 0.71703 0.38132 0.49165 0.0
O310 O 0.76152 0.32507 0.54392 0.0
O311 O 0.78977 0.27003 0.4702 0.0
O312 O 0.6818 0.44535 0.54159 0.0
O313 O 0.82334 0.39456 0.38379 0.0
O314 O 0.76542 0.4369 0.4443 0.0
C315 C 0.78201 0.27752 0.52412 0.0
C316 C 0.66165 0.3031 0.39676 0.0
O317 O 0.6596 0.32581 0.44771 0.0
O318 O 0.69931 0.32087 0.36253 0.0
C319 C 0.64454 0.45739 0.57937 0.0
O320 O 0.61063 0.41611 0.5989 0.0
C321 C 0.80469 0.4402 0.407 0.0
Zn322 Zn 0.6587 0.46072 0.32205 0.0
Zn323 Zn 0.61043 0.49872 0.22655 0.0
O324 O 0.65824 0.43814 0.18312 0.0
O325 O 0.71424 0.42677 0.26084 0.0
O326 O 0.55294 0.53324 0.16988 0.0
O327 O 0.58997 0.4168 0.35288 0.0
O328 O 0.5505 0.46595 0.28189 0.0
C329 C 0.70436 0.4187 0.20661 0.0
C330 C 0.68658 0.5766 0.30814 0.0
O331 O 0.6702 0.5619 0.25649 0.0
O332 O 0.66926 0.5458 0.34923 0.0
C333 C 0.53556 0.58411 0.18216 0.0
O334 O 0.56362 0.61547 0.22261 0.0
C335 C 0.54533 0.43474 0.32648 0.0
Fe336 Fe 0.12836 0.07593 0.1937 0.0
Fe337 Fe 0.0746 0.18598 0.14262 0.0
O338 O 0.12578 0.12903 0.13849 0.0
Fe339 Fe 0.17326 0.12565 0.07892 0.0
O340 O 0.17335 0.04539 0.0739 0.0
O341 O 0.11564 0.01544 0.14225 0.0
O342 O 0.04997 0.07604 0.20468 0.0
C343 C 0.00763 0.09292 0.17356 0.0
C344 C 0.24749 0.09517 0.16843 0.0
O345 O 0.01376 0.13384 0.13823 0.0
C346 C 0.16982 0.24768 0.10967 0.0
O347 O 0.14144 0.13071 0.25131 0.0
O348 O 0.07316 0.18921 0.22211 0.0
O349 O 0.23795 0.12763 0.12589 0.0
O350 O 0.20688 0.06718 0.19186 0.0
C351 C 0.0761 0.1616 0.02116 0.0
O352 O 0.13166 0.24166 0.14735 0.0
O353 O 0.18135 0.20598 0.07461 0.0
C354 C 0.1081 0.17239 0.2612 0.0
O355 O 0.0665 0.19488 0.06405 0.0
O356 O 0.11345 0.1226 0.02532 0.0
C357 C 0.14296 0.00572 0.09653 0.0
Fe358 Fe 0.06195 0.80571 0.35967 0.0
Fe359 Fe 0.12013 0.91605 0.30998 0.0
O360 O 0.11329 0.86429 0.36654 0.0
Fe361 Fe 0.15796 0.86997 0.43078 0.0
O362 O 0.16027 0.79209 0.44267 0.0
O363 O 0.11919 0.75079 0.36482 0.0
O364 O 0.06387 0.79813 0.2815 0.0
C365 C 0.09678 0.81659 0.24322 0.0
C366 C 0.05343 0.84105 0.47647 0.0
O367 O 0.13021 0.85986 0.25384 0.0
C368 C 0.14193 0.98936 0.40481 0.0
O369 O 0.00259 0.85726 0.35398 0.0
O370 O 0.0428 0.91837 0.293 0.0
O371 O 0.09529 0.87753 0.47739 0.0
O372 O 0.04837 0.80248 0.43674 0.0
C373 C 0.23552 0.89287 0.34459 0.0
O374 O 0.11174 0.97911 0.35901 0.0
O375 O 0.16563 0.94848 0.43127 0.0
C376 C -0.00055 0.89976 0.31962 0.0
O377 O 0.19799 0.92199 0.31783 0.0
O378 O 0.22354 0.86293 0.38849 0.0
C379 C 0.15596 0.75011 0.40668 0.0
Fe380 Fe 0.3773 0.9327 0.6704 0.0
Fe381 Fe 0.30597 0.86475 0.57679 0.0
O382 O 0.3667 0.86848 0.6263 0.0
Fe383 Fe 0.41588 0.80893 0.6299 0.0
O384 O 0.42693 0.81361 0.70791 0.0
O385 O 0.37866 0.89104 0.737 0.0
O386 O 0.30016 0.94291 0.68077 0.0
C387 C 0.25705 0.90817 0.67523 0.0
C388 C 0.49299 0.90297 0.64552 0.0
O389 O 0.25477 0.86819 0.63615 0.0
C390 C 0.39614 0.8259 0.51061 0.0
O391 O 0.37864 0.98071 0.60743 0.0
O392 O 0.30034 0.94243 0.56641 0.0
O393 O 0.48006 0.85503 0.61987 0.0
O394 O 0.45519 0.93306 0.66949 0.0
C395 C 0.31582 0.74575 0.60576 0.0
O396 O 0.3549 0.86151 0.51558 0.0
O397 O 0.41337 0.79524 0.55218 0.0
C398 C 0.33886 0.9816 0.5689 0.0
O399 O 0.29803 0.78634 0.57487 0.0
O400 O 0.35829 0.75465 0.64062 0.0
C401 C 0.40721 0.84553 0.74756 0.0
Fe402 Fe 0.43446 0.16203 0.87289 0.0
Fe403 Fe 0.36148 0.06743 0.80773 0.0
O404 O 0.37036 0.11751 0.86752 0.0
Fe405 Fe 0.31561 0.12358 0.92042 0.0
O406 O 0.32377 0.20206 0.92904 0.0
O407 O 0.39243 0.22865 0.86943 0.0
O408 O 0.44254 0.16684 0.79509 0.0
C409 C 0.40368 0.16518 0.75568 0.0
C410 C 0.41177 0.14246 -0.00815 0.0
O411 O 0.36375 0.1267 0.75551 0.0
C412 C 0.32346 0.00191 0.89878 0.0
O413 O 0.48132 0.0984 0.87646 0.0
O414 O 0.43848 0.05354 0.80129 0.0
O415 O 0.36629 0.11227 0.98118 0.0
O416 O 0.43761 0.16715 0.9515 0.0
C417 C 0.24591 0.10315 0.82296 0.0
O418 O 0.35746 0.00586 0.85661 0.0
O419 O 0.29872 0.04578 0.92009 0.0
C420 C 0.47991 0.05802 0.83806 0.0
O421 O 0.28339 0.06993 0.80285 0.0
O422 O 0.25801 0.13609 0.86634 0.0
C423 C 0.34979 0.24044 0.90065 0.0
Fe424 Fe 0.57046 0.30961 0.86868 0.0
Fe425 Fe 0.62952 0.41658 0.81397 0.0
O426 O 0.62313 0.3675 0.87303 0.0
Fe427 Fe 0.66781 0.37489 0.93722 0.0
O428 O 0.6736 0.29653 0.94608 0.0
O429 O 0.62713 0.25453 0.87065 0.0
O430 O 0.56673 0.30225 0.79056 0.0
C431 C 0.59855 0.31753 0.7503 0.0
C432 C 0.56576 0.34139 0.98599 0.0
O433 O 0.63553 0.35807 0.75918 0.0
C434 C 0.65053 0.49319 0.90817 0.0
O435 O 0.51237 0.36295 0.86656 0.0
O436 O 0.55153 0.42055 0.80145 0.0
O437 O 0.60559 0.37969 0.98515 0.0
O438 O 0.56063 0.30362 0.94599 0.0
C439 C 0.74639 0.39834 0.85023 0.0
O440 O 0.62488 0.48205 0.86002 0.0
O441 O 0.67132 0.45347 0.93857 0.0
C442 C 0.50932 0.40539 0.8319 0.0
O443 O 0.70806 0.42066 0.81809 0.0
O444 O 0.73429 0.37218 0.89638 0.0
C445 C 0.66687 0.25452 0.90988 0.0
Fe446 Fe 0.80349 0.3582 0.07323 0.0
Fe447 Fe 0.87515 0.42663 0.16708 0.0
O448 O 0.86427 0.36238 0.12276 0.0
Fe449 Fe 0.91362 0.30309 0.12661 0.0
O450 O 0.90998 0.2867 0.04904 0.0
O451 O 0.85167 0.3525 0.0118 0.0
O452 O 0.80024 0.43604 0.06057 0.0
C453 C 0.83917 0.4751 0.06449 0.0
C454 C 0.81317 0.2396 0.10587 0.0
O455 O 0.87752 0.47425 0.10437 0.0
C456 C 0.90587 0.34105 0.24432 0.0
O457 O 0.75193 0.36401 0.13216 0.0
O458 O 0.79797 0.43815 0.17687 0.0
O459 O 0.8562 0.24947 0.13982 0.0
O460 O 0.79454 0.27944 0.07413 0.0
C461 C -0.00931 0.39654 0.14101 0.0
O462 O 0.87559 0.38533 0.23389 0.0
O463 O 0.92618 0.30977 0.20444 0.0
C464 C 0.75408 0.4045 0.17059 0.0
O465 O 0.95323 0.42586 0.16656 0.0
O466 O 0.97717 0.34936 0.11418 0.0
C467 C 0.89171 0.31574 0.00671 0.0
Fe468 Fe 0.81568 0.61883 0.4143 0.0
Fe469 Fe 0.93489 0.65803 0.36828 0.0
O470 O 0.87042 0.61427 0.36122 0.0
Fe471 Fe 0.86151 0.5665 0.29939 0.0
O472 O 0.78336 0.56924 0.2941 0.0
O473 O 0.75785 0.6319 0.36086 0.0
O474 O 0.82307 0.69703 0.42417 0.0
C475 C 0.85048 0.73585 0.39774 0.0
C476 C 0.82377 0.4977 0.38831 0.0
O477 O 0.89344 0.7246 0.36671 0.0
C478 C 0.97883 0.55441 0.33127 0.0
O479 O 0.86605 0.60715 0.47533 0.0
O480 O 0.93799 0.66164 0.44684 0.0
O481 O 0.85662 0.50283 0.34538 0.0
O482 O 0.80022 0.54097 0.4122 0.0
C483 C 0.90565 0.66521 0.2507 0.0
O484 O 0.98067 0.59378 0.37061 0.0
O485 O 0.93848 0.55251 0.2932 0.0
C486 C 0.91126 0.63749 0.48679 0.0
O487 O 0.94388 0.66524 0.2907 0.0
O488 O 0.86471 0.62778 0.24946 0.0
C489 C 0.74552 0.60036 0.31664 0.0
Fe490 Fe 0.92829 0.819 0.8685 0.0
Fe491 Fe 0.82025 0.86896 0.92418 0.0
O492 O 0.87271 0.87107 0.86964 0.0
Fe493 Fe 0.86957 0.92536 0.81621 0.0
O494 O 0.94812 0.9305 0.80776 0.0
O495 O 0.98427 0.87517 0.87598 0.0
O496 O 0.93288 0.81228 0.94743 0.0
C497 C 0.91548 0.84397 -0.01112 0.0
C498 C 0.89772 0.83174 0.74933 0.0
O499 O 0.87476 0.87894 0.98159 0.0
C500 C 0.75153 0.8949 0.83188 0.0
O501 O 0.87675 0.7586 0.86121 0.0
O502 O 0.82084 0.78968 0.93074 0.0
O503 O 0.8615 0.87111 0.75799 0.0
O504 O 0.93288 0.81673 0.7892 0.0
C505 C 0.84175 0.9901 0.91077 0.0
O506 O 0.76157 0.85879 0.87106 0.0
O507 O 0.79062 0.9296 0.81522 0.0
C508 C 0.83845 0.74924 0.89782 0.0
O509 O 0.81061 0.94789 0.92712 0.0
O510 O 0.87707 0.98373 0.87054 0.0
C511 C -0.00991 0.91527 0.8401 0.0
Fe512 Fe 0.86799 0.07743 0.66395 0.0
Fe513 Fe 0.81712 0.11532 0.54705 0.0
O514 O 0.8654 0.12842 0.60707 0.0
Fe515 Fe 0.91199 0.19044 0.60862 0.0
O516 O 0.88437 0.21537 0.6778 0.0
O517 O 0.88676 0.13073 0.72086 0.0
O518 O 0.79152 0.08821 0.67903 0.0
C519 C 0.75131 0.07835 0.64147 0.0
C520 C 0.98413 0.10179 0.6517 0.0
O521 O 0.76233 0.07625 0.58811 0.0
C522 C 0.91392 0.16278 0.49227 0.0
O523 O 0.85137 0.01437 0.61712 0.0
O524 O 0.85494 0.0489 0.52975 0.0
O525 O 0.97292 0.15496 0.64502 0.0
O526 O 0.94422 0.06334 0.6523 0.0
C527 C 0.80521 0.23284 0.56212 0.0
O528 O 0.86068 0.15119 0.49372 0.0
O529 O 0.94342 0.16943 0.53914 0.0
C530 C 0.86574 0.00891 0.56511 0.0
O531 O 0.77944 0.18329 0.56115 0.0
O532 O 0.85926 0.23708 0.57242 0.0
C533 C 0.88587 0.18557 0.72337 0.0
Fe534 Fe 0.63389 0.05593 0.32073 0.0
Fe535 Fe 0.68804 0.13213 0.42039 0.0
O536 O 0.62858 0.11362 0.3731 0.0
Fe537 Fe 0.56372 0.15385 0.37791 0.0
O538 O 0.56957 0.17694 0.3028 0.0
O539 O 0.58854 0.09027 0.26536 0.0
O540 O 0.69784 0.0893 0.28796 0.0
C541 C 0.7446 0.10083 0.31644 0.0
C542 C 0.52213 0.03891 0.35535 0.0
O543 O 0.74349 0.11258 0.36998 0.0
C544 C 0.59256 0.14432 0.49311 0.0
O545 O 0.67986 0.0116 0.36616 0.0
O546 O 0.68942 0.05855 0.45045 0.0
O547 O 0.51593 0.09331 0.35583 0.0
O548 O 0.57155 0.01714 0.34966 0.0
C549 C 0.64862 0.24082 0.3924 0.0
O550 O 0.64444 0.15503 0.48096 0.0
O551 O 0.55465 0.13337 0.45335 0.0
C552 C 0.69272 0.01213 0.41963 0.0
O553 O 0.69047 0.20586 0.39226 0.0
O554 O 0.59802 0.22301 0.40097 0.0
C555 C 0.57432 0.14274 0.2593 0.0
Fe556 Fe 0.54925 0.80466 0.12062 0.0
Fe557 Fe 0.66131 0.8609 0.07776 0.0
O558 O 0.60538 0.85831 0.12914 0.0
Fe559 Fe 0.6041 0.90959 0.18744 0.0
O560 O 0.53183 0.93486 0.16536 0.0
O561 O 0.4935 0.84745 0.15339 0.0
O562 O 0.52779 0.83646 0.05207 0.0
C563 C 0.56128 0.84537 0.01066 0.0
C564 C 0.56778 0.80304 0.23836 0.0
O565 O 0.61462 0.83597 0.01637 0.0
C566 C 0.72055 0.89052 0.1841 0.0
O567 O 0.59358 0.75009 0.08536 0.0
O568 O 0.68206 0.78626 0.09371 0.0
O569 O 0.57332 0.85802 0.23758 0.0
O570 O 0.56773 0.77308 0.19115 0.0
C571 C 0.64179 0.97829 0.09434 0.0
O572 O 0.7177 0.8873 0.12939 0.0
O573 O 0.67537 0.88847 0.21373 0.0
C574 C 0.64752 0.74293 0.08722 0.0
O575 O 0.64441 0.93575 0.05854 0.0
O576 O 0.63501 0.97021 0.14772 0.0
C577 C 0.48757 0.90144 0.16061 0.0
Fe578 Fe 0.40737 0.70019 0.14103 0.0
Fe579 Fe 0.31433 0.64397 0.05879 0.0
O580 O 0.36164 0.64017 0.12042 0.0
Fe581 Fe 0.36278 0.57666 0.16323 0.0
O582 O 0.43915 0.56539 0.14865 0.0
O583 O 0.46545 0.65575 0.17146 0.0
O584 O 0.44405 0.69819 0.07181 0.0
C585 C 0.41752 0.70242 0.02322 0.0
C586 C 0.37151 0.66661 0.24734 0.0
O587 O 0.36428 0.6888 0.01725 0.0
C588 C 0.246 0.58699 0.14192 0.0
O589 O 0.35957 0.75617 0.11427 0.0
O590 O 0.27945 0.70975 0.08708 0.0
O591 O 0.3813 0.61471 0.23214 0.0
O592 O 0.37192 0.70632 0.21024 0.0
C593 C 0.34779 0.52967 0.0494 0.0
O594 O 0.25583 0.60026 0.09001 0.0
O595 O 0.28669 0.58458 0.17974 0.0
C596 C 0.30688 0.75712 0.09897 0.0
O597 O 0.34548 0.57883 0.02541 0.0
O598 O 0.3444 0.52589 0.1036 0.0
C599 C 0.47831 0.60314 0.16171 0.0
Fe600 Fe 0.1099 0.54772 0.80821 0.0
Fe601 Fe 0.17935 0.60521 0.9097 0.0
O602 O 0.11985 0.60562 0.86 0.0
Fe603 Fe 0.06896 0.66281 0.86221 0.0
O604 O 0.08328 0.68141 0.78706 0.0
O605 O 0.07338 0.59131 0.75377 0.0
O606 O 0.17953 0.56445 0.77494 0.0
C607 C 0.22736 0.56622 0.80392 0.0
C608 C 0.00055 0.56246 0.84861 0.0
O609 O 0.22792 0.57255 0.85845 0.0
C610 C 0.08874 0.64572 0.97906 0.0
O611 O 0.14388 0.49236 0.8513 0.0
O612 O 0.15823 0.53341 0.93703 0.0
O613 O 0.0067 0.61617 0.8395 0.0
O614 O 0.04209 0.52812 0.8415 0.0
C615 C 0.17572 0.72187 0.88777 0.0
O616 O 0.14166 0.63857 0.9699 0.0
O617 O 0.05174 0.64776 0.93752 0.0
C618 C 0.15397 0.48794 0.90481 0.0
O619 O 0.20472 0.67577 0.8859 0.0
O620 O 0.12113 0.71991 0.88636 0.0
C621 C 0.0757 0.64532 0.74503 0.0
Fe622 Fe 0.16381 0.36488 0.58455 0.0
Fe623 Fe 0.0608 0.31592 0.65144 0.0
O624 O 0.12181 0.36358 0.64801 0.0
Fe625 Fe 0.14228 0.40965 0.70792 0.0
O626 O 0.21235 0.37464 0.71327 0.0
O627 O 0.23253 0.38376 0.62183 0.0
O628 O 0.18128 0.28832 0.59197 0.0
C629 C 0.14395 0.24731 0.594 0.0
C630 C 0.16083 0.48114 0.61135 0.0
O631 O 0.09215 0.25719 0.60729 0.0
C632 C 0.02405 0.41929 0.70997 0.0
O633 O 0.10422 0.3465 0.5343 0.0
O634 O 0.02706 0.3483 0.58748 0.0
O635 O 0.17105 0.46857 0.66375 0.0
O636 O 0.14815 0.44155 0.57382 0.0
C637 C 0.1007 0.30817 0.76382 0.0
O638 O 0.01893 0.36569 0.69628 0.0
O639 O 0.07238 0.44619 0.70686 0.0
C640 C 0.05054 0.3521 0.53872 0.0
O641 O 0.08968 0.28054 0.71642 0.0
O642 O 0.11675 0.36098 0.76334 0.0
C643 C 0.24868 0.37411 0.67321 0.0
Fe644 Fe 0.67835 0.63639 0.58888 0.0
Fe645 Fe 0.63499 0.58587 0.7026 0.0
O646 O 0.63215 0.64003 0.64907 0.0
Fe647 Fe 0.58293 0.69828 0.6563 0.0
O648 O 0.57268 0.70821 0.57798 0.0
O649 O 0.61727 0.63522 0.53652 0.0
O650 O 0.67738 0.55594 0.58358 0.0
C651 C 0.64426 0.51735 0.60446 0.0
C652 C 0.67866 0.7574 0.62055 0.0
O653 O 0.61656 0.52765 0.64987 0.0
C654 C 0.62282 0.68261 0.77201 0.0
O655 O 0.74352 0.63801 0.63551 0.0
O656 O 0.71265 0.57314 0.69685 0.0
O657 O 0.64178 0.75252 0.65973 0.0
O658 O 0.68723 0.71592 0.58456 0.0
C659 C 0.51506 0.60588 0.68732 0.0
O660 O 0.65402 0.63998 0.75916 0.0
O661 O 0.5845 0.70003 0.73642 0.0
C662 C 0.75318 0.60365 0.67644 0.0
O663 O 0.55764 0.58907 0.718 0.0
O664 O 0.52073 0.64767 0.65294 0.0
C665 C 0.58103 0.67567 0.53406 0.0
Fe666 Fe 0.4253 0.31867 0.37039 0.0
Fe667 Fe 0.36605 0.42579 0.31982 0.0
O668 O 0.36949 0.37058 0.37237 0.0
Fe669 Fe 0.31689 0.36726 0.42689 0.0
O670 O 0.31783 0.2879 0.4322 0.0
O671 O 0.37377 0.25815 0.36224 0.0
O672 O 0.42981 0.3176 0.29124 0.0
C673 C 0.39553 0.33402 0.2513 0.0
C674 C 0.41251 0.34164 0.49125 0.0
O675 O 0.3589 0.37284 0.26047 0.0
C676 C 0.33672 0.48896 0.41495 0.0
O677 O 0.48148 0.37493 0.37807 0.0
O678 O 0.44464 0.4319 0.31152 0.0
O679 O 0.37154 0.37653 0.48442 0.0
O680 O 0.43012 0.3107 0.44932 0.0
C681 C 0.24834 0.39321 0.33405 0.0
O682 O 0.37261 0.48318 0.37514 0.0
O683 O 0.30634 0.44615 0.43115 0.0
C684 C 0.48722 0.41522 0.34223 0.0
O685 O 0.28702 0.42894 0.31845 0.0
O686 O 0.25822 0.35741 0.37356 0.0
C687 C 0.33486 0.24823 0.3981 0.0
loop_
_geom_bond_atom_site_label_1
_geom_bond_atom_site_label_2
_geom_bond_distance
_geom_bond_site_symmetry_2
_ccdc_geom_bond_type
Zn0 O3 2.031 . S
Zn0 O5 2.049 . S
Zn0 O10 2.067 1_655 S
Zn1 O2 1.962 1_455 S
Zn1 O4 1.986 . S
Zn1 O6 1.996 1_455 S
Zn1 O9 1.943 . S
O2 Zn1 1.962 1_655 S
O2 C7 1.254 . S
O3 Zn0 2.031 . S
O3 C7 1.269 . S
O4 Zn1 1.986 . S
O4 C11 1.262 . S
O5 Zn0 2.049 . S
O5 C13 1.260 . S
O6 Zn1 1.996 1_655 S
O6 C13 1.257 . S
C7 O2 1.254 . S
C7 O3 1.269 . S
C8 O9 1.249 . S
C8 O10 1.270 . S
O9 Zn1 1.943 . S
O9 C8 1.249 . S
O10 Zn0 2.067 1_455 S
O10 C8 1.270 . S
C11 O4 1.262 . S
C11 O12 1.232 . S
O12 C11 1.232 . S
C13 O5 1.260 . S
C13 O6 1.257 . S
Zn14 O17 2.031 1_655 S
Zn14 O19 2.049 . S
Zn14 O24 2.067 . S
Zn15 O16 1.962 . S
Zn15 O18 1.986 . S
Zn15 O20 1.996 1_455 S
Zn15 O23 1.943 1_455 S
O16 Zn15 1.962 . S
O16 C21 1.254 . S
O17 Zn14 2.031 1_455 S
O17 C21 1.269 . S
O18 Zn15 1.986 . S
O18 C25 1.262 . S
O19 Zn14 2.049 . S
O19 C27 1.260 . S
O20 Zn15 1.996 1_655 S
O20 C27 1.257 . S
C21 O16 1.254 . S
C21 O17 1.269 . S
C22 O23 1.249 . S
C22 O24 1.270 . S
O23 Zn15 1.943 1_655 S
O23 C22 1.249 . S
O24 Zn14 2.067 . S
O24 C22 1.270 . S
C25 O18 1.262 . S
C25 O26 1.232 . S
O26 C25 1.232 . S
C27 O19 1.260 . S
C27 O20 1.257 . S
Zn28 O31 2.031 . S
Zn28 O33 2.049 . S
Zn28 O38 2.067 . S
Zn29 O30 1.962 . S
Zn29 O32 1.986 . S
Zn29 O34 1.996 . S
Zn29 O37 1.943 . S
O30 Zn29 1.962 . S
O30 C35 1.254 . S
O31 Zn28 2.031 . S
O31 C35 1.269 . S
O32 Zn29 1.986 . S
O32 C39 1.262 . S
O33 Zn28 2.049 . S
O33 C41 1.260 . S
O34 Zn29 1.996 . S
O34 C41 1.257 . S
C35 O30 1.254 . S
C35 O31 1.269 . S
C36 O37 1.249 . S
C36 O38 1.270 . S
O37 Zn29 1.943 . S
O37 C36 1.249 . S
O38 Zn28 2.067 . S
O38 C36 1.270 . S
C39 O32 1.262 . S
C39 O40 1.232 . S
O40 C39 1.232 . S
C41 O33 1.260 . S
C41 O34 1.257 . S
Zn42 O45 2.031 . S
Zn42 O47 2.049 . S
Zn42 O52 2.067 . S
Zn43 O44 1.962 . S
Zn43 O46 1.986 . S
Zn43 O48 1.996 . S
Zn43 O51 1.943 . S
O44 Zn43 1.962 . S
O44 C49 1.254 . S
O45 Zn42 2.031 . S
O45 C49 1.269 . S
O46 Zn43 1.986 . S
O46 C53 1.262 . S
O47 Zn42 2.049 . S
O47 C55 1.260 . S
O48 Zn43 1.996 . S
O48 C55 1.257 . S
C49 O44 1.254 . S
C49 O45 1.269 . S
C50 O51 1.249 . S
C50 O52 1.270 . S
O51 Zn43 1.943 . S
O51 C50 1.249 . S
O52 Zn42 2.067 . S
O52 C50 1.270 . S
C53 O46 1.262 . S
C53 O54 1.232 . S
O54 C53 1.232 . S
C55 O47 1.260 . S
C55 O48 1.257 . S
Zn56 O59 2.031 . S
Zn56 O61 2.049 . S
Zn56 O66 2.067 1_655 S
Zn57 O58 1.962 1_455 S
Zn57 O60 1.986 . S
Zn57 O62 1.996 1_455 S
Zn57 O65 1.943 . S
O58 Zn57 1.962 1_655 S
O58 C63 1.254 . S
O59 Zn56 2.031 . S
O59 C63 1.269 . S
O60 Zn57 1.986 . S
O60 C67 1.262 . S
O61 Zn56 2.049 . S
O61 C69 1.260 . S
O62 Zn57 1.996 1_655 S
O62 C69 1.257 . S
C63 O58 1.254 . S
C63 O59 1.269 . S
C64 O65 1.249 . S
C64 O66 1.270 . S
O65 Zn57 1.943 . S
O65 C64 1.249 . S
O66 Zn56 2.067 1_455 S
O66 C64 1.270 . S
C67 O60 1.262 . S
C67 O68 1.232 . S
O68 C67 1.232 . S
C69 O61 1.260 . S
C69 O62 1.257 . S
Zn70 O73 2.031 . S
Zn70 O75 2.049 . S
Zn70 O80 2.067 . S
Zn71 O72 1.962 . S
Zn71 O74 1.986 . S
Zn71 O76 1.996 . S
Zn71 O79 1.943 . S
O72 Zn71 1.962 . S
O72 C77 1.254 . S
O73 Zn70 2.031 . S
O73 C77 1.269 . S
O74 Zn71 1.986 . S
O74 C81 1.262 . S
O75 Zn70 2.049 . S
O75 C83 1.260 . S
O76 Zn71 1.996 . S
O76 C83 1.257 . S
C77 O72 1.254 . S
C77 O73 1.269 . S
C78 O79 1.249 . S
C78 O80 1.270 . S
O79 Zn71 1.943 . S
O79 C78 1.249 . S
O80 Zn70 2.067 . S
O80 C78 1.270 . S
C81 O74 1.262 . S
C81 O82 1.232 . S
O82 C81 1.232 . S
C83 O75 1.260 . S
C83 O76 1.257 . S
Zn84 O87 2.031 . S
Zn84 O89 2.049 . S
Zn84 O94 2.067 . S
Zn85 O86 1.962 . S
Zn85 O88 1.986 . S
Zn85 O90 1.996 . S
Zn85 O93 1.943 . S
O86 Zn85 1.962 . S
O86 C91 1.254 . S
O87 Zn84 2.031 . S
O87 C91 1.269 . S
O88 Zn85 1.986 . S
O88 C95 1.262 . S
O89 Zn84 2.049 . S
O89 C97 1.260 . S
O90 Zn85 1.996 . S
O90 C97 1.257 . S
C91 O86 1.254 . S
C91 O87 1.269 . S
C92 O93 1.249 . S
C92 O94 1.270 . S
O93 Zn85 1.943 . S
O93 C92 1.249 . S
O94 Zn84 2.067 . S
O94 C92 1.270 . S
C95 O88 1.262 . S
C95 O96 1.232 . S
O96 C95 1.232 . S
C97 O89 1.260 . S
C97 O90 1.257 . S
Zn98 O101 2.031 1_655 S
Zn98 O103 2.049 . S
Zn98 O108 2.067 . S
Zn99 O100 1.962 . S
Zn99 O102 1.986 . S
Zn99 O104 1.996 1_455 S
Zn99 O107 1.943 1_455 S
O100 Zn99 1.962 . S
O100 C105 1.254 . S
O101 Zn98 2.031 1_455 S
O101 C105 1.269 . S
O102 Zn99 1.986 . S
O102 C109 1.262 . S
O103 Zn98 2.049 . S
O103 C111 1.260 . S
O104 Zn99 1.996 1_655 S
O104 C111 1.257 . S
C105 O100 1.254 . S
C105 O101 1.269 . S
C106 O107 1.249 . S
C106 O108 1.270 . S
O107 Zn99 1.943 1_655 S
O107 C106 1.249 . S
O108 Zn98 2.067 . S
O108 C106 1.270 . S
C109 O102 1.262 . S
C109 O110 1.232 . S
O110 C109 1.232 . S
C111 O103 1.260 . S
C111 O104 1.257 . S
Zn112 O115 2.031 . S
Zn112 O117 2.049 . S
Zn112 O122 2.079 . S
Zn113 O114 1.959 1_545 S
Zn113 O116 1.988 . S
Zn113 O118 1.993 1_545 S
Zn113 O121 1.946 . S
O114 Zn113 1.959 1_565 S
O114 C119 1.254 . S
O115 Zn112 2.031 . S
O115 C119 1.269 . S
O116 Zn113 1.988 . S
O116 C123 1.262 . S
O117 Zn112 2.049 . S
O117 C125 1.260 . S
O118 Zn113 1.993 1_565 S
O118 C125 1.257 . S
C119 O114 1.254 . S
C119 O115 1.269 . S
C120 O121 1.249 . S
C120 O122 1.259 1_545 S
O121 Zn113 1.946 . S
O121 C120 1.249 . S
O122 Zn112 2.079 . S
O122 C120 1.259 1_565 S
C123 O116 1.262 . S
C123 O124 1.232 . S
O124 C123 1.232 . S
C125 O117 1.260 . S
C125 O118 1.257 . S
Zn126 O129 2.031 . S
Zn126 O131 2.049 . S
Zn126 O136 2.067 . S
Zn127 O128 1.962 . S
Zn127 O130 1.986 . S
Zn127 O132 1.996 . S
Zn127 O135 1.943 . S
O128 Zn127 1.962 . S
O128 C133 1.254 . S
O129 Zn126 2.031 . S
O129 C133 1.269 . S
O130 Zn127 1.986 . S
O130 C137 1.262 . S
O131 Zn126 2.049 . S
O131 C139 1.260 . S
O132 Zn127 1.996 . S
O132 C139 1.257 . S
C133 O128 1.254 . S
C133 O129 1.269 . S
C134 O135 1.249 . S
C134 O136 1.270 . S
O135 Zn127 1.943 . S
O135 C134 1.249 . S
O136 Zn126 2.067 . S
O136 C134 1.270 . S
C137 O130 1.262 . S
C137 O138 1.232 . S
O138 C137 1.232 . S
C139 O131 1.260 . S
C139 O132 1.257 . S
Zn140 O143 2.031 . S
Zn140 O145 2.049 . S
Zn140 O150 2.067 1_565 S
Zn141 O142 1.962 1_545 S
Zn141 O144 1.986 . S
Zn141 O146 1.996 1_545 S
Zn141 O149 1.943 . S
O142 Zn141 1.962 1_565 S
O142 C147 1.254 . S
O143 Zn140 2.031 . S
O143 C147 1.269 . S
O144 Zn141 1.986 . S
O144 C151 1.262 . S
O145 Zn140 2.049 . S
O145 C153 1.260 . S
O146 Zn141 1.996 1_565 S
O146 C153 1.257 . S
C147 O142 1.254 . S
C147 O143 1.269 . S
C148 O149 1.249 . S
C148 O150 1.270 . S
O149 Zn141 1.943 . S
O149 C148 1.249 . S
O150 Zn140 2.067 1_545 S
O150 C148 1.270 . S
C151 O144 1.262 . S
C151 O152 1.232 . S
O152 C151 1.232 . S
C153 O145 1.260 . S
C153 O146 1.257 . S
Zn154 O157 2.031 1_556 S
Zn154 O159 2.049 . S
Zn154 O164 2.067 . S
Zn155 O156 1.962 . S
Zn155 O158 1.986 . S
Zn155 O160 1.996 1_554 S
Zn155 O163 1.943 1_554 S
O156 Zn155 1.962 . S
O156 C161 1.254 . S
O157 Zn154 2.031 1_554 S
O157 C161 1.269 . S
O158 Zn155 1.986 . S
O158 C165 1.262 . S
O159 Zn154 2.049 . S
O159 C167 1.260 . S
O160 Zn155 1.996 1_556 S
O160 C167 1.257 . S
C161 O156 1.254 . S
C161 O157 1.269 . S
C162 O163 1.249 . S
C162 O164 1.270 . S
O163 Zn155 1.943 1_556 S
O163 C162 1.249 . S
O164 Zn154 2.067 . S
O164 C162 1.270 . S
C165 O158 1.262 . S
C165 O166 1.232 . S
O166 C165 1.232 . S
C167 O159 1.260 . S
C167 O160 1.257 . S
Zn168 O171 2.031 . S
Zn168 O173 2.049 . S
Zn168 O178 2.067 1_556 S
Zn169 O170 1.962 1_554 S
Zn169 O172 1.986 . S
Zn169 O174 1.996 1_554 S
Zn169 O177 1.943 . S
O170 Zn169 1.962 1_556 S
O170 C175 1.254 . S
O171 Zn168 2.031 . S
O171 C175 1.269 . S
O172 Zn169 1.986 . S
O172 C179 1.262 . S
O173 Zn168 2.049 . S
O173 C181 1.260 . S
O174 Zn169 1.996 1_556 S
O174 C181 1.257 . S
C175 O170 1.254 . S
C175 O171 1.269 . S
C176 O177 1.249 . S
C176 O178 1.270 . S
O177 Zn169 1.943 . S
O177 C176 1.249 . S
O178 Zn168 2.067 1_554 S
O178 C176 1.270 . S
C179 O172 1.262 . S
C179 O180 1.232 . S
O180 C179 1.232 . S
C181 O173 1.260 . S
C181 O174 1.257 . S
Zn182 O185 2.031 . S
Zn182 O187 2.049 . S
Zn182 O192 2.067 1_556 S
Zn183 O184 1.962 1_554 S
Zn183 O186 1.986 . S
Zn183 O188 1.996 1_554 S
Zn183 O191 1.943 . S
O184 Zn183 1.962 1_556 S
O184 C189 1.254 . S
O185 Zn182 2.031 . S
O185 C189 1.269 . S
O186 Zn183 1.986 . S
O186 C193 1.262 . S
O187 Zn182 2.049 . S
O187 C195 1.260 . S
O188 Zn183 1.996 1_556 S
O188 C195 1.257 . S
C189 O184 1.254 . S
C189 O185 1.269 . S
C190 O191 1.249 . S
C190 O192 1.270 . S
O191 Zn183 1.943 . S
O191 C190 1.249 . S
O192 Zn182 2.067 1_554 S
O192 C190 1.270 . S
C193 O186 1.262 . S
C193 O194 1.232 . S
O194 C193 1.232 . S
C195 O187 1.260 . S
C195 O188 1.257 . S
Zn196 O199 2.031 . S
Zn196 O201 2.049 . S
Zn196 O206 2.067 . S
Zn197 O198 1.962 . S
Zn197 O200 1.986 . S
Zn197 O202 1.996 . S
Zn197 O205 1.943 . S
O198 Zn197 1.962 . S
O198 C203 1.254 . S
O199 Zn196 2.031 . S
O199 C203 1.269 . S
O200 Zn197 1.986 . S
O200 C207 1.262 . S
O201 Zn196 2.049 . S
O201 C209 1.260 . S
O202 Zn197 1.996 . S
O202 C209 1.257 . S
C203 O198 1.254 . S
C203 O199 1.269 . S
C204 O205 1.249 . S
C204 O206 1.270 . S
O205 Zn197 1.943 . S
O205 C204 1.249 . S
O206 Zn196 2.067 . S
O206 C204 1.270 . S
C207 O200 1.262 . S
C207 O208 1.232 . S
O208 C207 1.232 . S
C209 O201 1.260 . S
C209 O202 1.257 . S
Zn210 O213 2.031 . S
Zn210 O215 2.049 . S
Zn210 O220 2.067 . S
Zn211 O212 1.962 . S
Zn211 O214 1.986 . S
Zn211 O216 1.996 . S
Zn211 O219 1.943 . S
O212 Zn211 1.962 . S
O212 C217 1.254 . S
O213 Zn210 2.031 . S
O213 C217 1.269 . S
O214 Zn211 1.986 . S
O214 C221 1.262 . S
O215 Zn210 2.049 . S
O215 C223 1.260 . S
O216 Zn211 1.996 . S
O216 C223 1.257 . S
C217 O212 1.254 . S
C217 O213 1.269 . S
C218 O219 1.249 . S
C218 O220 1.270 . S
O219 Zn211 1.943 . S
O219 C218 1.249 . S
O220 Zn210 2.067 . S
O220 C218 1.270 . S
C221 O214 1.262 . S
C221 O222 1.232 . S
O222 C221 1.232 . S
C223 O215 1.260 . S
C223 O216 1.257 . S
Zn224 O227 2.031 1_565 S
Zn224 O229 2.049 . S
Zn224 O234 2.067 . S
Zn225 O226 1.962 . S
Zn225 O228 1.986 . S
Zn225 O230 1.996 1_545 S
Zn225 O233 1.943 1_545 S
O226 Zn225 1.962 . S
O226 C231 1.254 . S
O227 Zn224 2.031 1_545 S
O227 C231 1.269 . S
O228 Zn225 1.986 . S
O228 C235 1.262 . S
O229 Zn224 2.049 . S
O229 C237 1.260 . S
O230 Zn225 1.996 1_565 S
O230 C237 1.257 . S
C231 O226 1.254 . S
C231 O227 1.269 . S
C232 O233 1.249 . S
C232 O234 1.270 . S
O233 Zn225 1.943 1_565 S
O233 C232 1.249 . S
O234 Zn224 2.067 . S
O234 C232 1.270 . S
C235 O228 1.262 . S
C235 O236 1.232 . S
O236 C235 1.232 . S
C237 O229 1.260 . S
C237 O230 1.257 . S
Zn238 O241 2.031 . S
Zn238 O243 2.049 . S
Zn238 O248 2.067 . S
Zn239 O240 1.962 . S
Zn239 O242 1.986 . S
Zn239 O244 1.996 . S
Zn239 O247 1.943 . S
O240 Zn239 1.962 . S
O240 C245 1.254 . S
O241 Zn238 2.031 . S
O241 C245 1.269 . S
O242 Zn239 1.986 . S
O242 C249 1.262 . S
O243 Zn238 2.049 . S
O243 C251 1.260 . S
O244 Zn239 1.996 . S
O244 C251 1.257 . S
C245 O240 1.254 . S
C245 O241 1.269 . S
C246 O247 1.249 . S
C246 O248 1.270 . S
O247 Zn239 1.943 . S
O247 C246 1.249 . S
O248 Zn238 2.067 . S
O248 C246 1.270 . S
C249 O242 1.262 . S
C249 O250 1.232 . S
O250 C249 1.232 . S
C251 O243 1.260 . S
C251 O244 1.257 . S
Zn252 O255 2.031 . S
Zn252 O257 2.049 . S
Zn252 O262 2.067 . S
Zn253 O254 1.962 . S
Zn253 O256 1.986 . S
Zn253 O258 1.996 . S
Zn253 O261 1.943 . S
O254 Zn253 1.962 . S
O254 C259 1.254 . S
O255 Zn252 2.031 . S
O255 C259 1.269 . S
O256 Zn253 1.986 . S
O256 C263 1.262 . S
O257 Zn252 2.049 . S
O257 C265 1.260 . S
O258 Zn253 1.996 . S
O258 C265 1.257 . S
C259 O254 1.254 . S
C259 O255 1.269 . S
C260 O261 1.249 . S
C260 O262 1.270 . S
O261 Zn253 1.943 . S
O261 C260 1.249 . S
O262 Zn252 2.067 . S
O262 C260 1.270 . S
C263 O256 1.262 . S
C263 O264 1.232 . S
O264 C263 1.232 . S
C265 O257 1.260 . S
C265 O258 1.257 . S
Zn266 O269 2.031 1_565 S
Zn266 O271 2.049 . S
Zn266 O276 2.067 . S
Zn267 O268 1.962 . S
Zn267 O270 1.986 . S
Zn267 O272 1.996 1_545 S
Zn267 O275 1.943 1_545 S
O268 Zn267 1.962 . S
O268 C273 1.254 . S
O269 Zn266 2.031 1_545 S
O269 C273 1.269 . S
O270 Zn267 1.986 . S
O270 C277 1.262 . S
O271 Zn266 2.049 . S
O271 C279 1.260 . S
O272 Zn267 1.996 1_565 S
O272 C279 1.257 . S
C273 O268 1.254 . S
C273 O269 1.269 . S
C274 O275 1.249 . S
C274 O276 1.270 . S
O275 Zn267 1.943 1_565 S
O275 C274 1.249 . S
O276 Zn266 2.067 . S
O276 C274 1.270 . S
C277 O270 1.262 . S
C277 O278 1.232 . S
O278 C277 1.232 . S
C279 O271 1.260 . S
C279 O272 1.257 . S
Zn280 O283 2.031 1_556 S
Zn280 O285 2.049 . S
Zn280 O290 2.067 . S
Zn281 O282 1.962 . S
Zn281 O284 1.986 . S
Zn281 O286 1.996 1_554 S
Zn281 O289 1.943 1_554 S
O282 Zn281 1.962 . S
O282 C287 1.254 . S
O283 Zn280 2.031 1_554 S
O283 C287 1.269 . S
O284 Zn281 1.986 . S
O284 C291 1.262 . S
O285 Zn280 2.049 . S
O285 C293 1.260 . S
O286 Zn281 1.996 1_556 S
O286 C293 1.257 . S
C287 O282 1.254 . S
C287 O283 1.269 . S
C288 O289 1.249 . S
C288 O290 1.270 . S
O289 Zn281 1.943 1_556 S
O289 C288 1.249 . S
O290 Zn280 2.067 . S
O290 C288 1.270 . S
C291 O284 1.262 . S
C291 O292 1.232 . S
O292 C291 1.232 . S
C293 O285 1.260 . S
C293 O286 1.257 . S
Zn294 O297 2.031 . S
Zn294 O299 2.049 . S
Zn294 O304 2.067 . S
Zn295 O296 1.962 . S
Zn295 O298 1.986 . S
Zn295 O300 1.996 . S
Zn295 O303 1.943 . S
O296 Zn295 1.962 . S
O296 C301 1.254 . S
O297 Zn294 2.031 . S
O297 C301 1.269 . S
O298 Zn295 1.986 . S
O298 C305 1.262 . S
O299 Zn294 2.049 . S
O299 C307 1.260 . S
O300 Zn295 1.996 . S
O300 C307 1.257 . S
C301 O296 1.254 . S
C301 O297 1.269 . S
C302 O303 1.249 . S
C302 O304 1.270 . S
O303 Zn295 1.943 . S
O303 C302 1.249 . S
O304 Zn294 2.067 . S
O304 C302 1.270 . S
C305 O298 1.262 . S
C305 O306 1.232 . S
O306 C305 1.232 . S
C307 O299 1.260 . S
C307 O300 1.257 . S
Zn308 O311 2.031 . S
Zn308 O313 2.049 . S
Zn308 O318 2.067 . S
Zn309 O310 1.962 . S
Zn309 O312 1.986 . S
Zn309 O314 1.996 . S
Zn309 O317 1.943 . S
O310 Zn309 1.962 . S
O310 C315 1.254 . S
O311 Zn308 2.031 . S
O311 C315 1.269 . S
O312 Zn309 1.986 . S
O312 C319 1.262 . S
O313 Zn308 2.049 . S
O313 C321 1.260 . S
O314 Zn309 1.996 . S
O314 C321 1.257 . S
C315 O310 1.254 . S
C315 O311 1.269 . S
C316 O317 1.249 . S
C316 O318 1.270 . S
O317 Zn309 1.943 . S
O317 C316 1.249 . S
O318 Zn308 2.067 . S
O318 C316 1.270 . S
C319 O312 1.262 . S
C319 O320 1.232 . S
O320 C319 1.232 . S
C321 O313 1.260 . S
C321 O314 1.257 . S
Zn322 O325 2.031 . S
Zn322 O327 2.049 . S
Zn322 O332 2.067 . S
Zn323 O324 1.962 . S
Zn323 O326 1.986 . S
Zn323 O328 1.996 . S
Zn323 O331 1.943 . S
O324 Zn323 1.962 . S
O324 C329 1.254 . S
O325 Zn322 2.031 . S
O325 C329 1.269 . S
O326 Zn323 1.986 . S
O326 C333 1.262 . S
O327 Zn322 2.049 . S
O327 C335 1.260 . S
O328 Zn323 1.996 . S
O328 C335 1.257 . S
C329 O324 1.254 . S
C329 O325 1.269 . S
C330 O331 1.249 . S
C330 O332 1.270 . S
O331 Zn323 1.943 . S
O331 C330 1.249 . S
O332 Zn322 2.067 . S
O332 C330 1.270 . S
C333 O326 1.262 . S
C333 O334 1.232 . S
O334 C333 1.232 . S
C335 O327 1.260 . S
C335 O328 1.257 . S
Fe336 O338 1.918 . S
Fe336 O341 1.997 . S
Fe336 O342 2.002 . S
Fe336 O347 1.976 . S
Fe336 O350 1.996 . S
Fe337 O338 1.918 . S
Fe337 O345 1.997 . S
Fe337 O348 1.996 . S
Fe337 O352 1.976 . S
Fe337 O355 2.002 . S
O338 Fe336 1.918 . S
O338 Fe337 1.918 . S
O338 Fe339 1.918 . S
Fe339 O338 1.918 . S
Fe339 O340 2.002 . S
Fe339 O349 1.976 . S
Fe339 O353 1.996 . S
Fe339 O356 1.997 . S
O340 Fe339 2.002 . S
O340 C357 1.302 . S
O341 Fe336 1.997 . S
O341 C357 1.236 . S
O342 Fe336 2.002 . S
O342 C343 1.295 . S
C343 O342 1.295 . S
C343 O345 1.235 . S
C344 O349 1.287 . S
C344 O350 1.255 . S
O345 Fe337 1.997 . S
O345 C343 1.235 . S
C346 O352 1.287 . S
C346 O353 1.255 . S
O347 Fe336 1.976 . S
O347 C354 1.287 . S
O348 Fe337 1.996 . S
O348 C354 1.255 . S
O349 Fe339 1.976 . S
O349 C344 1.287 . S
O350 Fe336 1.996 . S
O350 C344 1.255 . S
C351 O355 1.295 . S
C351 O356 1.235 . S
O352 Fe337 1.976 . S
O352 C346 1.287 . S
O353 Fe339 1.996 . S
O353 C346 1.255 . S
C354 O347 1.287 . S
C354 O348 1.255 . S
O355 Fe337 2.002 . S
O355 C351 1.295 . S
O356 Fe339 1.997 . S
O356 C351 1.235 . S
C357 O340 1.302 . S
C357 O341 1.236 . S
Fe358 O360 1.918 . S
Fe358 O363 1.997 . S
Fe358 O364 2.002 . S
Fe358 O369 1.976 . S
Fe358 O372 1.996 . S
Fe359 O360 1.918 . S
Fe359 O367 1.997 . S
Fe359 O370 1.996 . S
Fe359 O374 1.976 1_565 S
Fe359 O377 2.002 . S
O360 Fe358 1.918 . S
O360 Fe359 1.918 . S
O360 Fe361 1.918 . S
Fe361 O360 1.918 . S
Fe361 O362 2.002 . S
Fe361 O371 1.976 . S
Fe361 O375 1.996 . S
Fe361 O378 1.997 . S
O362 Fe361 2.002 . S
O362 C379 1.295 . S
O363 Fe358 1.997 . S
O363 C379 1.235 . S
O364 Fe358 2.002 . S
O364 C365 1.295 . S
C365 O364 1.295 . S
C365 O367 1.235 . S
C366 O371 1.287 . S
C366 O372 1.255 . S
O367 Fe359 1.997 . S
O367 C365 1.235 . S
C368 O374 1.287 . S
C368 O375 1.255 1_545 S
O369 Fe358 1.976 . S
O369 C376 1.287 . S
O370 Fe359 1.996 . S
O370 C376 1.255 . S
O371 Fe361 1.976 . S
O371 C366 1.287 . S
O372 Fe358 1.996 . S
O372 C366 1.255 . S
C373 O377 1.295 . S
C373 O378 1.235 . S
O374 Fe359 1.976 1_545 S
O374 C368 1.287 . S
O375 Fe361 1.996 . S
O375 C368 1.255 1_565 S
C376 O369 1.287 . S
C376 O370 1.255 . S
O377 Fe359 2.002 . S
O377 C373 1.295 . S
O378 Fe361 1.997 . S
O378 C373 1.235 . S
C379 O362 1.295 . S
C379 O363 1.235 . S
Fe380 O382 1.918 . S
Fe380 O385 1.997 . S
Fe380 O386 2.002 . S
Fe380 O391 1.976 1_565 S
Fe380 O394 1.996 . S
Fe381 O382 1.918 . S
Fe381 O389 1.997 . S
Fe381 O392 1.996 . S
Fe381 O396 1.976 . S
Fe381 O399 2.002 . S
O382 Fe380 1.918 . S
O382 Fe381 1.918 . S
O382 Fe383 1.918 . S
Fe383 O382 1.918 . S
Fe383 O384 2.002 . S
Fe383 O393 1.976 . S
Fe383 O397 1.996 . S
Fe383 O400 1.997 . S
O384 Fe383 2.002 . S
O384 C401 1.295 . S
O385 Fe380 1.997 . S
O385 C401 1.235 . S
O386 Fe380 2.002 . S
O386 C387 1.295 . S
C387 O386 1.295 . S
C387 O389 1.235 . S
C388 O393 1.287 . S
C388 O394 1.255 . S
O389 Fe381 1.997 . S
O389 C387 1.235 . S
C390 O396 1.287 . S
C390 O397 1.255 . S
O391 Fe380 1.976 1_545 S
O391 C398 1.287 . S
O392 Fe381 1.996 . S
O392 C398 1.255 1_565 S
O393 Fe383 1.976 . S
O393 C388 1.287 . S
O394 Fe380 1.996 . S
O394 C388 1.255 . S
C395 O399 1.295 . S
C395 O400 1.235 . S
O396 Fe381 1.976 . S
O396 C390 1.287 . S
O397 Fe383 1.996 . S
O397 C390 1.255 . S
C398 O391 1.287 . S
C398 O392 1.255 1_545 S
O399 Fe381 2.002 . S
O399 C395 1.295 . S
O400 Fe383 1.997 . S
O400 C395 1.235 . S
C401 O384 1.295 . S
C401 O385 1.235 . S
Fe402 O404 1.918 . S
Fe402 O407 1.997 . S
Fe402 O408 2.002 . S
Fe402 O413 1.976 . S
Fe402 O416 1.996 . S
Fe403 O404 1.918 . S
Fe403 O411 1.997 . S
Fe403 O414 1.996 . S
Fe403 O418 1.976 . S
Fe403 O421 2.002 . S
O404 Fe402 1.918 . S
O404 Fe403 1.918 . S
O404 Fe405 1.918 . S
Fe405 O404 1.918 . S
Fe405 O406 2.002 . S
Fe405 O415 1.976 1_556 S
Fe405 O419 1.996 . S
Fe405 O422 1.997 . S
O406 Fe405 2.002 . S
O406 C423 1.295 . S
O407 Fe402 1.997 . S
O407 C423 1.235 . S
O408 Fe402 2.002 . S
O408 C409 1.295 . S
C409 O408 1.295 . S
C409 O411 1.235 . S
C410 O415 1.287 . S
C410 O416 1.255 1_554 S
O411 Fe403 1.997 . S
O411 C409 1.235 . S
C412 O418 1.285 1_565 S
C412 O419 1.240 1_565 S
O413 Fe402 1.976 . S
O413 C420 1.287 . S
O414 Fe403 1.996 . S
O414 C420 1.255 . S
O415 Fe405 1.976 1_554 S
O415 C410 1.287 . S
O416 Fe402 1.996 . S
O416 C410 1.255 1_556 S
C417 O421 1.295 . S
C417 O422 1.235 . S
O418 Fe403 1.976 . S
O418 C412 1.285 1_545 S
O419 Fe405 1.996 . S
O419 C412 1.240 1_545 S
C420 O413 1.287 . S
C420 O414 1.255 . S
O421 Fe403 2.002 . S
O421 C417 1.295 . S
O422 Fe405 1.997 . S
O422 C417 1.235 . S
C423 O406 1.295 . S
C423 O407 1.235 . S
Fe424 O426 1.918 . S
Fe424 O429 1.997 . S
Fe424 O430 2.002 . S
Fe424 O435 1.976 . S
Fe424 O438 1.996 . S
Fe425 O426 1.918 . S
Fe425 O433 1.997 . S
Fe425 O436 1.996 . S
Fe425 O440 1.976 . S
Fe425 O443 2.002 . S
O426 Fe424 1.918 . S
O426 Fe425 1.918 . S
O426 Fe427 1.918 . S
Fe427 O426 1.918 . S
Fe427 O428 2.002 . S
Fe427 O437 1.976 1_556 S
Fe427 O441 1.996 . S
Fe427 O444 1.997 . S
O428 Fe427 2.002 . S
O428 C445 1.295 . S
O429 Fe424 1.997 . S
O429 C445 1.235 . S
O430 Fe424 2.002 . S
O430 C431 1.295 . S
C431 O430 1.295 . S
C431 O433 1.235 . S
C432 O437 1.287 . S
C432 O438 1.255 1_554 S
O433 Fe425 1.997 . S
O433 C431 1.235 . S
C434 O440 1.287 . S
C434 O441 1.255 . S
O435 Fe424 1.976 . S
O435 C442 1.287 . S
O436 Fe425 1.996 . S
O436 C442 1.255 . S
O437 Fe427 1.976 1_554 S
O437 C432 1.287 . S
O438 Fe424 1.996 . S
O438 C432 1.255 1_556 S
C439 O443 1.295 . S
C439 O444 1.235 . S
O440 Fe425 1.976 . S
O440 C434 1.287 . S
O441 Fe427 1.996 . S
O441 C434 1.255 . S
C442 O435 1.287 . S
C442 O436 1.255 . S
O443 Fe425 2.002 . S
O443 C439 1.295 . S
O444 Fe427 1.997 . S
O444 C439 1.235 . S
C445 O428 1.295 . S
C445 O429 1.235 . S
Fe446 O448 1.918 . S
Fe446 O451 1.997 . S
Fe446 O452 2.002 . S
Fe446 O457 1.976 . S
Fe446 O460 1.996 . S
Fe447 O448 1.918 . S
Fe447 O455 1.997 . S
Fe447 O458 1.996 . S
Fe447 O462 1.976 . S
Fe447 O465 2.002 . S
O448 Fe446 1.918 . S
O448 Fe447 1.918 . S
O448 Fe449 1.918 . S
Fe449 O448 1.918 . S
Fe449 O450 2.002 . S
Fe449 O459 1.976 . S
Fe449 O463 1.996 . S
Fe449 O466 1.997 1_655 S
O450 Fe449 2.002 . S
O450 C467 1.295 . S
O451 Fe446 1.997 . S
O451 C467 1.235 . S
O452 Fe446 2.002 . S
O452 C453 1.295 . S
C453 O452 1.295 . S
C453 O455 1.235 . S
C454 O459 1.287 . S
C454 O460 1.255 . S
O455 Fe447 1.997 . S
O455 C453 1.235 . S
C456 O462 1.287 . S
C456 O463 1.255 . S
O457 Fe446 1.976 . S
O457 C464 1.287 . S
O458 Fe447 1.996 . S
O458 C464 1.255 . S
O459 Fe449 1.976 . S
O459 C454 1.287 . S
O460 Fe446 1.996 . S
O460 C454 1.255 . S
C461 O465 1.295 1_455 S
C461 O466 1.235 . S
O462 Fe447 1.976 . S
O462 C456 1.287 . S
O463 Fe449 1.996 . S
O463 C456 1.255 . S
C464 O457 1.287 . S
C464 O458 1.255 . S
O465 Fe447 2.002 . S
O465 C461 1.295 1_655 S
O466 Fe449 1.997 1_455 S
O466 C461 1.235 . S
C467 O450 1.295 . S
C467 O451 1.235 . S
Fe468 O470 1.918 . S
Fe468 O473 1.997 . S
Fe468 O474 2.002 . S
Fe468 O479 1.976 . S
Fe468 O482 1.996 . S
Fe469 O470 1.918 . S
Fe469 O477 1.997 . S
Fe469 O480 1.996 . S
Fe469 O484 1.976 1_655 S
Fe469 O487 2.002 . S
O470 Fe468 1.918 . S
O470 Fe469 1.918 . S
O470 Fe471 1.918 . S
Fe471 O470 1.918 . S
Fe471 O472 2.002 . S
Fe471 O481 1.976 . S
Fe471 O485 1.996 . S
Fe471 O488 1.997 . S
O472 Fe471 2.002 . S
O472 C489 1.295 . S
O473 Fe468 1.997 . S
O473 C489 1.235 . S
O474 Fe468 2.002 . S
O474 C475 1.295 . S
C475 O474 1.295 . S
C475 O477 1.235 . S
C476 O481 1.287 . S
C476 O482 1.255 . S
O477 Fe469 1.997 . S
O477 C475 1.235 . S
C478 O484 1.287 . S
C478 O485 1.255 1_455 S
O479 Fe468 1.976 . S
O479 C486 1.287 . S
O480 Fe469 1.996 . S
O480 C486 1.255 . S
O481 Fe471 1.976 . S
O481 C476 1.287 . S
O482 Fe468 1.996 . S
O482 C476 1.255 . S
C483 O487 1.295 . S
C483 O488 1.235 . S
O484 Fe469 1.976 1_455 S
O484 C478 1.287 . S
O485 Fe471 1.996 . S
O485 C478 1.255 1_655 S
C486 O479 1.287 . S
C486 O480 1.255 . S
O487 Fe469 2.002 . S
O487 C483 1.295 . S
O488 Fe471 1.997 . S
O488 C483 1.235 . S
C489 O472 1.295 . S
C489 O473 1.235 . S
Fe490 O492 1.918 . S
Fe490 O495 1.997 1_655 S
Fe490 O496 2.002 . S
Fe490 O501 1.976 . S
Fe490 O504 1.996 . S
Fe491 O492 1.918 . S
Fe491 O499 1.997 1_556 S
Fe491 O502 1.996 . S
Fe491 O506 1.976 . S
Fe491 O509 2.002 . S
O492 Fe490 1.918 . S
O492 Fe491 1.918 . S
O492 Fe493 1.918 . S
Fe493 O492 1.918 . S
Fe493 O494 2.002 . S
Fe493 O503 1.976 . S
Fe493 O507 1.996 . S
Fe493 O510 1.997 1_565 S
O494 Fe493 2.002 . S
O494 C511 1.295 1_655 S
O495 Fe490 1.997 1_455 S
O495 C511 1.235 . S
O496 Fe490 2.002 . S
O496 C497 1.295 1_556 S
C497 O496 1.295 1_554 S
C497 O499 1.235 . S
C498 O503 1.287 . S
C498 O504 1.255 . S
O499 Fe491 1.997 1_554 S
O499 C497 1.235 . S
C500 O506 1.287 . S
C500 O507 1.255 . S
O501 Fe490 1.976 . S
O501 C508 1.287 . S
O502 Fe491 1.996 . S
O502 C508 1.255 . S
O503 Fe493 1.976 . S
O503 C498 1.287 . S
O504 Fe490 1.996 . S
O504 C498 1.255 . S
C505 O509 1.295 1_545 S
C505 O510 1.235 . S
O506 Fe491 1.976 . S
O506 C500 1.287 . S
O507 Fe493 1.996 . S
O507 C500 1.255 . S
C508 O501 1.287 . S
C508 O502 1.255 . S
O509 Fe491 2.002 . S
O509 C505 1.295 1_565 S
O510 Fe493 1.997 1_545 S
O510 C505 1.235 . S
C511 O494 1.295 1_455 S
C511 O495 1.235 . S
Fe512 O514 1.918 . S
Fe512 O517 1.997 . S
Fe512 O518 2.002 . S
Fe512 O523 1.976 . S
Fe512 O526 1.996 . S
Fe513 O514 1.918 . S
Fe513 O521 1.997 . S
Fe513 O524 1.996 . S
Fe513 O528 1.976 . S
Fe513 O531 2.002 . S
O514 Fe512 1.918 . S
O514 Fe513 1.918 . S
O514 Fe515 1.918 . S
Fe515 O514 1.918 . S
Fe515 O516 2.002 . S
Fe515 O525 1.976 1_655 S
Fe515 O529 1.996 . S
Fe515 O532 1.997 . S
O516 Fe515 2.002 . S
O516 C533 1.295 . S
O517 Fe512 1.997 . S
O517 C533 1.235 . S
O518 Fe512 2.002 . S
O518 C519 1.295 . S
C519 O518 1.295 . S
C519 O521 1.235 . S
C520 O525 1.287 . S
C520 O526 1.255 1_455 S
O521 Fe513 1.997 . S
O521 C519 1.235 . S
C522 O528 1.287 . S
C522 O529 1.255 . S
O523 Fe512 1.976 . S
O523 C530 1.287 . S
O524 Fe513 1.996 . S
O524 C530 1.255 . S
O525 Fe515 1.976 1_455 S
O525 C520 1.287 . S
O526 Fe512 1.996 . S
O526 C520 1.255 1_655 S
C527 O531 1.295 . S
C527 O532 1.235 . S
O528 Fe513 1.976 . S
O528 C522 1.287 . S
O529 Fe515 1.996 . S
O529 C522 1.255 . S
C530 O523 1.287 . S
C530 O524 1.255 . S
O531 Fe513 2.002 . S
O531 C527 1.295 . S
O532 Fe515 1.997 . S
O532 C527 1.235 . S
C533 O516 1.295 . S
C533 O517 1.235 . S
Fe534 O536 1.918 . S
Fe534 O539 1.997 . S
Fe534 O540 2.002 . S
Fe534 O545 1.976 1_545 S
Fe534 O548 1.996 . S
Fe535 O536 1.918 . S
Fe535 O543 1.997 . S
Fe535 O546 1.996 . S
Fe535 O550 1.976 . S
Fe535 O553 2.002 . S
O536 Fe534 1.918 . S
O536 Fe535 1.918 . S
O536 Fe537 1.918 . S
Fe537 O536 1.918 . S
Fe537 O538 2.002 . S
Fe537 O547 1.976 . S
Fe537 O551 1.996 . S
Fe537 O554 1.997 . S
O538 Fe537 2.002 . S
O538 C555 1.295 . S
O539 Fe534 1.997 . S
O539 C555 1.235 . S
O540 Fe534 2.002 . S
O540 C541 1.295 . S
C541 O540 1.295 . S
C541 O543 1.235 . S
C542 O547 1.287 . S
C542 O548 1.255 . S
O543 Fe535 1.997 . S
O543 C541 1.235 . S
C544 O550 1.287 . S
C544 O551 1.255 . S
O545 Fe534 1.976 1_565 S
O545 C552 1.287 . S
O546 Fe535 1.996 . S
O546 C552 1.255 1_545 S
O547 Fe537 1.976 . S
O547 C542 1.287 . S
O548 Fe534 1.996 . S
O548 C542 1.255 . S
C549 O553 1.295 . S
C549 O554 1.235 . S
O550 Fe535 1.976 . S
O550 C544 1.287 . S
O551 Fe537 1.996 . S
O551 C544 1.255 . S
C552 O545 1.287 . S
C552 O546 1.255 1_565 S
O553 Fe535 2.002 . S
O553 C549 1.295 . S
O554 Fe537 1.997 . S
O554 C549 1.235 . S
C555 O538 1.295 . S
C555 O539 1.235 . S
Fe556 O558 1.918 . S
Fe556 O561 1.997 . S
Fe556 O562 2.002 . S
Fe556 O567 1.976 . S
Fe556 O570 1.996 . S
Fe557 O558 1.918 . S
Fe557 O565 1.997 . S
Fe557 O568 1.996 . S
Fe557 O572 1.976 . S
Fe557 O575 2.002 . S
O558 Fe556 1.918 . S
O558 Fe557 1.918 . S
O558 Fe559 1.918 . S
Fe559 O558 1.918 . S
Fe559 O560 2.002 . S
Fe559 O569 1.976 . S
Fe559 O573 1.996 . S
Fe559 O576 1.997 1_565 S
O560 Fe559 2.002 . S
O560 C577 1.295 . S
O561 Fe556 1.997 . S
O561 C577 1.235 . S
O562 Fe556 2.002 . S
O562 C563 1.295 . S
C563 O562 1.295 . S
C563 O565 1.235 . S
C564 O569 1.287 . S
C564 O570 1.255 . S
O565 Fe557 1.997 . S
O565 C563 1.235 . S
C566 O572 1.287 . S
C566 O573 1.255 . S
O567 Fe556 1.976 . S
O567 C574 1.287 . S
O568 Fe557 1.996 . S
O568 C574 1.255 . S
O569 Fe559 1.976 . S
O569 C564 1.287 . S
O570 Fe556 1.996 . S
O570 C564 1.255 . S
C571 O575 1.295 1_545 S
C571 O576 1.235 . S
O572 Fe557 1.976 . S
O572 C566 1.287 . S
O573 Fe559 1.996 . S
O573 C566 1.255 . S
C574 O567 1.287 . S
C574 O568 1.255 . S
O575 Fe557 2.002 . S
O575 C571 1.295 1_565 S
O576 Fe559 1.997 1_545 S
O576 C571 1.235 . S
C577 O560 1.295 . S
C577 O561 1.235 . S
Fe578 O580 1.918 . S
Fe578 O583 1.997 . S
Fe578 O584 2.002 . S
Fe578 O589 1.976 . S
Fe578 O592 1.996 . S
Fe579 O580 1.918 . S
Fe579 O587 1.997 . S
Fe579 O590 1.996 . S
Fe579 O594 1.976 . S
Fe579 O597 2.002 . S
O580 Fe578 1.918 . S
O580 Fe579 1.918 . S
O580 Fe581 1.918 . S
Fe581 O580 1.918 . S
Fe581 O582 2.002 . S
Fe581 O591 1.976 . S
Fe581 O595 1.996 . S
Fe581 O598 1.997 . S
O582 Fe581 2.002 . S
O582 C599 1.295 . S
O583 Fe578 1.997 . S
O583 C599 1.235 . S
O584 Fe578 2.002 . S
O584 C585 1.295 . S
C585 O584 1.295 . S
C585 O587 1.235 . S
C586 O591 1.287 . S
C586 O592 1.255 . S
O587 Fe579 1.997 . S
O587 C585 1.235 . S
C588 O594 1.287 . S
C588 O595 1.255 . S
O589 Fe578 1.976 . S
O589 C596 1.287 . S
O590 Fe579 1.996 . S
O590 C596 1.255 . S
O591 Fe581 1.976 . S
O591 C586 1.287 . S
O592 Fe578 1.996 . S
O592 C586 1.255 . S
C593 O597 1.295 . S
C593 O598 1.235 . S
O594 Fe579 1.976 . S
O594 C588 1.287 . S
O595 Fe581 1.996 . S
O595 C588 1.255 . S
C596 O589 1.287 . S
C596 O590 1.255 . S
O597 Fe579 2.002 . S
O597 C593 1.295 . S
O598 Fe581 1.997 . S
O598 C593 1.235 . S
C599 O582 1.295 . S
C599 O583 1.235 . S
Fe600 O602 1.918 . S
Fe600 O605 1.997 . S
Fe600 O606 2.002 . S
Fe600 O611 1.976 . S
Fe600 O614 1.996 . S
Fe601 O602 1.918 . S
Fe601 O609 1.997 . S
Fe601 O612 1.996 . S
Fe601 O616 1.976 1_556 S
Fe601 O619 2.002 . S
O602 Fe600 1.918 . S
O602 Fe601 1.918 . S
O602 Fe603 1.918 . S
Fe603 O602 1.918 . S
Fe603 O604 2.002 . S
Fe603 O613 1.976 . S
Fe603 O617 1.996 . S
Fe603 O620 1.997 . S
O604 Fe603 2.002 . S
O604 C621 1.295 . S
O605 Fe600 1.997 . S
O605 C621 1.235 . S
O606 Fe600 2.002 . S
O606 C607 1.295 . S
C607 O606 1.295 . S
C607 O609 1.235 . S
C608 O613 1.287 . S
C608 O614 1.255 . S
O609 Fe601 1.997 . S
O609 C607 1.235 . S
C610 O616 1.287 . S
C610 O617 1.255 1_554 S
O611 Fe600 1.976 . S
O611 C618 1.287 . S
O612 Fe601 1.996 . S
O612 C618 1.255 . S
O613 Fe603 1.976 . S
O613 C608 1.287 . S
O614 Fe600 1.996 . S
O614 C608 1.255 . S
C615 O619 1.295 . S
C615 O620 1.235 . S
O616 Fe601 1.976 1_554 S
O616 C610 1.287 . S
O617 Fe603 1.996 . S
O617 C610 1.255 1_556 S
C618 O611 1.287 . S
C618 O612 1.255 . S
O619 Fe601 2.002 . S
O619 C615 1.295 . S
O620 Fe603 1.997 . S
O620 C615 1.235 . S
C621 O604 1.295 . S
C621 O605 1.235 . S
Fe622 O624 1.918 . S
Fe622 O627 1.997 . S
Fe622 O628 2.002 . S
Fe622 O633 1.976 . S
Fe622 O636 1.996 . S
Fe623 O624 1.918 . S
Fe623 O631 1.997 . S
Fe623 O634 1.996 . S
Fe623 O638 1.968 1_455 S
Fe623 O641 2.002 . S
O624 Fe622 1.918 . S
O624 Fe623 1.918 . S
O624 Fe625 1.918 . S
Fe625 O624 1.918 . S
Fe625 O626 2.002 . S
Fe625 O635 1.976 . S
Fe625 O639 1.996 . S
Fe625 O642 1.997 . S
O626 Fe625 2.002 . S
O626 C643 1.295 . S
O627 Fe622 1.997 . S
O627 C643 1.235 . S
O628 Fe622 2.002 . S
O628 C629 1.295 . S
C629 O628 1.295 . S
C629 O631 1.235 . S
C630 O635 1.287 . S
C630 O636 1.255 . S
O631 Fe623 1.997 . S
O631 C629 1.235 . S
C632 O638 1.288 . S
C632 O639 1.255 1_655 S
O633 Fe622 1.976 . S
O633 C640 1.287 . S
O634 Fe623 1.996 . S
O634 C640 1.255 . S
O635 Fe625 1.976 . S
O635 C630 1.287 . S
O636 Fe622 1.996 . S
O636 C630 1.255 . S
C637 O641 1.295 . S
C637 O642 1.235 . S
O638 Fe623 1.968 1_655 S
O638 C632 1.288 . S
O639 Fe625 1.996 . S
O639 C632 1.255 1_455 S
C640 O633 1.287 . S
C640 O634 1.255 . S
O641 Fe623 2.002 . S
O641 C637 1.295 . S
O642 Fe625 1.997 . S
O642 C637 1.235 . S
C643 O626 1.295 . S
C643 O627 1.235 . S
Fe644 O646 1.918 . S
Fe644 O649 1.997 . S
Fe644 O650 2.002 . S
Fe644 O655 1.976 . S
Fe644 O658 1.996 . S
Fe645 O646 1.918 . S
Fe645 O653 1.997 . S
Fe645 O656 1.996 . S
Fe645 O660 1.976 . S
Fe645 O663 2.002 . S
O646 Fe644 1.918 . S
O646 Fe645 1.918 . S
O646 Fe647 1.918 . S
Fe647 O646 1.918 . S
Fe647 O648 2.002 . S
Fe647 O657 1.976 . S
Fe647 O661 1.996 . S
Fe647 O664 1.997 . S
O648 Fe647 2.002 . S
O648 C665 1.295 . S
O649 Fe644 1.997 . S
O649 C665 1.235 . S
O650 Fe644 2.002 . S
O650 C651 1.295 . S
C651 O650 1.295 . S
C651 O653 1.235 . S
C652 O657 1.287 . S
C652 O658 1.255 . S
O653 Fe645 1.997 . S
O653 C651 1.235 . S
C654 O660 1.287 . S
C654 O661 1.255 . S
O655 Fe644 1.976 . S
O655 C662 1.287 . S
O656 Fe645 1.996 . S
O656 C662 1.255 . S
O657 Fe647 1.976 . S
O657 C652 1.287 . S
O658 Fe644 1.996 . S
O658 C652 1.255 . S
C659 O663 1.295 . S
C659 O664 1.235 . S
O660 Fe645 1.976 . S
O660 C654 1.287 . S
O661 Fe647 1.996 . S
O661 C654 1.255 . S
C662 O655 1.287 . S
C662 O656 1.255 . S
O663 Fe645 2.002 . S
O663 C659 1.295 . S
O664 Fe647 1.997 . S
O664 C659 1.235 . S
C665 O648 1.295 . S
C665 O649 1.235 . S
Fe666 O668 1.918 . S
Fe666 O671 1.997 . S
Fe666 O672 2.002 . S
Fe666 O677 1.976 . S
Fe666 O680 1.996 . S
Fe667 O668 1.918 . S
Fe667 O675 1.997 . S
Fe667 O678 1.996 . S
Fe667 O682 1.976 . S
Fe667 O685 2.002 . S
O668 Fe666 1.918 . S
O668 Fe667 1.918 . S
O668 Fe669 1.918 . S
Fe669 O668 1.918 . S
Fe669 O670 2.002 . S
Fe669 O679 1.976 . S
Fe669 O683 1.996 . S
Fe669 O686 1.997 . S
O670 Fe669 2.002 . S
O670 C687 1.295 . S
O671 Fe666 1.997 . S
O671 C687 1.235 . S
O672 Fe666 2.002 . S
O672 C673 1.295 . S
C673 O672 1.295 . S
C673 O675 1.235 . S
C674 O679 1.287 . S
C674 O680 1.255 . S
O675 Fe667 1.997 . S
O675 C673 1.235 . S
C676 O682 1.287 . S
C676 O683 1.255 . S
O677 Fe666 1.976 . S
O677 C684 1.287 . S
O678 Fe667 1.996 . S
O678 C684 1.255 . S
O679 Fe669 1.976 . S
O679 C674 1.287 . S
O680 Fe666 1.996 . S
O680 C674 1.255 . S
C681 O685 1.295 . S
C681 O686 1.235 . S
O682 Fe667 1.976 . S
O682 C676 1.287 . S
O683 Fe669 1.996 . S
O683 C676 1.255 . S
C684 O677 1.287 . S
C684 O678 1.255 . S
O685 Fe667 2.002 . S
O685 C681 1.295 . S
O686 Fe669 1.997 . S
O686 C681 1.235 . S
C687 O670 1.295 . S
C687 O671 1.235 . S
C354 C11 1.200 . S
C21 C366 1.188 . S
C401 C41 1.565 . S
C410 C50 1.363 . S
C365 C64 1.325 . S
C83 C390 1.521 . S
C409 C91 1.176 . S
C109 C351 1.227 1_556 S
C123 C344 1.226 . S
C368 C134 1.349 . S
C387 C147 1.210 . S
C412 C167 1.576 . S
C373 C125 1.542 . S
C398 C133 1.175 . S
C148 C417 1.335 . S
C357 C165 1.193 1_545 S
C179 C346 1.197 . S
C189 C445 1.178 . S
C461 C204 1.350 . S
C475 C223 1.533 . S
C235 C343 1.236 1_655 S
C246 C395 1.324 . S
C478 C203 1.212 . S
C442 C265 1.553 . S
C498 C27 1.511 . S
C522 C7 1.142 . S
C53 C555 1.161 . S
C36 C563 1.206 1_556 S
C106 C533 1.192 . S
C95 C544 1.182 . S
C564 C77 1.171 . S
C69 C497 1.565 . S
C279 C500 1.501 . S
C530 C218 1.181 1_545 S
C541 C231 1.131 . S
C571 C193 1.187 . S
C519 C277 1.174 . S
C552 C217 1.175 . S
C566 C232 1.158 . S
C195 C505 1.540 . S
C508 C293 1.538 . S
C161 C596 1.193 . S
C608 C302 1.200 1_455 S
C137 C629 1.177 . S
C511 C153 1.566 . S
C549 C316 1.162 . S
C632 C301 1.155 . S
C333 C599 1.188 . S
C39 C654 1.210 . S
C49 C432 1.176 . S
C456 C13 1.520 . S
C22 C486 1.334 . S
C92 C431 1.299 . S
C111 C467 1.566 1_556 S
C483 C63 1.212 . S
C665 C81 1.199 . S
C662 C305 1.193 . S
C434 C288 1.373 . S
C464 C329 1.215 . S
C321 C476 1.541 . S
C439 C307 1.543 . S
C287 C453 1.145 . S
C489 C330 1.264 . S
C319 C651 1.217 . S
C652 C221 1.197 . S
C245 C379 1.171 . S
C388 C274 1.307 . S
C181 C423 1.578 . S
C659 C263 1.213 . S
C454 C190 1.341 . S
C420 C273 1.185 . S
C376 C237 1.512 1_455 S
C55 C673 1.525 . S
C35 C585 1.162 1_556 S
C25 C621 1.180 . S
C640 C8 1.145 . S
C586 C78 1.160 . S
C67 C610 1.191 . S
C637 C105 1.192 . S
C97 C674 1.538 . S
C681 C209 1.563 . S
C176 C593 1.187 . S
C259 C607 1.158 . S
C630 C249 1.181 . S
C588 C207 1.169 . S
C175 C618 1.214 . S
C643 C260 1.181 . S
C676 C251 1.544 . S
C687 C139 1.524 . S
C527 C315 1.187 . S
C120 C542 1.175 . S
C291 C574 1.172 . S
C684 C335 1.512 . S
C615 C162 1.168 . S
C577 C119 1.146 . S
C520 C151 1.176 . S
