# Generated by pormake.
# Topology ibd, (4,6)-cn, num edge types: 1
# Building blocks:
#     Node 0, Type 0, BuildingBlock: QUQFOY_clean_sbu_3, # of connection points: 4
#     Node 1, Type 0, BuildingBlock: QUQFOY_clean_sbu_3, # of connection points: 4
#     Node 2, Type 0, BuildingBlock: QUQFOY_clean_sbu_3, # of connection points: 4
#     Node 3, Type 0, BuildingBlock: QUQFOY_clean_sbu_3, # of connection points: 4
#     Node 4, Type 0, BuildingBlock: QUQFOY_clean_sbu_3, # of connection points: 4
#     Node 5, Type 0, BuildingBlock: QUQFOY_clean_sbu_3, # of connection points: 4
#     Node 6, Type 0, BuildingBlock: QUQFOY_clean_sbu_3, # of connection points: 4
#     Node 7, Type 0, BuildingBlock: QUQFOY_clean_sbu_3, # of connection points: 4
#     Node 8, Type 0, BuildingBlock: QUQFOY_clean_sbu_3, # of connection points: 4
#     Node 9, Type 0, BuildingBlock: QUQFOY_clean_sbu_3, # of connection points: 4
#     Node 10, Type 0, BuildingBlock: QUQFOY_clean_sbu_3, # of connection points: 4
#     Node 11, Type 0, BuildingBlock: QUQFOY_clean_sbu_3, # of connection points: 4
#     Node 12, Type 0, BuildingBlock: QUQFOY_clean_sbu_3, # of connection points: 4
#     Node 13, Type 0, BuildingBlock: QUQFOY_clean_sbu_3, # of connection points: 4
#     Node 14, Type 0, BuildingBlock: QUQFOY_clean_sbu_3, # of connection points: 4
#     Node 15, Type 0, BuildingBlock: QUQFOY_clean_sbu_3, # of connection points: 4
#     Node 16, Type 0, BuildingBlock: QUQFOY_clean_sbu_3, # of connection points: 4
#     Node 17, Type 0, BuildingBlock: QUQFOY_clean_sbu_3, # of connection points: 4
#     Node 18, Type 0, BuildingBlock: QUQFOY_clean_sbu_3, # of connection points: 4
#     Node 19, Type 0, BuildingBlock: QUQFOY_clean_sbu_3, # of connection points: 4
#     Node 20, Type 0, BuildingBlock: QUQFOY_clean_sbu_3, # of connection points: 4
#     Node 21, Type 0, BuildingBlock: QUQFOY_clean_sbu_3, # of connection points: 4
#     Node 22, Type 0, BuildingBlock: QUQFOY_clean_sbu_3, # of connection points: 4
#     Node 23, Type 0, BuildingBlock: QUQFOY_clean_sbu_3, # of connection points: 4
#     Node 24, Type 1, BuildingBlock: CIFDUS_clean_sbu_1, # of connection points: 6
#     Node 25, Type 1, BuildingBlock: CIFDUS_clean_sbu_1, # of connection points: 6
#     Node 26, Type 1, BuildingBlock: CIFDUS_clean_sbu_1, # of connection points: 6
#     Node 27, Type 1, BuildingBlock: CIFDUS_clean_sbu_1, # of connection points: 6
#     Node 28, Type 1, BuildingBlock: CIFDUS_clean_sbu_1, # of connection points: 6
#     Node 29, Type 1, BuildingBlock: CIFDUS_clean_sbu_1, # of connection points: 6
#     Node 30, Type 1, BuildingBlock: CIFDUS_clean_sbu_1, # of connection points: 6
#     Node 31, Type 1, BuildingBlock: CIFDUS_clean_sbu_1, # of connection points: 6
#     Node 32, Type 1, BuildingBlock: CIFDUS_clean_sbu_1, # of connection points: 6
#     Node 33, Type 1, BuildingBlock: CIFDUS_clean_sbu_1, # of connection points: 6
#     Node 34, Type 1, BuildingBlock: CIFDUS_clean_sbu_1, # of connection points: 6
#     Node 35, Type 1, BuildingBlock: CIFDUS_clean_sbu_1, # of connection points: 6
#     Node 36, Type 1, BuildingBlock: CIFDUS_clean_sbu_1, # of connection points: 6
#     Node 37, Type 1, BuildingBlock: CIFDUS_clean_sbu_1, # of connection points: 6
#     Node 38, Type 1, BuildingBlock: CIFDUS_clean_sbu_1, # of connection points: 6
#     Node 39, Type 1, BuildingBlock: CIFDUS_clean_sbu_1, # of connection points: 6
#     Edge 40, Type (0, 1), BuildingBlock: OJICUG_clean_linker_0, # of connection points: 2
#     Edge 41, Type (0, 1), BuildingBlock: OJICUG_clean_linker_0, # of connection points: 2
#     Edge 42, Type (0, 1), BuildingBlock: OJICUG_clean_linker_0, # of connection points: 2
#     Edge 43, Type (0, 1), BuildingBlock: OJICUG_clean_linker_0, # of connection points: 2
#     Edge 44, Type (0, 1), BuildingBlock: OJICUG_clean_linker_0, # of connection points: 2
#     Edge 45, Type (0, 1), BuildingBlock: OJICUG_clean_linker_0, # of connection points: 2
#     Edge 46, Type (0, 1), BuildingBlock: OJICUG_clean_linker_0, # of connection points: 2
#     Edge 47, Type (0, 1), BuildingBlock: OJICUG_clean_linker_0, # of connection points: 2
#     Edge 48, Type (0, 1), BuildingBlock: OJICUG_clean_linker_0, # of connection points: 2
#     Edge 49, Type (0, 1), BuildingBlock: OJICUG_clean_linker_0, # of connection points: 2
#     Edge 50, Type (0, 1), BuildingBlock: OJICUG_clean_linker_0, # of connection points: 2
#     Edge 51, Type (0, 1), BuildingBlock: OJICUG_clean_linker_0, # of connection points: 2
#     Edge 52, Type (0, 1), BuildingBlock: OJICUG_clean_linker_0, # of connection points: 2
#     Edge 53, Type (0, 1), BuildingBlock: OJICUG_clean_linker_0, # of connection points: 2
#     Edge 54, Type (0, 1), BuildingBlock: OJICUG_clean_linker_0, # of connection points: 2
#     Edge 55, Type (0, 1), BuildingBlock: OJICUG_clean_linker_0, # of connection points: 2
#     Edge 56, Type (0, 1), BuildingBlock: OJICUG_clean_linker_0, # of connection points: 2
#     Edge 57, Type (0, 1), BuildingBlock: OJICUG_clean_linker_0, # of connection points: 2
#     Edge 58, Type (0, 1), BuildingBlock: OJICUG_clean_linker_0, # of connection points: 2
#     Edge 59, Type (0, 1), BuildingBlock: OJICUG_clean_linker_0, # of connection points: 2
#     Edge 60, Type (0, 1), BuildingBlock: OJICUG_clean_linker_0, # of connection points: 2
#     Edge 61, Type (0, 1), BuildingBlock: OJICUG_clean_linker_0, # of connection points: 2
#     Edge 62, Type (0, 1), BuildingBlock: OJICUG_clean_linker_0, # of connection points: 2
#     Edge 63, Type (0, 1), BuildingBlock: OJICUG_clean_linker_0, # of connection points: 2
#     Edge 64, Type (0, 1), BuildingBlock: OJICUG_clean_linker_0, # of connection points: 2
#     Edge 65, Type (0, 1), BuildingBlock: OJICUG_clean_linker_0, # of connection points: 2
#     Edge 66, Type (0, 1), BuildingBlock: OJICUG_clean_linker_0, # of connection points: 2
#     Edge 67, Type (0, 1), BuildingBlock: OJICUG_clean_linker_0, # of connection points: 2
#     Edge 68, Type (0, 1), BuildingBlock: OJICUG_clean_linker_0, # of connection points: 2
#     Edge 69, Type (0, 1), BuildingBlock: OJICUG_clean_linker_0, # of connection points: 2
#     Edge 70, Type (0, 1), BuildingBlock: OJICUG_clean_linker_0, # of connection points: 2
#     Edge 71, Type (0, 1), BuildingBlock: OJICUG_clean_linker_0, # of connection points: 2
#     Edge 72, Type (0, 1), BuildingBlock: OJICUG_clean_linker_0, # of connection points: 2
#     Edge 73, Type (0, 1), BuildingBlock: OJICUG_clean_linker_0, # of connection points: 2
#     Edge 74, Type (0, 1), BuildingBlock: OJICUG_clean_linker_0, # of connection points: 2
#     Edge 75, Type (0, 1), BuildingBlock: OJICUG_clean_linker_0, # of connection points: 2
#     Edge 76, Type (0, 1), BuildingBlock: OJICUG_clean_linker_0, # of connection points: 2
#     Edge 77, Type (0, 1), BuildingBlock: OJICUG_clean_linker_0, # of connection points: 2
#     Edge 78, Type (0, 1), BuildingBlock: OJICUG_clean_linker_0, # of connection points: 2
#     Edge 79, Type (0, 1), BuildingBlock: OJICUG_clean_linker_0, # of connection points: 2
#     Edge 80, Type (0, 1), BuildingBlock: OJICUG_clean_linker_0, # of connection points: 2
#     Edge 81, Type (0, 1), BuildingBlock: OJICUG_clean_linker_0, # of connection points: 2
#     Edge 82, Type (0, 1), BuildingBlock: OJICUG_clean_linker_0, # of connection points: 2
#     Edge 83, Type (0, 1), BuildingBlock: OJICUG_clean_linker_0, # of connection points: 2
#     Edge 84, Type (0, 1), BuildingBlock: OJICUG_clean_linker_0, # of connection points: 2
#     Edge 85, Type (0, 1), BuildingBlock: OJICUG_clean_linker_0, # of connection points: 2
#     Edge 86, Type (0, 1), BuildingBlock: OJICUG_clean_linker_0, # of connection points: 2
#     Edge 87, Type (0, 1), BuildingBlock: OJICUG_clean_linker_0, # of connection points: 2
#     Edge 88, Type (0, 1), BuildingBlock: OJICUG_clean_linker_0, # of connection points: 2
#     Edge 89, Type (0, 1), BuildingBlock: OJICUG_clean_linker_0, # of connection points: 2
#     Edge 90, Type (0, 1), BuildingBlock: OJICUG_clean_linker_0, # of connection points: 2
#     Edge 91, Type (0, 1), BuildingBlock: OJICUG_clean_linker_0, # of connection points: 2
#     Edge 92, Type (0, 1), BuildingBlock: OJICUG_clean_linker_0, # of connection points: 2
#     Edge 93, Type (0, 1), BuildingBlock: OJICUG_clean_linker_0, # of connection points: 2
#     Edge 94, Type (0, 1), BuildingBlock: OJICUG_clean_linker_0, # of connection points: 2
#     Edge 95, Type (0, 1), BuildingBlock: OJICUG_clean_linker_0, # of connection points: 2
#     Edge 96, Type (0, 1), BuildingBlock: OJICUG_clean_linker_0, # of connection points: 2
#     Edge 97, Type (0, 1), BuildingBlock: OJICUG_clean_linker_0, # of connection points: 2
#     Edge 98, Type (0, 1), BuildingBlock: OJICUG_clean_linker_0, # of connection points: 2
#     Edge 99, Type (0, 1), BuildingBlock: OJICUG_clean_linker_0, # of connection points: 2
#     Edge 100, Type (0, 1), BuildingBlock: OJICUG_clean_linker_0, # of connection points: 2
#     Edge 101, Type (0, 1), BuildingBlock: OJICUG_clean_linker_0, # of connection points: 2
#     Edge 102, Type (0, 1), BuildingBlock: OJICUG_clean_linker_0, # of connection points: 2
#     Edge 103, Type (0, 1), BuildingBlock: OJICUG_clean_linker_0, # of connection points: 2
#     Edge 104, Type (0, 1), BuildingBlock: OJICUG_clean_linker_0, # of connection points: 2
#     Edge 105, Type (0, 1), BuildingBlock: OJICUG_clean_linker_0, # of connection points: 2
#     Edge 106, Type (0, 1), BuildingBlock: OJICUG_clean_linker_0, # of connection points: 2
#     Edge 107, Type (0, 1), BuildingBlock: OJICUG_clean_linker_0, # of connection points: 2
#     Edge 108, Type (0, 1), BuildingBlock: OJICUG_clean_linker_0, # of connection points: 2
#     Edge 109, Type (0, 1), BuildingBlock: OJICUG_clean_linker_0, # of connection points: 2
#     Edge 110, Type (0, 1), BuildingBlock: OJICUG_clean_linker_0, # of connection points: 2
#     Edge 111, Type (0, 1), BuildingBlock: OJICUG_clean_linker_0, # of connection points: 2
#     Edge 112, Type (0, 1), BuildingBlock: OJICUG_clean_linker_0, # of connection points: 2
#     Edge 113, Type (0, 1), BuildingBlock: OJICUG_clean_linker_0, # of connection points: 2
#     Edge 114, Type (0, 1), BuildingBlock: OJICUG_clean_linker_0, # of connection points: 2
#     Edge 115, Type (0, 1), BuildingBlock: OJICUG_clean_linker_0, # of connection points: 2
#     Edge 116, Type (0, 1), BuildingBlock: OJICUG_clean_linker_0, # of connection points: 2
#     Edge 117, Type (0, 1), BuildingBlock: OJICUG_clean_linker_0, # of connection points: 2
#     Edge 118, Type (0, 1), BuildingBlock: OJICUG_clean_linker_0, # of connection points: 2
#     Edge 119, Type (0, 1), BuildingBlock: OJICUG_clean_linker_0, # of connection points: 2
#     Edge 120, Type (0, 1), BuildingBlock: OJICUG_clean_linker_0, # of connection points: 2
#     Edge 121, Type (0, 1), BuildingBlock: OJICUG_clean_linker_0, # of connection points: 2
#     Edge 122, Type (0, 1), BuildingBlock: OJICUG_clean_linker_0, # of connection points: 2
#     Edge 123, Type (0, 1), BuildingBlock: OJICUG_clean_linker_0, # of connection points: 2
#     Edge 124, Type (0, 1), BuildingBlock: OJICUG_clean_linker_0, # of connection points: 2
#     Edge 125, Type (0, 1), BuildingBlock: OJICUG_clean_linker_0, # of connection points: 2
#     Edge 126, Type (0, 1), BuildingBlock: OJICUG_clean_linker_0, # of connection points: 2
#     Edge 127, Type (0, 1), BuildingBlock: OJICUG_clean_linker_0, # of connection points: 2
#     Edge 128, Type (0, 1), BuildingBlock: OJICUG_clean_linker_0, # of connection points: 2
#     Edge 129, Type (0, 1), BuildingBlock: OJICUG_clean_linker_0, # of connection points: 2
#     Edge 130, Type (0, 1), BuildingBlock: OJICUG_clean_linker_0, # of connection points: 2
#     Edge 131, Type (0, 1), BuildingBlock: OJICUG_clean_linker_0, # of connection points: 2
#     Edge 132, Type (0, 1), BuildingBlock: OJICUG_clean_linker_0, # of connection points: 2
#     Edge 133, Type (0, 1), BuildingBlock: OJICUG_clean_linker_0, # of connection points: 2
#     Edge 134, Type (0, 1), BuildingBlock: OJICUG_clean_linker_0, # of connection points: 2
#     Edge 135, Type (0, 1), BuildingBlock: OJICUG_clean_linker_0, # of connection points: 2
# Relax obj value: 0.356
# Max RMSD: 0.309
# Mean RMSD: 0.279
data_MOF--net-ibd--node1-QUQFOY_clean_sbu_3--node2-CIFDUS_clean_sbu_1--edge1-OJICUG_clean_linker_0
_symmetry_space_group_name_H-M    P1
_symmetry_Int_Tables_number       1
_symmetry_cell_setting            triclinic
loop_
_symmetry_equiv_pos_as_xyz
'x, y, z'
_cell_length_a     34.794131
_cell_length_b     35.722581
_cell_length_c     36.335695
_cell_angle_alpha  90.862044
_cell_angle_beta   89.36687
_cell_angle_gamma 94.153684
loop_
_atom_site_label
_atom_site_type_symbol
_atom_site_fract_x
_atom_site_fract_y
_atom_site_fract_z
_atom_type_partial_charge
C0 C 0.94656 0.32971 0.43416 0.0
O1 O 0.9328 0.36162 0.43638 0.0
Cd2 Cd 0.94469 0.41024 0.39125 0.0
O3 O 0.96879 0.3217 0.40748 0.0
Cd4 Cd 0.00206 0.35946 0.35825 0.0
C5 C 0.03051 0.42407 0.42564 0.0
O6 O 0.94671 0.3839 0.32913 0.0
O7 O 0.00272 0.4064 0.31004 0.0
O8 O 0.01135 0.30317 0.3199 0.0
C9 C 0.96683 0.40095 0.30431 0.0
O10 O 0.00132 0.44218 0.41898 0.0
C11 C 0.04766 0.30979 0.31715 0.0
O12 O 0.03561 0.39371 0.40814 0.0
O13 O 0.06241 0.33824 0.3347 0.0
C14 C 0.00278 0.853 0.59696 0.0
O15 O 0.96865 0.86287 0.59416 0.0
Cd16 Cd 0.91605 0.83975 0.63267 0.0
O17 O 0.01138 0.83096 0.62222 0.0
Cd18 Cd 0.971 0.79479 0.66734 0.0
C19 C 0.92502 0.75653 0.59338 0.0
O20 O 0.932 0.84003 0.69792 0.0
O21 O 0.91455 0.78119 0.70583 0.0
O22 O 0.02639 0.79956 0.70738 0.0
C23 C 0.9145 0.81482 0.71756 0.0
O24 O 0.90152 0.78196 0.59759 0.0
C25 C 0.02171 0.76545 0.71694 0.0
O26 O 0.95347 0.7554 0.61477 0.0
O27 O 0.99556 0.74472 0.70105 0.0
C28 C 0.43791 0.84768 0.92414 0.0
O29 O 0.42617 0.88047 0.92559 0.0
Cd30 Cd 0.44863 0.92532 0.87977 0.0
O31 O 0.46038 0.83812 0.89828 0.0
Cd32 Cd 0.49644 0.86419 0.84478 0.0
C33 C 0.53887 0.92001 0.9099 0.0
O34 O 0.44662 0.89869 0.81848 0.0
O35 O 0.50501 0.91437 0.80041 0.0
O36 O 0.48522 0.80172 0.81555 0.0
C37 C 0.46912 0.91419 0.7945 0.0
O38 O 0.512 0.94157 0.90442 0.0
C39 C 0.51794 0.80251 0.7996 0.0
O40 O 0.53977 0.88889 0.89253 0.0
O41 O 0.54121 0.83083 0.8062 0.0
C42 C 0.52328 0.3615 0.09947 0.0
O43 O 0.50082 0.38597 0.11017 0.0
Cd44 Cd 0.44004 0.36479 0.13412 0.0
O45 O 0.51726 0.3274 0.1091 0.0
Cd46 Cd 0.47159 0.29427 0.15391 0.0
C47 C 0.41916 0.28896 0.07758 0.0
O48 O 0.45346 0.34359 0.19528 0.0
O49 O 0.41439 0.29358 0.19355 0.0
O50 O 0.52102 0.27886 0.19612 0.0
C51 C 0.42767 0.32255 0.21121 0.0
O52 O 0.41636 0.32397 0.0824 0.0
C53 C 0.51158 0.2439 0.19633 0.0
O54 O 0.43605 0.27008 0.10106 0.0
O55 O 0.48584 0.23148 0.17382 0.0
C56 C 0.98633 0.73278 0.1826 0.0
O57 O 0.95519 0.73827 0.16653 0.0
Cd58 Cd 0.96487 0.80351 0.15225 0.0
O59 O 0.01683 0.75204 0.17324 0.0
Cd60 Cd 0.03161 0.78911 0.11672 0.0
C61 C 0.04821 0.83154 0.19818 0.0
O62 O 0.97304 0.81158 0.08751 0.0
O63 O 0.02704 0.8461 0.08291 0.0
O64 O 0.02821 0.72967 0.08427 0.0
C65 C 0.99266 0.83855 0.07212 0.0
O66 O 0.01154 0.82968 0.19807 0.0
C67 C 0.05784 0.73641 0.06405 0.0
O68 O 0.06657 0.82027 0.16985 0.0
O69 O 0.07802 0.76708 0.07008 0.0
C70 C 0.60465 0.84988 0.31907 0.0
O71 O 0.59319 0.88034 0.33217 0.0
Cd72 Cd 0.53254 0.87779 0.36254 0.0
O73 O 0.5936 0.81867 0.33364 0.0
Cd74 Cd 0.55315 0.7966 0.38693 0.0
C75 C 0.49729 0.79895 0.3122 0.0
O76 O 0.53787 0.85185 0.42089 0.0
O77 O 0.49384 0.8057 0.4219 0.0
O78 O 0.60104 0.78485 0.43337 0.0
C79 C 0.50619 0.83782 0.43401 0.0
O80 O 0.49873 0.83391 0.32009 0.0
C81 C 0.58961 0.75053 0.43719 0.0
O82 O 0.51475 0.77628 0.3319 0.0
O83 O 0.56438 0.73667 0.41468 0.0
C84 C 0.48107 0.26924 0.68146 0.0
O85 O 0.46188 0.29806 0.67998 0.0
Cd86 Cd 0.47932 0.35322 0.6462 0.0
O87 O 0.51012 0.26526 0.66055 0.0
Cd88 Cd 0.54365 0.3033 0.61165 0.0
C89 C 0.56565 0.3558 0.68968 0.0
O90 O 0.49263 0.33577 0.58449 0.0
O91 O 0.55121 0.35941 0.57511 0.0
O92 O 0.52944 0.25381 0.56805 0.0
C93 C 0.51588 0.35752 0.56621 0.0
O94 O 0.53423 0.37087 0.68413 0.0
C95 C 0.56303 0.25269 0.55427 0.0
O96 O 0.57683 0.33016 0.66786 0.0
O97 O 0.59033 0.27191 0.57057 0.0
C98 C 0.11297 0.34574 0.82753 0.0
O99 O 0.11187 0.37809 0.84235 0.0
Cd100 Cd 0.04994 0.38257 0.87022 0.0
O101 O 0.09966 0.31727 0.8454 0.0
Cd102 Cd 0.06434 0.30146 0.90249 0.0
C103 C 0.01436 0.30202 0.82246 0.0
O104 O 0.04898 0.35982 0.93118 0.0
O105 O 0.00513 0.31333 0.93471 0.0
O106 O 0.11461 0.29265 0.94793 0.0
C107 C 0.01683 0.3466 0.94422 0.0
O108 O 0.01755 0.33741 0.82809 0.0
C109 C 0.1031 0.25879 0.95461 0.0
O110 O 0.02788 0.27971 0.8456 0.0
O111 O 0.07614 0.24379 0.93457 0.0
C112 C 0.4191 0.90033 0.17168 0.0
O113 O 0.40165 0.88252 0.19752 0.0
Cd114 Cd 0.3688 0.91486 0.24449 0.0
O115 O 0.41185 0.9342 0.16523 0.0
Cd116 Cd 0.37045 0.98236 0.19269 0.0
C117 C 0.43955 0.98767 0.25536 0.0
O118 O 0.3179 0.95091 0.22596 0.0
O119 O 0.3451 0.00131 0.25131 0.0
O120 O 0.32006 -0.00165 0.15081 0.0
C121 C 0.31608 0.97781 0.24911 0.0
O122 O 0.42138 0.95778 0.26694 0.0
C123 C 0.32911 0.03343 0.15257 0.0
O124 O 0.42867 0.00371 0.22651 0.0
O125 O 0.36192 0.04354 0.16612 0.0
C126 C 0.28924 0.11854 0.60279 0.0
O127 O 0.32225 0.1323 0.61228 0.0
Cd128 Cd 0.35412 0.14022 0.55445 0.0
O129 O 0.27544 0.12995 0.5729 0.0
Cd130 Cd 0.29661 0.18076 0.5278 0.0
C131 C 0.29405 0.09706 0.48807 0.0
O132 O 0.35809 0.20765 0.54992 0.0
O133 O 0.35191 0.20642 0.49108 0.0
O134 O 0.26489 0.23169 0.55711 0.0
C135 C 0.36771 0.22208 0.51927 0.0
O136 O 0.3198 0.09261 0.51199 0.0
C137 C 0.24673 0.241 0.52896 0.0
O138 O 0.28149 0.12937 0.48434 0.0
O139 O 0.24922 0.22044 0.50031 0.0
C140 C 0.16081 0.96891 0.71943 0.0
O141 O 0.14131 0.94401 0.73762 0.0
Cd142 Cd 0.10992 0.9666 0.78962 0.0
O143 O 0.15483 0.00366 0.7237 0.0
Cd144 Cd 0.10596 0.04112 0.75777 0.0
C145 C 0.17733 0.03644 0.81559 0.0
O146 O 0.0545 0.99105 0.76064 0.0
O147 O 0.04883 0.03885 0.79685 0.0
O148 O 0.09188 0.07521 0.70273 0.0
C149 C 0.03295 0.01038 0.78041 0.0
O150 O 0.1687 0.0013 0.81448 0.0
C151 C 0.08404 0.10488 0.7202 0.0
O152 O 0.15573 0.05884 0.80078 0.0
O153 O 0.08938 0.10589 0.75461 0.0
C154 C 0.31151 0.86048 0.99231 0.0
O155 O 0.30533 0.85211 0.9587 0.0
Cd156 Cd 0.26485 0.88662 0.92015 0.0
O157 O 0.29383 0.88629 0.00834 0.0
Cd158 Cd 0.23891 0.92139 0.99123 0.0
C159 C 0.19014 0.84259 0.95866 0.0
O160 O 0.27206 0.95102 0.93957 0.0
O161 O 0.2133 0.96557 0.94777 0.0
O162 O 0.25359 0.96728 0.04042 0.0
C163 C 0.24616 0.97318 0.93321 0.0
O164 O 0.20228 0.85301 0.92708 0.0
C165 C 0.21872 0.96773 0.0512 0.0
O166 O 0.20187 0.86043 0.98732 0.0
O167 O 0.19443 0.94398 0.03645 0.0
C168 C 0.28335 0.36202 0.06559 0.0
O169 O 0.31619 0.37691 0.0746 0.0
Cd170 Cd 0.34966 0.42187 0.03667 0.0
O171 O 0.26542 0.37451 0.03851 0.0
Cd172 Cd 0.2781 0.4259 0.99379 0.0
C173 C 0.34121 0.36726 0.95962 0.0
O174 O 0.30872 0.47443 0.03324 0.0
O175 O 0.31786 0.48233 0.97493 0.0
O176 O 0.21207 0.44371 0.00024 0.0
C177 C 0.31757 0.49663 0.0071 0.0
O178 O 0.36377 0.37888 0.98526 0.0
C179 C 0.20763 0.44755 0.96587 0.0
O180 O 0.30841 0.38008 0.95632 0.0
O181 O 0.23467 0.43796 0.9448 0.0
C182 C 0.71732 0.14308 0.06172 0.0
O183 O 0.73775 0.16737 0.08019 0.0
Cd184 Cd 0.77415 0.20932 0.04065 0.0
O185 O 0.70779 0.14966 0.02889 0.0
Cd186 Cd 0.71089 0.19573 0.97982 0.0
C187 C 0.77763 0.13669 0.97386 0.0
O188 O 0.736 0.2511 0.00987 0.0
O189 O 0.7581 0.2438 0.95456 0.0
O190 O 0.64755 0.21555 0.99277 0.0
C191 C 0.75385 0.26531 0.98228 0.0
O192 O 0.79058 0.15786 0.00015 0.0
C193 C 0.6415 0.22265 0.95921 0.0
O194 O 0.74646 0.14322 0.95773 0.0
O195 O 0.66193 0.20613 0.93541 0.0
C196 C 0.22036 0.55965 0.21166 0.0
O197 O 0.21352 0.52903 0.19399 0.0
Cd198 Cd 0.16459 0.48476 0.21335 0.0
O199 O 0.197 0.57011 0.23679 0.0
Cd200 Cd 0.13369 0.54612 0.26699 0.0
C201 C 0.19443 0.4894 0.30374 0.0
O202 O 0.10716 0.51771 0.21218 0.0
O203 O 0.07938 0.49735 0.26217 0.0
O204 O 0.09111 0.59907 0.26585 0.0
C205 C 0.07781 0.50154 0.2276 0.0
O206 O 0.19521 0.47474 0.27169 0.0
C207 C 0.08468 0.59866 0.30034 0.0
O208 O 0.17208 0.51502 0.3115 0.0
O209 O 0.10475 0.57776 0.31911 0.0
C210 C 0.74809 0.84268 0.59447 0.0
O211 O 0.78123 0.85143 0.60763 0.0
Cd212 Cd 0.82512 0.89663 0.57779 0.0
O213 O 0.73603 0.86104 0.56771 0.0
Cd214 Cd 0.76586 0.91368 0.53086 0.0
C215 C 0.82355 0.84792 0.49923 0.0
O216 O 0.79843 0.95846 0.57404 0.0
O217 O 0.81647 0.96242 0.51706 0.0
O218 O 0.70553 0.9437 0.52974 0.0
C219 C 0.81292 0.97865 0.54812 0.0
O220 O 0.84673 0.85882 0.52468 0.0
C221 C 0.70832 0.95093 0.49562 0.0
O222 O 0.79173 0.86281 0.49617 0.0
O223 O 0.73529 0.93682 0.47752 0.0
C224 C 0.97046 0.04876 0.26902 0.0
O225 O 0.9669 0.02164 0.24607 0.0
Cd226 Cd 0.91629 0.97435 0.2399 0.0
O227 O 0.94457 0.05366 0.2936 0.0
Cd228 Cd 0.88509 0.01229 0.31151 0.0
C229 C 0.94208 0.93897 0.31961 0.0
O230 O 0.85955 0.00736 0.25042 0.0
O231 O 0.8338 0.96803 0.28958 0.0
O232 O 0.85145 0.06564 0.33511 0.0
C233 C 0.83123 0.98515 0.25956 0.0
O234 O 0.93927 0.93268 0.28521 0.0
C235 C 0.83022 0.04617 0.35746 0.0
O236 O 0.92604 0.96621 0.33493 0.0
O237 O 0.8394 0.01299 0.36301 0.0
C238 C 0.21176 0.59354 0.57484 0.0
O239 O 0.23372 0.61609 0.5938 0.0
Cd240 Cd 0.26365 0.67346 0.57091 0.0
O241 O 0.19664 0.60453 0.54539 0.0
Cd242 Cd 0.20322 0.66422 0.50973 0.0
C243 C 0.28386 0.62237 0.49405 0.0
O244 O 0.22523 0.71826 0.54532 0.0
O245 O 0.25034 0.71302 0.49057 0.0
O246 O 0.1417 0.69162 0.51205 0.0
C247 C 0.24288 0.73381 0.51802 0.0
O248 O 0.29593 0.64162 0.52194 0.0
C249 C 0.14184 0.6975 0.47757 0.0
O250 O 0.24944 0.62371 0.48262 0.0
O251 O 0.16379 0.67803 0.45781 0.0
C252 C 0.41736 0.48681 0.71888 0.0
O253 O 0.42547 0.45305 0.71343 0.0
Cd254 Cd 0.39263 0.3985 0.74059 0.0
O255 O 0.38902 0.49436 0.73954 0.0
Cd256 Cd 0.34487 0.45645 0.78107 0.0
C257 C 0.42932 0.43007 0.81845 0.0
O258 O 0.32398 0.40532 0.73998 0.0
O259 O 0.30754 0.39882 0.79732 0.0
O260 O 0.29509 0.49902 0.76939 0.0
C261 C 0.30222 0.38895 0.76397 0.0
O262 O 0.42822 0.40107 0.79771 0.0
C263 C 0.28681 0.5052 0.803 0.0
O264 O 0.40331 0.45327 0.81666 0.0
O265 O 0.30714 0.49025 0.82687 0.0
C266 C 0.71992 0.07197 0.71288 0.0
O267 O 0.71229 0.04624 0.68905 0.0
Cd268 Cd 0.6577 0.00408 0.6979 0.0
O269 O 0.69448 0.08045 0.73679 0.0
Cd270 Cd 0.6261 0.059 0.75576 0.0
C271 C 0.68075 0.99508 0.78938 0.0
O272 O 0.60006 0.03766 0.69708 0.0
O273 O 0.57226 0.01176 0.74477 0.0
O274 O 0.58846 0.11577 0.7583 0.0
C275 C 0.57072 0.01965 0.71086 0.0
O276 O 0.68267 0.98388 0.75608 0.0
C277 C 0.57997 0.11201 0.79221 0.0
O278 O 0.65956 0.02121 0.79867 0.0
O279 O 0.59583 0.08653 0.80919 0.0
C280 C 0.74896 0.60918 0.11789 0.0
O281 O 0.76719 0.63518 0.1359 0.0
Cd282 Cd 0.8019 0.65885 0.08327 0.0
O283 O 0.7369 0.61736 0.08617 0.0
Cd284 Cd 0.74384 0.67955 0.05216 0.0
C285 C 0.77214 0.61285 0.00307 0.0
O286 O 0.79216 0.72468 0.0794 0.0
O287 O 0.79986 0.71233 0.02185 0.0
O288 O 0.68822 0.71389 0.07247 0.0
C289 C 0.80695 0.7346 0.04881 0.0
O290 O 0.79436 0.6118 0.03066 0.0
C291 C 0.68026 0.72462 0.04035 0.0
O292 O 0.74927 0.63875 0.00116 0.0
O293 O 0.69889 0.71077 0.01388 0.0
C294 C 0.90066 0.43474 0.67224 0.0
O295 O 0.88011 0.41723 0.6963 0.0
Cd296 Cd 0.86512 0.4592 0.74447 0.0
O297 O 0.89655 0.46951 0.66712 0.0
Cd298 Cd 0.85534 0.52022 0.68883 0.0
C299 C 0.93773 0.53201 0.73274 0.0
O300 O 0.81028 0.49179 0.73139 0.0
O301 O 0.83452 0.54741 0.74711 0.0
O302 O 0.80248 0.51121 0.64618 0.0
C303 C 0.80813 0.5213 0.75091 0.0
O304 O 0.92335 0.50201 0.74765 0.0
C305 C 0.79836 0.54601 0.64245 0.0
O306 O 0.91891 0.54861 0.70857 0.0
O307 O 0.82625 0.56858 0.65322 0.0
C308 C 0.79174 0.34805 0.5183 0.0
O309 O 0.81541 0.36097 0.49403 0.0
Cd310 Cd 0.79329 0.40105 0.44826 0.0
O311 O 0.75831 0.36037 0.52136 0.0
Cd312 Cd 0.72 0.40785 0.49213 0.0
C313 C 0.71397 0.34234 0.42664 0.0
O314 O 0.77028 0.45479 0.48 0.0
O315 O 0.71938 0.45892 0.44686 0.0
O316 O 0.70706 0.43726 0.55047 0.0
C317 C 0.74935 0.47498 0.46143 0.0
O318 O 0.7477 0.35577 0.41804 0.0
C319 C 0.67212 0.44209 0.54344 0.0
O320 O 0.6957 0.35625 0.45339 0.0
O321 O 0.65771 0.42533 0.51512 0.0
C322 C 0.65895 0.45859 0.21448 0.0
O323 O 0.64728 0.4399 0.24234 0.0
Cd324 Cd 0.61806 0.47312 0.29032 0.0
O325 O 0.64808 0.4915 0.20937 0.0
Cd326 Cd 0.6031 0.53317 0.24119 0.0
C327 C 0.68337 0.54879 0.29126 0.0
O328 O 0.5561 0.48553 0.26327 0.0
O329 O 0.55443 0.54052 0.28874 0.0
O330 O 0.5657 0.55102 0.18943 0.0
C331 C 0.53647 0.50982 0.27897 0.0
O332 O 0.67513 0.51692 0.3056 0.0
C333 C 0.56882 0.58582 0.19784 0.0
O334 O 0.66024 0.56171 0.26884 0.0
O335 O 0.59202 0.5964 0.22322 0.0
O336 O 0.19599 0.20845 0.13158 0.0
Mn337 Mn 0.15788 0.1697 0.1577 0.0
O338 O 0.23183 0.23313 0.17885 0.0
Mn339 Mn 0.21804 0.19916 0.21584 0.0
O340 O 0.11913 0.13376 0.1896 0.0
O341 O 0.11688 0.18077 0.11913 0.0
Mn342 Mn 0.08954 0.13657 0.12429 0.0
O343 O 0.17553 0.12638 0.12527 0.0
O344 O 0.06216 0.14275 0.16659 0.0
O345 O 0.13872 0.21248 0.19297 0.0
O346 O 0.17595 0.21157 0.24322 0.0
O347 O 0.07932 0.14925 0.07827 0.0
O348 O 0.11867 0.09431 0.12283 0.0
C349 C 0.23114 0.14337 0.19953 0.0
C350 C 0.22159 0.23253 0.14512 0.0
C351 C 0.08246 0.13586 0.19397 0.0
C352 C 0.10749 0.17432 0.08449 0.0
C353 C 0.15512 0.09597 0.11883 0.0
C354 C 0.14571 0.2208 0.22715 0.0
O355 O 0.1997 0.15875 0.19242 0.0
O356 O 0.2522 0.16249 0.22328 0.0
O357 O 0.11407 0.87753 0.36495 0.0
Mn358 Mn 0.14306 0.90972 0.40632 0.0
O359 O 0.16667 0.86078 0.33316 0.0
Mn360 Mn 0.20453 0.86454 0.36979 0.0
O361 O 0.17932 0.94604 0.4417 0.0
O362 O 0.10493 0.94909 0.40335 0.0
Mn363 Mn 0.10688 0.97184 0.44738 0.0
O364 O 0.11029 0.88585 0.44905 0.0
O365 O 0.15152 0.00047 0.44088 0.0
O366 O 0.17652 0.93588 0.36462 0.0
O367 O 0.23236 0.91026 0.37089 0.0
O368 O 0.05771 0.97531 0.43178 0.0
O369 O 0.10871 0.93698 0.48505 0.0
C370 C 0.1837 0.83352 0.41653 0.0
C371 C 0.13034 0.86484 0.33543 0.0
C372 C 0.18173 0.98261 0.44196 0.0
C373 C 0.06814 0.95161 0.40695 0.0
C374 C 0.10387 0.90163 0.48019 0.0
C375 C 0.21336 0.93746 0.36118 0.0
O376 O 0.17853 0.86839 0.41087 0.0
O377 O 0.21 0.82087 0.39529 0.0
O378 O 0.40989 0.96063 0.63432 0.0
Mn379 Mn 0.36857 0.9268 0.60623 0.0
O380 O 0.43154 0.00406 0.59293 0.0
Mn381 Mn 0.39551 0.99355 0.55555 0.0
O382 O 0.32859 0.89231 0.57578 0.0
O383 O 0.38159 0.88377 0.63594 0.0
Mn384 Mn 0.34256 0.85081 0.6421 0.0
O385 O 0.3258 0.93765 0.64381 0.0
O386 O 0.33878 0.83421 0.59419 0.0
O387 O 0.40976 0.91314 0.56665 0.0
O388 O 0.40997 0.95713 0.52284 0.0
O389 O 0.37947 0.84158 0.67699 0.0
O390 O 0.30154 0.87903 0.65738 0.0
C391 C 0.33548 -0.00177 0.57202 0.0
C392 C 0.43354 0.98793 0.62405 0.0
C393 C 0.32698 0.85652 0.5705 0.0
C394 C 0.39702 0.87211 0.66492 0.0
C395 C 0.29958 0.91477 0.6577 0.0
C396 C 0.4186 0.92521 0.53418 0.0
O397 O 0.3556 0.97042 0.57763 0.0
O398 O 0.35356 0.02302 0.5514 0.0
O399 O 0.39843 0.20586 0.9147 0.0
Mn400 Mn 0.37594 0.17032 0.8726 0.0
O401 O 0.40526 0.16334 0.95826 0.0
Mn402 Mn 0.41391 0.12227 0.92848 0.0
O403 O 0.34658 0.13287 0.83403 0.0
O404 O 0.33735 0.20861 0.86302 0.0
Mn405 Mn 0.32698 0.20525 0.81488 0.0
O406 O 0.41238 0.19596 0.83319 0.0
O407 O 0.29509 0.16316 0.81756 0.0
O408 O 0.33794 0.13954 0.90941 0.0
O409 O 0.3712 0.09034 0.92457 0.0
O410 O 0.32234 0.25441 0.82821 0.0
O411 O 0.37081 0.19773 0.78695 0.0
C412 C 0.45451 0.13398 0.88515 0.0
C413 C 0.4019 0.19693 0.94855 0.0
C414 C 0.31041 0.13302 0.82523 0.0
C415 C 0.33671 0.24455 0.85894 0.0
C416 C 0.40501 0.1984 0.79888 0.0
C417 C 0.33952 0.10454 0.91802 0.0
O418 O 0.41747 0.13437 0.88104 0.0
O419 O 0.46446 0.11906 0.91548 0.0
O420 O 0.61842 0.3972 0.86009 0.0
Mn421 Mn 0.64303 0.43106 0.90203 0.0
O422 O 0.67336 0.38289 0.83037 0.0
Mn423 Mn 0.71002 0.39044 0.86772 0.0
O424 O 0.67547 0.46606 0.93948 0.0
O425 O 0.59945 0.46559 0.89788 0.0
Mn426 Mn 0.6042 0.49448 0.9374 0.0
O427 O 0.61186 0.40647 0.94547 0.0
O428 O 0.65105 0.52057 0.93217 0.0
O429 O 0.67571 0.46007 0.86164 0.0
O430 O 0.73371 0.43827 0.86847 0.0
O431 O 0.56243 0.51013 0.91369 0.0
O432 O 0.59862 0.46003 0.97573 0.0
C433 C 0.68779 0.36 0.9145 0.0
C434 C 0.63663 0.3845 0.83176 0.0
C435 C 0.6799 0.50191 0.93731 0.0
C436 C 0.56883 0.48287 0.89109 0.0
C437 C 0.60049 0.42424 0.97434 0.0
C438 C 0.71268 0.46442 0.85963 0.0
O439 O 0.68227 0.39427 0.90769 0.0
O440 O 0.71583 0.34782 0.89523 0.0
O441 O 0.91289 0.45843 0.14902 0.0
Mn442 Mn 0.87518 0.42875 0.11358 0.0
O443 O 0.94019 0.50372 0.11216 0.0
Mn444 Mn 0.90696 0.49985 0.072 0.0
O445 O 0.8401 0.39882 0.0751 0.0
O446 O 0.88545 0.38204 0.1391 0.0
Mn447 Mn 0.8468 0.34803 0.13609 0.0
O448 O 0.82797 0.43372 0.14751 0.0
O449 O 0.84988 0.33872 0.08612 0.0
O450 O 0.92076 0.42011 0.0772 0.0
O451 O 0.92231 0.46665 0.03626 0.0
O452 O 0.87895 0.33425 0.17367 0.0
O453 O 0.80348 0.37343 0.15058 0.0
C454 C 0.84668 0.50602 0.08512 0.0
C455 C 0.93898 0.48478 0.14191 0.0
C456 C 0.84142 0.36446 0.06432 0.0
C457 C 0.89728 0.36636 0.16785 0.0
C458 C 0.80075 0.40878 0.15562 0.0
C459 C 0.93056 0.43399 0.04572 0.0
O460 O 0.86477 0.47647 0.08965 0.0
O461 O 0.86742 0.53209 0.06834 0.0
O462 O 0.91359 0.68285 0.4285 0.0
Mn463 Mn 0.88456 0.65855 0.38367 0.0
O464 O 0.92446 0.63382 0.46459 0.0
Mn465 Mn 0.91372 0.59456 0.43115 0.0
O466 O 0.85078 0.63167 0.34136 0.0
O467 O 0.85745 0.70686 0.38036 0.0
Mn468 Mn 0.84907 0.71527 0.33359 0.0
O469 O 0.92608 0.67916 0.34597 0.0
O470 O 0.81562 0.67616 0.31885 0.0
O471 O 0.84159 0.63435 0.41954 0.0
O472 O 0.86289 0.57761 0.43218 0.0
O473 O 0.83087 0.7554 0.35845 0.0
O474 O 0.89637 0.71862 0.30983 0.0
C475 C 0.94839 0.59934 0.38197 0.0
C476 C 0.92323 0.66892 0.45921 0.0
C477 C 0.82188 0.64185 0.3229 0.0
C478 C 0.84249 0.73853 0.3871 0.0
C479 C 0.92543 0.70091 0.31828 0.0
C480 C 0.83631 0.6004 0.43142 0.0
O481 O 0.91574 0.61378 0.38701 0.0
O482 O 0.9556 0.57577 0.40719 0.0
O483 O 0.84531 0.88912 0.96015 0.0
Mn484 Mn 0.85888 0.92136 0.91375 0.0
O485 O 0.79441 0.84906 0.94747 0.0
Mn486 Mn 0.7922 0.86164 0.89865 0.0
O487 O 0.87634 0.95186 0.86621 0.0
O488 O 0.91139 0.93165 0.9377 0.0
Mn489 Mn 0.92674 0.97908 0.93149 0.0
O490 O 0.83877 0.96962 0.93881 0.0
O491 O 0.93197 0.98442 0.88198 0.0
O492 O 0.87807 0.87515 0.88433 0.0
O493 O 0.82521 0.83974 0.86619 0.0
O494 O 0.96503 0.96016 0.95795 0.0
O495 O 0.89088 0.00765 0.95349 0.0
C496 C 0.77025 0.9119 0.88078 0.0
C497 C 0.82021 0.86277 0.96923 0.0
C498 C 0.9073 0.97246 0.85831 0.0
C499 C 0.94269 0.92956 0.95665 0.0
C500 C 0.85456 0.00059 0.95194 0.0
C501 C 0.86099 0.84956 0.86363 0.0
O502 O 0.8045 0.91044 0.89429 0.0
O503 O 0.74918 0.88051 0.88021 0.0
O504 O 0.9397 0.22605 0.6676 0.0
Mn505 Mn 0.90575 0.19411 0.62839 0.0
O506 O 0.90152 0.26455 0.69763 0.0
Mn507 Mn 0.85682 0.23929 0.68184 0.0
O508 O 0.87247 0.15643 0.59165 0.0
O509 O 0.95093 0.16183 0.62148 0.0
Mn510 Mn 0.95408 0.15157 0.57348 0.0
O511 O 0.92566 0.22989 0.58549 0.0
O512 O 0.91479 0.11572 0.57036 0.0
O513 O 0.88154 0.15888 0.67049 0.0
O514 O 0.84384 0.19502 0.70468 0.0
O515 O 0.00306 0.1517 0.59026 0.0
O516 O 0.94721 0.19099 0.54281 0.0
C517 C 0.83408 0.25031 0.6299 0.0
C518 C 0.9343 0.2522 0.69156 0.0
C519 C 0.88045 0.12477 0.57581 0.0
C520 C 0.98836 0.16388 0.62066 0.0
C521 C 0.93701 0.22295 0.55249 0.0
C522 C 0.85625 0.16334 0.69637 0.0
O523 O 0.86173 0.2283 0.63466 0.0
O524 O 0.81965 0.26418 0.65969 0.0
O525 O 0.64811 0.1713 0.38765 0.0
Mn526 Mn 0.61509 0.12358 0.37123 0.0
O527 O 0.67343 0.19092 0.33274 0.0
Mn528 Mn 0.6644 0.14751 0.3036 0.0
O529 O 0.58145 0.07754 0.3489 0.0
O530 O 0.57483 0.1354 0.40975 0.0
Mn531 Mn 0.54962 0.09288 0.42231 0.0
O532 O 0.63849 0.08886 0.40943 0.0
O533 O 0.52594 0.07334 0.38084 0.0
O534 O 0.58842 0.15634 0.33221 0.0
O535 O 0.61831 0.14365 0.27927 0.0
O536 O 0.52883 0.12897 0.45096 0.0
O537 O 0.58681 0.06428 0.4416 0.0
C538 C 0.69049 0.10024 0.32535 0.0
C539 C 0.66649 0.19599 0.36718 0.0
C540 C 0.54594 0.06556 0.35275 0.0
C541 C 0.55527 0.15106 0.43564 0.0
C542 C 0.62276 0.06627 0.43359 0.0
C543 C 0.58936 0.1547 0.29673 0.0
O544 O 0.65807 0.11223 0.33626 0.0
O545 O 0.70415 0.1166 0.29602 0.0
O546 O 0.6049 0.90976 0.07471 0.0
Mn547 Mn 0.64151 0.91616 0.11844 0.0
O548 O 0.58786 0.96953 0.07353 0.0
Mn549 Mn 0.59293 0.98335 0.1237 0.0
O550 O 0.68069 0.92825 0.16132 0.0
O551 O 0.67946 0.88723 0.09016 0.0
Mn552 Mn 0.71194 0.86954 0.12108 0.0
O553 O 0.62351 0.86719 0.14386 0.0
O554 O 0.7366 0.91415 0.13571 0.0
O555 O 0.66488 0.96773 0.0969 0.0
O556 O 0.63885 0.00867 0.13472 0.0
O557 O 0.71664 0.84343 0.07736 0.0
O558 O 0.68126 0.84763 0.15935 0.0
C559 C 0.56443 0.94073 0.15559 0.0
C560 C 0.59173 0.93748 0.05791 0.0
C561 C 0.71754 0.93363 0.15796 0.0
C562 C 0.68655 0.86 0.0679 0.0
C563 C 0.64507 0.84973 0.16533 0.0
C564 C 0.66634 -0.00016 0.1139 0.0
O565 O 0.6003 0.94148 0.14588 0.0
O566 O 0.54999 0.97293 0.1528 0.0
O567 O 0.42484 0.73341 0.15391 0.0
Mn568 Mn 0.398 0.70285 0.10994 0.0
O569 O 0.3773 0.75869 0.1864 0.0
Mn570 Mn 0.33576 0.74021 0.15876 0.0
O571 O 0.37175 0.66771 0.0677 0.0
O572 O 0.44478 0.67273 0.10487 0.0
Mn573 Mn 0.45726 0.67012 0.05724 0.0
O574 O 0.41883 0.74319 0.07186 0.0
O575 O 0.41967 0.63441 0.04399 0.0
O576 O 0.3713 0.66393 0.14807 0.0
O577 O 0.31898 0.69223 0.16991 0.0
O578 O 0.50221 0.66923 0.08271 0.0
O579 O 0.45349 0.71291 0.0308 0.0
C580 C 0.33438 0.76173 0.10424 0.0
C581 C 0.41259 0.75246 0.18151 0.0
C582 C 0.38404 0.64015 0.04801 0.0
C583 C 0.48125 0.67433 0.11168 0.0
C584 C 0.43618 0.74126 0.04075 0.0
C585 C 0.33927 0.66397 0.16689 0.0
O586 O 0.35261 0.73354 0.11394 0.0
O587 O 0.31204 0.77377 0.12981 0.0
O588 O 0.13407 0.66901 0.9208 0.0
Mn589 Mn 0.1103 0.63213 0.88057 0.0
O590 O 0.18775 0.69817 0.89651 0.0
Mn591 Mn 0.18092 0.67924 0.84928 0.0
O592 O 0.08303 0.59851 0.83826 0.0
O593 O 0.06127 0.63052 0.91028 0.0
Mn594 Mn 0.03531 0.58649 0.90687 0.0
O595 O 0.12553 0.58497 0.90736 0.0
O596 O 0.02161 0.58697 0.85812 0.0
O597 O 0.09372 0.67809 0.85157 0.0
O598 O 0.14624 0.70304 0.82164 0.0
O599 O 0.01462 0.61192 0.94644 0.0
O600 O 0.0696 0.55067 0.91876 0.0
C601 C 0.19249 0.62298 0.83656 0.0
C602 C 0.16285 0.69363 0.92228 0.0
C603 C 0.04691 0.58925 0.83244 0.0
C604 C 0.04292 0.63667 0.94058 0.0
C605 C 0.10636 0.55507 0.91832 0.0
C606 C 0.11008 0.70061 0.8279 0.0
O607 O 0.16142 0.63255 0.85315 0.0
O608 O 0.21649 0.65066 0.8272 0.0
O609 O 0.08139 0.40229 0.58965 0.0
Mn610 Mn 0.11035 0.38719 0.63517 0.0
O611 O 0.09639 0.46512 0.58998 0.0
Mn612 Mn 0.10694 0.4738 0.64061 0.0
O613 O 0.14461 0.37492 0.6799 0.0
O614 O 0.12509 0.3392 0.60799 0.0
Mn615 Mn 0.1181 0.30219 0.64113 0.0
O616 O 0.06172 0.35756 0.65672 0.0
O617 O 0.15675 0.31397 0.67484 0.0
O618 O 0.15902 0.42015 0.61448 0.0
O619 O 0.15676 0.46745 0.65417 0.0
O620 O 0.13126 0.27845 0.59928 0.0
O621 O 0.06864 0.29855 0.66058 0.0
C622 C 0.05926 0.44743 0.67009 0.0
C623 C 0.08404 0.43435 0.57385 0.0
C624 C 0.16319 0.34662 0.68909 0.0
C625 C 0.13664 0.31229 0.5868 0.0
C626 C 0.06127 0.32866 0.67696 0.0
C627 C 0.17477 0.45062 0.6292 0.0
O628 O 0.09024 0.43173 0.66109 0.0
O629 O 0.06344 0.48351 0.6681 0.0
O630 O 0.6435 0.68489 0.6234 0.0
Mn631 Mn 0.60009 0.64412 0.63732 0.0
O632 O 0.66613 0.70202 0.68003 0.0
Mn633 Mn 0.6456 0.66221 0.70887 0.0
O634 O 0.55572 0.6048 0.65717 0.0
O635 O 0.56687 0.66163 0.59534 0.0
Mn636 Mn 0.5369 0.61932 0.58938 0.0
O637 O 0.62126 0.60355 0.60329 0.0
O638 O 0.50295 0.61798 0.62795 0.0
O639 O 0.57693 0.68412 0.67332 0.0
O640 O 0.59787 0.66979 0.72906 0.0
O641 O 0.53568 0.64043 0.54511 0.0
O642 O 0.56462 0.57629 0.586 0.0
C643 C 0.66395 0.61018 0.68672 0.0
C644 C 0.66443 0.70671 0.64513 0.0
C645 C 0.51858 0.6037 0.65516 0.0
C646 C 0.56419 0.66112 0.55931 0.0
C647 C 0.60089 0.57553 0.58968 0.0
C648 C 0.5746 0.68582 0.7088 0.0
O649 O 0.63438 0.62684 0.67633 0.0
O650 O 0.67808 0.62416 0.71711 0.0
O651 O 0.38147 0.39029 0.45635 0.0
Mn652 Mn 0.38285 0.42629 0.41149 0.0
O653 O 0.32887 0.35039 0.45287 0.0
Mn654 Mn 0.31764 0.36269 0.40538 0.0
O655 O 0.38775 0.46019 0.3642 0.0
O656 O 0.4376 0.44157 0.42619 0.0
Mn657 Mn 0.44961 0.48933 0.41928 0.0
O658 O 0.36403 0.47095 0.44255 0.0
O659 O 0.44526 0.49346 0.36979 0.0
O660 O 0.40031 0.38305 0.37709 0.0
O661 O 0.34764 0.34335 0.36834 0.0
O662 O 0.49165 0.47139 0.44181 0.0
O663 O 0.41402 0.51477 0.44592 0.0
C664 C 0.29088 0.41242 0.39251 0.0
C665 C 0.35947 0.36297 0.46891 0.0
C666 C 0.41568 0.48215 0.3513 0.0
C667 C 0.46988 0.44052 0.44331 0.0
C668 C 0.37885 0.50372 0.45182 0.0
C669 C 0.38207 0.35535 0.36003 0.0
O670 O 0.32688 0.41153 0.40076 0.0
O671 O 0.27107 0.38039 0.39402 0.0
C672 C 0.05605 0.26298 0.26557 0.0
C673 C 0.07192 0.28634 0.29396 0.0
H674 H 0.06715 0.22438 0.22126 0.0
C675 C 0.11187 0.28844 0.29929 0.0
H676 H 0.02532 0.26108 0.26065 0.0
C677 C 0.13546 0.26737 0.27722 0.0
C678 C 0.11986 0.24408 0.24876 0.0
H679 H 0.125 0.30624 0.32079 0.0
H680 H 0.16615 0.26953 0.2824 0.0
C681 C 0.07993 0.24228 0.24285 0.0
C682 C 0.0189 0.85749 0.53048 0.0
C683 C 0.03071 0.86209 0.56722 0.0
H684 H 0.03424 0.86455 0.47361 0.0
C685 C 0.0691 0.87417 0.57476 0.0
H686 H 0.98957 0.84742 0.52406 0.0
C687 C 0.09448 0.88443 0.54587 0.0
C688 C 0.08216 0.88108 0.50918 0.0
H689 H 0.07886 0.87741 0.60291 0.0
H690 H 0.12318 0.89646 0.55217 0.0
C691 C 0.04459 0.86644 0.50165 0.0
C692 C 0.47685 0.90451 0.72708 0.0
C693 C 0.45507 0.9176 0.75686 0.0
H694 H 0.47473 0.87944 0.673 0.0
C695 C 0.41639 0.92448 0.75161 0.0
H696 H 0.50671 0.89871 0.73057 0.0
C697 C 0.39851 0.91416 0.71852 0.0
C698 C 0.41907 0.89659 0.6906 0.0
H699 H 0.3991 0.93451 0.77419 0.0
H700 H 0.3677 0.91625 0.71626 0.0
C701 C 0.4587 0.89353 0.69414 0.0
C702 C 0.41946 0.28446 0.00864 0.0
C703 C 0.40673 0.27015 0.04296 0.0
H704 H 0.42841 0.27219 0.95098 0.0
C705 C 0.38798 0.23429 0.04452 0.0
H706 H 0.43436 0.31209 0.00697 0.0
C707 C 0.38422 0.21201 0.0129 0.0
C708 C 0.39989 0.2247 0.97902 0.0
H709 H 0.37788 0.22274 0.0706 0.0
H710 H 0.37063 0.18388 0.01543 0.0
C711 C 0.4163 0.26168 0.97674 0.0
C712 C 0.04828 0.84552 0.2667 0.0
C713 C 0.06873 0.8426 0.23303 0.0
H714 H 0.05125 0.85356 0.32551 0.0
C715 C 0.10904 0.84741 0.2337 0.0
H716 H 0.01713 0.84149 0.26743 0.0
C717 C 0.12839 0.85466 0.2669 0.0
C718 C 0.10817 0.85705 0.30073 0.0
H719 H 0.1258 0.84527 0.20856 0.0
H720 H 0.15955 0.8584 0.26586 0.0
C721 C 0.06777 0.85245 0.30014 0.0
C722 C 0.4885 0.89901 0.45997 0.0
C723 C 0.48342 0.85969 0.45975 0.0
H724 H 0.47153 0.95048 0.48357 0.0
C725 C 0.45715 0.84177 0.48455 0.0
H726 H 0.50851 0.9135 0.44109 0.0
C727 C 0.43654 0.86297 0.50956 0.0
C728 C 0.44123 0.90234 0.50929 0.0
H729 H 0.45297 0.81135 0.48497 0.0
H730 H 0.41646 0.84869 0.52858 0.0
C731 C 0.46726 0.92014 0.48421 0.0
C732 C 0.48091 0.25555 0.7478 0.0
C733 C 0.47236 0.24334 0.71166 0.0
H734 H 0.4668 0.2493 0.80511 0.0
C735 C 0.4489 0.21046 0.70571 0.0
H736 H 0.49901 0.2811 0.75269 0.0
C737 C 0.4306 0.19237 0.73557 0.0
C738 C 0.43553 0.20715 0.7715 0.0
H739 H 0.44192 0.20084 0.678 0.0
H740 H 0.40964 0.16903 0.73023 0.0
C741 C 0.46281 0.23727 0.77774 0.0
C742 C 0.11901 0.25796 0.0219 0.0
C743 C 0.11612 0.23928 0.98742 0.0
H744 H 0.11855 0.25188 0.08091 0.0
C745 C 0.11902 0.20044 0.98589 0.0
H746 H 0.11653 0.28798 0.02382 0.0
C747 C 0.12154 0.18022 0.01823 0.0
C748 C 0.12003 0.19813 0.05296 0.0
H749 H 0.11697 0.18537 0.95979 0.0
H750 H 0.12116 0.14989 0.01614 0.0
C751 C 0.12044 0.23742 0.0546 0.0
C752 C 0.30916 0.09885 0.14693 0.0
C753 C 0.29883 0.06058 0.15187 0.0
H754 H 0.29442 0.15524 0.15726 0.0
C755 C 0.26168 0.04985 0.16585 0.0
H756 H 0.33762 0.108 0.13671 0.0
C757 C 0.2371 0.07701 0.17824 0.0
C758 C 0.24905 0.11521 0.17613 0.0
H759 H 0.25304 0.02055 0.17055 0.0
H760 H 0.21029 0.06812 0.19204 0.0
C761 C 0.28442 0.12585 0.15879 0.0
C762 C 0.24788 0.07024 0.44073 0.0
C763 C 0.27382 0.0641 0.4689 0.0
H764 H 0.19972 0.04846 0.40929 0.0
C765 C 0.275 0.02724 0.48215 0.0
H766 H 0.24665 0.09786 0.42906 0.0
C767 C 0.24711 -0.00139 0.47132 0.0
C768 C 0.21836 0.00642 0.44631 0.0
H769 H 0.29558 0.02125 0.5029 0.0
H770 H 0.24628 0.97159 0.48456 0.0
C771 C 0.22084 0.04178 0.42943 0.0
C772 C 0.19524 0.92027 0.68554 0.0
C773 C 0.19469 0.95739 0.69864 0.0
H774 H 0.22872 0.87785 0.66239 0.0
C775 C 0.22877 0.98101 0.6973 0.0
H776 H 0.16943 0.9014 0.68647 0.0
C777 C 0.26313 0.96716 0.68444 0.0
C778 C 0.2638 0.92976 0.67206 0.0
H779 H 0.22939 0.00947 0.70813 0.0
H780 H 0.28938 0.98525 0.68548 0.0
C781 C 0.22935 0.90665 0.67227 0.0
C782 C 0.28725 0.01377 0.89305 0.0
C783 C 0.25835 0.0109 0.92008 0.0
H784 H 0.33561 0.0466 0.87148 0.0
C785 C 0.25059 0.04289 0.94131 0.0
H786 H 0.29385 0.98947 0.87656 0.0
C787 C 0.27469 0.07606 0.93835 0.0
C788 C 0.3063 0.07715 0.91401 0.0
H789 H 0.22884 0.041 0.96289 0.0
H790 H 0.27086 0.09924 0.95728 0.0
C791 C 0.31124 0.04637 0.89037 0.0
C792 C 0.24856 0.96153 0.26846 0.0
C793 C 0.2855 0.97727 0.27698 0.0
H794 H 0.19464 0.93849 0.2899 0.0
C795 C 0.29401 0.98907 0.31318 0.0
H796 H 0.24135 0.9529 0.24051 0.0
C797 C 0.26753 0.98052 0.34138 0.0
C798 C 0.23212 0.9612 0.33324 0.0
H799 H 0.32232 0.00162 0.32019 0.0
H800 H 0.27607 0.98574 0.3697 0.0
C801 C 0.22169 0.95399 0.29652 0.0
C802 C 0.25754 0.05559 0.58906 0.0
C803 C 0.27831 0.07941 0.61421 0.0
H804 H 0.25929 0.00533 0.55641 0.0
C805 C 0.30301 0.06284 0.63864 0.0
H806 H 0.23638 0.06651 0.57122 0.0
C807 C 0.31707 0.0283 0.62911 0.0
C808 C 0.30466 0.00982 0.59658 0.0
H809 H 0.31783 0.07962 0.65994 0.0
H810 H 0.34241 0.01997 0.64307 0.0
C811 C 0.27095 0.02055 0.58021 0.0
C812 C 0.21749 0.08232 0.85217 0.0
C813 C 0.2155 0.05183 0.8276 0.0
H814 H 0.25043 0.13129 0.87119 0.0
C815 C 0.24855 0.04375 0.807 0.0
H816 H 0.19226 0.08936 0.86783 0.0
C817 C 0.28204 0.06824 0.80842 0.0
C818 C 0.28263 0.10055 0.83085 0.0
H819 H 0.24717 0.02079 0.78712 0.0
H820 H 0.30594 0.06365 0.78994 0.0
C821 C 0.25069 0.10637 0.8538 0.0
C822 C 0.16823 0.99557 0.08983 0.0
C823 C 0.20556 -0.00156 0.07465 0.0
H824 H 0.1232 0.02405 0.11599 0.0
C825 C 0.22753 0.03299 0.07684 0.0
H826 H 0.15062 0.96931 0.08845 0.0
C827 C 0.2115 0.06466 0.0919 0.0
C828 C 0.17349 0.06215 0.10561 0.0
H829 H 0.25629 0.03613 0.06504 0.0
H830 H 0.22852 0.09128 0.09183 0.0
C831 C 0.15241 0.02705 0.10528 0.0
C832 C 0.28677 0.31566 0.1157 0.0
C833 C 0.26743 0.32832 0.0851 0.0
H834 H 0.288 0.27507 0.15789 0.0
C835 C 0.23424 0.30738 0.07243 0.0
H836 H 0.31274 0.33072 0.12587 0.0
C837 C 0.22019 0.27491 0.09071 0.0
C838 C 0.23886 0.26314 0.1221 0.0
H839 H 0.21906 0.31607 0.04851 0.0
H840 H 0.19416 0.25976 0.081 0.0
C841 C 0.27266 0.28354 0.13396 0.0
C842 C 0.63844 0.28989 0.97653 0.0
C843 C 0.63052 0.26076 0.95032 0.0
H844 H 0.66411 0.34583 0.98532 0.0
C845 C 0.62805 0.27036 0.91317 0.0
H846 H 0.63976 0.28379 0.00558 0.0
C847 C 0.64164 0.3061 0.90182 0.0
C848 C 0.65736 0.33259 0.92751 0.0
H849 H 0.62143 0.24884 0.89239 0.0
H850 H 0.64461 0.31125 0.87257 0.0
C851 C 0.65267 0.32555 0.96507 0.0
C852 C 0.00606 0.48524 0.224 0.0
C853 C 0.04186 0.49419 0.20662 0.0
H854 H 0.94467 0.47559 0.21713 0.0
C855 C 0.04295 0.50008 0.16854 0.0
H856 H 0.00433 0.48094 0.25343 0.0
C857 C 0.00925 0.49792 0.14832 0.0
C858 C 0.97338 0.48931 0.16541 0.0
H859 H 0.06994 0.50701 0.15421 0.0
H860 H 0.01151 0.50241 0.11892 0.0
C861 C 0.97198 0.48254 0.20341 0.0
C862 C 0.86802 0.80884 0.46203 0.0
C863 C 0.83094 0.81542 0.47515 0.0
H864 H 0.90105 0.77792 0.42316 0.0
C865 C 0.79949 0.79118 0.46388 0.0
H866 H 0.89273 0.827 0.47046 0.0
C867 C 0.80445 0.76258 0.43815 0.0
C868 C 0.84089 0.75761 0.42299 0.0
H869 H 0.77064 0.7952 0.474 0.0
H870 H 0.77928 0.74606 0.42807 0.0
C871 C 0.87286 0.7805 0.43548 0.0
C872 C 0.04021 0.06166 0.25632 0.0
C873 C 0.00413 0.07564 0.26402 0.0
H874 H 0.09479 0.07092 0.22872 0.0
C875 C -0.00123 0.11331 0.25693 0.0
H876 H 0.04487 0.03255 0.26154 0.0
C877 C 0.02713 0.13503 0.23765 0.0
C878 C 0.06131 0.11948 0.22588 0.0
H879 H 0.97112 0.12454 0.2623 0.0
H880 H 0.02074 0.16272 0.22876 0.0
C881 C 0.06885 0.08362 0.23767 0.0
C882 C 0.29644 0.78194 0.50561 0.0
C883 C 0.25999 0.77239 0.5211 0.0
H884 H 0.34732 0.81923 0.50898 0.0
C885 C 0.24213 0.79865 0.54325 0.0
H886 H 0.3105 0.76223 0.48801 0.0
C887 C 0.26257 0.832 0.55381 0.0
C888 C 0.3013 0.83855 0.5432 0.0
H889 H 0.21359 0.79209 0.55472 0.0
H890 H 0.25 0.84979 0.57444 0.0
C891 C 0.31725 0.81484 0.51699 0.0
C892 C 0.01406 0.60805 0.29926 0.0
C893 C 0.04986 0.61367 0.31713 0.0
H894 H 0.95249 0.5991 0.30623 0.0
C895 C 0.05024 0.62396 0.3545 0.0
H896 H 0.01291 0.5996 0.27051 0.0
C897 C 0.0158 0.62435 0.37455 0.0
C898 C 0.98029 0.61396 0.35783 0.0
H899 H 0.07728 0.62832 0.369 0.0
H900 H 0.01724 0.62908 0.40406 0.0
C901 C 0.9794 0.60777 0.31963 0.0
C902 C 0.49188 0.4164 0.84822 0.0
C903 C 0.46553 0.44211 0.83738 0.0
H904 H 0.54593 0.40918 0.87437 0.0
C905 C 0.4759 0.48072 0.84076 0.0
H906 H 0.48483 0.38647 0.84534 0.0
C907 C 0.51128 0.49347 0.85529 0.0
C908 C 0.53705 0.46806 0.8675 0.0
H909 H 0.45685 0.50135 0.83167 0.0
H910 H 0.51792 0.52348 0.85826 0.0
C911 C 0.52721 0.42933 0.86386 0.0
C912 C 0.89462 0.7945 0.78131 0.0
C913 C 0.90061 0.82323 0.7552 0.0
H914 H 0.87835 0.78038 0.83704 0.0
C915 C 0.89533 0.86032 0.76605 0.0
H916 H 0.89852 0.76556 0.77376 0.0
C917 C 0.88397 0.86848 0.80205 0.0
C918 C 0.87918 0.84015 0.82837 0.0
H919 H 0.89923 0.88297 0.74656 0.0
H920 H 0.87735 0.89689 0.80904 0.0
C921 C 0.88377 0.8029 0.81762 0.0
C922 C 0.9369 0.2645 0.45731 0.0
C923 C 0.94047 0.30311 0.46472 0.0
H924 H 0.93179 0.20937 0.47915 0.0
C925 C 0.94201 0.31586 0.50159 0.0
H926 H 0.93591 0.25397 0.42919 0.0
C927 C 0.94101 0.29021 0.53055 0.0
C928 C 0.93723 0.25144 0.52309 0.0
H929 H 0.94564 0.34562 0.50795 0.0
H930 H 0.94408 0.30068 0.55856 0.0
C931 C 0.93484 0.23904 0.48608 0.0
C932 C 0.53217 0.18152 0.21543 0.0
C933 C 0.52792 0.21951 0.22348 0.0
H934 H 0.55537 0.13084 0.23296 0.0
C935 C 0.53901 0.23428 0.25817 0.0
H936 H 0.52348 0.16946 0.18902 0.0
C937 C 0.55564 0.21183 0.28387 0.0
C938 C 0.56229 0.17457 0.27484 0.0
H939 H 0.53533 0.26339 0.26525 0.0
H940 H 0.56567 0.22433 0.3097 0.0
C941 C 0.54989 0.15939 0.24069 0.0
C942 C 0.56191 0.96136 0.96188 0.0
C943 C 0.56152 0.92638 0.94376 0.0
H944 H 0.57106 0.99212 0.01207 0.0
C945 C 0.57479 0.89566 0.96244 0.0
H946 H 0.55196 0.98557 0.94822 0.0
C947 C 0.58511 0.89918 -0.00054 0.0
C948 C 0.58262 0.93355 0.01834 0.0
H949 H 0.57456 0.8682 0.94934 0.0
H950 H 0.59364 0.87466 0.01355 0.0
C951 C 0.5723 0.96491 -0.00127 0.0
C952 C 0.99542 0.25007 0.77615 0.0
C953 C -0.00201 0.28829 0.78651 0.0
H954 H 0.9741 0.20852 0.73654 0.0
C955 C 0.98586 0.31448 0.7612 0.0
H956 H 0.00513 0.22921 0.79454 0.0
C957 C 0.96908 0.30272 0.7279 0.0
C958 C 0.96419 0.26449 0.7186 0.0
H959 H 0.98815 0.34429 0.76749 0.0
H960 H 0.95769 0.32344 0.71034 0.0
C961 C 0.9786 0.23828 0.74248 0.0
C962 C 0.53855 0.23446 0.49231 0.0
C963 C 0.56791 0.23319 0.51844 0.0
H964 H 0.51309 0.21048 0.44328 0.0
C965 C 0.59899 0.21125 0.51069 0.0
H966 H 0.51458 0.25172 0.49721 0.0
C967 C 0.59813 0.18757 0.47933 0.0
C968 C 0.56673 0.18642 0.45506 0.0
H969 H 0.6221 0.21 0.53026 0.0
H970 H 0.61998 0.16763 0.47602 0.0
C971 C 0.53807 0.21149 0.46093 0.0
C972 C 0.63214 0.81708 0.2638 0.0
C973 C 0.61981 0.8499 0.28086 0.0
H974 H 0.64987 0.79092 0.21311 0.0
C975 C 0.61534 0.88145 0.25915 0.0
H976 H 0.63554 0.79217 0.27974 0.0
C977 C 0.62141 0.8799 0.22138 0.0
C978 C 0.63302 0.84716 0.20414 0.0
H979 H 0.60565 0.90718 0.27101 0.0
H980 H 0.61799 0.90495 0.20576 0.0
C981 C 0.6395 0.816 0.22571 0.0
C982 C 0.93864 0.86389 0.03695 0.0
C983 C 0.97786 0.85745 0.03986 0.0
H984 H 0.89662 0.89318 0.00841 0.0
C985 C 0.00344 0.86983 0.01175 0.0
H986 H 0.91835 0.85469 0.05838 0.0
C987 C 0.99048 0.8898 0.9822 0.0
C988 C 0.95179 0.89835 0.9803 0.0
H989 H 0.03374 0.86479 0.01301 0.0
H990 H 0.01129 0.90066 0.96191 0.0
C991 C 0.92586 0.88493 0.00776 0.0
C992 C 0.6958 0.97454 0.85296 0.0
C993 C 0.70709 0.98042 0.81624 0.0
H994 H 0.70862 0.94817 0.90357 0.0
C995 C 0.74415 0.97161 0.8047 0.0
H996 H 0.66761 0.9816 0.8626 0.0
C997 C 0.76825 0.95423 0.82858 0.0
C998 C 0.75526 0.94469 0.86402 0.0
H999 H 0.75391 0.9768 0.77669 0.0
H1000 H 0.79524 0.94477 0.81808 0.0
C1001 C 0.71953 0.95617 0.87655 0.0
C1002 C 0.81235 0.0399 0.58415 0.0
C1003 C 0.82367 0.01952 0.55282 0.0
H1004 H 0.81782 0.09258 0.61389 0.0
C1005 C 0.84481 0.03891 0.52503 0.0
H1006 H 0.79455 0.02623 0.60535 0.0
C1007 C 0.8582 0.07638 0.53032 0.0
C1008 C 0.85079 0.09556 0.56348 0.0
H1009 H 0.85302 0.02457 0.49999 0.0
H1010 H 0.87766 0.08927 0.5099 0.0
C1011 C 0.82529 0.0779 0.58903 0.0
C1012 C 0.76006 0.0313 0.35096 0.0
C1013 C 0.79025 0.05613 0.36419 0.0
H1014 H 0.70341 0.02623 0.32771 0.0
C1015 C 0.78252 0.09308 0.37343 0.0
H1016 H 0.76548 0.00283 0.34284 0.0
C1017 C 0.74621 0.10585 0.36646 0.0
C1018 C 0.71769 0.08231 0.34881 0.0
H1019 H 0.80543 0.11289 0.38299 0.0
H1020 H 0.7421 0.13542 0.3706 0.0
C1021 C 0.72438 0.04456 0.34236 0.0
C1022 C 0.70172 0.07489 0.05032 0.0
C1023 C 0.70962 0.10476 0.07551 0.0
H1024 H 0.68354 0.01677 0.04302 0.0
C1025 C 0.71157 0.09717 0.11312 0.0
H1026 H 0.70142 0.07968 0.02095 0.0
C1027 C 0.70198 0.06093 0.12559 0.0
C1028 C 0.69074 0.03186 0.10055 0.0
H1029 H 0.71858 0.11948 0.13298 0.0
H1030 H 0.70046 0.05616 0.15497 0.0
C1031 C 0.69257 0.03862 0.06275 0.0
C1032 C 0.76918 0.11834 0.74062 0.0
C1033 C 0.7596 0.09014 0.71439 0.0
H1034 H 0.81019 0.16215 0.75775 0.0
C1035 C 0.78882 0.0787 0.69036 0.0
H1036 H 0.74819 0.12661 0.76085 0.0
C1037 C 0.825 0.0987 0.68917 0.0
C1038 C 0.83186 0.13107 0.71097 0.0
H1039 H 0.78319 0.05548 0.67122 0.0
H1040 H 0.84607 0.09118 0.66877 0.0
C1041 C 0.80518 0.1382 0.73932 0.0
C1042 C 0.65216 0.99069 0.49708 0.0
C1043 C 0.68518 0.97903 0.47903 0.0
H1044 H 0.6067 0.02788 0.49706 0.0
C1045 C 0.69858 -0.00247 0.44701 0.0
H1046 H 0.64156 0.97729 0.52212 0.0
C1047 C 0.67934 0.02719 0.43336 0.0
C1048 C 0.64593 0.03844 0.45084 0.0
H1049 H 0.72446 0.98969 0.4329 0.0
H1050 H 0.6901 0.04079 0.4087 0.0
C1051 C 0.6325 0.0199 0.48292 0.0
C1052 C 0.8009 0.98945 0.19845 0.0
C1053 C 0.79845 0.9773 0.23498 0.0
H1054 H 0.77568 0.98529 0.14502 0.0
C1055 C 0.76494 0.95676 0.2474 0.0
H1056 H 0.82613 0.00587 0.18835 0.0
C1057 C 0.73565 0.94584 0.22273 0.0
C1058 C 0.74003 0.9551 0.18554 0.0
H1059 H 0.7621 0.9478 0.27571 0.0
H1060 H 0.71131 0.92764 0.23204 0.0
C1061 C 0.77196 0.97813 0.1738 0.0
C1062 C 0.83004 0.09524 0.9867 0.0
C1063 C 0.79637 0.10124 0.96725 0.0
H1064 H 0.87334 0.05821 -0.00137 0.0
C1065 C 0.77946 0.0718 0.94533 0.0
H1066 H 0.84369 0.1169 0.00434 0.0
C1067 C 0.7967 0.0375 0.94221 0.0
C1068 C 0.831 0.03226 0.96104 0.0
H1069 H 0.75308 0.07525 0.93061 0.0
H1070 H 0.78416 0.01581 0.92394 0.0
C1071 C 0.8469 0.06128 0.98382 0.0
C1072 C 0.85187 0.78133 0.01813 0.0
C1073 C 0.82001 0.77366 0.04139 0.0
H1074 H 0.8779 0.81828 0.97778 0.0
C1075 C 0.79429 0.80152 0.04824 0.0
H1076 H 0.8717 0.75995 0.01217 0.0
C1077 C 0.79722 0.83448 0.02784 0.0
C1078 C 0.82668 0.84026 0.00154 0.0
H1079 H 0.76915 0.79563 0.0656 0.0
H1080 H 0.77432 0.85342 0.02964 0.0
C1081 C 0.85548 0.81478 -0.00134 0.0
C1082 C 0.32899 0.79618 0.00813 0.0
C1083 C 0.33199 0.83513 0.01549 0.0
H1084 H 0.32787 0.74115 0.03158 0.0
C1085 C 0.34592 0.84841 0.04966 0.0
H1086 H 0.31832 0.78522 0.98193 0.0
C1087 C 0.3514 0.82332 0.07767 0.0
C1088 C 0.34322 0.78468 0.07185 0.0
H1089 H 0.34895 0.87824 0.05585 0.0
H1090 H 0.35858 0.83435 0.10489 0.0
C1091 C 0.33439 0.77092 0.03643 0.0
C1092 C 0.98116 0.58749 0.75259 0.0
C1093 C 0.9749 0.54857 0.74722 0.0
H1094 H 0.01069 0.63143 0.78422 0.0
C1095 C 0.00096 0.52491 0.76258 0.0
H1096 H 0.9615 0.60636 0.74125 0.0
C1097 C 0.02965 0.53942 0.78661 0.0
C1098 C 0.03266 0.57777 0.79571 0.0
H1099 H -0.00295 0.49476 0.75857 0.0
H1100 H 0.04644 0.52012 0.80122 0.0
C1101 C 0.00963 0.60192 0.777 0.0
C1102 C 0.23077 0.30271 0.55564 0.0
C1103 C 0.22176 0.27267 0.53107 0.0
H1104 H 0.20845 0.3452 0.59006 0.0
C1105 C 0.18597 0.27038 0.51347 0.0
H1106 H 0.25871 0.30587 0.56865 0.0
C1107 C 0.15721 0.29319 0.52576 0.0
C1108 C 0.164 0.31756 0.55614 0.0
H1109 H 0.17862 0.24804 0.49375 0.0
H1110 H 0.12802 0.28661 0.51633 0.0
C1111 C 0.20221 0.32604 0.56712 0.0
C1112 C 0.96564 0.0259 0.79439 0.0
C1113 C 0.99201 -0.00119 0.78674 0.0
H1114 H 0.9122 0.03713 0.82039 0.0
C1115 C 0.98004 0.96075 0.79003 0.0
H1116 H 0.97399 0.05549 0.79108 0.0
C1117 C 0.94484 0.95035 0.80714 0.0
C1118 C 0.92106 0.97787 0.82048 0.0
H1119 H -0.00018 0.93934 0.784 0.0
H1120 H 0.94042 0.92171 0.81625 0.0
C1121 C 0.92977 0.01529 0.81021 0.0
C1122 C 0.71838 0.29191 0.37885 0.0
C1123 C 0.69912 0.30654 0.40942 0.0
H1124 H 0.72368 0.2453 0.34213 0.0
C1125 C 0.66885 0.28443 0.42609 0.0
H1126 H 0.74195 0.30809 0.36549 0.0
C1127 C 0.65875 0.24811 0.41297 0.0
C1128 C 0.67851 0.23331 0.38284 0.0
H1129 H 0.65361 0.29474 0.4499 0.0
H1130 H 0.63516 0.23186 0.42602 0.0
C1131 C 0.70811 0.25578 0.36566 0.0
C1132 C 0.95965 0.40748 0.69352 0.0
C1133 C 0.93922 0.42184 0.66423 0.0
H1134 H 0.0141 0.40614 0.71959 0.0
C1135 C 0.95976 0.43532 0.63321 0.0
H1136 H 0.94466 0.39747 0.71818 0.0
C1137 C -1e-05 0.43884 0.63351 0.0
C1138 C 0.02022 0.42948 0.665 0.0
H1139 H 0.94482 0.44696 0.61052 0.0
H1140 H 0.01498 0.4529 0.61078 0.0
C1141 C -0.00016 0.41223 0.69436 0.0
C1142 C 0.50519 0.60001 0.17369 0.0
C1143 C 0.54348 0.61213 0.18175 0.0
H1144 H 0.45319 0.61274 0.14737 0.0
C1145 C 0.5566 0.64953 0.17533 0.0
H1146 H 0.49408 0.5716 0.17967 0.0
C1147 C 0.5332 0.67307 0.15678 0.0
C1148 C 0.49615 0.6597 0.14555 0.0
H1149 H 0.58577 0.65967 0.18223 0.0
H1150 H 0.54531 0.70037 0.14813 0.0
C1151 C 0.48141 0.6239 0.15629 0.0
C1152 C 0.55097 0.78127 0.74247 0.0
C1153 C 0.52831 0.77241 0.77382 0.0
H1154 H 0.58176 0.76029 0.69597 0.0
C1155 C 0.51653 0.73469 0.78059 0.0
H1156 H 0.56008 0.8102 0.73647 0.0
C1157 C 0.52954 0.70613 0.75781 0.0
C1158 C 0.55313 0.715 0.72707 0.0
H1159 H 0.49898 0.72719 0.80455 0.0
H1160 H 0.5224 0.6771 0.76493 0.0
C1161 C 0.56283 0.75282 0.719 0.0
C1162 C 0.55513 0.35065 0.03867 0.0
C1163 C 0.55221 0.37236 0.0711 0.0
H1164 H 0.57254 0.3503 0.98168 0.0
C1165 C 0.57077 0.40839 0.07285 0.0
H1166 H 0.54061 0.32282 0.03667 0.0
C1167 C 0.58901 0.42385 0.04182 0.0
C1168 C 0.58855 0.40384 0.00814 0.0
H1169 H 0.56903 0.42555 0.09758 0.0
H1170 H 0.60156 0.45246 0.04376 0.0
C1171 C 0.57315 0.3664 0.0072 0.0
C1172 C 0.97424 0.39448 0.2361 0.0
C1173 C 0.95134 0.40307 0.26686 0.0
H1174 H 0.97462 0.37622 0.17943 0.0
C1175 C 0.91181 0.40647 0.26216 0.0
H1176 H 0.00477 0.39132 0.23907 0.0
C1177 C 0.89489 0.39843 0.22804 0.0
C1178 C 0.91718 0.38656 0.19827 0.0
H1179 H 0.89357 0.41289 0.28544 0.0
H1180 H 0.86387 0.39855 0.2257 0.0
C1181 C 0.95714 0.38593 0.20199 0.0
C1182 C 0.89541 0.73695 0.53301 0.0
C1183 C 0.92331 0.73242 0.55992 0.0
H1184 H 0.87364 0.71962 0.48019 0.0
C1185 C 0.95226 0.70763 0.55266 0.0
H1186 H 0.87266 0.75569 0.53765 0.0
C1187 C 0.95342 0.6881 0.51911 0.0
C1188 C 0.92598 0.69334 0.49207 0.0
H1189 H 0.97433 0.70357 0.57272 0.0
H1190 H 0.97556 0.66869 0.51438 0.0
C1191 C 0.89665 0.71735 0.49956 0.0
C1192 C 0.57016 0.38996 0.7506 0.0
C1193 C 0.58514 0.36413 0.72542 0.0
H1194 H 0.57429 0.41629 0.80393 0.0
C1195 C 0.61576 0.3436 0.73665 0.0
H1196 H 0.54639 0.40621 0.74314 0.0
C1197 C 0.63111 0.34897 0.77196 0.0
C1198 C 0.61609 0.37479 0.79702 0.0
H1199 H 0.62766 0.32311 0.71834 0.0
H1200 H 0.65515 0.33314 0.77955 0.0
C1201 C 0.58544 0.39519 0.78592 0.0
C1202 C -0.00085 0.40831 0.96966 0.0
C1203 C 0.99432 0.36895 0.96974 0.0
H1204 H 0.98223 0.45987 0.99345 0.0
C1205 C 0.9686 0.35111 -0.00492 0.0
H1206 H 0.01884 0.4227 0.95037 0.0
C1207 C 0.94845 0.37232 0.02032 0.0
C1208 C 0.95289 0.4117 0.01993 0.0
H1209 H 0.96459 0.32077 -0.00417 0.0
H1210 H 0.92899 0.35793 0.0398 0.0
C1211 C 0.97821 0.42953 0.99423 0.0
C1212 C -0.00228 0.7366 0.24969 0.0
C1213 C 0.98387 0.71544 0.21898 0.0
H1214 H 0.98937 0.74834 0.30722 0.0
C1215 C 0.95952 0.68304 0.22441 0.0
H1216 H 0.01637 0.76192 0.24605 0.0
C1217 C 0.94548 0.67449 0.2596 0.0
C1218 C 0.95468 0.69893 0.28936 0.0
H1219 H 0.94845 0.66648 0.20111 0.0
H1220 H 0.92348 0.65162 0.26262 0.0
C1221 C 0.98255 0.72878 0.28475 0.0
C1222 C 0.60215 0.69127 0.46843 0.0
C1223 C 0.59833 0.72994 0.47067 0.0
H1224 H 0.59691 0.63917 0.4967 0.0
C1225 C 0.59374 0.74695 0.50559 0.0
H1226 H 0.60566 0.67753 0.44194 0.0
C1227 C 0.58764 0.7248 0.53705 0.0
C1228 C 0.58719 0.68563 0.53385 0.0
H1229 H 0.59036 0.7768 0.50794 0.0
H1230 H 0.57921 0.73788 0.5627 0.0
C1231 C 0.5973 0.66943 0.49987 0.0
C1232 C 0.72752 0.53648 0.65399 0.0
C1233 C 0.75894 0.55922 0.63976 0.0
H1234 H 0.6719 0.53513 0.68047 0.0
C1235 C 0.75369 0.59708 0.6329 0.0
H1236 H 0.73058 0.50726 0.66007 0.0
C1237 C 0.71933 0.61264 0.64354 0.0
C1238 C 0.68991 0.59081 0.66179 0.0
H1239 H 0.77733 0.61541 0.62239 0.0
H1240 H 0.71752 0.64265 0.64111 0.0
C1241 C 0.69368 0.55232 0.66568 0.0
C1242 C 0.7485 0.58607 0.94376 0.0
C1243 C 0.7653 0.58031 0.97791 0.0
H1244 H 0.70846 0.56425 0.90341 0.0
C1245 C 0.76345 0.54382 0.99203 0.0
H1246 H 0.75017 0.61375 0.93178 0.0
C1247 C 0.73854 0.51543 0.97633 0.0
C1248 C 0.71646 0.52354 0.94577 0.0
H1249 H 0.77734 0.53867 0.01762 0.0
H1250 H 0.73344 0.48898 0.99037 0.0
C1251 C 0.72435 0.55779 0.92773 0.0
C1252 C 0.69704 0.40738 0.1893 0.0
C1253 C 0.69223 0.44584 0.19384 0.0
H1254 H 0.73497 0.36538 0.17339 0.0
C1255 C 0.72294 0.47196 0.18523 0.0
H1256 H 0.67394 0.3867 0.19643 0.0
C1257 C 0.75835 0.45977 0.1738 0.0
C1258 C 0.76349 0.42138 0.16928 0.0
H1259 H 0.72044 0.50177 0.18963 0.0
H1260 H 0.78198 0.48043 0.16946 0.0
C1261 C 0.73219 0.39525 0.17666 0.0
C1262 C 0.78102 0.53392 0.48666 0.0
C1263 C 0.75975 0.51548 0.45829 0.0
H1264 H 0.82053 0.5801 0.50104 0.0
C1265 C 0.7523 0.53527 0.42637 0.0
H1266 H 0.78578 0.51987 0.51227 0.0
C1267 C 0.77168 0.57051 0.42047 0.0
C1268 C 0.79905 0.58521 0.44587 0.0
H1269 H 0.73473 0.52217 0.40465 0.0
H1270 H 0.7692 0.58375 0.39423 0.0
C1271 C 0.80002 0.56895 0.4807 0.0
C1272 C 0.74134 0.51116 0.77302 0.0
C1273 C 0.78006 0.52145 0.7808 0.0
H1274 H 0.68798 0.48617 0.79375 0.0
C1275 C 0.79276 0.52291 0.81723 0.0
H1276 H 0.73127 0.5101 0.74486 0.0
C1277 C 0.76828 0.50861 0.84505 0.0
C1278 C 0.73103 0.49357 0.83638 0.0
H1279 H 0.82267 0.53074 0.8235 0.0
H1280 H 0.77971 0.50558 0.87239 0.0
C1281 C 0.7166 0.49777 0.80095 0.0
C1282 C 0.79189 0.56528 0.14642 0.0
C1283 C 0.7606 0.57031 0.12315 0.0
H1284 H 0.84548 0.54 0.15146 0.0
C1285 C 0.75098 0.54221 0.09649 0.0
H1286 H 0.7996 0.58545 0.16815 0.0
C1287 C 0.77675 0.51475 0.08819 0.0
C1288 C 0.81234 0.51575 0.10594 0.0
H1289 H 0.7265 0.54447 0.07868 0.0
H1290 H 0.77122 0.49614 0.06475 0.0
C1291 C 0.8183 0.53902 0.13705 0.0
C1292 C 0.75086 0.55588 0.31784 0.0
C1293 C 0.72101 0.57028 0.29763 0.0
H1294 H 0.80769 0.56659 0.34042 0.0
C1295 C 0.72799 0.60544 0.28111 0.0
H1296 H 0.74688 0.52837 0.33 0.0
C1297 C 0.76247 0.6268 0.28667 0.0
C1298 C 0.79121 0.61404 0.3093 0.0
H1299 H 0.70637 0.61715 0.26439 0.0
H1300 H 0.76569 0.65439 0.27455 0.0
C1301 C 0.78591 0.5775 0.32331 0.0
C1302 C 0.67587 0.50543 0.57254 0.0
C1303 C 0.6531 0.47343 0.5608 0.0
H1304 H 0.67754 0.56338 0.58825 0.0
C1305 C 0.613 0.47492 0.55932 0.0
H1306 H 0.70701 0.5055 0.57285 0.0
C1307 C 0.59604 0.508 0.56912 0.0
C1308 C 0.61896 0.54047 0.57969 0.0
H1309 H 0.5949 0.45087 0.54971 0.0
H1310 H 0.56498 0.50824 0.56771 0.0
C1311 C 0.65903 0.53875 0.58122 0.0
C1312 C 0.6955 0.79106 0.58646 0.0
C1313 C 0.72555 0.80858 0.60764 0.0
H1314 H 0.65325 0.74446 0.58107 0.0
C1315 C 0.73612 0.79141 0.64012 0.0
H1316 H 0.68705 0.80325 0.56093 0.0
C1317 C 0.71688 0.75788 0.65147 0.0
C1318 C 0.68671 0.74034 0.63051 0.0
H1319 H 0.75936 0.80386 0.65689 0.0
H1320 H 0.72569 0.74575 0.6769 0.0
C1321 C 0.67644 0.75712 0.59767 0.0
C1322 C 0.14305 0.76691 0.48734 0.0
C1323 C 0.13386 0.7353 0.46435 0.0
H1324 H 0.16648 0.82433 0.48991 0.0
C1325 C 0.12992 0.74096 0.42653 0.0
H1326 H 0.14663 0.76356 0.51666 0.0
C1327 C 0.14042 0.77609 0.41149 0.0
C1328 C 0.15568 0.80598 0.43384 0.0
H1329 H 0.12302 0.71734 0.40812 0.0
H1330 H 0.14116 0.77853 0.38178 0.0
C1331 C 0.15444 0.80195 0.47212 0.0
C1332 C 0.50057 -0.002 0.70592 0.0
C1333 C 0.5354 0.01121 0.68901 0.0
H1334 H 0.44049 0.98178 0.6988 0.0
C1335 C 0.53571 0.01864 0.65116 0.0
H1336 H 0.4992 0.99279 0.73521 0.0
C1337 C 0.50221 0.01235 0.63052 0.0
C1338 C 0.46754 -0.00162 0.64718 0.0
H1339 H 0.56195 0.02919 0.63733 0.0
H1340 H 0.5038 0.01751 0.60122 0.0
C1341 C 0.46695 0.99172 0.68517 0.0
C1342 C 0.36198 0.3399 0.90022 0.0
C1343 C 0.34983 0.33476 0.9367 0.0
H1344 H 0.3683 0.31438 0.8471 0.0
C1345 C 0.33829 0.29847 0.94892 0.0
H1346 H 0.37023 0.36777 0.89017 0.0
C1347 C 0.33695 0.26783 0.92431 0.0
C1348 C 0.34694 0.27338 0.88723 0.0
H1349 H 0.32808 0.2942 0.97694 0.0
H1350 H 0.3256 0.24052 0.93365 0.0
C1351 C 0.36069 0.30939 0.87571 0.0
C1352 C 0.43031 0.55314 0.69778 0.0
C1353 C 0.44353 0.51762 0.70416 0.0
H1354 H 0.44407 0.60855 0.67725 0.0
C1355 C 0.48269 0.51202 0.69782 0.0
H1356 H 0.4004 0.55835 0.70279 0.0
C1357 C 0.50791 0.54106 0.68447 0.0
C1358 C 0.49427 0.57601 0.67643 0.0
H1359 H 0.49388 0.48513 0.70315 0.0
H1360 H 0.5376 0.53552 0.67871 0.0
C1361 C 0.45534 0.58191 0.68354 0.0
C1362 C 0.81795 0.29884 0.98709 0.0
C1363 C 0.77782 0.30013 0.98778 0.0
H1364 H 0.87081 0.31985 0.0119 0.0
C1365 C 0.76122 0.33067 0.00478 0.0
H1366 H 0.83117 0.27526 0.97436 0.0
C1367 C 0.78398 0.35675 0.02544 0.0
C1368 C 0.82315 0.35155 0.02997 0.0
H1369 H 0.73021 0.33186 0.00568 0.0
H1370 H 0.77 0.37743 0.04196 0.0
C1371 C 0.84058 0.3243 0.00857 0.0
C1372 C 0.51082 0.12668 0.79635 0.0
C1373 C 0.54855 0.13125 0.81033 0.0
H1374 H 0.45012 0.12416 0.80945 0.0
C1375 C 0.554 0.1455 0.84611 0.0
H1376 H 0.50592 0.11521 0.76889 0.0
C1377 C 0.52235 0.15136 0.8688 0.0
C1378 C 0.48455 0.14207 0.85661 0.0
H1379 H 0.58269 0.14912 0.85755 0.0
H1380 H 0.52761 0.15962 0.89724 0.0
C1381 C 0.47885 0.13183 0.8195 0.0
C1382 C 0.01058 0.92609 0.32333 0.0
C1383 C 0.97354 0.92346 0.33956 0.0
H1384 H 0.07111 0.93778 0.33277 0.0
C1385 C 0.96979 0.91894 0.37764 0.0
H1386 H 0.01416 0.92977 0.29391 0.0
C1387 C 0.00235 0.92298 0.39964 0.0
C1388 C 0.03877 0.93204 0.38377 0.0
H1389 H 0.94157 0.91685 0.39068 0.0
H1390 H -0.00149 0.92326 0.42929 0.0
C1391 C 0.04323 0.93085 0.34548 0.0
C1392 C 0.4415 0.35278 0.27268 0.0
C1393 C 0.41779 0.3285 0.25039 0.0
H1394 H 0.45016 0.37868 0.32574 0.0
C1395 C 0.38575 0.30866 0.26635 0.0
H1396 H 0.46711 0.36764 0.2614 0.0
C1397 C 0.376 0.31502 0.30318 0.0
C1398 C 0.39821 0.34127 0.32494 0.0
H1399 H 0.36747 0.28909 0.2501 0.0
H1400 H 0.34989 0.30067 0.31397 0.0
C1401 C 0.43208 0.35872 0.30972 0.0
C1402 C 0.42973 0.83398 0.99158 0.0
C1403 C 0.43009 0.82139 0.95462 0.0
H1404 H 0.43215 0.81837 0.0486 0.0
C1405 C 0.4292 0.78287 0.94697 0.0
H1406 H 0.43079 0.86371 -0.00186 0.0
C1407 C 0.43004 0.75744 0.97538 0.0
C1408 C 0.43211 0.76977 0.01231 0.0
H1409 H 0.42929 0.77243 0.91881 0.0
H1410 H 0.42992 0.72786 0.96824 0.0
C1411 C 0.43081 0.80821 0.02038 0.0
C1412 C 0.08142 0.76569 0.75403 0.0
C1413 C 0.04375 0.75103 0.74702 0.0
H1414 H 0.13227 0.76112 0.78564 0.0
C1415 C 0.02654 0.72297 0.76968 0.0
H1416 H 0.09495 0.7878 0.73719 0.0
C1417 C 0.04726 0.70869 0.79818 0.0
C1418 C 0.08593 0.7213 0.80356 0.0
H1419 H -0.00294 0.71199 0.76533 0.0
H1420 H 0.03356 0.68663 0.81491 0.0
C1421 C 0.10257 0.7506 0.78185 0.0
C1422 C 0.04449 0.46318 0.48269 0.0
C1423 C 0.05184 0.43193 0.46028 0.0
H1424 H 0.0491 0.48855 0.53664 0.0
C1425 C 0.07358 0.40395 0.47468 0.0
H1426 H 0.02783 0.48521 0.47245 0.0
C1427 C 0.08445 0.40529 0.51147 0.0
C1428 C 0.0748 0.43514 0.53445 0.0
H1429 H 0.07997 0.37952 0.45834 0.0
H1430 H 0.09969 0.38246 0.52219 0.0
C1431 C 0.05629 0.46495 0.51946 0.0
C1432 C 0.4864 0.75415 0.25795 0.0
C1433 C 0.47678 0.78618 0.27817 0.0
H1434 H 0.47455 0.71884 0.21018 0.0
C1435 C 0.44879 0.80834 0.26411 0.0
H1436 H 0.50837 0.73688 0.26778 0.0
C1437 C 0.42995 0.79827 0.23149 0.0
C1438 C 0.43879 0.76605 0.21147 0.0
H1439 H 0.44083 0.83335 0.2787 0.0
H1440 H 0.4074 0.81522 0.22245 0.0
C1441 C 0.46769 0.74428 0.22464 0.0
C1442 C 0.06789 0.72545 -0.00357 0.0
C1443 C 0.06479 0.71127 0.03239 0.0
H1444 H 0.06202 0.71258 0.93846 0.0
C1445 C 0.05982 0.67238 0.03713 0.0
H1446 H 0.07064 0.75547 0.99211 0.0
C1447 C 0.05598 0.64819 0.00668 0.0
C1448 C 0.05638 0.66232 0.97077 0.0
H1449 H 0.05678 0.66079 0.06449 0.0
H1450 H 0.05044 0.61837 0.01132 0.0
C1451 C 0.06318 0.70107 0.96576 0.0
C1452 C 0.09822 0.37355 0.767 0.0
C1453 C 0.10794 0.34231 0.78701 0.0
H1454 H 0.07595 0.3938 0.71766 0.0
C1455 C 0.103 0.30657 0.77007 0.0
H1456 H 0.10107 0.40153 0.77904 0.0
C1457 C 0.08712 0.30212 0.7349 0.0
C1458 C 0.07642 0.33337 0.71525 0.0
H1459 H 0.10948 0.28169 0.78482 0.0
H1460 H 0.08299 0.27404 0.72326 0.0
C1461 C 0.08249 0.36903 0.7319 0.0
C1462 C 0.52807 0.3829 0.50341 0.0
C1463 C 0.50293 0.37649 0.53349 0.0
H1464 H 0.53606 0.40676 0.44988 0.0
C1465 C 0.46514 0.38752 0.53166 0.0
H1466 H 0.5573 0.37437 0.50411 0.0
C1467 C 0.4533 0.40649 0.50093 0.0
C1468 C 0.4783 0.41275 0.47075 0.0
H1469 H 0.4454 0.3832 0.55475 0.0
H1470 H 0.42574 0.41864 0.5021 0.0
C1471 C 0.51575 0.40075 0.47221 0.0
C1472 C 0.26051 0.47351 0.31923 0.0
C1473 C 0.22248 0.47843 0.33077 0.0
H1474 H 0.31382 0.45033 0.33174 0.0
C1475 C 0.21128 0.47007 0.36703 0.0
H1476 H 0.2699 0.48048 0.29147 0.0
C1477 C 0.23639 0.45261 0.38993 0.0
C1478 C 0.2732 0.4445 0.3771 0.0
H1479 H 0.18221 0.47399 0.37652 0.0
H1480 H 0.22587 0.44244 0.41639 0.0
C1481 C 0.28594 0.45709 0.34248 0.0
C1482 C 0.31516 0.55522 0.04579 0.0
C1483 C 0.32842 0.53687 0.01403 0.0
H1484 H 0.31995 0.60513 0.0797 0.0
C1485 C 0.353 0.55711 0.98944 0.0
H1486 H 0.29521 0.5406 0.06467 0.0
C1487 C 0.36761 0.59346 -0.00144 0.0
C1488 C 0.35724 0.61056 0.03202 0.0
H1489 H 0.36309 0.54396 0.96443 0.0
H1490 H 0.38942 0.60711 0.98081 0.0
C1491 C 0.32892 0.59217 0.05428 0.0
C1492 C 0.25027 0.54105 0.85029 0.0
C1493 C 0.25569 0.52965 0.81349 0.0
H1494 H 0.22385 0.57959 0.88692 0.0
C1495 C 0.23242 0.5436 0.7862 0.0
H1496 H 0.26742 0.53051 0.87201 0.0
C1497 C 0.20693 0.57095 0.79497 0.0
C1498 C 0.20395 0.58462 0.83116 0.0
H1499 H 0.23546 0.53502 0.75766 0.0
H1500 H 0.19203 0.58374 0.7729 0.0
C1501 C 0.22481 0.56861 0.85898 0.0
C1502 C 0.22789 0.54092 0.61554 0.0
C1503 C 0.20841 0.55314 0.58468 0.0
H1504 H 0.2352 0.49599 0.65243 0.0
C1505 C 0.18825 0.52599 0.56234 0.0
H1506 H 0.24506 0.56063 0.63265 0.0
C1507 C 0.18393 0.48834 0.5731 0.0
C1508 C 0.19878 0.47747 0.60686 0.0
H1509 H 0.17434 0.53405 0.53745 0.0
H1510 H 0.16512 0.4689 0.55726 0.0
C1511 C 0.22347 0.50347 0.62624 0.0
C1512 C 0.26894 0.61228 0.22725 0.0
C1513 C 0.25686 0.58222 0.20394 0.0
H1514 H 0.30773 0.66074 0.23475 0.0
C1515 C 0.28037 0.57366 0.17347 0.0
H1516 H 0.25248 0.6188 0.2517 0.0
C1517 C 0.31269 0.59747 0.16414 0.0
C1518 C 0.32147 0.63025 0.18482 0.0
H1519 H 0.27267 0.54977 0.15566 0.0
H1520 H 0.32853 0.59206 0.13913 0.0
C1521 C 0.30118 0.63577 0.21799 0.0
C1522 C 0.14702 0.48033 0.97522 0.0
C1523 C 0.17632 0.46872 0.95159 0.0
H1524 H 0.10128 0.51713 0.98285 0.0
C1525 C 0.1792 0.48273 0.91565 0.0
H1526 H 0.14409 0.46992 0.00303 0.0
C1527 C 0.15541 0.5101 0.90462 0.0
C1528 C 0.12806 0.52348 0.92907 0.0
H1529 H 0.20134 0.47427 0.89671 0.0
H1530 H 0.15887 0.52144 0.87721 0.0
C1531 C 0.12274 0.50737 0.96385 0.0
C1532 C 0.23196 0.39285 0.75848 0.0
C1533 C 0.26448 0.3724 0.75244 0.0
H1534 H 0.17421 0.40119 0.7424 0.0
C1535 C 0.26186 0.34077 0.72921 0.0
H1536 H 0.23379 0.41789 0.77579 0.0
C1537 C 0.22749 0.33055 0.71097 0.0
C1538 C 0.19579 0.35275 0.71461 0.0
H1539 H 0.28691 0.32512 0.72378 0.0
H1540 H 0.22679 0.30693 0.69187 0.0
C1541 C 0.19799 0.38343 0.73928 0.0
C1542 C 0.34747 0.59547 0.48909 0.0
C1543 C 0.30822 0.59315 0.48015 0.0
H1544 H 0.4001 0.56845 0.48855 0.0
C1545 C 0.29173 0.56018 0.46338 0.0
H1546 H 0.36092 0.62034 0.50241 0.0
C1547 C 0.31418 0.52998 0.45595 0.0
C1548 C 0.35349 0.53245 0.46496 0.0
H1549 H 0.26134 0.55731 0.45689 0.0
H1550 H 0.301 0.50514 0.44236 0.0
C1551 C 0.36981 0.56551 0.48162 0.0
C1552 C 0.40441 0.27695 0.49086 0.0
C1553 C 0.37841 0.26263 0.51772 0.0
H1554 H 0.42089 0.32346 0.45632 0.0
C1555 C 0.35493 0.2872 0.53656 0.0
H1556 H 0.42267 0.25847 0.47597 0.0
C1557 C 0.35279 0.3239 0.52442 0.0
C1558 C 0.37529 0.33675 0.49435 0.0
H1559 H 0.33449 0.27673 0.55734 0.0
H1560 H 0.3304 0.3405 0.53551 0.0
C1561 C 0.40356 0.31424 0.47992 0.0
C1562 C 0.7742 0.29643 0.56234 0.0
C1563 C 0.80267 0.31807 0.54279 0.0
H1564 H 0.76228 0.25603 0.60467 0.0
C1565 C 0.84159 0.31142 0.54768 0.0
H1566 H 0.74392 0.30053 0.55881 0.0
C1567 C 0.85188 0.28568 0.57376 0.0
C1568 C 0.82357 0.26565 0.59461 0.0
H1569 H 0.86415 0.32787 0.53317 0.0
H1570 H 0.88182 0.28427 0.58039 0.0
C1571 C 0.78461 0.27047 0.58806 0.0
C1572 C 0.49437 0.03675 0.26548 0.0
C1573 C 0.47213 0.00458 0.27731 0.0
H1574 H 0.53677 0.08103 0.28035 0.0
C1575 C 0.47964 0.98967 0.3119 0.0
H1576 H 0.48955 0.0487 0.23886 0.0
C1577 C 0.50629 0.00819 0.33537 0.0
C1578 C 0.52664 0.04152 0.3245 0.0
H1579 H 0.46344 0.96474 0.32183 0.0
H1580 H 0.50959 -0.00249 0.36284 0.0
C1581 C 0.52167 0.05501 0.28894 0.0
C1582 C 0.63709 0.7728 0.06389 0.0
C1583 C 0.66003 0.75928 0.03535 0.0
H1584 H 0.62087 0.82113 0.09337 0.0
C1585 C 0.67301 0.78429 0.00751 0.0
H1586 H 0.62542 0.75412 0.08512 0.0
C1587 C 0.67127 0.82303 0.01312 0.0
C1588 C 0.65763 0.83664 0.04693 0.0
H1589 H 0.68992 0.77475 0.98446 0.0
H1590 H 0.68808 0.84179 0.99496 0.0
C1591 C 0.63426 0.81152 0.06844 0.0
C1592 C 0.47192 0.53381 0.29266 0.0
C1593 C 0.49426 0.50359 0.28384 0.0
H1594 H 0.4192 0.55006 0.31651 0.0
C1595 C 0.47555 0.46747 0.28039 0.0
H1596 H 0.48466 0.5624 0.29303 0.0
C1597 C 0.43736 0.46106 0.29274 0.0
C1598 C 0.41985 0.48975 0.3119 0.0
H1599 H 0.49115 0.44383 0.27119 0.0
H1600 H 0.42516 0.43249 0.2946 0.0
C1601 C 0.43372 0.52687 0.30458 0.0
C1602 C 0.19277 0.77737 0.98006 0.0
C1603 C 0.17249 0.80417 0.96175 0.0
H1604 H 0.20555 0.71942 0.98178 0.0
C1605 C 0.14248 0.7921 0.93821 0.0
H1606 H 0.21671 0.78625 -0.00225 0.0
C1607 C 0.1355 0.75402 0.93002 0.0
C1608 C 0.15878 0.72749 0.94479 0.0
H1609 H 0.12705 0.81228 0.92332 0.0
H1610 H 0.11517 0.74592 0.90843 0.0
C1611 C 0.18642 0.73916 0.97108 0.0
C1612 C 0.48314 0.88179 0.18948 0.0
C1613 C 0.45764 0.88895 0.16092 0.0
H1614 H 0.54033 0.89273 0.21 0.0
C1615 C 0.47298 0.89812 0.12619 0.0
H1616 H 0.47215 0.87481 0.21672 0.0
C1617 C 0.51268 0.9063 0.12194 0.0
C1618 C 0.53692 0.90763 0.15285 0.0
H1619 H 0.45408 0.9037 0.10373 0.0
H1620 H 0.5229 0.91852 0.09625 0.0
C1621 C 0.52261 0.89173 0.18564 0.0
C1622 C 0.02277 0.13429 0.7114 0.0
C1623 C 0.0621 0.13289 0.70253 0.0
H1624 H 0.96716 0.14637 0.69168 0.0
C1625 C 0.07742 0.15191 0.67183 0.0
H1626 H 0.01056 0.11958 0.73516 0.0
C1627 C 0.05292 0.16855 0.64792 0.0
C1628 C 0.01271 0.16451 0.65349 0.0
H1629 H 0.10769 0.15123 0.66474 0.0
H1630 H 0.06501 0.18028 0.62262 0.0
C1631 C -0.00203 0.14984 0.68674 0.0
loop_
_geom_bond_atom_site_label_1
_geom_bond_atom_site_label_2
_geom_bond_distance
_geom_bond_site_symmetry_2
_ccdc_geom_bond_type
C0 O1 1.306 . S
C0 O3 1.160 1_655 S
O1 C0 1.306 . S
O1 Cd2 2.228 . S
Cd2 O1 2.228 . S
Cd2 O6 2.273 . S
Cd2 O10 2.277 1_655 S
O3 C0 1.160 1_455 S
O3 Cd4 2.203 . S
Cd4 O3 2.203 . S
Cd4 O6 2.411 1_455 S
Cd4 O7 2.333 . S
Cd4 O8 2.352 . S
Cd4 O12 2.277 . S
Cd4 O13 2.356 . S
C5 O10 1.209 . S
C5 O12 1.226 . S
O6 Cd2 2.273 . S
O6 Cd4 2.411 1_655 S
O6 C9 1.320 . S
O7 Cd4 2.333 . S
O7 C9 1.214 1_455 S
O8 Cd4 2.352 . S
O8 C11 1.258 . S
C9 O6 1.320 . S
C9 O7 1.214 1_655 S
O10 Cd2 2.277 1_455 S
O10 C5 1.209 . S
C11 O8 1.258 . S
C11 O13 1.282 . S
O12 Cd4 2.277 . S
O12 C5 1.226 . S
O13 Cd4 2.356 . S
O13 C11 1.282 . S
C14 O15 1.306 . S
C14 O17 1.160 . S
O15 C14 1.306 . S
O15 Cd16 2.228 1_455 S
Cd16 O15 2.228 1_655 S
Cd16 O20 2.273 . S
Cd16 O24 2.277 . S
O17 C14 1.160 . S
O17 Cd18 2.203 . S
Cd18 O17 2.203 . S
Cd18 O20 2.411 1_455 S
Cd18 O21 2.333 1_455 S
Cd18 O22 2.352 . S
Cd18 O26 2.277 1_455 S
Cd18 O27 2.356 . S
C19 O24 1.209 . S
C19 O26 1.226 . S
O20 Cd16 2.273 . S
O20 Cd18 2.411 1_655 S
O20 C23 1.320 . S
O21 Cd18 2.333 1_655 S
O21 C23 1.214 . S
O22 Cd18 2.352 . S
O22 C25 1.258 . S
C23 O20 1.320 . S
C23 O21 1.214 . S
O24 Cd16 2.277 . S
O24 C19 1.209 . S
C25 O22 1.258 . S
C25 O27 1.282 . S
O26 Cd18 2.277 1_655 S
O26 C19 1.226 . S
O27 Cd18 2.356 . S
O27 C25 1.282 . S
C28 O29 1.306 . S
C28 O31 1.160 . S
O29 C28 1.306 . S
O29 Cd30 2.228 . S
Cd30 O29 2.228 . S
Cd30 O34 2.273 . S
Cd30 O38 2.277 . S
O31 C28 1.160 . S
O31 Cd32 2.203 . S
Cd32 O31 2.203 . S
Cd32 O34 2.411 . S
Cd32 O35 2.333 . S
Cd32 O36 2.352 . S
Cd32 O40 2.277 . S
Cd32 O41 2.356 . S
C33 O38 1.209 . S
C33 O40 1.226 . S
O34 Cd30 2.273 . S
O34 Cd32 2.411 . S
O34 C37 1.320 . S
O35 Cd32 2.333 . S
O35 C37 1.214 . S
O36 Cd32 2.352 . S
O36 C39 1.258 . S
C37 O34 1.320 . S
C37 O35 1.214 . S
O38 Cd30 2.277 . S
O38 C33 1.209 . S
C39 O36 1.258 . S
C39 O41 1.282 . S
O40 Cd32 2.277 . S
O40 C33 1.226 . S
O41 Cd32 2.356 . S
O41 C39 1.282 . S
C42 O43 1.306 . S
C42 O45 1.160 . S
O43 C42 1.306 . S
O43 Cd44 2.228 . S
Cd44 O43 2.228 . S
Cd44 O48 2.273 . S
Cd44 O52 2.277 . S
O45 C42 1.160 . S
O45 Cd46 2.203 . S
Cd46 O45 2.203 . S
Cd46 O48 2.411 . S
Cd46 O49 2.333 . S
Cd46 O50 2.352 . S
Cd46 O54 2.277 . S
Cd46 O55 2.356 . S
C47 O52 1.209 . S
C47 O54 1.226 . S
O48 Cd44 2.273 . S
O48 Cd46 2.411 . S
O48 C51 1.320 . S
O49 Cd46 2.333 . S
O49 C51 1.214 . S
O50 Cd46 2.352 . S
O50 C53 1.258 . S
C51 O48 1.320 . S
C51 O49 1.214 . S
O52 Cd44 2.277 . S
O52 C47 1.209 . S
C53 O50 1.258 . S
C53 O55 1.282 . S
O54 Cd46 2.277 . S
O54 C47 1.226 . S
O55 Cd46 2.356 . S
O55 C53 1.282 . S
C56 O57 1.306 . S
C56 O59 1.160 . S
O57 C56 1.306 . S
O57 Cd58 2.228 . S
Cd58 O57 2.228 . S
Cd58 O62 2.273 . S
Cd58 O66 2.277 . S
O59 C56 1.160 . S
O59 Cd60 2.203 1_655 S
Cd60 O59 2.203 1_455 S
Cd60 O62 2.411 1_455 S
Cd60 O63 2.333 . S
Cd60 O64 2.349 1_455 S
Cd60 O68 2.277 . S
Cd60 O69 2.356 . S
C61 O66 1.209 1_455 S
C61 O68 1.226 . S
O62 Cd58 2.273 . S
O62 Cd60 2.411 1_655 S
O62 C65 1.320 . S
O63 Cd60 2.333 . S
O63 C65 1.214 1_455 S
O64 Cd60 2.349 1_655 S
O64 C67 1.235 1_655 S
C65 O62 1.320 . S
C65 O63 1.214 1_655 S
O66 Cd58 2.277 . S
O66 C61 1.209 1_655 S
C67 O64 1.235 1_455 S
C67 O69 1.282 . S
O68 Cd60 2.277 . S
O68 C61 1.226 . S
O69 Cd60 2.356 . S
O69 C67 1.282 . S
C70 O71 1.306 . S
C70 O73 1.160 . S
O71 C70 1.306 . S
O71 Cd72 2.228 . S
Cd72 O71 2.228 . S
Cd72 O76 2.273 . S
Cd72 O80 2.277 . S
O73 C70 1.160 . S
O73 Cd74 2.203 . S
Cd74 O73 2.203 . S
Cd74 O76 2.411 . S
Cd74 O77 2.333 . S
Cd74 O78 2.352 . S
Cd74 O82 2.277 . S
Cd74 O83 2.356 . S
C75 O80 1.209 . S
C75 O82 1.226 . S
O76 Cd72 2.273 . S
O76 Cd74 2.411 . S
O76 C79 1.320 . S
O77 Cd74 2.333 . S
O77 C79 1.214 . S
O78 Cd74 2.352 . S
O78 C81 1.258 . S
C79 O76 1.320 . S
C79 O77 1.214 . S
O80 Cd72 2.277 . S
O80 C75 1.209 . S
C81 O78 1.258 . S
C81 O83 1.282 . S
O82 Cd74 2.277 . S
O82 C75 1.226 . S
O83 Cd74 2.356 . S
O83 C81 1.282 . S
C84 O85 1.306 . S
C84 O87 1.160 . S
O85 C84 1.306 . S
O85 Cd86 2.228 . S
Cd86 O85 2.228 . S
Cd86 O90 2.273 . S
Cd86 O94 2.277 . S
O87 C84 1.160 . S
O87 Cd88 2.203 . S
Cd88 O87 2.203 . S
Cd88 O90 2.411 . S
Cd88 O91 2.333 . S
Cd88 O92 2.352 . S
Cd88 O96 2.277 . S
Cd88 O97 2.356 . S
C89 O94 1.209 . S
C89 O96 1.226 . S
O90 Cd86 2.273 . S
O90 Cd88 2.411 . S
O90 C93 1.320 . S
O91 Cd88 2.333 . S
O91 C93 1.214 . S
O92 Cd88 2.352 . S
O92 C95 1.258 . S
C93 O90 1.320 . S
C93 O91 1.214 . S
O94 Cd86 2.277 . S
O94 C89 1.209 . S
C95 O92 1.258 . S
C95 O97 1.282 . S
O96 Cd88 2.277 . S
O96 C89 1.226 . S
O97 Cd88 2.356 . S
O97 C95 1.282 . S
C98 O99 1.306 . S
C98 O101 1.160 . S
O99 C98 1.306 . S
O99 Cd100 2.228 1_455 S
Cd100 O99 2.228 1_655 S
Cd100 O104 2.273 1_655 S
Cd100 O108 2.277 . S
O101 C98 1.160 . S
O101 Cd102 2.203 . S
Cd102 O101 2.203 . S
Cd102 O104 2.411 . S
Cd102 O105 2.333 1_455 S
Cd102 O106 2.352 . S
Cd102 O110 2.271 1_455 S
Cd102 O111 2.356 . S
C103 O108 1.209 . S
C103 O110 1.232 . S
O104 Cd100 2.273 1_455 S
O104 Cd102 2.411 . S
O104 C107 1.320 1_455 S
O105 Cd102 2.333 1_655 S
O105 C107 1.214 . S
O106 Cd102 2.352 . S
O106 C109 1.258 . S
C107 O104 1.320 1_655 S
C107 O105 1.214 . S
O108 Cd100 2.277 . S
O108 C103 1.209 . S
C109 O106 1.258 . S
C109 O111 1.282 . S
O110 Cd102 2.271 1_655 S
O110 C103 1.232 . S
O111 Cd102 2.356 . S
O111 C109 1.282 . S
C112 O113 1.306 . S
C112 O115 1.160 . S
O113 C112 1.306 . S
O113 Cd114 2.228 . S
Cd114 O113 2.228 . S
Cd114 O118 2.273 . S
Cd114 O122 2.277 . S
O115 C112 1.160 . S
O115 Cd116 2.203 1_565 S
Cd116 O115 2.203 1_545 S
Cd116 O118 2.411 1_545 S
Cd116 O119 2.333 . S
Cd116 O120 2.352 . S
Cd116 O124 2.277 . S
Cd116 O125 2.356 . S
C117 O122 1.209 1_545 S
C117 O124 1.226 . S
O118 Cd114 2.273 . S
O118 Cd116 2.411 1_565 S
O118 C121 1.320 . S
O119 Cd116 2.333 . S
O119 C121 1.214 1_545 S
O120 Cd116 2.352 . S
O120 C123 1.258 . S
C121 O118 1.320 . S
C121 O119 1.214 1_565 S
O122 Cd114 2.277 . S
O122 C117 1.209 1_565 S
C123 O120 1.258 . S
C123 O125 1.282 . S
O124 Cd116 2.277 . S
O124 C117 1.226 . S
O125 Cd116 2.356 . S
O125 C123 1.282 . S
C126 O127 1.306 . S
C126 O129 1.160 . S
O127 C126 1.306 . S
O127 Cd128 2.228 . S
Cd128 O127 2.228 . S
Cd128 O132 2.273 . S
Cd128 O136 2.277 . S
O129 C126 1.160 . S
O129 Cd130 2.203 . S
Cd130 O129 2.203 . S
Cd130 O132 2.411 . S
Cd130 O133 2.333 . S
Cd130 O134 2.352 . S
Cd130 O138 2.277 . S
Cd130 O139 2.356 . S
C131 O136 1.209 . S
C131 O138 1.226 . S
O132 Cd128 2.273 . S
O132 Cd130 2.411 . S
O132 C135 1.320 . S
O133 Cd130 2.333 . S
O133 C135 1.214 . S
O134 Cd130 2.352 . S
O134 C137 1.258 . S
C135 O132 1.320 . S
C135 O133 1.214 . S
O136 Cd128 2.277 . S
O136 C131 1.209 . S
C137 O134 1.258 . S
C137 O139 1.282 . S
O138 Cd130 2.277 . S
O138 C131 1.226 . S
O139 Cd130 2.356 . S
O139 C137 1.282 . S
C140 O141 1.306 . S
C140 O143 1.160 . S
O141 C140 1.306 . S
O141 Cd142 2.228 1_545 S
Cd142 O141 2.228 1_565 S
Cd142 O146 2.273 1_565 S
Cd142 O150 2.277 1_565 S
O143 C140 1.160 . S
O143 Cd144 2.203 . S
Cd144 O143 2.203 . S
Cd144 O146 2.411 . S
Cd144 O147 2.333 . S
Cd144 O148 2.352 . S
Cd144 O152 2.277 . S
Cd144 O153 2.356 . S
C145 O150 1.209 . S
C145 O152 1.226 . S
O146 Cd142 2.273 1_545 S
O146 Cd144 2.411 . S
O146 C149 1.320 . S
O147 Cd144 2.333 . S
O147 C149 1.214 . S
O148 Cd144 2.352 . S
O148 C151 1.258 . S
C149 O146 1.320 . S
C149 O147 1.214 . S
O150 Cd142 2.277 1_545 S
O150 C145 1.209 . S
C151 O148 1.258 . S
C151 O153 1.282 . S
O152 Cd144 2.277 . S
O152 C145 1.226 . S
O153 Cd144 2.356 . S
O153 C151 1.282 . S
C154 O155 1.306 . S
C154 O157 1.160 . S
O155 C154 1.306 . S
O155 Cd156 2.228 1_554 S
Cd156 O155 2.228 1_556 S
Cd156 O160 2.273 . S
Cd156 O164 2.277 . S
O157 C154 1.160 . S
O157 Cd158 2.203 . S
Cd158 O157 2.203 . S
Cd158 O160 2.411 1_554 S
Cd158 O161 2.333 1_554 S
Cd158 O162 2.352 . S
Cd158 O166 2.277 1_554 S
Cd158 O167 2.356 . S
C159 O164 1.209 . S
C159 O166 1.226 . S
O160 Cd156 2.273 . S
O160 Cd158 2.411 1_556 S
O160 C163 1.320 . S
O161 Cd158 2.333 1_556 S
O161 C163 1.214 . S
O162 Cd158 2.352 . S
O162 C165 1.258 . S
C163 O160 1.320 . S
C163 O161 1.214 . S
O164 Cd156 2.277 . S
O164 C159 1.209 . S
C165 O162 1.258 . S
C165 O167 1.282 . S
O166 Cd158 2.277 1_556 S
O166 C159 1.226 . S
O167 Cd158 2.356 . S
O167 C165 1.282 . S
C168 O169 1.306 . S
C168 O171 1.160 . S
O169 C168 1.306 . S
O169 Cd170 2.228 . S
Cd170 O169 2.228 . S
Cd170 O174 2.273 . S
Cd170 O178 2.277 . S
O171 C168 1.160 . S
O171 Cd172 2.203 1_554 S
Cd172 O171 2.203 1_556 S
Cd172 O174 2.411 1_556 S
Cd172 O175 2.333 1_556 S
Cd172 O176 2.352 1_556 S
Cd172 O180 2.277 . S
Cd172 O181 2.356 . S
C173 O178 1.209 1_556 S
C173 O180 1.226 . S
O174 Cd170 2.273 . S
O174 Cd172 2.411 1_554 S
O174 C177 1.320 . S
O175 Cd172 2.333 1_554 S
O175 C177 1.212 . S
O176 Cd172 2.352 1_554 S
O176 C179 1.258 1_554 S
C177 O174 1.320 . S
C177 O175 1.212 . S
O178 Cd170 2.277 . S
O178 C173 1.209 1_554 S
C179 O176 1.258 1_556 S
C179 O181 1.282 . S
O180 Cd172 2.277 . S
O180 C173 1.226 . S
O181 Cd172 2.356 . S
O181 C179 1.282 . S
C182 O183 1.306 . S
C182 O185 1.160 . S
O183 C182 1.306 . S
O183 Cd184 2.228 . S
Cd184 O183 2.228 . S
Cd184 O188 2.273 . S
Cd184 O192 2.277 . S
O185 C182 1.160 . S
O185 Cd186 2.203 1_554 S
Cd186 O185 2.203 1_556 S
Cd186 O188 2.411 1_556 S
Cd186 O189 2.333 . S
Cd186 O190 2.348 1_556 S
Cd186 O194 2.277 . S
Cd186 O195 2.356 . S
C187 O192 1.209 1_556 S
C187 O194 1.226 . S
O188 Cd184 2.273 . S
O188 Cd186 2.411 1_554 S
O188 C191 1.320 . S
O189 Cd186 2.333 . S
O189 C191 1.214 1_556 S
O190 Cd186 2.348 1_554 S
O190 C193 1.227 1_554 S
C191 O188 1.320 . S
C191 O189 1.214 1_554 S
O192 Cd184 2.277 . S
O192 C187 1.209 1_554 S
C193 O190 1.227 1_556 S
C193 O195 1.282 . S
O194 Cd186 2.277 . S
O194 C187 1.226 . S
O195 Cd186 2.356 . S
O195 C193 1.282 . S
C196 O197 1.306 . S
C196 O199 1.160 . S
O197 C196 1.306 . S
O197 Cd198 2.228 . S
Cd198 O197 2.228 . S
Cd198 O202 2.273 . S
Cd198 O206 2.277 . S
O199 C196 1.160 . S
O199 Cd200 2.203 . S
Cd200 O199 2.203 . S
Cd200 O202 2.411 . S
Cd200 O203 2.333 . S
Cd200 O204 2.352 . S
Cd200 O208 2.277 . S
Cd200 O209 2.356 . S
C201 O206 1.209 . S
C201 O208 1.226 . S
O202 Cd198 2.273 . S
O202 Cd200 2.411 . S
O202 C205 1.320 . S
O203 Cd200 2.333 . S
O203 C205 1.214 . S
O204 Cd200 2.352 . S
O204 C207 1.258 . S
C205 O202 1.320 . S
C205 O203 1.214 . S
O206 Cd198 2.277 . S
O206 C201 1.209 . S
C207 O204 1.258 . S
C207 O209 1.282 . S
O208 Cd200 2.277 . S
O208 C201 1.226 . S
O209 Cd200 2.356 . S
O209 C207 1.282 . S
C210 O211 1.306 . S
C210 O213 1.160 . S
O211 C210 1.306 . S
O211 Cd212 2.228 . S
Cd212 O211 2.228 . S
Cd212 O216 2.273 . S
Cd212 O220 2.277 . S
O213 C210 1.160 . S
O213 Cd214 2.203 . S
Cd214 O213 2.203 . S
Cd214 O216 2.411 . S
Cd214 O217 2.333 . S
Cd214 O218 2.352 . S
Cd214 O222 2.277 . S
Cd214 O223 2.356 . S
C215 O220 1.209 . S
C215 O222 1.226 . S
O216 Cd212 2.273 . S
O216 Cd214 2.411 . S
O216 C219 1.320 . S
O217 Cd214 2.333 . S
O217 C219 1.214 . S
O218 Cd214 2.352 . S
O218 C221 1.258 . S
C219 O216 1.320 . S
C219 O217 1.214 . S
O220 Cd212 2.277 . S
O220 C215 1.209 . S
C221 O218 1.258 . S
C221 O223 1.282 . S
O222 Cd214 2.277 . S
O222 C215 1.226 . S
O223 Cd214 2.356 . S
O223 C221 1.282 . S
C224 O225 1.306 . S
C224 O227 1.160 . S
O225 C224 1.306 . S
O225 Cd226 2.228 1_545 S
Cd226 O225 2.228 1_565 S
Cd226 O230 2.273 . S
Cd226 O234 2.277 . S
O227 C224 1.160 . S
O227 Cd228 2.203 . S
Cd228 O227 2.203 . S
Cd228 O230 2.411 1_545 S
Cd228 O231 2.333 1_545 S
Cd228 O232 2.352 . S
Cd228 O236 2.277 1_545 S
Cd228 O237 2.356 . S
C229 O234 1.209 . S
C229 O236 1.226 . S
O230 Cd226 2.273 . S
O230 Cd228 2.411 1_565 S
O230 C233 1.320 . S
O231 Cd228 2.333 1_565 S
O231 C233 1.214 . S
O232 Cd228 2.352 . S
O232 C235 1.258 . S
C233 O230 1.320 . S
C233 O231 1.214 . S
O234 Cd226 2.277 . S
O234 C229 1.209 . S
C235 O232 1.258 . S
C235 O237 1.282 . S
O236 Cd228 2.277 1_565 S
O236 C229 1.226 . S
O237 Cd228 2.356 . S
O237 C235 1.282 . S
C238 O239 1.306 . S
C238 O241 1.160 . S
O239 C238 1.306 . S
O239 Cd240 2.228 . S
Cd240 O239 2.228 . S
Cd240 O244 2.273 . S
Cd240 O248 2.277 . S
O241 C238 1.160 . S
O241 Cd242 2.203 . S
Cd242 O241 2.203 . S
Cd242 O244 2.411 . S
Cd242 O245 2.333 . S
Cd242 O246 2.352 . S
Cd242 O250 2.277 . S
Cd242 O251 2.356 . S
C243 O248 1.209 . S
C243 O250 1.226 . S
O244 Cd240 2.273 . S
O244 Cd242 2.411 . S
O244 C247 1.320 . S
O245 Cd242 2.333 . S
O245 C247 1.214 . S
O246 Cd242 2.352 . S
O246 C249 1.258 . S
C247 O244 1.320 . S
C247 O245 1.214 . S
O248 Cd240 2.277 . S
O248 C243 1.209 . S
C249 O246 1.258 . S
C249 O251 1.282 . S
O250 Cd242 2.277 . S
O250 C243 1.226 . S
O251 Cd242 2.356 . S
O251 C249 1.282 . S
C252 O253 1.306 . S
C252 O255 1.160 . S
O253 C252 1.306 . S
O253 Cd254 2.228 . S
Cd254 O253 2.228 . S
Cd254 O258 2.273 . S
Cd254 O262 2.277 . S
O255 C252 1.160 . S
O255 Cd256 2.203 . S
Cd256 O255 2.203 . S
Cd256 O258 2.411 . S
Cd256 O259 2.333 . S
Cd256 O260 2.352 . S
Cd256 O264 2.277 . S
Cd256 O265 2.356 . S
C257 O262 1.209 . S
C257 O264 1.226 . S
O258 Cd254 2.273 . S
O258 Cd256 2.411 . S
O258 C261 1.320 . S
O259 Cd256 2.333 . S
O259 C261 1.214 . S
O260 Cd256 2.352 . S
O260 C263 1.258 . S
C261 O258 1.320 . S
C261 O259 1.214 . S
O262 Cd254 2.277 . S
O262 C257 1.209 . S
C263 O260 1.258 . S
C263 O265 1.282 . S
O264 Cd256 2.277 . S
O264 C257 1.226 . S
O265 Cd256 2.356 . S
O265 C263 1.282 . S
C266 O267 1.306 . S
C266 O269 1.160 . S
O267 C266 1.306 . S
O267 Cd268 2.228 . S
Cd268 O267 2.228 . S
Cd268 O272 2.273 . S
Cd268 O276 2.277 . S
O269 C266 1.160 . S
O269 Cd270 2.203 . S
Cd270 O269 2.203 . S
Cd270 O272 2.411 . S
Cd270 O273 2.333 . S
Cd270 O274 2.352 . S
Cd270 O278 2.277 . S
Cd270 O279 2.356 . S
C271 O276 1.209 . S
C271 O278 1.226 . S
O272 Cd268 2.273 . S
O272 Cd270 2.411 . S
O272 C275 1.320 . S
O273 Cd270 2.333 . S
O273 C275 1.214 . S
O274 Cd270 2.352 . S
O274 C277 1.258 . S
C275 O272 1.320 . S
C275 O273 1.214 . S
O276 Cd268 2.277 . S
O276 C271 1.209 . S
C277 O274 1.258 . S
C277 O279 1.282 . S
O278 Cd270 2.277 . S
O278 C271 1.226 . S
O279 Cd270 2.356 . S
O279 C277 1.282 . S
C280 O281 1.306 . S
C280 O283 1.160 . S
O281 C280 1.306 . S
O281 Cd282 2.228 1_554 S
Cd282 O281 2.228 1_556 S
Cd282 O286 2.273 . S
Cd282 O290 2.277 . S
O283 C280 1.160 . S
O283 Cd284 2.203 . S
Cd284 O283 2.203 . S
Cd284 O286 2.411 1_554 S
Cd284 O287 2.333 1_554 S
Cd284 O288 2.352 . S
Cd284 O292 2.277 1_554 S
Cd284 O293 2.356 . S
C285 O290 1.209 . S
C285 O292 1.226 . S
O286 Cd282 2.273 . S
O286 Cd284 2.411 1_556 S
O286 C289 1.320 . S
O287 Cd284 2.333 1_556 S
O287 C289 1.214 . S
O288 Cd284 2.352 . S
O288 C291 1.258 . S
C289 O286 1.320 . S
C289 O287 1.214 . S
O290 Cd282 2.277 . S
O290 C285 1.209 . S
C291 O288 1.258 . S
C291 O293 1.282 . S
O292 Cd284 2.277 1_556 S
O292 C285 1.226 . S
O293 Cd284 2.356 . S
O293 C291 1.282 . S
C294 O295 1.306 . S
C294 O297 1.160 . S
O295 C294 1.306 . S
O295 Cd296 2.228 . S
Cd296 O295 2.228 . S
Cd296 O300 2.273 . S
Cd296 O304 2.277 . S
O297 C294 1.160 . S
O297 Cd298 2.203 . S
Cd298 O297 2.203 . S
Cd298 O300 2.411 . S
Cd298 O301 2.333 . S
Cd298 O302 2.352 . S
Cd298 O306 2.277 . S
Cd298 O307 2.356 . S
C299 O304 1.209 . S
C299 O306 1.226 . S
O300 Cd296 2.273 . S
O300 Cd298 2.411 . S
O300 C303 1.320 . S
O301 Cd298 2.333 . S
O301 C303 1.214 . S
O302 Cd298 2.352 . S
O302 C305 1.258 . S
C303 O300 1.320 . S
C303 O301 1.214 . S
O304 Cd296 2.277 . S
O304 C299 1.209 . S
C305 O302 1.258 . S
C305 O307 1.282 . S
O306 Cd298 2.277 . S
O306 C299 1.226 . S
O307 Cd298 2.356 . S
O307 C305 1.282 . S
C308 O309 1.306 . S
C308 O311 1.160 . S
O309 C308 1.306 . S
O309 Cd310 2.228 . S
Cd310 O309 2.228 . S
Cd310 O314 2.273 . S
Cd310 O318 2.277 . S
O311 C308 1.160 . S
O311 Cd312 2.203 . S
Cd312 O311 2.203 . S
Cd312 O314 2.411 . S
Cd312 O315 2.333 . S
Cd312 O316 2.352 . S
Cd312 O320 2.277 . S
Cd312 O321 2.356 . S
C313 O318 1.209 . S
C313 O320 1.226 . S
O314 Cd310 2.273 . S
O314 Cd312 2.411 . S
O314 C317 1.320 . S
O315 Cd312 2.333 . S
O315 C317 1.214 . S
O316 Cd312 2.352 . S
O316 C319 1.258 . S
C317 O314 1.320 . S
C317 O315 1.214 . S
O318 Cd310 2.277 . S
O318 C313 1.209 . S
C319 O316 1.258 . S
C319 O321 1.282 . S
O320 Cd312 2.277 . S
O320 C313 1.226 . S
O321 Cd312 2.356 . S
O321 C319 1.282 . S
C322 O323 1.306 . S
C322 O325 1.160 . S
O323 C322 1.306 . S
O323 Cd324 2.228 . S
Cd324 O323 2.228 . S
Cd324 O328 2.273 . S
Cd324 O332 2.277 . S
O325 C322 1.160 . S
O325 Cd326 2.203 . S
Cd326 O325 2.203 . S
Cd326 O328 2.411 . S
Cd326 O329 2.333 . S
Cd326 O330 2.352 . S
Cd326 O334 2.277 . S
Cd326 O335 2.356 . S
C327 O332 1.209 . S
C327 O334 1.226 . S
O328 Cd324 2.273 . S
O328 Cd326 2.411 . S
O328 C331 1.320 . S
O329 Cd326 2.333 . S
O329 C331 1.214 . S
O330 Cd326 2.352 . S
O330 C333 1.258 . S
C331 O328 1.320 . S
C331 O329 1.214 . S
O332 Cd324 2.277 . S
O332 C327 1.209 . S
C333 O330 1.258 . S
C333 O335 1.282 . S
O334 Cd326 2.277 . S
O334 C327 1.226 . S
O335 Cd326 2.356 . S
O335 C333 1.282 . S
O336 Mn337 2.163 . S
O336 C350 1.244 . S
Mn337 O336 2.163 . S
Mn337 O340 2.160 . S
Mn337 O341 2.221 . S
Mn337 O343 2.163 . S
Mn337 O345 2.160 . S
Mn337 O355 2.221 . S
O338 Mn339 2.087 . S
O338 C350 1.256 . S
Mn339 O338 2.087 . S
Mn339 O346 2.089 . S
Mn339 O355 2.290 . S
Mn339 O356 2.251 . S
O340 Mn337 2.160 . S
O340 C351 1.239 . S
O341 Mn337 2.221 . S
O341 Mn342 2.290 . S
O341 C352 1.278 . S
Mn342 O341 2.290 . S
Mn342 O344 2.089 . S
Mn342 O347 2.251 . S
Mn342 O348 2.087 . S
O343 Mn337 2.163 . S
O343 C353 1.244 . S
O344 Mn342 2.089 . S
O344 C351 1.256 . S
O345 Mn337 2.160 . S
O345 C354 1.239 . S
O346 Mn339 2.089 . S
O346 C354 1.256 . S
O347 Mn342 2.251 . S
O347 C352 1.241 . S
O348 Mn342 2.087 . S
O348 C353 1.256 . S
C349 O355 1.278 . S
C349 O356 1.241 . S
C350 O336 1.244 . S
C350 O338 1.256 . S
C351 O340 1.239 . S
C351 O344 1.256 . S
C352 O341 1.278 . S
C352 O347 1.241 . S
C353 O343 1.244 . S
C353 O348 1.256 . S
C354 O345 1.239 . S
C354 O346 1.256 . S
O355 Mn337 2.221 . S
O355 Mn339 2.290 . S
O355 C349 1.278 . S
O356 Mn339 2.251 . S
O356 C349 1.241 . S
O357 Mn358 2.163 . S
O357 C371 1.244 . S
Mn358 O357 2.163 . S
Mn358 O361 2.160 . S
Mn358 O362 2.221 . S
Mn358 O364 2.163 . S
Mn358 O366 2.160 . S
Mn358 O376 2.221 . S
O359 Mn360 2.087 . S
O359 C371 1.256 . S
Mn360 O359 2.087 . S
Mn360 O367 2.089 . S
Mn360 O376 2.290 . S
Mn360 O377 2.251 . S
O361 Mn358 2.160 . S
O361 C372 1.239 . S
O362 Mn358 2.221 . S
O362 Mn363 2.290 . S
O362 C373 1.278 . S
Mn363 O362 2.290 . S
Mn363 O365 2.089 . S
Mn363 O368 2.251 . S
Mn363 O369 2.087 . S
O364 Mn358 2.163 . S
O364 C374 1.244 . S
O365 Mn363 2.089 . S
O365 C372 1.256 . S
O366 Mn358 2.160 . S
O366 C375 1.239 . S
O367 Mn360 2.089 . S
O367 C375 1.256 . S
O368 Mn363 2.251 . S
O368 C373 1.241 . S
O369 Mn363 2.087 . S
O369 C374 1.256 . S
C370 O376 1.278 . S
C370 O377 1.241 . S
C371 O357 1.244 . S
C371 O359 1.256 . S
C372 O361 1.239 . S
C372 O365 1.256 . S
C373 O362 1.278 . S
C373 O368 1.241 . S
C374 O364 1.244 . S
C374 O369 1.256 . S
C375 O366 1.239 . S
C375 O367 1.256 . S
O376 Mn358 2.221 . S
O376 Mn360 2.290 . S
O376 C370 1.278 . S
O377 Mn360 2.251 . S
O377 C370 1.241 . S
O378 Mn379 2.163 . S
O378 C392 1.244 . S
Mn379 O378 2.163 . S
Mn379 O382 2.160 . S
Mn379 O383 2.221 . S
Mn379 O385 2.163 . S
Mn379 O387 2.160 . S
Mn379 O397 2.221 . S
O380 Mn381 2.087 1_545 S
O380 C392 1.256 1_545 S
Mn381 O380 2.087 1_565 S
Mn381 O388 2.089 . S
Mn381 O397 2.290 . S
Mn381 O398 2.251 1_565 S
O382 Mn379 2.160 . S
O382 C393 1.239 . S
O383 Mn379 2.221 . S
O383 Mn384 2.290 . S
O383 C394 1.278 . S
Mn384 O383 2.290 . S
Mn384 O386 2.089 . S
Mn384 O389 2.251 . S
Mn384 O390 2.087 . S
O385 Mn379 2.163 . S
O385 C395 1.244 . S
O386 Mn384 2.089 . S
O386 C393 1.256 . S
O387 Mn379 2.160 . S
O387 C396 1.239 . S
O388 Mn381 2.089 . S
O388 C396 1.256 . S
O389 Mn384 2.251 . S
O389 C394 1.241 . S
O390 Mn384 2.087 . S
O390 C395 1.256 . S
C391 O397 1.278 . S
C391 O398 1.241 1_565 S
C392 O378 1.244 . S
C392 O380 1.256 1_565 S
C393 O382 1.239 . S
C393 O386 1.256 . S
C394 O383 1.278 . S
C394 O389 1.241 . S
C395 O385 1.244 . S
C395 O390 1.256 . S
C396 O387 1.239 . S
C396 O388 1.256 . S
O397 Mn379 2.221 . S
O397 Mn381 2.290 . S
O397 C391 1.278 . S
O398 Mn381 2.251 1_545 S
O398 C391 1.241 1_545 S
O399 Mn400 2.163 . S
O399 C413 1.244 . S
Mn400 O399 2.163 . S
Mn400 O403 2.160 . S
Mn400 O404 2.221 . S
Mn400 O406 2.163 . S
Mn400 O408 2.160 . S
Mn400 O418 2.221 . S
O401 Mn402 2.087 . S
O401 C413 1.256 . S
Mn402 O401 2.087 . S
Mn402 O409 2.089 . S
Mn402 O418 2.290 . S
Mn402 O419 2.251 . S
O403 Mn400 2.160 . S
O403 C414 1.239 . S
O404 Mn400 2.221 . S
O404 Mn405 2.290 . S
O404 C415 1.278 . S
Mn405 O404 2.290 . S
Mn405 O407 2.089 . S
Mn405 O410 2.251 . S
Mn405 O411 2.087 . S
O406 Mn400 2.163 . S
O406 C416 1.244 . S
O407 Mn405 2.089 . S
O407 C414 1.256 . S
O408 Mn400 2.160 . S
O408 C417 1.239 . S
O409 Mn402 2.089 . S
O409 C417 1.256 . S
O410 Mn405 2.251 . S
O410 C415 1.241 . S
O411 Mn405 2.087 . S
O411 C416 1.256 . S
C412 O418 1.278 . S
C412 O419 1.241 . S
C413 O399 1.244 . S
C413 O401 1.256 . S
C414 O403 1.239 . S
C414 O407 1.256 . S
C415 O404 1.278 . S
C415 O410 1.241 . S
C416 O406 1.244 . S
C416 O411 1.256 . S
C417 O408 1.239 . S
C417 O409 1.256 . S
O418 Mn400 2.221 . S
O418 Mn402 2.290 . S
O418 C412 1.278 . S
O419 Mn402 2.251 . S
O419 C412 1.241 . S
O420 Mn421 2.163 . S
O420 C434 1.244 . S
Mn421 O420 2.163 . S
Mn421 O424 2.160 . S
Mn421 O425 2.221 . S
Mn421 O427 2.163 . S
Mn421 O429 2.160 . S
Mn421 O439 2.221 . S
O422 Mn423 2.087 . S
O422 C434 1.256 . S
Mn423 O422 2.087 . S
Mn423 O430 2.089 . S
Mn423 O439 2.290 . S
Mn423 O440 2.251 . S
O424 Mn421 2.160 . S
O424 C435 1.239 . S
O425 Mn421 2.221 . S
O425 Mn426 2.290 . S
O425 C436 1.278 . S
Mn426 O425 2.290 . S
Mn426 O428 2.089 . S
Mn426 O431 2.251 . S
Mn426 O432 2.087 . S
O427 Mn421 2.163 . S
O427 C437 1.244 . S
O428 Mn426 2.089 . S
O428 C435 1.256 . S
O429 Mn421 2.160 . S
O429 C438 1.239 . S
O430 Mn423 2.089 . S
O430 C438 1.256 . S
O431 Mn426 2.251 . S
O431 C436 1.241 . S
O432 Mn426 2.087 . S
O432 C437 1.256 . S
C433 O439 1.278 . S
C433 O440 1.241 . S
C434 O420 1.244 . S
C434 O422 1.256 . S
C435 O424 1.239 . S
C435 O428 1.256 . S
C436 O425 1.278 . S
C436 O431 1.241 . S
C437 O427 1.244 . S
C437 O432 1.256 . S
C438 O429 1.239 . S
C438 O430 1.256 . S
O439 Mn421 2.221 . S
O439 Mn423 2.290 . S
O439 C433 1.278 . S
O440 Mn423 2.251 . S
O440 C433 1.241 . S
O441 Mn442 2.163 . S
O441 C455 1.244 . S
Mn442 O441 2.163 . S
Mn442 O445 2.160 . S
Mn442 O446 2.221 . S
Mn442 O448 2.163 . S
Mn442 O450 2.160 . S
Mn442 O460 2.221 . S
O443 Mn444 2.087 . S
O443 C455 1.256 . S
Mn444 O443 2.087 . S
Mn444 O451 2.089 . S
Mn444 O460 2.290 . S
Mn444 O461 2.251 . S
O445 Mn442 2.160 . S
O445 C456 1.239 . S
O446 Mn442 2.221 . S
O446 Mn447 2.290 . S
O446 C457 1.278 . S
Mn447 O446 2.290 . S
Mn447 O449 2.089 . S
Mn447 O452 2.251 . S
Mn447 O453 2.087 . S
O448 Mn442 2.163 . S
O448 C458 1.244 . S
O449 Mn447 2.089 . S
O449 C456 1.256 . S
O450 Mn442 2.160 . S
O450 C459 1.239 . S
O451 Mn444 2.089 . S
O451 C459 1.256 . S
O452 Mn447 2.251 . S
O452 C457 1.241 . S
O453 Mn447 2.087 . S
O453 C458 1.256 . S
C454 O460 1.278 . S
C454 O461 1.241 . S
C455 O441 1.244 . S
C455 O443 1.256 . S
C456 O445 1.239 . S
C456 O449 1.256 . S
C457 O446 1.278 . S
C457 O452 1.241 . S
C458 O448 1.244 . S
C458 O453 1.256 . S
C459 O450 1.239 . S
C459 O451 1.256 . S
O460 Mn442 2.221 . S
O460 Mn444 2.290 . S
O460 C454 1.278 . S
O461 Mn444 2.251 . S
O461 C454 1.241 . S
O462 Mn463 2.163 . S
O462 C476 1.244 . S
Mn463 O462 2.163 . S
Mn463 O466 2.160 . S
Mn463 O467 2.221 . S
Mn463 O469 2.163 . S
Mn463 O471 2.160 . S
Mn463 O481 2.221 . S
O464 Mn465 2.087 . S
O464 C476 1.256 . S
Mn465 O464 2.087 . S
Mn465 O472 2.089 . S
Mn465 O481 2.290 . S
Mn465 O482 2.251 . S
O466 Mn463 2.160 . S
O466 C477 1.239 . S
O467 Mn463 2.221 . S
O467 Mn468 2.290 . S
O467 C478 1.278 . S
Mn468 O467 2.290 . S
Mn468 O470 2.089 . S
Mn468 O473 2.251 . S
Mn468 O474 2.087 . S
O469 Mn463 2.163 . S
O469 C479 1.244 . S
O470 Mn468 2.089 . S
O470 C477 1.256 . S
O471 Mn463 2.160 . S
O471 C480 1.239 . S
O472 Mn465 2.089 . S
O472 C480 1.256 . S
O473 Mn468 2.251 . S
O473 C478 1.241 . S
O474 Mn468 2.087 . S
O474 C479 1.256 . S
C475 O481 1.278 . S
C475 O482 1.241 . S
C476 O462 1.244 . S
C476 O464 1.256 . S
C477 O466 1.239 . S
C477 O470 1.256 . S
C478 O467 1.278 . S
C478 O473 1.241 . S
C479 O469 1.244 . S
C479 O474 1.256 . S
C480 O471 1.239 . S
C480 O472 1.256 . S
O481 Mn463 2.221 . S
O481 Mn465 2.290 . S
O481 C475 1.278 . S
O482 Mn465 2.251 . S
O482 C475 1.241 . S
O483 Mn484 2.163 . S
O483 C497 1.244 . S
Mn484 O483 2.163 . S
Mn484 O487 2.160 . S
Mn484 O488 2.221 . S
Mn484 O490 2.163 . S
Mn484 O492 2.160 . S
Mn484 O502 2.221 . S
O485 Mn486 2.087 . S
O485 C497 1.256 . S
Mn486 O485 2.087 . S
Mn486 O493 2.089 . S
Mn486 O502 2.290 . S
Mn486 O503 2.251 . S
O487 Mn484 2.160 . S
O487 C498 1.239 . S
O488 Mn484 2.221 . S
O488 Mn489 2.290 . S
O488 C499 1.278 . S
Mn489 O488 2.290 . S
Mn489 O491 2.089 1_565 S
Mn489 O494 2.251 . S
Mn489 O495 2.087 . S
O490 Mn484 2.163 . S
O490 C500 1.244 . S
O491 Mn489 2.089 1_545 S
O491 C498 1.256 1_545 S
O492 Mn484 2.160 . S
O492 C501 1.239 . S
O493 Mn486 2.089 . S
O493 C501 1.256 . S
O494 Mn489 2.251 . S
O494 C499 1.241 . S
O495 Mn489 2.087 . S
O495 C500 1.256 . S
C496 O502 1.278 . S
C496 O503 1.241 . S
C497 O483 1.244 . S
C497 O485 1.256 . S
C498 O487 1.239 . S
C498 O491 1.256 1_565 S
C499 O488 1.278 . S
C499 O494 1.241 . S
C500 O490 1.244 . S
C500 O495 1.256 . S
C501 O492 1.239 . S
C501 O493 1.256 . S
O502 Mn484 2.221 . S
O502 Mn486 2.290 . S
O502 C496 1.278 . S
O503 Mn486 2.251 . S
O503 C496 1.241 . S
O504 Mn505 2.163 . S
O504 C518 1.244 . S
Mn505 O504 2.163 . S
Mn505 O508 2.160 . S
Mn505 O509 2.221 . S
Mn505 O511 2.163 . S
Mn505 O513 2.160 . S
Mn505 O523 2.221 . S
O506 Mn507 2.087 . S
O506 C518 1.256 . S
Mn507 O506 2.087 . S
Mn507 O514 2.089 . S
Mn507 O523 2.290 . S
Mn507 O524 2.251 . S
O508 Mn505 2.160 . S
O508 C519 1.239 . S
O509 Mn505 2.221 . S
O509 Mn510 2.290 . S
O509 C520 1.278 . S
Mn510 O509 2.290 . S
Mn510 O512 2.089 . S
Mn510 O515 2.251 . S
Mn510 O516 2.087 . S
O511 Mn505 2.163 . S
O511 C521 1.244 . S
O512 Mn510 2.089 . S
O512 C519 1.256 . S
O513 Mn505 2.160 . S
O513 C522 1.239 . S
O514 Mn507 2.089 . S
O514 C522 1.256 . S
O515 Mn510 2.251 . S
O515 C520 1.241 . S
O516 Mn510 2.087 . S
O516 C521 1.256 . S
C517 O523 1.278 . S
C517 O524 1.241 . S
C518 O504 1.244 . S
C518 O506 1.256 . S
C519 O508 1.239 . S
C519 O512 1.256 . S
C520 O509 1.278 . S
C520 O515 1.241 . S
C521 O511 1.244 . S
C521 O516 1.256 . S
C522 O513 1.239 . S
C522 O514 1.256 . S
O523 Mn505 2.221 . S
O523 Mn507 2.290 . S
O523 C517 1.278 . S
O524 Mn507 2.251 . S
O524 C517 1.241 . S
O525 Mn526 2.163 . S
O525 C539 1.244 . S
Mn526 O525 2.163 . S
Mn526 O529 2.160 . S
Mn526 O530 2.221 . S
Mn526 O532 2.163 . S
Mn526 O534 2.160 . S
Mn526 O544 2.221 . S
O527 Mn528 2.087 . S
O527 C539 1.256 . S
Mn528 O527 2.087 . S
Mn528 O535 2.089 . S
Mn528 O544 2.290 . S
Mn528 O545 2.251 . S
O529 Mn526 2.160 . S
O529 C540 1.239 . S
O530 Mn526 2.221 . S
O530 Mn531 2.290 . S
O530 C541 1.278 . S
Mn531 O530 2.290 . S
Mn531 O533 2.089 . S
Mn531 O536 2.251 . S
Mn531 O537 2.087 . S
O532 Mn526 2.163 . S
O532 C542 1.244 . S
O533 Mn531 2.089 . S
O533 C540 1.256 . S
O534 Mn526 2.160 . S
O534 C543 1.239 . S
O535 Mn528 2.089 . S
O535 C543 1.256 . S
O536 Mn531 2.251 . S
O536 C541 1.241 . S
O537 Mn531 2.087 . S
O537 C542 1.256 . S
C538 O544 1.278 . S
C538 O545 1.241 . S
C539 O525 1.244 . S
C539 O527 1.256 . S
C540 O529 1.239 . S
C540 O533 1.256 . S
C541 O530 1.278 . S
C541 O536 1.241 . S
C542 O532 1.244 . S
C542 O537 1.256 . S
C543 O534 1.239 . S
C543 O535 1.256 . S
O544 Mn526 2.221 . S
O544 Mn528 2.290 . S
O544 C538 1.278 . S
O545 Mn528 2.251 . S
O545 C538 1.241 . S
O546 Mn547 2.163 . S
O546 C560 1.244 . S
Mn547 O546 2.163 . S
Mn547 O550 2.160 . S
Mn547 O551 2.221 . S
Mn547 O553 2.163 . S
Mn547 O555 2.160 . S
Mn547 O565 2.221 . S
O548 Mn549 2.087 . S
O548 C560 1.256 . S
Mn549 O548 2.087 . S
Mn549 O556 2.089 . S
Mn549 O565 2.290 . S
Mn549 O566 2.251 . S
O550 Mn547 2.160 . S
O550 C561 1.239 . S
O551 Mn547 2.221 . S
O551 Mn552 2.290 . S
O551 C562 1.278 . S
Mn552 O551 2.290 . S
Mn552 O554 2.089 . S
Mn552 O557 2.251 . S
Mn552 O558 2.087 . S
O553 Mn547 2.163 . S
O553 C563 1.244 . S
O554 Mn552 2.089 . S
O554 C561 1.256 . S
O555 Mn547 2.160 . S
O555 C564 1.239 . S
O556 Mn549 2.089 . S
O556 C564 1.256 . S
O557 Mn552 2.251 . S
O557 C562 1.241 . S
O558 Mn552 2.087 . S
O558 C563 1.256 . S
C559 O565 1.278 . S
C559 O566 1.241 . S
C560 O546 1.244 . S
C560 O548 1.256 . S
C561 O550 1.239 . S
C561 O554 1.256 . S
C562 O551 1.278 . S
C562 O557 1.241 . S
C563 O553 1.244 . S
C563 O558 1.256 . S
C564 O555 1.239 . S
C564 O556 1.256 . S
O565 Mn547 2.221 . S
O565 Mn549 2.290 . S
O565 C559 1.278 . S
O566 Mn549 2.251 . S
O566 C559 1.241 . S
O567 Mn568 2.163 . S
O567 C581 1.244 . S
Mn568 O567 2.163 . S
Mn568 O571 2.160 . S
Mn568 O572 2.221 . S
Mn568 O574 2.163 . S
Mn568 O576 2.160 . S
Mn568 O586 2.221 . S
O569 Mn570 2.087 . S
O569 C581 1.256 . S
Mn570 O569 2.087 . S
Mn570 O577 2.089 . S
Mn570 O586 2.290 . S
Mn570 O587 2.251 . S
O571 Mn568 2.160 . S
O571 C582 1.239 . S
O572 Mn568 2.221 . S
O572 Mn573 2.290 . S
O572 C583 1.278 . S
Mn573 O572 2.290 . S
Mn573 O575 2.089 . S
Mn573 O578 2.251 . S
Mn573 O579 2.087 . S
O574 Mn568 2.163 . S
O574 C584 1.244 . S
O575 Mn573 2.089 . S
O575 C582 1.256 . S
O576 Mn568 2.160 . S
O576 C585 1.239 . S
O577 Mn570 2.089 . S
O577 C585 1.256 . S
O578 Mn573 2.251 . S
O578 C583 1.241 . S
O579 Mn573 2.087 . S
O579 C584 1.256 . S
C580 O586 1.278 . S
C580 O587 1.241 . S
C581 O567 1.244 . S
C581 O569 1.256 . S
C582 O571 1.239 . S
C582 O575 1.256 . S
C583 O572 1.278 . S
C583 O578 1.241 . S
C584 O574 1.244 . S
C584 O579 1.256 . S
C585 O576 1.239 . S
C585 O577 1.256 . S
O586 Mn568 2.221 . S
O586 Mn570 2.290 . S
O586 C580 1.278 . S
O587 Mn570 2.251 . S
O587 C580 1.241 . S
O588 Mn589 2.163 . S
O588 C602 1.244 . S
Mn589 O588 2.163 . S
Mn589 O592 2.160 . S
Mn589 O593 2.221 . S
Mn589 O595 2.163 . S
Mn589 O597 2.160 . S
Mn589 O607 2.221 . S
O590 Mn591 2.087 . S
O590 C602 1.256 . S
Mn591 O590 2.087 . S
Mn591 O598 2.089 . S
Mn591 O607 2.290 . S
Mn591 O608 2.251 . S
O592 Mn589 2.160 . S
O592 C603 1.239 . S
O593 Mn589 2.221 . S
O593 Mn594 2.290 . S
O593 C604 1.278 . S
Mn594 O593 2.290 . S
Mn594 O596 2.089 . S
Mn594 O599 2.251 . S
Mn594 O600 2.087 . S
O595 Mn589 2.163 . S
O595 C605 1.244 . S
O596 Mn594 2.089 . S
O596 C603 1.256 . S
O597 Mn589 2.160 . S
O597 C606 1.239 . S
O598 Mn591 2.089 . S
O598 C606 1.256 . S
O599 Mn594 2.251 . S
O599 C604 1.241 . S
O600 Mn594 2.087 . S
O600 C605 1.256 . S
C601 O607 1.278 . S
C601 O608 1.241 . S
C602 O588 1.244 . S
C602 O590 1.256 . S
C603 O592 1.239 . S
C603 O596 1.256 . S
C604 O593 1.278 . S
C604 O599 1.241 . S
C605 O595 1.244 . S
C605 O600 1.256 . S
C606 O597 1.239 . S
C606 O598 1.256 . S
O607 Mn589 2.221 . S
O607 Mn591 2.290 . S
O607 C601 1.278 . S
O608 Mn591 2.251 . S
O608 C601 1.241 . S
O609 Mn610 2.163 . S
O609 C623 1.244 . S
Mn610 O609 2.163 . S
Mn610 O613 2.160 . S
Mn610 O614 2.221 . S
Mn610 O616 2.163 . S
Mn610 O618 2.160 . S
Mn610 O628 2.221 . S
O611 Mn612 2.087 . S
O611 C623 1.256 . S
Mn612 O611 2.087 . S
Mn612 O619 2.089 . S
Mn612 O628 2.290 . S
Mn612 O629 2.251 . S
O613 Mn610 2.160 . S
O613 C624 1.239 . S
O614 Mn610 2.221 . S
O614 Mn615 2.290 . S
O614 C625 1.278 . S
Mn615 O614 2.290 . S
Mn615 O617 2.089 . S
Mn615 O620 2.251 . S
Mn615 O621 2.087 . S
O616 Mn610 2.163 . S
O616 C626 1.244 . S
O617 Mn615 2.089 . S
O617 C624 1.256 . S
O618 Mn610 2.160 . S
O618 C627 1.239 . S
O619 Mn612 2.089 . S
O619 C627 1.256 . S
O620 Mn615 2.251 . S
O620 C625 1.241 . S
O621 Mn615 2.087 . S
O621 C626 1.256 . S
C622 O628 1.278 . S
C622 O629 1.241 . S
C623 O609 1.244 . S
C623 O611 1.256 . S
C624 O613 1.239 . S
C624 O617 1.256 . S
C625 O614 1.278 . S
C625 O620 1.241 . S
C626 O616 1.244 . S
C626 O621 1.256 . S
C627 O618 1.239 . S
C627 O619 1.256 . S
O628 Mn610 2.221 . S
O628 Mn612 2.290 . S
O628 C622 1.278 . S
O629 Mn612 2.251 . S
O629 C622 1.241 . S
O630 Mn631 2.163 . S
O630 C644 1.244 . S
Mn631 O630 2.163 . S
Mn631 O634 2.160 . S
Mn631 O635 2.221 . S
Mn631 O637 2.163 . S
Mn631 O639 2.160 . S
Mn631 O649 2.221 . S
O632 Mn633 2.087 . S
O632 C644 1.256 . S
Mn633 O632 2.087 . S
Mn633 O640 2.089 . S
Mn633 O649 2.290 . S
Mn633 O650 2.251 . S
O634 Mn631 2.160 . S
O634 C645 1.239 . S
O635 Mn631 2.221 . S
O635 Mn636 2.290 . S
O635 C646 1.278 . S
Mn636 O635 2.290 . S
Mn636 O638 2.089 . S
Mn636 O641 2.251 . S
Mn636 O642 2.087 . S
O637 Mn631 2.163 . S
O637 C647 1.244 . S
O638 Mn636 2.089 . S
O638 C645 1.256 . S
O639 Mn631 2.160 . S
O639 C648 1.239 . S
O640 Mn633 2.089 . S
O640 C648 1.256 . S
O641 Mn636 2.251 . S
O641 C646 1.241 . S
O642 Mn636 2.087 . S
O642 C647 1.256 . S
C643 O649 1.278 . S
C643 O650 1.241 . S
C644 O630 1.244 . S
C644 O632 1.256 . S
C645 O634 1.239 . S
C645 O638 1.256 . S
C646 O635 1.278 . S
C646 O641 1.241 . S
C647 O637 1.244 . S
C647 O642 1.256 . S
C648 O639 1.239 . S
C648 O640 1.256 . S
O649 Mn631 2.221 . S
O649 Mn633 2.290 . S
O649 C643 1.278 . S
O650 Mn633 2.251 . S
O650 C643 1.241 . S
O651 Mn652 2.163 . S
O651 C665 1.244 . S
Mn652 O651 2.163 . S
Mn652 O655 2.160 . S
Mn652 O656 2.221 . S
Mn652 O658 2.163 . S
Mn652 O660 2.160 . S
Mn652 O670 2.221 . S
O653 Mn654 2.087 . S
O653 C665 1.256 . S
Mn654 O653 2.087 . S
Mn654 O661 2.089 . S
Mn654 O670 2.290 . S
Mn654 O671 2.251 . S
O655 Mn652 2.160 . S
O655 C666 1.239 . S
O656 Mn652 2.221 . S
O656 Mn657 2.290 . S
O656 C667 1.278 . S
Mn657 O656 2.290 . S
Mn657 O659 2.089 . S
Mn657 O662 2.251 . S
Mn657 O663 2.087 . S
O658 Mn652 2.163 . S
O658 C668 1.244 . S
O659 Mn657 2.089 . S
O659 C666 1.256 . S
O660 Mn652 2.160 . S
O660 C669 1.239 . S
O661 Mn654 2.089 . S
O661 C669 1.256 . S
O662 Mn657 2.251 . S
O662 C667 1.241 . S
O663 Mn657 2.087 . S
O663 C668 1.256 . S
C664 O670 1.278 . S
C664 O671 1.241 . S
C665 O651 1.244 . S
C665 O653 1.256 . S
C666 O655 1.239 . S
C666 O659 1.256 . S
C667 O656 1.278 . S
C667 O662 1.241 . S
C668 O658 1.244 . S
C668 O663 1.256 . S
C669 O660 1.239 . S
C669 O661 1.256 . S
O670 Mn652 2.221 . S
O670 Mn654 2.290 . S
O670 C664 1.278 . S
O671 Mn654 2.251 . S
O671 C664 1.241 . S
C672 C673 1.387 . S
C672 H676 0.950 . S
C672 C681 1.390 . S
C673 C672 1.387 . S
C673 C675 1.387 . S
H674 C681 0.950 . S
C675 C673 1.387 . S
C675 C677 1.390 . S
C675 H679 0.950 . S
H676 C672 0.950 . S
C677 C675 1.390 . S
C677 C678 1.387 . S
C677 H680 0.950 . S
C678 C677 1.387 . S
C678 C681 1.387 . S
H679 C675 0.950 . S
H680 C677 0.950 . S
C681 C672 1.390 . S
C681 H674 0.950 . S
C681 C678 1.387 . S
C682 C683 1.387 . S
C682 H686 0.950 . S
C682 C691 1.390 . S
C683 C682 1.387 . S
C683 C685 1.387 . S
H684 C691 0.950 . S
C685 C683 1.387 . S
C685 C687 1.390 . S
C685 H689 0.950 . S
H686 C682 0.950 . S
C687 C685 1.390 . S
C687 C688 1.387 . S
C687 H690 0.950 . S
C688 C687 1.387 . S
C688 C691 1.387 . S
H689 C685 0.950 . S
H690 C687 0.950 . S
C691 C682 1.390 . S
C691 H684 0.950 . S
C691 C688 1.387 . S
C692 C693 1.387 . S
C692 H696 0.950 . S
C692 C701 1.390 . S
C693 C692 1.387 . S
C693 C695 1.387 . S
H694 C701 0.950 . S
C695 C693 1.387 . S
C695 C697 1.390 . S
C695 H699 0.950 . S
H696 C692 0.950 . S
C697 C695 1.390 . S
C697 C698 1.387 . S
C697 H700 0.950 . S
C698 C697 1.387 . S
C698 C701 1.387 . S
H699 C695 0.950 . S
H700 C697 0.950 . S
C701 C692 1.390 . S
C701 H694 0.950 . S
C701 C698 1.387 . S
C702 C703 1.387 . S
C702 H706 0.950 . S
C702 C711 1.390 . S
C703 C702 1.387 . S
C703 C705 1.387 . S
H704 C711 0.950 1_556 S
C705 C703 1.387 . S
C705 C707 1.390 . S
C705 H709 0.950 . S
H706 C702 0.950 . S
C707 C705 1.390 . S
C707 C708 1.387 1_554 S
C707 H710 0.950 . S
C708 C707 1.387 1_556 S
C708 C711 1.387 1_556 S
H709 C705 0.950 . S
H710 C707 0.950 . S
C711 C702 1.390 . S
C711 H704 0.950 1_554 S
C711 C708 1.387 1_554 S
C712 C713 1.387 . S
C712 H716 0.950 . S
C712 C721 1.390 . S
C713 C712 1.387 . S
C713 C715 1.387 . S
H714 C721 0.950 . S
C715 C713 1.387 . S
C715 C717 1.390 . S
C715 H719 0.950 . S
H716 C712 0.950 . S
C717 C715 1.390 . S
C717 C718 1.387 . S
C717 H720 0.950 . S
C718 C717 1.387 . S
C718 C721 1.387 . S
H719 C715 0.950 . S
H720 C717 0.950 . S
C721 C712 1.390 . S
C721 H714 0.950 . S
C721 C718 1.387 . S
C722 C723 1.387 . S
C722 H726 0.950 . S
C722 C731 1.390 . S
C723 C722 1.387 . S
C723 C725 1.387 . S
H724 C731 0.950 . S
C725 C723 1.387 . S
C725 C727 1.390 . S
C725 H729 0.950 . S
H726 C722 0.950 . S
C727 C725 1.390 . S
C727 C728 1.387 . S
C727 H730 0.950 . S
C728 C727 1.387 . S
C728 C731 1.387 . S
H729 C725 0.950 . S
H730 C727 0.950 . S
C731 C722 1.390 . S
C731 H724 0.950 . S
C731 C728 1.387 . S
C732 C733 1.387 . S
C732 H736 0.950 . S
C732 C741 1.390 . S
C733 C732 1.387 . S
C733 C735 1.387 . S
H734 C741 0.950 . S
C735 C733 1.387 . S
C735 C737 1.390 . S
C735 H739 0.950 . S
H736 C732 0.950 . S
C737 C735 1.390 . S
C737 C738 1.387 . S
C737 H740 0.950 . S
C738 C737 1.387 . S
C738 C741 1.387 . S
H739 C735 0.950 . S
H740 C737 0.950 . S
C741 C732 1.390 . S
C741 H734 0.950 . S
C741 C738 1.387 . S
C742 C743 1.387 . S
C742 H746 0.950 . S
C742 C751 1.390 1_556 S
C743 C742 1.387 . S
C743 C745 1.387 1_556 S
H744 C751 0.950 . S
C745 C743 1.387 1_554 S
C745 C747 1.390 . S
C745 H749 0.949 1_554 S
H746 C742 0.950 . S
C747 C745 1.390 . S
C747 C748 1.387 . S
C747 H750 0.950 . S
C748 C747 1.387 . S
C748 C751 1.387 . S
H749 C745 0.949 1_556 S
H750 C747 0.950 . S
C751 C742 1.390 1_554 S
C751 H744 0.950 . S
C751 C748 1.387 . S
C752 C753 1.387 . S
C752 H756 0.950 . S
C752 C761 1.390 . S
C753 C752 1.387 . S
C753 C755 1.387 . S
H754 C761 0.950 . S
C755 C753 1.387 . S
C755 C757 1.390 . S
C755 H759 0.950 . S
H756 C752 0.950 . S
C757 C755 1.390 . S
C757 C758 1.387 . S
C757 H760 0.950 . S
C758 C757 1.387 . S
C758 C761 1.387 . S
H759 C755 0.950 . S
H760 C757 0.950 . S
C761 C752 1.390 . S
C761 H754 0.950 . S
C761 C758 1.387 . S
C762 C763 1.387 . S
C762 H766 0.950 . S
C762 C771 1.390 . S
C763 C762 1.387 . S
C763 C765 1.387 . S
H764 C771 0.950 1_565 S
C765 C763 1.387 . S
C765 C767 1.390 . S
C765 H769 0.950 . S
H766 C762 0.950 . S
C767 C765 1.390 . S
C767 C768 1.387 1_545 S
C767 H770 0.950 . S
C768 C767 1.387 1_565 S
C768 C771 1.387 1_565 S
H769 C765 0.950 . S
H770 C767 0.950 . S
C771 C762 1.390 . S
C771 H764 0.950 1_545 S
C771 C768 1.387 1_545 S
C772 C773 1.388 1_565 S
C772 H776 0.950 1_565 S
C772 C781 1.390 . S
C773 C772 1.388 1_545 S
C773 C775 1.387 . S
H774 C781 0.950 . S
C775 C773 1.387 . S
C775 C777 1.390 1_545 S
C775 H779 0.950 . S
H776 C772 0.950 1_545 S
C777 C775 1.390 1_565 S
C777 C778 1.387 . S
C777 H780 0.950 . S
C778 C777 1.387 . S
C778 C781 1.387 . S
H779 C775 0.950 . S
H780 C777 0.950 . S
C781 C772 1.390 . S
C781 H774 0.950 . S
C781 C778 1.387 . S
C782 C783 1.387 . S
C782 H786 0.950 . S
C782 C791 1.390 . S
C783 C782 1.387 . S
C783 C785 1.408 . S
H784 C791 0.950 . S
C785 C783 1.408 . S
C785 C787 1.389 1_556 S
C785 H789 0.931 1_556 S
H786 C782 0.950 . S
C787 C785 1.389 1_554 S
C787 C788 1.387 1_554 S
C787 H790 0.950 . S
C788 C787 1.387 1_556 S
C788 C791 1.387 . S
H789 C785 0.931 1_554 S
H790 C787 0.950 . S
C791 C782 1.390 . S
C791 H784 0.950 . S
C791 C788 1.387 . S
C792 C793 1.387 . S
C792 H796 0.950 . S
C792 C801 1.390 . S
C793 C792 1.387 . S
C793 C795 1.387 . S
H794 C801 0.950 . S
C795 C793 1.387 . S
C795 C797 1.390 . S
C795 H799 0.950 . S
H796 C792 0.950 . S
C797 C795 1.390 . S
C797 C798 1.387 . S
C797 H800 0.950 . S
C798 C797 1.387 . S
C798 C801 1.387 . S
H799 C795 0.950 . S
H800 C797 0.950 . S
C801 C792 1.390 . S
C801 H794 0.950 . S
C801 C798 1.387 . S
C802 C803 1.387 . S
C802 H806 0.950 . S
C802 C811 1.390 . S
C803 C802 1.387 . S
C803 C805 1.387 . S
H804 C811 0.950 . S
C805 C803 1.387 . S
C805 C807 1.390 . S
C805 H809 0.950 . S
H806 C802 0.950 . S
C807 C805 1.390 . S
C807 C808 1.387 . S
C807 H810 0.950 . S
C808 C807 1.387 . S
C808 C811 1.387 . S
H809 C805 0.950 . S
H810 C807 0.950 . S
C811 C802 1.390 . S
C811 H804 0.950 . S
C811 C808 1.387 . S
C812 C813 1.387 . S
C812 H816 0.950 . S
C812 C821 1.390 . S
C813 C812 1.387 . S
C813 C815 1.387 . S
H814 C821 0.950 . S
C815 C813 1.387 . S
C815 C817 1.390 . S
C815 H819 0.950 . S
H816 C812 0.950 . S
C817 C815 1.390 . S
C817 C818 1.387 . S
C817 H820 0.950 . S
C818 C817 1.387 . S
C818 C821 1.387 . S
H819 C815 0.950 . S
H820 C817 0.950 . S
C821 C812 1.390 . S
C821 H814 0.950 . S
C821 C818 1.387 . S
C822 C823 1.387 1_545 S
C822 H826 0.950 1_545 S
C822 C831 1.390 . S
C823 C822 1.387 1_565 S
C823 C825 1.387 1_565 S
H824 C831 0.950 . S
C825 C823 1.387 1_545 S
C825 C827 1.390 . S
C825 H829 0.950 . S
H826 C822 0.950 1_565 S
C827 C825 1.390 . S
C827 C828 1.387 . S
C827 H830 0.950 . S
C828 C827 1.387 . S
C828 C831 1.387 . S
H829 C825 0.950 . S
H830 C827 0.950 . S
C831 C822 1.390 . S
C831 H824 0.950 . S
C831 C828 1.387 . S
C832 C833 1.387 . S
C832 H836 0.950 . S
C832 C841 1.390 . S
C833 C832 1.387 . S
C833 C835 1.387 . S
H834 C841 0.950 . S
C835 C833 1.387 . S
C835 C837 1.390 . S
C835 H839 0.950 . S
H836 C832 0.950 . S
C837 C835 1.390 . S
C837 C838 1.387 . S
C837 H840 0.950 . S
C838 C837 1.387 . S
C838 C841 1.387 . S
H839 C835 0.950 . S
H840 C837 0.950 . S
C841 C832 1.390 . S
C841 H834 0.950 . S
C841 C838 1.387 . S
C842 C843 1.387 . S
C842 H846 0.950 . S
C842 C851 1.390 . S
C843 C842 1.387 . S
C843 C845 1.387 . S
H844 C851 0.950 . S
C845 C843 1.387 . S
C845 C847 1.390 . S
C845 H849 0.950 . S
H846 C842 0.950 . S
C847 C845 1.390 . S
C847 C848 1.387 . S
C847 H850 0.950 . S
C848 C847 1.387 . S
C848 C851 1.387 . S
H849 C845 0.950 . S
H850 C847 0.950 . S
C851 C842 1.390 . S
C851 H844 0.950 . S
C851 C848 1.387 . S
C852 C853 1.387 . S
C852 H856 0.950 . S
C852 C861 1.390 . S
C853 C852 1.387 . S
C853 C855 1.387 . S
H854 C861 0.950 . S
C855 C853 1.387 . S
C855 C857 1.390 . S
C855 H859 0.950 . S
H856 C852 0.950 . S
C857 C855 1.390 . S
C857 C858 1.387 1_455 S
C857 H860 0.950 1_455 S
C858 C857 1.387 1_655 S
C858 C861 1.387 1_655 S
H859 C855 0.950 . S
H860 C857 0.950 1_655 S
C861 C852 1.390 . S
C861 H854 0.950 . S
C861 C858 1.387 1_455 S
C862 C863 1.387 . S
C862 H866 0.950 . S
C862 C871 1.390 . S
C863 C862 1.387 . S
C863 C865 1.387 . S
H864 C871 0.950 . S
C865 C863 1.387 . S
C865 C867 1.390 . S
C865 H869 0.950 . S
H866 C862 0.950 . S
C867 C865 1.390 . S
C867 C868 1.387 . S
C867 H870 0.950 . S
C868 C867 1.387 . S
C868 C871 1.387 . S
H869 C865 0.950 . S
H870 C867 0.950 . S
C871 C862 1.390 . S
C871 H864 0.950 . S
C871 C868 1.387 . S
C872 C873 1.387 . S
C872 H876 0.950 . S
C872 C881 1.390 1_655 S
C873 C872 1.387 . S
C873 C875 1.387 . S
H874 C881 0.950 . S
C875 C873 1.387 . S
C875 C877 1.390 1_655 S
C875 H879 0.950 . S
H876 C872 0.950 . S
C877 C875 1.390 1_455 S
C877 C878 1.387 . S
C877 H880 0.950 . S
C878 C877 1.387 . S
C878 C881 1.387 . S
H879 C875 0.950 . S
H880 C877 0.950 . S
C881 C872 1.390 1_455 S
C881 H874 0.950 . S
C881 C878 1.387 . S
C882 C883 1.387 . S
C882 H886 0.950 . S
C882 C891 1.390 . S
C883 C882 1.387 . S
C883 C885 1.387 . S
H884 C891 0.950 . S
C885 C883 1.387 . S
C885 C887 1.390 . S
C885 H889 0.950 . S
H886 C882 0.950 . S
C887 C885 1.390 . S
C887 C888 1.387 . S
C887 H890 0.950 . S
C888 C887 1.387 . S
C888 C891 1.387 . S
H889 C885 0.950 . S
H890 C887 0.950 . S
C891 C882 1.390 . S
C891 H884 0.950 . S
C891 C888 1.387 . S
C892 C893 1.387 . S
C892 H896 0.950 . S
C892 C901 1.390 1_455 S
C893 C892 1.387 . S
C893 C895 1.387 . S
H894 C901 0.950 . S
C895 C893 1.387 . S
C895 C897 1.390 1_455 S
C895 H899 0.950 . S
H896 C892 0.950 . S
C897 C895 1.390 1_655 S
C897 C898 1.387 . S
C897 H900 0.950 . S
C898 C897 1.387 . S
C898 C901 1.387 . S
H899 C895 0.950 . S
H900 C897 0.950 . S
C901 C892 1.390 1_655 S
C901 H894 0.950 . S
C901 C898 1.387 . S
C902 C903 1.387 . S
C902 H906 0.950 . S
C902 C911 1.390 . S
C903 C902 1.387 . S
C903 C905 1.387 . S
H904 C911 0.950 . S
C905 C903 1.387 . S
C905 C907 1.390 . S
C905 H909 0.950 . S
H906 C902 0.950 . S
C907 C905 1.390 . S
C907 C908 1.387 . S
C907 H910 0.950 . S
C908 C907 1.387 . S
C908 C911 1.387 . S
H909 C905 0.950 . S
H910 C907 0.950 . S
C911 C902 1.390 . S
C911 H904 0.950 . S
C911 C908 1.387 . S
C912 C913 1.387 . S
C912 H916 0.950 . S
C912 C921 1.390 . S
C913 C912 1.387 . S
C913 C915 1.387 . S
H914 C921 0.950 . S
C915 C913 1.387 . S
C915 C917 1.390 . S
C915 H919 0.950 . S
H916 C912 0.950 . S
C917 C915 1.390 . S
C917 C918 1.387 . S
C917 H920 0.950 . S
C918 C917 1.387 . S
C918 C921 1.387 . S
H919 C915 0.950 . S
H920 C917 0.950 . S
C921 C912 1.390 . S
C921 H914 0.950 . S
C921 C918 1.387 . S
C922 C923 1.387 . S
C922 H926 0.950 . S
C922 C931 1.390 . S
C923 C922 1.387 . S
C923 C925 1.387 . S
H924 C931 0.950 . S
C925 C923 1.387 . S
C925 C927 1.390 . S
C925 H929 0.950 . S
H926 C922 0.950 . S
C927 C925 1.390 . S
C927 C928 1.387 . S
C927 H930 0.950 . S
C928 C927 1.387 . S
C928 C931 1.387 . S
H929 C925 0.950 . S
H930 C927 0.950 . S
C931 C922 1.390 . S
C931 H924 0.950 . S
C931 C928 1.387 . S
C932 C933 1.387 . S
C932 H936 0.950 . S
C932 C941 1.390 . S
C933 C932 1.387 . S
C933 C935 1.387 . S
H934 C941 0.950 . S
C935 C933 1.387 . S
C935 C937 1.390 . S
C935 H939 0.950 . S
H936 C932 0.950 . S
C937 C935 1.390 . S
C937 C938 1.387 . S
C937 H940 0.950 . S
C938 C937 1.387 . S
C938 C941 1.387 . S
H939 C935 0.950 . S
H940 C937 0.950 . S
C941 C932 1.390 . S
C941 H934 0.950 . S
C941 C938 1.387 . S
C942 C943 1.387 . S
C942 H946 0.950 . S
C942 C951 1.390 1_556 S
C943 C942 1.387 . S
C943 C945 1.387 . S
H944 C951 0.950 . S
C945 C943 1.387 . S
C945 C947 1.390 1_556 S
C945 H949 0.950 . S
H946 C942 0.950 . S
C947 C945 1.390 1_554 S
C947 C948 1.387 . S
C947 H950 0.950 . S
C948 C947 1.387 . S
C948 C951 1.387 . S
H949 C945 0.950 . S
H950 C947 0.950 . S
C951 C942 1.390 1_554 S
C951 H944 0.950 . S
C951 C948 1.387 . S
C952 C953 1.387 . S
C952 H956 0.950 . S
C952 C961 1.390 . S
C953 C952 1.387 . S
C953 C955 1.387 . S
H954 C961 0.950 . S
C955 C953 1.387 . S
C955 C957 1.390 . S
C955 H959 0.950 . S
H956 C952 0.950 . S
C957 C955 1.390 . S
C957 C958 1.387 . S
C957 H960 0.950 . S
C958 C957 1.387 . S
C958 C961 1.387 . S
H959 C955 0.950 . S
H960 C957 0.950 . S
C961 C952 1.390 . S
C961 H954 0.950 . S
C961 C958 1.387 . S
C962 C963 1.387 . S
C962 H966 0.950 . S
C962 C971 1.390 . S
C963 C962 1.387 . S
C963 C965 1.387 . S
H964 C971 0.950 . S
C965 C963 1.387 . S
C965 C967 1.390 . S
C965 H969 0.950 . S
H966 C962 0.950 . S
C967 C965 1.390 . S
C967 C968 1.387 . S
C967 H970 0.950 . S
C968 C967 1.387 . S
C968 C971 1.387 . S
H969 C965 0.950 . S
H970 C967 0.950 . S
C971 C962 1.390 . S
C971 H964 0.950 . S
C971 C968 1.387 . S
C972 C973 1.387 . S
C972 H976 0.950 . S
C972 C981 1.390 . S
C973 C972 1.387 . S
C973 C975 1.387 . S
H974 C981 0.950 . S
C975 C973 1.387 . S
C975 C977 1.390 . S
C975 H979 0.950 . S
H976 C972 0.950 . S
C977 C975 1.390 . S
C977 C978 1.387 . S
C977 H980 0.950 . S
C978 C977 1.387 . S
C978 C981 1.387 . S
H979 C975 0.950 . S
H980 C977 0.950 . S
C981 C972 1.390 . S
C981 H974 0.950 . S
C981 C978 1.387 . S
C982 C983 1.387 . S
C982 H986 0.950 . S
C982 C991 1.390 . S
C983 C982 1.387 . S
C983 C985 1.387 . S
H984 C991 0.950 . S
C985 C983 1.387 . S
C985 C987 1.390 1_554 S
C985 H989 0.950 . S
H986 C982 0.950 . S
C987 C985 1.390 1_556 S
C987 C988 1.387 . S
C987 H990 0.950 . S
C988 C987 1.387 . S
C988 C991 1.387 1_556 S
H989 C985 0.950 . S
H990 C987 0.950 . S
C991 C982 1.390 . S
C991 H984 0.950 . S
C991 C988 1.387 1_554 S
C992 C993 1.387 1_545 S
C992 H996 0.950 . S
C992 C1001 1.390 . S
C993 C992 1.387 1_565 S
C993 C995 1.387 . S
H994 C1001 0.950 . S
C995 C993 1.387 . S
C995 C997 1.390 . S
C995 H999 0.950 . S
H996 C992 0.950 . S
C997 C995 1.390 . S
C997 C998 1.387 . S
C997 H1000 0.950 . S
C998 C997 1.387 . S
C998 C1001 1.387 1_565 S
H999 C995 0.950 . S
H1000 C997 0.950 . S
C1001 C992 1.390 . S
C1001 H994 0.950 . S
C1001 C998 1.387 1_545 S
C1002 C1003 1.387 . S
C1002 H1006 0.950 . S
C1002 C1011 1.390 . S
C1003 C1002 1.387 . S
C1003 C1005 1.387 . S
H1004 C1011 0.950 . S
C1005 C1003 1.387 . S
C1005 C1007 1.390 . S
C1005 H1009 0.950 . S
H1006 C1002 0.950 . S
C1007 C1005 1.390 . S
C1007 C1008 1.387 . S
C1007 H1010 0.950 . S
C1008 C1007 1.387 . S
C1008 C1011 1.387 . S
H1009 C1005 0.950 . S
H1010 C1007 0.950 . S
C1011 C1002 1.390 . S
C1011 H1004 0.950 . S
C1011 C1008 1.387 . S
C1012 C1013 1.387 . S
C1012 H1016 0.950 . S
C1012 C1021 1.390 . S
C1013 C1012 1.387 . S
C1013 C1015 1.387 . S
H1014 C1021 0.950 . S
C1015 C1013 1.387 . S
C1015 C1017 1.390 . S
C1015 H1019 0.950 . S
H1016 C1012 0.950 . S
C1017 C1015 1.390 . S
C1017 C1018 1.387 . S
C1017 H1020 0.950 . S
C1018 C1017 1.387 . S
C1018 C1021 1.387 . S
H1019 C1015 0.950 . S
H1020 C1017 0.950 . S
C1021 C1012 1.390 . S
C1021 H1014 0.950 . S
C1021 C1018 1.387 . S
C1022 C1023 1.387 . S
C1022 H1026 0.950 1_554 S
C1022 C1031 1.390 . S
C1023 C1022 1.387 . S
C1023 C1025 1.387 . S
H1024 C1031 0.927 1_556 S
C1025 C1023 1.387 . S
C1025 C1027 1.390 . S
C1025 H1029 0.950 . S
H1026 C1022 0.950 1_556 S
C1027 C1025 1.390 . S
C1027 C1028 1.387 . S
C1027 H1030 0.950 . S
C1028 C1027 1.387 . S
C1028 C1031 1.387 . S
H1029 C1025 0.950 . S
H1030 C1027 0.950 . S
C1031 C1022 1.390 . S
C1031 H1024 0.927 1_554 S
C1031 C1028 1.387 . S
C1032 C1033 1.387 . S
C1032 H1036 0.950 . S
C1032 C1041 1.390 . S
C1033 C1032 1.387 . S
C1033 C1035 1.387 . S
H1034 C1041 0.950 . S
C1035 C1033 1.387 . S
C1035 C1037 1.390 . S
C1035 H1039 0.950 . S
H1036 C1032 0.950 . S
C1037 C1035 1.390 . S
C1037 C1038 1.387 . S
C1037 H1040 0.950 . S
C1038 C1037 1.387 . S
C1038 C1041 1.387 . S
H1039 C1035 0.950 . S
H1040 C1037 0.950 . S
C1041 C1032 1.390 . S
C1041 H1034 0.950 . S
C1041 C1038 1.387 . S
C1042 C1043 1.387 1_545 S
C1042 H1046 0.950 . S
C1042 C1051 1.390 . S
C1043 C1042 1.387 1_565 S
C1043 C1045 1.387 1_565 S
H1044 C1051 0.950 . S
C1045 C1043 1.387 1_545 S
C1045 C1047 1.390 . S
C1045 H1049 0.950 1_545 S
H1046 C1042 0.950 . S
C1047 C1045 1.390 . S
C1047 C1048 1.387 . S
C1047 H1050 0.950 . S
C1048 C1047 1.387 . S
C1048 C1051 1.387 . S
H1049 C1045 0.950 1_565 S
H1050 C1047 0.950 . S
C1051 C1042 1.390 . S
C1051 H1044 0.950 . S
C1051 C1048 1.387 . S
C1052 C1053 1.387 . S
C1052 H1056 0.950 1_565 S
C1052 C1061 1.390 . S
C1053 C1052 1.387 . S
C1053 C1055 1.387 . S
H1054 C1061 0.950 1_545 S
C1055 C1053 1.387 . S
C1055 C1057 1.390 . S
C1055 H1059 0.950 . S
H1056 C1052 0.950 1_545 S
C1057 C1055 1.390 . S
C1057 C1058 1.387 . S
C1057 H1060 0.950 . S
C1058 C1057 1.387 . S
C1058 C1061 1.387 . S
H1059 C1055 0.950 . S
H1060 C1057 0.950 . S
C1061 C1052 1.390 . S
C1061 H1054 0.950 1_565 S
C1061 C1058 1.387 . S
C1062 C1063 1.387 . S
C1062 H1066 0.950 1_556 S
C1062 C1071 1.390 . S
C1063 C1062 1.387 . S
C1063 C1065 1.387 . S
H1064 C1071 0.950 1_554 S
C1065 C1063 1.387 . S
C1065 C1067 1.390 . S
C1065 H1069 0.950 . S
H1066 C1062 0.950 1_554 S
C1067 C1065 1.390 . S
C1067 C1068 1.387 . S
C1067 H1070 0.950 . S
C1068 C1067 1.387 . S
C1068 C1071 1.387 . S
H1069 C1065 0.950 . S
H1070 C1067 0.950 . S
C1071 C1062 1.390 . S
C1071 H1064 0.950 1_556 S
C1071 C1068 1.387 . S
C1072 C1073 1.387 . S
C1072 H1076 0.950 . S
C1072 C1081 1.390 . S
C1073 C1072 1.387 . S
C1073 C1075 1.387 . S
H1074 C1081 0.950 . S
C1075 C1073 1.387 . S
C1075 C1077 1.390 . S
C1075 H1079 0.944 1_556 S
H1076 C1072 0.950 . S
C1077 C1075 1.390 . S
C1077 C1078 1.387 . S
C1077 H1080 0.950 . S
C1078 C1077 1.387 . S
C1078 C1081 1.387 . S
H1079 C1075 0.944 1_554 S
H1080 C1077 0.950 . S
C1081 C1072 1.390 . S
C1081 H1074 0.950 . S
C1081 C1078 1.387 . S
C1082 C1083 1.387 . S
C1082 H1086 0.950 . S
C1082 C1091 1.390 . S
C1083 C1082 1.387 . S
C1083 C1085 1.387 . S
H1084 C1091 0.950 . S
C1085 C1083 1.387 . S
C1085 C1087 1.390 . S
C1085 H1089 0.950 . S
H1086 C1082 0.950 . S
C1087 C1085 1.390 . S
C1087 C1088 1.387 . S
C1087 H1090 0.950 . S
C1088 C1087 1.387 . S
C1088 C1091 1.387 . S
H1089 C1085 0.950 . S
H1090 C1087 0.950 . S
C1091 C1082 1.390 . S
C1091 H1084 0.950 . S
C1091 C1088 1.387 . S
C1092 C1093 1.387 . S
C1092 H1096 0.950 . S
C1092 C1101 1.390 1_655 S
C1093 C1092 1.387 . S
C1093 C1095 1.387 . S
H1094 C1101 0.950 . S
C1095 C1093 1.387 . S
C1095 C1097 1.390 1_655 S
C1095 H1099 0.950 . S
H1096 C1092 0.950 . S
C1097 C1095 1.390 1_455 S
C1097 C1098 1.387 . S
C1097 H1100 0.950 . S
C1098 C1097 1.387 . S
C1098 C1101 1.387 . S
H1099 C1095 0.950 . S
H1100 C1097 0.950 . S
C1101 C1092 1.390 1_455 S
C1101 H1094 0.950 . S
C1101 C1098 1.387 . S
C1102 C1103 1.387 . S
C1102 H1106 0.950 . S
C1102 C1111 1.390 . S
C1103 C1102 1.387 . S
C1103 C1105 1.387 . S
H1104 C1111 0.950 . S
C1105 C1103 1.387 . S
C1105 C1107 1.390 . S
C1105 H1109 0.950 . S
H1106 C1102 0.950 . S
C1107 C1105 1.390 . S
C1107 C1108 1.387 . S
C1107 H1110 0.950 . S
C1108 C1107 1.387 . S
C1108 C1111 1.387 . S
H1109 C1105 0.950 . S
H1110 C1107 0.950 . S
C1111 C1102 1.390 . S
C1111 H1104 0.950 . S
C1111 C1108 1.387 . S
C1112 C1113 1.387 . S
C1112 H1116 0.950 . S
C1112 C1121 1.390 1_455 S
C1113 C1112 1.387 . S
C1113 C1115 1.387 1_545 S
H1114 C1121 0.950 . S
C1115 C1113 1.387 1_565 S
C1115 C1117 1.390 1_455 S
C1115 H1119 0.950 . S
H1116 C1112 0.950 . S
C1117 C1115 1.390 1_655 S
C1117 C1118 1.387 1_565 S
C1117 H1120 0.950 . S
C1118 C1117 1.387 1_545 S
C1118 C1121 1.387 . S
H1119 C1115 0.950 . S
H1120 C1117 0.950 . S
C1121 C1112 1.390 1_655 S
C1121 H1114 0.950 . S
C1121 C1118 1.387 . S
C1122 C1123 1.387 . S
C1122 H1126 0.950 . S
C1122 C1131 1.390 . S
C1123 C1122 1.387 . S
C1123 C1125 1.387 . S
H1124 C1131 0.950 . S
C1125 C1123 1.387 . S
C1125 C1127 1.390 . S
C1125 H1129 0.950 . S
H1126 C1122 0.950 . S
C1127 C1125 1.390 . S
C1127 C1128 1.387 . S
C1127 H1130 0.950 . S
C1128 C1127 1.387 . S
C1128 C1131 1.387 . S
H1129 C1125 0.950 . S
H1130 C1127 0.950 . S
C1131 C1122 1.390 . S
C1131 H1124 0.950 . S
C1131 C1128 1.387 . S
C1132 C1133 1.387 . S
C1132 H1136 0.950 . S
C1132 C1141 1.390 1_655 S
C1133 C1132 1.387 . S
C1133 C1135 1.387 . S
H1134 C1141 0.950 . S
C1135 C1133 1.387 . S
C1135 C1137 1.390 1_655 S
C1135 H1139 0.950 . S
H1136 C1132 0.950 . S
C1137 C1135 1.390 1_455 S
C1137 C1138 1.387 . S
C1137 H1140 0.950 . S
C1138 C1137 1.387 . S
C1138 C1141 1.387 . S
H1139 C1135 0.950 . S
H1140 C1137 0.950 . S
C1141 C1132 1.390 1_455 S
C1141 H1134 0.950 . S
C1141 C1138 1.387 . S
C1142 C1143 1.387 . S
C1142 H1146 0.950 . S
C1142 C1151 1.390 . S
C1143 C1142 1.387 . S
C1143 C1145 1.387 . S
H1144 C1151 0.950 . S
C1145 C1143 1.387 . S
C1145 C1147 1.390 . S
C1145 H1149 0.950 . S
H1146 C1142 0.950 . S
C1147 C1145 1.390 . S
C1147 C1148 1.387 . S
C1147 H1150 0.950 . S
C1148 C1147 1.387 . S
C1148 C1151 1.387 . S
H1149 C1145 0.950 . S
H1150 C1147 0.950 . S
C1151 C1142 1.390 . S
C1151 H1144 0.950 . S
C1151 C1148 1.387 . S
C1152 C1153 1.387 . S
C1152 H1156 0.950 . S
C1152 C1161 1.390 . S
C1153 C1152 1.387 . S
C1153 C1155 1.387 . S
H1154 C1161 0.950 . S
C1155 C1153 1.387 . S
C1155 C1157 1.390 . S
C1155 H1159 0.950 . S
H1156 C1152 0.950 . S
C1157 C1155 1.390 . S
C1157 C1158 1.387 . S
C1157 H1160 0.950 . S
C1158 C1157 1.387 . S
C1158 C1161 1.387 . S
H1159 C1155 0.950 . S
H1160 C1157 0.950 . S
C1161 C1152 1.390 . S
C1161 H1154 0.950 . S
C1161 C1158 1.387 . S
C1162 C1163 1.387 . S
C1162 H1166 0.950 . S
C1162 C1171 1.390 . S
C1163 C1162 1.387 . S
C1163 C1165 1.387 . S
H1164 C1171 0.950 1_556 S
C1165 C1163 1.387 . S
C1165 C1167 1.390 . S
C1165 H1169 0.950 . S
H1166 C1162 0.950 . S
C1167 C1165 1.390 . S
C1167 C1168 1.387 1_554 S
C1167 H1170 0.950 . S
C1168 C1167 1.387 1_556 S
C1168 C1171 1.387 1_556 S
H1169 C1165 0.950 . S
H1170 C1167 0.950 . S
C1171 C1162 1.390 . S
C1171 H1164 0.950 1_554 S
C1171 C1168 1.387 1_554 S
C1172 C1173 1.387 . S
C1172 H1176 0.950 . S
C1172 C1181 1.390 . S
C1173 C1172 1.387 . S
C1173 C1175 1.387 . S
H1174 C1181 0.950 . S
C1175 C1173 1.387 . S
C1175 C1177 1.390 . S
C1175 H1179 0.950 . S
H1176 C1172 0.950 . S
C1177 C1175 1.390 . S
C1177 C1178 1.387 . S
C1177 H1180 0.950 . S
C1178 C1177 1.387 . S
C1178 C1181 1.387 . S
H1179 C1175 0.950 . S
H1180 C1177 0.950 . S
C1181 C1172 1.390 . S
C1181 H1174 0.950 . S
C1181 C1178 1.387 . S
C1182 C1183 1.387 . S
C1182 H1186 0.950 . S
C1182 C1191 1.390 . S
C1183 C1182 1.387 . S
C1183 C1185 1.387 . S
H1184 C1191 0.950 . S
C1185 C1183 1.387 . S
C1185 C1187 1.390 . S
C1185 H1189 0.950 . S
H1186 C1182 0.950 . S
C1187 C1185 1.390 . S
C1187 C1188 1.387 . S
C1187 H1190 0.950 . S
C1188 C1187 1.387 . S
C1188 C1191 1.387 . S
H1189 C1185 0.950 . S
H1190 C1187 0.950 . S
C1191 C1182 1.390 . S
C1191 H1184 0.950 . S
C1191 C1188 1.387 . S
C1192 C1193 1.387 . S
C1192 H1196 0.950 . S
C1192 C1201 1.390 . S
C1193 C1192 1.387 . S
C1193 C1195 1.387 . S
H1194 C1201 0.950 . S
C1195 C1193 1.387 . S
C1195 C1197 1.390 . S
C1195 H1199 0.950 . S
H1196 C1192 0.950 . S
C1197 C1195 1.390 . S
C1197 C1198 1.387 . S
C1197 H1200 0.950 . S
C1198 C1197 1.387 . S
C1198 C1201 1.387 . S
H1199 C1195 0.950 . S
H1200 C1197 0.950 . S
C1201 C1192 1.390 . S
C1201 H1194 0.950 . S
C1201 C1198 1.387 . S
C1202 C1203 1.387 1_455 S
C1202 H1206 0.950 . S
C1202 C1211 1.390 1_556 S
C1203 C1202 1.387 1_655 S
C1203 C1205 1.387 . S
H1204 C1211 0.950 . S
C1205 C1203 1.387 . S
C1205 C1207 1.390 1_556 S
C1205 H1209 0.950 . S
H1206 C1202 0.950 . S
C1207 C1205 1.390 1_554 S
C1207 C1208 1.387 . S
C1207 H1210 0.950 . S
C1208 C1207 1.387 . S
C1208 C1211 1.387 1_655 S
H1209 C1205 0.950 . S
H1210 C1207 0.950 . S
C1211 C1202 1.390 1_554 S
C1211 H1204 0.950 . S
C1211 C1208 1.387 1_455 S
C1212 C1213 1.387 . S
C1212 H1216 0.950 . S
C1212 C1221 1.390 . S
C1213 C1212 1.387 . S
C1213 C1215 1.387 . S
H1214 C1221 0.950 . S
C1215 C1213 1.387 . S
C1215 C1217 1.390 . S
C1215 H1219 0.950 . S
H1216 C1212 0.950 . S
C1217 C1215 1.390 . S
C1217 C1218 1.387 . S
C1217 H1220 0.950 . S
C1218 C1217 1.387 . S
C1218 C1221 1.387 . S
H1219 C1215 0.950 . S
H1220 C1217 0.950 . S
C1221 C1212 1.390 . S
C1221 H1214 0.950 . S
C1221 C1218 1.387 . S
C1222 C1223 1.387 . S
C1222 H1226 0.950 . S
C1222 C1231 1.390 . S
C1223 C1222 1.387 . S
C1223 C1225 1.387 . S
H1224 C1231 0.950 . S
C1225 C1223 1.387 . S
C1225 C1227 1.390 . S
C1225 H1229 0.950 . S
H1226 C1222 0.950 . S
C1227 C1225 1.390 . S
C1227 C1228 1.387 . S
C1227 H1230 0.950 . S
C1228 C1227 1.387 . S
C1228 C1231 1.387 . S
H1229 C1225 0.950 . S
H1230 C1227 0.950 . S
C1231 C1222 1.390 . S
C1231 H1224 0.950 . S
C1231 C1228 1.387 . S
C1232 C1233 1.387 . S
C1232 H1236 0.950 . S
C1232 C1241 1.390 . S
C1233 C1232 1.387 . S
C1233 C1235 1.387 . S
H1234 C1241 0.950 . S
C1235 C1233 1.387 . S
C1235 C1237 1.390 . S
C1235 H1239 0.950 . S
H1236 C1232 0.950 . S
C1237 C1235 1.390 . S
C1237 C1238 1.387 . S
C1237 H1240 0.950 . S
C1238 C1237 1.387 . S
C1238 C1241 1.387 . S
H1239 C1235 0.950 . S
H1240 C1237 0.950 . S
C1241 C1232 1.390 . S
C1241 H1234 0.950 . S
C1241 C1238 1.387 . S
C1242 C1243 1.387 . S
C1242 H1246 0.950 . S
C1242 C1251 1.390 . S
C1243 C1242 1.387 . S
C1243 C1245 1.387 . S
H1244 C1251 0.950 . S
C1245 C1243 1.387 . S
C1245 C1247 1.390 . S
C1245 H1249 0.950 1_556 S
H1246 C1242 0.950 . S
C1247 C1245 1.390 . S
C1247 C1248 1.387 . S
C1247 H1250 0.950 1_556 S
C1248 C1247 1.387 . S
C1248 C1251 1.387 . S
H1249 C1245 0.950 1_554 S
H1250 C1247 0.950 1_554 S
C1251 C1242 1.390 . S
C1251 H1244 0.950 . S
C1251 C1248 1.387 . S
C1252 C1253 1.387 . S
C1252 H1256 0.950 . S
C1252 C1261 1.390 . S
C1253 C1252 1.387 . S
C1253 C1255 1.387 . S
H1254 C1261 0.950 . S
C1255 C1253 1.387 . S
C1255 C1257 1.390 . S
C1255 H1259 0.950 . S
H1256 C1252 0.950 . S
C1257 C1255 1.390 . S
C1257 C1258 1.387 . S
C1257 H1260 0.950 . S
C1258 C1257 1.387 . S
C1258 C1261 1.387 . S
H1259 C1255 0.950 . S
H1260 C1257 0.950 . S
C1261 C1252 1.390 . S
C1261 H1254 0.950 . S
C1261 C1258 1.387 . S
C1262 C1263 1.387 . S
C1262 H1266 0.950 . S
C1262 C1271 1.390 . S
C1263 C1262 1.387 . S
C1263 C1265 1.387 . S
H1264 C1271 0.950 . S
C1265 C1263 1.387 . S
C1265 C1267 1.390 . S
C1265 H1269 0.950 . S
H1266 C1262 0.950 . S
C1267 C1265 1.390 . S
C1267 C1268 1.387 . S
C1267 H1270 0.950 . S
C1268 C1267 1.387 . S
C1268 C1271 1.387 . S
H1269 C1265 0.950 . S
H1270 C1267 0.950 . S
C1271 C1262 1.390 . S
C1271 H1264 0.950 . S
C1271 C1268 1.387 . S
C1272 C1273 1.387 . S
C1272 H1276 0.950 . S
C1272 C1281 1.390 . S
C1273 C1272 1.387 . S
C1273 C1275 1.387 . S
H1274 C1281 0.950 . S
C1275 C1273 1.387 . S
C1275 C1277 1.390 . S
C1275 H1279 0.950 . S
H1276 C1272 0.950 . S
C1277 C1275 1.390 . S
C1277 C1278 1.387 . S
C1277 H1280 0.950 . S
C1278 C1277 1.387 . S
C1278 C1281 1.387 . S
H1279 C1275 0.950 . S
H1280 C1277 0.950 . S
C1281 C1272 1.390 . S
C1281 H1274 0.950 . S
C1281 C1278 1.387 . S
C1282 C1283 1.387 . S
C1282 H1286 0.950 . S
C1282 C1291 1.390 . S
C1283 C1282 1.387 . S
C1283 C1285 1.387 . S
H1284 C1291 0.950 . S
C1285 C1283 1.387 . S
C1285 C1287 1.390 . S
C1285 H1289 0.950 . S
H1286 C1282 0.950 . S
C1287 C1285 1.390 . S
C1287 C1288 1.387 . S
C1287 H1290 0.950 . S
C1288 C1287 1.387 . S
C1288 C1291 1.387 . S
H1289 C1285 0.950 . S
H1290 C1287 0.950 . S
C1291 C1282 1.390 . S
C1291 H1284 0.950 . S
C1291 C1288 1.387 . S
C1292 C1293 1.387 . S
C1292 H1296 0.950 . S
C1292 C1301 1.390 . S
C1293 C1292 1.387 . S
C1293 C1295 1.387 . S
H1294 C1301 0.950 . S
C1295 C1293 1.387 . S
C1295 C1297 1.390 . S
C1295 H1299 0.950 . S
H1296 C1292 0.950 . S
C1297 C1295 1.390 . S
C1297 C1298 1.387 . S
C1297 H1300 0.950 . S
C1298 C1297 1.387 . S
C1298 C1301 1.387 . S
H1299 C1295 0.950 . S
H1300 C1297 0.950 . S
C1301 C1292 1.390 . S
C1301 H1294 0.950 . S
C1301 C1298 1.387 . S
C1302 C1303 1.387 . S
C1302 H1306 0.950 . S
C1302 C1311 1.390 . S
C1303 C1302 1.387 . S
C1303 C1305 1.387 . S
H1304 C1311 0.950 . S
C1305 C1303 1.387 . S
C1305 C1307 1.390 . S
C1305 H1309 0.950 . S
H1306 C1302 0.950 . S
C1307 C1305 1.390 . S
C1307 C1308 1.387 . S
C1307 H1310 0.950 . S
C1308 C1307 1.387 . S
C1308 C1311 1.387 . S
H1309 C1305 0.950 . S
H1310 C1307 0.950 . S
C1311 C1302 1.390 . S
C1311 H1304 0.950 . S
C1311 C1308 1.387 . S
C1312 C1313 1.387 . S
C1312 H1316 0.950 . S
C1312 C1321 1.390 . S
C1313 C1312 1.387 . S
C1313 C1315 1.387 . S
H1314 C1321 0.950 . S
C1315 C1313 1.387 . S
C1315 C1317 1.390 . S
C1315 H1319 0.950 . S
H1316 C1312 0.950 . S
C1317 C1315 1.390 . S
C1317 C1318 1.387 . S
C1317 H1320 0.950 . S
C1318 C1317 1.387 . S
C1318 C1321 1.387 . S
H1319 C1315 0.950 . S
H1320 C1317 0.950 . S
C1321 C1312 1.390 . S
C1321 H1314 0.950 . S
C1321 C1318 1.387 . S
C1322 C1323 1.387 . S
C1322 H1326 0.950 . S
C1322 C1331 1.390 . S
C1323 C1322 1.387 . S
C1323 C1325 1.387 . S
H1324 C1331 0.950 . S
C1325 C1323 1.387 . S
C1325 C1327 1.390 . S
C1325 H1329 0.950 . S
H1326 C1322 0.950 . S
C1327 C1325 1.390 . S
C1327 C1328 1.387 . S
C1327 H1330 0.950 . S
C1328 C1327 1.387 . S
C1328 C1331 1.387 . S
H1329 C1325 0.950 . S
H1330 C1327 0.950 . S
C1331 C1322 1.390 . S
C1331 H1324 0.950 . S
C1331 C1328 1.387 . S
C1332 C1333 1.387 . S
C1332 H1336 0.950 . S
C1332 C1341 1.390 . S
C1333 C1332 1.387 . S
C1333 C1335 1.387 1_565 S
H1334 C1341 0.950 . S
C1335 C1333 1.387 1_545 S
C1335 C1337 1.390 . S
C1335 H1339 0.950 . S
H1336 C1332 0.950 . S
C1337 C1335 1.390 . S
C1337 C1338 1.387 1_545 S
C1337 H1340 0.950 . S
C1338 C1337 1.387 1_565 S
C1338 C1341 1.387 . S
H1339 C1335 0.950 . S
H1340 C1337 0.950 . S
C1341 C1332 1.390 . S
C1341 H1334 0.950 . S
C1341 C1338 1.387 . S
C1342 C1343 1.387 . S
C1342 H1346 0.950 . S
C1342 C1351 1.390 . S
C1343 C1342 1.387 . S
C1343 C1345 1.387 . S
H1344 C1351 0.950 . S
C1345 C1343 1.387 . S
C1345 C1347 1.390 . S
C1345 H1349 0.950 1_556 S
H1346 C1342 0.950 . S
C1347 C1345 1.390 . S
C1347 C1348 1.387 . S
C1347 H1350 0.950 . S
C1348 C1347 1.387 . S
C1348 C1351 1.387 . S
H1349 C1345 0.950 1_554 S
H1350 C1347 0.950 . S
C1351 C1342 1.390 . S
C1351 H1344 0.950 . S
C1351 C1348 1.387 . S
C1352 C1353 1.387 . S
C1352 H1356 0.950 . S
C1352 C1361 1.390 . S
C1353 C1352 1.387 . S
C1353 C1355 1.387 . S
H1354 C1361 0.950 . S
C1355 C1353 1.387 . S
C1355 C1357 1.390 . S
C1355 H1359 0.950 . S
H1356 C1352 0.950 . S
C1357 C1355 1.390 . S
C1357 C1358 1.387 . S
C1357 H1360 0.950 . S
C1358 C1357 1.387 . S
C1358 C1361 1.387 . S
H1359 C1355 0.950 . S
H1360 C1357 0.950 . S
C1361 C1352 1.390 . S
C1361 H1354 0.950 . S
C1361 C1358 1.387 . S
C1362 C1363 1.387 . S
C1362 H1366 0.950 . S
C1362 C1371 1.390 . S
C1363 C1362 1.387 . S
C1363 C1365 1.387 . S
H1364 C1371 0.950 . S
C1365 C1363 1.387 . S
C1365 C1367 1.390 . S
C1365 H1369 0.950 . S
H1366 C1362 0.950 . S
C1367 C1365 1.390 . S
C1367 C1368 1.387 . S
C1367 H1370 0.950 . S
C1368 C1367 1.387 . S
C1368 C1371 1.387 . S
H1369 C1365 0.950 . S
H1370 C1367 0.950 . S
C1371 C1362 1.390 . S
C1371 H1364 0.950 . S
C1371 C1368 1.387 . S
C1372 C1373 1.387 . S
C1372 H1376 0.950 . S
C1372 C1381 1.390 . S
C1373 C1372 1.387 . S
C1373 C1375 1.387 . S
H1374 C1381 0.950 . S
C1375 C1373 1.387 . S
C1375 C1377 1.390 . S
C1375 H1379 0.950 . S
H1376 C1372 0.950 . S
C1377 C1375 1.390 . S
C1377 C1378 1.387 . S
C1377 H1380 0.950 . S
C1378 C1377 1.387 . S
C1378 C1381 1.387 . S
H1379 C1375 0.950 . S
H1380 C1377 0.950 . S
C1381 C1372 1.390 . S
C1381 H1374 0.950 . S
C1381 C1378 1.387 . S
C1382 C1383 1.387 . S
C1382 H1386 0.950 . S
C1382 C1391 1.390 1_655 S
C1383 C1382 1.387 . S
C1383 C1385 1.387 . S
H1384 C1391 0.950 1_545 S
C1385 C1383 1.387 . S
C1385 C1387 1.390 1_655 S
C1385 H1389 0.950 . S
H1386 C1382 0.950 . S
C1387 C1385 1.390 1_455 S
C1387 C1388 1.387 . S
C1387 H1390 0.950 . S
C1388 C1387 1.387 . S
C1388 C1391 1.387 . S
H1389 C1385 0.950 . S
H1390 C1387 0.950 . S
C1391 C1382 1.390 1_455 S
C1391 H1384 0.950 1_565 S
C1391 C1388 1.387 . S
C1392 C1393 1.387 . S
C1392 H1396 0.950 . S
C1392 C1401 1.390 . S
C1393 C1392 1.387 . S
C1393 C1395 1.387 . S
H1394 C1401 0.950 . S
C1395 C1393 1.387 . S
C1395 C1397 1.390 . S
C1395 H1399 0.950 . S
H1396 C1392 0.950 . S
C1397 C1395 1.390 . S
C1397 C1398 1.387 . S
C1397 H1400 0.950 . S
C1398 C1397 1.387 . S
C1398 C1401 1.387 . S
H1399 C1395 0.950 . S
H1400 C1397 0.950 . S
C1401 C1392 1.390 . S
C1401 H1394 0.950 . S
C1401 C1398 1.387 . S
C1402 C1403 1.387 . S
C1402 H1406 0.950 . S
C1402 C1411 1.390 1_556 S
C1403 C1402 1.387 . S
C1403 C1405 1.387 . S
H1404 C1411 0.950 . S
C1405 C1403 1.387 . S
C1405 C1407 1.390 1_556 S
C1405 H1409 0.950 . S
H1406 C1402 0.950 . S
C1407 C1405 1.390 1_554 S
C1407 C1408 1.387 . S
C1407 H1410 0.950 . S
C1408 C1407 1.387 . S
C1408 C1411 1.387 . S
H1409 C1405 0.950 . S
H1410 C1407 0.950 . S
C1411 C1402 1.390 1_554 S
C1411 H1404 0.950 . S
C1411 C1408 1.387 . S
C1412 C1413 1.387 . S
C1412 H1416 0.950 . S
C1412 C1421 1.390 . S
C1413 C1412 1.387 . S
C1413 C1415 1.387 . S
H1414 C1421 0.950 . S
C1415 C1413 1.387 . S
C1415 C1417 1.390 . S
C1415 H1419 0.950 . S
H1416 C1412 0.950 . S
C1417 C1415 1.390 . S
C1417 C1418 1.387 . S
C1417 H1420 0.950 . S
C1418 C1417 1.387 . S
C1418 C1421 1.387 . S
H1419 C1415 0.950 . S
H1420 C1417 0.950 . S
C1421 C1412 1.390 . S
C1421 H1414 0.950 . S
C1421 C1418 1.387 . S
C1422 C1423 1.387 . S
C1422 H1426 0.950 . S
C1422 C1431 1.390 . S
C1423 C1422 1.387 . S
C1423 C1425 1.387 . S
H1424 C1431 0.950 . S
C1425 C1423 1.387 . S
C1425 C1427 1.390 . S
C1425 H1429 0.950 . S
H1426 C1422 0.950 . S
C1427 C1425 1.390 . S
C1427 C1428 1.387 . S
C1427 H1430 0.950 . S
C1428 C1427 1.387 . S
C1428 C1431 1.387 . S
H1429 C1425 0.950 . S
H1430 C1427 0.950 . S
C1431 C1422 1.390 . S
C1431 H1424 0.950 . S
C1431 C1428 1.387 . S
C1432 C1433 1.387 . S
C1432 H1436 0.950 . S
C1432 C1441 1.390 . S
C1433 C1432 1.387 . S
C1433 C1435 1.387 . S
H1434 C1441 0.950 . S
C1435 C1433 1.387 . S
C1435 C1437 1.390 . S
C1435 H1439 0.950 . S
H1436 C1432 0.950 . S
C1437 C1435 1.390 . S
C1437 C1438 1.387 . S
C1437 H1440 0.950 . S
C1438 C1437 1.387 . S
C1438 C1441 1.387 . S
H1439 C1435 0.950 . S
H1440 C1437 0.950 . S
C1441 C1432 1.390 . S
C1441 H1434 0.950 . S
C1441 C1438 1.387 . S
C1442 C1443 1.387 . S
C1442 H1446 0.950 . S
C1442 C1451 1.390 1_554 S
C1443 C1442 1.387 . S
C1443 C1445 1.387 . S
H1444 C1451 0.950 . S
C1445 C1443 1.387 . S
C1445 C1447 1.390 . S
C1445 H1449 0.950 . S
H1446 C1442 0.950 . S
C1447 C1445 1.390 . S
C1447 C1448 1.387 1_554 S
C1447 H1450 0.950 1_554 S
C1448 C1447 1.387 1_556 S
C1448 C1451 1.387 . S
H1449 C1445 0.950 . S
H1450 C1447 0.950 1_556 S
C1451 C1442 1.390 1_556 S
C1451 H1444 0.950 . S
C1451 C1448 1.387 . S
C1452 C1453 1.387 . S
C1452 H1456 0.950 . S
C1452 C1461 1.390 . S
C1453 C1452 1.387 . S
C1453 C1455 1.387 . S
H1454 C1461 0.950 . S
C1455 C1453 1.387 . S
C1455 C1457 1.390 . S
C1455 H1459 0.950 . S
H1456 C1452 0.950 . S
C1457 C1455 1.390 . S
C1457 C1458 1.387 . S
C1457 H1460 0.950 . S
C1458 C1457 1.387 . S
C1458 C1461 1.387 . S
H1459 C1455 0.950 . S
H1460 C1457 0.950 . S
C1461 C1452 1.390 . S
C1461 H1454 0.950 . S
C1461 C1458 1.387 . S
C1462 C1463 1.387 . S
C1462 H1466 0.950 . S
C1462 C1471 1.390 . S
C1463 C1462 1.387 . S
C1463 C1465 1.387 . S
H1464 C1471 0.950 . S
C1465 C1463 1.387 . S
C1465 C1467 1.390 . S
C1465 H1469 0.950 . S
H1466 C1462 0.950 . S
C1467 C1465 1.390 . S
C1467 C1468 1.387 . S
C1467 H1470 0.950 . S
C1468 C1467 1.387 . S
C1468 C1471 1.387 . S
H1469 C1465 0.950 . S
H1470 C1467 0.950 . S
C1471 C1462 1.390 . S
C1471 H1464 0.950 . S
C1471 C1468 1.387 . S
C1472 C1473 1.387 . S
C1472 H1476 0.950 . S
C1472 C1481 1.390 . S
C1473 C1472 1.387 . S
C1473 C1475 1.387 . S
H1474 C1481 0.950 . S
C1475 C1473 1.387 . S
C1475 C1477 1.390 . S
C1475 H1479 0.950 . S
H1476 C1472 0.950 . S
C1477 C1475 1.390 . S
C1477 C1478 1.387 . S
C1477 H1480 0.950 . S
C1478 C1477 1.387 . S
C1478 C1481 1.387 . S
H1479 C1475 0.950 . S
H1480 C1477 0.950 . S
C1481 C1472 1.390 . S
C1481 H1474 0.950 . S
C1481 C1478 1.387 . S
C1482 C1483 1.387 . S
C1482 H1486 0.950 . S
C1482 C1491 1.390 . S
C1483 C1482 1.387 . S
C1483 C1485 1.387 . S
H1484 C1491 0.950 . S
C1485 C1483 1.387 . S
C1485 C1487 1.390 . S
C1485 H1489 0.950 1_554 S
H1486 C1482 0.950 . S
C1487 C1485 1.390 . S
C1487 C1488 1.387 . S
C1487 H1490 0.950 1_554 S
C1488 C1487 1.387 . S
C1488 C1491 1.387 . S
H1489 C1485 0.950 1_556 S
H1490 C1487 0.950 1_556 S
C1491 C1482 1.390 . S
C1491 H1484 0.950 . S
C1491 C1488 1.387 . S
C1492 C1493 1.387 . S
C1492 H1496 0.950 . S
C1492 C1501 1.390 . S
C1493 C1492 1.387 . S
C1493 C1495 1.387 . S
H1494 C1501 0.950 . S
C1495 C1493 1.387 . S
C1495 C1497 1.390 . S
C1495 H1499 0.950 . S
H1496 C1492 0.950 . S
C1497 C1495 1.390 . S
C1497 C1498 1.387 . S
C1497 H1500 0.950 . S
C1498 C1497 1.387 . S
C1498 C1501 1.387 . S
H1499 C1495 0.950 . S
H1500 C1497 0.950 . S
C1501 C1492 1.390 . S
C1501 H1494 0.950 . S
C1501 C1498 1.387 . S
C1502 C1503 1.387 . S
C1502 H1506 0.950 . S
C1502 C1511 1.390 . S
C1503 C1502 1.387 . S
C1503 C1505 1.387 . S
H1504 C1511 0.950 . S
C1505 C1503 1.387 . S
C1505 C1507 1.390 . S
C1505 H1509 0.950 . S
H1506 C1502 0.950 . S
C1507 C1505 1.390 . S
C1507 C1508 1.387 . S
C1507 H1510 0.950 . S
C1508 C1507 1.387 . S
C1508 C1511 1.387 . S
H1509 C1505 0.950 . S
H1510 C1507 0.950 . S
C1511 C1502 1.390 . S
C1511 H1504 0.950 . S
C1511 C1508 1.387 . S
C1512 C1513 1.387 . S
C1512 H1516 0.950 . S
C1512 C1521 1.390 . S
C1513 C1512 1.387 . S
C1513 C1515 1.387 . S
H1514 C1521 0.950 . S
C1515 C1513 1.387 . S
C1515 C1517 1.390 . S
C1515 H1519 0.950 . S
H1516 C1512 0.950 . S
C1517 C1515 1.390 . S
C1517 C1518 1.387 . S
C1517 H1520 0.950 . S
C1518 C1517 1.387 . S
C1518 C1521 1.387 . S
H1519 C1515 0.950 . S
H1520 C1517 0.950 . S
C1521 C1512 1.390 . S
C1521 H1514 0.950 . S
C1521 C1518 1.387 . S
C1522 C1523 1.387 . S
C1522 H1526 0.950 1_556 S
C1522 C1531 1.390 . S
C1523 C1522 1.387 . S
C1523 C1525 1.387 . S
H1524 C1531 0.950 1_554 S
C1525 C1523 1.387 . S
C1525 C1527 1.390 . S
C1525 H1529 0.950 . S
H1526 C1522 0.950 1_554 S
C1527 C1525 1.390 . S
C1527 C1528 1.387 . S
C1527 H1530 0.950 . S
C1528 C1527 1.387 . S
C1528 C1531 1.387 . S
H1529 C1525 0.950 . S
H1530 C1527 0.950 . S
C1531 C1522 1.390 . S
C1531 H1524 0.950 1_556 S
C1531 C1528 1.387 . S
C1532 C1533 1.387 . S
C1532 H1536 0.950 . S
C1532 C1541 1.390 . S
C1533 C1532 1.387 . S
C1533 C1535 1.387 . S
H1534 C1541 0.950 . S
C1535 C1533 1.387 . S
C1535 C1537 1.390 . S
C1535 H1539 0.950 . S
H1536 C1532 0.950 . S
C1537 C1535 1.390 . S
C1537 C1538 1.387 . S
C1537 H1540 0.950 . S
C1538 C1537 1.387 . S
C1538 C1541 1.387 . S
H1539 C1535 0.950 . S
H1540 C1537 0.950 . S
C1541 C1532 1.390 . S
C1541 H1534 0.950 . S
C1541 C1538 1.387 . S
C1542 C1543 1.387 . S
C1542 H1546 0.950 . S
C1542 C1551 1.390 . S
C1543 C1542 1.387 . S
C1543 C1545 1.387 . S
H1544 C1551 0.950 . S
C1545 C1543 1.387 . S
C1545 C1547 1.390 . S
C1545 H1549 0.950 . S
H1546 C1542 0.950 . S
C1547 C1545 1.390 . S
C1547 C1548 1.387 . S
C1547 H1550 0.950 . S
C1548 C1547 1.387 . S
C1548 C1551 1.387 . S
H1549 C1545 0.950 . S
H1550 C1547 0.950 . S
C1551 C1542 1.390 . S
C1551 H1544 0.950 . S
C1551 C1548 1.387 . S
C1552 C1553 1.387 . S
C1552 H1556 0.950 . S
C1552 C1561 1.390 . S
C1553 C1552 1.387 . S
C1553 C1555 1.387 . S
H1554 C1561 0.950 . S
C1555 C1553 1.387 . S
C1555 C1557 1.390 . S
C1555 H1559 0.950 . S
H1556 C1552 0.950 . S
C1557 C1555 1.390 . S
C1557 C1558 1.387 . S
C1557 H1560 0.950 . S
C1558 C1557 1.387 . S
C1558 C1561 1.387 . S
H1559 C1555 0.950 . S
H1560 C1557 0.950 . S
C1561 C1552 1.390 . S
C1561 H1554 0.950 . S
C1561 C1558 1.387 . S
C1562 C1563 1.387 . S
C1562 H1566 0.950 . S
C1562 C1571 1.390 . S
C1563 C1562 1.387 . S
C1563 C1565 1.387 . S
H1564 C1571 0.950 . S
C1565 C1563 1.387 . S
C1565 C1567 1.390 . S
C1565 H1569 0.950 . S
H1566 C1562 0.950 . S
C1567 C1565 1.390 . S
C1567 C1568 1.387 . S
C1567 H1570 0.950 . S
C1568 C1567 1.387 . S
C1568 C1571 1.387 . S
H1569 C1565 0.950 . S
H1570 C1567 0.950 . S
C1571 C1562 1.390 . S
C1571 H1564 0.950 . S
C1571 C1568 1.387 . S
C1572 C1573 1.387 . S
C1572 H1576 0.950 . S
C1572 C1581 1.390 . S
C1573 C1572 1.387 . S
C1573 C1575 1.387 . S
H1574 C1581 0.950 . S
C1575 C1573 1.387 . S
C1575 C1577 1.390 . S
C1575 H1579 0.950 . S
H1576 C1572 0.950 . S
C1577 C1575 1.390 . S
C1577 C1578 1.387 . S
C1577 H1580 0.950 . S
C1578 C1577 1.387 . S
C1578 C1581 1.387 . S
H1579 C1575 0.950 . S
H1580 C1577 0.950 . S
C1581 C1572 1.390 . S
C1581 H1574 0.950 . S
C1581 C1578 1.387 . S
C1582 C1583 1.387 . S
C1582 H1586 0.950 . S
C1582 C1591 1.390 . S
C1583 C1582 1.387 . S
C1583 C1585 1.387 . S
H1584 C1591 0.950 . S
C1585 C1583 1.387 . S
C1585 C1587 1.390 . S
C1585 H1589 0.950 . S
H1586 C1582 0.950 . S
C1587 C1585 1.390 . S
C1587 C1588 1.387 . S
C1587 H1590 0.950 . S
C1588 C1587 1.387 . S
C1588 C1591 1.387 . S
H1589 C1585 0.950 . S
H1590 C1587 0.950 . S
C1591 C1582 1.390 . S
C1591 H1584 0.950 . S
C1591 C1588 1.387 . S
C1592 C1593 1.387 . S
C1592 H1596 0.950 . S
C1592 C1601 1.390 . S
C1593 C1592 1.387 . S
C1593 C1595 1.387 . S
H1594 C1601 0.950 . S
C1595 C1593 1.387 . S
C1595 C1597 1.390 . S
C1595 H1599 0.950 . S
H1596 C1592 0.950 . S
C1597 C1595 1.390 . S
C1597 C1598 1.387 . S
C1597 H1600 0.950 . S
C1598 C1597 1.387 . S
C1598 C1601 1.387 . S
H1599 C1595 0.950 . S
H1600 C1597 0.950 . S
C1601 C1592 1.390 . S
C1601 H1594 0.950 . S
C1601 C1598 1.387 . S
C1602 C1603 1.387 . S
C1602 H1606 0.950 1_556 S
C1602 C1611 1.390 . S
C1603 C1602 1.387 . S
C1603 C1605 1.387 . S
H1604 C1611 0.950 . S
C1605 C1603 1.387 . S
C1605 C1607 1.390 . S
C1605 H1609 0.950 . S
H1606 C1602 0.950 1_554 S
C1607 C1605 1.390 . S
C1607 C1608 1.387 . S
C1607 H1610 0.950 . S
C1608 C1607 1.387 . S
C1608 C1611 1.387 . S
H1609 C1605 0.950 . S
H1610 C1607 0.950 . S
C1611 C1602 1.390 . S
C1611 H1604 0.950 . S
C1611 C1608 1.387 . S
C1612 C1613 1.387 . S
C1612 H1616 0.950 1_565 S
C1612 C1621 1.390 . S
C1613 C1612 1.387 . S
C1613 C1615 1.387 . S
H1614 C1621 0.950 1_545 S
C1615 C1613 1.387 . S
C1615 C1617 1.390 . S
C1615 H1619 0.950 . S
H1616 C1612 0.950 1_545 S
C1617 C1615 1.390 . S
C1617 C1618 1.387 . S
C1617 H1620 0.950 . S
C1618 C1617 1.387 . S
C1618 C1621 1.387 . S
H1619 C1615 0.950 . S
H1620 C1617 0.950 . S
C1621 C1612 1.390 . S
C1621 H1614 0.950 1_565 S
C1621 C1618 1.387 . S
C1622 C1623 1.387 . S
C1622 H1626 0.950 . S
C1622 C1631 1.390 1_455 S
C1623 C1622 1.387 . S
C1623 C1625 1.387 . S
H1624 C1631 0.950 . S
C1625 C1623 1.387 . S
C1625 C1627 1.369 1_455 S
C1625 H1629 0.950 . S
H1626 C1622 0.950 . S
C1627 C1625 1.369 1_655 S
C1627 C1628 1.399 . S
C1627 H1630 0.959 . S
C1628 C1627 1.399 . S
C1628 C1631 1.387 . S
H1629 C1625 0.950 . S
H1630 C1627 0.959 . S
C1631 C1622 1.390 1_655 S
C1631 H1624 0.950 . S
C1631 C1628 1.387 . S
C678 C354 1.202 . S
C673 C11 1.243 . S
C683 C14 1.515 . S
C688 C374 1.637 . S
C698 C394 1.317 . S
C693 C37 1.377 . S
C708 C413 1.619 . S
C703 C47 1.539 . S
C718 C371 1.584 . S
C713 C61 1.511 . S
C723 C79 1.445 . S
C728 C396 1.385 . S
C738 C416 1.543 . S
C733 C84 1.456 . S
C743 C109 1.350 . S
C748 C352 1.307 . S
C753 C123 1.514 . S
C758 C349 1.502 . S
C768 C372 1.412 . S
C763 C131 1.490 . S
C778 C395 1.621 . S
C773 C140 1.477 . S
C788 C417 1.549 . S
C783 C163 1.593 1_545 S
C798 C375 1.214 . S
C793 C121 1.293 . S
C808 C391 1.243 1_545 S
C803 C126 1.321 . S
C813 C145 1.330 . S
C818 C414 1.240 . S
C828 C353 1.233 . S
C823 C165 1.148 . S
C833 C168 1.430 . S
C838 C350 1.547 . S
C843 C193 1.122 . S
C848 C433 1.002 . S
C858 C455 1.557 . S
C853 C205 1.468 . S
C868 C478 1.222 . S
C863 C215 1.398 . S
C873 C224 1.467 . S
C878 C351 1.453 . S
C883 C247 1.608 . S
C888 C393 1.567 . S
C898 C475 1.258 . S
C893 C207 1.415 . S
C908 C436 1.164 . S
C903 C257 1.265 . S
C918 C501 1.230 . S
C913 C23 1.291 . S
C928 C521 1.558 . S
C923 C0 1.527 . S
C933 C53 1.224 . S
C938 C543 1.150 . S
C943 C33 1.409 . S
C948 C560 1.435 . S
C953 C103 1.667 . S
C958 C518 1.675 . S
C963 C95 1.248 . S
C968 C541 1.077 . S
C978 C563 1.438 . S
C973 C70 1.381 . S
C983 C65 1.397 . S
C988 C499 1.233 . S
C993 C271 1.280 1_565 S
C998 C496 1.114 . S
C1008 C519 1.537 . S
C1003 C219 1.627 1_545 S
C1018 C538 1.228 . S
C1013 C235 1.386 . S
C1028 C564 1.338 1_545 S
C1023 C182 1.426 . S
C1038 C522 1.162 . S
C1033 C266 1.244 . S
C1048 C542 1.112 . S
C1043 C221 1.096 . S
C1058 C561 1.132 . S
C1053 C233 1.208 . S
C1063 C187 1.456 . S
C1068 C500 1.479 1_545 S
C1078 C497 1.480 . S
C1073 C289 1.431 . S
C1083 C154 1.301 . S
C1088 C580 1.105 . S
C1098 C603 1.371 . S
C1093 C299 1.467 . S
C1103 C137 1.388 . S
C1108 C625 1.120 . S
C1118 C498 1.429 1_545 S
C1113 C149 1.490 . S
C1128 C539 1.445 . S
C1123 C313 1.430 . S
C1138 C622 1.081 . S
C1133 C294 1.280 . S
C1143 C333 1.122 . S
C1148 C583 0.950 . S
C1153 C39 1.243 . S
C1158 C648 1.198 . S
C1163 C42 1.517 . S
C1168 C437 1.639 . S
C1178 C457 1.317 . S
C1173 C9 1.377 . S
C1183 C19 1.538 . S
C1188 C476 1.619 . S
C1193 C89 1.513 . S
C1198 C434 1.584 . S
C1203 C107 1.444 . S
C1208 C459 1.385 . S
C1218 C479 1.543 . S
C1213 C56 1.457 . S
C1228 C646 1.311 . S
C1223 C81 1.349 . S
C1238 C643 1.498 . S
C1233 C305 1.515 . S
C1248 C435 1.412 . S
C1243 C285 1.490 . S
C1258 C458 1.621 . S
C1253 C322 1.477 . S
C1263 C317 1.591 . S
C1268 C480 1.545 . S
C1278 C438 1.214 . S
C1273 C303 1.293 . S
C1283 C280 1.321 . S
C1288 C454 1.249 . S
C1298 C477 1.241 . S
C1293 C327 1.331 . S
C1303 C319 1.149 . S
C1308 C647 1.235 . S
C1318 C644 1.549 . S
C1313 C210 1.433 . S
C1323 C249 1.122 . S
C1328 C370 1.002 . S
C1338 C392 1.558 . S
C1333 C275 1.469 1_565 S
C1343 C173 1.398 . S
C1348 C415 1.223 . S
C1358 C645 1.457 . S
C1353 C252 1.467 . S
C1368 C456 1.565 . S
C1363 C191 1.605 . S
C1378 C412 1.258 . S
C1373 C277 1.415 . S
C1388 C373 1.158 . S
C1383 C229 1.267 . S
C1393 C51 1.287 . S
C1398 C669 1.225 . S
C1403 C28 1.525 . S
C1408 C584 1.557 . S
C1413 C25 1.227 . S
C1418 C606 1.154 . S
C1428 C623 1.436 . S
C1423 C5 1.409 . S
C1438 C581 1.675 . S
C1433 C75 1.667 . S
C1443 C67 1.246 . S
C1448 C604 1.073 . S
C1458 C626 1.434 . S
C1453 C98 1.377 . S
C1463 C93 1.398 . S
C1468 C667 1.236 . S
C1478 C664 1.119 . S
C1473 C201 1.283 . S
C1483 C177 1.627 . S
C1488 C582 1.537 . S
C1493 C263 1.384 . S
C1498 C601 1.222 . S
C1508 C627 1.334 . S
C1503 C238 1.422 . S
C1518 C585 1.164 . S
C1513 C196 1.246 . S
C1523 C179 1.097 . S
C1528 C605 1.112 . S
C1538 C624 1.132 . S
C1533 C261 1.209 . S
C1548 C668 1.479 . S
C1543 C243 1.457 . S
C1558 C665 1.481 . S
C1553 C135 1.431 . S
C1568 C517 1.106 . S
C1563 C308 1.302 . S
C1573 C117 1.467 . S
C1578 C540 1.371 . S
C1583 C291 1.388 . S
C1588 C562 1.119 . S
C1598 C666 1.429 . S
C1593 C331 1.490 . S
C1608 C602 1.443 . S
C1603 C159 1.427 . S
C1618 C559 1.081 . S
C1613 C112 1.280 . S
C1628 C520 0.948 . S
C1623 C151 1.121 . S
