# Generated by pormake.
# Topology soc, (4,6)-cn, num edge types: 1
# Building blocks:
#     Node 0, Type 0, BuildingBlock: ESEHIV_clean_sbu_0, # of connection points: 4
#     Node 1, Type 0, BuildingBlock: ESEHIV_clean_sbu_0, # of connection points: 4
#     Node 2, Type 0, BuildingBlock: ESEHIV_clean_sbu_0, # of connection points: 4
#     Node 3, Type 0, BuildingBlock: ESEHIV_clean_sbu_0, # of connection points: 4
#     Node 4, Type 0, BuildingBlock: ESEHIV_clean_sbu_0, # of connection points: 4
#     Node 5, Type 0, BuildingBlock: ESEHIV_clean_sbu_0, # of connection points: 4
#     Node 6, Type 0, BuildingBlock: ESEHIV_clean_sbu_0, # of connection points: 4
#     Node 7, Type 0, BuildingBlock: ESEHIV_clean_sbu_0, # of connection points: 4
#     Node 8, Type 0, BuildingBlock: ESEHIV_clean_sbu_0, # of connection points: 4
#     Node 9, Type 0, BuildingBlock: ESEHIV_clean_sbu_0, # of connection points: 4
#     Node 10, Type 0, BuildingBlock: ESEHIV_clean_sbu_0, # of connection points: 4
#     Node 11, Type 0, BuildingBlock: ESEHIV_clean_sbu_0, # of connection points: 4
#     Node 12, Type 1, BuildingBlock: KUMJIN_clean_sbu_0, # of connection points: 6
#     Node 13, Type 1, BuildingBlock: KUMJIN_clean_sbu_0, # of connection points: 6
#     Node 14, Type 1, BuildingBlock: KUMJIN_clean_sbu_0, # of connection points: 6
#     Node 15, Type 1, BuildingBlock: KUMJIN_clean_sbu_0, # of connection points: 6
#     Node 16, Type 1, BuildingBlock: KUMJIN_clean_sbu_0, # of connection points: 6
#     Node 17, Type 1, BuildingBlock: KUMJIN_clean_sbu_0, # of connection points: 6
#     Node 18, Type 1, BuildingBlock: KUMJIN_clean_sbu_0, # of connection points: 6
#     Node 19, Type 1, BuildingBlock: KUMJIN_clean_sbu_0, # of connection points: 6
#     Edge 20, Type (0, 1), BuildingBlock: KIFKEQ_clean_linker_1, # of connection points: 2
#     Edge 21, Type (0, 1), BuildingBlock: KIFKEQ_clean_linker_1, # of connection points: 2
#     Edge 22, Type (0, 1), BuildingBlock: KIFKEQ_clean_linker_1, # of connection points: 2
#     Edge 23, Type (0, 1), BuildingBlock: KIFKEQ_clean_linker_1, # of connection points: 2
#     Edge 24, Type (0, 1), BuildingBlock: KIFKEQ_clean_linker_1, # of connection points: 2
#     Edge 25, Type (0, 1), BuildingBlock: KIFKEQ_clean_linker_1, # of connection points: 2
#     Edge 26, Type (0, 1), BuildingBlock: KIFKEQ_clean_linker_1, # of connection points: 2
#     Edge 27, Type (0, 1), BuildingBlock: KIFKEQ_clean_linker_1, # of connection points: 2
#     Edge 28, Type (0, 1), BuildingBlock: KIFKEQ_clean_linker_1, # of connection points: 2
#     Edge 29, Type (0, 1), BuildingBlock: KIFKEQ_clean_linker_1, # of connection points: 2
#     Edge 30, Type (0, 1), BuildingBlock: KIFKEQ_clean_linker_1, # of connection points: 2
#     Edge 31, Type (0, 1), BuildingBlock: KIFKEQ_clean_linker_1, # of connection points: 2
#     Edge 32, Type (0, 1), BuildingBlock: KIFKEQ_clean_linker_1, # of connection points: 2
#     Edge 33, Type (0, 1), BuildingBlock: KIFKEQ_clean_linker_1, # of connection points: 2
#     Edge 34, Type (0, 1), BuildingBlock: KIFKEQ_clean_linker_1, # of connection points: 2
#     Edge 35, Type (0, 1), BuildingBlock: KIFKEQ_clean_linker_1, # of connection points: 2
#     Edge 36, Type (0, 1), BuildingBlock: KIFKEQ_clean_linker_1, # of connection points: 2
#     Edge 37, Type (0, 1), BuildingBlock: KIFKEQ_clean_linker_1, # of connection points: 2
#     Edge 38, Type (0, 1), BuildingBlock: KIFKEQ_clean_linker_1, # of connection points: 2
#     Edge 39, Type (0, 1), BuildingBlock: KIFKEQ_clean_linker_1, # of connection points: 2
#     Edge 40, Type (0, 1), BuildingBlock: KIFKEQ_clean_linker_1, # of connection points: 2
#     Edge 41, Type (0, 1), BuildingBlock: KIFKEQ_clean_linker_1, # of connection points: 2
#     Edge 42, Type (0, 1), BuildingBlock: KIFKEQ_clean_linker_1, # of connection points: 2
#     Edge 43, Type (0, 1), BuildingBlock: KIFKEQ_clean_linker_1, # of connection points: 2
#     Edge 44, Type (0, 1), BuildingBlock: KIFKEQ_clean_linker_1, # of connection points: 2
#     Edge 45, Type (0, 1), BuildingBlock: KIFKEQ_clean_linker_1, # of connection points: 2
#     Edge 46, Type (0, 1), BuildingBlock: KIFKEQ_clean_linker_1, # of connection points: 2
#     Edge 47, Type (0, 1), BuildingBlock: KIFKEQ_clean_linker_1, # of connection points: 2
#     Edge 48, Type (0, 1), BuildingBlock: KIFKEQ_clean_linker_1, # of connection points: 2
#     Edge 49, Type (0, 1), BuildingBlock: KIFKEQ_clean_linker_1, # of connection points: 2
#     Edge 50, Type (0, 1), BuildingBlock: KIFKEQ_clean_linker_1, # of connection points: 2
#     Edge 51, Type (0, 1), BuildingBlock: KIFKEQ_clean_linker_1, # of connection points: 2
#     Edge 52, Type (0, 1), BuildingBlock: KIFKEQ_clean_linker_1, # of connection points: 2
#     Edge 53, Type (0, 1), BuildingBlock: KIFKEQ_clean_linker_1, # of connection points: 2
#     Edge 54, Type (0, 1), BuildingBlock: KIFKEQ_clean_linker_1, # of connection points: 2
#     Edge 55, Type (0, 1), BuildingBlock: KIFKEQ_clean_linker_1, # of connection points: 2
#     Edge 56, Type (0, 1), BuildingBlock: KIFKEQ_clean_linker_1, # of connection points: 2
#     Edge 57, Type (0, 1), BuildingBlock: KIFKEQ_clean_linker_1, # of connection points: 2
#     Edge 58, Type (0, 1), BuildingBlock: KIFKEQ_clean_linker_1, # of connection points: 2
#     Edge 59, Type (0, 1), BuildingBlock: KIFKEQ_clean_linker_1, # of connection points: 2
#     Edge 60, Type (0, 1), BuildingBlock: KIFKEQ_clean_linker_1, # of connection points: 2
#     Edge 61, Type (0, 1), BuildingBlock: KIFKEQ_clean_linker_1, # of connection points: 2
#     Edge 62, Type (0, 1), BuildingBlock: KIFKEQ_clean_linker_1, # of connection points: 2
#     Edge 63, Type (0, 1), BuildingBlock: KIFKEQ_clean_linker_1, # of connection points: 2
#     Edge 64, Type (0, 1), BuildingBlock: KIFKEQ_clean_linker_1, # of connection points: 2
#     Edge 65, Type (0, 1), BuildingBlock: KIFKEQ_clean_linker_1, # of connection points: 2
#     Edge 66, Type (0, 1), BuildingBlock: KIFKEQ_clean_linker_1, # of connection points: 2
#     Edge 67, Type (0, 1), BuildingBlock: KIFKEQ_clean_linker_1, # of connection points: 2
# Relax obj value: 0.067
# Max RMSD: 0.198
# Mean RMSD: 0.140
data_MOF--net-soc--node1-ESEHIV_clean_sbu_0--node2-KUMJIN_clean_sbu_0--edge1-KIFKEQ_clean_linker_1
_symmetry_space_group_name_H-M    P1
_symmetry_Int_Tables_number       1
_symmetry_cell_setting            triclinic
loop_
_symmetry_equiv_pos_as_xyz
'x, y, z'
_cell_length_a     52.207203
_cell_length_b     50.538905
_cell_length_c     41.984929
_cell_angle_alpha  83.920802
_cell_angle_beta   82.117061
_cell_angle_gamma 73.160225
loop_
_atom_site_label
_atom_site_type_symbol
_atom_site_fract_x
_atom_site_fract_y
_atom_site_fract_z
_atom_type_partial_charge
Cu0 Cu 0.04941 0.04765 0.37136 0.0
N1 N 0.063 0.06646 0.3982 0.0
N2 N 0.08518 0.0943 0.4125 0.0
C3 C 0.07688 0.08503 0.38786 0.0
C4 C 0.07603 0.08123 0.43943 0.0
C5 C 0.06215 0.06422 0.43056 0.0
O6 O 0.08003 0.02349 0.3456 0.0
C7 C 1.00791 0.07731 0.32835 0.0
O8 O 1.01094 0.05443 0.31426 0.0
H9 H 0.08132 0.09113 0.36268 0.0
H10 H 0.05231 0.05108 0.4466 0.0
N11 N 0.03135 0.02382 0.39539 0.0
N12 N 1.00447 0.99583 0.40627 0.0
C13 C 1.00993 0.01731 0.38731 0.0
C14 C 0.03979 1.00583 0.42033 0.0
C15 C 1.02318 0.98867 0.42723 0.0
C16 C 0.10084 0.01172 0.36016 0.0
O17 O 0.10102 0.01768 0.38978 0.0
H18 H 0.99958 0.02699 0.36671 0.0
H19 H 0.05761 1.00429 0.43163 0.0
O20 O 1.02315 0.07747 0.34954 0.0
H21 H 0.07891 0.08402 0.46377 0.0
H22 H 1.02528 0.97175 0.44566 0.0
Cu23 Cu 0.04654 0.0478 0.75881 0.0
N24 N 0.03238 0.02923 0.73221 0.0
N25 N 1.00961 1.00199 0.71777 0.0
C26 C 1.01325 0.01604 0.74161 0.0
C27 C 0.02699 1.0066 0.69237 0.0
C28 C 0.04089 0.02353 0.70129 0.0
O29 O 1.01667 0.07318 0.78386 0.0
C30 C 0.09269 1.00569 0.76272 0.0
O31 O 0.09283 0.01295 0.73174 0.0
H32 H 1.003 0.01581 0.76583 0.0
H33 H 0.05672 0.03047 0.68656 0.0
N34 N 0.06556 0.07083 0.73531 0.0
N35 N 0.09211 0.09904 0.72824 0.0
C36 C 0.08395 0.07936 0.74771 0.0
C37 C 0.06185 0.08555 0.70683 0.0
C38 C 0.07825 0.10307 0.70241 0.0
C39 C 0.99869 0.08847 0.76688 0.0
O40 O 1.00097 0.08446 0.73609 0.0
H41 H 0.08992 0.07245 0.77158 0.0
H42 H 0.0474 0.08456 0.69116 0.0
O43 O 0.07317 0.0191 0.78188 0.0
H44 H 0.02963 0.99808 0.66916 0.0
H45 H 0.0793 0.11812 0.68227 0.0
Cu46 Cu 0.33657 0.0546 0.10654 0.0
N47 N 0.36423 0.02777 0.08563 0.0
N48 N 0.37835 0.98969 0.05816 0.0
C49 C 0.36281 1.00183 0.08389 0.0
C50 C 0.39049 0.00861 0.04331 0.0
C51 C 0.38178 0.0321 0.06039 0.0
O52 O 0.31474 0.03219 0.13271 0.0
C53 C 0.30932 0.10513 0.06921 0.0
O54 O 0.30214 0.11752 0.09629 0.0
H55 H 0.34768 0.99357 0.0982 0.0
H56 H 0.38531 0.05198 0.05265 0.0
N57 N 0.35102 0.07423 0.13169 0.0
N58 N 0.35547 0.10483 0.1642 0.0
C59 C 0.33814 0.09399 0.15223 0.0
C60 C 0.3773 0.07243 0.13075 0.0
C61 C 0.38013 0.09113 0.15063 0.0
C62 C 0.32231 0.01991 0.15952 0.0
O63 O 0.34126 0.02662 0.17169 0.0
H64 H 0.31649 0.10036 0.15802 0.0
H65 H 0.39332 0.05885 0.116 0.0
O66 O 0.32117 0.07918 0.06997 0.0
H67 H 0.40248 1.00671 0.02005 0.0
H68 H 0.39894 0.09487 0.15392 0.0
Cu69 Cu 0.07107 0.30219 0.1023 0.0
N70 N 0.08293 0.31902 0.06314 0.0
N71 N 0.10962 0.32632 1.01832 0.0
C72 C 0.10605 0.30873 0.04413 0.0
C73 C 0.08767 0.34847 0.0213 0.0
C74 C 0.07135 0.34393 0.04888 0.0
O75 O 0.09509 0.30439 0.13443 0.0
C76 C 0.06201 0.24973 0.08193 0.0
O77 O 0.07159 0.22261 0.08493 0.0
H78 H 0.12023 0.28896 0.04959 0.0
H79 H 0.05242 0.35788 0.05799 0.0
N80 N 0.03533 0.32003 0.11819 0.0
N81 N 0.99319 0.32667 0.14269 0.0
C82 C 1.01499 0.30846 0.12827 0.0
C83 C 0.02598 0.34638 0.12653 0.0
C84 C 1.00008 0.35052 0.14168 0.0
C85 C 0.11979 0.29015 0.13368 0.0
O86 O 0.12948 0.27213 0.11162 0.0
H87 H 1.01661 0.2868 0.12666 0.0
H88 H 0.03762 0.36122 0.12303 0.0
O89 O 0.07379 0.26368 0.09575 0.0
H90 H 0.08352 0.36668 1.00469 0.0
H91 H 0.98747 0.36943 0.15181 0.0
Cu92 Cu 0.78046 0.02964 1.00744 0.0
N93 N 0.76273 0.06565 0.99276 0.0
N94 N 0.75447 0.10964 0.97272 0.0
C95 C 0.77224 0.08803 0.98666 0.0
C96 C 0.73311 0.10055 0.96978 0.0
C97 C 0.73822 0.07345 0.98229 0.0
O98 O 0.81832 0.02612 1.01074 0.0
C99 C 0.78243 0.97823 0.98212 0.0
O100 O 0.78875 0.96763 1.01087 0.0
H101 H 0.79227 0.08807 0.99062 0.0
H102 H 0.72543 0.05997 0.98261 0.0
N103 N 0.76327 0.01967 0.04699 0.0
N104 N 0.7558 0.99618 0.09385 0.0
C105 C 0.77433 1.00026 0.06947 0.0
C106 C 0.73694 0.02855 0.05769 0.0
C107 C 0.73225 0.01408 0.08657 0.0
C108 C 0.83285 0.03758 0.02372 0.0
O109 O 0.85909 0.02751 1.01776 0.0
H110 H 0.79531 0.98842 0.06708 0.0
H111 H 0.72207 0.04392 0.04494 0.0
O112 O 0.77852 1.00429 0.9756 0.0
H113 H 0.71541 0.11245 0.95862 0.0
H114 H 0.71291 0.01628 0.10079 0.0
Cu115 Cu 0.04067 0.76355 0.02095 0.0
N116 N 1.02406 0.7486 0.99289 0.0
N117 N 0.99522 0.74508 0.9596 0.0
C118 C 1.0037 0.7624 0.97549 0.0
C119 C 1.01086 0.71947 0.96744 0.0
C120 C 0.02842 0.72168 0.988 0.0
O121 O 1.01211 0.78187 0.0557 0.0
C122 C 0.08081 0.77216 0.96976 0.0
O123 O 0.07474 0.75168 0.95862 0.0
H124 H 0.99504 0.78464 0.97496 0.0
H125 H 0.04265 0.70466 0.99949 0.0
N126 N 0.06448 0.73589 0.04364 0.0
N127 N 0.09808 0.72565 0.0746 0.0
C128 C 0.07331 0.74205 0.06973 0.0
C129 C 0.08413 0.71433 0.03182 0.0
C130 C 0.10481 0.70783 0.05104 0.0
C131 C 0.99307 0.77061 0.0664 0.0
O132 O 0.99203 0.74892 0.05252 0.0
H133 H 0.06379 0.76111 0.08144 0.0
H134 H 0.08529 0.70661 1.00847 0.0
O135 O 0.06671 0.7828 0.99538 0.0
H136 H 1.00901 0.70032 0.95997 0.0
H137 H 0.12445 0.69338 0.04583 0.0
Cu138 Cu 0.54076 0.54593 0.87358 0.0
N139 N 0.55124 0.56614 0.90179 0.0
N140 N 0.57232 0.59467 0.91725 0.0
C141 C 0.57213 0.5772 0.89506 0.0
C142 C 0.55059 0.59448 0.93878 0.0
C143 C 0.53755 0.57709 0.92904 0.0
O144 O 0.57386 0.52334 0.8504 0.0
C145 C 0.49382 0.57275 0.83875 0.0
O146 O 0.49046 0.54824 0.83707 0.0
H147 H 0.5863 0.57318 0.87359 0.0
H148 H 0.51853 0.57406 0.93996 0.0
N149 N 0.52342 0.52045 0.89517 0.0
N150 N 0.50352 0.48637 0.90058 0.0
C151 C 0.51606 0.50214 0.88001 0.0
C152 C 0.51603 0.51547 0.92676 0.0
C153 C 0.50366 0.49438 0.93016 0.0
C154 C 0.59074 0.50878 0.86925 0.0
O155 O 0.58455 0.51089 0.90046 0.0
H156 H 0.51984 0.5004 0.85421 0.0
H157 H 0.51924 0.52637 0.94596 0.0
O158 O 0.51492 0.5747 0.84947 0.0
H159 H 0.54361 0.60724 0.95908 0.0
H160 H 0.49478 0.48616 0.95243 0.0
Cu161 Cu 0.56156 0.55253 0.24415 0.0
N162 N 0.54595 0.53337 0.22001 0.0
N163 N 0.52118 0.50663 0.20936 0.0
C164 C 0.52598 0.52175 0.23135 0.0
C165 C 0.5387 0.50891 0.18314 0.0
C166 C 0.55387 0.52553 0.18972 0.0
O167 O 0.53229 0.57843 0.26946 0.0
C168 C 0.60833 0.51098 0.2467 0.0
O169 O 0.60793 0.51879 0.21588 0.0
H170 H 0.51596 0.52339 0.2557 0.0
H171 H 0.57008 0.5308 0.17386 0.0
N172 N 0.58016 0.57491 0.21811 0.0
N173 N 0.60931 0.60013 0.20467 0.0
C174 C 0.60017 0.58307 0.22739 0.0
C175 C 0.57637 0.58724 0.18844 0.0
C176 C 0.59434 0.60289 0.18009 0.0
C177 C 0.51462 0.59376 0.25207 0.0
O178 O 0.51755 0.58972 0.22123 0.0
H179 H 0.60749 0.57698 0.25073 0.0
H180 H 0.56148 0.58522 0.17402 0.0
O181 O 0.58881 0.52377 0.26636 0.0
H182 H 0.54058 0.49902 0.16096 0.0
H183 H 0.59636 0.61512 0.1576 0.0
Cu184 Cu 0.82686 0.5674 0.60106 0.0
N185 N 0.85194 0.57818 0.57026 0.0
N186 N 0.86684 0.60069 0.52621 0.0
C187 C 0.84666 0.59055 0.54093 0.0
C188 C 0.8856 0.59437 0.54704 0.0
C189 C 0.87637 0.58041 0.57419 0.0
O190 O 0.80899 0.60083 0.62477 0.0
C191 C 0.81884 0.53037 0.56271 0.0
O192 O 0.84506 0.52225 0.56347 0.0
H193 H 0.82759 0.5938 0.53157 0.0
H194 H 0.88612 0.57378 0.59592 0.0
N195 N 0.84402 0.53893 0.62995 0.0
N196 N 0.85192 0.4996 0.66163 0.0
C197 C 0.83792 0.51474 0.63799 0.0
C198 C 0.86246 0.53913 0.64936 0.0
C199 C 0.86732 0.51491 0.66902 0.0
C200 C 0.80349 0.60016 0.65539 0.0
O201 O 0.80482 0.57612 0.67145 0.0
H202 H 0.82261 0.50887 0.62776 0.0
H203 H 0.87098 0.55615 0.65004 0.0
O204 O 0.80507 0.55162 0.57769 0.0
H205 H 0.90416 0.60032 0.54339 0.0
H206 H 0.8808 0.50917 0.68759 0.0
Cu207 Cu 0.57029 0.81037 0.5869 0.0
N208 N 0.59432 0.79163 0.55222 0.0
N209 N 0.6259 0.78339 0.50879 0.0
C210 C 0.61653 0.79774 0.53569 0.0
C211 C 0.60907 0.7675 0.50882 0.0
C212 C 0.58986 0.77256 0.53528 0.0
O213 O 0.59168 0.82053 0.616 0.0
C214 C 0.54318 0.84756 0.53874 0.0
O215 O 0.56528 0.84037 0.51875 0.0
H216 H 0.62458 0.81369 0.54209 0.0
H217 H 0.57296 0.76391 0.54086 0.0
N218 N 0.54644 0.79083 0.61072 0.0
N219 N 0.50914 0.78334 0.64067 0.0
C220 C 0.522 0.80241 0.62715 0.0
C221 C 0.54906 0.76345 0.6139 0.0
C222 C 0.5264 0.75881 0.63221 0.0
C223 C 0.5998 0.80434 0.64026 0.0
O224 O 0.59284 0.78116 0.64601 0.0
H225 H 0.51384 0.82452 0.62913 0.0
H226 H 0.56617 0.74789 0.60337 0.0
O227 O 0.54457 0.84244 0.56888 0.0
H228 H 0.61008 0.75361 0.49045 0.0
H229 H 0.5228 0.73874 0.63816 0.0
Cu230 Cu 0.28826 0.52433 0.51753 0.0
N231 N 0.30826 0.54741 0.49402 0.0
N232 N 0.31711 0.5857 0.46766 0.0
C233 C 0.29782 0.57323 0.48043 0.0
C234 C 0.34054 0.56682 0.47376 0.0
C235 C 0.33505 0.54351 0.48998 0.0
O236 O 0.26315 0.54877 0.54762 0.0
C237 C 0.27883 0.50619 0.45906 0.0
O238 O 0.29668 0.51887 0.44554 0.0
H239 H 0.27641 0.58271 0.4803 0.0
H240 H 0.34965 0.5254 0.49905 0.0
N241 N 0.30858 0.49379 0.54214 0.0
N242 N 0.31776 0.45945 0.58133 0.0
C243 C 0.29925 0.48216 0.57021 0.0
C244 C 0.33371 0.47751 0.5349 0.0
C245 C 0.33949 0.45655 0.55902 0.0
C246 C 0.27345 0.55384 0.57132 0.0
O247 O 0.29888 0.54125 0.57445 0.0
H248 H 0.27916 0.4903 0.58217 0.0
H249 H 0.34668 0.48007 0.51311 0.0
O250 O 0.27108 0.50792 0.48913 0.0
H251 H 0.36039 0.56982 0.46794 0.0
H252 H 0.35801 0.43995 0.55944 0.0
Cu253 Cu 0.52704 0.28325 0.5311 0.0
N254 N 0.55703 0.26589 0.50256 0.0
N255 N 0.59599 0.25981 0.47024 0.0
C256 C 0.57965 0.27414 0.49419 0.0
C257 C 0.58315 0.24194 0.46303 0.0
C258 C 0.55921 0.24567 0.48305 0.0
O259 O 0.5399 0.30838 0.55415 0.0
C260 C 0.48361 0.28149 0.49888 0.0
O261 O 0.49188 0.2556 0.51028 0.0
H262 H 0.58352 0.29122 0.50434 0.0
H263 H 0.54407 0.235 0.48264 0.0
N264 N 0.51672 0.2587 0.56396 0.0
N265 N 0.49343 0.24474 0.60821 0.0
C266 C 0.4939 0.26499 0.58458 0.0
C267 C 0.53105 0.23344 0.57479 0.0
C268 C 0.51682 0.22488 0.60223 0.0
C269 C 0.56015 0.29593 0.56952 0.0
O270 O 0.56997 0.26898 0.56848 0.0
H271 H 0.47851 0.28462 0.58313 0.0
H272 H 0.55089 0.2225 0.56422 0.0
O273 O 0.49597 0.2986 0.50512 0.0
H274 H 0.59042 0.22747 0.44437 0.0
H275 H 0.52332 0.20576 0.61696 0.0
Eu276 Eu 0.27356 0.29654 0.35156 0.0
C277 C 0.32148 0.30528 0.20858 0.0
C278 C 0.35769 0.26278 0.20293 0.0
C279 C 0.33377 0.28459 0.15696 0.0
C280 C 0.34114 0.28399 0.22198 0.0
C281 C 0.31807 0.30622 0.17571 0.0
C282 C 0.35349 0.26288 0.17057 0.0
C283 C 0.28562 0.35109 0.18163 0.0
N284 N 0.30669 0.32592 0.22728 0.0
C285 C 0.28976 0.34925 0.21409 0.0
C286 C 0.29955 0.3293 0.16245 0.0
Eu287 Eu 0.31461 0.32097 0.28199 0.0
N288 N 0.34478 0.28454 0.25328 0.0
C289 C 0.36573 0.2656 0.26643 0.0
C290 C 0.3783 0.24244 0.2168 0.0
C291 C 0.38256 0.24408 0.24855 0.0
H292 H 0.27893 0.36605 0.22898 0.0
H293 H 0.39873 0.22871 0.25934 0.0
H294 H 0.36582 0.24661 0.15566 0.0
H295 H 0.2717 0.36927 0.17143 0.0
H296 H 0.36909 0.26654 0.29102 0.0
H297 H 0.19084 0.39098 0.36955 0.0
H298 H 0.39136 0.22573 0.20302 0.0
H299 H 0.30583 0.2516 0.40708 0.0
H300 H 0.22019 0.35187 0.33979 0.0
H301 H 0.31118 0.24906 0.46514 0.0
H302 H 0.33124 0.28478 0.13174 0.0
H303 H 0.197 0.39506 0.42602 0.0
H304 H 0.22078 0.37455 0.47482 0.0
H305 H 0.29637 0.33081 0.13728 0.0
H306 H 0.25347 0.33587 0.50091 0.0
N307 N 0.24334 0.33414 0.37867 0.0
C308 C 0.22309 0.35322 0.36444 0.0
C309 C 0.20997 0.37778 0.41307 0.0
C310 C 0.22971 0.35727 0.42812 0.0
C311 C 0.20639 0.37551 0.38123 0.0
C312 C 0.24616 0.3353 0.41012 0.0
H313 H 0.28686 0.28873 0.49768 0.0
N314 N 0.27915 0.29233 0.407 0.0
C315 C 0.29813 0.26742 0.45405 0.0
C316 C 0.26466 0.31371 0.42474 0.0
C317 C 0.295 0.26886 0.4213 0.0
C318 C 0.28443 0.28989 0.47231 0.0
C319 C 0.26712 0.31325 0.45783 0.0
O320 O 0.26494 0.25733 0.36948 0.0
O321 O 0.29945 0.28607 0.3056 0.0
O322 O 0.27889 0.3133 0.26261 0.0
O323 O 0.24839 0.31401 0.30891 0.0
O324 O 0.30473 0.25522 0.34206 0.0
O325 O 0.23408 0.29082 0.34911 0.0
O326 O 0.32109 0.36167 0.26875 0.0
O327 O 0.28963 0.33109 0.32869 0.0
O328 O 0.31044 0.30164 0.37095 0.0
O329 O 0.34024 0.30343 0.32424 0.0
O330 O 0.28299 0.3618 0.2921 0.0
O331 O 0.35517 0.32634 0.27734 0.0
C332 C 0.31205 0.2612 0.31222 0.0
C333 C 0.21955 0.26075 0.38965 0.0
C334 C 0.18629 0.23604 0.41083 0.0
C335 C 0.20712 0.2399 0.38729 0.0
C336 C 0.17843 0.25294 0.43698 0.0
C337 C 0.21152 0.27726 0.41606 0.0
C338 C 0.19114 0.27327 0.43964 0.0
C339 C 0.25445 0.31402 0.27703 0.0
C340 C 0.23984 0.26605 0.36369 0.0
C341 C 0.25165 0.33568 0.47555 0.0
C342 C 0.23302 0.35768 0.4607 0.0
C343 C 0.27684 0.35596 0.32234 0.0
C344 C 0.36309 0.3629 0.24053 0.0
C345 C 0.37957 0.3795 0.24521 0.0
C346 C 0.3932 0.39104 0.21855 0.0
C347 C 0.39043 0.38561 0.18729 0.0
C348 C 0.36098 0.35735 0.2091 0.0
C349 C 0.37457 0.36866 0.18267 0.0
C350 C 0.33468 0.30161 0.35623 0.0
C351 C 0.3472 0.35269 0.26836 0.0
H352 H 0.21308 0.22724 0.36677 0.0
H353 H 0.16254 0.25027 0.45545 0.0
H354 H 0.22071 0.29344 0.41824 0.0
H355 H 0.185 0.28615 0.4599 0.0
H356 H 0.38135 0.38392 0.2694 0.0
H357 H 0.40077 0.39429 0.16648 0.0
H358 H 0.34865 0.34456 0.2049 0.0
H359 H 0.37267 0.3644 0.1585 0.0
Eu360 Eu 0.81176 0.30679 0.33236 0.0
C361 C 0.72242 0.26257 0.3016 0.0
C362 C 0.72555 0.22433 0.34236 0.0
C363 C 0.68255 0.24773 0.32269 0.0
C364 C 0.7378 0.24199 0.32125 0.0
C365 C 0.6947 0.26522 0.3017 0.0
C366 C 0.69789 0.22747 0.34312 0.0
C367 C 0.69358 0.29951 0.257 0.0
N368 N 0.73481 0.2787 0.28079 0.0
C369 C 0.72115 0.29562 0.25723 0.0
C370 C 0.68018 0.28455 0.27969 0.0
Eu371 Eu 0.78214 0.26952 0.28118 0.0
N372 N 0.76463 0.2392 0.31983 0.0
C373 C 0.78024 0.21896 0.33892 0.0
C374 C 0.74146 0.20386 0.36203 0.0
C375 C 0.76891 0.20118 0.36027 0.0
H376 H 0.73169 0.30591 0.23823 0.0
H377 H 0.78141 0.18544 0.37547 0.0
H378 H 0.68821 0.21412 0.35921 0.0
H379 H 0.68285 0.31353 0.23881 0.0
H380 H 0.80139 0.21646 0.33862 0.0
H381 H 0.8394 0.38371 0.24329 0.0
H382 H 0.73276 0.19003 0.37862 0.0
H383 H 0.84673 0.26705 0.38995 0.0
H384 H 0.80919 0.35798 0.27324 0.0
H385 H 0.89286 0.25475 0.40616 0.0
H386 H 0.66133 0.24951 0.32304 0.0
H387 H 0.88681 0.37223 0.25435 0.0
H388 H 0.92367 0.34373 0.28647 0.0
H389 H 0.65889 0.28719 0.2791 0.0
H390 H 0.93841 0.30817 0.32991 0.0
N391 N 0.83936 0.33147 0.30052 0.0
C392 C 0.82983 0.35264 0.27835 0.0
C393 C 0.87368 0.36073 0.26756 0.0
C394 C 0.88306 0.33974 0.2912 0.0
C395 C 0.84691 0.36732 0.26128 0.0
C396 C 0.86513 0.3254 0.30775 0.0
H397 H 0.92711 0.275 0.37464 0.0
N398 N 0.85554 0.29256 0.34873 0.0
C399 C 0.88775 0.26878 0.38519 0.0
C400 C 0.8735 0.30527 0.3323 0.0
C401 C 0.86176 0.27572 0.37599 0.0
C402 C 0.90703 0.28024 0.36731 0.0
C403 C 0.89989 0.29916 0.34094 0.0
O404 O 0.80587 0.31689 0.38272 0.0
O405 O 0.77766 0.28943 0.32792 0.0
O406 O 0.75663 0.31454 0.27975 0.0
O407 O 0.77756 0.33807 0.30868 0.0
O408 O 0.79223 0.2826 0.37238 0.0
O409 O 0.80182 0.34988 0.34463 0.0
O410 O 0.77806 0.26392 0.23119 0.0
O411 O 0.81482 0.28895 0.28489 0.0
O412 O 0.84191 0.26453 0.326 0.0
O413 O 0.82167 0.24022 0.29719 0.0
O414 O 0.80118 0.29371 0.24034 0.0
O415 O 0.79618 0.22837 0.2618 0.0
C416 C 0.77389 0.27956 0.35652 0.0
C417 C 0.77929 0.36192 0.39636 0.0
C418 C 0.7655 0.39918 0.43376 0.0
C419 C 0.78542 0.38183 0.41286 0.0
C420 C 0.73921 0.39617 0.43731 0.0
C421 C 0.75296 0.35958 0.4002 0.0
C422 C 0.73305 0.3767 0.42053 0.0
C423 C 0.7585 0.33731 0.29121 0.0
C424 C 0.80081 0.34359 0.37566 0.0
C425 C 0.91802 0.31273 0.32375 0.0
C426 C 0.90961 0.33301 0.29902 0.0
C427 C 0.81863 0.29865 0.2562 0.0
C428 C 0.77241 0.22058 0.22065 0.0
C429 C 0.78505 0.19997 0.19863 0.0
C430 C 0.76992 0.18453 0.18689 0.0
C431 C 0.74217 0.1904 0.19715 0.0
C432 C 0.74473 0.22554 0.23015 0.0
C433 C 0.72978 0.21067 0.21857 0.0
C434 C 0.84155 0.24185 0.31299 0.0
C435 C 0.78775 0.23699 0.23364 0.0
H436 H 0.80576 0.38378 0.40917 0.0
H437 H 0.72338 0.40846 0.45355 0.0
H438 H 0.74789 0.34446 0.38761 0.0
H439 H 0.71276 0.37467 0.42361 0.0
H440 H 0.80644 0.1958 0.191 0.0
H441 H 0.72983 0.17953 0.18819 0.0
H442 H 0.73437 0.24106 0.24635 0.0
H443 H 0.70839 0.21502 0.22615 0.0
Eu444 Eu 0.80725 0.76725 0.27182 0.0
C445 C 0.80171 0.80709 0.4005 0.0
C446 C 0.75668 0.83864 0.40455 0.0
C447 C 0.77409 0.81213 0.45242 0.0
C448 C 0.78098 0.8259 0.38588 0.0
C449 C 0.79871 0.80064 0.43414 0.0
C450 C 0.75314 0.83116 0.43767 0.0
C451 C 0.84567 0.77502 0.43013 0.0
N452 N 0.8254 0.79659 0.3823 0.0
C453 C 0.84775 0.78239 0.39706 0.0
C454 C 0.82088 0.7837 0.44869 0.0
Eu455 Eu 0.82689 0.80872 0.32564 0.0
N456 N 0.78492 0.83263 0.35372 0.0
C457 C 0.76581 0.85322 0.3393 0.0
C458 C 0.73675 0.85883 0.3895 0.0
C459 C 0.7415 0.86638 0.35683 0.0
H460 H 0.8673 0.77625 0.38317 0.0
H461 H 0.72638 0.88232 0.34505 0.0
H462 H 0.73446 0.84039 0.4522 0.0
H463 H 0.86327 0.76291 0.44132 0.0
H464 H 0.76878 0.85971 0.31422 0.0
H465 H 0.909 0.69529 0.25849 0.0
H466 H 0.71784 0.86901 0.40298 0.0
H467 H 0.76722 0.79568 0.21359 0.0
H468 H 0.86617 0.71941 0.2875 0.0
H469 H 0.77078 0.80354 0.15435 0.0
H470 H 0.77134 0.8071 0.47817 0.0
H471 H 0.91713 0.70328 0.19937 0.0
H472 H 0.8998 0.72647 0.14787 0.0
H473 H 0.81937 0.77823 0.4744 0.0
H474 H 0.86251 0.75644 0.1196 0.0
N475 N 0.84962 0.74217 0.24584 0.0
C476 C 0.86908 0.7236 0.26193 0.0
C477 C 0.8981 0.71415 0.21209 0.0
C478 C 0.8778 0.73223 0.19547 0.0
C479 C 0.89359 0.70961 0.24543 0.0
C480 C 0.85339 0.74601 0.21318 0.0
H481 H 0.81441 0.78515 0.12174 0.0
N482 N 0.80894 0.77516 0.21481 0.0
C483 C 0.78842 0.79245 0.16608 0.0
C484 C 0.83251 0.76313 0.19725 0.0
C485 C 0.78657 0.78818 0.19964 0.0
C486 C 0.81305 0.78203 0.14779 0.0
C487 C 0.83532 0.76658 0.16324 0.0
O488 O 0.77294 0.75528 0.25925 0.0
O489 O 0.79734 0.78445 0.32089 0.0
O490 O 0.84603 0.76386 0.34099 0.0
O491 O 0.8225 0.74045 0.3164 0.0
O492 O 0.76542 0.78925 0.29416 0.0
O493 O 0.80693 0.72395 0.27663 0.0
O494 O 0.85946 0.82131 0.34197 0.0
O495 O 0.83586 0.79218 0.27648 0.0
O496 O 0.79243 0.8117 0.25134 0.0
O497 O 0.80845 0.83685 0.28377 0.0
O498 O 0.86876 0.79059 0.29953 0.0
O499 O 0.82743 0.85202 0.32033 0.0
C500 C 0.77176 0.79261 0.32185 0.0
C501 C 0.78389 0.71107 0.23877 0.0
C502 C 0.76121 0.68353 0.21434 0.0
C503 C 0.76134 0.70131 0.23801 0.0
C504 C 0.78364 0.67631 0.19099 0.0
C505 C 0.80616 0.7032 0.21547 0.0
C506 C 0.8059 0.68615 0.19158 0.0
C507 C 0.83837 0.74168 0.33792 0.0
C508 C 0.78425 0.72884 0.26429 0.0
C509 C 0.85989 0.75375 0.14568 0.0
C510 C 0.88109 0.73661 0.16176 0.0
C511 C 0.86143 0.78603 0.27294 0.0
C512 C 0.84702 0.86628 0.3606 0.0
C513 C 0.86734 0.8794 0.36097 0.0
C514 C 0.86549 0.89761 0.38502 0.0
C515 C 0.84329 0.90196 0.40895 0.0
C516 C 0.82493 0.87137 0.38447 0.0
C517 C 0.82319 0.88893 0.40859 0.0
C518 C 0.79577 0.83509 0.25914 0.0
C519 C 0.8488 0.84761 0.33515 0.0
H520 H 0.7443 0.70693 0.25631 0.0
H521 H 0.78396 0.66302 0.17224 0.0
H522 H 0.82391 0.70989 0.21593 0.0
H523 H 0.82314 0.68032 0.17363 0.0
H524 H 0.88421 0.87587 0.34224 0.0
H525 H 0.84151 0.91533 0.42813 0.0
H526 H 0.80892 0.86198 0.3844 0.0
H527 H 0.80612 0.89254 0.42701 0.0
Eu528 Eu 0.29222 0.78736 0.28383 0.0
C529 C 0.33127 0.88201 0.31422 0.0
C530 C 0.36737 0.87864 0.27048 0.0
C531 C 0.34498 0.9231 0.29239 0.0
C532 C 0.35086 0.86602 0.29286 0.0
C533 C 0.32836 0.91071 0.31432 0.0
C534 C 0.36428 0.90716 0.27037 0.0
C535 C 0.29385 0.91286 0.35921 0.0
N536 N 0.31515 0.86965 0.33499 0.0
C537 C 0.29767 0.88442 0.3585 0.0
C538 C 0.30905 0.92616 0.33677 0.0
Eu539 Eu 0.3245 0.82076 0.33395 0.0
N540 N 0.35333 0.83842 0.29324 0.0
C541 C 0.37201 0.82252 0.27164 0.0
C542 C 0.38644 0.86232 0.2486 0.0
C543 C 0.3887 0.83417 0.24916 0.0
H544 H 0.28677 0.87419 0.37715 0.0
H545 H 0.40321 0.82139 0.23206 0.0
H546 H 0.37677 0.9171 0.25336 0.0
H547 H 0.2795 0.92441 0.37744 0.0
H548 H 0.37394 0.80096 0.27057 0.0
H549 H 0.21853 0.76476 0.38122 0.0
H550 H 0.39936 0.87128 0.23102 0.0
H551 H 0.3303 0.74622 0.22692 0.0
H552 H 0.24195 0.79434 0.34595 0.0
H553 H 0.34274 0.69689 0.21503 0.0
H554 H 0.34302 0.94505 0.29222 0.0
H555 H 0.23139 0.71435 0.37518 0.0
H556 H 0.25994 0.67361 0.34565 0.0
H557 H 0.3062 0.9482 0.33751 0.0
H558 H 0.29402 0.65508 0.30108 0.0
N559 N 0.26815 0.76118 0.31966 0.0
C560 C 0.24769 0.77251 0.34251 0.0
C561 C 0.24167 0.7273 0.35929 0.0
C562 C 0.26193 0.71593 0.33512 0.0
C563 C 0.23434 0.75574 0.36276 0.0
C564 C 0.27487 0.73363 0.31514 0.0
H565 H 0.3247 0.66358 0.25219 0.0
N566 N 0.30649 0.74044 0.27108 0.0
C567 C 0.32943 0.70388 0.23646 0.0
C568 C 0.29459 0.723 0.29034 0.0
C569 C 0.32237 0.73172 0.24327 0.0
C570 C 0.3192 0.68516 0.25751 0.0
C571 C 0.30116 0.69468 0.28447 0.0
O572 O 0.28591 0.78869 0.23337 0.0
O573 O 0.30441 0.82539 0.28906 0.0
O574 O 0.27994 0.84466 0.33873 0.0
O575 O 0.25974 0.82368 0.30595 0.0
O576 O 0.31247 0.81101 0.24349 0.0
O577 O 0.25208 0.79207 0.27102 0.0
O578 O 0.32648 0.82937 0.38305 0.0
O579 O 0.31008 0.78407 0.32997 0.0
O580 O 0.33556 0.76045 0.28434 0.0
O581 O 0.35593 0.78056 0.31796 0.0
O582 O 0.30366 0.79827 0.37516 0.0
O583 O 0.36352 0.81248 0.35229 0.0
C584 C 0.31289 0.83088 0.26021 0.0
C585 C 0.24211 0.80999 0.21854 0.0
C586 C 0.20946 0.81473 0.18061 0.0
C587 C 0.22746 0.79825 0.20153 0.0
C588 C 0.20613 0.84349 0.17719 0.0
C589 C 0.23889 0.8386 0.2149 0.0
C590 C 0.22087 0.85529 0.19422 0.0
C591 C 0.25874 0.84278 0.32585 0.0
C592 C 0.26013 0.79148 0.24017 0.0
C593 C 0.28894 0.67694 0.30499 0.0
C594 C 0.26945 0.68751 0.33029 0.0
C595 C 0.30128 0.77902 0.35885 0.0
C596 C 0.36486 0.80549 0.40892 0.0
C597 C 0.38415 0.81472 0.42119 0.0
C598 C 0.39435 0.8025 0.45008 0.0
C599 C 0.38539 0.78058 0.46647 0.0
C600 C 0.35634 0.78325 0.42511 0.0
C601 C 0.36667 0.77082 0.45379 0.0
C602 C 0.3564 0.76081 0.29904 0.0
C603 C 0.3527 0.82097 0.38066 0.0
H604 H 0.22979 0.77613 0.20511 0.0
H605 H 0.19241 0.85675 0.16118 0.0
H606 H 0.25013 0.84791 0.22804 0.0
H607 H 0.21829 0.87741 0.19139 0.0
H608 H 0.39062 0.83203 0.40878 0.0
H609 H 0.39305 0.77091 0.48885 0.0
H610 H 0.34149 0.77582 0.41592 0.0
H611 H 0.35994 0.7538 0.4664 0.0
Eu612 Eu 0.30863 0.81011 0.83846 0.0
C613 C 0.22047 0.78668 0.77274 0.0
C614 C 0.201 0.75661 0.81148 0.0
C615 C 0.17396 0.78658 0.77201 0.0
C616 C 0.223 0.76684 0.79866 0.0
C617 C 0.19604 0.79628 0.75878 0.0
C618 C 0.17639 0.76691 0.79836 0.0
C619 C 0.21727 0.82363 0.71875 0.0
N620 N 0.24197 0.79623 0.76076 0.0
C621 C 0.241 0.81375 0.73347 0.0
C622 C 0.19461 0.81507 0.73161 0.0
Eu623 Eu 0.28182 0.77556 0.78549 0.0
N624 N 0.24706 0.75707 0.81093 0.0
C625 C 0.25087 0.73625 0.83484 0.0
C626 C 0.20445 0.73607 0.83691 0.0
C627 C 0.22956 0.72568 0.84843 0.0
H628 H 0.25838 0.82065 0.7236 0.0
H629 H 0.23248 0.70959 0.86785 0.0
H630 H 0.15923 0.75946 0.80809 0.0
H631 H 0.21644 0.83789 0.69753 0.0
H632 H 0.27015 0.72815 0.84401 0.0
H633 H 0.30233 0.89693 0.74296 0.0
H634 H 0.18797 0.72785 0.84754 0.0
H635 H 0.36327 0.77241 0.87264 0.0
H636 H 0.28667 0.86157 0.77537 0.0
H637 H 0.41088 0.77032 0.87178 0.0
H638 H 0.15497 0.79394 0.76179 0.0
H639 H 0.34827 0.90013 0.74449 0.0
H640 H 0.39294 0.88047 0.76427 0.0
H641 H 0.17623 0.82284 0.72019 0.0
H642 H 0.42281 0.8453 0.79752 0.0
N643 N 0.32144 0.84567 0.80125 0.0
C644 C 0.30584 0.86322 0.77954 0.0
C645 C 0.34106 0.88484 0.76039 0.0
C646 C 0.35787 0.86582 0.78037 0.0
C647 C 0.3151 0.88321 0.75962 0.0
C648 C 0.34756 0.84612 0.80067 0.0
H649 H 0.42983 0.8041 0.83685 0.0
N650 N 0.35515 0.8062 0.83693 0.0
C651 C 0.39826 0.78589 0.85654 0.0
C652 C 0.36477 0.82585 0.81884 0.0
C653 C 0.37122 0.78706 0.85665 0.0
C654 C 0.40883 0.80504 0.83691 0.0
C655 C 0.39208 0.82546 0.81801 0.0
O656 O 0.31334 0.79467 0.88865 0.0
O657 O 0.281 0.78281 0.83757 0.0
O658 O 0.25305 0.8192 0.79161 0.0
O659 O 0.27108 0.84307 0.82394 0.0
O660 O 0.26708 0.81642 0.86631 0.0
O661 O 0.31564 0.83631 0.87236 0.0
O662 O 0.30748 0.75768 0.74297 0.0
O663 O 0.31734 0.78998 0.7923 0.0
O664 O 0.33511 0.76563 0.83346 0.0
O665 O 0.30927 0.74115 0.81533 0.0
O666 O 0.30276 0.80151 0.74833 0.0
O667 O 0.27753 0.7385 0.76589 0.0
C668 C 0.26131 0.79539 0.85736 0.0
C669 C 0.30262 0.8285 0.92768 0.0
C670 C 0.30218 0.85613 0.97201 0.0
C671 C 0.31492 0.84381 0.94348 0.0
C672 C 0.27699 0.85271 0.98499 0.0
C673 C 0.27767 0.82474 0.94113 0.0
C674 C 0.26498 0.83681 0.96976 0.0
C675 C 0.25211 0.84154 0.80648 0.0
C676 C 0.31613 0.81789 0.89668 0.0
C677 C 0.40194 0.84538 0.79846 0.0
C678 C 0.3849 0.86547 0.77967 0.0
C679 C 0.32204 0.80144 0.76474 0.0
C680 C 0.28317 0.7424 0.70886 0.0
C681 C 0.27484 0.72051 0.6996 0.0
C682 C 0.26318 0.72319 0.67053 0.0
C683 C 0.25911 0.74852 0.65168 0.0
C684 C 0.28026 0.76678 0.68846 0.0
C685 C 0.26786 0.76996 0.66046 0.0
C686 C 0.33122 0.74202 0.82719 0.0
C687 C 0.29395 0.74039 0.74013 0.0
H688 H 0.33412 0.84689 0.93297 0.0
H689 H 0.26674 0.86221 1.00691 0.0
H690 H 0.26792 0.81279 0.92951 0.0
H691 H 0.24564 0.83407 0.97998 0.0
H692 H 0.27801 0.70134 0.7147 0.0
H693 H 0.24939 0.75175 0.62986 0.0
H694 H 0.28723 0.78366 0.69429 0.0
H695 H 0.26511 0.78912 0.64542 0.0
Eu696 Eu 0.29436 0.26102 0.79443 0.0
C697 C 0.29168 0.31026 0.91952 0.0
C698 C 0.253 0.35033 0.91477 0.0
C699 C 0.26171 0.327 0.96739 0.0
C700 C 0.27596 0.33102 0.9005 0.0
C701 C 0.28513 0.30857 0.95332 0.0
C702 C 0.24566 0.34783 0.94815 0.0
C703 C 0.32687 0.27264 0.95734 0.0
N704 N 0.31411 0.29262 0.90526 0.0
C705 C 0.33258 0.27528 0.92385 0.0
C706 C 0.30276 0.28898 0.97212 0.0
Eu707 Eu 0.32152 0.29736 0.84787 0.0
N708 N 0.28323 0.33263 0.86817 0.0
C709 C 0.26928 0.35419 0.84911 0.0
C710 C 0.23817 0.37177 0.89513 0.0
C711 C 0.24656 0.37389 0.86223 0.0
H712 H 0.35153 0.26279 0.91268 0.0
H713 H 0.2354 0.39059 0.84685 0.0
H714 H 0.2279 0.36222 0.9594 0.0
H715 H 0.34115 0.25812 0.97173 0.0
H716 H 0.27506 0.35628 0.82363 0.0
H717 H 0.379 0.16688 0.80335 0.0
H718 H 0.22042 0.38694 0.90517 0.0
H719 H 0.26738 0.2931 0.72706 0.0
H720 H 0.33923 0.20269 0.82335 0.0
H721 H 0.27998 0.29542 0.66824 0.0
H722 H 0.25619 0.32574 0.99323 0.0
H723 H 0.3958 0.16756 0.74541 0.0
H724 H 0.39067 0.19009 0.68976 0.0
H725 H 0.29842 0.28703 0.99811 0.0
H726 H 0.36437 0.22566 0.65317 0.0
N727 N 0.3328 0.22438 0.77741 0.0
C728 C 0.34587 0.20361 0.79804 0.0
C729 C 0.37803 0.18344 0.75404 0.0
C730 C 0.36425 0.2042 0.73282 0.0
C731 C 0.36863 0.18301 0.78674 0.0
C732 C 0.34118 0.22444 0.74529 0.0
H733 H 0.32309 0.26486 0.64486 0.0
N734 N 0.30404 0.26325 0.73726 0.0
C735 C 0.29349 0.2813 0.68383 0.0
C736 C 0.32656 0.24463 0.7247 0.0
C737 C 0.28656 0.28008 0.7172 0.0
C738 C 0.3178 0.26401 0.67075 0.0
C739 C 0.33435 0.24487 0.69111 0.0
O740 O 0.25699 0.26019 0.77733 0.0
O741 O 0.28623 0.2831 0.83956 0.0
O742 O 0.32388 0.25467 0.87278 0.0
O743 O 0.2992 0.23584 0.84346 0.0
O744 O 0.25565 0.29344 0.80996 0.0
O745 O 0.28202 0.22293 0.79989 0.0
O746 O 0.35872 0.29963 0.86415 0.0
O747 O 0.32906 0.27589 0.80256 0.0
O748 O 0.29323 0.30308 0.76823 0.0
O749 O 0.31375 0.32416 0.8005 0.0
O750 O 0.36085 0.26637 0.82986 0.0
O751 O 0.33283 0.33611 0.84138 0.0
C752 C 0.26213 0.2972 0.8374 0.0
C753 C 0.23516 0.22943 0.80726 0.0
C754 C 0.19689 0.21023 0.81175 0.0
C755 C 0.22004 0.21541 0.79398 0.0
C756 C 0.18902 0.2196 0.84298 0.0
C757 C 0.2272 0.23835 0.83851 0.0
C758 C 0.20413 0.23356 0.85621 0.0
C759 C 0.31216 0.23549 0.86876 0.0
C760 C 0.25917 0.23461 0.78823 0.0
C761 C 0.35788 0.22551 0.67882 0.0
C762 C 0.37279 0.2052 0.69963 0.0
C763 C 0.3535 0.26252 0.803 0.0
C764 C 0.37954 0.331 0.83358 0.0
C765 C 0.39286 0.34783 0.84519 0.0
C766 C 0.41621 0.35283 0.82752 0.0
C767 C 0.426 0.34031 0.79813 0.0
C768 C 0.38916 0.31953 0.80383 0.0
C769 C 0.41241 0.324 0.78633 0.0
C770 C 0.30239 0.32374 0.77412 0.0
C771 C 0.35585 0.32524 0.85291 0.0
H772 H 0.22666 0.20811 0.77004 0.0
H773 H 0.17111 0.21628 0.85714 0.0
H774 H 0.23886 0.24891 0.84917 0.0
H775 H 0.19797 0.24064 0.88027 0.0
H776 H 0.38469 0.35732 0.86773 0.0
H777 H 0.44424 0.34299 0.78421 0.0
H778 H 0.37875 0.30711 0.79421 0.0
H779 H 0.41996 0.31474 0.76357 0.0
Eu780 Eu 0.78545 0.29164 0.79614 0.0
C781 C 0.81766 0.3853 0.85134 0.0
C782 C 0.85364 0.39494 0.8131 0.0
C783 C 0.8237 0.43158 0.84472 0.0
C784 C 0.83924 0.37642 0.82808 0.0
C785 C 0.81013 0.41279 0.86052 0.0
C786 C 0.84544 0.42266 0.82112 0.0
C787 C 0.77871 0.40017 0.90309 0.0
N788 N 0.80543 0.36645 0.86684 0.0
C789 C 0.78712 0.37306 0.89343 0.0
C790 C 0.78998 0.42023 0.88627 0.0
Eu791 Eu 0.82146 0.32092 0.8495 0.0
N792 N 0.84689 0.34942 0.82108 0.0
C793 C 0.86953 0.33922 0.80063 0.0
C794 C 0.8762 0.38488 0.79101 0.0
C795 C 0.88432 0.35684 0.78499 0.0
H796 H 0.77853 0.35747 0.9065 0.0
H797 H 0.90195 0.3488 0.76827 0.0
H798 H 0.85618 0.43722 0.80977 0.0
H799 H 0.76366 0.40555 0.92356 0.0
H800 H 0.87596 0.31756 0.79587 0.0
H801 H 0.70516 0.26226 0.87618 0.0
H802 H 0.88772 0.39848 0.77888 0.0
H803 H 0.82911 0.25601 0.73889 0.0
H804 H 0.73158 0.29363 0.85055 0.0
H805 H 0.8439 0.2085 0.72026 0.0
H806 H 0.81807 0.45284 0.85126 0.0
H807 H 0.71834 0.21338 0.86258 0.0
H808 H 0.74972 0.17535 0.83044 0.0
H809 H 0.78362 0.44115 0.89402 0.0
H810 H 0.78794 0.16051 0.78884 0.0
N811 N 0.76009 0.2626 0.82348 0.0
C812 C 0.73772 0.27229 0.84457 0.0
C813 C 0.73021 0.22698 0.85145 0.0
C814 C 0.75271 0.21736 0.8291 0.0
C815 C 0.72265 0.25458 0.85913 0.0
C816 C 0.76734 0.23598 0.81515 0.0
H817 H 0.82308 0.17273 0.74755 0.0
N818 N 0.80138 0.24658 0.77732 0.0
C819 C 0.82852 0.21356 0.74047 0.0
C820 C 0.78883 0.22761 0.79167 0.0
C821 C 0.82014 0.24037 0.75104 0.0
C822 C 0.81675 0.19341 0.756 0.0
C823 C 0.79627 0.20045 0.78148 0.0
O824 O 0.77641 0.30091 0.746 0.0
O825 O 0.80717 0.3227 0.8012 0.0
O826 O 0.78238 0.35322 0.83882 0.0
O827 O 0.75646 0.3263 0.82511 0.0
O828 O 0.8131 0.30736 0.75653 0.0
O829 O 0.74369 0.30737 0.78426 0.0
O830 O 0.83004 0.31377 0.89992 0.0
O831 O 0.79978 0.28997 0.84435 0.0
O832 O 0.82385 0.2592 0.8068 0.0
O833 O 0.85067 0.28443 0.82253 0.0
O834 O 0.79445 0.30435 0.88938 0.0
O835 O 0.86307 0.30584 0.86209 0.0
C836 C 0.81886 0.32453 0.77309 0.0
C837 C 0.73573 0.2928 0.73526 0.0
C838 C 0.69803 0.29285 0.70573 0.0
C839 C 0.7116 0.3073 0.7217 0.0
C840 C 0.70883 0.26414 0.70358 0.0
C841 C 0.74609 0.26424 0.73171 0.0
C842 C 0.73271 0.25004 0.71629 0.0
C843 C 0.75908 0.35001 0.83317 0.0
C844 C 0.75029 0.30686 0.75315 0.0
C845 C 0.78242 0.18153 0.79619 0.0
C846 C 0.76063 0.18999 0.81986 0.0
C847 C 0.78859 0.28737 0.8726 0.0
C848 C 0.87083 0.32198 0.91039 0.0
C849 C 0.89375 0.30758 0.92641 0.0
C850 C 0.9074 0.3224 0.94189 0.0
C851 C 0.89762 0.35144 0.94116 0.0
C852 C 0.86166 0.3509 0.91099 0.0
C853 C 0.87496 0.36546 0.92598 0.0
C854 C 0.84727 0.26133 0.81333 0.0
C855 C 0.85621 0.30743 0.8931 0.0
H856 H 0.70341 0.32943 0.72373 0.0
H857 H 0.69895 0.25262 0.69143 0.0
H858 H 0.76474 0.25276 0.74057 0.0
H859 H 0.74101 0.22798 0.714 0.0
H860 H 0.90101 0.2852 0.92658 0.0
H861 H 0.90723 0.36341 0.95303 0.0
H862 H 0.84397 0.36241 0.90016 0.0
H863 H 0.86749 0.3878 0.92605 0.0
Eu864 Eu 0.76872 0.788 0.84082 0.0
C865 C 0.80489 0.80952 0.69468 0.0
C866 C 0.83377 0.76484 0.6791 0.0
C867 C 0.80852 0.79693 0.63959 0.0
C868 C 0.82251 0.78414 0.70268 0.0
C869 C 0.79824 0.8165 0.66285 0.0
C870 C 0.82619 0.77112 0.64773 0.0
C871 C 0.77357 0.86241 0.67876 0.0
N872 N 0.79537 0.82799 0.71767 0.0
C873 C 0.7807 0.8545 0.71001 0.0
C874 C 0.78208 0.84322 0.65516 0.0
Eu875 Eu 0.80795 0.81292 0.76999 0.0
N876 N 0.82969 0.77888 0.73308 0.0
C877 C 0.84946 0.7556 0.74088 0.0
C878 C 0.85285 0.74015 0.68753 0.0
C879 C 0.86101 0.7357 0.71844 0.0
H880 H 0.77402 0.86934 0.72823 0.0
H881 H 0.87614 0.71692 0.72502 0.0
H882 H 0.83443 0.75645 0.62937 0.0
H883 H 0.76149 0.88326 0.67291 0.0
H884 H 0.85586 0.75187 0.76472 0.0
H885 H 0.69505 0.88532 0.87386 0.0
H886 H 0.86188 0.72473 0.67017 0.0
H887 H 0.80308 0.73703 0.88932 0.0
H888 H 0.71788 0.84719 0.839 0.0
H889 H 0.81533 0.72986 0.9452 0.0
H890 H 0.80342 0.8018 0.61508 0.0
H891 H 0.70856 0.88442 0.92826 0.0
H892 H 0.73698 0.8589 0.97162 0.0
H893 H 0.77655 0.84941 0.63097 0.0
H894 H 0.76978 0.81661 0.99106 0.0
N895 N 0.74439 0.82488 0.87309 0.0
C896 C 0.72387 0.84632 0.86275 0.0
C897 C 0.7186 0.86751 0.91311 0.0
C898 C 0.73868 0.84477 0.92419 0.0
C899 C 0.71087 0.86805 0.88245 0.0
C900 C 0.7512 0.82338 0.90344 0.0
H901 H 0.79867 0.76815 0.98162 0.0
N902 N 0.78036 0.779 0.8942 0.0
C903 C 0.80264 0.74966 0.93676 0.0
C904 C 0.76983 0.79974 0.9143 0.0
C905 C 0.79561 0.75371 0.90528 0.0
C906 C 0.79326 0.77136 0.95721 0.0
C907 C 0.77625 0.79663 0.94627 0.0
O908 O 0.75821 0.74927 0.85539 0.0
O909 O 0.78911 0.77954 0.7912 0.0
O910 O 0.76821 0.81399 0.75349 0.0
O911 O 0.74123 0.81158 0.80246 0.0
O912 O 0.79512 0.74625 0.82482 0.0
O913 O 0.72673 0.78712 0.84687 0.0
O914 O 0.82088 0.85072 0.76413 0.0
O915 O 0.78766 0.82086 0.81953 0.0
O916 O 0.80908 0.78719 0.85556 0.0
O917 O 0.83549 0.78527 0.8059 0.0
O918 O 0.78205 0.85477 0.78712 0.0
O919 O 0.85078 0.81097 0.76119 0.0
C920 C 0.79977 0.75371 0.79473 0.0
C921 C 0.7159 0.75351 0.88584 0.0
C922 C 0.68529 0.72722 0.91254 0.0
C923 C 0.70101 0.73451 0.88471 0.0
C924 C 0.68513 0.73905 0.9415 0.0
C925 C 0.71504 0.76525 0.91488 0.0
C926 C 0.69984 0.75794 0.94256 0.0
C927 C 0.74453 0.81563 0.77047 0.0
C928 C 0.73233 0.76089 0.85672 0.0
C929 C 0.76482 0.81844 0.96654 0.0
C930 C 0.74611 0.8425 0.95549 0.0
C931 C 0.77727 0.84672 0.81697 0.0
C932 C 0.86128 0.84972 0.73114 0.0
C933 C 0.87698 0.86683 0.73673 0.0
C934 C 0.8894 0.88029 0.71069 0.0
C935 C 0.88616 0.87625 0.67907 0.0
C936 C 0.8587 0.84555 0.69937 0.0
C937 C 0.87109 0.85878 0.67349 0.0
C938 C 0.83276 0.78305 0.83792 0.0
C939 C 0.84638 0.83784 0.75853 0.0
H940 H 0.70137 0.7258 0.86209 0.0
H941 H 0.6738 0.73353 0.9635 0.0
H942 H 0.72605 0.78006 0.9162 0.0
H943 H 0.69947 0.76695 0.96495 0.0
H944 H 0.879 0.87021 0.76124 0.0
H945 H 0.89556 0.8864 0.65868 0.0
H946 H 0.84694 0.83233 0.69455 0.0
H947 H 0.86886 0.85561 0.64904 0.0
H948 H 0.08118 0.13969 0.37113 0.0
H949 H 0.12414 0.0934 0.44921 0.0
H950 H 0.10665 0.17385 0.36851 0.0
H951 H 0.14992 0.12733 0.44632 0.0
H952 H 0.20849 0.18058 0.4043 0.0
H953 H 0.18467 0.1453 0.4033 0.0
H954 H 0.10872 0.20887 0.4099 0.0
H955 H 0.13244 0.24392 0.41156 0.0
C956 C 0.09624 0.13672 0.3875 0.0
C957 C 0.10064 0.11398 0.41045 0.0
C958 C 0.1107 0.15628 0.38611 0.0
C959 C 0.13026 0.15316 0.40718 0.0
C960 C 0.13507 0.13011 0.42967 0.0
C961 C 0.12021 0.11086 0.43151 0.0
C962 C 0.18673 0.18693 0.4053 0.0
C963 C 0.17225 0.21489 0.40807 0.0
C964 C 0.17313 0.16681 0.4049 0.0
C965 C 0.14488 0.17442 0.40653 0.0
C966 C 0.1305 0.20248 0.40843 0.0
C967 C 0.14404 0.22248 0.40951 0.0
H968 H 0.96952 0.08529 0.28649 0.0
H969 H 0.99304 0.12554 0.35883 0.0
H970 H 0.92983 0.12491 0.28108 0.0
H971 H 0.95321 0.16436 0.35439 0.0
H972 H 0.89255 0.242 0.32115 0.0
H973 H 0.93278 0.20325 0.32217 0.0
H974 H 0.88684 0.14777 0.30733 0.0
H975 H 0.84646 0.18707 0.30541 0.0
C976 C 0.96633 0.10259 0.30115 0.0
C977 C 0.98466 0.10214 0.323 0.0
C978 C 0.94337 0.12526 0.2983 0.0
C979 C 0.93806 0.14804 0.31731 0.0
C980 C 0.95665 0.1476 0.33885 0.0
C981 C 0.97958 0.12512 0.34154 0.0
C982 C 0.89085 0.22155 0.31845 0.0
C983 C 0.86603 0.2177 0.31377 0.0
C984 C 0.91407 0.19917 0.31902 0.0
C985 C 0.91327 0.17208 0.31518 0.0
C986 C 0.88846 0.16826 0.31005 0.0
C987 C 0.86519 0.1908 0.30919 0.0
H988 H 0.95804 0.01741 0.37881 0.0
H989 H 1.00581 0.94227 0.42488 0.0
H990 H 0.92535 0.99351 0.3708 0.0
H991 H 0.97253 0.91871 0.41811 0.0
H992 H 0.92047 0.87701 0.37379 0.0
H993 H 0.95446 0.90091 0.37724 0.0
H994 H 0.89146 0.97502 0.4019 0.0
H995 H 0.85767 0.95157 0.39719 0.0
C996 C 0.96161 0.99581 0.38725 0.0
C997 C 0.98463 0.98185 0.40254 0.0
C998 C 0.9427 0.98215 0.38292 0.0
C999 C 0.94627 0.95416 0.39382 0.0
C1000 C 0.96929 0.94017 0.40907 0.0
C1001 C 0.98821 0.95384 0.41339 0.0
C1002 C 0.91392 0.89852 0.37947 0.0
C1003 C 0.88636 0.91232 0.3854 0.0
C1004 C 0.93339 0.91213 0.38183 0.0
C1005 C 0.92572 0.93986 0.39004 0.0
C1006 C 0.89813 0.95376 0.39526 0.0
C1007 C 0.87873 0.9402 0.39293 0.0
H1008 H 0.15322 1.00423 0.36607 0.0
H1009 H 0.10043 0.9685 0.32547 0.0
H1010 H 0.19049 0.96315 0.35575 0.0
H1011 H 0.13777 0.92644 0.31602 0.0
H1012 H 0.21945 0.86177 0.28513 0.0
H1013 H 0.18142 0.90354 0.28863 0.0
H1014 H 0.20286 0.91749 0.37999 0.0
H1015 H 0.2409 0.87619 0.37614 0.0
C1016 C 0.14974 0.98766 0.35439 0.0
C1017 C 0.12394 0.9896 0.34654 0.0
C1018 C 0.17104 0.96387 0.34889 0.0
C1019 C 0.16709 0.94098 0.33592 0.0
C1020 C 0.14161 0.94358 0.32612 0.0
C1021 C 0.12022 0.96773 0.33131 0.0
C1022 C 0.21581 0.87359 0.30617 0.0
C1023 C 0.23349 0.86579 0.3302 0.0
C1024 C 0.19399 0.89762 0.30813 0.0
C1025 C 0.18926 0.91438 0.33425 0.0
C1026 C 0.20628 0.90573 0.35894 0.0
C1027 C 0.22811 0.88188 0.35687 0.0
H1028 H 0.12365 0.96495 0.72623 0.0
H1029 H 0.11196 0.99199 0.8227 0.0
H1030 H 0.1613 0.92643 0.74018 0.0
H1031 H 0.1505 0.95266 0.83683 0.0
H1032 H 0.24367 0.89481 0.8246 0.0
H1033 H 0.20391 0.93468 0.81841 0.0
H1034 H 0.16595 0.88296 0.77746 0.0
H1035 H 0.20478 0.84368 0.78405 0.0
C1036 C 0.12908 0.96266 0.75057 0.0
C1037 C 0.11466 0.9816 0.77337 0.0
C1038 C 0.1507 0.94042 0.75858 0.0
C1039 C 0.15888 0.9364 0.78961 0.0
C1040 C 0.14469 0.95533 0.81265 0.0
C1041 C 0.12253 0.97764 0.80468 0.0
C1042 C 0.22678 0.89194 0.81442 0.0
C1043 C 0.22792 0.86597 0.80396 0.0
C1044 C 0.20394 0.91475 0.81111 0.0
C1045 C 0.18189 0.91204 0.79715 0.0
C1046 C 0.18276 0.88591 0.78781 0.0
C1047 C 0.20531 0.86331 0.79126 0.0
H1048 H 0.08947 0.15293 0.71043 0.0
H1049 H 0.1336 0.08039 0.76422 0.0
H1050 H 0.1153 0.18033 0.72932 0.0
H1051 H 0.15952 0.10756 0.7829 0.0
H1052 H 0.1752 0.16997 0.84249 0.0
H1053 H 0.15061 0.14348 0.82006 0.0
H1054 H 0.15998 0.18739 0.7271 0.0
H1055 H 0.18371 0.21475 0.74993 0.0
C1056 C 0.10502 0.14273 0.72578 0.0
C1057 C 0.10931 0.11457 0.73611 0.0
C1058 C 0.11979 0.15843 0.73667 0.0
C1059 C 0.1392 0.14622 0.75802 0.0
C1060 C 0.14425 0.11778 0.76714 0.0
C1061 C 0.12948 0.10217 0.75636 0.0
C1062 C 0.17173 0.17425 0.81737 0.0
C1063 C 0.18144 0.19449 0.79803 0.0
C1064 C 0.15795 0.15879 0.80438 0.0
C1065 C 0.15355 0.16312 0.77169 0.0
C1066 C 0.16294 0.18361 0.75239 0.0
C1067 C 0.17676 0.19909 0.76541 0.0
H1068 H 0.95014 0.109 0.7449 0.0
H1069 H 0.99674 0.12122 0.81657 0.0
H1070 H 0.91484 0.15046 0.75938 0.0
H1071 H 0.96082 0.1634 0.83136 0.0
H1072 H 0.90201 0.25541 0.81135 0.0
H1073 H 0.93903 0.21248 0.80489 0.0
H1074 H 0.88106 0.16644 0.80539 0.0
H1075 H 0.84469 0.20847 0.81184 0.0
C1076 C 0.95268 0.1204 0.76414 0.0
C1077 C 0.97619 0.11168 0.77971 0.0
C1078 C 0.93237 0.14422 0.77249 0.0
C1079 C 0.93494 0.16031 0.79655 0.0
C1080 C 0.95831 0.15152 0.81259 0.0
C1081 C 0.97869 0.12723 0.80444 0.0
C1082 C 0.89725 0.23607 0.81025 0.0
C1083 C 0.8703 0.23567 0.81125 0.0
C1084 C 0.91843 0.21147 0.80676 0.0
C1085 C 0.91301 0.18607 0.8042 0.0
C1086 C 0.88604 0.18566 0.80662 0.0
C1087 C 0.86509 0.20997 0.81015 0.0
H1088 H 0.95845 0.01203 0.74645 0.0
H1089 H 1.02124 0.95215 0.69314 0.0
H1090 H 0.92811 0.98258 0.7478 0.0
H1091 H 0.99127 0.92241 0.6952 0.0
H1092 H 0.93565 0.86639 0.73951 0.0
H1093 H 0.96489 0.89598 0.74363 0.0
H1094 H 0.90875 0.96516 0.69833 0.0
H1095 H 0.88 0.93536 0.69332 0.0
C1096 C 0.96578 0.99245 0.73534 0.0
C1097 C 0.99208 0.98437 0.71955 0.0
C1098 C 0.94847 0.9757 0.73602 0.0
C1099 C 0.95744 0.95023 0.72169 0.0
C1100 C 0.98394 0.94187 0.70659 0.0
C1101 C 1.00099 0.95893 0.7052 0.0
C1102 C 0.92952 0.88799 0.73078 0.0
C1103 C 0.90567 0.89869 0.71611 0.0
C1104 C 0.94622 0.90483 0.73301 0.0
C1105 C 0.93901 0.9328 0.72131 0.0
C1106 C 0.91466 0.94371 0.7077 0.0
C1107 C 0.8983 0.92671 0.70477 0.0
H1108 H 0.38946 0.11685 0.20061 0.0
H1109 H 0.30749 0.14397 0.17683 0.0
H1110 H 0.38002 0.15534 0.23446 0.0
H1111 H 0.29767 0.18171 0.21217 0.0
H1112 H 0.29458 0.26233 0.2531 0.0
H1113 H 0.30578 0.22509 0.21696 0.0
H1114 H 0.35679 0.17172 0.28442 0.0
H1115 H 0.34637 0.20969 0.31987 0.0
C1116 C 0.36938 0.13094 0.20252 0.0
C1117 C 0.34932 0.12713 0.18562 0.0
C1118 C 0.36386 0.15295 0.22238 0.0
C1119 C 0.33806 0.17179 0.2262 0.0
C1120 C 0.31791 0.16791 0.20954 0.0
C1121 C 0.32346 0.14593 0.18953 0.0
C1122 C 0.30865 0.24291 0.25991 0.0
C1123 C 0.32019 0.23925 0.28897 0.0
C1124 C 0.31475 0.22129 0.23937 0.0
C1125 C 0.33219 0.1952 0.24764 0.0
C1126 C 0.34364 0.19157 0.27686 0.0
C1127 C 0.3376 0.21328 0.29731 0.0
H1128 H 0.96756 0.34334 0.2005 0.0
H1129 H 0.9633 0.29798 0.12095 0.0
H1130 H 0.92563 0.33503 0.22751 0.0
H1131 H 0.92056 0.29052 0.14763 0.0
H1132 H 0.82666 0.3278 0.19916 0.0
H1133 H 0.86946 0.33293 0.17036 0.0
H1134 H 0.91222 0.2818 0.24585 0.0
H1135 H 0.86984 0.27563 0.27373 0.0
C1136 C 0.95752 0.33174 0.18875 0.0
C1137 C 0.96865 0.32134 0.15861 0.0
C1138 C 0.93359 0.32694 0.20424 0.0
C1139 C 0.91982 0.31227 0.18961 0.0
C1140 C 0.93078 0.30197 0.15936 0.0
C1141 C 0.9552 0.30612 0.14421 0.0
C1142 C 0.84522 0.31761 0.20954 0.0
C1143 C 0.84468 0.3021 0.23939 0.0
C1144 C 0.86967 0.32047 0.19302 0.0
C1145 C 0.89408 0.30793 0.20603 0.0
C1146 C 0.89366 0.29185 0.23539 0.0
C1147 C 0.86931 0.28854 0.25153 0.0
H1148 H 0.80192 0.9728 0.12124 0.0
H1149 H 0.71916 0.97138 0.12601 0.0
H1150 H 0.8099 0.93482 0.16284 0.0
H1151 H 0.72689 0.93403 0.16842 0.0
H1152 H 0.76194 0.84475 0.21186 0.0
H1153 H 0.7514 0.88488 0.17338 0.0
H1154 H 0.79847 0.92378 0.21995 0.0
H1155 H 0.80978 0.88332 0.25769 0.0
C1156 C 0.78539 0.9645 0.13127 0.0
C1157 C 0.75994 0.97509 0.12013 0.0
C1158 C 0.78988 0.94291 0.15538 0.0
C1159 C 0.76903 0.93135 0.16894 0.0
C1160 C 0.74345 0.94227 0.15824 0.0
C1161 C 0.73894 0.96393 0.13418 0.0
C1162 C 0.77018 0.86173 0.21382 0.0
C1163 C 0.7871 0.86047 0.23757 0.0
C1164 C 0.76386 0.88494 0.19198 0.0
C1165 C 0.77427 0.90747 0.19343 0.0
C1166 C 0.79048 0.90659 0.21782 0.0
C1167 C 0.79678 0.88342 0.23965 0.0
H1168 H 0.08605 0.74691 0.13274 0.0
H1169 H 0.15054 0.72302 0.0562 0.0
H1170 H 0.11376 0.76804 0.15852 0.0
H1171 H 0.17808 0.74434 0.0815 0.0
H1172 H 0.22805 0.76644 0.15043 0.0
H1173 H 0.20203 0.74195 0.12721 0.0
H1174 H 0.13 0.80893 0.14744 0.0
H1175 H 0.15593 0.8329 0.17202 0.0
C1176 C 0.10632 0.74582 0.12176 0.0
C1177 C 0.11614 0.73323 0.09258 0.0
C1178 C 0.12207 0.75816 0.13626 0.0
C1179 C 0.14798 0.75825 0.12181 0.0
C1180 C 0.15829 0.74447 0.09342 0.0
C1181 C 0.14256 0.73205 0.07899 0.0
C1182 C 0.20663 0.77591 0.15002 0.0
C1183 C 0.19399 0.80152 0.1633 0.0
C1184 C 0.19175 0.76195 0.13648 0.0
C1185 C 0.16389 0.77333 0.13574 0.0
C1186 C 0.15136 0.79933 0.1482 0.0
C1187 C 0.16626 0.81329 0.16182 0.0
H1188 H 0.37586 0.94071 0.08854 0.0
H1189 H 0.36904 0.98806 0.99687 0.0
H1190 H 0.35919 0.90578 0.06788 0.0
H1191 H 0.3518 0.95363 0.97654 0.0
H1192 H 0.35191 0.84146 0.99288 0.0
H1193 H 0.37414 0.87181 1.01363 0.0
H1194 H 0.30354 0.94086 1.00348 0.0
H1195 H 0.28104 0.91043 0.98368 0.0
C1196 C 0.37145 0.94319 0.06376 0.0
C1197 C 0.37399 0.96683 0.04416 0.0
C1198 C 0.36186 0.92338 0.05203 0.0
C1199 C 0.35411 0.92729 0.02079 0.0
C1200 C 0.35764 0.95031 1.00076 0.0
C1201 C 0.36776 0.96978 1.01224 0.0
C1202 C 0.34112 0.86306 0.99552 0.0
C1203 C 0.31478 0.8737 0.98693 0.0
C1204 C 0.35379 0.88032 1.00729 0.0
C1205 C 0.34054 0.90857 1.0098 0.0
C1206 C 0.31414 0.91913 1.00149 0.0
C1207 C 0.30125 0.90176 0.99045 0.0
H1208 H 0.14536 0.2777 1.00036 0.0
H1209 H 0.12579 0.36634 0.979 0.0
H1210 H 0.18299 0.27146 0.95788 0.0
H1211 H 0.16334 0.36002 0.93649 0.0
H1212 H 0.21271 0.33451 0.83878 0.0
H1213 H 0.17633 0.3419 0.88317 0.0
H1214 H 0.22727 0.27942 0.94309 0.0
H1215 H 0.26335 0.2719 0.89851 0.0
C1216 C 0.14913 0.29592 0.9869 0.0
C1217 C 0.13225 0.32255 0.99326 0.0
C1218 C 0.17082 0.29232 0.96247 0.0
C1219 C 0.17624 0.31523 0.94361 0.0
C1220 C 0.15954 0.34185 0.95013 0.0
C1221 C 0.1379 0.34547 0.97458 0.0
C1222 C 0.21615 0.32261 0.86159 0.0
C1223 C 0.24108 0.30313 0.86539 0.0
C1224 C 0.19537 0.32688 0.88708 0.0
C1225 C 0.19881 0.31133 0.91685 0.0
C1226 C 0.22377 0.29163 0.9205 0.0
C1227 C 0.2446 0.28752 0.89505 0.0
H1228 H 0.7735 0.14383 1.00236 0.0
H1229 H 0.74529 0.13395 0.91375 0.0
H1230 H 0.78063 0.18855 0.97964 0.0
H1231 H 0.7535 0.17765 0.89072 0.0
H1232 H 0.81214 0.23404 0.85627 0.0
H1233 H 0.80271 0.19187 0.88154 0.0
H1234 H 0.74505 0.23936 0.95259 0.0
H1235 H 0.75359 0.28231 0.92588 0.0
C1236 C 0.76888 0.15129 0.97807 0.0
C1237 C 0.75872 0.13571 0.95977 0.0
C1238 C 0.77279 0.17679 0.96521 0.0
C1239 C 0.76734 0.18656 0.93355 0.0
C1240 C 0.75753 0.17073 0.91524 0.0
C1241 C 0.75287 0.14578 0.92838 0.0
C1242 C 0.79691 0.23578 0.87658 0.0
C1243 C 0.78263 0.26172 0.888 0.0
C1244 C 0.7918 0.2115 0.89139 0.0
C1245 C 0.77302 0.21247 0.91879 0.0
C1246 C 0.75956 0.23818 0.93134 0.0
C1247 C 0.76433 0.26265 0.91602 0.0
H1248 H 0.95036 0.789 0.96397 0.0
H1249 H 0.98923 0.71636 0.91141 0.0
H1250 H 0.91174 0.79871 0.93337 0.0
H1251 H 0.95035 0.72556 0.88152 0.0
H1252 H 0.88591 0.76532 0.81289 0.0
H1253 H 0.92577 0.7574 0.841 0.0
H1254 H 0.87472 0.7794 0.92973 0.0
H1255 H 0.83508 0.78796 0.90164 0.0
C1256 C 0.9508 0.77521 0.94574 0.0
C1257 C 0.97293 0.75181 0.94032 0.0
C1258 C 0.9285 0.78059 0.92842 0.0
C1259 C 0.92779 0.76281 0.90508 0.0
C1260 C 0.95022 0.73981 0.89912 0.0
C1261 C 0.97244 0.73437 0.91653 0.0
C1262 C 0.88319 0.76839 0.83841 0.0
C1263 C 0.8572 0.77698 0.855 0.0
C1264 C 0.90607 0.76375 0.85457 0.0
C1265 C 0.90352 0.7678 0.88767 0.0
C1266 C 0.87751 0.77639 0.90419 0.0
C1267 C 0.8547 0.78093 0.8881 0.0
H1268 H 0.10868 0.32675 0.18204 0.0
H1269 H 0.17303 0.26277 0.13668 0.0
H1270 H 0.13997 0.33388 0.21676 0.0
H1271 H 0.20387 0.26949 0.17135 0.0
H1272 H 0.26092 0.30519 0.21263 0.0
H1273 H 0.22796 0.30097 0.1794 0.0
H1274 H 0.16698 0.31439 0.2612 0.0
H1275 H 0.20008 0.31948 0.29449 0.0
C1276 C 0.1294 0.31408 0.17953 0.0
C1277 C 0.13817 0.29424 0.15627 0.0
C1278 C 0.1474 0.3181 0.19959 0.0
C1279 C 0.17476 0.3025 0.19689 0.0
C1280 C 0.18326 0.28242 0.17392 0.0
C1281 C 0.16536 0.27839 0.15404 0.0
C1282 C 0.24044 0.30774 0.22361 0.0
C1283 C 0.23337 0.31297 0.25643 0.0
C1284 C 0.22145 0.3049 0.20449 0.0
C1285 C 0.19458 0.30704 0.21741 0.0
C1286 C 0.1873 0.31279 0.25012 0.0
C1287 C 0.20641 0.3156 0.26935 0.0
H1288 H 0.12127 0.78497 0.99669 0.0
H1289 H 0.09775 0.77452 0.90545 0.0
H1290 H 0.16499 0.78912 0.96926 0.0
H1291 H 0.14085 0.77911 0.87813 0.0
H1292 H 0.2111 0.81725 0.83697 0.0
H1293 H 0.16769 0.81357 0.86407 0.0
H1294 H 0.20803 0.75895 0.93908 0.0
H1295 H 0.25174 0.76227 0.91107 0.0
C1296 C 0.12505 0.78431 0.97073 0.0
C1297 C 0.10554 0.77991 0.95335 0.0
C1298 C 0.15036 0.78625 0.95497 0.0
C1299 C 0.15679 0.7844 0.92126 0.0
C1300 C 0.13685 0.78088 0.90394 0.0
C1301 C 0.11194 0.77834 0.9197 0.0
C1302 C 0.2109 0.8038 0.85865 0.0
C1303 C 0.23529 0.78894 0.87069 0.0
C1304 C 0.18581 0.80184 0.87452 0.0
C1305 C 0.18397 0.78591 0.90401 0.0
C1306 C 0.20837 0.77147 0.91653 0.0
C1307 C 0.23356 0.773 0.90016 0.0
H1308 H 0.27402 0.15588 0.05542 0.0
H1309 H 0.34087 0.09318 1.01188 0.0
H1310 H 0.27393 0.18555 1.00513 0.0
H1311 H 0.34131 0.12333 0.96215 0.0
H1312 H 0.35164 0.21025 0.90747 0.0
H1313 H 0.34967 0.17705 0.95418 0.0
H1314 H 0.26891 0.17981 0.939 0.0
H1315 H 0.27118 0.21233 0.89147 0.0
C1316 C 0.28851 0.1483 0.03507 0.0
C1317 C 0.30734 0.12204 0.03772 0.0
C1318 C 0.28843 0.1653 1.00628 0.0
C1319 C 0.30765 0.15677 0.97975 0.0
C1320 C 0.32627 0.13043 0.98221 0.0
C1321 C 0.32589 0.11313 1.01066 0.0
C1322 C 0.3336 0.2035 0.91383 0.0
C1323 C 0.31167 0.21376 0.89558 0.0
C1324 C 0.33249 0.18448 0.94054 0.0
C1325 C 0.30914 0.17584 0.95024 0.0
C1326 C 0.28716 0.18609 0.93206 0.0
C1327 C 0.28856 0.20453 0.90475 0.0
H1328 H 0.0402 0.30406 0.05662 0.0
H1329 H 0.02993 0.22194 0.06318 0.0
H1330 H 1.00319 0.32059 0.02302 0.0
H1331 H 0.99409 0.2379 0.02899 0.0
H1332 H 0.91346 0.27951 0.98908 0.0
H1333 H 0.94939 0.26334 0.02431 0.0
H1334 H 0.99137 0.31902 0.9707 0.0
H1335 H 0.95518 0.33546 0.93624 0.0
C1336 C 0.03013 0.28954 0.05113 0.0
C1337 C 0.03837 0.26165 0.06289 0.0
C1338 C 1.00895 0.29892 0.03146 0.0
C1339 C 0.99541 0.28062 0.02288 0.0
C1340 C 1.00348 0.25288 0.03516 0.0
C1341 C 1.02443 0.24364 0.05475 0.0
C1342 C 0.93064 0.28785 0.98447 0.0
C1343 C 0.93138 0.30873 0.95974 0.0
C1344 C 0.95129 0.27871 1.0048 0.0
C1345 C 0.97343 0.29003 1.00085 0.0
C1346 C 0.97452 0.31021 0.97527 0.0
C1347 C 0.95386 0.31941 0.95515 0.0
H1348 H 0.77622 0.99026 0.91741 0.0
H1349 H 0.78247 0.92393 0.99225 0.0
H1350 H 0.77358 0.9588 0.87828 0.0
H1351 H 0.77892 0.8929 0.95369 0.0
H1352 H 0.80431 0.83606 0.87063 0.0
H1353 H 0.80423 0.86794 0.91003 0.0
H1354 H 0.74719 0.93305 0.86005 0.0
H1355 H 0.74778 0.9008 0.82012 0.0
C1356 C 0.77682 0.96906 0.9256 0.0
C1357 C 0.77981 0.95967 0.95801 0.0
C1358 C 0.77512 0.95099 0.90317 0.0
C1359 C 0.77621 0.92307 0.91258 0.0
C1360 C 0.77861 0.91397 0.94519 0.0
C1361 C 0.7805 0.93192 0.96746 0.0
C1362 C 0.79135 0.85697 0.86832 0.0
C1363 C 0.77548 0.86562 0.84265 0.0
C1364 C 0.79131 0.87543 0.89101 0.0
C1365 C 0.77558 0.90326 0.88857 0.0
C1366 C 0.75978 0.91193 0.8627 0.0
C1367 C 0.75991 0.8934 0.83992 0.0
H1368 H 0.99991 0.78762 0.12486 0.0
H1369 H 0.94008 0.7721 0.07392 0.0
H1370 H 0.9679 0.79324 0.17425 0.0
H1371 H 0.90814 0.77819 0.1226 0.0
H1372 H 0.84916 0.81071 0.2124 0.0
H1373 H 0.87997 0.81069 0.16255 0.0
H1374 H 0.9466 0.76319 0.21375 0.0
H1375 H 0.9157 0.76274 0.26313 0.0
C1376 C 0.97974 0.78617 0.12388 0.0
C1377 C 0.97265 0.77968 0.09508 0.0
C1378 C 0.9614 0.78902 0.15238 0.0
C1379 C 0.9352 0.78602 0.15284 0.0
C1380 C 0.92786 0.78082 0.12355 0.0
C1381 C 0.9463 0.77737 0.09543 0.0
C1382 C 0.87031 0.79992 0.21289 0.0
C1383 C 0.87968 0.78587 0.24171 0.0
C1384 C 0.88812 0.80004 0.18427 0.0
C1385 C 0.91606 0.7869 0.18372 0.0
C1386 C 0.92543 0.77374 0.21293 0.0
C1387 C 0.9076 0.77329 0.24133 0.0
H1388 H 0.31804 1.00206 0.22304 0.0
H1389 H 0.30973 0.98013 0.12924 0.0
H1390 H 0.31279 0.95745 0.24674 0.0
H1391 H 0.30574 0.93475 0.15283 0.0
H1392 H 0.33879 0.8452 0.20274 0.0
H1393 H 0.33701 0.89178 0.17785 0.0
H1394 H 0.2816 0.92752 0.25828 0.0
H1395 H 0.28302 0.88104 0.28264 0.0
C1396 C 0.31474 0.98783 0.20751 0.0
C1397 C 0.31424 0.99483 0.17421 0.0
C1398 C 0.31189 0.9621 0.22112 0.0
C1399 C 0.30935 0.94212 0.20173 0.0
C1400 C 0.30803 0.94942 0.1685 0.0
C1401 C 0.31005 0.97558 0.15498 0.0
C1402 C 0.32618 0.86304 0.21502 0.0
C1403 C 0.31174 0.85935 0.24519 0.0
C1404 C 0.32502 0.88976 0.20067 0.0
C1405 C 0.30926 0.91357 0.21606 0.0
C1406 C 0.29423 0.90978 0.24586 0.0
C1407 C 0.29515 0.88307 0.25996 0.0
H1408 H 0.86103 0.07 0.04149 0.0
H1409 H 0.78122 0.05915 0.05477 0.0
H1410 H 0.84705 0.10532 0.08008 0.0
H1411 H 0.76701 0.09486 0.09344 0.0
H1412 H 0.76152 0.13345 0.1892 0.0
H1413 H 0.77541 0.09997 0.14816 0.0
H1414 H 0.81923 0.15201 0.09039 0.0
H1415 H 0.80508 0.18579 0.13171 0.0
C1416 C 0.84033 0.0752 0.05244 0.0
C1417 C 0.82234 0.06116 0.04511 0.0
C1418 C 0.83229 0.09573 0.07453 0.0
C1419 C 0.80596 0.1029 0.09023 0.0
C1420 C 0.78763 0.08954 0.08226 0.0
C1421 C 0.79572 0.06903 0.05991 0.0
C1422 C 0.77417 0.13779 0.16776 0.0
C1423 C 0.782 0.1625 0.1637 0.0
C1424 C 0.78197 0.11864 0.14407 0.0
C1425 C 0.79805 0.12342 0.1156 0.0
C1426 C 0.80684 0.14759 0.11202 0.0
C1427 C 0.7989 0.16691 0.13579 0.0
H1428 H 0.58231 0.61855 0.96745 0.0
H1429 H 0.60279 0.61089 0.86491 0.0
H1430 H 0.61007 0.65009 0.96553 0.0
H1431 H 0.63074 0.64219 0.86317 0.0
H1432 H 0.6988 0.67934 0.88065 0.0
H1433 H 0.67243 0.64636 0.88146 0.0
H1434 H 0.60856 0.69745 0.94359 0.0
H1435 H 0.6346 0.73047 0.9425 0.0
C1436 C 0.59261 0.62359 0.94448 0.0
C1437 C 0.59004 0.61217 0.91635 0.0
C1438 C 0.60857 0.64171 0.94338 0.0
C1439 C 0.6225 0.64883 0.91415 0.0
C1440 C 0.6205 0.63694 0.88614 0.0
C1441 C 0.60444 0.61889 0.8872 0.0
C1442 C 0.679 0.6837 0.89417 0.0
C1443 C 0.66896 0.70751 0.91171 0.0
C1444 C 0.66392 0.66475 0.8947 0.0
C1445 C 0.63849 0.66911 0.91287 0.0
C1446 C 0.62831 0.69313 0.92993 0.0
C1447 C 0.64328 0.71208 0.92929 0.0
H1448 H 0.48615 0.62431 0.85934 0.0
H1449 H 0.44901 0.57802 0.80843 0.0
H1450 H 0.44648 0.6637 0.85774 0.0
H1451 H 0.40958 0.61812 0.8052 0.0
H1452 H 0.3314 0.68684 0.83138 0.0
H1453 H 0.37056 0.64592 0.83325 0.0
H1454 H 0.42269 0.69947 0.82606 0.0
H1455 H 0.38414 0.73935 0.82587 0.0
C1456 C 0.46975 0.62275 0.84707 0.0
C1457 C 0.47096 0.59797 0.83382 0.0
C1458 C 0.44683 0.64549 0.84606 0.0
C1459 C 0.4245 0.64444 0.83122 0.0
C1460 C 0.42599 0.61976 0.81734 0.0
C1461 C 0.44882 0.59681 0.81882 0.0
C1462 C 0.35125 0.68972 0.83059 0.0
C1463 C 0.35438 0.71655 0.82918 0.0
C1464 C 0.37381 0.66625 0.83135 0.0
C1465 C 0.40009 0.6691 0.83016 0.0
C1466 C 0.40298 0.69604 0.8281 0.0
C1467 C 0.38059 0.71922 0.82792 0.0
H1468 H 0.47511 0.49278 0.85025 0.0
H1469 H 0.50244 0.43671 0.93121 0.0
H1470 H 0.45386 0.46033 0.8339 0.0
H1471 H 0.48229 0.40312 0.9141 0.0
H1472 H 0.42214 0.35979 0.89016 0.0
H1473 H 0.44229 0.39223 0.9089 0.0
H1474 H 0.46377 0.41883 0.81008 0.0
H1475 H 0.44156 0.38844 0.79153 0.0
C1476 C 0.47682 0.47323 0.8643 0.0
C1477 C 0.49058 0.46709 0.8918 0.0
C1478 C 0.46478 0.45447 0.85486 0.0
C1479 C 0.46663 0.42875 0.87231 0.0
C1480 C 0.48016 0.42278 0.90019 0.0
C1481 C 0.49182 0.44189 0.90998 0.0
C1482 C 0.43076 0.37288 0.8724 0.0
C1483 C 0.42995 0.37149 0.83924 0.0
C1484 C 0.44276 0.39123 0.88319 0.0
C1485 C 0.45458 0.40843 0.8611 0.0
C1486 C 0.45438 0.40645 0.82796 0.0
C1487 C 0.44201 0.38851 0.81722 0.0
H1488 H 0.60277 0.47627 0.81725 0.0
H1489 H 0.63705 0.49573 0.89657 0.0
H1490 H 0.64408 0.4385 0.80517 0.0
H1491 H 0.6779 0.4586 0.88461 0.0
H1492 H 0.75673 0.40415 0.83954 0.0
H1493 H 0.71718 0.44405 0.84367 0.0
H1494 H 0.66666 0.39204 0.83336 0.0
H1495 H 0.70629 0.3518 0.82977 0.0
C1496 C 0.61931 0.47289 0.8316 0.0
C1497 C 0.61669 0.48899 0.85781 0.0
C1498 C 0.64282 0.45112 0.82495 0.0
C1499 C 0.6643 0.44545 0.84401 0.0
C1500 C 0.66195 0.46245 0.86925 0.0
C1501 C 0.63845 0.48374 0.87617 0.0
C1502 C 0.73722 0.40101 0.83861 0.0
C1503 C 0.73478 0.37447 0.83518 0.0
C1504 C 0.7145 0.42401 0.8407 0.0
C1505 C 0.68868 0.42128 0.83896 0.0
C1506 C 0.68626 0.39494 0.83451 0.0
C1507 C 0.709 0.37181 0.83273 0.0
H1508 H 0.61539 0.48235 0.30677 0.0
H1509 H 0.65275 0.48517 0.20849 0.0
H1510 H 0.65187 0.44053 0.31941 0.0
H1511 H 0.68841 0.4442 0.22101 0.0
H1512 H 0.72766 0.3528 0.2411 0.0
H1513 H 0.69092 0.39465 0.23364 0.0
H1514 H 0.70342 0.42342 0.32192 0.0
H1515 H 0.74009 0.381 0.32975 0.0
C1516 C 0.63136 0.47428 0.28801 0.0
C1517 C 0.63087 0.48704 0.25654 0.0
C1518 C 0.65225 0.45038 0.29522 0.0
C1519 C 0.67282 0.43877 0.27103 0.0
C1520 C 0.67262 0.45216 0.24002 0.0
C1521 C 0.65208 0.47586 0.23293 0.0
C1522 C 0.72245 0.36781 0.25913 0.0
C1523 C 0.73681 0.36342 0.28603 0.0
C1524 C 0.70149 0.39198 0.25474 0.0
C1525 C 0.69422 0.41245 0.27718 0.0
C1526 C 0.70837 0.40799 0.30433 0.0
C1527 C 0.72957 0.38383 0.30858 0.0
H1528 H 0.61436 0.64938 0.17606 0.0
H1529 H 0.65258 0.57921 0.23775 0.0
H1530 H 0.65068 0.67026 0.17937 0.0
H1531 H 0.68847 0.60024 0.24158 0.0
H1532 H 0.76344 0.62996 0.20707 0.0
H1533 H 0.7262 0.61047 0.20491 0.0
H1534 H 0.66964 0.69072 0.21975 0.0
H1535 H 0.70714 0.71043 0.22142 0.0
C1536 C 0.63051 0.63841 0.19026 0.0
C1537 C 0.6306 0.61262 0.2066 0.0
C1538 C 0.65114 0.65049 0.19245 0.0
C1539 C 0.67244 0.63689 0.21074 0.0
C1540 C 0.67246 0.61114 0.22709 0.0
C1541 C 0.65177 0.5992 0.22512 0.0
C1542 C 0.74306 0.64349 0.20974 0.0
C1543 C 0.73822 0.67176 0.21427 0.0
C1544 C 0.72172 0.63227 0.20879 0.0
C1545 C 0.69497 0.64905 0.21217 0.0
C1546 C 0.69005 0.67733 0.21681 0.0
C1547 C 0.71147 0.68854 0.21806 0.0
H1548 H 0.46801 0.61528 0.22599 0.0
H1549 H 0.50866 0.62417 0.30543 0.0
H1550 H 0.43124 0.65526 0.24067 0.0
H1551 H 0.47093 0.66483 0.32067 0.0
H1552 H 0.40977 0.75638 0.30486 0.0
H1553 H 0.44851 0.71487 0.29828 0.0
H1554 H 0.39473 0.66754 0.28387 0.0
H1555 H 0.35688 0.70823 0.29015 0.0
C1556 C 0.46898 0.62564 0.24692 0.0
C1557 C 0.49131 0.6164 0.26458 0.0
C1558 C 0.44773 0.64861 0.25544 0.0
C1559 C 0.44799 0.66329 0.28194 0.0
C1560 C 0.47019 0.65404 0.30001 0.0
C1561 C 0.49161 0.63061 0.29155 0.0
C1562 C 0.40636 0.73704 0.30033 0.0
C1563 C 0.38024 0.73596 0.29682 0.0
C1564 C 0.42849 0.71324 0.2968 0.0
C1565 C 0.4248 0.68795 0.28995 0.0
C1566 C 0.39849 0.68677 0.28822 0.0
C1567 C 0.37668 0.71033 0.29151 0.0
H1568 H 0.52952 0.45586 0.18826 0.0
H1569 H 0.47067 0.51997 0.24027 0.0
H1570 H 0.49764 0.42787 0.19485 0.0
H1571 H 0.43845 0.49218 0.24631 0.0
H1572 H 0.38436 0.44601 0.20134 0.0
H1573 H 0.41509 0.47449 0.20256 0.0
H1574 H 0.47217 0.404 0.24447 0.0
H1575 H 0.441 0.37575 0.24402 0.0
C1576 C 0.50972 0.46395 0.20101 0.0
C1577 C 0.50248 0.49009 0.21366 0.0
C1578 C 0.49159 0.44787 0.20501 0.0
C1579 C 0.46564 0.45786 0.22115 0.0
C1580 C 0.45834 0.48403 0.23377 0.0
C1581 C 0.47673 0.49984 0.23042 0.0
C1582 C 0.40326 0.43685 0.21137 0.0
C1583 C 0.41037 0.40884 0.22276 0.0
C1584 C 0.42078 0.45308 0.21211 0.0
C1585 C 0.44599 0.44139 0.22353 0.0
C1586 C 0.45287 0.41346 0.23547 0.0
C1587 C 0.43506 0.39739 0.23539 0.0
H1588 H 0.80628 0.65267 0.6317 0.0
H1589 H 0.79366 0.60426 0.72051 0.0
H1590 H 0.80634 0.69118 0.66275 0.0
H1591 H 0.79365 0.64244 0.75116 0.0
H1592 H 0.82743 0.69946 0.79761 0.0
H1593 H 0.82759 0.66408 0.76227 0.0
H1594 H 0.77778 0.72647 0.70124 0.0
H1595 H 0.77751 0.76194 0.73698 0.0
C1596 C 0.80313 0.65032 0.65776 0.0
C1597 C 0.80008 0.62516 0.67349 0.0
C1598 C 0.8032 0.67243 0.67557 0.0
C1599 C 0.80046 0.66982 0.70953 0.0
C1600 C 0.79643 0.64504 0.72509 0.0
C1601 C 0.7962 0.62314 0.70741 0.0
C1602 C 0.8168 0.7057 0.77642 0.0
C1603 C 0.80269 0.73357 0.77004 0.0
C1604 C 0.8167 0.68538 0.75625 0.0
C1605 C 0.80237 0.69226 0.72906 0.0
C1606 C 0.78909 0.72038 0.72187 0.0
C1607 C 0.78902 0.74077 0.74232 0.0
H1608 H 0.46671 0.83073 0.64312 0.0
H1609 H 0.49042 0.74584 0.68209 0.0
H1610 H 0.42234 0.83717 0.67419 0.0
H1611 H 0.44616 0.75191 0.712 0.0
H1612 H 0.37171 0.77329 0.78389 0.0
H1613 H 0.41633 0.77105 0.75605 0.0
H1614 H 0.37999 0.82686 0.6791 0.0
H1615 H 0.33527 0.82967 0.70801 0.0
C1616 C 0.46266 0.8134 0.6583 0.0
C1617 C 0.48264 0.78768 0.65968 0.0
C1618 C 0.4369 0.81702 0.67603 0.0
C1619 C 0.43013 0.79513 0.69601 0.0
C1620 C 0.45026 0.76956 0.69751 0.0
C1621 C 0.47586 0.76592 0.6798 0.0
C1622 C 0.37319 0.7855 0.7614 0.0
C1623 C 0.34966 0.80194 0.74866 0.0
C1624 C 0.39897 0.78394 0.74497 0.0
C1625 C 0.40233 0.79852 0.71476 0.0
C1626 C 0.37869 0.81543 0.70229 0.0
C1627 C 0.35286 0.81697 0.71885 0.0
H1628 H 0.27119 0.45233 0.61444 0.0
H1629 H 0.35759 0.42549 0.61442 0.0
H1630 H 0.26642 0.42173 0.66246 0.0
H1631 H 0.35286 0.39425 0.66177 0.0
H1632 H 0.33493 0.35856 0.76414 0.0
H1633 H 0.33792 0.39258 0.71892 0.0
H1634 H 0.27414 0.37312 0.67896 0.0
H1635 H 0.2706 0.33987 0.72461 0.0
C1636 C 0.2892 0.44005 0.62466 0.0
C1637 C 0.31481 0.44152 0.61024 0.0
C1638 C 0.28647 0.4222 0.65213 0.0
C1639 C 0.30924 0.40533 0.66617 0.0
C1640 C 0.33481 0.40706 0.65198 0.0
C1641 C 0.33755 0.42481 0.62445 0.0
C1642 C 0.32126 0.36181 0.74595 0.0
C1643 C 0.30262 0.34622 0.74803 0.0
C1644 C 0.3232 0.38114 0.71975 0.0
C1645 C 0.30642 0.3856 0.69496 0.0
C1646 C 0.2873 0.37051 0.69757 0.0
C1647 C 0.28545 0.35113 0.72367 0.0
H1648 H 0.54468 0.31821 0.62812 0.0
H1649 H 0.6097 0.30238 0.55131 0.0
H1650 H 0.57483 0.32678 0.66339 0.0
H1651 H 0.6399 0.31061 0.58614 0.0
H1652 H 0.69191 0.32863 0.65173 0.0
H1653 H 0.65479 0.33929 0.61809 0.0
H1654 H 0.61152 0.29561 0.6898 0.0
H1655 H 0.64842 0.28537 0.72313 0.0
C1656 C 0.56509 0.31782 0.61834 0.0
C1657 C 0.57465 0.31029 0.58671 0.0
C1658 C 0.58256 0.32226 0.63868 0.0
C1659 C 0.61003 0.31919 0.62787 0.0
C1660 C 0.61893 0.31358 0.59541 0.0
C1661 C 0.60155 0.30896 0.57527 0.0
C1662 C 0.67395 0.32235 0.66079 0.0
C1663 C 0.67294 0.30646 0.69026 0.0
C1664 C 0.65279 0.32809 0.64133 0.0
C1665 C 0.63007 0.31813 0.65092 0.0
C1666 C 0.62836 0.30398 0.68157 0.0
C1667 C 0.64955 0.2981 0.70082 0.0
H1668 H 0.77955 0.54588 0.52109 0.0
H1669 H 0.83109 0.47471 0.56899 0.0
H1670 H 0.76591 0.51512 0.48942 0.0
H1671 H 0.81664 0.44402 0.53921 0.0
H1672 H 0.81301 0.39498 0.45831 0.0
H1673 H 0.82365 0.42759 0.4889 0.0
H1674 H 0.74309 0.48208 0.48519 0.0
H1675 H 0.73315 0.45042 0.45206 0.0
C1676 C 0.78738 0.52365 0.52541 0.0
C1677 C 0.80647 0.51268 0.54734 0.0
C1678 C 0.77964 0.50591 0.50726 0.0
C1679 C 0.79055 0.47683 0.51104 0.0
C1680 C 0.80845 0.46614 0.5345 0.0
C1681 C 0.81652 0.48377 0.552 0.0
C1682 C 0.79762 0.4141 0.46334 0.0
C1683 C 0.77212 0.41972 0.45246 0.0
C1684 C 0.80358 0.43275 0.48163 0.0
C1685 C 0.78415 0.45754 0.49028 0.0
C1686 C 0.75874 0.46339 0.47908 0.0
C1687 C 0.75288 0.44487 0.46036 0.0
H1688 H 0.67433 0.79265 0.51428 0.0
H1689 H 0.62631 0.78015 0.44459 0.0
H1690 H 0.71067 0.79505 0.47068 0.0
H1691 H 0.66205 0.78281 0.40146 0.0
H1692 H 0.7183 0.81945 0.3277 0.0
H1693 H 0.68401 0.81809 0.37327 0.0
H1694 H 0.74464 0.76362 0.42852 0.0
H1695 H 0.77904 0.76449 0.38222 0.0
C1696 C 0.67141 0.79059 0.48973 0.0
C1697 C 0.64724 0.78609 0.4832 0.0
C1698 C 0.69235 0.79175 0.4647 0.0
C1699 C 0.68949 0.78913 0.43228 0.0
C1700 C 0.66513 0.78509 0.42589 0.0
C1701 C 0.64457 0.78338 0.45082 0.0
C1702 C 0.72442 0.80728 0.34961 0.0
C1703 C 0.75168 0.79274 0.35139 0.0
C1704 C 0.70467 0.80642 0.37583 0.0
C1705 C 0.71132 0.79085 0.40493 0.0
C1706 C 0.73865 0.77616 0.4068 0.0
C1707 C 0.75845 0.77672 0.38024 0.0
H1708 H 0.35501 0.60533 0.42909 0.0
H1709 H 0.27169 0.6299 0.46968 0.0
H1710 H 0.35048 0.65165 0.40423 0.0
H1711 H 0.2668 0.67627 0.44327 0.0
H1712 H 0.27546 0.76535 0.41703 0.0
H1713 H 0.27836 0.71905 0.4435 0.0
H1714 H 0.33231 0.68257 0.36223 0.0
H1715 H 0.32984 0.72846 0.33698 0.0
C1716 C 0.33563 0.6205 0.43282 0.0
C1717 C 0.31381 0.61343 0.45181 0.0
C1718 C 0.33291 0.64725 0.41804 0.0
C1719 C 0.30821 0.66806 0.42142 0.0
C1720 C 0.28627 0.66106 0.44027 0.0
C1721 C 0.28901 0.6342 0.4552 0.0
C1722 C 0.28787 0.74735 0.40489 0.0
C1723 C 0.30204 0.75072 0.37442 0.0
C1724 C 0.28943 0.72072 0.41996 0.0
C1725 C 0.30561 0.69669 0.40521 0.0
C1726 C 0.31996 0.70029 0.37487 0.0
C1727 C 0.31839 0.7268 0.36002 0.0
H1728 H 0.44129 0.25984 0.50692 0.0
H1729 H 0.47341 0.31945 0.44576 0.0
H1730 H 0.40578 0.26648 0.47249 0.0
H1731 H 0.43753 0.32602 0.41057 0.0
H1732 H 0.38834 0.29917 0.33761 0.0
H1733 H 0.42316 0.29798 0.37196 0.0
H1734 H 0.36497 0.30151 0.45602 0.0
H1735 H 0.33031 0.30332 0.42203 0.0
C1736 C 0.44058 0.2747 0.48624 0.0
C1737 C 0.46022 0.28923 0.47934 0.0
C1738 C 0.42008 0.27855 0.46643 0.0
C1739 C 0.41863 0.29676 0.43856 0.0
C1740 C 0.43807 0.31168 0.43171 0.0
C1741 C 0.45846 0.30818 0.45206 0.0
C1742 C 0.38293 0.29969 0.36343 0.0
C1743 C 0.3564 0.30064 0.37689 0.0
C1744 C 0.40292 0.29922 0.38314 0.0
C1745 C 0.39707 0.29945 0.41693 0.0
C1746 C 0.37047 0.30085 0.43023 0.0
C1747 C 0.3505 0.30167 0.41059 0.0
H1748 H 0.61353 0.7785 0.6984 0.0
H1749 H 0.62783 0.84353 0.62896 0.0
H1750 H 0.64618 0.7853 0.73065 0.0
H1751 H 0.66061 0.85042 0.6615 0.0
H1752 H 0.7431 0.82185 0.70499 0.0
H1753 H 0.70612 0.82312 0.67506 0.0
H1754 H 0.65525 0.81823 0.76437 0.0
H1755 H 0.69235 0.81723 0.79461 0.0
C1756 C 0.62345 0.79447 0.69013 0.0
C1757 C 0.61811 0.81038 0.66095 0.0
C1758 C 0.64206 0.7985 0.70881 0.0
C1759 C 0.65606 0.8184 0.6987 0.0
C1760 C 0.65032 0.83477 0.66986 0.0
C1761 C 0.63144 0.83092 0.65129 0.0
C1762 C 0.72394 0.82172 0.71842 0.0
C1763 C 0.72087 0.81958 0.75237 0.0
C1764 C 0.70263 0.82244 0.70112 0.0
C1765 C 0.67768 0.82071 0.71725 0.0
C1766 C 0.67429 0.81934 0.75118 0.0
C1767 C 0.69557 0.81891 0.76853 0.0
H1768 H 0.61184 0.26172 0.40624 0.0
H1769 H 0.63667 0.26761 0.49832 0.0
H1770 H 0.65412 0.26883 0.3792 0.0
H1771 H 0.67971 0.27351 0.47136 0.0
H1772 H 0.76464 0.24823 0.41137 0.0
H1773 H 0.72127 0.24489 0.43966 0.0
H1774 H 0.67993 0.3044 0.3689 0.0
H1775 H 0.72334 0.30802 0.34107 0.0
C1776 C 0.62654 0.26425 0.42066 0.0
C1777 C 0.62106 0.26393 0.45437 0.0
C1778 C 0.65078 0.26836 0.40518 0.0
C1779 C 0.6706 0.27131 0.42303 0.0
C1780 C 0.66507 0.27098 0.45685 0.0
C1781 C 0.64042 0.26773 0.4723 0.0
C1782 C 0.74625 0.26058 0.40193 0.0
C1783 C 0.74741 0.27759 0.37336 0.0
C1784 C 0.7214 0.2588 0.4182 0.0
C1785 C 0.69705 0.27418 0.40643 0.0
C1786 C 0.69825 0.29192 0.37838 0.0
C1787 C 0.72312 0.29391 0.36233 0.0
H1788 H 0.88485 0.64616 0.51431 0.0
H1789 H 0.84713 0.59513 0.47195 0.0
H1790 H 0.88002 0.67838 0.46669 0.0
H1791 H 0.84347 0.62641 0.4233 0.0
H1792 H 0.88334 0.72492 0.36979 0.0
H1793 H 0.89319 0.68831 0.41282 0.0
H1794 H 0.81871 0.66956 0.40441 0.0
H1795 H 0.80979 0.70513 0.3605 0.0
C1796 C 0.87609 0.64154 0.49438 0.0
C1797 C 0.86629 0.61822 0.4968 0.0
C1798 C 0.87339 0.65995 0.46692 0.0
C1799 C 0.86124 0.65523 0.44089 0.0
C1800 C 0.85235 0.63123 0.443 0.0
C1801 C 0.85459 0.61314 0.47076 0.0
C1802 C 0.8693 0.71268 0.37697 0.0
C1803 C 0.84582 0.71786 0.36179 0.0
C1804 C 0.8748 0.6918 0.40184 0.0
C1805 C 0.85669 0.6759 0.41251 0.0
C1806 C 0.83348 0.68083 0.39666 0.0
C1807 C 0.82826 0.70136 0.37146 0.0
H1808 H 0.53023 0.86186 0.47704 0.0
H1809 H 0.49713 0.83972 0.57277 0.0
H1810 H 0.49137 0.85627 0.45519 0.0
H1811 H 0.4596 0.83214 0.55102 0.0
H1812 H 0.38833 0.82651 0.50664 0.0
H1813 H 0.42045 0.84528 0.52736 0.0
H1814 H 0.47732 0.81953 0.44355 0.0
H1815 H 0.44429 0.80272 0.42225 0.0
C1816 C 0.51448 0.85619 0.49347 0.0
C1817 C 0.51702 0.85089 0.52656 0.0
C1818 C 0.49234 0.85254 0.48092 0.0
C1819 C 0.47254 0.84291 0.50109 0.0
C1820 C 0.47417 0.83968 0.53453 0.0
C1821 C 0.49594 0.84395 0.54712 0.0
C1822 C 0.40774 0.82506 0.49279 0.0
C1823 C 0.41407 0.81307 0.46307 0.0
C1824 C 0.42622 0.83571 0.50462 0.0
C1825 C 0.45171 0.834 0.48727 0.0
C1826 C 0.4578 0.82195 0.45737 0.0
C1827 C 0.43906 0.81192 0.44527 0.0
H1828 H 0.25968 0.46175 0.48196 0.0
H1829 H 0.28178 0.50606 0.3937 0.0
H1830 H 0.25422 0.42584 0.45066 0.0
H1831 H 0.27608 0.47043 0.36258 0.0
H1832 H 0.24719 0.4097 0.3139 0.0
H1833 H 0.24216 0.44766 0.3482 0.0
H1834 H 0.28861 0.39004 0.41647 0.0
H1835 H 0.29425 0.35257 0.38194 0.0
C1836 C 0.26278 0.46417 0.45589 0.0
C1837 C 0.27125 0.48676 0.44033 0.0
C1838 C 0.25984 0.4435 0.438 0.0
C1839 C 0.26481 0.44523 0.40414 0.0
C1840 C 0.27187 0.46857 0.38858 0.0
C1841 C 0.27525 0.48895 0.40645 0.0
C1842 C 0.25597 0.40513 0.33649 0.0
C1843 C 0.27073 0.37797 0.34539 0.0
C1844 C 0.25314 0.42685 0.35607 0.0
C1845 C 0.26492 0.42187 0.38512 0.0
C1846 C 0.27894 0.39455 0.39451 0.0
C1847 C 0.28214 0.37298 0.37467 0.0
H1848 H 0.50186 0.22973 0.67041 0.0
H1849 H 0.43943 0.26125 0.60781 0.0
H1850 H 0.46805 0.2331 0.7171 0.0
H1851 H 0.40519 0.26276 0.65393 0.0
H1852 H 0.3496 0.29096 0.74397 0.0
H1853 H 0.38309 0.28596 0.6974 0.0
H1854 H 0.4358 0.21739 0.74868 0.0
H1855 H 0.40258 0.22416 0.79621 0.0
C1856 C 0.48077 0.23691 0.66669 0.0
C1857 C 0.47325 0.24536 0.63556 0.0
C1858 C 0.46122 0.23868 0.69347 0.0
C1859 C 0.4335 0.24831 0.68981 0.0
C1860 C 0.42614 0.25598 0.65827 0.0
C1861 C 0.44574 0.25493 0.63163 0.0
C1862 C 0.36825 0.27472 0.74523 0.0
C1863 C 0.37321 0.25761 0.77362 0.0
C1864 C 0.3876 0.27164 0.71826 0.0
C1865 C 0.4125 0.25109 0.71865 0.0
C1866 C 0.41728 0.23383 0.74722 0.0
C1867 C 0.39809 0.23743 0.7745 0.0
H1868 H 0.84406 0.45733 0.63351 0.0
H1869 H 0.85338 0.48313 0.72492 0.0
H1870 H 0.83733 0.41392 0.66028 0.0
H1871 H 0.84624 0.44 0.75172 0.0
H1872 H 0.7948 0.3784 0.787 0.0
H1873 H 0.80465 0.41999 0.75992 0.0
H1874 H 0.86468 0.36985 0.69303 0.0
H1875 H 0.85532 0.32785 0.72107 0.0
C1876 C 0.84472 0.45364 0.6593 0.0
C1877 C 0.84924 0.47356 0.67716 0.0
C1878 C 0.84104 0.42879 0.67456 0.0
C1879 C 0.84126 0.42363 0.70808 0.0
C1880 C 0.84593 0.44347 0.72589 0.0
C1881 C 0.85017 0.46805 0.71055 0.0
C1882 C 0.81055 0.37611 0.76709 0.0
C1883 C 0.82517 0.34977 0.75708 0.0
C1884 C 0.81604 0.39999 0.75139 0.0
C1885 C 0.83568 0.39811 0.72465 0.0
C1886 C 0.84954 0.37185 0.71373 0.0
C1887 C 0.84429 0.34789 0.72978 0.0
H1888 H 0.28013 0.55798 0.63312 0.0
H1889 H 0.23705 0.60258 0.55426 0.0
H1890 H 0.2692 0.60056 0.66065 0.0
H1891 H 0.22601 0.64545 0.58191 0.0
H1892 H 0.26882 0.70927 0.60829 0.0
H1893 H 0.26071 0.66955 0.5885 0.0
H1894 H 0.23584 0.64202 0.68559 0.0
H1895 H 0.24299 0.68279 0.70571 0.0
C1896 C 0.26745 0.57676 0.62226 0.0
C1897 C 0.25968 0.57712 0.59145 0.0
C1898 C 0.26109 0.60114 0.6381 0.0
C1899 C 0.24711 0.6264 0.6232 0.0
C1900 C 0.23707 0.62627 0.59376 0.0
C1901 C 0.24318 0.60173 0.57806 0.0
C1902 C 0.26079 0.69538 0.62552 0.0
C1903 C 0.25654 0.69943 0.6587 0.0
C1904 C 0.25609 0.67252 0.61405 0.0
C1905 C 0.24739 0.65279 0.63543 0.0
C1906 C 0.24253 0.65696 0.66856 0.0
C1907 C 0.2469 0.68015 0.68008 0.0
loop_
_geom_bond_atom_site_label_1
_geom_bond_atom_site_label_2
_geom_bond_distance
_geom_bond_site_symmetry_2
_ccdc_geom_bond_type
Cu0 N1 1.999 . S
Cu0 O6 1.974 . S
Cu0 N11 1.985 . S
Cu0 O20 1.959 1_455 S
N1 Cu0 1.999 . S
N1 C3 1.263 . S
N1 C5 1.389 . S
N2 C3 1.358 . S
N2 C4 1.400 . S
C3 N1 1.263 . S
C3 N2 1.358 . S
C3 H9 0.930 . S
C4 N2 1.400 . S
C4 C5 1.351 . S
C4 H21 0.930 . S
C5 N1 1.389 . S
C5 C4 1.351 . S
C5 H10 0.930 . S
O6 Cu0 1.974 . S
O6 C16 1.282 1_545 S
C7 O8 1.261 . S
C7 O20 1.251 . S
O8 C7 1.261 . S
H9 C3 0.930 . S
H10 C5 0.930 . S
N11 Cu0 1.985 . S
N11 C13 1.335 1_455 S
N11 C14 1.390 1_545 S
N12 C13 1.345 1_565 S
N12 C15 1.336 . S
C13 N11 1.335 1_655 S
C13 N12 1.345 1_545 S
C13 H18 0.930 . S
C14 N11 1.390 1_565 S
C14 C15 1.346 1_455 S
C14 H19 0.930 . S
C15 N12 1.336 . S
C15 C14 1.346 1_655 S
C15 H22 0.929 . S
C16 O6 1.282 1_565 S
C16 O17 1.216 1_565 S
O17 C16 1.216 1_545 S
H18 C13 0.930 . S
H19 C14 0.930 . S
O20 Cu0 1.959 1_655 S
O20 C7 1.251 . S
H21 C4 0.930 . S
H22 C15 0.929 . S
Cu23 N24 1.999 . S
Cu23 O29 1.974 1_455 S
Cu23 N34 1.985 . S
Cu23 O43 1.959 . S
N24 Cu23 1.999 . S
N24 C26 1.263 1_455 S
N24 C28 1.389 1_545 S
N25 C26 1.358 1_565 S
N25 C27 1.400 . S
C26 N24 1.263 1_655 S
C26 N25 1.358 1_545 S
C26 H32 0.930 . S
C27 N25 1.400 . S
C27 C28 1.351 1_655 S
C27 H44 0.930 . S
C28 N24 1.389 1_565 S
C28 C27 1.351 1_455 S
C28 H33 0.930 . S
O29 Cu23 1.974 1_655 S
O29 C39 1.282 . S
C30 O31 1.261 . S
C30 O43 1.251 . S
O31 C30 1.261 . S
H32 C26 0.930 . S
H33 C28 0.930 . S
N34 Cu23 1.985 . S
N34 C36 1.335 . S
N34 C37 1.390 . S
N35 C36 1.345 . S
N35 C38 1.336 . S
C36 N34 1.335 . S
C36 N35 1.345 . S
C36 H41 0.930 . S
C37 N34 1.390 . S
C37 C38 1.346 . S
C37 H42 0.930 . S
C38 N35 1.336 . S
C38 C37 1.346 . S
C38 H45 0.929 . S
C39 O29 1.282 . S
C39 O40 1.216 . S
O40 C39 1.216 . S
H41 C36 0.930 . S
H42 C37 0.930 . S
O43 Cu23 1.959 . S
O43 C30 1.251 . S
H44 C27 0.930 . S
H45 C38 0.929 . S
Cu46 N47 1.999 . S
Cu46 O52 1.974 . S
Cu46 N57 1.985 . S
Cu46 O66 1.959 . S
N47 Cu46 1.999 . S
N47 C49 1.263 . S
N47 C51 1.389 . S
N48 C49 1.358 . S
N48 C50 1.400 . S
C49 N47 1.263 . S
C49 N48 1.358 . S
C49 H55 0.930 . S
C50 N48 1.400 . S
C50 C51 1.351 . S
C50 H67 0.930 1_554 S
C51 N47 1.389 . S
C51 C50 1.351 . S
C51 H56 0.930 . S
O52 Cu46 1.974 . S
O52 C62 1.282 . S
C53 O54 1.261 . S
C53 O66 1.251 . S
O54 C53 1.261 . S
H55 C49 0.930 . S
H56 C51 0.930 . S
N57 Cu46 1.985 . S
N57 C59 1.335 . S
N57 C60 1.390 . S
N58 C59 1.345 . S
N58 C61 1.336 . S
C59 N57 1.335 . S
C59 N58 1.345 . S
C59 H64 0.930 . S
C60 N57 1.390 . S
C60 C61 1.346 . S
C60 H65 0.930 . S
C61 N58 1.336 . S
C61 C60 1.346 . S
C61 H68 0.929 . S
C62 O52 1.282 . S
C62 O63 1.216 . S
O63 C62 1.216 . S
H64 C59 0.930 . S
H65 C60 0.930 . S
O66 Cu46 1.959 . S
O66 C53 1.251 . S
H67 C50 0.930 1_556 S
H68 C61 0.929 . S
Cu69 N70 1.999 . S
Cu69 O75 1.974 . S
Cu69 N80 1.985 . S
Cu69 O89 1.959 . S
N70 Cu69 1.999 . S
N70 C72 1.263 . S
N70 C74 1.389 . S
N71 C72 1.358 . S
N71 C73 1.400 1_554 S
C72 N70 1.263 . S
C72 N71 1.358 . S
C72 H78 0.930 . S
C73 N71 1.400 1_556 S
C73 C74 1.351 1_556 S
C73 H90 0.930 . S
C74 N70 1.389 . S
C74 C73 1.351 1_554 S
C74 H79 0.930 . S
O75 Cu69 1.974 . S
O75 C85 1.282 . S
C76 O77 1.261 . S
C76 O89 1.251 . S
O77 C76 1.261 . S
H78 C72 0.930 . S
H79 C74 0.930 . S
N80 Cu69 1.985 . S
N80 C82 1.335 1_455 S
N80 C83 1.390 . S
N81 C82 1.345 . S
N81 C84 1.336 1_655 S
C82 N80 1.335 1_655 S
C82 N81 1.345 . S
C82 H87 0.930 . S
C83 N80 1.390 . S
C83 C84 1.346 . S
C83 H88 0.930 . S
C84 N81 1.336 1_455 S
C84 C83 1.346 . S
C84 H91 0.929 . S
C85 O75 1.282 . S
C85 O86 1.216 . S
O86 C85 1.216 . S
H87 C82 0.930 . S
H88 C83 0.930 . S
O89 Cu69 1.959 . S
O89 C76 1.251 . S
H90 C73 0.930 . S
H91 C84 0.929 . S
Cu92 N93 1.999 1_554 S
Cu92 O98 1.974 . S
Cu92 N103 1.985 1_545 S
Cu92 O112 1.959 1_544 S
N93 Cu92 1.999 1_556 S
N93 C95 1.263 . S
N93 C97 1.389 . S
N94 C95 1.358 . S
N94 C96 1.400 . S
C95 N93 1.263 . S
C95 N94 1.358 . S
C95 H101 0.930 . S
C96 N94 1.400 . S
C96 C97 1.351 . S
C96 H113 0.930 . S
C97 N93 1.389 . S
C97 C96 1.351 . S
C97 H102 0.930 . S
O98 Cu92 1.974 . S
O98 C108 1.282 . S
C99 O100 1.261 . S
C99 O112 1.251 . S
O100 C99 1.261 . S
H101 C95 0.930 . S
H102 C97 0.930 . S
N103 Cu92 1.985 1_565 S
N103 C105 1.335 . S
N103 C106 1.390 . S
N104 C105 1.345 . S
N104 C107 1.336 . S
C105 N103 1.335 . S
C105 N104 1.345 . S
C105 H110 0.930 . S
C106 N103 1.390 . S
C106 C107 1.346 . S
C106 H111 0.930 . S
C107 N104 1.336 . S
C107 C106 1.346 . S
C107 H114 0.929 . S
C108 O98 1.282 . S
C108 O109 1.216 . S
O109 C108 1.216 . S
H110 C105 0.930 . S
H111 C106 0.930 . S
O112 Cu92 1.959 1_566 S
O112 C99 1.251 . S
H113 C96 0.930 . S
H114 C107 0.929 . S
Cu115 N116 1.999 1_454 S
Cu115 O121 1.974 1_455 S
Cu115 N126 1.985 . S
Cu115 O135 1.959 1_554 S
N116 Cu115 1.999 1_656 S
N116 C118 1.263 . S
N116 C120 1.389 . S
N117 C118 1.358 . S
N117 C119 1.400 . S
C118 N116 1.263 . S
C118 N117 1.358 . S
C118 H124 0.930 . S
C119 N117 1.400 . S
C119 C120 1.351 . S
C119 H136 0.930 . S
C120 N116 1.389 . S
C120 C119 1.351 . S
C120 H125 0.930 1_655 S
O121 Cu115 1.974 1_655 S
O121 C131 1.282 . S
C122 O123 1.261 . S
C122 O135 1.251 . S
O123 C122 1.261 . S
H124 C118 0.930 . S
H125 C120 0.930 1_455 S
N126 Cu115 1.985 . S
N126 C128 1.335 . S
N126 C129 1.390 . S
N127 C128 1.345 . S
N127 C130 1.336 . S
C128 N126 1.335 . S
C128 N127 1.345 . S
C128 H133 0.930 . S
C129 N126 1.390 . S
C129 C130 1.346 . S
C129 H134 0.930 1_455 S
C130 N127 1.336 . S
C130 C129 1.346 . S
C130 H137 0.929 . S
C131 O121 1.282 . S
C131 O132 1.216 . S
O132 C131 1.216 . S
H133 C128 0.930 . S
H134 C129 0.930 1_655 S
O135 Cu115 1.959 1_556 S
O135 C122 1.251 . S
H136 C119 0.930 . S
H137 C130 0.929 . S
Cu138 N139 1.999 . S
Cu138 O144 1.974 . S
Cu138 N149 1.985 . S
Cu138 O158 1.959 . S
N139 Cu138 1.999 . S
N139 C141 1.263 . S
N139 C143 1.389 . S
N140 C141 1.358 . S
N140 C142 1.400 . S
C141 N139 1.263 . S
C141 N140 1.358 . S
C141 H147 0.930 . S
C142 N140 1.400 . S
C142 C143 1.351 . S
C142 H159 0.930 . S
C143 N139 1.389 . S
C143 C142 1.351 . S
C143 H148 0.930 . S
O144 Cu138 1.974 . S
O144 C154 1.282 . S
C145 O146 1.261 . S
C145 O158 1.251 . S
O146 C145 1.261 . S
H147 C141 0.930 . S
H148 C143 0.930 . S
N149 Cu138 1.985 . S
N149 C151 1.335 . S
N149 C152 1.390 . S
N150 C151 1.345 . S
N150 C153 1.336 . S
C151 N149 1.335 . S
C151 N150 1.345 . S
C151 H156 0.930 . S
C152 N149 1.390 . S
C152 C153 1.346 . S
C152 H157 0.930 . S
C153 N150 1.336 . S
C153 C152 1.346 . S
C153 H160 0.929 . S
C154 O144 1.282 . S
C154 O155 1.216 . S
O155 C154 1.216 . S
H156 C151 0.930 . S
H157 C152 0.930 . S
O158 Cu138 1.959 . S
O158 C145 1.251 . S
H159 C142 0.930 . S
H160 C153 0.929 . S
Cu161 N162 1.999 . S
Cu161 O167 1.974 . S
Cu161 N172 1.985 . S
Cu161 O181 1.959 . S
N162 Cu161 1.999 . S
N162 C164 1.263 . S
N162 C166 1.389 . S
N163 C164 1.358 . S
N163 C165 1.400 . S
C164 N162 1.263 . S
C164 N163 1.358 . S
C164 H170 0.930 . S
C165 N163 1.400 . S
C165 C166 1.351 . S
C165 H182 0.930 . S
C166 N162 1.389 . S
C166 C165 1.351 . S
C166 H171 0.930 . S
O167 Cu161 1.974 . S
O167 C177 1.282 . S
C168 O169 1.261 . S
C168 O181 1.251 . S
O169 C168 1.261 . S
H170 C164 0.930 . S
H171 C166 0.930 . S
N172 Cu161 1.985 . S
N172 C174 1.335 . S
N172 C175 1.390 . S
N173 C174 1.345 . S
N173 C176 1.336 . S
C174 N172 1.335 . S
C174 N173 1.345 . S
C174 H179 0.930 . S
C175 N172 1.390 . S
C175 C176 1.346 . S
C175 H180 0.930 . S
C176 N173 1.336 . S
C176 C175 1.346 . S
C176 H183 0.929 . S
C177 O167 1.282 . S
C177 O178 1.216 . S
O178 C177 1.216 . S
H179 C174 0.930 . S
H180 C175 0.930 . S
O181 Cu161 1.959 . S
O181 C168 1.251 . S
H182 C165 0.930 . S
H183 C176 0.929 . S
Cu184 N185 1.999 . S
Cu184 O190 1.974 . S
Cu184 N195 1.985 . S
Cu184 O204 1.959 . S
N185 Cu184 1.999 . S
N185 C187 1.263 . S
N185 C189 1.389 . S
N186 C187 1.358 . S
N186 C188 1.400 . S
C187 N185 1.263 . S
C187 N186 1.358 . S
C187 H193 0.930 . S
C188 N186 1.400 . S
C188 C189 1.351 . S
C188 H205 0.930 . S
C189 N185 1.389 . S
C189 C188 1.351 . S
C189 H194 0.930 . S
O190 Cu184 1.974 . S
O190 C200 1.282 . S
C191 O192 1.261 . S
C191 O204 1.251 . S
O192 C191 1.261 . S
H193 C187 0.930 . S
H194 C189 0.930 . S
N195 Cu184 1.985 . S
N195 C197 1.335 . S
N195 C198 1.390 . S
N196 C197 1.345 . S
N196 C199 1.336 . S
C197 N195 1.335 . S
C197 N196 1.345 . S
C197 H202 0.930 . S
C198 N195 1.390 . S
C198 C199 1.346 . S
C198 H203 0.930 . S
C199 N196 1.336 . S
C199 C198 1.346 . S
C199 H206 0.929 . S
C200 O190 1.282 . S
C200 O201 1.216 . S
O201 C200 1.216 . S
H202 C197 0.930 . S
H203 C198 0.930 . S
O204 Cu184 1.959 . S
O204 C191 1.251 . S
H205 C188 0.930 . S
H206 C199 0.929 . S
Cu207 N208 1.999 . S
Cu207 O213 1.974 . S
Cu207 N218 1.985 . S
Cu207 O227 1.959 . S
N208 Cu207 1.999 . S
N208 C210 1.263 . S
N208 C212 1.389 . S
N209 C210 1.358 . S
N209 C211 1.400 . S
C210 N208 1.263 . S
C210 N209 1.358 . S
C210 H216 0.930 . S
C211 N209 1.400 . S
C211 C212 1.351 . S
C211 H228 0.930 . S
C212 N208 1.389 . S
C212 C211 1.351 . S
C212 H217 0.930 . S
O213 Cu207 1.974 . S
O213 C223 1.282 . S
C214 O215 1.261 . S
C214 O227 1.251 . S
O215 C214 1.261 . S
H216 C210 0.930 . S
H217 C212 0.930 . S
N218 Cu207 1.985 . S
N218 C220 1.335 . S
N218 C221 1.390 . S
N219 C220 1.345 . S
N219 C222 1.336 . S
C220 N218 1.335 . S
C220 N219 1.345 . S
C220 H225 0.930 . S
C221 N218 1.390 . S
C221 C222 1.346 . S
C221 H226 0.930 . S
C222 N219 1.336 . S
C222 C221 1.346 . S
C222 H229 0.929 . S
C223 O213 1.282 . S
C223 O224 1.216 . S
O224 C223 1.216 . S
H225 C220 0.930 . S
H226 C221 0.930 . S
O227 Cu207 1.959 . S
O227 C214 1.251 . S
H228 C211 0.930 . S
H229 C222 0.929 . S
Cu230 N231 1.999 . S
Cu230 O236 1.974 . S
Cu230 N241 1.985 . S
Cu230 O250 1.959 . S
N231 Cu230 1.999 . S
N231 C233 1.263 . S
N231 C235 1.389 . S
N232 C233 1.358 . S
N232 C234 1.400 . S
C233 N231 1.263 . S
C233 N232 1.358 . S
C233 H239 0.930 . S
C234 N232 1.400 . S
C234 C235 1.351 . S
C234 H251 0.930 . S
C235 N231 1.389 . S
C235 C234 1.351 . S
C235 H240 0.930 . S
O236 Cu230 1.974 . S
O236 C246 1.282 . S
C237 O238 1.261 . S
C237 O250 1.251 . S
O238 C237 1.261 . S
H239 C233 0.930 . S
H240 C235 0.930 . S
N241 Cu230 1.985 . S
N241 C243 1.335 . S
N241 C244 1.390 . S
N242 C243 1.345 . S
N242 C245 1.336 . S
C243 N241 1.335 . S
C243 N242 1.345 . S
C243 H248 0.930 . S
C244 N241 1.390 . S
C244 C245 1.346 . S
C244 H249 0.930 . S
C245 N242 1.336 . S
C245 C244 1.346 . S
C245 H252 0.929 . S
C246 O236 1.282 . S
C246 O247 1.216 . S
O247 C246 1.216 . S
H248 C243 0.930 . S
H249 C244 0.930 . S
O250 Cu230 1.959 . S
O250 C237 1.251 . S
H251 C234 0.930 . S
H252 C245 0.929 . S
Cu253 N254 1.999 . S
Cu253 O259 1.974 . S
Cu253 N264 1.985 . S
Cu253 O273 1.959 . S
N254 Cu253 1.999 . S
N254 C256 1.263 . S
N254 C258 1.389 . S
N255 C256 1.358 . S
N255 C257 1.400 . S
C256 N254 1.263 . S
C256 N255 1.358 . S
C256 H262 0.930 . S
C257 N255 1.400 . S
C257 C258 1.351 . S
C257 H274 0.930 . S
C258 N254 1.389 . S
C258 C257 1.351 . S
C258 H263 0.930 . S
O259 Cu253 1.974 . S
O259 C269 1.282 . S
C260 O261 1.261 . S
C260 O273 1.251 . S
O261 C260 1.261 . S
H262 C256 0.930 . S
H263 C258 0.930 . S
N264 Cu253 1.985 . S
N264 C266 1.335 . S
N264 C267 1.390 . S
N265 C266 1.345 . S
N265 C268 1.336 . S
C266 N264 1.335 . S
C266 N265 1.345 . S
C266 H271 0.930 . S
C267 N264 1.390 . S
C267 C268 1.346 . S
C267 H272 0.930 . S
C268 N265 1.336 . S
C268 C267 1.346 . S
C268 H275 0.929 . S
C269 O259 1.282 . S
C269 O270 1.216 . S
O270 C269 1.216 . S
H271 C266 0.930 . S
H272 C267 0.930 . S
O273 Cu253 1.959 . S
O273 C260 1.251 . S
H274 C257 0.930 . S
H275 C268 0.929 . S
Eu276 N307 2.657 . S
Eu276 N314 2.609 . S
Eu276 O320 2.558 . S
Eu276 O321 2.612 . S
Eu276 O323 2.339 . S
Eu276 O324 2.563 . S
Eu276 O325 2.419 . S
Eu276 O327 2.380 . S
Eu276 O328 2.432 . S
Eu276 C340 2.848 . S
C277 C280 1.429 . S
C277 C281 1.411 . S
C277 N284 1.377 . S
C278 C280 1.420 . S
C278 C282 1.423 . S
C278 C290 1.392 . S
C279 C281 1.420 . S
C279 C282 1.351 . S
C279 H302 0.931 . S
C280 C277 1.429 . S
C280 C278 1.420 . S
C280 N288 1.362 . S
C281 C277 1.411 . S
C281 C279 1.420 . S
C281 C286 1.395 . S
C282 C278 1.423 . S
C282 C279 1.351 . S
C282 H294 0.930 . S
C283 C285 1.400 . S
C283 C286 1.386 . S
C283 H295 0.930 . S
N284 C277 1.377 . S
N284 C285 1.321 . S
N284 Eu287 2.609 . S
C285 C283 1.400 . S
C285 N284 1.321 . S
C285 H292 0.930 . S
C286 C281 1.395 . S
C286 C283 1.386 . S
C286 H305 0.930 . S
Eu287 N284 2.609 . S
Eu287 N288 2.657 . S
Eu287 O321 2.380 . S
Eu287 O322 2.432 . S
Eu287 O326 2.558 . S
Eu287 O327 2.612 . S
Eu287 O329 2.339 . S
Eu287 O330 2.563 . S
Eu287 O331 2.419 . S
Eu287 C351 2.848 . S
N288 C280 1.362 . S
N288 Eu287 2.657 . S
N288 C289 1.334 . S
C289 N288 1.334 . S
C289 C291 1.413 . S
C289 H296 0.929 . S
C290 C278 1.392 . S
C290 C291 1.367 . S
C290 H298 0.930 . S
C291 C289 1.413 . S
C291 C290 1.367 . S
C291 H293 0.930 . S
H292 C285 0.930 . S
H293 C291 0.930 . S
H294 C282 0.930 . S
H295 C283 0.930 . S
H296 C289 0.929 . S
H297 C311 0.930 . S
H298 C290 0.930 . S
H299 C317 0.930 . S
H300 C308 0.929 . S
H301 C315 0.930 . S
H302 C279 0.931 . S
H303 C309 0.930 . S
H304 C342 0.930 . S
H305 C286 0.930 . S
H306 C341 0.931 . S
N307 Eu276 2.657 . S
N307 C308 1.334 . S
N307 C312 1.362 . S
C308 H300 0.929 . S
C308 N307 1.334 . S
C308 C311 1.413 . S
C309 H303 0.930 . S
C309 C310 1.392 . S
C309 C311 1.367 . S
C310 C309 1.392 . S
C310 C312 1.420 . S
C310 C342 1.423 . S
C311 H297 0.930 . S
C311 C308 1.413 . S
C311 C309 1.367 . S
C312 N307 1.362 . S
C312 C310 1.420 . S
C312 C316 1.429 . S
H313 C318 0.930 . S
N314 Eu276 2.609 . S
N314 C316 1.377 . S
N314 C317 1.321 . S
C315 H301 0.930 . S
C315 C317 1.400 . S
C315 C318 1.386 . S
C316 C312 1.429 . S
C316 N314 1.377 . S
C316 C319 1.411 . S
C317 H299 0.930 . S
C317 N314 1.321 . S
C317 C315 1.400 . S
C318 H313 0.930 . S
C318 C315 1.386 . S
C318 C319 1.395 . S
C319 C316 1.411 . S
C319 C318 1.395 . S
C319 C341 1.420 . S
O320 Eu276 2.558 . S
O320 C340 1.257 . S
O321 Eu276 2.612 . S
O321 Eu287 2.380 . S
O321 C332 1.276 . S
O322 Eu287 2.432 . S
O322 C339 1.264 . S
O323 Eu276 2.339 . S
O323 C339 1.254 . S
O324 Eu276 2.563 . S
O324 C332 1.235 . S
O325 Eu276 2.419 . S
O325 C340 1.249 . S
O326 Eu287 2.558 . S
O326 C351 1.257 . S
O327 Eu276 2.380 . S
O327 Eu287 2.612 . S
O327 C343 1.276 . S
O328 Eu276 2.432 . S
O328 C350 1.264 . S
O329 Eu287 2.339 . S
O329 C350 1.254 . S
O330 Eu287 2.563 . S
O330 C343 1.235 . S
O331 Eu287 2.419 . S
O331 C351 1.249 . S
C332 O321 1.276 . S
C332 O324 1.235 . S
C333 C335 1.393 . S
C333 C337 1.395 . S
C333 C340 1.492 . S
C334 C335 1.392 . S
C334 C336 1.386 . S
C335 C333 1.393 . S
C335 C334 1.392 . S
C335 H352 0.930 . S
C336 C334 1.386 . S
C336 C338 1.395 . S
C336 H353 0.930 . S
C337 C333 1.395 . S
C337 C338 1.379 . S
C337 H354 0.930 . S
C338 C336 1.395 . S
C338 C337 1.379 . S
C338 H355 0.930 . S
C339 O322 1.264 . S
C339 O323 1.254 . S
C340 Eu276 2.848 . S
C340 O320 1.257 . S
C340 O325 1.249 . S
C340 C333 1.492 . S
C341 H306 0.931 . S
C341 C319 1.420 . S
C341 C342 1.351 . S
C342 H304 0.930 . S
C342 C310 1.423 . S
C342 C341 1.351 . S
C343 O327 1.276 . S
C343 O330 1.235 . S
C344 C345 1.393 . S
C344 C348 1.395 . S
C344 C351 1.492 . S
C345 C344 1.393 . S
C345 C346 1.392 . S
C345 H356 0.930 . S
C346 C345 1.392 . S
C346 C347 1.386 . S
C347 C346 1.386 . S
C347 C349 1.395 . S
C347 H357 0.930 . S
C348 C344 1.395 . S
C348 C349 1.379 . S
C348 H358 0.930 . S
C349 C347 1.395 . S
C349 C348 1.379 . S
C349 H359 0.930 . S
C350 O328 1.264 . S
C350 O329 1.254 . S
C351 Eu287 2.848 . S
C351 O326 1.257 . S
C351 O331 1.249 . S
C351 C344 1.492 . S
H352 C335 0.930 . S
H353 C336 0.930 . S
H354 C337 0.930 . S
H355 C338 0.930 . S
H356 C345 0.930 . S
H357 C347 0.930 . S
H358 C348 0.930 . S
H359 C349 0.930 . S
Eu360 N391 2.657 . S
Eu360 N398 2.609 . S
Eu360 O404 2.558 . S
Eu360 O405 2.612 . S
Eu360 O407 2.339 . S
Eu360 O408 2.563 . S
Eu360 O409 2.419 . S
Eu360 O411 2.380 . S
Eu360 O412 2.432 . S
Eu360 C424 2.848 . S
C361 C364 1.429 . S
C361 C365 1.411 . S
C361 N368 1.377 . S
C362 C364 1.420 . S
C362 C366 1.423 . S
C362 C374 1.392 . S
C363 C365 1.420 . S
C363 C366 1.351 . S
C363 H386 0.931 . S
C364 C361 1.429 . S
C364 C362 1.420 . S
C364 N372 1.362 . S
C365 C361 1.411 . S
C365 C363 1.420 . S
C365 C370 1.395 . S
C366 C362 1.423 . S
C366 C363 1.351 . S
C366 H378 0.930 . S
C367 C369 1.400 . S
C367 C370 1.386 . S
C367 H379 0.930 . S
N368 C361 1.377 . S
N368 C369 1.321 . S
N368 Eu371 2.609 . S
C369 C367 1.400 . S
C369 N368 1.321 . S
C369 H376 0.930 . S
C370 C365 1.395 . S
C370 C367 1.386 . S
C370 H389 0.930 . S
Eu371 N368 2.609 . S
Eu371 N372 2.657 . S
Eu371 O405 2.380 . S
Eu371 O406 2.432 . S
Eu371 O410 2.558 . S
Eu371 O411 2.612 . S
Eu371 O413 2.339 . S
Eu371 O414 2.563 . S
Eu371 O415 2.419 . S
Eu371 C435 2.848 . S
N372 C364 1.362 . S
N372 Eu371 2.657 . S
N372 C373 1.334 . S
C373 N372 1.334 . S
C373 C375 1.413 . S
C373 H380 0.929 . S
C374 C362 1.392 . S
C374 C375 1.367 . S
C374 H382 0.930 . S
C375 C373 1.413 . S
C375 C374 1.367 . S
C375 H377 0.930 . S
H376 C369 0.930 . S
H377 C375 0.930 . S
H378 C366 0.930 . S
H379 C367 0.930 . S
H380 C373 0.929 . S
H381 C395 0.930 . S
H382 C374 0.930 . S
H383 C401 0.930 . S
H384 C392 0.929 . S
H385 C399 0.930 . S
H386 C363 0.931 . S
H387 C393 0.930 . S
H388 C426 0.930 . S
H389 C370 0.930 . S
H390 C425 0.931 . S
N391 Eu360 2.657 . S
N391 C392 1.334 . S
N391 C396 1.362 . S
C392 H384 0.929 . S
C392 N391 1.334 . S
C392 C395 1.413 . S
C393 H387 0.930 . S
C393 C394 1.392 . S
C393 C395 1.367 . S
C394 C393 1.392 . S
C394 C396 1.420 . S
C394 C426 1.423 . S
C395 H381 0.930 . S
C395 C392 1.413 . S
C395 C393 1.367 . S
C396 N391 1.362 . S
C396 C394 1.420 . S
C396 C400 1.429 . S
H397 C402 0.930 . S
N398 Eu360 2.609 . S
N398 C400 1.377 . S
N398 C401 1.321 . S
C399 H385 0.930 . S
C399 C401 1.400 . S
C399 C402 1.386 . S
C400 C396 1.429 . S
C400 N398 1.377 . S
C400 C403 1.411 . S
C401 H383 0.930 . S
C401 N398 1.321 . S
C401 C399 1.400 . S
C402 H397 0.930 . S
C402 C399 1.386 . S
C402 C403 1.395 . S
C403 C400 1.411 . S
C403 C402 1.395 . S
C403 C425 1.420 . S
O404 Eu360 2.558 . S
O404 C424 1.257 . S
O405 Eu360 2.612 . S
O405 Eu371 2.380 . S
O405 C416 1.276 . S
O406 Eu371 2.432 . S
O406 C423 1.264 . S
O407 Eu360 2.339 . S
O407 C423 1.254 . S
O408 Eu360 2.563 . S
O408 C416 1.235 . S
O409 Eu360 2.419 . S
O409 C424 1.249 . S
O410 Eu371 2.558 . S
O410 C435 1.257 . S
O411 Eu360 2.380 . S
O411 Eu371 2.612 . S
O411 C427 1.276 . S
O412 Eu360 2.432 . S
O412 C434 1.264 . S
O413 Eu371 2.339 . S
O413 C434 1.254 . S
O414 Eu371 2.563 . S
O414 C427 1.235 . S
O415 Eu371 2.419 . S
O415 C435 1.249 . S
C416 O405 1.276 . S
C416 O408 1.235 . S
C417 C419 1.393 . S
C417 C421 1.395 . S
C417 C424 1.492 . S
C418 C419 1.392 . S
C418 C420 1.386 . S
C419 C417 1.393 . S
C419 C418 1.392 . S
C419 H436 0.930 . S
C420 C418 1.386 . S
C420 C422 1.395 . S
C420 H437 0.930 . S
C421 C417 1.395 . S
C421 C422 1.379 . S
C421 H438 0.930 . S
C422 C420 1.395 . S
C422 C421 1.379 . S
C422 H439 0.930 . S
C423 O406 1.264 . S
C423 O407 1.254 . S
C424 Eu360 2.848 . S
C424 O404 1.257 . S
C424 O409 1.249 . S
C424 C417 1.492 . S
C425 H390 0.931 . S
C425 C403 1.420 . S
C425 C426 1.351 . S
C426 H388 0.930 . S
C426 C394 1.423 . S
C426 C425 1.351 . S
C427 O411 1.276 . S
C427 O414 1.235 . S
C428 C429 1.393 . S
C428 C432 1.395 . S
C428 C435 1.492 . S
C429 C428 1.393 . S
C429 C430 1.392 . S
C429 H440 0.930 . S
C430 C429 1.392 . S
C430 C431 1.386 . S
C431 C430 1.386 . S
C431 C433 1.395 . S
C431 H441 0.930 . S
C432 C428 1.395 . S
C432 C433 1.379 . S
C432 H442 0.930 . S
C433 C431 1.395 . S
C433 C432 1.379 . S
C433 H443 0.930 . S
C434 O412 1.264 . S
C434 O413 1.254 . S
C435 Eu371 2.848 . S
C435 O410 1.257 . S
C435 O415 1.249 . S
C435 C428 1.492 . S
H436 C419 0.930 . S
H437 C420 0.930 . S
H438 C421 0.930 . S
H439 C422 0.930 . S
H440 C429 0.930 . S
H441 C431 0.930 . S
H442 C432 0.930 . S
H443 C433 0.930 . S
Eu444 N475 2.657 . S
Eu444 N482 2.609 . S
Eu444 O488 2.558 . S
Eu444 O489 2.612 . S
Eu444 O491 2.339 . S
Eu444 O492 2.563 . S
Eu444 O493 2.419 . S
Eu444 O495 2.380 . S
Eu444 O496 2.432 . S
Eu444 C508 2.848 . S
C445 C448 1.429 . S
C445 C449 1.411 . S
C445 N452 1.377 . S
C446 C448 1.420 . S
C446 C450 1.423 . S
C446 C458 1.392 . S
C447 C449 1.420 . S
C447 C450 1.351 . S
C447 H470 0.931 . S
C448 C445 1.429 . S
C448 C446 1.420 . S
C448 N456 1.362 . S
C449 C445 1.411 . S
C449 C447 1.420 . S
C449 C454 1.395 . S
C450 C446 1.423 . S
C450 C447 1.351 . S
C450 H462 0.930 . S
C451 C453 1.400 . S
C451 C454 1.386 . S
C451 H463 0.930 . S
N452 C445 1.377 . S
N452 C453 1.321 . S
N452 Eu455 2.609 . S
C453 C451 1.400 . S
C453 N452 1.321 . S
C453 H460 0.930 . S
C454 C449 1.395 . S
C454 C451 1.386 . S
C454 H473 0.930 . S
Eu455 N452 2.609 . S
Eu455 N456 2.657 . S
Eu455 O489 2.380 . S
Eu455 O490 2.432 . S
Eu455 O494 2.558 . S
Eu455 O495 2.612 . S
Eu455 O497 2.339 . S
Eu455 O498 2.563 . S
Eu455 O499 2.419 . S
Eu455 C519 2.848 . S
N456 C448 1.362 . S
N456 Eu455 2.657 . S
N456 C457 1.334 . S
C457 N456 1.334 . S
C457 C459 1.413 . S
C457 H464 0.929 . S
C458 C446 1.392 . S
C458 C459 1.367 . S
C458 H466 0.930 . S
C459 C457 1.413 . S
C459 C458 1.367 . S
C459 H461 0.930 . S
H460 C453 0.930 . S
H461 C459 0.930 . S
H462 C450 0.930 . S
H463 C451 0.930 . S
H464 C457 0.929 . S
H465 C479 0.930 . S
H466 C458 0.930 . S
H467 C485 0.930 . S
H468 C476 0.929 . S
H469 C483 0.930 . S
H470 C447 0.931 . S
H471 C477 0.930 . S
H472 C510 0.930 . S
H473 C454 0.930 . S
H474 C509 0.931 . S
N475 Eu444 2.657 . S
N475 C476 1.334 . S
N475 C480 1.362 . S
C476 H468 0.929 . S
C476 N475 1.334 . S
C476 C479 1.413 . S
C477 H471 0.930 . S
C477 C478 1.392 . S
C477 C479 1.367 . S
C478 C477 1.392 . S
C478 C480 1.420 . S
C478 C510 1.423 . S
C479 H465 0.930 . S
C479 C476 1.413 . S
C479 C477 1.367 . S
C480 N475 1.362 . S
C480 C478 1.420 . S
C480 C484 1.429 . S
H481 C486 0.930 . S
N482 Eu444 2.609 . S
N482 C484 1.377 . S
N482 C485 1.321 . S
C483 H469 0.930 . S
C483 C485 1.400 . S
C483 C486 1.386 . S
C484 C480 1.429 . S
C484 N482 1.377 . S
C484 C487 1.411 . S
C485 H467 0.930 . S
C485 N482 1.321 . S
C485 C483 1.400 . S
C486 H481 0.930 . S
C486 C483 1.386 . S
C486 C487 1.395 . S
C487 C484 1.411 . S
C487 C486 1.395 . S
C487 C509 1.420 . S
O488 Eu444 2.558 . S
O488 C508 1.257 . S
O489 Eu444 2.612 . S
O489 Eu455 2.380 . S
O489 C500 1.276 . S
O490 Eu455 2.432 . S
O490 C507 1.264 . S
O491 Eu444 2.339 . S
O491 C507 1.254 . S
O492 Eu444 2.563 . S
O492 C500 1.235 . S
O493 Eu444 2.419 . S
O493 C508 1.249 . S
O494 Eu455 2.558 . S
O494 C519 1.257 . S
O495 Eu444 2.380 . S
O495 Eu455 2.612 . S
O495 C511 1.276 . S
O496 Eu444 2.432 . S
O496 C518 1.264 . S
O497 Eu455 2.339 . S
O497 C518 1.254 . S
O498 Eu455 2.563 . S
O498 C511 1.235 . S
O499 Eu455 2.419 . S
O499 C519 1.249 . S
C500 O489 1.276 . S
C500 O492 1.235 . S
C501 C503 1.393 . S
C501 C505 1.395 . S
C501 C508 1.492 . S
C502 C503 1.392 . S
C502 C504 1.386 . S
C503 C501 1.393 . S
C503 C502 1.392 . S
C503 H520 0.930 . S
C504 C502 1.386 . S
C504 C506 1.395 . S
C504 H521 0.930 . S
C505 C501 1.395 . S
C505 C506 1.379 . S
C505 H522 0.930 . S
C506 C504 1.395 . S
C506 C505 1.379 . S
C506 H523 0.930 . S
C507 O490 1.264 . S
C507 O491 1.254 . S
C508 Eu444 2.848 . S
C508 O488 1.257 . S
C508 O493 1.249 . S
C508 C501 1.492 . S
C509 H474 0.931 . S
C509 C487 1.420 . S
C509 C510 1.351 . S
C510 H472 0.930 . S
C510 C478 1.423 . S
C510 C509 1.351 . S
C511 O495 1.276 . S
C511 O498 1.235 . S
C512 C513 1.393 . S
C512 C516 1.395 . S
C512 C519 1.492 . S
C513 C512 1.393 . S
C513 C514 1.392 . S
C513 H524 0.930 . S
C514 C513 1.392 . S
C514 C515 1.386 . S
C515 C514 1.386 . S
C515 C517 1.395 . S
C515 H525 0.930 . S
C516 C512 1.395 . S
C516 C517 1.379 . S
C516 H526 0.930 . S
C517 C515 1.395 . S
C517 C516 1.379 . S
C517 H527 0.930 . S
C518 O496 1.264 . S
C518 O497 1.254 . S
C519 Eu455 2.848 . S
C519 O494 1.257 . S
C519 O499 1.249 . S
C519 C512 1.492 . S
H520 C503 0.930 . S
H521 C504 0.930 . S
H522 C505 0.930 . S
H523 C506 0.930 . S
H524 C513 0.930 . S
H525 C515 0.930 . S
H526 C516 0.930 . S
H527 C517 0.930 . S
Eu528 N559 2.657 . S
Eu528 N566 2.609 . S
Eu528 O572 2.558 . S
Eu528 O573 2.612 . S
Eu528 O575 2.339 . S
Eu528 O576 2.563 . S
Eu528 O577 2.419 . S
Eu528 O579 2.380 . S
Eu528 O580 2.432 . S
Eu528 C592 2.848 . S
C529 C532 1.429 . S
C529 C533 1.411 . S
C529 N536 1.377 . S
C530 C532 1.420 . S
C530 C534 1.423 . S
C530 C542 1.392 . S
C531 C533 1.420 . S
C531 C534 1.351 . S
C531 H554 0.931 . S
C532 C529 1.429 . S
C532 C530 1.420 . S
C532 N540 1.362 . S
C533 C529 1.411 . S
C533 C531 1.420 . S
C533 C538 1.395 . S
C534 C530 1.423 . S
C534 C531 1.351 . S
C534 H546 0.930 . S
C535 C537 1.400 . S
C535 C538 1.386 . S
C535 H547 0.930 . S
N536 C529 1.377 . S
N536 C537 1.321 . S
N536 Eu539 2.609 . S
C537 C535 1.400 . S
C537 N536 1.321 . S
C537 H544 0.930 . S
C538 C533 1.395 . S
C538 C535 1.386 . S
C538 H557 0.930 . S
Eu539 N536 2.609 . S
Eu539 N540 2.657 . S
Eu539 O573 2.380 . S
Eu539 O574 2.432 . S
Eu539 O578 2.558 . S
Eu539 O579 2.612 . S
Eu539 O581 2.339 . S
Eu539 O582 2.563 . S
Eu539 O583 2.419 . S
Eu539 C603 2.848 . S
N540 C532 1.362 . S
N540 Eu539 2.657 . S
N540 C541 1.334 . S
C541 N540 1.334 . S
C541 C543 1.413 . S
C541 H548 0.929 . S
C542 C530 1.392 . S
C542 C543 1.367 . S
C542 H550 0.930 . S
C543 C541 1.413 . S
C543 C542 1.367 . S
C543 H545 0.930 . S
H544 C537 0.930 . S
H545 C543 0.930 . S
H546 C534 0.930 . S
H547 C535 0.930 . S
H548 C541 0.929 . S
H549 C563 0.930 . S
H550 C542 0.930 . S
H551 C569 0.930 . S
H552 C560 0.929 . S
H553 C567 0.930 . S
H554 C531 0.931 . S
H555 C561 0.930 . S
H556 C594 0.930 . S
H557 C538 0.930 . S
H558 C593 0.931 . S
N559 Eu528 2.657 . S
N559 C560 1.334 . S
N559 C564 1.362 . S
C560 H552 0.929 . S
C560 N559 1.334 . S
C560 C563 1.413 . S
C561 H555 0.930 . S
C561 C562 1.392 . S
C561 C563 1.367 . S
C562 C561 1.392 . S
C562 C564 1.420 . S
C562 C594 1.423 . S
C563 H549 0.930 . S
C563 C560 1.413 . S
C563 C561 1.367 . S
C564 N559 1.362 . S
C564 C562 1.420 . S
C564 C568 1.429 . S
H565 C570 0.930 . S
N566 Eu528 2.609 . S
N566 C568 1.377 . S
N566 C569 1.321 . S
C567 H553 0.930 . S
C567 C569 1.400 . S
C567 C570 1.386 . S
C568 C564 1.429 . S
C568 N566 1.377 . S
C568 C571 1.411 . S
C569 H551 0.930 . S
C569 N566 1.321 . S
C569 C567 1.400 . S
C570 H565 0.930 . S
C570 C567 1.386 . S
C570 C571 1.395 . S
C571 C568 1.411 . S
C571 C570 1.395 . S
C571 C593 1.420 . S
O572 Eu528 2.558 . S
O572 C592 1.257 . S
O573 Eu528 2.612 . S
O573 Eu539 2.380 . S
O573 C584 1.276 . S
O574 Eu539 2.432 . S
O574 C591 1.264 . S
O575 Eu528 2.339 . S
O575 C591 1.254 . S
O576 Eu528 2.563 . S
O576 C584 1.235 . S
O577 Eu528 2.419 . S
O577 C592 1.249 . S
O578 Eu539 2.558 . S
O578 C603 1.257 . S
O579 Eu528 2.380 . S
O579 Eu539 2.612 . S
O579 C595 1.276 . S
O580 Eu528 2.432 . S
O580 C602 1.264 . S
O581 Eu539 2.339 . S
O581 C602 1.254 . S
O582 Eu539 2.563 . S
O582 C595 1.235 . S
O583 Eu539 2.419 . S
O583 C603 1.249 . S
C584 O573 1.276 . S
C584 O576 1.235 . S
C585 C587 1.393 . S
C585 C589 1.395 . S
C585 C592 1.492 . S
C586 C587 1.392 . S
C586 C588 1.386 . S
C587 C585 1.393 . S
C587 C586 1.392 . S
C587 H604 0.930 . S
C588 C586 1.386 . S
C588 C590 1.395 . S
C588 H605 0.930 . S
C589 C585 1.395 . S
C589 C590 1.379 . S
C589 H606 0.930 . S
C590 C588 1.395 . S
C590 C589 1.379 . S
C590 H607 0.930 . S
C591 O574 1.264 . S
C591 O575 1.254 . S
C592 Eu528 2.848 . S
C592 O572 1.257 . S
C592 O577 1.249 . S
C592 C585 1.492 . S
C593 H558 0.931 . S
C593 C571 1.420 . S
C593 C594 1.351 . S
C594 H556 0.930 . S
C594 C562 1.423 . S
C594 C593 1.351 . S
C595 O579 1.276 . S
C595 O582 1.235 . S
C596 C597 1.393 . S
C596 C600 1.395 . S
C596 C603 1.492 . S
C597 C596 1.393 . S
C597 C598 1.392 . S
C597 H608 0.930 . S
C598 C597 1.392 . S
C598 C599 1.386 . S
C599 C598 1.386 . S
C599 C601 1.395 . S
C599 H609 0.930 . S
C600 C596 1.395 . S
C600 C601 1.379 . S
C600 H610 0.930 . S
C601 C599 1.395 . S
C601 C600 1.379 . S
C601 H611 0.930 . S
C602 O580 1.264 . S
C602 O581 1.254 . S
C603 Eu539 2.848 . S
C603 O578 1.257 . S
C603 O583 1.249 . S
C603 C596 1.492 . S
H604 C587 0.930 . S
H605 C588 0.930 . S
H606 C589 0.930 . S
H607 C590 0.930 . S
H608 C597 0.930 . S
H609 C599 0.930 . S
H610 C600 0.930 . S
H611 C601 0.930 . S
Eu612 N643 2.657 . S
Eu612 N650 2.609 . S
Eu612 O656 2.558 . S
Eu612 O657 2.612 . S
Eu612 O659 2.339 . S
Eu612 O660 2.563 . S
Eu612 O661 2.419 . S
Eu612 O663 2.380 . S
Eu612 O664 2.432 . S
Eu612 C676 2.848 . S
C613 C616 1.429 . S
C613 C617 1.411 . S
C613 N620 1.377 . S
C614 C616 1.420 . S
C614 C618 1.423 . S
C614 C626 1.392 . S
C615 C617 1.420 . S
C615 C618 1.351 . S
C615 H638 0.931 . S
C616 C613 1.429 . S
C616 C614 1.420 . S
C616 N624 1.362 . S
C617 C613 1.411 . S
C617 C615 1.420 . S
C617 C622 1.395 . S
C618 C614 1.423 . S
C618 C615 1.351 . S
C618 H630 0.930 . S
C619 C621 1.400 . S
C619 C622 1.386 . S
C619 H631 0.930 . S
N620 C613 1.377 . S
N620 C621 1.321 . S
N620 Eu623 2.609 . S
C621 C619 1.400 . S
C621 N620 1.321 . S
C621 H628 0.930 . S
C622 C617 1.395 . S
C622 C619 1.386 . S
C622 H641 0.930 . S
Eu623 N620 2.609 . S
Eu623 N624 2.657 . S
Eu623 O657 2.380 . S
Eu623 O658 2.432 . S
Eu623 O662 2.558 . S
Eu623 O663 2.612 . S
Eu623 O665 2.339 . S
Eu623 O666 2.563 . S
Eu623 O667 2.419 . S
Eu623 C687 2.848 . S
N624 C616 1.362 . S
N624 Eu623 2.657 . S
N624 C625 1.334 . S
C625 N624 1.334 . S
C625 C627 1.413 . S
C625 H632 0.929 . S
C626 C614 1.392 . S
C626 C627 1.367 . S
C626 H634 0.930 . S
C627 C625 1.413 . S
C627 C626 1.367 . S
C627 H629 0.930 . S
H628 C621 0.930 . S
H629 C627 0.930 . S
H630 C618 0.930 . S
H631 C619 0.930 . S
H632 C625 0.929 . S
H633 C647 0.930 . S
H634 C626 0.930 . S
H635 C653 0.930 . S
H636 C644 0.929 . S
H637 C651 0.930 . S
H638 C615 0.931 . S
H639 C645 0.930 . S
H640 C678 0.930 . S
H641 C622 0.930 . S
H642 C677 0.931 . S
N643 Eu612 2.657 . S
N643 C644 1.334 . S
N643 C648 1.362 . S
C644 H636 0.929 . S
C644 N643 1.334 . S
C644 C647 1.413 . S
C645 H639 0.930 . S
C645 C646 1.392 . S
C645 C647 1.367 . S
C646 C645 1.392 . S
C646 C648 1.420 . S
C646 C678 1.423 . S
C647 H633 0.930 . S
C647 C644 1.413 . S
C647 C645 1.367 . S
C648 N643 1.362 . S
C648 C646 1.420 . S
C648 C652 1.429 . S
H649 C654 0.930 . S
N650 Eu612 2.609 . S
N650 C652 1.377 . S
N650 C653 1.321 . S
C651 H637 0.930 . S
C651 C653 1.400 . S
C651 C654 1.386 . S
C652 C648 1.429 . S
C652 N650 1.377 . S
C652 C655 1.411 . S
C653 H635 0.930 . S
C653 N650 1.321 . S
C653 C651 1.400 . S
C654 H649 0.930 . S
C654 C651 1.386 . S
C654 C655 1.395 . S
C655 C652 1.411 . S
C655 C654 1.395 . S
C655 C677 1.420 . S
O656 Eu612 2.558 . S
O656 C676 1.257 . S
O657 Eu612 2.612 . S
O657 Eu623 2.380 . S
O657 C668 1.276 . S
O658 Eu623 2.432 . S
O658 C675 1.264 . S
O659 Eu612 2.339 . S
O659 C675 1.254 . S
O660 Eu612 2.563 . S
O660 C668 1.235 . S
O661 Eu612 2.419 . S
O661 C676 1.249 . S
O662 Eu623 2.558 . S
O662 C687 1.257 . S
O663 Eu612 2.380 . S
O663 Eu623 2.612 . S
O663 C679 1.276 . S
O664 Eu612 2.432 . S
O664 C686 1.264 . S
O665 Eu623 2.339 . S
O665 C686 1.254 . S
O666 Eu623 2.563 . S
O666 C679 1.235 . S
O667 Eu623 2.419 . S
O667 C687 1.249 . S
C668 O657 1.276 . S
C668 O660 1.235 . S
C669 C671 1.393 . S
C669 C673 1.395 . S
C669 C676 1.492 . S
C670 C671 1.392 . S
C670 C672 1.386 . S
C671 C669 1.393 . S
C671 C670 1.392 . S
C671 H688 0.930 . S
C672 C670 1.386 . S
C672 C674 1.395 . S
C672 H689 0.930 . S
C673 C669 1.395 . S
C673 C674 1.379 . S
C673 H690 0.930 . S
C674 C672 1.395 . S
C674 C673 1.379 . S
C674 H691 0.930 . S
C675 O658 1.264 . S
C675 O659 1.254 . S
C676 Eu612 2.848 . S
C676 O656 1.257 . S
C676 O661 1.249 . S
C676 C669 1.492 . S
C677 H642 0.931 . S
C677 C655 1.420 . S
C677 C678 1.351 . S
C678 H640 0.930 . S
C678 C646 1.423 . S
C678 C677 1.351 . S
C679 O663 1.276 . S
C679 O666 1.235 . S
C680 C681 1.393 . S
C680 C684 1.395 . S
C680 C687 1.492 . S
C681 C680 1.393 . S
C681 C682 1.392 . S
C681 H692 0.930 . S
C682 C681 1.392 . S
C682 C683 1.386 . S
C683 C682 1.386 . S
C683 C685 1.395 . S
C683 H693 0.930 . S
C684 C680 1.395 . S
C684 C685 1.379 . S
C684 H694 0.930 . S
C685 C683 1.395 . S
C685 C684 1.379 . S
C685 H695 0.930 . S
C686 O664 1.264 . S
C686 O665 1.254 . S
C687 Eu623 2.848 . S
C687 O662 1.257 . S
C687 O667 1.249 . S
C687 C680 1.492 . S
H688 C671 0.930 . S
H689 C672 0.930 . S
H690 C673 0.930 . S
H691 C674 0.930 . S
H692 C681 0.930 . S
H693 C683 0.930 . S
H694 C684 0.930 . S
H695 C685 0.930 . S
Eu696 N727 2.657 . S
Eu696 N734 2.609 . S
Eu696 O740 2.558 . S
Eu696 O741 2.612 . S
Eu696 O743 2.339 . S
Eu696 O744 2.563 . S
Eu696 O745 2.419 . S
Eu696 O747 2.380 . S
Eu696 O748 2.432 . S
Eu696 C760 2.848 . S
C697 C700 1.429 . S
C697 C701 1.411 . S
C697 N704 1.377 . S
C698 C700 1.420 . S
C698 C702 1.423 . S
C698 C710 1.392 . S
C699 C701 1.420 . S
C699 C702 1.351 . S
C699 H722 0.931 . S
C700 C697 1.429 . S
C700 C698 1.420 . S
C700 N708 1.362 . S
C701 C697 1.411 . S
C701 C699 1.420 . S
C701 C706 1.395 . S
C702 C698 1.423 . S
C702 C699 1.351 . S
C702 H714 0.930 . S
C703 C705 1.400 . S
C703 C706 1.386 . S
C703 H715 0.930 . S
N704 C697 1.377 . S
N704 C705 1.321 . S
N704 Eu707 2.609 . S
C705 C703 1.400 . S
C705 N704 1.321 . S
C705 H712 0.930 . S
C706 C701 1.395 . S
C706 C703 1.386 . S
C706 H725 0.930 . S
Eu707 N704 2.609 . S
Eu707 N708 2.657 . S
Eu707 O741 2.380 . S
Eu707 O742 2.432 . S
Eu707 O746 2.558 . S
Eu707 O747 2.612 . S
Eu707 O749 2.339 . S
Eu707 O750 2.563 . S
Eu707 O751 2.419 . S
Eu707 C771 2.848 . S
N708 C700 1.362 . S
N708 Eu707 2.657 . S
N708 C709 1.334 . S
C709 N708 1.334 . S
C709 C711 1.413 . S
C709 H716 0.929 . S
C710 C698 1.392 . S
C710 C711 1.367 . S
C710 H718 0.930 . S
C711 C709 1.413 . S
C711 C710 1.367 . S
C711 H713 0.930 . S
H712 C705 0.930 . S
H713 C711 0.930 . S
H714 C702 0.930 . S
H715 C703 0.930 . S
H716 C709 0.929 . S
H717 C731 0.930 . S
H718 C710 0.930 . S
H719 C737 0.930 . S
H720 C728 0.929 . S
H721 C735 0.930 . S
H722 C699 0.931 . S
H723 C729 0.930 . S
H724 C762 0.930 . S
H725 C706 0.930 . S
H726 C761 0.931 . S
N727 Eu696 2.657 . S
N727 C728 1.334 . S
N727 C732 1.362 . S
C728 H720 0.929 . S
C728 N727 1.334 . S
C728 C731 1.413 . S
C729 H723 0.930 . S
C729 C730 1.392 . S
C729 C731 1.367 . S
C730 C729 1.392 . S
C730 C732 1.420 . S
C730 C762 1.423 . S
C731 H717 0.930 . S
C731 C728 1.413 . S
C731 C729 1.367 . S
C732 N727 1.362 . S
C732 C730 1.420 . S
C732 C736 1.429 . S
H733 C738 0.930 . S
N734 Eu696 2.609 . S
N734 C736 1.377 . S
N734 C737 1.321 . S
C735 H721 0.930 . S
C735 C737 1.400 . S
C735 C738 1.386 . S
C736 C732 1.429 . S
C736 N734 1.377 . S
C736 C739 1.411 . S
C737 H719 0.930 . S
C737 N734 1.321 . S
C737 C735 1.400 . S
C738 H733 0.930 . S
C738 C735 1.386 . S
C738 C739 1.395 . S
C739 C736 1.411 . S
C739 C738 1.395 . S
C739 C761 1.420 . S
O740 Eu696 2.558 . S
O740 C760 1.257 . S
O741 Eu696 2.612 . S
O741 Eu707 2.380 . S
O741 C752 1.276 . S
O742 Eu707 2.432 . S
O742 C759 1.264 . S
O743 Eu696 2.339 . S
O743 C759 1.254 . S
O744 Eu696 2.563 . S
O744 C752 1.235 . S
O745 Eu696 2.419 . S
O745 C760 1.249 . S
O746 Eu707 2.558 . S
O746 C771 1.257 . S
O747 Eu696 2.380 . S
O747 Eu707 2.612 . S
O747 C763 1.276 . S
O748 Eu696 2.432 . S
O748 C770 1.264 . S
O749 Eu707 2.339 . S
O749 C770 1.254 . S
O750 Eu707 2.563 . S
O750 C763 1.235 . S
O751 Eu707 2.419 . S
O751 C771 1.249 . S
C752 O741 1.276 . S
C752 O744 1.235 . S
C753 C755 1.393 . S
C753 C757 1.395 . S
C753 C760 1.492 . S
C754 C755 1.392 . S
C754 C756 1.386 . S
C755 C753 1.393 . S
C755 C754 1.392 . S
C755 H772 0.930 . S
C756 C754 1.386 . S
C756 C758 1.395 . S
C756 H773 0.930 . S
C757 C753 1.395 . S
C757 C758 1.379 . S
C757 H774 0.930 . S
C758 C756 1.395 . S
C758 C757 1.379 . S
C758 H775 0.930 . S
C759 O742 1.264 . S
C759 O743 1.254 . S
C760 Eu696 2.848 . S
C760 O740 1.257 . S
C760 O745 1.249 . S
C760 C753 1.492 . S
C761 H726 0.931 . S
C761 C739 1.420 . S
C761 C762 1.351 . S
C762 H724 0.930 . S
C762 C730 1.423 . S
C762 C761 1.351 . S
C763 O747 1.276 . S
C763 O750 1.235 . S
C764 C765 1.393 . S
C764 C768 1.395 . S
C764 C771 1.492 . S
C765 C764 1.393 . S
C765 C766 1.392 . S
C765 H776 0.930 . S
C766 C765 1.392 . S
C766 C767 1.386 . S
C767 C766 1.386 . S
C767 C769 1.395 . S
C767 H777 0.930 . S
C768 C764 1.395 . S
C768 C769 1.379 . S
C768 H778 0.930 . S
C769 C767 1.395 . S
C769 C768 1.379 . S
C769 H779 0.930 . S
C770 O748 1.264 . S
C770 O749 1.254 . S
C771 Eu707 2.848 . S
C771 O746 1.257 . S
C771 O751 1.249 . S
C771 C764 1.492 . S
H772 C755 0.930 . S
H773 C756 0.930 . S
H774 C757 0.930 . S
H775 C758 0.930 . S
H776 C765 0.930 . S
H777 C767 0.930 . S
H778 C768 0.930 . S
H779 C769 0.930 . S
Eu780 N811 2.657 . S
Eu780 N818 2.609 . S
Eu780 O824 2.558 . S
Eu780 O825 2.612 . S
Eu780 O827 2.339 . S
Eu780 O828 2.563 . S
Eu780 O829 2.419 . S
Eu780 O831 2.380 . S
Eu780 O832 2.432 . S
Eu780 C844 2.848 . S
C781 C784 1.429 . S
C781 C785 1.411 . S
C781 N788 1.377 . S
C782 C784 1.420 . S
C782 C786 1.423 . S
C782 C794 1.392 . S
C783 C785 1.420 . S
C783 C786 1.351 . S
C783 H806 0.931 . S
C784 C781 1.429 . S
C784 C782 1.420 . S
C784 N792 1.362 . S
C785 C781 1.411 . S
C785 C783 1.420 . S
C785 C790 1.395 . S
C786 C782 1.423 . S
C786 C783 1.351 . S
C786 H798 0.930 . S
C787 C789 1.400 . S
C787 C790 1.386 . S
C787 H799 0.930 . S
N788 C781 1.377 . S
N788 C789 1.321 . S
N788 Eu791 2.609 . S
C789 C787 1.400 . S
C789 N788 1.321 . S
C789 H796 0.930 . S
C790 C785 1.395 . S
C790 C787 1.386 . S
C790 H809 0.930 . S
Eu791 N788 2.609 . S
Eu791 N792 2.657 . S
Eu791 O825 2.380 . S
Eu791 O826 2.432 . S
Eu791 O830 2.558 . S
Eu791 O831 2.612 . S
Eu791 O833 2.339 . S
Eu791 O834 2.563 . S
Eu791 O835 2.419 . S
Eu791 C855 2.848 . S
N792 C784 1.362 . S
N792 Eu791 2.657 . S
N792 C793 1.334 . S
C793 N792 1.334 . S
C793 C795 1.413 . S
C793 H800 0.929 . S
C794 C782 1.392 . S
C794 C795 1.367 . S
C794 H802 0.930 . S
C795 C793 1.413 . S
C795 C794 1.367 . S
C795 H797 0.930 . S
H796 C789 0.930 . S
H797 C795 0.930 . S
H798 C786 0.930 . S
H799 C787 0.930 . S
H800 C793 0.929 . S
H801 C815 0.930 . S
H802 C794 0.930 . S
H803 C821 0.930 . S
H804 C812 0.929 . S
H805 C819 0.930 . S
H806 C783 0.931 . S
H807 C813 0.930 . S
H808 C846 0.930 . S
H809 C790 0.930 . S
H810 C845 0.931 . S
N811 Eu780 2.657 . S
N811 C812 1.334 . S
N811 C816 1.362 . S
C812 H804 0.929 . S
C812 N811 1.334 . S
C812 C815 1.413 . S
C813 H807 0.930 . S
C813 C814 1.392 . S
C813 C815 1.367 . S
C814 C813 1.392 . S
C814 C816 1.420 . S
C814 C846 1.423 . S
C815 H801 0.930 . S
C815 C812 1.413 . S
C815 C813 1.367 . S
C816 N811 1.362 . S
C816 C814 1.420 . S
C816 C820 1.429 . S
H817 C822 0.930 . S
N818 Eu780 2.609 . S
N818 C820 1.377 . S
N818 C821 1.321 . S
C819 H805 0.930 . S
C819 C821 1.400 . S
C819 C822 1.386 . S
C820 C816 1.429 . S
C820 N818 1.377 . S
C820 C823 1.411 . S
C821 H803 0.930 . S
C821 N818 1.321 . S
C821 C819 1.400 . S
C822 H817 0.930 . S
C822 C819 1.386 . S
C822 C823 1.395 . S
C823 C820 1.411 . S
C823 C822 1.395 . S
C823 C845 1.420 . S
O824 Eu780 2.558 . S
O824 C844 1.257 . S
O825 Eu780 2.612 . S
O825 Eu791 2.380 . S
O825 C836 1.276 . S
O826 Eu791 2.432 . S
O826 C843 1.264 . S
O827 Eu780 2.339 . S
O827 C843 1.254 . S
O828 Eu780 2.563 . S
O828 C836 1.235 . S
O829 Eu780 2.419 . S
O829 C844 1.249 . S
O830 Eu791 2.558 . S
O830 C855 1.257 . S
O831 Eu780 2.380 . S
O831 Eu791 2.612 . S
O831 C847 1.276 . S
O832 Eu780 2.432 . S
O832 C854 1.264 . S
O833 Eu791 2.339 . S
O833 C854 1.254 . S
O834 Eu791 2.563 . S
O834 C847 1.235 . S
O835 Eu791 2.419 . S
O835 C855 1.249 . S
C836 O825 1.276 . S
C836 O828 1.235 . S
C837 C839 1.393 . S
C837 C841 1.395 . S
C837 C844 1.492 . S
C838 C839 1.392 . S
C838 C840 1.386 . S
C839 C837 1.393 . S
C839 C838 1.392 . S
C839 H856 0.930 . S
C840 C838 1.386 . S
C840 C842 1.395 . S
C840 H857 0.930 . S
C841 C837 1.395 . S
C841 C842 1.379 . S
C841 H858 0.930 . S
C842 C840 1.395 . S
C842 C841 1.379 . S
C842 H859 0.930 . S
C843 O826 1.264 . S
C843 O827 1.254 . S
C844 Eu780 2.848 . S
C844 O824 1.257 . S
C844 O829 1.249 . S
C844 C837 1.492 . S
C845 H810 0.931 . S
C845 C823 1.420 . S
C845 C846 1.351 . S
C846 H808 0.930 . S
C846 C814 1.423 . S
C846 C845 1.351 . S
C847 O831 1.276 . S
C847 O834 1.235 . S
C848 C849 1.393 . S
C848 C852 1.395 . S
C848 C855 1.492 . S
C849 C848 1.393 . S
C849 C850 1.392 . S
C849 H860 0.930 . S
C850 C849 1.392 . S
C850 C851 1.386 . S
C851 C850 1.386 . S
C851 C853 1.395 . S
C851 H861 0.930 . S
C852 C848 1.395 . S
C852 C853 1.379 . S
C852 H862 0.930 . S
C853 C851 1.395 . S
C853 C852 1.379 . S
C853 H863 0.930 . S
C854 O832 1.264 . S
C854 O833 1.254 . S
C855 Eu791 2.848 . S
C855 O830 1.257 . S
C855 O835 1.249 . S
C855 C848 1.492 . S
H856 C839 0.930 . S
H857 C840 0.930 . S
H858 C841 0.930 . S
H859 C842 0.930 . S
H860 C849 0.930 . S
H861 C851 0.930 . S
H862 C852 0.930 . S
H863 C853 0.930 . S
Eu864 N895 2.657 . S
Eu864 N902 2.609 . S
Eu864 O908 2.558 . S
Eu864 O909 2.612 . S
Eu864 O911 2.339 . S
Eu864 O912 2.563 . S
Eu864 O913 2.419 . S
Eu864 O915 2.380 . S
Eu864 O916 2.432 . S
Eu864 C928 2.848 . S
C865 C868 1.429 . S
C865 C869 1.411 . S
C865 N872 1.377 . S
C866 C868 1.420 . S
C866 C870 1.423 . S
C866 C878 1.392 . S
C867 C869 1.420 . S
C867 C870 1.351 . S
C867 H890 0.931 . S
C868 C865 1.429 . S
C868 C866 1.420 . S
C868 N876 1.362 . S
C869 C865 1.411 . S
C869 C867 1.420 . S
C869 C874 1.395 . S
C870 C866 1.423 . S
C870 C867 1.351 . S
C870 H882 0.930 . S
C871 C873 1.400 . S
C871 C874 1.386 . S
C871 H883 0.930 . S
N872 C865 1.377 . S
N872 C873 1.321 . S
N872 Eu875 2.609 . S
C873 C871 1.400 . S
C873 N872 1.321 . S
C873 H880 0.930 . S
C874 C869 1.395 . S
C874 C871 1.386 . S
C874 H893 0.930 . S
Eu875 N872 2.609 . S
Eu875 N876 2.657 . S
Eu875 O909 2.380 . S
Eu875 O910 2.432 . S
Eu875 O914 2.558 . S
Eu875 O915 2.612 . S
Eu875 O917 2.339 . S
Eu875 O918 2.563 . S
Eu875 O919 2.419 . S
Eu875 C939 2.848 . S
N876 C868 1.362 . S
N876 Eu875 2.657 . S
N876 C877 1.334 . S
C877 N876 1.334 . S
C877 C879 1.413 . S
C877 H884 0.929 . S
C878 C866 1.392 . S
C878 C879 1.367 . S
C878 H886 0.930 . S
C879 C877 1.413 . S
C879 C878 1.367 . S
C879 H881 0.930 . S
H880 C873 0.930 . S
H881 C879 0.930 . S
H882 C870 0.930 . S
H883 C871 0.930 . S
H884 C877 0.929 . S
H885 C899 0.930 . S
H886 C878 0.930 . S
H887 C905 0.930 . S
H888 C896 0.929 . S
H889 C903 0.930 . S
H890 C867 0.931 . S
H891 C897 0.930 . S
H892 C930 0.930 . S
H893 C874 0.930 . S
H894 C929 0.931 . S
N895 Eu864 2.657 . S
N895 C896 1.334 . S
N895 C900 1.362 . S
C896 H888 0.929 . S
C896 N895 1.334 . S
C896 C899 1.413 . S
C897 H891 0.930 . S
C897 C898 1.392 . S
C897 C899 1.367 . S
C898 C897 1.392 . S
C898 C900 1.420 . S
C898 C930 1.423 . S
C899 H885 0.930 . S
C899 C896 1.413 . S
C899 C897 1.367 . S
C900 N895 1.362 . S
C900 C898 1.420 . S
C900 C904 1.429 . S
H901 C906 0.930 . S
N902 Eu864 2.609 . S
N902 C904 1.377 . S
N902 C905 1.321 . S
C903 H889 0.930 . S
C903 C905 1.400 . S
C903 C906 1.386 . S
C904 C900 1.429 . S
C904 N902 1.377 . S
C904 C907 1.411 . S
C905 H887 0.930 . S
C905 N902 1.321 . S
C905 C903 1.400 . S
C906 H901 0.930 . S
C906 C903 1.386 . S
C906 C907 1.395 . S
C907 C904 1.411 . S
C907 C906 1.395 . S
C907 C929 1.420 . S
O908 Eu864 2.558 . S
O908 C928 1.257 . S
O909 Eu864 2.612 . S
O909 Eu875 2.380 . S
O909 C920 1.276 . S
O910 Eu875 2.432 . S
O910 C927 1.264 . S
O911 Eu864 2.339 . S
O911 C927 1.254 . S
O912 Eu864 2.563 . S
O912 C920 1.235 . S
O913 Eu864 2.419 . S
O913 C928 1.249 . S
O914 Eu875 2.558 . S
O914 C939 1.257 . S
O915 Eu864 2.380 . S
O915 Eu875 2.612 . S
O915 C931 1.276 . S
O916 Eu864 2.432 . S
O916 C938 1.264 . S
O917 Eu875 2.339 . S
O917 C938 1.254 . S
O918 Eu875 2.563 . S
O918 C931 1.235 . S
O919 Eu875 2.419 . S
O919 C939 1.249 . S
C920 O909 1.276 . S
C920 O912 1.235 . S
C921 C923 1.393 . S
C921 C925 1.395 . S
C921 C928 1.492 . S
C922 C923 1.392 . S
C922 C924 1.386 . S
C923 C921 1.393 . S
C923 C922 1.392 . S
C923 H940 0.930 . S
C924 C922 1.386 . S
C924 C926 1.395 . S
C924 H941 0.930 . S
C925 C921 1.395 . S
C925 C926 1.379 . S
C925 H942 0.930 . S
C926 C924 1.395 . S
C926 C925 1.379 . S
C926 H943 0.930 . S
C927 O910 1.264 . S
C927 O911 1.254 . S
C928 Eu864 2.848 . S
C928 O908 1.257 . S
C928 O913 1.249 . S
C928 C921 1.492 . S
C929 H894 0.931 . S
C929 C907 1.420 . S
C929 C930 1.351 . S
C930 H892 0.930 . S
C930 C898 1.423 . S
C930 C929 1.351 . S
C931 O915 1.276 . S
C931 O918 1.235 . S
C932 C933 1.393 . S
C932 C936 1.395 . S
C932 C939 1.492 . S
C933 C932 1.393 . S
C933 C934 1.392 . S
C933 H944 0.930 . S
C934 C933 1.392 . S
C934 C935 1.386 . S
C935 C934 1.386 . S
C935 C937 1.395 . S
C935 H945 0.930 . S
C936 C932 1.395 . S
C936 C937 1.379 . S
C936 H946 0.930 . S
C937 C935 1.395 . S
C937 C936 1.379 . S
C937 H947 0.930 . S
C938 O916 1.264 . S
C938 O917 1.254 . S
C939 Eu875 2.848 . S
C939 O914 1.257 . S
C939 O919 1.249 . S
C939 C932 1.492 . S
H940 C923 0.930 . S
H941 C924 0.930 . S
H942 C925 0.930 . S
H943 C926 0.930 . S
H944 C933 0.930 . S
H945 C935 0.930 . S
H946 C936 0.930 . S
H947 C937 0.930 . S
H948 C956 0.950 . S
H949 C961 0.950 . S
H950 C958 0.950 . S
H951 C960 0.950 . S
H952 C962 0.950 . S
H953 C964 0.950 . S
H954 C966 0.950 . S
H955 C967 0.950 . S
C956 H948 0.950 . S
C956 C957 1.386 . S
C956 C958 1.391 . S
C957 C956 1.386 . S
C957 C961 1.393 . S
C958 H950 0.950 . S
C958 C956 1.391 . S
C958 C959 1.400 . S
C959 C958 1.400 . S
C959 C960 1.398 . S
C959 C965 1.491 . S
C960 H951 0.950 . S
C960 C959 1.398 . S
C960 C961 1.391 . S
C961 H949 0.950 . S
C961 C957 1.393 . S
C961 C960 1.391 . S
C962 H952 0.950 . S
C962 C963 1.386 . S
C962 C964 1.391 . S
C963 C962 1.386 . S
C963 C967 1.393 . S
C964 H953 0.950 . S
C964 C962 1.391 . S
C964 C965 1.400 . S
C965 C959 1.491 . S
C965 C964 1.400 . S
C965 C966 1.398 . S
C966 H954 0.950 . S
C966 C965 1.398 . S
C966 C967 1.391 . S
C967 H955 0.950 . S
C967 C963 1.393 . S
C967 C966 1.391 . S
H968 C976 0.950 . S
H969 C981 0.950 . S
H970 C978 0.950 . S
H971 C980 0.950 . S
H972 C982 0.950 . S
H973 C984 0.950 . S
H974 C986 0.950 . S
H975 C987 0.950 . S
C976 H968 0.950 . S
C976 C977 1.386 . S
C976 C978 1.391 . S
C977 C976 1.386 . S
C977 C981 1.393 . S
C978 H970 0.950 . S
C978 C976 1.391 . S
C978 C979 1.400 . S
C979 C978 1.400 . S
C979 C980 1.398 . S
C979 C985 1.491 . S
C980 H971 0.950 . S
C980 C979 1.398 . S
C980 C981 1.391 . S
C981 H969 0.950 . S
C981 C977 1.393 . S
C981 C980 1.391 . S
C982 H972 0.950 . S
C982 C983 1.386 . S
C982 C984 1.391 . S
C983 C982 1.386 . S
C983 C987 1.393 . S
C984 H973 0.950 . S
C984 C982 1.391 . S
C984 C985 1.400 . S
C985 C979 1.491 . S
C985 C984 1.400 . S
C985 C986 1.398 . S
C986 H974 0.950 . S
C986 C985 1.398 . S
C986 C987 1.391 . S
C987 H975 0.950 . S
C987 C983 1.393 . S
C987 C986 1.391 . S
H988 C996 0.950 1_545 S
H989 C1001 0.950 . S
H990 C998 0.950 . S
H991 C1000 0.950 . S
H992 C1002 0.950 . S
H993 C1004 0.950 . S
H994 C1006 0.950 . S
H995 C1007 0.950 . S
C996 H988 0.950 1_565 S
C996 C997 1.386 . S
C996 C998 1.391 . S
C997 C996 1.386 . S
C997 C1001 1.393 . S
C998 H990 0.950 . S
C998 C996 1.391 . S
C998 C999 1.400 . S
C999 C998 1.400 . S
C999 C1000 1.398 . S
C999 C1005 1.491 . S
C1000 H991 0.950 . S
C1000 C999 1.398 . S
C1000 C1001 1.391 . S
C1001 H989 0.950 . S
C1001 C997 1.393 . S
C1001 C1000 1.391 . S
C1002 H992 0.950 . S
C1002 C1003 1.386 . S
C1002 C1004 1.391 . S
C1003 C1002 1.386 . S
C1003 C1007 1.393 . S
C1004 H993 0.950 . S
C1004 C1002 1.391 . S
C1004 C1005 1.400 . S
C1005 C999 1.491 . S
C1005 C1004 1.400 . S
C1005 C1006 1.398 . S
C1006 H994 0.950 . S
C1006 C1005 1.398 . S
C1006 C1007 1.391 . S
C1007 H995 0.950 . S
C1007 C1003 1.393 . S
C1007 C1006 1.391 . S
H1008 C1016 0.950 . S
H1009 C1021 0.950 . S
H1010 C1018 0.950 . S
H1011 C1020 0.950 . S
H1012 C1022 0.950 . S
H1013 C1024 0.950 . S
H1014 C1026 0.950 . S
H1015 C1027 0.950 . S
C1016 H1008 0.950 . S
C1016 C1017 1.386 . S
C1016 C1018 1.391 . S
C1017 C1016 1.386 . S
C1017 C1021 1.393 . S
C1018 H1010 0.950 . S
C1018 C1016 1.391 . S
C1018 C1019 1.400 . S
C1019 C1018 1.400 . S
C1019 C1020 1.398 . S
C1019 C1025 1.491 . S
C1020 H1011 0.950 . S
C1020 C1019 1.398 . S
C1020 C1021 1.391 . S
C1021 H1009 0.950 . S
C1021 C1017 1.393 . S
C1021 C1020 1.391 . S
C1022 H1012 0.950 . S
C1022 C1023 1.386 . S
C1022 C1024 1.391 . S
C1023 C1022 1.386 . S
C1023 C1027 1.393 . S
C1024 H1013 0.950 . S
C1024 C1022 1.391 . S
C1024 C1025 1.400 . S
C1025 C1019 1.491 . S
C1025 C1024 1.400 . S
C1025 C1026 1.398 . S
C1026 H1014 0.950 . S
C1026 C1025 1.398 . S
C1026 C1027 1.391 . S
C1027 H1015 0.950 . S
C1027 C1023 1.393 . S
C1027 C1026 1.391 . S
H1028 C1036 0.950 . S
H1029 C1041 0.950 . S
H1030 C1038 0.950 . S
H1031 C1040 0.950 . S
H1032 C1042 0.950 . S
H1033 C1044 0.950 . S
H1034 C1046 0.950 . S
H1035 C1047 0.950 . S
C1036 H1028 0.950 . S
C1036 C1037 1.386 . S
C1036 C1038 1.391 . S
C1037 C1036 1.386 . S
C1037 C1041 1.393 . S
C1038 H1030 0.950 . S
C1038 C1036 1.391 . S
C1038 C1039 1.400 . S
C1039 C1038 1.400 . S
C1039 C1040 1.398 . S
C1039 C1045 1.491 . S
C1040 H1031 0.950 . S
C1040 C1039 1.398 . S
C1040 C1041 1.391 . S
C1041 H1029 0.950 . S
C1041 C1037 1.393 . S
C1041 C1040 1.391 . S
C1042 H1032 0.950 . S
C1042 C1043 1.386 . S
C1042 C1044 1.391 . S
C1043 C1042 1.386 . S
C1043 C1047 1.393 . S
C1044 H1033 0.950 . S
C1044 C1042 1.391 . S
C1044 C1045 1.400 . S
C1045 C1039 1.491 . S
C1045 C1044 1.400 . S
C1045 C1046 1.398 . S
C1046 H1034 0.950 . S
C1046 C1045 1.398 . S
C1046 C1047 1.391 . S
C1047 H1035 0.950 . S
C1047 C1043 1.393 . S
C1047 C1046 1.391 . S
H1048 C1056 0.950 . S
H1049 C1061 0.950 . S
H1050 C1058 0.950 . S
H1051 C1060 0.950 . S
H1052 C1062 0.950 . S
H1053 C1064 0.950 . S
H1054 C1066 0.950 . S
H1055 C1067 0.950 . S
C1056 H1048 0.950 . S
C1056 C1057 1.386 . S
C1056 C1058 1.391 . S
C1057 C1056 1.386 . S
C1057 C1061 1.393 . S
C1058 H1050 0.950 . S
C1058 C1056 1.391 . S
C1058 C1059 1.400 . S
C1059 C1058 1.400 . S
C1059 C1060 1.398 . S
C1059 C1065 1.491 . S
C1060 H1051 0.950 . S
C1060 C1059 1.398 . S
C1060 C1061 1.391 . S
C1061 H1049 0.950 . S
C1061 C1057 1.393 . S
C1061 C1060 1.391 . S
C1062 H1052 0.950 . S
C1062 C1063 1.386 . S
C1062 C1064 1.391 . S
C1063 C1062 1.386 . S
C1063 C1067 1.393 . S
C1064 H1053 0.950 . S
C1064 C1062 1.391 . S
C1064 C1065 1.400 . S
C1065 C1059 1.491 . S
C1065 C1064 1.400 . S
C1065 C1066 1.398 . S
C1066 H1054 0.950 . S
C1066 C1065 1.398 . S
C1066 C1067 1.391 . S
C1067 H1055 0.950 . S
C1067 C1063 1.393 . S
C1067 C1066 1.391 . S
H1068 C1076 0.950 . S
H1069 C1081 0.950 . S
H1070 C1078 0.950 . S
H1071 C1080 0.950 . S
H1072 C1082 0.950 . S
H1073 C1084 0.950 . S
H1074 C1086 0.950 . S
H1075 C1087 0.950 . S
C1076 H1068 0.950 . S
C1076 C1077 1.386 . S
C1076 C1078 1.391 . S
C1077 C1076 1.386 . S
C1077 C1081 1.393 . S
C1078 H1070 0.950 . S
C1078 C1076 1.391 . S
C1078 C1079 1.400 . S
C1079 C1078 1.400 . S
C1079 C1080 1.398 . S
C1079 C1085 1.491 . S
C1080 H1071 0.950 . S
C1080 C1079 1.398 . S
C1080 C1081 1.391 . S
C1081 H1069 0.950 . S
C1081 C1077 1.393 . S
C1081 C1080 1.391 . S
C1082 H1072 0.950 . S
C1082 C1083 1.386 . S
C1082 C1084 1.391 . S
C1083 C1082 1.386 . S
C1083 C1087 1.393 . S
C1084 H1073 0.950 . S
C1084 C1082 1.391 . S
C1084 C1085 1.400 . S
C1085 C1079 1.491 . S
C1085 C1084 1.400 . S
C1085 C1086 1.398 . S
C1086 H1074 0.950 . S
C1086 C1085 1.398 . S
C1086 C1087 1.391 . S
C1087 H1075 0.950 . S
C1087 C1083 1.393 . S
C1087 C1086 1.391 . S
H1088 C1096 0.950 1_545 S
H1089 C1101 0.950 . S
H1090 C1098 0.950 . S
H1091 C1100 0.950 . S
H1092 C1102 0.950 . S
H1093 C1104 0.950 . S
H1094 C1106 0.950 . S
H1095 C1107 0.950 . S
C1096 H1088 0.950 1_565 S
C1096 C1097 1.386 . S
C1096 C1098 1.391 . S
C1097 C1096 1.386 . S
C1097 C1101 1.393 . S
C1098 H1090 0.950 . S
C1098 C1096 1.391 . S
C1098 C1099 1.400 . S
C1099 C1098 1.400 . S
C1099 C1100 1.398 . S
C1099 C1105 1.491 . S
C1100 H1091 0.950 . S
C1100 C1099 1.398 . S
C1100 C1101 1.391 . S
C1101 H1089 0.950 . S
C1101 C1097 1.393 . S
C1101 C1100 1.391 . S
C1102 H1092 0.950 . S
C1102 C1103 1.386 . S
C1102 C1104 1.391 . S
C1103 C1102 1.386 . S
C1103 C1107 1.393 . S
C1104 H1093 0.950 . S
C1104 C1102 1.391 . S
C1104 C1105 1.400 . S
C1105 C1099 1.491 . S
C1105 C1104 1.400 . S
C1105 C1106 1.398 . S
C1106 H1094 0.950 . S
C1106 C1105 1.398 . S
C1106 C1107 1.391 . S
C1107 H1095 0.950 . S
C1107 C1103 1.393 . S
C1107 C1106 1.391 . S
H1108 C1116 0.950 . S
H1109 C1121 0.950 . S
H1110 C1118 0.950 . S
H1111 C1120 0.950 . S
H1112 C1122 0.950 . S
H1113 C1124 0.950 . S
H1114 C1126 0.950 . S
H1115 C1127 0.950 . S
C1116 H1108 0.950 . S
C1116 C1117 1.386 . S
C1116 C1118 1.391 . S
C1117 C1116 1.386 . S
C1117 C1121 1.393 . S
C1118 H1110 0.950 . S
C1118 C1116 1.391 . S
C1118 C1119 1.400 . S
C1119 C1118 1.400 . S
C1119 C1120 1.398 . S
C1119 C1125 1.491 . S
C1120 H1111 0.950 . S
C1120 C1119 1.398 . S
C1120 C1121 1.391 . S
C1121 H1109 0.950 . S
C1121 C1117 1.393 . S
C1121 C1120 1.391 . S
C1122 H1112 0.950 . S
C1122 C1123 1.386 . S
C1122 C1124 1.391 . S
C1123 C1122 1.386 . S
C1123 C1127 1.393 . S
C1124 H1113 0.950 . S
C1124 C1122 1.391 . S
C1124 C1125 1.400 . S
C1125 C1119 1.491 . S
C1125 C1124 1.400 . S
C1125 C1126 1.398 . S
C1126 H1114 0.950 . S
C1126 C1125 1.398 . S
C1126 C1127 1.391 . S
C1127 H1115 0.950 . S
C1127 C1123 1.393 . S
C1127 C1126 1.391 . S
H1128 C1136 0.950 . S
H1129 C1141 0.950 . S
H1130 C1138 0.950 . S
H1131 C1140 0.950 . S
H1132 C1142 0.950 . S
H1133 C1144 0.950 . S
H1134 C1146 0.950 . S
H1135 C1147 0.950 . S
C1136 H1128 0.950 . S
C1136 C1137 1.386 . S
C1136 C1138 1.391 . S
C1137 C1136 1.386 . S
C1137 C1141 1.393 . S
C1138 H1130 0.950 . S
C1138 C1136 1.391 . S
C1138 C1139 1.400 . S
C1139 C1138 1.400 . S
C1139 C1140 1.398 . S
C1139 C1145 1.491 . S
C1140 H1131 0.950 . S
C1140 C1139 1.398 . S
C1140 C1141 1.391 . S
C1141 H1129 0.950 . S
C1141 C1137 1.393 . S
C1141 C1140 1.391 . S
C1142 H1132 0.950 . S
C1142 C1143 1.386 . S
C1142 C1144 1.391 . S
C1143 C1142 1.386 . S
C1143 C1147 1.393 . S
C1144 H1133 0.950 . S
C1144 C1142 1.391 . S
C1144 C1145 1.400 . S
C1145 C1139 1.491 . S
C1145 C1144 1.400 . S
C1145 C1146 1.398 . S
C1146 H1134 0.950 . S
C1146 C1145 1.398 . S
C1146 C1147 1.391 . S
C1147 H1135 0.950 . S
C1147 C1143 1.393 . S
C1147 C1146 1.391 . S
H1148 C1156 0.950 . S
H1149 C1161 0.950 . S
H1150 C1158 0.950 . S
H1151 C1160 0.950 . S
H1152 C1162 0.950 . S
H1153 C1164 0.950 . S
H1154 C1166 0.950 . S
H1155 C1167 0.950 . S
C1156 H1148 0.950 . S
C1156 C1157 1.386 . S
C1156 C1158 1.391 . S
C1157 C1156 1.386 . S
C1157 C1161 1.393 . S
C1158 H1150 0.950 . S
C1158 C1156 1.391 . S
C1158 C1159 1.400 . S
C1159 C1158 1.400 . S
C1159 C1160 1.398 . S
C1159 C1165 1.491 . S
C1160 H1151 0.950 . S
C1160 C1159 1.398 . S
C1160 C1161 1.391 . S
C1161 H1149 0.950 . S
C1161 C1157 1.393 . S
C1161 C1160 1.391 . S
C1162 H1152 0.950 . S
C1162 C1163 1.386 . S
C1162 C1164 1.391 . S
C1163 C1162 1.386 . S
C1163 C1167 1.393 . S
C1164 H1153 0.950 . S
C1164 C1162 1.391 . S
C1164 C1165 1.400 . S
C1165 C1159 1.491 . S
C1165 C1164 1.400 . S
C1165 C1166 1.398 . S
C1166 H1154 0.950 . S
C1166 C1165 1.398 . S
C1166 C1167 1.391 . S
C1167 H1155 0.950 . S
C1167 C1163 1.393 . S
C1167 C1166 1.391 . S
H1168 C1176 0.950 . S
H1169 C1181 0.950 . S
H1170 C1178 0.950 . S
H1171 C1180 0.950 . S
H1172 C1182 0.950 . S
H1173 C1184 0.950 . S
H1174 C1186 0.950 . S
H1175 C1187 0.950 . S
C1176 H1168 0.950 . S
C1176 C1177 1.386 . S
C1176 C1178 1.391 . S
C1177 C1176 1.386 . S
C1177 C1181 1.393 . S
C1178 H1170 0.950 . S
C1178 C1176 1.391 . S
C1178 C1179 1.400 . S
C1179 C1178 1.400 . S
C1179 C1180 1.398 . S
C1179 C1185 1.491 . S
C1180 H1171 0.950 . S
C1180 C1179 1.398 . S
C1180 C1181 1.391 . S
C1181 H1169 0.950 . S
C1181 C1177 1.393 . S
C1181 C1180 1.391 . S
C1182 H1172 0.950 . S
C1182 C1183 1.386 . S
C1182 C1184 1.391 . S
C1183 C1182 1.386 . S
C1183 C1187 1.393 . S
C1184 H1173 0.950 . S
C1184 C1182 1.391 . S
C1184 C1185 1.400 . S
C1185 C1179 1.491 . S
C1185 C1184 1.400 . S
C1185 C1186 1.398 . S
C1186 H1174 0.950 . S
C1186 C1185 1.398 . S
C1186 C1187 1.391 . S
C1187 H1175 0.950 . S
C1187 C1183 1.393 . S
C1187 C1186 1.391 . S
H1188 C1196 0.950 . S
H1189 C1201 0.950 . S
H1190 C1198 0.950 . S
H1191 C1200 0.950 . S
H1192 C1202 0.950 . S
H1193 C1204 0.950 . S
H1194 C1206 0.950 . S
H1195 C1207 0.950 . S
C1196 H1188 0.950 . S
C1196 C1197 1.386 1_565 S
C1196 C1198 1.391 . S
C1197 C1196 1.386 1_545 S
C1197 C1201 1.393 1_554 S
C1198 H1190 0.950 . S
C1198 C1196 1.391 . S
C1198 C1199 1.400 1_554 S
C1199 C1198 1.400 1_556 S
C1199 C1200 1.398 . S
C1199 C1205 1.491 . S
C1200 H1191 0.950 . S
C1200 C1199 1.398 . S
C1200 C1201 1.391 1_565 S
C1201 H1189 0.950 . S
C1201 C1197 1.393 1_556 S
C1201 C1200 1.391 1_545 S
C1202 H1192 0.950 . S
C1202 C1203 1.386 . S
C1202 C1204 1.391 . S
C1203 C1202 1.386 . S
C1203 C1207 1.393 . S
C1204 H1193 0.950 . S
C1204 C1202 1.391 . S
C1204 C1205 1.400 . S
C1205 C1199 1.491 . S
C1205 C1204 1.400 . S
C1205 C1206 1.398 . S
C1206 H1194 0.950 . S
C1206 C1205 1.398 . S
C1206 C1207 1.391 . S
C1207 H1195 0.950 . S
C1207 C1203 1.393 . S
C1207 C1206 1.391 . S
H1208 C1216 0.950 1_554 S
H1209 C1221 0.950 . S
H1210 C1218 0.950 . S
H1211 C1220 0.950 . S
H1212 C1222 0.950 . S
H1213 C1224 0.950 . S
H1214 C1226 0.950 . S
H1215 C1227 0.950 . S
C1216 H1208 0.950 1_556 S
C1216 C1217 1.386 . S
C1216 C1218 1.391 . S
C1217 C1216 1.386 . S
C1217 C1221 1.393 . S
C1218 H1210 0.950 . S
C1218 C1216 1.391 . S
C1218 C1219 1.400 . S
C1219 C1218 1.400 . S
C1219 C1220 1.398 . S
C1219 C1225 1.491 . S
C1220 H1211 0.950 . S
C1220 C1219 1.398 . S
C1220 C1221 1.391 . S
C1221 H1209 0.950 . S
C1221 C1217 1.393 . S
C1221 C1220 1.391 . S
C1222 H1212 0.950 . S
C1222 C1223 1.386 . S
C1222 C1224 1.391 . S
C1223 C1222 1.386 . S
C1223 C1227 1.393 . S
C1224 H1213 0.950 . S
C1224 C1222 1.391 . S
C1224 C1225 1.400 . S
C1225 C1219 1.491 . S
C1225 C1224 1.400 . S
C1225 C1226 1.398 . S
C1226 H1214 0.950 . S
C1226 C1225 1.398 . S
C1226 C1227 1.391 . S
C1227 H1215 0.950 . S
C1227 C1223 1.393 . S
C1227 C1226 1.391 . S
H1228 C1236 0.950 . S
H1229 C1241 0.950 . S
H1230 C1238 0.950 . S
H1231 C1240 0.950 . S
H1232 C1242 0.950 . S
H1233 C1244 0.950 . S
H1234 C1246 0.950 . S
H1235 C1247 0.950 . S
C1236 H1228 0.950 . S
C1236 C1237 1.386 . S
C1236 C1238 1.391 . S
C1237 C1236 1.386 . S
C1237 C1241 1.393 . S
C1238 H1230 0.950 . S
C1238 C1236 1.391 . S
C1238 C1239 1.400 . S
C1239 C1238 1.400 . S
C1239 C1240 1.398 . S
C1239 C1245 1.491 . S
C1240 H1231 0.950 . S
C1240 C1239 1.398 . S
C1240 C1241 1.391 . S
C1241 H1229 0.950 . S
C1241 C1237 1.393 . S
C1241 C1240 1.391 . S
C1242 H1232 0.950 . S
C1242 C1243 1.386 . S
C1242 C1244 1.391 . S
C1243 C1242 1.386 . S
C1243 C1247 1.393 . S
C1244 H1233 0.950 . S
C1244 C1242 1.391 . S
C1244 C1245 1.400 . S
C1245 C1239 1.491 . S
C1245 C1244 1.400 . S
C1245 C1246 1.398 . S
C1246 H1234 0.950 . S
C1246 C1245 1.398 . S
C1246 C1247 1.391 . S
C1247 H1235 0.950 . S
C1247 C1243 1.393 . S
C1247 C1246 1.391 . S
H1248 C1256 0.950 . S
H1249 C1261 0.950 . S
H1250 C1258 0.950 . S
H1251 C1260 0.950 . S
H1252 C1262 0.950 . S
H1253 C1264 0.950 . S
H1254 C1266 0.950 . S
H1255 C1267 0.950 . S
C1256 H1248 0.950 . S
C1256 C1257 1.386 . S
C1256 C1258 1.391 . S
C1257 C1256 1.386 . S
C1257 C1261 1.393 . S
C1258 H1250 0.950 . S
C1258 C1256 1.391 . S
C1258 C1259 1.400 . S
C1259 C1258 1.400 . S
C1259 C1260 1.398 . S
C1259 C1265 1.491 . S
C1260 H1251 0.950 . S
C1260 C1259 1.398 . S
C1260 C1261 1.391 . S
C1261 H1249 0.950 . S
C1261 C1257 1.393 . S
C1261 C1260 1.391 . S
C1262 H1252 0.950 . S
C1262 C1263 1.386 . S
C1262 C1264 1.391 . S
C1263 C1262 1.386 . S
C1263 C1267 1.393 . S
C1264 H1253 0.950 . S
C1264 C1262 1.391 . S
C1264 C1265 1.400 . S
C1265 C1259 1.491 . S
C1265 C1264 1.400 . S
C1265 C1266 1.398 . S
C1266 H1254 0.950 . S
C1266 C1265 1.398 . S
C1266 C1267 1.391 . S
C1267 H1255 0.950 . S
C1267 C1263 1.393 . S
C1267 C1266 1.391 . S
H1268 C1276 0.950 . S
H1269 C1281 0.950 . S
H1270 C1278 0.950 . S
H1271 C1280 0.950 . S
H1272 C1282 0.950 . S
H1273 C1284 0.950 . S
H1274 C1286 0.950 . S
H1275 C1287 0.950 . S
C1276 H1268 0.950 . S
C1276 C1277 1.386 . S
C1276 C1278 1.391 . S
C1277 C1276 1.386 . S
C1277 C1281 1.393 . S
C1278 H1270 0.950 . S
C1278 C1276 1.391 . S
C1278 C1279 1.400 . S
C1279 C1278 1.400 . S
C1279 C1280 1.398 . S
C1279 C1285 1.491 . S
C1280 H1271 0.950 . S
C1280 C1279 1.398 . S
C1280 C1281 1.391 . S
C1281 H1269 0.950 . S
C1281 C1277 1.393 . S
C1281 C1280 1.391 . S
C1282 H1272 0.950 . S
C1282 C1283 1.386 . S
C1282 C1284 1.391 . S
C1283 C1282 1.386 . S
C1283 C1287 1.393 . S
C1284 H1273 0.950 . S
C1284 C1282 1.391 . S
C1284 C1285 1.400 . S
C1285 C1279 1.491 . S
C1285 C1284 1.400 . S
C1285 C1286 1.398 . S
C1286 H1274 0.950 . S
C1286 C1285 1.398 . S
C1286 C1287 1.391 . S
C1287 H1275 0.950 . S
C1287 C1283 1.393 . S
C1287 C1286 1.391 . S
H1288 C1296 0.950 . S
H1289 C1301 0.950 . S
H1290 C1298 0.950 . S
H1291 C1300 0.950 . S
H1292 C1302 0.950 . S
H1293 C1304 0.950 . S
H1294 C1306 0.950 . S
H1295 C1307 0.950 . S
C1296 H1288 0.950 . S
C1296 C1297 1.386 . S
C1296 C1298 1.391 . S
C1297 C1296 1.386 . S
C1297 C1301 1.393 . S
C1298 H1290 0.950 . S
C1298 C1296 1.391 . S
C1298 C1299 1.400 . S
C1299 C1298 1.400 . S
C1299 C1300 1.398 . S
C1299 C1305 1.491 . S
C1300 H1291 0.950 . S
C1300 C1299 1.398 . S
C1300 C1301 1.391 . S
C1301 H1289 0.950 . S
C1301 C1297 1.393 . S
C1301 C1300 1.391 . S
C1302 H1292 0.950 . S
C1302 C1303 1.386 . S
C1302 C1304 1.391 . S
C1303 C1302 1.386 . S
C1303 C1307 1.393 . S
C1304 H1293 0.950 . S
C1304 C1302 1.391 . S
C1304 C1305 1.400 . S
C1305 C1299 1.491 . S
C1305 C1304 1.400 . S
C1305 C1306 1.398 . S
C1306 H1294 0.950 . S
C1306 C1305 1.398 . S
C1306 C1307 1.391 . S
C1307 H1295 0.950 . S
C1307 C1303 1.393 . S
C1307 C1306 1.391 . S
H1308 C1316 0.950 . S
H1309 C1321 0.950 . S
H1310 C1318 0.950 . S
H1311 C1320 0.950 . S
H1312 C1322 0.950 . S
H1313 C1324 0.950 . S
H1314 C1326 0.950 . S
H1315 C1327 0.950 . S
C1316 H1308 0.950 . S
C1316 C1317 1.386 . S
C1316 C1318 1.391 1_554 S
C1317 C1316 1.386 . S
C1317 C1321 1.393 . S
C1318 H1310 0.950 . S
C1318 C1316 1.391 1_556 S
C1318 C1319 1.400 . S
C1319 C1318 1.400 . S
C1319 C1320 1.398 . S
C1319 C1325 1.491 . S
C1320 H1311 0.950 . S
C1320 C1319 1.398 . S
C1320 C1321 1.391 1_556 S
C1321 H1309 0.950 . S
C1321 C1317 1.393 . S
C1321 C1320 1.391 1_554 S
C1322 H1312 0.950 . S
C1322 C1323 1.386 . S
C1322 C1324 1.391 . S
C1323 C1322 1.386 . S
C1323 C1327 1.393 . S
C1324 H1313 0.950 . S
C1324 C1322 1.391 . S
C1324 C1325 1.400 . S
C1325 C1319 1.491 . S
C1325 C1324 1.400 . S
C1325 C1326 1.398 . S
C1326 H1314 0.950 . S
C1326 C1325 1.398 . S
C1326 C1327 1.391 . S
C1327 H1315 0.950 . S
C1327 C1323 1.393 . S
C1327 C1326 1.391 . S
H1328 C1336 0.950 . S
H1329 C1341 0.928 1_455 S
H1330 C1338 0.950 . S
H1331 C1340 0.950 . S
H1332 C1342 0.950 . S
H1333 C1344 0.950 . S
H1334 C1346 0.950 . S
H1335 C1347 0.950 . S
C1336 H1328 0.950 . S
C1336 C1337 1.386 . S
C1336 C1338 1.391 1_554 S
C1337 C1336 1.386 . S
C1337 C1341 1.385 . S
C1338 H1330 0.950 . S
C1338 C1336 1.391 1_556 S
C1338 C1339 1.400 . S
C1339 C1338 1.400 . S
C1339 C1340 1.398 . S
C1339 C1345 1.491 . S
C1340 H1331 0.950 . S
C1340 C1339 1.398 . S
C1340 C1341 1.421 1_556 S
C1341 H1329 0.928 1_655 S
C1341 C1337 1.385 . S
C1341 C1340 1.421 1_554 S
C1342 H1332 0.950 . S
C1342 C1343 1.386 . S
C1342 C1344 1.391 . S
C1343 C1342 1.386 . S
C1343 C1347 1.393 . S
C1344 H1333 0.950 . S
C1344 C1342 1.391 . S
C1344 C1345 1.400 . S
C1345 C1339 1.491 . S
C1345 C1344 1.400 . S
C1345 C1346 1.398 . S
C1346 H1334 0.950 . S
C1346 C1345 1.398 . S
C1346 C1347 1.391 . S
C1347 H1335 0.950 . S
C1347 C1343 1.393 . S
C1347 C1346 1.391 . S
H1348 C1356 0.950 . S
H1349 C1361 0.950 . S
H1350 C1358 0.950 . S
H1351 C1360 0.950 . S
H1352 C1362 0.950 . S
H1353 C1364 0.950 . S
H1354 C1366 0.950 . S
H1355 C1367 0.950 . S
C1356 H1348 0.950 . S
C1356 C1357 1.386 . S
C1356 C1358 1.391 . S
C1357 C1356 1.386 . S
C1357 C1361 1.393 . S
C1358 H1350 0.950 . S
C1358 C1356 1.391 . S
C1358 C1359 1.400 . S
C1359 C1358 1.400 . S
C1359 C1360 1.398 . S
C1359 C1365 1.491 . S
C1360 H1351 0.950 . S
C1360 C1359 1.398 . S
C1360 C1361 1.391 . S
C1361 H1349 0.950 . S
C1361 C1357 1.393 . S
C1361 C1360 1.391 . S
C1362 H1352 0.950 . S
C1362 C1363 1.386 . S
C1362 C1364 1.391 . S
C1363 C1362 1.386 . S
C1363 C1367 1.393 . S
C1364 H1353 0.950 . S
C1364 C1362 1.391 . S
C1364 C1365 1.400 . S
C1365 C1359 1.491 . S
C1365 C1364 1.400 . S
C1365 C1366 1.398 . S
C1366 H1354 0.950 . S
C1366 C1365 1.398 . S
C1366 C1367 1.391 . S
C1367 H1355 0.950 . S
C1367 C1363 1.393 . S
C1367 C1366 1.391 . S
H1368 C1376 0.950 . S
H1369 C1381 0.950 . S
H1370 C1378 0.950 . S
H1371 C1380 0.950 . S
H1372 C1382 0.950 . S
H1373 C1384 0.950 . S
H1374 C1386 0.950 . S
H1375 C1387 0.950 . S
C1376 H1368 0.950 . S
C1376 C1377 1.386 . S
C1376 C1378 1.391 . S
C1377 C1376 1.386 . S
C1377 C1381 1.393 . S
C1378 H1370 0.950 . S
C1378 C1376 1.391 . S
C1378 C1379 1.400 . S
C1379 C1378 1.400 . S
C1379 C1380 1.398 . S
C1379 C1385 1.491 . S
C1380 H1371 0.950 . S
C1380 C1379 1.398 . S
C1380 C1381 1.391 . S
C1381 H1369 0.950 . S
C1381 C1377 1.393 . S
C1381 C1380 1.391 . S
C1382 H1372 0.950 . S
C1382 C1383 1.386 . S
C1382 C1384 1.391 . S
C1383 C1382 1.386 . S
C1383 C1387 1.393 . S
C1384 H1373 0.950 . S
C1384 C1382 1.391 . S
C1384 C1385 1.400 . S
C1385 C1379 1.491 . S
C1385 C1384 1.400 . S
C1385 C1386 1.398 . S
C1386 H1374 0.950 . S
C1386 C1385 1.398 . S
C1386 C1387 1.391 . S
C1387 H1375 0.950 . S
C1387 C1383 1.393 . S
C1387 C1386 1.391 . S
H1388 C1396 0.950 1_545 S
H1389 C1401 0.950 . S
H1390 C1398 0.950 . S
H1391 C1400 0.950 . S
H1392 C1402 0.950 . S
H1393 C1404 0.950 . S
H1394 C1406 0.950 . S
H1395 C1407 0.950 . S
C1396 H1388 0.950 1_565 S
C1396 C1397 1.384 1_565 S
C1396 C1398 1.391 . S
C1397 C1396 1.384 1_545 S
C1397 C1401 1.381 1_545 S
C1398 H1390 0.950 . S
C1398 C1396 1.391 . S
C1398 C1399 1.400 . S
C1399 C1398 1.400 . S
C1399 C1400 1.398 . S
C1399 C1405 1.491 . S
C1400 H1391 0.950 . S
C1400 C1399 1.398 . S
C1400 C1401 1.391 . S
C1401 H1389 0.950 . S
C1401 C1397 1.381 1_565 S
C1401 C1400 1.391 . S
C1402 H1392 0.950 . S
C1402 C1403 1.386 . S
C1402 C1404 1.391 . S
C1403 C1402 1.386 . S
C1403 C1407 1.393 . S
C1404 H1393 0.950 . S
C1404 C1402 1.391 . S
C1404 C1405 1.400 . S
C1405 C1399 1.491 . S
C1405 C1404 1.400 . S
C1405 C1406 1.398 . S
C1406 H1394 0.950 . S
C1406 C1405 1.398 . S
C1406 C1407 1.391 . S
C1407 H1395 0.950 . S
C1407 C1403 1.393 . S
C1407 C1406 1.391 . S
H1408 C1416 0.950 . S
H1409 C1421 0.950 . S
H1410 C1418 0.950 . S
H1411 C1420 0.950 . S
H1412 C1422 0.950 . S
H1413 C1424 0.950 . S
H1414 C1426 0.950 . S
H1415 C1427 0.950 . S
C1416 H1408 0.950 . S
C1416 C1417 1.386 . S
C1416 C1418 1.391 . S
C1417 C1416 1.386 . S
C1417 C1421 1.393 . S
C1418 H1410 0.950 . S
C1418 C1416 1.391 . S
C1418 C1419 1.400 . S
C1419 C1418 1.400 . S
C1419 C1420 1.398 . S
C1419 C1425 1.491 . S
C1420 H1411 0.950 . S
C1420 C1419 1.398 . S
C1420 C1421 1.391 . S
C1421 H1409 0.950 . S
C1421 C1417 1.393 . S
C1421 C1420 1.391 . S
C1422 H1412 0.950 . S
C1422 C1423 1.386 . S
C1422 C1424 1.391 . S
C1423 C1422 1.386 . S
C1423 C1427 1.393 . S
C1424 H1413 0.950 . S
C1424 C1422 1.391 . S
C1424 C1425 1.400 . S
C1425 C1419 1.491 . S
C1425 C1424 1.400 . S
C1425 C1426 1.398 . S
C1426 H1414 0.950 . S
C1426 C1425 1.398 . S
C1426 C1427 1.391 . S
C1427 H1415 0.950 . S
C1427 C1423 1.393 . S
C1427 C1426 1.391 . S
H1428 C1436 0.950 . S
H1429 C1441 0.950 . S
H1430 C1438 0.950 . S
H1431 C1440 0.950 . S
H1432 C1442 0.950 . S
H1433 C1444 0.950 . S
H1434 C1446 0.950 . S
H1435 C1447 0.950 . S
C1436 H1428 0.950 . S
C1436 C1437 1.386 . S
C1436 C1438 1.391 . S
C1437 C1436 1.386 . S
C1437 C1441 1.393 . S
C1438 H1430 0.950 . S
C1438 C1436 1.391 . S
C1438 C1439 1.400 . S
C1439 C1438 1.400 . S
C1439 C1440 1.398 . S
C1439 C1445 1.491 . S
C1440 H1431 0.950 . S
C1440 C1439 1.398 . S
C1440 C1441 1.391 . S
C1441 H1429 0.950 . S
C1441 C1437 1.393 . S
C1441 C1440 1.391 . S
C1442 H1432 0.950 . S
C1442 C1443 1.386 . S
C1442 C1444 1.391 . S
C1443 C1442 1.386 . S
C1443 C1447 1.393 . S
C1444 H1433 0.950 . S
C1444 C1442 1.391 . S
C1444 C1445 1.400 . S
C1445 C1439 1.491 . S
C1445 C1444 1.400 . S
C1445 C1446 1.398 . S
C1446 H1434 0.950 . S
C1446 C1445 1.398 . S
C1446 C1447 1.391 . S
C1447 H1435 0.950 . S
C1447 C1443 1.393 . S
C1447 C1446 1.391 . S
H1448 C1456 0.950 . S
H1449 C1461 0.950 . S
H1450 C1458 0.950 . S
H1451 C1460 0.950 . S
H1452 C1462 0.950 . S
H1453 C1464 0.950 . S
H1454 C1466 0.950 . S
H1455 C1467 0.950 . S
C1456 H1448 0.950 . S
C1456 C1457 1.386 . S
C1456 C1458 1.391 . S
C1457 C1456 1.386 . S
C1457 C1461 1.393 . S
C1458 H1450 0.950 . S
C1458 C1456 1.391 . S
C1458 C1459 1.400 . S
C1459 C1458 1.400 . S
C1459 C1460 1.398 . S
C1459 C1465 1.491 . S
C1460 H1451 0.950 . S
C1460 C1459 1.398 . S
C1460 C1461 1.391 . S
C1461 H1449 0.950 . S
C1461 C1457 1.393 . S
C1461 C1460 1.391 . S
C1462 H1452 0.950 . S
C1462 C1463 1.386 . S
C1462 C1464 1.391 . S
C1463 C1462 1.386 . S
C1463 C1467 1.393 . S
C1464 H1453 0.950 . S
C1464 C1462 1.391 . S
C1464 C1465 1.400 . S
C1465 C1459 1.491 . S
C1465 C1464 1.400 . S
C1465 C1466 1.398 . S
C1466 H1454 0.950 . S
C1466 C1465 1.398 . S
C1466 C1467 1.391 . S
C1467 H1455 0.950 . S
C1467 C1463 1.393 . S
C1467 C1466 1.391 . S
H1468 C1476 0.950 . S
H1469 C1481 0.950 . S
H1470 C1478 0.950 . S
H1471 C1480 0.950 . S
H1472 C1482 0.950 . S
H1473 C1484 0.950 . S
H1474 C1486 0.950 . S
H1475 C1487 0.950 . S
C1476 H1468 0.950 . S
C1476 C1477 1.386 . S
C1476 C1478 1.391 . S
C1477 C1476 1.386 . S
C1477 C1481 1.393 . S
C1478 H1470 0.950 . S
C1478 C1476 1.391 . S
C1478 C1479 1.400 . S
C1479 C1478 1.400 . S
C1479 C1480 1.398 . S
C1479 C1485 1.491 . S
C1480 H1471 0.950 . S
C1480 C1479 1.398 . S
C1480 C1481 1.391 . S
C1481 H1469 0.950 . S
C1481 C1477 1.393 . S
C1481 C1480 1.391 . S
C1482 H1472 0.950 . S
C1482 C1483 1.386 . S
C1482 C1484 1.391 . S
C1483 C1482 1.386 . S
C1483 C1487 1.393 . S
C1484 H1473 0.950 . S
C1484 C1482 1.391 . S
C1484 C1485 1.400 . S
C1485 C1479 1.491 . S
C1485 C1484 1.400 . S
C1485 C1486 1.398 . S
C1486 H1474 0.950 . S
C1486 C1485 1.398 . S
C1486 C1487 1.391 . S
C1487 H1475 0.950 . S
C1487 C1483 1.393 . S
C1487 C1486 1.391 . S
H1488 C1496 0.950 . S
H1489 C1501 0.950 . S
H1490 C1498 0.950 . S
H1491 C1500 0.950 . S
H1492 C1502 0.950 . S
H1493 C1504 0.950 . S
H1494 C1506 0.950 . S
H1495 C1507 0.950 . S
C1496 H1488 0.950 . S
C1496 C1497 1.386 . S
C1496 C1498 1.391 . S
C1497 C1496 1.386 . S
C1497 C1501 1.393 . S
C1498 H1490 0.950 . S
C1498 C1496 1.391 . S
C1498 C1499 1.400 . S
C1499 C1498 1.400 . S
C1499 C1500 1.398 . S
C1499 C1505 1.491 . S
C1500 H1491 0.950 . S
C1500 C1499 1.398 . S
C1500 C1501 1.391 . S
C1501 H1489 0.950 . S
C1501 C1497 1.393 . S
C1501 C1500 1.391 . S
C1502 H1492 0.950 . S
C1502 C1503 1.386 . S
C1502 C1504 1.391 . S
C1503 C1502 1.386 . S
C1503 C1507 1.393 . S
C1504 H1493 0.950 . S
C1504 C1502 1.391 . S
C1504 C1505 1.400 . S
C1505 C1499 1.491 . S
C1505 C1504 1.400 . S
C1505 C1506 1.398 . S
C1506 H1494 0.950 . S
C1506 C1505 1.398 . S
C1506 C1507 1.391 . S
C1507 H1495 0.950 . S
C1507 C1503 1.393 . S
C1507 C1506 1.391 . S
H1508 C1516 0.950 . S
H1509 C1521 0.950 . S
H1510 C1518 0.950 . S
H1511 C1520 0.950 . S
H1512 C1522 0.950 . S
H1513 C1524 0.950 . S
H1514 C1526 0.950 . S
H1515 C1527 0.950 . S
C1516 H1508 0.950 . S
C1516 C1517 1.386 . S
C1516 C1518 1.391 . S
C1517 C1516 1.386 . S
C1517 C1521 1.393 . S
C1518 H1510 0.950 . S
C1518 C1516 1.391 . S
C1518 C1519 1.400 . S
C1519 C1518 1.400 . S
C1519 C1520 1.398 . S
C1519 C1525 1.491 . S
C1520 H1511 0.950 . S
C1520 C1519 1.398 . S
C1520 C1521 1.391 . S
C1521 H1509 0.950 . S
C1521 C1517 1.393 . S
C1521 C1520 1.391 . S
C1522 H1512 0.950 . S
C1522 C1523 1.386 . S
C1522 C1524 1.391 . S
C1523 C1522 1.386 . S
C1523 C1527 1.393 . S
C1524 H1513 0.950 . S
C1524 C1522 1.391 . S
C1524 C1525 1.400 . S
C1525 C1519 1.491 . S
C1525 C1524 1.400 . S
C1525 C1526 1.398 . S
C1526 H1514 0.950 . S
C1526 C1525 1.398 . S
C1526 C1527 1.391 . S
C1527 H1515 0.950 . S
C1527 C1523 1.393 . S
C1527 C1526 1.391 . S
H1528 C1536 0.950 . S
H1529 C1541 0.950 . S
H1530 C1538 0.950 . S
H1531 C1540 0.950 . S
H1532 C1542 0.950 . S
H1533 C1544 0.950 . S
H1534 C1546 0.950 . S
H1535 C1547 0.950 . S
C1536 H1528 0.950 . S
C1536 C1537 1.386 . S
C1536 C1538 1.391 . S
C1537 C1536 1.386 . S
C1537 C1541 1.393 . S
C1538 H1530 0.950 . S
C1538 C1536 1.391 . S
C1538 C1539 1.400 . S
C1539 C1538 1.400 . S
C1539 C1540 1.398 . S
C1539 C1545 1.491 . S
C1540 H1531 0.950 . S
C1540 C1539 1.398 . S
C1540 C1541 1.391 . S
C1541 H1529 0.950 . S
C1541 C1537 1.393 . S
C1541 C1540 1.391 . S
C1542 H1532 0.950 . S
C1542 C1543 1.386 . S
C1542 C1544 1.391 . S
C1543 C1542 1.386 . S
C1543 C1547 1.393 . S
C1544 H1533 0.950 . S
C1544 C1542 1.391 . S
C1544 C1545 1.400 . S
C1545 C1539 1.491 . S
C1545 C1544 1.400 . S
C1545 C1546 1.398 . S
C1546 H1534 0.950 . S
C1546 C1545 1.398 . S
C1546 C1547 1.391 . S
C1547 H1535 0.950 . S
C1547 C1543 1.393 . S
C1547 C1546 1.391 . S
H1548 C1556 0.950 . S
H1549 C1561 0.950 . S
H1550 C1558 0.950 . S
H1551 C1560 0.950 . S
H1552 C1562 0.950 . S
H1553 C1564 0.950 . S
H1554 C1566 0.950 . S
H1555 C1567 0.950 . S
C1556 H1548 0.950 . S
C1556 C1557 1.386 . S
C1556 C1558 1.391 . S
C1557 C1556 1.386 . S
C1557 C1561 1.393 . S
C1558 H1550 0.950 . S
C1558 C1556 1.391 . S
C1558 C1559 1.400 . S
C1559 C1558 1.400 . S
C1559 C1560 1.398 . S
C1559 C1565 1.491 . S
C1560 H1551 0.950 . S
C1560 C1559 1.398 . S
C1560 C1561 1.391 . S
C1561 H1549 0.950 . S
C1561 C1557 1.393 . S
C1561 C1560 1.391 . S
C1562 H1552 0.950 . S
C1562 C1563 1.386 . S
C1562 C1564 1.391 . S
C1563 C1562 1.386 . S
C1563 C1567 1.393 . S
C1564 H1553 0.950 . S
C1564 C1562 1.391 . S
C1564 C1565 1.400 . S
C1565 C1559 1.491 . S
C1565 C1564 1.400 . S
C1565 C1566 1.398 . S
C1566 H1554 0.950 . S
C1566 C1565 1.398 . S
C1566 C1567 1.391 . S
C1567 H1555 0.950 . S
C1567 C1563 1.393 . S
C1567 C1566 1.391 . S
H1568 C1576 0.950 . S
H1569 C1581 0.950 . S
H1570 C1578 0.950 . S
H1571 C1580 0.950 . S
H1572 C1582 0.950 . S
H1573 C1584 0.950 . S
H1574 C1586 0.950 . S
H1575 C1587 0.950 . S
C1576 H1568 0.950 . S
C1576 C1577 1.386 . S
C1576 C1578 1.391 . S
C1577 C1576 1.386 . S
C1577 C1581 1.393 . S
C1578 H1570 0.950 . S
C1578 C1576 1.391 . S
C1578 C1579 1.400 . S
C1579 C1578 1.400 . S
C1579 C1580 1.398 . S
C1579 C1585 1.491 . S
C1580 H1571 0.950 . S
C1580 C1579 1.398 . S
C1580 C1581 1.391 . S
C1581 H1569 0.950 . S
C1581 C1577 1.393 . S
C1581 C1580 1.391 . S
C1582 H1572 0.950 . S
C1582 C1583 1.386 . S
C1582 C1584 1.391 . S
C1583 C1582 1.386 . S
C1583 C1587 1.393 . S
C1584 H1573 0.950 . S
C1584 C1582 1.391 . S
C1584 C1585 1.400 . S
C1585 C1579 1.491 . S
C1585 C1584 1.400 . S
C1585 C1586 1.398 . S
C1586 H1574 0.950 . S
C1586 C1585 1.398 . S
C1586 C1587 1.391 . S
C1587 H1575 0.950 . S
C1587 C1583 1.393 . S
C1587 C1586 1.391 . S
H1588 C1596 0.950 . S
H1589 C1601 0.950 . S
H1590 C1598 0.950 . S
H1591 C1600 0.950 . S
H1592 C1602 0.950 . S
H1593 C1604 0.950 . S
H1594 C1606 0.950 . S
H1595 C1607 0.950 . S
C1596 H1588 0.950 . S
C1596 C1597 1.386 . S
C1596 C1598 1.391 . S
C1597 C1596 1.386 . S
C1597 C1601 1.393 . S
C1598 H1590 0.950 . S
C1598 C1596 1.391 . S
C1598 C1599 1.400 . S
C1599 C1598 1.400 . S
C1599 C1600 1.398 . S
C1599 C1605 1.491 . S
C1600 H1591 0.950 . S
C1600 C1599 1.398 . S
C1600 C1601 1.391 . S
C1601 H1589 0.950 . S
C1601 C1597 1.393 . S
C1601 C1600 1.391 . S
C1602 H1592 0.950 . S
C1602 C1603 1.386 . S
C1602 C1604 1.391 . S
C1603 C1602 1.386 . S
C1603 C1607 1.393 . S
C1604 H1593 0.950 . S
C1604 C1602 1.391 . S
C1604 C1605 1.400 . S
C1605 C1599 1.491 . S
C1605 C1604 1.400 . S
C1605 C1606 1.398 . S
C1606 H1594 0.950 . S
C1606 C1605 1.398 . S
C1606 C1607 1.391 . S
C1607 H1595 0.950 . S
C1607 C1603 1.393 . S
C1607 C1606 1.391 . S
H1608 C1616 0.950 . S
H1609 C1621 0.950 . S
H1610 C1618 0.950 . S
H1611 C1620 0.950 . S
H1612 C1622 0.950 . S
H1613 C1624 0.950 . S
H1614 C1626 0.950 . S
H1615 C1627 0.950 . S
C1616 H1608 0.950 . S
C1616 C1617 1.386 . S
C1616 C1618 1.391 . S
C1617 C1616 1.386 . S
C1617 C1621 1.393 . S
C1618 H1610 0.950 . S
C1618 C1616 1.391 . S
C1618 C1619 1.400 . S
C1619 C1618 1.400 . S
C1619 C1620 1.398 . S
C1619 C1625 1.491 . S
C1620 H1611 0.950 . S
C1620 C1619 1.398 . S
C1620 C1621 1.391 . S
C1621 H1609 0.950 . S
C1621 C1617 1.393 . S
C1621 C1620 1.391 . S
C1622 H1612 0.950 . S
C1622 C1623 1.386 . S
C1622 C1624 1.391 . S
C1623 C1622 1.386 . S
C1623 C1627 1.393 . S
C1624 H1613 0.950 . S
C1624 C1622 1.391 . S
C1624 C1625 1.400 . S
C1625 C1619 1.491 . S
C1625 C1624 1.400 . S
C1625 C1626 1.398 . S
C1626 H1614 0.950 . S
C1626 C1625 1.398 . S
C1626 C1627 1.391 . S
C1627 H1615 0.950 . S
C1627 C1623 1.393 . S
C1627 C1626 1.391 . S
H1628 C1636 0.950 . S
H1629 C1641 0.950 . S
H1630 C1638 0.950 . S
H1631 C1640 0.950 . S
H1632 C1642 0.950 . S
H1633 C1644 0.950 . S
H1634 C1646 0.950 . S
H1635 C1647 0.950 . S
C1636 H1628 0.950 . S
C1636 C1637 1.386 . S
C1636 C1638 1.391 . S
C1637 C1636 1.386 . S
C1637 C1641 1.393 . S
C1638 H1630 0.950 . S
C1638 C1636 1.391 . S
C1638 C1639 1.400 . S
C1639 C1638 1.400 . S
C1639 C1640 1.398 . S
C1639 C1645 1.491 . S
C1640 H1631 0.950 . S
C1640 C1639 1.398 . S
C1640 C1641 1.391 . S
C1641 H1629 0.950 . S
C1641 C1637 1.393 . S
C1641 C1640 1.391 . S
C1642 H1632 0.950 . S
C1642 C1643 1.386 . S
C1642 C1644 1.391 . S
C1643 C1642 1.386 . S
C1643 C1647 1.393 . S
C1644 H1633 0.950 . S
C1644 C1642 1.391 . S
C1644 C1645 1.400 . S
C1645 C1639 1.491 . S
C1645 C1644 1.400 . S
C1645 C1646 1.398 . S
C1646 H1634 0.950 . S
C1646 C1645 1.398 . S
C1646 C1647 1.391 . S
C1647 H1635 0.950 . S
C1647 C1643 1.393 . S
C1647 C1646 1.391 . S
H1648 C1656 0.950 . S
H1649 C1661 0.950 . S
H1650 C1658 0.950 . S
H1651 C1660 0.950 . S
H1652 C1662 0.950 . S
H1653 C1664 0.950 . S
H1654 C1666 0.950 . S
H1655 C1667 0.950 . S
C1656 H1648 0.950 . S
C1656 C1657 1.386 . S
C1656 C1658 1.391 . S
C1657 C1656 1.386 . S
C1657 C1661 1.393 . S
C1658 H1650 0.950 . S
C1658 C1656 1.391 . S
C1658 C1659 1.400 . S
C1659 C1658 1.400 . S
C1659 C1660 1.398 . S
C1659 C1665 1.491 . S
C1660 H1651 0.950 . S
C1660 C1659 1.398 . S
C1660 C1661 1.391 . S
C1661 H1649 0.950 . S
C1661 C1657 1.393 . S
C1661 C1660 1.391 . S
C1662 H1652 0.950 . S
C1662 C1663 1.386 . S
C1662 C1664 1.391 . S
C1663 C1662 1.386 . S
C1663 C1667 1.393 . S
C1664 H1653 0.950 . S
C1664 C1662 1.391 . S
C1664 C1665 1.400 . S
C1665 C1659 1.491 . S
C1665 C1664 1.400 . S
C1665 C1666 1.398 . S
C1666 H1654 0.950 . S
C1666 C1665 1.398 . S
C1666 C1667 1.391 . S
C1667 H1655 0.950 . S
C1667 C1663 1.393 . S
C1667 C1666 1.391 . S
H1668 C1676 0.950 . S
H1669 C1681 0.950 . S
H1670 C1678 0.950 . S
H1671 C1680 0.950 . S
H1672 C1682 0.950 . S
H1673 C1684 0.950 . S
H1674 C1686 0.950 . S
H1675 C1687 0.950 . S
C1676 H1668 0.950 . S
C1676 C1677 1.386 . S
C1676 C1678 1.391 . S
C1677 C1676 1.386 . S
C1677 C1681 1.393 . S
C1678 H1670 0.950 . S
C1678 C1676 1.391 . S
C1678 C1679 1.400 . S
C1679 C1678 1.400 . S
C1679 C1680 1.398 . S
C1679 C1685 1.491 . S
C1680 H1671 0.950 . S
C1680 C1679 1.398 . S
C1680 C1681 1.391 . S
C1681 H1669 0.950 . S
C1681 C1677 1.393 . S
C1681 C1680 1.391 . S
C1682 H1672 0.950 . S
C1682 C1683 1.386 . S
C1682 C1684 1.391 . S
C1683 C1682 1.386 . S
C1683 C1687 1.393 . S
C1684 H1673 0.950 . S
C1684 C1682 1.391 . S
C1684 C1685 1.400 . S
C1685 C1679 1.491 . S
C1685 C1684 1.400 . S
C1685 C1686 1.398 . S
C1686 H1674 0.950 . S
C1686 C1685 1.398 . S
C1686 C1687 1.391 . S
C1687 H1675 0.950 . S
C1687 C1683 1.393 . S
C1687 C1686 1.391 . S
H1688 C1696 0.950 . S
H1689 C1701 0.950 . S
H1690 C1698 0.950 . S
H1691 C1700 0.950 . S
H1692 C1702 0.950 . S
H1693 C1704 0.950 . S
H1694 C1706 0.950 . S
H1695 C1707 0.950 . S
C1696 H1688 0.950 . S
C1696 C1697 1.386 . S
C1696 C1698 1.391 . S
C1697 C1696 1.386 . S
C1697 C1701 1.393 . S
C1698 H1690 0.950 . S
C1698 C1696 1.391 . S
C1698 C1699 1.400 . S
C1699 C1698 1.400 . S
C1699 C1700 1.398 . S
C1699 C1705 1.491 . S
C1700 H1691 0.950 . S
C1700 C1699 1.398 . S
C1700 C1701 1.391 . S
C1701 H1689 0.950 . S
C1701 C1697 1.393 . S
C1701 C1700 1.391 . S
C1702 H1692 0.950 . S
C1702 C1703 1.386 . S
C1702 C1704 1.391 . S
C1703 C1702 1.386 . S
C1703 C1707 1.393 . S
C1704 H1693 0.950 . S
C1704 C1702 1.391 . S
C1704 C1705 1.400 . S
C1705 C1699 1.491 . S
C1705 C1704 1.400 . S
C1705 C1706 1.398 . S
C1706 H1694 0.950 . S
C1706 C1705 1.398 . S
C1706 C1707 1.391 . S
C1707 H1695 0.950 . S
C1707 C1703 1.393 . S
C1707 C1706 1.391 . S
H1708 C1716 0.950 . S
H1709 C1721 0.950 . S
H1710 C1718 0.950 . S
H1711 C1720 0.950 . S
H1712 C1722 0.950 . S
H1713 C1724 0.950 . S
H1714 C1726 0.950 . S
H1715 C1727 0.950 . S
C1716 H1708 0.950 . S
C1716 C1717 1.386 . S
C1716 C1718 1.391 . S
C1717 C1716 1.386 . S
C1717 C1721 1.393 . S
C1718 H1710 0.950 . S
C1718 C1716 1.391 . S
C1718 C1719 1.400 . S
C1719 C1718 1.400 . S
C1719 C1720 1.398 . S
C1719 C1725 1.491 . S
C1720 H1711 0.950 . S
C1720 C1719 1.398 . S
C1720 C1721 1.391 . S
C1721 H1709 0.950 . S
C1721 C1717 1.393 . S
C1721 C1720 1.391 . S
C1722 H1712 0.950 . S
C1722 C1723 1.386 . S
C1722 C1724 1.391 . S
C1723 C1722 1.386 . S
C1723 C1727 1.393 . S
C1724 H1713 0.950 . S
C1724 C1722 1.391 . S
C1724 C1725 1.400 . S
C1725 C1719 1.491 . S
C1725 C1724 1.400 . S
C1725 C1726 1.398 . S
C1726 H1714 0.950 . S
C1726 C1725 1.398 . S
C1726 C1727 1.391 . S
C1727 H1715 0.950 . S
C1727 C1723 1.393 . S
C1727 C1726 1.391 . S
H1728 C1736 0.950 . S
H1729 C1741 0.950 . S
H1730 C1738 0.950 . S
H1731 C1740 0.950 . S
H1732 C1742 0.950 . S
H1733 C1744 0.950 . S
H1734 C1746 0.950 . S
H1735 C1747 0.950 . S
C1736 H1728 0.950 . S
C1736 C1737 1.386 . S
C1736 C1738 1.391 . S
C1737 C1736 1.386 . S
C1737 C1741 1.393 . S
C1738 H1730 0.950 . S
C1738 C1736 1.391 . S
C1738 C1739 1.400 . S
C1739 C1738 1.400 . S
C1739 C1740 1.398 . S
C1739 C1745 1.491 . S
C1740 H1731 0.950 . S
C1740 C1739 1.398 . S
C1740 C1741 1.391 . S
C1741 H1729 0.950 . S
C1741 C1737 1.393 . S
C1741 C1740 1.391 . S
C1742 H1732 0.950 . S
C1742 C1743 1.386 . S
C1742 C1744 1.391 . S
C1743 C1742 1.386 . S
C1743 C1747 1.393 . S
C1744 H1733 0.950 . S
C1744 C1742 1.391 . S
C1744 C1745 1.400 . S
C1745 C1739 1.491 . S
C1745 C1744 1.400 . S
C1745 C1746 1.398 . S
C1746 H1734 0.950 . S
C1746 C1745 1.398 . S
C1746 C1747 1.391 . S
C1747 H1735 0.950 . S
C1747 C1743 1.393 . S
C1747 C1746 1.391 . S
H1748 C1756 0.950 . S
H1749 C1761 0.950 . S
H1750 C1758 0.950 . S
H1751 C1760 0.950 . S
H1752 C1762 0.950 . S
H1753 C1764 0.950 . S
H1754 C1766 0.950 . S
H1755 C1767 0.950 . S
C1756 H1748 0.950 . S
C1756 C1757 1.386 . S
C1756 C1758 1.391 . S
C1757 C1756 1.386 . S
C1757 C1761 1.393 . S
C1758 H1750 0.950 . S
C1758 C1756 1.391 . S
C1758 C1759 1.400 . S
C1759 C1758 1.400 . S
C1759 C1760 1.398 . S
C1759 C1765 1.491 . S
C1760 H1751 0.950 . S
C1760 C1759 1.398 . S
C1760 C1761 1.391 . S
C1761 H1749 0.950 . S
C1761 C1757 1.393 . S
C1761 C1760 1.391 . S
C1762 H1752 0.950 . S
C1762 C1763 1.386 . S
C1762 C1764 1.391 . S
C1763 C1762 1.386 . S
C1763 C1767 1.393 . S
C1764 H1753 0.950 . S
C1764 C1762 1.391 . S
C1764 C1765 1.400 . S
C1765 C1759 1.491 . S
C1765 C1764 1.400 . S
C1765 C1766 1.398 . S
C1766 H1754 0.950 . S
C1766 C1765 1.398 . S
C1766 C1767 1.391 . S
C1767 H1755 0.950 . S
C1767 C1763 1.393 . S
C1767 C1766 1.391 . S
H1768 C1776 0.950 . S
H1769 C1781 0.950 . S
H1770 C1778 0.950 . S
H1771 C1780 0.950 . S
H1772 C1782 0.950 . S
H1773 C1784 0.950 . S
H1774 C1786 0.950 . S
H1775 C1787 0.950 . S
C1776 H1768 0.950 . S
C1776 C1777 1.386 . S
C1776 C1778 1.391 . S
C1777 C1776 1.386 . S
C1777 C1781 1.393 . S
C1778 H1770 0.950 . S
C1778 C1776 1.391 . S
C1778 C1779 1.400 . S
C1779 C1778 1.400 . S
C1779 C1780 1.398 . S
C1779 C1785 1.491 . S
C1780 H1771 0.950 . S
C1780 C1779 1.398 . S
C1780 C1781 1.391 . S
C1781 H1769 0.950 . S
C1781 C1777 1.393 . S
C1781 C1780 1.391 . S
C1782 H1772 0.950 . S
C1782 C1783 1.386 . S
C1782 C1784 1.391 . S
C1783 C1782 1.386 . S
C1783 C1787 1.393 . S
C1784 H1773 0.950 . S
C1784 C1782 1.391 . S
C1784 C1785 1.400 . S
C1785 C1779 1.491 . S
C1785 C1784 1.400 . S
C1785 C1786 1.398 . S
C1786 H1774 0.950 . S
C1786 C1785 1.398 . S
C1786 C1787 1.391 . S
C1787 H1775 0.950 . S
C1787 C1783 1.393 . S
C1787 C1786 1.391 . S
H1788 C1796 0.950 . S
H1789 C1801 0.950 . S
H1790 C1798 0.950 . S
H1791 C1800 0.950 . S
H1792 C1802 0.950 . S
H1793 C1804 0.950 . S
H1794 C1806 0.950 . S
H1795 C1807 0.950 . S
C1796 H1788 0.950 . S
C1796 C1797 1.386 . S
C1796 C1798 1.391 . S
C1797 C1796 1.386 . S
C1797 C1801 1.393 . S
C1798 H1790 0.950 . S
C1798 C1796 1.391 . S
C1798 C1799 1.400 . S
C1799 C1798 1.400 . S
C1799 C1800 1.398 . S
C1799 C1805 1.491 . S
C1800 H1791 0.950 . S
C1800 C1799 1.398 . S
C1800 C1801 1.391 . S
C1801 H1789 0.950 . S
C1801 C1797 1.393 . S
C1801 C1800 1.391 . S
C1802 H1792 0.950 . S
C1802 C1803 1.386 . S
C1802 C1804 1.391 . S
C1803 C1802 1.386 . S
C1803 C1807 1.393 . S
C1804 H1793 0.950 . S
C1804 C1802 1.391 . S
C1804 C1805 1.400 . S
C1805 C1799 1.491 . S
C1805 C1804 1.400 . S
C1805 C1806 1.398 . S
C1806 H1794 0.950 . S
C1806 C1805 1.398 . S
C1806 C1807 1.391 . S
C1807 H1795 0.950 . S
C1807 C1803 1.393 . S
C1807 C1806 1.391 . S
H1808 C1816 0.950 . S
H1809 C1821 0.950 . S
H1810 C1818 0.950 . S
H1811 C1820 0.950 . S
H1812 C1822 0.950 . S
H1813 C1824 0.950 . S
H1814 C1826 0.950 . S
H1815 C1827 0.950 . S
C1816 H1808 0.950 . S
C1816 C1817 1.386 . S
C1816 C1818 1.391 . S
C1817 C1816 1.386 . S
C1817 C1821 1.393 . S
C1818 H1810 0.950 . S
C1818 C1816 1.391 . S
C1818 C1819 1.400 . S
C1819 C1818 1.400 . S
C1819 C1820 1.398 . S
C1819 C1825 1.491 . S
C1820 H1811 0.950 . S
C1820 C1819 1.398 . S
C1820 C1821 1.391 . S
C1821 H1809 0.950 . S
C1821 C1817 1.393 . S
C1821 C1820 1.391 . S
C1822 H1812 0.950 . S
C1822 C1823 1.386 . S
C1822 C1824 1.391 . S
C1823 C1822 1.386 . S
C1823 C1827 1.393 . S
C1824 H1813 0.950 . S
C1824 C1822 1.391 . S
C1824 C1825 1.400 . S
C1825 C1819 1.491 . S
C1825 C1824 1.400 . S
C1825 C1826 1.398 . S
C1826 H1814 0.950 . S
C1826 C1825 1.398 . S
C1826 C1827 1.391 . S
C1827 H1815 0.950 . S
C1827 C1823 1.393 . S
C1827 C1826 1.391 . S
H1828 C1836 0.950 . S
H1829 C1841 0.950 . S
H1830 C1838 0.950 . S
H1831 C1840 0.950 . S
H1832 C1842 0.950 . S
H1833 C1844 0.950 . S
H1834 C1846 0.950 . S
H1835 C1847 0.950 . S
C1836 H1828 0.950 . S
C1836 C1837 1.386 . S
C1836 C1838 1.391 . S
C1837 C1836 1.386 . S
C1837 C1841 1.393 . S
C1838 H1830 0.950 . S
C1838 C1836 1.391 . S
C1838 C1839 1.400 . S
C1839 C1838 1.400 . S
C1839 C1840 1.398 . S
C1839 C1845 1.491 . S
C1840 H1831 0.950 . S
C1840 C1839 1.398 . S
C1840 C1841 1.391 . S
C1841 H1829 0.950 . S
C1841 C1837 1.393 . S
C1841 C1840 1.391 . S
C1842 H1832 0.950 . S
C1842 C1843 1.386 . S
C1842 C1844 1.391 . S
C1843 C1842 1.386 . S
C1843 C1847 1.393 . S
C1844 H1833 0.950 . S
C1844 C1842 1.391 . S
C1844 C1845 1.400 . S
C1845 C1839 1.491 . S
C1845 C1844 1.400 . S
C1845 C1846 1.398 . S
C1846 H1834 0.950 . S
C1846 C1845 1.398 . S
C1846 C1847 1.391 . S
C1847 H1835 0.950 . S
C1847 C1843 1.393 . S
C1847 C1846 1.391 . S
H1848 C1856 0.950 . S
H1849 C1861 0.950 . S
H1850 C1858 0.950 . S
H1851 C1860 0.950 . S
H1852 C1862 0.950 . S
H1853 C1864 0.950 . S
H1854 C1866 0.950 . S
H1855 C1867 0.950 . S
C1856 H1848 0.950 . S
C1856 C1857 1.386 . S
C1856 C1858 1.391 . S
C1857 C1856 1.386 . S
C1857 C1861 1.393 . S
C1858 H1850 0.950 . S
C1858 C1856 1.391 . S
C1858 C1859 1.400 . S
C1859 C1858 1.400 . S
C1859 C1860 1.398 . S
C1859 C1865 1.491 . S
C1860 H1851 0.950 . S
C1860 C1859 1.398 . S
C1860 C1861 1.391 . S
C1861 H1849 0.950 . S
C1861 C1857 1.393 . S
C1861 C1860 1.391 . S
C1862 H1852 0.950 . S
C1862 C1863 1.386 . S
C1862 C1864 1.391 . S
C1863 C1862 1.386 . S
C1863 C1867 1.393 . S
C1864 H1853 0.950 . S
C1864 C1862 1.391 . S
C1864 C1865 1.400 . S
C1865 C1859 1.491 . S
C1865 C1864 1.400 . S
C1865 C1866 1.398 . S
C1866 H1854 0.950 . S
C1866 C1865 1.398 . S
C1866 C1867 1.391 . S
C1867 H1855 0.950 . S
C1867 C1863 1.393 . S
C1867 C1866 1.391 . S
H1868 C1876 0.950 . S
H1869 C1881 0.950 . S
H1870 C1878 0.950 . S
H1871 C1880 0.950 . S
H1872 C1882 0.950 . S
H1873 C1884 0.950 . S
H1874 C1886 0.950 . S
H1875 C1887 0.950 . S
C1876 H1868 0.950 . S
C1876 C1877 1.386 . S
C1876 C1878 1.391 . S
C1877 C1876 1.386 . S
C1877 C1881 1.393 . S
C1878 H1870 0.950 . S
C1878 C1876 1.391 . S
C1878 C1879 1.400 . S
C1879 C1878 1.400 . S
C1879 C1880 1.398 . S
C1879 C1885 1.491 . S
C1880 H1871 0.950 . S
C1880 C1879 1.398 . S
C1880 C1881 1.391 . S
C1881 H1869 0.950 . S
C1881 C1877 1.393 . S
C1881 C1880 1.391 . S
C1882 H1872 0.950 . S
C1882 C1883 1.386 . S
C1882 C1884 1.391 . S
C1883 C1882 1.386 . S
C1883 C1887 1.393 . S
C1884 H1873 0.950 . S
C1884 C1882 1.391 . S
C1884 C1885 1.400 . S
C1885 C1879 1.491 . S
C1885 C1884 1.400 . S
C1885 C1886 1.398 . S
C1886 H1874 0.950 . S
C1886 C1885 1.398 . S
C1886 C1887 1.391 . S
C1887 H1875 0.950 . S
C1887 C1883 1.393 . S
C1887 C1886 1.391 . S
H1888 C1896 0.950 . S
H1889 C1901 0.950 . S
H1890 C1898 0.950 . S
H1891 C1900 0.950 . S
H1892 C1902 0.950 . S
H1893 C1904 0.950 . S
H1894 C1906 0.950 . S
H1895 C1907 0.950 . S
C1896 H1888 0.950 . S
C1896 C1897 1.386 . S
C1896 C1898 1.391 . S
C1897 C1896 1.386 . S
C1897 C1901 1.393 . S
C1898 H1890 0.950 . S
C1898 C1896 1.391 . S
C1898 C1899 1.400 . S
C1899 C1898 1.400 . S
C1899 C1900 1.398 . S
C1899 C1905 1.491 . S
C1900 H1891 0.950 . S
C1900 C1899 1.398 . S
C1900 C1901 1.391 . S
C1901 H1889 0.950 . S
C1901 C1897 1.393 . S
C1901 C1900 1.391 . S
C1902 H1892 0.950 . S
C1902 C1903 1.386 . S
C1902 C1904 1.391 . S
C1903 C1902 1.386 . S
C1903 C1907 1.393 . S
C1904 H1893 0.950 . S
C1904 C1902 1.391 . S
C1904 C1905 1.400 . S
C1905 C1899 1.491 . S
C1905 C1904 1.400 . S
C1905 C1906 1.398 . S
C1906 H1894 0.950 . S
C1906 C1905 1.398 . S
C1906 C1907 1.391 . S
C1907 H1895 0.950 . S
C1907 C1903 1.393 . S
C1907 C1906 1.391 . S
C963 C334 1.226 . S
C957 N2 1.327 . S
C983 C434 2.157 . S
C977 C7 2.165 . S
C1003 C514 1.176 . S
C997 N12 1.366 . S
C1017 C16 1.937 . S
C1023 C591 1.969 . S
C1043 C675 2.194 . S
C1037 C30 2.204 1_565 S
C1063 C754 1.071 . S
C1057 N35 1.248 . S
C1077 C39 2.044 . S
C1083 C854 2.025 . S
C1103 C934 1.160 . S
C1097 N25 1.209 . S
C1123 C332 1.080 . S
C1117 N58 1.128 . S
C1137 N81 1.868 . S
C1143 C427 1.865 . S
C1163 C518 1.174 . S
C1157 N104 1.095 . S
C1177 N127 1.149 . S
C1183 C586 0.957 . S
C1203 C670 0.739 . S
C1197 N48 0.850 . S
C1223 C752 1.462 . S
C1217 N71 1.401 1_556 S
C1237 N94 1.422 . S
C1243 C847 1.428 . S
C1263 C938 1.540 . S
C1257 N117 1.508 . S
C1277 C85 2.113 . S
C1283 C339 2.120 . S
C1297 C122 2.377 . S
C1303 C668 2.337 . S
C1317 C53 1.760 . S
C1323 C759 1.805 . S
C1343 C850 1.223 . S
C1337 C76 1.485 1_655 S
C1363 C931 1.750 . S
C1357 C99 1.821 . S
C1383 C511 1.922 . S
C1377 C131 1.942 . S
C1403 C584 1.911 . S
C1397 C62 1.954 . S
C1417 C108 1.166 . S
C1423 C430 0.994 . S
C1443 C922 1.235 . S
C1437 N140 1.390 . S
C1457 C145 2.150 . S
C1463 C686 2.144 . S
C1483 C766 1.129 . S
C1477 N150 1.260 . S
C1497 C154 1.933 . S
C1503 C843 1.961 . S
C1523 C423 2.185 . S
C1517 C168 2.195 . S
C1537 N173 1.153 . S
C1543 C502 0.984 . S
C1563 C602 2.027 . S
C1557 C177 2.047 . S
C1583 C346 1.130 . S
C1577 N163 1.219 . S
C1603 C920 1.536 . S
C1597 C200 1.572 . S
C1623 C679 2.167 . S
C1617 N219 2.159 . S
C1637 N242 1.386 . S
C1643 C770 1.461 . S
C1663 C838 1.201 . S
C1657 C269 1.464 . S
C1683 C418 0.940 . S
C1677 C191 1.130 . S
C1697 N209 1.686 . S
C1703 C500 1.727 . S
C1717 N232 1.715 . S
C1723 C595 1.732 . S
C1737 C260 2.027 . S
C1743 C350 2.018 . S
C1757 C223 1.795 . S
C1763 C927 1.797 . S
C1777 N255 1.952 . S
C1783 C416 1.953 . S
C1797 N186 1.359 . S
C1803 C507 1.411 . S
C1823 C598 0.991 . S
C1817 C214 1.162 . S
C1843 C343 1.412 . S
C1837 C237 1.484 . S
C1863 C763 1.520 . S
C1857 N265 1.465 . S
C1883 C836 1.511 . S
C1877 N196 1.507 . S
C1903 C682 0.765 . S
C1897 C246 0.842 . S
