# Generated by pormake.
# Topology iac, (4,6)-cn, num edge types: 1
# Building blocks:
#     Node 0, Type 0, BuildingBlock: NAHDIM_clean_sbu_0, # of connection points: 4
#     Node 1, Type 0, BuildingBlock: NAHDIM_clean_sbu_0, # of connection points: 4
#     Node 2, Type 0, BuildingBlock: NAHDIM_clean_sbu_0, # of connection points: 4
#     Node 3, Type 0, BuildingBlock: NAHDIM_clean_sbu_0, # of connection points: 4
#     Node 4, Type 0, BuildingBlock: NAHDIM_clean_sbu_0, # of connection points: 4
#     Node 5, Type 0, BuildingBlock: NAHDIM_clean_sbu_0, # of connection points: 4
#     Node 6, Type 0, BuildingBlock: NAHDIM_clean_sbu_0, # of connection points: 4
#     Node 7, Type 0, BuildingBlock: NAHDIM_clean_sbu_0, # of connection points: 4
#     Node 8, Type 0, BuildingBlock: NAHDIM_clean_sbu_0, # of connection points: 4
#     Node 9, Type 0, BuildingBlock: NAHDIM_clean_sbu_0, # of connection points: 4
#     Node 10, Type 0, BuildingBlock: NAHDIM_clean_sbu_0, # of connection points: 4
#     Node 11, Type 0, BuildingBlock: NAHDIM_clean_sbu_0, # of connection points: 4
#     Node 12, Type 0, BuildingBlock: NAHDIM_clean_sbu_0, # of connection points: 4
#     Node 13, Type 0, BuildingBlock: NAHDIM_clean_sbu_0, # of connection points: 4
#     Node 14, Type 0, BuildingBlock: NAHDIM_clean_sbu_0, # of connection points: 4
#     Node 15, Type 0, BuildingBlock: NAHDIM_clean_sbu_0, # of connection points: 4
#     Node 16, Type 0, BuildingBlock: NAHDIM_clean_sbu_0, # of connection points: 4
#     Node 17, Type 0, BuildingBlock: NAHDIM_clean_sbu_0, # of connection points: 4
#     Node 18, Type 0, BuildingBlock: NAHDIM_clean_sbu_0, # of connection points: 4
#     Node 19, Type 0, BuildingBlock: NAHDIM_clean_sbu_0, # of connection points: 4
#     Node 20, Type 0, BuildingBlock: NAHDIM_clean_sbu_0, # of connection points: 4
#     Node 21, Type 0, BuildingBlock: NAHDIM_clean_sbu_0, # of connection points: 4
#     Node 22, Type 0, BuildingBlock: NAHDIM_clean_sbu_0, # of connection points: 4
#     Node 23, Type 0, BuildingBlock: NAHDIM_clean_sbu_0, # of connection points: 4
#     Node 24, Type 1, BuildingBlock: FUNLAD_clean_sbu_0, # of connection points: 6
#     Node 25, Type 1, BuildingBlock: FUNLAD_clean_sbu_0, # of connection points: 6
#     Node 26, Type 1, BuildingBlock: FUNLAD_clean_sbu_0, # of connection points: 6
#     Node 27, Type 1, BuildingBlock: FUNLAD_clean_sbu_0, # of connection points: 6
#     Node 28, Type 1, BuildingBlock: FUNLAD_clean_sbu_0, # of connection points: 6
#     Node 29, Type 1, BuildingBlock: FUNLAD_clean_sbu_0, # of connection points: 6
#     Node 30, Type 1, BuildingBlock: FUNLAD_clean_sbu_0, # of connection points: 6
#     Node 31, Type 1, BuildingBlock: FUNLAD_clean_sbu_0, # of connection points: 6
#     Node 32, Type 1, BuildingBlock: FUNLAD_clean_sbu_0, # of connection points: 6
#     Node 33, Type 1, BuildingBlock: FUNLAD_clean_sbu_0, # of connection points: 6
#     Node 34, Type 1, BuildingBlock: FUNLAD_clean_sbu_0, # of connection points: 6
#     Node 35, Type 1, BuildingBlock: FUNLAD_clean_sbu_0, # of connection points: 6
#     Node 36, Type 1, BuildingBlock: FUNLAD_clean_sbu_0, # of connection points: 6
#     Node 37, Type 1, BuildingBlock: FUNLAD_clean_sbu_0, # of connection points: 6
#     Node 38, Type 1, BuildingBlock: FUNLAD_clean_sbu_0, # of connection points: 6
#     Node 39, Type 1, BuildingBlock: FUNLAD_clean_sbu_0, # of connection points: 6
#     Edge 40, Type (0, 1), BuildingBlock: OJICUG_clean_linker_0, # of connection points: 2
#     Edge 41, Type (0, 1), BuildingBlock: OJICUG_clean_linker_0, # of connection points: 2
#     Edge 42, Type (0, 1), BuildingBlock: OJICUG_clean_linker_0, # of connection points: 2
#     Edge 43, Type (0, 1), BuildingBlock: OJICUG_clean_linker_0, # of connection points: 2
#     Edge 44, Type (0, 1), BuildingBlock: OJICUG_clean_linker_0, # of connection points: 2
#     Edge 45, Type (0, 1), BuildingBlock: OJICUG_clean_linker_0, # of connection points: 2
#     Edge 46, Type (0, 1), BuildingBlock: OJICUG_clean_linker_0, # of connection points: 2
#     Edge 47, Type (0, 1), BuildingBlock: OJICUG_clean_linker_0, # of connection points: 2
#     Edge 48, Type (0, 1), BuildingBlock: OJICUG_clean_linker_0, # of connection points: 2
#     Edge 49, Type (0, 1), BuildingBlock: OJICUG_clean_linker_0, # of connection points: 2
#     Edge 50, Type (0, 1), BuildingBlock: OJICUG_clean_linker_0, # of connection points: 2
#     Edge 51, Type (0, 1), BuildingBlock: OJICUG_clean_linker_0, # of connection points: 2
#     Edge 52, Type (0, 1), BuildingBlock: OJICUG_clean_linker_0, # of connection points: 2
#     Edge 53, Type (0, 1), BuildingBlock: OJICUG_clean_linker_0, # of connection points: 2
#     Edge 54, Type (0, 1), BuildingBlock: OJICUG_clean_linker_0, # of connection points: 2
#     Edge 55, Type (0, 1), BuildingBlock: OJICUG_clean_linker_0, # of connection points: 2
#     Edge 56, Type (0, 1), BuildingBlock: OJICUG_clean_linker_0, # of connection points: 2
#     Edge 57, Type (0, 1), BuildingBlock: OJICUG_clean_linker_0, # of connection points: 2
#     Edge 58, Type (0, 1), BuildingBlock: OJICUG_clean_linker_0, # of connection points: 2
#     Edge 59, Type (0, 1), BuildingBlock: OJICUG_clean_linker_0, # of connection points: 2
#     Edge 60, Type (0, 1), BuildingBlock: OJICUG_clean_linker_0, # of connection points: 2
#     Edge 61, Type (0, 1), BuildingBlock: OJICUG_clean_linker_0, # of connection points: 2
#     Edge 62, Type (0, 1), BuildingBlock: OJICUG_clean_linker_0, # of connection points: 2
#     Edge 63, Type (0, 1), BuildingBlock: OJICUG_clean_linker_0, # of connection points: 2
#     Edge 64, Type (0, 1), BuildingBlock: OJICUG_clean_linker_0, # of connection points: 2
#     Edge 65, Type (0, 1), BuildingBlock: OJICUG_clean_linker_0, # of connection points: 2
#     Edge 66, Type (0, 1), BuildingBlock: OJICUG_clean_linker_0, # of connection points: 2
#     Edge 67, Type (0, 1), BuildingBlock: OJICUG_clean_linker_0, # of connection points: 2
#     Edge 68, Type (0, 1), BuildingBlock: OJICUG_clean_linker_0, # of connection points: 2
#     Edge 69, Type (0, 1), BuildingBlock: OJICUG_clean_linker_0, # of connection points: 2
#     Edge 70, Type (0, 1), BuildingBlock: OJICUG_clean_linker_0, # of connection points: 2
#     Edge 71, Type (0, 1), BuildingBlock: OJICUG_clean_linker_0, # of connection points: 2
#     Edge 72, Type (0, 1), BuildingBlock: OJICUG_clean_linker_0, # of connection points: 2
#     Edge 73, Type (0, 1), BuildingBlock: OJICUG_clean_linker_0, # of connection points: 2
#     Edge 74, Type (0, 1), BuildingBlock: OJICUG_clean_linker_0, # of connection points: 2
#     Edge 75, Type (0, 1), BuildingBlock: OJICUG_clean_linker_0, # of connection points: 2
#     Edge 76, Type (0, 1), BuildingBlock: OJICUG_clean_linker_0, # of connection points: 2
#     Edge 77, Type (0, 1), BuildingBlock: OJICUG_clean_linker_0, # of connection points: 2
#     Edge 78, Type (0, 1), BuildingBlock: OJICUG_clean_linker_0, # of connection points: 2
#     Edge 79, Type (0, 1), BuildingBlock: OJICUG_clean_linker_0, # of connection points: 2
#     Edge 80, Type (0, 1), BuildingBlock: OJICUG_clean_linker_0, # of connection points: 2
#     Edge 81, Type (0, 1), BuildingBlock: OJICUG_clean_linker_0, # of connection points: 2
#     Edge 82, Type (0, 1), BuildingBlock: OJICUG_clean_linker_0, # of connection points: 2
#     Edge 83, Type (0, 1), BuildingBlock: OJICUG_clean_linker_0, # of connection points: 2
#     Edge 84, Type (0, 1), BuildingBlock: OJICUG_clean_linker_0, # of connection points: 2
#     Edge 85, Type (0, 1), BuildingBlock: OJICUG_clean_linker_0, # of connection points: 2
#     Edge 86, Type (0, 1), BuildingBlock: OJICUG_clean_linker_0, # of connection points: 2
#     Edge 87, Type (0, 1), BuildingBlock: OJICUG_clean_linker_0, # of connection points: 2
#     Edge 88, Type (0, 1), BuildingBlock: OJICUG_clean_linker_0, # of connection points: 2
#     Edge 89, Type (0, 1), BuildingBlock: OJICUG_clean_linker_0, # of connection points: 2
#     Edge 90, Type (0, 1), BuildingBlock: OJICUG_clean_linker_0, # of connection points: 2
#     Edge 91, Type (0, 1), BuildingBlock: OJICUG_clean_linker_0, # of connection points: 2
#     Edge 92, Type (0, 1), BuildingBlock: OJICUG_clean_linker_0, # of connection points: 2
#     Edge 93, Type (0, 1), BuildingBlock: OJICUG_clean_linker_0, # of connection points: 2
#     Edge 94, Type (0, 1), BuildingBlock: OJICUG_clean_linker_0, # of connection points: 2
#     Edge 95, Type (0, 1), BuildingBlock: OJICUG_clean_linker_0, # of connection points: 2
#     Edge 96, Type (0, 1), BuildingBlock: OJICUG_clean_linker_0, # of connection points: 2
#     Edge 97, Type (0, 1), BuildingBlock: OJICUG_clean_linker_0, # of connection points: 2
#     Edge 98, Type (0, 1), BuildingBlock: OJICUG_clean_linker_0, # of connection points: 2
#     Edge 99, Type (0, 1), BuildingBlock: OJICUG_clean_linker_0, # of connection points: 2
#     Edge 100, Type (0, 1), BuildingBlock: OJICUG_clean_linker_0, # of connection points: 2
#     Edge 101, Type (0, 1), BuildingBlock: OJICUG_clean_linker_0, # of connection points: 2
#     Edge 102, Type (0, 1), BuildingBlock: OJICUG_clean_linker_0, # of connection points: 2
#     Edge 103, Type (0, 1), BuildingBlock: OJICUG_clean_linker_0, # of connection points: 2
#     Edge 104, Type (0, 1), BuildingBlock: OJICUG_clean_linker_0, # of connection points: 2
#     Edge 105, Type (0, 1), BuildingBlock: OJICUG_clean_linker_0, # of connection points: 2
#     Edge 106, Type (0, 1), BuildingBlock: OJICUG_clean_linker_0, # of connection points: 2
#     Edge 107, Type (0, 1), BuildingBlock: OJICUG_clean_linker_0, # of connection points: 2
#     Edge 108, Type (0, 1), BuildingBlock: OJICUG_clean_linker_0, # of connection points: 2
#     Edge 109, Type (0, 1), BuildingBlock: OJICUG_clean_linker_0, # of connection points: 2
#     Edge 110, Type (0, 1), BuildingBlock: OJICUG_clean_linker_0, # of connection points: 2
#     Edge 111, Type (0, 1), BuildingBlock: OJICUG_clean_linker_0, # of connection points: 2
#     Edge 112, Type (0, 1), BuildingBlock: OJICUG_clean_linker_0, # of connection points: 2
#     Edge 113, Type (0, 1), BuildingBlock: OJICUG_clean_linker_0, # of connection points: 2
#     Edge 114, Type (0, 1), BuildingBlock: OJICUG_clean_linker_0, # of connection points: 2
#     Edge 115, Type (0, 1), BuildingBlock: OJICUG_clean_linker_0, # of connection points: 2
#     Edge 116, Type (0, 1), BuildingBlock: OJICUG_clean_linker_0, # of connection points: 2
#     Edge 117, Type (0, 1), BuildingBlock: OJICUG_clean_linker_0, # of connection points: 2
#     Edge 118, Type (0, 1), BuildingBlock: OJICUG_clean_linker_0, # of connection points: 2
#     Edge 119, Type (0, 1), BuildingBlock: OJICUG_clean_linker_0, # of connection points: 2
#     Edge 120, Type (0, 1), BuildingBlock: OJICUG_clean_linker_0, # of connection points: 2
#     Edge 121, Type (0, 1), BuildingBlock: OJICUG_clean_linker_0, # of connection points: 2
#     Edge 122, Type (0, 1), BuildingBlock: OJICUG_clean_linker_0, # of connection points: 2
#     Edge 123, Type (0, 1), BuildingBlock: OJICUG_clean_linker_0, # of connection points: 2
#     Edge 124, Type (0, 1), BuildingBlock: OJICUG_clean_linker_0, # of connection points: 2
#     Edge 125, Type (0, 1), BuildingBlock: OJICUG_clean_linker_0, # of connection points: 2
#     Edge 126, Type (0, 1), BuildingBlock: OJICUG_clean_linker_0, # of connection points: 2
#     Edge 127, Type (0, 1), BuildingBlock: OJICUG_clean_linker_0, # of connection points: 2
#     Edge 128, Type (0, 1), BuildingBlock: OJICUG_clean_linker_0, # of connection points: 2
#     Edge 129, Type (0, 1), BuildingBlock: OJICUG_clean_linker_0, # of connection points: 2
#     Edge 130, Type (0, 1), BuildingBlock: OJICUG_clean_linker_0, # of connection points: 2
#     Edge 131, Type (0, 1), BuildingBlock: OJICUG_clean_linker_0, # of connection points: 2
#     Edge 132, Type (0, 1), BuildingBlock: OJICUG_clean_linker_0, # of connection points: 2
#     Edge 133, Type (0, 1), BuildingBlock: OJICUG_clean_linker_0, # of connection points: 2
#     Edge 134, Type (0, 1), BuildingBlock: OJICUG_clean_linker_0, # of connection points: 2
#     Edge 135, Type (0, 1), BuildingBlock: OJICUG_clean_linker_0, # of connection points: 2
# Relax obj value: 0.383
# Max RMSD: 0.310
# Mean RMSD: 0.173
data_MOF--net-iac--node1-NAHDIM_clean_sbu_0--node2-FUNLAD_clean_sbu_0--edge1-OJICUG_clean_linker_0
_symmetry_space_group_name_H-M    P1
_symmetry_Int_Tables_number       1
_symmetry_cell_setting            triclinic
loop_
_symmetry_equiv_pos_as_xyz
'x, y, z'
_cell_length_a     41.567177
_cell_length_b     38.904731
_cell_length_c     43.516243
_cell_angle_alpha  89.36758
_cell_angle_beta   93.14701
_cell_angle_gamma 90.06985
loop_
_atom_site_label
_atom_site_type_symbol
_atom_site_fract_x
_atom_site_fract_y
_atom_site_fract_z
_atom_type_partial_charge
C0 C 0.05679 0.22611 0.21909 0.0
O1 O 0.0701 0.25649 0.21584 0.0
O2 O 0.05945 0.20058 0.12824 0.0
Zn3 Zn 0.0899 0.20773 0.16453 0.0
O4 O 0.10813 0.25504 0.15898 0.0
C5 C 0.15248 0.17317 0.16834 0.0
O6 O 0.17171 0.14716 0.16385 0.0
O7 O 0.06367 0.20216 0.20108 0.0
C8 C 0.12213 0.26079 0.13419 0.0
O9 O 0.12715 0.23489 0.11591 0.0
C10 C 0.04695 0.2224 0.10917 0.0
O11 O 0.05343 0.25527 0.11187 0.0
O12 O 0.12236 0.16952 0.16336 0.0
C13 C 0.11685 0.75977 0.37647 0.0
O14 O 0.12181 0.76186 0.40648 0.0
O15 O 0.05422 0.7024 0.41794 0.0
Zn16 Zn 0.04974 0.74996 0.39553 0.0
O17 O 0.05099 0.7897 0.42723 0.0
C18 C 0.97899 0.74868 0.38617 0.0
O19 O 0.982 0.74409 0.41615 0.0
O20 O 0.08791 0.75514 0.36569 0.0
C21 C 0.04836 0.82069 0.41751 0.0
O22 O 0.04577 0.82618 0.38762 0.0
C23 C 0.05417 0.69771 0.44705 0.0
O24 O 0.05121 0.72457 0.46471 0.0
O25 O 0.00468 0.75184 0.37147 0.0
C26 C 0.54816 0.68241 0.73885 0.0
O27 O 0.55793 0.65582 0.72352 0.0
O28 O 0.57931 0.68917 0.66906 0.0
Zn29 Zn 0.59533 0.71622 0.70499 0.0
O30 O 0.59505 0.76441 0.68947 0.0
C31 C 0.66247 0.69743 0.70428 0.0
O32 O 0.65759 0.69808 0.67419 0.0
O33 O 0.56273 0.71096 0.7364 0.0
C34 C 0.61993 0.7821 0.68453 0.0
O35 O 0.64842 0.77109 0.69471 0.0
C36 C 0.58189 0.69898 0.64137 0.0
O37 O 0.59965 0.72578 0.63501 0.0
O38 O 0.63899 0.70254 0.72114 0.0
C39 C 0.61295 0.26283 0.87784 0.0
O40 O 0.6173 0.26404 0.90795 0.0
O41 O 0.53819 0.22667 0.92027 0.0
Zn42 Zn 0.54381 0.2703 0.89261 0.0
O43 O 0.54736 0.31512 0.91867 0.0
C44 C 0.47536 0.27194 0.87424 0.0
O45 O 0.47427 0.26611 0.90396 0.0
O46 O 0.58417 0.26496 0.86604 0.0
C47 C 0.53262 0.3205 0.94322 0.0
O48 O 0.51426 0.29608 0.95382 0.0
C49 C 0.54925 0.22237 0.94804 0.0
O50 O 0.56679 0.24686 0.96107 0.0
O51 O 0.50296 0.27474 0.86301 0.0
C52 C 0.22823 0.97822 0.23144 0.0
O53 O 0.21964 0.98682 0.20289 0.0
O54 O 0.16774 0.03995 0.20565 0.0
Zn55 Zn 0.19199 0.03864 0.24694 0.0
O56 O 0.16049 0.03825 0.28006 0.0
C57 C 0.24746 0.08635 0.24836 0.0
O58 O 0.26418 0.06341 0.2341 0.0
O59 O 0.21949 0.99681 0.25322 0.0
C60 C 0.15196 0.06604 0.2924 0.0
O61 O 0.16225 0.09558 0.28181 0.0
C62 C 0.17737 0.05438 0.18144 0.0
O63 O 0.20569 0.06946 0.18224 0.0
O64 O 0.21839 0.08043 0.25399 0.0
C65 C 0.24489 0.94211 0.58139 0.0
O66 O 0.25002 0.92484 0.6073 0.0
O67 O 0.3087 0.87894 0.60006 0.0
Zn68 Zn 0.30825 0.91488 0.56586 0.0
O69 O 0.31071 0.89075 0.526 0.0
C70 C 0.37505 0.92709 0.56844 0.0
O71 O 0.37392 0.89394 0.57423 0.0
O72 O 0.26671 0.94272 0.56199 0.0
C73 C 0.32383 0.86171 0.52249 0.0
O74 O 0.3344 0.84371 0.54667 0.0
C75 C 0.28761 0.85516 0.59941 0.0
O76 O 0.26484 0.85522 0.57724 0.0
O77 O 0.34881 0.94404 0.56693 0.0
C78 C 0.37976 0.07395 0.72455 0.0
O79 O 0.39512 0.07118 0.69911 0.0
O80 O 0.43944 0.01339 0.70695 0.0
Zn81 Zn 0.41074 0.00857 0.74296 0.0
O82 O 0.43812 0.00641 0.7826 0.0
C83 C 0.38935 0.93755 0.73384 0.0
O84 O 0.41721 0.93371 0.72141 0.0
O85 O 0.38301 0.05064 0.74519 0.0
C86 C 0.44652 0.97838 0.79606 0.0
O87 O 0.43828 0.949 0.78341 0.0
C88 C 0.46901 0.00471 0.70841 0.0
O89 O 0.48129 0.9892 0.73331 0.0
O90 O 0.38117 0.96722 0.74239 0.0
C91 C 0.32267 0.04228 0.05278 0.0
O92 O 0.30609 0.01827 0.06627 0.0
O93 O 0.33351 0.14631 0.03812 0.0
Zn94 Zn 0.32931 0.10345 0.01307 0.0
O95 O 0.37231 0.08765 -0.00173 0.0
C96 C 0.27999 0.13785 0.97441 0.0
O97 O 0.28486 0.16327 0.99375 0.0
O98 O 0.30806 0.06692 0.03873 0.0
C99 C 0.38251 0.09472 0.9719 0.0
O100 O 0.40917 0.08037 0.96349 0.0
C101 C 0.35917 0.16042 0.04902 0.0
O102 O 0.38725 0.14674 0.044 0.0
O103 O 0.29721 0.11096 0.9776 0.0
C104 C 0.74355 0.45754 0.04599 0.0
O105 O 0.75989 0.46179 0.02122 0.0
O106 O 0.80557 0.38047 0.10133 0.0
Zn107 Zn 0.79841 0.41325 0.0649 0.0
O108 O 0.7969 0.38608 0.02567 0.0
C109 C 0.86399 0.42795 0.05979 0.0
O110 O 0.86369 0.39446 0.06386 0.0
O111 O 0.75565 0.43896 0.06797 0.0
C112 C 0.80857 0.356 0.02384 0.0
O113 O 0.81965 0.34002 0.04896 0.0
C114 C 0.78403 0.35834 0.10683 0.0
O115 O 0.75728 0.35799 0.08927 0.0
O116 O 0.83758 0.44433 0.06112 0.0
C117 C 0.87512 0.56134 0.24594 0.0
O118 O 0.87155 0.54843 0.21819 0.0
O119 O 0.94434 0.51419 0.21289 0.0
Zn120 Zn 0.92463 0.50944 0.25397 0.0
O121 O 0.96206 0.50518 0.28455 0.0
C122 C 0.89608 0.45138 0.28283 0.0
O123 O 0.9127 0.46346 0.30688 0.0
O124 O 0.89708 0.5496 0.26461 0.0
C125 C 0.98012 0.47888 0.28387 0.0
O126 O 0.97384 0.45522 0.26306 0.0
C127 C 0.95855 0.54169 0.20515 0.0
O128 O 0.95729 0.56886 0.22269 0.0
O129 O 0.8973 0.46665 0.2569 0.0
C130 C 0.85409 0.52945 0.51588 0.0
O131 O 0.84417 0.55724 0.50077 0.0
O132 O 0.83813 0.592 0.57687 0.0
Zn133 Zn 0.81134 0.55311 0.56003 0.0
O134 O 0.77934 0.57412 0.52886 0.0
C135 C 0.76388 0.52662 0.60175 0.0
O136 O 0.75526 0.51463 0.62839 0.0
O137 O 0.84092 0.52111 0.54051 0.0
C138 C 0.76974 0.60442 0.53397 0.0
O139 O 0.77742 0.6184 0.56072 0.0
C140 C 0.86785 0.59135 0.5854 0.0
O141 O 0.88449 0.56302 0.58234 0.0
O142 O 0.79349 0.53042 0.59718 0.0
C143 C 0.71493 0.45731 0.74453 0.0
O144 O 0.71175 0.47021 0.7165 0.0
O145 O 0.65752 0.52261 0.71821 0.0
Zn146 Zn 0.68242 0.51933 0.75967 0.0
O147 O 0.65143 0.5263 0.79246 0.0
C148 C 0.7475 0.54883 0.76298 0.0
O149 O 0.75613 0.52122 0.74848 0.0
O150 O 0.70288 0.4732 0.76644 0.0
C151 C 0.64373 0.55618 0.80095 0.0
O152 O 0.65638 0.58325 0.7879 0.0
C153 C 0.62872 0.51112 0.71659 0.0
O154 O 0.61687 0.49765 0.74137 0.0
O155 O 0.71789 0.55409 0.76736 0.0
C156 C 0.03883 0.81537 0.83864 0.0
O157 O 0.02469 0.78647 0.84611 0.0
O158 O 1.00041 0.79606 0.90808 0.0
Zn159 Zn 0.00927 0.84341 0.89184 0.0
O160 O 0.03662 0.86939 0.92272 0.0
C161 C 0.94254 0.85743 0.87311 0.0
O162 O 0.91667 0.87671 0.8696 0.0
O163 O 0.03435 0.84208 0.85426 0.0
C164 C 0.04946 0.85954 0.94849 0.0
O165 O 0.04513 0.82805 0.95858 0.0
C166 C 0.98561 0.7918 0.93262 0.0
O167 O 0.97522 0.81881 0.94698 0.0
O168 O 0.96884 0.87064 0.88328 0.0
C169 C 0.96664 0.25375 0.68462 0.0
O170 O 0.96308 0.25432 0.65442 0.0
O171 O 0.03301 0.20369 0.64275 0.0
Zn172 Zn 0.03425 0.2487 0.66784 0.0
O173 O 0.03208 0.29156 0.63954 0.0
C174 C 0.09361 0.22897 0.7076 0.0
O175 O 0.07811 0.20046 0.71366 0.0
O176 O 0.99528 0.25104 0.69685 0.0
C177 C 0.02969 0.29363 0.61021 0.0
O178 O 0.02669 0.26536 0.5941 0.0
C179 C 0.05481 0.1966 0.62423 0.0
O180 O 0.07815 0.21887 0.6207 0.0
O181 O 0.07942 0.25191 0.69062 0.0
C182 C 0.54441 0.32705 0.33725 0.0
O183 O 0.52087 0.30539 0.33046 0.0
O184 O 0.51383 0.28613 0.40691 0.0
Zn185 Zn 0.50891 0.3334 0.38926 0.0
O186 O 0.50939 0.36564 0.42401 0.0
C187 C 0.44488 0.31673 0.37127 0.0
O188 O 0.44794 0.29661 0.39567 0.0
O189 O 0.54454 0.34334 0.36234 0.0
C190 C 0.48998 0.36296 0.44546 0.0
O191 O 0.4663 0.34063 0.44351 0.0
C192 C 0.52748 0.28209 0.43349 0.0
O193 O 0.54123 0.30839 0.44758 0.0
O194 O 0.46799 0.33606 0.36434 0.0
C195 C 0.47111 0.77141 0.18419 0.0
O196 O 0.46866 0.7693 0.15403 0.0
O197 O 0.53707 0.72114 0.14646 0.0
Zn198 Zn 0.53931 0.76723 0.17027 0.0
O199 O 0.53772 0.80946 0.13991 0.0
C200 C 0.59091 0.74524 0.21805 0.0
O201 O 0.56898 0.72325 0.2265 0.0
O202 O 0.49934 0.77078 0.19749 0.0
C203 C 0.53358 0.8396 0.1504 0.0
O204 O 0.53097 0.8428 0.18019 0.0
C205 C 0.5492 0.71659 0.12046 0.0
O206 O 0.56283 0.74283 0.10703 0.0
O207 O 0.58344 0.76653 0.19615 0.0
C208 C 0.84696 0.05054 0.78804 0.0
O209 O 0.84 0.03018 0.76471 0.0
O210 O 0.92172 0.00344 0.76446 0.0
Zn211 Zn 0.90005 0.00293 0.80473 0.0
O212 O 0.93247 0.00866 0.83989 0.0
C213 C 0.89588 0.93196 0.80179 0.0
O214 O 0.92659 0.9377 0.79832 0.0
O215 O 0.8702 0.04296 0.80697 0.0
C216 C 0.92177 0.01412 0.86616 0.0
O217 O 0.89051 0.01327 0.86927 0.0
C218 C 0.95165 0.99722 0.76336 0.0
O219 O 0.96939 0.99401 0.78915 0.0
O220 O 0.87766 0.95715 0.80723 0.0
C221 C 0.8631 0.07927 0.48232 0.0
O222 O 0.85956 0.10059 0.45876 0.0
O223 O 0.80983 0.14062 0.5382 0.0
Zn224 Zn 0.80456 0.11259 0.5001 0.0
O225 O 0.80644 0.14376 0.46245 0.0
C226 C 0.73861 0.1074 0.51531 0.0
O227 O 0.74394 0.13999 0.52106 0.0
O228 O 0.84167 0.07856 0.50211 0.0
C229 C 0.78323 0.16132 0.45022 0.0
O230 O 0.75456 0.15875 0.46124 0.0
C231 C 0.80428 0.17264 0.53935 0.0
O232 O 0.79978 0.19038 0.51363 0.0
O233 O 0.76084 0.0895 0.5042 0.0
C234 C 0.71227 0.94073 0.34202 0.0
O235 O 0.69639 0.94556 0.36688 0.0
O236 O 0.65356 0.00867 0.28585 0.0
Zn237 Zn 0.68451 0.00699 0.32317 0.0
O238 O 0.65984 0.00548 0.36234 0.0
C239 C 0.7002 0.07521 0.30414 0.0
O240 O 0.66902 0.07476 0.29745 0.0
O241 O 0.71114 0.96365 0.32088 0.0
C242 C 0.6403 0.02814 0.37088 0.0
O243 O 0.63647 0.05666 0.35465 0.0
C244 C 0.62306 0.01143 0.28511 0.0
O245 O 0.60791 0.00854 0.31069 0.0
O246 O 0.71316 0.04932 0.31811 0.0
C247 C 0.72337 0.99072 0.04365 0.0
O248 O 0.74222 0.99376 0.06868 0.0
O249 O 0.75051 0.90465 0.07135 0.0
Zn250 Zn 0.7617 0.93134 0.03432 0.0
O251 O 0.76426 0.89905 -0.00064 0.0
C252 C 0.81354 0.95632 0.07348 0.0
O253 O 0.79259 0.95359 0.09487 0.0
O254 O 0.72869 0.967 0.02484 0.0
C255 C 0.78795 0.87846 -0.00042 0.0
O256 O 0.8109 0.88077 0.02145 0.0
C257 C 0.74643 0.87237 0.07136 0.0
O258 O 0.74226 0.85618 0.04514 0.0
O259 O 0.80514 0.95028 0.04551 0.0
C260 C 0.34585 0.57512 0.01778 0.0
O261 O 0.33103 0.57807 0.04352 0.0
O262 O 0.29923 0.64842 0.03205 0.0
Zn263 Zn 0.29394 0.62039 0.99381 0.0
O264 O 0.29417 0.65164 0.95585 0.0
C265 C 0.22819 0.61332 0.00932 0.0
O266 O 0.23331 0.64599 0.01483 0.0
O267 O 0.33337 0.58911 0.99335 0.0
C268 C 0.27107 0.66965 0.94388 0.0
O269 O 0.24271 0.66823 0.9557 0.0
C270 C 0.29345 0.68038 0.03348 0.0
O271 O 0.28772 0.69816 0.00794 0.0
O272 O 0.25072 0.59551 -0.00147 0.0
C273 C 0.19915 0.4416 0.83221 0.0
O274 O 0.18689 0.44481 0.85922 0.0
O275 O 0.13377 0.51119 0.7827 0.0
Zn276 Zn 0.16693 0.50684 0.8175 0.0
O277 O 0.14472 0.50445 0.85763 0.0
C278 C 0.18187 0.57574 0.80219 0.0
O279 O 0.15028 0.57675 0.79896 0.0
O280 O 0.1935 0.46454 0.81161 0.0
C281 C 0.11682 0.51727 0.85991 0.0
O282 O 0.1032 0.53415 0.83636 0.0
C283 C 0.11105 0.49102 0.77435 0.0
O284 O 0.10763 0.46157 0.78887 0.0
O285 O 0.19541 0.54849 0.81286 0.0
C286 C 0.22712 0.41735 0.59826 0.0
O287 O 0.22449 0.40809 0.62712 0.0
O288 O 0.31095 0.43207 0.53768 0.0
Zn289 Zn 0.26265 0.42724 0.54247 0.0
O290 O 0.24603 0.39571 0.50821 0.0
C291 C 0.25012 0.50369 0.54049 0.0
O292 O 0.231 0.52959 0.53277 0.0
O293 O 0.25262 0.41 0.58495 0.0
C294 C 0.24133 0.41013 0.48195 0.0
O295 O 0.24697 0.44324 0.4794 0.0
C296 C 0.33515 0.41928 0.55303 0.0
O297 O 0.36419 0.42864 0.54584 0.0
O298 O 0.23992 0.47326 0.53614 0.0
C299 C 0.35381 0.57076 0.30338 0.0
O300 O 0.33452 0.54433 0.30622 0.0
O301 O 0.4374 0.51357 0.27795 0.0
Zn302 Zn 0.40431 0.51981 0.30936 0.0
O303 O 0.42644 0.51809 0.35166 0.0
C304 C 0.35795 0.48317 0.27376 0.0
O305 O 0.36956 0.5037 0.25289 0.0
O306 O 0.38414 0.56633 0.30386 0.0
C307 C 0.41437 0.53325 0.37407 0.0
O308 O 0.38558 0.54703 0.37018 0.0
C309 C 0.44556 0.48366 0.2698 0.0
O310 O 0.43296 0.45664 0.28298 0.0
O311 O 0.36963 0.48444 0.30141 0.0
C312 C 0.00865 0.04753 0.9693 0.0
N313 N 0.99645 0.02759 0.06161 0.0
C314 C 0.9688 0.04632 0.05912 0.0
C315 C 0.94131 0.03454 0.07253 0.0
C316 C 0.94202 0.00264 0.08768 0.0
C317 C 0.97119 0.98472 0.09171 0.0
C318 C 0.99857 0.99809 0.07872 0.0
Zn319 Zn 0.03251 0.04215 0.03483 0.0
C320 C 0.06708 0.98394 0.01007 0.0
N321 N 0.10527 0.07568 0.97707 0.0
C322 C 0.10115 0.1035 0.95798 0.0
C323 C 0.13366 0.05841 0.9797 0.0
C324 C 0.15988 0.07002 0.96409 0.0
C325 C 0.15712 0.10019 0.94611 0.0
C326 C 0.1271 0.11654 0.9424 0.0
Zn327 Zn 0.06999 0.06057 0.00456 0.0
O328 O 1.00021 0.04007 0.99613 0.0
C329 C 0.03479 0.11866 0.02892 0.0
O330 O 0.0372 0.0579 0.96566 0.0
H331 H 0.13655 0.03661 0.99522 0.0
H332 H 0.96721 0.06922 0.04488 0.0
H333 H 0.07819 0.1166 0.956 0.0
O334 O 0.02082 0.09366 0.04148 0.0
O335 O 0.05757 0.11262 0.01151 0.0
H336 H 0.02086 0.98375 0.0806 0.0
O337 O 0.10291 0.06241 0.04457 0.0
O338 O 0.06457 0.04371 0.07319 0.0
O339 O 0.08182 0.00854 -0.00241 0.0
O340 O 0.04469 0.99058 0.02775 0.0
C341 C 0.09348 0.05346 0.07086 0.0
H342 H 0.91893 0.04852 0.06835 0.0
H343 H 0.97223 0.95973 0.10295 0.0
H344 H 0.18282 0.05714 0.96826 0.0
H345 H 0.12425 0.14008 0.92901 0.0
C346 C 0.35156 0.7807 0.24937 0.0
N347 N 0.26059 0.75592 0.21045 0.0
C348 C 0.27054 0.77747 0.18799 0.0
C349 C 0.26968 0.76705 0.15756 0.0
C350 C 0.25889 0.73393 0.15012 0.0
C351 C 0.24605 0.71327 0.17319 0.0
C352 C 0.2471 0.72491 0.2035 0.0
Zn353 Zn 0.27757 0.76736 0.25389 0.0
C354 C 0.30475 0.70776 0.28714 0.0
N355 N 0.32267 0.79484 0.33911 0.0
C356 C 0.3398 0.8241 0.34474 0.0
C357 C 0.314 0.77372 0.36237 0.0
C358 C 0.32086 0.78269 0.39282 0.0
C359 C 0.33649 0.81388 0.39938 0.0
C360 C 0.34698 0.83423 0.375 0.0
Zn361 Zn 0.30422 0.78374 0.29649 0.0
O362 O 0.32527 0.7716 0.2353 0.0
C363 C 0.27779 0.8437 0.26243 0.0
O364 O 0.35081 0.78924 0.27746 0.0
H365 H 0.30002 0.75081 0.3574 0.0
H366 H 0.28216 0.80154 0.19383 0.0
H367 H 0.34642 0.84041 0.32582 0.0
O368 O 0.26846 0.8196 0.24475 0.0
O369 O 0.29366 0.83651 0.28745 0.0
H370 H 0.23956 0.70807 0.2217 0.0
O371 O 0.25727 0.77759 0.31569 0.0
O372 O 0.23039 0.76266 0.27325 0.0
O373 O 0.31509 0.73159 0.30469 0.0
O374 O 0.28681 0.71508 0.26348 0.0
C375 C 0.23061 0.76903 0.30198 0.0
H376 H 0.28022 0.7836 0.14063 0.0
H377 H 0.23718 0.68764 0.16819 0.0
H378 H 0.31192 0.76658 0.41094 0.0
H379 H 0.35927 0.85842 0.37929 0.0
C380 C 0.54273 0.02834 0.60192 0.0
N381 N 0.58886 0.9485 0.56078 0.0
C382 C 0.61102 0.95083 0.58488 0.0
C383 C 0.62091 0.92164 0.60134 0.0
C384 C 0.60744 0.88983 0.59326 0.0
C385 C 0.58638 0.88763 0.56696 0.0
C386 C 0.57738 0.91761 0.55082 0.0
Zn387 Zn 0.5683 0.99331 0.54641 0.0
C388 C 0.49658 0.98728 0.53697 0.0
N389 N 0.52593 0.08905 0.52398 0.0
C390 C 0.5379 0.11702 0.53913 0.0
C391 C 0.5063 0.09218 0.4981 0.0
C392 C 0.50025 0.12453 0.48499 0.0
C393 C 0.51517 0.15362 0.49839 0.0
C394 C 0.53304 0.14969 0.52656 0.0
Zn395 Zn 0.54481 0.04303 0.53633 0.0
O396 O 0.55887 0.00281 0.59336 0.0
C397 C 0.61657 0.04879 0.54566 0.0
O398 O 0.53472 0.05168 0.58242 0.0
H399 H 0.49708 0.06946 0.48653 0.0
H400 H 0.6192 0.97562 0.59305 0.0
H401 H 0.55337 0.1138 0.55976 0.0
O402 O 0.61387 0.01674 0.54996 0.0
O403 O 0.59123 0.06676 0.54139 0.0
H404 H 0.55965 0.91646 0.53172 0.0
O405 O 0.55484 0.03419 0.48988 0.0
O406 O 0.57752 0.98409 0.49966 0.0
O407 O 0.49885 0.01931 0.53138 0.0
O408 O 0.52216 0.9698 0.54235 0.0
C409 C 0.57006 0.00828 0.48066 0.0
H410 H 0.63677 0.92445 0.62176 0.0
H411 H 0.57566 0.86333 0.56005 0.0
H412 H 0.48554 0.12645 0.46373 0.0
H413 H 0.54527 0.17114 0.53771 0.0
C414 C 0.31299 0.19829 0.75383 0.0
N415 N 0.27782 0.22018 0.83932 0.0
C416 C 0.27175 0.18583 0.83947 0.0
C417 C 0.28405 0.16518 0.86388 0.0
C418 C 0.30356 0.17993 0.8878 0.0
C419 C 0.30562 0.21602 0.88871 0.0
C420 C 0.29197 0.23571 0.86445 0.0
Zn421 Zn 0.28297 0.2457 0.7984 0.0
C422 C 0.35274 0.27211 0.80208 0.0
N423 N 0.30688 0.29787 0.71551 0.0
C424 C 0.30026 0.28295 0.68772 0.0
C425 C 0.31895 0.33034 0.71734 0.0
C426 C 0.32433 0.34928 0.69066 0.0
C427 C 0.31792 0.33461 0.66153 0.0
C428 C 0.30585 0.30079 0.6604 0.0
Zn429 Zn 0.29793 0.27196 0.75566 0.0
O430 O 0.30082 0.20007 0.77988 0.0
C431 C 0.22748 0.24502 0.75386 0.0
O432 O 0.31452 0.22527 0.73727 0.0
H433 H 0.32415 0.34179 0.73959 0.0
H434 H 0.26036 0.17392 0.81933 0.0
H435 H 0.29057 0.25716 0.6867 0.0
O436 O 0.23579 0.23376 0.78074 0.0
O437 O 0.24823 0.2612 0.7385 0.0
H438 H 0.29668 0.26305 0.86393 0.0
O439 O 0.28102 0.31807 0.77479 0.0
O440 O 0.2652 0.2918 0.81623 0.0
O441 O 0.34735 0.28215 0.77429 0.0
O442 O 0.33006 0.25772 0.81561 0.0
C443 C 0.26765 0.31919 0.80035 0.0
H444 H 0.28014 0.13771 0.86275 0.0
H445 H 0.32011 0.22914 0.90633 0.0
H446 H 0.33294 0.37543 0.69302 0.0
H447 H 0.30094 0.28799 0.63869 0.0
C448 C 0.11593 0.98935 0.54518 0.0
N449 N 0.07331 0.03823 0.46668 0.0
C450 C 0.10042 0.05744 0.46415 0.0
C451 C 0.11067 0.06649 0.43508 0.0
C452 C 0.09281 0.05545 0.40864 0.0
C453 C 0.06406 0.03735 0.41207 0.0
C454 C 0.05477 0.0289 0.44139 0.0
Zn455 Zn 0.06072 0.01796 0.50753 0.0
C456 C 0.04761 0.94054 0.49756 0.0
N457 N 0.0299 0.971 0.58922 0.0
C458 C 0.04857 0.98107 0.61419 0.0
C459 C 1.00053 0.95632 0.59243 0.0
C460 C 0.98787 0.95395 0.62151 0.0
C461 C 0.00573 0.96674 0.64731 0.0
C462 C 0.03699 0.97901 0.6435 0.0
Zn463 Zn 0.04331 0.9899 0.54791 0.0
O464 O 0.10987 0.00636 0.52042 0.0
C465 C 0.05597 0.06774 0.55693 0.0
O466 O 0.09266 0.97967 0.56095 0.0
H467 H 0.98595 0.94876 0.57228 0.0
H468 H 0.1148 0.06445 0.4846 0.0
H469 H 0.07141 0.99361 0.61127 0.0
O470 O 0.06528 0.06671 0.52958 0.0
O471 O 0.04621 0.04009 0.56926 0.0
H472 H 0.03338 0.01352 0.44383 0.0
O473 O 0.99426 0.00054 0.53435 0.0
O474 O 0.01167 0.02958 0.49524 0.0
O475 O 0.04017 0.93999 0.52564 0.0
O476 O 0.05608 0.96899 0.48578 0.0
C477 C 0.98834 0.01906 0.51049 0.0
H478 H 0.13314 0.0803 0.4333 0.0
H479 H 0.04947 0.02874 0.39223 0.0
H480 H 0.96377 0.94388 0.62356 0.0
H481 H 0.05145 0.98964 0.66257 0.0
C482 C 0.28539 0.76646 0.70502 0.0
N483 N 0.35307 0.71809 0.7669 0.0
C484 C 0.36219 0.69758 0.74383 0.0
C485 C 0.39394 0.68578 0.74372 0.0
C486 C 0.41622 0.695 0.76775 0.0
C487 C 0.40545 0.71438 0.79212 0.0
C488 C 0.37388 0.72614 0.79098 0.0
Zn489 Zn 0.30902 0.74076 0.7661 0.0
C490 C 0.31814 0.81761 0.77101 0.0
N491 N 0.21986 0.79223 0.76978 0.0
C492 C 0.19621 0.78031 0.74978 0.0
C493 C 0.21339 0.81484 0.79219 0.0
C494 C 0.18165 0.8243 0.7966 0.0
C495 C 0.15652 0.81015 0.77782 0.0
C496 C 0.16416 0.78897 0.75343 0.0
Zn497 Zn 0.26384 0.76996 0.76941 0.0
O498 O 0.30889 0.74951 0.71752 0.0
C499 C 0.25513 0.69306 0.76392 0.0
O500 O 0.26264 0.77588 0.72128 0.0
H501 H 0.23261 0.8238 0.80786 0.0
H502 H 0.34522 0.69153 0.72493 0.0
H503 H 0.20194 0.76233 0.73213 0.0
O504 O 0.28546 0.69253 0.76139 0.0
O505 O 0.24098 0.72172 0.76623 0.0
H506 H 0.36643 0.74286 0.80892 0.0
O507 O 0.26484 0.76348 0.81823 0.0
O508 O 0.30848 0.73294 0.81417 0.0
O509 O 0.28764 0.81845 0.77229 0.0
O510 O 0.33226 0.7887 0.77072 0.0
C511 C 0.28684 0.74448 0.83068 0.0
H512 H 0.40129 0.67123 0.72424 0.0
H513 H 0.4216 0.72163 0.81134 0.0
H514 H 0.17671 0.84042 0.81591 0.0
H515 H 0.14545 0.7778 0.73836 0.0
C516 C 0.52598 0.96526 0.07454 0.0
N517 N 0.53489 0.06328 0.11167 0.0
C518 C 0.51667 0.04812 0.13307 0.0
C519 C 0.52779 0.04662 0.16384 0.0
C520 C 0.55783 0.06101 0.17255 0.0
C521 C 0.57386 0.08061 0.15073 0.0
C522 C 0.56191 0.08133 0.12012 0.0
Zn523 Zn 0.52881 0.04487 0.06809 0.0
C524 C 0.59126 0.02748 0.04279 0.0
N525 N 0.51722 0.99714 0.98127 0.0
C526 C 0.49317 0.97449 0.97386 0.0
C527 C 0.53555 0.01111 0.95937 0.0
C528 C 0.52862 0.00426 0.92842 0.0
C529 C 0.50247 0.98299 0.91992 0.0
C530 C 0.48535 0.96694 0.94305 0.0
Zn531 Zn 0.52291 0.0167 0.02426 0.0
O532 O 0.52746 0.9939 0.08839 0.0
C533 C 0.46013 0.03472 0.04908 0.0
O534 O 0.5239 0.96564 0.04523 0.0
H535 H 0.55447 0.02919 0.9657 0.0
H536 H 0.49546 0.03357 0.12588 0.0
H537 H 0.47888 0.96381 0.99168 0.0
O538 O 0.47829 0.04923 0.06947 0.0
O539 O 0.47253 0.01865 0.02743 0.0
H540 H 0.57601 0.09323 0.10274 0.0
O541 O 0.52259 0.06796 0.0037 0.0
O542 O 0.53105 0.09504 0.04731 0.0
O543 O 0.57285 0.01502 0.02156 0.0
O544 O 0.57916 0.04074 0.06599 0.0
C545 C 0.52746 0.09605 0.01803 0.0
H546 H 0.51462 0.03122 0.17979 0.0
H547 H 0.59676 0.09281 0.15672 0.0
H548 H 0.54264 0.01674 0.91124 0.0
H549 H 0.46486 0.95053 0.93736 0.0
C550 C 0.27898 0.22773 0.26322 0.0
N551 N 0.31887 0.28757 0.19568 0.0
C552 C 0.34335 0.26435 0.19795 0.0
C553 C 0.35555 0.25066 0.17151 0.0
C554 C 0.34242 0.26101 0.14245 0.0
C555 C 0.31939 0.28751 0.14082 0.0
C556 C 0.30777 0.30041 0.1679 0.0
Zn557 Zn 0.29352 0.29572 0.23375 0.0
C558 C 0.2227 0.28615 0.21808 0.0
N559 N 0.23849 0.30671 0.31298 0.0
C560 C 0.25069 0.29118 0.33927 0.0
C561 C 0.21638 0.33235 0.31397 0.0
C562 C 0.20827 0.34564 0.34226 0.0
C563 C 0.22343 0.33271 0.36972 0.0
C564 C 0.24354 0.30386 0.36798 0.0
Zn565 Zn 0.2624 0.29917 0.27359 0.0
O566 O 0.29458 0.24233 0.2425 0.0
C567 C 0.33327 0.3045 0.28934 0.0
O568 O 0.26251 0.24583 0.28069 0.0
H569 H 0.20701 0.34441 0.29282 0.0
H570 H 0.35171 0.25437 0.22026 0.0
H571 H 0.2684 0.27097 0.33805 0.0
O572 O 0.33608 0.30223 0.26058 0.0
O573 O 0.30562 0.3034 0.30016 0.0
H574 H 0.2883 0.31888 0.16664 0.0
O575 O 0.26391 0.35303 0.26627 0.0
O576 O 0.29277 0.34873 0.22575 0.0
O577 O 0.21923 0.29312 0.24623 0.0
O578 O 0.25051 0.28835 0.20747 0.0
C579 C 0.27968 0.36729 0.24539 0.0
H580 H 0.37306 0.2301 0.17397 0.0
H581 H 0.309 0.29663 0.11887 0.0
H582 H 0.19199 0.36733 0.34246 0.0
H583 H 0.256 0.29304 0.38834 0.0
C584 C 0.61069 0.50463 0.04358 0.0
N585 N 0.55604 0.55008 0.97023 0.0
C586 C 0.58242 0.57003 0.96628 0.0
C587 C 0.592 0.57748 0.9367 0.0
C588 C 0.57421 0.56418 0.91115 0.0
C589 C 0.54556 0.54625 0.91591 0.0
C590 C 0.53694 0.53933 0.94583 0.0
Zn591 Zn 0.54838 0.52972 0.01233 0.0
C592 C 0.53898 0.45216 0.00685 0.0
N593 N 0.53309 0.48416 0.09943 0.0
C594 C 0.55201 0.49572 0.12365 0.0
C595 C 0.50643 0.46478 0.1038 0.0
C596 C 0.49644 0.45877 0.13352 0.0
C597 C 0.51403 0.47301 0.15878 0.0
C598 C 0.5429 0.49038 0.15368 0.0
Zn599 Zn 0.54089 0.50404 0.05699 0.0
O600 O 0.59897 0.52069 0.01994 0.0
C601 C 0.55 0.5819 0.06202 0.0
O602 O 0.59177 0.49477 0.06395 0.0
H603 H 0.49168 0.45602 0.08418 0.0
H604 H 0.59722 0.57826 0.98606 0.0
H605 H 0.57303 0.51119 0.11964 0.0
O606 O 0.55289 0.57953 0.03314 0.0
O607 O 0.5456 0.5545 0.0775 0.0
H608 H 0.5161 0.52346 0.94953 0.0
O609 O 0.49027 0.51339 0.04948 0.0
O610 O 0.4977 0.53828 0.00506 0.0
O611 O 0.53574 0.4541 0.03575 0.0
O612 O 0.54403 0.47968 0.99178 0.0
C613 C 0.47867 0.52871 0.0254 0.0
H614 H 0.61438 0.59118 0.93403 0.0
H615 H 0.53098 0.53597 0.89676 0.0
H616 H 0.47391 0.44543 0.13644 0.0
H617 H 0.55733 0.50137 0.17259 0.0
C618 C 0.79643 0.27676 0.21772 0.0
N619 N 0.86824 0.22943 0.27613 0.0
C620 C 0.87716 0.2115 0.25137 0.0
C621 C 0.9097 0.20499 0.24752 0.0
C622 C 0.93306 0.21727 0.26931 0.0
C623 C 0.92295 0.2336 0.29563 0.0
C624 C 0.89025 0.23944 0.2986 0.0
Zn625 Zn 0.82287 0.24818 0.27797 0.0
C626 C 0.82651 0.32414 0.28976 0.0
N627 N 0.73096 0.29265 0.28394 0.0
C628 C 0.70798 0.28478 0.26167 0.0
C629 C 0.72432 0.31261 0.30819 0.0
C630 C 0.69303 0.32406 0.31158 0.0
C631 C 0.66847 0.31521 0.28957 0.0
C632 C 0.67647 0.29615 0.26388 0.0
Zn633 Zn 0.77545 0.27267 0.28168 0.0
O634 O 0.82144 0.26166 0.22943 0.0
C635 C 0.77126 0.19653 0.27147 0.0
O636 O 0.77326 0.28291 0.23452 0.0
H637 H 0.74308 0.31864 0.32549 0.0
H638 H 0.85922 0.204 0.23377 0.0
H639 H 0.71385 0.26884 0.24258 0.0
O640 O 0.80172 0.1985 0.26987 0.0
O641 O 0.75513 0.2238 0.27479 0.0
H642 H 0.88266 0.25381 0.31805 0.0
O643 O 0.77736 0.26149 0.32962 0.0
O644 O 0.8236 0.23561 0.32527 0.0
O645 O 0.79602 0.32192 0.28852 0.0
O646 O 0.84327 0.29721 0.28724 0.0
C647 C 0.80048 0.2437 0.34162 0.0
H648 H 0.91658 0.19259 0.22671 0.0
H649 H 0.94024 0.24318 0.31301 0.0
H650 H 0.68796 0.33817 0.33207 0.0
H651 H 0.6584 0.28913 0.24618 0.0
C652 C 0.04316 0.4268 0.54965 0.0
N653 N 0.04433 0.52144 0.59258 0.0
C654 C 0.02179 0.50592 0.60956 0.0
C655 C 0.02469 0.5068 0.6416 0.0
C656 C 0.0511 0.52367 0.65615 0.0
C657 C 0.07186 0.5427 0.63797 0.0
C658 C 0.06798 0.54124 0.60599 0.0
Zn659 Zn 0.04907 0.50478 0.54896 0.0
C660 C 0.11663 0.4843 0.54018 0.0
N661 N 0.05912 0.46365 0.46028 0.0
C662 C 0.03676 0.44117 0.44847 0.0
C663 C 0.08039 0.47948 0.44212 0.0
C664 C 0.07713 0.47611 0.41024 0.0
C665 C 0.05193 0.45606 0.39723 0.0
C666 C 0.03286 0.43679 0.41675 0.0
Zn667 Zn 0.05444 0.48137 0.50346 0.0
O668 O 0.0437 0.45366 0.56596 0.0
C669 C 0.98666 0.49853 0.51424 0.0
O670 O 0.04664 0.42996 0.52087 0.0
H671 H 0.09807 0.49711 0.4521 0.0
H672 H 1.00323 0.49017 0.59843 0.0
H673 H 0.02 0.42906 0.46336 0.0
O674 O 0.99951 0.50776 0.53993 0.0
O675 O 0.00404 0.48734 0.49348 0.0
H676 H 0.08567 0.55325 0.59203 0.0
O677 O 0.06142 0.53357 0.48658 0.0
O678 O 0.05419 0.55623 0.53154 0.0
O679 O 0.10454 0.47442 0.51427 0.0
O680 O 0.09897 0.50012 0.55821 0.0
C681 C 0.05905 0.56023 0.50306 0.0
H682 H 0.00782 0.49233 0.65478 0.0
H683 H 0.09269 0.55593 0.64815 0.0
H684 H 0.0924 0.49118 0.39584 0.0
H685 H 0.01295 0.42133 0.40759 0.0
C686 C 0.8027 0.67827 0.28294 0.0
N687 N 0.76267 0.71202 0.36415 0.0
C688 C 0.75269 0.67876 0.3656 0.0
C689 C 0.74762 0.6631 0.39393 0.0
C690 C 0.75161 0.6821 0.42125 0.0
C691 C 0.75926 0.71728 0.41859 0.0
C692 C 0.76545 0.73149 0.38992 0.0
Zn693 Zn 0.7763 0.73187 0.3229 0.0
C694 C 0.84862 0.75033 0.32711 0.0
N695 N 0.80499 0.77259 0.23826 0.0
C696 C 0.79276 0.75383 0.21412 0.0
C697 C 0.81621 0.80507 0.23421 0.0
C698 C 0.81232 0.82101 0.20534 0.0
C699 C 0.79672 0.80317 0.18082 0.0
C700 C 0.7885 0.76863 0.1851 0.0
Zn701 Zn 0.79418 0.75421 0.2801 0.0
O702 O 0.79101 0.68166 0.30909 0.0
C703 C 0.72176 0.73707 0.27564 0.0
O704 O 0.80535 0.70448 0.26582 0.0
H705 H 0.82565 0.81955 0.25377 0.0
H706 H 0.7498 0.66376 0.34489 0.0
H707 H 0.78303 0.72846 0.21776 0.0
O708 O 0.72758 0.7247 0.30263 0.0
O709 O 0.74504 0.75001 0.26172 0.0
H710 H 0.77334 0.7579 0.38853 0.0
O711 O 0.78329 0.8041 0.2945 0.0
O712 O 0.76262 0.78256 0.33575 0.0
O713 O 0.84312 0.75893 0.29894 0.0
O714 O 0.82511 0.73968 0.3424 0.0
C715 C 0.76885 0.80853 0.31908 0.0
H716 H 0.74212 0.63594 0.39418 0.0
H717 H 0.76146 0.73372 0.43847 0.0
H718 H 0.81951 0.8476 0.20272 0.0
H719 H 0.77602 0.75403 0.16706 0.0
C720 C 0.84911 0.26245 0.7535 0.0
N721 N 0.75747 0.24351 0.71342 0.0
C722 C 0.76792 0.26601 0.69192 0.0
C723 C 0.76839 0.25662 0.6613 0.0
C724 C 0.75852 0.22355 0.65272 0.0
C725 C 0.74466 0.20209 0.67461 0.0
C726 C 0.74428 0.21274 0.70515 0.0
Zn727 Zn 0.77457 0.25244 0.75737 0.0
C728 C 0.79876 0.18901 0.7883 0.0
N729 N 0.81969 0.27445 0.84451 0.0
C730 C 0.83559 0.30443 0.85043 0.0
C731 C 0.8094 0.25419 0.8677 0.0
C732 C 0.81257 0.2652 0.89808 0.0
C733 C 0.82622 0.29747 0.90454 0.0
C734 C 0.83907 0.31655 0.8805 0.0
Zn735 Zn 0.80172 0.26439 0.80111 0.0
O736 O 0.82231 0.25594 0.73907 0.0
C737 C 0.77647 0.32726 0.7689 0.0
O738 O 0.84893 0.26863 0.78219 0.0
H739 H 0.79633 0.23074 0.86247 0.0
H740 H 0.77936 0.28986 0.69871 0.0
H741 H 0.8435 0.32015 0.83162 0.0
O742 O 0.76683 0.30447 0.75012 0.0
O743 O 0.79244 0.31837 0.79344 0.0
H744 H 0.73625 0.19515 0.72256 0.0
O745 O 0.75471 0.25988 0.81961 0.0
O746 O 0.7272 0.24903 0.77644 0.0
O747 O 0.81013 0.21052 0.80788 0.0
O748 O 0.78212 0.19983 0.7649 0.0
C749 C 0.72768 0.25409 0.8054 0.0
H750 H 0.77962 0.27378 0.64528 0.0
H751 H 0.73645 0.17646 0.66866 0.0
H752 H 0.80213 0.24984 0.91591 0.0
H753 H 0.85017 0.34139 0.8847 0.0
C754 C 0.83402 0.65398 0.80585 0.0
N755 N 0.88218 0.70919 0.73865 0.0
C756 C 0.89926 0.6795 0.73745 0.0
C757 C 0.90742 0.66657 0.70915 0.0
C758 C 0.89848 0.6848 0.68189 0.0
C759 C 0.88506 0.71774 0.68445 0.0
C760 C 0.87639 0.72914 0.71309 0.0
Zn761 Zn 0.85813 0.71949 0.77711 0.0
C762 C 0.78733 0.72036 0.76356 0.0
N763 N 0.80675 0.73834 0.85638 0.0
C764 C 0.81729 0.72605 0.88452 0.0
C765 C 0.78534 0.76471 0.85338 0.0
C766 C 0.77655 0.78238 0.8792 0.0
C767 C 0.78992 0.77274 0.90833 0.0
C768 C 0.80905 0.743 0.91105 0.0
Zn769 Zn 0.83065 0.72652 0.81858 0.0
O770 O 0.85177 0.66574 0.78527 0.0
C771 C 0.90051 0.72924 0.83298 0.0
O772 O 0.82384 0.67429 0.82577 0.0
H773 H 0.77754 0.77431 0.83078 0.0
H774 H 0.90415 0.66429 0.75812 0.0
H775 H 0.83427 0.70498 0.8863 0.0
O776 O 0.90213 0.72299 0.80444 0.0
O777 O 0.8735 0.72659 0.84496 0.0
H778 H 0.86279 0.75269 0.7144 0.0
O779 O 0.83692 0.77993 0.81109 0.0
O780 O 0.8631 0.77263 0.7694 0.0
O781 O 0.78805 0.72624 0.79215 0.0
O782 O 0.8136 0.7176 0.75015 0.0
C783 C 0.85197 0.79256 0.78909 0.0
H784 H 0.91779 0.6411 0.70867 0.0
H785 H 0.87874 0.73335 0.66427 0.0
H786 H 0.76192 0.80528 0.87593 0.0
H787 H 0.81934 0.73436 0.93321 0.0
C788 C 0.48894 0.54703 0.48917 0.0
N789 N 0.45054 0.53243 0.57501 0.0
C790 C 0.43216 0.56092 0.56912 0.0
C791 C 0.39881 0.5593 0.57045 0.0
C792 C 0.38391 0.52773 0.57666 0.0
C793 C 0.40363 0.49963 0.58565 0.0
C794 C 0.43711 0.50266 0.58493 0.0
Zn795 Zn 0.49585 0.53244 0.55837 0.0
C796 C 0.51265 0.46613 0.53295 0.0
N797 N 0.58711 0.53599 0.51742 0.0
C798 C 0.60148 0.56625 0.50996 0.0
C799 C 0.60491 0.50686 0.52232 0.0
C800 C 0.63834 0.50834 0.52366 0.0
C801 C 0.6536 0.54024 0.52104 0.0
C802 C 0.63505 0.56912 0.51221 0.0
Zn803 Zn 0.54163 0.53599 0.53401 0.0
O804 O 0.4741 0.54444 0.51391 0.0
C805 C 0.52537 0.60231 0.55991 0.0
O806 O 0.51953 0.54543 0.49035 0.0
H807 H 0.59375 0.48305 0.52883 0.0
H808 H 0.4429 0.58431 0.56086 0.0
H809 H 0.58717 0.5891 0.50548 0.0
O810 O 0.50194 0.58474 0.56909 0.0
O811 O 0.54532 0.58842 0.54293 0.0
H812 H 0.45201 0.4803 0.5898 0.0
O813 O 0.56352 0.5261 0.57806 0.0
O814 O 0.51887 0.52006 0.6023 0.0
O815 O 0.5367 0.48382 0.52562 0.0
O816 O 0.49068 0.48008 0.54752 0.0
C817 C 0.54958 0.52053 0.60288 0.0
H818 H 0.38477 0.58206 0.56447 0.0
H819 H 0.39344 0.47477 0.59079 0.0
H820 H 0.65186 0.48557 0.53086 0.0
H821 H 0.64618 0.59416 0.50996 0.0
C822 C 0.03135 0.53958 0.09619 0.0
N823 N 0.07752 0.45606 0.05822 0.0
C824 C 0.09786 0.45692 0.08379 0.0
C825 C 0.11129 0.42665 0.09618 0.0
C826 C 0.10379 0.39523 0.08201 0.0
C827 C 0.0835 0.3952 0.05509 0.0
C828 C 0.07049 0.42609 0.04356 0.0
Zn829 Zn 0.05647 0.50067 0.04306 0.0
C830 C 0.98493 0.49331 0.03322 0.0
N831 N 0.01255 0.59505 0.01452 0.0
C832 C 0.02153 0.62448 0.02923 0.0
C833 C 0.99266 0.5957 0.98863 0.0
C834 C 0.98231 0.62702 0.97565 0.0
C835 C 0.99239 0.65785 0.98962 0.0
C836 C 0.01156 0.65632 0.01718 0.0
Zn837 Zn 0.03276 0.54984 0.0294 0.0
O838 O 0.0461 0.51247 0.08901 0.0
C839 C 0.10466 0.55632 0.03875 0.0
O840 O 0.02444 0.5621 0.07553 0.0
H841 H 0.98579 0.57194 0.97737 0.0
H842 H 0.10321 0.4811 0.09499 0.0
H843 H 0.03755 0.62333 0.04966 0.0
O844 O 0.10197 0.52498 0.04655 0.0
O845 O 0.07931 0.57368 0.03185 0.0
H846 H 0.05419 0.42606 0.02331 0.0
O847 O 0.04108 0.53711 0.98326 0.0
O848 O 0.06614 0.48937 0.99709 0.0
O849 O 0.98675 0.52529 0.02711 0.0
O850 O 0.01076 0.47636 0.03902 0.0
C851 C 0.057 0.51078 0.97615 0.0
H852 H 0.12698 0.42776 0.11685 0.0
H853 H 0.07671 0.37143 0.04374 0.0
H854 H 0.96733 0.62716 0.95448 0.0
H855 H 0.02022 0.67951 0.02845 0.0
C856 C 0.00758 0.18584 0.08145 0.0
C857 C 0.0335 0.20867 0.08024 0.0
H858 H 0.98675 0.1392 0.06452 0.0
C859 C 0.05355 0.20755 0.05538 0.0
H860 H 0.99194 0.18639 0.10058 0.0
C861 C 0.05126 0.17995 0.03512 0.0
C862 C 0.02876 0.15367 0.03974 0.0
H863 H 0.07385 0.22495 0.05429 0.0
H864 H 0.06957 0.17711 0.01856 0.0
C865 C 0.00494 0.15862 0.06099 0.0
C866 C 0.14253 0.75722 0.32423 0.0
C867 C 0.14516 0.76244 0.35633 0.0
H868 H 0.16706 0.75496 0.28181 0.0
C869 C 0.17595 0.7699 0.36979 0.0
H870 H 0.11934 0.75137 0.31294 0.0
C871 C 0.20309 0.77201 0.35207 0.0
C872 C 0.20075 0.76665 0.32007 0.0
H873 H 0.17929 0.77415 0.39431 0.0
H874 H 0.22613 0.77778 0.36373 0.0
C875 C 0.16997 0.75922 0.30635 0.0
C876 C 0.58682 0.81838 0.64755 0.0
C877 C 0.61703 0.8106 0.66204 0.0
H878 H 0.56036 0.84912 0.61405 0.0
C879 C 0.64448 0.82815 0.65279 0.0
H880 H 0.56519 0.80519 0.654 0.0
C881 C 0.64167 0.85313 0.62954 0.0
C882 C 0.61143 0.86075 0.61508 0.0
H883 H 0.66811 0.82245 0.66332 0.0
H884 H 0.66308 0.86662 0.62293 0.0
C885 C 0.58408 0.8431 0.62426 0.0
C886 C 0.44358 0.27972 0.82261 0.0
C887 C 0.44454 0.27434 0.8548 0.0
H888 H 0.41387 0.28371 0.78038 0.0
C889 C 0.41515 0.27056 0.86896 0.0
H890 H 0.46574 0.28287 0.81091 0.0
C891 C 0.38586 0.27109 0.85169 0.0
C892 C 0.38462 0.27553 0.81949 0.0
H893 H 0.4146 0.26662 0.8936 0.0
H894 H 0.36399 0.26747 0.86379 0.0
C895 C 0.41387 0.2804 0.80512 0.0
C896 C 0.04991 0.88419 0.42682 0.0
C897 C 0.04807 0.85061 0.4389 0.0
H898 H 0.05115 0.93809 0.43545 0.0
C899 C 0.0455 0.84659 0.47094 0.0
H900 H 0.0519 0.88854 0.40237 0.0
C901 C 0.04475 0.87553 0.49024 0.0
C902 C 0.04693 0.90909 0.47795 0.0
H903 H 0.04389 0.82114 0.48107 0.0
H904 H 0.04287 0.87162 0.51475 0.0
C905 C 0.04949 0.91281 0.44596 0.0
C906 C 0.50572 0.71104 0.76742 0.0
C907 C 0.51637 0.68188 0.75227 0.0
H908 H 0.4658 0.73832 0.78354 0.0
C909 C 0.49469 0.65474 0.74608 0.0
H910 H 0.52187 0.73232 0.77266 0.0
C911 C 0.46229 0.65803 0.75261 0.0
C912 C 0.45114 0.68843 0.76555 0.0
H913 H 0.50225 0.63183 0.73454 0.0
H914 H 0.44577 0.63735 0.74648 0.0
C915 C 0.47347 0.71436 0.77385 0.0
C916 C 0.52887 0.16105 0.95147 0.0
C917 C 0.54229 0.19034 0.96594 0.0
H918 H 0.51375 0.10855 0.95634 0.0
C919 C 0.54942 0.18867 -0.00202 0.0
H920 H 0.52301 0.1613 0.92691 0.0
C921 C 0.5437 0.15857 0.01497 0.0
C922 C 0.53102 0.12901 0.00041 0.0
H923 H 0.55959 0.21069 0.01004 0.0
H924 H 0.54993 0.15826 0.03946 0.0
C925 C 0.52352 0.13076 0.96842 0.0
C926 C 0.15551 0.22275 0.20414 0.0
C927 C 0.16607 0.20637 0.17796 0.0
H928 H 0.16469 0.26245 0.2372 0.0
C929 C 0.19102 0.22093 0.16189 0.0
H930 H 0.13604 0.21188 0.21668 0.0
C931 C 0.20655 0.25047 0.17282 0.0
C932 C 0.19837 0.26506 0.20084 0.0
H933 H 0.19911 0.20888 0.14136 0.0
H934 H 0.22689 0.25996 0.16068 0.0
C935 C 0.17159 0.25195 0.21558 0.0
C936 C 0.12521 0.04049 0.15319 0.0
C937 C 0.15641 0.05429 0.15282 0.0
H938 H 0.08114 0.0295 0.12787 0.0
C939 C 0.16703 0.06795 0.12505 0.0
H940 H 0.11619 0.02982 0.17415 0.0
C941 C 0.14678 0.06767 0.0982 0.0
C942 C 0.11552 0.05391 0.09875 0.0
H943 H 0.19095 0.0788 0.12403 0.0
H944 H 0.15552 0.07833 0.07713 0.0
C945 C 0.10503 0.04037 0.12657 0.0
C946 C 0.34087 0.81657 0.48626 0.0
C947 C 0.32898 0.8497 0.4912 0.0
H948 H 0.35326 0.77931 0.453 0.0
C949 C 0.32236 0.87176 0.46587 0.0
H950 H 0.34646 0.79914 0.50539 0.0
C951 C 0.32656 0.86059 0.43611 0.0
C952 C 0.33731 0.82708 0.43104 0.0
H953 H 0.31347 0.89759 0.46893 0.0
H954 H 0.32 0.87772 0.417 0.0
C955 C 0.34488 0.80528 0.45637 0.0
C956 C 0.48018 0.03835 0.66078 0.0
C957 C 0.48966 0.01301 0.68268 0.0
H958 H 0.49025 0.06405 0.61871 0.0
C959 C 0.519 0.99575 0.67971 0.0
H960 H 0.45793 0.05245 0.66268 0.0
C961 C 0.53754 0.00228 0.65437 0.0
C962 C 0.5274 0.02669 0.63182 0.0
H963 H 0.52707 0.97626 0.69635 0.0
H964 H 0.55918 0.98732 0.65186 0.0
C965 C 0.49898 0.04534 0.6358 0.0
C966 C 0.35445 0.1052 0.92069 0.0
C967 C 0.36366 0.11694 0.95016 0.0
H968 H 0.32872 0.11557 0.87794 0.0
C969 C 0.35437 0.14985 0.95885 0.0
H970 H 0.36192 0.08005 0.91335 0.0
C971 C 0.3348 0.17021 0.93885 0.0
C972 C 0.3241 0.15808 0.9096 0.0
H973 H 0.36171 0.15957 0.98136 0.0
H974 H 0.3272 0.19487 0.94704 0.0
C975 C 0.33488 0.12548 0.90064 0.0
C976 C 0.11975 0.03376 0.32977 0.0
C977 C 0.13401 0.06468 0.32067 0.0
H978 H 0.09571 0.00672 0.36478 0.0
C979 C 0.13301 0.09339 0.33995 0.0
H980 H 0.12012 0.01121 0.3154 0.0
C981 C 0.1191 0.09076 0.36841 0.0
C982 C 0.10559 0.05953 0.37778 0.0
H983 H 0.14391 0.11755 0.33356 0.0
H984 H 0.11919 0.11297 0.38321 0.0
C985 C 0.10562 0.03125 0.35798 0.0
C986 C 0.31668 0.82011 0.64088 0.0
C987 C 0.28799 0.82841 0.62383 0.0
H988 H 0.33853 0.79237 0.67942 0.0
C989 C 0.2593 0.81178 0.63106 0.0
H990 H 0.3392 0.8323 0.63559 0.0
C991 C 0.25887 0.78924 0.65628 0.0
C992 C 0.28728 0.78212 0.67417 0.0
H993 H 0.23684 0.81759 0.61826 0.0
H994 H 0.23605 0.7786 0.66269 0.0
C995 C 0.3164 0.79683 0.66562 0.0
C996 C 0.47446 0.01007 0.83932 0.0
C997 C 0.46339 0.97888 0.82674 0.0
H998 H 0.4954 0.03569 0.87867 0.0
C999 C 0.46712 0.94849 0.84438 0.0
H1000 H 0.47197 0.03389 0.82629 0.0
C1001 C 0.4806 0.94952 0.87447 0.0
C1002 C 0.49089 0.98088 0.88727 0.0
H1003 H 0.45883 0.92404 0.83528 0.0
H1004 H 0.48264 0.92589 0.88784 0.0
C1005 C 0.48811 0.01104 0.86925 0.0
C1006 C 0.32667 0.20611 0.07232 0.0
C1007 C 0.35666 0.19015 0.06959 0.0
H1008 H 0.29874 0.24089 0.09732 0.0
C1009 C 0.38318 0.20115 0.08836 0.0
H1010 H 0.30579 0.19848 0.05799 0.0
C1011 C 0.37919 0.22597 0.1109 0.0
C1012 C 0.34865 0.24029 0.11492 0.0
H1013 H 0.40666 0.18951 0.08664 0.0
H1014 H 0.39974 0.233 0.12591 0.0
C1015 C 0.3227 0.23084 0.0947 0.0
C1016 C 0.24426 0.1079 0.93559 0.0
C1017 C 0.2504 0.13668 0.95424 0.0
H1018 H 0.20805 0.07374 0.91695 0.0
C1019 C 0.22521 0.15969 0.95901 0.0
H1020 H 0.26347 0.09039 0.93052 0.0
C1021 C 0.19351 0.15026 0.95095 0.0
C1022 C 0.18702 0.11783 0.93816 0.0
H1023 H 0.22938 0.18266 0.97249 0.0
H1024 H 0.17422 0.16597 0.95895 0.0
C1025 C 0.21257 0.09848 0.92756 0.0
C1026 C 0.69762 0.49285 0.02273 0.0
C1027 C 0.71043 0.47203 0.04705 0.0
H1028 H 0.65655 0.51967 0.00271 0.0
C1029 C 0.69067 0.46393 0.07138 0.0
H1030 H 0.71209 0.49978 0.00365 0.0
C1031 C 0.6586 0.47538 0.07083 0.0
C1032 C 0.64553 0.49529 0.04597 0.0
H1033 H 0.69969 0.44799 0.09051 0.0
H1034 H 0.64384 0.46791 0.08954 0.0
C1035 C 0.66568 0.50435 0.02221 0.0
C1036 C 0.84751 0.41556 0.26945 0.0
C1037 C 0.87727 0.41959 0.28586 0.0
H1038 H 0.80735 0.38223 0.2589 0.0
C1039 C 0.88919 0.39282 0.30516 0.0
H1040 H 0.83781 0.43599 0.25457 0.0
C1041 C 0.87225 0.36191 0.30704 0.0
C1042 C 0.84255 0.35782 0.29056 0.0
H1043 H 0.91216 0.39537 0.31797 0.0
H1044 H 0.88247 0.34108 0.32112 0.0
C1045 C 0.83 0.38507 0.27218 0.0
C1046 C 0.90386 0.52673 0.48598 0.0
C1047 C 0.88569 0.51435 0.51013 0.0
H1048 H 0.95093 0.53076 0.46809 0.0
C1049 C 0.90024 0.49175 0.53216 0.0
H1050 H 0.89324 0.54401 0.46858 0.0
C1051 C 0.93305 0.48499 0.5322 0.0
C1052 C 0.95164 0.49976 0.50969 0.0
H1053 H 0.88693 0.48142 0.55089 0.0
H1054 H 0.94426 0.46962 0.55076 0.0
C1055 C 0.93676 0.51922 0.48565 0.0
C1056 C 0.2467 0.1396 0.27898 0.0
C1057 C 0.26077 0.12033 0.25613 0.0
H1058 H 0.242 0.18866 0.29965 0.0
C1059 C 0.2848 0.13528 0.23899 0.0
H1060 H 0.22847 0.12843 0.29291 0.0
C1061 C 0.29251 0.17 0.24278 0.0
C1062 C 0.27642 0.18999 0.26393 0.0
H1063 H 0.29609 0.12087 0.22135 0.0
H1064 H 0.30972 0.18157 0.22796 0.0
C1065 C 0.25454 0.17407 0.28295 0.0
C1066 C 0.40755 0.97763 0.5508 0.0
C1067 C 0.40588 0.94297 0.56007 0.0
H1068 H 0.43739 0.01876 0.53561 0.0
C1069 C 0.43383 0.92267 0.55968 0.0
H1070 H 0.3864 0.99388 0.55053 0.0
C1071 C 0.46285 0.93673 0.55078 0.0
C1072 C 0.46477 0.97151 0.54205 0.0
H1073 H 0.43343 0.89578 0.56637 0.0
H1074 H 0.48398 0.92041 0.55141 0.0
C1075 C 0.4367 0.99177 0.5419 0.0
C1076 C 0.83829 0.61085 0.23323 0.0
C1077 C 0.85397 0.58936 0.25541 0.0
H1078 H 0.8096 0.65599 0.22469 0.0
C1079 C 0.84979 0.59533 0.28677 0.0
H1080 H 0.84097 0.60679 0.20892 0.0
C1081 C 0.83112 0.62298 0.29579 0.0
C1082 C 0.81692 0.64554 0.27361 0.0
H1083 H 0.86133 0.57892 0.30436 0.0
H1084 H 0.82921 0.6277 0.32011 0.0
C1085 C 0.82025 0.63891 0.24225 0.0
C1086 C 0.74174 0.40451 0.72651 0.0
C1087 C 0.73352 0.4255 0.75085 0.0
H1088 H 0.76235 0.35699 0.71331 0.0
C1089 C 0.74307 0.41571 0.78124 0.0
H1090 H 0.73501 0.41151 0.70286 0.0
C1091 C 0.75931 0.38469 0.78722 0.0
C1092 C 0.76581 0.36285 0.76291 0.0
H1093 H 0.73745 0.43168 0.80046 0.0
H1094 H 0.76521 0.37699 0.81086 0.0
C1095 C 0.75754 0.37339 0.7325 0.0
C1096 C 0.05197 0.88968 -0.00155 0.0
C1097 C 0.06325 0.886 0.9689 0.0
H1098 H 0.04444 0.92443 0.03517 0.0
C1099 C 0.08202 0.91207 0.95645 0.0
H1100 H 0.0373 0.86982 0.00835 0.0
C1101 C 0.08657 0.94299 0.97188 0.0
C1102 C 0.07161 0.94851 -0.00043 0.0
H1103 H 0.09102 0.90954 0.93367 0.0
H1104 H 0.0991 0.9636 0.96059 0.0
C1105 C 0.0559 0.92096 0.01366 0.0
C1106 C 0.90635 0.25575 0.68807 0.0
C1107 C 0.9372 0.25632 0.70322 0.0
H1108 H 0.85522 0.25727 0.69158 0.0
C1109 C 0.93894 0.25972 0.73553 0.0
H1110 H 0.90369 0.2532 0.66331 0.0
C1111 C 0.91061 0.26237 0.752 0.0
C1112 C 0.87979 0.26145 0.73664 0.0
H1113 H 0.96215 0.26038 0.74808 0.0
H1114 H 0.91286 0.26473 0.7768 0.0
C1115 C 0.87828 0.25814 0.70441 0.0
C1116 C 0.5218 0.249 0.48194 0.0
C1117 C 0.52399 0.24939 0.44991 0.0
H1118 H 0.5152 0.21868 0.52226 0.0
C1119 C 0.52118 0.21859 0.43362 0.0
H1120 H 0.52313 0.27265 0.49487 0.0
C1121 C 0.51741 0.18757 0.4493 0.0
C1122 C 0.51556 0.1869 0.48152 0.0
H1123 H 0.52267 0.21842 0.40884 0.0
H1124 H 0.51701 0.16409 0.43618 0.0
C1125 C 0.51719 0.2181 0.49757 0.0
C1126 C 0.65024 0.76107 0.22029 0.0
C1127 C 0.62432 0.74376 0.23308 0.0
H1128 H 0.70089 0.77211 0.22318 0.0
C1129 C 0.63089 0.72387 0.26003 0.0
H1130 H 0.64633 0.77647 0.19954 0.0
C1131 C 0.66228 0.7215 0.27383 0.0
C1132 C 0.68823 0.73858 0.26087 0.0
H1133 H 0.61166 0.7101 0.27064 0.0
H1134 H 0.66622 0.70617 0.29461 0.0
C1135 C 0.68168 0.75835 0.23384 0.0
C1136 C 0.03651 0.13518 0.61626 0.0
C1137 C 0.0544 0.16373 0.6068 0.0
H1138 H 0.02342 0.08248 0.60837 0.0
C1139 C 0.07275 0.1604 0.58072 0.0
H1140 H 0.02224 0.13674 0.63628 0.0
C1141 C 0.0731 0.12946 0.56444 0.0
C1142 C 0.0556 0.10074 0.57413 0.0
H1143 H 0.08678 0.18185 0.5727 0.0
H1144 H 0.08739 0.12795 0.54442 0.0
C1145 C 0.03734 0.104 0.60031 0.0
C1146 C 0.59562 0.35464 0.32313 0.0
C1147 C 0.57318 0.32787 0.31918 0.0
H1148 H 0.64322 0.37238 0.31554 0.0
C1149 C 0.58039 0.29976 0.30089 0.0
H1150 H 0.59034 0.37692 0.3367 0.0
C1151 C 0.61085 0.29677 0.28937 0.0
C1152 C 0.6344 0.32215 0.29556 0.0
H1153 H 0.56344 0.2788 0.29741 0.0
H1154 H 0.61654 0.27335 0.27762 0.0
C1155 C 0.62591 0.35195 0.31117 0.0
C1156 C 0.52924 0.90373 0.14348 0.0
C1157 C 0.53157 0.87111 0.13008 0.0
H1158 H 0.52566 0.95815 0.13693 0.0
C1159 C 0.53164 0.86953 0.0977 0.0
H1160 H 0.52909 0.90629 0.16823 0.0
C1161 C 0.52947 0.89981 0.07942 0.0
C1162 C 0.52734 0.93241 0.09306 0.0
H1163 H 0.53332 0.84494 0.08649 0.0
H1164 H 0.52971 0.89769 0.05464 0.0
C1165 C 0.52725 0.93373 0.12538 0.0
C1166 C 0.95097 0.80789 0.83885 0.0
C1167 C 0.94034 0.82066 0.86651 0.0
H1168 H 0.94807 0.7667 0.80668 0.0
C1169 C 0.92437 0.79881 0.88635 0.0
H1170 H 0.96336 0.82458 0.82328 0.0
C1171 C 0.91707 0.76518 0.87772 0.0
C1172 C 0.92349 0.75374 0.84804 0.0
H1173 H 0.91618 0.80827 0.90791 0.0
H1174 H 0.90265 0.74979 0.89267 0.0
C1175 C 0.94269 0.77451 0.82965 0.0
C1176 C 0.97645 0.03085 0.8879 0.0
C1177 C 0.94396 0.02326 0.89241 0.0
H1178 H 0.02234 0.04516 0.90867 0.0
C1179 C 0.93266 0.02527 0.92215 0.0
H1180 H 0.98581 0.02978 0.86519 0.0
C1181 C 0.95356 0.03403 0.947 0.0
C1182 C 0.98613 0.04128 0.94258 0.0
H1183 H 0.90773 0.0197 0.92633 0.0
H1184 H 0.94424 0.03478 0.96976 0.0
C1185 C 0.99731 0.03996 0.91275 0.0
C1186 C 0.79662 0.16656 0.59551 0.0
C1187 C 0.79418 0.18683 0.56856 0.0
H1188 H 0.78676 0.16212 0.64301 0.0
C1189 C 0.77873 0.2189 0.56915 0.0
H1190 H 0.80827 0.14166 0.59581 0.0
C1191 C 0.76583 0.23034 0.59617 0.0
C1192 C 0.76818 0.20994 0.62305 0.0
H1193 H 0.77607 0.23491 0.54865 0.0
H1194 H 0.75412 0.25521 0.59609 0.0
C1195 C 0.78373 0.17797 0.62243 0.0
C1196 C 0.59624 0.04451 0.40499 0.0
C1197 C 0.62051 0.02137 0.39768 0.0
H1198 H 0.56058 0.05795 0.4363 0.0
C1199 C 0.62543 0.99164 0.41607 0.0
H1200 H 0.59146 0.0674 0.39111 0.0
C1201 C 0.60751 0.98605 0.44203 0.0
C1202 C 0.58421 0.01002 0.45009 0.0
H1203 H 0.64371 0.97308 0.41091 0.0
H1204 H 0.6129 0.96371 0.45645 0.0
C1205 C 0.57828 0.03887 0.4308 0.0
C1206 C 0.7698 0.82045 0.09773 0.0
C1207 C 0.75624 0.85332 0.09958 0.0
H1208 H 0.79493 0.77955 0.12174 0.0
C1209 C 0.75666 0.86986 0.12809 0.0
H1210 H 0.77046 0.80744 0.07589 0.0
C1211 C 0.77062 0.85391 0.15433 0.0
C1212 C 0.78473 0.82126 0.15246 0.0
H1213 H 0.74654 0.89535 0.13005 0.0
H1214 H 0.76984 0.86694 0.17614 0.0
C1215 C 0.78414 0.80467 0.12391 0.0
C1216 C 0.99653 0.9754 0.73298 0.0
C1217 C 0.96529 0.98898 0.73369 0.0
H1218 H 0.03339 0.95642 0.70524 0.0
C1219 C 0.9467 0.99305 0.70593 0.0
H1220 H 0.0113 0.97144 0.754 0.0
C1221 C 0.95939 0.98445 0.67797 0.0
C1222 C 0.99088 0.97147 0.67719 0.0
H1223 H 0.92246 0.00326 0.70573 0.0
H1224 H 0.94489 0.98912 0.6569 0.0
C1225 C 0.00915 0.96664 0.70505 0.0
C1226 C 0.81864 0.18599 0.41074 0.0
C1227 C 0.78869 0.18507 0.42421 0.0
H1228 H 0.84611 0.20586 0.37437 0.0
C1229 C 0.7639 0.20679 0.41238 0.0
H1230 H 0.83836 0.16985 0.41949 0.0
C1231 C 0.76846 0.22779 0.38671 0.0
C1232 C 0.79787 0.22733 0.37223 0.0
H1233 H 0.74065 0.20702 0.42247 0.0
H1234 H 0.74843 0.24315 0.3774 0.0
C1235 C 0.82316 0.20684 0.38498 0.0
C1236 C 0.57321 0.03309 0.25599 0.0
C1237 C 0.6058 0.02339 0.25638 0.0
H1238 H 0.5326 0.05371 0.22944 0.0
C1239 C 0.62259 0.0275 0.22943 0.0
H1240 H 0.5597 0.03061 0.27648 0.0
C1241 C 0.60719 0.04085 0.20268 0.0
C1242 C 0.5746 0.05053 0.20215 0.0
H1243 H 0.64774 0.02038 0.22891 0.0
H1244 H 0.62069 0.04262 0.18213 0.0
C1245 C 0.55775 0.04653 0.22913 0.0
C1246 C 0.75982 0.84222 0.95948 0.0
C1247 C 0.78791 0.85011 0.97746 0.0
H1248 H 0.73796 0.81045 0.92439 0.0
C1249 C 0.8157 0.83026 0.97455 0.0
H1250 H 0.73783 0.85671 0.96164 0.0
C1251 C 0.81581 0.80389 0.95311 0.0
C1252 C 0.78801 0.79666 0.93438 0.0
H1253 H 0.83764 0.83566 0.98823 0.0
H1254 H 0.83813 0.79025 0.95029 0.0
C1255 C 0.75983 0.81564 0.93826 0.0
C1256 C 0.85511 0.99012 0.10331 0.0
C1257 C 0.84715 0.96437 0.08191 0.0
H1258 H 0.89264 0.02285 0.12219 0.0
C1259 C 0.87156 0.94726 0.06725 0.0
H1260 H 0.83646 0.0034 0.11494 0.0
C1261 C 0.90348 0.95732 0.07231 0.0
C1262 C 0.91122 0.98521 0.09147 0.0
H1263 H 0.86582 0.92693 0.05102 0.0
H1264 H 0.92171 0.94528 0.05918 0.0
C1265 C 0.88706 0.00094 0.1077 0.0
C1266 C 0.39169 0.54295 0.04489 0.0
C1267 C 0.37865 0.5597 0.01824 0.0
H1268 H 0.43317 0.51975 0.06795 0.0
C1269 C 0.3982 0.56388 0.99306 0.0
H1270 H 0.37735 0.53917 0.06469 0.0
C1271 C 0.43039 0.55294 0.99501 0.0
C1272 C 0.44375 0.5373 0.0221 0.0
H1273 H 0.38899 0.57668 0.97217 0.0
H1274 H 0.44502 0.55748 0.97552 0.0
C1275 C 0.42377 0.53177 0.04676 0.0
C1276 C 0.23485 0.60311 0.79067 0.0
C1277 C 0.20107 0.60492 0.79099 0.0
H1278 H 0.27862 0.62941 0.78103 0.0
C1279 C 0.18536 0.63468 0.77941 0.0
H1280 H 0.24763 0.58035 0.79909 0.0
C1281 C 0.20299 0.66247 0.76883 0.0
C1282 C 0.2368 0.66122 0.76945 0.0
H1283 H 0.15936 0.63684 0.77895 0.0
H1284 H 0.19011 0.68542 0.761 0.0
C1285 C 0.25257 0.63099 0.77991 0.0
C1286 C 0.18878 0.42621 0.55288 0.0
C1287 C 0.20101 0.43675 0.58194 0.0
H1288 H 0.15317 0.43398 0.51608 0.0
C1289 C 0.18735 0.4652 0.59576 0.0
H1290 H 0.19847 0.40376 0.54225 0.0
C1291 C 0.16135 0.4825 0.58096 0.0
C1292 C 0.14838 0.47141 0.55218 0.0
H1293 H 0.19648 0.4737 0.61821 0.0
H1294 H 0.15055 0.50364 0.59268 0.0
C1295 C 0.16291 0.4436 0.53793 0.0
C1296 C 0.8998 0.87367 0.77963 0.0
C1297 C 0.88292 0.89708 0.79707 0.0
H1298 H 0.90263 0.82252 0.76267 0.0
C1299 C 0.85418 0.88665 0.80987 0.0
H1300 H 0.9219 0.88113 0.76925 0.0
C1301 C 0.84329 0.85281 0.80634 0.0
C1302 C 0.86056 0.82927 0.78932 0.0
H1303 H 0.84074 0.90425 0.82339 0.0
H1304 H 0.82172 0.84488 0.81741 0.0
C1305 C 0.88857 0.84021 0.77553 0.0
C1306 C 0.68164 0.11353 0.52984 0.0
C1307 C 0.70762 0.09207 0.52344 0.0
H1308 H 0.63257 0.11676 0.54216 0.0
C1309 C 0.70396 0.05634 0.52625 0.0
H1310 H 0.68373 0.14122 0.528 0.0
C1311 C 0.67479 0.04237 0.53503 0.0
C1312 C 0.64857 0.06384 0.54073 0.0
H1313 H 0.72364 0.03919 0.5218 0.0
H1314 H 0.67252 0.01467 0.53643 0.0
C1315 C 0.65237 0.09957 0.53818 0.0
C1316 C 0.22085 0.38288 0.84574 0.0
C1317 C 0.21861 0.41111 0.82531 0.0
H1318 H 0.23825 0.3316 0.85397 0.0
C1319 C 0.23449 0.40966 0.79767 0.0
H1320 H 0.20898 0.38326 0.86728 0.0
C1321 C 0.25144 0.38026 0.79017 0.0
C1322 C 0.25272 0.35151 0.81005 0.0
H1323 H 0.23347 0.43108 0.78152 0.0
H1324 H 0.26279 0.37978 0.76836 0.0
C1325 C 0.23765 0.3533 0.83814 0.0
C1326 C 0.35827 0.63356 0.31185 0.0
C1327 C 0.34046 0.60552 0.30021 0.0
H1328 H 0.36036 0.68799 0.31745 0.0
C1329 C 0.31005 0.61102 0.28533 0.0
H1330 H 0.38169 0.62983 0.32362 0.0
C1331 C 0.29808 0.64437 0.28125 0.0
C1332 C 0.31601 0.67243 0.29281 0.0
H1333 H 0.29595 0.58966 0.27615 0.0
H1334 H 0.27492 0.64823 0.26903 0.0
C1335 C 0.34596 0.66672 0.30853 0.0
C1336 C 0.53409 0.66575 0.62309 0.0
C1337 C 0.5638 0.68065 0.61689 0.0
H1338 H 0.49735 0.63034 0.60867 0.0
C1339 C 0.57679 0.67564 0.58826 0.0
H1340 H 0.52324 0.67009 0.6448 0.0
C1341 C 0.5621 0.65255 0.56754 0.0
C1342 C 0.53411 0.63475 0.57522 0.0
H1343 H 0.59949 0.68739 0.58293 0.0
H1344 H 0.57406 0.64662 0.54673 0.0
C1345 C 0.51909 0.64332 0.60221 0.0
C1346 C 0.63877 0.25698 0.82609 0.0
C1347 C 0.64166 0.25954 0.85846 0.0
H1348 H 0.6633 0.25294 0.78382 0.0
C1349 C 0.67289 0.25915 0.87273 0.0
H1350 H 0.61519 0.25711 0.8142 0.0
C1351 C 0.70025 0.25682 0.85544 0.0
C1352 C 0.69761 0.25462 0.8231 0.0
H1353 H 0.67639 0.26098 0.89751 0.0
H1354 H 0.72368 0.257 0.86763 0.0
C1355 C 0.66639 0.25446 0.80863 0.0
C1356 C 0.13002 0.30255 0.09133 0.0
C1357 C 0.12466 0.29638 0.12252 0.0
H1358 H 0.12777 0.33893 0.054 0.0
C1359 C 0.11694 0.32413 0.14114 0.0
H1360 H 0.1362 0.28174 0.0764 0.0
C1361 C 0.11203 0.35683 0.12824 0.0
C1362 C 0.11473 0.36235 0.09651 0.0
H1363 H 0.11285 0.32021 0.1653 0.0
H1364 H 0.10412 0.37724 0.14278 0.0
C1365 C 0.12494 0.33522 0.07841 0.0
C1366 C 0.91862 0.74338 0.38753 0.0
C1367 C 0.94588 0.74982 0.37044 0.0
H1368 H 0.86727 0.73854 0.38764 0.0
C1369 C 0.94076 0.75726 0.33878 0.0
H1370 H 0.92133 0.73756 0.41193 0.0
C1371 C 0.90932 0.75805 0.32473 0.0
C1372 C 0.88214 0.75123 0.34191 0.0
H1373 H 0.96103 0.76244 0.32482 0.0
H1374 H 0.90636 0.76363 0.3003 0.0
C1375 C 0.88739 0.74397 0.37353 0.0
C1376 C 0.52458 0.35708 0.98972 0.0
C1377 C 0.53521 0.35409 0.95964 0.0
H1378 H 0.51764 0.38985 0.02822 0.0
C1379 C 0.54733 0.38367 0.9454 0.0
H1380 H 0.51515 0.3349 0.00151 0.0
C1381 C 0.54829 0.41539 0.96063 0.0
C1382 C 0.53765 0.41835 0.99072 0.0
H1383 H 0.55562 0.38246 0.92228 0.0
H1384 H 0.55758 0.43763 0.9488 0.0
C1385 C 0.52601 0.38865 0.00512 0.0
C1386 C 0.01612 0.24973 0.25346 0.0
C1387 C 0.02874 0.22164 0.23815 0.0
H1388 H 0.9757 0.27028 0.27536 0.0
C1389 C 0.01166 0.19035 0.23755 0.0
H1390 H 0.02874 0.2741 0.25445 0.0
C1391 C 0.98124 0.18818 0.24944 0.0
C1392 C 0.96751 0.21711 0.26247 0.0
H1393 H 0.02089 0.16804 0.22625 0.0
H1394 H 0.96786 0.16434 0.24722 0.0
C1395 C 0.98576 0.24748 0.26554 0.0
C1396 C 0.06015 0.63299 0.44314 0.0
C1397 C 0.05676 0.66244 0.46121 0.0
H1398 H 0.06382 0.57794 0.44198 0.0
C1399 C 0.05545 0.65787 0.4933 0.0
H1400 H 0.06132 0.63537 0.41841 0.0
C1401 C 0.05689 0.62494 0.50685 0.0
C1402 C 0.0598 0.59544 0.48878 0.0
H1403 H 0.05292 0.6798 0.50809 0.0
H1404 H 0.05531 0.62262 0.53155 0.0
C1405 C 0.06168 0.59998 0.45673 0.0
C1406 C 0.69948 0.69916 0.7508 0.0
C1407 C 0.69535 0.69903 0.71861 0.0
H1408 H 0.73144 0.70657 0.78996 0.0
C1409 C 0.72223 0.70449 0.70086 0.0
H1410 H 0.67937 0.69474 0.76517 0.0
C1411 C 0.75249 0.71136 0.71524 0.0
C1412 C 0.75605 0.71313 0.74747 0.0
H1413 H 0.7197 0.7046 0.67596 0.0
H1414 H 0.77283 0.71598 0.70122 0.0
C1415 C 0.72937 0.70631 0.76503 0.0
C1416 C 0.57523 0.50587 0.68722 0.0
C1417 C 0.6085 0.51294 0.68745 0.0
H1418 H 0.53039 0.50279 0.66044 0.0
C1419 C 0.62213 0.52174 0.65965 0.0
H1420 H 0.56394 0.49905 0.70829 0.0
C1421 C 0.60298 0.52349 0.63227 0.0
C1422 C 0.56961 0.51684 0.63202 0.0
H1423 H 0.64764 0.52722 0.65898 0.0
H1424 H 0.61438 0.53055 0.6113 0.0
C1425 C 0.55595 0.50798 0.65982 0.0
C1426 C 0.82441 0.30698 0.99103 0.0
C1427 C 0.81284 0.34074 0.9934 0.0
H1428 H 0.83821 0.2669 0.961 0.0
C1429 C 0.80675 0.36038 0.96642 0.0
H1430 H 0.82949 0.29125 0.01141 0.0
C1431 C 0.81206 0.34656 0.9377 0.0
C1432 C 0.8234 0.31274 0.93529 0.0
H1433 H 0.79797 0.38652 0.96745 0.0
H1434 H 0.80652 0.36212 0.9173 0.0
C1435 C 0.82949 0.29305 0.96222 0.0
C1436 C 0.98543 0.57275 0.16266 0.0
C1437 C 0.97879 0.54195 0.17826 0.0
H1438 H 0.00746 0.5963 0.1242 0.0
C1439 C 0.99223 0.51117 0.16838 0.0
H1440 H 0.97555 0.59689 0.16996 0.0
C1441 C 0.01127 0.51099 0.14294 0.0
C1442 C 0.0167 0.54147 0.12635 0.0
H1443 H 0.98795 0.48712 0.18026 0.0
H1444 H 0.02046 0.4866 0.13546 0.0
C1445 C 1.00388 0.57246 0.13665 0.0
C1446 C 0.7734 0.65914 0.50496 0.0
C1447 C 0.75944 0.62654 0.50767 0.0
H1448 H 0.78338 0.70127 0.47576 0.0
C1449 C 0.73955 0.61393 0.48331 0.0
H1450 H 0.78922 0.66924 0.52333 0.0
C1451 C 0.73485 0.63314 0.45604 0.0
C1452 C 0.75113 0.66466 0.45211 0.0
H1453 H 0.72834 0.58888 0.48508 0.0
H1454 H 0.71928 0.62255 0.43779 0.0
C1455 C 0.76977 0.6777 0.47743 0.0
C1456 C 0.60543 0.5315 0.83725 0.0
C1457 C 0.62266 0.56 0.82685 0.0
H1458 H 0.57659 0.51064 0.87193 0.0
C1459 C 0.6211 0.59123 0.84263 0.0
H1460 H 0.60597 0.50715 0.82544 0.0
C1461 C 0.60407 0.59329 0.8694 0.0
C1462 C 0.58805 0.56426 0.88053 0.0
H1463 H 0.63406 0.61367 0.83504 0.0
H1464 H 0.60413 0.61726 0.88182 0.0
C1465 C 0.58828 0.53362 0.86374 0.0
C1466 C 0.76177 0.31606 0.14379 0.0
C1467 C 0.78844 0.33385 0.13308 0.0
H1468 H 0.74362 0.28363 0.17892 0.0
C1469 C 0.81886 0.32876 0.1483 0.0
H1470 H 0.73805 0.31922 0.13253 0.0
C1471 C 0.82219 0.30755 0.17457 0.0
C1472 C 0.79504 0.2916 0.18629 0.0
H1473 H 0.83994 0.34185 0.1404 0.0
H1474 H 0.84554 0.30542 0.18677 0.0
C1475 C 0.76498 0.29547 0.17025 0.0
C1476 C 0.01711 0.50048 0.32612 0.0
C1477 C 0.00437 0.47267 0.30921 0.0
H1478 H 0.04302 0.51677 0.36707 0.0
C1479 C 0.01214 0.43898 0.3189 0.0
H1480 H 0.01166 0.52669 0.31897 0.0
C1481 C 0.02998 0.43323 0.34665 0.0
C1482 C 0.04077 0.46112 0.36468 0.0
H1483 H 1.00258 0.41709 0.30622 0.0
H1484 H 0.03384 0.40708 0.35484 0.0
C1485 C 0.03536 0.49476 0.35349 0.0
C1486 C 0.86226 0.64944 0.60764 0.0
C1487 C 0.88106 0.61993 0.60427 0.0
H1488 H 0.85272 0.69279 0.63472 0.0
C1489 C 0.90985 0.61616 0.62244 0.0
H1490 H 0.84023 0.65348 0.59358 0.0
C1491 C 0.91764 0.63948 0.64597 0.0
C1492 C 0.89658 0.6667 0.65184 0.0
H1493 H 0.92517 0.59397 0.61999 0.0
H1494 H 0.93902 0.63485 0.66077 0.0
C1495 C 0.86978 0.67241 0.63121 0.0
C1496 C 0.71567 0.55975 0.58344 0.0
C1497 C 0.73929 0.53542 0.57769 0.0
H1498 H 0.67031 0.58164 0.56849 0.0
C1499 C 0.73745 0.51712 0.55007 0.0
H1500 H 0.71685 0.57403 0.60471 0.0
C1501 C 0.71079 0.52126 0.52939 0.0
C1502 C 0.68602 0.54407 0.53605 0.0
H1503 H 0.75559 0.49818 0.54541 0.0
H1504 H 0.7084 0.50501 0.50934 0.0
C1505 C 0.68941 0.56443 0.56252 0.0
C1506 C 0.18714 0.95217 0.59275 0.0
C1507 C 0.21263 0.95714 0.57324 0.0
H1508 H 0.13684 0.95836 0.59926 0.0
C1509 C 0.20637 0.97458 0.54502 0.0
H1510 H 0.19102 0.93889 0.61465 0.0
C1511 C 0.17517 0.98585 0.53618 0.0
C1512 C 0.14949 0.97978 0.55527 0.0
H1513 H 0.22543 0.9789 0.52943 0.0
H1514 H 0.17105 0.99859 0.51405 0.0
C1515 C 0.15597 0.96327 0.58386 0.0
C1516 C 0.38511 0.87452 0.74431 0.0
C1517 C 0.37068 0.90711 0.74328 0.0
H1518 H 0.38036 0.82118 0.75487 0.0
C1519 C 0.33921 0.91053 0.7533 0.0
H1520 H 0.40946 0.87102 0.73721 0.0
C1521 C 0.3223 0.88173 0.76346 0.0
C1522 C 0.33676 0.84908 0.76429 0.0
H1523 H 0.32753 0.93541 0.753 0.0
H1524 H 0.29781 0.88497 0.77022 0.0
C1525 C 0.36849 0.84595 0.75489 0.0
C1526 C 0.3719 0.01259 0.03749 0.0
C1527 C 0.35768 0.03974 0.05265 0.0
H1528 H 0.41585 0.99015 0.02392 0.0
C1529 C 0.37706 0.06493 0.06712 0.0
H1530 H 0.35712 0.993 0.02618 0.0
C1531 C 0.41053 0.06305 0.06637 0.0
C1532 C 0.42491 0.03632 0.05057 0.0
H1533 H 0.36627 0.08599 0.07898 0.0
H1534 H 0.42509 0.08284 0.07763 0.0
C1535 C 0.40533 0.01112 0.0361 0.0
C1536 C 0.76542 0.5915 0.80255 0.0
C1537 C 0.77217 0.57223 0.77662 0.0
H1538 H 0.78077 0.63105 0.8335 0.0
C1539 C 0.80249 0.57555 0.76414 0.0
H1540 H 0.74256 0.5888 0.81315 0.0
C1541 C 0.82454 0.60006 0.77572 0.0
C1542 C 0.8168 0.62114 0.80034 0.0
H1543 H 0.80847 0.56055 0.74442 0.0
H1544 H 0.84671 0.60396 0.76417 0.0
C1545 C 0.78766 0.61533 0.81455 0.0
C1546 C 0.92285 0.42575 0.05097 0.0
C1547 C 0.89446 0.44523 0.05212 0.0
H1548 H 0.97325 0.42539 0.04363 0.0
C1549 C 0.89565 0.48057 0.04514 0.0
H1550 H 0.92289 0.39842 0.05598 0.0
C1551 C 0.92477 0.49611 0.03774 0.0
C1552 C 0.95328 0.47662 0.03725 0.0
H1553 H 0.87417 0.49625 0.04558 0.0
H1554 H 0.92509 0.52353 0.03316 0.0
C1555 C 0.95182 0.44121 0.04367 0.0
C1556 C 0.3428 0.10659 0.75688 0.0
C1557 C 0.36035 0.10484 0.73026 0.0
H1558 H 0.31386 0.1372 0.78495 0.0
C1559 C 0.3602 0.13334 0.7101 0.0
H1560 H 0.34217 0.08503 0.7728 0.0
C1561 C 0.34387 0.16348 0.7171 0.0
C1562 C 0.32734 0.16557 0.74435 0.0
H1563 H 0.3734 0.13274 0.68933 0.0
H1564 H 0.34494 0.18538 0.70161 0.0
C1565 C 0.32647 0.13656 0.76382 0.0
C1566 C 0.24626 0.92008 0.21594 0.0
C1567 C 0.24464 0.94526 0.23862 0.0
H1568 H 0.25804 0.86815 0.20581 0.0
C1569 C 0.25674 0.93771 0.26879 0.0
H1570 H 0.23724 0.92514 0.1925 0.0
C1571 C 0.26894 0.90507 0.27639 0.0
C1572 C 0.26884 0.87936 0.25404 0.0
H1573 H 0.25604 0.95674 0.28672 0.0
H1574 H 0.27719 0.8996 0.29999 0.0
C1575 C 0.25806 0.88739 0.22362 0.0
C1576 C 0.52762 0.39309 0.48169 0.0
C1577 C 0.49595 0.3833 0.4732 0.0
H1578 H 0.55796 0.42621 0.50902 0.0
C1579 C 0.47044 0.39509 0.49004 0.0
H1580 H 0.54778 0.38337 0.46961 0.0
C1581 C 0.47625 0.41982 0.5127 0.0
C1582 C 0.50764 0.43254 0.51861 0.0
H1583 H 0.44588 0.38729 0.48409 0.0
H1584 H 0.45593 0.43111 0.52344 0.0
C1585 C 0.53347 0.4173 0.50445 0.0
C1586 C 0.44172 0.7805 0.23352 0.0
C1587 C 0.441 0.77437 0.20162 0.0
H1588 H 0.41435 0.78774 0.27362 0.0
C1589 C 0.41062 0.77124 0.18584 0.0
H1590 H 0.46455 0.78317 0.2465 0.0
C1591 C 0.38199 0.77374 0.2013 0.0
C1592 C 0.38254 0.77974 0.23315 0.0
H1593 H 0.4088 0.76654 0.16132 0.0
H1594 H 0.35928 0.77082 0.18813 0.0
C1595 C 0.41287 0.78329 0.24906 0.0
C1596 C 0.98961 0.72799 0.92882 0.0
C1597 C 0.98287 0.75708 0.94618 0.0
H1598 H 0.99772 0.67374 0.92901 0.0
C1599 C 0.97583 0.75279 0.9772 0.0
H1600 H 0.99482 0.73048 0.90477 0.0
C1601 C 0.97749 0.72025 0.99109 0.0
C1602 C 0.98585 0.6914 0.97411 0.0
H1603 H 0.97039 0.77473 0.99111 0.0
H1604 H 0.97308 0.71777 0.01532 0.0
C1605 C 0.99099 0.69545 0.94263 0.0
C1606 C 0.14817 0.25796 0.70626 0.0
C1607 C 0.12785 0.23351 0.71943 0.0
H1608 H 0.19551 0.28031 0.70621 0.0
C1609 C 0.14089 0.21257 0.74359 0.0
H1610 H 0.13909 0.27438 0.68749 0.0
C1611 C 0.17311 0.21623 0.75453 0.0
C1612 C 0.19351 0.24049 0.74128 0.0
H1613 H 0.12608 0.19344 0.7543 0.0
H1614 H 0.18208 0.19985 0.77338 0.0
C1615 C 0.18063 0.26119 0.71685 0.0
C1616 C 0.54038 0.65209 0.12175 0.0
C1617 C 0.54905 0.682 0.10566 0.0
H1618 H 0.5343 0.59727 0.12094 0.0
C1619 C 0.5584 0.67848 0.0752 0.0
H1620 H 0.53319 0.65368 0.14524 0.0
C1621 C 0.55887 0.64616 0.06118 0.0
C1622 C 0.55035 0.61623 0.07727 0.0
H1623 H 0.56526 0.70082 0.06201 0.0
H1624 H 0.56599 0.64465 0.03766 0.0
C1625 C 0.54119 0.61966 0.10782 0.0
C1626 C 0.08246 0.84584 0.81205 0.0
C1627 C 0.06475 0.81557 0.8168 0.0
H1628 H 0.12548 0.86795 0.79545 0.0
C1629 C 0.0748 0.78481 0.8038 0.0
H1630 H 0.07509 0.87011 0.8214 0.0
C1631 C 0.10363 0.78369 0.78887 0.0
C1632 C 0.12285 0.81331 0.78671 0.0
H1633 H 0.06155 0.76114 0.80686 0.0
H1634 H 0.11199 0.75907 0.78109 0.0
C1635 C 0.11134 0.84467 0.79725 0.0
C1636 C 0.03341 0.33012 0.56213 0.0
C1637 C 0.032 0.32768 0.59437 0.0
H1638 H 0.03815 0.36307 0.52265 0.0
C1639 C 0.03376 0.35814 0.61146 0.0
H1640 H 0.0322 0.30722 0.54819 0.0
C1641 C 0.03708 0.39008 0.59682 0.0
C1642 C 0.03891 0.39256 0.56464 0.0
H1643 H 0.03274 0.35737 0.63628 0.0
H1644 H 0.03849 0.41288 0.61091 0.0
C1645 C 0.0369 0.36216 0.54744 0.0
C1646 C 0.38723 0.30187 0.36142 0.0
C1647 C 0.41601 0.31485 0.35063 0.0
H1648 H 0.33811 0.28875 0.35024 0.0
C1649 C 0.4174 0.32487 0.31963 0.0
H1650 H 0.38564 0.29407 0.38527 0.0
C1651 C 0.39047 0.32127 0.2995 0.0
C1652 C 0.3617 0.30824 0.31029 0.0
H1653 H 0.43948 0.33479 0.31077 0.0
H1654 H 0.3921 0.32886 0.2756 0.0
C1655 C 0.36012 0.29889 0.34143 0.0
C1656 C 0.46702 0.53224 0.40489 0.0
C1657 C 0.43356 0.53777 0.40338 0.0
H1658 H 0.51091 0.53181 0.43298 0.0
C1659 C 0.41882 0.54867 0.42989 0.0
H1660 H 0.47916 0.5242 0.38478 0.0
C1661 C 0.43701 0.55295 0.45757 0.0
C1662 C 0.47041 0.54695 0.45918 0.0
H1663 H 0.3931 0.55333 0.4294 0.0
H1664 H 0.42482 0.56042 0.47783 0.0
C1665 C 0.48529 0.53702 0.43244 0.0
C1666 C 0.27172 0.7276 0.06491 0.0
C1667 C 0.28582 0.69492 0.06336 0.0
H1668 H 0.251 0.76517 0.09349 0.0
C1669 C 0.28979 0.67478 0.09031 0.0
H1670 H 0.26795 0.74356 0.04448 0.0
C1671 C 0.27984 0.68701 0.11821 0.0
C1672 C 0.26574 0.71967 0.11981 0.0
H1673 H 0.30046 0.64941 0.08989 0.0
H1674 H 0.28402 0.67122 0.1387 0.0
C1675 C 0.26175 0.73985 0.09289 0.0
C1676 C 0.11132 0.49034 0.91198 0.0
C1677 C 0.0998 0.51324 0.88871 0.0
H1678 H 0.10623 0.47086 0.95765 0.0
C1679 C 0.07196 0.53254 0.89333 0.0
H1680 H 0.13251 0.4748 0.90897 0.0
C1681 C 0.05691 0.53032 0.92121 0.0
C1682 C 0.06916 0.50842 0.94494 0.0
H1683 H 0.06232 0.55023 0.87577 0.0
H1684 H 0.03628 0.54659 0.92453 0.0
C1685 C 0.09604 0.4878 0.93975 0.0
C1686 C 0.35212 0.39999 0.60623 0.0
C1687 C 0.33141 0.39642 0.57992 0.0
H1688 H 0.36484 0.38297 0.65205 0.0
C1689 C 0.30797 0.37048 0.57946 0.0
H1690 H 0.37104 0.41917 0.6069 0.0
C1691 C 0.30365 0.3502 0.60574 0.0
C1692 C 0.32345 0.35474 0.63277 0.0
H1693 H 0.29244 0.36644 0.55899 0.0
H1694 H 0.28421 0.33166 0.605 0.0
C1695 C 0.34828 0.37939 0.63228 0.0
C1696 C 0.4679 0.4479 0.22842 0.0
C1697 C 0.46624 0.47956 0.24355 0.0
H1698 H 0.48456 0.42085 0.18964 0.0
C1699 C 0.48281 0.50798 0.23208 0.0
H1700 H 0.45538 0.42551 0.23674 0.0
C1701 C 0.49961 0.50522 0.20535 0.0
C1702 C 0.50005 0.47403 0.18936 0.0
H1703 H 0.48209 0.53268 0.24327 0.0
H1704 H 0.51097 0.52803 0.19642 0.0
C1705 C 0.48448 0.44522 0.20143 0.0
C1706 C 0.30592 0.69206 0.90291 0.0
C1707 C 0.27618 0.69205 0.91678 0.0
H1708 H 0.33283 0.7093 0.86518 0.0
C1709 C 0.25122 0.71307 0.90406 0.0
H1710 H 0.32578 0.6765 0.91226 0.0
C1711 C 0.25538 0.73226 0.87715 0.0
C1712 C 0.28454 0.73067 0.86234 0.0
H1713 H 0.2281 0.71397 0.91436 0.0
H1714 H 0.23521 0.74691 0.86713 0.0
C1715 C 0.31003 0.71108 0.87599 0.0
C1716 C 0.07351 0.47501 0.72987 0.0
C1717 C 0.09048 0.50027 0.74683 0.0
H1718 H 0.04781 0.46263 0.68759 0.0
C1719 C 0.09003 0.5344 0.73581 0.0
H1720 H 0.07339 0.44855 0.73785 0.0
C1721 C 0.07496 0.54266 0.70729 0.0
C1722 C 0.06025 0.5169 0.68908 0.0
H1723 H 0.10241 0.55459 0.74871 0.0
H1724 H 0.07611 0.56892 0.69888 0.0
C1725 C 0.05864 0.48322 0.70115 0.0
C1726 C 0.22851 0.40696 0.42534 0.0
C1727 C 0.23238 0.39005 0.454 0.0
H1728 H 0.22291 0.40238 0.37661 0.0
C1729 C 0.22953 0.35405 0.4551 0.0
H1730 H 0.23037 0.43468 0.42359 0.0
C1731 C 0.22466 0.33532 0.42788 0.0
C1732 C 0.22261 0.3522 0.39902 0.0
H1733 H 0.23209 0.34027 0.47685 0.0
H1734 H 0.22343 0.30756 0.42941 0.0
C1735 C 0.2238 0.38834 0.39826 0.0
C1736 C 0.29809 0.49299 0.57665 0.0
C1737 C 0.28366 0.5104 0.55108 0.0
H1738 H 0.34092 0.48553 0.60565 0.0
C1739 C 0.30143 0.53486 0.53541 0.0
H1740 H 0.2845 0.47436 0.58933 0.0
C1741 C 0.33363 0.54085 0.54423 0.0
C1742 C 0.34868 0.52314 0.56952 0.0
H1743 H 0.2907 0.54858 0.51561 0.0
H1744 H 0.34693 0.55858 0.53036 0.0
C1745 C 0.33034 0.49942 0.58591 0.0
C1746 C 0.91847 0.06374 0.4673 0.0
C1747 C 0.89368 0.05996 0.48779 0.0
H1748 H 0.96759 0.05366 0.45829 0.0
C1749 C 0.89947 0.03984 0.5146 0.0
H1750 H 0.91484 0.07887 0.44636 0.0
C1751 C 0.92986 0.02524 0.52143 0.0
C1752 C 0.95509 0.03056 0.50165 0.0
H1753 H 0.88088 0.03631 0.53084 0.0
H1754 H 0.93389 0.01087 0.54276 0.0
C1755 C 0.94879 0.04929 0.47417 0.0
C1756 C 0.70373 0.13298 0.279 0.0
C1757 C 0.7195 0.10492 0.29383 0.0
H1758 H 0.70784 0.18335 0.25957 0.0
C1759 C 0.75333 0.10565 0.2979 0.0
H1760 H 0.67777 0.13325 0.27508 0.0
C1761 C 0.77076 0.1345 0.28844 0.0
C1762 C 0.75463 0.16314 0.27492 0.0
H1763 H 0.76624 0.0843 0.30892 0.0
H1764 H 0.79662 0.1351 0.29315 0.0
C1765 C 0.72101 0.16168 0.26978 0.0
C1766 C 0.6796 0.02365 0.06693 0.0
C1767 C 0.69194 0.00806 0.04111 0.0
H1768 H 0.63758 0.04202 0.08778 0.0
C1769 C 0.67192 0.00406 0.01433 0.0
H1770 H 0.69455 0.02727 0.08782 0.0
C1771 C 0.63938 0.01222 0.01439 0.0
C1772 C 0.62635 0.02466 0.04118 0.0
H1773 H 0.68093 0.99261 0.99391 0.0
H1774 H 0.62417 0.00716 0.99391 0.0
C1775 C 0.64695 0.03189 0.06697 0.0
C1776 C 0.32897 0.44672 0.23435 0.0
C1777 C 0.33264 0.45812 0.26486 0.0
H1778 H 0.30833 0.40887 0.20382 0.0
C1779 C 0.31316 0.44395 0.28706 0.0
H1780 H 0.34345 0.45754 0.21668 0.0
C1781 C 0.29231 0.41684 0.27948 0.0
C1782 C 0.29127 0.40285 0.24976 0.0
H1783 H 0.31505 0.45281 0.31061 0.0
H1784 H 0.2793 0.40493 0.2977 0.0
C1785 C 0.30863 0.41909 0.22689 0.0
C1786 C 0.17043 0.61991 0.0213 0.0
C1787 C 0.19679 0.59816 0.01686 0.0
H1788 H 0.12083 0.6239 0.03183 0.0
C1789 C 0.193 0.56261 0.02115 0.0
H1790 H 0.17253 0.64748 0.01824 0.0
C1791 C 0.16342 0.54915 0.02964 0.0
C1792 C 0.1369 0.57094 0.03353 0.0
H1793 H 0.21291 0.54524 0.0182 0.0
H1794 H 0.16109 0.52156 0.03234 0.0
C1795 C 0.14079 0.60646 0.02928 0.0
C1796 C 0.72678 0.8806 0.35891 0.0
C1797 C 0.72926 0.90784 0.33764 0.0
H1798 H 0.73743 0.82785 0.36985 0.0
C1799 C 0.74689 0.90278 0.31143 0.0
H1800 H 0.71346 0.88366 0.37941 0.0
C1801 C 0.76075 0.87086 0.30605 0.0
C1802 C 0.75719 0.84321 0.32669 0.0
H1803 H 0.74943 0.92326 0.29467 0.0
H1804 H 0.77349 0.86765 0.28521 0.0
C1805 C 0.74053 0.84859 0.35346 0.0
C1806 C 0.84002 0.10651 0.81466 0.0
C1807 C 0.83095 0.08426 0.79039 0.0
H1808 H 0.83678 0.15703 0.83321 0.0
C1809 C 0.80844 0.09568 0.76732 0.0
H1810 H 0.85711 0.0984 0.83299 0.0
C1811 C 0.79672 0.12931 0.76752 0.0
C1812 C 0.8073 0.15218 0.79081 0.0
H1813 H 0.80081 0.07913 0.74843 0.0
H1814 H 0.78034 0.13773 0.74873 0.0
C1815 C 0.82834 0.14013 0.81485 0.0
loop_
_geom_bond_atom_site_label_1
_geom_bond_atom_site_label_2
_geom_bond_distance
_geom_bond_site_symmetry_2
_ccdc_geom_bond_type
C0 O1 1.160 . S
C0 O7 1.185 . S
O1 C0 1.160 . S
O2 Zn3 1.899 . S
O2 C10 1.284 . S
Zn3 O2 1.899 . S
Zn3 O4 2.032 . S
Zn3 O7 2.086 . S
Zn3 O12 1.977 . S
O4 Zn3 2.032 . S
O4 C8 1.278 . S
C5 O6 1.203 . S
C5 O12 1.267 . S
O6 C5 1.203 . S
O7 C0 1.185 . S
O7 Zn3 2.086 . S
C8 O4 1.278 . S
C8 O9 1.211 . S
O9 C8 1.211 . S
C10 O2 1.284 . S
C10 O11 1.273 . S
O11 C10 1.273 . S
O12 Zn3 1.977 . S
O12 C5 1.267 . S
C13 O14 1.160 . S
C13 O20 1.185 . S
O14 C13 1.160 . S
O15 Zn16 1.899 . S
O15 C23 1.284 . S
Zn16 O15 1.899 . S
Zn16 O17 2.032 . S
Zn16 O20 2.086 . S
Zn16 O25 1.977 . S
O17 Zn16 2.032 . S
O17 C21 1.278 . S
C18 O19 1.203 . S
C18 O25 1.267 1_655 S
O19 C18 1.203 . S
O20 C13 1.185 . S
O20 Zn16 2.086 . S
C21 O17 1.278 . S
C21 O22 1.211 . S
O22 C21 1.211 . S
C23 O15 1.284 . S
C23 O24 1.273 . S
O24 C23 1.273 . S
O25 Zn16 1.977 . S
O25 C18 1.267 1_455 S
C26 O27 1.160 . S
C26 O33 1.185 . S
O27 C26 1.160 . S
O28 Zn29 1.899 . S
O28 C36 1.284 . S
Zn29 O28 1.899 . S
Zn29 O30 2.032 . S
Zn29 O33 2.086 . S
Zn29 O38 1.977 . S
O30 Zn29 2.032 . S
O30 C34 1.278 . S
C31 O32 1.203 . S
C31 O38 1.267 . S
O32 C31 1.203 . S
O33 C26 1.185 . S
O33 Zn29 2.086 . S
C34 O30 1.278 . S
C34 O35 1.211 . S
O35 C34 1.211 . S
C36 O28 1.284 . S
C36 O37 1.273 . S
O37 C36 1.273 . S
O38 Zn29 1.977 . S
O38 C31 1.267 . S
C39 O40 1.160 . S
C39 O46 1.185 . S
O40 C39 1.160 . S
O41 Zn42 1.899 . S
O41 C49 1.284 . S
Zn42 O41 1.899 . S
Zn42 O43 2.032 . S
Zn42 O46 2.086 . S
Zn42 O51 1.977 . S
O43 Zn42 2.032 . S
O43 C47 1.278 . S
C44 O45 1.203 . S
C44 O51 1.267 . S
O45 C44 1.203 . S
O46 C39 1.185 . S
O46 Zn42 2.086 . S
C47 O43 1.278 . S
C47 O48 1.211 . S
O48 C47 1.211 . S
C49 O41 1.284 . S
C49 O50 1.273 . S
O50 C49 1.273 . S
O51 Zn42 1.977 . S
O51 C44 1.267 . S
C52 O53 1.160 . S
C52 O59 1.185 . S
O53 C52 1.160 . S
O54 Zn55 1.899 . S
O54 C62 1.284 . S
Zn55 O54 1.899 . S
Zn55 O56 2.032 . S
Zn55 O59 2.086 1_545 S
Zn55 O64 1.977 . S
O56 Zn55 2.032 . S
O56 C60 1.278 . S
C57 O58 1.203 . S
C57 O64 1.267 . S
O58 C57 1.203 . S
O59 C52 1.185 . S
O59 Zn55 2.086 1_565 S
C60 O56 1.278 . S
C60 O61 1.211 . S
O61 C60 1.211 . S
C62 O54 1.284 . S
C62 O63 1.273 . S
O63 C62 1.273 . S
O64 Zn55 1.977 . S
O64 C57 1.267 . S
C65 O66 1.160 . S
C65 O72 1.185 . S
O66 C65 1.160 . S
O67 Zn68 1.899 . S
O67 C75 1.284 . S
Zn68 O67 1.899 . S
Zn68 O69 2.032 . S
Zn68 O72 2.086 . S
Zn68 O77 1.977 . S
O69 Zn68 2.032 . S
O69 C73 1.278 . S
C70 O71 1.203 . S
C70 O77 1.267 . S
O71 C70 1.203 . S
O72 C65 1.185 . S
O72 Zn68 2.086 . S
C73 O69 1.278 . S
C73 O74 1.211 . S
O74 C73 1.211 . S
C75 O67 1.284 . S
C75 O76 1.273 . S
O76 C75 1.273 . S
O77 Zn68 1.977 . S
O77 C70 1.267 . S
C78 O79 1.160 . S
C78 O85 1.185 . S
O79 C78 1.160 . S
O80 Zn81 1.899 . S
O80 C88 1.284 . S
Zn81 O80 1.899 . S
Zn81 O82 2.032 . S
Zn81 O85 2.086 . S
Zn81 O90 1.977 1_545 S
O82 Zn81 2.032 . S
O82 C86 1.278 . S
C83 O84 1.203 . S
C83 O90 1.267 . S
O84 C83 1.203 . S
O85 C78 1.185 . S
O85 Zn81 2.086 . S
C86 O82 1.278 . S
C86 O87 1.211 1_545 S
O87 C86 1.211 1_565 S
C88 O80 1.284 . S
C88 O89 1.261 1_545 S
O89 C88 1.261 1_565 S
O90 Zn81 1.977 1_565 S
O90 C83 1.267 . S
C91 O92 1.160 . S
C91 O98 1.185 . S
O92 C91 1.160 . S
O93 Zn94 1.899 . S
O93 C101 1.284 . S
Zn94 O93 1.899 . S
Zn94 O95 2.032 . S
Zn94 O98 2.086 . S
Zn94 O103 1.977 . S
O95 Zn94 2.032 . S
O95 C99 1.278 1_554 S
C96 O97 1.203 . S
C96 O103 1.267 . S
O97 C96 1.203 . S
O98 C91 1.185 . S
O98 Zn94 2.086 . S
C99 O95 1.278 1_556 S
C99 O100 1.211 . S
O100 C99 1.211 . S
C101 O93 1.284 . S
C101 O102 1.273 . S
O102 C101 1.273 . S
O103 Zn94 1.977 . S
O103 C96 1.267 . S
C104 O105 1.160 . S
C104 O111 1.185 . S
O105 C104 1.160 . S
O106 Zn107 1.899 . S
O106 C114 1.284 . S
Zn107 O106 1.899 . S
Zn107 O108 2.032 . S
Zn107 O111 2.086 . S
Zn107 O116 1.977 . S
O108 Zn107 2.032 . S
O108 C112 1.278 . S
C109 O110 1.203 . S
C109 O116 1.267 . S
O110 C109 1.203 . S
O111 C104 1.185 . S
O111 Zn107 2.086 . S
C112 O108 1.278 . S
C112 O113 1.211 . S
O113 C112 1.211 . S
C114 O106 1.284 . S
C114 O115 1.273 . S
O115 C114 1.273 . S
O116 Zn107 1.977 . S
O116 C109 1.267 . S
C117 O118 1.160 . S
C117 O124 1.185 . S
O118 C117 1.160 . S
O119 Zn120 1.899 . S
O119 C127 1.284 . S
Zn120 O119 1.899 . S
Zn120 O121 2.032 . S
Zn120 O124 2.086 . S
Zn120 O129 1.977 . S
O121 Zn120 2.032 . S
O121 C125 1.278 . S
C122 O123 1.203 . S
C122 O129 1.267 . S
O123 C122 1.203 . S
O124 C117 1.185 . S
O124 Zn120 2.086 . S
C125 O121 1.278 . S
C125 O126 1.211 . S
O126 C125 1.211 . S
C127 O119 1.284 . S
C127 O128 1.273 . S
O128 C127 1.273 . S
O129 Zn120 1.977 . S
O129 C122 1.267 . S
C130 O131 1.160 . S
C130 O137 1.185 . S
O131 C130 1.160 . S
O132 Zn133 1.899 . S
O132 C140 1.284 . S
Zn133 O132 1.899 . S
Zn133 O134 2.032 . S
Zn133 O137 2.086 . S
Zn133 O142 1.977 . S
O134 Zn133 2.032 . S
O134 C138 1.278 . S
C135 O136 1.203 . S
C135 O142 1.267 . S
O136 C135 1.203 . S
O137 C130 1.185 . S
O137 Zn133 2.086 . S
C138 O134 1.278 . S
C138 O139 1.211 . S
O139 C138 1.211 . S
C140 O132 1.284 . S
C140 O141 1.273 . S
O141 C140 1.273 . S
O142 Zn133 1.977 . S
O142 C135 1.267 . S
C143 O144 1.160 . S
C143 O150 1.185 . S
O144 C143 1.160 . S
O145 Zn146 1.899 . S
O145 C153 1.284 . S
Zn146 O145 1.899 . S
Zn146 O147 2.032 . S
Zn146 O150 2.086 . S
Zn146 O155 1.977 . S
O147 Zn146 2.032 . S
O147 C151 1.278 . S
C148 O149 1.203 . S
C148 O155 1.267 . S
O149 C148 1.203 . S
O150 C143 1.185 . S
O150 Zn146 2.086 . S
C151 O147 1.278 . S
C151 O152 1.211 . S
O152 C151 1.211 . S
C153 O145 1.284 . S
C153 O154 1.273 . S
O154 C153 1.273 . S
O155 Zn146 1.977 . S
O155 C148 1.267 . S
C156 O157 1.160 . S
C156 O163 1.185 . S
O157 C156 1.160 . S
O158 Zn159 1.899 . S
O158 C166 1.284 1_455 S
Zn159 O158 1.899 . S
Zn159 O160 2.032 . S
Zn159 O163 2.086 . S
Zn159 O168 1.977 1_455 S
O160 Zn159 2.032 . S
O160 C164 1.278 1_455 S
C161 O162 1.203 . S
C161 O168 1.267 . S
O162 C161 1.203 . S
O163 C156 1.185 . S
O163 Zn159 2.086 . S
C164 O160 1.278 1_655 S
C164 O165 1.211 . S
O165 C164 1.211 . S
C166 O158 1.284 1_655 S
C166 O167 1.273 . S
O167 C166 1.273 . S
O168 Zn159 1.977 1_655 S
O168 C161 1.267 . S
C169 O170 1.160 . S
C169 O176 1.185 1_655 S
O170 C169 1.160 . S
O171 Zn172 1.899 . S
O171 C179 1.284 . S
Zn172 O171 1.899 . S
Zn172 O173 2.032 . S
Zn172 O176 2.086 . S
Zn172 O181 1.977 . S
O173 Zn172 2.032 . S
O173 C177 1.278 . S
C174 O175 1.203 . S
C174 O181 1.267 . S
O175 C174 1.203 . S
O176 C169 1.185 1_455 S
O176 Zn172 2.086 . S
C177 O173 1.278 . S
C177 O178 1.211 . S
O178 C177 1.211 . S
C179 O171 1.284 . S
C179 O180 1.273 . S
O180 C179 1.273 . S
O181 Zn172 1.977 . S
O181 C174 1.267 . S
C182 O183 1.160 . S
C182 O189 1.185 . S
O183 C182 1.160 . S
O184 Zn185 1.899 . S
O184 C192 1.284 . S
Zn185 O184 1.899 . S
Zn185 O186 2.032 . S
Zn185 O189 2.086 . S
Zn185 O194 1.977 . S
O186 Zn185 2.032 . S
O186 C190 1.278 . S
C187 O188 1.203 . S
C187 O194 1.267 . S
O188 C187 1.203 . S
O189 C182 1.185 . S
O189 Zn185 2.086 . S
C190 O186 1.278 . S
C190 O191 1.211 . S
O191 C190 1.211 . S
C192 O184 1.284 . S
C192 O193 1.273 . S
O193 C192 1.273 . S
O194 Zn185 1.977 . S
O194 C187 1.267 . S
C195 O196 1.160 . S
C195 O202 1.185 . S
O196 C195 1.160 . S
O197 Zn198 1.899 . S
O197 C205 1.284 . S
Zn198 O197 1.899 . S
Zn198 O199 2.032 . S
Zn198 O202 2.086 . S
Zn198 O207 1.977 . S
O199 Zn198 2.032 . S
O199 C203 1.278 . S
C200 O201 1.203 . S
C200 O207 1.267 . S
O201 C200 1.203 . S
O202 C195 1.185 . S
O202 Zn198 2.086 . S
C203 O199 1.278 . S
C203 O204 1.211 . S
O204 C203 1.211 . S
C205 O197 1.284 . S
C205 O206 1.273 . S
O206 C205 1.273 . S
O207 Zn198 1.977 . S
O207 C200 1.267 . S
C208 O209 1.160 . S
C208 O215 1.185 . S
O209 C208 1.160 . S
O210 Zn211 1.899 . S
O210 C218 1.284 . S
Zn211 O210 1.899 . S
Zn211 O212 2.032 . S
Zn211 O215 2.086 . S
Zn211 O220 1.977 1_545 S
O212 Zn211 2.032 . S
O212 C216 1.273 1_545 S
C213 O214 1.203 . S
C213 O220 1.267 . S
O214 C213 1.203 . S
O215 C208 1.185 . S
O215 Zn211 2.086 . S
C216 O212 1.273 1_565 S
C216 O217 1.218 . S
O217 C216 1.218 . S
C218 O210 1.284 . S
C218 O219 1.273 1_545 S
O219 C218 1.273 1_565 S
O220 Zn211 1.977 1_565 S
O220 C213 1.267 . S
C221 O222 1.160 . S
C221 O228 1.185 . S
O222 C221 1.160 . S
O223 Zn224 1.899 . S
O223 C231 1.284 . S
Zn224 O223 1.899 . S
Zn224 O225 2.032 . S
Zn224 O228 2.086 . S
Zn224 O233 1.977 . S
O225 Zn224 2.032 . S
O225 C229 1.278 . S
C226 O227 1.203 . S
C226 O233 1.267 . S
O227 C226 1.203 . S
O228 C221 1.185 . S
O228 Zn224 2.086 . S
C229 O225 1.278 . S
C229 O230 1.211 . S
O230 C229 1.211 . S
C231 O223 1.284 . S
C231 O232 1.273 . S
O232 C231 1.273 . S
O233 Zn224 1.977 . S
O233 C226 1.267 . S
C234 O235 1.160 . S
C234 O241 1.185 . S
O235 C234 1.160 . S
O236 Zn237 1.899 . S
O236 C244 1.284 . S
Zn237 O236 1.899 . S
Zn237 O238 2.039 . S
Zn237 O241 2.086 1_545 S
Zn237 O246 1.977 . S
O238 Zn237 2.039 . S
O238 C242 1.298 . S
C239 O240 1.203 . S
C239 O246 1.267 . S
O240 C239 1.203 . S
O241 C234 1.185 . S
O241 Zn237 2.086 1_565 S
C242 O238 1.298 . S
C242 O243 1.211 . S
O243 C242 1.211 . S
C244 O236 1.284 . S
C244 O245 1.273 . S
O245 C244 1.273 . S
O246 Zn237 1.977 . S
O246 C239 1.267 . S
C247 O248 1.160 . S
C247 O254 1.185 . S
O248 C247 1.160 . S
O249 Zn250 1.899 . S
O249 C257 1.284 . S
Zn250 O249 1.899 . S
Zn250 O251 2.032 1_554 S
Zn250 O254 2.086 . S
Zn250 O259 1.977 . S
O251 Zn250 2.032 1_556 S
O251 C255 1.278 . S
C252 O253 1.203 . S
C252 O259 1.267 . S
O253 C252 1.203 . S
O254 C247 1.185 . S
O254 Zn250 2.086 . S
C255 O251 1.278 . S
C255 O256 1.211 . S
O256 C255 1.211 . S
C257 O249 1.284 . S
C257 O258 1.273 . S
O258 C257 1.273 . S
O259 Zn250 1.977 . S
O259 C252 1.267 . S
C260 O261 1.160 . S
C260 O267 1.185 1_554 S
O261 C260 1.160 . S
O262 Zn263 1.899 . S
O262 C270 1.284 . S
Zn263 O262 1.899 . S
Zn263 O264 2.032 1_554 S
Zn263 O267 2.086 1_554 S
Zn263 O272 1.977 1_554 S
O264 Zn263 2.032 1_556 S
O264 C268 1.278 . S
C265 O266 1.203 . S
C265 O272 1.267 1_554 S
O266 C265 1.203 . S
O267 C260 1.185 1_556 S
O267 Zn263 2.086 1_556 S
C268 O264 1.278 . S
C268 O269 1.211 . S
O269 C268 1.211 . S
C270 O262 1.284 . S
C270 O271 1.273 . S
O271 C270 1.273 . S
O272 Zn263 1.977 1_556 S
O272 C265 1.267 1_556 S
C273 O274 1.160 . S
C273 O280 1.185 . S
O274 C273 1.160 . S
O275 Zn276 1.899 . S
O275 C283 1.284 . S
Zn276 O275 1.899 . S
Zn276 O277 2.032 . S
Zn276 O280 2.086 . S
Zn276 O285 1.977 . S
O277 Zn276 2.032 . S
O277 C281 1.278 . S
C278 O279 1.203 . S
C278 O285 1.267 . S
O279 C278 1.203 . S
O280 C273 1.185 . S
O280 Zn276 2.086 . S
C281 O277 1.278 . S
C281 O282 1.211 . S
O282 C281 1.211 . S
C283 O275 1.284 . S
C283 O284 1.273 . S
O284 C283 1.273 . S
O285 Zn276 1.977 . S
O285 C278 1.267 . S
C286 O287 1.160 . S
C286 O293 1.185 . S
O287 C286 1.160 . S
O288 Zn289 1.899 . S
O288 C296 1.284 . S
Zn289 O288 1.899 . S
Zn289 O290 2.032 . S
Zn289 O293 2.086 . S
Zn289 O298 1.977 . S
O290 Zn289 2.032 . S
O290 C294 1.278 . S
C291 O292 1.203 . S
C291 O298 1.267 . S
O292 C291 1.203 . S
O293 C286 1.185 . S
O293 Zn289 2.086 . S
C294 O290 1.278 . S
C294 O295 1.211 . S
O295 C294 1.211 . S
C296 O288 1.284 . S
C296 O297 1.273 . S
O297 C296 1.273 . S
O298 Zn289 1.977 . S
O298 C291 1.267 . S
C299 O300 1.160 . S
C299 O306 1.185 . S
O300 C299 1.160 . S
O301 Zn302 1.899 . S
O301 C309 1.284 . S
Zn302 O301 1.899 . S
Zn302 O303 2.032 . S
Zn302 O306 2.086 . S
Zn302 O311 1.977 . S
O303 Zn302 2.032 . S
O303 C307 1.278 . S
C304 O305 1.203 . S
C304 O311 1.267 . S
O305 C304 1.203 . S
O306 C299 1.185 . S
O306 Zn302 2.086 . S
C307 O303 1.278 . S
C307 O308 1.211 . S
O308 C307 1.211 . S
C309 O301 1.284 . S
C309 O310 1.273 . S
O310 C309 1.273 . S
O311 Zn302 1.977 . S
O311 C304 1.267 . S
C312 O328 1.239 1_456 S
C312 O330 1.254 . S
N313 C314 1.333 1_565 S
N313 C318 1.307 . S
N313 Zn319 2.020 1_665 S
C314 N313 1.333 1_545 S
C314 C315 1.379 . S
C314 H332 0.952 . S
C315 C314 1.379 . S
C315 C316 1.390 1_545 S
C315 H342 0.949 . S
C316 C315 1.390 1_565 S
C316 C317 1.357 . S
C317 C316 1.357 . S
C317 C318 1.370 . S
C317 H343 0.950 . S
C318 N313 1.307 . S
C318 C317 1.370 . S
C318 H336 0.948 . S
Zn319 N313 2.020 1_445 S
Zn319 O328 2.036 1_455 S
Zn319 O334 2.034 . S
Zn319 O338 2.025 1_545 S
Zn319 O340 2.024 1_545 S
C320 O339 1.246 . S
C320 O340 1.249 . S
N321 C322 1.307 1_554 S
N321 C323 1.333 . S
N321 Zn327 2.020 . S
C322 N321 1.307 1_556 S
C322 C326 1.370 . S
C322 H333 0.948 . S
C323 N321 1.333 . S
C323 C324 1.379 . S
C323 H331 0.952 . S
C324 C323 1.379 . S
C324 C325 1.390 . S
C324 H344 0.949 . S
C325 C324 1.390 . S
C325 C326 1.357 1_554 S
C326 C322 1.370 . S
C326 C325 1.357 1_556 S
C326 H345 0.950 . S
Zn327 N321 2.020 . S
Zn327 O330 2.025 1_554 S
Zn327 O335 2.024 . S
Zn327 O337 2.039 . S
Zn327 O339 2.034 1_545 S
O328 C312 1.239 1_654 S
O328 Zn319 2.036 1_655 S
C329 O334 1.246 . S
C329 O335 1.249 . S
O330 C312 1.254 . S
O330 Zn327 2.025 1_556 S
H331 C323 0.952 . S
H332 C314 0.952 . S
H333 C322 0.948 . S
O334 Zn319 2.034 . S
O334 C329 1.246 . S
O335 Zn327 2.024 . S
O335 C329 1.249 . S
H336 C318 0.948 . S
O337 Zn327 2.039 . S
O337 C341 1.251 1_545 S
O338 Zn319 2.025 1_565 S
O338 C341 1.254 . S
O339 C320 1.246 . S
O339 Zn327 2.034 1_565 S
O340 Zn319 2.024 1_565 S
O340 C320 1.249 . S
C341 O337 1.251 1_565 S
C341 O338 1.254 . S
H342 C315 0.949 . S
H343 C317 0.950 . S
H344 C324 0.949 . S
H345 C326 0.950 . S
C346 O362 1.251 . S
C346 O364 1.254 . S
N347 C348 1.333 . S
N347 C352 1.307 . S
N347 Zn353 2.020 . S
C348 N347 1.333 . S
C348 C349 1.379 . S
C348 H366 0.952 . S
C349 C348 1.379 . S
C349 C350 1.390 . S
C349 H376 0.949 . S
C350 C349 1.390 . S
C350 C351 1.357 . S
C351 C350 1.357 . S
C351 C352 1.370 . S
C351 H377 0.950 . S
C352 N347 1.307 . S
C352 C351 1.370 . S
C352 H370 0.948 . S
Zn353 N347 2.020 . S
Zn353 O362 2.039 . S
Zn353 O368 2.034 . S
Zn353 O372 2.025 . S
Zn353 O374 2.024 . S
C354 O373 1.246 . S
C354 O374 1.249 . S
N355 C356 1.307 . S
N355 C357 1.333 . S
N355 Zn361 2.020 . S
C356 N355 1.307 . S
C356 C360 1.370 . S
C356 H367 0.948 . S
C357 N355 1.333 . S
C357 C358 1.379 . S
C357 H365 0.952 . S
C358 C357 1.379 . S
C358 C359 1.390 . S
C358 H378 0.949 . S
C359 C358 1.390 . S
C359 C360 1.357 . S
C360 C356 1.370 . S
C360 C359 1.357 . S
C360 H379 0.950 . S
Zn361 N355 2.020 . S
Zn361 O364 2.025 . S
Zn361 O369 2.024 . S
Zn361 O371 2.039 . S
Zn361 O373 2.034 . S
O362 C346 1.251 . S
O362 Zn353 2.039 . S
C363 O368 1.246 . S
C363 O369 1.249 . S
O364 C346 1.254 . S
O364 Zn361 2.025 . S
H365 C357 0.952 . S
H366 C348 0.952 . S
H367 C356 0.948 . S
O368 Zn353 2.034 . S
O368 C363 1.246 . S
O369 Zn361 2.024 . S
O369 C363 1.249 . S
H370 C352 0.948 . S
O371 Zn361 2.039 . S
O371 C375 1.251 . S
O372 Zn353 2.025 . S
O372 C375 1.254 . S
O373 C354 1.246 . S
O373 Zn361 2.034 . S
O374 Zn353 2.024 . S
O374 C354 1.249 . S
C375 O371 1.251 . S
C375 O372 1.254 . S
H376 C349 0.949 . S
H377 C351 0.950 . S
H378 C358 0.949 . S
H379 C360 0.950 . S
C380 O396 1.235 1_545 S
C380 O398 1.254 . S
N381 C382 1.333 . S
N381 C386 1.307 . S
N381 Zn387 2.020 . S
C382 N381 1.333 . S
C382 C383 1.379 . S
C382 H400 0.952 . S
C383 C382 1.379 . S
C383 C384 1.390 . S
C383 H410 0.949 . S
C384 C383 1.390 . S
C384 C385 1.357 . S
C385 C384 1.357 . S
C385 C386 1.370 . S
C385 H411 0.950 . S
C386 N381 1.307 . S
C386 C385 1.370 . S
C386 H404 0.948 . S
Zn387 N381 2.020 . S
Zn387 O396 2.046 . S
Zn387 O402 2.034 1_565 S
Zn387 O406 2.025 . S
Zn387 O408 2.024 . S
C388 O407 1.246 1_565 S
C388 O408 1.249 . S
N389 C390 1.307 . S
N389 C391 1.333 . S
N389 Zn395 2.020 . S
C390 N389 1.307 . S
C390 C394 1.370 . S
C390 H401 0.948 . S
C391 N389 1.333 . S
C391 C392 1.379 . S
C391 H399 0.952 . S
C392 C391 1.379 . S
C392 C393 1.390 . S
C392 H412 0.949 . S
C393 C392 1.390 . S
C393 C394 1.357 . S
C394 C390 1.370 . S
C394 C393 1.357 . S
C394 H413 0.950 . S
Zn395 N389 2.020 . S
Zn395 O398 2.025 . S
Zn395 O403 2.024 . S
Zn395 O405 2.039 . S
Zn395 O407 2.034 . S
O396 C380 1.235 1_565 S
O396 Zn387 2.046 . S
C397 O402 1.246 . S
C397 O403 1.249 . S
O398 C380 1.254 . S
O398 Zn395 2.025 . S
H399 C391 0.952 . S
H400 C382 0.952 . S
H401 C390 0.948 . S
O402 Zn387 2.034 1_545 S
O402 C397 1.246 . S
O403 Zn395 2.024 . S
O403 C397 1.249 . S
H404 C386 0.948 . S
O405 Zn395 2.039 . S
O405 C409 1.251 1_545 S
O406 Zn387 2.025 . S
O406 C409 1.254 . S
O407 C388 1.246 1_545 S
O407 Zn395 2.034 . S
O408 Zn387 2.024 . S
O408 C388 1.249 . S
C409 O405 1.251 1_565 S
C409 O406 1.254 . S
H410 C383 0.949 . S
H411 C385 0.950 . S
H412 C392 0.949 . S
H413 C394 0.950 . S
C414 O430 1.251 . S
C414 O432 1.254 . S
N415 C416 1.333 . S
N415 C420 1.307 . S
N415 Zn421 2.020 . S
C416 N415 1.333 . S
C416 C417 1.379 . S
C416 H434 0.952 . S
C417 C416 1.379 . S
C417 C418 1.390 . S
C417 H444 0.949 . S
C418 C417 1.390 . S
C418 C419 1.357 . S
C419 C418 1.357 . S
C419 C420 1.370 . S
C419 H445 0.950 . S
C420 N415 1.307 . S
C420 C419 1.370 . S
C420 H438 0.948 . S
Zn421 N415 2.020 . S
Zn421 O430 2.039 . S
Zn421 O436 2.034 . S
Zn421 O440 2.025 . S
Zn421 O442 2.024 . S
C422 O441 1.246 . S
C422 O442 1.249 . S
N423 C424 1.307 . S
N423 C425 1.333 . S
N423 Zn429 2.020 . S
C424 N423 1.307 . S
C424 C428 1.370 . S
C424 H435 0.948 . S
C425 N423 1.333 . S
C425 C426 1.379 . S
C425 H433 0.952 . S
C426 C425 1.379 . S
C426 C427 1.390 . S
C426 H446 0.949 . S
C427 C426 1.390 . S
C427 C428 1.357 . S
C428 C424 1.370 . S
C428 C427 1.357 . S
C428 H447 0.950 . S
Zn429 N423 2.020 . S
Zn429 O432 2.025 . S
Zn429 O437 2.024 . S
Zn429 O439 2.039 . S
Zn429 O441 2.034 . S
O430 C414 1.251 . S
O430 Zn421 2.039 . S
C431 O436 1.246 . S
C431 O437 1.249 . S
O432 C414 1.254 . S
O432 Zn429 2.025 . S
H433 C425 0.952 . S
H434 C416 0.952 . S
H435 C424 0.948 . S
O436 Zn421 2.034 . S
O436 C431 1.246 . S
O437 Zn429 2.024 . S
O437 C431 1.249 . S
H438 C420 0.948 . S
O439 Zn429 2.039 . S
O439 C443 1.251 . S
O440 Zn421 2.025 . S
O440 C443 1.254 . S
O441 C422 1.246 . S
O441 Zn429 2.034 . S
O442 Zn421 2.024 . S
O442 C422 1.249 . S
C443 O439 1.251 . S
C443 O440 1.254 . S
H444 C417 0.949 . S
H445 C419 0.950 . S
H446 C426 0.949 . S
H447 C428 0.950 . S
C448 O464 1.251 1_565 S
C448 O466 1.254 . S
N449 C450 1.333 . S
N449 C454 1.307 . S
N449 Zn455 2.020 . S
C450 N449 1.333 . S
C450 C451 1.379 . S
C450 H468 0.952 . S
C451 C450 1.379 . S
C451 C452 1.390 . S
C451 H478 0.949 . S
C452 C451 1.390 . S
C452 C453 1.357 . S
C453 C452 1.357 . S
C453 C454 1.370 . S
C453 H479 0.950 . S
C454 N449 1.307 . S
C454 C453 1.370 . S
C454 H472 0.948 . S
Zn455 N449 2.020 . S
Zn455 O464 2.039 . S
Zn455 O470 2.034 . S
Zn455 O474 2.025 . S
Zn455 O476 2.024 1_545 S
C456 O475 1.246 . S
C456 O476 1.249 . S
N457 C458 1.307 . S
N457 C459 1.333 1_455 S
N457 Zn463 2.020 1_565 S
C458 N457 1.307 . S
C458 C462 1.370 . S
C458 H469 0.948 . S
C459 N457 1.333 1_655 S
C459 C460 1.379 . S
C459 H467 0.952 . S
C460 C459 1.379 . S
C460 C461 1.390 . S
C460 H480 0.949 . S
C461 C460 1.390 . S
C461 C462 1.357 1_655 S
C462 C458 1.370 . S
C462 C461 1.357 1_455 S
C462 H481 0.950 . S
Zn463 N457 2.020 1_545 S
Zn463 O466 2.025 1_545 S
Zn463 O471 2.024 . S
Zn463 O473 2.039 1_455 S
Zn463 O475 2.034 1_545 S
O464 C448 1.251 1_545 S
O464 Zn455 2.039 . S
C465 O470 1.246 . S
C465 O471 1.249 . S
O466 C448 1.254 . S
O466 Zn463 2.025 1_565 S
H467 C459 0.952 . S
H468 C450 0.952 . S
H469 C458 0.948 . S
O470 Zn455 2.034 . S
O470 C465 1.246 . S
O471 Zn463 2.024 . S
O471 C465 1.249 . S
H472 C454 0.948 . S
O473 Zn463 2.039 1_655 S
O473 C477 1.251 . S
O474 Zn455 2.025 . S
O474 C477 1.254 1_455 S
O475 C456 1.246 . S
O475 Zn463 2.034 1_565 S
O476 Zn455 2.024 1_565 S
O476 C456 1.249 . S
C477 O473 1.251 . S
C477 O474 1.254 1_655 S
H478 C451 0.949 . S
H479 C453 0.950 . S
H480 C460 0.949 . S
H481 C462 0.950 . S
C482 O498 1.251 . S
C482 O500 1.254 . S
N483 C484 1.333 . S
N483 C488 1.307 . S
N483 Zn489 2.020 . S
C484 N483 1.333 . S
C484 C485 1.379 . S
C484 H502 0.952 . S
C485 C484 1.379 . S
C485 C486 1.390 . S
C485 H512 0.949 . S
C486 C485 1.390 . S
C486 C487 1.357 . S
C487 C486 1.357 . S
C487 C488 1.370 . S
C487 H513 0.950 . S
C488 N483 1.307 . S
C488 C487 1.370 . S
C488 H506 0.948 . S
Zn489 N483 2.020 . S
Zn489 O498 2.039 . S
Zn489 O504 2.034 . S
Zn489 O508 2.025 . S
Zn489 O510 2.024 . S
C490 O509 1.246 . S
C490 O510 1.249 . S
N491 C492 1.307 . S
N491 C493 1.333 . S
N491 Zn497 2.020 . S
C492 N491 1.307 . S
C492 C496 1.370 . S
C492 H503 0.948 . S
C493 N491 1.333 . S
C493 C494 1.379 . S
C493 H501 0.952 . S
C494 C493 1.379 . S
C494 C495 1.390 . S
C494 H514 0.949 . S
C495 C494 1.390 . S
C495 C496 1.357 . S
C496 C492 1.370 . S
C496 C495 1.357 . S
C496 H515 0.950 . S
Zn497 N491 2.020 . S
Zn497 O500 2.025 . S
Zn497 O505 2.024 . S
Zn497 O507 2.039 . S
Zn497 O509 2.034 . S
O498 C482 1.251 . S
O498 Zn489 2.039 . S
C499 O504 1.246 . S
C499 O505 1.249 . S
O500 C482 1.254 . S
O500 Zn497 2.025 . S
H501 C493 0.952 . S
H502 C484 0.952 . S
H503 C492 0.948 . S
O504 Zn489 2.034 . S
O504 C499 1.246 . S
O505 Zn497 2.024 . S
O505 C499 1.249 . S
H506 C488 0.948 . S
O507 Zn497 2.039 . S
O507 C511 1.251 . S
O508 Zn489 2.025 . S
O508 C511 1.254 . S
O509 C490 1.246 . S
O509 Zn497 2.034 . S
O510 Zn489 2.024 . S
O510 C490 1.249 . S
C511 O507 1.251 . S
C511 O508 1.254 . S
H512 C485 0.949 . S
H513 C487 0.950 . S
H514 C494 0.949 . S
H515 C496 0.950 . S
C516 O532 1.251 . S
C516 O534 1.254 . S
N517 C518 1.333 . S
N517 C522 1.307 . S
N517 Zn523 2.020 . S
C518 N517 1.333 . S
C518 C519 1.379 . S
C518 H536 0.952 . S
C519 C518 1.379 . S
C519 C520 1.390 . S
C519 H546 0.949 . S
C520 C519 1.390 . S
C520 C521 1.357 . S
C521 C520 1.357 . S
C521 C522 1.370 . S
C521 H547 0.950 . S
C522 N517 1.307 . S
C522 C521 1.370 . S
C522 H540 0.948 . S
Zn523 N517 2.020 . S
Zn523 O532 2.039 1_545 S
Zn523 O538 2.034 . S
Zn523 O542 2.025 . S
Zn523 O544 2.024 . S
C524 O543 1.246 . S
C524 O544 1.249 1_565 S
N525 C526 1.307 . S
N525 C527 1.333 1_565 S
N525 Zn531 2.020 1_566 S
C526 N525 1.307 . S
C526 C530 1.370 . S
C526 H537 0.948 . S
C527 N525 1.333 1_545 S
C527 C528 1.379 . S
C527 H535 0.952 . S
C528 C527 1.379 . S
C528 C529 1.390 1_545 S
C528 H548 0.949 . S
C529 C528 1.390 1_565 S
C529 C530 1.357 . S
C530 C526 1.370 . S
C530 C529 1.357 . S
C530 H549 0.950 . S
Zn531 N525 2.020 1_544 S
Zn531 O534 2.025 1_545 S
Zn531 O539 2.024 . S
Zn531 O541 2.039 1_554 S
Zn531 O543 2.034 1_545 S
O532 C516 1.251 . S
O532 Zn523 2.039 1_565 S
C533 O538 1.246 . S
C533 O539 1.249 . S
O534 C516 1.254 . S
O534 Zn531 2.025 1_565 S
H535 C527 0.952 . S
H536 C518 0.952 . S
H537 C526 0.948 . S
O538 Zn523 2.034 . S
O538 C533 1.246 . S
O539 Zn531 2.024 . S
O539 C533 1.249 . S
H540 C522 0.948 . S
O541 Zn531 2.039 1_556 S
O541 C545 1.251 1_556 S
O542 Zn523 2.025 . S
O542 C545 1.254 . S
O543 C524 1.246 . S
O543 Zn531 2.034 1_565 S
O544 Zn523 2.024 . S
O544 C524 1.249 1_545 S
C545 O541 1.251 1_554 S
C545 O542 1.254 . S
H546 C519 0.949 . S
H547 C521 0.950 . S
H548 C528 0.949 . S
H549 C530 0.950 . S
C550 O566 1.251 . S
C550 O568 1.254 . S
N551 C552 1.333 . S
N551 C556 1.307 . S
N551 Zn557 2.020 . S
C552 N551 1.333 . S
C552 C553 1.379 . S
C552 H570 0.952 . S
C553 C552 1.379 . S
C553 C554 1.390 . S
C553 H580 0.949 . S
C554 C553 1.390 . S
C554 C555 1.357 . S
C555 C554 1.357 . S
C555 C556 1.370 . S
C555 H581 0.950 . S
C556 N551 1.307 . S
C556 C555 1.370 . S
C556 H574 0.948 . S
Zn557 N551 2.020 . S
Zn557 O566 2.039 . S
Zn557 O572 2.034 . S
Zn557 O576 2.025 . S
Zn557 O578 2.024 . S
C558 O577 1.246 . S
C558 O578 1.249 . S
N559 C560 1.307 . S
N559 C561 1.333 . S
N559 Zn565 2.020 . S
C560 N559 1.307 . S
C560 C564 1.370 . S
C560 H571 0.948 . S
C561 N559 1.333 . S
C561 C562 1.379 . S
C561 H569 0.952 . S
C562 C561 1.379 . S
C562 C563 1.390 . S
C562 H582 0.949 . S
C563 C562 1.390 . S
C563 C564 1.357 . S
C564 C560 1.370 . S
C564 C563 1.357 . S
C564 H583 0.950 . S
Zn565 N559 2.020 . S
Zn565 O568 2.025 . S
Zn565 O573 2.024 . S
Zn565 O575 2.039 . S
Zn565 O577 2.034 . S
O566 C550 1.251 . S
O566 Zn557 2.039 . S
C567 O572 1.246 . S
C567 O573 1.249 . S
O568 C550 1.254 . S
O568 Zn565 2.025 . S
H569 C561 0.952 . S
H570 C552 0.952 . S
H571 C560 0.948 . S
O572 Zn557 2.034 . S
O572 C567 1.246 . S
O573 Zn565 2.024 . S
O573 C567 1.249 . S
H574 C556 0.948 . S
O575 Zn565 2.039 . S
O575 C579 1.251 . S
O576 Zn557 2.025 . S
O576 C579 1.254 . S
O577 C558 1.246 . S
O577 Zn565 2.034 . S
O578 Zn557 2.024 . S
O578 C558 1.249 . S
C579 O575 1.251 . S
C579 O576 1.254 . S
H580 C553 0.949 . S
H581 C555 0.950 . S
H582 C562 0.949 . S
H583 C564 0.950 . S
C584 O600 1.251 . S
C584 O602 1.254 . S
N585 C586 1.333 . S
N585 C590 1.307 . S
N585 Zn591 2.020 1_556 S
C586 N585 1.333 . S
C586 C587 1.379 . S
C586 H604 0.952 . S
C587 C586 1.379 . S
C587 C588 1.390 . S
C587 H614 0.949 . S
C588 C587 1.390 . S
C588 C589 1.357 . S
C589 C588 1.357 . S
C589 C590 1.370 . S
C589 H615 0.950 . S
C590 N585 1.307 . S
C590 C589 1.370 . S
C590 H608 0.948 . S
Zn591 N585 2.020 1_554 S
Zn591 O600 2.039 . S
Zn591 O606 2.034 . S
Zn591 O610 2.025 1_554 S
Zn591 O612 2.024 1_554 S
C592 O611 1.246 . S
C592 O612 1.249 1_554 S
N593 C594 1.307 . S
N593 C595 1.333 . S
N593 Zn599 2.020 . S
C594 N593 1.307 . S
C594 C598 1.370 . S
C594 H605 0.948 . S
C595 N593 1.333 . S
C595 C596 1.379 . S
C595 H603 0.952 . S
C596 C595 1.379 . S
C596 C597 1.390 . S
C596 H616 0.949 . S
C597 C596 1.390 . S
C597 C598 1.357 . S
C598 C594 1.370 . S
C598 C597 1.357 . S
C598 H617 0.950 . S
Zn599 N593 2.020 . S
Zn599 O602 2.025 . S
Zn599 O607 2.024 . S
Zn599 O609 2.039 . S
Zn599 O611 2.034 . S
O600 C584 1.251 . S
O600 Zn591 2.039 . S
C601 O606 1.246 . S
C601 O607 1.249 . S
O602 C584 1.254 . S
O602 Zn599 2.025 . S
H603 C595 0.952 . S
H604 C586 0.952 . S
H605 C594 0.948 . S
O606 Zn591 2.034 . S
O606 C601 1.246 . S
O607 Zn599 2.024 . S
O607 C601 1.249 . S
H608 C590 0.948 . S
O609 Zn599 2.039 . S
O609 C613 1.251 . S
O610 Zn591 2.025 1_556 S
O610 C613 1.254 1_556 S
O611 C592 1.246 . S
O611 Zn599 2.034 . S
O612 Zn591 2.024 1_556 S
O612 C592 1.249 1_556 S
C613 O609 1.251 . S
C613 O610 1.254 1_554 S
H614 C587 0.949 . S
H615 C589 0.950 . S
H616 C596 0.949 . S
H617 C598 0.950 . S
C618 O634 1.251 . S
C618 O636 1.254 . S
N619 C620 1.333 . S
N619 C624 1.307 . S
N619 Zn625 2.020 . S
C620 N619 1.333 . S
C620 C621 1.379 . S
C620 H638 0.952 . S
C621 C620 1.379 . S
C621 C622 1.390 . S
C621 H648 0.949 . S
C622 C621 1.390 . S
C622 C623 1.357 . S
C623 C622 1.357 . S
C623 C624 1.370 . S
C623 H649 0.950 . S
C624 N619 1.307 . S
C624 C623 1.370 . S
C624 H642 0.948 . S
Zn625 N619 2.020 . S
Zn625 O634 2.039 . S
Zn625 O640 2.034 . S
Zn625 O644 2.025 . S
Zn625 O646 2.024 . S
C626 O645 1.246 . S
C626 O646 1.249 . S
N627 C628 1.307 . S
N627 C629 1.333 . S
N627 Zn633 2.020 . S
C628 N627 1.307 . S
C628 C632 1.370 . S
C628 H639 0.948 . S
C629 N627 1.333 . S
C629 C630 1.379 . S
C629 H637 0.952 . S
C630 C629 1.379 . S
C630 C631 1.390 . S
C630 H650 0.949 . S
C631 C630 1.390 . S
C631 C632 1.357 . S
C632 C628 1.370 . S
C632 C631 1.357 . S
C632 H651 0.950 . S
Zn633 N627 2.020 . S
Zn633 O636 2.025 . S
Zn633 O641 2.024 . S
Zn633 O643 2.039 . S
Zn633 O645 2.034 . S
O634 C618 1.251 . S
O634 Zn625 2.039 . S
C635 O640 1.246 . S
C635 O641 1.249 . S
O636 C618 1.254 . S
O636 Zn633 2.025 . S
H637 C629 0.952 . S
H638 C620 0.952 . S
H639 C628 0.948 . S
O640 Zn625 2.034 . S
O640 C635 1.246 . S
O641 Zn633 2.024 . S
O641 C635 1.249 . S
H642 C624 0.948 . S
O643 Zn633 2.039 . S
O643 C647 1.251 . S
O644 Zn625 2.025 . S
O644 C647 1.254 . S
O645 C626 1.246 . S
O645 Zn633 2.034 . S
O646 Zn625 2.024 . S
O646 C626 1.249 . S
C647 O643 1.251 . S
C647 O644 1.254 . S
H648 C621 0.949 . S
H649 C623 0.950 . S
H650 C630 0.949 . S
H651 C632 0.950 . S
C652 O668 1.251 . S
C652 O670 1.254 . S
N653 C654 1.333 . S
N653 C658 1.307 . S
N653 Zn659 2.020 . S
C654 N653 1.333 . S
C654 C655 1.379 . S
C654 H672 0.952 . S
C655 C654 1.379 . S
C655 C656 1.390 . S
C655 H682 0.949 . S
C656 C655 1.390 . S
C656 C657 1.357 . S
C657 C656 1.357 . S
C657 C658 1.370 . S
C657 H683 0.950 . S
C658 N653 1.307 . S
C658 C657 1.370 . S
C658 H676 0.948 . S
Zn659 N653 2.020 . S
Zn659 O668 2.039 . S
Zn659 O674 2.034 . S
Zn659 O678 2.025 . S
Zn659 O680 2.024 . S
C660 O679 1.246 . S
C660 O680 1.249 . S
N661 C662 1.307 1_455 S
N661 C663 1.333 . S
N661 Zn667 2.020 . S
C662 N661 1.307 1_655 S
C662 C666 1.370 . S
C662 H673 0.948 . S
C663 N661 1.333 . S
C663 C664 1.379 . S
C663 H671 0.952 . S
C664 C663 1.379 . S
C664 C665 1.390 1_455 S
C664 H684 0.949 . S
C665 C664 1.390 1_655 S
C665 C666 1.357 . S
C666 C662 1.370 . S
C666 C665 1.357 . S
C666 H685 0.950 . S
Zn667 N661 2.020 . S
Zn667 O670 2.025 . S
Zn667 O675 2.024 1_455 S
Zn667 O677 2.039 . S
Zn667 O679 2.034 . S
O668 C652 1.251 . S
O668 Zn659 2.039 . S
C669 O674 1.246 1_655 S
C669 O675 1.249 . S
O670 C652 1.254 . S
O670 Zn667 2.025 . S
H671 C663 0.952 . S
H672 C654 0.952 . S
H673 C662 0.948 . S
O674 Zn659 2.034 . S
O674 C669 1.246 1_455 S
O675 Zn667 2.024 1_655 S
O675 C669 1.249 . S
H676 C658 0.948 . S
O677 Zn667 2.039 . S
O677 C681 1.251 . S
O678 Zn659 2.025 . S
O678 C681 1.254 . S
O679 C660 1.246 . S
O679 Zn667 2.034 . S
O680 Zn659 2.024 . S
O680 C660 1.249 . S
C681 O677 1.251 . S
C681 O678 1.254 . S
H682 C655 0.949 . S
H683 C657 0.950 . S
H684 C664 0.949 . S
H685 C666 0.950 . S
C686 O702 1.251 . S
C686 O704 1.254 . S
N687 C688 1.333 . S
N687 C692 1.307 . S
N687 Zn693 2.020 . S
C688 N687 1.333 . S
C688 C689 1.379 . S
C688 H706 0.952 . S
C689 C688 1.379 . S
C689 C690 1.390 . S
C689 H716 0.949 . S
C690 C689 1.390 . S
C690 C691 1.357 . S
C691 C690 1.357 . S
C691 C692 1.370 . S
C691 H717 0.950 . S
C692 N687 1.307 . S
C692 C691 1.370 . S
C692 H710 0.948 . S
Zn693 N687 2.020 . S
Zn693 O702 2.039 . S
Zn693 O708 2.034 . S
Zn693 O712 2.025 . S
Zn693 O714 2.024 . S
C694 O713 1.246 . S
C694 O714 1.249 . S
N695 C696 1.307 . S
N695 C697 1.333 . S
N695 Zn701 2.020 . S
C696 N695 1.307 . S
C696 C700 1.370 . S
C696 H707 0.948 . S
C697 N695 1.333 . S
C697 C698 1.379 . S
C697 H705 0.952 . S
C698 C697 1.379 . S
C698 C699 1.390 . S
C698 H718 0.949 . S
C699 C698 1.390 . S
C699 C700 1.357 . S
C700 C696 1.370 . S
C700 C699 1.357 . S
C700 H719 0.950 . S
Zn701 N695 2.020 . S
Zn701 O704 2.025 . S
Zn701 O709 2.024 . S
Zn701 O711 2.039 . S
Zn701 O713 2.034 . S
O702 C686 1.251 . S
O702 Zn693 2.039 . S
C703 O708 1.246 . S
C703 O709 1.249 . S
O704 C686 1.254 . S
O704 Zn701 2.025 . S
H705 C697 0.952 . S
H706 C688 0.952 . S
H707 C696 0.948 . S
O708 Zn693 2.034 . S
O708 C703 1.246 . S
O709 Zn701 2.024 . S
O709 C703 1.249 . S
H710 C692 0.948 . S
O711 Zn701 2.039 . S
O711 C715 1.251 . S
O712 Zn693 2.025 . S
O712 C715 1.254 . S
O713 C694 1.246 . S
O713 Zn701 2.034 . S
O714 Zn693 2.024 . S
O714 C694 1.249 . S
C715 O711 1.251 . S
C715 O712 1.254 . S
H716 C689 0.949 . S
H717 C691 0.950 . S
H718 C698 0.949 . S
H719 C700 0.950 . S
C720 O736 1.251 . S
C720 O738 1.254 . S
N721 C722 1.333 . S
N721 C726 1.307 . S
N721 Zn727 2.020 . S
C722 N721 1.333 . S
C722 C723 1.379 . S
C722 H740 0.952 . S
C723 C722 1.379 . S
C723 C724 1.390 . S
C723 H750 0.949 . S
C724 C723 1.390 . S
C724 C725 1.357 . S
C725 C724 1.357 . S
C725 C726 1.370 . S
C725 H751 0.950 . S
C726 N721 1.307 . S
C726 C725 1.370 . S
C726 H744 0.948 . S
Zn727 N721 2.020 . S
Zn727 O736 2.039 . S
Zn727 O742 2.034 . S
Zn727 O746 2.025 . S
Zn727 O748 2.024 . S
C728 O747 1.246 . S
C728 O748 1.249 . S
N729 C730 1.307 . S
N729 C731 1.333 . S
N729 Zn735 2.020 . S
C730 N729 1.307 . S
C730 C734 1.370 . S
C730 H741 0.948 . S
C731 N729 1.333 . S
C731 C732 1.379 . S
C731 H739 0.952 . S
C732 C731 1.379 . S
C732 C733 1.390 . S
C732 H752 0.949 . S
C733 C732 1.390 . S
C733 C734 1.357 . S
C734 C730 1.370 . S
C734 C733 1.357 . S
C734 H753 0.950 . S
Zn735 N729 2.020 . S
Zn735 O738 2.025 . S
Zn735 O743 2.024 . S
Zn735 O745 2.039 . S
Zn735 O747 2.034 . S
O736 C720 1.251 . S
O736 Zn727 2.039 . S
C737 O742 1.246 . S
C737 O743 1.249 . S
O738 C720 1.254 . S
O738 Zn735 2.025 . S
H739 C731 0.952 . S
H740 C722 0.952 . S
H741 C730 0.948 . S
O742 Zn727 2.034 . S
O742 C737 1.246 . S
O743 Zn735 2.024 . S
O743 C737 1.249 . S
H744 C726 0.948 . S
O745 Zn735 2.039 . S
O745 C749 1.251 . S
O746 Zn727 2.025 . S
O746 C749 1.254 . S
O747 C728 1.246 . S
O747 Zn735 2.034 . S
O748 Zn727 2.024 . S
O748 C728 1.249 . S
C749 O745 1.251 . S
C749 O746 1.254 . S
H750 C723 0.949 . S
H751 C725 0.950 . S
H752 C732 0.949 . S
H753 C734 0.950 . S
C754 O770 1.251 . S
C754 O772 1.254 . S
N755 C756 1.333 . S
N755 C760 1.307 . S
N755 Zn761 2.020 . S
C756 N755 1.333 . S
C756 C757 1.379 . S
C756 H774 0.952 . S
C757 C756 1.379 . S
C757 C758 1.390 . S
C757 H784 0.949 . S
C758 C757 1.390 . S
C758 C759 1.357 . S
C759 C758 1.357 . S
C759 C760 1.370 . S
C759 H785 0.950 . S
C760 N755 1.307 . S
C760 C759 1.370 . S
C760 H778 0.948 . S
Zn761 N755 2.020 . S
Zn761 O770 2.039 . S
Zn761 O776 2.034 . S
Zn761 O780 2.025 . S
Zn761 O782 2.024 . S
C762 O781 1.246 . S
C762 O782 1.249 . S
N763 C764 1.307 . S
N763 C765 1.333 . S
N763 Zn769 2.020 . S
C764 N763 1.307 . S
C764 C768 1.370 . S
C764 H775 0.948 . S
C765 N763 1.333 . S
C765 C766 1.379 . S
C765 H773 0.952 . S
C766 C765 1.379 . S
C766 C767 1.390 . S
C766 H786 0.949 . S
C767 C766 1.390 . S
C767 C768 1.357 . S
C768 C764 1.370 . S
C768 C767 1.357 . S
C768 H787 0.950 . S
Zn769 N763 2.020 . S
Zn769 O772 2.025 . S
Zn769 O777 2.024 . S
Zn769 O779 2.039 . S
Zn769 O781 2.034 . S
O770 C754 1.251 . S
O770 Zn761 2.039 . S
C771 O776 1.246 . S
C771 O777 1.249 . S
O772 C754 1.254 . S
O772 Zn769 2.025 . S
H773 C765 0.952 . S
H774 C756 0.952 . S
H775 C764 0.948 . S
O776 Zn761 2.034 . S
O776 C771 1.246 . S
O777 Zn769 2.024 . S
O777 C771 1.249 . S
H778 C760 0.948 . S
O779 Zn769 2.039 . S
O779 C783 1.251 . S
O780 Zn761 2.025 . S
O780 C783 1.254 . S
O781 C762 1.246 . S
O781 Zn769 2.034 . S
O782 Zn761 2.024 . S
O782 C762 1.249 . S
C783 O779 1.251 . S
C783 O780 1.254 . S
H784 C757 0.949 . S
H785 C759 0.950 . S
H786 C766 0.949 . S
H787 C768 0.950 . S
C788 O804 1.251 . S
C788 O806 1.254 . S
N789 C790 1.333 . S
N789 C794 1.307 . S
N789 Zn795 2.020 . S
C790 N789 1.333 . S
C790 C791 1.379 . S
C790 H808 0.952 . S
C791 C790 1.379 . S
C791 C792 1.390 . S
C791 H818 0.949 . S
C792 C791 1.390 . S
C792 C793 1.357 . S
C793 C792 1.357 . S
C793 C794 1.370 . S
C793 H819 0.950 . S
C794 N789 1.307 . S
C794 C793 1.370 . S
C794 H812 0.948 . S
Zn795 N789 2.020 . S
Zn795 O804 2.039 . S
Zn795 O810 2.034 . S
Zn795 O814 2.025 . S
Zn795 O816 2.024 . S
C796 O815 1.246 . S
C796 O816 1.249 . S
N797 C798 1.307 . S
N797 C799 1.333 . S
N797 Zn803 2.020 . S
C798 N797 1.307 . S
C798 C802 1.370 . S
C798 H809 0.948 . S
C799 N797 1.333 . S
C799 C800 1.379 . S
C799 H807 0.952 . S
C800 C799 1.379 . S
C800 C801 1.390 . S
C800 H820 0.949 . S
C801 C800 1.390 . S
C801 C802 1.357 . S
C802 C798 1.370 . S
C802 C801 1.357 . S
C802 H821 0.950 . S
Zn803 N797 2.020 . S
Zn803 O806 2.025 . S
Zn803 O811 2.024 . S
Zn803 O813 2.039 . S
Zn803 O815 2.034 . S
O804 C788 1.251 . S
O804 Zn795 2.039 . S
C805 O810 1.246 . S
C805 O811 1.249 . S
O806 C788 1.254 . S
O806 Zn803 2.025 . S
H807 C799 0.952 . S
H808 C790 0.952 . S
H809 C798 0.948 . S
O810 Zn795 2.034 . S
O810 C805 1.246 . S
O811 Zn803 2.024 . S
O811 C805 1.249 . S
H812 C794 0.948 . S
O813 Zn803 2.039 . S
O813 C817 1.251 . S
O814 Zn795 2.025 . S
O814 C817 1.254 . S
O815 C796 1.246 . S
O815 Zn803 2.034 . S
O816 Zn795 2.024 . S
O816 C796 1.249 . S
C817 O813 1.251 . S
C817 O814 1.254 . S
H818 C791 0.949 . S
H819 C793 0.950 . S
H820 C800 0.949 . S
H821 C802 0.950 . S
C822 O838 1.251 . S
C822 O840 1.254 . S
N823 C824 1.333 . S
N823 C828 1.307 . S
N823 Zn829 2.020 . S
C824 N823 1.333 . S
C824 C825 1.379 . S
C824 H842 0.952 . S
C825 C824 1.379 . S
C825 C826 1.390 . S
C825 H852 0.949 . S
C826 C825 1.390 . S
C826 C827 1.357 . S
C827 C826 1.357 . S
C827 C828 1.370 . S
C827 H853 0.950 . S
C828 N823 1.307 . S
C828 C827 1.370 . S
C828 H846 0.948 . S
Zn829 N823 2.020 . S
Zn829 O838 2.039 . S
Zn829 O844 2.034 . S
Zn829 O848 2.025 . S
Zn829 O850 2.024 . S
C830 O849 1.246 . S
C830 O850 1.249 1_655 S
N831 C832 1.307 . S
N831 C833 1.333 1_554 S
N831 Zn837 2.020 . S
C832 N831 1.307 . S
C832 C836 1.370 . S
C832 H843 0.948 . S
C833 N831 1.333 1_556 S
C833 C834 1.375 1_455 S
C833 H841 0.952 . S
C834 C833 1.375 1_655 S
C834 C835 1.392 . S
C834 H854 0.952 . S
C835 C834 1.392 . S
C835 C836 1.357 1_656 S
C836 C832 1.370 . S
C836 C835 1.357 1_454 S
C836 H855 0.950 . S
Zn837 N831 2.020 . S
Zn837 O840 2.025 . S
Zn837 O845 2.024 . S
Zn837 O847 2.039 1_554 S
Zn837 O849 2.034 1_455 S
O838 C822 1.251 . S
O838 Zn829 2.039 . S
C839 O844 1.246 . S
C839 O845 1.249 . S
O840 C822 1.254 . S
O840 Zn837 2.025 . S
H841 C833 0.952 . S
H842 C824 0.952 . S
H843 C832 0.948 . S
O844 Zn829 2.034 . S
O844 C839 1.246 . S
O845 Zn837 2.024 . S
O845 C839 1.249 . S
H846 C828 0.948 . S
O847 Zn837 2.039 1_556 S
O847 C851 1.251 . S
O848 Zn829 2.025 . S
O848 C851 1.254 1_554 S
O849 C830 1.246 . S
O849 Zn837 2.034 1_655 S
O850 Zn829 2.024 . S
O850 C830 1.249 1_455 S
C851 O847 1.251 . S
C851 O848 1.254 1_556 S
H852 C825 0.949 . S
H853 C827 0.950 . S
H854 C834 0.952 . S
H855 C836 0.950 . S
C856 C857 1.387 . S
C856 H860 0.950 . S
C856 C865 1.390 . S
C857 C856 1.387 . S
C857 C859 1.387 . S
H858 C865 0.950 . S
C859 C857 1.387 . S
C859 C861 1.390 . S
C859 H863 0.950 . S
H860 C856 0.950 . S
C861 C859 1.390 . S
C861 C862 1.387 . S
C861 H864 0.950 . S
C862 C861 1.387 . S
C862 C865 1.387 . S
H863 C859 0.950 . S
H864 C861 0.950 . S
C865 C856 1.390 . S
C865 H858 0.950 . S
C865 C862 1.387 . S
C866 C867 1.387 . S
C866 H870 0.950 . S
C866 C875 1.390 . S
C867 C866 1.387 . S
C867 C869 1.387 . S
H868 C875 0.950 . S
C869 C867 1.387 . S
C869 C871 1.390 . S
C869 H873 0.950 . S
H870 C866 0.950 . S
C871 C869 1.390 . S
C871 C872 1.387 . S
C871 H874 0.950 . S
C872 C871 1.387 . S
C872 C875 1.387 . S
H873 C869 0.950 . S
H874 C871 0.950 . S
C875 C866 1.390 . S
C875 H868 0.950 . S
C875 C872 1.387 . S
C876 C877 1.387 . S
C876 H880 0.950 . S
C876 C885 1.390 . S
C877 C876 1.387 . S
C877 C879 1.387 . S
H878 C885 0.950 . S
C879 C877 1.387 . S
C879 C881 1.390 . S
C879 H883 0.950 . S
H880 C876 0.950 . S
C881 C879 1.390 . S
C881 C882 1.387 . S
C881 H884 0.950 . S
C882 C881 1.387 . S
C882 C885 1.387 . S
H883 C879 0.950 . S
H884 C881 0.950 . S
C885 C876 1.390 . S
C885 H878 0.950 . S
C885 C882 1.387 . S
C886 C887 1.387 . S
C886 H890 0.950 . S
C886 C895 1.390 . S
C887 C886 1.387 . S
C887 C889 1.387 . S
H888 C895 0.950 . S
C889 C887 1.387 . S
C889 C891 1.390 . S
C889 H893 0.950 . S
H890 C886 0.950 . S
C891 C889 1.390 . S
C891 C892 1.387 . S
C891 H894 0.950 . S
C892 C891 1.387 . S
C892 C895 1.387 . S
H893 C889 0.950 . S
H894 C891 0.950 . S
C895 C886 1.390 . S
C895 H888 0.950 . S
C895 C892 1.387 . S
C896 C897 1.387 . S
C896 H900 0.950 . S
C896 C905 1.390 . S
C897 C896 1.387 . S
C897 C899 1.387 . S
H898 C905 0.966 . S
C899 C897 1.387 . S
C899 C901 1.390 . S
C899 H903 0.950 . S
H900 C896 0.950 . S
C901 C899 1.390 . S
C901 C902 1.387 . S
C901 H904 0.950 . S
C902 C901 1.387 . S
C902 C905 1.387 . S
H903 C899 0.950 . S
H904 C901 0.950 . S
C905 C896 1.390 . S
C905 H898 0.966 . S
C905 C902 1.387 . S
C906 C907 1.387 . S
C906 H910 0.950 . S
C906 C915 1.390 . S
C907 C906 1.387 . S
C907 C909 1.387 . S
H908 C915 0.950 . S
C909 C907 1.387 . S
C909 C911 1.390 . S
C909 H913 0.950 . S
H910 C906 0.950 . S
C911 C909 1.390 . S
C911 C912 1.387 . S
C911 H914 0.950 . S
C912 C911 1.387 . S
C912 C915 1.387 . S
H913 C909 0.950 . S
H914 C911 0.950 . S
C915 C906 1.390 . S
C915 H908 0.950 . S
C915 C912 1.387 . S
C916 C917 1.387 . S
C916 H920 0.950 . S
C916 C925 1.390 . S
C917 C916 1.387 . S
C917 C919 1.387 . S
H918 C925 0.950 . S
C919 C917 1.387 . S
C919 C921 1.390 . S
C919 H923 0.950 . S
H920 C916 0.950 . S
C921 C919 1.390 . S
C921 C922 1.387 . S
C921 H924 0.950 . S
C922 C921 1.387 . S
C922 C925 1.387 . S
H923 C919 0.950 . S
H924 C921 0.950 . S
C925 C916 1.390 . S
C925 H918 0.950 . S
C925 C922 1.387 . S
C926 C927 1.387 . S
C926 H930 0.950 . S
C926 C935 1.390 . S
C927 C926 1.387 . S
C927 C929 1.387 . S
H928 C935 0.950 . S
C929 C927 1.387 . S
C929 C931 1.390 . S
C929 H933 0.950 . S
H930 C926 0.950 . S
C931 C929 1.390 . S
C931 C932 1.387 . S
C931 H934 0.950 . S
C932 C931 1.387 . S
C932 C935 1.387 . S
H933 C929 0.950 . S
H934 C931 0.950 . S
C935 C926 1.390 . S
C935 H928 0.950 . S
C935 C932 1.387 . S
C936 C937 1.387 1_565 S
C936 H940 0.950 . S
C936 C945 1.390 . S
C937 C936 1.387 1_545 S
C937 C939 1.387 . S
H938 C945 0.950 . S
C939 C937 1.387 . S
C939 C941 1.390 . S
C939 H943 0.950 . S
H940 C936 0.950 . S
C941 C939 1.390 . S
C941 C942 1.387 1_545 S
C941 H944 0.950 . S
C942 C941 1.387 1_565 S
C942 C945 1.387 . S
H943 C939 0.950 . S
H944 C941 0.950 . S
C945 C936 1.390 . S
C945 H938 0.950 . S
C945 C942 1.387 . S
C946 C947 1.387 . S
C946 H950 0.950 . S
C946 C955 1.390 . S
C947 C946 1.387 . S
C947 C949 1.387 . S
H948 C955 0.950 . S
C949 C947 1.387 . S
C949 C951 1.390 . S
C949 H953 0.950 . S
H950 C946 0.950 . S
C951 C949 1.390 . S
C951 C952 1.387 . S
C951 H954 0.950 . S
C952 C951 1.387 . S
C952 C955 1.387 . S
H953 C949 0.950 . S
H954 C951 0.950 . S
C955 C946 1.390 . S
C955 H948 0.950 . S
C955 C952 1.387 . S
C956 C957 1.387 . S
C956 H960 0.950 . S
C956 C965 1.390 . S
C957 C956 1.387 . S
C957 C959 1.387 1_545 S
H958 C965 0.950 . S
C959 C957 1.387 1_565 S
C959 C961 1.390 . S
C959 H963 0.950 . S
H960 C956 0.950 . S
C961 C959 1.390 . S
C961 C962 1.387 1_565 S
C961 H964 0.950 . S
C962 C961 1.387 1_545 S
C962 C965 1.387 . S
H963 C959 0.950 . S
H964 C961 0.950 . S
C965 C956 1.390 . S
C965 H958 0.950 . S
C965 C962 1.387 . S
C966 C967 1.387 . S
C966 H970 0.950 . S
C966 C975 1.390 . S
C967 C966 1.387 . S
C967 C969 1.387 . S
H968 C975 0.950 . S
C969 C967 1.387 . S
C969 C971 1.390 . S
C969 H973 0.950 . S
H970 C966 0.950 . S
C971 C969 1.390 . S
C971 C972 1.387 . S
C971 H974 0.950 . S
C972 C971 1.387 . S
C972 C975 1.387 . S
H973 C969 0.950 . S
H974 C971 0.950 . S
C975 C966 1.390 . S
C975 H968 0.950 . S
C975 C972 1.387 . S
C976 C977 1.387 . S
C976 H980 0.950 1_545 S
C976 C985 1.390 . S
C977 C976 1.387 . S
C977 C979 1.387 . S
H978 C985 0.950 . S
C979 C977 1.387 . S
C979 C981 1.390 . S
C979 H983 0.950 . S
H980 C976 0.950 1_565 S
C981 C979 1.390 . S
C981 C982 1.387 . S
C981 H984 0.950 . S
C982 C981 1.387 . S
C982 C985 1.387 . S
H983 C979 0.950 . S
H984 C981 0.950 . S
C985 C976 1.390 . S
C985 H978 0.950 . S
C985 C982 1.387 . S
C986 C987 1.387 . S
C986 H990 0.950 . S
C986 C995 1.390 . S
C987 C986 1.387 . S
C987 C989 1.387 . S
H988 C995 0.950 . S
C989 C987 1.387 . S
C989 C991 1.390 . S
C989 H993 0.950 . S
H990 C986 0.950 . S
C991 C989 1.390 . S
C991 C992 1.387 . S
C991 H994 0.950 . S
C992 C991 1.387 . S
C992 C995 1.387 . S
H993 C989 0.950 . S
H994 C991 0.950 . S
C995 C986 1.390 . S
C995 H988 0.950 . S
C995 C992 1.387 . S
C996 C997 1.387 . S
C996 H1000 0.950 . S
C996 C1005 1.390 . S
C997 C996 1.387 . S
C997 C999 1.387 1_545 S
H998 C1005 0.950 . S
C999 C997 1.387 1_565 S
C999 C1001 1.390 . S
C999 H1003 0.950 . S
H1000 C996 0.950 . S
C1001 C999 1.390 . S
C1001 C1002 1.387 . S
C1001 H1004 0.950 . S
C1002 C1001 1.387 . S
C1002 C1005 1.387 1_565 S
H1003 C999 0.950 . S
H1004 C1001 0.950 . S
C1005 C996 1.390 . S
C1005 H998 0.950 . S
C1005 C1002 1.387 1_545 S
C1006 C1007 1.387 . S
C1006 H1010 0.950 . S
C1006 C1015 1.390 . S
C1007 C1006 1.387 . S
C1007 C1009 1.387 . S
H1008 C1015 0.950 . S
C1009 C1007 1.387 . S
C1009 C1011 1.390 . S
C1009 H1013 0.950 . S
H1010 C1006 0.950 . S
C1011 C1009 1.390 . S
C1011 C1012 1.387 . S
C1011 H1014 0.950 . S
C1012 C1011 1.387 . S
C1012 C1015 1.387 . S
H1013 C1009 0.950 . S
H1014 C1011 0.950 . S
C1015 C1006 1.390 . S
C1015 H1008 0.950 . S
C1015 C1012 1.387 . S
C1016 C1017 1.387 . S
C1016 H1020 0.954 . S
C1016 C1025 1.390 . S
C1017 C1016 1.387 . S
C1017 C1019 1.387 . S
H1018 C1025 0.950 1_565 S
C1019 C1017 1.387 . S
C1019 C1021 1.390 . S
C1019 H1023 0.950 . S
H1020 C1016 0.954 . S
C1021 C1019 1.390 . S
C1021 C1022 1.387 . S
C1021 H1024 0.950 . S
C1022 C1021 1.387 . S
C1022 C1025 1.387 . S
H1023 C1019 0.950 . S
H1024 C1021 0.950 . S
C1025 C1016 1.390 . S
C1025 H1018 0.950 1_545 S
C1025 C1022 1.387 . S
C1026 C1027 1.387 . S
C1026 H1030 0.950 . S
C1026 C1035 1.390 . S
C1027 C1026 1.387 . S
C1027 C1029 1.387 . S
H1028 C1035 0.950 . S
C1029 C1027 1.387 . S
C1029 C1031 1.390 . S
C1029 H1033 0.950 . S
H1030 C1026 0.950 . S
C1031 C1029 1.390 . S
C1031 C1032 1.387 . S
C1031 H1034 0.950 . S
C1032 C1031 1.387 . S
C1032 C1035 1.387 . S
H1033 C1029 0.950 . S
H1034 C1031 0.950 . S
C1035 C1026 1.390 . S
C1035 H1028 0.950 . S
C1035 C1032 1.387 . S
C1036 C1037 1.387 . S
C1036 H1040 0.950 . S
C1036 C1045 1.390 . S
C1037 C1036 1.387 . S
C1037 C1039 1.387 . S
H1038 C1045 0.950 . S
C1039 C1037 1.387 . S
C1039 C1041 1.390 . S
C1039 H1043 0.950 . S
H1040 C1036 0.950 . S
C1041 C1039 1.390 . S
C1041 C1042 1.387 . S
C1041 H1044 0.950 . S
C1042 C1041 1.387 . S
C1042 C1045 1.387 . S
H1043 C1039 0.950 . S
H1044 C1041 0.950 . S
C1045 C1036 1.390 . S
C1045 H1038 0.950 . S
C1045 C1042 1.387 . S
C1046 C1047 1.387 . S
C1046 H1050 0.950 . S
C1046 C1055 1.390 . S
C1047 C1046 1.387 . S
C1047 C1049 1.387 . S
H1048 C1055 0.950 . S
C1049 C1047 1.387 . S
C1049 C1051 1.390 . S
C1049 H1053 0.950 . S
H1050 C1046 0.950 . S
C1051 C1049 1.390 . S
C1051 C1052 1.387 . S
C1051 H1054 0.950 . S
C1052 C1051 1.387 . S
C1052 C1055 1.387 . S
H1053 C1049 0.950 . S
H1054 C1051 0.950 . S
C1055 C1046 1.390 . S
C1055 H1048 0.950 . S
C1055 C1052 1.387 . S
C1056 C1057 1.387 . S
C1056 H1060 0.950 . S
C1056 C1065 1.390 . S
C1057 C1056 1.387 . S
C1057 C1059 1.387 . S
H1058 C1065 0.950 . S
C1059 C1057 1.387 . S
C1059 C1061 1.390 . S
C1059 H1063 0.950 . S
H1060 C1056 0.950 . S
C1061 C1059 1.390 . S
C1061 C1062 1.387 . S
C1061 H1064 0.950 . S
C1062 C1061 1.387 . S
C1062 C1065 1.387 . S
H1063 C1059 0.950 . S
H1064 C1061 0.950 . S
C1065 C1056 1.390 . S
C1065 H1058 0.950 . S
C1065 C1062 1.387 . S
C1066 C1067 1.387 . S
C1066 H1070 0.950 . S
C1066 C1075 1.390 . S
C1067 C1066 1.387 . S
C1067 C1069 1.387 . S
H1068 C1075 0.950 . S
C1069 C1067 1.387 . S
C1069 C1071 1.390 . S
C1069 H1073 0.950 . S
H1070 C1066 0.950 . S
C1071 C1069 1.390 . S
C1071 C1072 1.387 . S
C1071 H1074 0.952 . S
C1072 C1071 1.387 . S
C1072 C1075 1.387 . S
H1073 C1069 0.950 . S
H1074 C1071 0.952 . S
C1075 C1066 1.390 . S
C1075 H1068 0.950 . S
C1075 C1072 1.387 . S
C1076 C1077 1.387 . S
C1076 H1080 0.950 . S
C1076 C1085 1.390 . S
C1077 C1076 1.387 . S
C1077 C1079 1.387 . S
H1078 C1085 0.950 . S
C1079 C1077 1.387 . S
C1079 C1081 1.390 . S
C1079 H1083 0.950 . S
H1080 C1076 0.950 . S
C1081 C1079 1.390 . S
C1081 C1082 1.387 . S
C1081 H1084 0.950 . S
C1082 C1081 1.387 . S
C1082 C1085 1.387 . S
H1083 C1079 0.950 . S
H1084 C1081 0.950 . S
C1085 C1076 1.390 . S
C1085 H1078 0.950 . S
C1085 C1082 1.387 . S
C1086 C1087 1.387 . S
C1086 H1090 0.950 . S
C1086 C1095 1.390 . S
C1087 C1086 1.387 . S
C1087 C1089 1.387 . S
H1088 C1095 0.950 . S
C1089 C1087 1.387 . S
C1089 C1091 1.390 . S
C1089 H1093 0.950 . S
H1090 C1086 0.950 . S
C1091 C1089 1.390 . S
C1091 C1092 1.387 . S
C1091 H1094 0.950 . S
C1092 C1091 1.387 . S
C1092 C1095 1.387 . S
H1093 C1089 0.950 . S
H1094 C1091 0.950 . S
C1095 C1086 1.390 . S
C1095 H1088 0.950 . S
C1095 C1092 1.387 . S
C1096 C1097 1.387 . S
C1096 H1100 0.950 1_455 S
C1096 C1105 1.365 1_556 S
C1097 C1096 1.387 . S
C1097 C1099 1.387 . S
H1098 C1105 0.984 . S
C1099 C1097 1.387 . S
C1099 C1101 1.390 . S
C1099 H1103 0.950 . S
H1100 C1096 0.950 1_655 S
C1101 C1099 1.390 . S
C1101 C1102 1.387 . S
C1101 H1104 0.950 . S
C1102 C1101 1.387 . S
C1102 C1105 1.379 1_556 S
H1103 C1099 0.950 . S
H1104 C1101 0.950 . S
C1105 C1096 1.365 1_554 S
C1105 H1098 0.984 . S
C1105 C1102 1.379 1_554 S
C1106 C1107 1.387 . S
C1106 H1110 0.950 . S
C1106 C1115 1.390 . S
C1107 C1106 1.387 . S
C1107 C1109 1.387 . S
H1108 C1115 0.950 . S
C1109 C1107 1.387 . S
C1109 C1111 1.390 . S
C1109 H1113 0.950 . S
H1110 C1106 0.950 . S
C1111 C1109 1.390 . S
C1111 C1112 1.387 . S
C1111 H1114 0.950 . S
C1112 C1111 1.387 . S
C1112 C1115 1.387 . S
H1113 C1109 0.950 . S
H1114 C1111 0.950 . S
C1115 C1106 1.390 . S
C1115 H1108 0.950 . S
C1115 C1112 1.387 . S
C1116 C1117 1.387 . S
C1116 H1120 0.950 . S
C1116 C1125 1.390 . S
C1117 C1116 1.387 . S
C1117 C1119 1.387 . S
H1118 C1125 0.950 . S
C1119 C1117 1.387 . S
C1119 C1121 1.390 . S
C1119 H1123 0.950 . S
H1120 C1116 0.950 . S
C1121 C1119 1.390 . S
C1121 C1122 1.387 . S
C1121 H1124 0.950 . S
C1122 C1121 1.387 . S
C1122 C1125 1.387 . S
H1123 C1119 0.950 . S
H1124 C1121 0.950 . S
C1125 C1116 1.390 . S
C1125 H1118 0.950 . S
C1125 C1122 1.387 . S
C1126 C1127 1.387 . S
C1126 H1130 0.950 . S
C1126 C1135 1.390 . S
C1127 C1126 1.387 . S
C1127 C1129 1.387 . S
H1128 C1135 0.950 . S
C1129 C1127 1.387 . S
C1129 C1131 1.390 . S
C1129 H1133 0.950 . S
H1130 C1126 0.950 . S
C1131 C1129 1.390 . S
C1131 C1132 1.387 . S
C1131 H1134 0.950 . S
C1132 C1131 1.387 . S
C1132 C1135 1.387 . S
H1133 C1129 0.950 . S
H1134 C1131 0.950 . S
C1135 C1126 1.390 . S
C1135 H1128 0.950 . S
C1135 C1132 1.387 . S
C1136 C1137 1.387 . S
C1136 H1140 0.950 1_455 S
C1136 C1145 1.390 . S
C1137 C1136 1.387 . S
C1137 C1139 1.387 . S
H1138 C1145 0.950 . S
C1139 C1137 1.387 . S
C1139 C1141 1.390 . S
C1139 H1143 0.950 . S
H1140 C1136 0.950 1_655 S
C1141 C1139 1.390 . S
C1141 C1142 1.387 . S
C1141 H1144 0.950 . S
C1142 C1141 1.387 . S
C1142 C1145 1.387 . S
H1143 C1139 0.950 . S
H1144 C1141 0.950 . S
C1145 C1136 1.390 . S
C1145 H1138 0.950 . S
C1145 C1142 1.387 . S
C1146 C1147 1.387 . S
C1146 H1150 0.950 . S
C1146 C1155 1.390 . S
C1147 C1146 1.387 . S
C1147 C1149 1.387 . S
H1148 C1155 0.950 . S
C1149 C1147 1.387 . S
C1149 C1151 1.390 . S
C1149 H1153 0.950 . S
H1150 C1146 0.950 . S
C1151 C1149 1.390 . S
C1151 C1152 1.387 . S
C1151 H1154 0.950 . S
C1152 C1151 1.387 . S
C1152 C1155 1.387 . S
H1153 C1149 0.950 . S
H1154 C1151 0.950 . S
C1155 C1146 1.390 . S
C1155 H1148 0.950 . S
C1155 C1152 1.387 . S
C1156 C1157 1.387 . S
C1156 H1160 0.950 . S
C1156 C1165 1.390 . S
C1157 C1156 1.387 . S
C1157 C1159 1.387 . S
H1158 C1165 0.950 . S
C1159 C1157 1.387 . S
C1159 C1161 1.390 . S
C1159 H1163 0.950 . S
H1160 C1156 0.950 . S
C1161 C1159 1.390 . S
C1161 C1162 1.387 . S
C1161 H1164 0.950 . S
C1162 C1161 1.387 . S
C1162 C1165 1.387 . S
H1163 C1159 0.950 . S
H1164 C1161 0.950 . S
C1165 C1156 1.390 . S
C1165 H1158 0.950 . S
C1165 C1162 1.387 . S
C1166 C1167 1.387 . S
C1166 H1170 0.950 . S
C1166 C1175 1.390 . S
C1167 C1166 1.387 . S
C1167 C1169 1.387 . S
H1168 C1175 0.950 . S
C1169 C1167 1.387 . S
C1169 C1171 1.390 . S
C1169 H1173 0.950 . S
H1170 C1166 0.950 . S
C1171 C1169 1.390 . S
C1171 C1172 1.387 . S
C1171 H1174 0.950 . S
C1172 C1171 1.387 . S
C1172 C1175 1.387 . S
H1173 C1169 0.950 . S
H1174 C1171 0.950 . S
C1175 C1166 1.390 . S
C1175 H1168 0.950 . S
C1175 C1172 1.387 . S
C1176 C1177 1.387 . S
C1176 H1180 0.950 . S
C1176 C1185 1.390 1_655 S
C1177 C1176 1.387 . S
C1177 C1179 1.387 1_545 S
H1178 C1185 0.950 . S
C1179 C1177 1.387 1_565 S
C1179 C1181 1.390 1_565 S
C1179 H1183 0.950 . S
H1180 C1176 0.950 . S
C1181 C1179 1.390 1_545 S
C1181 C1182 1.387 1_655 S
C1181 H1184 0.950 1_545 S
C1182 C1181 1.387 1_455 S
C1182 C1185 1.387 . S
H1183 C1179 0.950 . S
H1184 C1181 0.950 1_565 S
C1185 C1176 1.390 1_455 S
C1185 H1178 0.950 . S
C1185 C1182 1.387 . S
C1186 C1187 1.387 . S
C1186 H1190 0.950 . S
C1186 C1195 1.390 . S
C1187 C1186 1.387 . S
C1187 C1189 1.387 . S
H1188 C1195 0.950 . S
C1189 C1187 1.387 . S
C1189 C1191 1.390 . S
C1189 H1193 0.950 . S
H1190 C1186 0.950 . S
C1191 C1189 1.390 . S
C1191 C1192 1.387 . S
C1191 H1194 0.950 . S
C1192 C1191 1.387 . S
C1192 C1195 1.387 . S
H1193 C1189 0.950 . S
H1194 C1191 0.950 . S
C1195 C1186 1.390 . S
C1195 H1188 0.950 . S
C1195 C1192 1.387 . S
C1196 C1197 1.387 . S
C1196 H1200 0.950 . S
C1196 C1205 1.390 . S
C1197 C1196 1.387 . S
C1197 C1199 1.387 1_545 S
H1198 C1205 0.950 . S
C1199 C1197 1.387 1_565 S
C1199 C1201 1.390 . S
C1199 H1203 0.950 . S
H1200 C1196 0.950 . S
C1201 C1199 1.390 . S
C1201 C1202 1.368 1_565 S
C1201 H1204 0.950 . S
C1202 C1201 1.368 1_545 S
C1202 C1205 1.411 . S
H1203 C1199 0.950 . S
H1204 C1201 0.950 . S
C1205 C1196 1.390 . S
C1205 H1198 0.950 . S
C1205 C1202 1.411 . S
C1206 C1207 1.387 . S
C1206 H1210 0.950 . S
C1206 C1215 1.390 . S
C1207 C1206 1.387 . S
C1207 C1209 1.387 . S
H1208 C1215 0.950 . S
C1209 C1207 1.387 . S
C1209 C1211 1.390 . S
C1209 H1213 0.950 . S
H1210 C1206 0.950 . S
C1211 C1209 1.390 . S
C1211 C1212 1.387 . S
C1211 H1214 0.950 . S
C1212 C1211 1.387 . S
C1212 C1215 1.387 . S
H1213 C1209 0.950 . S
H1214 C1211 0.950 . S
C1215 C1206 1.390 . S
C1215 H1208 0.950 . S
C1215 C1212 1.387 . S
C1216 C1217 1.387 . S
C1216 H1220 0.950 . S
C1216 C1225 1.390 . S
C1217 C1216 1.387 . S
C1217 C1219 1.387 1_565 S
H1218 C1225 0.950 1_455 S
C1219 C1217 1.387 1_545 S
C1219 C1221 1.390 1_545 S
C1219 H1223 0.950 . S
H1220 C1216 0.950 . S
C1221 C1219 1.390 1_565 S
C1221 C1222 1.387 . S
C1221 H1224 0.950 1_565 S
C1222 C1221 1.387 . S
C1222 C1225 1.387 . S
H1223 C1219 0.950 . S
H1224 C1221 0.950 1_545 S
C1225 C1216 1.390 . S
C1225 H1218 0.950 1_655 S
C1225 C1222 1.387 . S
C1226 C1227 1.387 . S
C1226 H1230 0.950 . S
C1226 C1235 1.390 . S
C1227 C1226 1.387 . S
C1227 C1229 1.387 . S
H1228 C1235 0.950 . S
C1229 C1227 1.387 . S
C1229 C1231 1.390 . S
C1229 H1233 0.950 . S
H1230 C1226 0.950 . S
C1231 C1229 1.390 . S
C1231 C1232 1.387 . S
C1231 H1234 0.950 . S
C1232 C1231 1.387 . S
C1232 C1235 1.387 . S
H1233 C1229 0.950 . S
H1234 C1231 0.950 . S
C1235 C1226 1.390 . S
C1235 H1228 0.950 . S
C1235 C1232 1.387 . S
C1236 C1237 1.387 . S
C1236 H1240 0.950 1_545 S
C1236 C1245 1.390 . S
C1237 C1236 1.387 . S
C1237 C1239 1.387 . S
H1238 C1245 0.950 . S
C1239 C1237 1.387 . S
C1239 C1241 1.390 . S
C1239 H1243 0.950 . S
H1240 C1236 0.950 1_565 S
C1241 C1239 1.390 . S
C1241 C1242 1.387 . S
C1241 H1244 0.950 . S
C1242 C1241 1.387 . S
C1242 C1245 1.387 . S
H1243 C1239 0.950 . S
H1244 C1241 0.950 . S
C1245 C1236 1.390 . S
C1245 H1238 0.950 . S
C1245 C1242 1.387 . S
C1246 C1247 1.387 . S
C1246 H1250 0.950 . S
C1246 C1255 1.390 . S
C1247 C1246 1.387 . S
C1247 C1249 1.387 . S
H1248 C1255 0.950 . S
C1249 C1247 1.387 . S
C1249 C1251 1.390 . S
C1249 H1253 0.950 . S
H1250 C1246 0.950 . S
C1251 C1249 1.390 . S
C1251 C1252 1.387 . S
C1251 H1254 0.950 . S
C1252 C1251 1.387 . S
C1252 C1255 1.387 . S
H1253 C1249 0.950 . S
H1254 C1251 0.950 . S
C1255 C1246 1.390 . S
C1255 H1248 0.950 . S
C1255 C1252 1.387 . S
C1256 C1257 1.387 1_545 S
C1256 H1260 0.950 . S
C1256 C1265 1.390 . S
C1257 C1256 1.387 1_565 S
C1257 C1259 1.387 . S
H1258 C1265 0.950 . S
C1259 C1257 1.387 . S
C1259 C1261 1.390 . S
C1259 H1263 0.950 . S
H1260 C1256 0.950 . S
C1261 C1259 1.390 . S
C1261 C1262 1.387 . S
C1261 H1264 0.950 . S
C1262 C1261 1.387 . S
C1262 C1265 1.387 1_565 S
H1263 C1259 0.950 . S
H1264 C1261 0.950 . S
C1265 C1256 1.390 . S
C1265 H1258 0.950 . S
C1265 C1262 1.387 1_545 S
C1266 C1267 1.387 . S
C1266 H1270 0.950 . S
C1266 C1275 1.390 . S
C1267 C1266 1.387 . S
C1267 C1269 1.387 1_554 S
H1268 C1275 0.950 . S
C1269 C1267 1.387 1_556 S
C1269 C1271 1.390 . S
C1269 H1273 0.950 . S
H1270 C1266 0.950 . S
C1271 C1269 1.390 . S
C1271 C1272 1.387 1_556 S
C1271 H1274 0.950 . S
C1272 C1271 1.387 1_554 S
C1272 C1275 1.387 . S
H1273 C1269 0.950 . S
H1274 C1271 0.950 . S
C1275 C1266 1.390 . S
C1275 H1268 0.950 . S
C1275 C1272 1.387 . S
C1276 C1277 1.387 . S
C1276 H1280 0.950 . S
C1276 C1285 1.390 . S
C1277 C1276 1.387 . S
C1277 C1279 1.387 . S
H1278 C1285 0.950 . S
C1279 C1277 1.387 . S
C1279 C1281 1.390 . S
C1279 H1283 0.950 . S
H1280 C1276 0.950 . S
C1281 C1279 1.390 . S
C1281 C1282 1.387 . S
C1281 H1284 0.950 . S
C1282 C1281 1.387 . S
C1282 C1285 1.387 . S
H1283 C1279 0.950 . S
H1284 C1281 0.950 . S
C1285 C1276 1.390 . S
C1285 H1278 0.950 . S
C1285 C1282 1.387 . S
C1286 C1287 1.387 . S
C1286 H1290 0.950 . S
C1286 C1295 1.390 . S
C1287 C1286 1.387 . S
C1287 C1289 1.387 . S
H1288 C1295 0.950 . S
C1289 C1287 1.387 . S
C1289 C1291 1.390 . S
C1289 H1293 0.950 . S
H1290 C1286 0.950 . S
C1291 C1289 1.390 . S
C1291 C1292 1.387 . S
C1291 H1294 0.950 . S
C1292 C1291 1.387 . S
C1292 C1295 1.387 . S
H1293 C1289 0.950 . S
H1294 C1291 0.950 . S
C1295 C1286 1.390 . S
C1295 H1288 0.950 . S
C1295 C1292 1.387 . S
C1296 C1297 1.387 . S
C1296 H1300 0.950 . S
C1296 C1305 1.390 . S
C1297 C1296 1.387 . S
C1297 C1299 1.387 . S
H1298 C1305 0.950 . S
C1299 C1297 1.387 . S
C1299 C1301 1.390 . S
C1299 H1303 0.950 . S
H1300 C1296 0.950 . S
C1301 C1299 1.390 . S
C1301 C1302 1.387 . S
C1301 H1304 0.950 . S
C1302 C1301 1.387 . S
C1302 C1305 1.387 . S
H1303 C1299 0.950 . S
H1304 C1301 0.950 . S
C1305 C1296 1.390 . S
C1305 H1298 0.950 . S
C1305 C1302 1.387 . S
C1306 C1307 1.387 . S
C1306 H1310 0.950 . S
C1306 C1315 1.390 . S
C1307 C1306 1.387 . S
C1307 C1309 1.387 . S
H1308 C1315 0.950 . S
C1309 C1307 1.387 . S
C1309 C1311 1.390 . S
C1309 H1313 0.950 . S
H1310 C1306 0.950 . S
C1311 C1309 1.390 . S
C1311 C1312 1.387 . S
C1311 H1314 0.950 . S
C1312 C1311 1.387 . S
C1312 C1315 1.387 . S
H1313 C1309 0.950 . S
H1314 C1311 0.950 . S
C1315 C1306 1.390 . S
C1315 H1308 0.950 . S
C1315 C1312 1.387 . S
C1316 C1317 1.387 . S
C1316 H1320 0.950 . S
C1316 C1325 1.390 . S
C1317 C1316 1.387 . S
C1317 C1319 1.387 . S
H1318 C1325 0.950 . S
C1319 C1317 1.387 . S
C1319 C1321 1.390 . S
C1319 H1323 0.950 . S
H1320 C1316 0.950 . S
C1321 C1319 1.390 . S
C1321 C1322 1.387 . S
C1321 H1324 0.950 . S
C1322 C1321 1.387 . S
C1322 C1325 1.387 . S
H1323 C1319 0.950 . S
H1324 C1321 0.950 . S
C1325 C1316 1.390 . S
C1325 H1318 0.950 . S
C1325 C1322 1.387 . S
C1326 C1327 1.387 . S
C1326 H1330 0.950 . S
C1326 C1335 1.390 . S
C1327 C1326 1.387 . S
C1327 C1329 1.387 . S
H1328 C1335 0.950 . S
C1329 C1327 1.387 . S
C1329 C1331 1.390 . S
C1329 H1333 0.950 . S
H1330 C1326 0.950 . S
C1331 C1329 1.390 . S
C1331 C1332 1.387 . S
C1331 H1334 0.950 . S
C1332 C1331 1.387 . S
C1332 C1335 1.387 . S
H1333 C1329 0.950 . S
H1334 C1331 0.950 . S
C1335 C1326 1.390 . S
C1335 H1328 0.950 . S
C1335 C1332 1.387 . S
C1336 C1337 1.387 . S
C1336 H1340 0.950 . S
C1336 C1345 1.390 . S
C1337 C1336 1.387 . S
C1337 C1339 1.387 . S
H1338 C1345 0.950 . S
C1339 C1337 1.387 . S
C1339 C1341 1.390 . S
C1339 H1343 0.950 . S
H1340 C1336 0.950 . S
C1341 C1339 1.390 . S
C1341 C1342 1.387 . S
C1341 H1344 0.950 . S
C1342 C1341 1.387 . S
C1342 C1345 1.387 . S
H1343 C1339 0.950 . S
H1344 C1341 0.950 . S
C1345 C1336 1.390 . S
C1345 H1338 0.950 . S
C1345 C1342 1.387 . S
C1346 C1347 1.387 . S
C1346 H1350 0.950 . S
C1346 C1355 1.390 . S
C1347 C1346 1.387 . S
C1347 C1349 1.387 . S
H1348 C1355 0.950 . S
C1349 C1347 1.387 . S
C1349 C1351 1.390 . S
C1349 H1353 0.950 . S
H1350 C1346 0.950 . S
C1351 C1349 1.390 . S
C1351 C1352 1.387 . S
C1351 H1354 0.950 . S
C1352 C1351 1.387 . S
C1352 C1355 1.387 . S
H1353 C1349 0.950 . S
H1354 C1351 0.950 . S
C1355 C1346 1.390 . S
C1355 H1348 0.950 . S
C1355 C1352 1.387 . S
C1356 C1357 1.387 . S
C1356 H1360 0.950 . S
C1356 C1365 1.390 . S
C1357 C1356 1.387 . S
C1357 C1359 1.387 . S
H1358 C1365 0.950 . S
C1359 C1357 1.387 . S
C1359 C1361 1.390 . S
C1359 H1363 0.950 . S
H1360 C1356 0.950 . S
C1361 C1359 1.390 . S
C1361 C1362 1.387 . S
C1361 H1364 0.950 . S
C1362 C1361 1.387 . S
C1362 C1365 1.387 . S
H1363 C1359 0.950 . S
H1364 C1361 0.950 . S
C1365 C1356 1.390 . S
C1365 H1358 0.950 . S
C1365 C1362 1.387 . S
C1366 C1367 1.387 . S
C1366 H1370 0.950 . S
C1366 C1375 1.390 . S
C1367 C1366 1.387 . S
C1367 C1369 1.387 . S
H1368 C1375 0.950 . S
C1369 C1367 1.387 . S
C1369 C1371 1.390 . S
C1369 H1373 0.950 . S
H1370 C1366 0.950 . S
C1371 C1369 1.390 . S
C1371 C1372 1.387 . S
C1371 H1374 0.950 . S
C1372 C1371 1.387 . S
C1372 C1375 1.387 . S
H1373 C1369 0.950 . S
H1374 C1371 0.950 . S
C1375 C1366 1.390 . S
C1375 H1368 0.950 . S
C1375 C1372 1.387 . S
C1376 C1377 1.387 . S
C1376 H1380 0.950 . S
C1376 C1385 1.390 . S
C1377 C1376 1.387 . S
C1377 C1379 1.387 . S
H1378 C1385 0.950 1_554 S
C1379 C1377 1.387 . S
C1379 C1381 1.390 . S
C1379 H1383 0.950 . S
H1380 C1376 0.950 . S
C1381 C1379 1.390 . S
C1381 C1382 1.387 . S
C1381 H1384 0.950 . S
C1382 C1381 1.387 . S
C1382 C1385 1.387 . S
H1383 C1379 0.950 . S
H1384 C1381 0.950 . S
C1385 C1376 1.390 . S
C1385 H1378 0.950 1_556 S
C1385 C1382 1.387 . S
C1386 C1387 1.387 1_655 S
C1386 H1390 0.950 . S
C1386 C1395 1.390 . S
C1387 C1386 1.387 1_455 S
C1387 C1389 1.387 1_455 S
H1388 C1395 0.950 . S
C1389 C1387 1.387 1_655 S
C1389 C1391 1.390 . S
C1389 H1393 0.950 1_655 S
H1390 C1386 0.950 . S
C1391 C1389 1.390 . S
C1391 C1392 1.387 . S
C1391 H1394 0.950 . S
C1392 C1391 1.387 . S
C1392 C1395 1.387 . S
H1393 C1389 0.950 1_455 S
H1394 C1391 0.950 . S
C1395 C1386 1.390 . S
C1395 H1388 0.950 . S
C1395 C1392 1.387 . S
C1396 C1397 1.387 . S
C1396 H1400 0.950 1_455 S
C1396 C1405 1.390 . S
C1397 C1396 1.387 . S
C1397 C1399 1.387 . S
H1398 C1405 0.950 . S
C1399 C1397 1.387 . S
C1399 C1401 1.390 . S
C1399 H1403 0.950 . S
H1400 C1396 0.950 1_655 S
C1401 C1399 1.390 . S
C1401 C1402 1.387 . S
C1401 H1404 0.950 . S
C1402 C1401 1.387 . S
C1402 C1405 1.387 . S
H1403 C1399 0.950 . S
H1404 C1401 0.950 . S
C1405 C1396 1.390 . S
C1405 H1398 0.950 . S
C1405 C1402 1.387 . S
C1406 C1407 1.387 . S
C1406 H1410 0.950 . S
C1406 C1415 1.390 . S
C1407 C1406 1.387 . S
C1407 C1409 1.387 . S
H1408 C1415 0.950 . S
C1409 C1407 1.387 . S
C1409 C1411 1.390 . S
C1409 H1413 0.950 . S
H1410 C1406 0.950 . S
C1411 C1409 1.390 . S
C1411 C1412 1.387 . S
C1411 H1414 0.950 . S
C1412 C1411 1.387 . S
C1412 C1415 1.387 . S
H1413 C1409 0.950 . S
H1414 C1411 0.950 . S
C1415 C1406 1.390 . S
C1415 H1408 0.950 . S
C1415 C1412 1.387 . S
C1416 C1417 1.387 . S
C1416 H1420 0.950 . S
C1416 C1425 1.390 . S
C1417 C1416 1.387 . S
C1417 C1419 1.387 . S
H1418 C1425 0.950 . S
C1419 C1417 1.387 . S
C1419 C1421 1.390 . S
C1419 H1423 0.950 . S
H1420 C1416 0.950 . S
C1421 C1419 1.390 . S
C1421 C1422 1.387 . S
C1421 H1424 0.950 . S
C1422 C1421 1.387 . S
C1422 C1425 1.387 . S
H1423 C1419 0.950 . S
H1424 C1421 0.950 . S
C1425 C1416 1.390 . S
C1425 H1418 0.950 . S
C1425 C1422 1.387 . S
C1426 C1427 1.387 . S
C1426 H1430 0.950 1_556 S
C1426 C1435 1.390 . S
C1427 C1426 1.387 . S
C1427 C1429 1.387 . S
H1428 C1435 0.950 . S
C1429 C1427 1.387 . S
C1429 C1431 1.390 . S
C1429 H1433 0.950 . S
H1430 C1426 0.950 1_554 S
C1431 C1429 1.390 . S
C1431 C1432 1.387 . S
C1431 H1434 0.950 . S
C1432 C1431 1.387 . S
C1432 C1435 1.387 . S
H1433 C1429 0.950 . S
H1434 C1431 0.950 . S
C1435 C1426 1.390 . S
C1435 H1428 0.950 . S
C1435 C1432 1.387 . S
C1436 C1437 1.387 . S
C1436 H1440 0.950 . S
C1436 C1445 1.390 1_655 S
C1437 C1436 1.387 . S
C1437 C1439 1.387 . S
H1438 C1445 0.950 . S
C1439 C1437 1.387 . S
C1439 C1441 1.390 . S
C1439 H1443 0.950 . S
H1440 C1436 0.950 . S
C1441 C1439 1.390 . S
C1441 C1442 1.387 . S
C1441 H1444 0.950 . S
C1442 C1441 1.387 . S
C1442 C1445 1.387 1_655 S
H1443 C1439 0.950 . S
H1444 C1441 0.950 . S
C1445 C1436 1.390 1_455 S
C1445 H1438 0.950 . S
C1445 C1442 1.387 1_455 S
C1446 C1447 1.387 . S
C1446 H1450 0.950 . S
C1446 C1455 1.390 . S
C1447 C1446 1.387 . S
C1447 C1449 1.387 . S
H1448 C1455 0.950 . S
C1449 C1447 1.387 . S
C1449 C1451 1.390 . S
C1449 H1453 0.950 . S
H1450 C1446 0.950 . S
C1451 C1449 1.390 . S
C1451 C1452 1.387 . S
C1451 H1454 0.950 . S
C1452 C1451 1.387 . S
C1452 C1455 1.387 . S
H1453 C1449 0.950 . S
H1454 C1451 0.950 . S
C1455 C1446 1.390 . S
C1455 H1448 0.950 . S
C1455 C1452 1.387 . S
C1456 C1457 1.387 . S
C1456 H1460 0.950 . S
C1456 C1465 1.390 . S
C1457 C1456 1.387 . S
C1457 C1459 1.387 . S
H1458 C1465 0.950 . S
C1459 C1457 1.387 . S
C1459 C1461 1.390 . S
C1459 H1463 0.950 . S
H1460 C1456 0.950 . S
C1461 C1459 1.390 . S
C1461 C1462 1.387 . S
C1461 H1464 0.950 . S
C1462 C1461 1.387 . S
C1462 C1465 1.387 . S
H1463 C1459 0.950 . S
H1464 C1461 0.950 . S
C1465 C1456 1.390 . S
C1465 H1458 0.950 . S
C1465 C1462 1.387 . S
C1466 C1467 1.387 . S
C1466 H1470 0.950 . S
C1466 C1475 1.390 . S
C1467 C1466 1.387 . S
C1467 C1469 1.387 . S
H1468 C1475 0.950 . S
C1469 C1467 1.387 . S
C1469 C1471 1.390 . S
C1469 H1473 0.950 . S
H1470 C1466 0.950 . S
C1471 C1469 1.390 . S
C1471 C1472 1.387 . S
C1471 H1474 0.950 . S
C1472 C1471 1.387 . S
C1472 C1475 1.387 . S
H1473 C1469 0.950 . S
H1474 C1471 0.950 . S
C1475 C1466 1.390 . S
C1475 H1468 0.950 . S
C1475 C1472 1.387 . S
C1476 C1477 1.387 . S
C1476 H1480 0.950 . S
C1476 C1485 1.390 . S
C1477 C1476 1.387 . S
C1477 C1479 1.387 . S
H1478 C1485 0.950 . S
C1479 C1477 1.387 . S
C1479 C1481 1.390 . S
C1479 H1483 0.950 . S
H1480 C1476 0.950 . S
C1481 C1479 1.390 . S
C1481 C1482 1.387 . S
C1481 H1484 0.950 . S
C1482 C1481 1.387 . S
C1482 C1485 1.387 . S
H1483 C1479 0.950 . S
H1484 C1481 0.950 . S
C1485 C1476 1.390 . S
C1485 H1478 0.950 . S
C1485 C1482 1.387 . S
C1486 C1487 1.387 . S
C1486 H1490 0.950 . S
C1486 C1495 1.390 . S
C1487 C1486 1.387 . S
C1487 C1489 1.387 . S
H1488 C1495 0.950 . S
C1489 C1487 1.387 . S
C1489 C1491 1.390 . S
C1489 H1493 0.950 . S
H1490 C1486 0.950 . S
C1491 C1489 1.390 . S
C1491 C1492 1.387 . S
C1491 H1494 0.950 . S
C1492 C1491 1.387 . S
C1492 C1495 1.387 . S
H1493 C1489 0.950 . S
H1494 C1491 0.950 . S
C1495 C1486 1.390 . S
C1495 H1488 0.950 . S
C1495 C1492 1.387 . S
C1496 C1497 1.387 . S
C1496 H1500 0.950 . S
C1496 C1505 1.390 . S
C1497 C1496 1.387 . S
C1497 C1499 1.387 . S
H1498 C1505 0.950 . S
C1499 C1497 1.387 . S
C1499 C1501 1.390 . S
C1499 H1503 0.950 . S
H1500 C1496 0.950 . S
C1501 C1499 1.390 . S
C1501 C1502 1.387 . S
C1501 H1504 0.950 . S
C1502 C1501 1.387 . S
C1502 C1505 1.387 . S
H1503 C1499 0.950 . S
H1504 C1501 0.950 . S
C1505 C1496 1.390 . S
C1505 H1498 0.950 . S
C1505 C1502 1.387 . S
C1506 C1507 1.387 . S
C1506 H1510 0.950 . S
C1506 C1515 1.390 . S
C1507 C1506 1.387 . S
C1507 C1509 1.387 . S
H1508 C1515 0.950 . S
C1509 C1507 1.387 . S
C1509 C1511 1.390 . S
C1509 H1513 0.950 . S
H1510 C1506 0.950 . S
C1511 C1509 1.390 . S
C1511 C1512 1.387 . S
C1511 H1514 0.950 . S
C1512 C1511 1.387 . S
C1512 C1515 1.387 . S
H1513 C1509 0.950 . S
H1514 C1511 0.950 . S
C1515 C1506 1.390 . S
C1515 H1508 0.950 . S
C1515 C1512 1.387 . S
C1516 C1517 1.387 . S
C1516 H1520 0.950 . S
C1516 C1525 1.390 . S
C1517 C1516 1.387 . S
C1517 C1519 1.387 . S
H1518 C1525 0.950 . S
C1519 C1517 1.387 . S
C1519 C1521 1.390 . S
C1519 H1523 0.950 . S
H1520 C1516 0.950 . S
C1521 C1519 1.390 . S
C1521 C1522 1.387 . S
C1521 H1524 0.950 . S
C1522 C1521 1.387 . S
C1522 C1525 1.387 . S
H1523 C1519 0.950 . S
H1524 C1521 0.950 . S
C1525 C1516 1.390 . S
C1525 H1518 0.950 . S
C1525 C1522 1.387 . S
C1526 C1527 1.387 . S
C1526 H1530 0.945 1_545 S
C1526 C1535 1.390 . S
C1527 C1526 1.387 . S
C1527 C1529 1.387 . S
H1528 C1535 0.950 1_565 S
C1529 C1527 1.387 . S
C1529 C1531 1.390 . S
C1529 H1533 0.950 . S
H1530 C1526 0.945 1_565 S
C1531 C1529 1.390 . S
C1531 C1532 1.387 . S
C1531 H1534 0.950 . S
C1532 C1531 1.387 . S
C1532 C1535 1.387 . S
H1533 C1529 0.950 . S
H1534 C1531 0.950 . S
C1535 C1526 1.390 . S
C1535 H1528 0.950 1_545 S
C1535 C1532 1.387 . S
C1536 C1537 1.387 . S
C1536 H1540 0.950 . S
C1536 C1545 1.390 . S
C1537 C1536 1.387 . S
C1537 C1539 1.387 . S
H1538 C1545 0.950 . S
C1539 C1537 1.387 . S
C1539 C1541 1.390 . S
C1539 H1543 0.950 . S
H1540 C1536 0.950 . S
C1541 C1539 1.390 . S
C1541 C1542 1.387 . S
C1541 H1544 0.950 . S
C1542 C1541 1.387 . S
C1542 C1545 1.387 . S
H1543 C1539 0.950 . S
H1544 C1541 0.950 . S
C1545 C1536 1.390 . S
C1545 H1538 0.950 . S
C1545 C1542 1.387 . S
C1546 C1547 1.387 . S
C1546 H1550 0.950 . S
C1546 C1555 1.390 . S
C1547 C1546 1.387 . S
C1547 C1549 1.387 . S
H1548 C1555 0.950 . S
C1549 C1547 1.387 . S
C1549 C1551 1.390 . S
C1549 H1553 0.950 . S
H1550 C1546 0.950 . S
C1551 C1549 1.390 . S
C1551 C1552 1.387 . S
C1551 H1554 0.950 . S
C1552 C1551 1.387 . S
C1552 C1555 1.387 . S
H1553 C1549 0.950 . S
H1554 C1551 0.950 . S
C1555 C1546 1.390 . S
C1555 H1548 0.950 . S
C1555 C1552 1.387 . S
C1556 C1557 1.387 . S
C1556 H1560 0.950 . S
C1556 C1565 1.390 . S
C1557 C1556 1.387 . S
C1557 C1559 1.387 . S
H1558 C1565 0.950 . S
C1559 C1557 1.387 . S
C1559 C1561 1.390 . S
C1559 H1563 0.950 . S
H1560 C1556 0.950 . S
C1561 C1559 1.390 . S
C1561 C1562 1.387 . S
C1561 H1564 0.950 . S
C1562 C1561 1.387 . S
C1562 C1565 1.387 . S
H1563 C1559 0.950 . S
H1564 C1561 0.950 . S
C1565 C1556 1.390 . S
C1565 H1558 0.950 . S
C1565 C1562 1.387 . S
C1566 C1567 1.387 . S
C1566 H1570 0.950 . S
C1566 C1575 1.390 . S
C1567 C1566 1.387 . S
C1567 C1569 1.387 . S
H1568 C1575 0.950 . S
C1569 C1567 1.387 . S
C1569 C1571 1.390 . S
C1569 H1573 0.950 . S
H1570 C1566 0.950 . S
C1571 C1569 1.390 . S
C1571 C1572 1.387 . S
C1571 H1574 0.950 . S
C1572 C1571 1.387 . S
C1572 C1575 1.387 . S
H1573 C1569 0.950 . S
H1574 C1571 0.950 . S
C1575 C1566 1.390 . S
C1575 H1568 0.950 . S
C1575 C1572 1.387 . S
C1576 C1577 1.387 . S
C1576 H1580 0.950 . S
C1576 C1585 1.390 . S
C1577 C1576 1.387 . S
C1577 C1579 1.387 . S
H1578 C1585 0.950 . S
C1579 C1577 1.387 . S
C1579 C1581 1.390 . S
C1579 H1583 0.950 . S
H1580 C1576 0.950 . S
C1581 C1579 1.390 . S
C1581 C1582 1.387 . S
C1581 H1584 0.950 . S
C1582 C1581 1.387 . S
C1582 C1585 1.387 . S
H1583 C1579 0.950 . S
H1584 C1581 0.950 . S
C1585 C1576 1.390 . S
C1585 H1578 0.950 . S
C1585 C1582 1.387 . S
C1586 C1587 1.387 . S
C1586 H1590 0.950 . S
C1586 C1595 1.390 . S
C1587 C1586 1.387 . S
C1587 C1589 1.387 . S
H1588 C1595 0.950 . S
C1589 C1587 1.387 . S
C1589 C1591 1.390 . S
C1589 H1593 0.950 . S
H1590 C1586 0.950 . S
C1591 C1589 1.390 . S
C1591 C1592 1.387 . S
C1591 H1594 0.950 . S
C1592 C1591 1.387 . S
C1592 C1595 1.387 . S
H1593 C1589 0.950 . S
H1594 C1591 0.950 . S
C1595 C1586 1.390 . S
C1595 H1588 0.950 . S
C1595 C1592 1.387 . S
C1596 C1597 1.387 . S
C1596 H1600 0.950 . S
C1596 C1605 1.390 . S
C1597 C1596 1.387 . S
C1597 C1599 1.387 . S
H1598 C1605 0.950 . S
C1599 C1597 1.387 . S
C1599 C1601 1.390 . S
C1599 H1603 0.949 1_655 S
H1600 C1596 0.950 . S
C1601 C1599 1.390 . S
C1601 C1602 1.387 . S
C1601 H1604 0.950 1_556 S
C1602 C1601 1.387 . S
C1602 C1605 1.387 . S
H1603 C1599 0.949 1_455 S
H1604 C1601 0.950 1_554 S
C1605 C1596 1.390 . S
C1605 H1598 0.950 . S
C1605 C1602 1.387 . S
C1606 C1607 1.387 . S
C1606 H1610 0.950 . S
C1606 C1615 1.390 . S
C1607 C1606 1.387 . S
C1607 C1609 1.387 . S
H1608 C1615 0.950 . S
C1609 C1607 1.387 . S
C1609 C1611 1.390 . S
C1609 H1613 0.950 . S
H1610 C1606 0.950 . S
C1611 C1609 1.390 . S
C1611 C1612 1.387 . S
C1611 H1614 0.950 . S
C1612 C1611 1.387 . S
C1612 C1615 1.387 . S
H1613 C1609 0.950 . S
H1614 C1611 0.950 . S
C1615 C1606 1.390 . S
C1615 H1608 0.950 . S
C1615 C1612 1.387 . S
C1616 C1617 1.387 . S
C1616 H1620 0.950 . S
C1616 C1625 1.390 . S
C1617 C1616 1.387 . S
C1617 C1619 1.387 . S
H1618 C1625 0.950 . S
C1619 C1617 1.387 . S
C1619 C1621 1.390 . S
C1619 H1623 0.950 . S
H1620 C1616 0.950 . S
C1621 C1619 1.390 . S
C1621 C1622 1.387 . S
C1621 H1624 0.950 . S
C1622 C1621 1.387 . S
C1622 C1625 1.387 . S
H1623 C1619 0.950 . S
H1624 C1621 0.950 . S
C1625 C1616 1.390 . S
C1625 H1618 0.950 . S
C1625 C1622 1.387 . S
C1626 C1627 1.387 . S
C1626 H1630 0.950 . S
C1626 C1635 1.390 . S
C1627 C1626 1.387 . S
C1627 C1629 1.387 . S
H1628 C1635 0.950 . S
C1629 C1627 1.387 . S
C1629 C1631 1.390 . S
C1629 H1633 0.950 . S
H1630 C1626 0.950 . S
C1631 C1629 1.390 . S
C1631 C1632 1.387 . S
C1631 H1634 0.950 . S
C1632 C1631 1.387 . S
C1632 C1635 1.387 . S
H1633 C1629 0.950 . S
H1634 C1631 0.950 . S
C1635 C1626 1.390 . S
C1635 H1628 0.950 . S
C1635 C1632 1.387 . S
C1636 C1637 1.387 . S
C1636 H1640 0.950 . S
C1636 C1645 1.390 . S
C1637 C1636 1.387 . S
C1637 C1639 1.387 . S
H1638 C1645 0.950 . S
C1639 C1637 1.387 . S
C1639 C1641 1.390 . S
C1639 H1643 0.950 1_455 S
H1640 C1636 0.950 . S
C1641 C1639 1.390 . S
C1641 C1642 1.387 . S
C1641 H1644 0.950 1_455 S
C1642 C1641 1.387 . S
C1642 C1645 1.387 . S
H1643 C1639 0.950 1_655 S
H1644 C1641 0.950 1_655 S
C1645 C1636 1.390 . S
C1645 H1638 0.950 . S
C1645 C1642 1.387 . S
C1646 C1647 1.387 . S
C1646 H1650 0.950 . S
C1646 C1655 1.390 . S
C1647 C1646 1.387 . S
C1647 C1649 1.387 . S
H1648 C1655 0.950 . S
C1649 C1647 1.387 . S
C1649 C1651 1.390 . S
C1649 H1653 0.950 . S
H1650 C1646 0.950 . S
C1651 C1649 1.390 . S
C1651 C1652 1.387 . S
C1651 H1654 0.950 . S
C1652 C1651 1.387 . S
C1652 C1655 1.387 . S
H1653 C1649 0.950 . S
H1654 C1651 0.950 . S
C1655 C1646 1.390 . S
C1655 H1648 0.950 . S
C1655 C1652 1.387 . S
C1656 C1657 1.387 . S
C1656 H1660 0.950 . S
C1656 C1665 1.390 . S
C1657 C1656 1.387 . S
C1657 C1659 1.387 . S
H1658 C1665 0.950 . S
C1659 C1657 1.387 . S
C1659 C1661 1.390 . S
C1659 H1663 0.950 . S
H1660 C1656 0.950 . S
C1661 C1659 1.390 . S
C1661 C1662 1.387 . S
C1661 H1664 0.950 . S
C1662 C1661 1.387 . S
C1662 C1665 1.387 . S
H1663 C1659 0.950 . S
H1664 C1661 0.950 . S
C1665 C1656 1.390 . S
C1665 H1658 0.950 . S
C1665 C1662 1.387 . S
C1666 C1667 1.387 . S
C1666 H1670 0.950 . S
C1666 C1675 1.390 . S
C1667 C1666 1.387 . S
C1667 C1669 1.387 . S
H1668 C1675 0.950 . S
C1669 C1667 1.387 . S
C1669 C1671 1.390 . S
C1669 H1673 0.950 . S
H1670 C1666 0.950 . S
C1671 C1669 1.390 . S
C1671 C1672 1.387 . S
C1671 H1674 0.950 . S
C1672 C1671 1.387 . S
C1672 C1675 1.387 . S
H1673 C1669 0.950 . S
H1674 C1671 0.950 . S
C1675 C1666 1.390 . S
C1675 H1668 0.950 . S
C1675 C1672 1.387 . S
C1676 C1677 1.387 . S
C1676 H1680 0.950 . S
C1676 C1685 1.390 . S
C1677 C1676 1.387 . S
C1677 C1679 1.387 . S
H1678 C1685 0.950 . S
C1679 C1677 1.387 . S
C1679 C1681 1.390 . S
C1679 H1683 0.950 . S
H1680 C1676 0.950 . S
C1681 C1679 1.390 . S
C1681 C1682 1.387 . S
C1681 H1684 0.950 . S
C1682 C1681 1.387 . S
C1682 C1685 1.387 . S
H1683 C1679 0.950 . S
H1684 C1681 0.950 . S
C1685 C1676 1.390 . S
C1685 H1678 0.950 . S
C1685 C1682 1.387 . S
C1686 C1687 1.387 . S
C1686 H1690 0.950 . S
C1686 C1695 1.390 . S
C1687 C1686 1.387 . S
C1687 C1689 1.387 . S
H1688 C1695 0.950 . S
C1689 C1687 1.387 . S
C1689 C1691 1.390 . S
C1689 H1693 0.950 . S
H1690 C1686 0.950 . S
C1691 C1689 1.390 . S
C1691 C1692 1.387 . S
C1691 H1694 0.950 . S
C1692 C1691 1.387 . S
C1692 C1695 1.387 . S
H1693 C1689 0.950 . S
H1694 C1691 0.950 . S
C1695 C1686 1.390 . S
C1695 H1688 0.950 . S
C1695 C1692 1.387 . S
C1696 C1697 1.387 . S
C1696 H1700 0.950 . S
C1696 C1705 1.390 . S
C1697 C1696 1.387 . S
C1697 C1699 1.387 . S
H1698 C1705 0.950 . S
C1699 C1697 1.387 . S
C1699 C1701 1.390 . S
C1699 H1703 0.950 . S
H1700 C1696 0.950 . S
C1701 C1699 1.390 . S
C1701 C1702 1.387 . S
C1701 H1704 0.950 . S
C1702 C1701 1.387 . S
C1702 C1705 1.387 . S
H1703 C1699 0.950 . S
H1704 C1701 0.950 . S
C1705 C1696 1.390 . S
C1705 H1698 0.950 . S
C1705 C1702 1.387 . S
C1706 C1707 1.387 . S
C1706 H1710 0.950 . S
C1706 C1715 1.390 . S
C1707 C1706 1.387 . S
C1707 C1709 1.387 . S
H1708 C1715 0.950 . S
C1709 C1707 1.387 . S
C1709 C1711 1.390 . S
C1709 H1713 0.950 . S
H1710 C1706 0.950 . S
C1711 C1709 1.390 . S
C1711 C1712 1.387 . S
C1711 H1714 0.950 . S
C1712 C1711 1.387 . S
C1712 C1715 1.387 . S
H1713 C1709 0.950 . S
H1714 C1711 0.950 . S
C1715 C1706 1.390 . S
C1715 H1708 0.950 . S
C1715 C1712 1.387 . S
C1716 C1717 1.387 . S
C1716 H1720 0.950 . S
C1716 C1725 1.390 . S
C1717 C1716 1.387 . S
C1717 C1719 1.387 . S
H1718 C1725 0.950 . S
C1719 C1717 1.387 . S
C1719 C1721 1.390 . S
C1719 H1723 0.950 . S
H1720 C1716 0.950 . S
C1721 C1719 1.390 . S
C1721 C1722 1.387 . S
C1721 H1724 0.950 . S
C1722 C1721 1.387 . S
C1722 C1725 1.387 . S
H1723 C1719 0.950 . S
H1724 C1721 0.950 . S
C1725 C1716 1.390 . S
C1725 H1718 0.950 . S
C1725 C1722 1.387 . S
C1726 C1727 1.387 . S
C1726 H1730 0.950 . S
C1726 C1735 1.390 . S
C1727 C1726 1.387 . S
C1727 C1729 1.387 . S
H1728 C1735 0.950 . S
C1729 C1727 1.387 . S
C1729 C1731 1.390 . S
C1729 H1733 0.950 . S
H1730 C1726 0.950 . S
C1731 C1729 1.390 . S
C1731 C1732 1.387 . S
C1731 H1734 0.950 . S
C1732 C1731 1.387 . S
C1732 C1735 1.387 . S
H1733 C1729 0.950 . S
H1734 C1731 0.950 . S
C1735 C1726 1.390 . S
C1735 H1728 0.950 . S
C1735 C1732 1.387 . S
C1736 C1737 1.387 . S
C1736 H1740 0.950 . S
C1736 C1745 1.390 . S
C1737 C1736 1.387 . S
C1737 C1739 1.387 . S
H1738 C1745 0.950 . S
C1739 C1737 1.387 . S
C1739 C1741 1.390 . S
C1739 H1743 0.950 . S
H1740 C1736 0.950 . S
C1741 C1739 1.390 . S
C1741 C1742 1.387 . S
C1741 H1744 0.950 . S
C1742 C1741 1.387 . S
C1742 C1745 1.387 . S
H1743 C1739 0.950 . S
H1744 C1741 0.950 . S
C1745 C1736 1.390 . S
C1745 H1738 0.950 . S
C1745 C1742 1.387 . S
C1746 C1747 1.387 . S
C1746 H1750 0.950 . S
C1746 C1755 1.390 . S
C1747 C1746 1.387 . S
C1747 C1749 1.387 . S
H1748 C1755 0.950 . S
C1749 C1747 1.387 . S
C1749 C1751 1.390 . S
C1749 H1753 0.950 . S
H1750 C1746 0.950 . S
C1751 C1749 1.390 . S
C1751 C1752 1.387 . S
C1751 H1754 0.950 . S
C1752 C1751 1.387 . S
C1752 C1755 1.387 . S
H1753 C1749 0.950 . S
H1754 C1751 0.950 . S
C1755 C1746 1.390 . S
C1755 H1748 0.950 . S
C1755 C1752 1.387 . S
C1756 C1757 1.387 . S
C1756 H1760 0.950 . S
C1756 C1765 1.390 . S
C1757 C1756 1.387 . S
C1757 C1759 1.387 . S
H1758 C1765 0.950 . S
C1759 C1757 1.387 . S
C1759 C1761 1.390 . S
C1759 H1763 0.950 . S
H1760 C1756 0.950 . S
C1761 C1759 1.390 . S
C1761 C1762 1.387 . S
C1761 H1764 0.950 . S
C1762 C1761 1.387 . S
C1762 C1765 1.387 . S
H1763 C1759 0.950 . S
H1764 C1761 0.950 . S
C1765 C1756 1.390 . S
C1765 H1758 0.950 . S
C1765 C1762 1.387 . S
C1766 C1767 1.387 . S
C1766 H1770 0.946 1_565 S
C1766 C1775 1.390 . S
C1767 C1766 1.387 . S
C1767 C1769 1.403 . S
H1768 C1775 0.950 1_545 S
C1769 C1767 1.403 . S
C1769 C1771 1.388 1_554 S
C1769 H1773 0.937 1_554 S
H1770 C1766 0.946 1_545 S
C1771 C1769 1.388 1_556 S
C1771 C1772 1.387 1_556 S
C1771 H1774 0.950 . S
C1772 C1771 1.387 1_554 S
C1772 C1775 1.387 . S
H1773 C1769 0.937 1_556 S
H1774 C1771 0.950 . S
C1775 C1766 1.390 . S
C1775 H1768 0.950 1_565 S
C1775 C1772 1.387 . S
C1776 C1777 1.387 . S
C1776 H1780 0.950 . S
C1776 C1785 1.390 . S
C1777 C1776 1.387 . S
C1777 C1779 1.387 . S
H1778 C1785 0.950 . S
C1779 C1777 1.387 . S
C1779 C1781 1.390 . S
C1779 H1783 0.950 . S
H1780 C1776 0.950 . S
C1781 C1779 1.390 . S
C1781 C1782 1.387 . S
C1781 H1784 0.950 . S
C1782 C1781 1.387 . S
C1782 C1785 1.387 . S
H1783 C1779 0.950 . S
H1784 C1781 0.950 . S
C1785 C1776 1.390 . S
C1785 H1778 0.950 . S
C1785 C1782 1.387 . S
C1786 C1787 1.387 . S
C1786 H1790 0.950 . S
C1786 C1795 1.390 . S
C1787 C1786 1.387 . S
C1787 C1789 1.387 . S
H1788 C1795 0.950 . S
C1789 C1787 1.387 . S
C1789 C1791 1.390 . S
C1789 H1793 0.950 1_554 S
H1790 C1786 0.950 . S
C1791 C1789 1.390 . S
C1791 C1792 1.387 . S
C1791 H1794 0.950 . S
C1792 C1791 1.387 . S
C1792 C1795 1.387 . S
H1793 C1789 0.950 1_556 S
H1794 C1791 0.950 . S
C1795 C1786 1.390 . S
C1795 H1788 0.950 . S
C1795 C1792 1.387 . S
C1796 C1797 1.387 . S
C1796 H1800 0.950 . S
C1796 C1805 1.390 . S
C1797 C1796 1.387 . S
C1797 C1799 1.387 . S
H1798 C1805 0.950 . S
C1799 C1797 1.387 . S
C1799 C1801 1.390 . S
C1799 H1803 0.950 . S
H1800 C1796 0.950 . S
C1801 C1799 1.390 . S
C1801 C1802 1.387 . S
C1801 H1804 0.950 . S
C1802 C1801 1.387 . S
C1802 C1805 1.387 . S
H1803 C1799 0.950 . S
H1804 C1801 0.950 . S
C1805 C1796 1.390 . S
C1805 H1798 0.950 . S
C1805 C1802 1.387 . S
C1806 C1807 1.387 . S
C1806 H1810 0.950 . S
C1806 C1815 1.390 . S
C1807 C1806 1.387 . S
C1807 C1809 1.387 . S
H1808 C1815 0.950 . S
C1809 C1807 1.387 . S
C1809 C1811 1.390 . S
C1809 H1813 0.950 . S
H1810 C1806 0.950 . S
C1811 C1809 1.390 . S
C1811 C1812 1.387 . S
C1811 H1814 0.950 . S
C1812 C1811 1.387 . S
C1812 C1815 1.387 . S
H1813 C1809 0.950 . S
H1814 C1811 0.950 . S
C1815 C1806 1.390 . S
C1815 H1808 0.950 . S
C1815 C1812 1.387 . S
C862 C329 1.188 . S
C857 C10 1.168 . S
C867 C13 1.802 . S
C872 C375 1.849 . S
C877 C34 0.974 . S
C882 C384 0.989 . S
C892 C422 1.665 . S
C887 C44 1.682 . S
C897 C21 1.631 . S
C902 C456 1.659 . S
C912 C486 0.883 . S
C907 C26 0.871 . S
C922 C545 1.664 1_556 S
C917 C49 1.668 . S
C927 C5 1.170 . S
C932 C558 1.145 . S
C937 C62 1.453 . S
C942 C341 1.413 . S
C947 C73 1.182 . S
C952 C359 1.247 . S
C962 C380 1.700 . S
C957 C88 1.716 . S
C972 C418 1.085 . S
C967 C99 1.007 . S
C977 C60 1.283 . S
C982 C452 1.334 . S
C992 C482 1.614 . S
C987 C75 1.629 . S
C1002 C529 1.323 . S
C997 C86 1.272 . S
C1012 C554 0.849 . S
C1007 C101 0.851 . S
C1022 C325 0.911 . S
C1017 C96 0.893 . S
C1032 C584 1.664 . S
C1027 C104 1.600 . S
C1037 C122 1.533 . S
C1042 C626 1.521 . S
C1052 C669 0.550 . S
C1047 C130 0.617 . S
C1057 C57 1.437 . S
C1062 C550 1.383 . S
C1072 C388 1.649 . S
C1067 C70 1.627 . S
C1077 C117 1.320 . S
C1082 C686 1.347 . S
C1092 C737 1.546 . S
C1087 C143 1.521 . S
C1097 C164 1.288 1_455 S
C1102 C320 1.227 1_556 S
C1112 C720 1.913 . S
C1107 C169 1.908 . S
C1117 C192 1.007 . S
C1122 C393 1.001 . S
C1127 C200 1.748 . S
C1132 C703 1.748 . S
C1142 C465 1.721 . S
C1137 C179 1.735 . S
C1152 C631 0.911 . S
C1147 C182 0.901 . S
C1162 C516 1.744 . S
C1157 C203 1.737 . S
C1172 C771 1.186 . S
C1167 C161 1.144 . S
C1182 C312 1.470 . S
C1177 C216 1.527 1_545 S
C1187 C231 1.289 . S
C1192 C724 1.270 . S
C1202 C409 1.775 1_545 S
C1197 C242 1.823 . S
C1207 C257 1.120 . S
C1212 C699 1.093 . S
C1217 C218 1.418 1_565 S
C1222 C461 1.371 . S
C1227 C229 1.734 . S
C1232 C647 1.682 . S
C1242 C520 1.349 . S
C1237 C244 1.376 . S
C1247 C255 0.893 . S
C1252 C767 0.881 . S
C1257 C252 0.879 . S
C1262 C316 0.925 . S
C1267 C260 1.618 . S
C1272 C613 1.714 . S
C1277 C278 1.505 . S
C1282 C499 1.569 . S
C1287 C286 0.588 . S
C1292 C660 0.565 . S
C1302 C783 1.424 . S
C1297 C213 1.429 . S
C1312 C397 1.693 . S
C1307 C226 1.604 . S
C1322 C443 1.403 . S
C1317 C273 1.315 . S
C1332 C354 1.601 . S
C1327 C299 1.550 . S
C1337 C36 1.168 . S
C1342 C805 1.188 . S
C1352 C749 1.849 . S
C1347 C39 1.800 . S
C1362 C826 0.988 . S
C1357 C8 0.972 . S
C1367 C18 1.683 . S
C1372 C694 1.664 . S
C1377 C47 1.629 . S
C1382 C592 1.658 1_556 S
C1392 C622 0.883 . S
C1387 C0 0.872 . S
C1402 C681 1.663 . S
C1397 C23 1.667 . S
C1412 C762 1.145 . S
C1407 C31 1.170 . S
C1422 C817 1.412 . S
C1417 C153 1.451 . S
C1427 C112 1.182 1_556 S
C1432 C733 1.247 . S
C1437 C127 1.715 . S
C1442 C822 1.699 1_655 S
C1452 C690 1.082 . S
C1447 C138 1.003 . S
C1462 C588 1.334 . S
C1457 C151 1.284 . S
C1467 C114 1.630 . S
C1472 C618 1.615 . S
C1482 C665 1.322 . S
C1477 C125 1.271 . S
C1487 C140 0.851 . S
C1492 C758 0.849 . S
C1502 C801 0.917 . S
C1497 C135 0.895 . S
C1512 C448 1.663 . S
C1507 C65 1.597 . S
C1522 C490 1.524 . S
C1517 C83 1.532 . S
C1527 C91 0.610 . S
C1532 C533 0.544 . S
C1542 C754 1.382 . S
C1537 C148 1.437 . S
C1547 C109 1.628 . S
C1552 C830 1.649 . S
C1562 C414 1.347 . S
C1557 C78 1.322 . S
C1572 C363 1.546 . S
C1567 C52 1.521 . S
C1577 C190 1.287 . S
C1582 C796 1.223 . S
C1592 C346 1.913 . S
C1587 C195 1.907 . S
C1602 C835 0.998 . S
C1597 C166 1.007 . S
C1607 C174 1.748 . S
C1612 C431 1.748 . S
C1617 C205 1.734 . S
C1622 C601 1.719 . S
C1627 C156 0.901 . S
C1632 C495 0.907 . S
C1637 C177 1.736 . S
C1642 C652 1.744 . S
C1647 C187 1.137 . S
C1652 C567 1.181 . S
C1662 C788 1.469 . S
C1657 C307 1.530 . S
C1667 C270 1.291 . S
C1672 C350 1.269 . S
C1682 C851 1.773 . S
C1677 C281 1.823 . S
C1687 C296 1.117 . S
C1692 C427 1.090 . S
C1697 C309 1.417 . S
C1702 C597 1.370 . S
C1712 C511 1.681 . S
C1707 C268 1.737 . S
C1717 C283 1.376 . S
C1722 C656 1.348 . S
C1732 C563 0.882 . S
C1727 C294 0.895 . S
C1742 C792 0.925 . S
C1737 C291 0.880 . S
C1752 C477 1.715 . S
C1747 C221 1.620 . S
C1757 C239 1.503 . S
C1762 C635 1.567 . S
C1772 C524 0.564 . S
C1767 C247 0.580 . S
C1782 C579 1.424 . S
C1777 C304 1.429 . S
C1787 C265 1.603 . S
C1792 C839 1.691 . S
C1802 C715 1.402 . S
C1797 C234 1.316 . S
C1812 C728 1.601 . S
C1807 C208 1.550 . S
