# Generated by pormake.
# Topology ocu, (6,8)-cn, num edge types: 1
# Building blocks:
#     Node 0, Type 0, BuildingBlock: KUMBOL_clean_sbu_0, # of connection points: 6
#     Node 1, Type 0, BuildingBlock: KUMBOL_clean_sbu_0, # of connection points: 6
#     Node 2, Type 0, BuildingBlock: KUMBOL_clean_sbu_0, # of connection points: 6
#     Node 3, Type 0, BuildingBlock: KUMBOL_clean_sbu_0, # of connection points: 6
#     Node 4, Type 0, BuildingBlock: KUMBOL_clean_sbu_0, # of connection points: 6
#     Node 5, Type 0, BuildingBlock: KUMBOL_clean_sbu_0, # of connection points: 6
#     Node 6, Type 0, BuildingBlock: KUMBOL_clean_sbu_0, # of connection points: 6
#     Node 7, Type 0, BuildingBlock: KUMBOL_clean_sbu_0, # of connection points: 6
#     Node 8, Type 1, BuildingBlock: VETTIZ_charged_sbu_0, # of connection points: 8
#     Node 9, Type 1, BuildingBlock: VETTIZ_charged_sbu_0, # of connection points: 8
#     Node 10, Type 1, BuildingBlock: VETTIZ_charged_sbu_0, # of connection points: 8
#     Node 11, Type 1, BuildingBlock: VETTIZ_charged_sbu_0, # of connection points: 8
#     Node 12, Type 1, BuildingBlock: VETTIZ_charged_sbu_0, # of connection points: 8
#     Node 13, Type 1, BuildingBlock: VETTIZ_charged_sbu_0, # of connection points: 8
#     Edge 14, Type (0, 1), BuildingBlock: KIFKEQ_clean_linker_1, # of connection points: 2
#     Edge 15, Type (0, 1), BuildingBlock: KIFKEQ_clean_linker_1, # of connection points: 2
#     Edge 16, Type (0, 1), BuildingBlock: KIFKEQ_clean_linker_1, # of connection points: 2
#     Edge 17, Type (0, 1), BuildingBlock: KIFKEQ_clean_linker_1, # of connection points: 2
#     Edge 18, Type (0, 1), BuildingBlock: KIFKEQ_clean_linker_1, # of connection points: 2
#     Edge 19, Type (0, 1), BuildingBlock: KIFKEQ_clean_linker_1, # of connection points: 2
#     Edge 20, Type (0, 1), BuildingBlock: KIFKEQ_clean_linker_1, # of connection points: 2
#     Edge 21, Type (0, 1), BuildingBlock: KIFKEQ_clean_linker_1, # of connection points: 2
#     Edge 22, Type (0, 1), BuildingBlock: KIFKEQ_clean_linker_1, # of connection points: 2
#     Edge 23, Type (0, 1), BuildingBlock: KIFKEQ_clean_linker_1, # of connection points: 2
#     Edge 24, Type (0, 1), BuildingBlock: KIFKEQ_clean_linker_1, # of connection points: 2
#     Edge 25, Type (0, 1), BuildingBlock: KIFKEQ_clean_linker_1, # of connection points: 2
#     Edge 26, Type (0, 1), BuildingBlock: KIFKEQ_clean_linker_1, # of connection points: 2
#     Edge 27, Type (0, 1), BuildingBlock: KIFKEQ_clean_linker_1, # of connection points: 2
#     Edge 28, Type (0, 1), BuildingBlock: KIFKEQ_clean_linker_1, # of connection points: 2
#     Edge 29, Type (0, 1), BuildingBlock: KIFKEQ_clean_linker_1, # of connection points: 2
#     Edge 30, Type (0, 1), BuildingBlock: KIFKEQ_clean_linker_1, # of connection points: 2
#     Edge 31, Type (0, 1), BuildingBlock: KIFKEQ_clean_linker_1, # of connection points: 2
#     Edge 32, Type (0, 1), BuildingBlock: KIFKEQ_clean_linker_1, # of connection points: 2
#     Edge 33, Type (0, 1), BuildingBlock: KIFKEQ_clean_linker_1, # of connection points: 2
#     Edge 34, Type (0, 1), BuildingBlock: KIFKEQ_clean_linker_1, # of connection points: 2
#     Edge 35, Type (0, 1), BuildingBlock: KIFKEQ_clean_linker_1, # of connection points: 2
#     Edge 36, Type (0, 1), BuildingBlock: KIFKEQ_clean_linker_1, # of connection points: 2
#     Edge 37, Type (0, 1), BuildingBlock: KIFKEQ_clean_linker_1, # of connection points: 2
#     Edge 38, Type (0, 1), BuildingBlock: KIFKEQ_clean_linker_1, # of connection points: 2
#     Edge 39, Type (0, 1), BuildingBlock: KIFKEQ_clean_linker_1, # of connection points: 2
#     Edge 40, Type (0, 1), BuildingBlock: KIFKEQ_clean_linker_1, # of connection points: 2
#     Edge 41, Type (0, 1), BuildingBlock: KIFKEQ_clean_linker_1, # of connection points: 2
#     Edge 42, Type (0, 1), BuildingBlock: KIFKEQ_clean_linker_1, # of connection points: 2
#     Edge 43, Type (0, 1), BuildingBlock: KIFKEQ_clean_linker_1, # of connection points: 2
#     Edge 44, Type (0, 1), BuildingBlock: KIFKEQ_clean_linker_1, # of connection points: 2
#     Edge 45, Type (0, 1), BuildingBlock: KIFKEQ_clean_linker_1, # of connection points: 2
#     Edge 46, Type (0, 1), BuildingBlock: KIFKEQ_clean_linker_1, # of connection points: 2
#     Edge 47, Type (0, 1), BuildingBlock: KIFKEQ_clean_linker_1, # of connection points: 2
#     Edge 48, Type (0, 1), BuildingBlock: KIFKEQ_clean_linker_1, # of connection points: 2
#     Edge 49, Type (0, 1), BuildingBlock: KIFKEQ_clean_linker_1, # of connection points: 2
#     Edge 50, Type (0, 1), BuildingBlock: KIFKEQ_clean_linker_1, # of connection points: 2
#     Edge 51, Type (0, 1), BuildingBlock: KIFKEQ_clean_linker_1, # of connection points: 2
#     Edge 52, Type (0, 1), BuildingBlock: KIFKEQ_clean_linker_1, # of connection points: 2
#     Edge 53, Type (0, 1), BuildingBlock: KIFKEQ_clean_linker_1, # of connection points: 2
#     Edge 54, Type (0, 1), BuildingBlock: KIFKEQ_clean_linker_1, # of connection points: 2
#     Edge 55, Type (0, 1), BuildingBlock: KIFKEQ_clean_linker_1, # of connection points: 2
#     Edge 56, Type (0, 1), BuildingBlock: KIFKEQ_clean_linker_1, # of connection points: 2
#     Edge 57, Type (0, 1), BuildingBlock: KIFKEQ_clean_linker_1, # of connection points: 2
#     Edge 58, Type (0, 1), BuildingBlock: KIFKEQ_clean_linker_1, # of connection points: 2
#     Edge 59, Type (0, 1), BuildingBlock: KIFKEQ_clean_linker_1, # of connection points: 2
#     Edge 60, Type (0, 1), BuildingBlock: KIFKEQ_clean_linker_1, # of connection points: 2
#     Edge 61, Type (0, 1), BuildingBlock: KIFKEQ_clean_linker_1, # of connection points: 2
# Relax obj value: 0.124
# Max RMSD: 0.254
# Mean RMSD: 0.161
data_MOF--net-ocu--node1-KUMBOL_clean_sbu_0--node2-VETTIZ_charged_sbu_0--edge1-KIFKEQ_clean_linker_1
_symmetry_space_group_name_H-M    P1
_symmetry_Int_Tables_number       1
_symmetry_cell_setting            triclinic
loop_
_symmetry_equiv_pos_as_xyz
'x, y, z'
_cell_length_a     40.00448
_cell_length_b     37.971115
_cell_length_c     42.229343
_cell_angle_alpha  84.570881
_cell_angle_beta   94.175241
_cell_angle_gamma 102.61236
loop_
_atom_site_label
_atom_site_type_symbol
_atom_site_fract_x
_atom_site_fract_y
_atom_site_fract_z
_atom_type_partial_charge
Gd0 Gd 0.31066 0.32795 0.30681 0.0
Gd1 Gd 0.27849 0.25411 0.26321 0.0
C2 C 0.21598 0.29867 0.18044 0.0
C3 C 0.15769 0.2759 0.19635 0.0
C4 C 0.20583 0.26401 0.23163 0.0
C5 C 0.22868 0.28287 0.20927 0.0
C6 C 0.17005 0.26008 0.22491 0.0
C7 C 0.18055 0.29508 0.1742 0.0
C8 C 0.23923 0.31829 0.15876 0.0
C9 C 0.27423 0.32183 0.16581 0.0
N10 N 0.26311 0.28653 0.21581 0.0
C11 C 0.28576 0.30556 0.19432 0.0
H12 H 0.31282 0.30841 0.19832 0.0
C13 C 0.19575 0.22544 0.27876 0.0
N14 N 0.21819 0.24844 0.25917 0.0
C15 C 0.16038 0.22161 0.27345 0.0
C16 C 0.14745 0.23947 0.24667 0.0
H17 H 0.20445 0.2081 0.29766 0.0
H18 H 0.17054 0.3072 0.15229 0.0
H19 H 0.31419 0.27122 0.3712 0.0
H20 H 0.23042 0.33097 0.13658 0.0
H21 H 0.29246 0.33691 0.14913 0.0
H22 H 0.13038 0.27318 0.19104 0.0
H23 H 0.34748 0.40579 0.26671 0.0
H24 H 0.41705 0.29264 0.41205 0.0
H25 H 0.35682 0.25897 0.41396 0.0
H26 H 0.47327 0.39472 0.34621 0.0
H27 H 0.14308 0.2038 0.28948 0.0
H28 H 0.11993 0.23589 0.2423 0.0
H29 H 0.46056 0.34277 0.3861 0.0
H30 H 0.40413 0.4482 0.26605 0.0
N31 N 0.35022 0.31089 0.34536 0.0
C32 C 0.39851 0.29809 0.39325 0.0
C33 C 0.36452 0.27906 0.39445 0.0
C34 C 0.40777 0.32522 0.36871 0.0
C35 C 0.38256 0.33151 0.345 0.0
C36 C 0.34052 0.2859 0.37018 0.0
N37 N 0.36395 0.36839 0.3019 0.0
C38 C 0.38967 0.36109 0.32265 0.0
C39 C 0.40045 0.42373 0.28192 0.0
C40 C 0.42752 0.41601 0.30226 0.0
C41 C 0.36851 0.39973 0.28229 0.0
C42 C 0.42223 0.38469 0.32326 0.0
H43 H 0.45216 0.43481 0.30208 0.0
O44 O 0.31144 0.38114 0.32177 0.0
O45 O 0.27129 0.31316 0.26545 0.0
O46 O 0.33084 0.27686 0.24404 0.0
O47 O 0.34848 0.32993 0.26964 0.0
O48 O 0.28314 0.36598 0.27326 0.0
O49 O 0.29146 0.33289 0.35248 0.0
O50 O 0.25311 0.19741 0.26237 0.0
O51 O 0.31903 0.26921 0.30433 0.0
O52 O 0.26331 0.29485 0.32922 0.0
O53 O 0.25919 0.23849 0.31226 0.0
O54 O 0.31649 0.2204 0.28773 0.0
O55 O 0.28039 0.22569 0.22173 0.0
C56 C 0.26185 0.34425 0.25578 0.0
C57 C 0.44801 0.3771 0.34557 0.0
C58 C 0.44079 0.34746 0.36826 0.0
C59 C 0.29998 0.36813 0.34951 0.0
C60 C 0.31707 0.38563 0.3775 0.0
C61 C 0.35189 0.40296 0.37899 0.0
C62 C 0.29695 0.3864 0.40286 0.0
C63 C 0.31087 0.40521 0.4293 0.0
C64 C 0.36622 0.42079 0.40585 0.0
C65 C 0.34568 0.42238 0.43084 0.0
C66 C 0.35319 0.30719 0.24952 0.0
C67 C 0.33305 0.24 0.30964 0.0
C68 C 0.26619 0.19437 0.2357 0.0
C69 C 0.28575 0.16577 0.2365 0.0
C70 C 0.27122 0.12983 0.24678 0.0
C71 C 0.31989 0.17479 0.22807 0.0
C72 C 0.33891 0.14817 0.22752 0.0
C73 C 0.29073 0.10326 0.24799 0.0
C74 C 0.3244 0.11224 0.23811 0.0
C75 C 0.25162 0.25975 0.33213 0.0
H76 H 0.36776 0.40362 0.35931 0.0
H77 H 0.26978 0.374 0.40116 0.0
H78 H 0.39302 0.43428 0.40687 0.0
H79 H 0.35666 0.43752 0.45097 0.0
H80 H 0.24499 0.12243 0.25396 0.0
H81 H 0.33172 0.20268 0.22104 0.0
H82 H 0.27949 0.07552 0.25589 0.0
H83 H 0.33849 0.09099 0.23761 0.0
Gd84 Gd 0.74688 0.32105 0.29804 0.0
Gd85 Gd 0.80698 0.27529 0.26546 0.0
C86 C 0.90332 0.34328 0.21925 0.0
C87 C 0.88226 0.35568 0.16493 0.0
C88 C 0.8439 0.3191 0.20354 0.0
C89 C 0.8703 0.32324 0.22672 0.0
C90 C 0.84989 0.33459 0.17211 0.0
C91 C 0.90886 0.36025 0.18853 0.0
C92 C 0.93015 0.34452 0.24251 0.0
C93 C 0.9243 0.32412 0.27153 0.0
N94 N 0.8643 0.30594 0.256 0.0
C95 C 0.8914 0.30397 0.27745 0.0
H96 H 0.88779 0.28677 0.29938 0.0
C97 C 0.78748 0.29077 0.18782 0.0
N98 N 0.81269 0.29902 0.21136 0.0
C99 C 0.79222 0.30546 0.15646 0.0
C100 C 0.82338 0.32795 0.14864 0.0
H101 H 0.76361 0.27246 0.1923 0.0
H102 H 0.93391 0.37604 0.18251 0.0
H103 H 0.66415 0.28524 0.27127 0.0
H104 H 0.95577 0.35976 0.23777 0.0
H105 H 0.94523 0.32338 0.28916 0.0
H106 H 0.88714 0.36805 0.14106 0.0
H107 H 0.79443 0.34739 0.36617 0.0
H108 H 0.61153 0.22128 0.34751 0.0
H109 H 0.61376 0.24313 0.29067 0.0
H110 H 0.68648 0.25153 0.43831 0.0
H111 H 0.77182 0.29911 0.13827 0.0
H112 H 0.82697 0.33932 0.1243 0.0
H113 H 0.63828 0.22568 0.4024 0.0
H114 H 0.79417 0.33219 0.42288 0.0
N115 N 0.69484 0.28234 0.31499 0.0
C116 C 0.63486 0.23849 0.33872 0.0
C117 C 0.6361 0.25056 0.30665 0.0
C118 C 0.66296 0.25062 0.35941 0.0
C119 C 0.6931 0.27263 0.34675 0.0
C120 C 0.66576 0.27363 0.29544 0.0
N121 N 0.74911 0.30791 0.35438 0.0
C122 C 0.72077 0.28609 0.36699 0.0
C123 C 0.7737 0.31827 0.40747 0.0
C124 C 0.74588 0.2942 0.42048 0.0
C125 C 0.77434 0.32572 0.37451 0.0
C126 C 0.71853 0.27863 0.40036 0.0
H127 H 0.74511 0.28903 0.44613 0.0
O128 O 0.75898 0.37593 0.31266 0.0
O129 O 0.78917 0.32663 0.26545 0.0
O130 O 0.83522 0.30342 0.30753 0.0
O131 O 0.80252 0.34569 0.31393 0.0
O132 O 0.74663 0.34627 0.24753 0.0
O133 O 0.70697 0.35159 0.29748 0.0
O134 O 0.78797 0.22375 0.24526 0.0
O135 O 0.76486 0.26991 0.29837 0.0
O136 O 0.71828 0.29299 0.25564 0.0
O137 O 0.75317 0.25427 0.24498 0.0
O138 O 0.80617 0.24769 0.31559 0.0
O139 O 0.8405 0.23802 0.26371 0.0
C140 C 0.77721 0.34374 0.24189 0.0
C141 C 0.68871 0.25687 0.41281 0.0
C142 C 0.6612 0.24241 0.39238 0.0
C143 C 0.7285 0.38137 0.30414 0.0
C144 C 0.72767 0.41333 0.28189 0.0
C145 C 0.74282 0.44806 0.29086 0.0
C146 C 0.71432 0.40892 0.25061 0.0
C147 C 0.7166 0.43849 0.22787 0.0
C148 C 0.7446 0.47797 0.2686 0.0
C149 C 0.73168 0.47332 0.23726 0.0
C150 C 0.8309 0.3328 0.31967 0.0
C151 C 0.77636 0.25238 0.32197 0.0
C152 C 0.81562 0.21211 0.2545 0.0
C153 C 0.81037 0.17795 0.27479 0.0
C154 C 0.781 0.15042 0.27026 0.0
C155 C 0.83307 0.17431 0.30102 0.0
C156 C 0.82618 0.14449 0.32317 0.0
C157 C 0.77422 0.12021 0.29233 0.0
C158 C 0.79656 0.11738 0.319 0.0
C159 C 0.72407 0.2657 0.24105 0.0
H160 H 0.75359 0.45194 0.31488 0.0
H161 H 0.70279 0.38209 0.24375 0.0
H162 H 0.75619 0.50481 0.27558 0.0
H163 H 0.73303 0.49705 0.22065 0.0
H164 H 0.76295 0.15269 0.25016 0.0
H165 H 0.85572 0.19537 0.30511 0.0
H166 H 0.75145 0.09921 0.28897 0.0
H167 H 0.79101 0.09399 0.33607 0.0
Gd168 Gd 0.79065 0.76153 0.30854 0.0
Gd169 Gd 0.79961 0.83477 0.25181 0.0
C170 C 0.83385 0.80454 0.15936 0.0
C171 C 0.89559 0.8148 0.16906 0.0
C172 C 0.85977 0.82535 0.21003 0.0
C173 C 0.83051 0.81493 0.19007 0.0
C174 C 0.89259 0.82625 0.19913 0.0
C175 C 0.86632 0.80363 0.1494 0.0
C176 C 0.8046 0.79665 0.1389 0.0
C177 C 0.77342 0.80172 0.14819 0.0
N178 N 0.7992 0.81672 0.19976 0.0
C179 C 0.77147 0.81316 0.17832 0.0
H180 H 0.74757 0.81912 0.18422 0.0
C181 C 0.88503 0.84858 0.25827 0.0
N182 N 0.8564 0.83518 0.23968 0.0
C183 C 0.91782 0.84989 0.24838 0.0
C184 C 0.92165 0.83839 0.21882 0.0
H185 H 0.88341 0.86037 0.27999 0.0
H186 H 0.86917 0.79533 0.12607 0.0
H187 H 0.83717 0.78165 0.37811 0.0
H188 H 0.80616 0.78834 0.1153 0.0
H189 H 0.751 0.79758 0.1319 0.0
H190 H 0.92054 0.81468 0.1607 0.0
H191 H 0.7083 0.72123 0.28208 0.0
H192 H 0.77146 0.80985 0.44193 0.0
H193 H 0.82894 0.80346 0.42905 0.0
H194 H 0.66051 0.77952 0.38978 0.0
H195 H 0.9402 0.8605 0.26336 0.0
H196 H 0.94718 0.83947 0.21123 0.0
H197 H 0.70895 0.80057 0.4272 0.0
H198 H 0.64986 0.722 0.293 0.0
N199 N 0.78595 0.7811 0.35931 0.0
C200 C 0.77513 0.80134 0.41888 0.0
C201 C 0.8076 0.79797 0.41166 0.0
C202 C 0.74742 0.79179 0.39701 0.0
C203 C 0.75352 0.78124 0.36704 0.0
C204 C 0.81229 0.7865 0.38217 0.0
N205 N 0.73186 0.75613 0.31815 0.0
C206 C 0.72591 0.76871 0.34596 0.0
C207 C 0.67096 0.73625 0.30757 0.0
C208 C 0.66455 0.75214 0.33418 0.0
C209 C 0.70473 0.73741 0.30053 0.0
C210 C 0.69201 0.76738 0.3544 0.0
H211 H 0.63827 0.75067 0.33986 0.0
O212 O 0.76356 0.70658 0.32114 0.0
O213 O 0.81834 0.7814 0.26223 0.0
O214 O 0.75103 0.7947 0.23749 0.0
O215 O 0.76332 0.7423 0.26323 0.0
O216 O 0.82625 0.73363 0.2825 0.0
O217 O 0.81511 0.72771 0.34272 0.0
O218 O 0.83183 0.88771 0.24274 0.0
O219 O 0.77178 0.81502 0.29783 0.0
O220 O 0.83854 0.80175 0.32341 0.0
O221 O 0.8261 0.85416 0.29822 0.0
O222 O 0.75961 0.85964 0.274 0.0
O223 O 0.78079 0.87492 0.21948 0.0
C224 C 0.83397 0.75512 0.25716 0.0
C225 C 0.68631 0.77997 0.38326 0.0
C226 C 0.71389 0.79191 0.40459 0.0
C227 C 0.78829 0.70098 0.34148 0.0
C228 C 0.78688 0.66637 0.36027 0.0
C229 C 0.75754 0.63831 0.35899 0.0
C230 C 0.81498 0.6617 0.38045 0.0
C231 C 0.81466 0.62895 0.39866 0.0
C232 C 0.75673 0.60577 0.37768 0.0
C233 C 0.78522 0.60096 0.39742 0.0
C234 C 0.74707 0.7591 0.24045 0.0
C235 C 0.75388 0.8401 0.30065 0.0
C236 C 0.8076 0.90022 0.22619 0.0
C237 C 0.80055 0.93364 0.23628 0.0
C238 C 0.81178 0.94578 0.26653 0.0
C239 C 0.78045 0.95255 0.21591 0.0
C240 C 0.77078 0.98296 0.22558 0.0
C241 C 0.80256 0.97644 0.27608 0.0
C242 C 0.78184 0.99488 0.25579 0.0
C243 C 0.8414 0.83714 0.32167 0.0
H244 H 0.73527 0.64153 0.34373 0.0
H245 H 0.83731 0.6837 0.38207 0.0
H246 H 0.73412 0.58415 0.37667 0.0
H247 H 0.78449 0.57526 0.41117 0.0
H248 H 0.8272 0.9314 0.28293 0.0
H249 H 0.77103 0.94255 0.19296 0.0
H250 H 0.81103 0.98556 0.29942 0.0
H251 H 0.77425 0.01818 0.26368 0.0
Gd252 Gd 0.25961 0.82484 0.2765 0.0
Gd253 Gd 0.32076 0.76598 0.29386 0.0
C254 C 0.27091 0.66341 0.35338 0.0
C255 C 0.2952 0.67551 0.40649 0.0
C256 C 0.30917 0.72122 0.36203 0.0
C257 C 0.28868 0.69802 0.34144 0.0
C258 C 0.31249 0.70998 0.39485 0.0
C259 C 0.27458 0.65225 0.38581 0.0
C260 C 0.24892 0.64132 0.33264 0.0
C261 C 0.2437 0.65441 0.30122 0.0
N262 N 0.28424 0.71004 0.31034 0.0
C263 C 0.26117 0.68901 0.2906 0.0
H264 H 0.25459 0.69869 0.26696 0.0
C265 C 0.34771 0.77664 0.37009 0.0
N266 N 0.32538 0.75475 0.35029 0.0
C267 C 0.35116 0.76695 0.40266 0.0
C268 C 0.33321 0.73362 0.41518 0.0
H269 H 0.36493 0.80072 0.36111 0.0
H270 H 0.26099 0.62591 0.39526 0.0
H271 H 0.26725 0.89166 0.3282 0.0
H272 H 0.23484 0.61471 0.34095 0.0
H273 H 0.22563 0.63815 0.28525 0.0
H274 H 0.29747 0.66664 0.43156 0.0
H275 H 0.22127 0.82075 0.20367 0.0
H276 H 0.3212 0.99064 0.28179 0.0
H277 H 0.29665 0.95564 0.33023 0.0
H278 H 0.30523 0.96625 0.17206 0.0
H279 H 0.36862 0.7848 0.41791 0.0
H280 H 0.33629 0.72599 0.44044 0.0
H281 H 0.32505 0.99414 0.2223 0.0
H282 H 0.22794 0.85423 0.15059 0.0
N283 N 0.27916 0.88868 0.28013 0.0
C284 C 0.3092 0.96222 0.28099 0.0
C285 C 0.29524 0.94261 0.30832 0.0
C286 C 0.30461 0.94573 0.25232 0.0
C287 C 0.2891 0.90856 0.25272 0.0
C288 C 0.27888 0.90617 0.30708 0.0
N289 N 0.26064 0.85839 0.22648 0.0
C290 C 0.27874 0.89294 0.22467 0.0
C291 C 0.24319 0.86515 0.17105 0.0
C292 C 0.26555 0.89896 0.16795 0.0
C293 C 0.24013 0.84581 0.20095 0.0
C294 C 0.28253 0.91398 0.19526 0.0
H295 H 0.26772 0.91415 0.14488 0.0
O296 O 0.20935 0.79136 0.26579 0.0
O297 O 0.26699 0.77151 0.3007 0.0
O298 O 0.29548 0.74686 0.24833 0.0
O299 O 0.25988 0.78845 0.236 0.0
O300 O 0.24709 0.80519 0.32711 0.0
O301 O 0.21394 0.84574 0.27976 0.0
O302 O 0.37257 0.76574 0.31189 0.0
O303 O 0.31032 0.8162 0.2678 0.0
O304 O 0.29429 0.84341 0.31939 0.0
O305 O 0.34206 0.82021 0.31241 0.0
O306 O 0.34726 0.79594 0.24933 0.0
O307 O 0.34688 0.72652 0.2789 0.0
C308 C 0.25462 0.77372 0.32726 0.0
C309 C 0.3011 0.94995 0.19448 0.0
C310 C 0.31242 0.96578 0.22308 0.0
C311 C 0.19329 0.81508 0.27401 0.0
C312 C 0.16507 0.80143 0.29542 0.0
C313 C 0.13777 0.77375 0.28627 0.0
C314 C 0.16394 0.81746 0.32379 0.0
C315 C 0.13425 0.80885 0.34139 0.0
C316 C 0.10911 0.76326 0.3046 0.0
C317 C 0.10693 0.78114 0.33153 0.0
C318 C 0.27287 0.76055 0.22963 0.0
C319 C 0.33096 0.82199 0.24565 0.0
C320 C 0.37561 0.74046 0.29425 0.0
C321 C 0.40752 0.74726 0.27736 0.0
C322 C 0.43889 0.7603 0.29375 0.0
C323 C 0.40725 0.73871 0.2458 0.0
C324 C 0.4381 0.73955 0.23146 0.0
C325 C 0.46961 0.76353 0.27912 0.0
C326 C 0.46937 0.75249 0.24854 0.0
C327 C 0.32699 0.84273 0.32498 0.0
H328 H 0.13832 0.76077 0.2646 0.0
H329 H 0.18593 0.83749 0.33145 0.0
H330 H 0.08789 0.74217 0.2972 0.0
H331 H 0.08323 0.77396 0.34371 0.0
H332 H 0.43965 0.76736 0.3181 0.0
H333 H 0.38286 0.73034 0.23291 0.0
H334 H 0.49376 0.77323 0.29202 0.0
H335 H 0.49386 0.75287 0.2391 0.0
Gd336 Gd 0.29193 0.82107 0.78877 0.0
Gd337 Gd 0.33572 0.75157 0.8009 0.0
C338 C 0.42272 0.77098 0.73255 0.0
C339 C 0.40467 0.72068 0.69932 0.0
C340 C 0.3708 0.72628 0.74342 0.0
C341 C 0.3935 0.75783 0.7505 0.0
C342 C 0.37682 0.70657 0.71849 0.0
C343 C 0.42755 0.75291 0.70629 0.0
C344 C 0.44661 0.8014 0.74198 0.0
C345 C 0.44185 0.81681 0.76956 0.0
N346 N 0.38807 0.77453 0.77608 0.0
C347 C 0.4126 0.80261 0.78665 0.0
H348 H 0.40994 0.81436 0.80817 0.0
C349 C 0.32436 0.67951 0.75952 0.0
N350 N 0.34411 0.71357 0.7623 0.0
C351 C 0.32958 0.65872 0.73543 0.0
C352 C 0.35543 0.67268 0.71434 0.0
H353 H 0.30351 0.66904 0.77507 0.0
H354 H 0.44948 0.763 0.69187 0.0
H355 H 0.2167 0.75789 0.76975 0.0
H356 H 0.46925 0.81249 0.72873 0.0
H357 H 0.4607 0.83964 0.77769 0.0
H358 H 0.40934 0.70629 0.67968 0.0
H359 H 0.3286 0.8837 0.84029 0.0
H360 H 0.14595 0.75442 0.83985 0.0
H361 H 0.16096 0.73458 0.7899 0.0
H362 H 0.20666 0.83419 0.91497 0.0
H363 H 0.31324 0.6323 0.73277 0.0
H364 H 0.35924 0.6567 0.6955 0.0
H365 H 0.16328 0.79098 0.88622 0.0
H366 H 0.31864 0.90179 0.89195 0.0
N367 N 0.23549 0.79399 0.80602 0.0
C368 C 0.17092 0.76581 0.83059 0.0
C369 C 0.17927 0.75465 0.80241 0.0
C370 C 0.19515 0.79087 0.84689 0.0
C371 C 0.22766 0.80469 0.83404 0.0
C372 C 0.21154 0.76885 0.79057 0.0
N373 N 0.28369 0.84122 0.83848 0.0
C374 C 0.25247 0.82849 0.85077 0.0
C375 C 0.30009 0.88052 0.8811 0.0
C376 C 0.26951 0.86532 0.89546 0.0
C377 C 0.30619 0.86904 0.85206 0.0
C378 C 0.24485 0.8398 0.87995 0.0
H379 H 0.26462 0.87455 0.91785 0.0
O380 O 0.31191 0.87903 0.78181 0.0
O381 O 0.34053 0.80703 0.77386 0.0
O382 O 0.35351 0.78993 0.83929 0.0
O383 O 0.34454 0.84103 0.81023 0.0
O384 O 0.30939 0.82529 0.73781 0.0
O385 O 0.25791 0.85679 0.7726 0.0
O386 O 0.33534 0.69779 0.82361 0.0
O387 O 0.29543 0.77277 0.82435 0.0
O388 O 0.26749 0.78484 0.75011 0.0
O389 O 0.29819 0.73892 0.75911 0.0
O390 O 0.28301 0.71929 0.81384 0.0
O391 O 0.37344 0.74298 0.83905 0.0
C392 C 0.33873 0.81591 0.74344 0.0
C393 C 0.21271 0.82598 0.89255 0.0
C394 C 0.18794 0.80159 0.87608 0.0
C395 C 0.28296 0.88512 0.76933 0.0
C396 C 0.28466 0.90499 0.73799 0.0
C397 C 0.30308 0.94084 0.73384 0.0
C398 C 0.26646 0.88827 0.71209 0.0
C399 C 0.26144 0.90851 0.6836 0.0
C400 C 0.30156 0.96021 0.70413 0.0
C401 C 0.28009 0.94453 0.67927 0.0
C402 C 0.35913 0.82524 0.83462 0.0
C403 C 0.27312 0.74276 0.82907 0.0
C404 C 0.35627 0.71036 0.84675 0.0
C405 C 0.34204 0.704 0.87869 0.0
C406 C 0.31004 0.68071 0.88358 0.0
C407 C 0.35842 0.72465 0.90342 0.0
C408 C 0.34347 0.72269 0.93309 0.0
C409 C 0.29423 0.67939 0.91205 0.0
C410 C 0.31037 0.70043 0.93637 0.0
C411 C 0.27437 0.75388 0.74341 0.0
H412 H 0.31806 0.95388 0.75357 0.0
H413 H 0.25347 0.86003 0.71492 0.0
H414 H 0.3155 0.98803 0.7009 0.0
H415 H 0.27665 0.96123 0.65755 0.0
H416 H 0.29654 0.66441 0.86502 0.0
H417 H 0.38318 0.74173 0.89897 0.0
H418 H 0.26924 0.66193 0.91532 0.0
H419 H 0.29684 0.69778 0.95791 0.0
Gd420 Gd 0.31095 0.29234 0.75304 0.0
Gd421 Gd 0.24642 0.28006 0.81399 0.0
C422 C 0.25048 0.20057 0.90203 0.0
C423 C 0.19912 0.15417 0.89304 0.0
C424 C 0.21323 0.20674 0.85508 0.0
C425 C 0.24272 0.21955 0.87304 0.0
C426 C 0.19036 0.17458 0.86541 0.0
C427 C 0.22919 0.16716 0.91134 0.0
C428 C 0.27844 0.21657 0.92146 0.0
C429 C 0.29672 0.25136 0.91251 0.0
N430 N 0.26211 0.2523 0.86361 0.0
C431 C 0.28777 0.26918 0.88366 0.0
H432 H 0.30225 0.29603 0.87725 0.0
C433 C 0.17313 0.22019 0.81443 0.0
N434 N 0.20512 0.22788 0.82931 0.0
C435 C 0.14977 0.18827 0.82335 0.0
C436 C 0.15866 0.16499 0.84863 0.0
H437 H 0.1661 0.23826 0.79501 0.0
H438 H 0.23499 0.15192 0.9333 0.0
H439 H 0.2572 0.27746 0.68798 0.0
H440 H 0.28535 0.20286 0.94386 0.0
H441 H 0.31781 0.26444 0.92776 0.0
H442 H 0.18213 0.12913 0.90118 0.0
H443 H 0.3901 0.33459 0.77612 0.0
H444 H 0.2765 0.37198 0.62305 0.0
H445 H 0.24326 0.3103 0.63758 0.0
H446 H 0.37886 0.44401 0.66892 0.0
H447 H 0.12488 0.18176 0.81086 0.0
H448 H 0.14037 0.1405 0.85579 0.0
H449 H 0.32702 0.42209 0.63519 0.0
H450 H 0.4318 0.39118 0.76189 0.0
N451 N 0.29708 0.32062 0.70312 0.0
C452 C 0.28267 0.35774 0.64543 0.0
C453 C 0.26396 0.32289 0.65348 0.0
C454 C 0.31021 0.37304 0.66562 0.0
C455 C 0.317 0.3534 0.69454 0.0
C456 C 0.27198 0.30435 0.68227 0.0
N457 N 0.35305 0.34442 0.73951 0.0
C458 C 0.34609 0.36568 0.71335 0.0
C459 C 0.40768 0.38448 0.74815 0.0
C460 C 0.40007 0.40765 0.72223 0.0
C461 C 0.38401 0.35247 0.75616 0.0
C462 C 0.36927 0.39802 0.70405 0.0
H463 H 0.41857 0.43229 0.71589 0.0
O464 O 0.35586 0.26912 0.75189 0.0
O465 O 0.29244 0.26262 0.79923 0.0
O466 O 0.29475 0.32265 0.82439 0.0
O467 O 0.31891 0.34473 0.77597 0.0
O468 O 0.34479 0.28156 0.79618 0.0
O469 O 0.3123 0.25345 0.71893 0.0
O470 O 0.20194 0.30329 0.81811 0.0
O471 O 0.26429 0.30805 0.76763 0.0
O472 O 0.26429 0.24977 0.74041 0.0
O473 O 0.23254 0.23038 0.78568 0.0
O474 O 0.21183 0.29257 0.77192 0.0
O475 O 0.24811 0.32131 0.84686 0.0
C476 C 0.32129 0.2635 0.81415 0.0
C477 C 0.36157 0.41887 0.67631 0.0
C478 C 0.33204 0.4064 0.65712 0.0
C479 C 0.3437 0.25089 0.72748 0.0
C480 C 0.36696 0.25407 0.70162 0.0
C481 C 0.37441 0.2861 0.68162 0.0
C482 C 0.38148 0.22472 0.69653 0.0
C483 C 0.40279 0.22717 0.67103 0.0
C484 C 0.39592 0.28879 0.65657 0.0
C485 C 0.40991 0.25946 0.65115 0.0
C486 C 0.31493 0.3476 0.80626 0.0
C487 C 0.23547 0.30831 0.75313 0.0
C488 C 0.21605 0.32285 0.84116 0.0
C489 C 0.19573 0.31965 0.86936 0.0
C490 C 0.18597 0.28586 0.8864 0.0
C491 C 0.18646 0.35021 0.8798 0.0
C492 C 0.16786 0.3468 0.90745 0.0
C493 C 0.16718 0.28226 0.9134 0.0
C494 C 0.15816 0.31243 0.9239 0.0
C495 C 0.24013 0.22699 0.75621 0.0
H496 H 0.36346 0.30889 0.6852 0.0
H497 H 0.37556 0.19982 0.71182 0.0
H498 H 0.40155 0.31358 0.64119 0.0
H499 H 0.42641 0.26199 0.63145 0.0
H500 H 0.19285 0.26221 0.87886 0.0
H501 H 0.1942 0.37648 0.86688 0.0
H502 H 0.15963 0.25599 0.92629 0.0
H503 H 0.14333 0.30881 0.94487 0.0
Gd504 Gd 0.77604 0.32591 0.77655 0.0
Gd505 Gd 0.82046 0.25571 0.80694 0.0
C506 C 0.76244 0.14169 0.8408 0.0
C507 C 0.75141 0.14869 0.89533 0.0
C508 C 0.78347 0.19958 0.86274 0.0
C509 C 0.77972 0.17839 0.83744 0.0
C510 C 0.77017 0.18455 0.89234 0.0
C511 C 0.74741 0.12732 0.86954 0.0
C512 C 0.76185 0.12013 0.81562 0.0
C513 C 0.77985 0.13469 0.78871 0.0
N514 N 0.79475 0.19299 0.81013 0.0
C515 C 0.79691 0.17104 0.78669 0.0
H516 H 0.81093 0.18203 0.76573 0.0
C517 C 0.80758 0.25505 0.88445 0.0
N518 N 0.80092 0.23453 0.85875 0.0
C519 C 0.79558 0.24107 0.91431 0.0
C520 C 0.77645 0.20582 0.91823 0.0
H521 H 0.82168 0.28251 0.88278 0.0
H522 H 0.73361 0.09938 0.87238 0.0
H523 H 0.84731 0.39156 0.77313 0.0
H524 H 0.74874 0.0919 0.81723 0.0
H525 H 0.7806 0.11798 0.7695 0.0
H526 H 0.74047 0.13702 0.91767 0.0
H527 H 0.69597 0.29885 0.74293 0.0
H528 H 0.85631 0.43664 0.67671 0.0
H529 H 0.87854 0.43513 0.7329 0.0
H530 H 0.75129 0.3785 0.62453 0.0
H531 H 0.80079 0.25777 0.93425 0.0
H532 H 0.76683 0.19523 0.94132 0.0
H533 H 0.80913 0.41454 0.63624 0.0
H534 H 0.66636 0.30305 0.6899 0.0
N535 N 0.80799 0.36796 0.74004 0.0
C536 C 0.84235 0.4175 0.69432 0.0
C537 C 0.85494 0.41679 0.72602 0.0
C538 C 0.81119 0.39452 0.68596 0.0
C539 C 0.79403 0.3701 0.7098 0.0
C540 C 0.83714 0.39196 0.74878 0.0
N541 N 0.74434 0.32887 0.72736 0.0
C542 C 0.76127 0.34998 0.70325 0.0
C543 C 0.69313 0.31605 0.69325 0.0
C544 C 0.7109 0.33552 0.66769 0.0
C545 C 0.71007 0.31359 0.72325 0.0
C546 C 0.74512 0.35348 0.67264 0.0
H547 H 0.69764 0.33753 0.6445 0.0
O548 O 0.74273 0.33898 0.81008 0.0
O549 O 0.77765 0.28108 0.81422 0.0
O550 O 0.7803 0.23285 0.76638 0.0
O551 O 0.7623 0.28259 0.73981 0.0
O552 O 0.73071 0.28166 0.78954 0.0
O553 O 0.76646 0.38014 0.77512 0.0
O554 O 0.87193 0.26976 0.82914 0.0
O555 O 0.82489 0.30792 0.77742 0.0
O556 O 0.81685 0.35154 0.81439 0.0
O557 O 0.84369 0.30536 0.83554 0.0
O558 O 0.83722 0.26545 0.75659 0.0
O559 O 0.85771 0.2229 0.80243 0.0
C560 C 0.74654 0.26472 0.81161 0.0
C561 C 0.76311 0.37586 0.64831 0.0
C562 C 0.79606 0.39637 0.65496 0.0
C563 C 0.74442 0.37158 0.7971 0.0
C564 C 0.71159 0.38243 0.79044 0.0
C565 C 0.69612 0.38445 0.75957 0.0
C566 C 0.69523 0.39051 0.81598 0.0
C567 C 0.6635 0.40047 0.81104 0.0
C568 C 0.66377 0.39294 0.75473 0.0
C569 C 0.64735 0.40084 0.78042 0.0
C570 C 0.763 0.24748 0.74208 0.0
C571 C 0.83635 0.29927 0.75285 0.0
C572 C 0.88284 0.24572 0.81519 0.0
C573 C 0.91355 0.25879 0.79631 0.0
C574 C 0.9381 0.28967 0.80414 0.0
C575 C 0.91837 0.2406 0.77007 0.0
C576 C 0.94794 0.25197 0.75246 0.0
C577 C 0.967 0.30183 0.78626 0.0
C578 C 0.97215 0.283 0.76084 0.0
C579 C 0.83903 0.33917 0.83536 0.0
H580 H 0.70903 0.37988 0.73926 0.0
H581 H 0.70749 0.38958 0.83976 0.0
H582 H 0.65176 0.39413 0.73097 0.0
H583 H 0.62282 0.40863 0.77623 0.0
H584 H 0.93496 0.30447 0.82403 0.0
H585 H 0.89893 0.21751 0.76336 0.0
H586 H 0.98581 0.32563 0.79248 0.0
H587 H 0.99556 0.29235 0.74838 0.0
Gd588 Gd 0.79951 0.83225 0.81839 0.0
Gd589 Gd 0.79043 0.76059 0.76589 0.0
C590 C 0.72941 0.77756 0.6726 0.0
C591 C 0.68217 0.72502 0.67541 0.0
C592 C 0.72585 0.73403 0.71876 0.0
C593 C 0.74239 0.766 0.70286 0.0
C594 C 0.69617 0.71263 0.70473 0.0
C595 C 0.69874 0.75744 0.65939 0.0
C596 C 0.74808 0.80856 0.6562 0.0
C597 C 0.77941 0.82648 0.66954 0.0
N598 N 0.77213 0.78475 0.71611 0.0
C599 C 0.79132 0.81383 0.6995 0.0
H600 H 0.81557 0.82761 0.70942 0.0
C601 C 0.72873 0.68803 0.76017 0.0
N602 N 0.7405 0.72225 0.74662 0.0
C603 C 0.69907 0.66605 0.74741 0.0
C604 C 0.68238 0.67865 0.71985 0.0
H605 H 0.7419 0.67814 0.7813 0.0
H606 H 0.68816 0.76616 0.63638 0.0
H607 H 0.77119 0.77867 0.88314 0.0
H608 H 0.7389 0.81839 0.63298 0.0
H609 H 0.7944 0.85004 0.6568 0.0
H610 H 0.65916 0.70915 0.66442 0.0
H611 H 0.85865 0.90862 0.79696 0.0
H612 H 0.85629 0.77482 0.94951 0.0
H613 H 0.79448 0.75595 0.9345 0.0
H614 H 0.94797 0.86195 0.90249 0.0
H615 H 0.68927 0.63935 0.7587 0.0
H616 H 0.65962 0.6614 0.70979 0.0
H617 H 0.91371 0.81358 0.93685 0.0
H618 H 0.91891 0.93581 0.81088 0.0
N619 N 0.81958 0.80907 0.868 0.0
C620 C 0.84621 0.78489 0.92675 0.0
C621 C 0.81133 0.77419 0.91838 0.0
C622 C 0.86741 0.80957 0.9062 0.0
C623 C 0.85304 0.8218 0.87676 0.0
C624 C 0.79827 0.787 0.88896 0.0
N625 N 0.85654 0.86296 0.83109 0.0
C626 C 0.87227 0.84913 0.85744 0.0
C627 C 0.90635 0.91106 0.82384 0.0
C628 C 0.92381 0.89529 0.84915 0.0
C629 C 0.8723 0.89515 0.81574 0.0
C630 C 0.90646 0.86471 0.86701 0.0
H631 H 0.95005 0.90802 0.85574 0.0
O632 O 0.80368 0.884 0.8378 0.0
O633 O 0.7764 0.81416 0.77078 0.0
O634 O 0.84308 0.79676 0.76736 0.0
O635 O 0.83267 0.85171 0.77664 0.0
O636 O 0.77371 0.86494 0.78038 0.0
O637 O 0.75774 0.84228 0.84424 0.0
O638 O 0.80696 0.71013 0.76351 0.0
O639 O 0.8163 0.77915 0.813 0.0
O640 O 0.7524 0.78917 0.8293 0.0
O641 O 0.73957 0.75142 0.78754 0.0
O642 O 0.79185 0.72503 0.8119 0.0
O643 O 0.82526 0.75585 0.73001 0.0
C644 C 0.76341 0.84158 0.75976 0.0
C645 C 0.92162 0.85065 0.89504 0.0
C646 C 0.90209 0.82318 0.91464 0.0
C647 C 0.77262 0.87597 0.84766 0.0
C648 C 0.75139 0.90319 0.83946 0.0
C649 C 0.7557 0.92611 0.81117 0.0
C650 C 0.72671 0.90674 0.86035 0.0
C651 C 0.70591 0.93207 0.85245 0.0
C652 C 0.73444 0.95053 0.803 0.0
C653 C 0.7095 0.95338 0.82341 0.0
C654 C 0.85104 0.83222 0.76433 0.0
C655 C 0.81074 0.74835 0.82977 0.0
C656 C 0.8251 0.72199 0.73877 0.0
C657 C 0.82168 0.69742 0.71322 0.0
C658 C 0.78955 0.68364 0.69846 0.0
C659 C 0.85085 0.68671 0.70406 0.0
C660 C 0.84755 0.66152 0.68103 0.0
C661 C 0.78629 0.65898 0.67541 0.0
C662 C 0.81506 0.64771 0.66688 0.0
C663 C 0.73181 0.76376 0.81356 0.0
H664 H 0.77564 0.92557 0.79539 0.0
H665 H 0.7238 0.89004 0.88269 0.0
H666 H 0.73767 0.96771 0.78099 0.0
H667 H 0.6937 0.97307 0.81703 0.0
H668 H 0.7669 0.69155 0.70481 0.0
H669 H 0.87584 0.69726 0.71528 0.0
H670 H 0.76135 0.64839 0.66426 0.0
H671 H 0.81204 0.62845 0.64898 0.0
Fe672 Fe 0.04339 0.079 0.54005 0.0
O673 O 1.01428 0.03338 0.55933 0.0
Fe674 Fe 0.11437 0.04989 0.5186 0.0
Fe675 Fe 0.96413 0.02468 0.56003 0.0
O676 O 0.06465 0.0455 0.51859 0.0
O677 O 0.0639 0.04193 0.51818 0.0
O678 O 1.01368 0.03003 0.55913 0.0
Fe679 Fe 0.03543 0.99652 0.53851 0.0
C680 C 0.99581 0.09595 0.58842 0.0
O681 O 1.00932 0.08034 0.50186 0.0
O682 O 0.96059 0.06665 0.52739 0.0
O683 O 0.062 0.96757 0.51322 0.0
O684 O 0.10129 1.01168 0.48576 0.0
O685 O 0.11093 0.09488 0.48911 0.0
O686 O 0.07689 0.12294 0.51583 0.0
O687 O 0.952 0.98903 0.52388 0.0
O688 O 1.00078 0.9937 0.5001 0.0
C689 C 0.09817 0.12231 0.49391 0.0
O690 O 0.06987 0.99737 0.57653 0.0
O691 O 0.11701 1.00634 0.55004 0.0
O692 O 1.017 0.10786 0.56584 0.0
O693 O 0.97724 0.06333 0.5924 0.0
C694 C 0.97745 0.07892 0.50297 0.0
C695 C 0.96838 0.98356 0.50056 0.0
C696 C 0.98221 0.95351 0.58571 0.0
O697 O 0.96876 0.98058 0.59017 0.0
O698 O 1.00354 0.9529 0.56393 0.0
C699 C 0.08314 0.97888 0.49051 0.0
O700 O 0.12621 0.08404 0.55548 0.0
O701 O 0.07719 0.07902 0.5789 0.0
C702 C 0.09892 0.9909 0.57287 0.0
C703 C 0.1097 0.08731 0.57939 0.0
Fe704 Fe 0.5089 0.99417 0.05099 0.0
O705 O 0.51365 0.04686 0.04741 0.0
Fe706 Fe 0.47291 0.06829 0.02573 0.0
Fe707 Fe 0.55216 0.08125 0.02595 0.0
O708 O 0.51032 0.04614 0.04719 0.0
O709 O 0.51164 0.10328 1.00446 0.0
O710 O 0.51523 0.10433 1.00507 0.0
Fe711 Fe 0.51903 0.1568 1.00405 0.0
C712 C 0.58088 0.02881 0.07493 0.0
O713 O 0.54235 0.99489 0.01584 0.0
O714 O 0.54868 0.04923 0.98883 0.0
O715 O 0.47588 0.1468 0.97386 0.0
O716 O 0.43892 0.0981 0.99885 0.0
O717 O 0.46765 0.03528 0.98893 0.0
O718 O 0.46857 0.98319 0.01816 0.0
O719 O 0.58791 0.12022 0.99958 0.0
O720 O 0.55499 0.15681 0.97158 0.0
C721 C 0.46164 1.00086 0.99236 0.0
O722 O 0.48672 0.1558 0.04013 0.0
O723 O 0.47809 0.09937 0.06261 0.0
O724 O 0.55173 1.00715 0.08095 0.0
O725 O 0.58603 0.0533 0.05113 0.0
C726 C 0.55155 1.01634 0.99146 0.0
C727 C 0.58246 0.14359 0.97611 0.0
C728 C 0.56719 0.1469 0.06261 0.0
O729 O 0.55819 0.11264 0.06396 0.0
O730 O 0.56018 0.16622 0.03771 0.0
C731 C 0.44595 0.12542 0.97708 0.0
O732 O 0.43751 0.02806 0.05356 0.0
O733 O 0.47224 0.99384 0.08269 0.0
C734 C 0.48084 0.13296 0.06419 0.0
C735 C 0.44344 1.00426 0.07694 0.0
Fe736 Fe 1.03515 0.65047 0.04069 0.0
O737 O 1.02463 0.59758 0.04105 0.0
Fe738 Fe 0.06552 0.56654 0.06035 0.0
Fe739 Fe 0.98073 0.56556 0.05579 0.0
O740 O 1.02999 0.59625 0.04097 0.0
O741 O 1.02302 0.53765 0.08084 0.0
O742 O 1.01616 0.53889 0.08083 0.0
Fe743 Fe 1.01189 0.48436 0.08144 0.0
C744 C 0.97765 0.63374 0.09565 0.0
O745 O 0.99396 0.64708 1.00662 0.0
O746 O 0.95174 0.59901 0.02398 0.0
O747 O 0.0478 0.48216 0.04995 0.0
O748 O 0.05731 0.53518 0.02189 0.0
O749 O 0.10337 0.60464 0.03101 0.0
O750 O 0.07462 0.64918 1.00922 0.0
O751 O 0.9777 0.5323 0.01666 0.0
O752 O 0.97445 0.47845 0.04351 0.0
C753 C 0.10057 0.63285 1.01042 0.0
O754 O 0.05506 0.4865 0.11579 0.0
O755 O 0.09648 0.52726 0.08866 0.0
O756 O 0.99858 0.65441 0.07615 0.0
O757 O 0.97391 0.5988 0.09443 0.0
C758 C 0.96245 0.62872 1.00517 0.0
C759 C 0.96881 0.49738 0.01774 0.0
C760 C 0.94486 0.50105 0.1005 0.0
O761 O 0.94213 0.52573 0.07718 0.0
O762 O 0.97178 0.48737 0.10885 0.0
C763 C 0.0571 0.50152 0.02469 0.0
O764 O 0.07643 0.59842 0.09788 0.0
O765 O 0.07419 0.65354 0.07481 0.0
C766 C 0.08778 0.49893 0.11062 0.0
C767 C 0.08664 0.63267 0.09552 0.0
Fe768 Fe 0.51906 0.55738 0.99028 0.0
O769 O 0.5547 0.5747 0.02407 0.0
Fe770 Fe 0.44833 0.51628 0.03297 0.0
Fe771 Fe 0.60382 0.58221 0.01884 0.0
O772 O 0.49712 0.52302 0.02525 0.0
O773 O 0.49782 0.52212 0.02826 0.0
O774 O 0.55506 0.57451 0.027 0.0
Fe775 Fe 0.53279 0.54082 0.06219 0.0
C776 C 0.57524 0.52441 0.97275 0.0
O777 O 0.54679 0.59587 0.9578 0.0
O778 O 0.59415 0.62403 0.98748 0.0
O779 O 0.50676 0.57893 0.07074 0.0
O780 O 0.45408 0.54487 0.07283 0.0
O781 O 0.44224 0.5625 1.00552 0.0
O782 O 0.49474 0.59594 1.00107 0.0
O783 O 0.6088 0.6078 0.06015 0.0
O784 O 0.5728 0.56689 0.09349 0.0
C785 C 0.46315 0.59303 1.0047 0.0
O786 O 0.50411 0.50109 0.09454 0.0
O787 O 0.45724 0.47403 0.06346 0.0
O788 O 0.54408 0.51935 0.9794 0.0
O789 O 0.59786 0.55192 0.98027 0.0
C790 C 0.57325 0.62207 0.96239 0.0
C791 C 0.59752 0.59534 0.08796 0.0
C792 C 0.59132 0.50652 0.05295 0.0
O793 O 0.61119 0.53718 0.047 0.0
O794 O 0.55913 0.50265 0.05397 0.0
C795 C 0.47608 0.57339 0.07874 0.0
O796 O 0.44339 0.49158 0.99121 0.0
O797 O 0.47847 0.53423 0.95889 0.0
C798 C 0.47776 0.4747 0.08878 0.0
C799 C 0.45462 0.50507 0.96364 0.0
Fe800 Fe 0.04 0.42938 0.54987 0.0
O801 O 0.04513 0.48182 0.54885 0.0
Fe802 Fe 0.06621 0.51479 0.50922 0.0
Fe803 Fe 0.06958 0.51139 0.58362 0.0
O804 O 0.04484 0.48206 0.5456 0.0
O805 O 0.09183 0.54377 0.54384 0.0
O806 O 0.09268 0.54329 0.54743 0.0
Fe807 Fe 0.09567 0.59618 0.54333 0.0
C808 C 1.01327 0.44744 0.61056 0.0
O809 O 0.07583 0.42709 0.58718 0.0
O810 O 0.10853 0.48243 0.58951 0.0
O811 O 0.12662 0.5969 0.50644 0.0
O812 O 0.09323 0.5546 0.47514 0.0
O813 O 0.10488 0.48823 0.51073 0.0
O814 O 0.07764 0.43022 0.51861 0.0
O815 O 0.09983 0.54822 0.61481 0.0
O816 O 0.1307 0.59245 0.58018 0.0
C817 C 0.10422 0.45461 0.51223 0.0
O818 O 0.05628 0.59775 0.50922 0.0
O819 O 1.02736 0.54075 0.50846 0.0
O820 O 1.0068 0.43109 0.58439 0.0
O821 O 0.03965 0.47369 0.61633 0.0
C822 C 0.10325 0.44831 0.5966 0.0
C823 C 0.12536 0.57545 0.60808 0.0
C824 C 1.03449 0.57252 0.58521 0.0
O825 O 1.03052 0.53925 0.58064 0.0
O826 O 0.06173 0.59528 0.57804 0.0
C827 C 0.11856 0.58247 0.47958 0.0
O828 O 1.03512 0.47917 0.47729 0.0
O829 O 1.00665 0.43219 0.5105 0.0
C830 C 1.02861 0.5744 0.50494 0.0
C831 C 1.01098 0.45023 0.4829 0.0
Fe832 Fe 0.57222 0.93953 0.52122 0.0
O833 O 0.58218 0.9935 0.52114 0.0
Fe834 Fe 0.55959 0.0223 0.47657 0.0
Fe835 Fe 0.56857 0.01782 0.55778 0.0
O836 O 0.58096 0.99424 0.51458 0.0
O837 O 0.54744 0.04656 0.5139 0.0
O838 O 0.54853 0.04616 0.51971 0.0
Fe839 Fe 0.55392 0.09974 0.51615 0.0
C840 C 0.51746 0.94616 0.57123 0.0
O841 O 0.61034 0.94447 0.55833 0.0
O842 O 0.59421 0.9826 0.59106 0.0
O843 O 0.58973 0.11154 0.48119 0.0
O844 O 0.60446 0.05983 0.4719 0.0
O845 O 0.58289 0.98702 0.4452 0.0
O846 O 0.60413 0.94649 0.48158 0.0
O847 O 0.61512 0.05772 0.56168 0.0
O848 O 0.59387 0.10728 0.55157 0.0
C849 C 0.6022 0.96165 0.45248 0.0
O850 O 0.51462 0.09651 0.47899 0.0
O851 O 0.52889 0.0602 0.4438 0.0
O852 O 0.53689 0.9288 0.55899 0.0
O853 O 0.52129 0.98018 0.56339 0.0
C854 C 0.61119 0.95751 0.58594 0.0
C855 C 0.61623 0.09122 0.56607 0.0
C856 C 0.52694 0.06929 0.58159 0.0
O857 O 0.5481 0.04748 0.5886 0.0
O858 O 0.52242 0.08647 0.55397 0.0
C859 C 0.60943 0.09421 0.46961 0.0
O860 O 0.51428 0.9857 0.48011 0.0
O861 O 0.5313 0.93329 0.48777 0.0
C862 C 0.51117 0.08532 0.45048 0.0
C863 C 0.50864 0.95168 0.47908 0.0
H864 H 0.22396 0.2955 0.37383 0.0
H865 H 0.22582 0.18804 0.34905 0.0
H866 H 0.1822 0.26915 0.4138 0.0
H867 H 0.18325 0.16222 0.38791 0.0
H868 H 0.08197 0.12912 0.43134 0.0
H869 H 0.1186 0.1669 0.39195 0.0
H870 H 0.18084 0.22275 0.46721 0.0
H871 H 0.14417 0.18427 0.50683 0.0
C872 C 0.21547 0.26634 0.37676 0.0
C873 C 0.22774 0.24394 0.35763 0.0
C874 C 0.19153 0.25136 0.39963 0.0
C875 C 0.17901 0.21378 0.40341 0.0
C876 C 0.19191 0.19138 0.38494 0.0
C877 C 0.2163 0.20623 0.36264 0.0
C878 C 0.1024 0.15075 0.43933 0.0
C879 C 0.1099 0.15433 0.47201 0.0
C880 C 0.12367 0.17194 0.41686 0.0
C881 C 0.15278 0.19732 0.42662 0.0
C882 C 0.15844 0.20344 0.4591 0.0
C883 C 0.13723 0.18184 0.48173 0.0
H884 H 0.89467 0.15062 0.3218 0.0
H885 H 0.81219 0.13569 0.38561 0.0
H886 H 0.93476 0.1427 0.36686 0.0
H887 H 0.85251 0.12892 0.43098 0.0
H888 H 0.91247 0.05154 0.48475 0.0
H889 H 0.87768 0.07588 0.44277 0.0
H890 H 0.96446 0.16181 0.41792 0.0
H891 H 0.99999 0.13647 0.46027 0.0
C892 C 0.88538 0.14614 0.34563 0.0
C893 C 0.8504 0.14232 0.35053 0.0
C894 C 0.90833 0.14217 0.37133 0.0
C895 C 0.89644 0.13456 0.40213 0.0
C896 C 0.86196 0.13392 0.40721 0.0
C897 C 0.83894 0.1374 0.38146 0.0
C898 C 0.92409 0.07571 0.47038 0.0
C899 C 0.95856 0.09254 0.47566 0.0
C900 C 0.90412 0.08988 0.44665 0.0
C901 C 0.91818 0.12133 0.42789 0.0
C902 C 0.95307 0.13772 0.43246 0.0
C903 C 0.97333 0.12322 0.45631 0.0
H904 H 0.83247 0.90131 0.33976 0.0
H905 H 0.89515 0.82209 0.3616 0.0
H906 H 0.86274 0.93631 0.38266 0.0
H907 H 0.92542 0.85711 0.40493 0.0
H908 H 0.99554 0.95148 0.45602 0.0
H909 H 0.96558 0.91605 0.41328 0.0
H910 H 0.86889 0.93207 0.4418 0.0
H911 H 0.8989 0.96766 0.48477 0.0
C912 C 0.85298 0.8915 0.35354 0.0
C913 C 0.86149 0.85893 0.34704 0.0
C914 C 0.87007 0.9114 0.37845 0.0
C915 C 0.8965 0.89958 0.39744 0.0
C916 C 0.90537 0.86721 0.39069 0.0
C917 C 0.88796 0.84704 0.36591 0.0
C918 C 0.96788 0.94768 0.45317 0.0
C919 C 0.94971 0.96274 0.47389 0.0
C920 C 0.95066 0.92701 0.42875 0.0
C921 C 0.91477 0.9211 0.42398 0.0
C922 C 0.89658 0.93631 0.44455 0.0
C923 C 0.91378 0.95664 0.46929 0.0
H924 H 0.09433 0.78939 0.39375 0.0
H925 H 0.16557 0.88012 0.34913 0.0
H926 H 0.08056 0.82924 0.42986 0.0
H927 H 0.15599 0.91779 0.3883 0.0
H928 H 0.10189 0.99134 0.42952 0.0
H929 H 0.11513 0.94853 0.39602 0.0
H930 H 0.0933 0.86365 0.47243 0.0
H931 H 0.07675 0.9061 0.50468 0.0
C932 C 0.1075 0.81752 0.39174 0.0
C933 C 0.13049 0.83124 0.3676 0.0
C934 C 0.10009 0.84034 0.41307 0.0
C935 C 0.11647 0.87715 0.41158 0.0
C936 C 0.14169 0.89002 0.3894 0.0
C937 C 0.14798 0.86775 0.36726 0.0
C938 C 0.0997 0.96344 0.43899 0.0
C939 C 0.08888 0.95213 0.4698 0.0
C940 C 0.10776 0.93888 0.41998 0.0
C941 C 0.10629 0.90263 0.43172 0.0
C942 C 0.09464 0.89119 0.46242 0.0
C943 C 0.08541 0.9156 0.48106 0.0
H944 H 0.25474 0.91884 0.6185 0.0
H945 H 0.19946 0.86715 0.70084 0.0
H946 H 0.20066 0.91519 0.58795 0.0
H947 H 0.14601 0.86174 0.6698 0.0
H948 H 0.09888 0.96686 0.63567 0.0
H949 H 0.12807 0.92 0.65955 0.0
H950 H 0.14297 0.89099 0.56574 0.0
H951 H 0.11614 0.93933 0.54231 0.0
C952 C 0.2313 0.90531 0.62966 0.0
C953 C 0.23148 0.89464 0.66229 0.0
C954 C 0.20022 0.90252 0.61204 0.0
C955 C 0.16906 0.88905 0.62698 0.0
C956 C 0.16966 0.87273 0.658 0.0
C957 C 0.20061 0.87587 0.67571 0.0
C958 C 0.10745 0.94956 0.62041 0.0
C959 C 0.10671 0.95721 0.58744 0.0
C960 C 0.12363 0.92231 0.63391 0.0
C961 C 0.13866 0.90261 0.61426 0.0
C962 C 0.13224 0.90629 0.58127 0.0
C963 C 0.11707 0.93407 0.56792 0.0
H964 H 0.17053 0.21119 0.74518 0.0
H965 H 0.26317 0.18021 0.72349 0.0
H966 H 0.1384 0.17406 0.70431 0.0
H967 H 0.2312 0.14178 0.68364 0.0
H968 H 0.17747 0.12102 0.58633 0.0
H969 H 0.2074 0.15008 0.63224 0.0
H970 H 0.11501 0.1175 0.68428 0.0
H971 H 0.08469 0.08972 0.63775 0.0
C972 C 0.18368 0.19514 0.73262 0.0
C973 C 0.21919 0.19811 0.73777 0.0
C974 C 0.16535 0.17397 0.70896 0.0
C975 C 0.18218 0.15513 0.69014 0.0
C976 C 0.21741 0.15653 0.69691 0.0
C977 C 0.23571 0.17809 0.72012 0.0
C978 C 0.16356 0.11984 0.60761 0.0
C979 C 0.12862 0.10306 0.60819 0.0
C980 C 0.18083 0.13632 0.63418 0.0
C981 C 0.16381 0.13614 0.66231 0.0
C982 C 0.12896 0.11873 0.66304 0.0
C983 C 0.11159 0.10255 0.63633 0.0
H984 H 0.92809 0.17844 0.7484 0.0
H985 H 0.98197 0.27623 0.69734 0.0
H986 H 0.93862 0.14329 0.7072 0.0
H987 H 0.99645 0.2401 0.65806 0.0
H988 H 0.99126 0.16665 0.57697 0.0
H989 H 0.97837 0.20554 0.61529 0.0
H990 H 0.98191 0.12037 0.69054 0.0
H991 H 0.99213 0.08121 0.65181 0.0
C992 C 0.94215 0.19268 0.72843 0.0
C993 C 0.95414 0.23048 0.72651 0.0
C994 C 0.94899 0.17218 0.70501 0.0
C995 C 0.96916 0.18859 0.67954 0.0
C996 C 0.98073 0.22642 0.67722 0.0
C997 C 0.97294 0.24715 0.70019 0.0
C998 C 0.98935 0.1566 0.60179 0.0
C999 C 0.99216 0.12102 0.61157 0.0
C1000 C 0.98211 0.17881 0.62381 0.0
C1001 C 0.97844 0.16599 0.65607 0.0
C1002 C 0.9832 0.13086 0.66582 0.0
C1003 C 0.98946 0.10847 0.64373 0.0
H1004 H 0.85865 0.8984 0.73125 0.0
H1005 H 0.90383 0.80427 0.74759 0.0
H1006 H 0.89556 0.92056 0.68674 0.0
H1007 H 0.94115 0.82704 0.70333 0.0
H1008 H 1.01746 0.93012 0.63781 0.0
H1009 H 0.98968 0.89788 0.68548 0.0
H1010 H 0.89238 0.87798 0.63188 0.0
H1011 H 0.92009 0.90951 0.58442 0.0
C1012 C 0.87716 0.88305 0.726 0.0
C1013 C 0.87825 0.84953 0.74269 0.0
C1014 C 0.898 0.89554 0.70042 0.0
C1015 C 0.92068 0.87511 0.69165 0.0
C1016 C 0.92369 0.84303 0.70975 0.0
C1017 C 0.90241 0.83016 0.73499 0.0
C1018 C 0.9906 0.91682 0.63585 0.0
C1019 C 0.97088 0.92158 0.60751 0.0
C1020 C 0.97468 0.89898 0.66313 0.0
C1021 C 0.93898 0.88623 0.66215 0.0
C1022 C 0.91995 0.88792 0.63305 0.0
C1023 C 0.93585 0.90533 0.60585 0.0
H1024 H 0.35249 0.19125 0.17319 0.0
H1025 H 0.39918 0.12674 0.24608 0.0
H1026 H 0.40178 0.19966 0.14202 0.0
H1027 H 0.4497 0.13555 0.21442 0.0
H1028 H 0.47014 0.09084 0.11953 0.0
H1029 H 0.44977 0.106 0.16739 0.0
H1030 H 0.46011 0.21725 0.12854 0.0
H1031 H 0.47939 0.20144 0.07918 0.0
C1032 C 0.37396 0.17995 0.18317 0.0
C1033 C 0.37178 0.15775 0.21185 0.0
C1034 C 0.40257 0.18513 0.16531 0.0
C1035 C 0.42958 0.16795 0.17555 0.0
C1036 C 0.42893 0.14865 0.20574 0.0
C1037 C 0.40002 0.1433 0.22369 0.0
C1038 C 0.4686 0.11875 0.12116 0.0
C1039 C 0.47479 0.14466 0.09502 0.0
C1040 C 0.45758 0.12765 0.14909 0.0
C1041 C 0.45276 0.16274 0.15161 0.0
C1042 C 0.46295 0.18976 0.12692 0.0
C1043 C 0.47373 0.18071 0.09864 0.0
H1044 H 0.84193 0.38065 0.25526 0.0
H1045 H 0.75926 0.37096 0.18292 0.0
H1046 H 0.87849 0.42445 0.22006 0.0
H1047 H 0.79554 0.41601 0.14759 0.0
H1048 H 0.88944 0.45078 0.08298 0.0
H1049 H 0.84491 0.41689 0.11755 0.0
H1050 H 0.88918 0.48367 0.19392 0.0
H1051 H 0.93433 0.51629 0.15948 0.0
C1052 C 0.83159 0.3882 0.23178 0.0
C1053 C 0.79841 0.37159 0.22112 0.0
C1054 C 0.85231 0.41373 0.21177 0.0
C1055 C 0.83999 0.42362 0.18089 0.0
C1056 C 0.80595 0.40848 0.17102 0.0
C1057 C 0.78521 0.38283 0.19114 0.0
C1058 C 0.88888 0.45862 0.10692 0.0
C1059 C 0.91476 0.48604 0.11879 0.0
C1060 C 0.86344 0.4394 0.12669 0.0
C1061 C 0.86359 0.44749 0.15856 0.0
C1062 C 0.88866 0.47641 0.16967 0.0
C1063 C 0.91424 0.4953 0.15 0.0
H1064 H 0.77549 1.00475 0.16267 0.0
H1065 H 0.71076 0.99626 0.24182 0.0
H1066 H 0.7297 0.0204 0.12616 0.0
H1067 H 0.66511 1.01223 0.20531 0.0
H1068 H 0.6439 0.07459 0.07724 0.0
H1069 H 0.692 0.0699 0.11523 0.0
H1070 H 0.63198 0.97236 0.16092 0.0
H1071 H 0.58398 0.97653 0.12315 0.0
C1072 C 0.7518 1.00729 0.17225 0.0
C1073 C 0.74646 0.99957 0.2049 0.0
C1074 C 0.7258 1.01628 0.15149 0.0
C1075 C 0.6942 1.01736 0.16319 0.0
C1076 C 0.68944 1.01143 0.19599 0.0
C1077 C 0.71553 1.00271 0.21679 0.0
C1078 C 0.64099 0.05203 0.09527 0.0
C1079 C 0.61019 0.02584 0.09717 0.0
C1080 C 0.66842 0.04953 0.11698 0.0
C1081 C 0.66522 0.02107 0.14094 0.0
C1082 C 0.63459 0.99492 0.14288 0.0
C1083 C 0.60728 0.99724 0.12114 0.0
H1084 H 0.27049 0.68966 0.21892 0.0
H1085 H 0.24577 0.78807 0.1739 0.0
H1086 H 0.22971 0.65464 0.18202 0.0
H1087 H 0.20415 0.75365 0.1381 0.0
H1088 H 0.13519 0.68733 0.07175 0.0
H1089 H 0.1898 0.71456 0.09692 0.0
H1090 H 0.16689 0.64101 0.18096 0.0
H1091 H 0.11239 0.61227 0.15475 0.0
C1092 C 0.25628 0.70395 0.20127 0.0
C1093 C 0.25851 0.74142 0.20131 0.0
C1094 C 0.233 0.68383 0.18013 0.0
C1095 C 0.21257 0.70119 0.15821 0.0
C1096 C 0.21885 0.7392 0.1552 0.0
C1097 C 0.24205 0.75908 0.17631 0.0
C1098 C 0.14172 0.67703 0.0957 0.0
C1099 C 0.11918 0.64855 0.1119 0.0
C1100 C 0.17313 0.69247 0.10997 0.0
C1101 C 0.18243 0.68028 0.14102 0.0
C1102 C 0.16051 0.65074 0.15683 0.0
C1103 C 0.12917 0.63468 0.14216 0.0
H1104 H 0.39594 0.89264 0.81989 0.0
H1105 H 0.37386 0.81036 0.89787 0.0
H1106 H 0.4221 0.93694 0.85704 0.0
H1107 H 0.40197 0.85433 0.93528 0.0
H1108 H 0.40468 0.94829 0.99377 0.0
H1109 H 0.38466 0.90418 0.95459 0.0
H1110 H 0.46682 0.95876 0.89471 0.0
H1111 H 0.48557 1.00399 0.93356 0.0
C1112 C 0.39767 0.88385 0.84502 0.0
C1113 C 0.3824 0.8484 0.85625 0.0
C1114 C 0.41281 0.9092 0.86629 0.0
C1115 C 0.41344 0.89937 0.89915 0.0
C1116 C 0.40096 0.86295 0.9101 0.0
C1117 C 0.38542 0.8376 0.88875 0.0
C1118 C 0.41777 0.9512 0.97177 0.0
C1119 C 0.44613 0.97954 0.96612 0.0
C1120 C 0.40683 0.92563 0.94968 0.0
C1121 C 0.42464 0.92748 0.92189 0.0
C1122 C 0.45248 0.95669 0.91583 0.0
C1123 C 0.46304 0.98272 0.93779 0.0
H1124 H 0.17613 0.36534 0.9684 0.0
H1125 H 0.13747 0.39908 0.8749 0.0
H1126 H 0.15002 0.40839 0.99174 0.0
H1127 H 0.11151 0.44296 0.89858 0.0
H1128 H 0.09962 0.53351 0.97606 0.0
H1129 H 0.13032 0.50213 0.94288 0.0
H1130 H 0.07862 0.39926 0.98649 0.0
H1131 H 0.0479 0.42973 0.01876 0.0
C1132 C 0.1626 0.38251 0.95276 0.0
C1133 C 0.15824 0.37834 0.91992 0.0
C1134 C 0.14782 0.40723 0.96611 0.0
C1135 C 0.12854 0.42864 0.94695 0.0
C1136 C 0.1264 0.42678 0.91377 0.0
C1137 C 0.14121 0.40173 0.90029 0.0
C1138 C 0.09431 0.5042 0.97796 0.0
C1139 C 0.0717 0.48417 1.00044 0.0
C1140 C 0.11189 0.48633 0.95906 0.0
C1141 C 0.1071 0.44839 0.96262 0.0
C1142 C 0.08305 0.42855 0.98363 0.0
C1143 C 0.06549 0.44613 1.00214 0.0
H1144 H 0.74471 0.28048 0.87252 0.0
H1145 H 0.70248 0.19999 0.80677 0.0
H1146 H 0.70766 0.24604 0.91361 0.0
H1147 H 0.66462 0.16585 0.84761 0.0
H1148 H 0.57199 0.16375 0.91354 0.0
H1149 H 0.61475 0.18846 0.87454 0.0
H1150 H 0.69566 0.178 0.9458 0.0
H1151 H 0.65254 0.15226 0.98516 0.0
C1152 C 0.72816 0.25483 0.86728 0.0
C1153 C 0.72727 0.24196 0.83711 0.0
C1154 C 0.70691 0.23529 0.89064 0.0
C1155 C 0.68374 0.20309 0.88385 0.0
C1156 C 0.68263 0.1904 0.85349 0.0
C1157 C 0.70418 0.20978 0.83025 0.0
C1158 C 0.59887 0.16638 0.92092 0.0
C1159 C 0.60894 0.15628 0.95247 0.0
C1160 C 0.62329 0.18027 0.8985 0.0
C1161 C 0.65837 0.18501 0.90722 0.0
C1162 C 0.66866 0.17452 0.93861 0.0
C1163 C 0.64408 0.15977 0.961 0.0
H1164 H 0.79097 0.6939 0.87635 0.0
H1165 H 0.88209 0.76757 0.84475 0.0
H1166 H 0.82466 0.66575 0.91755 0.0
H1167 H 0.9166 0.73893 0.88521 0.0
H1168 H 0.97626 0.69489 0.97005 0.0
H1169 H 0.94168 0.72359 0.93126 0.0
H1170 H 0.85832 0.63024 0.94187 0.0
H1171 H 0.89334 0.60183 0.9824 0.0
C1172 C 0.8184 0.70447 0.87832 0.0
C1173 C 0.83311 0.73419 0.85729 0.0
C1174 C 0.83823 0.68776 0.90215 0.0
C1175 C 0.87441 0.69907 0.90606 0.0
C1176 C 0.88917 0.7288 0.88454 0.0
C1177 C 0.86913 0.74575 0.86081 0.0
C1178 C 0.95053 0.67996 0.96445 0.0
C1179 C 0.93841 0.64524 0.98028 0.0
C1180 C 0.93023 0.69683 0.94133 0.0
C1181 C 0.89622 0.68015 0.93189 0.0
C1182 C 0.88387 0.64524 0.94778 0.0
C1183 C 0.9043 0.62836 0.97138 0.0
H1184 H 0.18668 0.33323 0.24876 0.0
H1185 H 0.27419 0.40087 0.20569 0.0
H1186 H 0.14901 0.36742 0.2162 0.0
H1187 H 0.23699 0.43553 0.17344 0.0
H1188 H 0.16352 0.50601 0.11279 0.0
H1189 H 0.20131 0.47001 0.14332 0.0
H1190 H 0.11383 0.40199 0.18696 0.0
H1191 H 0.07658 0.43775 0.15679 0.0
C1192 C 0.19858 0.35442 0.23162 0.0
C1193 C 0.2353 0.36089 0.22998 0.0
C1194 C 0.17616 0.37545 0.21253 0.0
C1195 C 0.18777 0.40631 0.19015 0.0
C1196 C 0.22454 0.41295 0.18898 0.0
C1197 C 0.24681 0.39191 0.20799 0.0
C1198 C 0.15165 0.48362 0.12888 0.0
C1199 C 0.11495 0.47692 0.13087 0.0
C1200 C 0.17418 0.46194 0.14713 0.0
C1201 C 0.16279 0.43091 0.16946 0.0
C1202 C 0.12612 0.42444 0.17121 0.0
C1203 C 0.10376 0.446 0.15312 0.0
H1204 H 0.26923 0.77022 0.88945 0.0
H1205 H 0.22149 0.68156 0.83415 0.0
H1206 H 0.22956 0.74539 0.93217 0.0
H1207 H 0.18377 0.65554 0.8774 0.0
H1208 H 0.14213 0.59891 0.97669 0.0
H1209 H 0.1825 0.62541 0.93496 0.0
H1210 H 0.16464 0.73107 0.94619 0.0
H1211 H 0.12346 0.70452 0.98679 0.0
C1212 C 0.24997 0.7459 0.8858 0.0
C1213 C 0.24835 0.72932 0.85679 0.0
C1214 C 0.22717 0.73108 0.91087 0.0
C1215 C 0.20251 0.69786 0.90913 0.0
C1216 C 0.20183 0.68088 0.88056 0.0
C1217 C 0.22375 0.69619 0.85527 0.0
C1218 C 0.1468 0.62785 0.97063 0.0
C1219 C 0.12876 0.649 0.98612 0.0
C1220 C 0.17014 0.6433 0.94616 0.0
C1221 C 0.17776 0.68103 0.93634 0.0
C1222 C 0.1604 0.70219 0.9525 0.0
C1223 C 0.13634 0.68663 0.97615 0.0
H1224 H 0.29037 0.19265 0.8343 0.0
H1225 H 0.37506 0.28042 0.85569 0.0
H1226 H 0.31376 0.15267 0.87577 0.0
H1227 H 0.39835 0.24089 0.89608 0.0
H1228 H 0.45439 0.14732 0.91513 0.0
H1229 H 0.41776 0.17724 0.87849 0.0
H1230 H 0.34003 0.15627 0.94741 0.0
H1231 H 0.37751 0.12626 0.9851 0.0
C1232 C 0.31333 0.20364 0.8484 0.0
C1233 C 0.33056 0.23991 0.84211 0.0
C1234 C 0.32673 0.18079 0.87203 0.0
C1235 C 0.35782 0.19376 0.88923 0.0
C1236 C 0.37427 0.2302 0.8834 0.0
C1237 C 0.36091 0.25284 0.8602 0.0
C1238 C 0.42917 0.14818 0.92242 0.0
C1239 C 0.41904 0.13451 0.95324 0.0
C1240 C 0.4082 0.1654 0.90133 0.0
C1241 C 0.37616 0.16929 0.91011 0.0
C1242 C 0.36459 0.15343 0.93999 0.0
C1243 C 0.38593 0.13612 0.96147 0.0
H1244 H 0.83591 0.41008 0.84699 0.0
H1245 H 0.88905 0.32596 0.88193 0.0
H1246 H 0.86634 0.4482 0.88827 0.0
H1247 H 0.91999 0.36399 0.92252 0.0
H1248 H 0.95228 0.42347 0.01259 0.0
H1249 H 0.92263 0.38825 0.97015 0.0
H1250 H 0.91334 0.48653 0.91343 0.0
H1251 H 0.94287 0.52222 0.957 0.0
C1252 C 0.85425 0.39953 0.86323 0.0
C1253 C 0.85937 0.36416 0.86039 0.0
C1254 C 0.87213 0.42182 0.88725 0.0
C1255 C 0.89621 0.41006 0.90999 0.0
C1256 C 0.90155 0.3748 0.90667 0.0
C1257 C 0.8837 0.3526 0.88274 0.0
C1258 C 0.94416 0.4381 0.99118 0.0
C1259 C 0.95068 0.47649 0.98915 0.0
C1260 C 0.92701 0.4174 0.96614 0.0
C1261 C 0.91504 0.43352 0.9371 0.0
C1262 C 0.92144 0.4721 0.93493 0.0
C1263 C 0.93886 0.493 0.96019 0.0
H1264 H 0.72152 0.96186 0.90891 0.0
H1265 H 0.63636 0.9182 0.84538 0.0
H1266 H 0.68223 0.98227 0.94161 0.0
H1267 H 0.59687 0.9378 0.87843 0.0
H1268 H 0.54044 0.94875 0.97105 0.0
H1269 H 0.57717 0.92533 0.93796 0.0
H1270 H 0.64365 0.03133 0.92744 0.0
H1271 H 0.60656 0.05499 0.95993 0.0
C1272 C 0.69427 0.95594 0.90247 0.0
C1273 C 0.68173 0.93841 0.8749 0.0
C1274 C 0.67193 0.96789 0.92088 0.0
C1275 C 0.63667 0.96187 0.91225 0.0
C1276 C 0.62396 0.94272 0.88552 0.0
C1277 C 0.64641 0.93145 0.86675 0.0
C1278 C 0.56261 0.96711 0.9612 0.0
C1279 C 0.57064 1.00364 0.96787 0.0
C1280 C 0.58357 0.95372 0.94238 0.0
C1281 C 0.61335 0.97647 0.93057 0.0
C1282 C 0.62098 1.01321 0.93661 0.0
C1283 C 0.59958 0.0268 0.95482 0.0
H1284 H 0.90632 0.76364 0.24861 0.0
H1285 H 0.8114 0.71175 0.2037 0.0
H1286 H 0.93817 0.73762 0.21226 0.0
H1287 H 0.84304 0.68367 0.16858 0.0
H1288 H 0.91187 0.60815 0.12487 0.0
H1289 H 0.87939 0.63712 0.15853 0.0
H1290 H 0.96136 0.73112 0.15802 0.0
H1291 H 0.99298 0.7029 0.12315 0.0
C1292 C 0.89155 0.74766 0.23046 0.0
C1293 C 0.85484 0.74339 0.22926 0.0
C1294 C 0.91048 0.73164 0.20915 0.0
C1295 C 0.89483 0.70725 0.18555 0.0
C1296 C 0.85799 0.70176 0.18516 0.0
C1297 C 0.83914 0.71887 0.20576 0.0
C1298 C 0.92366 0.63504 0.13163 0.0
C1299 C 0.95678 0.65167 0.11981 0.0
C1300 C 0.90424 0.65239 0.15152 0.0
C1301 C 0.91616 0.68792 0.16277 0.0
C1302 C 0.94954 0.70421 0.15137 0.0
C1303 C 0.9684 0.68737 0.13063 0.0
H1304 H 0.36685 0.891 0.2521 0.0
H1305 H 0.31392 0.82052 0.18206 0.0
H1306 H 0.3883 0.9372 0.20976 0.0
H1307 H 0.33333 0.86707 0.13954 0.0
H1308 H 0.41112 0.93505 0.07118 0.0
H1309 H 0.37991 0.89316 0.11124 0.0
H1310 H 0.383 0.98181 0.16933 0.0
H1311 H 0.4161 0.02345 0.12922 0.0
C1312 C 0.35893 0.8859 0.22757 0.0
C1313 C 0.33798 0.85246 0.22046 0.0
C1314 C 0.37123 0.91246 0.2031 0.0
C1315 C 0.36294 0.90642 0.17065 0.0
C1316 C 0.34116 0.873 0.16387 0.0
C1317 C 0.3294 0.84631 0.18833 0.0
C1318 C 0.404 0.9458 0.09199 0.0
C1319 C 0.41528 0.98281 0.09649 0.0
C1320 C 0.38605 0.92162 0.11529 0.0
C1321 C 0.37864 0.93351 0.14416 0.0
C1322 C 0.38849 0.9711 0.1479 0.0
C1323 C 0.40684 0.99533 0.12453 0.0
H1324 H 0.71961 0.19993 0.21793 0.0
H1325 H 0.66939 0.29039 0.20988 0.0
H1326 H 0.68077 0.17208 0.17612 0.0
H1327 H 0.62954 0.26181 0.16826 0.0
H1328 H 0.59231 0.21957 0.06916 0.0
H1329 H 0.62772 0.24774 0.11335 0.0
H1330 H 0.6233 0.14228 0.16322 0.0
H1331 H 0.58868 0.11413 0.11887 0.0
C1332 C 0.69999 0.21378 0.2075 0.0
C1333 C 0.69775 0.24753 0.21747 0.0
C1334 C 0.67743 0.19757 0.18353 0.0
C1335 C 0.65178 0.2145 0.16861 0.0
C1336 C 0.64913 0.24804 0.1789 0.0
C1337 C 0.67175 0.26428 0.20307 0.0
C1338 C 0.59879 0.20236 0.08958 0.0
C1339 C 0.58764 0.16447 0.09019 0.0
C1340 C 0.61896 0.21859 0.11511 0.0
C1341 C 0.62863 0.19743 0.14203 0.0
C1342 C 0.61695 0.15957 0.14281 0.0
C1343 C 0.59681 0.14336 0.11733 0.0
H1344 H 0.69771 0.6933 0.8135 0.0
H1345 H 0.69227 0.79639 0.84556 0.0
H1346 H 0.64847 0.66391 0.84363 0.0
H1347 H 0.64244 0.76714 0.87552 0.0
H1348 H 0.61183 0.68984 0.96633 0.0
H1349 H 0.64172 0.72815 0.92369 0.0
H1350 H 0.58818 0.65468 0.85541 0.0
H1351 H 0.55874 0.61544 0.89865 0.0
C1352 C 0.6852 0.70988 0.82598 0.0
C1353 C 0.6989 0.74701 0.82737 0.0
C1354 C 0.65684 0.69307 0.84325 0.0
C1355 C 0.64168 0.71321 0.86212 0.0
C1356 C 0.6539 0.75086 0.86154 0.0
C1357 C 0.68243 0.76757 0.84449 0.0
C1358 C 0.60573 0.6823 0.94213 0.0
C1359 C 0.58347 0.64938 0.93585 0.0
C1360 C 0.62265 0.70447 0.91758 0.0
C1361 C 0.61754 0.69425 0.88619 0.0
C1362 C 0.59288 0.66296 0.87947 0.0
C1363 C 0.57583 0.64069 0.90416 0.0
H1364 H 0.41028 0.76779 0.93761 0.0
H1365 H 0.32694 0.71939 0.99788 0.0
H1366 H 0.45018 0.74963 0.97725 0.0
H1367 H 0.36774 0.70472 0.03902 0.0
H1368 H 0.39911 0.597 0.01929 0.0
H1369 H 0.37789 0.65042 0.02465 0.0
H1370 H 0.47976 0.71665 0.01224 0.0
H1371 H 0.50055 0.66251 1.0052 0.0
C1372 C 0.40002 0.75321 0.95918 0.0
C1373 C 0.36476 0.73775 0.96165 0.0
C1374 C 0.42345 0.74391 0.98281 0.0
C1375 C 0.4113 0.72061 1.00933 0.0
C1376 C 0.37734 0.71882 0.01691 0.0
C1377 C 0.35372 0.72672 0.99275 0.0
C1378 C 0.41698 0.62295 0.01762 0.0
C1379 C 0.45099 0.62571 1.01013 0.0
C1380 C 0.40506 0.6539 0.02158 0.0
C1381 C 0.42687 0.68854 0.01801 0.0
C1382 C 0.46189 0.69074 0.01407 0.0
C1383 C 0.47372 0.6597 1.00964 0.0
H1384 H 0.30721 0.41449 0.81852 0.0
H1385 H 0.37729 0.34209 0.8313 0.0
H1386 H 0.34594 0.45671 0.85257 0.0
H1387 H 0.41591 0.38387 0.86501 0.0
H1388 H 0.43291 0.43271 0.96335 0.0
H1389 H 0.40276 0.39833 0.92035 0.0
H1390 H 0.40967 0.49695 0.85892 0.0
H1391 H 0.44062 0.53183 0.90241 0.0
C1392 C 0.3313 0.40817 0.82803 0.0
C1393 C 0.3396 0.37539 0.82246 0.0
C1394 C 0.35344 0.43225 0.84728 0.0
C1395 C 0.38381 0.42342 0.86139 0.0
C1396 C 0.39261 0.39123 0.85449 0.0
C1397 C 0.37064 0.36742 0.83522 0.0
C1398 C 0.4283 0.44712 0.94061 0.0
C1399 C 0.43896 0.48493 0.9362 0.0
C1400 C 0.41124 0.42739 0.91594 0.0
C1401 C 0.40403 0.44501 0.88634 0.0
C1402 C 0.41498 0.48283 0.8816 0.0
C1403 C 0.43277 0.50267 0.90631 0.0
H1404 H 0.69598 0.45239 0.84839 0.0
H1405 H 0.59907 0.37803 0.83277 0.0
H1406 H 0.67285 0.47667 0.89091 0.0
H1407 H 0.57587 0.4012 0.87674 0.0
H1408 H 0.53783 0.48948 0.92447 0.0
H1409 H 0.55815 0.4541 0.88766 0.0
H1410 H 0.65486 0.46497 0.94292 0.0
H1411 H 0.63517 0.50236 0.97821 0.0
C1412 C 0.66981 0.44085 0.85459 0.0
C1413 C 0.64914 0.41352 0.8375 0.0
C1414 C 0.6566 0.45448 0.87914 0.0
C1415 C 0.62258 0.44061 0.88744 0.0
C1416 C 0.60206 0.41267 0.87065 0.0
C1417 C 0.61522 0.39939 0.84563 0.0
C1418 C 0.56325 0.48382 0.92878 0.0
C1419 C 0.58531 0.49894 0.95357 0.0
C1420 C 0.57482 0.46337 0.90793 0.0
C1421 C 0.60832 0.45719 0.91212 0.0
C1422 C 0.62929 0.47016 0.93851 0.0
C1423 C 0.61805 0.49135 0.95879 0.0
H1424 H 0.74045 0.47572 0.17233 0.0
H1425 H 0.66092 0.38717 0.20789 0.0
H1426 H 0.71074 0.47456 0.12055 0.0
H1427 H 0.63399 0.38274 0.15517 0.0
H1428 H 0.56563 0.45332 0.09743 0.0
H1429 H 0.59926 0.41957 0.13264 0.0
H1430 H 0.68541 0.45584 0.07246 0.0
H1431 H 0.65183 0.49214 0.03825 0.0
C1432 C 0.71708 0.45548 0.16902 0.0
C1433 C 0.70243 0.43278 0.19482 0.0
C1434 C 0.70044 0.454 0.1389 0.0
C1435 C 0.66921 0.42911 0.13375 0.0
C1436 C 0.6573 0.40308 0.15851 0.0
C1437 C 0.67317 0.40544 0.18888 0.0
C1438 C 0.59133 0.45306 0.09105 0.0
C1439 C 0.60678 0.47639 0.06604 0.0
C1440 C 0.61078 0.43332 0.11121 0.0
C1441 C 0.64576 0.43622 0.10621 0.0
C1442 C 0.65905 0.45439 0.07776 0.0
C1443 C 0.63984 0.475 0.05808 0.0
H1444 H 0.69086 0.77347 0.20297 0.0
H1445 H 0.74923 0.69087 0.22898 0.0
H1446 H 0.65169 0.73174 0.16865 0.0
H1447 H 0.71051 0.64989 0.1956 0.0
H1448 H 0.66566 0.60896 0.09979 0.0
H1449 H 0.69981 0.64949 0.13689 0.0
H1450 H 0.60726 0.66876 0.17212 0.0
H1451 H 0.5727 0.62754 0.13442 0.0
C1452 C 0.6954 0.74663 0.2013 0.0
C1453 C 0.7233 0.73565 0.21855 0.0
C1454 C 0.6728 0.72263 0.18202 0.0
C1455 C 0.67804 0.68751 0.17945 0.0
C1456 C 0.70586 0.67677 0.19685 0.0
C1457 C 0.72806 0.70039 0.21608 0.0
C1458 C 0.65256 0.62121 0.11594 0.0
C1459 C 0.6166 0.61461 0.11471 0.0
C1460 C 0.6721 0.64457 0.1371 0.0
C1461 C 0.65626 0.6624 0.15743 0.0
C1462 C 0.62015 0.65554 0.15659 0.0
C1463 C 0.60041 0.63156 0.13549 0.0
H1464 H 0.38745 0.68657 0.2054 0.0
H1465 H 0.48727 0.7545 0.18653 0.0
H1466 H 0.39053 0.65379 0.16057 0.0
H1467 H 0.49301 0.71687 0.14554 0.0
H1468 H 0.5011 0.64572 0.07196 0.0
H1469 H 0.48433 0.69193 0.09927 0.0
H1470 H 0.41486 0.60796 0.15365 0.0
H1471 H 0.42845 0.5629 0.12297 0.0
C1472 C 0.41009 0.69506 0.19181 0.0
C1473 C 0.43764 0.72302 0.20073 0.0
C1474 C 0.41221 0.6752 0.16631 0.0
C1475 C 0.44266 0.68115 0.15019 0.0
C1476 C 0.46907 0.71092 0.15731 0.0
C1477 C 0.46617 0.73213 0.18171 0.0
C1478 C 0.48159 0.63753 0.08924 0.0
C1479 C 0.46584 0.60099 0.09537 0.0
C1480 C 0.47223 0.66394 0.10526 0.0
C1481 C 0.44839 0.65407 0.12913 0.0
C1482 C 0.43254 0.6172 0.13493 0.0
C1483 C 0.44069 0.59106 0.11773 0.0
H1484 H 0.41172 0.35694 0.26212 0.0
H1485 H 0.364 0.28405 0.19183 0.0
H1486 H 0.44924 0.39258 0.22337 0.0
H1487 H 0.40421 0.31744 0.15329 0.0
H1488 H 0.42204 0.41928 0.08538 0.0
H1489 H 0.40186 0.37165 0.12481 0.0
H1490 H 0.49134 0.40883 0.18648 0.0
H1491 H 0.51124 0.4589 0.14661 0.0
C1492 C 0.40956 0.34827 0.23841 0.0
C1493 C 0.3831 0.31951 0.22942 0.0
C1494 C 0.43181 0.36826 0.21619 0.0
C1495 C 0.42891 0.35898 0.18458 0.0
C1496 C 0.40609 0.32651 0.17703 0.0
C1497 C 0.38319 0.30705 0.19921 0.0
C1498 C 0.43793 0.41752 0.10711 0.0
C1499 C 0.46825 0.44355 0.11282 0.0
C1500 C 0.42641 0.38943 0.12979 0.0
C1501 C 0.44493 0.38583 0.15898 0.0
C1502 C 0.47614 0.41089 0.16438 0.0
C1503 C 0.48764 0.43958 0.14154 0.0
H1504 H 0.90486 0.70243 0.65447 0.0
H1505 H 0.85715 0.59271 0.68551 0.0
H1506 H 0.95031 0.6808 0.63178 0.0
H1507 H 0.9035 0.57084 0.6648 0.0
H1508 H 0.96737 0.53813 0.59259 0.0
H1509 H 0.92362 0.56005 0.61748 0.0
H1510 H 0.99849 0.65652 0.63981 0.0
H1511 H 0.04139 0.63548 0.61341 0.0
C1512 C 0.90468 0.67372 0.65705 0.0
C1513 C 0.87759 0.64915 0.67147 0.0
C1514 C 0.93076 0.6612 0.64417 0.0
C1515 C 0.9306 0.62386 0.64605 0.0
C1516 C 0.90413 0.5996 0.66197 0.0
C1517 C 0.87775 0.61209 0.67422 0.0
C1518 C 0.97436 0.56406 0.60275 0.0
C1519 C 1.00778 0.58515 0.6008 0.0
C1520 C 0.94936 0.57658 0.61733 0.0
C1521 C 0.95733 0.61021 0.63083 0.0
C1522 C 0.99099 0.63093 0.62919 0.0
C1523 C 1.01576 0.61871 0.61416 0.0
H1524 H 0.39096 0.87893 0.74677 0.0
H1525 H 0.35265 0.79319 0.68574 0.0
H1526 H 0.43202 0.90923 0.70688 0.0
H1527 H 0.39399 0.82279 0.64607 0.0
H1528 H 0.49125 0.87161 0.58652 0.0
H1529 H 0.45142 0.84083 0.627 0.0
H1530 H 0.44308 0.94413 0.65585 0.0
H1531 H 0.48244 0.97484 0.61494 0.0
C1532 C 0.39163 0.86584 0.7252 0.0
C1533 C 0.36843 0.83234 0.72079 0.0
C1534 C 0.41528 0.88372 0.70167 0.0
C1535 C 0.41752 0.86928 0.67211 0.0
C1536 C 0.39439 0.83554 0.66798 0.0
C1537 C 0.37029 0.81813 0.6912 0.0
C1538 C 0.4809 0.88813 0.60117 0.0
C1539 C 0.49084 0.92648 0.59624 0.0
C1540 C 0.45752 0.87013 0.62486 0.0
C1541 C 0.44294 0.88911 0.64591 0.0
C1542 C 0.45315 0.92752 0.64109 0.0
C1543 C 0.47598 0.94552 0.61697 0.0
H1544 H 0.18983 0.285 0.70638 0.0
H1545 H 0.25926 0.38115 0.73615 0.0
H1546 H 0.163 0.32112 0.66597 0.0
H1547 H 0.23062 0.41843 0.69671 0.0
H1548 H 0.17381 0.4717 0.60854 0.0
H1549 H 0.21204 0.43947 0.64284 0.0
H1550 H 0.12395 0.35694 0.6704 0.0
H1551 H 0.08697 0.38769 0.63596 0.0
C1552 C 0.19972 0.31402 0.70378 0.0
C1553 C 0.22682 0.3302 0.7241 0.0
C1554 C 0.18397 0.33494 0.68094 0.0
C1555 C 0.19362 0.37303 0.67869 0.0
C1556 C 0.22231 0.38926 0.69774 0.0
C1557 C 0.23885 0.36795 0.72026 0.0
C1558 C 0.16288 0.44661 0.62198 0.0
C1559 C 0.1274 0.43187 0.61885 0.0
C1560 C 0.18473 0.42814 0.64167 0.0
C1561 C 0.17141 0.39478 0.65873 0.0
C1562 C 0.13568 0.38152 0.65668 0.0
C1563 C 0.11423 0.39946 0.63696 0.0
H1564 H 0.74112 0.26787 0.68019 0.0
H1565 H 0.73881 0.172 0.74354 0.0
H1566 H 0.70941 0.23135 0.639 0.0
H1567 H 0.70672 0.13491 0.70243 0.0
H1568 H 0.66178 0.06879 0.6151 0.0
H1569 H 0.697 0.10455 0.65597 0.0
H1570 H 0.66151 0.19925 0.61534 0.0
H1571 H 0.62781 0.1642 0.5747 0.0
C1572 C 0.73373 0.23891 0.68567 0.0
C1573 C 0.74329 0.22363 0.71597 0.0
C1574 C 0.71505 0.21741 0.66162 0.0
C1575 C 0.70443 0.17908 0.66627 0.0
C1576 C 0.7142 0.16381 0.69668 0.0
C1577 C 0.73301 0.18543 0.72074 0.0
C1578 C 0.66193 0.09739 0.61444 0.0
C1579 C 0.6416 0.11294 0.59048 0.0
C1580 C 0.68209 0.11825 0.6385 0.0
C1581 C 0.68314 0.15586 0.64001 0.0
C1582 C 0.66291 0.1711 0.61575 0.0
C1583 C 0.64295 0.15043 0.59194 0.0
H1584 H 0.84323 0.40345 0.33573 0.0
H1585 H 0.8826 0.30578 0.35245 0.0
H1586 H 0.88826 0.43357 0.37272 0.0
H1587 H 0.92765 0.33586 0.38863 0.0
H1588 H 0.97157 0.38205 0.48197 0.0
H1589 H 0.92998 0.35629 0.44152 0.0
H1590 H 0.95222 0.45683 0.38247 0.0
H1591 H 0.9944 0.48335 0.42382 0.0
C1592 C 0.86163 0.38847 0.34704 0.0
C1593 C 0.8592 0.35211 0.34095 0.0
C1594 C 0.88763 0.40586 0.36808 0.0
C1595 C 0.91167 0.38722 0.38385 0.0
C1596 C 0.90948 0.35108 0.37726 0.0
C1597 C 0.88373 0.33384 0.35617 0.0
C1598 C 0.96788 0.399 0.46045 0.0
C1599 C 0.9866 0.43505 0.45642 0.0
C1600 C 0.944 0.38393 0.43699 0.0
C1601 C 0.9377 0.40425 0.40848 0.0
C1602 C 0.95627 0.44039 0.40419 0.0
C1603 C 0.98065 0.45553 0.42779 0.0
H1604 H 0.68584 0.85113 0.29333 0.0
H1605 H 0.76798 0.8642 0.36489 0.0
H1606 H 0.65215 0.87977 0.32551 0.0
H1607 H 0.73394 0.89186 0.39792 0.0
H1608 H 0.65985 0.92984 0.46511 0.0
H1609 H 0.69293 0.90136 0.43283 0.0
H1610 H 0.63075 0.92535 0.34983 0.0
H1611 H 0.59747 0.95468 0.3826 0.0
C1612 C 0.69685 0.85872 0.31652 0.0
C1613 C 0.73017 0.85163 0.32598 0.0
C1614 C 0.67701 0.87627 0.33547 0.0
C1615 C 0.68841 0.88936 0.36606 0.0
C1616 C 0.72205 0.88268 0.37549 0.0
C1617 C 0.74214 0.86558 0.35617 0.0
C1618 C 0.65275 0.92989 0.43988 0.0
C1619 C 0.62464 0.94644 0.42804 0.0
C1620 C 0.67257 0.91283 0.42064 0.0
C1621 C 0.66628 0.90949 0.38712 0.0
C1622 C 0.63804 0.92595 0.37497 0.0
C1623 C 0.61839 0.94374 0.39433 0.0
H1624 H 0.25772 0.76351 0.39181 0.0
H1625 H 0.2047 0.71642 0.30853 0.0
H1626 H 0.22489 0.71439 0.42577 0.0
H1627 H 0.17231 0.66618 0.34225 0.0
H1628 H 0.09627 0.6021 0.41819 0.0
H1629 H 0.12871 0.64706 0.37985 0.0
H1630 H 0.21968 0.6529 0.44258 0.0
H1631 H 0.18709 0.60933 0.48082 0.0
C1632 C 0.23934 0.7422 0.38078 0.0
C1633 C 0.23512 0.7428 0.34748 0.0
C1634 C 0.22055 0.71378 0.40021 0.0
C1635 C 0.19628 0.68537 0.38697 0.0
C1636 C 0.19081 0.68715 0.35354 0.0
C1637 C 0.2098 0.71564 0.3341 0.0
C1638 C 0.12342 0.61229 0.42327 0.0
C1639 C 0.13906 0.60197 0.45257 0.0
C1640 C 0.14209 0.63834 0.40137 0.0
C1641 C 0.17688 0.65459 0.40822 0.0
C1642 C 0.19281 0.64218 0.43666 0.0
C1643 C 0.17419 0.61662 0.45849 0.0
H1644 H 0.3341 0.20601 0.37466 0.0
H1645 H 0.39895 0.22741 0.29602 0.0
H1646 H 0.37339 0.17162 0.40427 0.0
H1647 H 0.43784 0.19178 0.32495 0.0
H1648 H 0.50418 0.10672 0.37998 0.0
H1649 H 0.46633 0.14322 0.34959 0.0
H1650 H 0.41802 0.15048 0.43537 0.0
H1651 H 0.45547 0.11495 0.46522 0.0
C1652 C 0.35749 0.2054 0.36356 0.0
C1653 C 0.36283 0.22444 0.33249 0.0
C1654 C 0.38072 0.18405 0.38099 0.0
C1655 C 0.41139 0.17711 0.36888 0.0
C1656 C 0.41606 0.19498 0.33729 0.0
C1657 C 0.3931 0.2169 0.32018 0.0
C1658 C 0.48533 0.1152 0.39291 0.0
C1659 C 0.48457 0.10519 0.42676 0.0
C1660 C 0.46288 0.1374 0.37486 0.0
C1661 C 0.43682 0.15195 0.38834 0.0
C1662 C 0.43609 0.14139 0.42193 0.0
C1663 C 0.4586 0.1199 0.43983 0.0
H1664 H 0.70009 0.80627 0.73051 0.0
H1665 H 0.77671 0.90517 0.72347 0.0
H1666 H 0.66331 0.83316 0.68988 0.0
H1667 H 0.73977 0.93252 0.68467 0.0
H1668 H 0.65083 0.98654 0.63965 0.0
H1669 H 0.68677 0.95692 0.67894 0.0
H1670 H 0.65449 0.85752 0.63313 0.0
H1671 H 0.6195 0.88709 0.59385 0.0
C1672 C 0.70984 0.83319 0.71962 0.0
C1673 C 0.74275 0.85245 0.72965 0.0
C1674 C 0.68828 0.84916 0.69652 0.0
C1675 C 0.69783 0.88574 0.68354 0.0
C1676 C 0.73066 0.90469 0.69375 0.0
C1677 C 0.75236 0.88852 0.71594 0.0
C1678 C 0.65109 0.95832 0.63799 0.0
C1679 C 0.63174 0.93974 0.61291 0.0
C1680 C 0.67212 0.94112 0.6606 0.0
C1681 C 0.67422 0.90424 0.6598 0.0
C1682 C 0.65399 0.88559 0.63529 0.0
C1683 C 0.63376 0.90292 0.61238 0.0
H1684 H 0.79044 0.23719 0.38525 0.0
H1685 H 0.71448 0.20907 0.30888 0.0
H1686 H 0.7534 0.19578 0.42284 0.0
H1687 H 0.67756 0.16779 0.34601 0.0
H1688 H 0.62935 0.0757 0.41453 0.0
H1689 H 0.67286 0.11108 0.3798 0.0
H1690 H 0.6984 0.19286 0.44716 0.0
H1691 H 0.65329 0.15843 0.48094 0.0
C1692 C 0.76587 0.22196 0.3766 0.0
C1693 C 0.75472 0.22696 0.34454 0.0
C1694 C 0.74467 0.19837 0.39802 0.0
C1695 C 0.71243 0.17857 0.38748 0.0
C1696 C 0.7023 0.18233 0.35493 0.0
C1697 C 0.72321 0.20626 0.33371 0.0
C1698 C 0.64427 0.1013 0.42186 0.0
C1699 C 0.63769 0.11463 0.45018 0.0
C1700 C 0.66909 0.12163 0.40192 0.0
C1701 C 0.68854 0.15532 0.41026 0.0
C1702 C 0.68333 0.16753 0.4396 0.0
C1703 C 0.65758 0.14781 0.45901 0.0
H1704 H 0.81889 0.59742 0.45928 0.0
H1705 H 0.88052 0.64994 0.38119 0.0
H1706 H 0.87099 0.58874 0.49024 0.0
H1707 H 0.93215 0.6419 0.41222 0.0
H1708 H 1.02105 0.64246 0.48313 0.0
H1709 H 0.96798 0.65993 0.46192 0.0
H1710 H 0.91211 0.54988 0.48154 0.0
H1711 H 0.96443 0.5325 0.5031 0.0
C1712 C 0.84349 0.60712 0.44883 0.0
C1713 C 0.84573 0.62417 0.41789 0.0
C1714 C 0.87316 0.60248 0.46656 0.0
C1715 C 0.90534 0.61497 0.45356 0.0
C1716 C 0.90763 0.63275 0.42296 0.0
C1717 C 0.87807 0.63715 0.4052 0.0
C1718 C 0.99732 0.62221 0.48327 0.0
C1719 C 0.99687 0.5861 0.49427 0.0
C1720 C 0.96711 0.63217 0.47119 0.0
C1721 C 0.93621 0.60617 0.47025 0.0
C1722 C 0.93558 0.57048 0.48247 0.0
C1723 C 0.96564 0.56051 0.49441 0.0
H1724 H 0.39371 0.87352 0.32 0.0
H1725 H 0.30905 0.86414 0.38039 0.0
H1726 H 0.43364 0.89885 0.36237 0.0
H1727 H 0.34954 0.89043 0.42308 0.0
H1728 H 0.45062 0.97854 0.46556 0.0
H1729 H 0.40158 0.9544 0.43004 0.0
H1730 H 0.44455 0.86153 0.41999 0.0
H1731 H 0.49348 0.8852 0.4555 0.0
C1732 C 0.38361 0.87779 0.34213 0.0
C1733 C 0.34847 0.86668 0.34719 0.0
C1734 C 0.40644 0.89195 0.36637 0.0
C1735 C 0.39452 0.89562 0.39599 0.0
C1736 C 0.35911 0.88744 0.40036 0.0
C1737 C 0.33606 0.87287 0.37597 0.0
C1738 C 0.44928 0.95259 0.4563 0.0
C1739 C 0.47624 0.93406 0.46283 0.0
C1740 C 0.42114 0.9388 0.43619 0.0
C1741 C 0.4198 0.90652 0.4222 0.0
C1742 C 0.44539 0.88671 0.43046 0.0
C1743 C 0.4733 0.90024 0.45079 0.0
H1744 H 0.30138 0.46918 0.4454 0.0
H1745 H 0.26587 0.35364 0.46276 0.0
H1746 H 0.25224 0.47904 0.4711 0.0
H1747 H 0.21724 0.36324 0.49002 0.0
H1748 H 0.11195 0.39522 0.48449 0.0
H1749 H 0.16591 0.3815 0.47152 0.0
H1750 H 0.22194 0.47588 0.51716 0.0
H1751 H 0.16805 0.4904 0.52842 0.0
C1752 C 0.28382 0.44599 0.45612 0.0
C1753 C 0.2873 0.41074 0.45243 0.0
C1754 C 0.25559 0.45154 0.4708 0.0
C1755 C 0.23068 0.42185 0.4824 0.0
C1756 C 0.23568 0.3866 0.48079 0.0
C1757 C 0.26366 0.38108 0.46566 0.0
C1758 C 0.13591 0.4127 0.49186 0.0
C1759 C 0.13612 0.44407 0.50682 0.0
C1760 C 0.1668 0.40477 0.48477 0.0
C1761 C 0.19823 0.42775 0.49323 0.0
C1762 C 0.19819 0.4581 0.50975 0.0
C1763 C 0.1674 0.46637 0.51621 0.0
H1764 H 0.39659 0.1962 0.61525 0.0
H1765 H 0.44101 0.18844 0.71119 0.0
H1766 H 0.42419 0.1491 0.60136 0.0
H1767 H 0.46894 0.14073 0.69732 0.0
H1768 H 0.55047 0.10722 0.63301 0.0
H1769 H 0.51652 0.13967 0.66109 0.0
H1770 H 0.42425 0.08433 0.612 0.0
H1771 H 0.45833 0.05275 0.58366 0.0
C1772 C 0.41202 0.184 0.63345 0.0
C1773 C 0.41691 0.19599 0.66416 0.0
C1774 C 0.42758 0.15678 0.62564 0.0
C1775 C 0.44861 0.14102 0.64833 0.0
C1776 C 0.45289 0.15241 0.67938 0.0
C1777 C 0.43685 0.17948 0.68733 0.0
C1778 C 0.52276 0.10078 0.62955 0.0
C1779 C 0.50681 0.07737 0.60654 0.0
C1780 C 0.50333 0.11947 0.64543 0.0
C1781 C 0.46778 0.11494 0.63833 0.0
C1782 C 0.45163 0.08875 0.6176 0.0
C1783 C 0.47102 0.07034 0.60169 0.0
H1784 H 0.89418 0.34429 0.77389 0.0
H1785 H 0.83664 0.30779 0.6885 0.0
H1786 H 0.93764 0.38456 0.74184 0.0
H1787 H 0.88037 0.34698 0.65612 0.0
H1788 H 0.94489 0.44104 0.60362 0.0
H1789 H 0.9019 0.40807 0.63972 0.0
H1790 H 0.98265 0.3867 0.70782 0.0
H1791 H 1.02561 0.42161 0.67197 0.0
C1792 C 0.89096 0.34511 0.74814 0.0
C1793 C 0.86181 0.32401 0.73341 0.0
C1794 C 0.91594 0.36785 0.72978 0.0
C1795 C 0.91241 0.36952 0.6963 0.0
C1796 C 0.88355 0.34728 0.68178 0.0
C1797 C 0.85859 0.32462 0.70019 0.0
C1798 C 0.95331 0.43005 0.62671 0.0
C1799 C 0.9884 0.43393 0.63521 0.0
C1800 C 0.92874 0.41068 0.64722 0.0
C1801 C 0.9387 0.39392 0.67644 0.0
C1802 C 0.97397 0.39939 0.68562 0.0
C1803 C 0.99863 0.41944 0.6652 0.0
H1804 H 0.29628 0.71017 0.70658 0.0
H1805 H 0.20746 0.75316 0.71882 0.0
H1806 H 0.26102 0.66062 0.67976 0.0
H1807 H 0.17175 0.70489 0.68959 0.0
H1808 H 0.10976 0.59523 0.66506 0.0
H1809 H 0.14712 0.64114 0.69632 0.0
H1810 H 0.2297 0.64335 0.6349 0.0
H1811 H 0.19345 0.59639 0.60584 0.0
C1812 C 0.26898 0.70857 0.70393 0.0
C1813 C 0.25422 0.73314 0.71787 0.0
C1814 C 0.24869 0.6806 0.68783 0.0
C1815 C 0.21305 0.67764 0.68366 0.0
C1816 C 0.1988 0.70512 0.69399 0.0
C1817 C 0.21933 0.73294 0.71068 0.0
C1818 C 0.13644 0.60436 0.65953 0.0
C1819 C 0.14895 0.59212 0.63336 0.0
C1820 C 0.15758 0.63134 0.67676 0.0
C1821 C 0.19132 0.64656 0.66781 0.0
C1822 C 0.20417 0.63223 0.64292 0.0
C1823 C 0.18339 0.60509 0.62624 0.0
loop_
_geom_bond_atom_site_label_1
_geom_bond_atom_site_label_2
_geom_bond_distance
_geom_bond_site_symmetry_2
_ccdc_geom_bond_type
Gd0 N31 2.661 . S
Gd0 N37 2.601 . S
Gd0 O44 2.545 . S
Gd0 O45 2.606 . S
Gd0 O47 2.429 . S
Gd0 O48 2.545 . S
Gd0 O49 2.412 . S
Gd0 O51 2.362 . S
Gd0 O52 2.324 . S
Gd0 C59 2.828 . S
Gd1 N10 2.661 . S
Gd1 N14 2.601 . S
Gd1 O45 2.362 . S
Gd1 O46 2.324 . S
Gd1 O50 2.545 . S
Gd1 O51 2.606 . S
Gd1 O53 2.429 . S
Gd1 O54 2.545 . S
Gd1 O55 2.412 . S
Gd1 C68 2.828 . S
C2 C5 1.417 . S
C2 C7 1.431 . S
C2 C8 1.412 . S
C3 C6 1.437 . S
C3 C7 1.317 . S
C3 H22 0.929 . S
C4 C5 1.426 . S
C4 C6 1.413 . S
C4 N14 1.359 . S
C5 C2 1.417 . S
C5 C4 1.426 . S
C5 N10 1.350 . S
C6 C3 1.437 . S
C6 C4 1.413 . S
C6 C16 1.391 . S
C7 C2 1.431 . S
C7 C3 1.317 . S
C7 H18 0.930 . S
C8 C2 1.412 . S
C8 C9 1.355 . S
C8 H20 0.930 . S
C9 C8 1.355 . S
C9 C11 1.402 . S
C9 H21 0.930 . S
N10 Gd1 2.661 . S
N10 C5 1.350 . S
N10 C11 1.307 . S
C11 C9 1.402 . S
C11 N10 1.307 . S
C11 H12 0.930 . S
H12 C11 0.930 . S
C13 N14 1.334 . S
C13 C15 1.394 . S
C13 H17 0.930 . S
N14 Gd1 2.601 . S
N14 C4 1.359 . S
N14 C13 1.334 . S
C15 C13 1.394 . S
C15 C16 1.359 . S
C15 H27 0.930 . S
C16 C6 1.391 . S
C16 C15 1.359 . S
C16 H28 0.929 . S
H17 C13 0.930 . S
H18 C7 0.930 . S
H19 C36 0.930 . S
H20 C8 0.930 . S
H21 C9 0.930 . S
H22 C3 0.929 . S
H23 C41 0.930 . S
H24 C32 0.930 . S
H25 C33 0.930 . S
H26 C57 0.929 . S
H27 C15 0.930 . S
H28 C16 0.929 . S
H29 C58 0.930 . S
H30 C39 0.930 . S
N31 Gd0 2.661 . S
N31 C35 1.350 . S
N31 C36 1.307 . S
C32 H24 0.930 . S
C32 C33 1.355 . S
C32 C34 1.412 . S
C33 H25 0.930 . S
C33 C32 1.355 . S
C33 C36 1.402 . S
C34 C32 1.412 . S
C34 C35 1.417 . S
C34 C58 1.431 . S
C35 N31 1.350 . S
C35 C34 1.417 . S
C35 C38 1.426 . S
C36 H19 0.930 . S
C36 N31 1.307 . S
C36 C33 1.402 . S
N37 Gd0 2.601 . S
N37 C38 1.359 . S
N37 C41 1.334 . S
C38 C35 1.426 . S
C38 N37 1.359 . S
C38 C42 1.413 . S
C39 H30 0.930 . S
C39 C40 1.359 . S
C39 C41 1.394 . S
C40 C39 1.359 . S
C40 C42 1.391 . S
C40 H43 0.929 . S
C41 H23 0.930 . S
C41 N37 1.334 . S
C41 C39 1.394 . S
C42 C38 1.413 . S
C42 C40 1.391 . S
C42 C57 1.437 . S
H43 C40 0.929 . S
O44 Gd0 2.545 . S
O44 C59 1.258 . S
O45 Gd0 2.606 . S
O45 Gd1 2.362 . S
O45 C56 1.284 . S
O46 Gd1 2.324 . S
O46 C66 1.254 . S
O47 Gd0 2.429 . S
O47 C66 1.268 . S
O48 Gd0 2.545 . S
O48 C56 1.250 . S
O49 Gd0 2.412 . S
O49 C59 1.252 . S
O50 Gd1 2.545 . S
O50 C68 1.258 . S
O51 Gd0 2.362 . S
O51 Gd1 2.606 . S
O51 C67 1.284 . S
O52 Gd0 2.324 . S
O52 C75 1.254 . S
O53 Gd1 2.429 . S
O53 C75 1.268 . S
O54 Gd1 2.545 . S
O54 C67 1.250 . S
O55 Gd1 2.412 . S
O55 C68 1.252 . S
C56 O45 1.284 . S
C56 O48 1.250 . S
C57 H26 0.929 . S
C57 C42 1.437 . S
C57 C58 1.317 . S
C58 H29 0.930 . S
C58 C34 1.431 . S
C58 C57 1.317 . S
C59 Gd0 2.828 . S
C59 O44 1.258 . S
C59 O49 1.252 . S
C59 C60 1.497 . S
C60 C59 1.497 . S
C60 C61 1.395 . S
C60 C62 1.380 . S
C61 C60 1.395 . S
C61 C64 1.398 . S
C61 H76 0.930 . S
C62 C60 1.380 . S
C62 C63 1.391 . S
C62 H77 0.930 . S
C63 C62 1.391 . S
C63 C65 1.387 . S
C64 C61 1.398 . S
C64 C65 1.380 . S
C64 H78 0.930 . S
C65 C63 1.387 . S
C65 C64 1.380 . S
C65 H79 0.930 . S
C66 O46 1.254 . S
C66 O47 1.268 . S
C67 O51 1.284 . S
C67 O54 1.250 . S
C68 Gd1 2.828 . S
C68 O50 1.258 . S
C68 O55 1.252 . S
C68 C69 1.497 . S
C69 C68 1.497 . S
C69 C70 1.395 . S
C69 C71 1.380 . S
C70 C69 1.395 . S
C70 C73 1.398 . S
C70 H80 0.930 . S
C71 C69 1.380 . S
C71 C72 1.391 . S
C71 H81 0.930 . S
C72 C71 1.391 . S
C72 C74 1.387 . S
C73 C70 1.398 . S
C73 C74 1.380 . S
C73 H82 0.930 . S
C74 C72 1.387 . S
C74 C73 1.380 . S
C74 H83 0.930 . S
C75 O52 1.254 . S
C75 O53 1.268 . S
H76 C61 0.930 . S
H77 C62 0.930 . S
H78 C64 0.930 . S
H79 C65 0.930 . S
H80 C70 0.930 . S
H81 C71 0.930 . S
H82 C73 0.930 . S
H83 C74 0.930 . S
Gd84 N115 2.661 . S
Gd84 N121 2.601 . S
Gd84 O128 2.545 . S
Gd84 O129 2.606 . S
Gd84 O131 2.429 . S
Gd84 O132 2.545 . S
Gd84 O133 2.412 . S
Gd84 O135 2.362 . S
Gd84 O136 2.324 . S
Gd84 C143 2.828 . S
Gd85 N94 2.661 . S
Gd85 N98 2.601 . S
Gd85 O129 2.362 . S
Gd85 O130 2.324 . S
Gd85 O134 2.545 . S
Gd85 O135 2.606 . S
Gd85 O137 2.429 . S
Gd85 O138 2.545 . S
Gd85 O139 2.412 . S
Gd85 C152 2.828 . S
C86 C89 1.417 . S
C86 C91 1.431 . S
C86 C92 1.412 . S
C87 C90 1.437 . S
C87 C91 1.317 . S
C87 H106 0.929 . S
C88 C89 1.426 . S
C88 C90 1.413 . S
C88 N98 1.359 . S
C89 C86 1.417 . S
C89 C88 1.426 . S
C89 N94 1.350 . S
C90 C87 1.437 . S
C90 C88 1.413 . S
C90 C100 1.391 . S
C91 C86 1.431 . S
C91 C87 1.317 . S
C91 H102 0.930 . S
C92 C86 1.412 . S
C92 C93 1.355 . S
C92 H104 0.930 . S
C93 C92 1.355 . S
C93 C95 1.402 . S
C93 H105 0.930 . S
N94 Gd85 2.661 . S
N94 C89 1.350 . S
N94 C95 1.307 . S
C95 C93 1.402 . S
C95 N94 1.307 . S
C95 H96 0.930 . S
H96 C95 0.930 . S
C97 N98 1.334 . S
C97 C99 1.394 . S
C97 H101 0.930 . S
N98 Gd85 2.601 . S
N98 C88 1.359 . S
N98 C97 1.334 . S
C99 C97 1.394 . S
C99 C100 1.359 . S
C99 H111 0.930 . S
C100 C90 1.391 . S
C100 C99 1.359 . S
C100 H112 0.929 . S
H101 C97 0.930 . S
H102 C91 0.930 . S
H103 C120 0.930 . S
H104 C92 0.930 . S
H105 C93 0.930 . S
H106 C87 0.929 . S
H107 C125 0.930 . S
H108 C116 0.930 . S
H109 C117 0.930 . S
H110 C141 0.929 . S
H111 C99 0.930 . S
H112 C100 0.929 . S
H113 C142 0.930 . S
H114 C123 0.930 . S
N115 Gd84 2.661 . S
N115 C119 1.350 . S
N115 C120 1.307 . S
C116 H108 0.930 . S
C116 C117 1.355 . S
C116 C118 1.412 . S
C117 H109 0.930 . S
C117 C116 1.355 . S
C117 C120 1.402 . S
C118 C116 1.412 . S
C118 C119 1.417 . S
C118 C142 1.431 . S
C119 N115 1.350 . S
C119 C118 1.417 . S
C119 C122 1.426 . S
C120 H103 0.930 . S
C120 N115 1.307 . S
C120 C117 1.402 . S
N121 Gd84 2.601 . S
N121 C122 1.359 . S
N121 C125 1.334 . S
C122 C119 1.426 . S
C122 N121 1.359 . S
C122 C126 1.413 . S
C123 H114 0.930 . S
C123 C124 1.359 . S
C123 C125 1.394 . S
C124 C123 1.359 . S
C124 C126 1.391 . S
C124 H127 0.929 . S
C125 H107 0.930 . S
C125 N121 1.334 . S
C125 C123 1.394 . S
C126 C122 1.413 . S
C126 C124 1.391 . S
C126 C141 1.437 . S
H127 C124 0.929 . S
O128 Gd84 2.545 . S
O128 C143 1.258 . S
O129 Gd84 2.606 . S
O129 Gd85 2.362 . S
O129 C140 1.284 . S
O130 Gd85 2.324 . S
O130 C150 1.254 . S
O131 Gd84 2.429 . S
O131 C150 1.268 . S
O132 Gd84 2.545 . S
O132 C140 1.250 . S
O133 Gd84 2.412 . S
O133 C143 1.252 . S
O134 Gd85 2.545 . S
O134 C152 1.258 . S
O135 Gd84 2.362 . S
O135 Gd85 2.606 . S
O135 C151 1.284 . S
O136 Gd84 2.324 . S
O136 C159 1.254 . S
O137 Gd85 2.429 . S
O137 C159 1.268 . S
O138 Gd85 2.545 . S
O138 C151 1.250 . S
O139 Gd85 2.412 . S
O139 C152 1.252 . S
C140 O129 1.284 . S
C140 O132 1.250 . S
C141 H110 0.929 . S
C141 C126 1.437 . S
C141 C142 1.317 . S
C142 H113 0.930 . S
C142 C118 1.431 . S
C142 C141 1.317 . S
C143 Gd84 2.828 . S
C143 O128 1.258 . S
C143 O133 1.252 . S
C143 C144 1.497 . S
C144 C143 1.497 . S
C144 C145 1.395 . S
C144 C146 1.380 . S
C145 C144 1.395 . S
C145 C148 1.398 . S
C145 H160 0.930 . S
C146 C144 1.380 . S
C146 C147 1.391 . S
C146 H161 0.930 . S
C147 C146 1.391 . S
C147 C149 1.387 . S
C148 C145 1.398 . S
C148 C149 1.380 . S
C148 H162 0.930 . S
C149 C147 1.387 . S
C149 C148 1.380 . S
C149 H163 0.930 . S
C150 O130 1.254 . S
C150 O131 1.268 . S
C151 O135 1.284 . S
C151 O138 1.250 . S
C152 Gd85 2.828 . S
C152 O134 1.258 . S
C152 O139 1.252 . S
C152 C153 1.497 . S
C153 C152 1.497 . S
C153 C154 1.395 . S
C153 C155 1.380 . S
C154 C153 1.395 . S
C154 C157 1.398 . S
C154 H164 0.930 . S
C155 C153 1.380 . S
C155 C156 1.391 . S
C155 H165 0.930 . S
C156 C155 1.391 . S
C156 C158 1.387 . S
C157 C154 1.398 . S
C157 C158 1.380 . S
C157 H166 0.930 . S
C158 C156 1.387 . S
C158 C157 1.380 . S
C158 H167 0.930 . S
C159 O136 1.254 . S
C159 O137 1.268 . S
H160 C145 0.930 . S
H161 C146 0.930 . S
H162 C148 0.930 . S
H163 C149 0.930 . S
H164 C154 0.930 . S
H165 C155 0.930 . S
H166 C157 0.930 . S
H167 C158 0.930 . S
Gd168 N199 2.661 . S
Gd168 N205 2.601 . S
Gd168 O212 2.545 . S
Gd168 O213 2.606 . S
Gd168 O215 2.429 . S
Gd168 O216 2.545 . S
Gd168 O217 2.412 . S
Gd168 O219 2.362 . S
Gd168 O220 2.324 . S
Gd168 C227 2.828 . S
Gd169 N178 2.661 . S
Gd169 N182 2.601 . S
Gd169 O213 2.362 . S
Gd169 O214 2.324 . S
Gd169 O218 2.545 . S
Gd169 O219 2.606 . S
Gd169 O221 2.429 . S
Gd169 O222 2.545 . S
Gd169 O223 2.412 . S
Gd169 C236 2.828 . S
C170 C173 1.417 . S
C170 C175 1.431 . S
C170 C176 1.412 . S
C171 C174 1.437 . S
C171 C175 1.317 . S
C171 H190 0.929 . S
C172 C173 1.426 . S
C172 C174 1.413 . S
C172 N182 1.359 . S
C173 C170 1.417 . S
C173 C172 1.426 . S
C173 N178 1.350 . S
C174 C171 1.437 . S
C174 C172 1.413 . S
C174 C184 1.391 . S
C175 C170 1.431 . S
C175 C171 1.317 . S
C175 H186 0.930 . S
C176 C170 1.412 . S
C176 C177 1.355 . S
C176 H188 0.930 . S
C177 C176 1.355 . S
C177 C179 1.402 . S
C177 H189 0.930 . S
N178 Gd169 2.661 . S
N178 C173 1.350 . S
N178 C179 1.307 . S
C179 C177 1.402 . S
C179 N178 1.307 . S
C179 H180 0.930 . S
H180 C179 0.930 . S
C181 N182 1.334 . S
C181 C183 1.394 . S
C181 H185 0.930 . S
N182 Gd169 2.601 . S
N182 C172 1.359 . S
N182 C181 1.334 . S
C183 C181 1.394 . S
C183 C184 1.359 . S
C183 H195 0.930 . S
C184 C174 1.391 . S
C184 C183 1.359 . S
C184 H196 0.929 . S
H185 C181 0.930 . S
H186 C175 0.930 . S
H187 C204 0.930 . S
H188 C176 0.930 . S
H189 C177 0.930 . S
H190 C171 0.929 . S
H191 C209 0.930 . S
H192 C200 0.930 . S
H193 C201 0.930 . S
H194 C225 0.929 . S
H195 C183 0.930 . S
H196 C184 0.929 . S
H197 C226 0.930 . S
H198 C207 0.930 . S
N199 Gd168 2.661 . S
N199 C203 1.350 . S
N199 C204 1.307 . S
C200 H192 0.930 . S
C200 C201 1.355 . S
C200 C202 1.412 . S
C201 H193 0.930 . S
C201 C200 1.355 . S
C201 C204 1.402 . S
C202 C200 1.412 . S
C202 C203 1.417 . S
C202 C226 1.431 . S
C203 N199 1.350 . S
C203 C202 1.417 . S
C203 C206 1.426 . S
C204 H187 0.930 . S
C204 N199 1.307 . S
C204 C201 1.402 . S
N205 Gd168 2.601 . S
N205 C206 1.359 . S
N205 C209 1.334 . S
C206 C203 1.426 . S
C206 N205 1.359 . S
C206 C210 1.413 . S
C207 H198 0.930 . S
C207 C208 1.359 . S
C207 C209 1.394 . S
C208 C207 1.359 . S
C208 C210 1.391 . S
C208 H211 0.929 . S
C209 H191 0.930 . S
C209 N205 1.334 . S
C209 C207 1.394 . S
C210 C206 1.413 . S
C210 C208 1.391 . S
C210 C225 1.437 . S
H211 C208 0.929 . S
O212 Gd168 2.545 . S
O212 C227 1.258 . S
O213 Gd168 2.606 . S
O213 Gd169 2.362 . S
O213 C224 1.284 . S
O214 Gd169 2.324 . S
O214 C234 1.254 . S
O215 Gd168 2.429 . S
O215 C234 1.268 . S
O216 Gd168 2.545 . S
O216 C224 1.250 . S
O217 Gd168 2.412 . S
O217 C227 1.252 . S
O218 Gd169 2.545 . S
O218 C236 1.258 . S
O219 Gd168 2.362 . S
O219 Gd169 2.606 . S
O219 C235 1.284 . S
O220 Gd168 2.324 . S
O220 C243 1.254 . S
O221 Gd169 2.429 . S
O221 C243 1.268 . S
O222 Gd169 2.545 . S
O222 C235 1.250 . S
O223 Gd169 2.412 . S
O223 C236 1.252 . S
C224 O213 1.284 . S
C224 O216 1.250 . S
C225 H194 0.929 . S
C225 C210 1.437 . S
C225 C226 1.317 . S
C226 H197 0.930 . S
C226 C202 1.431 . S
C226 C225 1.317 . S
C227 Gd168 2.828 . S
C227 O212 1.258 . S
C227 O217 1.252 . S
C227 C228 1.497 . S
C228 C227 1.497 . S
C228 C229 1.395 . S
C228 C230 1.380 . S
C229 C228 1.395 . S
C229 C232 1.398 . S
C229 H244 0.930 . S
C230 C228 1.380 . S
C230 C231 1.391 . S
C230 H245 0.930 . S
C231 C230 1.391 . S
C231 C233 1.387 . S
C232 C229 1.398 . S
C232 C233 1.380 . S
C232 H246 0.930 . S
C233 C231 1.387 . S
C233 C232 1.380 . S
C233 H247 0.930 . S
C234 O214 1.254 . S
C234 O215 1.268 . S
C235 O219 1.284 . S
C235 O222 1.250 . S
C236 Gd169 2.828 . S
C236 O218 1.258 . S
C236 O223 1.252 . S
C236 C237 1.497 . S
C237 C236 1.497 . S
C237 C238 1.395 . S
C237 C239 1.380 . S
C238 C237 1.395 . S
C238 C241 1.398 . S
C238 H248 0.930 . S
C239 C237 1.380 . S
C239 C240 1.391 . S
C239 H249 0.930 . S
C240 C239 1.391 . S
C240 C242 1.387 . S
C241 C238 1.398 . S
C241 C242 1.380 . S
C241 H250 0.930 . S
C242 C240 1.387 . S
C242 C241 1.380 . S
C242 H251 0.930 . S
C243 O220 1.254 . S
C243 O221 1.268 . S
H244 C229 0.930 . S
H245 C230 0.930 . S
H246 C232 0.930 . S
H247 C233 0.930 . S
H248 C238 0.930 . S
H249 C239 0.930 . S
H250 C241 0.930 . S
H251 C242 0.930 . S
Gd252 N283 2.661 . S
Gd252 N289 2.601 . S
Gd252 O296 2.545 . S
Gd252 O297 2.606 . S
Gd252 O299 2.429 . S
Gd252 O300 2.545 . S
Gd252 O301 2.412 . S
Gd252 O303 2.362 . S
Gd252 O304 2.324 . S
Gd252 C311 2.828 . S
Gd253 N262 2.661 . S
Gd253 N266 2.601 . S
Gd253 O297 2.362 . S
Gd253 O298 2.324 . S
Gd253 O302 2.545 . S
Gd253 O303 2.606 . S
Gd253 O305 2.429 . S
Gd253 O306 2.545 . S
Gd253 O307 2.412 . S
Gd253 C320 2.828 . S
C254 C257 1.417 . S
C254 C259 1.431 . S
C254 C260 1.412 . S
C255 C258 1.437 . S
C255 C259 1.317 . S
C255 H274 0.929 . S
C256 C257 1.426 . S
C256 C258 1.413 . S
C256 N266 1.359 . S
C257 C254 1.417 . S
C257 C256 1.426 . S
C257 N262 1.350 . S
C258 C255 1.437 . S
C258 C256 1.413 . S
C258 C268 1.391 . S
C259 C254 1.431 . S
C259 C255 1.317 . S
C259 H270 0.930 . S
C260 C254 1.412 . S
C260 C261 1.355 . S
C260 H272 0.930 . S
C261 C260 1.355 . S
C261 C263 1.402 . S
C261 H273 0.930 . S
N262 Gd253 2.661 . S
N262 C257 1.350 . S
N262 C263 1.307 . S
C263 C261 1.402 . S
C263 N262 1.307 . S
C263 H264 0.930 . S
H264 C263 0.930 . S
C265 N266 1.334 . S
C265 C267 1.394 . S
C265 H269 0.930 . S
N266 Gd253 2.601 . S
N266 C256 1.359 . S
N266 C265 1.334 . S
C267 C265 1.394 . S
C267 C268 1.359 . S
C267 H279 0.930 . S
C268 C258 1.391 . S
C268 C267 1.359 . S
C268 H280 0.929 . S
H269 C265 0.930 . S
H270 C259 0.930 . S
H271 C288 0.930 . S
H272 C260 0.930 . S
H273 C261 0.930 . S
H274 C255 0.929 . S
H275 C293 0.930 . S
H276 C284 0.930 . S
H277 C285 0.930 . S
H278 C309 0.929 . S
H279 C267 0.930 . S
H280 C268 0.929 . S
H281 C310 0.930 . S
H282 C291 0.930 . S
N283 Gd252 2.661 . S
N283 C287 1.350 . S
N283 C288 1.307 . S
C284 H276 0.930 . S
C284 C285 1.355 . S
C284 C286 1.412 . S
C285 H277 0.930 . S
C285 C284 1.355 . S
C285 C288 1.402 . S
C286 C284 1.412 . S
C286 C287 1.417 . S
C286 C310 1.431 . S
C287 N283 1.350 . S
C287 C286 1.417 . S
C287 C290 1.426 . S
C288 H271 0.930 . S
C288 N283 1.307 . S
C288 C285 1.402 . S
N289 Gd252 2.601 . S
N289 C290 1.359 . S
N289 C293 1.334 . S
C290 C287 1.426 . S
C290 N289 1.359 . S
C290 C294 1.413 . S
C291 H282 0.930 . S
C291 C292 1.359 . S
C291 C293 1.394 . S
C292 C291 1.359 . S
C292 C294 1.391 . S
C292 H295 0.929 . S
C293 H275 0.930 . S
C293 N289 1.334 . S
C293 C291 1.394 . S
C294 C290 1.413 . S
C294 C292 1.391 . S
C294 C309 1.437 . S
H295 C292 0.929 . S
O296 Gd252 2.545 . S
O296 C311 1.258 . S
O297 Gd252 2.606 . S
O297 Gd253 2.362 . S
O297 C308 1.284 . S
O298 Gd253 2.324 . S
O298 C318 1.254 . S
O299 Gd252 2.429 . S
O299 C318 1.268 . S
O300 Gd252 2.545 . S
O300 C308 1.250 . S
O301 Gd252 2.412 . S
O301 C311 1.252 . S
O302 Gd253 2.545 . S
O302 C320 1.258 . S
O303 Gd252 2.362 . S
O303 Gd253 2.606 . S
O303 C319 1.284 . S
O304 Gd252 2.324 . S
O304 C327 1.254 . S
O305 Gd253 2.429 . S
O305 C327 1.268 . S
O306 Gd253 2.545 . S
O306 C319 1.250 . S
O307 Gd253 2.412 . S
O307 C320 1.252 . S
C308 O297 1.284 . S
C308 O300 1.250 . S
C309 H278 0.929 . S
C309 C294 1.437 . S
C309 C310 1.317 . S
C310 H281 0.930 . S
C310 C286 1.431 . S
C310 C309 1.317 . S
C311 Gd252 2.828 . S
C311 O296 1.258 . S
C311 O301 1.252 . S
C311 C312 1.497 . S
C312 C311 1.497 . S
C312 C313 1.395 . S
C312 C314 1.380 . S
C313 C312 1.395 . S
C313 C316 1.398 . S
C313 H328 0.930 . S
C314 C312 1.380 . S
C314 C315 1.391 . S
C314 H329 0.930 . S
C315 C314 1.391 . S
C315 C317 1.387 . S
C316 C313 1.398 . S
C316 C317 1.380 . S
C316 H330 0.930 . S
C317 C315 1.387 . S
C317 C316 1.380 . S
C317 H331 0.930 . S
C318 O298 1.254 . S
C318 O299 1.268 . S
C319 O303 1.284 . S
C319 O306 1.250 . S
C320 Gd253 2.828 . S
C320 O302 1.258 . S
C320 O307 1.252 . S
C320 C321 1.497 . S
C321 C320 1.497 . S
C321 C322 1.395 . S
C321 C323 1.380 . S
C322 C321 1.395 . S
C322 C325 1.398 . S
C322 H332 0.930 . S
C323 C321 1.380 . S
C323 C324 1.391 . S
C323 H333 0.930 . S
C324 C323 1.391 . S
C324 C326 1.387 . S
C325 C322 1.398 . S
C325 C326 1.380 . S
C325 H334 0.930 . S
C326 C324 1.387 . S
C326 C325 1.380 . S
C326 H335 0.930 . S
C327 O304 1.254 . S
C327 O305 1.268 . S
H328 C313 0.930 . S
H329 C314 0.930 . S
H330 C316 0.930 . S
H331 C317 0.930 . S
H332 C322 0.930 . S
H333 C323 0.930 . S
H334 C325 0.930 . S
H335 C326 0.930 . S
Gd336 N367 2.661 . S
Gd336 N373 2.601 . S
Gd336 O380 2.545 . S
Gd336 O381 2.606 . S
Gd336 O383 2.429 . S
Gd336 O384 2.545 . S
Gd336 O385 2.412 . S
Gd336 O387 2.362 . S
Gd336 O388 2.324 . S
Gd336 C395 2.828 . S
Gd337 N346 2.661 . S
Gd337 N350 2.601 . S
Gd337 O381 2.362 . S
Gd337 O382 2.324 . S
Gd337 O386 2.545 . S
Gd337 O387 2.606 . S
Gd337 O389 2.429 . S
Gd337 O390 2.545 . S
Gd337 O391 2.412 . S
Gd337 C404 2.828 . S
C338 C341 1.417 . S
C338 C343 1.431 . S
C338 C344 1.412 . S
C339 C342 1.437 . S
C339 C343 1.317 . S
C339 H358 0.929 . S
C340 C341 1.426 . S
C340 C342 1.413 . S
C340 N350 1.359 . S
C341 C338 1.417 . S
C341 C340 1.426 . S
C341 N346 1.350 . S
C342 C339 1.437 . S
C342 C340 1.413 . S
C342 C352 1.391 . S
C343 C338 1.431 . S
C343 C339 1.317 . S
C343 H354 0.930 . S
C344 C338 1.412 . S
C344 C345 1.355 . S
C344 H356 0.930 . S
C345 C344 1.355 . S
C345 C347 1.402 . S
C345 H357 0.930 . S
N346 Gd337 2.661 . S
N346 C341 1.350 . S
N346 C347 1.307 . S
C347 C345 1.402 . S
C347 N346 1.307 . S
C347 H348 0.930 . S
H348 C347 0.930 . S
C349 N350 1.334 . S
C349 C351 1.394 . S
C349 H353 0.930 . S
N350 Gd337 2.601 . S
N350 C340 1.359 . S
N350 C349 1.334 . S
C351 C349 1.394 . S
C351 C352 1.359 . S
C351 H363 0.930 . S
C352 C342 1.391 . S
C352 C351 1.359 . S
C352 H364 0.929 . S
H353 C349 0.930 . S
H354 C343 0.930 . S
H355 C372 0.930 . S
H356 C344 0.930 . S
H357 C345 0.930 . S
H358 C339 0.929 . S
H359 C377 0.930 . S
H360 C368 0.930 . S
H361 C369 0.930 . S
H362 C393 0.929 . S
H363 C351 0.930 . S
H364 C352 0.929 . S
H365 C394 0.930 . S
H366 C375 0.930 . S
N367 Gd336 2.661 . S
N367 C371 1.350 . S
N367 C372 1.307 . S
C368 H360 0.930 . S
C368 C369 1.355 . S
C368 C370 1.412 . S
C369 H361 0.930 . S
C369 C368 1.355 . S
C369 C372 1.402 . S
C370 C368 1.412 . S
C370 C371 1.417 . S
C370 C394 1.431 . S
C371 N367 1.350 . S
C371 C370 1.417 . S
C371 C374 1.426 . S
C372 H355 0.930 . S
C372 N367 1.307 . S
C372 C369 1.402 . S
N373 Gd336 2.601 . S
N373 C374 1.359 . S
N373 C377 1.334 . S
C374 C371 1.426 . S
C374 N373 1.359 . S
C374 C378 1.413 . S
C375 H366 0.930 . S
C375 C376 1.359 . S
C375 C377 1.394 . S
C376 C375 1.359 . S
C376 C378 1.391 . S
C376 H379 0.929 . S
C377 H359 0.930 . S
C377 N373 1.334 . S
C377 C375 1.394 . S
C378 C374 1.413 . S
C378 C376 1.391 . S
C378 C393 1.437 . S
H379 C376 0.929 . S
O380 Gd336 2.545 . S
O380 C395 1.258 . S
O381 Gd336 2.606 . S
O381 Gd337 2.362 . S
O381 C392 1.284 . S
O382 Gd337 2.324 . S
O382 C402 1.254 . S
O383 Gd336 2.429 . S
O383 C402 1.268 . S
O384 Gd336 2.545 . S
O384 C392 1.250 . S
O385 Gd336 2.412 . S
O385 C395 1.252 . S
O386 Gd337 2.545 . S
O386 C404 1.258 . S
O387 Gd336 2.362 . S
O387 Gd337 2.606 . S
O387 C403 1.284 . S
O388 Gd336 2.324 . S
O388 C411 1.254 . S
O389 Gd337 2.429 . S
O389 C411 1.268 . S
O390 Gd337 2.545 . S
O390 C403 1.250 . S
O391 Gd337 2.412 . S
O391 C404 1.252 . S
C392 O381 1.284 . S
C392 O384 1.250 . S
C393 H362 0.929 . S
C393 C378 1.437 . S
C393 C394 1.317 . S
C394 H365 0.930 . S
C394 C370 1.431 . S
C394 C393 1.317 . S
C395 Gd336 2.828 . S
C395 O380 1.258 . S
C395 O385 1.252 . S
C395 C396 1.497 . S
C396 C395 1.497 . S
C396 C397 1.395 . S
C396 C398 1.380 . S
C397 C396 1.395 . S
C397 C400 1.398 . S
C397 H412 0.930 . S
C398 C396 1.380 . S
C398 C399 1.391 . S
C398 H413 0.930 . S
C399 C398 1.391 . S
C399 C401 1.387 . S
C400 C397 1.398 . S
C400 C401 1.380 . S
C400 H414 0.930 . S
C401 C399 1.387 . S
C401 C400 1.380 . S
C401 H415 0.930 . S
C402 O382 1.254 . S
C402 O383 1.268 . S
C403 O387 1.284 . S
C403 O390 1.250 . S
C404 Gd337 2.828 . S
C404 O386 1.258 . S
C404 O391 1.252 . S
C404 C405 1.497 . S
C405 C404 1.497 . S
C405 C406 1.395 . S
C405 C407 1.380 . S
C406 C405 1.395 . S
C406 C409 1.398 . S
C406 H416 0.930 . S
C407 C405 1.380 . S
C407 C408 1.391 . S
C407 H417 0.930 . S
C408 C407 1.391 . S
C408 C410 1.387 . S
C409 C406 1.398 . S
C409 C410 1.380 . S
C409 H418 0.930 . S
C410 C408 1.387 . S
C410 C409 1.380 . S
C410 H419 0.930 . S
C411 O388 1.254 . S
C411 O389 1.268 . S
H412 C397 0.930 . S
H413 C398 0.930 . S
H414 C400 0.930 . S
H415 C401 0.930 . S
H416 C406 0.930 . S
H417 C407 0.930 . S
H418 C409 0.930 . S
H419 C410 0.930 . S
Gd420 N451 2.661 . S
Gd420 N457 2.601 . S
Gd420 O464 2.545 . S
Gd420 O465 2.606 . S
Gd420 O467 2.429 . S
Gd420 O468 2.545 . S
Gd420 O469 2.412 . S
Gd420 O471 2.362 . S
Gd420 O472 2.324 . S
Gd420 C479 2.828 . S
Gd421 N430 2.661 . S
Gd421 N434 2.601 . S
Gd421 O465 2.362 . S
Gd421 O466 2.324 . S
Gd421 O470 2.545 . S
Gd421 O471 2.606 . S
Gd421 O473 2.429 . S
Gd421 O474 2.545 . S
Gd421 O475 2.412 . S
Gd421 C488 2.828 . S
C422 C425 1.417 . S
C422 C427 1.431 . S
C422 C428 1.412 . S
C423 C426 1.437 . S
C423 C427 1.317 . S
C423 H442 0.929 . S
C424 C425 1.426 . S
C424 C426 1.413 . S
C424 N434 1.359 . S
C425 C422 1.417 . S
C425 C424 1.426 . S
C425 N430 1.350 . S
C426 C423 1.437 . S
C426 C424 1.413 . S
C426 C436 1.391 . S
C427 C422 1.431 . S
C427 C423 1.317 . S
C427 H438 0.930 . S
C428 C422 1.412 . S
C428 C429 1.355 . S
C428 H440 0.930 . S
C429 C428 1.355 . S
C429 C431 1.402 . S
C429 H441 0.930 . S
N430 Gd421 2.661 . S
N430 C425 1.350 . S
N430 C431 1.307 . S
C431 C429 1.402 . S
C431 N430 1.307 . S
C431 H432 0.930 . S
H432 C431 0.930 . S
C433 N434 1.334 . S
C433 C435 1.394 . S
C433 H437 0.930 . S
N434 Gd421 2.601 . S
N434 C424 1.359 . S
N434 C433 1.334 . S
C435 C433 1.394 . S
C435 C436 1.359 . S
C435 H447 0.930 . S
C436 C426 1.391 . S
C436 C435 1.359 . S
C436 H448 0.929 . S
H437 C433 0.930 . S
H438 C427 0.930 . S
H439 C456 0.930 . S
H440 C428 0.930 . S
H441 C429 0.930 . S
H442 C423 0.929 . S
H443 C461 0.930 . S
H444 C452 0.930 . S
H445 C453 0.930 . S
H446 C477 0.929 . S
H447 C435 0.930 . S
H448 C436 0.929 . S
H449 C478 0.930 . S
H450 C459 0.930 . S
N451 Gd420 2.661 . S
N451 C455 1.350 . S
N451 C456 1.307 . S
C452 H444 0.930 . S
C452 C453 1.355 . S
C452 C454 1.412 . S
C453 H445 0.930 . S
C453 C452 1.355 . S
C453 C456 1.402 . S
C454 C452 1.412 . S
C454 C455 1.417 . S
C454 C478 1.431 . S
C455 N451 1.350 . S
C455 C454 1.417 . S
C455 C458 1.426 . S
C456 H439 0.930 . S
C456 N451 1.307 . S
C456 C453 1.402 . S
N457 Gd420 2.601 . S
N457 C458 1.359 . S
N457 C461 1.334 . S
C458 C455 1.426 . S
C458 N457 1.359 . S
C458 C462 1.413 . S
C459 H450 0.930 . S
C459 C460 1.359 . S
C459 C461 1.394 . S
C460 C459 1.359 . S
C460 C462 1.391 . S
C460 H463 0.929 . S
C461 H443 0.930 . S
C461 N457 1.334 . S
C461 C459 1.394 . S
C462 C458 1.413 . S
C462 C460 1.391 . S
C462 C477 1.437 . S
H463 C460 0.929 . S
O464 Gd420 2.545 . S
O464 C479 1.258 . S
O465 Gd420 2.606 . S
O465 Gd421 2.362 . S
O465 C476 1.284 . S
O466 Gd421 2.324 . S
O466 C486 1.254 . S
O467 Gd420 2.429 . S
O467 C486 1.268 . S
O468 Gd420 2.545 . S
O468 C476 1.250 . S
O469 Gd420 2.412 . S
O469 C479 1.252 . S
O470 Gd421 2.545 . S
O470 C488 1.258 . S
O471 Gd420 2.362 . S
O471 Gd421 2.606 . S
O471 C487 1.284 . S
O472 Gd420 2.324 . S
O472 C495 1.254 . S
O473 Gd421 2.429 . S
O473 C495 1.268 . S
O474 Gd421 2.545 . S
O474 C487 1.250 . S
O475 Gd421 2.412 . S
O475 C488 1.252 . S
C476 O465 1.284 . S
C476 O468 1.250 . S
C477 H446 0.929 . S
C477 C462 1.437 . S
C477 C478 1.317 . S
C478 H449 0.930 . S
C478 C454 1.431 . S
C478 C477 1.317 . S
C479 Gd420 2.828 . S
C479 O464 1.258 . S
C479 O469 1.252 . S
C479 C480 1.497 . S
C480 C479 1.497 . S
C480 C481 1.395 . S
C480 C482 1.380 . S
C481 C480 1.395 . S
C481 C484 1.398 . S
C481 H496 0.930 . S
C482 C480 1.380 . S
C482 C483 1.391 . S
C482 H497 0.930 . S
C483 C482 1.391 . S
C483 C485 1.387 . S
C484 C481 1.398 . S
C484 C485 1.380 . S
C484 H498 0.930 . S
C485 C483 1.387 . S
C485 C484 1.380 . S
C485 H499 0.930 . S
C486 O466 1.254 . S
C486 O467 1.268 . S
C487 O471 1.284 . S
C487 O474 1.250 . S
C488 Gd421 2.828 . S
C488 O470 1.258 . S
C488 O475 1.252 . S
C488 C489 1.497 . S
C489 C488 1.497 . S
C489 C490 1.395 . S
C489 C491 1.380 . S
C490 C489 1.395 . S
C490 C493 1.398 . S
C490 H500 0.930 . S
C491 C489 1.380 . S
C491 C492 1.391 . S
C491 H501 0.930 . S
C492 C491 1.391 . S
C492 C494 1.387 . S
C493 C490 1.398 . S
C493 C494 1.380 . S
C493 H502 0.930 . S
C494 C492 1.387 . S
C494 C493 1.380 . S
C494 H503 0.930 . S
C495 O472 1.254 . S
C495 O473 1.268 . S
H496 C481 0.930 . S
H497 C482 0.930 . S
H498 C484 0.930 . S
H499 C485 0.930 . S
H500 C490 0.930 . S
H501 C491 0.930 . S
H502 C493 0.930 . S
H503 C494 0.930 . S
Gd504 N535 2.661 . S
Gd504 N541 2.601 . S
Gd504 O548 2.545 . S
Gd504 O549 2.606 . S
Gd504 O551 2.429 . S
Gd504 O552 2.545 . S
Gd504 O553 2.412 . S
Gd504 O555 2.362 . S
Gd504 O556 2.324 . S
Gd504 C563 2.828 . S
Gd505 N514 2.661 . S
Gd505 N518 2.601 . S
Gd505 O549 2.362 . S
Gd505 O550 2.324 . S
Gd505 O554 2.545 . S
Gd505 O555 2.606 . S
Gd505 O557 2.429 . S
Gd505 O558 2.545 . S
Gd505 O559 2.412 . S
Gd505 C572 2.828 . S
C506 C509 1.417 . S
C506 C511 1.431 . S
C506 C512 1.412 . S
C507 C510 1.437 . S
C507 C511 1.317 . S
C507 H526 0.929 . S
C508 C509 1.426 . S
C508 C510 1.413 . S
C508 N518 1.359 . S
C509 C506 1.417 . S
C509 C508 1.426 . S
C509 N514 1.350 . S
C510 C507 1.437 . S
C510 C508 1.413 . S
C510 C520 1.391 . S
C511 C506 1.431 . S
C511 C507 1.317 . S
C511 H522 0.930 . S
C512 C506 1.412 . S
C512 C513 1.355 . S
C512 H524 0.930 . S
C513 C512 1.355 . S
C513 C515 1.402 . S
C513 H525 0.930 . S
N514 Gd505 2.661 . S
N514 C509 1.350 . S
N514 C515 1.307 . S
C515 C513 1.402 . S
C515 N514 1.307 . S
C515 H516 0.930 . S
H516 C515 0.930 . S
C517 N518 1.334 . S
C517 C519 1.394 . S
C517 H521 0.930 . S
N518 Gd505 2.601 . S
N518 C508 1.359 . S
N518 C517 1.334 . S
C519 C517 1.394 . S
C519 C520 1.359 . S
C519 H531 0.930 . S
C520 C510 1.391 . S
C520 C519 1.359 . S
C520 H532 0.929 . S
H521 C517 0.930 . S
H522 C511 0.930 . S
H523 C540 0.930 . S
H524 C512 0.930 . S
H525 C513 0.930 . S
H526 C507 0.929 . S
H527 C545 0.930 . S
H528 C536 0.930 . S
H529 C537 0.930 . S
H530 C561 0.929 . S
H531 C519 0.930 . S
H532 C520 0.929 . S
H533 C562 0.930 . S
H534 C543 0.930 . S
N535 Gd504 2.661 . S
N535 C539 1.350 . S
N535 C540 1.307 . S
C536 H528 0.930 . S
C536 C537 1.355 . S
C536 C538 1.412 . S
C537 H529 0.930 . S
C537 C536 1.355 . S
C537 C540 1.402 . S
C538 C536 1.412 . S
C538 C539 1.417 . S
C538 C562 1.431 . S
C539 N535 1.350 . S
C539 C538 1.417 . S
C539 C542 1.426 . S
C540 H523 0.930 . S
C540 N535 1.307 . S
C540 C537 1.402 . S
N541 Gd504 2.601 . S
N541 C542 1.359 . S
N541 C545 1.334 . S
C542 C539 1.426 . S
C542 N541 1.359 . S
C542 C546 1.413 . S
C543 H534 0.930 . S
C543 C544 1.359 . S
C543 C545 1.394 . S
C544 C543 1.359 . S
C544 C546 1.391 . S
C544 H547 0.929 . S
C545 H527 0.930 . S
C545 N541 1.334 . S
C545 C543 1.394 . S
C546 C542 1.413 . S
C546 C544 1.391 . S
C546 C561 1.437 . S
H547 C544 0.929 . S
O548 Gd504 2.545 . S
O548 C563 1.258 . S
O549 Gd504 2.606 . S
O549 Gd505 2.362 . S
O549 C560 1.284 . S
O550 Gd505 2.324 . S
O550 C570 1.254 . S
O551 Gd504 2.429 . S
O551 C570 1.268 . S
O552 Gd504 2.545 . S
O552 C560 1.250 . S
O553 Gd504 2.412 . S
O553 C563 1.252 . S
O554 Gd505 2.545 . S
O554 C572 1.258 . S
O555 Gd504 2.362 . S
O555 Gd505 2.606 . S
O555 C571 1.284 . S
O556 Gd504 2.324 . S
O556 C579 1.254 . S
O557 Gd505 2.429 . S
O557 C579 1.268 . S
O558 Gd505 2.545 . S
O558 C571 1.250 . S
O559 Gd505 2.412 . S
O559 C572 1.252 . S
C560 O549 1.284 . S
C560 O552 1.250 . S
C561 H530 0.929 . S
C561 C546 1.437 . S
C561 C562 1.317 . S
C562 H533 0.930 . S
C562 C538 1.431 . S
C562 C561 1.317 . S
C563 Gd504 2.828 . S
C563 O548 1.258 . S
C563 O553 1.252 . S
C563 C564 1.497 . S
C564 C563 1.497 . S
C564 C565 1.395 . S
C564 C566 1.380 . S
C565 C564 1.395 . S
C565 C568 1.398 . S
C565 H580 0.930 . S
C566 C564 1.380 . S
C566 C567 1.391 . S
C566 H581 0.930 . S
C567 C566 1.391 . S
C567 C569 1.387 . S
C568 C565 1.398 . S
C568 C569 1.380 . S
C568 H582 0.930 . S
C569 C567 1.387 . S
C569 C568 1.380 . S
C569 H583 0.930 . S
C570 O550 1.254 . S
C570 O551 1.268 . S
C571 O555 1.284 . S
C571 O558 1.250 . S
C572 Gd505 2.828 . S
C572 O554 1.258 . S
C572 O559 1.252 . S
C572 C573 1.497 . S
C573 C572 1.497 . S
C573 C574 1.395 . S
C573 C575 1.380 . S
C574 C573 1.395 . S
C574 C577 1.398 . S
C574 H584 0.930 . S
C575 C573 1.380 . S
C575 C576 1.391 . S
C575 H585 0.930 . S
C576 C575 1.391 . S
C576 C578 1.387 . S
C577 C574 1.398 . S
C577 C578 1.380 . S
C577 H586 0.930 . S
C578 C576 1.387 . S
C578 C577 1.380 . S
C578 H587 0.930 . S
C579 O556 1.254 . S
C579 O557 1.268 . S
H580 C565 0.930 . S
H581 C566 0.930 . S
H582 C568 0.930 . S
H583 C569 0.930 . S
H584 C574 0.930 . S
H585 C575 0.930 . S
H586 C577 0.930 . S
H587 C578 0.930 . S
Gd588 N619 2.661 . S
Gd588 N625 2.601 . S
Gd588 O632 2.545 . S
Gd588 O633 2.606 . S
Gd588 O635 2.429 . S
Gd588 O636 2.545 . S
Gd588 O637 2.412 . S
Gd588 O639 2.362 . S
Gd588 O640 2.324 . S
Gd588 C647 2.828 . S
Gd589 N598 2.661 . S
Gd589 N602 2.601 . S
Gd589 O633 2.362 . S
Gd589 O634 2.324 . S
Gd589 O638 2.545 . S
Gd589 O639 2.606 . S
Gd589 O641 2.429 . S
Gd589 O642 2.545 . S
Gd589 O643 2.412 . S
Gd589 C656 2.828 . S
C590 C593 1.417 . S
C590 C595 1.431 . S
C590 C596 1.412 . S
C591 C594 1.437 . S
C591 C595 1.317 . S
C591 H610 0.929 . S
C592 C593 1.426 . S
C592 C594 1.413 . S
C592 N602 1.359 . S
C593 C590 1.417 . S
C593 C592 1.426 . S
C593 N598 1.350 . S
C594 C591 1.437 . S
C594 C592 1.413 . S
C594 C604 1.391 . S
C595 C590 1.431 . S
C595 C591 1.317 . S
C595 H606 0.930 . S
C596 C590 1.412 . S
C596 C597 1.355 . S
C596 H608 0.930 . S
C597 C596 1.355 . S
C597 C599 1.402 . S
C597 H609 0.930 . S
N598 Gd589 2.661 . S
N598 C593 1.350 . S
N598 C599 1.307 . S
C599 C597 1.402 . S
C599 N598 1.307 . S
C599 H600 0.930 . S
H600 C599 0.930 . S
C601 N602 1.334 . S
C601 C603 1.394 . S
C601 H605 0.930 . S
N602 Gd589 2.601 . S
N602 C592 1.359 . S
N602 C601 1.334 . S
C603 C601 1.394 . S
C603 C604 1.359 . S
C603 H615 0.930 . S
C604 C594 1.391 . S
C604 C603 1.359 . S
C604 H616 0.929 . S
H605 C601 0.930 . S
H606 C595 0.930 . S
H607 C624 0.930 . S
H608 C596 0.930 . S
H609 C597 0.930 . S
H610 C591 0.929 . S
H611 C629 0.930 . S
H612 C620 0.930 . S
H613 C621 0.930 . S
H614 C645 0.929 . S
H615 C603 0.930 . S
H616 C604 0.929 . S
H617 C646 0.930 . S
H618 C627 0.930 . S
N619 Gd588 2.661 . S
N619 C623 1.350 . S
N619 C624 1.307 . S
C620 H612 0.930 . S
C620 C621 1.355 . S
C620 C622 1.412 . S
C621 H613 0.930 . S
C621 C620 1.355 . S
C621 C624 1.402 . S
C622 C620 1.412 . S
C622 C623 1.417 . S
C622 C646 1.431 . S
C623 N619 1.350 . S
C623 C622 1.417 . S
C623 C626 1.426 . S
C624 H607 0.930 . S
C624 N619 1.307 . S
C624 C621 1.402 . S
N625 Gd588 2.601 . S
N625 C626 1.359 . S
N625 C629 1.334 . S
C626 C623 1.426 . S
C626 N625 1.359 . S
C626 C630 1.413 . S
C627 H618 0.930 . S
C627 C628 1.359 . S
C627 C629 1.394 . S
C628 C627 1.359 . S
C628 C630 1.391 . S
C628 H631 0.929 . S
C629 H611 0.930 . S
C629 N625 1.334 . S
C629 C627 1.394 . S
C630 C626 1.413 . S
C630 C628 1.391 . S
C630 C645 1.437 . S
H631 C628 0.929 . S
O632 Gd588 2.545 . S
O632 C647 1.258 . S
O633 Gd588 2.606 . S
O633 Gd589 2.362 . S
O633 C644 1.284 . S
O634 Gd589 2.324 . S
O634 C654 1.254 . S
O635 Gd588 2.429 . S
O635 C654 1.268 . S
O636 Gd588 2.545 . S
O636 C644 1.250 . S
O637 Gd588 2.412 . S
O637 C647 1.252 . S
O638 Gd589 2.545 . S
O638 C656 1.258 . S
O639 Gd588 2.362 . S
O639 Gd589 2.606 . S
O639 C655 1.284 . S
O640 Gd588 2.324 . S
O640 C663 1.254 . S
O641 Gd589 2.429 . S
O641 C663 1.268 . S
O642 Gd589 2.545 . S
O642 C655 1.250 . S
O643 Gd589 2.412 . S
O643 C656 1.252 . S
C644 O633 1.284 . S
C644 O636 1.250 . S
C645 H614 0.929 . S
C645 C630 1.437 . S
C645 C646 1.317 . S
C646 H617 0.930 . S
C646 C622 1.431 . S
C646 C645 1.317 . S
C647 Gd588 2.828 . S
C647 O632 1.258 . S
C647 O637 1.252 . S
C647 C648 1.497 . S
C648 C647 1.497 . S
C648 C649 1.395 . S
C648 C650 1.380 . S
C649 C648 1.395 . S
C649 C652 1.398 . S
C649 H664 0.930 . S
C650 C648 1.380 . S
C650 C651 1.391 . S
C650 H665 0.930 . S
C651 C650 1.391 . S
C651 C653 1.387 . S
C652 C649 1.398 . S
C652 C653 1.380 . S
C652 H666 0.930 . S
C653 C651 1.387 . S
C653 C652 1.380 . S
C653 H667 0.930 . S
C654 O634 1.254 . S
C654 O635 1.268 . S
C655 O639 1.284 . S
C655 O642 1.250 . S
C656 Gd589 2.828 . S
C656 O638 1.258 . S
C656 O643 1.252 . S
C656 C657 1.497 . S
C657 C656 1.497 . S
C657 C658 1.395 . S
C657 C659 1.380 . S
C658 C657 1.395 . S
C658 C661 1.398 . S
C658 H668 0.930 . S
C659 C657 1.380 . S
C659 C660 1.391 . S
C659 H669 0.930 . S
C660 C659 1.391 . S
C660 C662 1.387 . S
C661 C658 1.398 . S
C661 C662 1.380 . S
C661 H670 0.930 . S
C662 C660 1.387 . S
C662 C661 1.380 . S
C662 H671 0.930 . S
C663 O640 1.254 . S
C663 O641 1.268 . S
H664 C649 0.930 . S
H665 C650 0.930 . S
H666 C652 0.930 . S
H667 C653 0.930 . S
H668 C658 0.930 . S
H669 C659 0.930 . S
H670 C661 0.930 . S
H671 C662 0.930 . S
Fe672 O673 1.886 1_455 S
Fe672 O676 1.715 . S
Fe672 O681 2.077 1_455 S
Fe672 O686 1.935 . S
Fe672 O692 2.077 1_455 S
Fe672 O701 1.935 . S
O673 Fe672 1.886 1_655 S
O673 Fe675 1.715 . S
Fe674 O676 1.886 . S
Fe674 O677 1.715 1_545 S
Fe674 O684 1.934 . S
Fe674 O685 2.077 . S
Fe674 O691 1.935 1_545 S
Fe674 O700 2.077 . S
Fe675 O673 1.715 . S
Fe675 O678 1.886 1_545 S
Fe675 O682 1.935 . S
Fe675 O687 2.077 1_545 S
Fe675 O693 1.935 . S
Fe675 O697 2.077 1_545 S
O676 Fe672 1.715 . S
O676 Fe674 1.886 . S
O677 Fe674 1.715 1_565 S
O677 Fe679 1.886 . S
O678 Fe675 1.886 1_565 S
O678 Fe679 1.715 1_655 S
Fe679 O677 1.886 . S
Fe679 O678 1.715 1_455 S
Fe679 O683 2.077 . S
Fe679 O688 1.935 1_455 S
Fe679 O690 2.077 . S
Fe679 O698 1.935 1_455 S
C680 O692 1.381 . S
C680 O693 1.421 . S
O681 Fe672 2.077 1_655 S
O681 C694 1.381 . S
O682 Fe675 1.935 . S
O682 C694 1.421 . S
O683 Fe679 2.077 . S
O683 C699 1.381 . S
O684 Fe674 1.934 . S
O684 C699 1.422 1_545 S
O685 Fe674 2.077 . S
O685 C689 1.381 . S
O686 Fe672 1.935 . S
O686 C689 1.421 . S
O687 Fe675 2.077 1_565 S
O687 C695 1.381 . S
O688 Fe679 1.935 1_655 S
O688 C695 1.421 . S
C689 O685 1.381 . S
C689 O686 1.421 . S
O690 Fe679 2.077 . S
O690 C702 1.381 . S
O691 Fe674 1.935 1_565 S
O691 C702 1.421 . S
O692 Fe672 2.077 1_655 S
O692 C680 1.381 . S
O693 Fe675 1.935 . S
O693 C680 1.421 . S
C694 O681 1.381 . S
C694 O682 1.421 . S
C695 O687 1.381 . S
C695 O688 1.421 . S
C696 O697 1.381 . S
C696 O698 1.421 . S
O697 Fe675 2.077 1_565 S
O697 C696 1.381 . S
O698 Fe679 1.935 1_655 S
O698 C696 1.421 . S
C699 O683 1.381 . S
C699 O684 1.422 1_565 S
O700 Fe674 2.077 . S
O700 C703 1.381 . S
O701 Fe672 1.935 . S
O701 C703 1.421 . S
C702 O690 1.381 . S
C702 O691 1.421 . S
C703 O700 1.381 . S
C703 O701 1.421 . S
Fe704 O705 1.886 1_565 S
Fe704 O708 1.715 . S
Fe704 O713 2.077 1_554 S
Fe704 O718 1.935 1_554 S
Fe704 O724 2.077 . S
Fe704 O733 1.935 . S
O705 Fe704 1.886 1_545 S
O705 Fe707 1.715 . S
Fe706 O708 1.886 1_546 S
Fe706 O709 1.715 . S
Fe706 O716 1.948 . S
Fe706 O717 2.089 1_545 S
Fe706 O723 1.922 1_556 S
Fe706 O732 2.066 1_546 S
Fe707 O705 1.715 . S
Fe707 O710 1.884 . S
Fe707 O714 1.935 1_554 S
Fe707 O719 2.077 1_554 S
Fe707 O725 1.935 . S
Fe707 O729 2.077 . S
O708 Fe704 1.715 . S
O708 Fe706 1.886 1_564 S
O709 Fe706 1.715 . S
O709 Fe711 1.886 . S
O710 Fe707 1.884 . S
O710 Fe711 1.719 1_554 S
Fe711 O709 1.886 . S
Fe711 O710 1.719 1_556 S
Fe711 O715 2.097 . S
Fe711 O720 1.959 . S
Fe711 O722 2.056 1_556 S
Fe711 O730 1.912 1_556 S
C712 O724 1.381 . S
C712 O725 1.421 1_565 S
O713 Fe704 2.077 1_556 S
O713 C726 1.381 . S
O714 Fe707 1.935 1_556 S
O714 C726 1.421 1_545 S
O715 Fe711 2.097 . S
O715 C731 1.381 . S
O716 Fe706 1.948 . S
O716 C731 1.421 . S
O717 Fe706 2.089 1_565 S
O717 C721 1.381 . S
O718 Fe704 1.935 1_556 S
O718 C721 1.421 . S
O719 Fe707 2.077 1_556 S
O719 C727 1.381 . S
O720 Fe711 1.959 . S
O720 C727 1.421 . S
C721 O717 1.381 . S
C721 O718 1.421 . S
O722 Fe711 2.056 1_554 S
O722 C734 1.381 . S
O723 Fe706 1.922 1_554 S
O723 C734 1.421 . S
O724 Fe704 2.077 . S
O724 C712 1.381 . S
O725 Fe707 1.935 . S
O725 C712 1.421 1_545 S
C726 O713 1.381 . S
C726 O714 1.421 1_565 S
C727 O719 1.381 . S
C727 O720 1.421 . S
C728 O729 1.381 . S
C728 O730 1.421 . S
O729 Fe707 2.077 . S
O729 C728 1.381 . S
O730 Fe711 1.912 1_554 S
O730 C728 1.421 . S
C731 O715 1.381 . S
C731 O716 1.421 . S
O732 Fe706 2.066 1_564 S
O732 C735 1.381 . S
O733 Fe704 1.935 . S
O733 C735 1.421 . S
C734 O722 1.381 . S
C734 O723 1.421 . S
C735 O732 1.381 . S
C735 O733 1.421 . S
Fe736 O737 1.886 1_455 S
Fe736 O740 1.715 . S
Fe736 O745 2.077 1_455 S
Fe736 O750 1.935 . S
Fe736 O756 2.077 1_455 S
Fe736 O765 1.935 . S
O737 Fe736 1.886 1_655 S
O737 Fe739 1.715 . S
Fe738 O740 1.886 . S
Fe738 O741 1.715 . S
Fe738 O748 1.935 . S
Fe738 O749 2.077 . S
Fe738 O755 1.935 . S
Fe738 O764 2.077 . S
Fe739 O737 1.715 . S
Fe739 O742 1.886 . S
Fe739 O746 1.935 . S
Fe739 O751 2.077 . S
Fe739 O757 1.935 . S
Fe739 O761 2.077 . S
O740 Fe736 1.715 . S
O740 Fe738 1.886 . S
O741 Fe738 1.715 . S
O741 Fe743 1.886 1_455 S
O742 Fe739 1.886 . S
O742 Fe743 1.715 . S
Fe743 O741 1.886 1_655 S
Fe743 O742 1.715 . S
Fe743 O747 2.077 1_655 S
Fe743 O752 1.935 . S
Fe743 O754 2.077 1_655 S
Fe743 O762 1.935 . S
C744 O756 1.381 . S
C744 O757 1.421 . S
O745 Fe736 2.077 1_655 S
O745 C758 1.381 1_554 S
O746 Fe739 1.935 . S
O746 C758 1.421 1_554 S
O747 Fe743 2.077 1_455 S
O747 C763 1.381 . S
O748 Fe738 1.935 . S
O748 C763 1.421 . S
O749 Fe738 2.077 . S
O749 C753 1.373 1_554 S
O750 Fe736 1.935 . S
O750 C753 1.413 1_554 S
O751 Fe739 2.077 . S
O751 C759 1.380 1_554 S
O752 Fe743 1.935 . S
O752 C759 1.420 1_554 S
C753 O749 1.373 1_556 S
C753 O750 1.413 1_556 S
O754 Fe743 2.077 1_455 S
O754 C766 1.381 . S
O755 Fe738 1.935 . S
O755 C766 1.421 . S
O756 Fe736 2.077 1_655 S
O756 C744 1.381 . S
O757 Fe739 1.935 . S
O757 C744 1.421 . S
C758 O745 1.381 1_556 S
C758 O746 1.421 1_556 S
C759 O751 1.380 1_556 S
C759 O752 1.420 1_556 S
C760 O761 1.381 . S
C760 O762 1.421 . S
O761 Fe739 2.077 . S
O761 C760 1.381 . S
O762 Fe743 1.935 . S
O762 C760 1.421 . S
C763 O747 1.381 . S
C763 O748 1.421 . S
O764 Fe738 2.077 . S
O764 C767 1.381 . S
O765 Fe736 1.935 . S
O765 C767 1.421 . S
C766 O754 1.381 . S
C766 O755 1.421 . S
C767 O764 1.381 . S
C767 O765 1.421 . S
Fe768 O769 1.886 . S
Fe768 O772 1.715 . S
Fe768 O777 2.077 . S
Fe768 O782 1.935 . S
Fe768 O788 2.077 . S
Fe768 O797 1.935 . S
O769 Fe768 1.886 . S
O769 Fe771 1.715 1_556 S
Fe770 O772 1.886 1_554 S
Fe770 O773 1.715 . S
Fe770 O780 1.935 . S
Fe770 O781 2.077 1_554 S
Fe770 O787 1.935 . S
Fe770 O796 2.077 1_554 S
Fe771 O769 1.715 1_554 S
Fe771 O774 1.886 . S
Fe771 O778 1.929 1_554 S
Fe771 O783 2.077 . S
Fe771 O789 1.935 . S
Fe771 O793 2.077 . S
O772 Fe768 1.715 . S
O772 Fe770 1.886 1_556 S
O773 Fe770 1.715 . S
O773 Fe775 1.886 . S
O774 Fe771 1.886 . S
O774 Fe775 1.715 . S
Fe775 O773 1.886 . S
Fe775 O774 1.715 . S
Fe775 O779 2.077 . S
Fe775 O784 1.935 . S
Fe775 O786 2.077 . S
Fe775 O794 1.935 . S
C776 O788 1.381 . S
C776 O789 1.421 1_556 S
O777 Fe768 2.077 . S
O777 C790 1.381 . S
O778 Fe771 1.929 1_556 S
O778 C790 1.432 . S
O779 Fe775 2.077 . S
O779 C795 1.381 . S
O780 Fe770 1.935 . S
O780 C795 1.421 . S
O781 Fe770 2.077 1_556 S
O781 C785 1.381 . S
O782 Fe768 1.935 . S
O782 C785 1.421 . S
O783 Fe771 2.077 . S
O783 C791 1.381 . S
O784 Fe775 1.935 . S
O784 C791 1.421 . S
C785 O781 1.381 . S
C785 O782 1.421 . S
O786 Fe775 2.077 . S
O786 C798 1.381 . S
O787 Fe770 1.935 . S
O787 C798 1.421 . S
O788 Fe768 2.077 . S
O788 C776 1.381 . S
O789 Fe771 1.935 . S
O789 C776 1.421 1_554 S
C790 O777 1.381 . S
C790 O778 1.432 . S
C791 O783 1.381 . S
C791 O784 1.421 . S
C792 O793 1.381 . S
C792 O794 1.421 . S
O793 Fe771 2.077 . S
O793 C792 1.381 . S
O794 Fe775 1.935 . S
O794 C792 1.421 . S
C795 O779 1.381 . S
C795 O780 1.421 . S
O796 Fe770 2.077 1_556 S
O796 C799 1.381 . S
O797 Fe768 1.935 . S
O797 C799 1.421 . S
C798 O786 1.381 . S
C798 O787 1.421 . S
C799 O796 1.381 . S
C799 O797 1.421 . S
Fe800 O801 1.886 . S
Fe800 O804 1.715 . S
Fe800 O809 2.077 . S
Fe800 O814 1.935 . S
Fe800 O820 2.077 1_455 S
Fe800 O829 1.935 1_455 S
O801 Fe800 1.886 . S
O801 Fe803 1.715 . S
Fe802 O804 1.886 . S
Fe802 O805 1.715 . S
Fe802 O812 1.935 . S
Fe802 O813 2.077 . S
Fe802 O819 1.935 1_455 S
Fe802 O828 2.077 1_455 S
Fe803 O801 1.715 . S
Fe803 O806 1.886 . S
Fe803 O810 1.935 . S
Fe803 O815 2.077 . S
Fe803 O821 1.935 1_455 S
Fe803 O825 2.047 1_455 S
O804 Fe800 1.715 . S
O804 Fe802 1.886 . S
O805 Fe802 1.715 . S
O805 Fe807 1.886 . S
O806 Fe803 1.886 . S
O806 Fe807 1.715 . S
Fe807 O805 1.886 . S
Fe807 O806 1.715 . S
Fe807 O811 2.077 . S
Fe807 O816 1.935 . S
Fe807 O818 2.077 . S
Fe807 O826 1.948 . S
C808 O820 1.381 . S
C808 O821 1.421 . S
O809 Fe800 2.077 . S
O809 C822 1.381 . S
O810 Fe803 1.935 . S
O810 C822 1.421 . S
O811 Fe807 2.077 . S
O811 C827 1.381 . S
O812 Fe802 1.935 . S
O812 C827 1.421 . S
O813 Fe802 2.077 . S
O813 C817 1.381 . S
O814 Fe800 1.935 . S
O814 C817 1.421 . S
O815 Fe803 2.077 . S
O815 C823 1.381 . S
O816 Fe807 1.935 . S
O816 C823 1.421 . S
C817 O813 1.381 . S
C817 O814 1.421 . S
O818 Fe807 2.077 . S
O818 C830 1.381 1_455 S
O819 Fe802 1.935 1_655 S
O819 C830 1.421 . S
O820 Fe800 2.077 1_655 S
O820 C808 1.381 . S
O821 Fe803 1.935 1_655 S
O821 C808 1.421 . S
C822 O809 1.381 . S
C822 O810 1.421 . S
C823 O815 1.381 . S
C823 O816 1.421 . S
C824 O825 1.398 . S
C824 O826 1.417 1_655 S
O825 Fe803 2.047 1_655 S
O825 C824 1.398 . S
O826 Fe807 1.948 . S
O826 C824 1.417 1_455 S
C827 O811 1.381 . S
C827 O812 1.421 . S
O828 Fe802 2.077 1_655 S
O828 C831 1.381 . S
O829 Fe800 1.935 1_655 S
O829 C831 1.421 . S
C830 O818 1.381 1_655 S
C830 O819 1.421 . S
C831 O828 1.381 . S
C831 O829 1.421 . S
Fe832 O833 1.886 . S
Fe832 O836 1.715 . S
Fe832 O841 2.077 . S
Fe832 O846 1.935 . S
Fe832 O852 2.077 . S
Fe832 O861 1.935 . S
O833 Fe832 1.886 . S
O833 Fe835 1.715 1_565 S
Fe834 O836 1.886 1_545 S
Fe834 O837 1.715 . S
Fe834 O844 1.935 . S
Fe834 O845 2.077 1_545 S
Fe834 O851 1.935 . S
Fe834 O860 2.077 1_545 S
Fe835 O833 1.715 1_545 S
Fe835 O838 1.886 . S
Fe835 O842 1.935 1_545 S
Fe835 O847 2.077 . S
Fe835 O853 1.935 1_545 S
Fe835 O857 2.077 . S
O836 Fe832 1.715 . S
O836 Fe834 1.886 1_565 S
O837 Fe834 1.715 . S
O837 Fe839 1.886 . S
O838 Fe835 1.886 . S
O838 Fe839 1.715 . S
Fe839 O837 1.886 . S
Fe839 O838 1.715 . S
Fe839 O843 2.077 . S
Fe839 O848 1.935 . S
Fe839 O850 2.077 . S
Fe839 O858 1.935 . S
C840 O852 1.381 . S
C840 O853 1.421 . S
O841 Fe832 2.077 . S
O841 C854 1.381 . S
O842 Fe835 1.935 1_565 S
O842 C854 1.421 . S
O843 Fe839 2.077 . S
O843 C859 1.381 . S
O844 Fe834 1.935 . S
O844 C859 1.421 . S
O845 Fe834 2.077 1_565 S
O845 C849 1.381 . S
O846 Fe832 1.935 . S
O846 C849 1.421 . S
O847 Fe835 2.077 . S
O847 C855 1.381 . S
O848 Fe839 1.935 . S
O848 C855 1.421 . S
C849 O845 1.381 . S
C849 O846 1.421 . S
O850 Fe839 2.077 . S
O850 C862 1.381 . S
O851 Fe834 1.935 . S
O851 C862 1.421 . S
O852 Fe832 2.077 . S
O852 C840 1.381 . S
O853 Fe835 1.935 1_565 S
O853 C840 1.421 . S
C854 O841 1.381 . S
C854 O842 1.421 . S
C855 O847 1.381 . S
C855 O848 1.421 . S
C856 O857 1.381 . S
C856 O858 1.421 . S
O857 Fe835 2.077 . S
O857 C856 1.381 . S
O858 Fe839 1.935 . S
O858 C856 1.421 . S
C859 O843 1.381 . S
C859 O844 1.421 . S
O860 Fe834 2.077 1_565 S
O860 C863 1.381 . S
O861 Fe832 1.935 . S
O861 C863 1.421 . S
C862 O850 1.381 . S
C862 O851 1.421 . S
C863 O860 1.381 . S
C863 O861 1.421 . S
H864 C872 0.950 . S
H865 C877 0.950 . S
H866 C874 0.950 . S
H867 C876 0.950 . S
H868 C878 0.950 . S
H869 C880 0.950 . S
H870 C882 0.950 . S
H871 C883 0.950 . S
C872 H864 0.950 . S
C872 C873 1.386 . S
C872 C874 1.391 . S
C873 C872 1.386 . S
C873 C877 1.393 . S
C874 H866 0.950 . S
C874 C872 1.391 . S
C874 C875 1.400 . S
C875 C874 1.400 . S
C875 C876 1.398 . S
C875 C881 1.491 . S
C876 H867 0.950 . S
C876 C875 1.398 . S
C876 C877 1.391 . S
C877 H865 0.950 . S
C877 C873 1.393 . S
C877 C876 1.391 . S
C878 H868 0.950 . S
C878 C879 1.386 . S
C878 C880 1.391 . S
C879 C878 1.386 . S
C879 C883 1.393 . S
C880 H869 0.950 . S
C880 C878 1.391 . S
C880 C881 1.400 . S
C881 C875 1.491 . S
C881 C880 1.400 . S
C881 C882 1.398 . S
C882 H870 0.950 . S
C882 C881 1.398 . S
C882 C883 1.391 . S
C883 H871 0.950 . S
C883 C879 1.393 . S
C883 C882 1.391 . S
H884 C892 0.950 . S
H885 C897 0.950 . S
H886 C894 0.950 . S
H887 C896 0.950 . S
H888 C898 0.950 . S
H889 C900 0.950 . S
H890 C902 0.950 . S
H891 C903 0.950 . S
C892 H884 0.950 . S
C892 C893 1.386 . S
C892 C894 1.391 . S
C893 C892 1.386 . S
C893 C897 1.393 . S
C894 H886 0.950 . S
C894 C892 1.391 . S
C894 C895 1.400 . S
C895 C894 1.400 . S
C895 C896 1.398 . S
C895 C901 1.491 . S
C896 H887 0.950 . S
C896 C895 1.398 . S
C896 C897 1.391 . S
C897 H885 0.950 . S
C897 C893 1.393 . S
C897 C896 1.391 . S
C898 H888 0.950 . S
C898 C899 1.386 . S
C898 C900 1.391 . S
C899 C898 1.386 . S
C899 C903 1.393 . S
C900 H889 0.950 . S
C900 C898 1.391 . S
C900 C901 1.400 . S
C901 C895 1.491 . S
C901 C900 1.400 . S
C901 C902 1.398 . S
C902 H890 0.950 . S
C902 C901 1.398 . S
C902 C903 1.391 . S
C903 H891 0.950 . S
C903 C899 1.393 . S
C903 C902 1.391 . S
H904 C912 0.950 . S
H905 C917 0.950 . S
H906 C914 0.950 . S
H907 C916 0.950 . S
H908 C918 0.950 . S
H909 C920 0.950 . S
H910 C922 0.950 . S
H911 C923 0.950 . S
C912 H904 0.950 . S
C912 C913 1.386 . S
C912 C914 1.391 . S
C913 C912 1.386 . S
C913 C917 1.393 . S
C914 H906 0.950 . S
C914 C912 1.391 . S
C914 C915 1.400 . S
C915 C914 1.400 . S
C915 C916 1.398 . S
C915 C921 1.491 . S
C916 H907 0.950 . S
C916 C915 1.398 . S
C916 C917 1.391 . S
C917 H905 0.950 . S
C917 C913 1.393 . S
C917 C916 1.391 . S
C918 H908 0.950 . S
C918 C919 1.386 . S
C918 C920 1.391 . S
C919 C918 1.386 . S
C919 C923 1.393 . S
C920 H909 0.950 . S
C920 C918 1.391 . S
C920 C921 1.400 . S
C921 C915 1.491 . S
C921 C920 1.400 . S
C921 C922 1.398 . S
C922 H910 0.950 . S
C922 C921 1.398 . S
C922 C923 1.391 . S
C923 H911 0.950 . S
C923 C919 1.393 . S
C923 C922 1.391 . S
H924 C932 0.950 . S
H925 C937 0.950 . S
H926 C934 0.950 . S
H927 C936 0.950 . S
H928 C938 0.950 . S
H929 C940 0.950 . S
H930 C942 0.950 . S
H931 C943 0.950 . S
C932 H924 0.950 . S
C932 C933 1.386 . S
C932 C934 1.391 . S
C933 C932 1.386 . S
C933 C937 1.393 . S
C934 H926 0.950 . S
C934 C932 1.391 . S
C934 C935 1.400 . S
C935 C934 1.400 . S
C935 C936 1.398 . S
C935 C941 1.491 . S
C936 H927 0.950 . S
C936 C935 1.398 . S
C936 C937 1.391 . S
C937 H925 0.950 . S
C937 C933 1.393 . S
C937 C936 1.391 . S
C938 H928 0.950 . S
C938 C939 1.386 . S
C938 C940 1.391 . S
C939 C938 1.386 . S
C939 C943 1.393 . S
C940 H929 0.950 . S
C940 C938 1.391 . S
C940 C941 1.400 . S
C941 C935 1.491 . S
C941 C940 1.400 . S
C941 C942 1.398 . S
C942 H930 0.950 . S
C942 C941 1.398 . S
C942 C943 1.391 . S
C943 H931 0.950 . S
C943 C939 1.393 . S
C943 C942 1.391 . S
H944 C952 0.950 . S
H945 C957 0.950 . S
H946 C954 0.950 . S
H947 C956 0.950 . S
H948 C958 0.950 . S
H949 C960 0.950 . S
H950 C962 0.950 . S
H951 C963 0.950 . S
C952 H944 0.950 . S
C952 C953 1.386 . S
C952 C954 1.391 . S
C953 C952 1.386 . S
C953 C957 1.393 . S
C954 H946 0.950 . S
C954 C952 1.391 . S
C954 C955 1.400 . S
C955 C954 1.400 . S
C955 C956 1.398 . S
C955 C961 1.491 . S
C956 H947 0.950 . S
C956 C955 1.398 . S
C956 C957 1.391 . S
C957 H945 0.950 . S
C957 C953 1.393 . S
C957 C956 1.391 . S
C958 H948 0.950 . S
C958 C959 1.386 . S
C958 C960 1.391 . S
C959 C958 1.386 . S
C959 C963 1.393 . S
C960 H949 0.950 . S
C960 C958 1.391 . S
C960 C961 1.400 . S
C961 C955 1.491 . S
C961 C960 1.400 . S
C961 C962 1.398 . S
C962 H950 0.950 . S
C962 C961 1.398 . S
C962 C963 1.391 . S
C963 H951 0.950 . S
C963 C959 1.393 . S
C963 C962 1.391 . S
H964 C972 0.950 . S
H965 C977 0.950 . S
H966 C974 0.950 . S
H967 C976 0.950 . S
H968 C978 0.950 . S
H969 C980 0.950 . S
H970 C982 0.950 . S
H971 C983 0.950 . S
C972 H964 0.950 . S
C972 C973 1.386 . S
C972 C974 1.391 . S
C973 C972 1.386 . S
C973 C977 1.393 . S
C974 H966 0.950 . S
C974 C972 1.391 . S
C974 C975 1.400 . S
C975 C974 1.400 . S
C975 C976 1.398 . S
C975 C981 1.491 . S
C976 H967 0.950 . S
C976 C975 1.398 . S
C976 C977 1.391 . S
C977 H965 0.950 . S
C977 C973 1.393 . S
C977 C976 1.391 . S
C978 H968 0.950 . S
C978 C979 1.386 . S
C978 C980 1.391 . S
C979 C978 1.386 . S
C979 C983 1.393 . S
C980 H969 0.950 . S
C980 C978 1.391 . S
C980 C981 1.400 . S
C981 C975 1.491 . S
C981 C980 1.400 . S
C981 C982 1.398 . S
C982 H970 0.950 . S
C982 C981 1.398 . S
C982 C983 1.391 . S
C983 H971 0.950 . S
C983 C979 1.393 . S
C983 C982 1.391 . S
H984 C992 0.950 . S
H985 C997 0.950 . S
H986 C994 0.950 . S
H987 C996 0.950 . S
H988 C998 0.950 . S
H989 C1000 0.950 . S
H990 C1002 0.950 . S
H991 C1003 0.950 . S
C992 H984 0.950 . S
C992 C993 1.386 . S
C992 C994 1.391 . S
C993 C992 1.386 . S
C993 C997 1.393 . S
C994 H986 0.950 . S
C994 C992 1.391 . S
C994 C995 1.400 . S
C995 C994 1.400 . S
C995 C996 1.398 . S
C995 C1001 1.491 . S
C996 H987 0.950 . S
C996 C995 1.398 . S
C996 C997 1.391 . S
C997 H985 0.950 . S
C997 C993 1.393 . S
C997 C996 1.391 . S
C998 H988 0.950 . S
C998 C999 1.386 . S
C998 C1000 1.391 . S
C999 C998 1.386 . S
C999 C1003 1.393 . S
C1000 H989 0.950 . S
C1000 C998 1.391 . S
C1000 C1001 1.400 . S
C1001 C995 1.491 . S
C1001 C1000 1.400 . S
C1001 C1002 1.398 . S
C1002 H990 0.950 . S
C1002 C1001 1.398 . S
C1002 C1003 1.391 . S
C1003 H991 0.950 . S
C1003 C999 1.393 . S
C1003 C1002 1.391 . S
H1004 C1012 0.950 . S
H1005 C1017 0.950 . S
H1006 C1014 0.950 . S
H1007 C1016 0.950 . S
H1008 C1018 0.950 . S
H1009 C1020 0.950 . S
H1010 C1022 0.950 . S
H1011 C1023 0.950 . S
C1012 H1004 0.950 . S
C1012 C1013 1.386 . S
C1012 C1014 1.391 . S
C1013 C1012 1.386 . S
C1013 C1017 1.393 . S
C1014 H1006 0.950 . S
C1014 C1012 1.391 . S
C1014 C1015 1.400 . S
C1015 C1014 1.400 . S
C1015 C1016 1.398 . S
C1015 C1021 1.491 . S
C1016 H1007 0.950 . S
C1016 C1015 1.398 . S
C1016 C1017 1.391 . S
C1017 H1005 0.950 . S
C1017 C1013 1.393 . S
C1017 C1016 1.391 . S
C1018 H1008 0.950 . S
C1018 C1019 1.386 . S
C1018 C1020 1.391 . S
C1019 C1018 1.386 . S
C1019 C1023 1.393 . S
C1020 H1009 0.950 . S
C1020 C1018 1.391 . S
C1020 C1021 1.400 . S
C1021 C1015 1.491 . S
C1021 C1020 1.400 . S
C1021 C1022 1.398 . S
C1022 H1010 0.950 . S
C1022 C1021 1.398 . S
C1022 C1023 1.391 . S
C1023 H1011 0.950 . S
C1023 C1019 1.393 . S
C1023 C1022 1.391 . S
H1024 C1032 0.950 . S
H1025 C1037 0.950 . S
H1026 C1034 0.950 . S
H1027 C1036 0.950 . S
H1028 C1038 0.950 . S
H1029 C1040 0.950 . S
H1030 C1042 0.950 . S
H1031 C1043 0.950 . S
C1032 H1024 0.950 . S
C1032 C1033 1.386 . S
C1032 C1034 1.391 . S
C1033 C1032 1.386 . S
C1033 C1037 1.393 . S
C1034 H1026 0.950 . S
C1034 C1032 1.391 . S
C1034 C1035 1.400 . S
C1035 C1034 1.400 . S
C1035 C1036 1.398 . S
C1035 C1041 1.491 . S
C1036 H1027 0.950 . S
C1036 C1035 1.398 . S
C1036 C1037 1.391 . S
C1037 H1025 0.950 . S
C1037 C1033 1.393 . S
C1037 C1036 1.391 . S
C1038 H1028 0.950 . S
C1038 C1039 1.386 . S
C1038 C1040 1.391 . S
C1039 C1038 1.386 . S
C1039 C1043 1.393 . S
C1040 H1029 0.950 . S
C1040 C1038 1.391 . S
C1040 C1041 1.400 . S
C1041 C1035 1.491 . S
C1041 C1040 1.400 . S
C1041 C1042 1.398 . S
C1042 H1030 0.950 . S
C1042 C1041 1.398 . S
C1042 C1043 1.391 . S
C1043 H1031 0.950 . S
C1043 C1039 1.393 . S
C1043 C1042 1.391 . S
H1044 C1052 0.950 . S
H1045 C1057 0.950 . S
H1046 C1054 0.950 . S
H1047 C1056 0.950 . S
H1048 C1058 0.950 . S
H1049 C1060 0.950 . S
H1050 C1062 0.950 . S
H1051 C1063 0.950 . S
C1052 H1044 0.950 . S
C1052 C1053 1.386 . S
C1052 C1054 1.391 . S
C1053 C1052 1.386 . S
C1053 C1057 1.393 . S
C1054 H1046 0.950 . S
C1054 C1052 1.391 . S
C1054 C1055 1.400 . S
C1055 C1054 1.400 . S
C1055 C1056 1.398 . S
C1055 C1061 1.491 . S
C1056 H1047 0.950 . S
C1056 C1055 1.398 . S
C1056 C1057 1.391 . S
C1057 H1045 0.950 . S
C1057 C1053 1.393 . S
C1057 C1056 1.391 . S
C1058 H1048 0.950 . S
C1058 C1059 1.386 . S
C1058 C1060 1.391 . S
C1059 C1058 1.386 . S
C1059 C1063 1.393 . S
C1060 H1049 0.950 . S
C1060 C1058 1.391 . S
C1060 C1061 1.400 . S
C1061 C1055 1.491 . S
C1061 C1060 1.400 . S
C1061 C1062 1.398 . S
C1062 H1050 0.950 . S
C1062 C1061 1.398 . S
C1062 C1063 1.391 . S
C1063 H1051 0.950 . S
C1063 C1059 1.393 . S
C1063 C1062 1.391 . S
H1064 C1072 0.950 . S
H1065 C1077 0.950 . S
H1066 C1074 0.950 . S
H1067 C1076 0.950 . S
H1068 C1078 0.950 . S
H1069 C1080 0.950 . S
H1070 C1082 0.950 . S
H1071 C1083 0.950 . S
C1072 H1064 0.950 . S
C1072 C1073 1.386 . S
C1072 C1074 1.391 . S
C1073 C1072 1.386 . S
C1073 C1077 1.393 . S
C1074 H1066 0.950 . S
C1074 C1072 1.391 . S
C1074 C1075 1.400 . S
C1075 C1074 1.400 . S
C1075 C1076 1.398 . S
C1075 C1081 1.491 . S
C1076 H1067 0.950 . S
C1076 C1075 1.398 . S
C1076 C1077 1.391 . S
C1077 H1065 0.950 . S
C1077 C1073 1.393 . S
C1077 C1076 1.391 . S
C1078 H1068 0.950 . S
C1078 C1079 1.386 . S
C1078 C1080 1.391 . S
C1079 C1078 1.386 . S
C1079 C1083 1.393 . S
C1080 H1069 0.950 . S
C1080 C1078 1.391 . S
C1080 C1081 1.400 . S
C1081 C1075 1.491 . S
C1081 C1080 1.400 . S
C1081 C1082 1.398 . S
C1082 H1070 0.950 . S
C1082 C1081 1.398 . S
C1082 C1083 1.391 . S
C1083 H1071 0.950 . S
C1083 C1079 1.393 . S
C1083 C1082 1.391 . S
H1084 C1092 0.950 . S
H1085 C1097 0.950 . S
H1086 C1094 0.950 . S
H1087 C1096 0.950 . S
H1088 C1098 0.950 . S
H1089 C1100 0.950 . S
H1090 C1102 0.950 . S
H1091 C1103 0.950 . S
C1092 H1084 0.950 . S
C1092 C1093 1.386 . S
C1092 C1094 1.391 . S
C1093 C1092 1.386 . S
C1093 C1097 1.393 . S
C1094 H1086 0.950 . S
C1094 C1092 1.391 . S
C1094 C1095 1.400 . S
C1095 C1094 1.400 . S
C1095 C1096 1.398 . S
C1095 C1101 1.491 . S
C1096 H1087 0.950 . S
C1096 C1095 1.398 . S
C1096 C1097 1.391 . S
C1097 H1085 0.950 . S
C1097 C1093 1.393 . S
C1097 C1096 1.391 . S
C1098 H1088 0.950 . S
C1098 C1099 1.386 . S
C1098 C1100 1.391 . S
C1099 C1098 1.386 . S
C1099 C1103 1.393 . S
C1100 H1089 0.950 . S
C1100 C1098 1.391 . S
C1100 C1101 1.400 . S
C1101 C1095 1.491 . S
C1101 C1100 1.400 . S
C1101 C1102 1.398 . S
C1102 H1090 0.950 . S
C1102 C1101 1.398 . S
C1102 C1103 1.391 . S
C1103 H1091 0.950 . S
C1103 C1099 1.393 . S
C1103 C1102 1.391 . S
H1104 C1112 0.950 . S
H1105 C1117 0.950 . S
H1106 C1114 0.950 . S
H1107 C1116 0.950 . S
H1108 C1118 0.950 . S
H1109 C1120 0.950 . S
H1110 C1122 0.950 . S
H1111 C1123 0.950 . S
C1112 H1104 0.950 . S
C1112 C1113 1.386 . S
C1112 C1114 1.391 . S
C1113 C1112 1.386 . S
C1113 C1117 1.393 . S
C1114 H1106 0.950 . S
C1114 C1112 1.391 . S
C1114 C1115 1.400 . S
C1115 C1114 1.400 . S
C1115 C1116 1.398 . S
C1115 C1121 1.491 . S
C1116 H1107 0.950 . S
C1116 C1115 1.398 . S
C1116 C1117 1.391 . S
C1117 H1105 0.950 . S
C1117 C1113 1.393 . S
C1117 C1116 1.391 . S
C1118 H1108 0.950 . S
C1118 C1119 1.386 . S
C1118 C1120 1.391 . S
C1119 C1118 1.386 . S
C1119 C1123 1.393 . S
C1120 H1109 0.950 . S
C1120 C1118 1.391 . S
C1120 C1121 1.400 . S
C1121 C1115 1.491 . S
C1121 C1120 1.400 . S
C1121 C1122 1.398 . S
C1122 H1110 0.950 . S
C1122 C1121 1.398 . S
C1122 C1123 1.391 . S
C1123 H1111 0.950 . S
C1123 C1119 1.393 . S
C1123 C1122 1.391 . S
H1124 C1132 0.950 . S
H1125 C1137 0.950 . S
H1126 C1134 0.950 . S
H1127 C1136 0.950 . S
H1128 C1138 0.950 . S
H1129 C1140 0.950 . S
H1130 C1142 0.950 . S
H1131 C1143 0.950 1_554 S
C1132 H1124 0.950 . S
C1132 C1133 1.386 . S
C1132 C1134 1.391 . S
C1133 C1132 1.386 . S
C1133 C1137 1.393 . S
C1134 H1126 0.950 . S
C1134 C1132 1.391 . S
C1134 C1135 1.400 . S
C1135 C1134 1.400 . S
C1135 C1136 1.398 . S
C1135 C1141 1.491 . S
C1136 H1127 0.950 . S
C1136 C1135 1.398 . S
C1136 C1137 1.391 . S
C1137 H1125 0.950 . S
C1137 C1133 1.393 . S
C1137 C1136 1.391 . S
C1138 H1128 0.950 . S
C1138 C1139 1.386 . S
C1138 C1140 1.391 . S
C1139 C1138 1.386 . S
C1139 C1143 1.393 . S
C1140 H1129 0.950 . S
C1140 C1138 1.391 . S
C1140 C1141 1.400 . S
C1141 C1135 1.491 . S
C1141 C1140 1.400 . S
C1141 C1142 1.398 . S
C1142 H1130 0.950 . S
C1142 C1141 1.398 . S
C1142 C1143 1.391 . S
C1143 H1131 0.950 1_556 S
C1143 C1139 1.393 . S
C1143 C1142 1.391 . S
H1144 C1152 0.950 . S
H1145 C1157 0.950 . S
H1146 C1154 0.950 . S
H1147 C1156 0.950 . S
H1148 C1158 0.950 . S
H1149 C1160 0.950 . S
H1150 C1162 0.950 . S
H1151 C1163 0.950 . S
C1152 H1144 0.950 . S
C1152 C1153 1.386 . S
C1152 C1154 1.391 . S
C1153 C1152 1.386 . S
C1153 C1157 1.393 . S
C1154 H1146 0.950 . S
C1154 C1152 1.391 . S
C1154 C1155 1.400 . S
C1155 C1154 1.400 . S
C1155 C1156 1.398 . S
C1155 C1161 1.491 . S
C1156 H1147 0.950 . S
C1156 C1155 1.398 . S
C1156 C1157 1.391 . S
C1157 H1145 0.950 . S
C1157 C1153 1.393 . S
C1157 C1156 1.391 . S
C1158 H1148 0.950 . S
C1158 C1159 1.386 . S
C1158 C1160 1.391 . S
C1159 C1158 1.386 . S
C1159 C1163 1.393 . S
C1160 H1149 0.950 . S
C1160 C1158 1.391 . S
C1160 C1161 1.400 . S
C1161 C1155 1.491 . S
C1161 C1160 1.400 . S
C1161 C1162 1.398 . S
C1162 H1150 0.950 . S
C1162 C1161 1.398 . S
C1162 C1163 1.391 . S
C1163 H1151 0.950 . S
C1163 C1159 1.393 . S
C1163 C1162 1.391 . S
H1164 C1172 0.950 . S
H1165 C1177 0.950 . S
H1166 C1174 0.950 . S
H1167 C1176 0.950 . S
H1168 C1178 0.950 . S
H1169 C1180 0.950 . S
H1170 C1182 0.950 . S
H1171 C1183 0.950 . S
C1172 H1164 0.950 . S
C1172 C1173 1.386 . S
C1172 C1174 1.391 . S
C1173 C1172 1.386 . S
C1173 C1177 1.393 . S
C1174 H1166 0.950 . S
C1174 C1172 1.391 . S
C1174 C1175 1.400 . S
C1175 C1174 1.400 . S
C1175 C1176 1.398 . S
C1175 C1181 1.491 . S
C1176 H1167 0.950 . S
C1176 C1175 1.398 . S
C1176 C1177 1.391 . S
C1177 H1165 0.950 . S
C1177 C1173 1.393 . S
C1177 C1176 1.391 . S
C1178 H1168 0.950 . S
C1178 C1179 1.386 . S
C1178 C1180 1.391 . S
C1179 C1178 1.386 . S
C1179 C1183 1.393 . S
C1180 H1169 0.950 . S
C1180 C1178 1.391 . S
C1180 C1181 1.400 . S
C1181 C1175 1.491 . S
C1181 C1180 1.400 . S
C1181 C1182 1.398 . S
C1182 H1170 0.950 . S
C1182 C1181 1.398 . S
C1182 C1183 1.391 . S
C1183 H1171 0.950 . S
C1183 C1179 1.393 . S
C1183 C1182 1.391 . S
H1184 C1192 0.950 . S
H1185 C1197 0.950 . S
H1186 C1194 0.950 . S
H1187 C1196 0.950 . S
H1188 C1198 0.950 . S
H1189 C1200 0.950 . S
H1190 C1202 0.950 . S
H1191 C1203 0.950 . S
C1192 H1184 0.950 . S
C1192 C1193 1.386 . S
C1192 C1194 1.391 . S
C1193 C1192 1.386 . S
C1193 C1197 1.393 . S
C1194 H1186 0.950 . S
C1194 C1192 1.391 . S
C1194 C1195 1.400 . S
C1195 C1194 1.400 . S
C1195 C1196 1.398 . S
C1195 C1201 1.491 . S
C1196 H1187 0.950 . S
C1196 C1195 1.398 . S
C1196 C1197 1.391 . S
C1197 H1185 0.950 . S
C1197 C1193 1.393 . S
C1197 C1196 1.391 . S
C1198 H1188 0.950 . S
C1198 C1199 1.386 . S
C1198 C1200 1.391 . S
C1199 C1198 1.386 . S
C1199 C1203 1.393 . S
C1200 H1189 0.950 . S
C1200 C1198 1.391 . S
C1200 C1201 1.400 . S
C1201 C1195 1.491 . S
C1201 C1200 1.400 . S
C1201 C1202 1.398 . S
C1202 H1190 0.950 . S
C1202 C1201 1.398 . S
C1202 C1203 1.391 . S
C1203 H1191 0.950 . S
C1203 C1199 1.393 . S
C1203 C1202 1.391 . S
H1204 C1212 0.950 . S
H1205 C1217 0.950 . S
H1206 C1214 0.950 . S
H1207 C1216 0.950 . S
H1208 C1218 0.950 . S
H1209 C1220 0.950 . S
H1210 C1222 0.950 . S
H1211 C1223 0.950 . S
C1212 H1204 0.950 . S
C1212 C1213 1.386 . S
C1212 C1214 1.391 . S
C1213 C1212 1.386 . S
C1213 C1217 1.393 . S
C1214 H1206 0.950 . S
C1214 C1212 1.391 . S
C1214 C1215 1.400 . S
C1215 C1214 1.400 . S
C1215 C1216 1.398 . S
C1215 C1221 1.491 . S
C1216 H1207 0.950 . S
C1216 C1215 1.398 . S
C1216 C1217 1.391 . S
C1217 H1205 0.950 . S
C1217 C1213 1.393 . S
C1217 C1216 1.391 . S
C1218 H1208 0.950 . S
C1218 C1219 1.386 . S
C1218 C1220 1.391 . S
C1219 C1218 1.386 . S
C1219 C1223 1.393 . S
C1220 H1209 0.950 . S
C1220 C1218 1.391 . S
C1220 C1221 1.400 . S
C1221 C1215 1.491 . S
C1221 C1220 1.400 . S
C1221 C1222 1.398 . S
C1222 H1210 0.950 . S
C1222 C1221 1.398 . S
C1222 C1223 1.391 . S
C1223 H1211 0.950 . S
C1223 C1219 1.393 . S
C1223 C1222 1.391 . S
H1224 C1232 0.950 . S
H1225 C1237 0.950 . S
H1226 C1234 0.950 . S
H1227 C1236 0.950 . S
H1228 C1238 0.950 . S
H1229 C1240 0.950 . S
H1230 C1242 0.950 . S
H1231 C1243 0.950 . S
C1232 H1224 0.950 . S
C1232 C1233 1.386 . S
C1232 C1234 1.391 . S
C1233 C1232 1.386 . S
C1233 C1237 1.393 . S
C1234 H1226 0.950 . S
C1234 C1232 1.391 . S
C1234 C1235 1.400 . S
C1235 C1234 1.400 . S
C1235 C1236 1.398 . S
C1235 C1241 1.491 . S
C1236 H1227 0.950 . S
C1236 C1235 1.398 . S
C1236 C1237 1.391 . S
C1237 H1225 0.950 . S
C1237 C1233 1.393 . S
C1237 C1236 1.391 . S
C1238 H1228 0.950 . S
C1238 C1239 1.386 . S
C1238 C1240 1.391 . S
C1239 C1238 1.386 . S
C1239 C1243 1.393 . S
C1240 H1229 0.950 . S
C1240 C1238 1.391 . S
C1240 C1241 1.400 . S
C1241 C1235 1.491 . S
C1241 C1240 1.400 . S
C1241 C1242 1.398 . S
C1242 H1230 0.950 . S
C1242 C1241 1.398 . S
C1242 C1243 1.391 . S
C1243 H1231 0.950 . S
C1243 C1239 1.393 . S
C1243 C1242 1.391 . S
H1244 C1252 0.950 . S
H1245 C1257 0.950 . S
H1246 C1254 0.950 . S
H1247 C1256 0.950 . S
H1248 C1258 0.950 . S
H1249 C1260 0.950 . S
H1250 C1262 0.950 . S
H1251 C1263 0.950 . S
C1252 H1244 0.950 . S
C1252 C1253 1.386 . S
C1252 C1254 1.391 . S
C1253 C1252 1.386 . S
C1253 C1257 1.393 . S
C1254 H1246 0.950 . S
C1254 C1252 1.391 . S
C1254 C1255 1.400 . S
C1255 C1254 1.400 . S
C1255 C1256 1.398 . S
C1255 C1261 1.491 . S
C1256 H1247 0.950 . S
C1256 C1255 1.398 . S
C1256 C1257 1.391 . S
C1257 H1245 0.950 . S
C1257 C1253 1.393 . S
C1257 C1256 1.391 . S
C1258 H1248 0.950 . S
C1258 C1259 1.386 . S
C1258 C1260 1.391 . S
C1259 C1258 1.386 . S
C1259 C1263 1.393 . S
C1260 H1249 0.950 . S
C1260 C1258 1.391 . S
C1260 C1261 1.400 . S
C1261 C1255 1.491 . S
C1261 C1260 1.400 . S
C1261 C1262 1.398 . S
C1262 H1250 0.950 . S
C1262 C1261 1.398 . S
C1262 C1263 1.391 . S
C1263 H1251 0.950 . S
C1263 C1259 1.393 . S
C1263 C1262 1.391 . S
H1264 C1272 0.950 . S
H1265 C1277 0.950 . S
H1266 C1274 0.950 . S
H1267 C1276 0.950 . S
H1268 C1278 0.950 . S
H1269 C1280 0.950 . S
H1270 C1282 0.950 . S
H1271 C1283 0.950 . S
C1272 H1264 0.950 . S
C1272 C1273 1.386 . S
C1272 C1274 1.391 . S
C1273 C1272 1.386 . S
C1273 C1277 1.393 . S
C1274 H1266 0.950 . S
C1274 C1272 1.391 . S
C1274 C1275 1.400 . S
C1275 C1274 1.400 . S
C1275 C1276 1.398 . S
C1275 C1281 1.491 . S
C1276 H1267 0.950 . S
C1276 C1275 1.398 . S
C1276 C1277 1.391 . S
C1277 H1265 0.950 . S
C1277 C1273 1.393 . S
C1277 C1276 1.391 . S
C1278 H1268 0.950 . S
C1278 C1279 1.386 . S
C1278 C1280 1.391 . S
C1279 C1278 1.386 . S
C1279 C1283 1.393 . S
C1280 H1269 0.950 . S
C1280 C1278 1.391 . S
C1280 C1281 1.400 . S
C1281 C1275 1.491 . S
C1281 C1280 1.400 . S
C1281 C1282 1.398 . S
C1282 H1270 0.950 . S
C1282 C1281 1.398 . S
C1282 C1283 1.391 . S
C1283 H1271 0.950 . S
C1283 C1279 1.393 . S
C1283 C1282 1.391 . S
H1284 C1292 0.950 . S
H1285 C1297 0.950 . S
H1286 C1294 0.950 . S
H1287 C1296 0.950 . S
H1288 C1298 0.950 . S
H1289 C1300 0.950 . S
H1290 C1302 0.950 . S
H1291 C1303 0.950 . S
C1292 H1284 0.950 . S
C1292 C1293 1.386 . S
C1292 C1294 1.391 . S
C1293 C1292 1.386 . S
C1293 C1297 1.393 . S
C1294 H1286 0.950 . S
C1294 C1292 1.391 . S
C1294 C1295 1.400 . S
C1295 C1294 1.400 . S
C1295 C1296 1.398 . S
C1295 C1301 1.491 . S
C1296 H1287 0.950 . S
C1296 C1295 1.398 . S
C1296 C1297 1.391 . S
C1297 H1285 0.950 . S
C1297 C1293 1.393 . S
C1297 C1296 1.391 . S
C1298 H1288 0.950 . S
C1298 C1299 1.386 . S
C1298 C1300 1.391 . S
C1299 C1298 1.386 . S
C1299 C1303 1.393 . S
C1300 H1289 0.950 . S
C1300 C1298 1.391 . S
C1300 C1301 1.400 . S
C1301 C1295 1.491 . S
C1301 C1300 1.400 . S
C1301 C1302 1.398 . S
C1302 H1290 0.950 . S
C1302 C1301 1.398 . S
C1302 C1303 1.391 . S
C1303 H1291 0.950 . S
C1303 C1299 1.393 . S
C1303 C1302 1.391 . S
H1304 C1312 0.950 . S
H1305 C1317 0.950 . S
H1306 C1314 0.950 . S
H1307 C1316 0.950 . S
H1308 C1318 0.950 . S
H1309 C1320 0.950 . S
H1310 C1322 0.950 . S
H1311 C1323 0.950 . S
C1312 H1304 0.950 . S
C1312 C1313 1.386 . S
C1312 C1314 1.391 . S
C1313 C1312 1.386 . S
C1313 C1317 1.393 . S
C1314 H1306 0.950 . S
C1314 C1312 1.391 . S
C1314 C1315 1.400 . S
C1315 C1314 1.400 . S
C1315 C1316 1.398 . S
C1315 C1321 1.491 . S
C1316 H1307 0.950 . S
C1316 C1315 1.398 . S
C1316 C1317 1.391 . S
C1317 H1305 0.950 . S
C1317 C1313 1.393 . S
C1317 C1316 1.391 . S
C1318 H1308 0.950 . S
C1318 C1319 1.386 . S
C1318 C1320 1.391 . S
C1319 C1318 1.386 . S
C1319 C1323 1.393 . S
C1320 H1309 0.950 . S
C1320 C1318 1.391 . S
C1320 C1321 1.400 . S
C1321 C1315 1.491 . S
C1321 C1320 1.400 . S
C1321 C1322 1.398 . S
C1322 H1310 0.950 . S
C1322 C1321 1.398 . S
C1322 C1323 1.391 . S
C1323 H1311 0.950 . S
C1323 C1319 1.393 . S
C1323 C1322 1.391 . S
H1324 C1332 0.950 . S
H1325 C1337 0.950 . S
H1326 C1334 0.950 . S
H1327 C1336 0.950 . S
H1328 C1338 0.950 . S
H1329 C1340 0.950 . S
H1330 C1342 0.950 . S
H1331 C1343 0.950 . S
C1332 H1324 0.950 . S
C1332 C1333 1.386 . S
C1332 C1334 1.391 . S
C1333 C1332 1.386 . S
C1333 C1337 1.393 . S
C1334 H1326 0.950 . S
C1334 C1332 1.391 . S
C1334 C1335 1.400 . S
C1335 C1334 1.400 . S
C1335 C1336 1.398 . S
C1335 C1341 1.491 . S
C1336 H1327 0.950 . S
C1336 C1335 1.398 . S
C1336 C1337 1.391 . S
C1337 H1325 0.950 . S
C1337 C1333 1.393 . S
C1337 C1336 1.391 . S
C1338 H1328 0.950 . S
C1338 C1339 1.386 . S
C1338 C1340 1.391 . S
C1339 C1338 1.386 . S
C1339 C1343 1.393 . S
C1340 H1329 0.950 . S
C1340 C1338 1.391 . S
C1340 C1341 1.400 . S
C1341 C1335 1.491 . S
C1341 C1340 1.400 . S
C1341 C1342 1.398 . S
C1342 H1330 0.950 . S
C1342 C1341 1.398 . S
C1342 C1343 1.391 . S
C1343 H1331 0.950 . S
C1343 C1339 1.393 . S
C1343 C1342 1.391 . S
H1344 C1352 0.950 . S
H1345 C1357 0.950 . S
H1346 C1354 0.950 . S
H1347 C1356 0.950 . S
H1348 C1358 0.950 . S
H1349 C1360 0.950 . S
H1350 C1362 0.950 . S
H1351 C1363 0.950 . S
C1352 H1344 0.950 . S
C1352 C1353 1.386 . S
C1352 C1354 1.391 . S
C1353 C1352 1.386 . S
C1353 C1357 1.393 . S
C1354 H1346 0.950 . S
C1354 C1352 1.391 . S
C1354 C1355 1.400 . S
C1355 C1354 1.400 . S
C1355 C1356 1.398 . S
C1355 C1361 1.491 . S
C1356 H1347 0.950 . S
C1356 C1355 1.398 . S
C1356 C1357 1.391 . S
C1357 H1345 0.950 . S
C1357 C1353 1.393 . S
C1357 C1356 1.391 . S
C1358 H1348 0.950 . S
C1358 C1359 1.386 . S
C1358 C1360 1.391 . S
C1359 C1358 1.386 . S
C1359 C1363 1.393 . S
C1360 H1349 0.950 . S
C1360 C1358 1.391 . S
C1360 C1361 1.400 . S
C1361 C1355 1.491 . S
C1361 C1360 1.400 . S
C1361 C1362 1.398 . S
C1362 H1350 0.950 . S
C1362 C1361 1.398 . S
C1362 C1363 1.391 . S
C1363 H1351 0.950 . S
C1363 C1359 1.393 . S
C1363 C1362 1.391 . S
H1364 C1372 0.950 . S
H1365 C1377 0.950 . S
H1366 C1374 0.950 . S
H1367 C1376 0.950 . S
H1368 C1378 0.950 . S
H1369 C1380 0.950 . S
H1370 C1382 0.950 . S
H1371 C1383 0.950 . S
C1372 H1364 0.950 . S
C1372 C1373 1.386 . S
C1372 C1374 1.391 . S
C1373 C1372 1.386 . S
C1373 C1377 1.393 . S
C1374 H1366 0.950 . S
C1374 C1372 1.391 . S
C1374 C1375 1.400 . S
C1375 C1374 1.400 . S
C1375 C1376 1.398 . S
C1375 C1381 1.491 . S
C1376 H1367 0.950 . S
C1376 C1375 1.398 . S
C1376 C1377 1.391 . S
C1377 H1365 0.950 . S
C1377 C1373 1.393 . S
C1377 C1376 1.391 . S
C1378 H1368 0.950 . S
C1378 C1379 1.386 . S
C1378 C1380 1.391 . S
C1379 C1378 1.386 . S
C1379 C1383 1.393 . S
C1380 H1369 0.950 . S
C1380 C1378 1.391 . S
C1380 C1381 1.400 . S
C1381 C1375 1.491 . S
C1381 C1380 1.400 . S
C1381 C1382 1.398 . S
C1382 H1370 0.950 . S
C1382 C1381 1.398 . S
C1382 C1383 1.391 . S
C1383 H1371 0.950 . S
C1383 C1379 1.393 . S
C1383 C1382 1.391 . S
H1384 C1392 0.950 . S
H1385 C1397 0.950 . S
H1386 C1394 0.950 . S
H1387 C1396 0.950 . S
H1388 C1398 0.950 . S
H1389 C1400 0.950 . S
H1390 C1402 0.950 . S
H1391 C1403 0.950 . S
C1392 H1384 0.950 . S
C1392 C1393 1.386 . S
C1392 C1394 1.391 . S
C1393 C1392 1.386 . S
C1393 C1397 1.393 . S
C1394 H1386 0.950 . S
C1394 C1392 1.391 . S
C1394 C1395 1.400 . S
C1395 C1394 1.400 . S
C1395 C1396 1.398 . S
C1395 C1401 1.491 . S
C1396 H1387 0.950 . S
C1396 C1395 1.398 . S
C1396 C1397 1.391 . S
C1397 H1385 0.950 . S
C1397 C1393 1.393 . S
C1397 C1396 1.391 . S
C1398 H1388 0.950 . S
C1398 C1399 1.386 . S
C1398 C1400 1.391 . S
C1399 C1398 1.386 . S
C1399 C1403 1.393 . S
C1400 H1389 0.950 . S
C1400 C1398 1.391 . S
C1400 C1401 1.400 . S
C1401 C1395 1.491 . S
C1401 C1400 1.400 . S
C1401 C1402 1.398 . S
C1402 H1390 0.950 . S
C1402 C1401 1.398 . S
C1402 C1403 1.391 . S
C1403 H1391 0.950 . S
C1403 C1399 1.393 . S
C1403 C1402 1.391 . S
H1404 C1412 0.950 . S
H1405 C1417 0.950 . S
H1406 C1414 0.950 . S
H1407 C1416 0.950 . S
H1408 C1418 0.950 . S
H1409 C1420 0.950 . S
H1410 C1422 0.950 . S
H1411 C1423 0.950 . S
C1412 H1404 0.950 . S
C1412 C1413 1.386 . S
C1412 C1414 1.391 . S
C1413 C1412 1.386 . S
C1413 C1417 1.393 . S
C1414 H1406 0.950 . S
C1414 C1412 1.391 . S
C1414 C1415 1.400 . S
C1415 C1414 1.400 . S
C1415 C1416 1.398 . S
C1415 C1421 1.491 . S
C1416 H1407 0.950 . S
C1416 C1415 1.398 . S
C1416 C1417 1.391 . S
C1417 H1405 0.950 . S
C1417 C1413 1.393 . S
C1417 C1416 1.391 . S
C1418 H1408 0.950 . S
C1418 C1419 1.386 . S
C1418 C1420 1.391 . S
C1419 C1418 1.386 . S
C1419 C1423 1.393 . S
C1420 H1409 0.950 . S
C1420 C1418 1.391 . S
C1420 C1421 1.400 . S
C1421 C1415 1.491 . S
C1421 C1420 1.400 . S
C1421 C1422 1.398 . S
C1422 H1410 0.950 . S
C1422 C1421 1.398 . S
C1422 C1423 1.391 . S
C1423 H1411 0.950 . S
C1423 C1419 1.393 . S
C1423 C1422 1.391 . S
H1424 C1432 0.950 . S
H1425 C1437 0.950 . S
H1426 C1434 0.950 . S
H1427 C1436 0.950 . S
H1428 C1438 0.950 . S
H1429 C1440 0.950 . S
H1430 C1442 0.950 . S
H1431 C1443 0.950 . S
C1432 H1424 0.950 . S
C1432 C1433 1.386 . S
C1432 C1434 1.391 . S
C1433 C1432 1.386 . S
C1433 C1437 1.393 . S
C1434 H1426 0.950 . S
C1434 C1432 1.391 . S
C1434 C1435 1.400 . S
C1435 C1434 1.400 . S
C1435 C1436 1.398 . S
C1435 C1441 1.491 . S
C1436 H1427 0.950 . S
C1436 C1435 1.398 . S
C1436 C1437 1.391 . S
C1437 H1425 0.950 . S
C1437 C1433 1.393 . S
C1437 C1436 1.391 . S
C1438 H1428 0.950 . S
C1438 C1439 1.386 . S
C1438 C1440 1.391 . S
C1439 C1438 1.386 . S
C1439 C1443 1.393 . S
C1440 H1429 0.950 . S
C1440 C1438 1.391 . S
C1440 C1441 1.400 . S
C1441 C1435 1.491 . S
C1441 C1440 1.400 . S
C1441 C1442 1.398 . S
C1442 H1430 0.950 . S
C1442 C1441 1.398 . S
C1442 C1443 1.391 . S
C1443 H1431 0.950 . S
C1443 C1439 1.393 . S
C1443 C1442 1.391 . S
H1444 C1452 0.950 . S
H1445 C1457 0.950 . S
H1446 C1454 0.950 . S
H1447 C1456 0.950 . S
H1448 C1458 0.950 . S
H1449 C1460 0.950 . S
H1450 C1462 0.950 . S
H1451 C1463 0.950 . S
C1452 H1444 0.950 . S
C1452 C1453 1.386 . S
C1452 C1454 1.391 . S
C1453 C1452 1.386 . S
C1453 C1457 1.393 . S
C1454 H1446 0.950 . S
C1454 C1452 1.391 . S
C1454 C1455 1.400 . S
C1455 C1454 1.400 . S
C1455 C1456 1.398 . S
C1455 C1461 1.491 . S
C1456 H1447 0.950 . S
C1456 C1455 1.398 . S
C1456 C1457 1.391 . S
C1457 H1445 0.950 . S
C1457 C1453 1.393 . S
C1457 C1456 1.391 . S
C1458 H1448 0.950 . S
C1458 C1459 1.386 . S
C1458 C1460 1.391 . S
C1459 C1458 1.386 . S
C1459 C1463 1.393 . S
C1460 H1449 0.950 . S
C1460 C1458 1.391 . S
C1460 C1461 1.400 . S
C1461 C1455 1.491 . S
C1461 C1460 1.400 . S
C1461 C1462 1.398 . S
C1462 H1450 0.950 . S
C1462 C1461 1.398 . S
C1462 C1463 1.391 . S
C1463 H1451 0.950 . S
C1463 C1459 1.393 . S
C1463 C1462 1.391 . S
H1464 C1472 0.950 . S
H1465 C1477 0.950 . S
H1466 C1474 0.950 . S
H1467 C1476 0.950 . S
H1468 C1478 0.950 . S
H1469 C1480 0.950 . S
H1470 C1482 0.950 . S
H1471 C1483 0.950 . S
C1472 H1464 0.950 . S
C1472 C1473 1.386 . S
C1472 C1474 1.391 . S
C1473 C1472 1.386 . S
C1473 C1477 1.393 . S
C1474 H1466 0.950 . S
C1474 C1472 1.391 . S
C1474 C1475 1.400 . S
C1475 C1474 1.400 . S
C1475 C1476 1.398 . S
C1475 C1481 1.491 . S
C1476 H1467 0.950 . S
C1476 C1475 1.398 . S
C1476 C1477 1.391 . S
C1477 H1465 0.950 . S
C1477 C1473 1.393 . S
C1477 C1476 1.391 . S
C1478 H1468 0.950 . S
C1478 C1479 1.386 . S
C1478 C1480 1.391 . S
C1479 C1478 1.386 . S
C1479 C1483 1.393 . S
C1480 H1469 0.950 . S
C1480 C1478 1.391 . S
C1480 C1481 1.400 . S
C1481 C1475 1.491 . S
C1481 C1480 1.400 . S
C1481 C1482 1.398 . S
C1482 H1470 0.950 . S
C1482 C1481 1.398 . S
C1482 C1483 1.391 . S
C1483 H1471 0.950 . S
C1483 C1479 1.393 . S
C1483 C1482 1.391 . S
H1484 C1492 0.950 . S
H1485 C1497 0.950 . S
H1486 C1494 0.950 . S
H1487 C1496 0.950 . S
H1488 C1498 0.950 . S
H1489 C1500 0.950 . S
H1490 C1502 0.950 . S
H1491 C1503 0.950 . S
C1492 H1484 0.950 . S
C1492 C1493 1.386 . S
C1492 C1494 1.391 . S
C1493 C1492 1.386 . S
C1493 C1497 1.393 . S
C1494 H1486 0.950 . S
C1494 C1492 1.391 . S
C1494 C1495 1.400 . S
C1495 C1494 1.400 . S
C1495 C1496 1.398 . S
C1495 C1501 1.491 . S
C1496 H1487 0.950 . S
C1496 C1495 1.398 . S
C1496 C1497 1.391 . S
C1497 H1485 0.950 . S
C1497 C1493 1.393 . S
C1497 C1496 1.391 . S
C1498 H1488 0.950 . S
C1498 C1499 1.386 . S
C1498 C1500 1.391 . S
C1499 C1498 1.386 . S
C1499 C1503 1.393 . S
C1500 H1489 0.950 . S
C1500 C1498 1.391 . S
C1500 C1501 1.400 . S
C1501 C1495 1.491 . S
C1501 C1500 1.400 . S
C1501 C1502 1.398 . S
C1502 H1490 0.950 . S
C1502 C1501 1.398 . S
C1502 C1503 1.391 . S
C1503 H1491 0.950 . S
C1503 C1499 1.393 . S
C1503 C1502 1.391 . S
H1504 C1512 0.950 . S
H1505 C1517 0.950 . S
H1506 C1514 0.950 . S
H1507 C1516 0.950 . S
H1508 C1518 0.950 . S
H1509 C1520 0.950 . S
H1510 C1522 0.950 . S
H1511 C1523 0.950 . S
C1512 H1504 0.950 . S
C1512 C1513 1.386 . S
C1512 C1514 1.391 . S
C1513 C1512 1.386 . S
C1513 C1517 1.393 . S
C1514 H1506 0.950 . S
C1514 C1512 1.391 . S
C1514 C1515 1.400 . S
C1515 C1514 1.400 . S
C1515 C1516 1.398 . S
C1515 C1521 1.491 . S
C1516 H1507 0.950 . S
C1516 C1515 1.398 . S
C1516 C1517 1.391 . S
C1517 H1505 0.950 . S
C1517 C1513 1.393 . S
C1517 C1516 1.391 . S
C1518 H1508 0.950 . S
C1518 C1519 1.386 . S
C1518 C1520 1.391 . S
C1519 C1518 1.386 . S
C1519 C1523 1.393 . S
C1520 H1509 0.950 . S
C1520 C1518 1.391 . S
C1520 C1521 1.400 . S
C1521 C1515 1.491 . S
C1521 C1520 1.400 . S
C1521 C1522 1.398 . S
C1522 H1510 0.950 . S
C1522 C1521 1.398 . S
C1522 C1523 1.391 . S
C1523 H1511 0.950 . S
C1523 C1519 1.393 . S
C1523 C1522 1.391 . S
H1524 C1532 0.950 . S
H1525 C1537 0.950 . S
H1526 C1534 0.950 . S
H1527 C1536 0.950 . S
H1528 C1538 0.950 . S
H1529 C1540 0.950 . S
H1530 C1542 0.950 . S
H1531 C1543 0.950 . S
C1532 H1524 0.950 . S
C1532 C1533 1.386 . S
C1532 C1534 1.391 . S
C1533 C1532 1.386 . S
C1533 C1537 1.393 . S
C1534 H1526 0.950 . S
C1534 C1532 1.391 . S
C1534 C1535 1.400 . S
C1535 C1534 1.400 . S
C1535 C1536 1.398 . S
C1535 C1541 1.491 . S
C1536 H1527 0.950 . S
C1536 C1535 1.398 . S
C1536 C1537 1.391 . S
C1537 H1525 0.950 . S
C1537 C1533 1.393 . S
C1537 C1536 1.391 . S
C1538 H1528 0.950 . S
C1538 C1539 1.386 . S
C1538 C1540 1.391 . S
C1539 C1538 1.386 . S
C1539 C1543 1.393 . S
C1540 H1529 0.950 . S
C1540 C1538 1.391 . S
C1540 C1541 1.400 . S
C1541 C1535 1.491 . S
C1541 C1540 1.400 . S
C1541 C1542 1.398 . S
C1542 H1530 0.950 . S
C1542 C1541 1.398 . S
C1542 C1543 1.391 . S
C1543 H1531 0.950 . S
C1543 C1539 1.393 . S
C1543 C1542 1.391 . S
H1544 C1552 0.950 . S
H1545 C1557 0.950 . S
H1546 C1554 0.950 . S
H1547 C1556 0.950 . S
H1548 C1558 0.950 . S
H1549 C1560 0.950 . S
H1550 C1562 0.950 . S
H1551 C1563 0.950 . S
C1552 H1544 0.950 . S
C1552 C1553 1.386 . S
C1552 C1554 1.391 . S
C1553 C1552 1.386 . S
C1553 C1557 1.393 . S
C1554 H1546 0.950 . S
C1554 C1552 1.391 . S
C1554 C1555 1.400 . S
C1555 C1554 1.400 . S
C1555 C1556 1.398 . S
C1555 C1561 1.491 . S
C1556 H1547 0.950 . S
C1556 C1555 1.398 . S
C1556 C1557 1.391 . S
C1557 H1545 0.950 . S
C1557 C1553 1.393 . S
C1557 C1556 1.391 . S
C1558 H1548 0.950 . S
C1558 C1559 1.386 . S
C1558 C1560 1.391 . S
C1559 C1558 1.386 . S
C1559 C1563 1.393 . S
C1560 H1549 0.950 . S
C1560 C1558 1.391 . S
C1560 C1561 1.400 . S
C1561 C1555 1.491 . S
C1561 C1560 1.400 . S
C1561 C1562 1.398 . S
C1562 H1550 0.950 . S
C1562 C1561 1.398 . S
C1562 C1563 1.391 . S
C1563 H1551 0.950 . S
C1563 C1559 1.393 . S
C1563 C1562 1.391 . S
H1564 C1572 0.950 . S
H1565 C1577 0.950 . S
H1566 C1574 0.950 . S
H1567 C1576 0.950 . S
H1568 C1578 0.950 . S
H1569 C1580 0.950 . S
H1570 C1582 0.950 . S
H1571 C1583 0.950 . S
C1572 H1564 0.950 . S
C1572 C1573 1.386 . S
C1572 C1574 1.391 . S
C1573 C1572 1.386 . S
C1573 C1577 1.393 . S
C1574 H1566 0.950 . S
C1574 C1572 1.391 . S
C1574 C1575 1.400 . S
C1575 C1574 1.400 . S
C1575 C1576 1.398 . S
C1575 C1581 1.491 . S
C1576 H1567 0.950 . S
C1576 C1575 1.398 . S
C1576 C1577 1.391 . S
C1577 H1565 0.950 . S
C1577 C1573 1.393 . S
C1577 C1576 1.391 . S
C1578 H1568 0.950 . S
C1578 C1579 1.386 . S
C1578 C1580 1.391 . S
C1579 C1578 1.386 . S
C1579 C1583 1.393 . S
C1580 H1569 0.950 . S
C1580 C1578 1.391 . S
C1580 C1581 1.400 . S
C1581 C1575 1.491 . S
C1581 C1580 1.400 . S
C1581 C1582 1.398 . S
C1582 H1570 0.950 . S
C1582 C1581 1.398 . S
C1582 C1583 1.391 . S
C1583 H1571 0.950 . S
C1583 C1579 1.393 . S
C1583 C1582 1.391 . S
H1584 C1592 0.950 . S
H1585 C1597 0.950 . S
H1586 C1594 0.950 . S
H1587 C1596 0.950 . S
H1588 C1598 0.950 . S
H1589 C1600 0.950 . S
H1590 C1602 0.950 . S
H1591 C1603 0.950 . S
C1592 H1584 0.950 . S
C1592 C1593 1.386 . S
C1592 C1594 1.391 . S
C1593 C1592 1.386 . S
C1593 C1597 1.393 . S
C1594 H1586 0.950 . S
C1594 C1592 1.391 . S
C1594 C1595 1.400 . S
C1595 C1594 1.400 . S
C1595 C1596 1.398 . S
C1595 C1601 1.491 . S
C1596 H1587 0.950 . S
C1596 C1595 1.398 . S
C1596 C1597 1.391 . S
C1597 H1585 0.950 . S
C1597 C1593 1.393 . S
C1597 C1596 1.391 . S
C1598 H1588 0.950 . S
C1598 C1599 1.386 . S
C1598 C1600 1.391 . S
C1599 C1598 1.386 . S
C1599 C1603 1.393 . S
C1600 H1589 0.950 . S
C1600 C1598 1.391 . S
C1600 C1601 1.400 . S
C1601 C1595 1.491 . S
C1601 C1600 1.400 . S
C1601 C1602 1.398 . S
C1602 H1590 0.950 . S
C1602 C1601 1.398 . S
C1602 C1603 1.391 . S
C1603 H1591 0.950 . S
C1603 C1599 1.393 . S
C1603 C1602 1.391 . S
H1604 C1612 0.950 . S
H1605 C1617 0.950 . S
H1606 C1614 0.950 . S
H1607 C1616 0.950 . S
H1608 C1618 0.950 . S
H1609 C1620 0.950 . S
H1610 C1622 0.950 . S
H1611 C1623 0.950 . S
C1612 H1604 0.950 . S
C1612 C1613 1.386 . S
C1612 C1614 1.391 . S
C1613 C1612 1.386 . S
C1613 C1617 1.393 . S
C1614 H1606 0.950 . S
C1614 C1612 1.391 . S
C1614 C1615 1.400 . S
C1615 C1614 1.400 . S
C1615 C1616 1.398 . S
C1615 C1621 1.491 . S
C1616 H1607 0.950 . S
C1616 C1615 1.398 . S
C1616 C1617 1.391 . S
C1617 H1605 0.950 . S
C1617 C1613 1.393 . S
C1617 C1616 1.391 . S
C1618 H1608 0.950 . S
C1618 C1619 1.386 . S
C1618 C1620 1.391 . S
C1619 C1618 1.386 . S
C1619 C1623 1.393 . S
C1620 H1609 0.950 . S
C1620 C1618 1.391 . S
C1620 C1621 1.400 . S
C1621 C1615 1.491 . S
C1621 C1620 1.400 . S
C1621 C1622 1.398 . S
C1622 H1610 0.950 . S
C1622 C1621 1.398 . S
C1622 C1623 1.391 . S
C1623 H1611 0.950 . S
C1623 C1619 1.393 . S
C1623 C1622 1.391 . S
H1624 C1632 0.950 . S
H1625 C1637 0.950 . S
H1626 C1634 0.950 . S
H1627 C1636 0.950 . S
H1628 C1638 0.950 . S
H1629 C1640 0.950 . S
H1630 C1642 0.950 . S
H1631 C1643 0.950 . S
C1632 H1624 0.950 . S
C1632 C1633 1.386 . S
C1632 C1634 1.391 . S
C1633 C1632 1.386 . S
C1633 C1637 1.393 . S
C1634 H1626 0.950 . S
C1634 C1632 1.391 . S
C1634 C1635 1.400 . S
C1635 C1634 1.400 . S
C1635 C1636 1.398 . S
C1635 C1641 1.491 . S
C1636 H1627 0.950 . S
C1636 C1635 1.398 . S
C1636 C1637 1.391 . S
C1637 H1625 0.950 . S
C1637 C1633 1.393 . S
C1637 C1636 1.391 . S
C1638 H1628 0.950 . S
C1638 C1639 1.386 . S
C1638 C1640 1.391 . S
C1639 C1638 1.386 . S
C1639 C1643 1.393 . S
C1640 H1629 0.950 . S
C1640 C1638 1.391 . S
C1640 C1641 1.400 . S
C1641 C1635 1.491 . S
C1641 C1640 1.400 . S
C1641 C1642 1.398 . S
C1642 H1630 0.950 . S
C1642 C1641 1.398 . S
C1642 C1643 1.391 . S
C1643 H1631 0.950 . S
C1643 C1639 1.393 . S
C1643 C1642 1.391 . S
H1644 C1652 0.950 . S
H1645 C1657 0.950 . S
H1646 C1654 0.950 . S
H1647 C1656 0.950 . S
H1648 C1658 0.950 . S
H1649 C1660 0.950 . S
H1650 C1662 0.950 . S
H1651 C1663 0.950 . S
C1652 H1644 0.950 . S
C1652 C1653 1.386 . S
C1652 C1654 1.391 . S
C1653 C1652 1.386 . S
C1653 C1657 1.393 . S
C1654 H1646 0.950 . S
C1654 C1652 1.391 . S
C1654 C1655 1.400 . S
C1655 C1654 1.400 . S
C1655 C1656 1.398 . S
C1655 C1661 1.491 . S
C1656 H1647 0.950 . S
C1656 C1655 1.398 . S
C1656 C1657 1.391 . S
C1657 H1645 0.950 . S
C1657 C1653 1.393 . S
C1657 C1656 1.391 . S
C1658 H1648 0.950 . S
C1658 C1659 1.386 . S
C1658 C1660 1.391 . S
C1659 C1658 1.386 . S
C1659 C1663 1.393 . S
C1660 H1649 0.950 . S
C1660 C1658 1.391 . S
C1660 C1661 1.400 . S
C1661 C1655 1.491 . S
C1661 C1660 1.400 . S
C1661 C1662 1.398 . S
C1662 H1650 0.950 . S
C1662 C1661 1.398 . S
C1662 C1663 1.391 . S
C1663 H1651 0.950 . S
C1663 C1659 1.393 . S
C1663 C1662 1.391 . S
H1664 C1672 0.950 . S
H1665 C1677 0.950 . S
H1666 C1674 0.950 . S
H1667 C1676 0.950 . S
H1668 C1678 0.950 . S
H1669 C1680 0.950 . S
H1670 C1682 0.950 . S
H1671 C1683 0.950 . S
C1672 H1664 0.950 . S
C1672 C1673 1.386 . S
C1672 C1674 1.391 . S
C1673 C1672 1.386 . S
C1673 C1677 1.393 . S
C1674 H1666 0.950 . S
C1674 C1672 1.391 . S
C1674 C1675 1.400 . S
C1675 C1674 1.400 . S
C1675 C1676 1.398 . S
C1675 C1681 1.491 . S
C1676 H1667 0.950 . S
C1676 C1675 1.398 . S
C1676 C1677 1.391 . S
C1677 H1665 0.950 . S
C1677 C1673 1.393 . S
C1677 C1676 1.391 . S
C1678 H1668 0.950 . S
C1678 C1679 1.386 . S
C1678 C1680 1.391 . S
C1679 C1678 1.386 . S
C1679 C1683 1.393 . S
C1680 H1669 0.950 . S
C1680 C1678 1.391 . S
C1680 C1681 1.400 . S
C1681 C1675 1.491 . S
C1681 C1680 1.400 . S
C1681 C1682 1.398 . S
C1682 H1670 0.950 . S
C1682 C1681 1.398 . S
C1682 C1683 1.391 . S
C1683 H1671 0.950 . S
C1683 C1679 1.393 . S
C1683 C1682 1.391 . S
H1684 C1692 0.950 . S
H1685 C1697 0.950 . S
H1686 C1694 0.950 . S
H1687 C1696 0.950 . S
H1688 C1698 0.950 . S
H1689 C1700 0.950 . S
H1690 C1702 0.950 . S
H1691 C1703 0.950 . S
C1692 H1684 0.950 . S
C1692 C1693 1.386 . S
C1692 C1694 1.391 . S
C1693 C1692 1.386 . S
C1693 C1697 1.393 . S
C1694 H1686 0.950 . S
C1694 C1692 1.391 . S
C1694 C1695 1.400 . S
C1695 C1694 1.400 . S
C1695 C1696 1.398 . S
C1695 C1701 1.491 . S
C1696 H1687 0.950 . S
C1696 C1695 1.398 . S
C1696 C1697 1.391 . S
C1697 H1685 0.950 . S
C1697 C1693 1.393 . S
C1697 C1696 1.391 . S
C1698 H1688 0.950 . S
C1698 C1699 1.386 . S
C1698 C1700 1.391 . S
C1699 C1698 1.386 . S
C1699 C1703 1.393 . S
C1700 H1689 0.950 . S
C1700 C1698 1.391 . S
C1700 C1701 1.400 . S
C1701 C1695 1.491 . S
C1701 C1700 1.400 . S
C1701 C1702 1.398 . S
C1702 H1690 0.950 . S
C1702 C1701 1.398 . S
C1702 C1703 1.391 . S
C1703 H1691 0.950 . S
C1703 C1699 1.393 . S
C1703 C1702 1.391 . S
H1704 C1712 0.950 . S
H1705 C1717 0.950 . S
H1706 C1714 0.950 . S
H1707 C1716 0.950 . S
H1708 C1718 0.950 1_455 S
H1709 C1720 0.950 . S
H1710 C1722 0.950 . S
H1711 C1723 0.950 . S
C1712 H1704 0.950 . S
C1712 C1713 1.386 . S
C1712 C1714 1.391 . S
C1713 C1712 1.386 . S
C1713 C1717 1.393 . S
C1714 H1706 0.950 . S
C1714 C1712 1.391 . S
C1714 C1715 1.400 . S
C1715 C1714 1.400 . S
C1715 C1716 1.398 . S
C1715 C1721 1.491 . S
C1716 H1707 0.950 . S
C1716 C1715 1.398 . S
C1716 C1717 1.391 . S
C1717 H1705 0.950 . S
C1717 C1713 1.393 . S
C1717 C1716 1.391 . S
C1718 H1708 0.950 1_655 S
C1718 C1719 1.386 . S
C1718 C1720 1.391 . S
C1719 C1718 1.386 . S
C1719 C1723 1.393 . S
C1720 H1709 0.950 . S
C1720 C1718 1.391 . S
C1720 C1721 1.400 . S
C1721 C1715 1.491 . S
C1721 C1720 1.400 . S
C1721 C1722 1.398 . S
C1722 H1710 0.950 . S
C1722 C1721 1.398 . S
C1722 C1723 1.391 . S
C1723 H1711 0.950 . S
C1723 C1719 1.393 . S
C1723 C1722 1.391 . S
H1724 C1732 0.950 . S
H1725 C1737 0.950 . S
H1726 C1734 0.950 . S
H1727 C1736 0.950 . S
H1728 C1738 0.950 . S
H1729 C1740 0.950 . S
H1730 C1742 0.950 . S
H1731 C1743 0.950 . S
C1732 H1724 0.950 . S
C1732 C1733 1.386 . S
C1732 C1734 1.391 . S
C1733 C1732 1.386 . S
C1733 C1737 1.393 . S
C1734 H1726 0.950 . S
C1734 C1732 1.391 . S
C1734 C1735 1.400 . S
C1735 C1734 1.400 . S
C1735 C1736 1.398 . S
C1735 C1741 1.491 . S
C1736 H1727 0.950 . S
C1736 C1735 1.398 . S
C1736 C1737 1.391 . S
C1737 H1725 0.950 . S
C1737 C1733 1.393 . S
C1737 C1736 1.391 . S
C1738 H1728 0.950 . S
C1738 C1739 1.386 . S
C1738 C1740 1.391 . S
C1739 C1738 1.386 . S
C1739 C1743 1.393 . S
C1740 H1729 0.950 . S
C1740 C1738 1.391 . S
C1740 C1741 1.400 . S
C1741 C1735 1.491 . S
C1741 C1740 1.400 . S
C1741 C1742 1.398 . S
C1742 H1730 0.950 . S
C1742 C1741 1.398 . S
C1742 C1743 1.391 . S
C1743 H1731 0.950 . S
C1743 C1739 1.393 . S
C1743 C1742 1.391 . S
H1744 C1752 0.950 . S
H1745 C1757 0.950 . S
H1746 C1754 0.950 . S
H1747 C1756 0.950 . S
H1748 C1758 0.950 . S
H1749 C1760 0.950 . S
H1750 C1762 0.950 . S
H1751 C1763 0.950 . S
C1752 H1744 0.950 . S
C1752 C1753 1.386 . S
C1752 C1754 1.391 . S
C1753 C1752 1.386 . S
C1753 C1757 1.393 . S
C1754 H1746 0.950 . S
C1754 C1752 1.391 . S
C1754 C1755 1.400 . S
C1755 C1754 1.400 . S
C1755 C1756 1.398 . S
C1755 C1761 1.491 . S
C1756 H1747 0.950 . S
C1756 C1755 1.398 . S
C1756 C1757 1.391 . S
C1757 H1745 0.950 . S
C1757 C1753 1.393 . S
C1757 C1756 1.391 . S
C1758 H1748 0.950 . S
C1758 C1759 1.386 . S
C1758 C1760 1.391 . S
C1759 C1758 1.386 . S
C1759 C1763 1.393 . S
C1760 H1749 0.950 . S
C1760 C1758 1.391 . S
C1760 C1761 1.400 . S
C1761 C1755 1.491 . S
C1761 C1760 1.400 . S
C1761 C1762 1.398 . S
C1762 H1750 0.950 . S
C1762 C1761 1.398 . S
C1762 C1763 1.391 . S
C1763 H1751 0.950 . S
C1763 C1759 1.393 . S
C1763 C1762 1.391 . S
H1764 C1772 0.950 . S
H1765 C1777 0.950 . S
H1766 C1774 0.950 . S
H1767 C1776 0.950 . S
H1768 C1778 0.950 . S
H1769 C1780 0.950 . S
H1770 C1782 0.950 . S
H1771 C1783 0.950 . S
C1772 H1764 0.950 . S
C1772 C1773 1.386 . S
C1772 C1774 1.391 . S
C1773 C1772 1.386 . S
C1773 C1777 1.393 . S
C1774 H1766 0.950 . S
C1774 C1772 1.391 . S
C1774 C1775 1.400 . S
C1775 C1774 1.400 . S
C1775 C1776 1.398 . S
C1775 C1781 1.491 . S
C1776 H1767 0.950 . S
C1776 C1775 1.398 . S
C1776 C1777 1.391 . S
C1777 H1765 0.950 . S
C1777 C1773 1.393 . S
C1777 C1776 1.391 . S
C1778 H1768 0.950 . S
C1778 C1779 1.386 . S
C1778 C1780 1.391 . S
C1779 C1778 1.386 . S
C1779 C1783 1.393 . S
C1780 H1769 0.950 . S
C1780 C1778 1.391 . S
C1780 C1781 1.400 . S
C1781 C1775 1.491 . S
C1781 C1780 1.400 . S
C1781 C1782 1.398 . S
C1782 H1770 0.950 . S
C1782 C1781 1.398 . S
C1782 C1783 1.391 . S
C1783 H1771 0.950 . S
C1783 C1779 1.393 . S
C1783 C1782 1.391 . S
H1784 C1792 0.950 . S
H1785 C1797 0.950 . S
H1786 C1794 0.950 . S
H1787 C1796 0.950 . S
H1788 C1798 0.950 . S
H1789 C1800 0.950 . S
H1790 C1802 0.950 . S
H1791 C1803 0.950 . S
C1792 H1784 0.950 . S
C1792 C1793 1.386 . S
C1792 C1794 1.391 . S
C1793 C1792 1.386 . S
C1793 C1797 1.393 . S
C1794 H1786 0.950 . S
C1794 C1792 1.391 . S
C1794 C1795 1.400 . S
C1795 C1794 1.400 . S
C1795 C1796 1.398 . S
C1795 C1801 1.491 . S
C1796 H1787 0.950 . S
C1796 C1795 1.398 . S
C1796 C1797 1.391 . S
C1797 H1785 0.950 . S
C1797 C1793 1.393 . S
C1797 C1796 1.391 . S
C1798 H1788 0.950 . S
C1798 C1799 1.386 . S
C1798 C1800 1.391 . S
C1799 C1798 1.386 . S
C1799 C1803 1.393 . S
C1800 H1789 0.950 . S
C1800 C1798 1.391 . S
C1800 C1801 1.400 . S
C1801 C1795 1.491 . S
C1801 C1800 1.400 . S
C1801 C1802 1.398 . S
C1802 H1790 0.950 . S
C1802 C1801 1.398 . S
C1802 C1803 1.391 . S
C1803 H1791 0.950 . S
C1803 C1799 1.393 . S
C1803 C1802 1.391 . S
H1804 C1812 0.950 . S
H1805 C1817 0.950 . S
H1806 C1814 0.950 . S
H1807 C1816 0.950 . S
H1808 C1818 0.950 . S
H1809 C1820 0.950 . S
H1810 C1822 0.950 . S
H1811 C1823 0.950 . S
C1812 H1804 0.950 . S
C1812 C1813 1.386 . S
C1812 C1814 1.391 . S
C1813 C1812 1.386 . S
C1813 C1817 1.393 . S
C1814 H1806 0.950 . S
C1814 C1812 1.391 . S
C1814 C1815 1.400 . S
C1815 C1814 1.400 . S
C1815 C1816 1.398 . S
C1815 C1821 1.491 . S
C1816 H1807 0.950 . S
C1816 C1815 1.398 . S
C1816 C1817 1.391 . S
C1817 H1805 0.950 . S
C1817 C1813 1.393 . S
C1817 C1816 1.391 . S
C1818 H1808 0.950 . S
C1818 C1819 1.386 . S
C1818 C1820 1.391 . S
C1819 C1818 1.386 . S
C1819 C1823 1.393 . S
C1820 H1809 0.950 . S
C1820 C1818 1.391 . S
C1820 C1821 1.400 . S
C1821 C1815 1.491 . S
C1821 C1820 1.400 . S
C1821 C1822 1.398 . S
C1822 H1810 0.950 . S
C1822 C1821 1.398 . S
C1822 C1823 1.391 . S
C1823 H1811 0.950 . S
C1823 C1819 1.393 . S
C1823 C1822 1.391 . S
C879 C689 1.519 . S
C873 C75 1.428 . S
C899 C694 0.637 . S
C893 C156 0.704 . S
C919 C695 1.541 . S
C913 C243 1.433 . S
C933 C315 0.781 . S
C939 C699 0.764 . S
C953 C399 0.880 . S
C959 C702 0.544 . S
C979 C703 1.514 . S
C973 C495 1.389 . S
C993 C576 1.170 . S
C999 C680 1.245 . S
C1013 C654 1.403 . S
C1019 C696 1.495 . S
C1039 C734 0.879 . S
C1033 C72 0.893 . S
C1053 C140 1.298 . S
C1059 C760 1.311 . S
C1079 C712 0.872 . S
C1073 C240 0.901 . S
C1099 C767 0.995 . S
C1093 C318 0.969 . S
C1113 C402 0.992 . S
C1119 C721 0.998 . S
C1139 C763 1.544 1_556 S
C1133 C492 1.472 . S
C1153 C560 1.304 . S
C1159 C727 1.364 . S
C1173 C655 2.641 . S
C1179 C758 2.735 . S
C1193 C56 2.891 . S
C1199 C766 2.966 . S
C1213 C403 1.696 . S
C1219 C753 1.752 . S
C1239 C731 2.160 . S
C1233 C476 2.091 . S
C1259 C759 1.828 . S
C1253 C579 1.788 . S
C1273 C651 1.108 . S
C1279 C726 1.135 . S
C1293 C224 2.968 . S
C1299 C744 3.063 . S
C1319 C735 1.735 . S
C1313 C319 1.661 . S
C1333 C159 1.824 . S
C1339 C728 1.872 . S
C1353 C663 1.362 . S
C1359 C790 1.411 . S
C1373 C408 0.912 . S
C1379 C785 0.398 . S
C1399 C799 1.398 . S
C1393 C486 1.378 . S
C1419 C776 1.229 . S
C1413 C567 1.122 . S
C1433 C147 0.679 . S
C1439 C792 0.529 . S
C1459 C791 1.423 . S
C1453 C234 1.390 . S
C1473 C324 0.776 . S
C1479 C795 0.729 . S
C1493 C66 1.400 . S
C1499 C798 1.439 . S
C1513 C660 1.146 . S
C1519 C824 1.204 . S
C1539 C840 1.715 . S
C1533 C392 1.728 . S
C1553 C487 2.087 . S
C1559 C822 2.232 . S
C1573 C570 1.780 . S
C1579 C855 1.772 . S
C1599 C831 1.829 . S
C1593 C150 1.816 . S
C1613 C235 3.018 . S
C1619 C849 3.105 . S
C1639 C827 1.651 . S
C1633 C308 1.641 . S
C1659 C862 3.040 . S
C1653 C67 2.926 . S
C1679 C854 2.757 . S
C1673 C644 2.684 . S
C1693 C151 1.313 . S
C1699 C859 1.352 . S
C1713 C231 0.879 . S
C1719 C830 0.916 . S
C1739 C863 1.018 . S
C1733 C327 0.982 . S
C1753 C63 0.884 . S
C1759 C817 0.915 . S
C1773 C483 1.464 . S
C1779 C856 1.559 . S
C1799 C808 1.358 . S
C1793 C571 1.277 . S
C1819 C823 0.949 . S
C1813 C411 0.942 . S
