# Generated by pormake.
# Topology ibd, (4,6)-cn, num edge types: 1
# Building blocks:
#     Node 0, Type 0, BuildingBlock: KUFVIS_clean_sbu_0, # of connection points: 4
#     Node 1, Type 0, BuildingBlock: KUFVIS_clean_sbu_0, # of connection points: 4
#     Node 2, Type 0, BuildingBlock: KUFVIS_clean_sbu_0, # of connection points: 4
#     Node 3, Type 0, BuildingBlock: KUFVIS_clean_sbu_0, # of connection points: 4
#     Node 4, Type 0, BuildingBlock: KUFVIS_clean_sbu_0, # of connection points: 4
#     Node 5, Type 0, BuildingBlock: KUFVIS_clean_sbu_0, # of connection points: 4
#     Node 6, Type 0, BuildingBlock: KUFVIS_clean_sbu_0, # of connection points: 4
#     Node 7, Type 0, BuildingBlock: KUFVIS_clean_sbu_0, # of connection points: 4
#     Node 8, Type 0, BuildingBlock: KUFVIS_clean_sbu_0, # of connection points: 4
#     Node 9, Type 0, BuildingBlock: KUFVIS_clean_sbu_0, # of connection points: 4
#     Node 10, Type 0, BuildingBlock: KUFVIS_clean_sbu_0, # of connection points: 4
#     Node 11, Type 0, BuildingBlock: KUFVIS_clean_sbu_0, # of connection points: 4
#     Node 12, Type 0, BuildingBlock: KUFVIS_clean_sbu_0, # of connection points: 4
#     Node 13, Type 0, BuildingBlock: KUFVIS_clean_sbu_0, # of connection points: 4
#     Node 14, Type 0, BuildingBlock: KUFVIS_clean_sbu_0, # of connection points: 4
#     Node 15, Type 0, BuildingBlock: KUFVIS_clean_sbu_0, # of connection points: 4
#     Node 16, Type 0, BuildingBlock: KUFVIS_clean_sbu_0, # of connection points: 4
#     Node 17, Type 0, BuildingBlock: KUFVIS_clean_sbu_0, # of connection points: 4
#     Node 18, Type 0, BuildingBlock: KUFVIS_clean_sbu_0, # of connection points: 4
#     Node 19, Type 0, BuildingBlock: KUFVIS_clean_sbu_0, # of connection points: 4
#     Node 20, Type 0, BuildingBlock: KUFVIS_clean_sbu_0, # of connection points: 4
#     Node 21, Type 0, BuildingBlock: KUFVIS_clean_sbu_0, # of connection points: 4
#     Node 22, Type 0, BuildingBlock: KUFVIS_clean_sbu_0, # of connection points: 4
#     Node 23, Type 0, BuildingBlock: KUFVIS_clean_sbu_0, # of connection points: 4
#     Node 24, Type 1, BuildingBlock: IZENUY_clean_sbu_0, # of connection points: 6
#     Node 25, Type 1, BuildingBlock: IZENUY_clean_sbu_0, # of connection points: 6
#     Node 26, Type 1, BuildingBlock: IZENUY_clean_sbu_0, # of connection points: 6
#     Node 27, Type 1, BuildingBlock: IZENUY_clean_sbu_0, # of connection points: 6
#     Node 28, Type 1, BuildingBlock: IZENUY_clean_sbu_0, # of connection points: 6
#     Node 29, Type 1, BuildingBlock: IZENUY_clean_sbu_0, # of connection points: 6
#     Node 30, Type 1, BuildingBlock: IZENUY_clean_sbu_0, # of connection points: 6
#     Node 31, Type 1, BuildingBlock: IZENUY_clean_sbu_0, # of connection points: 6
#     Node 32, Type 1, BuildingBlock: IZENUY_clean_sbu_0, # of connection points: 6
#     Node 33, Type 1, BuildingBlock: IZENUY_clean_sbu_0, # of connection points: 6
#     Node 34, Type 1, BuildingBlock: IZENUY_clean_sbu_0, # of connection points: 6
#     Node 35, Type 1, BuildingBlock: IZENUY_clean_sbu_0, # of connection points: 6
#     Node 36, Type 1, BuildingBlock: IZENUY_clean_sbu_0, # of connection points: 6
#     Node 37, Type 1, BuildingBlock: IZENUY_clean_sbu_0, # of connection points: 6
#     Node 38, Type 1, BuildingBlock: IZENUY_clean_sbu_0, # of connection points: 6
#     Node 39, Type 1, BuildingBlock: IZENUY_clean_sbu_0, # of connection points: 6
#     Edge 40, Type (0, 1), BuildingBlock: OJICUG_clean_linker_0, # of connection points: 2
#     Edge 41, Type (0, 1), BuildingBlock: OJICUG_clean_linker_0, # of connection points: 2
#     Edge 42, Type (0, 1), BuildingBlock: OJICUG_clean_linker_0, # of connection points: 2
#     Edge 43, Type (0, 1), BuildingBlock: OJICUG_clean_linker_0, # of connection points: 2
#     Edge 44, Type (0, 1), BuildingBlock: OJICUG_clean_linker_0, # of connection points: 2
#     Edge 45, Type (0, 1), BuildingBlock: OJICUG_clean_linker_0, # of connection points: 2
#     Edge 46, Type (0, 1), BuildingBlock: OJICUG_clean_linker_0, # of connection points: 2
#     Edge 47, Type (0, 1), BuildingBlock: OJICUG_clean_linker_0, # of connection points: 2
#     Edge 48, Type (0, 1), BuildingBlock: OJICUG_clean_linker_0, # of connection points: 2
#     Edge 49, Type (0, 1), BuildingBlock: OJICUG_clean_linker_0, # of connection points: 2
#     Edge 50, Type (0, 1), BuildingBlock: OJICUG_clean_linker_0, # of connection points: 2
#     Edge 51, Type (0, 1), BuildingBlock: OJICUG_clean_linker_0, # of connection points: 2
#     Edge 52, Type (0, 1), BuildingBlock: OJICUG_clean_linker_0, # of connection points: 2
#     Edge 53, Type (0, 1), BuildingBlock: OJICUG_clean_linker_0, # of connection points: 2
#     Edge 54, Type (0, 1), BuildingBlock: OJICUG_clean_linker_0, # of connection points: 2
#     Edge 55, Type (0, 1), BuildingBlock: OJICUG_clean_linker_0, # of connection points: 2
#     Edge 56, Type (0, 1), BuildingBlock: OJICUG_clean_linker_0, # of connection points: 2
#     Edge 57, Type (0, 1), BuildingBlock: OJICUG_clean_linker_0, # of connection points: 2
#     Edge 58, Type (0, 1), BuildingBlock: OJICUG_clean_linker_0, # of connection points: 2
#     Edge 59, Type (0, 1), BuildingBlock: OJICUG_clean_linker_0, # of connection points: 2
#     Edge 60, Type (0, 1), BuildingBlock: OJICUG_clean_linker_0, # of connection points: 2
#     Edge 61, Type (0, 1), BuildingBlock: OJICUG_clean_linker_0, # of connection points: 2
#     Edge 62, Type (0, 1), BuildingBlock: OJICUG_clean_linker_0, # of connection points: 2
#     Edge 63, Type (0, 1), BuildingBlock: OJICUG_clean_linker_0, # of connection points: 2
#     Edge 64, Type (0, 1), BuildingBlock: OJICUG_clean_linker_0, # of connection points: 2
#     Edge 65, Type (0, 1), BuildingBlock: OJICUG_clean_linker_0, # of connection points: 2
#     Edge 66, Type (0, 1), BuildingBlock: OJICUG_clean_linker_0, # of connection points: 2
#     Edge 67, Type (0, 1), BuildingBlock: OJICUG_clean_linker_0, # of connection points: 2
#     Edge 68, Type (0, 1), BuildingBlock: OJICUG_clean_linker_0, # of connection points: 2
#     Edge 69, Type (0, 1), BuildingBlock: OJICUG_clean_linker_0, # of connection points: 2
#     Edge 70, Type (0, 1), BuildingBlock: OJICUG_clean_linker_0, # of connection points: 2
#     Edge 71, Type (0, 1), BuildingBlock: OJICUG_clean_linker_0, # of connection points: 2
#     Edge 72, Type (0, 1), BuildingBlock: OJICUG_clean_linker_0, # of connection points: 2
#     Edge 73, Type (0, 1), BuildingBlock: OJICUG_clean_linker_0, # of connection points: 2
#     Edge 74, Type (0, 1), BuildingBlock: OJICUG_clean_linker_0, # of connection points: 2
#     Edge 75, Type (0, 1), BuildingBlock: OJICUG_clean_linker_0, # of connection points: 2
#     Edge 76, Type (0, 1), BuildingBlock: OJICUG_clean_linker_0, # of connection points: 2
#     Edge 77, Type (0, 1), BuildingBlock: OJICUG_clean_linker_0, # of connection points: 2
#     Edge 78, Type (0, 1), BuildingBlock: OJICUG_clean_linker_0, # of connection points: 2
#     Edge 79, Type (0, 1), BuildingBlock: OJICUG_clean_linker_0, # of connection points: 2
#     Edge 80, Type (0, 1), BuildingBlock: OJICUG_clean_linker_0, # of connection points: 2
#     Edge 81, Type (0, 1), BuildingBlock: OJICUG_clean_linker_0, # of connection points: 2
#     Edge 82, Type (0, 1), BuildingBlock: OJICUG_clean_linker_0, # of connection points: 2
#     Edge 83, Type (0, 1), BuildingBlock: OJICUG_clean_linker_0, # of connection points: 2
#     Edge 84, Type (0, 1), BuildingBlock: OJICUG_clean_linker_0, # of connection points: 2
#     Edge 85, Type (0, 1), BuildingBlock: OJICUG_clean_linker_0, # of connection points: 2
#     Edge 86, Type (0, 1), BuildingBlock: OJICUG_clean_linker_0, # of connection points: 2
#     Edge 87, Type (0, 1), BuildingBlock: OJICUG_clean_linker_0, # of connection points: 2
#     Edge 88, Type (0, 1), BuildingBlock: OJICUG_clean_linker_0, # of connection points: 2
#     Edge 89, Type (0, 1), BuildingBlock: OJICUG_clean_linker_0, # of connection points: 2
#     Edge 90, Type (0, 1), BuildingBlock: OJICUG_clean_linker_0, # of connection points: 2
#     Edge 91, Type (0, 1), BuildingBlock: OJICUG_clean_linker_0, # of connection points: 2
#     Edge 92, Type (0, 1), BuildingBlock: OJICUG_clean_linker_0, # of connection points: 2
#     Edge 93, Type (0, 1), BuildingBlock: OJICUG_clean_linker_0, # of connection points: 2
#     Edge 94, Type (0, 1), BuildingBlock: OJICUG_clean_linker_0, # of connection points: 2
#     Edge 95, Type (0, 1), BuildingBlock: OJICUG_clean_linker_0, # of connection points: 2
#     Edge 96, Type (0, 1), BuildingBlock: OJICUG_clean_linker_0, # of connection points: 2
#     Edge 97, Type (0, 1), BuildingBlock: OJICUG_clean_linker_0, # of connection points: 2
#     Edge 98, Type (0, 1), BuildingBlock: OJICUG_clean_linker_0, # of connection points: 2
#     Edge 99, Type (0, 1), BuildingBlock: OJICUG_clean_linker_0, # of connection points: 2
#     Edge 100, Type (0, 1), BuildingBlock: OJICUG_clean_linker_0, # of connection points: 2
#     Edge 101, Type (0, 1), BuildingBlock: OJICUG_clean_linker_0, # of connection points: 2
#     Edge 102, Type (0, 1), BuildingBlock: OJICUG_clean_linker_0, # of connection points: 2
#     Edge 103, Type (0, 1), BuildingBlock: OJICUG_clean_linker_0, # of connection points: 2
#     Edge 104, Type (0, 1), BuildingBlock: OJICUG_clean_linker_0, # of connection points: 2
#     Edge 105, Type (0, 1), BuildingBlock: OJICUG_clean_linker_0, # of connection points: 2
#     Edge 106, Type (0, 1), BuildingBlock: OJICUG_clean_linker_0, # of connection points: 2
#     Edge 107, Type (0, 1), BuildingBlock: OJICUG_clean_linker_0, # of connection points: 2
#     Edge 108, Type (0, 1), BuildingBlock: OJICUG_clean_linker_0, # of connection points: 2
#     Edge 109, Type (0, 1), BuildingBlock: OJICUG_clean_linker_0, # of connection points: 2
#     Edge 110, Type (0, 1), BuildingBlock: OJICUG_clean_linker_0, # of connection points: 2
#     Edge 111, Type (0, 1), BuildingBlock: OJICUG_clean_linker_0, # of connection points: 2
#     Edge 112, Type (0, 1), BuildingBlock: OJICUG_clean_linker_0, # of connection points: 2
#     Edge 113, Type (0, 1), BuildingBlock: OJICUG_clean_linker_0, # of connection points: 2
#     Edge 114, Type (0, 1), BuildingBlock: OJICUG_clean_linker_0, # of connection points: 2
#     Edge 115, Type (0, 1), BuildingBlock: OJICUG_clean_linker_0, # of connection points: 2
#     Edge 116, Type (0, 1), BuildingBlock: OJICUG_clean_linker_0, # of connection points: 2
#     Edge 117, Type (0, 1), BuildingBlock: OJICUG_clean_linker_0, # of connection points: 2
#     Edge 118, Type (0, 1), BuildingBlock: OJICUG_clean_linker_0, # of connection points: 2
#     Edge 119, Type (0, 1), BuildingBlock: OJICUG_clean_linker_0, # of connection points: 2
#     Edge 120, Type (0, 1), BuildingBlock: OJICUG_clean_linker_0, # of connection points: 2
#     Edge 121, Type (0, 1), BuildingBlock: OJICUG_clean_linker_0, # of connection points: 2
#     Edge 122, Type (0, 1), BuildingBlock: OJICUG_clean_linker_0, # of connection points: 2
#     Edge 123, Type (0, 1), BuildingBlock: OJICUG_clean_linker_0, # of connection points: 2
#     Edge 124, Type (0, 1), BuildingBlock: OJICUG_clean_linker_0, # of connection points: 2
#     Edge 125, Type (0, 1), BuildingBlock: OJICUG_clean_linker_0, # of connection points: 2
#     Edge 126, Type (0, 1), BuildingBlock: OJICUG_clean_linker_0, # of connection points: 2
#     Edge 127, Type (0, 1), BuildingBlock: OJICUG_clean_linker_0, # of connection points: 2
#     Edge 128, Type (0, 1), BuildingBlock: OJICUG_clean_linker_0, # of connection points: 2
#     Edge 129, Type (0, 1), BuildingBlock: OJICUG_clean_linker_0, # of connection points: 2
#     Edge 130, Type (0, 1), BuildingBlock: OJICUG_clean_linker_0, # of connection points: 2
#     Edge 131, Type (0, 1), BuildingBlock: OJICUG_clean_linker_0, # of connection points: 2
#     Edge 132, Type (0, 1), BuildingBlock: OJICUG_clean_linker_0, # of connection points: 2
#     Edge 133, Type (0, 1), BuildingBlock: OJICUG_clean_linker_0, # of connection points: 2
#     Edge 134, Type (0, 1), BuildingBlock: OJICUG_clean_linker_0, # of connection points: 2
#     Edge 135, Type (0, 1), BuildingBlock: OJICUG_clean_linker_0, # of connection points: 2
# Relax obj value: 0.306
# Max RMSD: 0.286
# Mean RMSD: 0.260
data_MOF--net-ibd--node1-KUFVIS_clean_sbu_0--node2-IZENUY_clean_sbu_0--edge1-OJICUG_clean_linker_0
_symmetry_space_group_name_H-M    P1
_symmetry_Int_Tables_number       1
_symmetry_cell_setting            triclinic
loop_
_symmetry_equiv_pos_as_xyz
'x, y, z'
_cell_length_a     35.970239
_cell_length_b     35.976919
_cell_length_c     35.972787
_cell_angle_alpha  91.302785
_cell_angle_beta   91.305608
_cell_angle_gamma 91.343207
loop_
_atom_site_label
_atom_site_type_symbol
_atom_site_fract_x
_atom_site_fract_y
_atom_site_fract_z
_atom_type_partial_charge
Mn0 Mn 0.00849 0.24755 0.38703 0.0
Mn1 Mn 0.06411 0.31847 0.36205 0.0
C2 C 0.05395 0.27198 0.42723 0.0
C3 C 0.95914 0.22492 0.42021 0.0
C4 C 0.06914 0.23955 0.33037 0.0
O5 O 0.9788 0.27001 0.34419 0.0
O6 O 0.01613 0.32034 0.33379 0.0
C7 C 0.02216 0.38234 0.39113 0.0
N8 N 0.0538 0.36227 0.39082 0.0
C9 C 0.08279 0.40256 0.43794 0.0
C10 C 0.0507 0.42392 0.43834 0.0
C11 C 0.02026 0.41375 0.41484 0.0
C12 C 0.08329 0.37185 0.41331 0.0
H13 H -0.00156 0.37424 0.37367 0.0
C14 C 0.98612 0.30071 0.32802 0.0
O15 O 0.97333 0.2047 0.39394 0.0
O16 O 0.96991 0.25949 0.42293 0.0
N17 N 0.11064 0.31881 0.38916 0.0
C18 C 0.13851 0.29385 0.38728 0.0
C19 C 0.1705 0.29924 0.41006 0.0
C20 C 0.1735 0.33017 0.43457 0.0
C21 C 0.14447 0.35548 0.43604 0.0
C22 C 0.11341 0.34887 0.4124 0.0
H23 H 0.13626 0.26986 0.36872 0.0
O24 O 0.04267 0.23776 0.4304 0.0
O25 O 0.04011 0.28926 0.39933 0.0
O26 O 0.04456 0.2249 0.35067 0.0
O27 O 0.07755 0.27432 0.33164 0.0
C28 C 0.14474 0.38648 0.46071 0.0
C29 C 0.11393 0.41 0.46165 0.0
H30 H 0.04895 0.44792 0.4569 0.0
H31 H 0.99526 0.4299 0.41524 0.0
H32 H 0.1927 0.27948 0.40891 0.0
H33 H 0.19802 0.33399 0.45242 0.0
H34 H 0.16828 0.39219 0.47946 0.0
H35 H 0.11426 0.43344 0.48111 0.0
Mn36 Mn 0.01057 0.75426 0.61564 0.0
Mn37 Mn 0.95324 0.68647 0.64637 0.0
C38 C 0.99413 0.70222 0.57897 0.0
C39 C 0.02647 0.80549 0.58026 0.0
C40 C 0.03268 0.69751 0.67376 0.0
O41 O 0.98311 0.78207 0.65671 0.0
O42 O 0.94812 0.73316 0.67564 0.0
C43 C 0.88056 0.7189 0.62694 0.0
N44 N 0.90489 0.6906 0.62379 0.0
C45 C 0.86193 0.65515 0.58389 0.0
C46 C 0.83641 0.68388 0.58683 0.0
C47 C 0.84579 0.71589 0.60842 0.0
C48 C 0.89601 0.65953 0.60331 0.0
H49 H 0.88762 0.74362 0.64341 0.0
C50 C 0.95887 0.76742 0.67801 0.0
O51 O 0.04734 0.79525 0.60786 0.0
O52 O 0.99419 0.78873 0.57609 0.0
N53 N 0.95568 0.64047 0.6188 0.0
C54 C 0.98443 0.61659 0.61663 0.0
C55 C 0.98016 0.58383 0.59482 0.0
C56 C 0.94642 0.57599 0.57547 0.0
C57 C 0.91722 0.601 0.57812 0.0
C58 C 0.92298 0.63304 0.60055 0.0
H59 H 0.01052 0.62269 0.63117 0.0
O60 O 0.02592 0.71917 0.57461 0.0
O61 O 0.97465 0.71448 0.60613 0.0
O62 O 0.03941 0.72646 0.65532 0.0
O63 O 0.00201 0.67899 0.67118 0.0
C64 C 0.88292 0.59575 0.55878 0.0
C65 C 0.85527 0.62278 0.56172 0.0
H66 H 0.80968 0.68183 0.57233 0.0
H67 H 0.82633 0.73825 0.61068 0.0
H68 H 0.00288 0.56476 0.59277 0.0
H69 H 0.94335 0.55086 0.55841 0.0
H70 H 0.87769 0.57127 0.54118 0.0
H71 H 0.82921 0.61866 0.54633 0.0
Mn72 Mn 0.49711 0.75317 0.88783 0.0
Mn73 Mn 0.55072 0.82615 0.86385 0.0
C74 C 0.54394 0.77643 0.92695 0.0
C75 C 0.45022 0.72725 0.92192 0.0
C76 C 0.55748 0.74829 0.83034 0.0
O77 O 0.46536 0.77641 0.84693 0.0
O78 O 0.50249 0.82666 0.83596 0.0
C79 C 0.50605 0.88714 0.89493 0.0
N80 N 0.53872 0.86883 0.89358 0.0
C81 C 0.56656 0.90968 0.9409 0.0
C82 C 0.53342 0.92935 0.94226 0.0
C83 C 0.50302 0.91798 0.91921 0.0
C84 C 0.56811 0.87945 0.91578 0.0
H85 H 0.48236 0.87806 0.87791 0.0
C86 C 0.47241 0.8071 0.83067 0.0
O87 O 0.4636 0.70898 0.89386 0.0
O88 O 0.45969 0.76213 0.92583 0.0
N89 N 0.59762 0.82826 0.89032 0.0
C90 C 0.62691 0.80515 0.88708 0.0
C91 C 0.65922 0.81204 0.90905 0.0
C92 C 0.66108 0.84257 0.93413 0.0
C93 C 0.63063 0.86603 0.9369 0.0
C94 C 0.59934 0.85805 0.91395 0.0
H95 H 0.62559 0.78152 0.86802 0.0
O96 O 0.5331 0.74199 0.92909 0.0
O97 O 0.52842 0.79515 0.90091 0.0
O98 O 0.53239 0.73304 0.84954 0.0
O99 O 0.56587 0.78305 0.83272 0.0
C100 C 0.62985 0.89659 0.96205 0.0
C101 C 0.59783 0.91838 0.96407 0.0
H102 H 0.53084 0.95292 0.96122 0.0
H103 H 0.4772 0.93277 0.92039 0.0
H104 H 0.68257 0.79375 0.90682 0.0
H105 H 0.68589 0.84756 0.95131 0.0
H106 H 0.65355 0.90332 0.9803 0.0
H107 H 0.5974 0.94152 0.98385 0.0
Mn108 Mn 0.50324 0.2453 0.12746 0.0
Mn109 Mn 0.44531 0.18214 0.16517 0.0
C110 C 0.48644 0.19069 0.09506 0.0
C111 C 0.51835 0.29464 0.0894 0.0
C112 C 0.52436 0.19811 0.1929 0.0
O113 O 0.47646 0.276 0.16707 0.0
O114 O 0.43545 0.23196 0.18613 0.0
C115 C 0.37095 0.2044 0.13809 0.0
N116 N 0.39814 0.17871 0.1396 0.0
C117 C 0.35996 0.13392 0.10459 0.0
C118 C 0.33164 0.15997 0.10247 0.0
C119 C 0.33716 0.19535 0.11932 0.0
C120 C 0.39292 0.14441 0.12392 0.0
H121 H 0.37501 0.23155 0.15117 0.0
C122 C 0.44893 0.26532 0.18669 0.0
O123 O 0.53971 0.28559 0.11705 0.0
O124 O 0.48622 0.27738 0.08608 0.0
N125 N 0.45298 0.13311 0.14553 0.0
C126 C 0.48331 0.11148 0.14957 0.0
C127 C 0.48258 0.0754 0.13378 0.0
C128 C 0.45068 0.06195 0.11408 0.0
C129 C 0.41976 0.08472 0.11038 0.0
C130 C 0.42207 0.12037 0.12681 0.0
H131 H 0.50785 0.12169 0.16477 0.0
O132 O 0.51797 0.20755 0.08896 0.0
O133 O 0.46728 0.20503 0.12165 0.0
O134 O 0.53331 0.22022 0.1676 0.0
O135 O 0.49227 0.18268 0.19496 0.0
C136 C 0.3868 0.07351 0.09089 0.0
C137 C 0.35691 0.09808 0.08803 0.0
H138 H 0.30556 0.15314 0.08796 0.0
H139 H 0.31539 0.21554 0.1179 0.0
H140 H 0.50652 0.05795 0.13681 0.0
H141 H 0.45025 0.03413 0.10189 0.0
H142 H 0.38418 0.04608 0.0779 0.0
H143 H 0.33175 0.08917 0.07291 0.0
Mn144 Mn 0.01298 0.75397 0.1354 0.0
Mn145 Mn 0.07104 0.81623 0.09708 0.0
C146 C 0.0669 0.77411 0.16729 0.0
C147 C 0.96457 0.73565 0.17325 0.0
C148 C 0.0579 0.73713 0.06775 0.0
O149 O 0.98018 0.77921 0.09629 0.0
O150 O 0.0199 0.82545 0.0794 0.0
C151 C 0.04872 0.88909 0.12798 0.0
N152 N 0.07479 0.86249 0.12426 0.0
C153 C 0.12045 0.90032 0.15851 0.0
C154 C 0.09399 0.92797 0.16299 0.0
C155 C 0.05799 0.92232 0.14765 0.0
C156 C 0.10969 0.86786 0.13847 0.0
H157 H 0.02106 0.88494 0.11607 0.0
C158 C 0.98782 0.809 0.07858 0.0
O159 O 0.97506 0.71505 0.14563 0.0
O160 O 0.98004 0.76863 0.17697 0.0
N161 N 0.12116 0.80896 0.11389 0.0
C162 C 0.14316 0.77923 0.10773 0.0
C163 C 0.17986 0.78008 0.12198 0.0
C164 C 0.19354 0.81148 0.14232 0.0
C165 C 0.17043 0.8418 0.14816 0.0
C166 C 0.13413 0.83937 0.13327 0.0
H167 H 0.13277 0.75507 0.09207 0.0
O168 O 0.05211 0.74162 0.1736 0.0
O169 O 0.0509 0.79227 0.14091 0.0
O170 O 0.03959 0.72575 0.09501 0.0
O171 O 0.06996 0.77051 0.06515 0.0
C172 C 0.18191 0.87425 0.16835 0.0
C173 C 0.15697 0.90353 0.17344 0.0
H174 H 0.10099 0.95362 0.1782 0.0
H175 H 0.03747 0.94355 0.15094 0.0
H176 H 0.19758 0.75661 0.11728 0.0
H177 H 0.22181 0.81198 0.1534 0.0
H178 H 0.20985 0.87695 0.18015 0.0
H179 H 0.16609 0.9283 0.18908 0.0
Mn180 Mn 0.49944 0.75659 0.37734 0.0
Mn181 Mn 0.4271 0.70273 0.40259 0.0
C182 C 0.47633 0.70895 0.33908 0.0
C183 C 0.5253 0.80296 0.34252 0.0
C184 C 0.50511 0.69758 0.43619 0.0
O185 O 0.47579 0.78895 0.41755 0.0
O186 O 0.42607 0.75143 0.42953 0.0
C187 C 0.36521 0.74593 0.37108 0.0
N188 N 0.38411 0.71363 0.3728 0.0
C189 C 0.3434 0.68443 0.32616 0.0
C190 C 0.32314 0.71719 0.32442 0.0
C191 C 0.33413 0.74808 0.34695 0.0
C192 C 0.37382 0.68375 0.35113 0.0
H193 H 0.37399 0.77 0.3877 0.0
C194 C 0.44521 0.78188 0.43404 0.0
O195 O 0.54344 0.79019 0.37095 0.0
O196 O 0.49049 0.79319 0.33845 0.0
N197 N 0.42555 0.65541 0.37694 0.0
C198 C 0.44917 0.62657 0.3805 0.0
C199 C 0.4427 0.59386 0.35904 0.0
C200 C 0.41207 0.59116 0.33411 0.0
C201 C 0.38811 0.62117 0.33096 0.0
C202 C 0.39571 0.6529 0.35339 0.0
H203 H 0.47288 0.62855 0.39945 0.0
O204 O 0.51076 0.71984 0.33677 0.0
O205 O 0.45764 0.72476 0.36496 0.0
O206 O 0.51994 0.72239 0.41639 0.0
O207 O 0.47047 0.68866 0.43402 0.0
C208 C 0.35739 0.62109 0.30594 0.0
C209 C 0.33505 0.6527 0.30354 0.0
H210 H 0.29937 0.71908 0.30558 0.0
H211 H 0.31887 0.7736 0.3455 0.0
H212 H 0.46138 0.57085 0.36155 0.0
H213 H 0.40738 0.56603 0.31735 0.0
H214 H 0.35092 0.59702 0.28811 0.0
H215 H 0.31177 0.65245 0.28388 0.0
Mn216 Mn 0.50473 0.24149 0.64323 0.0
Mn217 Mn 0.5743 0.29517 0.61033 0.0
C218 C 0.55821 0.25563 0.67872 0.0
C219 C 0.45389 0.2282 0.67983 0.0
C220 C 0.55677 0.21689 0.58209 0.0
O221 O 0.47752 0.2709 0.60334 0.0
O222 O 0.52694 0.30496 0.58375 0.0
C223 C 0.54961 0.37024 0.63279 0.0
N224 N 0.57536 0.34312 0.63453 0.0
C225 C 0.61543 0.38126 0.67495 0.0
C226 C 0.58931 0.40956 0.67361 0.0
C227 C 0.55629 0.40403 0.65241 0.0
C228 C 0.60748 0.34835 0.65444 0.0
H229 H 0.52412 0.36612 0.61665 0.0
C230 C 0.49221 0.29567 0.58266 0.0
O231 O 0.46221 0.20699 0.65179 0.0
O232 O 0.47239 0.25958 0.68382 0.0
N233 N 0.62076 0.28782 0.63582 0.0
C234 C 0.64196 0.25694 0.63604 0.0
C235 C 0.67536 0.25739 0.65704 0.0
C236 C 0.68656 0.28953 0.67764 0.0
C237 C 0.66424 0.32096 0.67703 0.0
C238 C 0.63139 0.31897 0.65535 0.0
H239 H 0.63329 0.23207 0.62052 0.0
O240 O 0.54012 0.22448 0.68337 0.0
O241 O 0.54645 0.27513 0.65136 0.0
O242 O 0.52932 0.21108 0.60277 0.0
O243 O 0.57659 0.24674 0.58335 0.0
C244 C 0.67297 0.35393 0.69762 0.0
C245 C 0.64862 0.38409 0.69651 0.0
H246 H 0.59419 0.43553 0.68898 0.0
H247 H 0.53596 0.42572 0.6513 0.0
H248 H 0.69236 0.23297 0.6575 0.0
H249 H 0.71221 0.28967 0.69403 0.0
H250 H 0.69815 0.35626 0.7147 0.0
H251 H 0.65545 0.40914 0.71276 0.0
Mn252 Mn 0.00933 0.25367 0.87177 0.0
Mn253 Mn 0.93552 0.20101 0.89558 0.0
C254 C 0.98359 0.20909 0.83127 0.0
C255 C 0.03597 0.30225 0.84017 0.0
C256 C 0.01357 0.19251 0.92832 0.0
O257 O 0.98735 0.28431 0.9144 0.0
O258 O 0.93529 0.24905 0.92356 0.0
C259 C 0.87461 0.24587 0.86468 0.0
N260 N 0.8927 0.21309 0.86612 0.0
C261 C 0.85084 0.18492 0.81989 0.0
C262 C 0.83139 0.2182 0.81843 0.0
C263 C 0.84341 0.24883 0.84084 0.0
C264 C 0.88154 0.18352 0.84443 0.0
H265 H 0.88415 0.26968 0.88129 0.0
C266 C 0.95601 0.27819 0.92986 0.0
O267 O 0.05417 0.28652 0.86687 0.0
O268 O 0.00106 0.29316 0.83554 0.0
N269 N 0.93329 0.15421 0.86897 0.0
C270 C 0.95658 0.12502 0.87176 0.0
C271 C 0.94922 0.09256 0.85016 0.0
C272 C 0.91801 0.09042 0.82595 0.0
C273 C 0.8944 0.12079 0.82358 0.0
C274 C 0.90294 0.15228 0.84607 0.0
H275 H 0.98067 0.1265 0.89023 0.0
O276 O 0.01826 0.21905 0.82844 0.0
O277 O 0.96638 0.22384 0.8587 0.0
O278 O 0.02943 0.21646 0.90825 0.0
O279 O 0.9785 0.18566 0.92679 0.0
C280 C 0.86324 0.12136 0.79916 0.0
C281 C 0.84151 0.15342 0.79727 0.0
H282 H 0.80752 0.22071 0.79983 0.0
H283 H 0.82881 0.27475 0.83955 0.0
H284 H 0.96764 0.06928 0.85205 0.0
H285 H 0.91265 0.06548 0.80907 0.0
H286 H 0.85608 0.09751 0.78128 0.0
H287 H 0.81798 0.15374 0.77794 0.0
Mn288 Mn 0.39048 0.00773 0.24211 0.0
Mn289 Mn 0.37285 0.06168 0.31657 0.0
C290 C 0.43499 0.04924 0.26584 0.0
C291 C 0.41632 0.9566 0.2144 0.0
C292 C 0.33687 0.07108 0.24007 0.0
O293 O 0.34661 0.98037 0.26588 0.0
O294 O 0.34273 0.01487 0.31926 0.0
C295 C 0.40392 0.0172 0.37762 0.0
N296 N 0.40374 0.04928 0.35823 0.0
C297 C 0.45366 0.07588 0.39666 0.0
C298 C 0.45414 0.04324 0.41721 0.0
C299 C 0.42918 0.01377 0.40762 0.0
C300 C 0.42759 0.07786 0.36728 0.0
H301 H 0.38508 0.99433 0.37008 0.0
C302 C 0.33336 0.9866 0.29828 0.0
O303 O 0.39101 0.97514 0.19703 0.0
O304 O 0.42319 0.96507 0.24916 0.0
N305 N 0.40182 0.10709 0.31606 0.0
C306 C 0.39991 0.13536 0.29155 0.0
C307 C 0.42418 0.16636 0.29622 0.0
C308 C 0.45015 0.16799 0.326 0.0
C309 C 0.45164 0.13855 0.35086 0.0
C310 C 0.42659 0.10848 0.34495 0.0
H311 H 0.38021 0.13415 0.26845 0.0
O312 O 0.43569 0.03885 0.23112 0.0
O313 O 0.40734 0.03649 0.28444 0.0
O314 O 0.35644 0.04748 0.22321 0.0
O315 O 0.33969 0.07745 0.27514 0.0
C316 C 0.47769 0.13742 0.38066 0.0
C317 C 0.47869 0.10611 0.40354 0.0
H318 H 0.47384 0.04033 0.44013 0.0
H319 H 0.42957 0.98839 0.42318 0.0
H320 H 0.42304 0.18885 0.27676 0.0
H321 H 0.46912 0.19174 0.32925 0.0
H322 H 0.4975 0.1602 0.38584 0.0
H323 H 0.49926 0.10528 0.42595 0.0
Mn324 Mn 0.24253 0.12495 0.50727 0.0
Mn325 Mn 0.18162 0.16017 0.44585 0.0
C326 C 0.18951 0.09096 0.48862 0.0
C327 C 0.2922 0.08851 0.52466 0.0
C328 C 0.19613 0.19142 0.52402 0.0
O329 O 0.27328 0.1645 0.48044 0.0
O330 O 0.23176 0.17939 0.43497 0.0
C331 C 0.20301 0.12886 0.37283 0.0
N332 N 0.17769 0.13182 0.40028 0.0
C333 C 0.13288 0.09388 0.36505 0.0
C334 C 0.15865 0.09002 0.33662 0.0
C335 C 0.19383 0.10766 0.3405 0.0
C336 C 0.14351 0.11555 0.39651 0.0
H337 H 0.23004 0.14249 0.37567 0.0
C338 C 0.2642 0.1815 0.4506 0.0
O339 O 0.28176 0.11615 0.5453 0.0
O340 O 0.27609 0.08426 0.49205 0.0
N341 N 0.13247 0.14153 0.45495 0.0
C342 C 0.11109 0.14755 0.48517 0.0
C343 C 0.07519 0.13142 0.48593 0.0
C344 C 0.06167 0.10932 0.45564 0.0
C345 C 0.08419 0.10356 0.42482 0.0
C346 C 0.11968 0.12043 0.4256 0.0
H347 H 0.12138 0.1645 0.5085 0.0
O348 O 0.20493 0.08566 0.52104 0.0
O349 O 0.20404 0.11788 0.47015 0.0
O350 O 0.21549 0.16496 0.53552 0.0
O351 O 0.18295 0.19294 0.49093 0.0
C352 C 0.0729 0.08158 0.39345 0.0
C353 C 0.0972 0.07681 0.36356 0.0
H354 H 0.15172 0.07359 0.3117 0.0
H355 H 0.21381 0.10494 0.31861 0.0
H356 H 0.05796 0.13601 0.50981 0.0
H357 H 0.03398 0.09689 0.45637 0.0
H358 H 0.04562 0.06815 0.39207 0.0
H359 H 0.08823 0.05979 0.33963 0.0
Mn360 Mn 0.13399 0.00955 0.76221 0.0
Mn361 Mn 0.10279 0.07747 0.81883 0.0
C362 C 0.17071 0.06163 0.77773 0.0
C363 C 0.16819 0.95801 0.74602 0.0
C364 C 0.07453 0.06438 0.74009 0.0
O365 O 0.09409 0.98195 0.79052 0.0
O366 O 0.07417 0.03033 0.82569 0.0
C367 C 0.12198 0.04851 0.89308 0.0
N368 N 0.12569 0.07534 0.86722 0.0
C369 C 0.16448 0.11326 0.9091 0.0
C370 C 0.16109 0.08599 0.93613 0.0
C371 C 0.13971 0.05353 0.92806 0.0
C372 C 0.14575 0.10697 0.87489 0.0
H373 H 0.10545 0.02356 0.88715 0.0
C374 C 0.07282 0.99597 0.815 0.0
O375 O 0.14028 0.96842 0.72575 0.0
O376 O 0.17378 0.97521 0.77794 0.0
N377 N 0.12981 0.12361 0.81457 0.0
C378 C 0.13159 0.14639 0.7849 0.0
C379 C 0.15298 0.17953 0.78789 0.0
C380 C 0.17224 0.1889 0.82134 0.0
C381 C 0.17002 0.16498 0.85148 0.0
C382 C 0.14822 0.13237 0.84688 0.0
H383 H 0.11702 0.13917 0.75908 0.0
O384 O 0.1743 0.04464 0.7458 0.0
O385 O 0.14364 0.04965 0.79771 0.0
O386 O 0.09385 0.03615 0.73357 0.0
O387 O 0.07695 0.08343 0.77036 0.0
C388 C 0.18895 0.17197 0.88575 0.0
C389 C 0.18606 0.1462 0.91459 0.0
H390 H 0.17486 0.08963 0.96311 0.0
H391 H 0.13678 0.03246 0.94878 0.0
H392 H 0.15466 0.19778 0.76446 0.0
H393 H 0.18881 0.21442 0.82349 0.0
H394 H 0.20601 0.19698 0.89014 0.0
H395 H 0.20087 0.15181 0.94075 0.0
Mn396 Mn 0.25051 0.86524 0.01457 0.0
Mn397 Mn 0.2025 0.88669 0.93707 0.0
C398 C 0.20849 0.82335 0.98719 0.0
C399 C 0.29841 0.83684 0.04528 0.0
C400 C 0.18873 0.92073 0.01359 0.0
O401 O 0.28139 0.90855 0.99389 0.0
O402 O 0.25044 0.91498 0.93878 0.0
C403 C 0.25079 0.85491 0.87943 0.0
N404 N 0.21705 0.85639 0.89574 0.0
C405 C 0.19133 0.80922 0.85342 0.0
C406 C 0.22567 0.80764 0.83583 0.0
C407 C 0.25554 0.83051 0.84897 0.0
C408 C 0.18816 0.83434 0.88345 0.0
H409 H 0.27398 0.87197 0.8898 0.0
C410 C 0.27771 0.92268 0.96155 0.0
O411 O 0.27965 0.86256 0.06173 0.0
O412 O 0.29221 0.83083 0.00995 0.0
N413 N 0.15595 0.85971 0.93294 0.0
C414 C 0.12554 0.86264 0.95464 0.0
C415 C 0.09363 0.84055 0.94613 0.0
C416 C 0.09328 0.81572 0.91541 0.0
C417 C 0.12487 0.81323 0.89343 0.0
C418 C 0.15575 0.83618 0.90307 0.0
H419 H 0.12566 0.88157 0.97836 0.0
O420 O 0.21671 0.82117 0.02233 0.0
O421 O 0.2239 0.85059 0.97005 0.0
O422 O 0.21093 0.90039 0.03135 0.0
O423 O 0.18467 0.9191 0.97817 0.0
C424 C 0.12723 0.78821 0.86291 0.0
C425 C 0.16045 0.78619 0.84294 0.0
H426 H 0.22955 0.7886 0.81255 0.0
H427 H 0.28225 0.82916 0.8358 0.0
H428 H 0.06941 0.84251 0.96332 0.0
H429 H 0.06876 0.79844 0.90919 0.0
H430 H 0.10388 0.76997 0.85492 0.0
H431 H 0.16213 0.76641 0.81991 0.0
Mn432 Mn 0.24817 0.38308 0.00169 0.0
Mn433 Mn 0.32312 0.36082 0.05349 0.0
C434 C 0.27301 0.42368 0.04664 0.0
C435 C 0.21991 0.41485 0.95418 0.0
C436 C 0.24608 0.32592 0.06255 0.0
O437 O 0.271 0.34148 0.97028 0.0
O438 O 0.32322 0.3329 0.00543 0.0
C439 C 0.3825 0.39316 0.00756 0.0
N440 N 0.36502 0.39129 0.04067 0.0
C441 C 0.40619 0.43857 0.06809 0.0
C442 C 0.42499 0.44052 0.03445 0.0
C443 C 0.41301 0.41779 0.00403 0.0
C444 C 0.37615 0.41326 0.07005 0.0
H445 H 0.37299 0.37627 0.98393 0.0
C446 C 0.30255 0.3264 0.97632 0.0
O447 O 0.20276 0.38718 0.96947 0.0
O448 O 0.25488 0.42019 0.96272 0.0
N449 N 0.32561 0.38736 0.10032 0.0
C450 C 0.30302 0.38385 0.13 0.0
C451 C 0.31048 0.40553 0.1624 0.0
C452 C 0.34106 0.43057 0.16394 0.0
C453 C 0.36397 0.43366 0.13308 0.0
C454 C 0.35539 0.41104 0.1017 0.0
H455 H 0.27942 0.36473 0.12895 0.0
O456 O 0.23818 0.42551 0.037 0.0
O457 O 0.29104 0.39709 0.03132 0.0
O458 O 0.22964 0.34549 0.03857 0.0
O459 O 0.2811 0.32855 0.06951 0.0
C460 C 0.39447 0.45888 0.13194 0.0
C461 C 0.41553 0.46138 0.09945 0.0
H462 H 0.44834 0.45972 0.03151 0.0
H463 H 0.42712 0.41944 0.97784 0.0
H464 H 0.29261 0.40307 0.18607 0.0
H465 H 0.3465 0.44752 0.18884 0.0
H466 H 0.40164 0.47689 0.1557 0.0
H467 H 0.43855 0.48129 0.09872 0.0
Mn468 Mn 0.75326 0.13299 0.01019 0.0
Mn469 Mn 0.81162 0.10066 0.07618 0.0
C470 C 0.77051 0.16873 0.06253 0.0
C471 C 0.7358 0.16818 0.95958 0.0
C472 C 0.73236 0.07346 0.06559 0.0
O473 O 0.78006 0.0928 0.98114 0.0
O474 O 0.81575 0.07217 0.02876 0.0
C475 C 0.8844 0.11931 0.04359 0.0
N476 N 0.86017 0.12275 0.07194 0.0
C477 C 0.90457 0.16009 0.10837 0.0
C478 C 0.92999 0.15692 0.07956 0.0
C479 C 0.91983 0.13644 0.04705 0.0
C480 C 0.8698 0.14208 0.10353 0.0
H481 H 0.87683 0.10349 0.01858 0.0
C482 C 0.80413 0.07078 0.99472 0.0
O483 O 0.71555 0.14034 0.97028 0.0
O484 O 0.76829 0.17311 0.97581 0.0
N485 N 0.81005 0.12727 0.1228 0.0
C486 C 0.78167 0.12911 0.14717 0.0
C487 C 0.78681 0.14966 0.18062 0.0
C488 C 0.82105 0.16801 0.18869 0.0
C489 C 0.84986 0.16568 0.16318 0.0
C490 C 0.84316 0.14468 0.13036 0.0
H491 H 0.75528 0.11516 0.141 0.0
O492 O 0.73832 0.17305 0.04633 0.0
O493 O 0.79003 0.14189 0.04943 0.0
O494 O 0.72528 0.09266 0.03736 0.0
O495 O 0.76301 0.0758 0.08402 0.0
C496 C 0.88479 0.18375 0.16881 0.0
C497 C 0.91216 0.18086 0.14147 0.0
H498 H 0.9573 0.17022 0.08202 0.0
H499 H 0.93927 0.13379 0.02472 0.0
H500 H 0.76443 0.15139 0.20015 0.0
H501 H 0.82486 0.18394 0.21447 0.0
H502 H 0.89079 0.20017 0.19393 0.0
H503 H 0.93881 0.19508 0.14601 0.0
Mn504 Mn 0.12163 0.49894 0.25675 0.0
Mn505 Mn 0.1506 0.43979 0.18992 0.0
C506 C 0.08461 0.4838 0.20481 0.0
C507 C 0.0878 0.51597 0.3082 0.0
C508 C 0.18115 0.51811 0.20081 0.0
O509 O 0.16138 0.47053 0.28461 0.0
O510 O 0.17935 0.4334 0.23691 0.0
C511 C 0.1268 0.3685 0.22257 0.0
N512 N 0.12551 0.39266 0.19399 0.0
C513 C 0.08344 0.35183 0.15854 0.0
C514 C 0.08449 0.32644 0.18753 0.0
C515 C 0.10618 0.33489 0.2197 0.0
C516 C 0.10481 0.38476 0.16282 0.0
H517 H 0.14329 0.3749 0.24745 0.0
C518 C 0.18181 0.44518 0.27087 0.0
O519 O 0.11586 0.53599 0.29755 0.0
O520 O 0.08201 0.48391 0.29139 0.0
N521 N 0.12366 0.44347 0.14368 0.0
C522 C 0.1232 0.47226 0.11974 0.0
C523 C 0.1014 0.46908 0.08689 0.0
C524 C 0.08029 0.43637 0.07904 0.0
C525 C 0.08119 0.40712 0.10412 0.0
C526 C 0.10372 0.41175 0.13623 0.0
H527 H 0.13908 0.49758 0.12586 0.0
O528 O 0.08135 0.51578 0.22172 0.0
O529 O 0.11098 0.46328 0.21725 0.0
O530 O 0.1621 0.52604 0.22897 0.0
O531 O 0.17799 0.4873 0.18262 0.0
C532 C 0.05998 0.3739 0.09891 0.0
C533 C 0.06115 0.34625 0.12607 0.0
H534 H 0.06837 0.30063 0.18561 0.0
H535 H 0.10681 0.31568 0.24235 0.0
H536 H 0.1007 0.49185 0.06776 0.0
H537 H 0.06323 0.43417 0.05384 0.0
H538 H 0.04226 0.36956 0.07437 0.0
H539 H 0.04427 0.32109 0.12203 0.0
Mn540 Mn 0.74853 0.88223 0.49979 0.0
Mn541 Mn 0.82215 0.86152 0.55424 0.0
C542 C 0.7733 0.92498 0.54273 0.0
C543 C 0.72089 0.91001 0.44936 0.0
C544 C 0.74435 0.82845 0.56348 0.0
O545 O 0.77139 0.83853 0.47132 0.0
O546 O 0.82335 0.83176 0.50731 0.0
C547 C 0.88351 0.89105 0.50901 0.0
N548 N 0.8649 0.89083 0.54156 0.0
C549 C 0.90627 0.93814 0.56859 0.0
C550 C 0.92621 0.9384 0.53556 0.0
C551 C 0.9147 0.91483 0.50561 0.0
C552 C 0.8756 0.9136 0.57048 0.0
H553 H 0.8744 0.87348 0.48571 0.0
C554 C 0.80305 0.824 0.47819 0.0
O555 O 0.70345 0.88431 0.4673 0.0
O556 O 0.75582 0.91615 0.45779 0.0
N557 N 0.82356 0.88991 0.60001 0.0
C558 C 0.79995 0.888 0.62905 0.0
C559 C 0.80682 0.91077 0.66082 0.0
C560 C 0.83787 0.93521 0.66243 0.0
C561 C 0.86183 0.93664 0.63226 0.0
C562 C 0.85378 0.91301 0.60148 0.0
H563 H 0.776 0.86933 0.62797 0.0
O564 O 0.73874 0.92697 0.53209 0.0
O565 O 0.79128 0.89733 0.5293 0.0
O566 O 0.72867 0.84763 0.53876 0.0
O567 O 0.77937 0.8303 0.57045 0.0
C568 C 0.89292 0.96112 0.63121 0.0
C569 C 0.9151 0.96191 0.59938 0.0
H570 H 0.95009 0.95694 0.53271 0.0
H571 H 0.92971 0.91516 0.47988 0.0
H572 H 0.78815 0.90957 0.68396 0.0
H573 H 0.84286 0.95299 0.68683 0.0
H574 H 0.89972 0.97986 0.6545 0.0
H575 H 0.9386 0.98126 0.59869 0.0
Mn576 Mn 0.8727 0.01402 0.25386 0.0
Mn577 Mn 0.89179 0.93635 0.20477 0.0
C578 C 0.82866 0.98631 0.21402 0.0
C579 C 0.84701 0.04592 0.30296 0.0
C580 C 0.92593 0.01263 0.18997 0.0
O581 O 0.91728 0.99285 0.2828 0.0
O582 O 0.92155 0.93749 0.2517 0.0
C583 C 0.86122 0.87839 0.25346 0.0
N584 N 0.86175 0.89505 0.21986 0.0
C585 C 0.81427 0.85264 0.19487 0.0
C586 C 0.81361 0.83474 0.22908 0.0
C587 C 0.8371 0.84775 0.25853 0.0
C588 C 0.83906 0.8829 0.19141 0.0
H589 H 0.87887 0.88859 0.27629 0.0
C590 C 0.93071 0.9602 0.27861 0.0
O591 O 0.87202 0.06155 0.28272 0.0
O592 O 0.84016 0.01058 0.29744 0.0
N593 N 0.86337 0.93284 0.15906 0.0
C594 C 0.86556 0.95474 0.12873 0.0
C595 C 0.84289 0.9463 0.09721 0.0
C596 C 0.81828 0.9154 0.09716 0.0
C597 C 0.81654 0.89322 0.12866 0.0
C598 C 0.84002 0.90283 0.15915 0.0
H599 H 0.88442 0.97851 0.12857 0.0
O600 O 0.82696 0.02153 0.22211 0.0
O601 O 0.85668 0.96933 0.22805 0.0
O602 O 0.9061 0.03048 0.21256 0.0
O603 O 0.92411 0.97721 0.18617 0.0
C604 C 0.79186 0.86244 0.13129 0.0
C605 C 0.79068 0.8422 0.1644 0.0
H606 H 0.79484 0.81127 0.23319 0.0
H607 H 0.83649 0.8343 0.28512 0.0
H608 H 0.84432 0.96361 0.07305 0.0
H609 H 0.80061 0.90917 0.07293 0.0
H610 H 0.77324 0.85444 0.10825 0.0
H611 H 0.77116 0.81897 0.16629 0.0
Mn612 Mn 0.24876 0.64215 0.50384 0.0
Mn613 Mn 0.30028 0.61201 0.57626 0.0
C614 C 0.26132 0.67954 0.5562 0.0
C615 C 0.23733 0.67664 0.45095 0.0
C616 C 0.22143 0.58544 0.55969 0.0
O617 O 0.27792 0.60056 0.47914 0.0
O618 O 0.30869 0.58157 0.53074 0.0
C619 C 0.37588 0.62956 0.54957 0.0
N620 N 0.34923 0.63392 0.57552 0.0
C621 C 0.38986 0.67411 0.61334 0.0
C622 C 0.41773 0.66997 0.58703 0.0
C623 C 0.41069 0.64759 0.55503 0.0
C624 C 0.35586 0.65507 0.60665 0.0
H625 H 0.37064 0.61245 0.52488 0.0
C626 C 0.30051 0.57901 0.49581 0.0
O627 O 0.21544 0.64933 0.46 0.0
O628 O 0.26827 0.68094 0.4701 0.0
N629 N 0.29459 0.6406 0.62125 0.0
C630 C 0.26399 0.64366 0.64264 0.0
C631 C 0.2659 0.66627 0.675 0.0
C632 C 0.29921 0.68548 0.68501 0.0
C633 C 0.33034 0.68191 0.66255 0.0
C634 C 0.32686 0.65876 0.63077 0.0
H635 H 0.23823 0.62925 0.63485 0.0
O636 O 0.23095 0.68375 0.53673 0.0
O637 O 0.28158 0.65206 0.54604 0.0
O638 O 0.2173 0.60327 0.52992 0.0
O639 O 0.25064 0.58797 0.58045 0.0
C640 C 0.36444 0.70099 0.67005 0.0
C641 C 0.39421 0.69702 0.64552 0.0
H642 H 0.44452 0.68407 0.59097 0.0
H643 H 0.43202 0.64429 0.53459 0.0
H644 H 0.2417 0.66903 0.69209 0.0
H645 H 0.30048 0.70313 0.70983 0.0
H646 H 0.36794 0.71913 0.6944 0.0
H647 H 0.42015 0.71214 0.65138 0.0
Mn648 Mn 0.37135 0.50954 0.76132 0.0
Mn649 Mn 0.3891 0.43701 0.70445 0.0
C650 C 0.32836 0.48924 0.71659 0.0
C651 C 0.34342 0.53604 0.81213 0.0
C652 C 0.42605 0.51352 0.69837 0.0
O653 O 0.41316 0.48351 0.78951 0.0
O654 O 0.41885 0.433 0.75135 0.0
C655 C 0.35699 0.37551 0.74776 0.0
N656 N 0.35777 0.3953 0.71595 0.0
C657 C 0.3075 0.3579 0.6885 0.0
C658 C 0.30646 0.3369 0.72083 0.0
C659 C 0.33129 0.34578 0.75059 0.0
C660 C 0.33398 0.387 0.68713 0.0
H661 H 0.37566 0.38253 0.7709 0.0
C662 C 0.42696 0.45182 0.78135 0.0
O663 O 0.3704 0.55328 0.79578 0.0
O664 O 0.33619 0.50174 0.80201 0.0
N665 N 0.36072 0.43826 0.65876 0.0
C666 C 0.36382 0.46259 0.63044 0.0
C667 C 0.34027 0.45817 0.59889 0.0
C668 C 0.31375 0.42886 0.59679 0.0
C669 C 0.3111 0.40414 0.62625 0.0
C670 C 0.33563 0.40966 0.65679 0.0
H671 H 0.38399 0.4853 0.63196 0.0
O672 O 0.32826 0.52341 0.72875 0.0
O673 O 0.35448 0.46891 0.72982 0.0
O674 O 0.40779 0.52909 0.72392 0.0
O675 O 0.42225 0.47895 0.68963 0.0
C676 C 0.28457 0.37472 0.62682 0.0
C677 C 0.28275 0.35164 0.65793 0.0
H678 H 0.28645 0.31416 0.72327 0.0
H679 H 0.33046 0.32988 0.77575 0.0
H680 H 0.3424 0.47742 0.57632 0.0
H681 H 0.29536 0.42581 0.57259 0.0
H682 H 0.2651 0.3699 0.60369 0.0
H683 H 0.26188 0.32944 0.65826 0.0
Mn684 Mn 0.61653 0.00145 0.75326 0.0
Mn685 Mn 0.64327 0.94565 0.6825 0.0
C686 C 0.57792 0.98872 0.70194 0.0
C687 C 0.58379 0.01582 0.80655 0.0
C688 C 0.67401 0.02357 0.69602 0.0
O689 O 0.65708 0.97148 0.77829 0.0
O690 O 0.67376 0.93717 0.72797 0.0
C691 C 0.62193 0.8721 0.71188 0.0
N692 N 0.61873 0.89805 0.68508 0.0
C693 C 0.5759 0.85853 0.64906 0.0
C694 C 0.5788 0.83137 0.67626 0.0
C695 C 0.60192 0.8382 0.70778 0.0
C696 C 0.59688 0.89159 0.65441 0.0
H697 H 0.63959 0.8772 0.73622 0.0
C698 C 0.67721 0.94705 0.76244 0.0
O699 O 0.61152 0.03649 0.79618 0.0
O700 O 0.5778 0.9846 0.78828 0.0
N701 N 0.61454 0.95143 0.63761 0.0
C702 C 0.6129 0.98145 0.61527 0.0
C703 C 0.58981 0.97977 0.58324 0.0
C704 C 0.56865 0.94728 0.57455 0.0
C705 C 0.57078 0.91675 0.59799 0.0
C706 C 0.59449 0.91995 0.62937 0.0
H707 H 0.62884 0.00659 0.62205 0.0
O708 O 0.57527 0.01992 0.72041 0.0
O709 O 0.60466 0.96765 0.71243 0.0
O710 O 0.65627 0.03005 0.72547 0.0
O711 O 0.66999 0.99363 0.67652 0.0
C712 C 0.54974 0.88356 0.59183 0.0
C713 C 0.55237 0.85443 0.6173 0.0
H714 H 0.56318 0.80532 0.67338 0.0
H715 H 0.60424 0.81743 0.7289 0.0
H716 H 0.58818 0.00351 0.56539 0.0
H717 H 0.55064 0.9462 0.54998 0.0
H718 H 0.53112 0.8803 0.56782 0.0
H719 H 0.53574 0.82922 0.61248 0.0
Mn720 Mn 0.75263 0.613 0.00311 0.0
Mn721 Mn 0.68545 0.64284 0.94473 0.0
C722 C 0.69958 0.57691 0.98901 0.0
C723 C 0.80356 0.57799 0.01971 0.0
C724 C 0.69918 0.6748 0.0224 0.0
O725 O 0.78093 0.65155 0.97329 0.0
O726 O 0.7332 0.66941 0.93607 0.0
C727 C 0.71449 0.61651 0.87261 0.0
N728 N 0.68697 0.6165 0.898 0.0
C729 C 0.64873 0.57475 0.85941 0.0
C730 C 0.67663 0.57441 0.83283 0.0
C731 C 0.70965 0.59533 0.8395 0.0
C732 C 0.65494 0.59668 0.89173 0.0
H733 H 0.74001 0.6324 0.87763 0.0
C734 C 0.76744 0.67111 0.94705 0.0
O735 O 0.79394 0.60656 0.03955 0.0
O736 O 0.78597 0.57218 0.98806 0.0
N737 N 0.63858 0.61759 0.95069 0.0
C738 C 0.61585 0.61841 0.98046 0.0
C739 C 0.58234 0.59755 0.97903 0.0
C740 C 0.57262 0.57598 0.94709 0.0
C741 C 0.59654 0.57544 0.91685 0.0
C742 C 0.62939 0.59708 0.91973 0.0
H743 H 0.62344 0.63456 0.00523 0.0
O744 O 0.71679 0.57366 0.02086 0.0
O745 O 0.71225 0.60293 0.96825 0.0
O746 O 0.72654 0.65466 0.03039 0.0
O747 O 0.6806 0.67179 0.9918 0.0
C748 C 0.58945 0.55363 0.88431 0.0
C749 C 0.6155 0.55334 0.85559 0.0
H750 H 0.6732 0.55783 0.80741 0.0
H751 H 0.73141 0.59495 0.81928 0.0
H752 H 0.56415 0.59791 0.00258 0.0
H753 H 0.54691 0.55965 0.94623 0.0
H754 H 0.56429 0.53657 0.88132 0.0
H755 H 0.60999 0.53604 0.83095 0.0
Mn756 Mn 0.8797 0.49571 0.74799 0.0
Mn757 Mn 0.86132 0.5497 0.82268 0.0
C758 C 0.92258 0.53947 0.77074 0.0
C759 C 0.90754 0.44608 0.7191 0.0
C760 C 0.82602 0.5597 0.7461 0.0
O761 O 0.83733 0.4665 0.7722 0.0
O762 O 0.83084 0.50303 0.82376 0.0
C763 C 0.89137 0.50292 0.88253 0.0
N764 N 0.89146 0.53574 0.86438 0.0
C765 C 0.94068 0.561 0.90456 0.0
C766 C 0.94075 0.52763 0.92395 0.0
C767 C 0.91603 0.49846 0.91284 0.0
C768 C 0.9152 0.56398 0.8748 0.0
H769 H 0.87283 0.48023 0.87377 0.0
C770 C 0.82288 0.47372 0.80381 0.0
O771 O 0.88077 0.46343 0.70266 0.0
O772 O 0.9146 0.45442 0.75388 0.0
N773 N 0.89029 0.59513 0.82437 0.0
C774 C 0.88803 0.62479 0.80159 0.0
C775 C 0.91163 0.65599 0.80831 0.0
C776 C 0.93727 0.6564 0.83837 0.0
C777 C 0.93901 0.62562 0.86152 0.0
C778 C 0.9145 0.59548 0.8537 0.0
H779 H 0.86849 0.6246 0.77835 0.0
O780 O 0.92312 0.52878 0.73613 0.0
O781 O 0.89625 0.52536 0.79024 0.0
O782 O 0.84378 0.5342 0.72989 0.0
O783 O 0.82949 0.56711 0.78096 0.0
C784 C 0.96456 0.62341 0.89162 0.0
C785 C 0.96542 0.59111 0.9131 0.0
H786 H 0.95995 0.52395 0.94714 0.0
H787 H 0.91613 0.47251 0.92748 0.0
H788 H 0.91018 0.67961 0.79027 0.0
H789 H 0.95569 0.68036 0.84323 0.0
H790 H 0.984 0.64619 0.8982 0.0
H791 H 0.98551 0.58956 0.93588 0.0
Mn792 Mn 0.75256 0.37375 0.50813 0.0
Mn793 Mn 0.69605 0.39653 0.43722 0.0
C794 C 0.70505 0.33395 0.48748 0.0
C795 C 0.80059 0.33951 0.53158 0.0
C796 C 0.69252 0.43135 0.51491 0.0
O797 O 0.78314 0.41429 0.48304 0.0
O798 O 0.74409 0.42487 0.4342 0.0
C799 C 0.73799 0.36552 0.37422 0.0
N800 N 0.70646 0.36624 0.39445 0.0
C801 C 0.67805 0.31688 0.35654 0.0
C802 C 0.71009 0.31592 0.33509 0.0
C803 C 0.74017 0.34037 0.34396 0.0
C804 C 0.67727 0.34292 0.38604 0.0
H805 H 0.76143 0.38378 0.38128 0.0
C806 C 0.77492 0.4304 0.45256 0.0
O807 O 0.78824 0.36756 0.5507 0.0
O808 O 0.78939 0.33583 0.49721 0.0
N809 N 0.64949 0.3695 0.43771 0.0
C810 C 0.62135 0.37269 0.46223 0.0
C811 C 0.58946 0.3496 0.45773 0.0
C812 C 0.58689 0.32339 0.42818 0.0
C813 C 0.61619 0.32061 0.40329 0.0
C814 C 0.64708 0.34471 0.40889 0.0
H815 H 0.6233 0.39254 0.48519 0.0
O816 O 0.71721 0.33273 0.52156 0.0
O817 O 0.71957 0.35988 0.46775 0.0
O818 O 0.7182 0.41237 0.52948 0.0
O819 O 0.68263 0.42824 0.48055 0.0
C820 C 0.61627 0.29439 0.3736 0.0
C821 C 0.64717 0.29252 0.35024 0.0
H822 H 0.71203 0.29629 0.31197 0.0
H823 H 0.76509 0.33963 0.32768 0.0
H824 H 0.56701 0.35181 0.47714 0.0
H825 H 0.56243 0.30535 0.42505 0.0
H826 H 0.59287 0.27525 0.36871 0.0
H827 H 0.64706 0.27197 0.32774 0.0
Mn828 Mn 0.64127 0.49901 0.25574 0.0
Mn829 Mn 0.61517 0.56911 0.31262 0.0
C830 C 0.67929 0.55101 0.26754 0.0
C831 C 0.6747 0.44666 0.2405 0.0
C832 C 0.58179 0.55471 0.23576 0.0
O833 O 0.60207 0.47328 0.28686 0.0
O834 O 0.58629 0.52309 0.32235 0.0
C835 C 0.64105 0.53977 0.38478 0.0
N836 N 0.64198 0.56696 0.35905 0.0
C837 C 0.68641 0.6034 0.39635 0.0
C838 C 0.68581 0.57583 0.42327 0.0
C839 C 0.66306 0.54387 0.41743 0.0
C840 C 0.6636 0.59796 0.3645 0.0
H841 H 0.62378 0.51505 0.38037 0.0
C842 C 0.58294 0.48867 0.3124 0.0
O843 O 0.64615 0.45628 0.22057 0.0
O844 O 0.68101 0.46493 0.27167 0.0
N845 N 0.64261 0.61458 0.30564 0.0
C846 C 0.64229 0.63702 0.27565 0.0
C847 C 0.66479 0.66947 0.27631 0.0
C848 C 0.6874 0.67845 0.30774 0.0
C849 C 0.68731 0.65488 0.33826 0.0
C850 C 0.66403 0.62312 0.33615 0.0
H851 H 0.62528 0.63 0.25128 0.0
O852 O 0.6816 0.53266 0.23623 0.0
O853 O 0.65322 0.53998 0.28906 0.0
O854 O 0.60027 0.52598 0.22838 0.0
O855 O 0.58625 0.57427 0.26566 0.0
C856 C 0.71004 0.66123 0.37031 0.0
C857 C 0.70956 0.63553 0.39934 0.0
H858 H 0.70302 0.5787 0.44832 0.0
H859 H 0.66266 0.52236 0.43795 0.0
H860 H 0.66487 0.68741 0.25257 0.0
H861 H 0.705 0.70331 0.30799 0.0
H862 H 0.72839 0.68551 0.37267 0.0
H863 H 0.72759 0.64042 0.42358 0.0
Fe864 Fe 0.12994 0.08989 0.16157 0.0
Fe865 Fe 0.09624 0.15915 0.1285 0.0
O866 O 0.13014 0.12466 0.12782 0.0
Fe867 Fe 0.16426 0.1249 0.09344 0.0
O868 O 0.1486 0.07984 0.07603 0.0
O869 O 0.14885 0.05358 0.13046 0.0
O870 O 0.08453 0.07334 0.14602 0.0
C871 C 0.05609 0.093 0.14534 0.0
C872 C 0.2039 0.10659 0.15916 0.0
O873 O 0.0593 0.12831 0.14708 0.0
C874 C 0.16246 0.19864 0.11026 0.0
O875 O 0.11088 0.11994 0.19875 0.0
O876 O 0.11182 0.17518 0.1741 0.0
O877 O 0.20093 0.10545 0.12385 0.0
O878 O 0.17536 0.10486 0.17868 0.0
C879 C 0.0983 0.14414 0.05434 0.0
O880 O 0.12713 0.19603 0.10984 0.0
O881 O 0.18163 0.16992 0.1091 0.0
C882 C 0.11235 0.15516 0.2023 0.0
O883 O 0.07902 0.14477 0.08303 0.0
O884 O 0.13362 0.14461 0.05701 0.0
C885 C 0.14738 0.05105 0.09516 0.0
Fe886 Fe 0.10102 0.84131 0.3749 0.0
Fe887 Fe 0.13359 0.91364 0.34525 0.0
O888 O 0.13342 0.87882 0.379 0.0
Fe889 Fe 0.16568 0.88178 0.41674 0.0
O890 O 0.18577 0.83797 0.40327 0.0
O891 O 0.13253 0.8072 0.39566 0.0
O892 O 0.11873 0.82695 0.33011 0.0
C893 C 0.11901 0.84758 0.30232 0.0
C894 C 0.09918 0.856 0.44973 0.0
O895 O 0.11736 0.88256 0.30658 0.0
C896 C 0.14689 0.95422 0.41275 0.0
O897 O 0.06396 0.86915 0.35336 0.0
O898 O 0.08678 0.92634 0.35609 0.0
O899 O 0.13441 0.85943 0.45011 0.0
O900 O 0.08119 0.85317 0.41929 0.0
C901 C 0.20776 0.90613 0.35513 0.0
O902 O 0.14962 0.95113 0.37775 0.0
O903 O 0.14743 0.92582 0.43255 0.0
C904 C 0.05928 0.90412 0.35325 0.0
O905 O 0.18052 0.90295 0.33258 0.0
O906 O 0.2027 0.90485 0.38998 0.0
C907 C 0.16778 0.80759 0.39924 0.0
Fe908 Fe 0.36924 0.92627 0.6647 0.0
Fe909 Fe 0.32677 0.88537 0.60073 0.0
O910 O 0.3649 0.88871 0.63241 0.0
Fe911 Fe 0.39893 0.85432 0.63182 0.0
O912 O 0.3884 0.84137 0.67876 0.0
O913 O 0.39184 0.8987 0.70119 0.0
O914 O 0.32578 0.91357 0.68539 0.0
C915 C 0.29503 0.90959 0.66826 0.0
C916 C 0.44132 0.92075 0.64639 0.0
O917 O 0.29362 0.9066 0.63298 0.0
C918 C 0.38844 0.86299 0.55784 0.0
O919 O 0.34727 0.96022 0.63385 0.0
O920 O 0.3392 0.92936 0.58085 0.0
O921 O 0.4372 0.88575 0.648 0.0
O922 O 0.4134 0.94116 0.64608 0.0
C923 C 0.33194 0.81273 0.61707 0.0
O924 O 0.35359 0.8635 0.56315 0.0
O925 O 0.4112 0.86561 0.58495 0.0
C926 C 0.34321 0.95972 0.59868 0.0
O927 O 0.31189 0.84086 0.61843 0.0
O928 O 0.36697 0.81654 0.61542 0.0
C929 C 0.39193 0.86379 0.70611 0.0
Fe930 Fe 0.42242 0.15475 0.88623 0.0
Fe931 Fe 0.38172 0.08974 0.84507 0.0
O932 O 0.38482 0.12237 0.88243 0.0
Fe933 Fe 0.35003 0.1227 0.9162 0.0
O934 O 0.33731 0.16925 0.90431 0.0
O935 O 0.39456 0.19195 0.90727 0.0
O936 O 0.4105 0.17419 0.84181 0.0
C937 C 0.40691 0.15612 0.81151 0.0
C938 C 0.416 0.13772 0.95895 0.0
O939 O 0.40341 0.12089 0.81119 0.0
C940 C 0.35839 0.04847 0.90761 0.0
O941 O 0.45657 0.12321 0.86563 0.0
O942 O 0.4257 0.07006 0.85832 0.0
O943 O 0.38108 0.13968 0.95449 0.0
O944 O 0.43674 0.13744 0.93122 0.0
C945 C 0.30904 0.10762 0.84924 0.0
O946 O 0.35942 0.05298 0.87264 0.0
O947 O 0.36087 0.07609 0.92975 0.0
C948 C 0.4561 0.088 0.86202 0.0
O949 O 0.33733 0.10729 0.82931 0.0
O950 O 0.31247 0.10587 0.88427 0.0
C951 C 0.35962 0.19675 0.90643 0.0
Fe952 Fe 0.59244 0.32847 0.88487 0.0
Fe953 Fe 0.62465 0.3998 0.85295 0.0
O954 O 0.62461 0.36625 0.88781 0.0
Fe955 Fe 0.6568 0.37059 0.92543 0.0
O956 O 0.67701 0.32671 0.91325 0.0
O957 O 0.62406 0.29529 0.90709 0.0
O958 O 0.6106 0.3126 0.84095 0.0
C959 C 0.61041 0.33211 0.81241 0.0
C960 C 0.59018 0.34564 0.95895 0.0
O961 O 0.60844 0.36722 0.81539 0.0
C962 C 0.63938 0.44281 0.91921 0.0
O963 O 0.55531 0.3553 0.86187 0.0
O964 O 0.57784 0.41262 0.86363 0.0
O965 O 0.62543 0.34927 0.95943 0.0
O966 O 0.57232 0.34191 0.92854 0.0
C967 C 0.69882 0.39283 0.86294 0.0
O968 O 0.64091 0.43843 0.88417 0.0
O969 O 0.63856 0.41502 0.93979 0.0
C970 C 0.55047 0.39021 0.86072 0.0
O971 O 0.67157 0.38879 0.8405 0.0
O972 O 0.69379 0.39273 0.89785 0.0
C973 C 0.65937 0.29614 0.91009 0.0
Fe974 Fe 0.83716 0.37584 0.09865 0.0
Fe975 Fe 0.87794 0.41785 0.16291 0.0
O976 O 0.87472 0.37996 0.13093 0.0
Fe977 Fe 0.9092 0.34599 0.13128 0.0
O978 O 0.92207 0.35679 0.08447 0.0
O979 O 0.86479 0.35381 0.06187 0.0
O980 O 0.84957 0.41967 0.07842 0.0
C981 C 0.85307 0.45024 0.09598 0.0
C982 C 0.84281 0.30356 0.11679 0.0
O983 O 0.85611 0.45114 0.13124 0.0
C984 C 0.90145 0.35626 0.20532 0.0
O985 O 0.80319 0.39716 0.12987 0.0
O986 O 0.83414 0.4047 0.18291 0.0
O987 O 0.87782 0.3076 0.115 0.0
O988 O 0.82244 0.33148 0.11683 0.0
C989 C 0.95051 0.41317 0.14597 0.0
O990 O 0.90044 0.39107 0.20007 0.0
O991 O 0.89818 0.33352 0.17821 0.0
C992 C 0.80376 0.40026 0.16512 0.0
O993 O 0.92229 0.43318 0.14499 0.0
O994 O 0.94687 0.37812 0.1476 0.0
C995 C 0.89972 0.35396 0.05704 0.0
Fe996 Fe 0.85348 0.6261 0.40544 0.0
Fe997 Fe 0.92543 0.65899 0.37561 0.0
O998 O 0.88799 0.6266 0.37154 0.0
Fe999 Fe 0.88504 0.59452 0.33376 0.0
O1000 O 0.84103 0.61265 0.31806 0.0
O1001 O 0.81603 0.60981 0.37298 0.0
O1002 O 0.84051 0.67284 0.39471 0.0
C1003 C 0.8627 0.70035 0.39807 0.0
C1004 C 0.86074 0.55206 0.39513 0.0
O1005 O 0.89767 0.69576 0.39772 0.0
C1006 C 0.95888 0.59237 0.35211 0.0
O1007 O 0.88483 0.64251 0.44397 0.0
O1008 O 0.94012 0.64087 0.41986 0.0
O1009 O 0.86197 0.55736 0.36033 0.0
O1010 O 0.86451 0.57912 0.41787 0.0
C1011 C 0.91064 0.66131 0.3012 0.0
O1012 O 0.95944 0.62767 0.35448 0.0
O1013 O 0.92855 0.57452 0.34755 0.0
C1014 C 0.91992 0.64129 0.44787 0.0
O1015 O 0.9131 0.6791 0.33169 0.0
O1016 O 0.90748 0.62603 0.30057 0.0
C1017 C 0.81267 0.6115 0.33786 0.0
Fe1018 Fe 0.91211 0.84068 0.88002 0.0
Fe1019 Fe 0.83892 0.8689 0.90934 0.0
O1020 O 0.8757 0.87253 0.87801 0.0
Fe1021 Fe 0.87612 0.90796 0.84497 0.0
O1022 O 0.91969 0.92677 0.86363 0.0
O1023 O 0.94813 0.87352 0.86413 0.0
O1024 O 0.92428 0.85572 0.92707 0.0
C1025 C 0.90207 0.85322 0.95354 0.0
C1026 C 0.90231 0.84506 0.80531 0.0
O1027 O 0.86736 0.8498 0.94738 0.0
C1028 C 0.80271 0.8898 0.84243 0.0
O1029 O 0.88277 0.80178 0.89611 0.0
O1030 O 0.82623 0.82314 0.89106 0.0
O1031 O 0.8995 0.88004 0.80899 0.0
O1032 O 0.90158 0.8244 0.83315 0.0
C1033 C 0.85068 0.94363 0.91021 0.0
O1034 O 0.80361 0.88763 0.87751 0.0
O1035 O 0.8324 0.89119 0.82456 0.0
C1036 C 0.84792 0.79619 0.89271 0.0
O1037 O 0.85016 0.91439 0.92885 0.0
O1038 O 0.85306 0.94223 0.87509 0.0
C1039 C 0.94921 0.90873 0.86474 0.0
Fe1040 Fe 0.87562 0.09779 0.65901 0.0
Fe1041 Fe 0.84147 0.13124 0.58842 0.0
O1042 O 0.87586 0.13267 0.62468 0.0
Fe1043 Fe 0.91044 0.16875 0.6269 0.0
O1044 O 0.89745 0.18334 0.67355 0.0
O1045 O 0.89529 0.12738 0.69622 0.0
O1046 O 0.82923 0.1102 0.67378 0.0
C1047 C 0.80111 0.10916 0.6519 0.0
C1048 C 0.9503 0.10486 0.64858 0.0
O1049 O 0.80487 0.1124 0.61725 0.0
C1050 C 0.90631 0.1555 0.5516 0.0
O1051 O 0.85587 0.06114 0.62864 0.0
O1052 O 0.85434 0.08481 0.57307 0.0
O1053 O 0.94662 0.13948 0.64536 0.0
O1054 O 0.92214 0.08296 0.64685 0.0
C1055 C 0.84609 0.20637 0.60281 0.0
O1056 O 0.87163 0.15007 0.553 0.0
O1057 O 0.92651 0.15722 0.58076 0.0
C1058 C 0.85207 0.05716 0.5939 0.0
O1059 O 0.82565 0.17734 0.60068 0.0
O1060 O 0.88068 0.20461 0.60855 0.0
C1061 C 0.89972 0.16197 0.70081 0.0
Fe1062 Fe 0.64526 0.09598 0.34216 0.0
Fe1063 Fe 0.66891 0.11716 0.42226 0.0
O1064 O 0.63822 0.12231 0.38365 0.0
Fe1065 Fe 0.60103 0.15379 0.38675 0.0
O1066 O 0.61681 0.17951 0.34704 0.0
O1067 O 0.62827 0.13139 0.31091 0.0
O1068 O 0.69222 0.11549 0.33749 0.0
C1069 C 0.71757 0.11093 0.36175 0.0
C1070 C 0.56934 0.09272 0.34468 0.0
O1071 O 0.70932 0.10555 0.39509 0.0
C1072 C 0.60002 0.12928 0.45748 0.0
O1073 O 0.66291 0.05532 0.366 0.0
O1074 O 0.6557 0.06812 0.42552 0.0
O1075 O 0.56906 0.12575 0.35719 0.0
O1076 O 0.59896 0.07456 0.3435 0.0
C1077 C 0.66109 0.19249 0.42324 0.0
O1078 O 0.63499 0.12787 0.45733 0.0
O1079 O 0.58186 0.13105 0.42712 0.0
C1080 C 0.65991 0.0448 0.39913 0.0
O1081 O 0.68359 0.166 0.42094 0.0
O1082 O 0.62674 0.18758 0.41636 0.0
C1083 C 0.62028 0.16521 0.31501 0.0
Fe1084 Fe 0.59107 0.83542 0.13742 0.0
Fe1085 Fe 0.65967 0.87317 0.10342 0.0
O1086 O 0.62481 0.87223 0.13776 0.0
Fe1087 Fe 0.62318 0.90824 0.17223 0.0
O1088 O 0.57612 0.9203 0.15771 0.0
O1089 O 0.5537 0.86306 0.1557 0.0
O1090 O 0.57479 0.84632 0.0907 0.0
C1091 C 0.59575 0.84647 0.06297 0.0
C1092 C 0.60383 0.84362 0.2121 0.0
O1093 O 0.63036 0.85187 0.06678 0.0
C1094 C 0.69819 0.90146 0.16836 0.0
O1095 O 0.62173 0.80057 0.119 0.0
O1096 O 0.67682 0.8276 0.11621 0.0
O1097 O 0.60566 0.87844 0.20861 0.0
O1098 O 0.60485 0.82195 0.184 0.0
C1099 C 0.64501 0.94738 0.10819 0.0
O1100 O 0.69518 0.89493 0.13382 0.0
O1101 O 0.67026 0.89938 0.18901 0.0
C1102 C 0.6563 0.79849 0.11464 0.0
O1103 O 0.6456 0.91864 0.0873 0.0
O1104 O 0.64043 0.94461 0.14265 0.0
C1105 C 0.54882 0.89756 0.15712 0.0
Fe1106 Fe 0.41696 0.66347 0.12834 0.0
Fe1107 Fe 0.34458 0.63061 0.09313 0.0
O1108 O 0.38063 0.62925 0.12761 0.0
Fe1109 Fe 0.38036 0.59397 0.16153 0.0
O1110 O 0.42602 0.5776 0.14811 0.0
O1111 O 0.45226 0.63311 0.14626 0.0
O1112 O 0.43064 0.65041 0.08164 0.0
C1113 C 0.40899 0.65098 0.05348 0.0
C1114 C 0.4063 0.65771 0.20271 0.0
O1115 O 0.37417 0.64866 0.05684 0.0
C1116 C 0.30597 0.60745 0.15717 0.0
O1117 O 0.38884 0.70054 0.11041 0.0
O1118 O 0.33183 0.67749 0.10768 0.0
O1119 O 0.40154 0.62307 0.1984 0.0
O1120 O 0.40586 0.67904 0.17526 0.0
C1121 C 0.35274 0.55567 0.09642 0.0
O1122 O 0.3085 0.61262 0.12275 0.0
O1123 O 0.33479 0.60725 0.17799 0.0
C1124 C 0.35429 0.70503 0.1082 0.0
O1125 O 0.35418 0.58382 0.07606 0.0
O1126 O 0.35892 0.55848 0.13099 0.0
C1127 C 0.45487 0.59846 0.14942 0.0
Fe1128 Fe 0.13449 0.58508 0.83947 0.0
Fe1129 Fe 0.15859 0.61739 0.91593 0.0
O1130 O 0.1303 0.6195 0.87508 0.0
Fe1131 Fe 0.0981 0.6558 0.86959 0.0
O1132 O 0.11925 0.67093 0.82674 0.0
O1133 O 0.12207 0.61531 0.80137 0.0
O1134 O 0.18323 0.59805 0.83306 0.0
C1135 C 0.20756 0.59702 0.85896 0.0
C1136 C 0.05927 0.59211 0.83963 0.0
O1137 O 0.1984 0.59762 0.89263 0.0
C1138 C 0.08992 0.6432 0.94353 0.0
O1139 O 0.14741 0.54772 0.87053 0.0
O1140 O 0.14022 0.57148 0.92641 0.0
O1141 O 0.06371 0.62692 0.84366 0.0
O1142 O 0.08608 0.57032 0.84381 0.0
C1143 C 0.16021 0.69219 0.90586 0.0
O1144 O 0.12423 0.63699 0.94676 0.0
O1145 O 0.0741 0.64409 0.91186 0.0
C1146 C 0.14393 0.54357 0.90503 0.0
O1147 O 0.17904 0.66317 0.90845 0.0
O1148 O 0.1266 0.69076 0.895 0.0
C1149 C 0.12003 0.65006 0.79808 0.0
Fe1150 Fe 0.15422 0.39153 0.59892 0.0
Fe1151 Fe 0.09297 0.34462 0.63545 0.0
O1152 O 0.12087 0.3858 0.63419 0.0
Fe1153 Fe 0.11526 0.42144 0.66833 0.0
O1154 O 0.16346 0.41807 0.68434 0.0
O1155 O 0.18729 0.4184 0.62841 0.0
O1156 O 0.17853 0.34982 0.61195 0.0
C1157 C 0.16306 0.31798 0.61298 0.0
C1158 C 0.13073 0.46253 0.60333 0.0
O1159 O 0.12846 0.31435 0.61734 0.0
C1160 C 0.04264 0.40086 0.65492 0.0
O1161 O 0.12744 0.36528 0.56331 0.0
O1162 O 0.07399 0.35163 0.58888 0.0
O1163 O 0.12773 0.45949 0.63805 0.0
O1164 O 0.13272 0.43375 0.58276 0.0
C1165 C 0.10581 0.35583 0.7097 0.0
O1166 O 0.0522 0.36732 0.65393 0.0
O1167 O 0.06669 0.42705 0.65432 0.0
C1168 C 0.09398 0.35415 0.5606 0.0
O1169 O 0.10995 0.33444 0.68189 0.0
O1170 O 0.10203 0.39029 0.70554 0.0
C1171 C 0.19077 0.42265 0.66325 0.0
Fe1172 Fe 0.66012 0.63042 0.59813 0.0
Fe1173 Fe 0.62714 0.59636 0.66716 0.0
O1174 O 0.62653 0.63049 0.63289 0.0
Fe1175 Fe 0.59238 0.66465 0.63342 0.0
O1176 O 0.57465 0.64929 0.58853 0.0
O1177 O 0.62889 0.64979 0.56187 0.0
O1178 O 0.6443 0.58521 0.58145 0.0
C1179 C 0.64452 0.55669 0.60098 0.0
C1180 C 0.65826 0.70423 0.61416 0.0
O1181 O 0.64627 0.55973 0.63628 0.0
C1182 C 0.60904 0.66222 0.70695 0.0
O1183 O 0.69724 0.61114 0.62831 0.0
O1184 O 0.67251 0.61213 0.68354 0.0
O1185 O 0.62288 0.70148 0.61376 0.0
O1186 O 0.67751 0.67556 0.61325 0.0
C1187 C 0.55317 0.59836 0.65194 0.0
O1188 O 0.60804 0.62691 0.70405 0.0
O1189 O 0.60848 0.68163 0.67838 0.0
C1190 C 0.70076 0.61241 0.66362 0.0
O1191 O 0.58185 0.57908 0.65229 0.0
O1192 O 0.55593 0.63373 0.65307 0.0
C1193 C 0.59353 0.64884 0.55962 0.0
Fe1194 Fe 0.41686 0.3453 0.38682 0.0
Fe1195 Fe 0.38324 0.4145 0.3536 0.0
O1196 O 0.38245 0.37936 0.38692 0.0
Fe1197 Fe 0.34723 0.37804 0.42015 0.0
O1198 O 0.33146 0.33258 0.4034 0.0
O1199 O 0.38679 0.30812 0.40484 0.0
O1200 O 0.40254 0.32955 0.34058 0.0
C1201 C 0.403 0.35023 0.31277 0.0
C1202 C 0.41196 0.35812 0.46085 0.0
O1203 O 0.4036 0.38532 0.31679 0.0
C1204 C 0.36061 0.45239 0.41917 0.0
O1205 O 0.45347 0.37598 0.3688 0.0
O1206 O 0.42848 0.43105 0.37037 0.0
O1207 O 0.37683 0.35817 0.45694 0.0
O1208 O 0.43254 0.35959 0.43301 0.0
C1209 C 0.30924 0.39837 0.35424 0.0
O1210 O 0.36273 0.45011 0.38407 0.0
O1211 O 0.36109 0.42356 0.43843 0.0
C1212 C 0.45679 0.41108 0.36969 0.0
O1213 O 0.3382 0.39951 0.33522 0.0
O1214 O 0.31127 0.3975 0.38941 0.0
C1215 C 0.35175 0.30454 0.40342 0.0
C1216 C 0.10919 0.23181 0.27495 0.0
C1217 C 0.08631 0.21572 0.30162 0.0
H1218 H 0.13541 0.22504 0.22262 0.0
C1219 C 0.07723 0.17743 0.29825 0.0
H1220 H 0.11758 0.26087 0.27713 0.0
C1221 C 0.08809 0.1566 0.26715 0.0
C1222 C 0.10783 0.17386 0.23881 0.0
H1223 H 0.06023 0.16392 0.31869 0.0
H1224 H 0.07896 0.12776 0.26419 0.0
C1225 C 0.11954 0.21121 0.24375 0.0
C1226 C 0.02242 0.83159 0.51637 0.0
C1227 C 0.0426 0.82744 0.54987 0.0
H1228 H 0.02436 0.84388 0.45854 0.0
C1229 C 0.0806 0.83778 0.55127 0.0
H1230 H 0.99312 0.82397 0.51429 0.0
C1231 C 0.0987 0.84881 0.51914 0.0
C1232 C 0.07918 0.84987 0.4849 0.0
H1233 H 0.09701 0.83502 0.57664 0.0
H1234 H 0.12836 0.85474 0.52084 0.0
C1235 C 0.04049 0.84271 0.48426 0.0
C1236 C 0.42457 0.79704 0.7793 0.0
C1237 C 0.44553 0.82128 0.80313 0.0
H1238 H 0.39085 0.79159 0.72945 0.0
C1239 C 0.44408 0.8598 0.79767 0.0
H1240 H 0.42523 0.76724 0.78286 0.0
C1241 C 0.42414 0.87376 0.76767 0.0
C1242 C 0.40575 0.84946 0.74193 0.0
H1243 H 0.45974 0.87926 0.81568 0.0
H1244 H 0.42521 0.90347 0.76343 0.0
C1245 C 0.40504 0.81101 0.74872 0.0
C1246 C 0.43035 0.17958 0.05487 0.0
C1247 C 0.46719 0.17054 0.06376 0.0
H1248 H 0.38488 0.17488 0.01597 0.0
C1249 C 0.48666 0.14817 0.03872 0.0
H1250 H 0.41545 0.19895 0.07206 0.0
C1251 C 0.46962 0.13581 0.00504 0.0
C1252 C 0.43277 0.14537 0.99627 0.0
H1253 H 0.51547 0.14171 0.04442 0.0
H1254 H 0.48557 0.11985 0.9854 0.0
C1255 C 0.413 0.16632 0.02215 0.0
C1256 C 0.11098 0.77672 0.22257 0.0
C1257 C 0.08641 0.79456 0.1983 0.0
H1258 H 0.14092 0.77972 0.27505 0.0
C1259 C 0.07495 0.83054 0.20771 0.0
H1260 H 0.11935 0.74853 0.21653 0.0
C1261 C 0.08809 0.84873 0.24007 0.0
C1262 C 0.1114 0.83052 0.26512 0.0
H1263 H 0.05391 0.84397 0.19122 0.0
H1264 H 0.0777 0.87606 0.24674 0.0
C1265 C 0.12321 0.7945 0.25594 0.0
C1266 C 0.39218 0.80991 0.46688 0.0
C1267 C 0.4307 0.80914 0.46102 0.0
H1268 H 0.34852 0.82838 0.50142 0.0
C1269 C 0.45474 0.83116 0.48407 0.0
H1270 H 0.37286 0.79343 0.44947 0.0
C1271 C 0.44071 0.85096 0.51443 0.0
C1272 C 0.40237 0.84945 0.52176 0.0
H1273 H 0.48452 0.83107 0.48019 0.0
H1274 H 0.46006 0.86588 0.53322 0.0
C1275 C 0.37814 0.83012 0.49667 0.0
C1276 C 0.42078 0.17507 0.70941 0.0
C1277 C 0.4324 0.21273 0.71079 0.0
H1278 H 0.40388 0.12748 0.74014 0.0
C1279 C 0.43037 0.23273 0.74462 0.0
H1280 H 0.42187 0.15881 0.68376 0.0
C1281 C 0.42019 0.21468 0.777 0.0
C1282 C 0.41195 0.17619 0.77629 0.0
H1283 H 0.43904 0.26177 0.74666 0.0
H1284 H 0.42069 0.23061 0.80293 0.0
C1285 C 0.41077 0.15695 0.74184 0.0
C1286 C 0.01955 0.15352 0.98469 0.0
C1287 C 0.03663 0.17404 0.95682 0.0
H1288 H 0.02587 0.12767 0.0372 0.0
C1289 C 0.07561 0.17946 0.95848 0.0
H1290 H 0.9898 0.14825 0.98397 0.0
C1291 C 0.09651 0.16729 0.98899 0.0
C1292 C 0.07871 0.14982 0.01843 0.0
H1293 H 0.08981 0.19456 0.93707 0.0
H1294 H 0.12611 0.17361 0.99054 0.0
C1295 C 0.0403 0.14171 0.01521 0.0
C1296 C 0.27595 0.10298 0.2369 0.0
C1297 C 0.30629 0.08792 0.21847 0.0
H1298 H 0.21984 0.12073 0.23247 0.0
C1299 C 0.30457 0.08425 0.17936 0.0
H1300 H 0.27635 0.10643 0.2669 0.0
C1301 C 0.27202 0.09249 0.15947 0.0
C1302 C 0.24053 0.10422 0.17842 0.0
H1303 H 0.32772 0.0732 0.16424 0.0
H1304 H 0.27088 0.08763 0.12964 0.0
C1305 C 0.2434 0.1109 0.21711 0.0
C1306 C 0.14915 0.03288 0.48493 0.0
C1307 C 0.17291 0.0586 0.46799 0.0
H1308 H 0.12193 0.97901 0.48044 0.0
C1309 C 0.18635 0.05007 0.43253 0.0
H1310 H 0.13939 0.0383 0.51275 0.0
C1311 C 0.17562 0.01731 0.41377 0.0
C1312 C 0.15281 0.99105 0.43089 0.0
H1313 H 0.20688 0.06785 0.41987 0.0
H1314 H 0.18729 0.01153 0.38679 0.0
C1315 C 0.13931 -0.00088 0.46654 0.0
C1316 C 0.1943 0.92497 0.69113 0.0
C1317 C 0.19739 0.93538 0.72908 0.0
H1318 H 0.22285 0.90893 0.64191 0.0
C1319 C 0.23154 0.93123 0.74793 0.0
H1320 H 0.16826 0.92758 0.67581 0.0
C1321 C 0.26286 0.92062 0.72843 0.0
C1322 C 0.26065 0.91411 0.68965 0.0
H1323 H 0.2348 0.93878 0.77717 0.0
H1324 H 0.28923 0.91965 0.74348 0.0
C1325 C 0.22568 0.91456 0.67156 0.0
C1326 C 0.31076 0.95435 0.91071 0.0
C1327 C 0.30516 0.95062 0.94904 0.0
H1328 H 0.33272 0.98758 0.86762 0.0
C1329 C 0.32234 0.97648 0.97407 0.0
H1330 H 0.29824 0.93464 0.89069 0.0
C1331 C 0.34197 0.00733 0.96071 0.0
C1332 C 0.34501 0.01249 0.92213 0.0
H1333 H 0.31852 0.97426 0.00373 0.0
H1334 H 0.35306 0.02807 0.98053 0.0
C1335 C 0.33067 0.98474 0.89742 0.0
C1336 C 0.29901 0.95963 0.3513 0.0
C1337 C 0.3047 0.96085 0.31275 0.0
H1338 H 0.26455 0.94071 0.39499 0.0
C1339 C 0.28089 0.9397 0.28862 0.0
H1340 H 0.31711 0.97525 0.37075 0.0
C1341 C 0.25041 0.92 0.30261 0.0
C1342 C 0.24352 0.92068 0.34103 0.0
H1343 H 0.28459 0.93999 0.25883 0.0
H1344 H 0.2314 0.90549 0.28318 0.0
C1345 C 0.26896 0.93958 0.3653 0.0
C1346 C 0.32463 0.06071 0.57916 0.0
C1347 C 0.3144 0.05869 0.54114 0.0
H1348 H 0.34164 0.03099 0.62735 0.0
C1349 C 0.31913 0.02519 0.52127 0.0
H1350 H 0.32149 0.0862 0.59528 0.0
C1351 C 0.33058 0.99352 0.53971 0.0
C1352 C 0.33741 0.99465 0.57845 0.0
H1353 H 0.31167 0.02273 0.49195 0.0
H1354 H 0.33216 0.96769 0.52383 0.0
C1355 C 0.33596 0.02898 0.59766 0.0
C1356 C 0.2118 0.06967 0.83348 0.0
C1357 C 0.20389 0.07889 0.79646 0.0
H1358 H 0.25007 0.07292 0.87946 0.0
C1359 C 0.23044 0.09943 0.77698 0.0
H1360 H 0.19315 0.05177 0.84853 0.0
C1361 C 0.26445 0.11021 0.79439 0.0
C1362 C 0.27202 0.10083 0.83155 0.0
H1363 H 0.2254 0.10602 0.7481 0.0
H1364 H 0.2851 0.12506 0.77862 0.0
C1365 C 0.24489 0.08132 0.85111 0.0
C1366 C 0.17249 0.95142 0.07423 0.0
C1367 C 0.17043 0.95047 0.03502 0.0
H1368 H 0.16644 0.98399 0.12428 0.0
C1369 C 0.1551 0.98063 0.0166 0.0
H1370 H 0.18351 0.92828 0.08939 0.0
C1371 C 0.14551 0.01251 0.03659 0.0
C1372 C 0.15082 0.01482 0.07548 0.0
H1373 H 0.15267 0.98056 0.98655 0.0
H1374 H 0.13558 0.03607 0.02132 0.0
C1375 C 0.16267 0.98331 0.09431 0.0
C1376 C 0.24127 0.26841 0.10023 0.0
C1377 C 0.22368 0.29679 0.08089 0.0
H1378 H 0.23546 0.21529 0.12506 0.0
C1379 C 0.18462 0.29513 0.07632 0.0
H1380 H 0.27116 0.26897 0.10465 0.0
C1381 C 0.164 0.26436 0.08829 0.0
C1382 C 0.18213 0.23458 0.10476 0.0
H1383 H 0.17006 0.31685 0.06205 0.0
H1384 H 0.13429 0.26293 0.08262 0.0
C1385 C 0.22074 0.2376 0.1119 0.0
C1386 C 0.68054 0.1953 0.92785 0.0
C1387 C 0.71871 0.19777 0.93747 0.0
H1388 H 0.63168 0.22448 0.91186 0.0
C1389 C 0.73806 0.23155 0.93258 0.0
H1390 H 0.6648 0.16959 0.93111 0.0
C1391 C 0.719 0.26305 0.92166 0.0
C1392 C 0.68015 0.26146 0.91552 0.0
H1393 H 0.76746 0.23437 0.93957 0.0
H1394 H 0.73452 0.2891 0.91994 0.0
C1395 C 0.66143 0.22686 0.91707 0.0
C1396 C 0.04111 0.43015 0.19748 0.0
C1397 C 0.05187 0.46582 0.18625 0.0
H1398 H 0.00189 0.38508 0.19219 0.0
C1399 C 0.02932 0.48433 0.16065 0.0
H1400 H 0.05686 0.41604 0.2187 0.0
C1401 C 0.99663 0.46687 0.14616 0.0
C1402 C 0.98657 0.43071 0.15698 0.0
H1403 H 0.03667 0.51226 0.15237 0.0
H1404 H 0.97901 0.48171 0.12704 0.0
C1405 C 0.00942 0.41245 0.1824 0.0
C1406 C 0.79449 0.77226 0.43033 0.0
C1407 C 0.81802 0.79615 0.45201 0.0
H1408 H 0.79034 0.7229 0.39584 0.0
C1409 C 0.8567 0.79114 0.45124 0.0
H1410 H 0.76462 0.77549 0.43031 0.0
C1411 C 0.87145 0.76158 0.43125 0.0
C1412 C 0.84782 0.73588 0.41199 0.0
H1413 H 0.87571 0.80924 0.46735 0.0
H1414 H 0.9012 0.75762 0.43288 0.0
C1415 C 0.80926 0.74218 0.41067 0.0
C1416 C 0.98463 0.01533 0.15402 0.0
C1417 C 0.95537 0.03392 0.17088 0.0
H1418 H 0.03936 0.01956 0.1325 0.0
C1419 C 0.95707 0.07312 0.17357 0.0
H1420 H 0.98399 0.98531 0.15095 0.0
C1421 C 0.98888 0.0929 0.16288 0.0
C1422 C 0.0196 0.07383 0.14949 0.0
H1423 H 0.93465 0.08846 0.18577 0.0
H1424 H 0.9902 0.12281 0.16722 0.0
C1425 C 0.01645 0.03504 0.14357 0.0
C1426 C 0.25936 0.73587 0.59879 0.0
C1427 C 0.27914 0.71183 0.57572 0.0
H1428 H 0.26101 0.78704 0.63092 0.0
C1429 C 0.31631 0.7206 0.56789 0.0
H1430 H 0.23041 0.73 0.6045 0.0
C1431 C 0.33397 0.75202 0.58363 0.0
C1432 C 0.31434 0.77658 0.60623 0.0
H1433 H 0.33169 0.70358 0.54867 0.0
H1434 H 0.36251 0.75804 0.57632 0.0
C1435 C 0.27688 0.76821 0.61394 0.0
C1436 C 0.02475 0.51367 0.33547 0.0
C1437 C 0.05837 0.53321 0.33025 0.0
H1438 H 0.96686 0.51709 0.34657 0.0
C1439 C 0.06037 0.57163 0.33858 0.0
H1440 H 0.02236 0.48402 0.32962 0.0
C1441 C 0.02837 0.59079 0.34779 0.0
C1442 C 0.9939 0.5718 0.34905 0.0
H1443 H 0.08597 0.58749 0.33509 0.0
H1444 H 0.03032 0.62072 0.35173 0.0
C1445 C 0.99282 0.53277 0.3448 0.0
C1446 C 0.47765 0.45827 0.8305 0.0
C1447 C 0.45479 0.4356 0.80687 0.0
H1448 H 0.52602 0.46152 0.86643 0.0
C1449 C 0.46075 0.39704 0.80536 0.0
H1450 H 0.47372 0.48801 0.83235 0.0
C1451 C 0.49025 0.38178 0.82522 0.0
C1452 C 0.51484 0.40482 0.84662 0.0
H1453 H 0.4434 0.37867 0.78771 0.0
H1454 H 0.49508 0.35229 0.82193 0.0
C1455 C 0.50759 0.44306 0.84998 0.0
C1456 C 0.91587 0.7725 0.73105 0.0
C1457 C 0.94189 0.78986 0.70796 0.0
H1458 H 0.88294 0.77659 0.77946 0.0
C1459 C 0.9517 0.82749 0.71498 0.0
H1460 H 0.90701 0.74374 0.72646 0.0
C1461 C 0.93704 0.84663 0.74556 0.0
C1462 C 0.91279 0.82819 0.76958 0.0
H1463 H 0.97137 0.84175 0.6976 0.0
H1464 H 0.94612 0.87512 0.75149 0.0
C1465 C 0.90177 0.79132 0.76151 0.0
C1466 C 0.94932 0.22408 0.48785 0.0
C1467 C 0.94205 0.20756 0.45255 0.0
H1468 H 0.9452 0.21945 0.54667 0.0
C1469 C 0.92374 0.17265 0.44994 0.0
H1470 H 0.96406 0.25063 0.49095 0.0
C1471 C 0.91237 0.15496 0.48228 0.0
C1472 C 0.92084 0.17124 0.51745 0.0
H1473 H 0.91836 0.15912 0.42308 0.0
H1474 H 0.89737 0.12851 0.47992 0.0
C1475 C 0.93931 0.20589 0.5199 0.0
C1476 C 0.58593 0.17763 0.21688 0.0
C1477 C 0.55134 0.19334 0.22342 0.0
H1478 H 0.63588 0.15676 0.2415 0.0
C1479 C 0.54292 0.20587 0.25936 0.0
H1480 H 0.59307 0.16845 0.18911 0.0
C1481 C 0.568 0.20096 0.28891 0.0
C1482 C 0.60134 0.18223 0.28311 0.0
H1483 H 0.51657 0.21876 0.26468 0.0
H1484 H 0.55975 0.2089 0.31671 0.0
C1485 C 0.61056 0.17159 0.24665 0.0
C1486 C 0.53648 0.82251 0.97792 0.0
C1487 C 0.55835 0.79563 0.96048 0.0
H1488 H 0.5311 0.85978 0.02488 0.0
C1489 C 0.59195 0.7854 0.97692 0.0
H1490 H 0.50992 0.83002 0.96578 0.0
C1491 C 0.60432 0.80295 0.00992 0.0
C1492 C 0.58244 0.82977 0.02758 0.0
H1493 H 0.60868 0.7642 0.9641 0.0
H1494 H 0.63068 0.79493 0.02209 0.0
C1495 C 0.5483 0.83929 0.01159 0.0
C1496 C 0.93562 0.22042 0.78285 0.0
C1497 C 0.9624 0.19682 0.79802 0.0
H1498 H 0.89448 0.22794 0.73959 0.0
C1499 C 0.96896 0.16259 0.78084 0.0
H1500 H 0.93082 0.24739 0.79563 0.0
C1501 C 0.9475 0.15113 0.74982 0.0
C1502 C 0.92033 0.17447 0.73465 0.0
H1503 H 0.98988 0.14442 0.79192 0.0
H1504 H 0.9526 0.1241 0.73736 0.0
C1505 C 0.91493 0.20947 0.75101 0.0
C1506 C 0.53939 0.18263 0.52314 0.0
C1507 C 0.5644 0.18869 0.55336 0.0
H1508 H 0.5307 0.15828 0.46856 0.0
C1509 C 0.59766 0.16949 0.5546 0.0
H1510 H 0.51338 0.19722 0.52197 0.0
C1511 C 0.60696 0.14619 0.52489 0.0
C1512 C 0.5838 0.14284 0.49269 0.0
H1513 H 0.61702 0.17346 0.57794 0.0
H1514 H 0.63376 0.13309 0.52605 0.0
C1515 C 0.54911 0.16004 0.49281 0.0
C1516 C 0.57854 0.837 0.31316 0.0
C1517 C 0.54557 0.81544 0.30985 0.0
H1518 H 0.62325 0.86326 0.28401 0.0
C1519 C 0.53416 0.80079 0.27475 0.0
H1520 H 0.58825 0.84789 0.34006 0.0
C1521 C 0.55508 0.80761 0.24349 0.0
C1522 C 0.58732 0.83015 0.24638 0.0
H1523 H 0.50938 0.78318 0.27148 0.0
H1524 H 0.54503 0.79662 0.21671 0.0
C1525 C 0.59883 0.8451 0.28138 0.0
C1526 C 0.92791 0.80367 0.04099 0.0
C1527 C 0.96005 0.82423 0.05244 0.0
H1528 H 0.88348 0.79741 0.00022 0.0
C1529 C 0.96847 0.85787 0.03477 0.0
H1530 H 0.92055 0.77781 0.05411 0.0
C1531 C 0.94786 0.86851 0.00383 0.0
C1532 C 0.91776 0.84641 0.99058 0.0
H1533 H 0.99252 0.87495 0.04325 0.0
H1534 H 0.95655 0.8931 0.98913 0.0
C1535 C 0.9067 0.81489 0.01026 0.0
C1536 C 0.70959 0.93267 0.82296 0.0
C1537 C 0.70727 0.92952 0.78398 0.0
H1538 H 0.74146 0.92161 0.87234 0.0
C1539 C 0.73474 0.90984 0.76504 0.0
H1540 H 0.68867 0.94728 0.83835 0.0
C1541 C 0.7648 0.89532 0.78435 0.0
C1542 C 0.76795 0.89973 0.82309 0.0
H1543 H 0.73381 0.90661 0.73502 0.0
H1544 H 0.78618 0.88157 0.76879 0.0
C1545 C 0.7396 0.91764 0.84241 0.0
C1546 C 0.78421 0.97596 0.58947 0.0
C1547 C 0.79344 0.95854 0.55604 0.0
H1548 H 0.79702 0.02032 0.62827 0.0
C1549 C 0.82146 0.97407 0.53411 0.0
H1550 H 0.76226 0.96465 0.6063 0.0
C1551 C 0.84074 0.00648 0.54599 0.0
C1552 C 0.83262 0.02308 0.58028 0.0
H1553 H 0.8283 0.96115 0.50771 0.0
H1554 H 0.86226 0.01814 0.52885 0.0
C1555 C 0.80419 0.00762 0.60188 0.0
C1556 C 0.80515 0.05595 0.35597 0.0
C1557 C 0.82013 0.06853 0.3229 0.0
H1558 H 0.76158 0.06064 0.39483 0.0
C1559 C 0.80367 0.09845 0.30469 0.0
H1560 H 0.81705 0.03256 0.37005 0.0
C1561 C 0.77087 0.11363 0.31789 0.0
C1562 C 0.75492 0.09989 0.35016 0.0
H1563 H 0.81442 0.10808 0.27861 0.0
H1564 H 0.7573 0.13503 0.30221 0.0
C1565 C 0.77329 0.07201 0.36991 0.0
C1566 C 0.68972 0.02005 0.04799 0.0
C1567 C 0.70495 0.04475 0.07549 0.0
H1568 H 0.65864 0.96917 0.03665 0.0
C1569 C 0.69613 0.03988 0.11267 0.0
H1570 H 0.6964 0.02341 0.01902 0.0
C1571 C 0.67358 0.00991 0.12254 0.0
C1572 C 0.66066 0.98323 0.09557 0.0
H1573 H 0.70744 0.05871 0.13421 0.0
H1574 H 0.66849 0.00643 0.15183 0.0
C1575 C 0.6681 0.98914 0.058 0.0
C1576 C 0.70881 0.05736 0.64788 0.0
C1577 C 0.70286 0.05072 0.68544 0.0
H1578 H 0.74349 0.08245 0.60802 0.0
C1579 C 0.72692 0.06752 0.71264 0.0
H1580 H 0.69057 0.04486 0.62646 0.0
C1581 C 0.75812 0.08848 0.70216 0.0
C1582 C 0.7651 0.09365 0.66435 0.0
H1583 H 0.72286 0.06259 0.74188 0.0
H1584 H 0.77748 0.09927 0.72348 0.0
C1585 C 0.73918 0.07912 0.63747 0.0
C1586 C 0.71617 0.95784 0.40072 0.0
C1587 C 0.70005 0.93868 0.42997 0.0
H1588 H 0.71506 0.00623 0.36729 0.0
C1589 C 0.66796 0.95266 0.44643 0.0
H1590 H 0.74125 0.94791 0.38811 0.0
C1591 C 0.65399 0.98686 0.43582 0.0
C1592 C 0.67112 0.0068 0.40766 0.0
H1593 H 0.65549 0.93874 0.46964 0.0
H1594 H 0.63062 -0.00174 0.45034 0.0
C1595 C 0.70133 0.99129 0.38912 0.0
C1596 C 0.77978 0.93898 0.2267 0.0
C1597 C 0.79495 0.96532 0.20262 0.0
H1598 H 0.73659 0.89783 0.23485 0.0
C1599 C 0.7774 0.97164 0.16848 0.0
H1600 H 0.7928 0.93442 0.25362 0.0
C1601 C 0.74625 0.95013 0.15746 0.0
C1602 C 0.73135 0.92309 0.18109 0.0
H1603 H 0.78842 0.99228 0.14993 0.0
H1604 H 0.73367 0.95482 0.13038 0.0
C1605 C 0.74782 0.9182 0.21616 0.0
C1606 C 0.80996 0.03712 0.93294 0.0
C1607 C 0.81887 0.04061 0.97115 0.0
H1608 H 0.81376 0.00351 0.88311 0.0
C1609 C 0.84129 0.01372 0.98772 0.0
H1610 H 0.79302 0.0575 0.91931 0.0
C1611 C 0.85279 0.98311 0.96726 0.0
C1612 C 0.84263 0.97875 0.92961 0.0
H1613 H 0.84912 0.01548 0.01697 0.0
H1614 H 0.86896 0.96229 0.98122 0.0
C1615 C 0.82201 0.00644 0.9122 0.0
C1616 C 0.77647 0.71977 0.89969 0.0
C1617 C 0.79145 0.69884 0.92883 0.0
H1618 H 0.78304 0.76692 0.86521 0.0
C1619 C 0.82808 0.70676 0.94156 0.0
H1620 H 0.74865 0.71408 0.88851 0.0
C1621 C 0.8481 0.7369 0.92743 0.0
C1622 C 0.83155 0.75959 0.90071 0.0
H1623 H 0.84057 0.69092 0.96362 0.0
H1624 H 0.87539 0.74397 0.93928 0.0
C1625 C 0.79619 0.74997 0.88603 0.0
C1626 C 0.3498 0.79312 0.05422 0.0
C1627 C 0.31691 0.80838 0.06686 0.0
H1628 H 0.38767 0.74853 0.05827 0.0
C1629 C 0.29727 0.79082 0.09523 0.0
H1630 H 0.3648 0.80579 0.03179 0.0
C1631 C 0.30935 0.75715 0.10932 0.0
C1632 C 0.34184 0.74145 0.09598 0.0
H1633 H 0.27117 0.80172 0.10455 0.0
H1634 H 0.29306 0.7431 0.12998 0.0
C1635 C 0.36256 0.76028 0.06917 0.0
C1636 C 0.97417 0.53257 0.81636 0.0
C1637 C 0.95687 0.55373 0.78884 0.0
H1638 H 0.02083 0.52814 0.85411 0.0
C1639 C 0.97386 0.58665 0.77728 0.0
H1640 H 0.96167 0.50652 0.82491 0.0
C1641 C 0.00706 0.59927 0.7944 0.0
C1642 C 0.02429 0.57831 0.82223 0.0
H1643 H 0.96117 0.60281 0.75555 0.0
H1644 H 0.01958 0.62518 0.7855 0.0
C1645 C 0.00791 0.54465 0.83281 0.0
C1646 C 0.20423 0.25887 0.53894 0.0
C1647 C 0.19179 0.22343 0.54938 0.0
H1648 H 0.2072 0.31707 0.55279 0.0
C1649 C 0.1767 0.21876 0.58457 0.0
H1650 H 0.21677 0.26279 0.51215 0.0
C1651 C 0.17083 0.24976 0.60761 0.0
C1652 C 0.18115 0.28562 0.59626 0.0
H1653 H 0.16765 0.19146 0.59334 0.0
H1654 H 0.15616 0.246 0.63329 0.0
C1655 C 0.19964 0.2897 0.56256 0.0
C1656 C 0.01712 0.9882 0.85431 0.0
C1657 C 0.04394 0.97206 0.83153 0.0
H1658 H 0.96632 0.98051 0.88304 0.0
C1659 C 0.0418 0.93357 0.82387 0.0
H1660 H 0.01808 0.01766 0.86127 0.0
C1661 C 0.0122 0.91211 0.83703 0.0
C1662 C 0.98417 0.92896 0.85762 0.0
H1663 H 0.06227 0.92022 0.80682 0.0
H1664 H 0.01016 0.88285 0.82927 0.0
C1665 C 0.98747 0.96693 0.86701 0.0
C1666 C 0.71426 0.28232 0.4425 0.0
C1667 C 0.69206 0.29909 0.46952 0.0
H1668 H 0.72217 0.23453 0.40699 0.0
C1669 C 0.66058 0.28018 0.48211 0.0
H1670 H 0.73929 0.29627 0.4332 0.0
C1671 C 0.65066 0.24529 0.46685 0.0
C1672 C 0.67295 0.22841 0.43991 0.0
H1673 H 0.64371 0.29242 0.50352 0.0
H1674 H 0.62583 0.23121 0.47647 0.0
C1675 C 0.70491 0.24699 0.42795 0.0
C1676 C 0.95638 0.39887 0.71218 0.0
C1677 C 0.93635 0.42814 0.69724 0.0
H1678 H 0.00567 0.36684 0.70958 0.0
C1679 C 0.9498 0.44623 0.66578 0.0
H1680 H 0.94694 0.38511 0.73686 0.0
C1681 C 0.98419 0.43702 0.6512 0.0
C1682 C 0.00483 0.40869 0.66708 0.0
H1683 H 0.93525 0.46957 0.65434 0.0
H1684 H 0.99509 0.45263 0.62829 0.0
C1685 C 0.99004 0.38874 0.69675 0.0
C1686 C 0.54733 0.602 0.20079 0.0
C1687 C 0.55223 0.56474 0.20923 0.0
H1688 H 0.51398 0.64149 0.17375 0.0
C1689 C 0.52719 0.53745 0.19413 0.0
H1690 H 0.56641 0.62343 0.2119 0.0
C1691 C 0.49612 0.54774 0.17281 0.0
C1692 C 0.49038 0.58539 0.16557 0.0
H1693 H 0.53054 0.50841 0.20048 0.0
H1694 H 0.47603 0.52653 0.16325 0.0
C1695 C 0.51721 0.61215 0.17867 0.0
C1696 C 0.59962 0.74091 0.77641 0.0
C1697 C 0.57618 0.72472 0.80249 0.0
H1698 H 0.62885 0.73343 0.72586 0.0
C1699 C 0.56875 0.68605 0.80005 0.0
H1700 H 0.60655 0.77036 0.77785 0.0
C1701 C 0.58202 0.66469 0.77044 0.0
C1702 C 0.60265 0.68171 0.74266 0.0
H1703 H 0.55132 0.6725 0.8201 0.0
H1704 H 0.57405 0.63549 0.76805 0.0
C1705 C 0.61254 0.71967 0.7467 0.0
C1706 C 0.57126 0.32873 0.06048 0.0
C1707 C 0.53375 0.31661 0.05874 0.0
H1708 H 0.61863 0.34729 0.03035 0.0
C1709 C 0.51369 0.31939 0.02502 0.0
H1710 H 0.58751 0.32716 0.08609 0.0
C1711 C 0.53162 0.33088 0.993 0.0
C1712 C 0.57002 0.3397 0.99399 0.0
H1713 H 0.48476 0.31041 0.02274 0.0
H1714 H 0.51571 0.33093 0.96707 0.0
C1715 C 0.58924 0.34006 0.02842 0.0
C1716 C 0.9588 0.35332 0.29382 0.0
C1717 C 0.95926 0.31496 0.30045 0.0
H1718 H 0.93933 0.39655 0.2593 0.0
C1719 C 0.93628 0.29074 0.2785 0.0
H1720 H 0.97596 0.37279 0.3104 0.0
C1721 C 0.91544 0.30444 0.24866 0.0
C1722 C 0.91679 0.34262 0.24079 0.0
H1723 H 0.93605 0.26108 0.28302 0.0
H1724 H 0.89957 0.28496 0.2308 0.0
C1725 C 0.93754 0.36704 0.26459 0.0
C1726 C 0.93881 0.69368 0.53762 0.0
C1727 C 0.97506 0.68309 0.54715 0.0
H1728 H 0.89232 0.68718 0.50007 0.0
C1729 C 0.99282 0.65705 0.52454 0.0
H1730 H 0.92512 0.71505 0.55356 0.0
C1731 C 0.97422 0.6417 0.49291 0.0
C1732 C 0.93766 0.6521 0.48387 0.0
H1733 H 0.02106 0.64911 0.531 0.0
H1734 H 0.98863 0.62241 0.47507 0.0
C1735 C 0.91998 0.67774 0.50691 0.0
C1736 C 0.59963 0.25762 0.73624 0.0
C1737 C 0.57587 0.27528 0.71114 0.0
H1738 H 0.62996 0.26225 0.78842 0.0
C1739 C 0.5652 0.31188 0.71908 0.0
H1740 H 0.60752 0.22912 0.73111 0.0
C1741 C 0.57875 0.33104 0.75064 0.0
C1742 C 0.60189 0.31343 0.77622 0.0
H1743 H 0.54529 0.32557 0.70136 0.0
H1744 H 0.56925 0.35898 0.75601 0.0
C1745 C 0.61248 0.27658 0.76876 0.0
C1746 C 0.90385 0.30791 0.96238 0.0
C1747 C 0.94241 0.30479 0.95793 0.0
H1748 H 0.86012 0.32662 0.99666 0.0
C1749 C 0.96689 0.32312 0.98353 0.0
H1750 H 0.88425 0.29435 0.94293 0.0
C1751 C 0.95295 0.34139 0.01487 0.0
C1752 C 0.91433 0.3419 0.02073 0.0
H1753 H 0.99671 0.32112 0.98075 0.0
H1754 H 0.97247 0.3534 0.03541 0.0
C1755 C 0.88996 0.3265 0.99325 0.0
C1756 C 0.93181 0.68115 0.20078 0.0
C1757 C 0.94239 0.71908 0.20311 0.0
H1758 H 0.91356 0.63303 0.22991 0.0
C1759 C 0.9374 0.73883 0.23663 0.0
H1760 H 0.93511 0.66513 0.17526 0.0
C1761 C 0.92507 0.72036 0.268 0.0
C1762 C 0.91763 0.6817 0.26655 0.0
H1763 H 0.94515 0.76807 0.23933 0.0
H1764 H 0.9232 0.73614 0.29387 0.0
C1765 C 0.91964 0.66263 0.23219 0.0
C1766 C 0.5678 0.68751 0.46613 0.0
C1767 C 0.52914 0.67985 0.46438 0.0
H1768 H 0.61892 0.68306 0.49746 0.0
C1769 C 0.51345 0.65713 0.49136 0.0
H1770 H 0.58096 0.70446 0.44544 0.0
C1771 C 0.53524 0.64495 0.52103 0.0
C1772 C 0.57327 0.6549 0.52422 0.0
H1773 H 0.484 0.65016 0.49057 0.0
H1774 H 0.52189 0.62906 0.54244 0.0
C1775 C 0.58971 0.67501 0.49573 0.0
C1776 C 0.77209 0.60226 0.74079 0.0
C1777 C 0.79803 0.57944 0.72356 0.0
H1778 H 0.72094 0.63088 0.73504 0.0
C1779 C 0.79486 0.57291 0.68479 0.0
H1780 H 0.77417 0.60857 0.77034 0.0
C1781 C 0.76462 0.5862 0.66437 0.0
C1782 C 0.73687 0.60596 0.68242 0.0
H1783 H 0.81478 0.55601 0.67041 0.0
H1784 H 0.76176 0.57886 0.63505 0.0
C1785 C 0.74168 0.61515 0.72049 0.0
C1786 C 0.65472 0.52206 0.98977 0.0
C1787 C 0.6806 0.54423 0.97119 0.0
H1788 H 0.62053 0.47212 0.98739 0.0
C1789 C 0.69153 0.53325 0.93546 0.0
H1790 H 0.64657 0.52958 0.0177 0.0
C1791 C 0.67599 0.50169 0.91783 0.0
C1792 C 0.65039 0.47915 0.93623 0.0
H1793 H 0.7129 0.5487 0.92123 0.0
H1794 H 0.68564 0.49392 0.89047 0.0
C1795 C 0.63978 0.48951 0.9724 0.0
C1796 C 0.70223 0.4151 0.18541 0.0
C1797 C 0.70415 0.42422 0.22368 0.0
H1798 H 0.73232 0.40065 0.13667 0.0
C1799 C 0.73775 0.41932 0.24337 0.0
H1800 H 0.67668 0.4184 0.16942 0.0
C1801 C 0.76969 0.40938 0.22453 0.0
C1802 C 0.76869 0.40417 0.1856 0.0
H1803 H 0.74011 0.42582 0.2729 0.0
H1804 H 0.7956 0.40784 0.2403 0.0
C1805 C 0.73424 0.40526 0.16652 0.0
C1806 C 0.80025 0.46538 0.39917 0.0
C1807 C 0.80154 0.45783 0.43738 0.0
H1808 H 0.81874 0.50031 0.35571 0.0
C1809 C 0.82629 0.4787 0.46083 0.0
H1810 H 0.78167 0.44968 0.38026 0.0
C1811 C 0.84734 0.50821 0.44672 0.0
C1812 C 0.84455 0.51687 0.40879 0.0
H1813 H 0.82789 0.47355 0.49037 0.0
H1814 H 0.8647 0.52517 0.46575 0.0
C1815 C 0.82177 0.49429 0.38498 0.0
C1816 C 0.78885 0.44787 0.85747 0.0
C1817 C 0.79473 0.44779 0.81891 0.0
H1818 H 0.75465 0.42989 0.90168 0.0
C1819 C 0.77154 0.42528 0.79542 0.0
H1820 H 0.80638 0.46464 0.87646 0.0
C1821 C 0.74141 0.40546 0.81001 0.0
C1822 C 0.73435 0.40739 0.84838 0.0
H1823 H 0.7754 0.42459 0.76564 0.0
H1824 H 0.72276 0.38988 0.79103 0.0
C1825 C 0.75923 0.4277 0.87206 0.0
C1826 C 0.83083 0.51484 0.01732 0.0
C1827 C 0.82595 0.5486 0.03669 0.0
H1828 H 0.8434 0.45729 0.02083 0.0
C1829 C 0.83574 0.5511 0.0748 0.0
H1830 H 0.82377 0.51204 0.98793 0.0
C1831 C 0.84651 0.51953 0.09389 0.0
C1832 C 0.84791 0.48493 0.07518 0.0
H1833 H 0.83248 0.5768 0.09054 0.0
H1834 H 0.85176 0.52189 0.12363 0.0
C1835 C 0.84176 0.48334 0.03635 0.0
C1836 C 0.7344 0.59545 0.26645 0.0
C1837 C 0.71273 0.56889 0.28464 0.0
H1838 H 0.7836 0.63074 0.26967 0.0
C1839 C 0.72412 0.55704 0.3199 0.0
H1840 H 0.72643 0.60431 0.23889 0.0
C1841 C 0.75544 0.57265 0.33771 0.0
C1842 C 0.77716 0.59944 0.32002 0.0
H1843 H 0.70881 0.53534 0.33384 0.0
H1844 H 0.76341 0.56255 0.36484 0.0
C1845 C 0.7667 0.61062 0.28408 0.0
C1846 C 0.68342 0.46282 0.57706 0.0
C1847 C 0.67499 0.45993 0.53861 0.0
H1848 H 0.67974 0.49555 0.6274 0.0
C1849 C 0.65176 0.48631 0.52261 0.0
H1850 H 0.70076 0.44262 0.59046 0.0
C1851 C 0.63987 0.51654 0.54377 0.0
C1852 C 0.65056 0.52086 0.58151 0.0
H1853 H 0.64417 0.48466 0.49331 0.0
H1854 H 0.62357 0.53745 0.53014 0.0
C1855 C 0.67115 0.49296 0.59837 0.0
C1856 C 0.68204 0.7989 0.57663 0.0
C1857 C 0.72097 0.80062 0.58268 0.0
H1858 H 0.63126 0.76721 0.58246 0.0
C1859 C 0.73754 0.77337 0.6044 0.0
H1860 H 0.6682 0.81979 0.56052 0.0
C1861 C 0.71634 0.74337 0.61687 0.0
C1862 C 0.67801 0.74004 0.60819 0.0
H1863 H 0.76723 0.77407 0.61011 0.0
H1864 H 0.73038 0.72175 0.63183 0.0
C1865 C 0.66073 0.76892 0.58941 0.0
C1866 C 0.18555 0.70566 0.41528 0.0
C1867 C 0.22293 0.70694 0.42779 0.0
H1868 H 0.13871 0.73642 0.3966 0.0
C1869 C 0.24347 0.74044 0.42503 0.0
H1870 H 0.16893 0.68027 0.41681 0.0
C1871 C 0.22603 0.77276 0.41358 0.0
C1872 C 0.18766 0.77228 0.40472 0.0
H1873 H 0.27235 0.74238 0.43423 0.0
H1874 H 0.24223 0.79852 0.41375 0.0
C1875 C 0.16808 0.738 0.40397 0.0
C1876 C 0.52076 0.99126 0.66052 0.0
C1877 C 0.54454 0.9715 0.68391 0.0
H1878 H 0.46888 0.99025 0.6295 0.0
C1879 C 0.53446 0.93518 0.69366 0.0
H1880 H 0.52762 0.01966 0.65342 0.0
C1881 C 0.50212 0.91816 0.67933 0.0
C1882 C 0.47794 0.93772 0.65627 0.0
H1883 H 0.55125 0.92 0.71325 0.0
H1884 H 0.49518 0.89023 0.68799 0.0
C1885 C 0.48744 0.97445 0.64683 0.0
C1886 C 0.35475 0.29393 0.94668 0.0
C1887 C 0.31617 0.29797 0.95013 0.0
H1888 H 0.39877 0.25916 0.92952 0.0
C1889 C 0.29184 0.27113 0.93353 0.0
H1890 H 0.37421 0.31435 0.95895 0.0
C1891 C 0.30602 0.23902 0.91693 0.0
C1892 C 0.34472 0.23355 0.91645 0.0
H1893 H 0.26202 0.27353 0.93587 0.0
H1894 H 0.28663 0.2176 0.90637 0.0
C1895 C 0.36888 0.26221 0.92981 0.0
C1896 C 0.45685 0.5753 0.68602 0.0
C1897 C 0.45507 0.53635 0.68034 0.0
H1898 H 0.48911 0.6258 0.68096 0.0
C1899 C 0.48331 0.51928 0.66036 0.0
H1900 H 0.43523 0.58947 0.70083 0.0
C1901 C 0.51408 0.54013 0.64909 0.0
C1902 C 0.51724 0.57857 0.6573 0.0
H1903 H 0.48273 0.48949 0.65518 0.0
H1904 H 0.53628 0.52577 0.63535 0.0
C1905 C 0.4876 0.59624 0.67447 0.0
C1906 C 0.77074 0.22537 0.1048 0.0
C1907 C 0.78958 0.20077 0.08145 0.0
H1908 H 0.77321 0.27767 0.13496 0.0
C1909 C 0.82632 0.20948 0.07186 0.0
H1910 H 0.74208 0.21965 0.11182 0.0
C1911 C 0.84439 0.24149 0.08588 0.0
C1912 C 0.82544 0.26677 0.10827 0.0
H1913 H 0.84081 0.1923 0.0521 0.0
H1914 H 0.87246 0.24754 0.07709 0.0
C1915 C 0.78854 0.25834 0.11802 0.0
C1916 C 0.52186 0.01123 0.83648 0.0
C1917 C 0.55496 0.03154 0.83068 0.0
H1918 H 0.46468 0.01309 0.85118 0.0
C1919 C 0.55691 0.06944 0.8413 0.0
H1920 H 0.51948 0.98195 0.82886 0.0
C1921 C 0.5253 0.0875 0.8537 0.0
C1922 C 0.49116 0.06796 0.8559 0.0
H1923 H 0.58206 0.0859 0.83738 0.0
H1924 H 0.52715 0.11718 0.85944 0.0
C1925 C 0.49031 0.02924 0.849 0.0
C1926 C 0.96339 0.9086 0.30943 0.0
C1927 C 0.95962 0.9471 0.30476 0.0
H1928 H 0.99731 0.86487 0.32896 0.0
C1929 C 0.98635 0.97165 0.32125 0.0
H1930 H 0.94305 0.8889 0.29742 0.0
C1931 C 0.01788 0.95771 0.33926 0.0
C1932 C 0.02297 0.91902 0.34129 0.0
H1933 H 0.98417 0.0014 0.31813 0.0
H1934 H 0.03913 0.97725 0.3499 0.0
C1935 C 0.99455 0.89474 0.32763 0.0
C1936 C 0.44872 0.32664 0.22219 0.0
C1937 C 0.43293 0.29111 0.21438 0.0
H1938 H 0.45094 0.37396 0.25982 0.0
C1939 C 0.40347 0.27826 0.23626 0.0
H1940 H 0.47125 0.33745 0.2058 0.0
C1941 C 0.39245 0.29871 0.26713 0.0
C1942 C 0.40989 0.33289 0.27637 0.0
H1943 H 0.39005 0.25135 0.23089 0.0
H1944 H 0.37122 0.28709 0.28467 0.0
C1945 C 0.43704 0.34757 0.25295 0.0
C1946 C 0.45316 0.71866 0.98964 0.0
C1947 C 0.43786 0.70728 0.95479 0.0
H1948 H 0.45753 0.70842 0.04777 0.0
C1949 C 0.41546 0.67486 0.95199 0.0
H1950 H 0.47144 0.743 0.99248 0.0
C1951 C 0.40706 0.65522 0.9841 0.0
C1952 C 0.42252 0.6668 0.01888 0.0
H1953 H 0.40406 0.66518 0.92528 0.0
H1954 H 0.38825 0.63126 0.9819 0.0
C1955 C 0.44602 0.69836 0.02121 0.0
C1956 C 0.06757 0.64848 0.70624 0.0
C1957 C 0.06069 0.68619 0.70152 0.0
H1958 H 0.09341 0.6077 0.73922 0.0
C1959 C 0.07822 0.71276 0.72576 0.0
H1960 H 0.05457 0.62754 0.68778 0.0
C1961 C 0.09993 0.70146 0.75616 0.0
C1962 C 0.10517 0.66345 0.7621 0.0
H1963 H 0.07319 0.74211 0.72262 0.0
H1964 H 0.11101 0.72229 0.77591 0.0
C1965 C 0.09011 0.63727 0.73573 0.0
C1966 C 0.04101 0.32069 0.47439 0.0
C1967 C 0.06484 0.29322 0.46091 0.0
H1968 H 0.03141 0.36167 0.51729 0.0
C1969 C 0.09716 0.28509 0.48092 0.0
H1970 H 0.01537 0.32664 0.45952 0.0
C1971 C 0.10648 0.30553 0.51326 0.0
C1972 C 0.08296 0.33331 0.52661 0.0
H1973 H 0.11539 0.26354 0.47126 0.0
H1974 H 0.1319 0.29935 0.52817 0.0
C1975 C 0.04988 0.34048 0.50732 0.0
C1976 C 0.42975 0.7162 0.28846 0.0
C1977 C 0.457 0.6945 0.30558 0.0
H1978 H 0.39224 0.72164 0.24169 0.0
C1979 C 0.46755 0.6612 0.28875 0.0
H1980 H 0.42196 0.74253 0.30088 0.0
C1981 C 0.45011 0.64905 0.25559 0.0
C1982 C 0.42295 0.67079 0.23824 0.0
H1983 H 0.48901 0.64461 0.3013 0.0
H1984 H 0.45854 0.62301 0.243 0.0
C1985 C 0.413 0.70455 0.25471 0.0
C1986 C 0.07781 0.67596 0.04213 0.0
C1987 C 0.06265 0.71096 0.03638 0.0
H1988 H 0.09808 0.62625 0.01649 0.0
C1989 C 0.05041 0.7203 0.00054 0.0
H1990 H 0.08679 0.66803 0.06973 0.0
C1991 C 0.05492 0.69564 0.97047 0.0
C1992 C 0.0731 0.66193 0.97564 0.0
H1993 H 0.03787 0.74692 0.99574 0.0
H1994 H 0.04721 0.70446 0.9428 0.0
C1995 C 0.08361 0.65188 0.01187 0.0
C1996 C 0.05275 0.29579 0.77473 0.0
C1997 C 0.05611 0.31637 0.80828 0.0
H1998 H 0.06726 0.29127 0.7177 0.0
C1999 C 0.07946 0.34807 0.81059 0.0
H2000 H 0.03532 0.27079 0.7726 0.0
C2001 C 0.09744 0.36027 0.77871 0.0
C2002 C 0.0933 0.33999 0.74481 0.0
H2003 H 0.08278 0.36391 0.83647 0.0
H2004 H 0.11385 0.38592 0.78027 0.0
C2005 C 0.07152 0.30715 0.74347 0.0
C2006 C 0.43137 0.30513 0.5482 0.0
C2007 C 0.46901 0.31496 0.55497 0.0
H2008 H 0.38314 0.31191 0.51296 0.0
C2009 C 0.48555 0.34293 0.53358 0.0
H2010 H 0.41773 0.284 0.56437 0.0
C2011 C 0.46595 0.35866 0.50446 0.0
C2012 C 0.42919 0.34727 0.49624 0.0
H2013 H 0.51427 0.35189 0.53827 0.0
H2014 H 0.48009 0.37874 0.48737 0.0
C2015 C 0.4115 0.32134 0.51905 0.0
C2016 C 0.23809 0.40668 0.27743 0.0
C2017 C 0.2116 0.42943 0.29419 0.0
H2018 H 0.28957 0.3789 0.28356 0.0
C2019 C 0.21535 0.43819 0.3324 0.0
H2020 H 0.23605 0.39898 0.24815 0.0
C2021 C 0.2461 0.42603 0.35289 0.0
C2022 C 0.27364 0.40541 0.33525 0.0
H2023 H 0.19522 0.45532 0.3462 0.0
H2024 H 0.24931 0.43444 0.38191 0.0
C2025 C 0.26885 0.39504 0.29767 0.0
C2026 C 0.31931 0.47398 0.03621 0.0
C2027 C 0.2931 0.45738 0.05952 0.0
H2028 H 0.35895 0.51881 0.02954 0.0
C2029 C 0.28583 0.47372 0.094 0.0
H2030 H 0.32462 0.46186 0.00905 0.0
C2031 C 0.30612 0.50532 0.10601 0.0
C2032 C 0.33277 0.52184 0.08299 0.0
H2033 H 0.26528 0.46155 0.11195 0.0
H2034 H 0.30067 0.51708 0.13327 0.0
C2035 C 0.3388 0.50636 0.04773 0.0
C2036 C 0.30061 0.58875 0.8135 0.0
C2037 C 0.31444 0.557 0.83075 0.0
H2038 H 0.25478 0.62568 0.80801 0.0
C2039 C 0.29443 0.54078 0.85937 0.0
H2040 H 0.31514 0.60113 0.79062 0.0
C2041 C 0.26044 0.55528 0.86972 0.0
C2042 C 0.24534 0.58529 0.85057 0.0
H2043 H 0.30416 0.51584 0.87241 0.0
H2044 H 0.24488 0.54158 0.89116 0.0
C2045 C 0.26591 0.60242 0.82291 0.0
C2046 C 0.17664 0.53353 0.5422 0.0
C2047 C 0.19211 0.5584 0.56939 0.0
H2048 H 0.14466 0.48313 0.5315 0.0
C2049 C 0.18193 0.5549 0.60644 0.0
H2050 H 0.18419 0.5358 0.51334 0.0
C2051 C 0.15838 0.52577 0.61661 0.0
C2052 C 0.14567 0.49855 0.59013 0.0
H2053 H 0.19323 0.57395 0.6278 0.0
H2054 H 0.1526 0.52312 0.64587 0.0
C2055 C 0.15393 0.50351 0.55254 0.0
C2056 C 0.21558 0.55242 0.15284 0.0
C2057 C 0.21009 0.54508 0.19028 0.0
H2058 H 0.24901 0.57949 0.11325 0.0
C2059 C 0.23387 0.56204 0.21763 0.0
H2060 H 0.19748 0.53981 0.13136 0.0
C2061 C 0.26432 0.58417 0.20737 0.0
C2062 C 0.27067 0.59047 0.16966 0.0
H2063 H 0.23004 0.55658 0.24681 0.0
H2064 H 0.28352 0.5952 0.22873 0.0
C2065 C 0.24506 0.57547 0.14266 0.0
C2066 C 0.17169 0.44316 0.91238 0.0
C2067 C 0.19862 0.44649 0.94111 0.0
H2068 H 0.13287 0.4722 0.87791 0.0
C2069 C 0.20393 0.48064 0.96038 0.0
H2070 H 0.16677 0.41683 0.89769 0.0
C2071 C 0.18347 0.51138 0.95059 0.0
C2072 C 0.15798 0.50894 0.92054 0.0
H2073 H 0.224 0.48359 0.98326 0.0
H2074 H 0.18925 0.53761 0.96522 0.0
C2075 C 0.15204 0.47454 0.90156 0.0
C2076 C 0.27637 0.48475 0.67003 0.0
C2077 C 0.29359 0.47204 0.70235 0.0
H2078 H 0.2302 0.47798 0.63181 0.0
C2079 C 0.27607 0.44425 0.72304 0.0
H2080 H 0.28919 0.50672 0.65427 0.0
C2081 C 0.24197 0.42854 0.71096 0.0
C2082 C 0.22545 0.44014 0.67777 0.0
H2083 H 0.28874 0.43482 0.74866 0.0
H2084 H 0.22902 0.40683 0.72696 0.0
C2085 C 0.24279 0.46838 0.6574 0.0
C2086 C 0.33961 0.52266 0.49422 0.0
C2087 C 0.31835 0.54862 0.47477 0.0
H2088 H 0.36985 0.47235 0.49184 0.0
C2089 C 0.31422 0.54452 0.43593 0.0
H2090 H 0.34388 0.52499 0.52408 0.0
C2091 C 0.32984 0.51425 0.41728 0.0
C2092 C 0.34943 0.48746 0.43726 0.0
H2093 H 0.29838 0.5642 0.42008 0.0
H2094 H 0.32516 0.51097 0.38752 0.0
C2095 C 0.35474 0.49242 0.47575 0.0
C2096 C 0.32598 0.21586 0.45071 0.0
C2097 C 0.29077 0.20808 0.43423 0.0
H2098 H 0.37372 0.25284 0.45304 0.0
C2099 C 0.27904 0.229 0.40362 0.0
H2100 H 0.33591 0.20014 0.4741 0.0
C2101 C 0.30024 0.25915 0.39213 0.0
C2102 C 0.33403 0.26846 0.41027 0.0
H2103 H 0.25238 0.22359 0.3897 0.0
H2104 H 0.28945 0.27624 0.37011 0.0
C2105 C 0.34765 0.24581 0.43857 0.0
C2106 C 0.79887 0.27157 0.53847 0.0
C2107 C 0.81393 0.30636 0.55043 0.0
H2108 H 0.79587 0.2131 0.54685 0.0
C2109 C 0.8374 0.30858 0.58209 0.0
H2110 H 0.77977 0.2691 0.51474 0.0
C2111 C 0.84705 0.27601 0.60036 0.0
C2112 C 0.83193 0.24126 0.58811 0.0
H2113 H 0.84866 0.3352 0.59223 0.0
H2114 H 0.86651 0.27787 0.6238 0.0
C2115 C 0.80735 0.23951 0.55736 0.0
C2116 C 0.48434 0.03702 0.31272 0.0
C2117 C 0.46988 0.0601 0.28512 0.0
H2118 H 0.52802 0.02914 0.35335 0.0
C2119 C 0.48983 0.09196 0.27516 0.0
H2120 H 0.46961 0.01168 0.31998 0.0
C2121 C 0.52271 0.10199 0.29446 0.0
C2122 C 0.53657 0.07963 0.32296 0.0
H2123 H 0.47947 0.10955 0.25337 0.0
H2124 H 0.53726 0.12736 0.2873 0.0
C2125 C 0.51771 0.04664 0.33147 0.0
C2126 C 0.65207 0.70883 0.05816 0.0
C2127 C 0.68929 0.70398 0.0495 0.0
H2128 H 0.61286 0.74105 0.08699 0.0
C2129 C 0.71676 0.72818 0.06568 0.0
H2130 H 0.63048 0.69042 0.04626 0.0
C2131 C 0.70672 0.75831 0.08852 0.0
C2132 C 0.66914 0.76384 0.09634 0.0
H2133 H 0.74578 0.72484 0.05922 0.0
H2134 H 0.72809 0.77777 0.09903 0.0
C2135 C 0.64218 0.73789 0.08184 0.0
C2136 C 0.54846 0.42855 0.32373 0.0
C2137 C 0.55375 0.46686 0.33092 0.0
H2138 H 0.51357 0.38038 0.33124 0.0
C2139 C 0.52941 0.4852 0.35495 0.0
H2140 H 0.56695 0.41356 0.30573 0.0
C2141 C 0.499 0.46639 0.3693 0.0
C2142 C 0.49248 0.42872 0.36039 0.0
H2143 H 0.53277 0.51463 0.36159 0.0
H2144 H 0.47979 0.48169 0.38627 0.0
C2145 C 0.51811 0.40953 0.33859 0.0
C2146 C 0.16135 0.77343 0.97322 0.0
C2147 C 0.19587 0.79004 0.96643 0.0
H2148 H 0.12263 0.72978 0.95767 0.0
C2149 C 0.21958 0.7738 0.94043 0.0
H2150 H 0.14315 0.78528 0.99371 0.0
C2151 C 0.20838 0.74154 0.92059 0.0
C2152 C 0.17309 0.72588 0.92614 0.0
H2153 H 0.2468 0.78605 0.93558 0.0
H2154 H 0.22683 0.72931 0.90058 0.0
C2155 C 0.14973 0.74192 0.9526 0.0
C2156 C 0.45909 0.90405 0.20815 0.0
C2157 C 0.44429 0.93643 0.19371 0.0
H2158 H 0.50379 0.86601 0.20699 0.0
C2159 C 0.46253 0.95462 0.16483 0.0
H2160 H 0.4459 0.89022 0.23102 0.0
C2161 C 0.49654 0.94189 0.15224 0.0
C2162 C 0.5119 0.91013 0.16757 0.0
H2163 H 0.45201 0.98034 0.15407 0.0
H2164 H 0.51117 0.95723 0.13128 0.0
C2165 C 0.4923 0.89056 0.19465 0.0
C2166 C 0.0407 0.11099 0.70345 0.0
C2167 C 0.04608 0.07388 0.7122 0.0
H2168 H 0.00755 0.14959 0.67475 0.0
C2169 C 0.0225 0.04597 0.6959 0.0
H2170 H 0.0587 0.13287 0.71549 0.0
C2171 C 0.9922 0.05545 0.67317 0.0
C2172 C 0.98578 0.0929 0.66568 0.0
H2173 H 0.02628 0.01703 0.70243 0.0
H2174 H 0.97307 0.03372 0.66279 0.0
C2175 C 0.01139 0.12035 0.67984 0.0
loop_
_geom_bond_atom_site_label_1
_geom_bond_atom_site_label_2
_geom_bond_distance
_geom_bond_site_symmetry_2
_ccdc_geom_bond_type
Mn0 O5 2.095 1_455 S
Mn0 O15 2.162 1_455 S
Mn0 O16 2.297 1_455 S
Mn0 O24 2.385 . S
Mn0 O25 2.209 . S
Mn0 O26 2.094 . S
Mn1 O6 2.121 1_455 S
Mn1 N8 2.257 . S
Mn1 N17 2.282 . S
Mn1 O25 2.215 . S
Mn1 O27 2.117 . S
C2 O24 1.234 . S
C2 O25 1.283 . S
C3 O15 1.281 . S
C3 O16 1.236 . S
C4 O26 1.240 . S
C4 O27 1.264 . S
O5 Mn0 2.095 1_655 S
O5 C14 1.250 . S
O6 Mn1 2.121 1_655 S
O6 C14 1.258 . S
C7 N8 1.326 . S
C7 C11 1.460 . S
C7 H13 0.929 . S
N8 Mn1 2.257 . S
N8 C7 1.326 . S
N8 C12 1.362 . S
C9 C10 1.258 . S
C9 C12 1.431 . S
C9 C29 1.449 . S
C10 C9 1.258 . S
C10 C11 1.477 . S
C10 H30 0.931 . S
C11 C7 1.460 . S
C11 C10 1.477 . S
C11 H31 0.930 . S
C12 N8 1.362 . S
C12 C9 1.431 . S
C12 C22 1.476 . S
H13 C7 0.929 . S
C14 O5 1.250 . S
C14 O6 1.258 . S
O15 Mn0 2.162 1_655 S
O15 C3 1.281 . S
O16 Mn0 2.297 1_655 S
O16 C3 1.236 . S
N17 Mn1 2.282 . S
N17 C18 1.328 . S
N17 C22 1.318 . S
C18 N17 1.328 . S
C18 C19 1.457 . S
C18 H23 0.929 . S
C19 C18 1.457 . S
C19 C20 1.291 . S
C19 H32 0.931 . S
C20 C19 1.291 . S
C20 C21 1.373 . S
C20 H33 0.929 . S
C21 C20 1.373 . S
C21 C22 1.396 . S
C21 C28 1.403 . S
C22 C12 1.476 . S
C22 N17 1.318 . S
C22 C21 1.396 . S
H23 C18 0.929 . S
O24 Mn0 2.385 . S
O24 C2 1.234 . S
O25 Mn0 2.209 . S
O25 Mn1 2.215 . S
O25 C2 1.283 . S
O26 Mn0 2.094 . S
O26 C4 1.240 . S
O27 Mn1 2.117 . S
O27 C4 1.264 . S
C28 C21 1.403 . S
C28 C29 1.399 . S
C28 H34 0.929 . S
C29 C9 1.449 . S
C29 C28 1.399 . S
C29 H35 0.930 . S
H30 C10 0.931 . S
H31 C11 0.930 . S
H32 C19 0.931 . S
H33 C20 0.929 . S
H34 C28 0.929 . S
H35 C29 0.930 . S
Mn36 O41 2.087 1_455 S
Mn36 O51 2.162 . S
Mn36 O52 2.297 . S
Mn36 O60 2.385 . S
Mn36 O61 2.209 1_455 S
Mn36 O62 2.094 . S
Mn37 O42 2.121 . S
Mn37 N44 2.257 . S
Mn37 N53 2.282 . S
Mn37 O61 2.215 . S
Mn37 O63 2.117 1_655 S
C38 O60 1.234 1_655 S
C38 O61 1.283 . S
C39 O51 1.281 . S
C39 O52 1.236 . S
C40 O62 1.240 . S
C40 O63 1.264 . S
O41 Mn36 2.087 1_655 S
O41 C50 1.272 . S
O42 Mn37 2.121 . S
O42 C50 1.258 . S
C43 N44 1.326 . S
C43 C47 1.460 . S
C43 H49 0.929 . S
N44 Mn37 2.257 . S
N44 C43 1.326 . S
N44 C48 1.362 . S
C45 C46 1.258 . S
C45 C48 1.431 . S
C45 C65 1.449 . S
C46 C45 1.258 . S
C46 C47 1.477 . S
C46 H66 0.931 . S
C47 C43 1.460 . S
C47 C46 1.477 . S
C47 H67 0.930 . S
C48 N44 1.362 . S
C48 C45 1.431 . S
C48 C58 1.476 . S
H49 C43 0.929 . S
C50 O41 1.272 . S
C50 O42 1.258 . S
O51 Mn36 2.162 . S
O51 C39 1.281 . S
O52 Mn36 2.297 . S
O52 C39 1.236 . S
N53 Mn37 2.282 . S
N53 C54 1.328 . S
N53 C58 1.318 . S
C54 N53 1.328 . S
C54 C55 1.457 . S
C54 H59 0.929 . S
C55 C54 1.457 . S
C55 C56 1.291 . S
C55 H68 0.931 . S
C56 C55 1.291 . S
C56 C57 1.373 . S
C56 H69 0.929 . S
C57 C56 1.373 . S
C57 C58 1.396 . S
C57 C64 1.403 . S
C58 C48 1.476 . S
C58 N53 1.318 . S
C58 C57 1.396 . S
H59 C54 0.929 . S
O60 Mn36 2.385 . S
O60 C38 1.234 1_455 S
O61 Mn36 2.209 1_655 S
O61 Mn37 2.215 . S
O61 C38 1.283 . S
O62 Mn36 2.094 . S
O62 C40 1.240 . S
O63 Mn37 2.117 1_455 S
O63 C40 1.264 . S
C64 C57 1.403 . S
C64 C65 1.399 . S
C64 H70 0.929 . S
C65 C45 1.449 . S
C65 C64 1.399 . S
C65 H71 0.930 . S
H66 C46 0.931 . S
H67 C47 0.930 . S
H68 C55 0.931 . S
H69 C56 0.929 . S
H70 C64 0.929 . S
H71 C65 0.930 . S
Mn72 O77 2.095 . S
Mn72 O87 2.162 . S
Mn72 O88 2.297 . S
Mn72 O96 2.385 . S
Mn72 O97 2.209 . S
Mn72 O98 2.094 . S
Mn73 O78 2.121 . S
Mn73 N80 2.257 . S
Mn73 N89 2.282 . S
Mn73 O97 2.215 . S
Mn73 O99 2.117 . S
C74 O96 1.234 . S
C74 O97 1.283 . S
C75 O87 1.281 . S
C75 O88 1.236 . S
C76 O98 1.240 . S
C76 O99 1.264 . S
O77 Mn72 2.095 . S
O77 C86 1.250 . S
O78 Mn73 2.121 . S
O78 C86 1.258 . S
C79 N80 1.326 . S
C79 C83 1.460 . S
C79 H85 0.929 . S
N80 Mn73 2.257 . S
N80 C79 1.326 . S
N80 C84 1.362 . S
C81 C82 1.258 . S
C81 C84 1.431 . S
C81 C101 1.449 . S
C82 C81 1.258 . S
C82 C83 1.477 . S
C82 H102 0.931 . S
C83 C79 1.460 . S
C83 C82 1.477 . S
C83 H103 0.930 . S
C84 N80 1.362 . S
C84 C81 1.431 . S
C84 C94 1.476 . S
H85 C79 0.929 . S
C86 O77 1.250 . S
C86 O78 1.258 . S
O87 Mn72 2.162 . S
O87 C75 1.281 . S
O88 Mn72 2.297 . S
O88 C75 1.236 . S
N89 Mn73 2.282 . S
N89 C90 1.328 . S
N89 C94 1.318 . S
C90 N89 1.328 . S
C90 C91 1.457 . S
C90 H95 0.929 . S
C91 C90 1.457 . S
C91 C92 1.291 . S
C91 H104 0.931 . S
C92 C91 1.291 . S
C92 C93 1.373 . S
C92 H105 0.929 . S
C93 C92 1.373 . S
C93 C94 1.396 . S
C93 C100 1.403 . S
C94 C84 1.476 . S
C94 N89 1.318 . S
C94 C93 1.396 . S
H95 C90 0.929 . S
O96 Mn72 2.385 . S
O96 C74 1.234 . S
O97 Mn72 2.209 . S
O97 Mn73 2.215 . S
O97 C74 1.283 . S
O98 Mn72 2.094 . S
O98 C76 1.240 . S
O99 Mn73 2.117 . S
O99 C76 1.264 . S
C100 C93 1.403 . S
C100 C101 1.399 . S
C100 H106 0.929 . S
C101 C81 1.449 . S
C101 C100 1.399 . S
C101 H107 0.930 . S
H102 C82 0.931 . S
H103 C83 0.930 . S
H104 C91 0.931 . S
H105 C92 0.929 . S
H106 C100 0.929 . S
H107 C101 0.930 . S
Mn108 O113 2.095 . S
Mn108 O123 2.162 . S
Mn108 O124 2.297 . S
Mn108 O132 2.385 . S
Mn108 O133 2.209 . S
Mn108 O134 2.094 . S
Mn109 O114 2.121 . S
Mn109 N116 2.257 . S
Mn109 N125 2.282 . S
Mn109 O133 2.215 . S
Mn109 O135 2.117 . S
C110 O132 1.234 . S
C110 O133 1.283 . S
C111 O123 1.281 . S
C111 O124 1.236 . S
C112 O134 1.240 . S
C112 O135 1.264 . S
O113 Mn108 2.095 . S
O113 C122 1.250 . S
O114 Mn109 2.121 . S
O114 C122 1.258 . S
C115 N116 1.326 . S
C115 C119 1.460 . S
C115 H121 0.929 . S
N116 Mn109 2.257 . S
N116 C115 1.326 . S
N116 C120 1.362 . S
C117 C118 1.258 . S
C117 C120 1.431 . S
C117 C137 1.449 . S
C118 C117 1.258 . S
C118 C119 1.477 . S
C118 H138 0.931 . S
C119 C115 1.460 . S
C119 C118 1.477 . S
C119 H139 0.930 . S
C120 N116 1.362 . S
C120 C117 1.431 . S
C120 C130 1.476 . S
H121 C115 0.929 . S
C122 O113 1.250 . S
C122 O114 1.258 . S
O123 Mn108 2.162 . S
O123 C111 1.281 . S
O124 Mn108 2.297 . S
O124 C111 1.236 . S
N125 Mn109 2.282 . S
N125 C126 1.328 . S
N125 C130 1.318 . S
C126 N125 1.328 . S
C126 C127 1.457 . S
C126 H131 0.929 . S
C127 C126 1.457 . S
C127 C128 1.291 . S
C127 H140 0.931 . S
C128 C127 1.291 . S
C128 C129 1.373 . S
C128 H141 0.929 . S
C129 C128 1.373 . S
C129 C130 1.396 . S
C129 C136 1.403 . S
C130 C120 1.476 . S
C130 N125 1.318 . S
C130 C129 1.396 . S
H131 C126 0.929 . S
O132 Mn108 2.385 . S
O132 C110 1.234 . S
O133 Mn108 2.209 . S
O133 Mn109 2.215 . S
O133 C110 1.283 . S
O134 Mn108 2.094 . S
O134 C112 1.240 . S
O135 Mn109 2.117 . S
O135 C112 1.264 . S
C136 C129 1.403 . S
C136 C137 1.399 . S
C136 H142 0.929 . S
C137 C117 1.449 . S
C137 C136 1.399 . S
C137 H143 0.930 . S
H138 C118 0.931 . S
H139 C119 0.930 . S
H140 C127 0.931 . S
H141 C128 0.929 . S
H142 C136 0.929 . S
H143 C137 0.930 . S
Mn144 O149 2.095 . S
Mn144 O159 2.162 . S
Mn144 O160 2.297 . S
Mn144 O168 2.385 1_655 S
Mn144 O169 2.209 1_655 S
Mn144 O170 2.094 1_655 S
Mn145 O150 2.121 1_455 S
Mn145 N152 2.257 . S
Mn145 N161 2.282 . S
Mn145 O169 2.215 . S
Mn145 O171 2.117 . S
C146 O168 1.234 . S
C146 O169 1.283 . S
C147 O159 1.281 . S
C147 O160 1.236 . S
C148 O170 1.240 . S
C148 O171 1.264 . S
O149 Mn144 2.095 . S
O149 C158 1.250 . S
O150 Mn145 2.121 1_655 S
O150 C158 1.258 . S
C151 N152 1.326 . S
C151 C155 1.460 . S
C151 H157 0.916 1_455 S
N152 Mn145 2.257 . S
N152 C151 1.326 . S
N152 C156 1.362 . S
C153 C154 1.258 . S
C153 C156 1.431 . S
C153 C173 1.449 . S
C154 C153 1.258 . S
C154 C155 1.477 . S
C154 H174 0.931 . S
C155 C151 1.460 . S
C155 C154 1.477 . S
C155 H175 0.930 . S
C156 N152 1.362 . S
C156 C153 1.431 . S
C156 C166 1.476 . S
H157 C151 0.916 1_655 S
C158 O149 1.250 . S
C158 O150 1.258 . S
O159 Mn144 2.162 . S
O159 C147 1.281 . S
O160 Mn144 2.297 . S
O160 C147 1.236 . S
N161 Mn145 2.282 . S
N161 C162 1.328 . S
N161 C166 1.318 . S
C162 N161 1.328 . S
C162 C163 1.457 . S
C162 H167 0.929 . S
C163 C162 1.457 . S
C163 C164 1.291 . S
C163 H176 0.931 . S
C164 C163 1.291 . S
C164 C165 1.373 . S
C164 H177 0.929 . S
C165 C164 1.373 . S
C165 C166 1.396 . S
C165 C172 1.403 . S
C166 C156 1.476 . S
C166 N161 1.318 . S
C166 C165 1.396 . S
H167 C162 0.929 . S
O168 Mn144 2.385 1_455 S
O168 C146 1.234 . S
O169 Mn144 2.209 1_455 S
O169 Mn145 2.215 . S
O169 C146 1.283 . S
O170 Mn144 2.094 1_455 S
O170 C148 1.240 . S
O171 Mn145 2.117 . S
O171 C148 1.264 . S
C172 C165 1.403 . S
C172 C173 1.399 . S
C172 H178 0.929 . S
C173 C153 1.449 . S
C173 C172 1.399 . S
C173 H179 0.930 . S
H174 C154 0.931 . S
H175 C155 0.930 . S
H176 C163 0.931 . S
H177 C164 0.929 . S
H178 C172 0.929 . S
H179 C173 0.930 . S
Mn180 O185 2.095 . S
Mn180 O195 2.162 . S
Mn180 O196 2.297 . S
Mn180 O204 2.385 . S
Mn180 O205 2.209 . S
Mn180 O206 2.094 . S
Mn181 O186 2.121 . S
Mn181 N188 2.257 . S
Mn181 N197 2.282 . S
Mn181 O205 2.215 . S
Mn181 O207 2.117 . S
C182 O204 1.234 . S
C182 O205 1.283 . S
C183 O195 1.281 . S
C183 O196 1.236 . S
C184 O206 1.240 . S
C184 O207 1.264 . S
O185 Mn180 2.095 . S
O185 C194 1.250 . S
O186 Mn181 2.121 . S
O186 C194 1.258 . S
C187 N188 1.326 . S
C187 C191 1.460 . S
C187 H193 0.929 . S
N188 Mn181 2.257 . S
N188 C187 1.326 . S
N188 C192 1.362 . S
C189 C190 1.258 . S
C189 C192 1.431 . S
C189 C209 1.449 . S
C190 C189 1.258 . S
C190 C191 1.477 . S
C190 H210 0.931 . S
C191 C187 1.460 . S
C191 C190 1.477 . S
C191 H211 0.930 . S
C192 N188 1.362 . S
C192 C189 1.431 . S
C192 C202 1.476 . S
H193 C187 0.929 . S
C194 O185 1.250 . S
C194 O186 1.258 . S
O195 Mn180 2.162 . S
O195 C183 1.281 . S
O196 Mn180 2.297 . S
O196 C183 1.236 . S
N197 Mn181 2.282 . S
N197 C198 1.328 . S
N197 C202 1.318 . S
C198 N197 1.328 . S
C198 C199 1.457 . S
C198 H203 0.929 . S
C199 C198 1.457 . S
C199 C200 1.291 . S
C199 H212 0.931 . S
C200 C199 1.291 . S
C200 C201 1.373 . S
C200 H213 0.929 . S
C201 C200 1.373 . S
C201 C202 1.396 . S
C201 C208 1.403 . S
C202 C192 1.476 . S
C202 N197 1.318 . S
C202 C201 1.396 . S
H203 C198 0.929 . S
O204 Mn180 2.385 . S
O204 C182 1.234 . S
O205 Mn180 2.209 . S
O205 Mn181 2.215 . S
O205 C182 1.283 . S
O206 Mn180 2.094 . S
O206 C184 1.240 . S
O207 Mn181 2.117 . S
O207 C184 1.264 . S
C208 C201 1.403 . S
C208 C209 1.399 . S
C208 H214 0.929 . S
C209 C189 1.449 . S
C209 C208 1.399 . S
C209 H215 0.930 . S
H210 C190 0.931 . S
H211 C191 0.930 . S
H212 C199 0.931 . S
H213 C200 0.929 . S
H214 C208 0.929 . S
H215 C209 0.930 . S
Mn216 O221 2.095 . S
Mn216 O231 2.162 . S
Mn216 O232 2.297 . S
Mn216 O240 2.385 . S
Mn216 O241 2.209 . S
Mn216 O242 2.094 . S
Mn217 O222 2.121 . S
Mn217 N224 2.257 . S
Mn217 N233 2.282 . S
Mn217 O241 2.215 . S
Mn217 O243 2.117 . S
C218 O240 1.234 . S
C218 O241 1.283 . S
C219 O231 1.281 . S
C219 O232 1.236 . S
C220 O242 1.240 . S
C220 O243 1.264 . S
O221 Mn216 2.095 . S
O221 C230 1.250 . S
O222 Mn217 2.121 . S
O222 C230 1.258 . S
C223 N224 1.326 . S
C223 C227 1.460 . S
C223 H229 0.929 . S
N224 Mn217 2.257 . S
N224 C223 1.326 . S
N224 C228 1.362 . S
C225 C226 1.258 . S
C225 C228 1.431 . S
C225 C245 1.449 . S
C226 C225 1.258 . S
C226 C227 1.477 . S
C226 H246 0.931 . S
C227 C223 1.460 . S
C227 C226 1.477 . S
C227 H247 0.930 . S
C228 N224 1.362 . S
C228 C225 1.431 . S
C228 C238 1.476 . S
H229 C223 0.929 . S
C230 O221 1.250 . S
C230 O222 1.258 . S
O231 Mn216 2.162 . S
O231 C219 1.281 . S
O232 Mn216 2.297 . S
O232 C219 1.236 . S
N233 Mn217 2.282 . S
N233 C234 1.328 . S
N233 C238 1.318 . S
C234 N233 1.328 . S
C234 C235 1.457 . S
C234 H239 0.929 . S
C235 C234 1.457 . S
C235 C236 1.291 . S
C235 H248 0.931 . S
C236 C235 1.291 . S
C236 C237 1.373 . S
C236 H249 0.929 . S
C237 C236 1.373 . S
C237 C238 1.396 . S
C237 C244 1.403 . S
C238 C228 1.476 . S
C238 N233 1.318 . S
C238 C237 1.396 . S
H239 C234 0.929 . S
O240 Mn216 2.385 . S
O240 C218 1.234 . S
O241 Mn216 2.209 . S
O241 Mn217 2.215 . S
O241 C218 1.283 . S
O242 Mn216 2.094 . S
O242 C220 1.240 . S
O243 Mn217 2.117 . S
O243 C220 1.264 . S
C244 C237 1.403 . S
C244 C245 1.399 . S
C244 H250 0.929 . S
C245 C225 1.449 . S
C245 C244 1.399 . S
C245 H251 0.930 . S
H246 C226 0.931 . S
H247 C227 0.930 . S
H248 C235 0.931 . S
H249 C236 0.929 . S
H250 C244 0.929 . S
H251 C245 0.930 . S
Mn252 O257 2.106 . S
Mn252 O267 2.162 . S
Mn252 O268 2.297 . S
Mn252 O276 2.385 . S
Mn252 O277 2.209 1_455 S
Mn252 O278 2.094 . S
Mn253 O258 2.121 . S
Mn253 N260 2.257 . S
Mn253 N269 2.282 . S
Mn253 O277 2.215 . S
Mn253 O279 2.117 1_655 S
C254 O276 1.234 1_655 S
C254 O277 1.283 . S
C255 O267 1.281 . S
C255 O268 1.236 . S
C256 O278 1.240 . S
C256 O279 1.264 . S
O257 Mn252 2.106 . S
O257 C266 1.224 1_455 S
O258 Mn253 2.121 . S
O258 C266 1.258 . S
C259 N260 1.326 . S
C259 C263 1.460 . S
C259 H265 0.929 . S
N260 Mn253 2.257 . S
N260 C259 1.326 . S
N260 C264 1.362 . S
C261 C262 1.258 . S
C261 C264 1.431 . S
C261 C281 1.449 . S
C262 C261 1.258 . S
C262 C263 1.477 . S
C262 H282 0.931 . S
C263 C259 1.460 . S
C263 C262 1.477 . S
C263 H283 0.930 . S
C264 N260 1.362 . S
C264 C261 1.431 . S
C264 C274 1.476 . S
H265 C259 0.929 . S
C266 O257 1.224 1_655 S
C266 O258 1.258 . S
O267 Mn252 2.162 . S
O267 C255 1.281 . S
O268 Mn252 2.297 . S
O268 C255 1.236 . S
N269 Mn253 2.282 . S
N269 C270 1.328 . S
N269 C274 1.318 . S
C270 N269 1.328 . S
C270 C271 1.457 . S
C270 H275 0.929 . S
C271 C270 1.457 . S
C271 C272 1.291 . S
C271 H284 0.931 . S
C272 C271 1.291 . S
C272 C273 1.373 . S
C272 H285 0.929 . S
C273 C272 1.373 . S
C273 C274 1.396 . S
C273 C280 1.403 . S
C274 C264 1.476 . S
C274 N269 1.318 . S
C274 C273 1.396 . S
H275 C270 0.929 . S
O276 Mn252 2.385 . S
O276 C254 1.234 1_455 S
O277 Mn252 2.209 1_655 S
O277 Mn253 2.215 . S
O277 C254 1.283 . S
O278 Mn252 2.094 . S
O278 C256 1.240 . S
O279 Mn253 2.117 1_455 S
O279 C256 1.264 . S
C280 C273 1.403 . S
C280 C281 1.399 . S
C280 H286 0.929 . S
C281 C261 1.449 . S
C281 C280 1.399 . S
C281 H287 0.930 . S
H282 C262 0.931 . S
H283 C263 0.930 . S
H284 C271 0.931 . S
H285 C272 0.929 . S
H286 C280 0.929 . S
H287 C281 0.930 . S
Mn288 O293 2.095 . S
Mn288 O303 2.162 . S
Mn288 O304 2.297 . S
Mn288 O312 2.385 1_565 S
Mn288 O313 2.209 1_565 S
Mn288 O314 2.094 1_565 S
Mn289 O294 2.121 1_545 S
Mn289 N296 2.257 . S
Mn289 N305 2.282 . S
Mn289 O313 2.215 . S
Mn289 O315 2.117 . S
C290 O312 1.234 . S
C290 O313 1.283 . S
C291 O303 1.281 . S
C291 O304 1.236 . S
C292 O314 1.240 . S
C292 O315 1.264 . S
O293 Mn288 2.095 . S
O293 C302 1.250 . S
O294 Mn289 2.121 1_565 S
O294 C302 1.258 . S
C295 N296 1.326 . S
C295 C299 1.460 . S
C295 H301 0.935 . S
N296 Mn289 2.257 . S
N296 C295 1.326 . S
N296 C300 1.362 . S
C297 C298 1.258 . S
C297 C300 1.431 . S
C297 C317 1.449 . S
C298 C297 1.258 . S
C298 C299 1.477 . S
C298 H318 0.931 . S
C299 C295 1.460 . S
C299 C298 1.477 . S
C299 H319 0.930 . S
C300 N296 1.362 . S
C300 C297 1.431 . S
C300 C310 1.476 . S
H301 C295 0.935 . S
C302 O293 1.250 . S
C302 O294 1.258 . S
O303 Mn288 2.162 . S
O303 C291 1.281 . S
O304 Mn288 2.297 . S
O304 C291 1.236 . S
N305 Mn289 2.282 . S
N305 C306 1.328 . S
N305 C310 1.318 . S
C306 N305 1.328 . S
C306 C307 1.457 . S
C306 H311 0.929 . S
C307 C306 1.457 . S
C307 C308 1.291 . S
C307 H320 0.931 . S
C308 C307 1.291 . S
C308 C309 1.373 . S
C308 H321 0.929 . S
C309 C308 1.373 . S
C309 C310 1.396 . S
C309 C316 1.403 . S
C310 C300 1.476 . S
C310 N305 1.318 . S
C310 C309 1.396 . S
H311 C306 0.929 . S
O312 Mn288 2.385 1_545 S
O312 C290 1.234 . S
O313 Mn288 2.209 1_545 S
O313 Mn289 2.215 . S
O313 C290 1.283 . S
O314 Mn288 2.094 1_545 S
O314 C292 1.240 . S
O315 Mn289 2.117 . S
O315 C292 1.264 . S
C316 C309 1.403 . S
C316 C317 1.399 . S
C316 H322 0.929 . S
C317 C297 1.449 . S
C317 C316 1.399 . S
C317 H323 0.930 . S
H318 C298 0.931 . S
H319 C299 0.930 . S
H320 C307 0.931 . S
H321 C308 0.929 . S
H322 C316 0.929 . S
H323 C317 0.930 . S
Mn324 O329 2.095 . S
Mn324 O339 2.162 . S
Mn324 O340 2.297 . S
Mn324 O348 2.385 . S
Mn324 O349 2.209 . S
Mn324 O350 2.094 . S
Mn325 O330 2.121 . S
Mn325 N332 2.257 . S
Mn325 N341 2.282 . S
Mn325 O349 2.215 . S
Mn325 O351 2.117 . S
C326 O348 1.234 . S
C326 O349 1.283 . S
C327 O339 1.281 . S
C327 O340 1.236 . S
C328 O350 1.240 . S
C328 O351 1.264 . S
O329 Mn324 2.095 . S
O329 C338 1.250 . S
O330 Mn325 2.121 . S
O330 C338 1.258 . S
C331 N332 1.326 . S
C331 C335 1.460 . S
C331 H337 0.929 . S
N332 Mn325 2.257 . S
N332 C331 1.326 . S
N332 C336 1.362 . S
C333 C334 1.258 . S
C333 C336 1.431 . S
C333 C353 1.449 . S
C334 C333 1.258 . S
C334 C335 1.477 . S
C334 H354 0.931 . S
C335 C331 1.460 . S
C335 C334 1.477 . S
C335 H355 0.930 . S
C336 N332 1.362 . S
C336 C333 1.431 . S
C336 C346 1.476 . S
H337 C331 0.929 . S
C338 O329 1.250 . S
C338 O330 1.258 . S
O339 Mn324 2.162 . S
O339 C327 1.281 . S
O340 Mn324 2.297 . S
O340 C327 1.236 . S
N341 Mn325 2.282 . S
N341 C342 1.328 . S
N341 C346 1.318 . S
C342 N341 1.328 . S
C342 C343 1.457 . S
C342 H347 0.929 . S
C343 C342 1.457 . S
C343 C344 1.291 . S
C343 H356 0.931 . S
C344 C343 1.291 . S
C344 C345 1.373 . S
C344 H357 0.929 . S
C345 C344 1.373 . S
C345 C346 1.396 . S
C345 C352 1.403 . S
C346 C336 1.476 . S
C346 N341 1.318 . S
C346 C345 1.396 . S
H347 C342 0.929 . S
O348 Mn324 2.385 . S
O348 C326 1.234 . S
O349 Mn324 2.209 . S
O349 Mn325 2.215 . S
O349 C326 1.283 . S
O350 Mn324 2.094 . S
O350 C328 1.240 . S
O351 Mn325 2.117 . S
O351 C328 1.264 . S
C352 C345 1.403 . S
C352 C353 1.399 . S
C352 H358 0.929 . S
C353 C333 1.449 . S
C353 C352 1.399 . S
C353 H359 0.930 . S
H354 C334 0.931 . S
H355 C335 0.930 . S
H356 C343 0.931 . S
H357 C344 0.929 . S
H358 C352 0.929 . S
H359 C353 0.930 . S
Mn360 O365 2.110 . S
Mn360 O375 2.176 . S
Mn360 O376 2.317 . S
Mn360 O384 2.366 1_565 S
Mn360 O385 2.197 1_565 S
Mn360 O386 2.077 1_565 S
Mn361 O366 2.121 1_545 S
Mn361 N368 2.257 . S
Mn361 N377 2.282 . S
Mn361 O385 2.215 . S
Mn361 O387 2.117 . S
C362 O384 1.234 . S
C362 O385 1.283 . S
C363 O375 1.281 . S
C363 O376 1.236 . S
C364 O386 1.240 . S
C364 O387 1.264 . S
O365 Mn360 2.110 . S
O365 C374 1.250 . S
O366 Mn361 2.121 1_565 S
O366 C374 1.258 . S
C367 N368 1.326 . S
C367 C371 1.460 . S
C367 H373 0.938 . S
N368 Mn361 2.257 . S
N368 C367 1.326 . S
N368 C372 1.362 . S
C369 C370 1.258 . S
C369 C372 1.431 . S
C369 C389 1.449 . S
C370 C369 1.258 . S
C370 C371 1.477 . S
C370 H390 0.931 . S
C371 C367 1.460 . S
C371 C370 1.477 . S
C371 H391 0.930 . S
C372 N368 1.362 . S
C372 C369 1.431 . S
C372 C382 1.476 . S
H373 C367 0.938 . S
C374 O365 1.250 . S
C374 O366 1.258 . S
O375 Mn360 2.176 . S
O375 C363 1.281 . S
O376 Mn360 2.317 . S
O376 C363 1.236 . S
N377 Mn361 2.282 . S
N377 C378 1.328 . S
N377 C382 1.318 . S
C378 N377 1.328 . S
C378 C379 1.457 . S
C378 H383 0.929 . S
C379 C378 1.457 . S
C379 C380 1.291 . S
C379 H392 0.931 . S
C380 C379 1.291 . S
C380 C381 1.373 . S
C380 H393 0.929 . S
C381 C380 1.373 . S
C381 C382 1.396 . S
C381 C388 1.403 . S
C382 C372 1.476 . S
C382 N377 1.318 . S
C382 C381 1.396 . S
H383 C378 0.929 . S
O384 Mn360 2.366 1_545 S
O384 C362 1.234 . S
O385 Mn360 2.197 1_545 S
O385 Mn361 2.215 . S
O385 C362 1.283 . S
O386 Mn360 2.077 1_545 S
O386 C364 1.240 . S
O387 Mn361 2.117 . S
O387 C364 1.264 . S
C388 C381 1.403 . S
C388 C389 1.399 . S
C388 H394 0.929 . S
C389 C369 1.449 . S
C389 C388 1.399 . S
C389 H395 0.930 . S
H390 C370 0.931 . S
H391 C371 0.930 . S
H392 C379 0.931 . S
H393 C380 0.929 . S
H394 C388 0.929 . S
H395 C389 0.930 . S
Mn396 O401 2.095 . S
Mn396 O411 2.162 . S
Mn396 O412 2.297 . S
Mn396 O420 2.385 . S
Mn396 O421 2.209 1_554 S
Mn396 O422 2.094 . S
Mn397 O402 2.121 . S
Mn397 N404 2.257 . S
Mn397 N413 2.282 . S
Mn397 O421 2.215 . S
Mn397 O423 2.117 1_556 S
C398 O420 1.234 1_556 S
C398 O421 1.283 . S
C399 O411 1.281 . S
C399 O412 1.236 . S
C400 O422 1.240 . S
C400 O423 1.264 . S
O401 Mn396 2.095 . S
O401 C410 1.250 1_554 S
O402 Mn397 2.121 . S
O402 C410 1.258 . S
C403 N404 1.326 . S
C403 C407 1.460 . S
C403 H409 0.929 . S
N404 Mn397 2.257 . S
N404 C403 1.326 . S
N404 C408 1.362 . S
C405 C406 1.258 . S
C405 C408 1.431 . S
C405 C425 1.449 . S
C406 C405 1.258 . S
C406 C407 1.477 . S
C406 H426 0.931 . S
C407 C403 1.460 . S
C407 C406 1.477 . S
C407 H427 0.930 . S
C408 N404 1.362 . S
C408 C405 1.431 . S
C408 C418 1.476 . S
H409 C403 0.929 . S
C410 O401 1.250 1_556 S
C410 O402 1.258 . S
O411 Mn396 2.162 . S
O411 C399 1.281 . S
O412 Mn396 2.297 . S
O412 C399 1.236 . S
N413 Mn397 2.282 . S
N413 C414 1.328 . S
N413 C418 1.318 . S
C414 N413 1.328 . S
C414 C415 1.457 . S
C414 H419 0.929 . S
C415 C414 1.457 . S
C415 C416 1.291 . S
C415 H428 0.931 . S
C416 C415 1.291 . S
C416 C417 1.373 . S
C416 H429 0.929 . S
C417 C416 1.373 . S
C417 C418 1.396 . S
C417 C424 1.403 . S
C418 C408 1.476 . S
C418 N413 1.318 . S
C418 C417 1.396 . S
H419 C414 0.929 . S
O420 Mn396 2.385 . S
O420 C398 1.234 1_554 S
O421 Mn396 2.209 1_556 S
O421 Mn397 2.215 . S
O421 C398 1.283 . S
O422 Mn396 2.094 . S
O422 C400 1.240 . S
O423 Mn397 2.117 1_554 S
O423 C400 1.264 . S
C424 C417 1.403 . S
C424 C425 1.399 . S
C424 H430 0.929 . S
C425 C405 1.449 . S
C425 C424 1.399 . S
C425 H431 0.930 . S
H426 C406 0.931 . S
H427 C407 0.930 . S
H428 C415 0.931 . S
H429 C416 0.929 . S
H430 C424 0.929 . S
H431 C425 0.930 . S
Mn432 O437 2.095 1_554 S
Mn432 O447 2.162 1_554 S
Mn432 O448 2.297 1_554 S
Mn432 O456 2.385 . S
Mn432 O457 2.209 . S
Mn432 O458 2.094 . S
Mn433 O438 2.121 1_554 S
Mn433 N440 2.257 . S
Mn433 N449 2.282 . S
Mn433 O457 2.215 . S
Mn433 O459 2.117 . S
C434 O456 1.234 . S
C434 O457 1.283 . S
C435 O447 1.281 . S
C435 O448 1.236 . S
C436 O458 1.240 . S
C436 O459 1.264 . S
O437 Mn432 2.095 1_556 S
O437 C446 1.250 . S
O438 Mn433 2.121 1_556 S
O438 C446 1.258 . S
C439 N440 1.326 . S
C439 C443 1.460 . S
C439 H445 0.929 . S
N440 Mn433 2.257 . S
N440 C439 1.326 . S
N440 C444 1.362 . S
C441 C442 1.258 . S
C441 C444 1.431 . S
C441 C461 1.449 . S
C442 C441 1.258 . S
C442 C443 1.477 . S
C442 H462 0.931 . S
C443 C439 1.460 . S
C443 C442 1.477 . S
C443 H463 0.930 . S
C444 N440 1.362 . S
C444 C441 1.431 . S
C444 C454 1.476 . S
H445 C439 0.929 . S
C446 O437 1.250 . S
C446 O438 1.258 . S
O447 Mn432 2.162 1_556 S
O447 C435 1.281 . S
O448 Mn432 2.297 1_556 S
O448 C435 1.236 . S
N449 Mn433 2.282 . S
N449 C450 1.328 . S
N449 C454 1.318 . S
C450 N449 1.328 . S
C450 C451 1.457 . S
C450 H455 0.929 . S
C451 C450 1.457 . S
C451 C452 1.291 . S
C451 H464 0.931 . S
C452 C451 1.291 . S
C452 C453 1.373 . S
C452 H465 0.929 . S
C453 C452 1.373 . S
C453 C454 1.396 . S
C453 C460 1.403 . S
C454 C444 1.476 . S
C454 N449 1.318 . S
C454 C453 1.396 . S
H455 C450 0.929 . S
O456 Mn432 2.385 . S
O456 C434 1.234 . S
O457 Mn432 2.209 . S
O457 Mn433 2.215 . S
O457 C434 1.283 . S
O458 Mn432 2.094 . S
O458 C436 1.240 . S
O459 Mn433 2.117 . S
O459 C436 1.264 . S
C460 C453 1.403 . S
C460 C461 1.399 . S
C460 H466 0.929 . S
C461 C441 1.449 . S
C461 C460 1.399 . S
C461 H467 0.930 . S
H462 C442 0.931 . S
H463 C443 0.930 . S
H464 C451 0.931 . S
H465 C452 0.929 . S
H466 C460 0.929 . S
H467 C461 0.930 . S
Mn468 O473 2.095 . S
Mn468 O483 2.162 . S
Mn468 O484 2.297 . S
Mn468 O492 2.385 1_556 S
Mn468 O493 2.209 1_556 S
Mn468 O494 2.094 1_556 S
Mn469 O474 2.121 1_554 S
Mn469 N476 2.257 . S
Mn469 N485 2.282 . S
Mn469 O493 2.215 . S
Mn469 O495 2.117 . S
C470 O492 1.234 . S
C470 O493 1.283 . S
C471 O483 1.281 . S
C471 O484 1.236 . S
C472 O494 1.240 . S
C472 O495 1.264 . S
O473 Mn468 2.095 . S
O473 C482 1.250 . S
O474 Mn469 2.121 1_556 S
O474 C482 1.258 . S
C475 N476 1.326 . S
C475 C479 1.460 . S
C475 H481 0.921 1_554 S
N476 Mn469 2.257 . S
N476 C475 1.326 . S
N476 C480 1.362 . S
C477 C478 1.258 . S
C477 C480 1.431 . S
C477 C497 1.449 . S
C478 C477 1.258 . S
C478 C479 1.477 . S
C478 H498 0.931 . S
C479 C475 1.460 . S
C479 C478 1.477 . S
C479 H499 0.930 . S
C480 N476 1.362 . S
C480 C477 1.431 . S
C480 C490 1.476 . S
H481 C475 0.921 1_556 S
C482 O473 1.250 . S
C482 O474 1.258 . S
O483 Mn468 2.162 . S
O483 C471 1.281 . S
O484 Mn468 2.297 . S
O484 C471 1.236 . S
N485 Mn469 2.282 . S
N485 C486 1.328 . S
N485 C490 1.318 . S
C486 N485 1.328 . S
C486 C487 1.457 . S
C486 H491 0.929 . S
C487 C486 1.457 . S
C487 C488 1.291 . S
C487 H500 0.931 . S
C488 C487 1.291 . S
C488 C489 1.373 . S
C488 H501 0.929 . S
C489 C488 1.373 . S
C489 C490 1.396 . S
C489 C496 1.403 . S
C490 C480 1.476 . S
C490 N485 1.318 . S
C490 C489 1.396 . S
H491 C486 0.929 . S
O492 Mn468 2.385 1_554 S
O492 C470 1.234 . S
O493 Mn468 2.209 1_554 S
O493 Mn469 2.215 . S
O493 C470 1.283 . S
O494 Mn468 2.094 1_554 S
O494 C472 1.240 . S
O495 Mn469 2.117 . S
O495 C472 1.264 . S
C496 C489 1.403 . S
C496 C497 1.399 . S
C496 H502 0.929 . S
C497 C477 1.449 . S
C497 C496 1.399 . S
C497 H503 0.930 . S
H498 C478 0.931 . S
H499 C479 0.930 . S
H500 C487 0.931 . S
H501 C488 0.929 . S
H502 C496 0.929 . S
H503 C497 0.930 . S
Mn504 O509 2.095 . S
Mn504 O519 2.162 . S
Mn504 O520 2.297 . S
Mn504 O528 2.385 . S
Mn504 O529 2.209 . S
Mn504 O530 2.094 . S
Mn505 O510 2.121 . S
Mn505 N512 2.257 . S
Mn505 N521 2.282 . S
Mn505 O529 2.215 . S
Mn505 O531 2.117 . S
C506 O528 1.234 . S
C506 O529 1.283 . S
C507 O519 1.281 . S
C507 O520 1.236 . S
C508 O530 1.240 . S
C508 O531 1.264 . S
O509 Mn504 2.095 . S
O509 C518 1.250 . S
O510 Mn505 2.121 . S
O510 C518 1.258 . S
C511 N512 1.326 . S
C511 C515 1.460 . S
C511 H517 0.929 . S
N512 Mn505 2.257 . S
N512 C511 1.326 . S
N512 C516 1.362 . S
C513 C514 1.258 . S
C513 C516 1.431 . S
C513 C533 1.449 . S
C514 C513 1.258 . S
C514 C515 1.477 . S
C514 H534 0.931 . S
C515 C511 1.460 . S
C515 C514 1.477 . S
C515 H535 0.930 . S
C516 N512 1.362 . S
C516 C513 1.431 . S
C516 C526 1.476 . S
H517 C511 0.929 . S
C518 O509 1.250 . S
C518 O510 1.258 . S
O519 Mn504 2.162 . S
O519 C507 1.281 . S
O520 Mn504 2.297 . S
O520 C507 1.236 . S
N521 Mn505 2.282 . S
N521 C522 1.328 . S
N521 C526 1.318 . S
C522 N521 1.328 . S
C522 C523 1.457 . S
C522 H527 0.929 . S
C523 C522 1.457 . S
C523 C524 1.291 . S
C523 H536 0.931 . S
C524 C523 1.291 . S
C524 C525 1.373 . S
C524 H537 0.929 . S
C525 C524 1.373 . S
C525 C526 1.396 . S
C525 C532 1.403 . S
C526 C516 1.476 . S
C526 N521 1.318 . S
C526 C525 1.396 . S
H527 C522 0.929 . S
O528 Mn504 2.385 . S
O528 C506 1.234 . S
O529 Mn504 2.209 . S
O529 Mn505 2.215 . S
O529 C506 1.283 . S
O530 Mn504 2.094 . S
O530 C508 1.240 . S
O531 Mn505 2.117 . S
O531 C508 1.264 . S
C532 C525 1.403 . S
C532 C533 1.399 . S
C532 H538 0.929 . S
C533 C513 1.449 . S
C533 C532 1.399 . S
C533 H539 0.930 . S
H534 C514 0.931 . S
H535 C515 0.930 . S
H536 C523 0.931 . S
H537 C524 0.929 . S
H538 C532 0.929 . S
H539 C533 0.930 . S
Mn540 O545 2.095 . S
Mn540 O555 2.162 . S
Mn540 O556 2.297 . S
Mn540 O564 2.385 . S
Mn540 O565 2.209 . S
Mn540 O566 2.094 . S
Mn541 O546 2.121 . S
Mn541 N548 2.257 . S
Mn541 N557 2.282 . S
Mn541 O565 2.215 . S
Mn541 O567 2.117 . S
C542 O564 1.234 . S
C542 O565 1.283 . S
C543 O555 1.281 . S
C543 O556 1.236 . S
C544 O566 1.240 . S
C544 O567 1.264 . S
O545 Mn540 2.095 . S
O545 C554 1.250 . S
O546 Mn541 2.121 . S
O546 C554 1.258 . S
C547 N548 1.326 . S
C547 C551 1.460 . S
C547 H553 0.929 . S
N548 Mn541 2.257 . S
N548 C547 1.326 . S
N548 C552 1.362 . S
C549 C550 1.258 . S
C549 C552 1.431 . S
C549 C569 1.449 . S
C550 C549 1.258 . S
C550 C551 1.477 . S
C550 H570 0.931 . S
C551 C547 1.460 . S
C551 C550 1.477 . S
C551 H571 0.930 . S
C552 N548 1.362 . S
C552 C549 1.431 . S
C552 C562 1.476 . S
H553 C547 0.929 . S
C554 O545 1.250 . S
C554 O546 1.258 . S
O555 Mn540 2.162 . S
O555 C543 1.281 . S
O556 Mn540 2.297 . S
O556 C543 1.236 . S
N557 Mn541 2.282 . S
N557 C558 1.328 . S
N557 C562 1.318 . S
C558 N557 1.328 . S
C558 C559 1.457 . S
C558 H563 0.929 . S
C559 C558 1.457 . S
C559 C560 1.291 . S
C559 H572 0.931 . S
C560 C559 1.291 . S
C560 C561 1.373 . S
C560 H573 0.929 . S
C561 C560 1.373 . S
C561 C562 1.396 . S
C561 C568 1.403 . S
C562 C552 1.476 . S
C562 N557 1.318 . S
C562 C561 1.396 . S
H563 C558 0.929 . S
O564 Mn540 2.385 . S
O564 C542 1.234 . S
O565 Mn540 2.209 . S
O565 Mn541 2.215 . S
O565 C542 1.283 . S
O566 Mn540 2.094 . S
O566 C544 1.240 . S
O567 Mn541 2.117 . S
O567 C544 1.264 . S
C568 C561 1.403 . S
C568 C569 1.399 . S
C568 H574 0.929 . S
C569 C549 1.449 . S
C569 C568 1.399 . S
C569 H575 0.930 . S
H570 C550 0.931 . S
H571 C551 0.930 . S
H572 C559 0.931 . S
H573 C560 0.929 . S
H574 C568 0.929 . S
H575 C569 0.930 . S
Mn576 O581 2.095 . S
Mn576 O591 2.162 . S
Mn576 O592 2.297 . S
Mn576 O600 2.385 . S
Mn576 O601 2.209 1_545 S
Mn576 O602 2.094 . S
Mn577 O582 2.121 . S
Mn577 N584 2.257 . S
Mn577 N593 2.282 . S
Mn577 O601 2.215 . S
Mn577 O603 2.117 1_565 S
C578 O600 1.234 1_565 S
C578 O601 1.283 . S
C579 O591 1.281 . S
C579 O592 1.236 . S
C580 O602 1.240 . S
C580 O603 1.264 . S
O581 Mn576 2.095 . S
O581 C590 1.250 1_545 S
O582 Mn577 2.121 . S
O582 C590 1.258 . S
C583 N584 1.326 . S
C583 C587 1.460 . S
C583 H589 0.929 . S
N584 Mn577 2.257 . S
N584 C583 1.326 . S
N584 C588 1.362 . S
C585 C586 1.258 . S
C585 C588 1.431 . S
C585 C605 1.449 . S
C586 C585 1.258 . S
C586 C587 1.477 . S
C586 H606 0.931 . S
C587 C583 1.460 . S
C587 C586 1.477 . S
C587 H607 0.930 . S
C588 N584 1.362 . S
C588 C585 1.431 . S
C588 C598 1.476 . S
H589 C583 0.929 . S
C590 O581 1.250 1_565 S
C590 O582 1.258 . S
O591 Mn576 2.162 . S
O591 C579 1.281 . S
O592 Mn576 2.297 . S
O592 C579 1.236 . S
N593 Mn577 2.282 . S
N593 C594 1.328 . S
N593 C598 1.318 . S
C594 N593 1.328 . S
C594 C595 1.457 . S
C594 H599 0.929 . S
C595 C594 1.457 . S
C595 C596 1.291 . S
C595 H608 0.931 . S
C596 C595 1.291 . S
C596 C597 1.373 . S
C596 H609 0.929 . S
C597 C596 1.373 . S
C597 C598 1.396 . S
C597 C604 1.403 . S
C598 C588 1.476 . S
C598 N593 1.318 . S
C598 C597 1.396 . S
H599 C594 0.929 . S
O600 Mn576 2.385 . S
O600 C578 1.234 1_545 S
O601 Mn576 2.209 1_565 S
O601 Mn577 2.215 . S
O601 C578 1.283 . S
O602 Mn576 2.094 . S
O602 C580 1.240 . S
O603 Mn577 2.117 1_545 S
O603 C580 1.264 . S
C604 C597 1.403 . S
C604 C605 1.399 . S
C604 H610 0.929 . S
C605 C585 1.449 . S
C605 C604 1.399 . S
C605 H611 0.930 . S
H606 C586 0.931 . S
H607 C587 0.930 . S
H608 C595 0.931 . S
H609 C596 0.929 . S
H610 C604 0.929 . S
H611 C605 0.930 . S
Mn612 O617 2.095 . S
Mn612 O627 2.162 . S
Mn612 O628 2.297 . S
Mn612 O636 2.385 . S
Mn612 O637 2.209 . S
Mn612 O638 2.094 . S
Mn613 O618 2.121 . S
Mn613 N620 2.257 . S
Mn613 N629 2.282 . S
Mn613 O637 2.215 . S
Mn613 O639 2.117 . S
C614 O636 1.234 . S
C614 O637 1.283 . S
C615 O627 1.281 . S
C615 O628 1.236 . S
C616 O638 1.240 . S
C616 O639 1.264 . S
O617 Mn612 2.095 . S
O617 C626 1.250 . S
O618 Mn613 2.121 . S
O618 C626 1.258 . S
C619 N620 1.326 . S
C619 C623 1.460 . S
C619 H625 0.929 . S
N620 Mn613 2.257 . S
N620 C619 1.326 . S
N620 C624 1.362 . S
C621 C622 1.258 . S
C621 C624 1.431 . S
C621 C641 1.449 . S
C622 C621 1.258 . S
C622 C623 1.477 . S
C622 H642 0.931 . S
C623 C619 1.460 . S
C623 C622 1.477 . S
C623 H643 0.930 . S
C624 N620 1.362 . S
C624 C621 1.431 . S
C624 C634 1.476 . S
H625 C619 0.929 . S
C626 O617 1.250 . S
C626 O618 1.258 . S
O627 Mn612 2.162 . S
O627 C615 1.281 . S
O628 Mn612 2.297 . S
O628 C615 1.236 . S
N629 Mn613 2.282 . S
N629 C630 1.328 . S
N629 C634 1.318 . S
C630 N629 1.328 . S
C630 C631 1.457 . S
C630 H635 0.929 . S
C631 C630 1.457 . S
C631 C632 1.291 . S
C631 H644 0.931 . S
C632 C631 1.291 . S
C632 C633 1.373 . S
C632 H645 0.929 . S
C633 C632 1.373 . S
C633 C634 1.396 . S
C633 C640 1.403 . S
C634 C624 1.476 . S
C634 N629 1.318 . S
C634 C633 1.396 . S
H635 C630 0.929 . S
O636 Mn612 2.385 . S
O636 C614 1.234 . S
O637 Mn612 2.209 . S
O637 Mn613 2.215 . S
O637 C614 1.283 . S
O638 Mn612 2.094 . S
O638 C616 1.240 . S
O639 Mn613 2.117 . S
O639 C616 1.264 . S
C640 C633 1.403 . S
C640 C641 1.399 . S
C640 H646 0.929 . S
C641 C621 1.449 . S
C641 C640 1.399 . S
C641 H647 0.930 . S
H642 C622 0.931 . S
H643 C623 0.930 . S
H644 C631 0.931 . S
H645 C632 0.929 . S
H646 C640 0.929 . S
H647 C641 0.930 . S
Mn648 O653 2.095 . S
Mn648 O663 2.162 . S
Mn648 O664 2.297 . S
Mn648 O672 2.385 . S
Mn648 O673 2.209 . S
Mn648 O674 2.094 . S
Mn649 O654 2.121 . S
Mn649 N656 2.257 . S
Mn649 N665 2.282 . S
Mn649 O673 2.215 . S
Mn649 O675 2.117 . S
C650 O672 1.234 . S
C650 O673 1.283 . S
C651 O663 1.281 . S
C651 O664 1.236 . S
C652 O674 1.240 . S
C652 O675 1.264 . S
O653 Mn648 2.095 . S
O653 C662 1.250 . S
O654 Mn649 2.121 . S
O654 C662 1.258 . S
C655 N656 1.326 . S
C655 C659 1.460 . S
C655 H661 0.929 . S
N656 Mn649 2.257 . S
N656 C655 1.326 . S
N656 C660 1.362 . S
C657 C658 1.258 . S
C657 C660 1.431 . S
C657 C677 1.449 . S
C658 C657 1.258 . S
C658 C659 1.477 . S
C658 H678 0.931 . S
C659 C655 1.460 . S
C659 C658 1.477 . S
C659 H679 0.930 . S
C660 N656 1.362 . S
C660 C657 1.431 . S
C660 C670 1.476 . S
H661 C655 0.929 . S
C662 O653 1.250 . S
C662 O654 1.258 . S
O663 Mn648 2.162 . S
O663 C651 1.281 . S
O664 Mn648 2.297 . S
O664 C651 1.236 . S
N665 Mn649 2.282 . S
N665 C666 1.328 . S
N665 C670 1.318 . S
C666 N665 1.328 . S
C666 C667 1.457 . S
C666 H671 0.929 . S
C667 C666 1.457 . S
C667 C668 1.291 . S
C667 H680 0.931 . S
C668 C667 1.291 . S
C668 C669 1.373 . S
C668 H681 0.929 . S
C669 C668 1.373 . S
C669 C670 1.396 . S
C669 C676 1.403 . S
C670 C660 1.476 . S
C670 N665 1.318 . S
C670 C669 1.396 . S
H671 C666 0.929 . S
O672 Mn648 2.385 . S
O672 C650 1.234 . S
O673 Mn648 2.209 . S
O673 Mn649 2.215 . S
O673 C650 1.283 . S
O674 Mn648 2.094 . S
O674 C652 1.240 . S
O675 Mn649 2.117 . S
O675 C652 1.264 . S
C676 C669 1.403 . S
C676 C677 1.399 . S
C676 H682 0.929 . S
C677 C657 1.449 . S
C677 C676 1.399 . S
C677 H683 0.930 . S
H678 C658 0.931 . S
H679 C659 0.930 . S
H680 C667 0.931 . S
H681 C668 0.929 . S
H682 C676 0.929 . S
H683 C677 0.930 . S
Mn684 O689 2.095 1_545 S
Mn684 O699 2.162 . S
Mn684 O700 2.297 . S
Mn684 O708 2.385 . S
Mn684 O709 2.209 1_545 S
Mn684 O710 2.094 . S
Mn685 O690 2.121 . S
Mn685 N692 2.257 . S
Mn685 N701 2.282 . S
Mn685 O709 2.215 . S
Mn685 O711 2.117 . S
C686 O708 1.234 1_565 S
C686 O709 1.283 . S
C687 O699 1.281 . S
C687 O700 1.236 . S
C688 O710 1.240 . S
C688 O711 1.264 1_545 S
O689 Mn684 2.095 1_565 S
O689 C698 1.250 . S
O690 Mn685 2.121 . S
O690 C698 1.258 . S
C691 N692 1.326 . S
C691 C695 1.460 . S
C691 H697 0.929 . S
N692 Mn685 2.257 . S
N692 C691 1.326 . S
N692 C696 1.362 . S
C693 C694 1.258 . S
C693 C696 1.431 . S
C693 C713 1.449 . S
C694 C693 1.258 . S
C694 C695 1.477 . S
C694 H714 0.931 . S
C695 C691 1.460 . S
C695 C694 1.477 . S
C695 H715 0.930 . S
C696 N692 1.362 . S
C696 C693 1.431 . S
C696 C706 1.476 . S
H697 C691 0.929 . S
C698 O689 1.250 . S
C698 O690 1.258 . S
O699 Mn684 2.162 . S
O699 C687 1.281 . S
O700 Mn684 2.297 . S
O700 C687 1.236 . S
N701 Mn685 2.282 . S
N701 C702 1.328 . S
N701 C706 1.318 . S
C702 N701 1.328 . S
C702 C703 1.457 . S
C702 H707 0.929 . S
C703 C702 1.457 . S
C703 C704 1.291 . S
C703 H716 0.931 . S
C704 C703 1.291 . S
C704 C705 1.373 . S
C704 H717 0.929 . S
C705 C704 1.373 . S
C705 C706 1.396 . S
C705 C712 1.403 . S
C706 C696 1.476 . S
C706 N701 1.318 . S
C706 C705 1.396 . S
H707 C702 0.929 . S
O708 Mn684 2.385 . S
O708 C686 1.234 1_545 S
O709 Mn684 2.209 1_565 S
O709 Mn685 2.215 . S
O709 C686 1.283 . S
O710 Mn684 2.094 . S
O710 C688 1.240 . S
O711 Mn685 2.117 . S
O711 C688 1.264 1_565 S
C712 C705 1.403 . S
C712 C713 1.399 . S
C712 H718 0.929 . S
C713 C693 1.449 . S
C713 C712 1.399 . S
C713 H719 0.930 . S
H714 C694 0.931 . S
H715 C695 0.930 . S
H716 C703 0.931 . S
H717 C704 0.929 . S
H718 C712 0.929 . S
H719 C713 0.930 . S
Mn720 O725 2.091 1_554 S
Mn720 O735 2.162 . S
Mn720 O736 2.297 . S
Mn720 O744 2.385 . S
Mn720 O745 2.209 1_554 S
Mn720 O746 2.094 . S
Mn721 O726 2.121 . S
Mn721 N728 2.257 . S
Mn721 N737 2.282 . S
Mn721 O745 2.215 . S
Mn721 O747 2.117 1_556 S
C722 O744 1.234 1_556 S
C722 O745 1.283 . S
C723 O735 1.281 . S
C723 O736 1.236 . S
C724 O746 1.240 . S
C724 O747 1.264 . S
O725 Mn720 2.091 1_556 S
O725 C734 1.261 . S
O726 Mn721 2.121 . S
O726 C734 1.258 . S
C727 N728 1.326 . S
C727 C731 1.460 . S
C727 H733 0.929 . S
N728 Mn721 2.257 . S
N728 C727 1.326 . S
N728 C732 1.362 . S
C729 C730 1.258 . S
C729 C732 1.431 . S
C729 C749 1.449 . S
C730 C729 1.258 . S
C730 C731 1.477 . S
C730 H750 0.931 . S
C731 C727 1.460 . S
C731 C730 1.477 . S
C731 H751 0.930 . S
C732 N728 1.362 . S
C732 C729 1.431 . S
C732 C742 1.476 . S
H733 C727 0.929 . S
C734 O725 1.261 . S
C734 O726 1.258 . S
O735 Mn720 2.162 . S
O735 C723 1.281 . S
O736 Mn720 2.297 . S
O736 C723 1.236 . S
N737 Mn721 2.282 . S
N737 C738 1.328 . S
N737 C742 1.318 . S
C738 N737 1.328 . S
C738 C739 1.457 . S
C738 H743 0.929 . S
C739 C738 1.457 . S
C739 C740 1.291 . S
C739 H752 0.931 . S
C740 C739 1.291 . S
C740 C741 1.373 . S
C740 H753 0.929 . S
C741 C740 1.373 . S
C741 C742 1.396 . S
C741 C748 1.403 . S
C742 C732 1.476 . S
C742 N737 1.318 . S
C742 C741 1.396 . S
H743 C738 0.929 . S
O744 Mn720 2.385 . S
O744 C722 1.234 1_554 S
O745 Mn720 2.209 1_556 S
O745 Mn721 2.215 . S
O745 C722 1.283 . S
O746 Mn720 2.094 . S
O746 C724 1.240 . S
O747 Mn721 2.117 1_554 S
O747 C724 1.264 . S
C748 C741 1.403 . S
C748 C749 1.399 . S
C748 H754 0.929 . S
C749 C729 1.449 . S
C749 C748 1.399 . S
C749 H755 0.930 . S
H750 C730 0.931 . S
H751 C731 0.930 . S
H752 C739 0.931 . S
H753 C740 0.929 . S
H754 C748 0.929 . S
H755 C749 0.930 . S
Mn756 O761 2.095 . S
Mn756 O771 2.162 . S
Mn756 O772 2.297 . S
Mn756 O780 2.385 . S
Mn756 O781 2.209 . S
Mn756 O782 2.094 . S
Mn757 O762 2.121 . S
Mn757 N764 2.257 . S
Mn757 N773 2.282 . S
Mn757 O781 2.215 . S
Mn757 O783 2.117 . S
C758 O780 1.234 . S
C758 O781 1.283 . S
C759 O771 1.281 . S
C759 O772 1.236 . S
C760 O782 1.240 . S
C760 O783 1.264 . S
O761 Mn756 2.095 . S
O761 C770 1.250 . S
O762 Mn757 2.121 . S
O762 C770 1.258 . S
C763 N764 1.326 . S
C763 C767 1.460 . S
C763 H769 0.929 . S
N764 Mn757 2.257 . S
N764 C763 1.326 . S
N764 C768 1.362 . S
C765 C766 1.258 . S
C765 C768 1.431 . S
C765 C785 1.449 . S
C766 C765 1.258 . S
C766 C767 1.477 . S
C766 H786 0.931 . S
C767 C763 1.460 . S
C767 C766 1.477 . S
C767 H787 0.930 . S
C768 N764 1.362 . S
C768 C765 1.431 . S
C768 C778 1.476 . S
H769 C763 0.929 . S
C770 O761 1.250 . S
C770 O762 1.258 . S
O771 Mn756 2.162 . S
O771 C759 1.281 . S
O772 Mn756 2.297 . S
O772 C759 1.236 . S
N773 Mn757 2.282 . S
N773 C774 1.328 . S
N773 C778 1.318 . S
C774 N773 1.328 . S
C774 C775 1.457 . S
C774 H779 0.929 . S
C775 C774 1.457 . S
C775 C776 1.291 . S
C775 H788 0.931 . S
C776 C775 1.291 . S
C776 C777 1.373 . S
C776 H789 0.929 . S
C777 C776 1.373 . S
C777 C778 1.396 . S
C777 C784 1.403 . S
C778 C768 1.476 . S
C778 N773 1.318 . S
C778 C777 1.396 . S
H779 C774 0.929 . S
O780 Mn756 2.385 . S
O780 C758 1.234 . S
O781 Mn756 2.209 . S
O781 Mn757 2.215 . S
O781 C758 1.283 . S
O782 Mn756 2.094 . S
O782 C760 1.240 . S
O783 Mn757 2.117 . S
O783 C760 1.264 . S
C784 C777 1.403 . S
C784 C785 1.399 . S
C784 H790 0.929 . S
C785 C765 1.449 . S
C785 C784 1.399 . S
C785 H791 0.930 . S
H786 C766 0.931 . S
H787 C767 0.930 . S
H788 C775 0.931 . S
H789 C776 0.929 . S
H790 C784 0.929 . S
H791 C785 0.930 . S
Mn792 O797 2.095 . S
Mn792 O807 2.162 . S
Mn792 O808 2.297 . S
Mn792 O816 2.385 . S
Mn792 O817 2.209 . S
Mn792 O818 2.094 . S
Mn793 O798 2.121 . S
Mn793 N800 2.257 . S
Mn793 N809 2.282 . S
Mn793 O817 2.215 . S
Mn793 O819 2.117 . S
C794 O816 1.234 . S
C794 O817 1.283 . S
C795 O807 1.281 . S
C795 O808 1.236 . S
C796 O818 1.240 . S
C796 O819 1.264 . S
O797 Mn792 2.095 . S
O797 C806 1.250 . S
O798 Mn793 2.121 . S
O798 C806 1.258 . S
C799 N800 1.326 . S
C799 C803 1.460 . S
C799 H805 0.929 . S
N800 Mn793 2.257 . S
N800 C799 1.326 . S
N800 C804 1.362 . S
C801 C802 1.258 . S
C801 C804 1.431 . S
C801 C821 1.449 . S
C802 C801 1.258 . S
C802 C803 1.477 . S
C802 H822 0.931 . S
C803 C799 1.460 . S
C803 C802 1.477 . S
C803 H823 0.930 . S
C804 N800 1.362 . S
C804 C801 1.431 . S
C804 C814 1.476 . S
H805 C799 0.929 . S
C806 O797 1.250 . S
C806 O798 1.258 . S
O807 Mn792 2.162 . S
O807 C795 1.281 . S
O808 Mn792 2.297 . S
O808 C795 1.236 . S
N809 Mn793 2.282 . S
N809 C810 1.328 . S
N809 C814 1.318 . S
C810 N809 1.328 . S
C810 C811 1.457 . S
C810 H815 0.929 . S
C811 C810 1.457 . S
C811 C812 1.291 . S
C811 H824 0.931 . S
C812 C811 1.291 . S
C812 C813 1.373 . S
C812 H825 0.929 . S
C813 C812 1.373 . S
C813 C814 1.396 . S
C813 C820 1.403 . S
C814 C804 1.476 . S
C814 N809 1.318 . S
C814 C813 1.396 . S
H815 C810 0.929 . S
O816 Mn792 2.385 . S
O816 C794 1.234 . S
O817 Mn792 2.209 . S
O817 Mn793 2.215 . S
O817 C794 1.283 . S
O818 Mn792 2.094 . S
O818 C796 1.240 . S
O819 Mn793 2.117 . S
O819 C796 1.264 . S
C820 C813 1.403 . S
C820 C821 1.399 . S
C820 H826 0.929 . S
C821 C801 1.449 . S
C821 C820 1.399 . S
C821 H827 0.930 . S
H822 C802 0.931 . S
H823 C803 0.930 . S
H824 C811 0.931 . S
H825 C812 0.929 . S
H826 C820 0.929 . S
H827 C821 0.930 . S
Mn828 O833 2.095 . S
Mn828 O843 2.162 . S
Mn828 O844 2.297 . S
Mn828 O852 2.385 . S
Mn828 O853 2.209 . S
Mn828 O854 2.094 . S
Mn829 O834 2.121 . S
Mn829 N836 2.257 . S
Mn829 N845 2.282 . S
Mn829 O853 2.215 . S
Mn829 O855 2.117 . S
C830 O852 1.234 . S
C830 O853 1.283 . S
C831 O843 1.281 . S
C831 O844 1.236 . S
C832 O854 1.240 . S
C832 O855 1.264 . S
O833 Mn828 2.095 . S
O833 C842 1.250 . S
O834 Mn829 2.121 . S
O834 C842 1.258 . S
C835 N836 1.326 . S
C835 C839 1.460 . S
C835 H841 0.929 . S
N836 Mn829 2.257 . S
N836 C835 1.326 . S
N836 C840 1.362 . S
C837 C838 1.258 . S
C837 C840 1.431 . S
C837 C857 1.449 . S
C838 C837 1.258 . S
C838 C839 1.477 . S
C838 H858 0.931 . S
C839 C835 1.460 . S
C839 C838 1.477 . S
C839 H859 0.930 . S
C840 N836 1.362 . S
C840 C837 1.431 . S
C840 C850 1.476 . S
H841 C835 0.929 . S
C842 O833 1.250 . S
C842 O834 1.258 . S
O843 Mn828 2.162 . S
O843 C831 1.281 . S
O844 Mn828 2.297 . S
O844 C831 1.236 . S
N845 Mn829 2.282 . S
N845 C846 1.328 . S
N845 C850 1.318 . S
C846 N845 1.328 . S
C846 C847 1.457 . S
C846 H851 0.929 . S
C847 C846 1.457 . S
C847 C848 1.291 . S
C847 H860 0.931 . S
C848 C847 1.291 . S
C848 C849 1.373 . S
C848 H861 0.929 . S
C849 C848 1.373 . S
C849 C850 1.396 . S
C849 C856 1.403 . S
C850 C840 1.476 . S
C850 N845 1.318 . S
C850 C849 1.396 . S
H851 C846 0.929 . S
O852 Mn828 2.385 . S
O852 C830 1.234 . S
O853 Mn828 2.209 . S
O853 Mn829 2.215 . S
O853 C830 1.283 . S
O854 Mn828 2.094 . S
O854 C832 1.240 . S
O855 Mn829 2.117 . S
O855 C832 1.264 . S
C856 C849 1.403 . S
C856 C857 1.399 . S
C856 H862 0.929 . S
C857 C837 1.449 . S
C857 C856 1.399 . S
C857 H863 0.930 . S
H858 C838 0.931 . S
H859 C839 0.930 . S
H860 C847 0.931 . S
H861 C848 0.929 . S
H862 C856 0.929 . S
H863 C857 0.930 . S
Fe864 O866 1.918 . S
Fe864 O869 1.997 . S
Fe864 O870 2.002 . S
Fe864 O875 1.976 . S
Fe864 O878 1.996 . S
Fe865 O866 1.918 . S
Fe865 O873 1.997 . S
Fe865 O876 1.996 . S
Fe865 O880 1.976 . S
Fe865 O883 2.002 . S
O866 Fe864 1.918 . S
O866 Fe865 1.918 . S
O866 Fe867 1.918 . S
Fe867 O866 1.918 . S
Fe867 O868 2.002 . S
Fe867 O877 1.976 . S
Fe867 O881 1.996 . S
Fe867 O884 1.997 . S
O868 Fe867 2.002 . S
O868 C885 1.295 . S
O869 Fe864 1.997 . S
O869 C885 1.235 . S
O870 Fe864 2.002 . S
O870 C871 1.295 . S
C871 O870 1.295 . S
C871 O873 1.235 . S
C872 O877 1.287 . S
C872 O878 1.255 . S
O873 Fe865 1.997 . S
O873 C871 1.235 . S
C874 O880 1.287 . S
C874 O881 1.255 . S
O875 Fe864 1.976 . S
O875 C882 1.287 . S
O876 Fe865 1.996 . S
O876 C882 1.255 . S
O877 Fe867 1.976 . S
O877 C872 1.287 . S
O878 Fe864 1.996 . S
O878 C872 1.255 . S
C879 O883 1.295 . S
C879 O884 1.235 . S
O880 Fe865 1.976 . S
O880 C874 1.287 . S
O881 Fe867 1.996 . S
O881 C874 1.255 . S
C882 O875 1.287 . S
C882 O876 1.255 . S
O883 Fe865 2.002 . S
O883 C879 1.295 . S
O884 Fe867 1.997 . S
O884 C879 1.235 . S
C885 O868 1.295 . S
C885 O869 1.235 . S
Fe886 O888 1.918 . S
Fe886 O891 1.997 . S
Fe886 O892 2.002 . S
Fe886 O897 1.976 . S
Fe886 O900 1.996 . S
Fe887 O888 1.918 . S
Fe887 O895 1.997 . S
Fe887 O898 1.996 . S
Fe887 O902 1.976 . S
Fe887 O905 2.002 . S
O888 Fe886 1.918 . S
O888 Fe887 1.918 . S
O888 Fe889 1.918 . S
Fe889 O888 1.918 . S
Fe889 O890 2.002 . S
Fe889 O899 1.976 . S
Fe889 O903 1.996 . S
Fe889 O906 1.997 . S
O890 Fe889 2.002 . S
O890 C907 1.295 . S
O891 Fe886 1.997 . S
O891 C907 1.235 . S
O892 Fe886 2.002 . S
O892 C893 1.295 . S
C893 O892 1.295 . S
C893 O895 1.235 . S
C894 O899 1.287 . S
C894 O900 1.255 . S
O895 Fe887 1.997 . S
O895 C893 1.235 . S
C896 O902 1.287 . S
C896 O903 1.255 . S
O897 Fe886 1.976 . S
O897 C904 1.287 . S
O898 Fe887 1.996 . S
O898 C904 1.255 . S
O899 Fe889 1.976 . S
O899 C894 1.287 . S
O900 Fe886 1.996 . S
O900 C894 1.255 . S
C901 O905 1.295 . S
C901 O906 1.235 . S
O902 Fe887 1.976 . S
O902 C896 1.287 . S
O903 Fe889 1.996 . S
O903 C896 1.255 . S
C904 O897 1.287 . S
C904 O898 1.255 . S
O905 Fe887 2.002 . S
O905 C901 1.295 . S
O906 Fe889 1.997 . S
O906 C901 1.235 . S
C907 O890 1.295 . S
C907 O891 1.235 . S
Fe908 O910 1.918 . S
Fe908 O913 1.997 . S
Fe908 O914 2.002 . S
Fe908 O919 1.976 . S
Fe908 O922 1.996 . S
Fe909 O910 1.918 . S
Fe909 O917 1.997 . S
Fe909 O920 1.996 . S
Fe909 O924 1.976 . S
Fe909 O927 2.002 . S
O910 Fe908 1.918 . S
O910 Fe909 1.918 . S
O910 Fe911 1.918 . S
Fe911 O910 1.918 . S
Fe911 O912 2.002 . S
Fe911 O921 1.976 . S
Fe911 O925 1.996 . S
Fe911 O928 1.997 . S
O912 Fe911 2.002 . S
O912 C929 1.295 . S
O913 Fe908 1.997 . S
O913 C929 1.235 . S
O914 Fe908 2.002 . S
O914 C915 1.295 . S
C915 O914 1.295 . S
C915 O917 1.235 . S
C916 O921 1.287 . S
C916 O922 1.255 . S
O917 Fe909 1.997 . S
O917 C915 1.235 . S
C918 O924 1.287 . S
C918 O925 1.255 . S
O919 Fe908 1.976 . S
O919 C926 1.287 . S
O920 Fe909 1.996 . S
O920 C926 1.255 . S
O921 Fe911 1.976 . S
O921 C916 1.287 . S
O922 Fe908 1.996 . S
O922 C916 1.255 . S
C923 O927 1.295 . S
C923 O928 1.235 . S
O924 Fe909 1.976 . S
O924 C918 1.287 . S
O925 Fe911 1.996 . S
O925 C918 1.255 . S
C926 O919 1.287 . S
C926 O920 1.255 . S
O927 Fe909 2.002 . S
O927 C923 1.295 . S
O928 Fe911 1.997 . S
O928 C923 1.235 . S
C929 O912 1.295 . S
C929 O913 1.235 . S
Fe930 O932 1.918 . S
Fe930 O935 1.997 . S
Fe930 O936 2.002 . S
Fe930 O941 1.976 . S
Fe930 O944 1.996 . S
Fe931 O932 1.918 . S
Fe931 O939 1.997 . S
Fe931 O942 1.996 . S
Fe931 O946 1.976 . S
Fe931 O949 2.002 . S
O932 Fe930 1.918 . S
O932 Fe931 1.918 . S
O932 Fe933 1.918 . S
Fe933 O932 1.918 . S
Fe933 O934 2.002 . S
Fe933 O943 1.976 . S
Fe933 O947 1.996 . S
Fe933 O950 1.997 . S
O934 Fe933 2.002 . S
O934 C951 1.295 . S
O935 Fe930 1.997 . S
O935 C951 1.235 . S
O936 Fe930 2.002 . S
O936 C937 1.295 . S
C937 O936 1.295 . S
C937 O939 1.235 . S
C938 O943 1.287 . S
C938 O944 1.255 . S
O939 Fe931 1.997 . S
O939 C937 1.235 . S
C940 O946 1.287 . S
C940 O947 1.255 . S
O941 Fe930 1.976 . S
O941 C948 1.287 . S
O942 Fe931 1.996 . S
O942 C948 1.255 . S
O943 Fe933 1.976 . S
O943 C938 1.287 . S
O944 Fe930 1.996 . S
O944 C938 1.255 . S
C945 O949 1.295 . S
C945 O950 1.235 . S
O946 Fe931 1.976 . S
O946 C940 1.287 . S
O947 Fe933 1.996 . S
O947 C940 1.255 . S
C948 O941 1.287 . S
C948 O942 1.255 . S
O949 Fe931 2.002 . S
O949 C945 1.295 . S
O950 Fe933 1.997 . S
O950 C945 1.235 . S
C951 O934 1.295 . S
C951 O935 1.235 . S
Fe952 O954 1.918 . S
Fe952 O957 1.997 . S
Fe952 O958 2.002 . S
Fe952 O963 1.976 . S
Fe952 O966 1.996 . S
Fe953 O954 1.918 . S
Fe953 O961 1.997 . S
Fe953 O964 1.996 . S
Fe953 O968 1.976 . S
Fe953 O971 2.002 . S
O954 Fe952 1.918 . S
O954 Fe953 1.918 . S
O954 Fe955 1.918 . S
Fe955 O954 1.918 . S
Fe955 O956 2.002 . S
Fe955 O965 1.976 . S
Fe955 O969 1.996 . S
Fe955 O972 1.997 . S
O956 Fe955 2.002 . S
O956 C973 1.295 . S
O957 Fe952 1.997 . S
O957 C973 1.235 . S
O958 Fe952 2.002 . S
O958 C959 1.295 . S
C959 O958 1.295 . S
C959 O961 1.235 . S
C960 O965 1.287 . S
C960 O966 1.255 . S
O961 Fe953 1.997 . S
O961 C959 1.235 . S
C962 O968 1.287 . S
C962 O969 1.255 . S
O963 Fe952 1.976 . S
O963 C970 1.287 . S
O964 Fe953 1.996 . S
O964 C970 1.255 . S
O965 Fe955 1.976 . S
O965 C960 1.287 . S
O966 Fe952 1.996 . S
O966 C960 1.255 . S
C967 O971 1.295 . S
C967 O972 1.235 . S
O968 Fe953 1.976 . S
O968 C962 1.287 . S
O969 Fe955 1.996 . S
O969 C962 1.255 . S
C970 O963 1.287 . S
C970 O964 1.255 . S
O971 Fe953 2.002 . S
O971 C967 1.295 . S
O972 Fe955 1.997 . S
O972 C967 1.235 . S
C973 O956 1.295 . S
C973 O957 1.235 . S
Fe974 O976 1.918 . S
Fe974 O979 1.997 . S
Fe974 O980 2.002 . S
Fe974 O985 1.976 . S
Fe974 O988 1.996 . S
Fe975 O976 1.918 . S
Fe975 O983 1.997 . S
Fe975 O986 1.996 . S
Fe975 O990 1.976 . S
Fe975 O993 2.002 . S
O976 Fe974 1.918 . S
O976 Fe975 1.918 . S
O976 Fe977 1.918 . S
Fe977 O976 1.918 . S
Fe977 O978 2.002 . S
Fe977 O987 1.976 . S
Fe977 O991 1.996 . S
Fe977 O994 1.997 . S
O978 Fe977 2.002 . S
O978 C995 1.295 . S
O979 Fe974 1.997 . S
O979 C995 1.235 . S
O980 Fe974 2.002 . S
O980 C981 1.295 . S
C981 O980 1.295 . S
C981 O983 1.235 . S
C982 O987 1.287 . S
C982 O988 1.255 . S
O983 Fe975 1.997 . S
O983 C981 1.235 . S
C984 O990 1.287 . S
C984 O991 1.255 . S
O985 Fe974 1.976 . S
O985 C992 1.287 . S
O986 Fe975 1.996 . S
O986 C992 1.255 . S
O987 Fe977 1.976 . S
O987 C982 1.287 . S
O988 Fe974 1.996 . S
O988 C982 1.255 . S
C989 O993 1.295 . S
C989 O994 1.235 . S
O990 Fe975 1.976 . S
O990 C984 1.287 . S
O991 Fe977 1.996 . S
O991 C984 1.255 . S
C992 O985 1.287 . S
C992 O986 1.255 . S
O993 Fe975 2.002 . S
O993 C989 1.295 . S
O994 Fe977 1.997 . S
O994 C989 1.235 . S
C995 O978 1.295 . S
C995 O979 1.235 . S
Fe996 O998 1.918 . S
Fe996 O1001 1.997 . S
Fe996 O1002 2.002 . S
Fe996 O1007 1.976 . S
Fe996 O1010 1.996 . S
Fe997 O998 1.918 . S
Fe997 O1005 1.997 . S
Fe997 O1008 1.996 . S
Fe997 O1012 1.976 . S
Fe997 O1015 2.002 . S
O998 Fe996 1.918 . S
O998 Fe997 1.918 . S
O998 Fe999 1.918 . S
Fe999 O998 1.918 . S
Fe999 O1000 2.002 . S
Fe999 O1009 1.976 . S
Fe999 O1013 1.996 . S
Fe999 O1016 1.997 . S
O1000 Fe999 2.002 . S
O1000 C1017 1.295 . S
O1001 Fe996 1.997 . S
O1001 C1017 1.235 . S
O1002 Fe996 2.002 . S
O1002 C1003 1.295 . S
C1003 O1002 1.295 . S
C1003 O1005 1.235 . S
C1004 O1009 1.287 . S
C1004 O1010 1.255 . S
O1005 Fe997 1.997 . S
O1005 C1003 1.235 . S
C1006 O1012 1.287 . S
C1006 O1013 1.255 . S
O1007 Fe996 1.976 . S
O1007 C1014 1.287 . S
O1008 Fe997 1.996 . S
O1008 C1014 1.255 . S
O1009 Fe999 1.976 . S
O1009 C1004 1.287 . S
O1010 Fe996 1.996 . S
O1010 C1004 1.255 . S
C1011 O1015 1.295 . S
C1011 O1016 1.235 . S
O1012 Fe997 1.976 . S
O1012 C1006 1.287 . S
O1013 Fe999 1.996 . S
O1013 C1006 1.255 . S
C1014 O1007 1.287 . S
C1014 O1008 1.255 . S
O1015 Fe997 2.002 . S
O1015 C1011 1.295 . S
O1016 Fe999 1.997 . S
O1016 C1011 1.235 . S
C1017 O1000 1.295 . S
C1017 O1001 1.235 . S
Fe1018 O1020 1.918 . S
Fe1018 O1023 1.997 . S
Fe1018 O1024 2.002 . S
Fe1018 O1029 1.976 . S
Fe1018 O1032 1.996 . S
Fe1019 O1020 1.918 . S
Fe1019 O1027 1.997 . S
Fe1019 O1030 1.996 . S
Fe1019 O1034 1.976 . S
Fe1019 O1037 2.002 . S
O1020 Fe1018 1.918 . S
O1020 Fe1019 1.918 . S
O1020 Fe1021 1.918 . S
Fe1021 O1020 1.918 . S
Fe1021 O1022 2.002 . S
Fe1021 O1031 1.976 . S
Fe1021 O1035 1.996 . S
Fe1021 O1038 1.997 . S
O1022 Fe1021 2.002 . S
O1022 C1039 1.295 . S
O1023 Fe1018 1.997 . S
O1023 C1039 1.235 . S
O1024 Fe1018 2.002 . S
O1024 C1025 1.295 . S
C1025 O1024 1.295 . S
C1025 O1027 1.235 . S
C1026 O1031 1.287 . S
C1026 O1032 1.255 . S
O1027 Fe1019 1.997 . S
O1027 C1025 1.235 . S
C1028 O1034 1.287 . S
C1028 O1035 1.255 . S
O1029 Fe1018 1.976 . S
O1029 C1036 1.287 . S
O1030 Fe1019 1.996 . S
O1030 C1036 1.255 . S
O1031 Fe1021 1.976 . S
O1031 C1026 1.287 . S
O1032 Fe1018 1.996 . S
O1032 C1026 1.255 . S
C1033 O1037 1.295 . S
C1033 O1038 1.235 . S
O1034 Fe1019 1.976 . S
O1034 C1028 1.287 . S
O1035 Fe1021 1.996 . S
O1035 C1028 1.255 . S
C1036 O1029 1.287 . S
C1036 O1030 1.255 . S
O1037 Fe1019 2.002 . S
O1037 C1033 1.295 . S
O1038 Fe1021 1.997 . S
O1038 C1033 1.235 . S
C1039 O1022 1.295 . S
C1039 O1023 1.235 . S
Fe1040 O1042 1.918 . S
Fe1040 O1045 1.997 . S
Fe1040 O1046 2.002 . S
Fe1040 O1051 1.976 . S
Fe1040 O1054 1.996 . S
Fe1041 O1042 1.918 . S
Fe1041 O1049 1.997 . S
Fe1041 O1052 1.996 . S
Fe1041 O1056 1.976 . S
Fe1041 O1059 2.002 . S
O1042 Fe1040 1.918 . S
O1042 Fe1041 1.918 . S
O1042 Fe1043 1.918 . S
Fe1043 O1042 1.918 . S
Fe1043 O1044 2.002 . S
Fe1043 O1053 1.976 . S
Fe1043 O1057 1.996 . S
Fe1043 O1060 1.997 . S
O1044 Fe1043 2.002 . S
O1044 C1061 1.295 . S
O1045 Fe1040 1.997 . S
O1045 C1061 1.235 . S
O1046 Fe1040 2.002 . S
O1046 C1047 1.295 . S
C1047 O1046 1.295 . S
C1047 O1049 1.235 . S
C1048 O1053 1.287 . S
C1048 O1054 1.255 . S
O1049 Fe1041 1.997 . S
O1049 C1047 1.235 . S
C1050 O1056 1.287 . S
C1050 O1057 1.255 . S
O1051 Fe1040 1.976 . S
O1051 C1058 1.287 . S
O1052 Fe1041 1.996 . S
O1052 C1058 1.255 . S
O1053 Fe1043 1.976 . S
O1053 C1048 1.287 . S
O1054 Fe1040 1.996 . S
O1054 C1048 1.255 . S
C1055 O1059 1.295 . S
C1055 O1060 1.235 . S
O1056 Fe1041 1.976 . S
O1056 C1050 1.287 . S
O1057 Fe1043 1.996 . S
O1057 C1050 1.255 . S
C1058 O1051 1.287 . S
C1058 O1052 1.255 . S
O1059 Fe1041 2.002 . S
O1059 C1055 1.295 . S
O1060 Fe1043 1.997 . S
O1060 C1055 1.235 . S
C1061 O1044 1.295 . S
C1061 O1045 1.235 . S
Fe1062 O1064 1.918 . S
Fe1062 O1067 1.997 . S
Fe1062 O1068 2.002 . S
Fe1062 O1073 1.976 . S
Fe1062 O1076 1.996 . S
Fe1063 O1064 1.918 . S
Fe1063 O1071 1.997 . S
Fe1063 O1074 1.996 . S
Fe1063 O1078 1.976 . S
Fe1063 O1081 2.002 . S
O1064 Fe1062 1.918 . S
O1064 Fe1063 1.918 . S
O1064 Fe1065 1.918 . S
Fe1065 O1064 1.918 . S
Fe1065 O1066 2.002 . S
Fe1065 O1075 1.976 . S
Fe1065 O1079 1.996 . S
Fe1065 O1082 1.997 . S
O1066 Fe1065 2.002 . S
O1066 C1083 1.295 . S
O1067 Fe1062 1.997 . S
O1067 C1083 1.235 . S
O1068 Fe1062 2.002 . S
O1068 C1069 1.295 . S
C1069 O1068 1.295 . S
C1069 O1071 1.235 . S
C1070 O1075 1.287 . S
C1070 O1076 1.255 . S
O1071 Fe1063 1.997 . S
O1071 C1069 1.235 . S
C1072 O1078 1.287 . S
C1072 O1079 1.255 . S
O1073 Fe1062 1.976 . S
O1073 C1080 1.287 . S
O1074 Fe1063 1.996 . S
O1074 C1080 1.255 . S
O1075 Fe1065 1.976 . S
O1075 C1070 1.287 . S
O1076 Fe1062 1.996 . S
O1076 C1070 1.255 . S
C1077 O1081 1.295 . S
C1077 O1082 1.235 . S
O1078 Fe1063 1.976 . S
O1078 C1072 1.287 . S
O1079 Fe1065 1.996 . S
O1079 C1072 1.255 . S
C1080 O1073 1.287 . S
C1080 O1074 1.255 . S
O1081 Fe1063 2.002 . S
O1081 C1077 1.295 . S
O1082 Fe1065 1.997 . S
O1082 C1077 1.235 . S
C1083 O1066 1.295 . S
C1083 O1067 1.235 . S
Fe1084 O1086 1.918 . S
Fe1084 O1089 1.997 . S
Fe1084 O1090 2.002 . S
Fe1084 O1095 1.976 . S
Fe1084 O1098 1.996 . S
Fe1085 O1086 1.918 . S
Fe1085 O1093 1.997 . S
Fe1085 O1096 1.996 . S
Fe1085 O1100 1.976 . S
Fe1085 O1103 2.002 . S
O1086 Fe1084 1.918 . S
O1086 Fe1085 1.918 . S
O1086 Fe1087 1.918 . S
Fe1087 O1086 1.918 . S
Fe1087 O1088 2.002 . S
Fe1087 O1097 1.976 . S
Fe1087 O1101 1.996 . S
Fe1087 O1104 1.997 . S
O1088 Fe1087 2.002 . S
O1088 C1105 1.295 . S
O1089 Fe1084 1.997 . S
O1089 C1105 1.235 . S
O1090 Fe1084 2.002 . S
O1090 C1091 1.295 . S
C1091 O1090 1.295 . S
C1091 O1093 1.235 . S
C1092 O1097 1.287 . S
C1092 O1098 1.255 . S
O1093 Fe1085 1.997 . S
O1093 C1091 1.235 . S
C1094 O1100 1.287 . S
C1094 O1101 1.255 . S
O1095 Fe1084 1.976 . S
O1095 C1102 1.287 . S
O1096 Fe1085 1.996 . S
O1096 C1102 1.255 . S
O1097 Fe1087 1.976 . S
O1097 C1092 1.287 . S
O1098 Fe1084 1.996 . S
O1098 C1092 1.255 . S
C1099 O1103 1.295 . S
C1099 O1104 1.235 . S
O1100 Fe1085 1.976 . S
O1100 C1094 1.287 . S
O1101 Fe1087 1.996 . S
O1101 C1094 1.255 . S
C1102 O1095 1.287 . S
C1102 O1096 1.255 . S
O1103 Fe1085 2.002 . S
O1103 C1099 1.295 . S
O1104 Fe1087 1.997 . S
O1104 C1099 1.235 . S
C1105 O1088 1.295 . S
C1105 O1089 1.235 . S
Fe1106 O1108 1.918 . S
Fe1106 O1111 1.997 . S
Fe1106 O1112 2.002 . S
Fe1106 O1117 1.976 . S
Fe1106 O1120 1.996 . S
Fe1107 O1108 1.918 . S
Fe1107 O1115 1.997 . S
Fe1107 O1118 1.996 . S
Fe1107 O1122 1.976 . S
Fe1107 O1125 2.002 . S
O1108 Fe1106 1.918 . S
O1108 Fe1107 1.918 . S
O1108 Fe1109 1.918 . S
Fe1109 O1108 1.918 . S
Fe1109 O1110 2.002 . S
Fe1109 O1119 1.976 . S
Fe1109 O1123 1.996 . S
Fe1109 O1126 1.997 . S
O1110 Fe1109 2.002 . S
O1110 C1127 1.295 . S
O1111 Fe1106 1.997 . S
O1111 C1127 1.235 . S
O1112 Fe1106 2.002 . S
O1112 C1113 1.295 . S
C1113 O1112 1.295 . S
C1113 O1115 1.235 . S
C1114 O1119 1.287 . S
C1114 O1120 1.255 . S
O1115 Fe1107 1.997 . S
O1115 C1113 1.235 . S
C1116 O1122 1.287 . S
C1116 O1123 1.255 . S
O1117 Fe1106 1.976 . S
O1117 C1124 1.287 . S
O1118 Fe1107 1.996 . S
O1118 C1124 1.255 . S
O1119 Fe1109 1.976 . S
O1119 C1114 1.287 . S
O1120 Fe1106 1.996 . S
O1120 C1114 1.255 . S
C1121 O1125 1.295 . S
C1121 O1126 1.235 . S
O1122 Fe1107 1.976 . S
O1122 C1116 1.287 . S
O1123 Fe1109 1.996 . S
O1123 C1116 1.255 . S
C1124 O1117 1.287 . S
C1124 O1118 1.255 . S
O1125 Fe1107 2.002 . S
O1125 C1121 1.295 . S
O1126 Fe1109 1.997 . S
O1126 C1121 1.235 . S
C1127 O1110 1.295 . S
C1127 O1111 1.235 . S
Fe1128 O1130 1.918 . S
Fe1128 O1133 1.997 . S
Fe1128 O1134 2.002 . S
Fe1128 O1139 1.976 . S
Fe1128 O1142 1.996 . S
Fe1129 O1130 1.918 . S
Fe1129 O1137 1.997 . S
Fe1129 O1140 1.996 . S
Fe1129 O1144 1.976 . S
Fe1129 O1147 2.002 . S
O1130 Fe1128 1.918 . S
O1130 Fe1129 1.918 . S
O1130 Fe1131 1.918 . S
Fe1131 O1130 1.918 . S
Fe1131 O1132 2.002 . S
Fe1131 O1141 1.976 . S
Fe1131 O1145 1.996 . S
Fe1131 O1148 1.997 . S
O1132 Fe1131 2.002 . S
O1132 C1149 1.295 . S
O1133 Fe1128 1.997 . S
O1133 C1149 1.235 . S
O1134 Fe1128 2.002 . S
O1134 C1135 1.295 . S
C1135 O1134 1.295 . S
C1135 O1137 1.235 . S
C1136 O1141 1.287 . S
C1136 O1142 1.255 . S
O1137 Fe1129 1.997 . S
O1137 C1135 1.235 . S
C1138 O1144 1.287 . S
C1138 O1145 1.255 . S
O1139 Fe1128 1.976 . S
O1139 C1146 1.287 . S
O1140 Fe1129 1.996 . S
O1140 C1146 1.255 . S
O1141 Fe1131 1.976 . S
O1141 C1136 1.287 . S
O1142 Fe1128 1.996 . S
O1142 C1136 1.255 . S
C1143 O1147 1.295 . S
C1143 O1148 1.235 . S
O1144 Fe1129 1.976 . S
O1144 C1138 1.287 . S
O1145 Fe1131 1.996 . S
O1145 C1138 1.255 . S
C1146 O1139 1.287 . S
C1146 O1140 1.255 . S
O1147 Fe1129 2.002 . S
O1147 C1143 1.295 . S
O1148 Fe1131 1.997 . S
O1148 C1143 1.235 . S
C1149 O1132 1.295 . S
C1149 O1133 1.235 . S
Fe1150 O1152 1.918 . S
Fe1150 O1155 1.997 . S
Fe1150 O1156 2.002 . S
Fe1150 O1161 1.976 . S
Fe1150 O1164 1.996 . S
Fe1151 O1152 1.918 . S
Fe1151 O1159 1.997 . S
Fe1151 O1162 1.996 . S
Fe1151 O1166 1.976 . S
Fe1151 O1169 2.002 . S
O1152 Fe1150 1.918 . S
O1152 Fe1151 1.918 . S
O1152 Fe1153 1.918 . S
Fe1153 O1152 1.918 . S
Fe1153 O1154 2.002 . S
Fe1153 O1163 1.976 . S
Fe1153 O1167 1.996 . S
Fe1153 O1170 1.997 . S
O1154 Fe1153 2.002 . S
O1154 C1171 1.295 . S
O1155 Fe1150 1.997 . S
O1155 C1171 1.235 . S
O1156 Fe1150 2.002 . S
O1156 C1157 1.295 . S
C1157 O1156 1.295 . S
C1157 O1159 1.235 . S
C1158 O1163 1.287 . S
C1158 O1164 1.255 . S
O1159 Fe1151 1.997 . S
O1159 C1157 1.235 . S
C1160 O1166 1.287 . S
C1160 O1167 1.255 . S
O1161 Fe1150 1.976 . S
O1161 C1168 1.287 . S
O1162 Fe1151 1.996 . S
O1162 C1168 1.255 . S
O1163 Fe1153 1.976 . S
O1163 C1158 1.287 . S
O1164 Fe1150 1.996 . S
O1164 C1158 1.255 . S
C1165 O1169 1.295 . S
C1165 O1170 1.235 . S
O1166 Fe1151 1.976 . S
O1166 C1160 1.287 . S
O1167 Fe1153 1.996 . S
O1167 C1160 1.255 . S
C1168 O1161 1.287 . S
C1168 O1162 1.255 . S
O1169 Fe1151 2.002 . S
O1169 C1165 1.295 . S
O1170 Fe1153 1.997 . S
O1170 C1165 1.235 . S
C1171 O1154 1.295 . S
C1171 O1155 1.235 . S
Fe1172 O1174 1.918 . S
Fe1172 O1177 1.997 . S
Fe1172 O1178 2.002 . S
Fe1172 O1183 1.976 . S
Fe1172 O1186 1.996 . S
Fe1173 O1174 1.918 . S
Fe1173 O1181 1.997 . S
Fe1173 O1184 1.996 . S
Fe1173 O1188 1.976 . S
Fe1173 O1191 2.002 . S
O1174 Fe1172 1.918 . S
O1174 Fe1173 1.918 . S
O1174 Fe1175 1.918 . S
Fe1175 O1174 1.918 . S
Fe1175 O1176 2.002 . S
Fe1175 O1185 1.976 . S
Fe1175 O1189 1.996 . S
Fe1175 O1192 1.997 . S
O1176 Fe1175 2.002 . S
O1176 C1193 1.295 . S
O1177 Fe1172 1.997 . S
O1177 C1193 1.235 . S
O1178 Fe1172 2.002 . S
O1178 C1179 1.295 . S
C1179 O1178 1.295 . S
C1179 O1181 1.235 . S
C1180 O1185 1.287 . S
C1180 O1186 1.255 . S
O1181 Fe1173 1.997 . S
O1181 C1179 1.235 . S
C1182 O1188 1.287 . S
C1182 O1189 1.255 . S
O1183 Fe1172 1.976 . S
O1183 C1190 1.287 . S
O1184 Fe1173 1.996 . S
O1184 C1190 1.255 . S
O1185 Fe1175 1.976 . S
O1185 C1180 1.287 . S
O1186 Fe1172 1.996 . S
O1186 C1180 1.255 . S
C1187 O1191 1.295 . S
C1187 O1192 1.235 . S
O1188 Fe1173 1.976 . S
O1188 C1182 1.287 . S
O1189 Fe1175 1.996 . S
O1189 C1182 1.255 . S
C1190 O1183 1.287 . S
C1190 O1184 1.255 . S
O1191 Fe1173 2.002 . S
O1191 C1187 1.295 . S
O1192 Fe1175 1.997 . S
O1192 C1187 1.235 . S
C1193 O1176 1.295 . S
C1193 O1177 1.235 . S
Fe1194 O1196 1.918 . S
Fe1194 O1199 1.997 . S
Fe1194 O1200 2.002 . S
Fe1194 O1205 1.976 . S
Fe1194 O1208 1.996 . S
Fe1195 O1196 1.918 . S
Fe1195 O1203 1.997 . S
Fe1195 O1206 1.996 . S
Fe1195 O1210 1.976 . S
Fe1195 O1213 2.002 . S
O1196 Fe1194 1.918 . S
O1196 Fe1195 1.918 . S
O1196 Fe1197 1.918 . S
Fe1197 O1196 1.918 . S
Fe1197 O1198 2.002 . S
Fe1197 O1207 1.976 . S
Fe1197 O1211 1.996 . S
Fe1197 O1214 1.997 . S
O1198 Fe1197 2.002 . S
O1198 C1215 1.295 . S
O1199 Fe1194 1.997 . S
O1199 C1215 1.235 . S
O1200 Fe1194 2.002 . S
O1200 C1201 1.295 . S
C1201 O1200 1.295 . S
C1201 O1203 1.235 . S
C1202 O1207 1.287 . S
C1202 O1208 1.255 . S
O1203 Fe1195 1.997 . S
O1203 C1201 1.235 . S
C1204 O1210 1.287 . S
C1204 O1211 1.255 . S
O1205 Fe1194 1.976 . S
O1205 C1212 1.287 . S
O1206 Fe1195 1.996 . S
O1206 C1212 1.255 . S
O1207 Fe1197 1.976 . S
O1207 C1202 1.287 . S
O1208 Fe1194 1.996 . S
O1208 C1202 1.255 . S
C1209 O1213 1.295 . S
C1209 O1214 1.235 . S
O1210 Fe1195 1.976 . S
O1210 C1204 1.287 . S
O1211 Fe1197 1.996 . S
O1211 C1204 1.255 . S
C1212 O1205 1.287 . S
C1212 O1206 1.255 . S
O1213 Fe1195 2.002 . S
O1213 C1209 1.295 . S
O1214 Fe1197 1.997 . S
O1214 C1209 1.235 . S
C1215 O1198 1.295 . S
C1215 O1199 1.235 . S
C1216 C1217 1.387 . S
C1216 H1220 0.950 . S
C1216 C1225 1.390 . S
C1217 C1216 1.387 . S
C1217 C1219 1.387 . S
H1218 C1225 0.950 . S
C1219 C1217 1.387 . S
C1219 C1221 1.390 . S
C1219 H1223 0.950 . S
H1220 C1216 0.950 . S
C1221 C1219 1.390 . S
C1221 C1222 1.387 . S
C1221 H1224 0.950 . S
C1222 C1221 1.387 . S
C1222 C1225 1.387 . S
H1223 C1219 0.950 . S
H1224 C1221 0.950 . S
C1225 C1216 1.390 . S
C1225 H1218 0.950 . S
C1225 C1222 1.387 . S
C1226 C1227 1.387 . S
C1226 H1230 0.950 . S
C1226 C1235 1.390 . S
C1227 C1226 1.387 . S
C1227 C1229 1.387 . S
H1228 C1235 0.950 . S
C1229 C1227 1.387 . S
C1229 C1231 1.390 . S
C1229 H1233 0.950 . S
H1230 C1226 0.950 . S
C1231 C1229 1.390 . S
C1231 C1232 1.387 . S
C1231 H1234 0.950 . S
C1232 C1231 1.387 . S
C1232 C1235 1.387 . S
H1233 C1229 0.950 . S
H1234 C1231 0.950 . S
C1235 C1226 1.390 . S
C1235 H1228 0.950 . S
C1235 C1232 1.387 . S
C1236 C1237 1.387 . S
C1236 H1240 0.950 . S
C1236 C1245 1.390 . S
C1237 C1236 1.387 . S
C1237 C1239 1.387 . S
H1238 C1245 0.950 . S
C1239 C1237 1.387 . S
C1239 C1241 1.390 . S
C1239 H1243 0.950 . S
H1240 C1236 0.950 . S
C1241 C1239 1.390 . S
C1241 C1242 1.387 . S
C1241 H1244 0.950 . S
C1242 C1241 1.387 . S
C1242 C1245 1.387 . S
H1243 C1239 0.950 . S
H1244 C1241 0.950 . S
C1245 C1236 1.390 . S
C1245 H1238 0.950 . S
C1245 C1242 1.387 . S
C1246 C1247 1.387 . S
C1246 H1250 0.950 . S
C1246 C1255 1.390 . S
C1247 C1246 1.387 . S
C1247 C1249 1.387 . S
H1248 C1255 0.950 . S
C1249 C1247 1.387 . S
C1249 C1251 1.390 . S
C1249 H1253 0.950 . S
H1250 C1246 0.950 . S
C1251 C1249 1.390 . S
C1251 C1252 1.387 . S
C1251 H1254 0.950 1_554 S
C1252 C1251 1.387 . S
C1252 C1255 1.387 . S
H1253 C1249 0.950 . S
H1254 C1251 0.950 1_556 S
C1255 C1246 1.390 . S
C1255 H1248 0.950 . S
C1255 C1252 1.387 . S
C1256 C1257 1.387 . S
C1256 H1260 0.950 . S
C1256 C1265 1.390 . S
C1257 C1256 1.387 . S
C1257 C1259 1.387 . S
H1258 C1265 0.950 . S
C1259 C1257 1.387 . S
C1259 C1261 1.390 . S
C1259 H1263 0.950 . S
H1260 C1256 0.950 . S
C1261 C1259 1.390 . S
C1261 C1262 1.387 . S
C1261 H1264 0.950 . S
C1262 C1261 1.387 . S
C1262 C1265 1.387 . S
H1263 C1259 0.950 . S
H1264 C1261 0.950 . S
C1265 C1256 1.390 . S
C1265 H1258 0.950 . S
C1265 C1262 1.387 . S
C1266 C1267 1.387 . S
C1266 H1270 0.950 . S
C1266 C1275 1.390 . S
C1267 C1266 1.387 . S
C1267 C1269 1.387 . S
H1268 C1275 0.950 . S
C1269 C1267 1.387 . S
C1269 C1271 1.390 . S
C1269 H1273 0.950 . S
H1270 C1266 0.950 . S
C1271 C1269 1.390 . S
C1271 C1272 1.387 . S
C1271 H1274 0.950 . S
C1272 C1271 1.387 . S
C1272 C1275 1.387 . S
H1273 C1269 0.950 . S
H1274 C1271 0.950 . S
C1275 C1266 1.390 . S
C1275 H1268 0.950 . S
C1275 C1272 1.387 . S
C1276 C1277 1.387 . S
C1276 H1280 0.950 . S
C1276 C1285 1.390 . S
C1277 C1276 1.387 . S
C1277 C1279 1.387 . S
H1278 C1285 0.950 . S
C1279 C1277 1.387 . S
C1279 C1281 1.390 . S
C1279 H1283 0.950 . S
H1280 C1276 0.950 . S
C1281 C1279 1.390 . S
C1281 C1282 1.387 . S
C1281 H1284 0.950 . S
C1282 C1281 1.387 . S
C1282 C1285 1.387 . S
H1283 C1279 0.950 . S
H1284 C1281 0.950 . S
C1285 C1276 1.390 . S
C1285 H1278 0.950 . S
C1285 C1282 1.387 . S
C1286 C1287 1.387 . S
C1286 H1290 0.950 . S
C1286 C1295 1.390 1_556 S
C1287 C1286 1.387 . S
C1287 C1289 1.387 . S
H1288 C1295 0.950 . S
C1289 C1287 1.387 . S
C1289 C1291 1.390 1_556 S
C1289 H1293 0.950 . S
H1290 C1286 0.950 . S
C1291 C1289 1.390 1_554 S
C1291 C1292 1.387 . S
C1291 H1294 0.950 . S
C1292 C1291 1.387 . S
C1292 C1295 1.387 . S
H1293 C1289 0.950 . S
H1294 C1291 0.950 . S
C1295 C1286 1.390 1_554 S
C1295 H1288 0.950 . S
C1295 C1292 1.387 . S
C1296 C1297 1.387 . S
C1296 H1300 0.950 . S
C1296 C1305 1.390 . S
C1297 C1296 1.387 . S
C1297 C1299 1.387 . S
H1298 C1305 0.950 . S
C1299 C1297 1.387 . S
C1299 C1301 1.390 . S
C1299 H1303 0.950 . S
H1300 C1296 0.950 . S
C1301 C1299 1.390 . S
C1301 C1302 1.387 . S
C1301 H1304 0.950 . S
C1302 C1301 1.387 . S
C1302 C1305 1.387 . S
H1303 C1299 0.950 . S
H1304 C1301 0.950 . S
C1305 C1296 1.390 . S
C1305 H1298 0.950 . S
C1305 C1302 1.387 . S
C1306 C1307 1.387 . S
C1306 H1310 0.950 . S
C1306 C1315 1.390 . S
C1307 C1306 1.387 . S
C1307 C1309 1.387 . S
H1308 C1315 0.950 1_565 S
C1309 C1307 1.387 . S
C1309 C1311 1.390 . S
C1309 H1313 0.950 . S
H1310 C1306 0.950 . S
C1311 C1309 1.390 . S
C1311 C1312 1.395 . S
C1311 H1314 0.950 . S
C1312 C1311 1.395 . S
C1312 C1315 1.389 . S
H1313 C1309 0.950 . S
H1314 C1311 0.950 . S
C1315 C1306 1.390 . S
C1315 H1308 0.950 1_545 S
C1315 C1312 1.389 . S
C1316 C1317 1.387 . S
C1316 H1320 0.950 . S
C1316 C1325 1.390 . S
C1317 C1316 1.387 . S
C1317 C1319 1.387 . S
H1318 C1325 0.950 . S
C1319 C1317 1.387 . S
C1319 C1321 1.390 . S
C1319 H1323 0.950 . S
H1320 C1316 0.950 . S
C1321 C1319 1.390 . S
C1321 C1322 1.387 . S
C1321 H1324 0.950 . S
C1322 C1321 1.387 . S
C1322 C1325 1.387 . S
H1323 C1319 0.950 . S
H1324 C1321 0.950 . S
C1325 C1316 1.390 . S
C1325 H1318 0.950 . S
C1325 C1322 1.387 . S
C1326 C1327 1.387 . S
C1326 H1330 0.950 . S
C1326 C1335 1.390 . S
C1327 C1326 1.387 . S
C1327 C1329 1.387 . S
H1328 C1335 0.950 . S
C1329 C1327 1.387 . S
C1329 C1331 1.390 1_565 S
C1329 H1333 0.950 1_556 S
H1330 C1326 0.950 . S
C1331 C1329 1.390 1_545 S
C1331 C1332 1.387 . S
C1331 H1334 0.950 . S
C1332 C1331 1.387 . S
C1332 C1335 1.387 1_545 S
H1333 C1329 0.950 1_554 S
H1334 C1331 0.950 . S
C1335 C1326 1.390 . S
C1335 H1328 0.950 . S
C1335 C1332 1.387 1_565 S
C1336 C1337 1.387 . S
C1336 H1340 0.950 . S
C1336 C1345 1.390 . S
C1337 C1336 1.387 . S
C1337 C1339 1.387 . S
H1338 C1345 0.950 . S
C1339 C1337 1.387 . S
C1339 C1341 1.390 . S
C1339 H1343 0.950 . S
H1340 C1336 0.950 . S
C1341 C1339 1.390 . S
C1341 C1342 1.387 . S
C1341 H1344 0.950 . S
C1342 C1341 1.387 . S
C1342 C1345 1.387 . S
H1343 C1339 0.950 . S
H1344 C1341 0.950 . S
C1345 C1336 1.390 . S
C1345 H1338 0.950 . S
C1345 C1342 1.387 . S
C1346 C1347 1.387 . S
C1346 H1350 0.950 . S
C1346 C1355 1.390 . S
C1347 C1346 1.387 . S
C1347 C1349 1.387 . S
H1348 C1355 0.950 . S
C1349 C1347 1.387 . S
C1349 C1351 1.390 1_545 S
C1349 H1353 0.950 . S
H1350 C1346 0.950 . S
C1351 C1349 1.390 1_565 S
C1351 C1352 1.387 . S
C1351 H1354 0.950 . S
C1352 C1351 1.387 . S
C1352 C1355 1.387 1_565 S
H1353 C1349 0.950 . S
H1354 C1351 0.950 . S
C1355 C1346 1.390 . S
C1355 H1348 0.950 . S
C1355 C1352 1.387 1_545 S
C1356 C1357 1.387 . S
C1356 H1360 0.950 . S
C1356 C1365 1.390 . S
C1357 C1356 1.387 . S
C1357 C1359 1.387 . S
H1358 C1365 0.950 . S
C1359 C1357 1.387 . S
C1359 C1361 1.390 . S
C1359 H1363 0.950 . S
H1360 C1356 0.950 . S
C1361 C1359 1.390 . S
C1361 C1362 1.387 . S
C1361 H1364 0.950 . S
C1362 C1361 1.387 . S
C1362 C1365 1.387 . S
H1363 C1359 0.950 . S
H1364 C1361 0.950 . S
C1365 C1356 1.390 . S
C1365 H1358 0.950 . S
C1365 C1362 1.387 . S
C1366 C1367 1.387 . S
C1366 H1370 0.950 . S
C1366 C1375 1.390 . S
C1367 C1366 1.387 . S
C1367 C1369 1.387 . S
H1368 C1375 0.950 . S
C1369 C1367 1.387 . S
C1369 C1371 1.390 1_565 S
C1369 H1373 0.950 . S
H1370 C1366 0.950 . S
C1371 C1369 1.390 1_545 S
C1371 C1372 1.387 . S
C1371 H1374 0.950 . S
C1372 C1371 1.387 . S
C1372 C1375 1.387 1_545 S
H1373 C1369 0.950 . S
H1374 C1371 0.950 . S
C1375 C1366 1.390 . S
C1375 H1368 0.950 . S
C1375 C1372 1.387 1_565 S
C1376 C1377 1.387 . S
C1376 H1380 0.950 . S
C1376 C1385 1.390 . S
C1377 C1376 1.387 . S
C1377 C1379 1.387 . S
H1378 C1385 0.950 . S
C1379 C1377 1.387 . S
C1379 C1381 1.390 . S
C1379 H1383 0.950 . S
H1380 C1376 0.950 . S
C1381 C1379 1.390 . S
C1381 C1382 1.387 . S
C1381 H1384 0.950 . S
C1382 C1381 1.387 . S
C1382 C1385 1.387 . S
H1383 C1379 0.950 . S
H1384 C1381 0.950 . S
C1385 C1376 1.390 . S
C1385 H1378 0.950 . S
C1385 C1382 1.387 . S
C1386 C1387 1.387 . S
C1386 H1390 0.950 . S
C1386 C1395 1.390 . S
C1387 C1386 1.387 . S
C1387 C1389 1.387 . S
H1388 C1395 0.950 . S
C1389 C1387 1.387 . S
C1389 C1391 1.390 . S
C1389 H1393 0.950 . S
H1390 C1386 0.950 . S
C1391 C1389 1.390 . S
C1391 C1392 1.387 . S
C1391 H1394 0.950 . S
C1392 C1391 1.387 . S
C1392 C1395 1.387 . S
H1393 C1389 0.950 . S
H1394 C1391 0.950 . S
C1395 C1386 1.390 . S
C1395 H1388 0.950 . S
C1395 C1392 1.387 . S
C1396 C1397 1.387 . S
C1396 H1400 0.950 . S
C1396 C1405 1.390 . S
C1397 C1396 1.387 . S
C1397 C1399 1.387 . S
H1398 C1405 0.949 . S
C1399 C1397 1.387 . S
C1399 C1401 1.390 . S
C1399 H1403 0.950 . S
H1400 C1396 0.950 . S
C1401 C1399 1.390 . S
C1401 C1402 1.387 1_455 S
C1401 H1404 0.950 . S
C1402 C1401 1.387 1_655 S
C1402 C1405 1.387 1_655 S
H1403 C1399 0.950 . S
H1404 C1401 0.950 . S
C1405 C1396 1.390 . S
C1405 H1398 0.949 . S
C1405 C1402 1.387 1_455 S
C1406 C1407 1.387 . S
C1406 H1410 0.950 . S
C1406 C1415 1.390 . S
C1407 C1406 1.387 . S
C1407 C1409 1.387 . S
H1408 C1415 0.950 . S
C1409 C1407 1.387 . S
C1409 C1411 1.390 . S
C1409 H1413 0.950 . S
H1410 C1406 0.950 . S
C1411 C1409 1.390 . S
C1411 C1412 1.387 . S
C1411 H1414 0.950 . S
C1412 C1411 1.387 . S
C1412 C1415 1.387 . S
H1413 C1409 0.950 . S
H1414 C1411 0.950 . S
C1415 C1406 1.390 . S
C1415 H1408 0.950 . S
C1415 C1412 1.387 . S
C1416 C1417 1.387 . S
C1416 H1420 0.950 . S
C1416 C1425 1.390 . S
C1417 C1416 1.387 . S
C1417 C1419 1.387 . S
H1418 C1425 0.948 1_455 S
C1419 C1417 1.387 . S
C1419 C1421 1.390 1_655 S
C1419 H1423 0.950 . S
H1420 C1416 0.950 . S
C1421 C1419 1.390 1_455 S
C1421 C1422 1.387 . S
C1421 H1424 0.950 . S
C1422 C1421 1.387 . S
C1422 C1425 1.387 1_455 S
H1423 C1419 0.950 . S
H1424 C1421 0.950 . S
C1425 C1416 1.390 . S
C1425 H1418 0.948 1_655 S
C1425 C1422 1.387 1_655 S
C1426 C1427 1.387 . S
C1426 H1430 0.950 . S
C1426 C1435 1.390 . S
C1427 C1426 1.387 . S
C1427 C1429 1.387 . S
H1428 C1435 0.950 . S
C1429 C1427 1.387 . S
C1429 C1431 1.390 . S
C1429 H1433 0.950 . S
H1430 C1426 0.950 . S
C1431 C1429 1.390 . S
C1431 C1432 1.387 . S
C1431 H1434 0.950 . S
C1432 C1431 1.387 . S
C1432 C1435 1.387 . S
H1433 C1429 0.950 . S
H1434 C1431 0.950 . S
C1435 C1426 1.390 . S
C1435 H1428 0.950 . S
C1435 C1432 1.387 . S
C1436 C1437 1.387 . S
C1436 H1440 0.950 . S
C1436 C1445 1.390 1_455 S
C1437 C1436 1.387 . S
C1437 C1439 1.387 . S
H1438 C1445 0.950 . S
C1439 C1437 1.387 . S
C1439 C1441 1.390 . S
C1439 H1443 0.950 . S
H1440 C1436 0.950 . S
C1441 C1439 1.390 . S
C1441 C1442 1.387 1_455 S
C1441 H1444 0.950 . S
C1442 C1441 1.387 1_655 S
C1442 C1445 1.387 . S
H1443 C1439 0.950 . S
H1444 C1441 0.950 . S
C1445 C1436 1.390 1_655 S
C1445 H1438 0.950 . S
C1445 C1442 1.387 . S
C1446 C1447 1.387 . S
C1446 H1450 0.950 . S
C1446 C1455 1.390 . S
C1447 C1446 1.387 . S
C1447 C1449 1.387 . S
H1448 C1455 0.950 . S
C1449 C1447 1.387 . S
C1449 C1451 1.390 . S
C1449 H1453 0.950 . S
H1450 C1446 0.950 . S
C1451 C1449 1.390 . S
C1451 C1452 1.387 . S
C1451 H1454 0.950 . S
C1452 C1451 1.387 . S
C1452 C1455 1.387 . S
H1453 C1449 0.950 . S
H1454 C1451 0.950 . S
C1455 C1446 1.390 . S
C1455 H1448 0.950 . S
C1455 C1452 1.387 . S
C1456 C1457 1.387 . S
C1456 H1460 0.950 . S
C1456 C1465 1.390 . S
C1457 C1456 1.387 . S
C1457 C1459 1.387 . S
H1458 C1465 0.950 . S
C1459 C1457 1.387 . S
C1459 C1461 1.390 . S
C1459 H1463 0.950 . S
H1460 C1456 0.950 . S
C1461 C1459 1.390 . S
C1461 C1462 1.387 . S
C1461 H1464 0.950 . S
C1462 C1461 1.387 . S
C1462 C1465 1.387 . S
H1463 C1459 0.950 . S
H1464 C1461 0.950 . S
C1465 C1456 1.390 . S
C1465 H1458 0.950 . S
C1465 C1462 1.387 . S
C1466 C1467 1.387 . S
C1466 H1470 0.950 . S
C1466 C1475 1.390 . S
C1467 C1466 1.387 . S
C1467 C1469 1.387 . S
H1468 C1475 0.950 . S
C1469 C1467 1.387 . S
C1469 C1471 1.390 . S
C1469 H1473 0.950 . S
H1470 C1466 0.950 . S
C1471 C1469 1.390 . S
C1471 C1472 1.387 . S
C1471 H1474 0.950 . S
C1472 C1471 1.387 . S
C1472 C1475 1.387 . S
H1473 C1469 0.950 . S
H1474 C1471 0.950 . S
C1475 C1466 1.390 . S
C1475 H1468 0.950 . S
C1475 C1472 1.387 . S
C1476 C1477 1.387 . S
C1476 H1480 0.950 . S
C1476 C1485 1.390 . S
C1477 C1476 1.387 . S
C1477 C1479 1.387 . S
H1478 C1485 0.950 . S
C1479 C1477 1.387 . S
C1479 C1481 1.390 . S
C1479 H1483 0.950 . S
H1480 C1476 0.950 . S
C1481 C1479 1.390 . S
C1481 C1482 1.387 . S
C1481 H1484 0.950 . S
C1482 C1481 1.387 . S
C1482 C1485 1.387 . S
H1483 C1479 0.950 . S
H1484 C1481 0.950 . S
C1485 C1476 1.390 . S
C1485 H1478 0.950 . S
C1485 C1482 1.387 . S
C1486 C1487 1.387 . S
C1486 H1490 0.950 . S
C1486 C1495 1.390 . S
C1487 C1486 1.387 . S
C1487 C1489 1.387 . S
H1488 C1495 0.950 . S
C1489 C1487 1.387 . S
C1489 C1491 1.390 1_556 S
C1489 H1493 0.950 . S
H1490 C1486 0.950 . S
C1491 C1489 1.390 1_554 S
C1491 C1492 1.387 . S
C1491 H1494 0.950 . S
C1492 C1491 1.387 . S
C1492 C1495 1.387 1_554 S
H1493 C1489 0.950 . S
H1494 C1491 0.950 . S
C1495 C1486 1.390 . S
C1495 H1488 0.950 . S
C1495 C1492 1.387 1_556 S
C1496 C1497 1.387 . S
C1496 H1500 0.950 . S
C1496 C1505 1.390 . S
C1497 C1496 1.387 . S
C1497 C1499 1.387 . S
H1498 C1505 0.950 . S
C1499 C1497 1.387 . S
C1499 C1501 1.390 . S
C1499 H1503 0.953 . S
H1500 C1496 0.950 . S
C1501 C1499 1.390 . S
C1501 C1502 1.387 . S
C1501 H1504 0.950 . S
C1502 C1501 1.387 . S
C1502 C1505 1.387 . S
H1503 C1499 0.953 . S
H1504 C1501 0.950 . S
C1505 C1496 1.390 . S
C1505 H1498 0.950 . S
C1505 C1502 1.387 . S
C1506 C1507 1.387 . S
C1506 H1510 0.950 . S
C1506 C1515 1.390 . S
C1507 C1506 1.387 . S
C1507 C1509 1.387 . S
H1508 C1515 0.950 . S
C1509 C1507 1.387 . S
C1509 C1511 1.390 . S
C1509 H1513 0.950 . S
H1510 C1506 0.950 . S
C1511 C1509 1.390 . S
C1511 C1512 1.387 . S
C1511 H1514 0.950 . S
C1512 C1511 1.387 . S
C1512 C1515 1.387 . S
H1513 C1509 0.950 . S
H1514 C1511 0.950 . S
C1515 C1506 1.390 . S
C1515 H1508 0.950 . S
C1515 C1512 1.387 . S
C1516 C1517 1.387 . S
C1516 H1520 0.950 . S
C1516 C1525 1.390 . S
C1517 C1516 1.387 . S
C1517 C1519 1.387 . S
H1518 C1525 0.950 . S
C1519 C1517 1.387 . S
C1519 C1521 1.390 . S
C1519 H1523 0.950 . S
H1520 C1516 0.950 . S
C1521 C1519 1.390 . S
C1521 C1522 1.387 . S
C1521 H1524 0.950 . S
C1522 C1521 1.387 . S
C1522 C1525 1.387 . S
H1523 C1519 0.950 . S
H1524 C1521 0.950 . S
C1525 C1516 1.390 . S
C1525 H1518 0.950 . S
C1525 C1522 1.387 . S
C1526 C1527 1.387 . S
C1526 H1530 0.950 . S
C1526 C1535 1.390 1_554 S
C1527 C1526 1.387 . S
C1527 C1529 1.387 . S
H1528 C1535 0.950 . S
C1529 C1527 1.387 . S
C1529 C1531 1.390 . S
C1529 H1533 0.950 . S
H1530 C1526 0.950 . S
C1531 C1529 1.390 . S
C1531 C1532 1.387 1_554 S
C1531 H1534 0.950 . S
C1532 C1531 1.387 1_556 S
C1532 C1535 1.387 . S
H1533 C1529 0.950 . S
H1534 C1531 0.950 . S
C1535 C1526 1.390 1_556 S
C1535 H1528 0.950 . S
C1535 C1532 1.387 . S
C1536 C1537 1.387 . S
C1536 H1540 0.950 . S
C1536 C1545 1.390 . S
C1537 C1536 1.387 . S
C1537 C1539 1.387 . S
H1538 C1545 0.950 . S
C1539 C1537 1.387 . S
C1539 C1541 1.390 . S
C1539 H1543 0.950 . S
H1540 C1536 0.950 . S
C1541 C1539 1.390 . S
C1541 C1542 1.387 . S
C1541 H1544 0.950 . S
C1542 C1541 1.387 . S
C1542 C1545 1.387 . S
H1543 C1539 0.950 . S
H1544 C1541 0.950 . S
C1545 C1536 1.390 . S
C1545 H1538 0.950 . S
C1545 C1542 1.387 . S
C1546 C1547 1.387 . S
C1546 H1550 0.950 . S
C1546 C1555 1.390 . S
C1547 C1546 1.387 . S
C1547 C1549 1.387 . S
H1548 C1555 0.950 . S
C1549 C1547 1.387 . S
C1549 C1551 1.390 1_565 S
C1549 H1553 0.950 . S
H1550 C1546 0.950 . S
C1551 C1549 1.390 1_545 S
C1551 C1552 1.387 . S
C1551 H1554 0.950 . S
C1552 C1551 1.387 . S
C1552 C1555 1.387 1_545 S
H1553 C1549 0.950 . S
H1554 C1551 0.950 . S
C1555 C1546 1.390 . S
C1555 H1548 0.950 . S
C1555 C1552 1.387 1_565 S
C1556 C1557 1.387 . S
C1556 H1560 0.950 . S
C1556 C1565 1.390 . S
C1557 C1556 1.387 . S
C1557 C1559 1.387 . S
H1558 C1565 0.950 . S
C1559 C1557 1.387 . S
C1559 C1561 1.390 . S
C1559 H1563 0.950 . S
H1560 C1556 0.950 . S
C1561 C1559 1.390 . S
C1561 C1562 1.387 . S
C1561 H1564 0.950 . S
C1562 C1561 1.387 . S
C1562 C1565 1.387 . S
H1563 C1559 0.950 . S
H1564 C1561 0.950 . S
C1565 C1556 1.390 . S
C1565 H1558 0.950 . S
C1565 C1562 1.387 . S
C1566 C1567 1.387 . S
C1566 H1570 0.950 . S
C1566 C1575 1.390 1_545 S
C1567 C1566 1.387 . S
C1567 C1569 1.387 . S
H1568 C1575 0.950 . S
C1569 C1567 1.387 . S
C1569 C1571 1.390 . S
C1569 H1573 0.950 . S
H1570 C1566 0.950 . S
C1571 C1569 1.390 . S
C1571 C1572 1.387 1_545 S
C1571 H1574 0.950 . S
C1572 C1571 1.387 1_565 S
C1572 C1575 1.387 . S
H1573 C1569 0.950 . S
H1574 C1571 0.950 . S
C1575 C1566 1.390 1_565 S
C1575 H1568 0.950 . S
C1575 C1572 1.387 . S
C1576 C1577 1.387 . S
C1576 H1580 0.950 . S
C1576 C1585 1.390 . S
C1577 C1576 1.387 . S
C1577 C1579 1.387 . S
H1578 C1585 0.950 . S
C1579 C1577 1.387 . S
C1579 C1581 1.390 . S
C1579 H1583 0.950 . S
H1580 C1576 0.950 . S
C1581 C1579 1.390 . S
C1581 C1582 1.387 . S
C1581 H1584 0.950 . S
C1582 C1581 1.387 . S
C1582 C1585 1.387 . S
H1583 C1579 0.950 . S
H1584 C1581 0.950 . S
C1585 C1576 1.390 . S
C1585 H1578 0.950 . S
C1585 C1582 1.387 . S
C1586 C1587 1.387 . S
C1586 H1590 0.950 . S
C1586 C1595 1.390 . S
C1587 C1586 1.387 . S
C1587 C1589 1.387 . S
H1588 C1595 0.950 1_545 S
C1589 C1587 1.387 . S
C1589 C1591 1.390 1_565 S
C1589 H1593 0.950 . S
H1590 C1586 0.950 . S
C1591 C1589 1.390 1_545 S
C1591 C1592 1.387 . S
C1591 H1594 0.950 . S
C1592 C1591 1.387 . S
C1592 C1595 1.387 1_545 S
H1593 C1589 0.950 . S
H1594 C1591 0.950 . S
C1595 C1586 1.390 . S
C1595 H1588 0.950 1_565 S
C1595 C1592 1.387 1_565 S
C1596 C1597 1.387 . S
C1596 H1600 0.950 . S
C1596 C1605 1.390 . S
C1597 C1596 1.387 . S
C1597 C1599 1.387 . S
H1598 C1605 0.950 . S
C1599 C1597 1.387 . S
C1599 C1601 1.390 . S
C1599 H1603 0.950 . S
H1600 C1596 0.950 . S
C1601 C1599 1.390 . S
C1601 C1602 1.387 . S
C1601 H1604 0.950 . S
C1602 C1601 1.387 . S
C1602 C1605 1.387 . S
H1603 C1599 0.950 . S
H1604 C1601 0.950 . S
C1605 C1596 1.390 . S
C1605 H1598 0.950 . S
C1605 C1602 1.387 . S
C1606 C1607 1.387 . S
C1606 H1610 0.950 . S
C1606 C1615 1.390 . S
C1607 C1606 1.387 . S
C1607 C1609 1.387 . S
H1608 C1615 0.950 . S
C1609 C1607 1.387 . S
C1609 C1611 1.390 . S
C1609 H1613 0.950 . S
H1610 C1606 0.950 . S
C1611 C1609 1.390 . S
C1611 C1612 1.387 1_545 S
C1611 H1614 0.950 1_545 S
C1612 C1611 1.387 1_565 S
C1612 C1615 1.387 1_565 S
H1613 C1609 0.950 . S
H1614 C1611 0.950 1_565 S
C1615 C1606 1.390 . S
C1615 H1608 0.950 . S
C1615 C1612 1.387 1_545 S
C1616 C1617 1.387 . S
C1616 H1620 0.950 . S
C1616 C1625 1.390 . S
C1617 C1616 1.387 . S
C1617 C1619 1.387 . S
H1618 C1625 0.950 . S
C1619 C1617 1.387 . S
C1619 C1621 1.390 . S
C1619 H1623 0.977 . S
H1620 C1616 0.950 . S
C1621 C1619 1.390 . S
C1621 C1622 1.387 . S
C1621 H1624 0.950 . S
C1622 C1621 1.387 . S
C1622 C1625 1.387 . S
H1623 C1619 0.977 . S
H1624 C1621 0.950 . S
C1625 C1616 1.390 . S
C1625 H1618 0.950 . S
C1625 C1622 1.387 . S
C1626 C1627 1.387 . S
C1626 H1630 0.950 . S
C1626 C1635 1.390 . S
C1627 C1626 1.387 . S
C1627 C1629 1.387 . S
H1628 C1635 0.950 . S
C1629 C1627 1.387 . S
C1629 C1631 1.390 . S
C1629 H1633 0.950 . S
H1630 C1626 0.950 . S
C1631 C1629 1.390 . S
C1631 C1632 1.387 . S
C1631 H1634 0.950 . S
C1632 C1631 1.387 . S
C1632 C1635 1.387 . S
H1633 C1629 0.950 . S
H1634 C1631 0.950 . S
C1635 C1626 1.390 . S
C1635 H1628 0.950 . S
C1635 C1632 1.387 . S
C1636 C1637 1.387 . S
C1636 H1640 0.950 . S
C1636 C1645 1.390 . S
C1637 C1636 1.387 . S
C1637 C1639 1.387 . S
H1638 C1645 0.950 1_455 S
C1639 C1637 1.387 . S
C1639 C1641 1.395 . S
C1639 H1643 0.950 . S
H1640 C1636 0.950 . S
C1641 C1639 1.395 . S
C1641 C1642 1.386 1_655 S
C1641 H1644 0.947 1_655 S
C1642 C1641 1.386 1_455 S
C1642 C1645 1.387 1_455 S
H1643 C1639 0.950 . S
H1644 C1641 0.947 1_455 S
C1645 C1636 1.390 . S
C1645 H1638 0.950 1_655 S
C1645 C1642 1.387 1_655 S
C1646 C1647 1.387 . S
C1646 H1650 0.950 . S
C1646 C1655 1.390 . S
C1647 C1646 1.387 . S
C1647 C1649 1.387 . S
H1648 C1655 0.950 . S
C1649 C1647 1.387 . S
C1649 C1651 1.390 . S
C1649 H1653 0.950 . S
H1650 C1646 0.950 . S
C1651 C1649 1.390 . S
C1651 C1652 1.387 . S
C1651 H1654 0.950 . S
C1652 C1651 1.387 . S
C1652 C1655 1.387 . S
H1653 C1649 0.950 . S
H1654 C1651 0.950 . S
C1655 C1646 1.390 . S
C1655 H1648 0.950 . S
C1655 C1652 1.387 . S
C1656 C1657 1.387 . S
C1656 H1660 0.950 . S
C1656 C1665 1.390 . S
C1657 C1656 1.387 . S
C1657 C1659 1.387 . S
H1658 C1665 0.950 1_655 S
C1659 C1657 1.387 . S
C1659 C1661 1.390 . S
C1659 H1663 0.950 . S
H1660 C1656 0.950 . S
C1661 C1659 1.390 . S
C1661 C1662 1.387 1_455 S
C1661 H1664 0.950 . S
C1662 C1661 1.387 1_655 S
C1662 C1665 1.387 1_655 S
H1663 C1659 0.950 . S
H1664 C1661 0.950 . S
C1665 C1656 1.390 . S
C1665 H1658 0.950 1_455 S
C1665 C1662 1.387 1_455 S
C1666 C1667 1.387 . S
C1666 H1670 0.950 . S
C1666 C1675 1.390 . S
C1667 C1666 1.387 . S
C1667 C1669 1.387 . S
H1668 C1675 0.950 . S
C1669 C1667 1.387 . S
C1669 C1671 1.390 . S
C1669 H1673 0.950 . S
H1670 C1666 0.950 . S
C1671 C1669 1.390 . S
C1671 C1672 1.387 . S
C1671 H1674 0.950 . S
C1672 C1671 1.387 . S
C1672 C1675 1.387 . S
H1673 C1669 0.950 . S
H1674 C1671 0.950 . S
C1675 C1666 1.390 . S
C1675 H1668 0.950 . S
C1675 C1672 1.387 . S
C1676 C1677 1.387 . S
C1676 H1680 0.950 . S
C1676 C1685 1.390 1_655 S
C1677 C1676 1.387 . S
C1677 C1679 1.387 . S
H1678 C1685 0.950 . S
C1679 C1677 1.387 . S
C1679 C1681 1.390 . S
C1679 H1683 0.950 . S
H1680 C1676 0.950 . S
C1681 C1679 1.390 . S
C1681 C1682 1.387 1_655 S
C1681 H1684 0.950 . S
C1682 C1681 1.387 1_455 S
C1682 C1685 1.387 . S
H1683 C1679 0.950 . S
H1684 C1681 0.950 . S
C1685 C1676 1.390 1_455 S
C1685 H1678 0.950 . S
C1685 C1682 1.387 . S
C1686 C1687 1.387 . S
C1686 H1690 0.950 . S
C1686 C1695 1.390 . S
C1687 C1686 1.387 . S
C1687 C1689 1.387 . S
H1688 C1695 0.950 . S
C1689 C1687 1.387 . S
C1689 C1691 1.390 . S
C1689 H1693 0.950 . S
H1690 C1686 0.950 . S
C1691 C1689 1.390 . S
C1691 C1692 1.387 . S
C1691 H1694 0.950 . S
C1692 C1691 1.387 . S
C1692 C1695 1.387 . S
H1693 C1689 0.950 . S
H1694 C1691 0.950 . S
C1695 C1686 1.390 . S
C1695 H1688 0.950 . S
C1695 C1692 1.387 . S
C1696 C1697 1.387 . S
C1696 H1700 0.950 . S
C1696 C1705 1.390 . S
C1697 C1696 1.387 . S
C1697 C1699 1.387 . S
H1698 C1705 0.950 . S
C1699 C1697 1.387 . S
C1699 C1701 1.390 . S
C1699 H1703 0.950 . S
H1700 C1696 0.950 . S
C1701 C1699 1.390 . S
C1701 C1702 1.387 . S
C1701 H1704 0.950 . S
C1702 C1701 1.387 . S
C1702 C1705 1.387 . S
H1703 C1699 0.950 . S
H1704 C1701 0.950 . S
C1705 C1696 1.390 . S
C1705 H1698 0.950 . S
C1705 C1702 1.387 . S
C1706 C1707 1.387 . S
C1706 H1710 0.950 . S
C1706 C1715 1.390 . S
C1707 C1706 1.387 . S
C1707 C1709 1.387 . S
H1708 C1715 0.950 . S
C1709 C1707 1.387 . S
C1709 C1711 1.390 1_554 S
C1709 H1713 0.950 . S
H1710 C1706 0.950 . S
C1711 C1709 1.390 1_556 S
C1711 C1712 1.387 . S
C1711 H1714 0.950 . S
C1712 C1711 1.387 . S
C1712 C1715 1.387 1_556 S
H1713 C1709 0.950 . S
H1714 C1711 0.950 . S
C1715 C1706 1.390 . S
C1715 H1708 0.950 . S
C1715 C1712 1.387 1_554 S
C1716 C1717 1.387 . S
C1716 H1720 0.950 . S
C1716 C1725 1.390 . S
C1717 C1716 1.387 . S
C1717 C1719 1.387 . S
H1718 C1725 0.950 . S
C1719 C1717 1.387 . S
C1719 C1721 1.390 . S
C1719 H1723 0.950 . S
H1720 C1716 0.950 . S
C1721 C1719 1.390 . S
C1721 C1722 1.387 . S
C1721 H1724 0.950 . S
C1722 C1721 1.387 . S
C1722 C1725 1.387 . S
H1723 C1719 0.950 . S
H1724 C1721 0.950 . S
C1725 C1716 1.390 . S
C1725 H1718 0.950 . S
C1725 C1722 1.387 . S
C1726 C1727 1.387 . S
C1726 H1730 0.950 . S
C1726 C1735 1.390 . S
C1727 C1726 1.387 . S
C1727 C1729 1.387 . S
H1728 C1735 0.950 . S
C1729 C1727 1.387 . S
C1729 C1731 1.390 . S
C1729 H1733 0.950 . S
H1730 C1726 0.950 . S
C1731 C1729 1.390 . S
C1731 C1732 1.387 . S
C1731 H1734 0.950 . S
C1732 C1731 1.387 . S
C1732 C1735 1.387 . S
H1733 C1729 0.950 . S
H1734 C1731 0.950 . S
C1735 C1726 1.390 . S
C1735 H1728 0.950 . S
C1735 C1732 1.387 . S
C1736 C1737 1.387 . S
C1736 H1740 0.950 . S
C1736 C1745 1.390 . S
C1737 C1736 1.387 . S
C1737 C1739 1.387 . S
H1738 C1745 0.950 . S
C1739 C1737 1.387 . S
C1739 C1741 1.390 . S
C1739 H1743 0.950 . S
H1740 C1736 0.950 . S
C1741 C1739 1.390 . S
C1741 C1742 1.387 . S
C1741 H1744 0.950 . S
C1742 C1741 1.387 . S
C1742 C1745 1.387 . S
H1743 C1739 0.950 . S
H1744 C1741 0.950 . S
C1745 C1736 1.390 . S
C1745 H1738 0.950 . S
C1745 C1742 1.387 . S
C1746 C1747 1.387 . S
C1746 H1750 0.950 . S
C1746 C1755 1.390 . S
C1747 C1746 1.387 . S
C1747 C1749 1.387 . S
H1748 C1755 0.952 . S
C1749 C1747 1.387 . S
C1749 C1751 1.390 1_556 S
C1749 H1753 0.950 . S
H1750 C1746 0.950 . S
C1751 C1749 1.390 1_554 S
C1751 C1752 1.387 . S
C1751 H1754 0.950 . S
C1752 C1751 1.387 . S
C1752 C1755 1.387 1_554 S
H1753 C1749 0.950 . S
H1754 C1751 0.950 . S
C1755 C1746 1.390 . S
C1755 H1748 0.952 . S
C1755 C1752 1.387 1_556 S
C1756 C1757 1.387 . S
C1756 H1760 0.950 . S
C1756 C1765 1.390 . S
C1757 C1756 1.387 . S
C1757 C1759 1.387 . S
H1758 C1765 0.950 . S
C1759 C1757 1.387 . S
C1759 C1761 1.390 . S
C1759 H1763 0.950 . S
H1760 C1756 0.950 . S
C1761 C1759 1.390 . S
C1761 C1762 1.387 . S
C1761 H1764 0.950 . S
C1762 C1761 1.387 . S
C1762 C1765 1.387 . S
H1763 C1759 0.950 . S
H1764 C1761 0.950 . S
C1765 C1756 1.390 . S
C1765 H1758 0.950 . S
C1765 C1762 1.387 . S
C1766 C1767 1.387 . S
C1766 H1770 0.950 . S
C1766 C1775 1.390 . S
C1767 C1766 1.387 . S
C1767 C1769 1.387 . S
H1768 C1775 0.950 . S
C1769 C1767 1.387 . S
C1769 C1771 1.390 . S
C1769 H1773 0.950 . S
H1770 C1766 0.950 . S
C1771 C1769 1.390 . S
C1771 C1772 1.387 . S
C1771 H1774 0.950 . S
C1772 C1771 1.387 . S
C1772 C1775 1.387 . S
H1773 C1769 0.950 . S
H1774 C1771 0.950 . S
C1775 C1766 1.390 . S
C1775 H1768 0.950 . S
C1775 C1772 1.387 . S
C1776 C1777 1.387 . S
C1776 H1780 0.950 . S
C1776 C1785 1.390 . S
C1777 C1776 1.387 . S
C1777 C1779 1.387 . S
H1778 C1785 0.950 . S
C1779 C1777 1.387 . S
C1779 C1781 1.390 . S
C1779 H1783 0.950 . S
H1780 C1776 0.950 . S
C1781 C1779 1.390 . S
C1781 C1782 1.387 . S
C1781 H1784 0.950 . S
C1782 C1781 1.387 . S
C1782 C1785 1.387 . S
H1783 C1779 0.950 . S
H1784 C1781 0.950 . S
C1785 C1776 1.390 . S
C1785 H1778 0.950 . S
C1785 C1782 1.387 . S
C1786 C1787 1.387 . S
C1786 H1790 0.950 1_556 S
C1786 C1795 1.390 . S
C1787 C1786 1.387 . S
C1787 C1789 1.387 . S
H1788 C1795 0.950 . S
C1789 C1787 1.387 . S
C1789 C1791 1.390 . S
C1789 H1793 0.950 . S
H1790 C1786 0.950 1_554 S
C1791 C1789 1.390 . S
C1791 C1792 1.387 . S
C1791 H1794 0.950 . S
C1792 C1791 1.387 . S
C1792 C1795 1.387 . S
H1793 C1789 0.950 . S
H1794 C1791 0.950 . S
C1795 C1786 1.390 . S
C1795 H1788 0.950 . S
C1795 C1792 1.387 . S
C1796 C1797 1.387 . S
C1796 H1800 0.950 . S
C1796 C1805 1.390 . S
C1797 C1796 1.387 . S
C1797 C1799 1.387 . S
H1798 C1805 0.950 . S
C1799 C1797 1.387 . S
C1799 C1801 1.390 . S
C1799 H1803 0.950 . S
H1800 C1796 0.950 . S
C1801 C1799 1.390 . S
C1801 C1802 1.387 . S
C1801 H1804 0.950 . S
C1802 C1801 1.387 . S
C1802 C1805 1.387 . S
H1803 C1799 0.950 . S
H1804 C1801 0.950 . S
C1805 C1796 1.390 . S
C1805 H1798 0.950 . S
C1805 C1802 1.387 . S
C1806 C1807 1.387 . S
C1806 H1810 0.950 . S
C1806 C1815 1.390 . S
C1807 C1806 1.387 . S
C1807 C1809 1.387 . S
H1808 C1815 0.950 . S
C1809 C1807 1.387 . S
C1809 C1811 1.390 . S
C1809 H1813 0.950 . S
H1810 C1806 0.950 . S
C1811 C1809 1.390 . S
C1811 C1812 1.387 . S
C1811 H1814 0.950 . S
C1812 C1811 1.387 . S
C1812 C1815 1.387 . S
H1813 C1809 0.950 . S
H1814 C1811 0.950 . S
C1815 C1806 1.390 . S
C1815 H1808 0.950 . S
C1815 C1812 1.387 . S
C1816 C1817 1.387 . S
C1816 H1820 0.950 . S
C1816 C1825 1.390 . S
C1817 C1816 1.387 . S
C1817 C1819 1.387 . S
H1818 C1825 0.950 . S
C1819 C1817 1.387 . S
C1819 C1821 1.390 . S
C1819 H1823 0.950 . S
H1820 C1816 0.950 . S
C1821 C1819 1.390 . S
C1821 C1822 1.387 . S
C1821 H1824 0.950 . S
C1822 C1821 1.387 . S
C1822 C1825 1.387 . S
H1823 C1819 0.950 . S
H1824 C1821 0.950 . S
C1825 C1816 1.390 . S
C1825 H1818 0.950 . S
C1825 C1822 1.387 . S
C1826 C1827 1.387 . S
C1826 H1830 0.950 . S
C1826 C1835 1.390 . S
C1827 C1826 1.387 . S
C1827 C1829 1.387 . S
H1828 C1835 0.950 . S
C1829 C1827 1.387 . S
C1829 C1831 1.390 . S
C1829 H1833 0.950 . S
H1830 C1826 0.950 . S
C1831 C1829 1.390 . S
C1831 C1832 1.387 . S
C1831 H1834 0.950 . S
C1832 C1831 1.387 . S
C1832 C1835 1.387 . S
H1833 C1829 0.950 . S
H1834 C1831 0.950 . S
C1835 C1826 1.390 . S
C1835 H1828 0.950 . S
C1835 C1832 1.387 . S
C1836 C1837 1.387 . S
C1836 H1840 0.950 . S
C1836 C1845 1.390 . S
C1837 C1836 1.387 . S
C1837 C1839 1.387 . S
H1838 C1845 0.950 . S
C1839 C1837 1.387 . S
C1839 C1841 1.390 . S
C1839 H1843 0.950 . S
H1840 C1836 0.950 . S
C1841 C1839 1.390 . S
C1841 C1842 1.387 . S
C1841 H1844 0.950 . S
C1842 C1841 1.387 . S
C1842 C1845 1.387 . S
H1843 C1839 0.950 . S
H1844 C1841 0.950 . S
C1845 C1836 1.390 . S
C1845 H1838 0.950 . S
C1845 C1842 1.387 . S
C1846 C1847 1.387 . S
C1846 H1850 0.950 . S
C1846 C1855 1.390 . S
C1847 C1846 1.387 . S
C1847 C1849 1.387 . S
H1848 C1855 0.950 . S
C1849 C1847 1.387 . S
C1849 C1851 1.390 . S
C1849 H1853 0.950 . S
H1850 C1846 0.950 . S
C1851 C1849 1.390 . S
C1851 C1852 1.387 . S
C1851 H1854 0.950 . S
C1852 C1851 1.387 . S
C1852 C1855 1.387 . S
H1853 C1849 0.950 . S
H1854 C1851 0.950 . S
C1855 C1846 1.390 . S
C1855 H1848 0.950 . S
C1855 C1852 1.387 . S
C1856 C1857 1.387 . S
C1856 H1860 0.950 . S
C1856 C1865 1.390 . S
C1857 C1856 1.387 . S
C1857 C1859 1.387 . S
H1858 C1865 0.950 . S
C1859 C1857 1.387 . S
C1859 C1861 1.390 . S
C1859 H1863 0.950 . S
H1860 C1856 0.950 . S
C1861 C1859 1.390 . S
C1861 C1862 1.387 . S
C1861 H1864 0.950 . S
C1862 C1861 1.387 . S
C1862 C1865 1.387 . S
H1863 C1859 0.950 . S
H1864 C1861 0.950 . S
C1865 C1856 1.390 . S
C1865 H1858 0.950 . S
C1865 C1862 1.387 . S
C1866 C1867 1.387 . S
C1866 H1870 0.950 . S
C1866 C1875 1.390 . S
C1867 C1866 1.387 . S
C1867 C1869 1.387 . S
H1868 C1875 0.950 . S
C1869 C1867 1.387 . S
C1869 C1871 1.390 . S
C1869 H1873 0.950 . S
H1870 C1866 0.950 . S
C1871 C1869 1.390 . S
C1871 C1872 1.387 . S
C1871 H1874 0.950 . S
C1872 C1871 1.387 . S
C1872 C1875 1.387 . S
H1873 C1869 0.950 . S
H1874 C1871 0.950 . S
C1875 C1866 1.390 . S
C1875 H1868 0.950 . S
C1875 C1872 1.387 . S
C1876 C1877 1.387 . S
C1876 H1880 0.950 . S
C1876 C1885 1.390 . S
C1877 C1876 1.387 . S
C1877 C1879 1.387 . S
H1878 C1885 0.950 . S
C1879 C1877 1.387 . S
C1879 C1881 1.390 . S
C1879 H1883 0.950 . S
H1880 C1876 0.950 . S
C1881 C1879 1.390 . S
C1881 C1882 1.387 . S
C1881 H1884 0.950 . S
C1882 C1881 1.387 . S
C1882 C1885 1.387 . S
H1883 C1879 0.950 . S
H1884 C1881 0.950 . S
C1885 C1876 1.390 . S
C1885 H1878 0.950 . S
C1885 C1882 1.387 . S
C1886 C1887 1.387 . S
C1886 H1890 0.950 . S
C1886 C1895 1.390 . S
C1887 C1886 1.387 . S
C1887 C1889 1.387 . S
H1888 C1895 0.950 . S
C1889 C1887 1.387 . S
C1889 C1891 1.390 . S
C1889 H1893 0.950 . S
H1890 C1886 0.950 . S
C1891 C1889 1.390 . S
C1891 C1892 1.387 . S
C1891 H1894 0.950 . S
C1892 C1891 1.387 . S
C1892 C1895 1.387 . S
H1893 C1889 0.950 . S
H1894 C1891 0.950 . S
C1895 C1886 1.390 . S
C1895 H1888 0.950 . S
C1895 C1892 1.387 . S
C1896 C1897 1.387 . S
C1896 H1900 0.950 . S
C1896 C1905 1.390 . S
C1897 C1896 1.387 . S
C1897 C1899 1.387 . S
H1898 C1905 0.950 . S
C1899 C1897 1.387 . S
C1899 C1901 1.390 . S
C1899 H1903 0.950 . S
H1900 C1896 0.950 . S
C1901 C1899 1.390 . S
C1901 C1902 1.387 . S
C1901 H1904 0.950 . S
C1902 C1901 1.387 . S
C1902 C1905 1.387 . S
H1903 C1899 0.950 . S
H1904 C1901 0.950 . S
C1905 C1896 1.390 . S
C1905 H1898 0.950 . S
C1905 C1902 1.387 . S
C1906 C1907 1.387 . S
C1906 H1910 0.950 . S
C1906 C1915 1.390 . S
C1907 C1906 1.387 . S
C1907 C1909 1.387 . S
H1908 C1915 0.950 . S
C1909 C1907 1.387 . S
C1909 C1911 1.390 . S
C1909 H1913 0.950 . S
H1910 C1906 0.950 . S
C1911 C1909 1.390 . S
C1911 C1912 1.387 . S
C1911 H1914 0.950 . S
C1912 C1911 1.387 . S
C1912 C1915 1.387 . S
H1913 C1909 0.950 . S
H1914 C1911 0.950 . S
C1915 C1906 1.390 . S
C1915 H1908 0.950 . S
C1915 C1912 1.387 . S
C1916 C1917 1.387 . S
C1916 H1920 0.950 . S
C1916 C1925 1.390 . S
C1917 C1916 1.387 . S
C1917 C1919 1.387 . S
H1918 C1925 0.950 . S
C1919 C1917 1.387 . S
C1919 C1921 1.390 . S
C1919 H1923 0.950 . S
H1920 C1916 0.950 . S
C1921 C1919 1.390 . S
C1921 C1922 1.387 . S
C1921 H1924 0.950 . S
C1922 C1921 1.387 . S
C1922 C1925 1.387 . S
H1923 C1919 0.950 . S
H1924 C1921 0.950 . S
C1925 C1916 1.390 . S
C1925 H1918 0.950 . S
C1925 C1922 1.387 . S
C1926 C1927 1.387 . S
C1926 H1930 0.950 . S
C1926 C1935 1.390 . S
C1927 C1926 1.387 . S
C1927 C1929 1.387 . S
H1928 C1935 0.950 1_455 S
C1929 C1927 1.387 . S
C1929 C1931 1.390 1_655 S
C1929 H1933 0.950 1_565 S
H1930 C1926 0.950 . S
C1931 C1929 1.390 1_455 S
C1931 C1932 1.387 . S
C1931 H1934 0.950 . S
C1932 C1931 1.387 . S
C1932 C1935 1.387 1_455 S
H1933 C1929 0.950 1_545 S
H1934 C1931 0.950 . S
C1935 C1926 1.390 . S
C1935 H1928 0.950 1_655 S
C1935 C1932 1.387 1_655 S
C1936 C1937 1.387 . S
C1936 H1940 0.950 . S
C1936 C1945 1.390 . S
C1937 C1936 1.387 . S
C1937 C1939 1.387 . S
H1938 C1945 0.950 . S
C1939 C1937 1.387 . S
C1939 C1941 1.390 . S
C1939 H1943 0.950 . S
H1940 C1936 0.950 . S
C1941 C1939 1.390 . S
C1941 C1942 1.387 . S
C1941 H1944 0.950 . S
C1942 C1941 1.387 . S
C1942 C1945 1.387 . S
H1943 C1939 0.950 . S
H1944 C1941 0.950 . S
C1945 C1936 1.390 . S
C1945 H1938 0.950 . S
C1945 C1942 1.387 . S
C1946 C1947 1.387 . S
C1946 H1950 0.950 . S
C1946 C1955 1.390 1_556 S
C1947 C1946 1.387 . S
C1947 C1949 1.387 . S
H1948 C1955 0.950 . S
C1949 C1947 1.387 . S
C1949 C1951 1.390 . S
C1949 H1953 0.950 . S
H1950 C1946 0.950 . S
C1951 C1949 1.390 . S
C1951 C1952 1.387 1_556 S
C1951 H1954 0.950 . S
C1952 C1951 1.387 1_554 S
C1952 C1955 1.387 . S
H1953 C1949 0.950 . S
H1954 C1951 0.950 . S
C1955 C1946 1.390 1_554 S
C1955 H1948 0.950 . S
C1955 C1952 1.387 . S
C1956 C1957 1.387 . S
C1956 H1960 0.950 . S
C1956 C1965 1.390 . S
C1957 C1956 1.387 . S
C1957 C1959 1.387 . S
H1958 C1965 0.950 . S
C1959 C1957 1.387 . S
C1959 C1961 1.390 . S
C1959 H1963 0.950 . S
H1960 C1956 0.950 . S
C1961 C1959 1.390 . S
C1961 C1962 1.387 . S
C1961 H1964 0.950 . S
C1962 C1961 1.387 . S
C1962 C1965 1.387 . S
H1963 C1959 0.950 . S
H1964 C1961 0.950 . S
C1965 C1956 1.390 . S
C1965 H1958 0.950 . S
C1965 C1962 1.387 . S
C1966 C1967 1.387 . S
C1966 H1970 0.950 . S
C1966 C1975 1.390 . S
C1967 C1966 1.387 . S
C1967 C1969 1.387 . S
H1968 C1975 0.950 . S
C1969 C1967 1.387 . S
C1969 C1971 1.390 . S
C1969 H1973 0.950 . S
H1970 C1966 0.950 . S
C1971 C1969 1.390 . S
C1971 C1972 1.387 . S
C1971 H1974 0.950 . S
C1972 C1971 1.387 . S
C1972 C1975 1.387 . S
H1973 C1969 0.950 . S
H1974 C1971 0.950 . S
C1975 C1966 1.390 . S
C1975 H1968 0.950 . S
C1975 C1972 1.387 . S
C1976 C1977 1.387 . S
C1976 H1980 0.950 . S
C1976 C1985 1.390 . S
C1977 C1976 1.387 . S
C1977 C1979 1.387 . S
H1978 C1985 0.950 . S
C1979 C1977 1.387 . S
C1979 C1981 1.390 . S
C1979 H1983 0.950 . S
H1980 C1976 0.950 . S
C1981 C1979 1.390 . S
C1981 C1982 1.387 . S
C1981 H1984 0.950 . S
C1982 C1981 1.387 . S
C1982 C1985 1.387 . S
H1983 C1979 0.950 . S
H1984 C1981 0.950 . S
C1985 C1976 1.390 . S
C1985 H1978 0.950 . S
C1985 C1982 1.387 . S
C1986 C1987 1.387 . S
C1986 H1990 0.950 . S
C1986 C1995 1.390 . S
C1987 C1986 1.387 . S
C1987 C1989 1.387 . S
H1988 C1995 0.950 . S
C1989 C1987 1.387 . S
C1989 C1991 1.390 1_554 S
C1989 H1993 0.950 . S
H1990 C1986 0.950 . S
C1991 C1989 1.390 1_556 S
C1991 C1992 1.387 . S
C1991 H1994 0.950 . S
C1992 C1991 1.387 . S
C1992 C1995 1.387 1_556 S
H1993 C1989 0.950 . S
H1994 C1991 0.950 . S
C1995 C1986 1.390 . S
C1995 H1988 0.950 . S
C1995 C1992 1.387 1_554 S
C1996 C1997 1.387 . S
C1996 H2000 0.950 . S
C1996 C2005 1.390 . S
C1997 C1996 1.387 . S
C1997 C1999 1.387 . S
H1998 C2005 0.950 . S
C1999 C1997 1.387 . S
C1999 C2001 1.390 . S
C1999 H2003 0.950 . S
H2000 C1996 0.950 . S
C2001 C1999 1.390 . S
C2001 C2002 1.387 . S
C2001 H2004 0.950 . S
C2002 C2001 1.387 . S
C2002 C2005 1.387 . S
H2003 C1999 0.950 . S
H2004 C2001 0.950 . S
C2005 C1996 1.390 . S
C2005 H1998 0.950 . S
C2005 C2002 1.387 . S
C2006 C2007 1.387 . S
C2006 H2010 0.950 . S
C2006 C2015 1.390 . S
C2007 C2006 1.387 . S
C2007 C2009 1.387 . S
H2008 C2015 0.950 . S
C2009 C2007 1.387 . S
C2009 C2011 1.390 . S
C2009 H2013 0.950 . S
H2010 C2006 0.950 . S
C2011 C2009 1.390 . S
C2011 C2012 1.387 . S
C2011 H2014 0.950 . S
C2012 C2011 1.387 . S
C2012 C2015 1.387 . S
H2013 C2009 0.950 . S
H2014 C2011 0.950 . S
C2015 C2006 1.390 . S
C2015 H2008 0.950 . S
C2015 C2012 1.387 . S
C2016 C2017 1.387 . S
C2016 H2020 0.950 . S
C2016 C2025 1.390 . S
C2017 C2016 1.387 . S
C2017 C2019 1.387 . S
H2018 C2025 0.950 . S
C2019 C2017 1.387 . S
C2019 C2021 1.390 . S
C2019 H2023 0.950 . S
H2020 C2016 0.950 . S
C2021 C2019 1.390 . S
C2021 C2022 1.387 . S
C2021 H2024 0.950 . S
C2022 C2021 1.387 . S
C2022 C2025 1.387 . S
H2023 C2019 0.950 . S
H2024 C2021 0.950 . S
C2025 C2016 1.390 . S
C2025 H2018 0.950 . S
C2025 C2022 1.387 . S
C2026 C2027 1.387 . S
C2026 H2030 0.950 . S
C2026 C2035 1.390 . S
C2027 C2026 1.387 . S
C2027 C2029 1.387 . S
H2028 C2035 0.950 . S
C2029 C2027 1.387 . S
C2029 C2031 1.390 . S
C2029 H2033 0.950 . S
H2030 C2026 0.950 . S
C2031 C2029 1.390 . S
C2031 C2032 1.387 . S
C2031 H2034 0.950 . S
C2032 C2031 1.387 . S
C2032 C2035 1.387 . S
H2033 C2029 0.950 . S
H2034 C2031 0.950 . S
C2035 C2026 1.390 . S
C2035 H2028 0.950 . S
C2035 C2032 1.387 . S
C2036 C2037 1.387 . S
C2036 H2040 0.950 . S
C2036 C2045 1.390 . S
C2037 C2036 1.387 . S
C2037 C2039 1.387 . S
H2038 C2045 0.950 . S
C2039 C2037 1.387 . S
C2039 C2041 1.390 . S
C2039 H2043 0.950 . S
H2040 C2036 0.950 . S
C2041 C2039 1.390 . S
C2041 C2042 1.387 . S
C2041 H2044 0.950 . S
C2042 C2041 1.387 . S
C2042 C2045 1.387 . S
H2043 C2039 0.950 . S
H2044 C2041 0.950 . S
C2045 C2036 1.390 . S
C2045 H2038 0.950 . S
C2045 C2042 1.387 . S
C2046 C2047 1.387 . S
C2046 H2050 0.950 . S
C2046 C2055 1.390 . S
C2047 C2046 1.387 . S
C2047 C2049 1.387 . S
H2048 C2055 0.950 . S
C2049 C2047 1.387 . S
C2049 C2051 1.390 . S
C2049 H2053 0.950 . S
H2050 C2046 0.950 . S
C2051 C2049 1.390 . S
C2051 C2052 1.387 . S
C2051 H2054 0.950 . S
C2052 C2051 1.387 . S
C2052 C2055 1.387 . S
H2053 C2049 0.950 . S
H2054 C2051 0.950 . S
C2055 C2046 1.390 . S
C2055 H2048 0.950 . S
C2055 C2052 1.387 . S
C2056 C2057 1.387 . S
C2056 H2060 0.950 . S
C2056 C2065 1.390 . S
C2057 C2056 1.387 . S
C2057 C2059 1.387 . S
H2058 C2065 0.950 . S
C2059 C2057 1.387 . S
C2059 C2061 1.390 . S
C2059 H2063 0.950 . S
H2060 C2056 0.950 . S
C2061 C2059 1.390 . S
C2061 C2062 1.387 . S
C2061 H2064 0.950 . S
C2062 C2061 1.387 . S
C2062 C2065 1.387 . S
H2063 C2059 0.950 . S
H2064 C2061 0.950 . S
C2065 C2056 1.390 . S
C2065 H2058 0.950 . S
C2065 C2062 1.387 . S
C2066 C2067 1.387 . S
C2066 H2070 0.950 . S
C2066 C2075 1.390 . S
C2067 C2066 1.387 . S
C2067 C2069 1.387 . S
H2068 C2075 0.950 . S
C2069 C2067 1.387 . S
C2069 C2071 1.390 . S
C2069 H2073 0.950 . S
H2070 C2066 0.950 . S
C2071 C2069 1.390 . S
C2071 C2072 1.387 . S
C2071 H2074 0.950 . S
C2072 C2071 1.387 . S
C2072 C2075 1.387 . S
H2073 C2069 0.950 . S
H2074 C2071 0.950 . S
C2075 C2066 1.390 . S
C2075 H2068 0.950 . S
C2075 C2072 1.387 . S
C2076 C2077 1.387 . S
C2076 H2080 0.950 . S
C2076 C2085 1.390 . S
C2077 C2076 1.387 . S
C2077 C2079 1.387 . S
H2078 C2085 0.950 . S
C2079 C2077 1.387 . S
C2079 C2081 1.390 . S
C2079 H2083 0.950 . S
H2080 C2076 0.950 . S
C2081 C2079 1.390 . S
C2081 C2082 1.387 . S
C2081 H2084 0.950 . S
C2082 C2081 1.387 . S
C2082 C2085 1.387 . S
H2083 C2079 0.950 . S
H2084 C2081 0.950 . S
C2085 C2076 1.390 . S
C2085 H2078 0.950 . S
C2085 C2082 1.387 . S
C2086 C2087 1.387 . S
C2086 H2090 0.950 . S
C2086 C2095 1.390 . S
C2087 C2086 1.387 . S
C2087 C2089 1.387 . S
H2088 C2095 0.950 . S
C2089 C2087 1.387 . S
C2089 C2091 1.390 . S
C2089 H2093 0.950 . S
H2090 C2086 0.950 . S
C2091 C2089 1.390 . S
C2091 C2092 1.387 . S
C2091 H2094 0.950 . S
C2092 C2091 1.387 . S
C2092 C2095 1.387 . S
H2093 C2089 0.950 . S
H2094 C2091 0.950 . S
C2095 C2086 1.390 . S
C2095 H2088 0.950 . S
C2095 C2092 1.387 . S
C2096 C2097 1.387 . S
C2096 H2100 0.950 . S
C2096 C2105 1.390 . S
C2097 C2096 1.387 . S
C2097 C2099 1.387 . S
H2098 C2105 0.950 . S
C2099 C2097 1.387 . S
C2099 C2101 1.390 . S
C2099 H2103 0.950 . S
H2100 C2096 0.950 . S
C2101 C2099 1.390 . S
C2101 C2102 1.387 . S
C2101 H2104 0.950 . S
C2102 C2101 1.387 . S
C2102 C2105 1.387 . S
H2103 C2099 0.950 . S
H2104 C2101 0.950 . S
C2105 C2096 1.390 . S
C2105 H2098 0.950 . S
C2105 C2102 1.387 . S
C2106 C2107 1.387 . S
C2106 H2110 0.950 . S
C2106 C2115 1.390 . S
C2107 C2106 1.387 . S
C2107 C2109 1.387 . S
H2108 C2115 0.950 . S
C2109 C2107 1.387 . S
C2109 C2111 1.390 . S
C2109 H2113 0.950 . S
H2110 C2106 0.950 . S
C2111 C2109 1.390 . S
C2111 C2112 1.387 . S
C2111 H2114 0.950 . S
C2112 C2111 1.387 . S
C2112 C2115 1.387 . S
H2113 C2109 0.950 . S
H2114 C2111 0.950 . S
C2115 C2106 1.390 . S
C2115 H2108 0.950 . S
C2115 C2112 1.387 . S
C2116 C2117 1.387 . S
C2116 H2120 0.950 . S
C2116 C2125 1.390 . S
C2117 C2116 1.387 . S
C2117 C2119 1.387 . S
H2118 C2125 0.950 . S
C2119 C2117 1.387 . S
C2119 C2121 1.390 . S
C2119 H2123 0.950 . S
H2120 C2116 0.950 . S
C2121 C2119 1.390 . S
C2121 C2122 1.387 . S
C2121 H2124 0.950 . S
C2122 C2121 1.387 . S
C2122 C2125 1.387 . S
H2123 C2119 0.950 . S
H2124 C2121 0.950 . S
C2125 C2116 1.390 . S
C2125 H2118 0.950 . S
C2125 C2122 1.387 . S
C2126 C2127 1.387 . S
C2126 H2130 0.950 . S
C2126 C2135 1.390 . S
C2127 C2126 1.387 . S
C2127 C2129 1.387 . S
H2128 C2135 0.950 . S
C2129 C2127 1.387 . S
C2129 C2131 1.390 . S
C2129 H2133 0.950 . S
H2130 C2126 0.950 . S
C2131 C2129 1.390 . S
C2131 C2132 1.387 . S
C2131 H2134 0.950 . S
C2132 C2131 1.387 . S
C2132 C2135 1.387 . S
H2133 C2129 0.950 . S
H2134 C2131 0.950 . S
C2135 C2126 1.390 . S
C2135 H2128 0.950 . S
C2135 C2132 1.387 . S
C2136 C2137 1.387 . S
C2136 H2140 0.950 . S
C2136 C2145 1.390 . S
C2137 C2136 1.387 . S
C2137 C2139 1.387 . S
H2138 C2145 0.950 . S
C2139 C2137 1.387 . S
C2139 C2141 1.390 . S
C2139 H2143 0.950 . S
H2140 C2136 0.950 . S
C2141 C2139 1.390 . S
C2141 C2142 1.387 . S
C2141 H2144 0.950 . S
C2142 C2141 1.387 . S
C2142 C2145 1.387 . S
H2143 C2139 0.950 . S
H2144 C2141 0.950 . S
C2145 C2136 1.390 . S
C2145 H2138 0.950 . S
C2145 C2142 1.387 . S
C2146 C2147 1.387 . S
C2146 H2150 0.950 . S
C2146 C2155 1.390 . S
C2147 C2146 1.387 . S
C2147 C2149 1.387 . S
H2148 C2155 0.950 . S
C2149 C2147 1.387 . S
C2149 C2151 1.390 . S
C2149 H2153 0.950 . S
H2150 C2146 0.950 . S
C2151 C2149 1.390 . S
C2151 C2152 1.387 . S
C2151 H2154 0.950 . S
C2152 C2151 1.387 . S
C2152 C2155 1.387 . S
H2153 C2149 0.950 . S
H2154 C2151 0.950 . S
C2155 C2146 1.390 . S
C2155 H2148 0.950 . S
C2155 C2152 1.387 . S
C2156 C2157 1.387 . S
C2156 H2160 0.950 . S
C2156 C2165 1.390 . S
C2157 C2156 1.387 . S
C2157 C2159 1.387 . S
H2158 C2165 0.950 . S
C2159 C2157 1.387 . S
C2159 C2161 1.390 . S
C2159 H2163 0.950 . S
H2160 C2156 0.950 . S
C2161 C2159 1.390 . S
C2161 C2162 1.387 . S
C2161 H2164 0.950 . S
C2162 C2161 1.387 . S
C2162 C2165 1.387 . S
H2163 C2159 0.950 . S
H2164 C2161 0.950 . S
C2165 C2156 1.390 . S
C2165 H2158 0.950 . S
C2165 C2162 1.387 . S
C2166 C2167 1.387 . S
C2166 H2170 0.950 . S
C2166 C2175 1.390 . S
C2167 C2166 1.387 . S
C2167 C2169 1.387 . S
H2168 C2175 0.950 1_655 S
C2169 C2167 1.387 . S
C2169 C2171 1.390 . S
C2169 H2173 0.950 . S
H2170 C2166 0.950 . S
C2171 C2169 1.390 . S
C2171 C2172 1.387 1_455 S
C2171 H2174 0.949 1_455 S
C2172 C2171 1.387 1_655 S
C2172 C2175 1.387 1_655 S
H2173 C2169 0.950 . S
H2174 C2171 0.949 1_655 S
C2175 C2166 1.390 . S
C2175 H2168 0.950 1_455 S
C2175 C2172 1.387 1_455 S
C1222 C882 1.157 . S
C1217 C4 1.152 . S
C1227 C39 1.289 . S
C1232 C894 1.281 . S
C1242 C929 1.304 . S
C1237 C86 1.224 . S
C1252 C938 1.223 1_554 S
C1247 C110 1.221 . S
C1262 C893 1.243 . S
C1257 C146 1.253 . S
C1267 C194 1.203 . S
C1272 C918 1.284 . S
C1282 C937 1.296 . S
C1277 C219 1.316 . S
C1287 C256 1.197 . S
C1292 C879 1.188 . S
C1297 C292 1.166 . S
C1302 C872 1.169 . S
C1312 C896 1.228 1_545 S
C1307 C326 1.233 . S
C1322 C915 1.311 . S
C1317 C363 1.331 . S
C1332 C940 1.281 . S
C1327 C410 1.209 . S
C1342 C901 1.292 . S
C1337 C302 1.207 . S
C1352 C926 1.290 . S
C1347 C327 1.294 . S
C1357 C362 1.243 . S
C1362 C945 1.228 . S
C1372 C885 1.174 . S
C1367 C400 1.184 . S
C1377 C436 1.172 . S
C1382 C874 1.174 . S
C1387 C471 1.318 . S
C1392 C973 1.301 . S
C1402 C989 1.223 . S
C1397 C506 1.236 . S
C1412 C1003 1.279 . S
C1407 C554 1.207 . S
C1417 C580 1.180 . S
C1422 C871 1.171 . S
C1427 C614 1.266 . S
C1432 C923 1.250 . S
C1442 C1006 1.303 . S
C1437 C507 1.307 . S
C1452 C970 1.309 . S
C1447 C662 1.221 . S
C1462 C1026 1.305 . S
C1457 C50 1.194 . S
C1472 C1050 1.254 . S
C1467 C3 1.264 . S
C1477 C112 1.251 . S
C1482 C1083 1.210 . S
C1487 C74 1.290 . S
C1492 C1091 1.261 . S
C1497 C254 1.301 . S
C1502 C1061 1.265 . S
C1507 C220 1.244 . S
C1512 C1072 1.223 . S
C1522 C1092 1.268 . S
C1517 C183 1.282 . S
C1527 C158 1.229 . S
C1532 C1025 1.324 . S
C1537 C698 1.193 . S
C1542 C1028 1.305 . S
C1552 C1058 1.251 . S
C1547 C542 1.254 . S
C1562 C1069 1.260 . S
C1557 C579 1.295 . S
C1572 C1099 1.212 . S
C1567 C472 1.258 . S
C1582 C1047 1.215 . S
C1577 C688 1.252 . S
C1592 C1080 1.272 . S
C1587 C543 1.280 . S
C1602 C1094 1.268 . S
C1597 C578 1.283 . S
C1607 C482 1.241 . S
C1612 C1033 1.334 . S
C1622 C1036 1.308 . S
C1617 C734 1.190 . S
C1627 C399 1.289 . S
C1632 C1124 1.275 . S
C1642 C1136 1.261 . S
C1637 C758 1.269 . S
C1647 C328 1.260 . S
C1652 C1157 1.217 . S
C1662 C1039 1.331 . S
C1657 C374 1.243 . S
C1672 C1077 1.249 . S
C1667 C794 1.284 . S
C1682 C1160 1.252 . S
C1677 C759 1.261 . S
C1687 C832 1.252 . S
C1692 C1127 1.216 . S
C1697 C76 1.167 . S
C1702 C1182 1.170 . S
C1707 C111 1.291 . S
C1712 C960 1.289 . S
C1722 C984 1.268 . S
C1717 C14 1.187 . S
C1727 C38 1.235 . S
C1732 C1014 1.233 . S
C1737 C218 1.242 . S
C1742 C959 1.230 . S
C1747 C266 1.225 . S
C1752 C995 1.302 . S
C1762 C1011 1.314 . S
C1757 C147 1.336 . S
C1772 C1193 1.171 . S
C1767 C184 1.183 . S
C1782 C1190 1.159 . S
C1777 C760 1.157 . S
C1792 C962 1.230 . S
C1787 C722 1.229 . S
C1802 C992 1.295 . S
C1797 C831 1.305 . S
C1807 C806 1.224 . S
C1812 C1004 1.303 . S
C1822 C967 1.282 . S
C1817 C770 1.208 . S
C1827 C723 1.297 . S
C1832 C981 1.283 . S
C1842 C1017 1.236 . S
C1837 C830 1.247 . S
C1847 C796 1.195 . S
C1852 C1179 1.183 . S
C1862 C1180 1.173 . S
C1857 C544 1.175 . S
C1867 C615 1.309 . S
C1872 C907 1.286 . S
C1882 C916 1.215 . S
C1877 C686 1.208 . S
C1887 C446 1.202 . S
C1892 C951 1.275 . S
C1902 C1187 1.166 . S
C1897 C652 1.178 . S
C1912 C982 1.243 . S
C1907 C470 1.241 . S
C1922 C948 1.291 . S
C1917 C687 1.293 . S
C1932 C904 1.295 . S
C1927 C590 1.213 . S
C1937 C122 1.226 . S
C1942 C1201 1.315 . S
C1947 C75 1.303 . S
C1952 C1113 1.265 . S
C1957 C40 1.240 . S
C1962 C1149 1.208 . S
C1972 C1168 1.245 . S
C1967 C2 1.253 . S
C1982 C1114 1.252 . S
C1977 C182 1.262 . S
C1987 C148 1.252 . S
C1992 C1138 1.231 . S
C2002 C1165 1.277 . S
C1997 C255 1.320 . S
C2007 C230 1.220 . S
C2012 C1202 1.335 . S
C2022 C1209 1.307 . S
C2017 C518 1.220 . S
C2027 C434 1.271 . S
C2032 C1121 1.241 . S
C2037 C651 1.305 . S
C2042 C1135 1.265 . S
C2052 C1158 1.214 . S
C2047 C616 1.231 . S
C2062 C1116 1.227 . S
C2057 C508 1.243 . S
C2067 C435 1.292 . S
C2072 C1146 1.280 . S
C2082 C1171 1.264 . S
C2077 C650 1.293 . S
C2092 C1204 1.334 . S
C2087 C626 1.217 . S
C2102 C1215 1.306 . S
C2097 C338 1.214 . S
C2112 C1055 1.280 . S
C2107 C795 1.322 . S
C2117 C290 1.279 . S
C2122 C1070 1.265 . S
C2127 C724 1.232 . S
C2132 C1102 1.217 . S
C2142 C1212 1.334 . S
C2137 C842 1.224 . S
C2152 C1143 1.248 . S
C2147 C398 1.274 . S
C2162 C1105 1.264 . S
C2157 C291 1.297 . S
C2172 C1048 1.223 . S
C2167 C364 1.239 . S
