# Generated by pormake.
# Topology rtl, (3,6)-cn, num edge types: 1
# Building blocks:
#     Node 0, Type 0, BuildingBlock: WUSLED_clean_sbu_0, # of connection points: 3
#     Node 1, Type 0, BuildingBlock: WUSLED_clean_sbu_0, # of connection points: 3
#     Node 2, Type 0, BuildingBlock: WUSLED_clean_sbu_0, # of connection points: 3
#     Node 3, Type 0, BuildingBlock: WUSLED_clean_sbu_0, # of connection points: 3
#     Node 4, Type 1, BuildingBlock: LEVNOQ01_clean_sbu_1, # of connection points: 6
#     Node 5, Type 1, BuildingBlock: LEVNOQ01_clean_sbu_1, # of connection points: 6
#     Edge 6, Type (0, 1), BuildingBlock: EZIPEK_clean_linker_0, # of connection points: 2
#     Edge 7, Type (0, 1), BuildingBlock: EZIPEK_clean_linker_0, # of connection points: 2
#     Edge 8, Type (0, 1), BuildingBlock: EZIPEK_clean_linker_0, # of connection points: 2
#     Edge 9, Type (0, 1), BuildingBlock: EZIPEK_clean_linker_0, # of connection points: 2
#     Edge 10, Type (0, 1), BuildingBlock: EZIPEK_clean_linker_0, # of connection points: 2
#     Edge 11, Type (0, 1), BuildingBlock: EZIPEK_clean_linker_0, # of connection points: 2
#     Edge 12, Type (0, 1), BuildingBlock: EZIPEK_clean_linker_0, # of connection points: 2
#     Edge 13, Type (0, 1), BuildingBlock: EZIPEK_clean_linker_0, # of connection points: 2
#     Edge 14, Type (0, 1), BuildingBlock: EZIPEK_clean_linker_0, # of connection points: 2
#     Edge 15, Type (0, 1), BuildingBlock: EZIPEK_clean_linker_0, # of connection points: 2
#     Edge 16, Type (0, 1), BuildingBlock: EZIPEK_clean_linker_0, # of connection points: 2
#     Edge 17, Type (0, 1), BuildingBlock: EZIPEK_clean_linker_0, # of connection points: 2
# Relax obj value: 0.023
# Max RMSD: 0.058
# Mean RMSD: 0.042
data_MOF--net-rtl--node1-WUSLED_clean_sbu_0--node2-LEVNOQ01_clean_sbu_1--edge1-EZIPEK_clean_linker_0
_symmetry_space_group_name_H-M    P1
_symmetry_Int_Tables_number       1
_symmetry_cell_setting            triclinic
loop_
_symmetry_equiv_pos_as_xyz
'x, y, z'
_cell_length_a     32.085063
_cell_length_b     35.854805
_cell_length_c     24.685854
_cell_angle_alpha  90.322304
_cell_angle_beta   98.629064
_cell_angle_gamma 89.819768
loop_
_atom_site_label
_atom_site_type_symbol
_atom_site_fract_x
_atom_site_fract_y
_atom_site_fract_z
_atom_type_partial_charge
C0 C 0.20894 0.88877 0.25075 0.0
C1 C 0.21894 0.92655 0.26194 0.0
C2 C 0.16907 0.92925 0.32695 0.0
C3 C 0.19923 0.94659 0.29992 0.0
C4 C 0.15946 0.89156 0.31636 0.0
C5 C 0.17931 0.87148 0.27884 0.0
U6 U 0.22623 0.8616 0.10485 0.0
O7 O 0.2844 0.8458 0.07289 0.0
O8 O 0.23192 0.80613 0.06863 0.0
C9 C 0.27097 0.81176 0.06054 0.0
C10 C 0.22976 0.86656 0.21155 0.0
C11 C 0.30088 0.78136 0.07734 0.0
C12 C 0.32925 0.73263 0.14082 0.0
C13 C 0.30309 0.76384 0.12854 0.0
C14 C 0.35189 0.73717 0.0517 0.0
C15 C 0.35307 0.71867 0.10182 0.0
C16 C 0.32602 0.76825 0.03959 0.0
C17 C 0.16407 0.91174 0.98099 0.0
C18 C 0.15471 0.95458 0.90413 0.0
C19 C 0.13072 0.8907 0.89085 0.0
C20 C 0.14533 0.88329 0.94604 0.0
C21 C 0.13467 0.92658 0.86993 0.0
C22 C 0.1692 0.94724 0.95924 0.0
C23 C 0.17609 0.9059 0.04055 0.0
O24 O 0.2055 0.84266 0.18099 0.0
O25 O 0.25592 0.88422 0.18438 0.0
O26 O 0.21489 0.91503 0.06132 0.0
O27 O 0.16337 0.87475 0.0606 0.0
H28 H 0.24189 0.94067 0.24142 0.0
H29 H 0.20702 0.97569 0.30773 0.0
H30 H 0.13631 0.87773 0.33695 0.0
H31 H 0.17136 0.84234 0.27167 0.0
H32 H 0.32993 0.71871 0.17976 0.0
H33 H 0.28391 0.77372 0.15826 0.0
H34 H 0.37018 0.72686 0.02124 0.0
H35 H 0.32476 0.78145 0.99999 0.0
H36 H 0.1579 0.98245 0.88852 0.0
H37 H 0.1152 0.86885 0.86488 0.0
H38 H 0.14101 0.85559 0.96151 0.0
H39 H 0.18346 0.9696 0.98528 0.0
C40 C 0.71178 0.65974 0.74795 0.0
C41 C 0.67089 0.64498 0.73596 0.0
C42 C 0.67614 0.62139 0.82881 0.0
C43 C 0.65315 0.62603 0.77625 0.0
C44 C 0.71779 0.63434 0.83987 0.0
C45 C 0.73543 0.65354 0.79968 0.0
U46 U 0.71932 0.68867 0.60119 0.0
O47 O 0.7207 0.74455 0.56542 0.0
O48 O 0.77411 0.7063 0.56379 0.0
C49 C 0.75896 0.74006 0.5535 0.0
C50 C 0.72932 0.68323 0.70822 0.0
C51 C 0.78822 0.77101 0.56931 0.0
C52 C 0.83198 0.80878 0.63769 0.0
C53 C 0.80442 0.77865 0.62437 0.0
C54 C 0.82697 0.8236 0.54121 0.0
C55 C 0.84339 0.83136 0.59599 0.0
C56 C 0.79962 0.79368 0.52799 0.0
C57 C 0.65485 0.6367 0.48195 0.0
C58 C 0.656 0.65348 0.38689 0.0
C59 C 0.61617 0.59966 0.40886 0.0
C60 C 0.62849 0.60654 0.46463 0.0
C61 C 0.6301 0.62286 0.3697 0.0
C62 C 0.66847 0.6603 0.44288 0.0
C63 C 0.66841 0.64258 0.54079 0.0
O64 O 0.75406 0.66624 0.67799 0.0
O65 O 0.7026 0.70649 0.68033 0.0
O66 O 0.65559 0.6738 0.56111 0.0
O67 O 0.7082 0.6349 0.55834 0.0
H68 H 0.65224 0.64912 0.69606 0.0
H69 H 0.62099 0.6161 0.76705 0.0
H70 H 0.73593 0.63091 0.88022 0.0
H71 H 0.76709 0.66454 0.8095 0.0
H72 H 0.84443 0.81443 0.68017 0.0
H73 H 0.79575 0.7614 0.65678 0.0
H74 H 0.83548 0.84075 0.50857 0.0
H75 H 0.78732 0.78824 0.48537 0.0
H76 H 0.66692 0.67163 0.35706 0.0
H77 H 0.59612 0.57596 0.39616 0.0
H78 H 0.61774 0.5881 0.49428 0.0
H79 H 0.68891 0.68372 0.45573 0.0
C80 C 0.82139 0.18326 0.17476 0.0
C81 C 0.84769 0.15238 0.17019 0.0
C82 C 0.86187 0.14766 0.26942 0.0
C83 C 0.86785 0.13466 0.21737 0.0
C84 C 0.83604 0.1788 0.27388 0.0
C85 C 0.81587 0.19645 0.22677 0.0
U86 U 0.79455 0.19437 0.01933 0.0
O87 O 0.73405 0.20827 0.96891 0.0
O88 O 0.78817 0.24568 0.97038 0.0
C89 C 0.74765 0.24067 0.95416 0.0
C90 C 0.79936 0.20198 0.12592 0.0
C91 C 0.72053 0.27279 0.96191 0.0
C92 C 0.69258 0.31771 0.0212 0.0
C93 C 0.71886 0.28736 0.01443 0.0
C94 C 0.66941 0.31926 0.92312 0.0
C95 C 0.66762 0.33374 0.97562 0.0
C96 C 0.69574 0.28892 0.91635 0.0
C97 C 0.8441 0.12898 0.92322 0.0
C98 C 0.82088 0.12127 0.82529 0.0
C99 C 0.89175 0.10325 0.865 0.0
C100 C 0.8835 0.11411 0.91673 0.0
C101 C 0.8607 0.10705 0.81889 0.0
C102 C 0.81269 0.13243 0.87719 0.0
C103 C 0.83721 0.14147 0.97812 0.0
O104 O 0.82358 0.22023 0.09678 0.0
O105 O 0.76996 0.18227 0.09587 0.0
O106 O 0.7992 0.13652 0.99066 0.0
O107 O 0.85342 0.17411 0.99367 0.0
H108 H 0.85232 0.14191 0.13026 0.0
H109 H 0.88765 0.11057 0.21336 0.0
H110 H 0.83108 0.18906 0.31378 0.0
H111 H 0.79572 0.22028 0.23091 0.0
H112 H 0.69143 0.32852 0.06202 0.0
H113 H 0.73771 0.27517 0.05008 0.0
H114 H 0.65024 0.33127 0.88762 0.0
H115 H 0.69664 0.27794 0.87557 0.0
H116 H 0.79658 0.12434 0.79006 0.0
H117 H 0.92262 0.09231 0.86077 0.0
H118 H 0.90811 0.11129 0.95168 0.0
H119 H 0.7821 0.14404 0.88129 0.0
C120 C 0.30181 0.3882 0.35688 0.0
C121 C 0.29215 0.42598 0.34549 0.0
C122 C 0.34199 0.42727 0.28041 0.0
C123 C 0.31202 0.44533 0.30737 0.0
C124 C 0.35119 0.38955 0.29112 0.0
C125 C 0.33118 0.37017 0.32876 0.0
U126 U 0.28564 0.36265 0.50329 0.0
O127 O 0.22765 0.34817 0.53627 0.0
O128 O 0.27948 0.30763 0.53967 0.0
C129 C 0.24064 0.31398 0.54826 0.0
C130 C 0.28097 0.36678 0.39644 0.0
C131 C 0.21022 0.28396 0.53157 0.0
C132 C 0.15839 0.24112 0.55736 0.0
C133 C 0.18438 0.27213 0.56903 0.0
C134 C 0.18214 0.23422 0.46912 0.0
C135 C 0.15781 0.22142 0.50801 0.0
C136 C 0.20841 0.26536 0.48095 0.0
C137 C 0.35016 0.41223 0.6262 0.0
C138 C 0.36489 0.45539 0.70286 0.0
C139 C 0.37927 0.38947 0.71686 0.0
C140 C 0.36428 0.38258 0.66151 0.0
C141 C 0.38018 0.426 0.73755 0.0
C142 C 0.35008 0.44856 0.64759 0.0
C143 C 0.33734 0.40641 0.56676 0.0
O144 O 0.30499 0.34259 0.42654 0.0
O145 O 0.25556 0.38526 0.42421 0.0
O146 O 0.29851 0.41615 0.54699 0.0
O147 O 0.34916 0.37486 0.54623 0.0
H148 H 0.26938 0.44066 0.366 0.0
H149 H 0.30454 0.47446 0.29946 0.0
H150 H 0.37419 0.37518 0.27058 0.0
H151 H 0.33885 0.341 0.33606 0.0
H152 H 0.1397 0.2317 0.58773 0.0
H153 H 0.1853 0.28618 0.60817 0.0
H154 H 0.18194 0.21936 0.43077 0.0
H155 H 0.22811 0.27423 0.45144 0.0
H156 H 0.36541 0.48376 0.71833 0.0
H157 H 0.39102 0.36652 0.74325 0.0
H158 H 0.36452 0.35422 0.64622 0.0
H159 H 0.33935 0.47181 0.62122 0.0
O160 O 0.98624 0.08977 0.67208 0.0
Mg161 Mg 0.04629 0.07886 0.65199 0.0
O162 O 0.95497 0.04781 0.61334 0.0
Mg163 Mg 0.0035 0.02589 0.55765 0.0
O164 O 0.04601 0.0782 0.56933 0.0
O165 O 0.08048 0.12092 0.62526 0.0
O166 O 0.0522 1.00443 0.5017 0.0
O167 O 0.96472 0.0593 0.48573 0.0
Mg168 Mg 0.96171 0.97388 0.46329 0.0
O169 O 0.96119 0.97316 0.54595 0.0
O170 O 0.02129 0.96264 0.44237 0.0
O171 O 0.93023 0.0201 0.42529 0.0
O172 O 0.92738 0.93128 0.4877 0.0
C173 C 0.06713 0.99929 0.67444 0.0
C174 C 0.95387 0.07133 0.65223 0.0
C175 C 0.06987 0.10756 0.57651 0.0
C176 C 0.05359 0.9808 0.46303 0.0
C177 C 0.93937 0.05299 0.44162 0.0
C178 C 0.93753 0.94372 0.53705 0.0
O179 O 0.07712 0.03219 0.68994 0.0
O180 O 0.04152 0.99281 0.63059 0.0
O181 O 0.58048 0.51578 0.18745 0.0
Mg182 Mg 0.55104 0.46908 0.14728 0.0
O183 O 0.54618 0.55546 0.12799 0.0
Mg184 Mg 0.50945 0.52279 0.05375 0.0
O185 O 0.55221 0.47034 0.06484 0.0
O186 O 0.58628 0.42741 0.12046 0.0
O187 O 0.47288 0.4901 0.979 0.0
O188 O 0.55914 0.54597 1.0013 0.0
Mg189 Mg 0.46795 0.5763 0.96025 0.0
O190 O 0.46645 0.57505 0.0426 0.0
O191 O 0.4385 0.52986 0.9196 0.0
O192 O 0.52847 0.58861 0.94357 0.0
O193 O 0.4323 0.61776 0.98675 0.0
C194 C 0.45839 0.47612 0.14475 0.0
C195 C 0.57073 0.5488 0.17255 0.0
C196 C 0.57618 0.44094 0.07191 0.0
C197 C 0.44818 0.49687 0.93456 0.0
C198 C 0.5608 0.57039 0.96413 0.0
C199 C 0.44236 0.60435 0.03536 0.0
O200 O 0.49056 0.45761 0.16514 0.0
O201 O 0.46017 0.50039 0.10743 0.0
C202 C 0.08886 0.18793 0.49013 0.0
C203 C 0.1335 0.18607 0.50043 0.0
C204 C 0.12964 0.12091 0.52818 0.0
C205 C 0.08653 0.1263 0.53132 0.0
N206 N 0.02242 0.16053 0.50642 0.0
N207 N 0.19718 0.14993 0.52341 0.0
C208 C 0.06506 0.15814 0.5079 0.0
C209 C 0.15416 0.15184 0.51602 0.0
N210 N 0.06984 0.21873 0.46513 0.0
N211 N 0.14697 0.08646 0.53922 0.0
H212 H 0.21597 0.17185 0.51375 0.0
H213 H 0.21442 0.12723 0.54082 0.0
H214 H 0.12873 0.06392 0.54843 0.0
H215 H 0.17774 0.07945 0.53456 0.0
H216 H 0.03743 0.22157 0.45389 0.0
H217 H 0.08724 0.24059 0.452 0.0
H218 H 0.00459 0.18422 0.49477 0.0
H219 H 0.00489 0.13811 0.51766 0.0
C220 C 0.42249 0.68585 0.12026 0.0
C221 C 0.37789 0.68358 0.11042 0.0
C222 C 0.38263 0.61796 0.08409 0.0
C223 C 0.42561 0.62351 0.08051 0.0
N224 N 0.48924 0.65843 0.10425 0.0
N225 N 0.31476 0.6467 0.08941 0.0
C226 C 0.44666 0.65584 0.10309 0.0
C227 C 0.35773 0.64897 0.09595 0.0
N228 N 0.44111 0.71727 0.14415 0.0
N229 N 0.3658 0.58328 0.07374 0.0
H230 H 0.29581 0.66872 0.09899 0.0
H231 H 0.29773 0.6236 0.07296 0.0
H232 H 0.38434 0.56071 0.06477 0.0
H233 H 0.33517 0.57618 0.07862 0.0
H234 H 0.4735 0.72055 0.1549 0.0
H235 H 0.42345 0.73929 0.15684 0.0
H236 H 0.50676 0.68238 0.11523 0.0
H237 H 0.50704 0.63589 0.09343 0.0
C238 C 0.91648 0.85752 0.60645 0.0
C239 C 0.87287 0.86326 0.60769 0.0
C240 C 0.88049 0.92998 0.59129 0.0
C241 C 0.92201 0.92286 0.58128 0.0
N242 N 0.9843 0.88536 0.59736 0.0
N243 N 0.81614 0.90518 0.61849 0.0
C244 C 0.94174 0.88841 0.59597 0.0
C245 C 0.85599 0.89987 0.6067 0.0
N246 N 0.93271 0.82223 0.61135 0.0
N247 N 0.86408 0.96496 0.58219 0.0
H248 H 0.79809 0.88316 0.62979 0.0
H249 H 0.80208 0.93118 0.62089 0.0
H250 H 0.88256 0.98721 0.57263 0.0
H251 H 0.8328 0.97199 0.58366 0.0
H252 H 0.96312 0.81528 0.60501 0.0
H253 H 0.91498 0.79944 0.62066 0.0
H254 H 1.00173 0.86169 0.61042 0.0
H255 H 1.00256 0.90822 0.58949 0.0
C256 C 0.5967 0.35772 0.99123 0.0
C257 C 0.6389 0.3652 0.98381 0.0
C258 C 0.63181 0.42999 1.01343 0.0
C259 C 0.59148 0.42116 0.02619 0.0
N260 N 0.53002 0.38259 1.01157 0.0
N261 N 0.69295 0.40982 0.97321 0.0
C262 C 0.57199 0.38696 1.00918 0.0
C263 C 0.65513 0.40203 0.98968 0.0
N264 N 0.58125 0.32225 0.98423 0.0
N265 N 0.64838 0.46443 0.02701 0.0
H266 H 0.71061 0.38963 0.95612 0.0
H267 H 0.70549 0.43651 0.9727 0.0
H268 H 0.6307 0.4856 0.04194 0.0
H269 H 0.67933 0.47193 0.02457 0.0
H270 H 0.55251 0.31397 0.99488 0.0
H271 H 0.59819 0.30038 0.96987 0.0
H272 H 0.51263 0.35935 0.99638 0.0
H273 H 0.51181 0.40416 0.02446 0.0
C274 C 0.15457 0.94232 0.42242 0.0
C275 C 0.14624 0.95032 0.36551 0.0
C276 C 0.08811 0.99131 0.38144 0.0
C277 C 0.09121 0.9774 0.43541 0.0
N278 N 0.12765 0.94114 0.50942 0.0
N279 N 0.10391 0.98132 0.28968 0.0
C280 C 0.12506 0.95385 0.45696 0.0
C281 C 0.11321 0.97516 0.34478 0.0
N282 N 0.19065 0.92372 0.44304 0.0
N283 N 0.06066 0.01976 0.36536 0.0
H284 H 0.12142 0.97003 0.26123 0.0
H285 H 0.07705 0.9955 0.27163 0.0
H286 H 0.04202 0.03201 0.39183 0.0
H287 H 0.05941 0.03356 0.32815 0.0
H288 H 0.20045 0.91956 0.4847 0.0
H289 H 0.21276 0.91517 0.41851 0.0
H290 H 0.14859 0.92049 0.52588 0.0
H291 H 0.10738 0.95045 0.53601 0.0
C292 C 0.64005 0.63044 0.91139 0.0
C293 C 0.65493 0.60586 0.8732 0.0
C294 C 0.61689 0.55379 0.90727 0.0
C295 C 0.60069 0.57888 0.94359 0.0
N296 N 0.60667 0.63695 0.99292 0.0
N297 N 0.66682 0.54313 0.84375 0.0
C298 C 0.61587 0.61585 0.94996 0.0
C299 C 0.6465 0.56706 0.8743 0.0
N300 N 0.64663 0.668 0.90855 0.0
N301 N 0.60215 0.51804 0.9021 0.0
H302 H 0.68847 0.55227 0.81915 0.0
H303 H 0.66501 0.51422 0.84618 0.0
H304 H 0.5819 0.50713 0.92726 0.0
H305 H 0.6086 0.4996 0.8717 0.0
H306 H 0.63226 0.68763 0.93096 0.0
H307 H 0.66413 0.68001 0.88091 0.0
H308 H 0.61973 0.66309 1.00297 0.0
H309 H 0.58917 0.62647 0.02185 0.0
C310 C 0.85643 0.10363 0.34659 0.0
C311 C 0.88142 0.12768 0.31932 0.0
C312 C 0.94512 0.10778 0.38 0.0
C313 C 0.91991 0.0839 0.40734 0.0
N314 N 0.8514 0.06706 0.42762 0.0
N315 N 0.94724 0.15948 0.31746 0.0
C316 C 0.87541 0.08454 0.39414 0.0
C317 C 0.92509 0.13201 0.33856 0.0
N318 N 0.81509 0.09759 0.32556 0.0
N319 N 0.98811 0.10579 0.3912 0.0
H320 H 0.93354 0.1774 0.28663 0.0
H321 H 0.97806 0.16662 0.33362 0.0
H322 H 0.00412 0.08916 0.42204 0.0
H323 H 0.00811 0.119 0.36787 0.0
H324 H 0.79672 0.0771 0.34008 0.0
H325 H 0.79988 0.11102 0.29072 0.0
H326 H 0.8187 0.0693 0.4231 0.0
H327 H 0.86464 0.05343 0.4634 0.0
C328 C 0.37267 0.44092 0.83488 0.0
C329 C 0.39926 0.43438 0.79481 0.0
C330 C 0.46076 0.45351 0.8601 0.0
C331 C 0.43319 0.4667 0.89569 0.0
N332 N 0.3639 0.47116 0.92089 0.0
N333 N 0.46849 0.43437 0.76781 0.0
C334 C 0.38941 0.45923 0.88463 0.0
C335 C 0.44347 0.43989 0.80739 0.0
N336 N 0.33151 0.42981 0.82489 0.0
N337 N 0.50338 0.45486 0.87635 0.0
H338 H 0.45715 0.42368 0.72905 0.0
H339 H 0.49997 0.44238 0.77204 0.0
H340 H 0.51683 0.46485 0.91472 0.0
H341 H 0.52526 0.44292 0.85428 0.0
H342 H 0.31106 0.43107 0.85382 0.0
H343 H 0.31859 0.4165 0.78855 0.0
H344 H 0.33112 0.47076 0.91294 0.0
H345 H 0.37597 0.48263 0.95898 0.0
C346 C 0.64602 0.59444 0.28185 0.0
C347 C 0.61768 0.61396 0.31078 0.0
C348 C 0.55906 0.60057 0.23773 0.0
C349 C 0.58707 0.57923 0.21044 0.0
N350 N 0.65803 0.56622 0.1959 0.0
N351 N 0.55115 0.64521 0.30988 0.0
C352 C 0.63099 0.57996 0.22897 0.0
C353 C 0.57547 0.62041 0.28624 0.0
N354 N 0.68642 0.58763 0.30626 0.0
N355 N 0.51663 0.59976 0.21987 0.0
H356 H 0.56256 0.6599 0.34563 0.0
H357 H 0.52133 0.6538 0.29159 0.0
H358 H 0.50325 0.58681 0.18359 0.0
H359 H 0.49428 0.61051 0.24227 0.0
H360 H 0.70691 0.56968 0.28988 0.0
H361 H 0.6988 0.59817 0.34474 0.0
H362 H 0.69068 0.56855 0.2049 0.0
H363 H 0.64734 0.55582 0.15668 0.0
C364 C 0.88263 0.12493 0.72894 0.0
C365 C 0.87132 0.09679 0.76415 0.0
C366 C 0.90096 0.04863 0.71006 0.0
C367 C 0.91542 0.07718 0.67791 0.0
N368 N 0.90759 0.13956 0.64336 0.0
N369 N 0.85768 0.03207 0.77916 0.0
C370 C 0.9016 0.11438 0.68275 0.0
C371 C 0.87627 0.05859 0.75131 0.0
N372 N 0.87804 0.16171 0.74171 0.0
N373 N 0.91314 0.01252 0.70379 0.0
H374 H 0.83953 0.03893 0.80954 0.0
H375 H 0.85699 1.00384 0.76906 0.0
H376 H 0.92911 1.00389 0.67218 0.0
H377 H 0.90855 0.99121 0.73072 0.0
H378 H 0.89043 0.18344 0.72136 0.0
H379 H 0.86385 0.17059 0.77485 0.0
H380 H 0.89542 0.16655 0.64174 0.0
H381 H 0.92132 0.13192 0.60912 0.0
C382 C 0.39847 0.47213 0.26285 0.0
C383 C 0.36518 0.44762 0.24196 0.0
C384 C 0.38672 0.44992 0.1507 0.0
C385 C 0.42079 0.47315 0.1724 0.0
N386 N 0.45172 0.51567 0.24259 0.0
N387 N 0.32069 0.42093 0.16429 0.0
C388 C 0.42391 0.48753 0.22635 0.0
C389 C 0.35695 0.43918 0.18507 0.0
N390 N 0.40767 0.47868 0.31796 0.0
N391 N 0.38412 0.43682 0.09824 0.0
H392 H 0.29837 0.41298 0.18871 0.0
H393 H 0.31099 0.41647 0.12262 0.0
H394 H 0.40462 0.44558 0.0718 0.0
H395 H 0.36295 0.41636 0.08165 0.0
H396 H 0.43468 0.49258 0.33614 0.0
H397 H 0.38992 0.46795 0.34631 0.0
H398 H 0.45298 0.52982 0.27976 0.0
H399 H 0.47073 0.52732 0.21635 0.0
C400 C 0.14079 0.94022 0.77189 0.0
C401 C 0.11503 0.93616 0.81343 0.0
C402 C 0.05385 0.95857 0.75058 0.0
C403 C 0.08117 0.96912 0.71334 0.0
N404 N 0.14964 0.96885 0.68526 0.0
N405 N 0.04734 0.9426 0.8441 0.0
C406 C 0.12432 0.95902 0.72266 0.0
C407 C 0.07139 0.94493 0.80294 0.0
N408 N 0.18088 0.92621 0.7799 0.0
N409 N 0.01123 0.96244 0.7362 0.0
H410 H 0.05879 0.93233 0.88294 0.0
H411 H 0.01681 0.95312 0.84112 0.0
H412 H 0.99759 0.97244 0.69807 0.0
H413 H 0.9893 0.95239 0.75957 0.0
H414 H 0.20034 0.92553 0.74976 0.0
H415 H 0.1936 0.91246 0.81578 0.0
H416 H 0.18233 0.9664 0.69198 0.0
H417 H 0.1376 0.98073 0.6476 0.0
loop_
_geom_bond_atom_site_label_1
_geom_bond_atom_site_label_2
_geom_bond_distance
_geom_bond_site_symmetry_2
_ccdc_geom_bond_type
C0 C1 1.264 . S
C0 C5 1.479 . S
C0 C10 1.465 . S
C1 C0 1.264 . S
C1 C3 1.339 . S
C1 H28 0.931 . S
C2 C3 1.395 . S
C2 C4 1.320 . S
C3 C1 1.339 . S
C3 C2 1.395 . S
C3 H29 0.930 . S
C4 C2 1.320 . S
C4 C5 1.405 . S
C4 H30 0.930 . S
C5 C0 1.479 . S
C5 C4 1.405 . S
C5 H31 0.931 . S
U6 O7 2.454 . S
U6 O8 2.458 . S
U6 C9 2.984 . S
U6 C10 2.847 . S
U6 C23 2.882 1_554 S
U6 O24 2.441 . S
U6 O25 2.420 . S
U6 O26 2.455 . S
U6 O27 2.449 . S
O7 U6 2.454 . S
O7 C9 1.353 . S
O8 U6 2.458 . S
O8 C9 1.286 . S
C9 U6 2.984 . S
C9 O7 1.353 . S
C9 O8 1.286 . S
C9 C11 1.363 . S
C10 C0 1.465 . S
C10 U6 2.847 . S
C10 O24 1.249 . S
C10 O25 1.202 . S
C11 C9 1.363 . S
C11 C13 1.408 . S
C11 C16 1.342 . S
C12 C13 1.310 . S
C12 C15 1.461 . S
C12 H32 0.932 . S
C13 C11 1.408 . S
C13 C12 1.310 . S
C13 H33 0.930 . S
C14 C15 1.474 . S
C14 C16 1.285 . S
C14 H34 0.929 . S
C15 C12 1.461 . S
C15 C14 1.474 . S
C16 C11 1.342 . S
C16 C14 1.285 . S
C16 H35 0.930 . S
C17 C20 1.424 . S
C17 C22 1.245 . S
C17 C23 1.428 . S
C18 C21 1.260 . S
C18 C22 1.477 . S
C18 H36 0.932 . S
C19 C20 1.384 . S
C19 C21 1.479 . S
C19 H37 0.929 1_565 S
C20 C17 1.424 . S
C20 C19 1.384 . S
C20 H38 0.928 . S
C21 C18 1.260 . S
C21 C19 1.479 . S
C22 C17 1.245 . S
C22 C18 1.477 . S
C22 H39 0.932 . S
C23 U6 2.882 1_556 S
C23 C17 1.428 . S
C23 O26 1.301 1_556 S
C23 O27 1.282 1_556 S
O24 U6 2.441 . S
O24 C10 1.249 . S
O25 U6 2.420 . S
O25 C10 1.202 . S
O26 U6 2.455 . S
O26 C23 1.301 1_554 S
O27 U6 2.449 . S
O27 C23 1.282 1_554 S
H28 C1 0.931 . S
H29 C3 0.930 . S
H30 C4 0.930 . S
H31 C5 0.931 . S
H32 C12 0.932 . S
H33 C13 0.930 . S
H34 C14 0.929 . S
H35 C16 0.930 . S
H36 C18 0.932 . S
H37 C19 0.929 1_545 S
H38 C20 0.928 . S
H39 C22 0.932 . S
C40 C41 1.264 . S
C40 C45 1.479 . S
C40 C50 1.465 . S
C41 C40 1.264 . S
C41 C43 1.339 . S
C41 H68 0.931 . S
C42 C43 1.395 . S
C42 C44 1.320 . S
C43 C41 1.339 . S
C43 C42 1.395 . S
C43 H69 0.929 . S
C44 C42 1.320 . S
C44 C45 1.405 . S
C44 H70 0.930 . S
C45 C40 1.479 . S
C45 C44 1.405 . S
C45 H71 0.931 . S
U46 O47 2.454 . S
U46 O48 2.458 . S
U46 C49 2.984 . S
U46 C50 2.847 . S
U46 C63 2.882 . S
U46 O64 2.441 . S
U46 O65 2.420 . S
U46 O66 2.455 . S
U46 O67 2.449 . S
O47 U46 2.454 . S
O47 C49 1.353 . S
O48 U46 2.458 . S
O48 C49 1.286 . S
C49 U46 2.984 . S
C49 O47 1.353 . S
C49 O48 1.286 . S
C49 C51 1.363 . S
C50 C40 1.465 . S
C50 U46 2.847 . S
C50 O64 1.249 . S
C50 O65 1.202 . S
C51 C49 1.363 . S
C51 C53 1.408 . S
C51 C56 1.342 . S
C52 C53 1.310 . S
C52 C55 1.461 . S
C52 H72 0.932 . S
C53 C51 1.408 . S
C53 C52 1.310 . S
C53 H73 0.930 . S
C54 C55 1.474 . S
C54 C56 1.285 . S
C54 H74 0.929 . S
C55 C52 1.461 . S
C55 C54 1.474 . S
C56 C51 1.342 . S
C56 C54 1.285 . S
C56 H75 0.930 . S
C57 C60 1.424 . S
C57 C62 1.245 . S
C57 C63 1.428 . S
C58 C61 1.260 . S
C58 C62 1.477 . S
C58 H76 0.932 . S
C59 C60 1.384 . S
C59 C61 1.479 . S
C59 H77 0.929 . S
C60 C57 1.424 . S
C60 C59 1.384 . S
C60 H78 0.928 . S
C61 C58 1.260 . S
C61 C59 1.479 . S
C62 C57 1.245 . S
C62 C58 1.477 . S
C62 H79 0.932 . S
C63 U46 2.882 . S
C63 C57 1.428 . S
C63 O66 1.301 . S
C63 O67 1.282 . S
O64 U46 2.441 . S
O64 C50 1.249 . S
O65 U46 2.420 . S
O65 C50 1.202 . S
O66 U46 2.455 . S
O66 C63 1.301 . S
O67 U46 2.449 . S
O67 C63 1.282 . S
H68 C41 0.931 . S
H69 C43 0.929 . S
H70 C44 0.930 . S
H71 C45 0.931 . S
H72 C52 0.932 . S
H73 C53 0.930 . S
H74 C54 0.929 . S
H75 C56 0.930 . S
H76 C58 0.932 . S
H77 C59 0.929 . S
H78 C60 0.928 . S
H79 C62 0.932 . S
C80 C81 1.264 . S
C80 C85 1.479 . S
C80 C90 1.465 . S
C81 C80 1.264 . S
C81 C83 1.339 . S
C81 H108 0.931 . S
C82 C83 1.395 . S
C82 C84 1.320 . S
C83 C81 1.339 . S
C83 C82 1.395 . S
C83 H109 0.929 . S
C84 C82 1.320 . S
C84 C85 1.405 . S
C84 H110 0.930 . S
C85 C80 1.479 . S
C85 C84 1.405 . S
C85 H111 0.931 . S
U86 O87 2.454 . S
U86 O88 2.458 1_554 S
U86 C89 2.984 1_554 S
U86 C90 2.847 . S
U86 C103 2.882 1_554 S
U86 O104 2.441 . S
U86 O105 2.420 . S
U86 O106 2.455 1_554 S
U86 O107 2.449 1_554 S
O87 U86 2.454 . S
O87 C89 1.353 1_554 S
O88 U86 2.458 1_556 S
O88 C89 1.286 . S
C89 U86 2.984 1_556 S
C89 O87 1.353 1_556 S
C89 O88 1.286 . S
C89 C91 1.363 . S
C90 C80 1.465 . S
C90 U86 2.847 . S
C90 O104 1.249 . S
C90 O105 1.202 . S
C91 C89 1.363 . S
C91 C93 1.408 1_556 S
C91 C96 1.342 . S
C92 C93 1.310 . S
C92 C95 1.461 1_554 S
C92 H112 0.932 . S
C93 C91 1.408 1_554 S
C93 C92 1.310 . S
C93 H113 0.930 . S
C94 C95 1.474 . S
C94 C96 1.285 . S
C94 H114 0.929 . S
C95 C92 1.461 1_556 S
C95 C94 1.474 . S
C96 C91 1.342 . S
C96 C94 1.285 . S
C96 H115 0.930 . S
C97 C100 1.424 . S
C97 C102 1.245 . S
C97 C103 1.428 . S
C98 C101 1.260 . S
C98 C102 1.477 . S
C98 H116 0.932 . S
C99 C100 1.384 . S
C99 C101 1.479 . S
C99 H117 0.929 . S
C100 C97 1.424 . S
C100 C99 1.384 . S
C100 H118 0.928 . S
C101 C98 1.260 . S
C101 C99 1.479 . S
C102 C97 1.245 . S
C102 C98 1.477 . S
C102 H119 0.932 . S
C103 U86 2.882 1_556 S
C103 C97 1.428 . S
C103 O106 1.301 . S
C103 O107 1.282 . S
O104 U86 2.441 . S
O104 C90 1.249 . S
O105 U86 2.420 . S
O105 C90 1.202 . S
O106 U86 2.455 1_556 S
O106 C103 1.301 . S
O107 U86 2.449 1_556 S
O107 C103 1.282 . S
H108 C81 0.931 . S
H109 C83 0.929 . S
H110 C84 0.930 . S
H111 C85 0.931 . S
H112 C92 0.932 . S
H113 C93 0.930 . S
H114 C94 0.929 . S
H115 C96 0.930 . S
H116 C98 0.932 . S
H117 C99 0.929 . S
H118 C100 0.928 . S
H119 C102 0.932 . S
C120 C121 1.264 . S
C120 C125 1.479 . S
C120 C130 1.465 . S
C121 C120 1.264 . S
C121 C123 1.339 . S
C121 H148 0.931 . S
C122 C123 1.395 . S
C122 C124 1.320 . S
C123 C121 1.339 . S
C123 C122 1.395 . S
C123 H149 0.929 . S
C124 C122 1.320 . S
C124 C125 1.405 . S
C124 H150 0.930 . S
C125 C120 1.479 . S
C125 C124 1.405 . S
C125 H151 0.931 . S
U126 O127 2.454 . S
U126 O128 2.458 . S
U126 C129 2.984 . S
U126 C130 2.847 . S
U126 C143 2.882 . S
U126 O144 2.441 . S
U126 O145 2.420 . S
U126 O146 2.455 . S
U126 O147 2.449 . S
O127 U126 2.454 . S
O127 C129 1.353 . S
O128 U126 2.458 . S
O128 C129 1.286 . S
C129 U126 2.984 . S
C129 O127 1.353 . S
C129 O128 1.286 . S
C129 C131 1.363 . S
C130 C120 1.465 . S
C130 U126 2.847 . S
C130 O144 1.249 . S
C130 O145 1.202 . S
C131 C129 1.363 . S
C131 C133 1.408 . S
C131 C136 1.342 . S
C132 C133 1.310 . S
C132 C135 1.461 . S
C132 H152 0.932 . S
C133 C131 1.408 . S
C133 C132 1.310 . S
C133 H153 0.930 . S
C134 C135 1.474 . S
C134 C136 1.285 . S
C134 H154 0.929 . S
C135 C132 1.461 . S
C135 C134 1.474 . S
C136 C131 1.342 . S
C136 C134 1.285 . S
C136 H155 0.930 . S
C137 C140 1.424 . S
C137 C142 1.245 . S
C137 C143 1.428 . S
C138 C141 1.260 . S
C138 C142 1.477 . S
C138 H156 0.932 . S
C139 C140 1.384 . S
C139 C141 1.479 . S
C139 H157 0.929 . S
C140 C137 1.424 . S
C140 C139 1.384 . S
C140 H158 0.928 . S
C141 C138 1.260 . S
C141 C139 1.479 . S
C142 C137 1.245 . S
C142 C138 1.477 . S
C142 H159 0.932 . S
C143 U126 2.882 . S
C143 C137 1.428 . S
C143 O146 1.301 . S
C143 O147 1.282 . S
O144 U126 2.441 . S
O144 C130 1.249 . S
O145 U126 2.420 . S
O145 C130 1.202 . S
O146 U126 2.455 . S
O146 C143 1.301 . S
O147 U126 2.449 . S
O147 C143 1.282 . S
H148 C121 0.931 . S
H149 C123 0.929 . S
H150 C124 0.930 . S
H151 C125 0.931 . S
H152 C132 0.932 . S
H153 C133 0.930 . S
H154 C134 0.929 . S
H155 C136 0.930 . S
H156 C138 0.932 . S
H157 C139 0.929 . S
H158 C140 0.928 . S
H159 C142 0.932 . S
O160 Mg161 1.990 1_655 S
O160 C174 1.253 . S
Mg161 O160 1.990 1_455 S
Mg161 O164 2.180 . S
Mg161 O165 2.117 . S
Mg161 O179 2.030 . S
O162 Mg163 2.072 1_655 S
O162 C174 1.260 . S
Mg163 O162 2.072 1_455 S
Mg163 O164 2.099 . S
Mg163 O166 2.079 1_545 S
Mg163 O167 2.072 1_455 S
Mg163 O169 2.099 1_445 S
Mg163 O180 2.079 1_545 S
O164 Mg161 2.180 . S
O164 Mg163 2.099 . S
O164 C175 1.279 . S
O165 Mg161 2.117 . S
O165 C175 1.250 . S
O166 Mg163 2.079 1_565 S
O166 C176 1.264 . S
O167 Mg163 2.072 1_655 S
O167 C177 1.260 . S
Mg168 O169 2.180 . S
Mg168 O170 2.030 1_655 S
Mg168 O171 1.990 1_565 S
Mg168 O172 2.117 . S
O169 Mg163 2.099 1_665 S
O169 Mg168 2.180 . S
O169 C178 1.279 . S
O170 Mg168 2.030 1_455 S
O170 C176 1.248 . S
O171 Mg168 1.990 1_545 S
O171 C177 1.253 . S
O172 Mg168 2.117 . S
O172 C178 1.250 . S
C173 O179 1.248 1_565 S
C173 O180 1.264 . S
C174 O160 1.253 . S
C174 O162 1.260 . S
C175 O164 1.279 . S
C175 O165 1.250 . S
C176 O166 1.264 . S
C176 O170 1.248 . S
C177 O167 1.260 . S
C177 O171 1.253 . S
C178 O169 1.279 . S
C178 O172 1.250 . S
O179 Mg161 2.030 . S
O179 C173 1.248 1_545 S
O180 Mg163 2.079 1_565 S
O180 C173 1.264 . S
O181 Mg182 1.990 . S
O181 C195 1.253 . S
Mg182 O181 1.990 . S
Mg182 O185 2.180 . S
Mg182 O186 2.117 . S
Mg182 O200 2.030 . S
O183 Mg184 2.072 . S
O183 C195 1.260 . S
Mg184 O183 2.072 . S
Mg184 O185 2.099 . S
Mg184 O187 2.079 1_554 S
Mg184 O188 2.072 1_554 S
Mg184 O190 2.099 . S
Mg184 O201 2.079 . S
O185 Mg182 2.180 . S
O185 Mg184 2.099 . S
O185 C196 1.279 . S
O186 Mg182 2.117 . S
O186 C196 1.250 . S
O187 Mg184 2.079 1_556 S
O187 C197 1.264 . S
O188 Mg184 2.072 1_556 S
O188 C198 1.260 . S
Mg189 O190 2.180 1_556 S
Mg189 O191 2.030 . S
Mg189 O192 1.990 . S
Mg189 O193 2.117 . S
O190 Mg184 2.099 . S
O190 Mg189 2.180 1_554 S
O190 C199 1.279 . S
O191 Mg189 2.030 . S
O191 C197 1.248 . S
O192 Mg189 1.990 . S
O192 C198 1.253 . S
O193 Mg189 2.117 . S
O193 C199 1.250 1_556 S
C194 O200 1.248 . S
C194 O201 1.264 . S
C195 O181 1.253 . S
C195 O183 1.260 . S
C196 O185 1.279 . S
C196 O186 1.250 . S
C197 O187 1.264 . S
C197 O191 1.248 . S
C198 O188 1.260 . S
C198 O192 1.253 . S
C199 O190 1.279 . S
C199 O193 1.250 1_554 S
O200 Mg182 2.030 . S
O200 C194 1.248 . S
O201 Mg184 2.079 . S
O201 C194 1.264 . S
C202 C203 1.363 . S
C202 C208 1.379 . S
C202 N210 1.356 . S
C203 C202 1.363 . S
C203 C209 1.363 . S
C204 C205 1.363 . S
C204 C209 1.379 . S
C204 N211 1.356 . S
C205 C204 1.363 . S
C205 C208 1.363 . S
N206 C208 1.356 . S
N206 H218 0.984 . S
N206 H219 0.985 . S
N207 C209 1.356 . S
N207 H212 0.984 . S
N207 H213 0.985 . S
C208 C202 1.379 . S
C208 C205 1.363 . S
C208 N206 1.356 . S
C209 C203 1.363 . S
C209 C204 1.379 . S
C209 N207 1.356 . S
N210 C202 1.356 . S
N210 H216 0.984 . S
N210 H217 0.984 . S
N211 C204 1.356 . S
N211 H214 0.984 . S
N211 H215 0.985 . S
H212 N207 0.984 . S
H213 N207 0.985 . S
H214 N211 0.984 . S
H215 N211 0.985 . S
H216 N210 0.984 . S
H217 N210 0.984 . S
H218 N206 0.984 . S
H219 N206 0.985 . S
C220 C221 1.363 . S
C220 C226 1.379 . S
C220 N228 1.356 . S
C221 C220 1.363 . S
C221 C227 1.363 . S
C222 C223 1.363 . S
C222 C227 1.379 . S
C222 N229 1.356 . S
C223 C222 1.363 . S
C223 C226 1.363 . S
N224 C226 1.356 . S
N224 H236 0.984 . S
N224 H237 0.985 . S
N225 C227 1.356 . S
N225 H230 0.984 . S
N225 H231 0.985 . S
C226 C220 1.379 . S
C226 C223 1.363 . S
C226 N224 1.356 . S
C227 C221 1.363 . S
C227 C222 1.379 . S
C227 N225 1.356 . S
N228 C220 1.356 . S
N228 H234 0.984 . S
N228 H235 0.984 . S
N229 C222 1.356 . S
N229 H232 0.984 . S
N229 H233 0.985 1_554 S
H230 N225 0.984 . S
H231 N225 0.985 . S
H232 N229 0.984 . S
H233 N229 0.985 1_556 S
H234 N228 0.984 . S
H235 N228 0.984 . S
H236 N224 0.984 . S
H237 N224 0.985 . S
C238 C239 1.363 . S
C238 C244 1.379 . S
C238 N246 1.356 . S
C239 C238 1.363 . S
C239 C245 1.363 . S
C240 C241 1.363 . S
C240 C245 1.379 . S
C240 N247 1.356 . S
C241 C240 1.363 . S
C241 C244 1.363 . S
N242 C244 1.356 . S
N242 H254 0.984 . S
N242 H255 0.985 . S
N243 C245 1.356 . S
N243 H248 0.984 . S
N243 H249 0.985 . S
C244 C238 1.379 . S
C244 C241 1.363 . S
C244 N242 1.356 . S
C245 C239 1.363 . S
C245 C240 1.379 . S
C245 N243 1.356 . S
N246 C238 1.356 . S
N246 H252 0.984 . S
N246 H253 0.984 . S
N247 C240 1.356 . S
N247 H250 0.984 . S
N247 H251 0.985 . S
H248 N243 0.984 . S
H249 N243 0.985 . S
H250 N247 0.984 . S
H251 N247 0.985 . S
H252 N246 0.984 . S
H253 N246 0.984 . S
H254 N242 0.984 . S
H255 N242 0.985 . S
C256 C257 1.363 1_554 S
C256 C262 1.379 . S
C256 N264 1.356 . S
C257 C256 1.363 1_556 S
C257 C263 1.363 . S
C258 C259 1.363 1_556 S
C258 C263 1.379 . S
C258 N265 1.356 . S
C259 C258 1.363 1_554 S
C259 C262 1.363 . S
N260 C262 1.356 . S
N260 H272 0.984 . S
N260 H273 0.985 . S
N261 C263 1.356 . S
N261 H266 0.984 . S
N261 H267 0.985 . S
C262 C256 1.379 . S
C262 C259 1.363 . S
C262 N260 1.356 . S
C263 C257 1.363 . S
C263 C258 1.379 . S
C263 N261 1.356 . S
N264 C256 1.356 . S
N264 H270 0.984 . S
N264 H271 0.984 . S
N265 C258 1.356 . S
N265 H268 0.984 . S
N265 H269 0.985 . S
H266 N261 0.984 . S
H267 N261 0.985 . S
H268 N265 0.984 . S
H269 N265 0.985 . S
H270 N264 0.984 . S
H271 N264 0.984 . S
H272 N260 0.984 . S
H273 N260 0.985 . S
C274 C275 1.363 . S
C274 C280 1.379 . S
C274 N282 1.356 1_565 S
C275 C274 1.363 . S
C275 C281 1.363 . S
C276 C277 1.363 . S
C276 C281 1.379 . S
C276 N283 1.356 . S
C277 C276 1.363 . S
C277 C280 1.363 . S
N278 C280 1.356 1_545 S
N278 H290 0.984 . S
N278 H291 0.985 . S
N279 C281 1.356 . S
N279 H284 0.984 . S
N279 H285 0.985 . S
C280 C274 1.379 . S
C280 C277 1.363 . S
C280 N278 1.356 1_565 S
C281 C275 1.363 . S
C281 C276 1.379 . S
C281 N279 1.356 . S
N282 C274 1.356 1_545 S
N282 H288 0.984 . S
N282 H289 0.977 1_545 S
N283 C276 1.356 . S
N283 H286 0.984 . S
N283 H287 0.985 . S
H284 N279 0.984 . S
H285 N279 0.985 . S
H286 N283 0.984 . S
H287 N283 0.985 . S
H288 N282 0.984 . S
H289 N282 0.977 1_565 S
H290 N278 0.984 . S
H291 N278 0.985 . S
C292 C293 1.363 . S
C292 C298 1.379 . S
C292 N300 1.356 . S
C293 C292 1.363 . S
C293 C299 1.363 . S
C294 C295 1.363 . S
C294 C299 1.379 . S
C294 N301 1.356 . S
C295 C294 1.363 . S
C295 C298 1.363 . S
N296 C298 1.356 . S
N296 H308 0.984 . S
N296 H309 0.985 . S
N297 C299 1.356 . S
N297 H302 0.984 . S
N297 H303 0.985 . S
C298 C292 1.379 . S
C298 C295 1.363 . S
C298 N296 1.356 . S
C299 C293 1.363 . S
C299 C294 1.379 . S
C299 N297 1.356 . S
N300 C292 1.356 . S
N300 H306 0.984 . S
N300 H307 0.984 . S
N301 C294 1.356 . S
N301 H304 0.984 . S
N301 H305 0.985 . S
H302 N297 0.984 . S
H303 N297 0.985 . S
H304 N301 0.984 . S
H305 N301 0.985 . S
H306 N300 0.984 . S
H307 N300 0.984 . S
H308 N296 0.984 . S
H309 N296 0.985 . S
C310 C311 1.363 . S
C310 C316 1.379 . S
C310 N318 1.356 . S
C311 C310 1.363 . S
C311 C317 1.363 . S
C312 C313 1.363 . S
C312 C317 1.379 . S
C312 N319 1.356 . S
C313 C312 1.363 . S
C313 C316 1.363 . S
N314 C316 1.356 . S
N314 H326 0.984 1_545 S
N314 H327 0.985 . S
N315 C317 1.356 . S
N315 H320 0.984 . S
N315 H321 0.985 . S
C316 C310 1.379 . S
C316 C313 1.363 . S
C316 N314 1.356 . S
C317 C311 1.363 . S
C317 C312 1.379 . S
C317 N315 1.356 . S
N318 C310 1.356 . S
N318 H324 0.984 1_545 S
N318 H325 0.984 . S
N319 C312 1.356 . S
N319 H322 0.984 . S
N319 H323 0.985 . S
H320 N315 0.984 . S
H321 N315 0.985 . S
H322 N319 0.984 . S
H323 N319 0.985 . S
H324 N318 0.984 1_565 S
H325 N318 0.984 . S
H326 N314 0.984 1_565 S
H327 N314 0.985 . S
C328 C329 1.363 . S
C328 C334 1.379 . S
C328 N336 1.356 . S
C329 C328 1.363 . S
C329 C335 1.363 . S
C330 C331 1.363 . S
C330 C335 1.379 . S
C330 N337 1.356 . S
C331 C330 1.363 . S
C331 C334 1.363 . S
N332 C334 1.356 . S
N332 H344 0.984 . S
N332 H345 0.985 . S
N333 C335 1.356 . S
N333 H338 0.984 . S
N333 H339 0.985 . S
C334 C328 1.379 . S
C334 C331 1.363 . S
C334 N332 1.356 . S
C335 C329 1.363 . S
C335 C330 1.379 . S
C335 N333 1.356 . S
N336 C328 1.356 . S
N336 H342 0.984 . S
N336 H343 0.984 . S
N337 C330 1.356 . S
N337 H340 0.984 . S
N337 H341 0.985 . S
H338 N333 0.984 . S
H339 N333 0.985 . S
H340 N337 0.984 . S
H341 N337 0.985 . S
H342 N336 0.984 . S
H343 N336 0.984 . S
H344 N332 0.984 . S
H345 N332 0.985 . S
C346 C347 1.363 . S
C346 C352 1.379 . S
C346 N354 1.356 . S
C347 C346 1.363 . S
C347 C353 1.363 . S
C348 C349 1.363 . S
C348 C353 1.379 . S
C348 N355 1.356 . S
C349 C348 1.363 . S
C349 C352 1.363 . S
N350 C352 1.356 . S
N350 H362 0.984 . S
N350 H363 0.985 . S
N351 C353 1.356 . S
N351 H356 0.984 . S
N351 H357 0.985 . S
C352 C346 1.379 . S
C352 C349 1.363 . S
C352 N350 1.356 . S
C353 C347 1.363 . S
C353 C348 1.379 . S
C353 N351 1.356 . S
N354 C346 1.356 . S
N354 H360 0.984 . S
N354 H361 0.984 . S
N355 C348 1.356 . S
N355 H358 0.984 . S
N355 H359 0.985 . S
H356 N351 0.984 . S
H357 N351 0.985 . S
H358 N355 0.984 . S
H359 N355 0.985 . S
H360 N354 0.984 . S
H361 N354 0.984 . S
H362 N350 0.984 . S
H363 N350 0.985 . S
C364 C365 1.363 . S
C364 C370 1.379 . S
C364 N372 1.356 . S
C365 C364 1.363 . S
C365 C371 1.363 . S
C366 C367 1.363 . S
C366 C371 1.379 . S
C366 N373 1.356 1_545 S
C367 C366 1.363 . S
C367 C370 1.363 . S
N368 C370 1.356 . S
N368 H380 0.984 . S
N368 H381 0.985 . S
N369 C371 1.356 . S
N369 H374 0.984 . S
N369 H375 0.985 1_545 S
C370 C364 1.379 . S
C370 C367 1.363 . S
C370 N368 1.356 . S
C371 C365 1.363 . S
C371 C366 1.379 . S
C371 N369 1.356 . S
N372 C364 1.356 . S
N372 H378 0.984 . S
N372 H379 0.984 . S
N373 C366 1.356 1_565 S
N373 H376 0.984 . S
N373 H377 0.985 . S
H374 N369 0.984 . S
H375 N369 0.985 1_565 S
H376 N373 0.984 . S
H377 N373 0.985 . S
H378 N372 0.984 . S
H379 N372 0.984 . S
H380 N368 0.984 . S
H381 N368 0.985 . S
C382 C383 1.363 . S
C382 C388 1.379 . S
C382 N390 1.356 . S
C383 C382 1.363 . S
C383 C389 1.363 . S
C384 C385 1.363 . S
C384 C389 1.379 . S
C384 N391 1.356 . S
C385 C384 1.363 . S
C385 C388 1.363 . S
N386 C388 1.356 . S
N386 H398 0.984 . S
N386 H399 0.985 . S
N387 C389 1.356 . S
N387 H392 0.984 . S
N387 H393 0.985 . S
C388 C382 1.379 . S
C388 C385 1.363 . S
C388 N386 1.356 . S
C389 C383 1.363 . S
C389 C384 1.379 . S
C389 N387 1.356 . S
N390 C382 1.356 . S
N390 H396 0.984 . S
N390 H397 0.984 . S
N391 C384 1.356 . S
N391 H394 0.984 . S
N391 H395 0.985 . S
H392 N387 0.984 . S
H393 N387 0.985 . S
H394 N391 0.984 . S
H395 N391 0.985 . S
H396 N390 0.984 . S
H397 N390 0.984 . S
H398 N386 0.984 . S
H399 N386 0.985 . S
C400 C401 1.363 . S
C400 C406 1.379 . S
C400 N408 1.356 . S
C401 C400 1.363 . S
C401 C407 1.363 1_565 S
C402 C403 1.363 1_545 S
C402 C407 1.379 . S
C402 N409 1.356 . S
C403 C402 1.363 1_565 S
C403 C406 1.363 . S
N404 C406 1.356 . S
N404 H416 0.984 . S
N404 H417 0.985 . S
N405 C407 1.356 . S
N405 H410 0.984 . S
N405 H411 0.985 . S
C406 C400 1.379 . S
C406 C403 1.363 . S
C406 N404 1.356 . S
C407 C401 1.363 1_545 S
C407 C402 1.379 . S
C407 N405 1.356 . S
N408 C400 1.356 . S
N408 H414 0.984 . S
N408 H415 0.984 . S
N409 C402 1.356 . S
N409 H412 0.984 . S
N409 H413 0.985 . S
H410 N405 0.984 . S
H411 N405 0.985 . S
H412 N409 0.984 . S
H413 N409 0.985 . S
H414 N408 0.984 . S
H415 N408 0.984 . S
H416 N404 0.984 . S
H417 N404 0.985 . S
C205 C175 1.487 . S
C203 C135 1.614 . S
C221 C15 1.611 . S
C223 C199 1.476 . S
C239 C55 1.697 . S
C241 C178 1.537 . S
C257 C95 1.717 . S
C259 C196 1.568 . S
C277 C176 1.736 . S
C275 C2 1.715 . S
C295 C198 1.653 . S
C293 C42 1.605 . S
C311 C82 1.642 . S
C313 C177 1.521 . S
C329 C141 1.695 . S
C331 C197 1.573 . S
C349 C195 1.548 . S
C347 C61 1.580 . S
C367 C174 1.686 . S
C365 C101 1.694 . S
C385 C194 1.758 . S
C383 C122 1.739 . S
C401 C21 1.718 . S
C403 C173 1.598 . S
