# Generated by pormake.
# Topology pyr, (3,6)-cn, num edge types: 1
# Building blocks:
#     Node 0, Type 0, BuildingBlock: WUSLED_clean_sbu_0, # of connection points: 3
#     Node 1, Type 0, BuildingBlock: WUSLED_clean_sbu_0, # of connection points: 3
#     Node 2, Type 0, BuildingBlock: WUSLED_clean_sbu_0, # of connection points: 3
#     Node 3, Type 0, BuildingBlock: WUSLED_clean_sbu_0, # of connection points: 3
#     Node 4, Type 0, BuildingBlock: WUSLED_clean_sbu_0, # of connection points: 3
#     Node 5, Type 0, BuildingBlock: WUSLED_clean_sbu_0, # of connection points: 3
#     Node 6, Type 0, BuildingBlock: WUSLED_clean_sbu_0, # of connection points: 3
#     Node 7, Type 0, BuildingBlock: WUSLED_clean_sbu_0, # of connection points: 3
#     Node 8, Type 1, BuildingBlock: LEVNOQ01_clean_sbu_1, # of connection points: 6
#     Node 9, Type 1, BuildingBlock: LEVNOQ01_clean_sbu_1, # of connection points: 6
#     Node 10, Type 1, BuildingBlock: LEVNOQ01_clean_sbu_1, # of connection points: 6
#     Node 11, Type 1, BuildingBlock: LEVNOQ01_clean_sbu_1, # of connection points: 6
#     Edge 12, Type (0, 1), BuildingBlock: UVAHIK_clean_linker_0, # of connection points: 2
#     Edge 13, Type (0, 1), BuildingBlock: UVAHIK_clean_linker_0, # of connection points: 2
#     Edge 14, Type (0, 1), BuildingBlock: UVAHIK_clean_linker_0, # of connection points: 2
#     Edge 15, Type (0, 1), BuildingBlock: UVAHIK_clean_linker_0, # of connection points: 2
#     Edge 16, Type (0, 1), BuildingBlock: UVAHIK_clean_linker_0, # of connection points: 2
#     Edge 17, Type (0, 1), BuildingBlock: UVAHIK_clean_linker_0, # of connection points: 2
#     Edge 18, Type (0, 1), BuildingBlock: UVAHIK_clean_linker_0, # of connection points: 2
#     Edge 19, Type (0, 1), BuildingBlock: UVAHIK_clean_linker_0, # of connection points: 2
#     Edge 20, Type (0, 1), BuildingBlock: UVAHIK_clean_linker_0, # of connection points: 2
#     Edge 21, Type (0, 1), BuildingBlock: UVAHIK_clean_linker_0, # of connection points: 2
#     Edge 22, Type (0, 1), BuildingBlock: UVAHIK_clean_linker_0, # of connection points: 2
#     Edge 23, Type (0, 1), BuildingBlock: UVAHIK_clean_linker_0, # of connection points: 2
#     Edge 24, Type (0, 1), BuildingBlock: UVAHIK_clean_linker_0, # of connection points: 2
#     Edge 25, Type (0, 1), BuildingBlock: UVAHIK_clean_linker_0, # of connection points: 2
#     Edge 26, Type (0, 1), BuildingBlock: UVAHIK_clean_linker_0, # of connection points: 2
#     Edge 27, Type (0, 1), BuildingBlock: UVAHIK_clean_linker_0, # of connection points: 2
#     Edge 28, Type (0, 1), BuildingBlock: UVAHIK_clean_linker_0, # of connection points: 2
#     Edge 29, Type (0, 1), BuildingBlock: UVAHIK_clean_linker_0, # of connection points: 2
#     Edge 30, Type (0, 1), BuildingBlock: UVAHIK_clean_linker_0, # of connection points: 2
#     Edge 31, Type (0, 1), BuildingBlock: UVAHIK_clean_linker_0, # of connection points: 2
#     Edge 32, Type (0, 1), BuildingBlock: UVAHIK_clean_linker_0, # of connection points: 2
#     Edge 33, Type (0, 1), BuildingBlock: UVAHIK_clean_linker_0, # of connection points: 2
#     Edge 34, Type (0, 1), BuildingBlock: UVAHIK_clean_linker_0, # of connection points: 2
#     Edge 35, Type (0, 1), BuildingBlock: UVAHIK_clean_linker_0, # of connection points: 2
# Relax obj value: 0.034
# Max RMSD: 0.110
# Mean RMSD: 0.044
data_MOF--net-pry--node1-WUSLED_clean_sbu_0--node2-LEVNOQ01_clean_sbu_1--edge1-UVAHIK_clean_linker_0
_symmetry_space_group_name_H-M    P1
_symmetry_Int_Tables_number       1
_symmetry_cell_setting            triclinic
loop_
_symmetry_equiv_pos_as_xyz
'x, y, z'
_cell_length_a     59.080057
_cell_length_b     57.493986
_cell_length_c     57.295171
_cell_angle_alpha  92.276476
_cell_angle_beta   90.861458
_cell_angle_gamma 93.608674
loop_
_atom_site_label
_atom_site_type_symbol
_atom_site_fract_x
_atom_site_fract_y
_atom_site_fract_z
_atom_type_partial_charge
C0 C 0.13073 0.19951 0.09783 0.0
C1 C 0.10954 0.20307 0.10782 0.0
C2 C 0.10789 0.23997 0.08825 0.0
C3 C 0.0981 0.22313 0.10291 0.0
C4 C 0.12884 0.23596 0.07805 0.0
C5 C 0.14006 0.21597 0.08275 0.0
U6 U 0.14591 0.14586 0.13296 0.0
O7 O 0.16041 0.11347 0.12004 0.0
O8 O 0.17973 0.13713 0.14516 0.0
C9 C 0.17947 0.11787 0.13202 0.0
C10 C 0.14413 0.1795 0.10325 0.0
C11 C 0.20082 0.11291 0.1203 0.0
C12 C 0.22699 0.11515 0.08782 0.0
C13 C 0.20662 0.12118 0.09825 0.0
C14 C 0.2358 0.09292 0.12144 0.0
C15 C 0.24161 0.10063 0.09923 0.0
C16 C 0.2157 0.09901 0.13181 0.0
C17 C 0.10875 0.12718 0.18554 0.0
C18 C 0.11815 0.10184 0.21699 0.0
C19 C 0.08201 0.11948 0.21655 0.0
C20 C 0.08765 0.13004 0.1957 0.0
C21 C 0.09735 0.10569 0.22777 0.0
C22 C 0.12389 0.11265 0.19606 0.0
C23 C 0.11483 0.1411 0.16515 0.0
O24 O 0.15595 0.18153 0.12291 0.0
O25 O 0.13445 0.15848 0.09915 0.0
O26 O 0.11293 0.13045 0.14442 0.0
O27 O 0.13304 0.15537 0.16761 0.0
H28 H 0.10207 0.19058 0.11959 0.0
H29 H 0.08199 0.22579 0.11104 0.0
H30 H 0.13663 0.24841 0.06643 0.0
H31 H 0.15632 0.21353 0.0748 0.0
H32 H 0.23105 0.12133 0.07066 0.0
H33 H 0.19538 0.13202 0.08908 0.0
H34 H 0.24686 0.08208 0.13086 0.0
H35 H 0.21163 0.09261 0.14889 0.0
H36 H 0.13032 0.09131 0.22522 0.0
H37 H 0.06573 0.12248 0.22417 0.0
H38 H 0.0757 0.14109 0.18784 0.0
H39 H 0.14031 0.1102 0.18848 0.0
C40 C 0.31617 0.89017 0.59397 0.0
C41 C 0.30636 0.90477 0.61073 0.0
C42 C 0.27612 0.91198 0.58302 0.0
C43 C 0.28648 0.91567 0.60525 0.0
C44 C 0.28654 0.89801 0.56614 0.0
C45 C 0.30636 0.88724 0.57158 0.0
U46 U 0.36825 0.8787 0.63175 0.0
O47 O 0.38073 0.84548 0.64245 0.0
O48 O 0.40195 0.86864 0.62095 0.0
C49 C 0.39962 0.8484 0.6308 0.0
C50 C 0.33609 0.87715 0.59952 0.0
C51 C 0.40602 0.8282 0.6166 0.0
C52 C 0.3986 0.79855 0.58559 0.0
C53 C 0.39215 0.81835 0.59822 0.0
C54 C 0.43275 0.79858 0.6096 0.0
C55 C 0.41896 0.78838 0.59124 0.0
C56 C 0.42636 0.81832 0.62207 0.0
C57 C 0.38459 0.91748 0.68591 0.0
C58 C 0.41017 0.90798 0.71737 0.0
C59 C 0.39771 0.94719 0.71499 0.0
C60 C 0.38518 0.94051 0.69477 0.0
C61 C 0.40987 0.93091 0.72687 0.0
C62 C 0.39755 0.90128 0.69699 0.0
C63 C 0.36985 0.91086 0.66551 0.0
O64 O 0.35594 0.88839 0.59721 0.0
O65 O 0.33475 0.86499 0.61847 0.0
O66 O 0.3577 0.89097 0.66647 0.0
O67 O 0.37898 0.91417 0.64504 0.0
H68 H 0.3138 0.90732 0.62811 0.0
H69 H 0.27879 0.9263 0.61861 0.0
H70 H 0.27918 0.89519 0.54875 0.0
H71 H 0.3138 0.87621 0.55838 0.0
H72 H 0.38769 0.79124 0.57144 0.0
H73 H 0.37636 0.82586 0.59379 0.0
H74 H 0.44827 0.79099 0.6148 0.0
H75 H 0.43718 0.8257 0.63627 0.0
H76 H 0.41945 0.89509 0.72613 0.0
H77 H 0.39758 0.9651 0.72159 0.0
H78 H 0.37554 0.9533 0.68627 0.0
H79 H 0.39751 0.88341 0.69021 0.0
C80 C 0.59538 0.40689 0.82532 0.0
C81 C 0.61158 0.42367 0.81757 0.0
C82 C 0.58775 0.42957 0.78366 0.0
C83 C 0.60775 0.43502 0.79685 0.0
C84 C 0.57103 0.41386 0.79234 0.0
C85 C 0.57485 0.40256 0.81299 0.0
U86 U 0.63384 0.39249 0.8755 0.0
O87 O 0.62604 0.37825 0.90982 0.0
O88 O 0.64645 0.35894 0.88486 0.0
C89 C 0.63592 0.35883 0.90489 0.0
C90 C 0.60051 0.39227 0.84485 0.0
C91 C 0.62272 0.33704 0.90948 0.0
C92 C 0.59427 0.30614 0.898 0.0
C93 C 0.60538 0.32786 0.89409 0.0
C94 C 0.61725 0.30311 0.93303 0.0
C95 C 0.60024 0.29352 0.91745 0.0
C96 C 0.62843 0.32464 0.92902 0.0
C97 C 0.68753 0.43142 0.88839 0.0
C98 C 0.71582 0.42153 0.91685 0.0
C99 C 0.72218 0.45603 0.89424 0.0
C100 C 0.7012 0.45117 0.88294 0.0
C101 C 0.72983 0.44115 0.91118 0.0
C102 C 0.69483 0.4167 0.90553 0.0
C103 C 0.66617 0.42592 0.87542 0.0
O104 O 0.61841 0.3801 0.84189 0.0
O105 O 0.59956 0.40221 0.86585 0.0
O106 O 0.64759 0.42743 0.88759 0.0
O107 O 0.66586 0.40712 0.86158 0.0
H108 H 0.62755 0.42719 0.82698 0.0
H109 H 0.62094 0.44697 0.79048 0.0
H110 H 0.55534 0.4096 0.78262 0.0
H111 H 0.56216 0.38974 0.81881 0.0
H112 H 0.58109 0.29919 0.88584 0.0
H113 H 0.60075 0.33728 0.8789 0.0
H114 H 0.62237 0.29363 0.94799 0.0
H115 H 0.64187 0.33142 0.94096 0.0
H116 H 0.72108 0.40993 0.93006 0.0
H117 H 0.73265 0.47111 0.88928 0.0
H118 H 0.69581 0.46264 0.86966 0.0
H119 H 0.6844 0.40137 0.90995 0.0
C120 C 0.82919 0.57181 0.4148 0.0
C121 C 0.82285 0.58828 0.4318 0.0
C122 C 0.7883 0.56437 0.43902 0.0
C123 C 0.80256 0.58461 0.44379 0.0
C124 C 0.79522 0.54752 0.4226 0.0
C125 C 0.81547 0.55126 0.41056 0.0
U126 U 0.8825 0.60896 0.39966 0.0
O127 O 0.91489 0.59856 0.38524 0.0
O128 O 0.89357 0.62121 0.36559 0.0
C129 C 0.91195 0.6095 0.3658 0.0
C130 C 0.84913 0.57655 0.40024 0.0
C131 C 0.91687 0.59696 0.34379 0.0
C132 C 0.91117 0.5643 0.31549 0.0
C133 C 0.90636 0.57504 0.33716 0.0
C134 C 0.93677 0.59741 0.30714 0.0
C135 C 0.92649 0.57542 0.3002 0.0
C136 C 0.93208 0.60794 0.32868 0.0
C137 C 0.89955 0.66409 0.43817 0.0
C138 C 0.92769 0.69472 0.4282 0.0
C139 C 0.90695 0.69823 0.46417 0.0
C140 C 0.89537 0.67667 0.4589 0.0
C141 C 0.92307 0.70774 0.44878 0.0
C142 C 0.91602 0.67306 0.42293 0.0
C143 C 0.88548 0.64249 0.43234 0.0
O144 O 0.8485 0.59532 0.38796 0.0
O145 O 0.86902 0.57437 0.41025 0.0
O146 O 0.89534 0.62275 0.43416 0.0
O147 O 0.87254 0.64292 0.41353 0.0
H148 H 0.8333 0.60424 0.43534 0.0
H149 H 0.79785 0.59776 0.45656 0.0
H150 H 0.78454 0.53187 0.41834 0.0
H151 H 0.82008 0.53839 0.39744 0.0
H152 H 0.90296 0.54737 0.31075 0.0
H153 H 0.8944 0.56636 0.34862 0.0
H154 H 0.94809 0.6069 0.29568 0.0
H155 H 0.94014 0.62497 0.3334 0.0
H156 H 0.94015 0.70136 0.41605 0.0
H157 H 0.90259 0.70783 0.47993 0.0
H158 H 0.88263 0.6701 0.4708 0.0
H159 H 0.9195 0.66356 0.4068 0.0
C160 C 0.88312 0.82218 0.9153 0.0
C161 C 0.90303 0.81717 0.9035 0.0
C162 C 0.9075 0.78327 0.92741 0.0
C163 C 0.91514 0.79788 0.90951 0.0
C164 C 0.88727 0.78836 0.93873 0.0
C165 C 0.87538 0.80759 0.93284 0.0
U166 U 0.8685 0.87532 0.87948 0.0
O167 O 0.83488 0.88628 0.86921 0.0
O168 O 0.85719 0.90933 0.89221 0.0
C169 C 0.83724 0.90596 0.88174 0.0
C170 C 0.86989 0.84235 0.90996 0.0
C171 C 0.81734 0.91265 0.89513 0.0
C172 C 0.78734 0.90502 0.9231 0.0
C173 C 0.8073 0.89857 0.91214 0.0
C174 C 0.78766 0.93968 0.9004 0.0
C175 C 0.77709 0.92544 0.91693 0.0
C176 C 0.80757 0.93338 0.8897 0.0
C177 C 0.90459 0.89059 0.82527 0.0
C178 C 0.89732 0.91945 0.79648 0.0
C179 C 0.92916 0.89518 0.7919 0.0
C180 C 0.92354 0.88434 0.81261 0.0
C181 C 0.916 0.91261 0.78352 0.0
C182 C 0.89159 0.90843 0.81727 0.0
C183 C 0.89844 0.87724 0.84596 0.0
O184 O 0.88031 0.86313 0.91326 0.0
O185 O 0.85734 0.84031 0.89077 0.0
O186 O 0.87927 0.86435 0.84437 0.0
O187 O 0.9018 0.88803 0.86648 0.0
H188 H 0.90925 0.82821 0.88979 0.0
H189 H 0.93063 0.79467 0.9004 0.0
H190 H 0.88032 0.77732 0.95207 0.0
H191 H 0.85997 0.81103 0.94204 0.0
H192 H 0.77952 0.89371 0.93577 0.0
H193 H 0.81459 0.88247 0.91658 0.0
H194 H 0.78035 0.95566 0.89554 0.0
H195 H 0.81511 0.94453 0.87671 0.0
H196 H 0.88693 0.93285 0.79024 0.0
H197 H 0.94361 0.88967 0.78217 0.0
H198 H 0.93377 0.87063 0.81849 0.0
H199 H 0.87686 0.91348 0.8268 0.0
C200 C 0.6144 0.13328 0.33391 0.0
C201 C 0.63031 0.11956 0.32294 0.0
C202 C 0.60232 0.10658 0.29272 0.0
C203 C 0.62434 0.1064 0.3024 0.0
C204 C 0.58634 0.11989 0.30415 0.0
C205 C 0.59237 0.13317 0.3245 0.0
U206 U 0.65259 0.15203 0.38711 0.0
O207 O 0.66326 0.18717 0.40114 0.0
O208 O 0.64264 0.16332 0.42248 0.0
C209 C 0.65171 0.18459 0.4204 0.0
C210 C 0.62042 0.14824 0.3548 0.0
C211 C 0.63711 0.20356 0.42669 0.0
C212 C 0.61034 0.23198 0.41616 0.0
C213 C 0.6228 0.21278 0.41009 0.0
C214 C 0.6257 0.23221 0.45564 0.0
C215 C 0.61202 0.24219 0.43891 0.0
C216 C 0.63816 0.21312 0.44954 0.0
C217 C 0.70574 0.11816 0.39922 0.0
C218 C 0.73405 0.12722 0.43013 0.0
C219 C 0.73635 0.09267 0.40485 0.0
C220 C 0.7169 0.09822 0.39275 0.0
C221 C 0.74513 0.10699 0.42373 0.0
C222 C 0.71436 0.13272 0.418 0.0
C223 C 0.68522 0.12308 0.3859 0.0
O224 O 0.61873 0.13806 0.37488 0.0
O225 O 0.63882 0.16217 0.3534 0.0
O226 O 0.68606 0.1427 0.37483 0.0
O227 O 0.66582 0.11858 0.39622 0.0
H228 H 0.64738 0.1193 0.33007 0.0
H229 H 0.63695 0.0962 0.294 0.0
H230 H 0.56936 0.12062 0.29693 0.0
H231 H 0.57989 0.14369 0.33271 0.0
H232 H 0.60002 0.23929 0.40285 0.0
H233 H 0.62167 0.20548 0.39235 0.0
H234 H 0.62697 0.23932 0.47343 0.0
H235 H 0.64894 0.20607 0.46262 0.0
H236 H 0.74041 0.13853 0.44465 0.0
H237 H 0.7447 0.07723 0.39921 0.0
H238 H 0.71055 0.08688 0.37823 0.0
H239 H 0.7059 0.14822 0.42325 0.0
C240 C 0.3137 0.61635 0.14551 0.0
C241 C 0.307 0.6327 0.12961 0.0
C242 C 0.27482 0.60662 0.11726 0.0
C243 C 0.28754 0.6279 0.11562 0.0
C244 C 0.28166 0.59023 0.13297 0.0
C245 C 0.30101 0.59509 0.14706 0.0
U246 U 0.36685 0.65407 0.16016 0.0
O247 O 0.38233 0.66704 0.19363 0.0
O248 O 0.40116 0.6447 0.16987 0.0
C249 C 0.40039 0.65508 0.19066 0.0
C250 C 0.33406 0.62127 0.16024 0.0
C251 C 0.4061 0.64081 0.21022 0.0
C252 C 0.39528 0.61178 0.23826 0.0
C253 C 0.39022 0.62401 0.21845 0.0
C254 C 0.43237 0.63249 0.24118 0.0
C255 C 0.41624 0.61629 0.24987 0.0
C256 C 0.42733 0.64468 0.22137 0.0
C257 C 0.38077 0.70668 0.12387 0.0
C258 C 0.40946 0.73709 0.13582 0.0
C259 C 0.39183 0.7369 0.09729 0.0
C260 C 0.37867 0.71673 0.10216 0.0
C261 C 0.40705 0.74737 0.1142 0.0
C262 C 0.39652 0.71669 0.14057 0.0
C263 C 0.36609 0.6861 0.12901 0.0
O264 O 0.3533 0.61871 0.14951 0.0
O265 O 0.33417 0.64045 0.17354 0.0
O266 O 0.35536 0.68747 0.1489 0.0
O267 O 0.37494 0.66595 0.12506 0.0
H268 H 0.31673 0.64918 0.12814 0.0
H269 H 0.28233 0.64078 0.10368 0.0
H270 H 0.27182 0.57384 0.13457 0.0
H271 H 0.30601 0.58232 0.15923 0.0
H272 H 0.38263 0.59944 0.24497 0.0
H273 H 0.37375 0.62084 0.20994 0.0
H274 H 0.44857 0.63617 0.25011 0.0
H275 H 0.43975 0.65754 0.21513 0.0
H276 H 0.42118 0.74496 0.14902 0.0
H277 H 0.38963 0.74475 0.08059 0.0
H278 H 0.3666 0.70918 0.08912 0.0
H279 H 0.39846 0.70896 0.15738 0.0
C280 C 0.08222 0.35024 0.60812 0.0
C281 C 0.09913 0.33857 0.59634 0.0
C282 C 0.07173 0.30632 0.58525 0.0
C283 C 0.09396 0.31677 0.58507 0.0
C284 C 0.05465 0.31891 0.59587 0.0
C285 C 0.05989 0.34052 0.60732 0.0
U286 U 0.12018 0.40497 0.62496 0.0
O287 O 0.11113 0.43937 0.63893 0.0
O288 O 0.13282 0.41793 0.65954 0.0
C289 C 0.12137 0.43677 0.65911 0.0
C290 C 0.08777 0.37154 0.62275 0.0
C291 C 0.10809 0.44131 0.68003 0.0
C292 C 0.08118 0.42828 0.70917 0.0
C293 C 0.09181 0.42463 0.68778 0.0
C294 C 0.10234 0.46568 0.71462 0.0
C295 C 0.08663 0.44872 0.72294 0.0
C296 C 0.11299 0.46197 0.69336 0.0
C297 C 0.17367 0.41767 0.58823 0.0
C298 C 0.20298 0.44892 0.5955 0.0
C299 C 0.20774 0.41913 0.56515 0.0
C300 C 0.18675 0.40838 0.57044 0.0
C301 C 0.21619 0.43945 0.57763 0.0
C302 C 0.18176 0.43812 0.60073 0.0
C303 C 0.15223 0.40487 0.59376 0.0
O304 O 0.10602 0.37109 0.63608 0.0
O305 O 0.0861 0.39148 0.6126 0.0
O306 O 0.13355 0.41585 0.59114 0.0
O307 O 0.1526 0.3928 0.61273 0.0
H308 H 0.11648 0.34592 0.59659 0.0
H309 H 0.10761 0.30771 0.57718 0.0
H310 H 0.03721 0.31187 0.59578 0.0
H311 H 0.04657 0.34937 0.61614 0.0
H312 H 0.06902 0.41501 0.71511 0.0
H313 H 0.08783 0.40855 0.67762 0.0
H314 H 0.10713 0.48143 0.725 0.0
H315 H 0.12561 0.47494 0.68768 0.0
H316 H 0.20907 0.46459 0.60537 0.0
H317 H 0.21768 0.41114 0.55165 0.0
H318 H 0.18087 0.39249 0.5608 0.0
H319 H 0.17186 0.4455 0.61462 0.0
O320 O 0.99605 0.02195 0.56625 0.0
Mg321 Mg 0.02249 0.02784 0.54387 0.0
O322 O 0.99563 0.99098 0.543 0.0
Mg323 Mg 0.00808 0.00742 0.50618 0.0
O324 O 0.01797 0.04826 0.51651 0.0
O325 O 0.03368 0.06084 0.55119 0.0
O326 O 0.022 0.02459 0.47033 0.0
O327 O 0.97158 0.02109 0.50327 0.0
Mg328 Mg 0.99217 0.99166 0.46879 0.0
O329 O 0.99696 0.96664 0.49328 0.0
O330 O 0.01708 0.99633 0.44391 0.0
O331 O 0.96375 0.01194 0.46655 0.0
O332 O 0.97813 0.96071 0.45898 0.0
C333 C 0.05785 0.99742 0.52968 0.0
C334 C 0.99069 1.00063 0.56267 0.0
C335 C 0.02661 0.06504 0.53055 0.0
C336 C 0.02577 0.01617 0.44985 0.0
C337 C 0.95856 0.02185 0.48551 0.0
C338 C 0.98632 0.95254 0.4776 0.0
O339 O 0.05135 0.00914 0.5471 0.0
O340 O 0.04524 0.99469 0.51132 0.0
O341 O 0.47514 0.0491 0.04155 0.0
Mg342 Mg 0.50781 0.05187 0.0276 0.0
O343 O 0.47066 0.02141 0.01458 0.0
Mg344 Mg 0.50918 0.0148 0.00771 0.0
O345 O 0.52001 0.05325 0.99415 0.0
O346 O 0.50773 0.08359 0.01516 0.0
O347 O 0.54854 0.00849 0.9984 0.0
O348 O 0.49619 0.00954 0.96867 0.0
Mg349 Mg 0.51966 0.97526 0.99464 0.0
O350 O 0.49648 0.97694 0.02065 0.0
O351 O 0.55229 0.9722 0.00699 0.0
O352 O 0.51631 0.98032 0.95873 0.0
O353 O 0.5031 0.9446 0.99906 0.0
C354 C 0.53324 0.03557 0.05998 0.0
C355 C 0.46221 0.03472 0.0299 0.0
C356 C 0.51811 0.0756 0.99734 0.0
C357 C 0.56128 0.99168 1.00196 0.0
C358 C 0.50349 0.99585 0.95294 0.0
C359 C 0.49403 0.95442 0.01686 0.0
O360 O 0.53375 0.05549 0.05183 0.0
O361 O 0.52246 0.01863 0.04854 0.0
O362 O 0.49235 0.55834 0.56018 0.0
Mg363 Mg 0.4895 0.52278 0.5669 0.0
O364 O 0.49569 0.55003 0.52231 0.0
Mg365 Mg 0.50409 0.51147 0.51527 0.0
O366 O 0.51548 0.50588 0.55289 0.0
O367 O 0.51008 0.51013 0.59133 0.0
O368 O 0.51249 0.47153 0.50866 0.0
O369 O 0.54229 0.52524 0.51212 0.0
Mg370 Mg 0.51892 0.49966 0.47167 0.0
O371 O 0.49228 0.52 0.47705 0.0
O372 O 0.50998 0.46462 0.47069 0.0
O373 O 0.55289 0.51056 0.47833 0.0
O374 O 0.50849 0.51274 0.44224 0.0
C375 C 0.45179 0.49818 0.53797 0.0
C376 C 0.49309 0.56457 0.53927 0.0
C377 C 0.52195 0.5027 0.57416 0.0
C378 C 0.51164 0.4572 0.49094 0.0
C379 C 0.55761 0.52195 0.49718 0.0
C380 C 0.49276 0.52159 0.45444 0.0
O381 O 0.45827 0.50546 0.55827 0.0
O382 O 0.4653 0.49887 0.52064 0.0
O383 O 0.01547 0.4651 0.05292 0.0
Mg384 Mg 0.01948 0.50105 0.05198 0.0
O385 O 0.0197 0.47273 0.01618 0.0
Mg386 Mg 1.00578 0.51116 0.01121 0.0
O387 O 0.99175 0.52082 0.04956 0.0
O388 O 0.00933 0.51196 0.08303 0.0
O389 O 0.99269 0.55115 1.00498 0.0
O390 O 0.97 0.49129 0.00599 0.0
Mg391 Mg 0.99389 0.52124 0.97509 0.0
O392 O 0.0199 0.50005 0.97355 0.0
O393 O 1.00567 0.55495 0.9699 0.0
O394 O 0.95904 0.51713 0.98239 0.0
O395 O 0.9955 0.50447 0.9439 0.0
C396 C 0.05654 0.52896 0.03256 0.0
C397 C 0.01981 0.45822 0.03254 0.0
C398 C 0.99327 0.52151 0.07234 0.0
C399 C 0.99765 0.56428 0.98786 0.0
C400 C 0.95412 0.50036 0.99516 0.0
C401 C 0.01406 0.49691 0.95167 0.0
O402 O 0.05236 0.51635 0.04965 0.0
O403 O 0.04163 0.53062 0.01658 0.0
C404 C 0.08359 0.11195 0.26854 0.0
C405 C 0.09194 0.09684 0.25131 0.0
C406 C 0.07783 0.10405 0.29056 0.0
C407 C 0.08303 0.0534 0.32969 0.0
H408 H 0.03762 0.08559 0.36369 0.0
C409 C 0.05601 0.02088 0.42047 0.0
C410 C 0.03745 0.02982 0.43182 0.0
C411 C 0.06409 0.03036 0.39982 0.0
C412 C 0.05024 0.0759 0.35493 0.0
H413 H 0.1009 0.06144 0.24381 0.0
H414 H 0.08986 0.04716 0.28183 0.0
H415 H 0.04724 0.09713 0.32554 0.0
H416 H 0.01269 0.05577 0.43072 0.0
H417 H 0.02573 0.07199 0.39492 0.0
H418 H 0.08504 0.03097 0.35777 0.0
C419 C 0.08833 0.06543 0.27872 0.0
C420 C 0.05614 0.08304 0.33261 0.0
C421 C 0.09458 0.07354 0.25675 0.0
C422 C 0.02742 0.04889 0.42253 0.0
C423 C 0.03504 0.05806 0.40149 0.0
C424 C 0.07671 0.04579 0.35176 0.0
C425 C 0.07975 0.08056 0.29604 0.0
C426 C 0.07286 0.07216 0.31965 0.0
C427 C 0.05325 0.04862 0.38914 0.0
C428 C 0.06027 0.05698 0.3652 0.0
H429 H 0.08174 0.13013 0.26506 0.0
H430 H 0.07211 0.11664 0.30332 0.0
H431 H 0.09619 0.04455 0.3207 0.0
H432 H 0.06389 0.00594 0.42721 0.0
H433 H 0.07853 0.02254 0.39231 0.0
C434 C 0.44317 0.93225 0.75512 0.0
C435 C 0.42094 0.93791 0.74972 0.0
C436 C 0.45367 0.94041 0.77626 0.0
C437 C 0.44899 0.9861 0.82353 0.0
H438 H 0.48625 0.94669 0.85912 0.0
C439 C 0.47462 0.00257 0.92165 0.0
C440 C 0.49643 0.99655 0.92818 0.0
C441 C 0.46683 0.99849 0.8985 0.0
C442 C 0.47612 0.95804 0.84923 0.0
H443 H 0.39184 0.95518 0.76278 0.0
H444 H 0.40987 0.96904 0.79949 0.0
H445 H 0.47007 0.93216 0.8216 0.0
H446 H 0.52793 0.98383 0.91545 0.0
H447 H 0.51453 0.97716 0.87523 0.0
H448 H 0.45463 0.01173 0.8516 0.0
C449 C 0.41957 0.9591 0.7872 0.0
C450 C 0.46688 0.9497 0.82769 0.0
C451 C 0.40919 0.95107 0.76617 0.0
C452 C 0.51088 0.98822 0.91095 0.0
C453 C 0.5032 0.98431 0.88795 0.0
C454 C 0.45811 0.99437 0.84517 0.0
C455 C 0.44205 0.95424 0.79239 0.0
C456 C 0.45302 0.96354 0.81467 0.0
C457 C 0.48082 0.98847 0.88167 0.0
C458 C 0.4717 0.98037 0.85828 0.0
H459 H 0.45263 0.92212 0.74276 0.0
H460 H 0.47103 0.93636 0.77971 0.0
H461 H 0.43873 0.9974 0.81373 0.0
H462 H 0.46315 0.00898 0.93463 0.0
H463 H 0.44948 1.00189 0.89412 0.0
C464 C 0.5899 0.46137 0.75454 0.0
C465 C 0.58533 0.43785 0.75969 0.0
C466 C 0.58751 0.46851 0.73155 0.0
C467 C 0.55838 0.44974 0.67617 0.0
H468 H 0.60355 0.49012 0.6467 0.0
C469 C 0.54251 0.46848 0.58311 0.0
C470 C 0.54317 0.4925 0.57995 0.0
C471 C 0.55487 0.45994 0.60153 0.0
C472 C 0.5908 0.47879 0.65467 0.0
H473 H 0.57587 0.40326 0.74488 0.0
H474 H 0.57187 0.41556 0.70513 0.0
H475 H 0.60821 0.48148 0.68794 0.0
H476 H 0.56021 0.52584 0.58988 0.0
H477 H 0.58126 0.51134 0.62223 0.0
H478 H 0.54044 0.44752 0.64369 0.0
C479 C 0.57663 0.42865 0.71874 0.0
C480 C 0.5934 0.474 0.67831 0.0
C481 C 0.57889 0.4216 0.74152 0.0
C482 C 0.55946 0.50719 0.59223 0.0
C483 C 0.57141 0.49883 0.61097 0.0
C484 C 0.55571 0.45458 0.65276 0.0
C485 C 0.58067 0.45216 0.7135 0.0
C486 C 0.57735 0.45913 0.68914 0.0
C487 C 0.56749 0.47552 0.61713 0.0
C488 C 0.57199 0.46892 0.64153 0.0
H489 H 0.59496 0.47421 0.76828 0.0
H490 H 0.59062 0.48678 0.72798 0.0
H491 H 0.54543 0.43869 0.68421 0.0
H492 H 0.53009 0.45684 0.5737 0.0
H493 H 0.55236 0.44163 0.60516 0.0
C494 C 0.91387 0.55361 0.2626 0.0
C495 C 0.93126 0.56509 0.27662 0.0
C496 C 0.91769 0.5476 0.23909 0.0
C497 C 0.95004 0.57032 0.19154 0.0
H498 H 0.93887 0.5104 0.15876 0.0
C499 C 0.98604 0.55235 0.10118 0.0
C500 C 0.97728 0.53333 0.08716 0.0
C501 C 0.97633 0.55765 0.12258 0.0
C502 C 0.94151 0.52745 0.16739 0.0
H503 H 0.96696 0.57678 0.2775 0.0
H504 H 0.9732 0.56721 0.23644 0.0
H505 H 0.931 0.51428 0.20039 0.0
H506 H 0.95048 0.50603 0.08326 0.0
H507 H 0.93219 0.51634 0.11991 0.0
H508 H 0.95965 0.58402 0.15892 0.0
C509 C 0.95661 0.56314 0.24358 0.0
C510 C 0.93724 0.52952 0.19135 0.0
C511 C 0.95294 0.56875 0.26705 0.0
C512 C 0.95719 0.52116 0.0936 0.0
C513 C 0.94714 0.52671 0.11495 0.0
C514 C 0.9537 0.56846 0.16758 0.0
C515 C 0.93884 0.55323 0.22921 0.0
C516 C 0.942 0.55086 0.20368 0.0
C517 C 0.95735 0.5442 0.13035 0.0
C518 C 0.9501 0.54687 0.15517 0.0
H519 H 0.89697 0.55047 0.26932 0.0
H520 H 0.90377 0.53984 0.22831 0.0
H521 H 0.95346 0.58709 0.20064 0.0
H522 H 1.0019 0.56154 0.09678 0.0
H523 H 0.98509 0.57102 0.13376 0.0
C524 C 0.26752 0.06922 0.08874 0.0
C525 C 0.26265 0.09278 0.08821 0.0
C526 C 0.28796 0.0617 0.08028 0.0
C527 C 0.33998 0.08092 0.04686 0.0
H528 H 0.36278 0.02664 0.07497 0.0
C529 C 0.42358 0.04327 0.01598 0.0
C530 C 0.43765 0.03506 0.03335 0.0
C531 C 0.40133 0.04863 0.02113 0.0
C532 C 0.35692 0.04201 0.06705 0.0
H533 H 0.27525 0.12691 0.0778 0.0
H534 H 0.31149 0.11415 0.06397 0.0
H535 H 0.32745 0.04092 0.08789 0.0
H536 H 0.43969 0.02525 0.06927 0.0
H537 H 0.40111 0.03434 0.07842 0.0
H538 H 0.37068 0.08306 0.02752 0.0
C539 C 0.29932 0.10117 0.07036 0.0
C540 C 0.33617 0.05001 0.07415 0.0
C541 C 0.27852 0.10861 0.0784 0.0
C542 C 0.42896 0.03131 0.05557 0.0
C543 C 0.40677 0.03653 0.06072 0.0
C544 C 0.3611 0.07327 0.04023 0.0
C545 C 0.30454 0.07758 0.07147 0.0
C546 C 0.32714 0.06947 0.06403 0.0
C547 C 0.39277 0.04586 0.04378 0.0
C548 C 0.36986 0.05361 0.05016 0.0
H549 H 0.25546 0.0565 0.09582 0.0
H550 H 0.2906 0.04327 0.08072 0.0
H551 H 0.33378 0.09577 0.03832 0.0
H552 H 0.43017 0.04674 0.99883 0.0
H553 H 0.39106 0.05539 0.00748 0.0
C554 C 0.24974 0.94482 0.58316 0.0
C555 C 0.25392 0.92147 0.57755 0.0
C556 C 0.22889 0.95356 0.57714 0.0
C557 C 0.17857 0.9406 0.5377 0.0
H558 H 0.14992 0.98338 0.58009 0.0
C559 C 0.0859 0.96658 0.52331 0.0
C560 C 0.08095 0.98914 0.53092 0.0
C561 C 0.10736 0.95843 0.52807 0.0
C562 C 0.15777 0.97171 0.56782 0.0
H563 H 0.23925 0.88878 0.56222 0.0
H564 H 0.20296 0.90377 0.55221 0.0
H565 H 0.18669 0.96977 0.59043 0.0
H566 H 0.09466 0.02131 0.54817 0.0
H567 H 0.13202 0.00774 0.55532 0.0
H568 H 0.1497 0.9426 0.51503 0.0
C569 C 0.21591 0.91562 0.56051 0.0
C570 C 0.17893 0.96387 0.57382 0.0
C571 C 0.23671 0.90698 0.56633 0.0
C572 C 0.09799 0.00372 0.5423 0.0
C573 C 0.11937 0.99582 0.54665 0.0
C574 C 0.15744 0.94851 0.53164 0.0
C575 C 0.21176 0.93906 0.56559 0.0
C576 C 0.18957 0.94812 0.55889 0.0
C577 C 0.12425 0.97287 0.54018 0.0
C578 C 0.14672 0.96418 0.54661 0.0
H579 H 0.26274 0.95642 0.59172 0.0
H580 H 0.22638 0.97177 0.58117 0.0
H581 H 0.18641 0.92877 0.52557 0.0
H582 H 0.07293 0.95495 0.51473 0.0
H583 H 0.1104 0.94058 0.52296 0.0
C584 C 0.76042 0.46864 0.92944 0.0
C585 C 0.75254 0.4458 0.92248 0.0
C586 C 0.78187 0.47297 0.9399 0.0
C587 C 0.8375 0.44811 0.94625 0.0
H588 H 0.84451 0.49128 0.99999 0.0
C589 C 0.92449 0.4673 0.99208 0.0
C590 C 0.93038 0.4912 0.99569 0.0
C591 C 0.90194 0.45965 0.98675 0.0
C592 C 0.84287 0.47922 0.98496 0.0
H593 H 0.7612 0.40967 0.92063 0.0
H594 H 0.79848 0.4172 0.93923 0.0
H595 H 0.80717 0.48302 0.98183 0.0
H596 H 0.91757 0.52562 0.99844 0.0
H597 H 0.87847 0.51247 0.98947 0.0
H598 H 0.8733 0.44483 0.94893 0.0
C599 C 0.7881 0.43176 0.93649 0.0
C600 C 0.82148 0.47456 0.97452 0.0
C601 C 0.76664 0.42742 0.92609 0.0
C602 C 0.91333 0.50708 0.99571 0.0
C603 C 0.89091 0.4995 0.99064 0.0
C604 C 0.85894 0.45288 0.95663 0.0
C605 C 0.79592 0.45456 0.94359 0.0
C606 C 0.81859 0.4591 0.95494 0.0
C607 C 0.88504 0.47581 0.98524 0.0
C608 C 0.86191 0.46867 0.97597 0.0
H609 H 0.74993 0.48317 0.92702 0.0
H610 H 0.78754 0.49077 0.94492 0.0
H611 H 0.83585 0.43633 0.93101 0.0
H612 H 0.93746 0.45479 0.99178 0.0
H613 H 0.89788 0.44124 0.98297 0.0
C614 C 0.75731 0.53977 0.45769 0.0
C615 C 0.76564 0.56152 0.44991 0.0
C616 C 0.7354 0.53692 0.46655 0.0
C617 C 0.67993 0.56269 0.46405 0.0
H618 H 0.66649 0.526 0.51804 0.0
C619 C 0.58901 0.55283 0.49735 0.0
C620 C 0.58136 0.52991 0.50181 0.0
C621 C 0.61225 0.5586 0.49524 0.0
C622 C 0.66994 0.53623 0.50288 0.0
H623 H 0.75747 0.59734 0.44545 0.0
H624 H 0.71946 0.59247 0.46115 0.0
H625 H 0.7056 0.53148 0.50509 0.0
H626 H 0.59147 0.49536 0.50882 0.0
H627 H 0.63196 0.50526 0.50527 0.0
H628 H 0.64435 0.56695 0.46132 0.0
C629 C 0.7298 0.57756 0.46028 0.0
C630 C 0.69235 0.53932 0.49544 0.0
C631 C 0.75169 0.58043 0.45154 0.0
C632 C 0.59716 0.51324 0.50568 0.0
C633 C 0.62034 0.51895 0.50362 0.0
C634 C 0.65756 0.55953 0.4714 0.0
C635 C 0.7213 0.55574 0.46769 0.0
C636 C 0.69759 0.55257 0.47591 0.0
C637 C 0.62813 0.54146 0.49742 0.0
C638 C 0.65224 0.54623 0.49089 0.0
H639 H 0.7677 0.5249 0.4568 0.0
H640 H 0.72931 0.51984 0.47196 0.0
H641 H 0.68331 0.57261 0.44866 0.0
H642 H 0.57701 0.56584 0.49399 0.0
H643 H 0.6177 0.57621 0.49088 0.0
C644 C 0.07439 0.2622 0.07601 0.0
C645 C 0.09704 0.26212 0.08385 0.0
C646 C 0.0653 0.28307 0.06955 0.0
C647 C 0.0755 0.34783 0.0753 0.0
H648 H 0.0383 0.3474 0.01893 0.0
C649 C 0.05251 0.43383 0.03628 0.0
C650 C 0.02971 0.43544 0.02971 0.0
C651 C 0.06091 0.41219 0.04067 0.0
C652 C 0.04853 0.34781 0.03479 0.0
H653 H 0.12751 0.28396 0.09223 0.0
H654 H 0.11188 0.3201 0.08104 0.0
H655 H 0.05135 0.31078 0.03276 0.0
H656 H 0.9979 0.41584 0.02192 0.0
H657 H 0.0126 0.37777 0.02909 0.0
H658 H 0.07278 0.38476 0.07737 0.0
C659 C 0.10101 0.30421 0.07976 0.0
C660 C 0.05594 0.32678 0.04281 0.0
C661 C 0.11007 0.28343 0.08602 0.0
C662 C 0.0157 0.41493 0.0264 0.0
C663 C 0.02413 0.39318 0.03066 0.0
C664 C 0.06816 0.3688 0.06727 0.0
C665 C 0.07862 0.30433 0.07108 0.0
C666 C 0.06964 0.32651 0.06311 0.0
C667 C 0.04662 0.39164 0.03873 0.0
C668 C 0.05468 0.36913 0.04683 0.0
H669 H 0.06396 0.24603 0.07412 0.0
H670 H 0.0479 0.28253 0.06326 0.0
H671 H 0.08565 0.34834 0.09123 0.0
H672 H 0.06348 0.4495 0.03946 0.0
H673 H 0.0784 0.41168 0.04645 0.0
C674 C 0.58809 0.25271 0.90329 0.0
C675 C 0.58947 0.27005 0.92134 0.0
C676 C 0.58007 0.22991 0.90772 0.0
C677 C 0.54683 0.19575 0.95009 0.0
H678 H 0.58113 0.14383 0.92852 0.0
C679 C 0.54166 0.11215 0.99637 0.0
C680 C 0.53107 0.0929 0.9838 0.0
C681 C 0.5504 0.13139 0.98491 0.0
C682 C 0.57122 0.15816 0.93423 0.0
H683 H 0.58276 0.27747 0.95785 0.0
H684 H 0.56877 0.23782 0.96563 0.0
H685 H 0.59172 0.18341 0.91599 0.0
H686 H 0.52341 0.07745 0.94928 0.0
H687 H 0.53894 0.11192 0.92876 0.0
H688 H 0.52703 0.17081 0.96914 0.0
C689 C 0.57384 0.24172 0.94804 0.0
C690 C 0.57722 0.18075 0.92713 0.0
C691 C 0.58199 0.26439 0.94366 0.0
C692 C 0.53131 0.09226 0.95928 0.0
C693 C 0.54015 0.11184 0.94763 0.0
C694 C 0.54094 0.17334 0.9572 0.0
C695 C 0.57304 0.22414 0.9302 0.0
C696 C 0.56537 0.19984 0.93544 0.0
C697 C 0.54879 0.13187 0.96056 0.0
C698 C 0.55335 0.15447 0.94974 0.0
H699 H 0.59391 0.25661 0.88595 0.0
H700 H 0.57945 0.21678 0.89359 0.0
H701 H 0.53711 0.20997 0.95647 0.0
H702 H 0.54221 0.11282 0.01531 0.0
H703 H 0.55731 0.1465 0.99519 0.0
C704 C 0.93944 0.73979 0.47669 0.0
C705 C 0.9337 0.73177 0.45367 0.0
C706 C 0.94668 0.76317 0.48167 0.0
C707 C 0.94259 0.82125 0.457 0.0
H708 H 0.98946 0.84187 0.50274 0.0
C709 C 0.98216 0.9134 0.45801 0.0
C710 C 0.98418 0.92677 0.47913 0.0
C711 C 0.97678 0.88954 0.45775 0.0
C712 C 0.9761 0.83634 0.4902 0.0
H713 H 0.9322 0.74209 0.4177 0.0
H714 H 0.9454 0.78253 0.42624 0.0
H715 H 0.97952 0.80001 0.49586 0.0
H716 H 0.98336 0.92511 0.5168 0.0
H717 H 0.974 0.8825 0.51639 0.0
H718 H 0.93934 0.85735 0.45102 0.0
C719 C 0.94378 0.77086 0.44058 0.0
C720 C 0.97045 0.81239 0.48617 0.0
C721 C 0.93651 0.74751 0.43562 0.0
C722 C 0.98193 0.91527 0.50027 0.0
C723 C 0.9765 0.89098 0.5 0.0
C724 C 0.94823 0.84502 0.46099 0.0
C725 C 0.94839 0.77915 0.46374 0.0
C726 C 0.95395 0.80454 0.46911 0.0
C727 C 0.97322 0.87806 0.47861 0.0
C728 C 0.96542 0.85288 0.47721 0.0
H729 H 0.93789 0.72809 0.49101 0.0
H730 H 0.9501 0.76887 0.49968 0.0
H731 H 0.92931 0.81598 0.44429 0.0
H732 H 0.98421 0.92151 0.44135 0.0
H733 H 0.97502 0.88006 0.44102 0.0
C734 C 0.44857 0.76343 0.57454 0.0
C735 C 0.4256 0.7667 0.57891 0.0
C736 C 0.45523 0.74208 0.56558 0.0
C737 C 0.43535 0.67994 0.56114 0.0
H738 H 0.48748 0.67505 0.52125 0.0
C739 C 0.46372 0.59115 0.52969 0.0
C740 C 0.48656 0.58795 0.53465 0.0
C741 C 0.45586 0.6135 0.53053 0.0
C742 C 0.47288 0.67622 0.53235 0.0
H743 H 0.3915 0.75033 0.57614 0.0
H744 H 0.40302 0.71342 0.55941 0.0
H745 H 0.47385 0.71337 0.53114 0.0
H746 H 0.51945 0.60492 0.54336 0.0
H747 H 0.50586 0.64439 0.54431 0.0
H748 H 0.43449 0.6428 0.56242 0.0
C749 C 0.41597 0.72719 0.56364 0.0
C750 C 0.46512 0.69812 0.53812 0.0
C751 C 0.40932 0.74849 0.5729 0.0
C752 C 0.50181 0.60727 0.53917 0.0
C753 C 0.49402 0.62971 0.53972 0.0
C754 C 0.44297 0.65808 0.55518 0.0
C755 C 0.43906 0.72356 0.56037 0.0
C756 C 0.4464 0.70026 0.55279 0.0
C757 C 0.47082 0.63291 0.53623 0.0
C758 C 0.46191 0.65603 0.5409 0.0
H759 H 0.46153 0.77724 0.57853 0.0
H760 H 0.47318 0.73989 0.56353 0.0
H761 H 0.42125 0.68091 0.57292 0.0
H762 H 0.4517 0.57626 0.52655 0.0
H763 H 0.43794 0.61553 0.52762 0.0
C764 C 0.91523 0.90933 0.74004 0.0
C765 C 0.92133 0.92236 0.76058 0.0
C766 C 0.92218 0.91707 0.71827 0.0
C767 C 0.95317 0.96857 0.68976 0.0
H768 H 0.95244 0.92412 0.63704 0.0
C769 C 0.99568 0.99367 0.60465 0.0
C770 C 0.9844 0.9872 0.58338 0.0
C771 C 0.98877 0.98398 0.62545 0.0
C772 C 0.95264 0.93682 0.65153 0.0
H773 H 0.93953 0.95357 0.7748 0.0
H774 H 0.95293 0.96661 0.73746 0.0
H775 H 0.93926 0.91149 0.67442 0.0
H776 H 0.9578 0.96437 0.56698 0.0
H777 H 0.94504 0.94755 0.60382 0.0
H778 H 0.96744 0.9936 0.66673 0.0
C779 C 0.94197 0.95086 0.73735 0.0
C780 C 0.94482 0.92964 0.67327 0.0
C781 C 0.93442 0.94337 0.75907 0.0
C782 C 0.9667 0.96973 0.58316 0.0
C783 C 0.95948 0.96013 0.60427 0.0
C784 C 0.96138 0.97556 0.66819 0.0
C785 C 0.93616 0.93778 0.71638 0.0
C786 C 0.94476 0.9454 0.69291 0.0
C787 C 0.97004 0.96772 0.62579 0.0
C788 C 0.96121 0.95984 0.64872 0.0
H789 H 0.90523 0.89294 0.74087 0.0
H790 H 0.91642 0.90652 0.70307 0.0
H791 H 0.95319 0.98179 0.70368 0.0
H792 H 0.00976 0.00674 0.6053 0.0
H793 H 0.99793 0.98965 0.64139 0.0
C794 C 0.57563 0.08077 0.26701 0.0
C795 C 0.59625 0.09425 0.27001 0.0
C796 C 0.56886 0.07122 0.24494 0.0
C797 C 0.57661 0.08237 0.18302 0.0
H798 H 0.55145 0.01898 0.1711 0.0
C799 C 0.56307 0.04678 0.08954 0.0
C800 C 0.54271 0.03382 0.08371 0.0
C801 C 0.56949 0.05151 0.11281 0.0
C802 C 0.55821 0.0368 0.17419 0.0
H803 H 0.62618 0.10782 0.25244 0.0
H804 H 0.61436 0.09128 0.21393 0.0
H805 H 0.56282 0.03235 0.21097 0.0
H806 H 0.51345 0.01485 0.09756 0.0
H807 H 0.52469 0.02314 0.13866 0.0
H808 H 0.57173 0.08718 0.14661 0.0
C809 C 0.60339 0.08812 0.22861 0.0
C810 C 0.56476 0.04443 0.19701 0.0
C811 C 0.61028 0.09739 0.25068 0.0
C812 C 0.5295 0.02442 0.10163 0.0
C813 C 0.53586 0.02938 0.12513 0.0
C814 C 0.56995 0.07485 0.16037 0.0
C815 C 0.58243 0.07527 0.22541 0.0
C816 C 0.57445 0.06717 0.20155 0.0
C817 C 0.55554 0.04372 0.13094 0.0
C818 C 0.56114 0.05181 0.15552 0.0
H819 H 0.56456 0.07795 0.28167 0.0
H820 H 0.55262 0.06143 0.24302 0.0
H821 H 0.58341 0.1002 0.18606 0.0
H822 H 0.57344 0.05439 0.07601 0.0
H823 H 0.58506 0.06205 0.11656 0.0
C824 C 0.42845 0.58372 0.27352 0.0
C825 C 0.42042 0.60604 0.2724 0.0
C826 C 0.43301 0.5746 0.2952 0.0
C827 C 0.4215 0.58281 0.35855 0.0
H828 H 0.47451 0.54702 0.36509 0.0
C829 C 0.4716 0.55533 0.44236 0.0
C830 C 0.47439 0.53127 0.4415 0.0
C831 C 0.46011 0.56524 0.42403 0.0
C832 C 0.45963 0.55699 0.3634 0.0
H833 H 0.41065 0.63642 0.29228 0.0
H834 H 0.41893 0.62079 0.33023 0.0
H835 H 0.46553 0.56252 0.32736 0.0
H836 H 0.46584 0.49838 0.42281 0.0
H837 H 0.44584 0.51562 0.39097 0.0
H838 H 0.41624 0.57761 0.39508 0.0
C839 C 0.42138 0.61006 0.31462 0.0
C840 C 0.45437 0.56568 0.34181 0.0
C841 C 0.41681 0.6191 0.29299 0.0
C842 C 0.46367 0.51698 0.42374 0.0
C843 C 0.45236 0.52679 0.40555 0.0
C844 C 0.42699 0.57434 0.38031 0.0
C845 C 0.42961 0.58774 0.31601 0.0
C846 C 0.43513 0.57852 0.33905 0.0
C847 C 0.45159 0.55103 0.40497 0.0
C848 C 0.44594 0.5612 0.38272 0.0
H849 H 0.43134 0.5735 0.25767 0.0
H850 H 0.43908 0.55723 0.29566 0.0
H851 H 0.40641 0.59242 0.35694 0.0
H852 H 0.48007 0.56659 0.45585 0.0
H853 H 0.45969 0.58403 0.42371 0.0
C854 C 0.07759 0.43367 0.76236 0.0
C855 C 0.07744 0.45184 0.74668 0.0
C856 C 0.07199 0.43761 0.78572 0.0
C857 C 0.04475 0.47918 0.82571 0.0
H858 H 0.08222 0.45304 0.87307 0.0
C859 C 0.03835 0.50921 0.91991 0.0
C860 C 0.03075 0.49123 0.93423 0.0
C861 C 0.04805 0.50403 0.89857 0.0
C862 C 0.07166 0.46035 0.85996 0.0
H863 H 0.07005 0.48793 0.74274 0.0
H864 H 0.06065 0.49497 0.7835 0.0
H865 H 0.0889 0.44421 0.83166 0.0
H866 H 0.02898 0.45405 0.939 0.0
H867 H 0.04666 0.44479 0.90137 0.0
H868 H 0.02786 0.49569 0.85396 0.0
C869 C 0.065 0.47764 0.77785 0.0
C870 C 0.07531 0.4552 0.83632 0.0
C871 C 0.07055 0.47369 0.75453 0.0
C872 C 0.03499 0.4681 0.92817 0.0
C873 C 0.04497 0.46287 0.90673 0.0
C874 C 0.04132 0.48453 0.84924 0.0
C875 C 0.06611 0.45978 0.79382 0.0
C876 C 0.06187 0.46459 0.81894 0.0
C877 C 0.05034 0.48076 0.89129 0.0
C878 C 0.05478 0.47522 0.86653 0.0
H879 H 0.08297 0.41667 0.75683 0.0
H880 H 0.07259 0.42338 0.7975 0.0
H881 H 0.03383 0.48635 0.81284 0.0
H882 H 0.03503 0.52718 0.92436 0.0
H883 H 0.05229 0.51809 0.88703 0.0
C884 C 0.75126 0.93278 0.95078 0.0
C885 C 0.75492 0.93163 0.92661 0.0
C886 C 0.73078 0.94032 0.95957 0.0
C887 C 0.67975 0.97147 0.94102 0.0
H888 H 0.65523 0.94874 0.99875 0.0
C889 C 0.5891 0.98986 0.97028 0.0
C890 C 0.58489 0.99208 0.99426 0.0
C891 C 0.6103 0.98362 0.96246 0.0
C892 C 0.66194 0.95556 0.98275 0.0
H893 H 0.73965 0.93628 0.89268 0.0
H894 H 0.70378 0.94818 0.90767 0.0
H895 H 0.69065 0.9348 0.98454 0.0
H896 H 0.59918 0.98944 0.0289 0.0
H897 H 0.63681 0.98023 0.01542 0.0
H898 H 0.6509 0.99199 0.93908 0.0
C899 C 0.71689 0.94442 0.92011 0.0
C900 C 0.68239 0.94752 0.97454 0.0
C901 C 0.73744 0.93735 0.91142 0.0
C902 C 0.60234 0.98856 0.01032 0.0
C903 C 0.62371 0.98277 1.00253 0.0
C904 C 0.65929 0.9794 0.94915 0.0
C905 C 0.71331 0.94648 0.94434 0.0
C906 C 0.69161 0.95526 0.95347 0.0
C907 C 0.62786 0.97968 0.97848 0.0
C908 C 0.65003 0.97157 0.97012 0.0
H909 H 0.7645 0.92857 0.9629 0.0
H910 H 0.72895 0.94187 0.97832 0.0
H911 H 0.68638 0.97843 0.92505 0.0
H912 H 0.57553 0.99142 0.9576 0.0
H913 H 0.61251 0.98084 0.94385 0.0
C914 C 0.76809 0.07723 0.44197 0.0
C915 C 0.76589 0.10052 0.43626 0.0
C916 C 0.78852 0.07016 0.45095 0.0
C917 C 0.84496 0.09109 0.47645 0.0
H918 H 0.86175 0.03122 0.451 0.0
C919 C 0.93553 0.05672 0.48474 0.0
C920 C 0.93674 0.03263 0.48696 0.0
C921 C 0.91446 0.06621 0.48158 0.0
C922 C 0.85724 0.04782 0.45861 0.0
H923 H 0.78305 0.13496 0.43667 0.0
H924 H 0.81904 0.12255 0.45209 0.0
H925 H 0.82567 0.04563 0.43989 0.0
H926 H 0.91736 0.99961 0.48868 0.0
H927 H 0.88055 0.01608 0.484 0.0
H928 H 0.87703 0.09328 0.49479 0.0
C929 C 0.80486 0.10975 0.44978 0.0
C930 C 0.83645 0.05612 0.45222 0.0
C931 C 0.78425 0.11689 0.44093 0.0
C932 C 0.91671 0.01828 0.48711 0.0
C933 C 0.89571 0.02771 0.48416 0.0
C934 C 0.86592 0.08277 0.4828 0.0
C935 C 0.80743 0.08614 0.45429 0.0
C936 C 0.82987 0.07775 0.46121 0.0
C937 C 0.89434 0.05167 0.48058 0.0
C938 C 0.87219 0.0609 0.47411 0.0
H939 H 0.75409 0.0643 0.43904 0.0
H940 H 0.78957 0.05199 0.45489 0.0
H941 H 0.84045 0.10778 0.48378 0.0
H942 H 0.95091 0.068 0.48426 0.0
H943 H 0.91405 0.08468 0.47872 0.0
C944 C 0.23355 0.61054 0.11256 0.0
C945 C 0.25354 0.60201 0.10384 0.0
C946 C 0.21281 0.60427 0.1014 0.0
C947 C 0.18527 0.58013 0.04675 0.0
H948 H 0.13696 0.56213 0.08874 0.0
C949 C 0.09636 0.53539 0.01962 0.0
C950 C 0.07816 0.54281 0.03281 0.0
C951 C 0.11848 0.54448 0.02496 0.0
C952 C 0.15019 0.56738 0.07677 0.0
H953 H 0.26814 0.58107 0.07645 0.0
H954 H 0.23162 0.57004 0.05661 0.0
H955 H 0.17445 0.57392 0.10458 0.0
H956 H 0.0681 0.5662 0.06071 0.0
H957 H 0.10648 0.5826 0.06961 0.0
H958 H 0.1607 0.57323 0.01888 0.0
C959 C 0.23196 0.5816 0.07202 0.0
C960 C 0.17167 0.57413 0.08586 0.0
C961 C 0.25276 0.58779 0.08334 0.0
C962 C 0.08197 0.56047 0.0502 0.0
C963 C 0.10392 0.56961 0.05544 0.0
C964 C 0.16363 0.57329 0.03759 0.0
C965 C 0.21172 0.58935 0.0813 0.0
C966 C 0.18934 0.58102 0.07104 0.0
C967 C 0.12249 0.56095 0.04362 0.0
C968 C 0.14579 0.56733 0.05261 0.0
H969 H 0.23392 0.62151 0.1284 0.0
H970 H 0.19755 0.61082 0.10874 0.0
H971 H 0.19863 0.58528 0.03491 0.0
H972 H 0.09368 0.52143 0.00642 0.0
H973 H 0.1325 0.53747 0.01563 0.0
C974 C 0.24589 0.45184 0.5491 0.0
C975 C 0.23918 0.44969 0.57238 0.0
C976 C 0.26838 0.45833 0.54385 0.0
C977 C 0.32382 0.48163 0.57116 0.0
H978 H 0.34781 0.45571 0.51378 0.0
C979 C 0.4131 0.51022 0.54396 0.0
C980 C 0.4271 0.49345 0.5347 0.0
C981 C 0.38993 0.50519 0.54615 0.0
C982 C 0.34147 0.46289 0.52999 0.0
H983 H 0.25062 0.45354 0.60847 0.0
H984 H 0.28994 0.46411 0.5995 0.0
H985 H 0.30837 0.44663 0.52342 0.0
H986 H 0.42775 0.4586 0.51918 0.0
H987 H 0.38673 0.44942 0.52324 0.0
H988 H 0.3572 0.49661 0.57849 0.0
C989 C 0.27788 0.46128 0.58512 0.0
C990 C 0.31864 0.45804 0.53539 0.0
C991 C 0.25526 0.45516 0.59036 0.0
C992 C 0.41724 0.47184 0.52627 0.0
C993 C 0.39379 0.46664 0.5287 0.0
C994 C 0.34666 0.48608 0.56599 0.0
C995 C 0.28492 0.4625 0.56173 0.0
C996 C 0.30937 0.46754 0.55597 0.0
C997 C 0.38002 0.48303 0.53951 0.0
C998 C 0.35578 0.47712 0.54516 0.0
H999 H 0.23377 0.44809 0.53487 0.0
H1000 H 0.27274 0.45983 0.52567 0.0
H1001 H 0.31754 0.48957 0.58702 0.0
H1002 H 0.42031 0.5271 0.55045 0.0
H1003 H 0.3799 0.5186 0.55373 0.0
C1004 C 0.9314 0.74891 0.91811 0.0
C1005 C 0.92011 0.7627 0.93447 0.0
C1006 C 0.9415 0.72864 0.92481 0.0
C1007 C 0.95378 0.69389 0.97884 0.0
H1008 H 0.96428 0.64595 0.93163 0.0
C1009 C 0.97388 0.59804 0.99949 0.0
C1010 C 0.99135 0.58885 0.9863 0.0
C1011 C 0.96571 0.61979 0.99426 0.0
C1012 C 0.96143 0.65919 0.94506 0.0
H1013 H 0.91221 0.7665 0.97122 0.0
H1014 H 0.92744 0.73093 0.98234 0.0
H1015 H 0.94978 0.68222 0.92002 0.0
H1016 H 0.01456 0.59591 0.958 0.0
H1017 H 1.00042 0.63326 0.94908 0.0
H1018 H 0.96449 0.66982 1.00386 0.0
C1019 C 0.92941 0.73552 0.96437 0.0
C1020 C 0.95328 0.68037 0.93838 0.0
C1021 C 0.91999 0.75604 0.95782 0.0
C1022 C 1.001 0.60231 0.9685 0.0
C1023 C 0.99276 0.62371 0.96319 0.0
C1024 C 0.96129 0.67244 0.98551 0.0
C1025 C 0.94019 0.72112 0.94802 0.0
C1026 C 0.94936 0.69833 0.95511 0.0
C1027 C 0.97473 0.63257 0.97563 0.0
C1028 C 0.96543 0.65491 0.96872 0.0
H1029 H 0.93199 0.75338 0.89994 0.0
H1030 H 0.95017 0.71894 0.91151 0.0
H1031 H 0.95189 0.70697 0.99259 0.0
H1032 H 0.96587 0.58802 0.01307 0.0
H1033 H 0.95176 0.62618 1.00417 0.0
C1034 C 0.43396 0.77164 0.09086 0.0
C1035 C 0.41914 0.76983 0.10962 0.0
C1036 C 0.44328 0.79344 0.08481 0.0
C1037 C 0.44898 0.85677 0.10421 0.0
H1038 H 0.45709 0.86393 0.03781 0.0
C1039 C 0.46451 0.94045 0.0454 0.0
C1040 C 0.48579 0.93894 0.03506 0.0
C1041 C 0.45603 0.92236 0.05927 0.0
C1042 C 0.4546 0.86216 0.05638 0.0
H1043 H 0.40267 0.78882 0.13718 0.0
H1044 H 0.41788 0.82709 0.12598 0.0
H1045 H 0.44392 0.82625 0.05177 0.0
H1046 H 0.51589 0.91928 0.03297 0.0
H1047 H 0.50112 0.88807 0.0569 0.0
H1048 H 0.45946 0.89328 0.10825 0.0
C1049 C 0.42308 0.81183 0.11633 0.0
C1050 C 0.44748 0.84048 0.0645 0.0
C1051 C 0.41425 0.78994 0.12272 0.0
C1052 C 0.49923 0.92054 0.04043 0.0
C1053 C 0.49092 0.90279 0.05422 0.0
C1054 C 0.45584 0.87867 0.09595 0.0
C1055 C 0.43734 0.81393 0.09695 0.0
C1056 C 0.44486 0.83732 0.08856 0.0
C1057 C 0.46898 0.90307 0.06293 0.0
C1058 C 0.45887 0.88134 0.072 0.0
H1059 H 0.43802 0.75623 0.08066 0.0
H1060 H 0.45478 0.79418 0.07029 0.0
H1061 H 0.44744 0.85504 0.12286 0.0
H1062 H 0.45398 0.95462 0.04155 0.0
H1063 H 0.43896 0.92269 0.06587 0.0
C1064 C 0.05064 0.26711 0.58705 0.0
C1065 C 0.06656 0.28189 0.57588 0.0
C1066 C 0.0459 0.24412 0.57889 0.0
C1067 C 0.05342 0.20277 0.52782 0.0
H1068 H 0.03598 0.1574 0.57359 0.0
C1069 C 0.04575 0.10057 0.51457 0.0
C1070 C 0.02662 0.08961 0.5247 0.0
C1071 C 0.04967 0.12489 0.51683 0.0
C1072 C 0.04065 0.16992 0.56057 0.0
H1073 H 0.09002 0.28368 0.5471 0.0
H1074 H 0.0827 0.24313 0.53367 0.0
H1075 H 0.04637 0.19735 0.58643 0.0
H1076 H 0.99621 0.09506 0.54415 0.0
H1077 H 1.0029 0.1374 0.54799 0.0
H1078 H 0.04859 0.17447 0.50214 0.0
C1079 C 0.07332 0.24958 0.54839 0.0
C1080 C 0.0465 0.19295 0.56789 0.0
C1081 C 0.07779 0.27283 0.55634 0.0
C1082 C 0.01076 0.10326 0.53571 0.0
C1083 C 0.01476 0.12741 0.53817 0.0
C1084 C 0.04798 0.17947 0.52054 0.0
C1085 C 0.05733 0.23484 0.55962 0.0
C1086 C 0.05253 0.2099 0.55162 0.0
C1087 C 0.03472 0.13834 0.52964 0.0
C1088 C 0.04112 0.16296 0.53683 0.0
H1089 H 0.04196 0.27311 0.60244 0.0
H1090 H 0.0331 0.23369 0.5878 0.0
H1091 H 0.0578 0.21522 0.51469 0.0
H1092 H 0.05851 0.09025 0.50662 0.0
H1093 H 0.06525 0.1329 0.51023 0.0
C1094 C 0.57826 0.26679 0.4371 0.0
C1095 C 0.60048 0.26377 0.44506 0.0
C1096 C 0.56762 0.28719 0.44315 0.0
C1097 C 0.56956 0.33563 0.48722 0.0
H1098 H 0.53618 0.36732 0.44065 0.0
C1099 C 0.53703 0.42754 0.50443 0.0
C1100 C 0.51716 0.43284 0.49265 0.0
C1101 C 0.54633 0.40605 0.49999 0.0
C1102 C 0.54507 0.35849 0.45402 0.0
H1103 H 0.62916 0.28016 0.46492 0.0
H1104 H 0.61054 0.3155 0.47559 0.0
H1105 H 0.55397 0.33155 0.42959 0.0
H1106 H 0.4907 0.4198 0.46813 0.0
H1107 H 0.50594 0.38178 0.46158 0.0
H1108 H 0.56052 0.36232 0.51174 0.0
C1109 C 0.60122 0.30196 0.46504 0.0
C1110 C 0.55534 0.33803 0.4476 0.0
C1111 C 0.61186 0.28168 0.45895 0.0
C1112 C 0.5059 0.41589 0.47766 0.0
C1113 C 0.51491 0.39432 0.47355 0.0
C1114 C 0.5591 0.35596 0.4937 0.0
C1115 C 0.57897 0.3049 0.45731 0.0
C1116 C 0.56772 0.32641 0.46414 0.0
C1117 C 0.5357 0.38944 0.48397 0.0
C1118 C 0.54668 0.36764 0.47721 0.0
H1119 H 0.56898 0.25325 0.42652 0.0
H1120 H 0.55037 0.28892 0.43711 0.0
H1121 H 0.57884 0.32692 0.5004 0.0
H1122 H 0.54634 0.44065 0.51552 0.0
H1123 H 0.5625 0.40307 0.50811 0.0
loop_
_geom_bond_atom_site_label_1
_geom_bond_atom_site_label_2
_geom_bond_distance
_geom_bond_site_symmetry_2
_ccdc_geom_bond_type
C0 C1 1.264 . S
C0 C5 1.479 . S
C0 C10 1.465 . S
C1 C0 1.264 . S
C1 C3 1.339 . S
C1 H28 0.931 . S
C2 C3 1.395 . S
C2 C4 1.320 . S
C3 C1 1.339 . S
C3 C2 1.395 . S
C3 H29 0.929 . S
C4 C2 1.320 . S
C4 C5 1.405 . S
C4 H30 0.930 . S
C5 C0 1.479 . S
C5 C4 1.405 . S
C5 H31 0.931 . S
U6 O7 2.454 . S
U6 O8 2.458 . S
U6 C9 2.984 . S
U6 C10 2.847 . S
U6 C23 2.882 . S
U6 O24 2.441 . S
U6 O25 2.420 . S
U6 O26 2.455 . S
U6 O27 2.449 . S
O7 U6 2.454 . S
O7 C9 1.353 . S
O8 U6 2.458 . S
O8 C9 1.286 . S
C9 U6 2.984 . S
C9 O7 1.353 . S
C9 O8 1.286 . S
C9 C11 1.363 . S
C10 C0 1.465 . S
C10 U6 2.847 . S
C10 O24 1.249 . S
C10 O25 1.202 . S
C11 C9 1.363 . S
C11 C13 1.408 . S
C11 C16 1.342 . S
C12 C13 1.310 . S
C12 C15 1.461 . S
C12 H32 0.932 . S
C13 C11 1.408 . S
C13 C12 1.310 . S
C13 H33 0.930 . S
C14 C15 1.474 . S
C14 C16 1.285 . S
C14 H34 0.929 . S
C15 C12 1.461 . S
C15 C14 1.474 . S
C16 C11 1.342 . S
C16 C14 1.285 . S
C16 H35 0.930 . S
C17 C20 1.424 . S
C17 C22 1.245 . S
C17 C23 1.428 . S
C18 C21 1.260 . S
C18 C22 1.477 . S
C18 H36 0.932 . S
C19 C20 1.384 . S
C19 C21 1.479 . S
C19 H37 0.929 . S
C20 C17 1.424 . S
C20 C19 1.384 . S
C20 H38 0.928 . S
C21 C18 1.260 . S
C21 C19 1.479 . S
C22 C17 1.245 . S
C22 C18 1.477 . S
C22 H39 0.932 . S
C23 U6 2.882 . S
C23 C17 1.428 . S
C23 O26 1.301 . S
C23 O27 1.282 . S
O24 U6 2.441 . S
O24 C10 1.249 . S
O25 U6 2.420 . S
O25 C10 1.202 . S
O26 U6 2.455 . S
O26 C23 1.301 . S
O27 U6 2.449 . S
O27 C23 1.282 . S
H28 C1 0.931 . S
H29 C3 0.929 . S
H30 C4 0.930 . S
H31 C5 0.931 . S
H32 C12 0.932 . S
H33 C13 0.930 . S
H34 C14 0.929 . S
H35 C16 0.930 . S
H36 C18 0.932 . S
H37 C19 0.929 . S
H38 C20 0.928 . S
H39 C22 0.932 . S
C40 C41 1.264 . S
C40 C45 1.479 . S
C40 C50 1.465 . S
C41 C40 1.264 . S
C41 C43 1.339 . S
C41 H68 0.931 . S
C42 C43 1.395 . S
C42 C44 1.320 . S
C43 C41 1.339 . S
C43 C42 1.395 . S
C43 H69 0.929 . S
C44 C42 1.320 . S
C44 C45 1.405 . S
C44 H70 0.930 . S
C45 C40 1.479 . S
C45 C44 1.405 . S
C45 H71 0.931 . S
U46 O47 2.454 . S
U46 O48 2.458 . S
U46 C49 2.984 . S
U46 C50 2.847 . S
U46 C63 2.882 . S
U46 O64 2.441 . S
U46 O65 2.420 . S
U46 O66 2.455 . S
U46 O67 2.449 . S
O47 U46 2.454 . S
O47 C49 1.353 . S
O48 U46 2.458 . S
O48 C49 1.286 . S
C49 U46 2.984 . S
C49 O47 1.353 . S
C49 O48 1.286 . S
C49 C51 1.363 . S
C50 C40 1.465 . S
C50 U46 2.847 . S
C50 O64 1.249 . S
C50 O65 1.202 . S
C51 C49 1.363 . S
C51 C53 1.408 . S
C51 C56 1.342 . S
C52 C53 1.310 . S
C52 C55 1.461 . S
C52 H72 0.932 . S
C53 C51 1.408 . S
C53 C52 1.310 . S
C53 H73 0.930 . S
C54 C55 1.474 . S
C54 C56 1.285 . S
C54 H74 0.929 . S
C55 C52 1.461 . S
C55 C54 1.474 . S
C56 C51 1.342 . S
C56 C54 1.285 . S
C56 H75 0.930 . S
C57 C60 1.424 . S
C57 C62 1.245 . S
C57 C63 1.428 . S
C58 C61 1.260 . S
C58 C62 1.477 . S
C58 H76 0.932 . S
C59 C60 1.384 . S
C59 C61 1.479 . S
C59 H77 0.929 . S
C60 C57 1.424 . S
C60 C59 1.384 . S
C60 H78 0.928 . S
C61 C58 1.260 . S
C61 C59 1.479 . S
C62 C57 1.245 . S
C62 C58 1.477 . S
C62 H79 0.932 . S
C63 U46 2.882 . S
C63 C57 1.428 . S
C63 O66 1.301 . S
C63 O67 1.282 . S
O64 U46 2.441 . S
O64 C50 1.249 . S
O65 U46 2.420 . S
O65 C50 1.202 . S
O66 U46 2.455 . S
O66 C63 1.301 . S
O67 U46 2.449 . S
O67 C63 1.282 . S
H68 C41 0.931 . S
H69 C43 0.929 . S
H70 C44 0.930 . S
H71 C45 0.931 . S
H72 C52 0.932 . S
H73 C53 0.930 . S
H74 C54 0.929 . S
H75 C56 0.930 . S
H76 C58 0.932 . S
H77 C59 0.929 . S
H78 C60 0.928 . S
H79 C62 0.932 . S
C80 C81 1.264 . S
C80 C85 1.479 . S
C80 C90 1.465 . S
C81 C80 1.264 . S
C81 C83 1.339 . S
C81 H108 0.931 . S
C82 C83 1.395 . S
C82 C84 1.320 . S
C83 C81 1.339 . S
C83 C82 1.395 . S
C83 H109 0.929 . S
C84 C82 1.320 . S
C84 C85 1.405 . S
C84 H110 0.930 . S
C85 C80 1.479 . S
C85 C84 1.405 . S
C85 H111 0.931 . S
U86 O87 2.454 . S
U86 O88 2.458 . S
U86 C89 2.984 . S
U86 C90 2.847 . S
U86 C103 2.882 . S
U86 O104 2.441 . S
U86 O105 2.420 . S
U86 O106 2.455 . S
U86 O107 2.449 . S
O87 U86 2.454 . S
O87 C89 1.353 . S
O88 U86 2.458 . S
O88 C89 1.286 . S
C89 U86 2.984 . S
C89 O87 1.353 . S
C89 O88 1.286 . S
C89 C91 1.363 . S
C90 C80 1.465 . S
C90 U86 2.847 . S
C90 O104 1.249 . S
C90 O105 1.202 . S
C91 C89 1.363 . S
C91 C93 1.408 . S
C91 C96 1.342 . S
C92 C93 1.310 . S
C92 C95 1.461 . S
C92 H112 0.932 . S
C93 C91 1.408 . S
C93 C92 1.310 . S
C93 H113 0.930 . S
C94 C95 1.474 . S
C94 C96 1.285 . S
C94 H114 0.929 . S
C95 C92 1.461 . S
C95 C94 1.474 . S
C96 C91 1.342 . S
C96 C94 1.285 . S
C96 H115 0.930 . S
C97 C100 1.424 . S
C97 C102 1.245 . S
C97 C103 1.428 . S
C98 C101 1.260 . S
C98 C102 1.477 . S
C98 H116 0.932 . S
C99 C100 1.384 . S
C99 C101 1.479 . S
C99 H117 0.929 . S
C100 C97 1.424 . S
C100 C99 1.384 . S
C100 H118 0.928 . S
C101 C98 1.260 . S
C101 C99 1.479 . S
C102 C97 1.245 . S
C102 C98 1.477 . S
C102 H119 0.932 . S
C103 U86 2.882 . S
C103 C97 1.428 . S
C103 O106 1.301 . S
C103 O107 1.282 . S
O104 U86 2.441 . S
O104 C90 1.249 . S
O105 U86 2.420 . S
O105 C90 1.202 . S
O106 U86 2.455 . S
O106 C103 1.301 . S
O107 U86 2.449 . S
O107 C103 1.282 . S
H108 C81 0.931 . S
H109 C83 0.929 . S
H110 C84 0.930 . S
H111 C85 0.931 . S
H112 C92 0.932 . S
H113 C93 0.930 . S
H114 C94 0.929 . S
H115 C96 0.930 . S
H116 C98 0.932 . S
H117 C99 0.929 . S
H118 C100 0.928 . S
H119 C102 0.932 . S
C120 C121 1.264 . S
C120 C125 1.479 . S
C120 C130 1.465 . S
C121 C120 1.264 . S
C121 C123 1.339 . S
C121 H148 0.931 . S
C122 C123 1.395 . S
C122 C124 1.320 . S
C123 C121 1.339 . S
C123 C122 1.395 . S
C123 H149 0.929 . S
C124 C122 1.320 . S
C124 C125 1.405 . S
C124 H150 0.930 . S
C125 C120 1.479 . S
C125 C124 1.405 . S
C125 H151 0.931 . S
U126 O127 2.454 . S
U126 O128 2.458 . S
U126 C129 2.984 . S
U126 C130 2.847 . S
U126 C143 2.882 . S
U126 O144 2.441 . S
U126 O145 2.420 . S
U126 O146 2.455 . S
U126 O147 2.449 . S
O127 U126 2.454 . S
O127 C129 1.353 . S
O128 U126 2.458 . S
O128 C129 1.286 . S
C129 U126 2.984 . S
C129 O127 1.353 . S
C129 O128 1.286 . S
C129 C131 1.363 . S
C130 C120 1.465 . S
C130 U126 2.847 . S
C130 O144 1.249 . S
C130 O145 1.202 . S
C131 C129 1.363 . S
C131 C133 1.408 . S
C131 C136 1.342 . S
C132 C133 1.310 . S
C132 C135 1.461 . S
C132 H152 0.932 . S
C133 C131 1.408 . S
C133 C132 1.310 . S
C133 H153 0.930 . S
C134 C135 1.474 . S
C134 C136 1.285 . S
C134 H154 0.929 . S
C135 C132 1.461 . S
C135 C134 1.474 . S
C136 C131 1.342 . S
C136 C134 1.285 . S
C136 H155 0.930 . S
C137 C140 1.424 . S
C137 C142 1.245 . S
C137 C143 1.428 . S
C138 C141 1.260 . S
C138 C142 1.477 . S
C138 H156 0.932 . S
C139 C140 1.384 . S
C139 C141 1.479 . S
C139 H157 0.929 . S
C140 C137 1.424 . S
C140 C139 1.384 . S
C140 H158 0.928 . S
C141 C138 1.260 . S
C141 C139 1.479 . S
C142 C137 1.245 . S
C142 C138 1.477 . S
C142 H159 0.932 . S
C143 U126 2.882 . S
C143 C137 1.428 . S
C143 O146 1.301 . S
C143 O147 1.282 . S
O144 U126 2.441 . S
O144 C130 1.249 . S
O145 U126 2.420 . S
O145 C130 1.202 . S
O146 U126 2.455 . S
O146 C143 1.301 . S
O147 U126 2.449 . S
O147 C143 1.282 . S
H148 C121 0.931 . S
H149 C123 0.929 . S
H150 C124 0.930 . S
H151 C125 0.931 . S
H152 C132 0.932 . S
H153 C133 0.930 . S
H154 C134 0.929 . S
H155 C136 0.930 . S
H156 C138 0.932 . S
H157 C139 0.929 . S
H158 C140 0.928 . S
H159 C142 0.932 . S
C160 C161 1.264 . S
C160 C165 1.479 . S
C160 C170 1.465 . S
C161 C160 1.264 . S
C161 C163 1.339 . S
C161 H188 0.931 . S
C162 C163 1.395 . S
C162 C164 1.320 . S
C163 C161 1.339 . S
C163 C162 1.395 . S
C163 H189 0.929 . S
C164 C162 1.320 . S
C164 C165 1.405 . S
C164 H190 0.930 . S
C165 C160 1.479 . S
C165 C164 1.405 . S
C165 H191 0.931 . S
U166 O167 2.454 . S
U166 O168 2.458 . S
U166 C169 2.984 . S
U166 C170 2.847 . S
U166 C183 2.882 . S
U166 O184 2.441 . S
U166 O185 2.420 . S
U166 O186 2.455 . S
U166 O187 2.449 . S
O167 U166 2.454 . S
O167 C169 1.353 . S
O168 U166 2.458 . S
O168 C169 1.286 . S
C169 U166 2.984 . S
C169 O167 1.353 . S
C169 O168 1.286 . S
C169 C171 1.363 . S
C170 C160 1.465 . S
C170 U166 2.847 . S
C170 O184 1.249 . S
C170 O185 1.202 . S
C171 C169 1.363 . S
C171 C173 1.408 . S
C171 C176 1.342 . S
C172 C173 1.310 . S
C172 C175 1.461 . S
C172 H192 0.932 . S
C173 C171 1.408 . S
C173 C172 1.310 . S
C173 H193 0.930 . S
C174 C175 1.474 . S
C174 C176 1.285 . S
C174 H194 0.929 . S
C175 C172 1.461 . S
C175 C174 1.474 . S
C176 C171 1.342 . S
C176 C174 1.285 . S
C176 H195 0.930 . S
C177 C180 1.424 . S
C177 C182 1.245 . S
C177 C183 1.428 . S
C178 C181 1.260 . S
C178 C182 1.477 . S
C178 H196 0.932 . S
C179 C180 1.384 . S
C179 C181 1.479 . S
C179 H197 0.929 . S
C180 C177 1.424 . S
C180 C179 1.384 . S
C180 H198 0.928 . S
C181 C178 1.260 . S
C181 C179 1.479 . S
C182 C177 1.245 . S
C182 C178 1.477 . S
C182 H199 0.932 . S
C183 U166 2.882 . S
C183 C177 1.428 . S
C183 O186 1.301 . S
C183 O187 1.282 . S
O184 U166 2.441 . S
O184 C170 1.249 . S
O185 U166 2.420 . S
O185 C170 1.202 . S
O186 U166 2.455 . S
O186 C183 1.301 . S
O187 U166 2.449 . S
O187 C183 1.282 . S
H188 C161 0.931 . S
H189 C163 0.929 . S
H190 C164 0.930 . S
H191 C165 0.931 . S
H192 C172 0.932 . S
H193 C173 0.930 . S
H194 C174 0.929 . S
H195 C176 0.930 . S
H196 C178 0.932 . S
H197 C179 0.929 . S
H198 C180 0.928 . S
H199 C182 0.932 . S
C200 C201 1.264 . S
C200 C205 1.479 . S
C200 C210 1.465 . S
C201 C200 1.264 . S
C201 C203 1.339 . S
C201 H228 0.931 . S
C202 C203 1.395 . S
C202 C204 1.320 . S
C203 C201 1.339 . S
C203 C202 1.395 . S
C203 H229 0.929 . S
C204 C202 1.320 . S
C204 C205 1.405 . S
C204 H230 0.930 . S
C205 C200 1.479 . S
C205 C204 1.405 . S
C205 H231 0.931 . S
U206 O207 2.454 . S
U206 O208 2.458 . S
U206 C209 2.984 . S
U206 C210 2.847 . S
U206 C223 2.882 . S
U206 O224 2.441 . S
U206 O225 2.420 . S
U206 O226 2.455 . S
U206 O227 2.449 . S
O207 U206 2.454 . S
O207 C209 1.353 . S
O208 U206 2.458 . S
O208 C209 1.286 . S
C209 U206 2.984 . S
C209 O207 1.353 . S
C209 O208 1.286 . S
C209 C211 1.363 . S
C210 C200 1.465 . S
C210 U206 2.847 . S
C210 O224 1.249 . S
C210 O225 1.202 . S
C211 C209 1.363 . S
C211 C213 1.408 . S
C211 C216 1.342 . S
C212 C213 1.310 . S
C212 C215 1.461 . S
C212 H232 0.932 . S
C213 C211 1.408 . S
C213 C212 1.310 . S
C213 H233 0.930 . S
C214 C215 1.474 . S
C214 C216 1.285 . S
C214 H234 0.929 . S
C215 C212 1.461 . S
C215 C214 1.474 . S
C216 C211 1.342 . S
C216 C214 1.285 . S
C216 H235 0.930 . S
C217 C220 1.424 . S
C217 C222 1.245 . S
C217 C223 1.428 . S
C218 C221 1.260 . S
C218 C222 1.477 . S
C218 H236 0.932 . S
C219 C220 1.384 . S
C219 C221 1.479 . S
C219 H237 0.929 . S
C220 C217 1.424 . S
C220 C219 1.384 . S
C220 H238 0.928 . S
C221 C218 1.260 . S
C221 C219 1.479 . S
C222 C217 1.245 . S
C222 C218 1.477 . S
C222 H239 0.932 . S
C223 U206 2.882 . S
C223 C217 1.428 . S
C223 O226 1.301 . S
C223 O227 1.282 . S
O224 U206 2.441 . S
O224 C210 1.249 . S
O225 U206 2.420 . S
O225 C210 1.202 . S
O226 U206 2.455 . S
O226 C223 1.301 . S
O227 U206 2.449 . S
O227 C223 1.282 . S
H228 C201 0.931 . S
H229 C203 0.929 . S
H230 C204 0.930 . S
H231 C205 0.931 . S
H232 C212 0.932 . S
H233 C213 0.930 . S
H234 C214 0.929 . S
H235 C216 0.930 . S
H236 C218 0.932 . S
H237 C219 0.929 . S
H238 C220 0.928 . S
H239 C222 0.932 . S
C240 C241 1.264 . S
C240 C245 1.479 . S
C240 C250 1.465 . S
C241 C240 1.264 . S
C241 C243 1.339 . S
C241 H268 0.931 . S
C242 C243 1.395 . S
C242 C244 1.320 . S
C243 C241 1.339 . S
C243 C242 1.395 . S
C243 H269 0.929 . S
C244 C242 1.320 . S
C244 C245 1.405 . S
C244 H270 0.930 . S
C245 C240 1.479 . S
C245 C244 1.405 . S
C245 H271 0.931 . S
U246 O247 2.454 . S
U246 O248 2.458 . S
U246 C249 2.984 . S
U246 C250 2.847 . S
U246 C263 2.882 . S
U246 O264 2.441 . S
U246 O265 2.420 . S
U246 O266 2.455 . S
U246 O267 2.449 . S
O247 U246 2.454 . S
O247 C249 1.353 . S
O248 U246 2.458 . S
O248 C249 1.286 . S
C249 U246 2.984 . S
C249 O247 1.353 . S
C249 O248 1.286 . S
C249 C251 1.363 . S
C250 C240 1.465 . S
C250 U246 2.847 . S
C250 O264 1.249 . S
C250 O265 1.202 . S
C251 C249 1.363 . S
C251 C253 1.408 . S
C251 C256 1.342 . S
C252 C253 1.310 . S
C252 C255 1.461 . S
C252 H272 0.932 . S
C253 C251 1.408 . S
C253 C252 1.310 . S
C253 H273 0.930 . S
C254 C255 1.474 . S
C254 C256 1.285 . S
C254 H274 0.929 . S
C255 C252 1.461 . S
C255 C254 1.474 . S
C256 C251 1.342 . S
C256 C254 1.285 . S
C256 H275 0.930 . S
C257 C260 1.424 . S
C257 C262 1.245 . S
C257 C263 1.428 . S
C258 C261 1.260 . S
C258 C262 1.477 . S
C258 H276 0.932 . S
C259 C260 1.384 . S
C259 C261 1.479 . S
C259 H277 0.929 . S
C260 C257 1.424 . S
C260 C259 1.384 . S
C260 H278 0.928 . S
C261 C258 1.260 . S
C261 C259 1.479 . S
C262 C257 1.245 . S
C262 C258 1.477 . S
C262 H279 0.932 . S
C263 U246 2.882 . S
C263 C257 1.428 . S
C263 O266 1.301 . S
C263 O267 1.282 . S
O264 U246 2.441 . S
O264 C250 1.249 . S
O265 U246 2.420 . S
O265 C250 1.202 . S
O266 U246 2.455 . S
O266 C263 1.301 . S
O267 U246 2.449 . S
O267 C263 1.282 . S
H268 C241 0.931 . S
H269 C243 0.929 . S
H270 C244 0.930 . S
H271 C245 0.931 . S
H272 C252 0.932 . S
H273 C253 0.930 . S
H274 C254 0.929 . S
H275 C256 0.930 . S
H276 C258 0.932 . S
H277 C259 0.929 . S
H278 C260 0.928 . S
H279 C262 0.932 . S
C280 C281 1.264 . S
C280 C285 1.479 . S
C280 C290 1.465 . S
C281 C280 1.264 . S
C281 C283 1.339 . S
C281 H308 0.931 . S
C282 C283 1.395 . S
C282 C284 1.320 . S
C283 C281 1.339 . S
C283 C282 1.395 . S
C283 H309 0.929 . S
C284 C282 1.320 . S
C284 C285 1.405 . S
C284 H310 0.930 . S
C285 C280 1.479 . S
C285 C284 1.405 . S
C285 H311 0.931 . S
U286 O287 2.454 . S
U286 O288 2.458 . S
U286 C289 2.984 . S
U286 C290 2.847 . S
U286 C303 2.882 . S
U286 O304 2.441 . S
U286 O305 2.420 . S
U286 O306 2.455 . S
U286 O307 2.449 . S
O287 U286 2.454 . S
O287 C289 1.353 . S
O288 U286 2.458 . S
O288 C289 1.286 . S
C289 U286 2.984 . S
C289 O287 1.353 . S
C289 O288 1.286 . S
C289 C291 1.363 . S
C290 C280 1.465 . S
C290 U286 2.847 . S
C290 O304 1.249 . S
C290 O305 1.202 . S
C291 C289 1.363 . S
C291 C293 1.408 . S
C291 C296 1.342 . S
C292 C293 1.310 . S
C292 C295 1.461 . S
C292 H312 0.932 . S
C293 C291 1.408 . S
C293 C292 1.310 . S
C293 H313 0.930 . S
C294 C295 1.474 . S
C294 C296 1.285 . S
C294 H314 0.929 . S
C295 C292 1.461 . S
C295 C294 1.474 . S
C296 C291 1.342 . S
C296 C294 1.285 . S
C296 H315 0.930 . S
C297 C300 1.424 . S
C297 C302 1.245 . S
C297 C303 1.428 . S
C298 C301 1.260 . S
C298 C302 1.477 . S
C298 H316 0.932 . S
C299 C300 1.384 . S
C299 C301 1.479 . S
C299 H317 0.929 . S
C300 C297 1.424 . S
C300 C299 1.384 . S
C300 H318 0.928 . S
C301 C298 1.260 . S
C301 C299 1.479 . S
C302 C297 1.245 . S
C302 C298 1.477 . S
C302 H319 0.932 . S
C303 U286 2.882 . S
C303 C297 1.428 . S
C303 O306 1.301 . S
C303 O307 1.282 . S
O304 U286 2.441 . S
O304 C290 1.249 . S
O305 U286 2.420 . S
O305 C290 1.202 . S
O306 U286 2.455 . S
O306 C303 1.301 . S
O307 U286 2.449 . S
O307 C303 1.282 . S
H308 C281 0.931 . S
H309 C283 0.929 . S
H310 C284 0.930 . S
H311 C285 0.931 . S
H312 C292 0.932 . S
H313 C293 0.930 . S
H314 C294 0.929 . S
H315 C296 0.930 . S
H316 C298 0.932 . S
H317 C299 0.929 . S
H318 C300 0.928 . S
H319 C302 0.932 . S
O320 Mg321 1.990 . S
O320 C334 1.253 1_445 S
Mg321 O320 1.990 . S
Mg321 O324 2.180 . S
Mg321 O325 2.117 . S
Mg321 O339 1.993 1_545 S
O322 Mg323 2.072 1_665 S
O322 C334 1.260 . S
Mg323 O322 2.072 1_445 S
Mg323 O324 2.099 . S
Mg323 O326 2.079 . S
Mg323 O327 2.072 1_455 S
Mg323 O329 2.099 1_445 S
Mg323 O340 2.079 1_545 S
O324 Mg321 2.180 . S
O324 Mg323 2.099 . S
O324 C335 1.279 . S
O325 Mg321 2.117 . S
O325 C335 1.250 . S
O326 Mg323 2.079 . S
O326 C336 1.264 . S
O327 Mg323 2.072 1_655 S
O327 C337 1.260 . S
Mg328 O329 2.180 . S
Mg328 O330 2.030 1_565 S
Mg328 O331 1.990 1_565 S
Mg328 O332 2.117 . S
O329 Mg323 2.099 1_665 S
O329 Mg328 2.180 . S
O329 C338 1.279 . S
O330 Mg328 2.030 1_545 S
O330 C336 1.248 1_655 S
O331 Mg328 1.990 1_545 S
O331 C337 1.253 . S
O332 Mg328 2.117 . S
O332 C338 1.250 . S
C333 O339 1.266 . S
C333 O340 1.264 . S
C334 O320 1.253 1_665 S
C334 O322 1.260 . S
C335 O324 1.279 . S
C335 O325 1.250 . S
C336 O326 1.264 . S
C336 O330 1.248 1_455 S
C337 O327 1.260 . S
C337 O331 1.253 . S
C338 O329 1.279 . S
C338 O332 1.250 . S
O339 Mg321 1.993 1_565 S
O339 C333 1.266 . S
O340 Mg323 2.079 1_565 S
O340 C333 1.264 . S
O341 Mg342 1.990 . S
O341 C355 1.253 . S
Mg342 O341 1.990 . S
Mg342 O345 2.180 . S
Mg342 O346 2.117 1_554 S
Mg342 O360 2.030 . S
O343 Mg344 2.072 . S
O343 C355 1.260 . S
Mg344 O343 2.072 . S
Mg344 O345 2.099 . S
Mg344 O347 2.079 1_554 S
Mg344 O348 2.072 1_554 S
Mg344 O350 2.099 1_545 S
Mg344 O361 2.079 . S
O345 Mg342 2.180 . S
O345 Mg344 2.099 . S
O345 C356 1.279 1_554 S
O346 Mg342 2.117 1_556 S
O346 C356 1.250 . S
O347 Mg344 2.079 1_556 S
O347 C357 1.264 1_545 S
O348 Mg344 2.072 1_556 S
O348 C358 1.260 1_545 S
Mg349 O350 2.180 1_556 S
Mg349 O351 2.030 . S
Mg349 O352 1.990 . S
Mg349 O353 2.117 1_556 S
O350 Mg344 2.099 1_565 S
O350 Mg349 2.180 1_554 S
O350 C359 1.279 . S
O351 Mg349 2.030 . S
O351 C357 1.248 . S
O352 Mg349 1.990 . S
O352 C358 1.253 . S
O353 Mg349 2.117 1_554 S
O353 C359 1.250 . S
C354 O360 1.248 . S
C354 O361 1.264 . S
C355 O341 1.253 . S
C355 O343 1.260 . S
C356 O345 1.279 1_556 S
C356 O346 1.250 . S
C357 O347 1.264 1_565 S
C357 O351 1.248 . S
C358 O348 1.260 1_565 S
C358 O352 1.253 . S
C359 O350 1.279 . S
C359 O353 1.250 . S
O360 Mg342 2.030 . S
O360 C354 1.248 . S
O361 Mg344 2.079 . S
O361 C354 1.264 . S
O362 Mg363 1.990 . S
O362 C376 1.253 . S
Mg363 O362 1.990 . S
Mg363 O366 2.180 . S
Mg363 O367 2.117 . S
Mg363 O381 2.030 . S
O364 Mg365 2.072 . S
O364 C376 1.260 . S
Mg365 O364 2.072 . S
Mg365 O366 2.099 . S
Mg365 O368 2.079 . S
Mg365 O369 2.072 . S
Mg365 O371 2.099 . S
Mg365 O382 2.079 . S
O366 Mg363 2.180 . S
O366 Mg365 2.099 . S
O366 C377 1.279 . S
O367 Mg363 2.117 . S
O367 C377 1.250 . S
O368 Mg365 2.079 . S
O368 C378 1.264 . S
O369 Mg365 2.072 . S
O369 C379 1.260 . S
Mg370 O371 2.180 . S
Mg370 O372 2.030 . S
Mg370 O373 1.990 . S
Mg370 O374 2.117 . S
O371 Mg365 2.099 . S
O371 Mg370 2.180 . S
O371 C380 1.279 . S
O372 Mg370 2.030 . S
O372 C378 1.248 . S
O373 Mg370 1.990 . S
O373 C379 1.253 . S
O374 Mg370 2.117 . S
O374 C380 1.250 . S
C375 O381 1.248 . S
C375 O382 1.264 . S
C376 O362 1.253 . S
C376 O364 1.260 . S
C377 O366 1.279 . S
C377 O367 1.250 . S
C378 O368 1.264 . S
C378 O372 1.248 . S
C379 O369 1.260 . S
C379 O373 1.253 . S
C380 O371 1.279 . S
C380 O374 1.250 . S
O381 Mg363 2.030 . S
O381 C375 1.248 . S
O382 Mg365 2.079 . S
O382 C375 1.264 . S
O383 Mg384 1.990 . S
O383 C397 1.253 . S
Mg384 O383 1.990 . S
Mg384 O387 2.180 1_455 S
Mg384 O388 2.117 1_455 S
Mg384 O402 2.030 . S
O385 Mg386 2.072 . S
O385 C397 1.260 . S
Mg386 O385 2.072 . S
Mg386 O387 2.099 1_455 S
Mg386 O389 2.079 1_454 S
Mg386 O390 2.072 1_455 S
Mg386 O392 2.099 1_554 S
Mg386 O403 2.079 . S
O387 Mg384 2.180 1_655 S
O387 Mg386 2.099 1_655 S
O387 C398 1.279 . S
O388 Mg384 2.117 1_655 S
O388 C398 1.250 . S
O389 Mg386 2.079 1_656 S
O389 C399 1.264 . S
O390 Mg386 2.072 1_655 S
O390 C400 1.260 1_554 S
Mg391 O392 2.180 1_655 S
Mg391 O393 2.030 . S
Mg391 O394 1.990 . S
Mg391 O395 2.117 . S
O392 Mg386 2.099 1_556 S
O392 Mg391 2.180 1_455 S
O392 C401 1.279 . S
O393 Mg391 2.030 . S
O393 C399 1.248 . S
O394 Mg391 1.990 . S
O394 C400 1.253 . S
O395 Mg391 2.117 . S
O395 C401 1.250 1_655 S
C396 O402 1.248 . S
C396 O403 1.264 . S
C397 O383 1.253 . S
C397 O385 1.260 . S
C398 O387 1.279 . S
C398 O388 1.250 . S
C399 O389 1.264 . S
C399 O393 1.248 . S
C400 O390 1.260 1_556 S
C400 O394 1.253 . S
C401 O392 1.279 . S
C401 O395 1.250 1_455 S
O402 Mg384 2.030 . S
O402 C396 1.248 . S
O403 Mg386 2.079 . S
O403 C396 1.264 . S
C404 C405 1.349 . S
C404 C406 1.327 . S
C404 H429 0.950 . S
C405 C404 1.349 . S
C405 C421 1.349 . S
C406 C404 1.327 . S
C406 C425 1.429 . S
C406 H430 0.950 . S
C407 C424 1.574 . S
C407 C426 1.368 . S
C407 H431 0.949 . S
H408 C412 0.949 . S
C409 C410 1.349 . S
C409 C411 1.327 . S
C409 H432 0.950 . S
C410 C409 1.349 . S
C410 C422 1.349 . S
C411 C409 1.327 . S
C411 C427 1.429 . S
C411 H433 0.950 . S
C412 H408 0.949 . S
C412 C420 1.574 . S
C412 C428 1.368 . S
H413 C421 0.950 . S
H414 C419 0.950 . S
H415 C420 0.949 . S
H416 C422 0.950 . S
H417 C423 0.950 . S
H418 C424 0.949 . S
C419 H414 0.950 . S
C419 C421 1.327 . S
C419 C425 1.429 . S
C420 C412 1.574 . S
C420 H415 0.949 . S
C420 C426 1.368 . S
C421 C405 1.349 . S
C421 H413 0.950 . S
C421 C419 1.327 . S
C422 C410 1.349 . S
C422 H416 0.950 . S
C422 C423 1.327 . S
C423 H417 0.950 . S
C423 C422 1.327 . S
C423 C427 1.429 . S
C424 C407 1.574 . S
C424 H418 0.949 . S
C424 C428 1.368 . S
C425 C406 1.429 . S
C425 C419 1.429 . S
C425 C426 1.523 . S
C426 C407 1.368 . S
C426 C420 1.368 . S
C426 C425 1.523 . S
C427 C411 1.429 . S
C427 C423 1.429 . S
C427 C428 1.523 . S
C428 C412 1.368 . S
C428 C424 1.368 . S
C428 C427 1.523 . S
H429 C404 0.950 . S
H430 C406 0.950 . S
H431 C407 0.949 . S
H432 C409 0.950 . S
H433 C411 0.950 . S
C434 C435 1.349 . S
C434 C436 1.327 . S
C434 H459 0.950 . S
C435 C434 1.349 . S
C435 C451 1.349 . S
C436 C434 1.327 . S
C436 C455 1.429 . S
C436 H460 0.950 . S
C437 C454 1.574 . S
C437 C456 1.368 . S
C437 H461 0.949 . S
H438 C442 0.949 . S
C439 C440 1.349 1_545 S
C439 C441 1.327 1_545 S
C439 H462 0.950 . S
C440 C439 1.349 1_565 S
C440 C452 1.349 . S
C441 C439 1.327 1_565 S
C441 C457 1.429 . S
C441 H463 0.950 1_565 S
C442 H438 0.949 . S
C442 C450 1.574 . S
C442 C458 1.368 . S
H443 C451 0.950 . S
H444 C449 0.950 . S
H445 C450 0.949 . S
H446 C452 0.950 . S
H447 C453 0.950 . S
H448 C454 0.949 . S
C449 H444 0.950 . S
C449 C451 1.327 . S
C449 C455 1.429 . S
C450 C442 1.574 . S
C450 H445 0.949 . S
C450 C456 1.368 . S
C451 C435 1.349 . S
C451 H443 0.950 . S
C451 C449 1.327 . S
C452 C440 1.349 . S
C452 H446 0.950 . S
C452 C453 1.327 . S
C453 H447 0.950 . S
C453 C452 1.327 . S
C453 C457 1.429 . S
C454 C437 1.574 . S
C454 H448 0.949 . S
C454 C458 1.368 . S
C455 C436 1.429 . S
C455 C449 1.429 . S
C455 C456 1.523 . S
C456 C437 1.368 . S
C456 C450 1.368 . S
C456 C455 1.523 . S
C457 C441 1.429 . S
C457 C453 1.429 . S
C457 C458 1.523 . S
C458 C442 1.368 . S
C458 C454 1.368 . S
C458 C457 1.523 . S
H459 C434 0.950 . S
H460 C436 0.950 . S
H461 C437 0.949 . S
H462 C439 0.950 . S
H463 C441 0.950 1_545 S
C464 C465 1.349 . S
C464 C466 1.327 . S
C464 H489 0.950 . S
C465 C464 1.349 . S
C465 C481 1.349 . S
C466 C464 1.327 . S
C466 C485 1.429 . S
C466 H490 0.950 . S
C467 C484 1.574 . S
C467 C486 1.368 . S
C467 H491 0.949 . S
H468 C472 0.949 . S
C469 C470 1.349 . S
C469 C471 1.327 . S
C469 H492 0.950 . S
C470 C469 1.349 . S
C470 C482 1.349 . S
C471 C469 1.327 . S
C471 C487 1.429 . S
C471 H493 0.950 . S
C472 H468 0.949 . S
C472 C480 1.574 . S
C472 C488 1.368 . S
H473 C481 0.950 . S
H474 C479 0.950 . S
H475 C480 0.949 . S
H476 C482 0.950 . S
H477 C483 0.950 . S
H478 C484 0.949 . S
C479 H474 0.950 . S
C479 C481 1.327 . S
C479 C485 1.429 . S
C480 C472 1.574 . S
C480 H475 0.949 . S
C480 C486 1.368 . S
C481 C465 1.349 . S
C481 H473 0.950 . S
C481 C479 1.327 . S
C482 C470 1.349 . S
C482 H476 0.950 . S
C482 C483 1.327 . S
C483 H477 0.950 . S
C483 C482 1.327 . S
C483 C487 1.429 . S
C484 C467 1.574 . S
C484 H478 0.949 . S
C484 C488 1.368 . S
C485 C466 1.429 . S
C485 C479 1.429 . S
C485 C486 1.523 . S
C486 C467 1.368 . S
C486 C480 1.368 . S
C486 C485 1.523 . S
C487 C471 1.429 . S
C487 C483 1.429 . S
C487 C488 1.523 . S
C488 C472 1.368 . S
C488 C484 1.368 . S
C488 C487 1.523 . S
H489 C464 0.950 . S
H490 C466 0.950 . S
H491 C467 0.949 . S
H492 C469 0.950 . S
H493 C471 0.950 . S
C494 C495 1.349 . S
C494 C496 1.327 . S
C494 H519 0.950 . S
C495 C494 1.349 . S
C495 C511 1.349 . S
C496 C494 1.327 . S
C496 C515 1.429 . S
C496 H520 0.950 . S
C497 C514 1.574 . S
C497 C516 1.368 . S
C497 H521 0.949 . S
H498 C502 0.949 . S
C499 C500 1.349 . S
C499 C501 1.327 . S
C499 H522 0.950 . S
C500 C499 1.349 . S
C500 C512 1.349 . S
C501 C499 1.327 . S
C501 C517 1.429 . S
C501 H523 0.950 . S
C502 H498 0.949 . S
C502 C510 1.574 . S
C502 C518 1.368 . S
H503 C511 0.950 . S
H504 C509 0.950 . S
H505 C510 0.949 . S
H506 C512 0.950 . S
H507 C513 0.950 . S
H508 C514 0.949 . S
C509 H504 0.950 . S
C509 C511 1.327 . S
C509 C515 1.429 . S
C510 C502 1.574 . S
C510 H505 0.949 . S
C510 C516 1.368 . S
C511 C495 1.349 . S
C511 H503 0.950 . S
C511 C509 1.327 . S
C512 C500 1.349 . S
C512 H506 0.950 . S
C512 C513 1.327 . S
C513 H507 0.950 . S
C513 C512 1.327 . S
C513 C517 1.429 . S
C514 C497 1.574 . S
C514 H508 0.949 . S
C514 C518 1.368 . S
C515 C496 1.429 . S
C515 C509 1.429 . S
C515 C516 1.523 . S
C516 C497 1.368 . S
C516 C510 1.368 . S
C516 C515 1.523 . S
C517 C501 1.429 . S
C517 C513 1.429 . S
C517 C518 1.523 . S
C518 C502 1.368 . S
C518 C514 1.368 . S
C518 C517 1.523 . S
H519 C494 0.950 . S
H520 C496 0.950 . S
H521 C497 0.949 . S
H522 C499 0.950 . S
H523 C501 0.950 . S
C524 C525 1.349 . S
C524 C526 1.327 . S
C524 H549 0.950 . S
C525 C524 1.349 . S
C525 C541 1.349 . S
C526 C524 1.327 . S
C526 C545 1.429 . S
C526 H550 0.950 . S
C527 C544 1.574 . S
C527 C546 1.368 . S
C527 H551 0.949 . S
H528 C532 0.949 . S
C529 C530 1.349 . S
C529 C531 1.327 . S
C529 H552 0.950 . S
C530 C529 1.349 . S
C530 C542 1.349 . S
C531 C529 1.327 . S
C531 C547 1.429 . S
C531 H553 0.950 . S
C532 H528 0.949 . S
C532 C540 1.574 . S
C532 C548 1.368 . S
H533 C541 0.950 . S
H534 C539 0.950 . S
H535 C540 0.949 . S
H536 C542 0.950 . S
H537 C543 0.950 . S
H538 C544 0.949 . S
C539 H534 0.950 . S
C539 C541 1.327 . S
C539 C545 1.429 . S
C540 C532 1.574 . S
C540 H535 0.949 . S
C540 C546 1.368 . S
C541 C525 1.349 . S
C541 H533 0.950 . S
C541 C539 1.327 . S
C542 C530 1.349 . S
C542 H536 0.950 . S
C542 C543 1.327 . S
C543 H537 0.950 . S
C543 C542 1.327 . S
C543 C547 1.429 . S
C544 C527 1.574 . S
C544 H538 0.949 . S
C544 C548 1.368 . S
C545 C526 1.429 . S
C545 C539 1.429 . S
C545 C546 1.523 . S
C546 C527 1.368 . S
C546 C540 1.368 . S
C546 C545 1.523 . S
C547 C531 1.429 . S
C547 C543 1.429 . S
C547 C548 1.523 . S
C548 C532 1.368 . S
C548 C544 1.368 . S
C548 C547 1.523 . S
H549 C524 0.950 . S
H550 C526 0.950 . S
H551 C527 0.949 . S
H552 C529 0.950 . S
H553 C531 0.950 . S
C554 C555 1.349 . S
C554 C556 1.327 . S
C554 H579 0.950 . S
C555 C554 1.349 . S
C555 C571 1.349 . S
C556 C554 1.327 . S
C556 C575 1.429 . S
C556 H580 0.950 . S
C557 C574 1.574 . S
C557 C576 1.368 . S
C557 H581 0.949 . S
H558 C562 0.949 . S
C559 C560 1.349 . S
C559 C561 1.327 . S
C559 H582 0.950 . S
C560 C559 1.349 . S
C560 C572 1.349 . S
C561 C559 1.327 . S
C561 C577 1.429 . S
C561 H583 0.950 . S
C562 H558 0.949 . S
C562 C570 1.574 . S
C562 C578 1.368 . S
H563 C571 0.950 . S
H564 C569 0.950 . S
H565 C570 0.949 . S
H566 C572 0.950 1_545 S
H567 C573 0.950 . S
H568 C574 0.949 . S
C569 H564 0.950 . S
C569 C571 1.327 . S
C569 C575 1.429 . S
C570 C562 1.574 . S
C570 H565 0.949 . S
C570 C576 1.368 . S
C571 C555 1.349 . S
C571 H563 0.950 . S
C571 C569 1.327 . S
C572 C560 1.349 . S
C572 H566 0.950 1_565 S
C572 C573 1.327 . S
C573 H567 0.950 . S
C573 C572 1.327 . S
C573 C577 1.429 . S
C574 C557 1.574 . S
C574 H568 0.949 . S
C574 C578 1.368 . S
C575 C556 1.429 . S
C575 C569 1.429 . S
C575 C576 1.523 . S
C576 C557 1.368 . S
C576 C570 1.368 . S
C576 C575 1.523 . S
C577 C561 1.429 . S
C577 C573 1.429 . S
C577 C578 1.523 . S
C578 C562 1.368 . S
C578 C574 1.368 . S
C578 C577 1.523 . S
H579 C554 0.950 . S
H580 C556 0.950 . S
H581 C557 0.949 . S
H582 C559 0.950 . S
H583 C561 0.950 . S
C584 C585 1.349 . S
C584 C586 1.327 . S
C584 H609 0.950 . S
C585 C584 1.349 . S
C585 C601 1.349 . S
C586 C584 1.327 . S
C586 C605 1.429 . S
C586 H610 0.950 . S
C587 C604 1.574 . S
C587 C606 1.368 . S
C587 H611 0.949 . S
H588 C592 0.949 . S
C589 C590 1.349 . S
C589 C591 1.327 . S
C589 H612 0.950 . S
C590 C589 1.349 . S
C590 C602 1.349 . S
C591 C589 1.327 . S
C591 C607 1.429 . S
C591 H613 0.950 . S
C592 H588 0.949 . S
C592 C600 1.574 . S
C592 C608 1.368 . S
H593 C601 0.950 . S
H594 C599 0.950 . S
H595 C600 0.949 . S
H596 C602 0.950 . S
H597 C603 0.950 . S
H598 C604 0.949 . S
C599 H594 0.950 . S
C599 C601 1.327 . S
C599 C605 1.429 . S
C600 C592 1.574 . S
C600 H595 0.949 . S
C600 C606 1.368 . S
C601 C585 1.349 . S
C601 H593 0.950 . S
C601 C599 1.327 . S
C602 C590 1.349 . S
C602 H596 0.950 . S
C602 C603 1.327 . S
C603 H597 0.950 . S
C603 C602 1.327 . S
C603 C607 1.429 . S
C604 C587 1.574 . S
C604 H598 0.949 . S
C604 C608 1.368 . S
C605 C586 1.429 . S
C605 C599 1.429 . S
C605 C606 1.523 . S
C606 C587 1.368 . S
C606 C600 1.368 . S
C606 C605 1.523 . S
C607 C591 1.429 . S
C607 C603 1.429 . S
C607 C608 1.523 . S
C608 C592 1.368 . S
C608 C604 1.368 . S
C608 C607 1.523 . S
H609 C584 0.950 . S
H610 C586 0.950 . S
H611 C587 0.949 . S
H612 C589 0.950 . S
H613 C591 0.950 . S
C614 C615 1.349 . S
C614 C616 1.327 . S
C614 H639 0.950 . S
C615 C614 1.349 . S
C615 C631 1.349 . S
C616 C614 1.327 . S
C616 C635 1.429 . S
C616 H640 0.950 . S
C617 C634 1.574 . S
C617 C636 1.368 . S
C617 H641 0.949 . S
H618 C622 0.949 . S
C619 C620 1.349 . S
C619 C621 1.327 . S
C619 H642 0.950 . S
C620 C619 1.349 . S
C620 C632 1.349 . S
C621 C619 1.327 . S
C621 C637 1.429 . S
C621 H643 0.950 . S
C622 H618 0.949 . S
C622 C630 1.574 . S
C622 C638 1.368 . S
H623 C631 0.950 . S
H624 C629 0.950 . S
H625 C630 0.949 . S
H626 C632 0.950 . S
H627 C633 0.950 . S
H628 C634 0.949 . S
C629 H624 0.950 . S
C629 C631 1.327 . S
C629 C635 1.429 . S
C630 C622 1.574 . S
C630 H625 0.949 . S
C630 C636 1.368 . S
C631 C615 1.349 . S
C631 H623 0.950 . S
C631 C629 1.327 . S
C632 C620 1.349 . S
C632 H626 0.950 . S
C632 C633 1.327 . S
C633 H627 0.950 . S
C633 C632 1.327 . S
C633 C637 1.429 . S
C634 C617 1.574 . S
C634 H628 0.949 . S
C634 C638 1.368 . S
C635 C616 1.429 . S
C635 C629 1.429 . S
C635 C636 1.523 . S
C636 C617 1.368 . S
C636 C630 1.368 . S
C636 C635 1.523 . S
C637 C621 1.429 . S
C637 C633 1.429 . S
C637 C638 1.523 . S
C638 C622 1.368 . S
C638 C634 1.368 . S
C638 C637 1.523 . S
H639 C614 0.950 . S
H640 C616 0.950 . S
H641 C617 0.949 . S
H642 C619 0.950 . S
H643 C621 0.950 . S
C644 C645 1.349 . S
C644 C646 1.327 . S
C644 H669 0.950 . S
C645 C644 1.349 . S
C645 C661 1.349 . S
C646 C644 1.327 . S
C646 C665 1.429 . S
C646 H670 0.950 . S
C647 C664 1.574 . S
C647 C666 1.368 . S
C647 H671 0.949 . S
H648 C652 0.949 . S
C649 C650 1.349 . S
C649 C651 1.327 . S
C649 H672 0.950 . S
C650 C649 1.349 . S
C650 C662 1.349 . S
C651 C649 1.327 . S
C651 C667 1.429 . S
C651 H673 0.950 . S
C652 H648 0.949 . S
C652 C660 1.574 . S
C652 C668 1.368 . S
H653 C661 0.950 . S
H654 C659 0.950 . S
H655 C660 0.949 . S
H656 C662 0.950 . S
H657 C663 0.950 . S
H658 C664 0.949 . S
C659 H654 0.950 . S
C659 C661 1.327 . S
C659 C665 1.429 . S
C660 C652 1.574 . S
C660 H655 0.949 . S
C660 C666 1.368 . S
C661 C645 1.349 . S
C661 H653 0.950 . S
C661 C659 1.327 . S
C662 C650 1.349 . S
C662 H656 0.950 . S
C662 C663 1.327 . S
C663 H657 0.950 . S
C663 C662 1.327 . S
C663 C667 1.429 . S
C664 C647 1.574 . S
C664 H658 0.949 . S
C664 C668 1.368 . S
C665 C646 1.429 . S
C665 C659 1.429 . S
C665 C666 1.523 . S
C666 C647 1.368 . S
C666 C660 1.368 . S
C666 C665 1.523 . S
C667 C651 1.429 . S
C667 C663 1.429 . S
C667 C668 1.523 . S
C668 C652 1.368 . S
C668 C664 1.368 . S
C668 C667 1.523 . S
H669 C644 0.950 . S
H670 C646 0.950 . S
H671 C647 0.949 . S
H672 C649 0.950 . S
H673 C651 0.950 . S
C674 C675 1.349 . S
C674 C676 1.327 . S
C674 H699 0.950 . S
C675 C674 1.349 . S
C675 C691 1.349 . S
C676 C674 1.327 . S
C676 C695 1.429 . S
C676 H700 0.950 . S
C677 C694 1.574 . S
C677 C696 1.368 . S
C677 H701 0.949 . S
H678 C682 0.949 . S
C679 C680 1.349 . S
C679 C681 1.327 . S
C679 H702 0.992 . S
C680 C679 1.349 . S
C680 C692 1.349 . S
C681 C679 1.327 . S
C681 C697 1.429 . S
C681 H703 0.950 . S
C682 H678 0.949 . S
C682 C690 1.574 . S
C682 C698 1.368 . S
H683 C691 0.950 . S
H684 C689 0.950 . S
H685 C690 0.949 . S
H686 C692 0.950 . S
H687 C693 0.950 . S
H688 C694 0.949 . S
C689 H684 0.950 . S
C689 C691 1.327 . S
C689 C695 1.429 . S
C690 C682 1.574 . S
C690 H685 0.949 . S
C690 C696 1.368 . S
C691 C675 1.349 . S
C691 H683 0.950 . S
C691 C689 1.327 . S
C692 C680 1.349 . S
C692 H686 0.950 . S
C692 C693 1.327 . S
C693 H687 0.950 . S
C693 C692 1.327 . S
C693 C697 1.429 . S
C694 C677 1.574 . S
C694 H688 0.949 . S
C694 C698 1.368 . S
C695 C676 1.429 . S
C695 C689 1.429 . S
C695 C696 1.523 . S
C696 C677 1.368 . S
C696 C690 1.368 . S
C696 C695 1.523 . S
C697 C681 1.429 . S
C697 C693 1.429 . S
C697 C698 1.523 . S
C698 C682 1.368 . S
C698 C694 1.368 . S
C698 C697 1.523 . S
H699 C674 0.950 . S
H700 C676 0.950 . S
H701 C677 0.949 . S
H702 C679 0.992 . S
H703 C681 0.950 . S
C704 C705 1.349 . S
C704 C706 1.327 . S
C704 H729 0.950 . S
C705 C704 1.349 . S
C705 C721 1.349 . S
C706 C704 1.327 . S
C706 C725 1.429 . S
C706 H730 0.950 . S
C707 C724 1.574 . S
C707 C726 1.368 . S
C707 H731 0.949 . S
H708 C712 0.949 . S
C709 C710 1.349 . S
C709 C711 1.327 . S
C709 H732 0.950 . S
C710 C709 1.349 . S
C710 C722 1.349 . S
C711 C709 1.327 . S
C711 C727 1.429 . S
C711 H733 0.950 . S
C712 H708 0.949 . S
C712 C720 1.574 . S
C712 C728 1.368 . S
H713 C721 0.950 . S
H714 C719 0.950 . S
H715 C720 0.949 . S
H716 C722 0.950 . S
H717 C723 0.950 . S
H718 C724 0.949 . S
C719 H714 0.950 . S
C719 C721 1.327 . S
C719 C725 1.429 . S
C720 C712 1.574 . S
C720 H715 0.949 . S
C720 C726 1.368 . S
C721 C705 1.349 . S
C721 H713 0.950 . S
C721 C719 1.327 . S
C722 C710 1.349 . S
C722 H716 0.950 . S
C722 C723 1.327 . S
C723 H717 0.950 . S
C723 C722 1.327 . S
C723 C727 1.429 . S
C724 C707 1.574 . S
C724 H718 0.949 . S
C724 C728 1.368 . S
C725 C706 1.429 . S
C725 C719 1.429 . S
C725 C726 1.523 . S
C726 C707 1.368 . S
C726 C720 1.368 . S
C726 C725 1.523 . S
C727 C711 1.429 . S
C727 C723 1.429 . S
C727 C728 1.523 . S
C728 C712 1.368 . S
C728 C724 1.368 . S
C728 C727 1.523 . S
H729 C704 0.950 . S
H730 C706 0.950 . S
H731 C707 0.949 . S
H732 C709 0.950 . S
H733 C711 0.950 . S
C734 C735 1.349 . S
C734 C736 1.327 . S
C734 H759 0.950 . S
C735 C734 1.349 . S
C735 C751 1.349 . S
C736 C734 1.327 . S
C736 C755 1.429 . S
C736 H760 0.950 . S
C737 C754 1.574 . S
C737 C756 1.368 . S
C737 H761 0.949 . S
H738 C742 0.949 . S
C739 C740 1.349 . S
C739 C741 1.327 . S
C739 H762 0.950 . S
C740 C739 1.349 . S
C740 C752 1.349 . S
C741 C739 1.327 . S
C741 C757 1.429 . S
C741 H763 0.950 . S
C742 H738 0.949 . S
C742 C750 1.574 . S
C742 C758 1.368 . S
H743 C751 0.950 . S
H744 C749 0.950 . S
H745 C750 0.949 . S
H746 C752 0.950 . S
H747 C753 0.950 . S
H748 C754 0.949 . S
C749 H744 0.950 . S
C749 C751 1.327 . S
C749 C755 1.429 . S
C750 C742 1.574 . S
C750 H745 0.949 . S
C750 C756 1.368 . S
C751 C735 1.349 . S
C751 H743 0.950 . S
C751 C749 1.327 . S
C752 C740 1.349 . S
C752 H746 0.950 . S
C752 C753 1.327 . S
C753 H747 0.950 . S
C753 C752 1.327 . S
C753 C757 1.429 . S
C754 C737 1.574 . S
C754 H748 0.949 . S
C754 C758 1.368 . S
C755 C736 1.429 . S
C755 C749 1.429 . S
C755 C756 1.523 . S
C756 C737 1.368 . S
C756 C750 1.368 . S
C756 C755 1.523 . S
C757 C741 1.429 . S
C757 C753 1.429 . S
C757 C758 1.523 . S
C758 C742 1.368 . S
C758 C754 1.368 . S
C758 C757 1.523 . S
H759 C734 0.950 . S
H760 C736 0.950 . S
H761 C737 0.949 . S
H762 C739 0.950 . S
H763 C741 0.950 . S
C764 C765 1.349 . S
C764 C766 1.327 . S
C764 H789 0.950 . S
C765 C764 1.349 . S
C765 C781 1.349 . S
C766 C764 1.327 . S
C766 C785 1.429 . S
C766 H790 0.950 . S
C767 C784 1.574 . S
C767 C786 1.368 . S
C767 H791 0.949 . S
H768 C772 0.949 . S
C769 C770 1.349 . S
C769 C771 1.327 . S
C769 H792 0.950 1_565 S
C770 C769 1.349 . S
C770 C782 1.349 . S
C771 C769 1.327 . S
C771 C787 1.429 . S
C771 H793 0.968 . S
C772 H768 0.949 . S
C772 C780 1.574 . S
C772 C788 1.368 . S
H773 C781 0.950 . S
H774 C779 0.950 . S
H775 C780 0.949 . S
H776 C782 0.950 . S
H777 C783 0.950 . S
H778 C784 0.949 . S
C779 H774 0.950 . S
C779 C781 1.327 . S
C779 C785 1.429 . S
C780 C772 1.574 . S
C780 H775 0.949 . S
C780 C786 1.368 . S
C781 C765 1.349 . S
C781 H773 0.950 . S
C781 C779 1.327 . S
C782 C770 1.349 . S
C782 H776 0.950 . S
C782 C783 1.327 . S
C783 H777 0.950 . S
C783 C782 1.327 . S
C783 C787 1.429 . S
C784 C767 1.574 . S
C784 H778 0.949 . S
C784 C788 1.368 . S
C785 C766 1.429 . S
C785 C779 1.429 . S
C785 C786 1.523 . S
C786 C767 1.368 . S
C786 C780 1.368 . S
C786 C785 1.523 . S
C787 C771 1.429 . S
C787 C783 1.429 . S
C787 C788 1.523 . S
C788 C772 1.368 . S
C788 C784 1.368 . S
C788 C787 1.523 . S
H789 C764 0.950 . S
H790 C766 0.950 . S
H791 C767 0.949 . S
H792 C769 0.950 1_545 S
H793 C771 0.968 . S
C794 C795 1.349 . S
C794 C796 1.327 . S
C794 H819 0.950 . S
C795 C794 1.349 . S
C795 C811 1.349 . S
C796 C794 1.327 . S
C796 C815 1.429 . S
C796 H820 0.950 . S
C797 C814 1.574 . S
C797 C816 1.368 . S
C797 H821 0.949 . S
H798 C802 0.949 . S
C799 C800 1.349 . S
C799 C801 1.327 . S
C799 H822 0.950 . S
C800 C799 1.349 . S
C800 C812 1.349 . S
C801 C799 1.327 . S
C801 C817 1.429 . S
C801 H823 0.950 . S
C802 H798 0.949 . S
C802 C810 1.574 . S
C802 C818 1.368 . S
H803 C811 0.950 . S
H804 C809 0.950 . S
H805 C810 0.949 . S
H806 C812 0.950 . S
H807 C813 0.950 . S
H808 C814 0.949 . S
C809 H804 0.950 . S
C809 C811 1.327 . S
C809 C815 1.429 . S
C810 C802 1.574 . S
C810 H805 0.949 . S
C810 C816 1.368 . S
C811 C795 1.349 . S
C811 H803 0.950 . S
C811 C809 1.327 . S
C812 C800 1.349 . S
C812 H806 0.950 . S
C812 C813 1.327 . S
C813 H807 0.950 . S
C813 C812 1.327 . S
C813 C817 1.429 . S
C814 C797 1.574 . S
C814 H808 0.949 . S
C814 C818 1.368 . S
C815 C796 1.429 . S
C815 C809 1.429 . S
C815 C816 1.523 . S
C816 C797 1.368 . S
C816 C810 1.368 . S
C816 C815 1.523 . S
C817 C801 1.429 . S
C817 C813 1.429 . S
C817 C818 1.523 . S
C818 C802 1.368 . S
C818 C814 1.368 . S
C818 C817 1.523 . S
H819 C794 0.950 . S
H820 C796 0.950 . S
H821 C797 0.949 . S
H822 C799 0.950 . S
H823 C801 0.950 . S
C824 C825 1.349 . S
C824 C826 1.327 . S
C824 H849 0.950 . S
C825 C824 1.349 . S
C825 C841 1.349 . S
C826 C824 1.327 . S
C826 C845 1.429 . S
C826 H850 0.950 . S
C827 C844 1.574 . S
C827 C846 1.368 . S
C827 H851 0.949 . S
H828 C832 0.949 . S
C829 C830 1.349 . S
C829 C831 1.327 . S
C829 H852 0.950 . S
C830 C829 1.349 . S
C830 C842 1.349 . S
C831 C829 1.327 . S
C831 C847 1.429 . S
C831 H853 0.950 . S
C832 H828 0.949 . S
C832 C840 1.574 . S
C832 C848 1.368 . S
H833 C841 0.950 . S
H834 C839 0.950 . S
H835 C840 0.949 . S
H836 C842 0.950 . S
H837 C843 0.950 . S
H838 C844 0.949 . S
C839 H834 0.950 . S
C839 C841 1.327 . S
C839 C845 1.429 . S
C840 C832 1.574 . S
C840 H835 0.949 . S
C840 C846 1.368 . S
C841 C825 1.349 . S
C841 H833 0.950 . S
C841 C839 1.327 . S
C842 C830 1.349 . S
C842 H836 0.950 . S
C842 C843 1.327 . S
C843 H837 0.950 . S
C843 C842 1.327 . S
C843 C847 1.429 . S
C844 C827 1.574 . S
C844 H838 0.949 . S
C844 C848 1.368 . S
C845 C826 1.429 . S
C845 C839 1.429 . S
C845 C846 1.523 . S
C846 C827 1.368 . S
C846 C840 1.368 . S
C846 C845 1.523 . S
C847 C831 1.429 . S
C847 C843 1.429 . S
C847 C848 1.523 . S
C848 C832 1.368 . S
C848 C844 1.368 . S
C848 C847 1.523 . S
H849 C824 0.950 . S
H850 C826 0.950 . S
H851 C827 0.949 . S
H852 C829 0.950 . S
H853 C831 0.950 . S
C854 C855 1.349 . S
C854 C856 1.327 . S
C854 H879 0.950 . S
C855 C854 1.349 . S
C855 C871 1.349 . S
C856 C854 1.327 . S
C856 C875 1.429 . S
C856 H880 0.950 . S
C857 C874 1.574 . S
C857 C876 1.368 . S
C857 H881 0.949 . S
H858 C862 0.949 . S
C859 C860 1.349 . S
C859 C861 1.327 . S
C859 H882 0.950 . S
C860 C859 1.349 . S
C860 C872 1.349 . S
C861 C859 1.327 . S
C861 C877 1.429 . S
C861 H883 0.950 . S
C862 H858 0.949 . S
C862 C870 1.574 . S
C862 C878 1.368 . S
H863 C871 0.950 . S
H864 C869 0.950 . S
H865 C870 0.949 . S
H866 C872 0.950 . S
H867 C873 0.950 . S
H868 C874 0.949 . S
C869 H864 0.950 . S
C869 C871 1.327 . S
C869 C875 1.429 . S
C870 C862 1.574 . S
C870 H865 0.949 . S
C870 C876 1.368 . S
C871 C855 1.349 . S
C871 H863 0.950 . S
C871 C869 1.327 . S
C872 C860 1.349 . S
C872 H866 0.950 . S
C872 C873 1.327 . S
C873 H867 0.950 . S
C873 C872 1.327 . S
C873 C877 1.429 . S
C874 C857 1.574 . S
C874 H868 0.949 . S
C874 C878 1.368 . S
C875 C856 1.429 . S
C875 C869 1.429 . S
C875 C876 1.523 . S
C876 C857 1.368 . S
C876 C870 1.368 . S
C876 C875 1.523 . S
C877 C861 1.429 . S
C877 C873 1.429 . S
C877 C878 1.523 . S
C878 C862 1.368 . S
C878 C874 1.368 . S
C878 C877 1.523 . S
H879 C854 0.950 . S
H880 C856 0.950 . S
H881 C857 0.949 . S
H882 C859 0.950 . S
H883 C861 0.950 . S
C884 C885 1.349 . S
C884 C886 1.327 . S
C884 H909 0.950 . S
C885 C884 1.349 . S
C885 C901 1.349 . S
C886 C884 1.327 . S
C886 C905 1.429 . S
C886 H910 0.950 . S
C887 C904 1.574 . S
C887 C906 1.368 . S
C887 H911 0.949 . S
H888 C892 0.949 . S
C889 C890 1.349 . S
C889 C891 1.327 . S
C889 H912 0.950 . S
C890 C889 1.349 . S
C890 C902 1.349 . S
C891 C889 1.327 . S
C891 C907 1.429 . S
C891 H913 0.950 . S
C892 H888 0.949 . S
C892 C900 1.574 . S
C892 C908 1.368 . S
H893 C901 0.950 . S
H894 C899 0.950 . S
H895 C900 0.949 . S
H896 C902 0.950 1_554 S
H897 C903 0.950 1_554 S
H898 C904 0.949 . S
C899 H894 0.950 . S
C899 C901 1.327 . S
C899 C905 1.429 . S
C900 C892 1.574 . S
C900 H895 0.949 . S
C900 C906 1.368 . S
C901 C885 1.349 . S
C901 H893 0.950 . S
C901 C899 1.327 . S
C902 C890 1.349 . S
C902 H896 0.950 1_556 S
C902 C903 1.327 . S
C903 H897 0.950 1_556 S
C903 C902 1.327 . S
C903 C907 1.429 . S
C904 C887 1.574 . S
C904 H898 0.949 . S
C904 C908 1.368 . S
C905 C886 1.429 . S
C905 C899 1.429 . S
C905 C906 1.523 . S
C906 C887 1.368 . S
C906 C900 1.368 . S
C906 C905 1.523 . S
C907 C891 1.429 . S
C907 C903 1.429 . S
C907 C908 1.523 . S
C908 C892 1.368 . S
C908 C904 1.368 . S
C908 C907 1.523 . S
H909 C884 0.950 . S
H910 C886 0.950 . S
H911 C887 0.949 . S
H912 C889 0.950 . S
H913 C891 0.950 . S
C914 C915 1.349 . S
C914 C916 1.327 . S
C914 H939 0.950 . S
C915 C914 1.349 . S
C915 C931 1.349 . S
C916 C914 1.327 . S
C916 C935 1.429 . S
C916 H940 0.950 . S
C917 C934 1.574 . S
C917 C936 1.368 . S
C917 H941 0.949 . S
H918 C922 0.949 . S
C919 C920 1.349 . S
C919 C921 1.327 . S
C919 H942 0.950 . S
C920 C919 1.349 . S
C920 C932 1.349 . S
C921 C919 1.327 . S
C921 C937 1.429 . S
C921 H943 0.950 . S
C922 H918 0.949 . S
C922 C930 1.574 . S
C922 C938 1.368 . S
H923 C931 0.950 . S
H924 C929 0.950 . S
H925 C930 0.949 . S
H926 C932 0.950 . S
H927 C933 0.950 . S
H928 C934 0.949 . S
C929 H924 0.950 . S
C929 C931 1.327 . S
C929 C935 1.429 . S
C930 C922 1.574 . S
C930 H925 0.949 . S
C930 C936 1.368 . S
C931 C915 1.349 . S
C931 H923 0.950 . S
C931 C929 1.327 . S
C932 C920 1.349 . S
C932 H926 0.950 . S
C932 C933 1.327 . S
C933 H927 0.950 . S
C933 C932 1.327 . S
C933 C937 1.429 . S
C934 C917 1.574 . S
C934 H928 0.949 . S
C934 C938 1.368 . S
C935 C916 1.429 . S
C935 C929 1.429 . S
C935 C936 1.523 . S
C936 C917 1.368 . S
C936 C930 1.368 . S
C936 C935 1.523 . S
C937 C921 1.429 . S
C937 C933 1.429 . S
C937 C938 1.523 . S
C938 C922 1.368 . S
C938 C934 1.368 . S
C938 C937 1.523 . S
H939 C914 0.950 . S
H940 C916 0.950 . S
H941 C917 0.949 . S
H942 C919 0.950 . S
H943 C921 0.950 . S
C944 C945 1.349 . S
C944 C946 1.327 . S
C944 H969 0.950 . S
C945 C944 1.349 . S
C945 C961 1.349 . S
C946 C944 1.327 . S
C946 C965 1.429 . S
C946 H970 0.950 . S
C947 C964 1.574 . S
C947 C966 1.368 . S
C947 H971 0.949 . S
H948 C952 0.949 . S
C949 C950 1.349 . S
C949 C951 1.327 . S
C949 H972 0.950 1_554 S
C950 C949 1.349 . S
C950 C962 1.349 . S
C951 C949 1.327 . S
C951 C967 1.429 . S
C951 H973 0.950 . S
C952 H948 0.949 . S
C952 C960 1.574 . S
C952 C968 1.368 . S
H953 C961 0.950 . S
H954 C959 0.950 . S
H955 C960 0.949 . S
H956 C962 0.950 . S
H957 C963 0.950 . S
H958 C964 0.949 . S
C959 H954 0.950 . S
C959 C961 1.327 . S
C959 C965 1.429 . S
C960 C952 1.574 . S
C960 H955 0.949 . S
C960 C966 1.368 . S
C961 C945 1.349 . S
C961 H953 0.950 . S
C961 C959 1.327 . S
C962 C950 1.349 . S
C962 H956 0.950 . S
C962 C963 1.327 . S
C963 H957 0.950 . S
C963 C962 1.327 . S
C963 C967 1.429 . S
C964 C947 1.574 . S
C964 H958 0.949 . S
C964 C968 1.368 . S
C965 C946 1.429 . S
C965 C959 1.429 . S
C965 C966 1.523 . S
C966 C947 1.368 . S
C966 C960 1.368 . S
C966 C965 1.523 . S
C967 C951 1.429 . S
C967 C963 1.429 . S
C967 C968 1.523 . S
C968 C952 1.368 . S
C968 C964 1.368 . S
C968 C967 1.523 . S
H969 C944 0.950 . S
H970 C946 0.950 . S
H971 C947 0.949 . S
H972 C949 0.950 1_556 S
H973 C951 0.950 . S
C974 C975 1.349 . S
C974 C976 1.327 . S
C974 H999 0.950 . S
C975 C974 1.349 . S
C975 C991 1.349 . S
C976 C974 1.327 . S
C976 C995 1.429 . S
C976 H1000 0.950 . S
C977 C994 1.574 . S
C977 C996 1.368 . S
C977 H1001 0.949 . S
H978 C982 0.949 . S
C979 C980 1.349 . S
C979 C981 1.327 . S
C979 H1002 0.950 . S
C980 C979 1.349 . S
C980 C992 1.349 . S
C981 C979 1.327 . S
C981 C997 1.429 . S
C981 H1003 0.950 . S
C982 H978 0.949 . S
C982 C990 1.574 . S
C982 C998 1.368 . S
H983 C991 0.950 . S
H984 C989 0.950 . S
H985 C990 0.949 . S
H986 C992 0.950 . S
H987 C993 0.950 . S
H988 C994 0.949 . S
C989 H984 0.950 . S
C989 C991 1.327 . S
C989 C995 1.429 . S
C990 C982 1.574 . S
C990 H985 0.949 . S
C990 C996 1.368 . S
C991 C975 1.349 . S
C991 H983 0.950 . S
C991 C989 1.327 . S
C992 C980 1.349 . S
C992 H986 0.950 . S
C992 C993 1.327 . S
C993 H987 0.950 . S
C993 C992 1.327 . S
C993 C997 1.429 . S
C994 C977 1.574 . S
C994 H988 0.949 . S
C994 C998 1.368 . S
C995 C976 1.429 . S
C995 C989 1.429 . S
C995 C996 1.523 . S
C996 C977 1.368 . S
C996 C990 1.368 . S
C996 C995 1.523 . S
C997 C981 1.429 . S
C997 C993 1.429 . S
C997 C998 1.523 . S
C998 C982 1.368 . S
C998 C994 1.368 . S
C998 C997 1.523 . S
H999 C974 0.950 . S
H1000 C976 0.950 . S
H1001 C977 0.949 . S
H1002 C979 0.950 . S
H1003 C981 0.950 . S
C1004 C1005 1.349 . S
C1004 C1006 1.327 . S
C1004 H1029 0.950 . S
C1005 C1004 1.349 . S
C1005 C1021 1.349 . S
C1006 C1004 1.327 . S
C1006 C1025 1.429 . S
C1006 H1030 0.950 . S
C1007 C1024 1.574 . S
C1007 C1026 1.368 . S
C1007 H1031 0.949 . S
H1008 C1012 0.949 . S
C1009 C1010 1.349 . S
C1009 C1011 1.327 . S
C1009 H1032 0.950 1_556 S
C1010 C1009 1.349 . S
C1010 C1022 1.349 . S
C1011 C1009 1.327 . S
C1011 C1027 1.429 . S
C1011 H1033 0.950 1_556 S
C1012 H1008 0.949 . S
C1012 C1020 1.574 . S
C1012 C1028 1.368 . S
H1013 C1021 0.950 . S
H1014 C1019 0.950 . S
H1015 C1020 0.949 . S
H1016 C1022 0.950 . S
H1017 C1023 0.950 . S
H1018 C1024 0.949 . S
C1019 H1014 0.950 . S
C1019 C1021 1.327 . S
C1019 C1025 1.429 . S
C1020 C1012 1.574 . S
C1020 H1015 0.949 . S
C1020 C1026 1.368 . S
C1021 C1005 1.349 . S
C1021 H1013 0.950 . S
C1021 C1019 1.327 . S
C1022 C1010 1.349 . S
C1022 H1016 0.950 . S
C1022 C1023 1.327 . S
C1023 H1017 0.950 . S
C1023 C1022 1.327 . S
C1023 C1027 1.429 . S
C1024 C1007 1.574 . S
C1024 H1018 0.949 . S
C1024 C1028 1.368 . S
C1025 C1006 1.429 . S
C1025 C1019 1.429 . S
C1025 C1026 1.523 . S
C1026 C1007 1.368 . S
C1026 C1020 1.368 . S
C1026 C1025 1.523 . S
C1027 C1011 1.429 . S
C1027 C1023 1.429 . S
C1027 C1028 1.523 . S
C1028 C1012 1.368 . S
C1028 C1024 1.368 . S
C1028 C1027 1.523 . S
H1029 C1004 0.950 . S
H1030 C1006 0.950 . S
H1031 C1007 0.949 . S
H1032 C1009 0.950 1_554 S
H1033 C1011 0.950 1_554 S
C1034 C1035 1.349 . S
C1034 C1036 1.327 . S
C1034 H1059 0.950 . S
C1035 C1034 1.349 . S
C1035 C1051 1.349 . S
C1036 C1034 1.327 . S
C1036 C1055 1.429 . S
C1036 H1060 0.950 . S
C1037 C1054 1.574 . S
C1037 C1056 1.368 . S
C1037 H1061 0.949 . S
H1038 C1042 0.949 . S
C1039 C1040 1.349 . S
C1039 C1041 1.327 . S
C1039 H1062 0.950 . S
C1040 C1039 1.349 . S
C1040 C1052 1.349 . S
C1041 C1039 1.327 . S
C1041 C1057 1.429 . S
C1041 H1063 0.950 . S
C1042 H1038 0.949 . S
C1042 C1050 1.574 . S
C1042 C1058 1.368 . S
H1043 C1051 0.950 . S
H1044 C1049 0.950 . S
H1045 C1050 0.949 . S
H1046 C1052 0.950 . S
H1047 C1053 0.950 . S
H1048 C1054 0.949 . S
C1049 H1044 0.950 . S
C1049 C1051 1.327 . S
C1049 C1055 1.429 . S
C1050 C1042 1.574 . S
C1050 H1045 0.949 . S
C1050 C1056 1.368 . S
C1051 C1035 1.349 . S
C1051 H1043 0.950 . S
C1051 C1049 1.327 . S
C1052 C1040 1.349 . S
C1052 H1046 0.950 . S
C1052 C1053 1.327 . S
C1053 H1047 0.950 . S
C1053 C1052 1.327 . S
C1053 C1057 1.429 . S
C1054 C1037 1.574 . S
C1054 H1048 0.949 . S
C1054 C1058 1.368 . S
C1055 C1036 1.429 . S
C1055 C1049 1.429 . S
C1055 C1056 1.523 . S
C1056 C1037 1.368 . S
C1056 C1050 1.368 . S
C1056 C1055 1.523 . S
C1057 C1041 1.429 . S
C1057 C1053 1.429 . S
C1057 C1058 1.523 . S
C1058 C1042 1.368 . S
C1058 C1054 1.368 . S
C1058 C1057 1.523 . S
H1059 C1034 0.950 . S
H1060 C1036 0.950 . S
H1061 C1037 0.949 . S
H1062 C1039 0.950 . S
H1063 C1041 0.950 . S
C1064 C1065 1.349 . S
C1064 C1066 1.327 . S
C1064 H1089 0.950 . S
C1065 C1064 1.349 . S
C1065 C1081 1.349 . S
C1066 C1064 1.327 . S
C1066 C1085 1.429 . S
C1066 H1090 0.950 . S
C1067 C1084 1.574 . S
C1067 C1086 1.368 . S
C1067 H1091 0.949 . S
H1068 C1072 0.949 . S
C1069 C1070 1.349 . S
C1069 C1071 1.327 . S
C1069 H1092 0.950 . S
C1070 C1069 1.349 . S
C1070 C1082 1.349 . S
C1071 C1069 1.327 . S
C1071 C1087 1.429 . S
C1071 H1093 0.950 . S
C1072 H1068 0.949 . S
C1072 C1080 1.574 . S
C1072 C1088 1.368 . S
H1073 C1081 0.950 . S
H1074 C1079 0.950 . S
H1075 C1080 0.949 . S
H1076 C1082 0.950 1_655 S
H1077 C1083 0.950 . S
H1078 C1084 0.949 . S
C1079 H1074 0.950 . S
C1079 C1081 1.327 . S
C1079 C1085 1.429 . S
C1080 C1072 1.574 . S
C1080 H1075 0.949 . S
C1080 C1086 1.368 . S
C1081 C1065 1.349 . S
C1081 H1073 0.950 . S
C1081 C1079 1.327 . S
C1082 C1070 1.349 . S
C1082 H1076 0.950 1_455 S
C1082 C1083 1.327 . S
C1083 H1077 0.950 . S
C1083 C1082 1.327 . S
C1083 C1087 1.429 . S
C1084 C1067 1.574 . S
C1084 H1078 0.949 . S
C1084 C1088 1.368 . S
C1085 C1066 1.429 . S
C1085 C1079 1.429 . S
C1085 C1086 1.523 . S
C1086 C1067 1.368 . S
C1086 C1080 1.368 . S
C1086 C1085 1.523 . S
C1087 C1071 1.429 . S
C1087 C1083 1.429 . S
C1087 C1088 1.523 . S
C1088 C1072 1.368 . S
C1088 C1084 1.368 . S
C1088 C1087 1.523 . S
H1089 C1064 0.950 . S
H1090 C1066 0.950 . S
H1091 C1067 0.949 . S
H1092 C1069 0.950 . S
H1093 C1071 0.950 . S
C1094 C1095 1.349 . S
C1094 C1096 1.327 . S
C1094 H1119 0.950 . S
C1095 C1094 1.349 . S
C1095 C1111 1.349 . S
C1096 C1094 1.327 . S
C1096 C1115 1.429 . S
C1096 H1120 0.950 . S
C1097 C1114 1.574 . S
C1097 C1116 1.368 . S
C1097 H1121 0.949 . S
H1098 C1102 0.949 . S
C1099 C1100 1.349 . S
C1099 C1101 1.327 . S
C1099 H1122 0.950 . S
C1100 C1099 1.349 . S
C1100 C1112 1.349 . S
C1101 C1099 1.327 . S
C1101 C1117 1.429 . S
C1101 H1123 0.950 . S
C1102 H1098 0.949 . S
C1102 C1110 1.574 . S
C1102 C1118 1.368 . S
H1103 C1111 0.950 . S
H1104 C1109 0.950 . S
H1105 C1110 0.949 . S
H1106 C1112 0.950 . S
H1107 C1113 0.950 . S
H1108 C1114 0.949 . S
C1109 H1104 0.950 . S
C1109 C1111 1.327 . S
C1109 C1115 1.429 . S
C1110 C1102 1.574 . S
C1110 H1105 0.949 . S
C1110 C1116 1.368 . S
C1111 C1095 1.349 . S
C1111 H1103 0.950 . S
C1111 C1109 1.327 . S
C1112 C1100 1.349 . S
C1112 H1106 0.950 . S
C1112 C1113 1.327 . S
C1113 H1107 0.950 . S
C1113 C1112 1.327 . S
C1113 C1117 1.429 . S
C1114 C1097 1.574 . S
C1114 H1108 0.949 . S
C1114 C1118 1.368 . S
C1115 C1096 1.429 . S
C1115 C1109 1.429 . S
C1115 C1116 1.523 . S
C1116 C1097 1.368 . S
C1116 C1110 1.368 . S
C1116 C1115 1.523 . S
C1117 C1101 1.429 . S
C1117 C1113 1.429 . S
C1117 C1118 1.523 . S
C1118 C1102 1.368 . S
C1118 C1114 1.368 . S
C1118 C1117 1.523 . S
H1119 C1094 0.950 . S
H1120 C1096 0.950 . S
H1121 C1097 0.949 . S
H1122 C1099 0.950 . S
H1123 C1101 0.950 . S
C405 C21 1.700 . S
C410 C336 1.645 . S
C435 C61 1.496 . S
C440 C358 1.479 . S
C470 C377 1.132 . S
C465 C82 1.360 . S
C495 C135 1.908 . S
C500 C398 1.569 . S
C530 C355 1.849 . S
C525 C15 1.906 . S
C560 C333 1.753 . S
C555 C42 1.762 . S
C590 C400 1.249 . S
C585 C101 1.312 . S
C620 C379 1.403 . S
C615 C122 1.462 . S
C645 C2 1.872 . S
C650 C397 1.812 . S
C680 C356 1.282 . S
C675 C95 1.567 . S
C705 C141 1.767 . S
C710 C338 1.576 . S
C735 C55 1.519 . S
C740 C376 1.503 . S
C770 C334 1.657 . S
C765 C181 1.692 . S
C795 C202 1.264 . S
C800 C354 1.257 . S
C825 C255 1.462 . S
C830 C380 1.231 . S
C855 C295 1.772 . S
C860 C401 1.447 . S
C885 C175 1.826 . S
C890 C357 1.794 . S
C920 C337 1.848 . S
C915 C221 1.874 . S
C950 C396 1.071 . S
C945 C242 1.095 . S
C980 C375 1.580 . S
C975 C301 1.642 . S
C1005 C162 1.551 . S
C1010 C399 1.546 . S
C1040 C359 1.237 . S
C1035 C261 1.450 . S
C1070 C335 1.329 . S
C1065 C282 1.495 . S
C1095 C215 1.486 . S
C1100 C378 1.468 . S
