# Generated by pormake.
# Topology pth, (4,4)-cn, num edge types: 1
# Building blocks:
#     Node 0, Type 0, BuildingBlock: GALJAG_clean_sbu_0, # of connection points: 4
#     Node 1, Type 0, BuildingBlock: GALJAG_clean_sbu_0, # of connection points: 4
#     Node 2, Type 0, BuildingBlock: GALJAG_clean_sbu_0, # of connection points: 4
#     Node 3, Type 1, BuildingBlock: MUDLON_clean_sbu_0, # of connection points: 4
#     Node 4, Type 1, BuildingBlock: MUDLON_clean_sbu_0, # of connection points: 4
#     Node 5, Type 1, BuildingBlock: MUDLON_clean_sbu_0, # of connection points: 4
#     Edge 6, Type (0, 1), BuildingBlock: FUNLAD_clean_linker_1, # of connection points: 2
#     Edge 7, Type (0, 1), BuildingBlock: FUNLAD_clean_linker_1, # of connection points: 2
#     Edge 8, Type (0, 1), BuildingBlock: FUNLAD_clean_linker_1, # of connection points: 2
#     Edge 9, Type (0, 1), BuildingBlock: FUNLAD_clean_linker_1, # of connection points: 2
#     Edge 10, Type (0, 1), BuildingBlock: FUNLAD_clean_linker_1, # of connection points: 2
#     Edge 11, Type (0, 1), BuildingBlock: FUNLAD_clean_linker_1, # of connection points: 2
#     Edge 12, Type (0, 1), BuildingBlock: FUNLAD_clean_linker_1, # of connection points: 2
#     Edge 13, Type (0, 1), BuildingBlock: FUNLAD_clean_linker_1, # of connection points: 2
#     Edge 14, Type (0, 1), BuildingBlock: FUNLAD_clean_linker_1, # of connection points: 2
#     Edge 15, Type (0, 1), BuildingBlock: FUNLAD_clean_linker_1, # of connection points: 2
#     Edge 16, Type (0, 1), BuildingBlock: FUNLAD_clean_linker_1, # of connection points: 2
#     Edge 17, Type (0, 1), BuildingBlock: FUNLAD_clean_linker_1, # of connection points: 2
# Relax obj value: 0.043
# Max RMSD: 0.088
# Mean RMSD: 0.080
data_MOF--net-pth--node1-GALJAG_clean_sbu_0--node2-MUDLON_clean_sbu_0--edge1-FUNLAD_clean_linker_1
_symmetry_space_group_name_H-M    P1
_symmetry_Int_Tables_number       1
_symmetry_cell_setting            triclinic
loop_
_symmetry_equiv_pos_as_xyz
'x, y, z'
_cell_length_a     23.899452
_cell_length_b     24.020257
_cell_length_c     60.338251
_cell_angle_alpha  89.954641
_cell_angle_beta   90.312306
_cell_angle_gamma 119.80294
loop_
_atom_site_label
_atom_site_type_symbol
_atom_site_fract_x
_atom_site_fract_y
_atom_site_fract_z
_atom_type_partial_charge
In0 In 0.02677 0.0272 0.09176 0.0
O1 O 0.97977 0.08454 0.10413 0.0
O2 O 0.0751 0.11317 0.11505 0.0
C3 C 0.91388 0.95012 0.07057 0.0
C4 C 0.12201 0.09328 0.06212 0.0
C5 C 0.03833 0.94562 0.12016 0.0
O6 O 0.91648 0.96442 0.09081 0.0
O7 O 0.96774 0.97539 0.06098 0.0
O8 O 0.02534 0.93258 0.0999 0.0
O9 O 0.04765 0.99992 0.12583 0.0
C10 C 0.02792 0.12289 0.11565 0.0
O11 O 0.12304 0.05222 0.07496 0.0
O12 O 0.07342 0.10019 0.06411 0.0
In13 In 1.01103 0.02837 0.43184 0.0
O14 O 0.03774 0.1333 0.42572 0.0
O15 O 0.988 0.06517 0.40023 0.0
C16 C 0.11588 0.06372 0.45791 0.0
C17 C 0.90393 0.99715 0.45593 0.0
C18 C 1.0121 0.93216 0.4086 0.0
O19 O 0.1193 0.08951 0.43935 0.0
O20 O 0.05985 0.02115 0.46342 0.0
O21 O 0.96933 0.92191 0.42269 0.0
O22 O 0.05374 0.99031 0.40618 0.0
C23 C 1.01262 0.12255 0.40663 0.0
O24 O 0.90274 0.99228 0.43512 0.0
O25 O 0.95869 0.01708 0.46465 0.0
In26 In 1.01308 0.00805 0.76682 0.0
O27 O 1.01459 0.93919 0.79279 0.0
O28 O 0.92336 0.92676 0.78368 0.0
C29 C 0.08866 0.99277 0.73676 0.0
C30 C 0.92336 0.0245 0.74483 0.0
C31 C 0.08581 0.11479 0.7915 0.0
O32 O 0.10428 0.0458 0.7458 0.0
O33 O 0.03475 0.94714 0.74269 0.0
O34 O 0.05665 0.1155 0.77415 0.0
O35 O 0.07906 0.06073 0.79632 0.0
C36 C 0.95456 0.90835 0.79559 0.0
O37 O 0.93783 0.04017 0.76487 0.0
O38 O 0.95312 0.99932 0.73587 0.0
Mg39 Mg 0.03816 0.53025 0.26414 0.0
C40 C 0.95821 0.39121 0.28057 0.0
O41 O 0.94888 0.37704 0.25939 0.0
C42 C 0.02432 0.61174 0.23221 0.0
O43 O 0.08548 0.64057 0.23804 0.0
C44 C 0.06281 0.47121 0.22597 0.0
O45 O 1.00569 0.46466 0.22209 0.0
O46 O 0.09392 0.5022 0.24312 0.0
O47 O 0.9871 0.44966 0.28664 0.0
O48 O 0.08893 0.61304 0.28584 0.0
C49 C 0.04965 0.61814 0.29868 0.0
O50 O 0.98833 0.57412 0.29766 0.0
O51 O 0.98564 0.55864 0.24139 0.0
Mg52 Mg 0.48965 0.9918 0.6033 0.0
C53 C 0.44389 0.03815 0.56554 0.0
O54 O 0.44274 0.98697 0.5573 0.0
C55 C 0.57256 0.98278 0.63544 0.0
O56 O 0.53058 0.92437 0.62899 0.0
C57 C 0.34718 0.91451 0.61548 0.0
O58 O 0.33892 0.91649 0.59403 0.0
O59 O 0.40382 0.9357 0.62322 0.0
O60 O 0.46648 0.05651 0.58499 0.0
O61 O 0.52046 0.94312 0.57993 0.0
C62 C 0.56629 0.98246 0.56766 0.0
O63 O 0.5856 0.04395 0.56945 0.0
O64 O 0.56869 0.02972 0.62729 0.0
Mg65 Mg 0.52451 0.49973 0.93218 0.0
C66 C 0.44794 0.42824 0.89378 0.0
O67 O 0.49992 0.42294 0.89295 0.0
C68 C 0.5663 0.59122 0.9702 0.0
O69 O 0.56113 0.53956 0.97963 0.0
C70 C 0.48628 0.36687 0.95248 0.0
O71 O 0.50163 0.35382 0.93309 0.0
O72 O 0.49569 0.4229 0.9564 0.0
O73 O 0.44321 0.46231 0.90903 0.0
O74 O 0.60795 0.52532 0.9111 0.0
C75 C 0.65997 0.57839 0.91361 0.0
O76 O 0.66793 0.61262 0.93154 0.0
O77 O 0.5484 0.58792 0.95012 0.0
H78 H 0.98659 0.18107 0.12815 0.0
C79 C 0.02849 0.17465 0.12896 0.0
H80 H 0.11976 0.20552 0.1437 0.0
H81 H 0.07492 0.45501 0.15929 0.0
H82 H 0.09192 0.47141 0.11965 0.0
H83 H 0.10394 0.39354 0.09643 0.0
H84 H 0.0987 0.29864 0.11268 0.0
C85 C 0.0786 0.21294 0.14216 0.0
C86 C 0.07722 0.26304 0.15629 0.0
C87 C 0.0814 0.31873 0.14657 0.0
C88 C 0.07507 0.36392 0.16 0.0
C89 C 0.07892 0.41889 0.14983 0.0
C90 C 0.08895 0.42905 0.12712 0.0
C91 C 0.09569 0.38519 0.11404 0.0
C92 C 0.09221 0.3307 0.12357 0.0
H93 H 0.13228 0.43993 0.21599 0.0
C94 C 0.08595 0.436 0.21218 0.0
H95 H 1.0021 0.39231 0.19214 0.0
H96 H 0.07331 0.16461 0.18037 0.0
H97 H 0.05756 0.14865 0.22005 0.0
H98 H 0.04353 0.2253 0.24323 0.0
H99 H 0.04596 0.31861 0.22701 0.0
C100 C 0.04795 0.39548 0.19621 0.0
C101 C 0.0652 0.35374 0.18313 0.0
C102 C 0.06367 0.29933 0.19301 0.0
C103 C 0.07051 0.25438 0.17957 0.0
C104 C 0.0683 0.20019 0.18978 0.0
C105 C 0.05916 0.19036 0.21253 0.0
C106 C 0.05135 0.23356 0.22559 0.0
C107 C 0.05319 0.28726 0.21604 0.0
H108 H 0.80645 0.98423 0.4598 0.0
C109 C 0.84668 0.98549 0.46873 0.0
H110 H 0.8853 0.98174 0.49974 0.0
H111 H 0.74366 0.08925 0.55768 0.0
H112 H 0.8562 0.16764 0.56344 0.0
H113 H 0.94104 0.16295 0.54183 0.0
H114 H 0.91396 0.07938 0.51464 0.0
C115 C 0.84468 0.98003 0.49093 0.0
C116 C 0.7926 0.98105 0.50422 0.0
C117 C 0.80934 0.03119 0.51982 0.0
C118 C 0.76028 0.03523 0.53173 0.0
C119 C 0.77865 0.08483 0.54766 0.0
C120 C 0.8432 0.13008 0.55124 0.0
C121 C 0.89094 0.12733 0.53912 0.0
C122 C 0.87457 0.07874 0.52358 0.0
H123 H 0.59847 0.91485 0.55659 0.0
C124 C 0.60254 0.96128 0.55349 0.0
H125 H 0.64832 0.04778 0.5356 0.0
H126 H 0.74424 0.87147 0.47922 0.0
H127 H 0.63131 0.79473 0.47261 0.0
H128 H 0.54591 0.80834 0.49019 0.0
H129 H 0.57288 0.89771 0.51496 0.0
C130 C 0.64428 1.00115 0.53828 0.0
C131 C 0.69431 0.9904 0.52761 0.0
C132 C 0.67751 0.93941 0.5124 0.0
C133 C 0.72681 0.93364 0.50121 0.0
C134 C 0.70881 0.87998 0.48724 0.0
C135 C 0.64416 0.83527 0.48345 0.0
C136 C 0.59608 0.84279 0.49342 0.0
C137 C 0.61226 0.89418 0.50772 0.0
H138 H 0.95649 0.85092 0.82381 0.0
C139 C 0.92471 0.85822 0.81272 0.0
H140 H 0.82884 0.8333 0.80525 0.0
H141 H 0.80548 0.60718 0.87643 0.0
H142 H 0.85564 0.57595 0.84789 0.0
H143 H 0.89324 0.63739 0.81311 0.0
H144 H 0.88211 0.7312 0.80686 0.0
C145 C 0.86066 0.82471 0.81587 0.0
C146 C 0.83239 0.78304 0.83574 0.0
C147 C 0.83688 0.72675 0.83876 0.0
C148 C 0.81234 0.68943 0.85839 0.0
C149 C 0.82084 0.63568 0.86149 0.0
C150 C 0.84994 0.61747 0.84529 0.0
C151 C 0.87133 0.6522 0.82575 0.0
C152 C 0.86501 0.70622 0.82243 0.0
H153 H 0.68551 0.58395 0.87826 0.0
C154 C 0.70184 0.60808 0.89417 0.0
H155 H 0.76807 0.69265 0.91082 0.0
H156 H 0.81607 0.88826 0.83537 0.0
H157 H 0.76069 0.91608 0.86287 0.0
H158 H 0.71226 0.84793 0.8957 0.0
H159 H 0.71957 0.75208 0.90136 0.0
C160 C 0.75299 0.6678 0.89499 0.0
C161 C 0.78063 0.70675 0.8745 0.0
C162 C 0.77467 0.76215 0.87117 0.0
C163 C 0.80106 0.80055 0.85192 0.0
C164 C 0.79588 0.85653 0.84941 0.0
C165 C 0.76431 0.87325 0.86512 0.0
C166 C 0.73717 0.83498 0.88362 0.0
C167 C 0.74205 0.78008 0.88669 0.0
H168 H 0.05606 0.91876 0.15323 0.0
C169 C 0.0396 0.90071 0.13655 0.0
H170 H 1.00172 0.81958 0.11552 0.0
H171 H 0.11336 0.68089 0.17685 0.0
H172 H 0.17749 0.70136 0.14366 0.0
H173 H 0.16925 0.76467 0.1129 0.0
H174 H 0.09649 0.80755 0.11507 0.0
C175 C 0.01778 0.83842 0.13213 0.0
C176 C 0.01752 0.79456 0.14972 0.0
C177 C 0.05982 0.76941 0.14811 0.0
C178 C 0.06531 0.7338 0.16601 0.0
C179 C 0.10811 0.70929 0.16394 0.0
C180 C 0.14501 0.72042 0.14493 0.0
C181 C 0.14031 0.75599 0.1276 0.0
C182 C 0.09833 0.78033 0.12907 0.0
H183 H 0.95394 0.61136 0.20788 0.0
C184 C 1.00283 0.63904 0.2143 0.0
H185 H 0.09339 0.72313 0.21157 0.0
H186 H 0.92202 0.8241 0.15617 0.0
H187 H 0.85816 0.80443 0.18941 0.0
H188 H 0.87339 0.74988 0.22161 0.0
H189 H 0.95138 0.71346 0.22061 0.0
C190 C 0.04406 0.69655 0.20544 0.0
C191 C 0.02888 0.72377 0.18561 0.0
C192 C 0.98416 0.74624 0.18679 0.0
C193 C 0.97748 0.7804 0.1686 0.0
C194 C 0.93076 0.80016 0.16983 0.0
C195 C 0.89352 0.78882 0.18875 0.0
C196 C 0.90195 0.75791 0.20684 0.0
C197 C 0.94677 0.73694 0.206 0.0
H198 H 0.22034 0.10196 0.46297 0.0
C199 C 0.17371 0.07771 0.47108 0.0
H200 H 0.12214 0.03188 0.49988 0.0
H201 H 0.29892 0.9286 0.53539 0.0
H202 H 0.1992 0.83103 0.52721 0.0
H203 H 0.11024 0.83462 0.50763 0.0
H204 H 0.12014 0.93575 0.4964 0.0
C205 C 0.16913 0.05666 0.49202 0.0
C206 C 0.22417 0.05591 0.50358 0.0
C207 C 0.21802 0.996 0.50964 0.0
C208 C 0.2701 0.99375 0.52028 0.0
C209 C 0.26174 0.93325 0.52671 0.0
C210 C 0.20455 0.87672 0.52222 0.0
C211 C 0.15443 0.87876 0.51125 0.0
C212 C 0.16078 0.93742 0.50498 0.0
H213 H 0.39169 0.09278 0.56395 0.0
C214 C 0.40695 0.06454 0.55431 0.0
H215 H 0.39925 0.01703 0.52419 0.0
H216 H 0.24893 0.17907 0.49742 0.0
H217 H 0.35009 0.27666 0.50464 0.0
H218 H 0.4434 0.27213 0.52022 0.0
H219 H 0.43571 0.17 0.5291 0.0
C220 C 0.38463 0.04638 0.5335 0.0
C221 C 0.3291 0.0512 0.52435 0.0
C222 C 0.33512 0.11116 0.51857 0.0
C223 C 0.2821 0.1136 0.50862 0.0
C224 C 0.28839 0.17427 0.5041 0.0
C225 C 0.34606 0.23069 0.50832 0.0
C226 C 0.39855 0.22815 0.51716 0.0
C227 C 0.39343 0.16922 0.52225 0.0
H228 H 0.1237 0.21642 0.80063 0.0
C229 C 0.12465 0.17296 0.80495 0.0
H230 H 0.16158 0.12984 0.8265 0.0
H231 H 0.37129 0.4413 0.84028 0.0
H232 H 0.39054 0.44628 0.80063 0.0
H233 H 0.32614 0.35192 0.77681 0.0
H234 H 0.24128 0.25313 0.79223 0.0
C235 C 0.16191 0.17374 0.82185 0.0
C236 C 0.20138 0.23199 0.83573 0.0
C237 C 0.25291 0.2885 0.8264 0.0
C238 C 0.29295 0.34158 0.84031 0.0
C239 C 0.34161 0.39871 0.83052 0.0
C240 C 0.35286 0.40233 0.80781 0.0
C241 C 0.3164 0.34931 0.79439 0.0
C242 C 0.2672 0.2929 0.80348 0.0
H243 H 0.40499 0.36258 0.86578 0.0
C244 C 0.39552 0.39028 0.87793 0.0
H245 H 0.32491 0.40911 0.89113 0.0
H246 H 0.10289 0.13442 0.85869 0.0
H247 H 0.08624 0.12937 0.89842 0.0
H248 H 0.16031 0.21868 0.9227 0.0
H249 H 0.25111 0.31383 0.9074 0.0
C250 C 0.33661 0.38427 0.87854 0.0
C251 C 0.28482 0.33651 0.86364 0.0
C252 C 0.23175 0.28138 0.87285 0.0
C253 C 0.18976 0.22931 0.85887 0.0
C254 C 0.13703 0.17486 0.86854 0.0
C255 C 0.12675 0.1714 0.89133 0.0
C256 C 0.16842 0.2217 0.905 0.0
C257 C 0.22043 0.27609 0.89598 0.0
H258 H 0.85559 0.06142 0.7417 0.0
C259 C 0.87592 0.03609 0.73296 0.0
H260 H 0.87873 0.99249 0.70302 0.0
H261 H 0.60404 1.00211 0.69563 0.0
H262 H 0.57064 0.93848 0.72927 0.0
H263 H 0.64508 0.9122 0.74909 0.0
H264 H 0.75353 0.95079 0.73584 0.0
C265 C 0.85707 0.01611 0.71204 0.0
C266 C 0.81019 0.02931 0.69991 0.0
C267 C 0.7457 1.0034 0.70739 0.0
C268 C 0.70128 0.01482 0.69516 0.0
C269 C 0.63855 0.99202 0.70371 0.0
C270 C 0.61893 0.95587 0.72307 0.0
C271 C 0.66094 0.94136 0.73428 0.0
C272 C 0.72349 0.96448 0.72658 0.0
H273 H 0.62173 0.94668 0.65671 0.0
C274 C 0.62288 0.99052 0.65139 0.0
H275 H 0.67351 0.09168 0.65381 0.0
H276 H 0.93098 0.09049 0.68181 0.0
H277 H 0.96245 0.15078 0.64749 0.0
H278 H 0.88328 0.16419 0.6251 0.0
H279 H 0.7723 0.11811 0.63706 0.0
C280 C 0.66957 0.04686 0.65937 0.0
C281 C 0.71964 0.04777 0.67461 0.0
C282 C 0.78437 0.07517 0.66745 0.0
C283 C 0.82974 0.0663 0.68017 0.0
C284 C 0.8942 0.09465 0.67264 0.0
C285 C 0.913 0.12958 0.65299 0.0
C286 C 0.86845 0.13719 0.6404 0.0
C287 C 0.80484 0.11041 0.64745 0.0
H288 H 0.81064 0.87627 0.06979 0.0
C289 C 0.85319 0.90297 0.0596 0.0
H290 H 0.89393 0.91452 0.02789 0.0
H291 H 0.71924 0.63111 0.99572 0.0
H292 H 0.82357 0.63824 0.99927 0.0
H293 H 0.91552 0.73328 1.01624 0.0
H294 H 0.90383 0.82192 0.02958 0.0
C295 C 0.85084 0.88895 0.03792 0.0
C296 C 0.79428 0.83178 0.02788 0.0
C297 C 0.80178 0.77992 0.02037 0.0
C298 C 0.74839 0.72447 1.01104 0.0
C299 C 0.7577 0.67389 1.00335 0.0
C300 C 0.81747 0.6774 1.00521 0.0
C301 C 0.86924 0.73094 1.01472 0.0
C302 C 0.86181 0.78166 0.02225 0.0
H303 H 0.6196 0.69749 0.97118 0.0
C304 C 0.60545 0.65455 0.98097 0.0
H305 H 0.61873 0.61644 1.01072 0.0
H306 H 0.76496 0.92528 0.03817 0.0
H307 H 0.65992 0.91734 0.03514 0.0
H308 H 0.56597 0.81876 0.02087 0.0
H309 H 0.57667 0.72778 1.00921 0.0
C310 C 0.6311 0.65957 1.00129 0.0
C311 C 0.68719 0.72039 1.00947 0.0
C312 C 0.67979 0.77252 1.01667 0.0
C313 C 0.73362 0.82866 0.02561 0.0
C314 C 0.72536 0.88084 0.03193 0.0
C315 C 0.66539 0.87703 0.03016 0.0
C316 C 0.61252 0.82157 0.02207 0.0
C317 C 0.61933 0.76975 1.01539 0.0
H318 H 0.97246 0.83166 0.39769 0.0
C319 C 1.01258 0.88017 0.39575 0.0
H320 H 0.10008 0.94017 0.37932 0.0
H321 H 0.04949 0.64228 0.36396 0.0
H322 H 0.06446 0.64057 0.40375 0.0
H323 H 0.07941 0.73101 0.42726 0.0
H324 H 0.07869 0.82327 0.41121 0.0
C325 C 0.06062 0.89152 0.3817 0.0
C326 C 0.05861 0.83974 0.36751 0.0
C327 C 0.0609 0.78696 0.37713 0.0
C328 C 0.05372 0.73544 0.36352 0.0
C329 C 0.05475 0.68266 0.37356 0.0
C330 C 0.06355 0.68119 0.39635 0.0
C331 C 0.07188 0.73208 0.4096 0.0
C332 C 0.07086 0.78456 0.40019 0.0
H333 H 0.12059 0.71327 0.31256 0.0
C334 C 0.07089 0.67453 0.31331 0.0
H335 H 0.97922 0.64044 0.32781 0.0
H336 H 0.05747 0.93611 0.34348 0.0
H337 H 0.04665 0.93933 0.30361 0.0
H338 H 0.03504 0.85028 0.28005 0.0
H339 H 0.03441 0.75757 0.29621 0.0
C340 C 0.02866 0.67953 0.32666 0.0
C341 C 0.04592 0.73745 0.34029 0.0
C342 C 0.04714 0.79175 0.33053 0.0
C343 C 0.05369 0.84305 0.34415 0.0
C344 C 0.0532 0.89601 0.33398 0.0
C345 C 0.04683 0.89842 0.31109 0.0
C346 C 0.04029 0.84829 0.29782 0.0
C347 C 0.04013 0.79536 0.30733 0.0
H348 H 0.1773 0.02778 0.71711 0.0
C349 C 0.13089 0.98577 0.72058 0.0
H350 H 0.0686 0.88749 0.71384 0.0
H351 H 0.28499 1.00575 0.63122 0.0
H352 H 0.23675 0.07063 0.62198 0.0
H353 H 0.14968 0.06688 0.64483 0.0
H354 H 0.11164 0.99931 0.67741 0.0
C355 C 0.11408 0.93024 0.71005 0.0
C356 C 0.15881 0.9246 0.69416 0.0
C357 C 0.17774 0.9613 0.67437 0.0
C358 C 0.22521 0.96042 0.66043 0.0
C359 C 0.24686 1.00174 0.6418 0.0
C360 C 0.21989 0.03977 0.63638 0.0
C361 C 0.1711 0.03788 0.64929 0.0
C362 C 0.15007 0.99923 0.66806 0.0
H363 H 0.24499 0.88056 0.62327 0.0
C364 C 0.29296 0.90037 0.63047 0.0
H365 H 0.3506 0.94093 0.65906 0.0
H366 H 0.1311 0.84584 0.73016 0.0
H367 H 0.17483 0.77606 0.73831 0.0
H368 H 0.25296 0.77045 0.71318 0.0
H369 H 0.28816 0.83496 0.67977 0.0
C370 C 0.30285 0.92065 0.65167 0.0
C371 C 0.25079 0.91964 0.66555 0.0
C372 C 0.22975 0.8809 0.68481 0.0
C373 C 0.18393 0.88349 0.69915 0.0
C374 C 0.16511 0.84528 0.71854 0.0
C375 C 0.18993 0.80504 0.72345 0.0
C376 C 0.23397 0.80194 0.70931 0.0
C377 C 0.25386 0.83931 0.69021 0.0
H378 H 0.16711 0.16638 0.0362 0.0
C379 C 0.17327 0.13199 0.04613 0.0
H380 H 0.23502 0.09535 0.05397 0.0
H381 H 0.32678 0.25451 0.95676 0.0
H382 H 0.22614 0.1689 0.94223 0.0
H383 H 0.14964 0.08181 0.96648 0.0
H384 H 0.17311 0.08075 1.00561 0.0
C385 C 0.2269 0.12778 0.04365 0.0
C386 C 0.27868 0.17185 0.02815 0.0
C387 C 0.2662 0.16975 1.00505 0.0
C388 C 0.31195 0.21819 0.99083 0.0
C389 C 0.29553 0.21757 0.96819 0.0
C390 C 0.23751 0.16885 0.95962 0.0
C391 C 0.19435 0.11995 0.97328 0.0
C392 C 0.20823 0.12017 0.99574 0.0
H393 H 0.44249 0.2669 0.96458 0.0
C394 C 0.44915 0.31411 0.96827 0.0
H395 H 0.42418 0.36848 0.98933 0.0
H396 H 0.32025 0.18703 0.07126 0.0
H397 H 0.42377 0.26907 0.08553 0.0
H398 H 0.50505 0.35013 0.06066 0.0
H399 H 0.48312 0.34987 0.02132 0.0
C400 C 0.41754 0.3214 0.98542 0.0
C401 C 0.37184 0.26676 0.99957 0.0
C402 C 0.38582 0.26647 0.02242 0.0
C403 C 0.33923 0.21913 0.03673 0.0
C404 C 0.354 0.22135 0.05959 0.0
C405 C 0.41327 0.26823 0.06802 0.0
C406 C 0.45901 0.31392 0.05402 0.0
C407 C 0.44573 0.31331 0.03149 0.0
H408 H 0.03633 0.22209 0.39907 0.0
C409 C 1.01118 0.17296 0.39302 0.0
H410 H 0.95468 0.11018 0.36733 0.0
H411 H 0.90888 0.35724 0.34889 0.0
H412 H 0.85401 0.33122 0.38429 0.0
H413 H 0.85384 0.24812 0.40838 0.0
H414 H 0.90889 0.19092 0.39734 0.0
C415 C 0.97874 0.15905 0.37365 0.0
C416 C 0.97836 0.20949 0.35933 0.0
C417 C 0.94524 0.24201 0.36596 0.0
C418 C 0.94442 0.28925 0.35189 0.0
C419 C 0.91111 0.32104 0.35893 0.0
C420 C 0.87925 0.30645 0.37918 0.0
C421 C 0.87922 0.25971 0.39276 0.0
C422 C 0.91144 0.2275 0.38627 0.0
H423 H 0.9205 0.29066 0.29098 0.0
C424 C 0.9467 0.34018 0.29664 0.0
H425 H 1.00247 0.40299 0.32251 0.0
H426 H 0.04541 0.1555 0.34149 0.0
H427 H 0.10127 0.18232 0.30633 0.0
H428 H 0.10263 0.26635 0.28245 0.0
H429 H 0.0476 0.32338 0.29342 0.0
C430 C 0.97576 0.35371 0.31665 0.0
C431 C 0.97563 0.30312 0.33106 0.0
C432 C 1.00927 0.27097 0.32451 0.0
C433 C 1.00978 0.22351 0.33853 0.0
C434 C 0.04333 0.19187 0.33151 0.0
C435 C 0.07585 0.20695 0.31139 0.0
C436 C 0.07651 0.25416 0.29793 0.0
C437 C 0.0441 0.2862 0.30438 0.0
loop_
_geom_bond_atom_site_label_1
_geom_bond_atom_site_label_2
_geom_bond_distance
_geom_bond_site_symmetry_2
_ccdc_geom_bond_type
In0 O1 2.294 1_455 S
In0 O2 2.326 . S
In0 O6 2.266 1_445 S
In0 O7 2.326 1_445 S
In0 O8 2.266 1_545 S
In0 O9 2.326 1_445 S
In0 O11 2.294 . S
In0 O12 2.326 . S
O1 In0 2.294 1_655 S
O1 C10 1.240 1_655 S
O2 In0 2.326 . S
O2 C10 1.252 . S
C3 O6 1.252 . S
C3 O7 1.260 . S
C4 O11 1.240 . S
C4 O12 1.252 . S
C5 O8 1.244 1_655 S
C5 O9 1.273 . S
O6 In0 2.266 1_665 S
O6 C3 1.252 . S
O7 In0 2.326 1_665 S
O7 C3 1.260 . S
O8 In0 2.266 1_565 S
O8 C5 1.244 1_455 S
O9 In0 2.326 1_665 S
O9 C5 1.273 . S
C10 O1 1.240 1_455 S
C10 O2 1.252 . S
O11 In0 2.294 . S
O11 C4 1.240 . S
O12 In0 2.326 . S
O12 C4 1.252 . S
In13 O14 2.294 . S
In13 O15 2.326 1_455 S
In13 O19 2.266 . S
In13 O20 2.326 1_545 S
In13 O21 2.266 1_445 S
In13 O22 2.326 1_545 S
In13 O24 2.294 1_445 S
In13 O25 2.326 1_455 S
O14 In13 2.294 . S
O14 C23 1.240 1_455 S
O15 In13 2.326 1_655 S
O15 C23 1.252 . S
C16 O19 1.235 1_565 S
C16 O20 1.268 . S
C17 O24 1.240 1_545 S
C17 O25 1.252 . S
C18 O21 1.252 1_455 S
C18 O22 1.260 . S
O19 In13 2.266 . S
O19 C16 1.235 1_545 S
O20 In13 2.326 1_565 S
O20 C16 1.268 . S
O21 In13 2.266 1_665 S
O21 C18 1.252 1_655 S
O22 In13 2.326 1_565 S
O22 C18 1.260 . S
C23 O14 1.240 1_655 S
C23 O15 1.252 . S
O24 In13 2.294 1_665 S
O24 C17 1.240 1_565 S
O25 In13 2.326 1_655 S
O25 C17 1.252 . S
In26 O27 2.294 1_445 S
In26 O28 2.326 1_445 S
In26 O32 2.266 1_545 S
In26 O33 2.326 . S
In26 O34 2.266 . S
In26 O35 2.326 . S
In26 O37 2.294 1_455 S
In26 O38 2.326 1_445 S
O27 In26 2.294 1_665 S
O27 C36 1.240 . S
O28 In26 2.326 1_665 S
O28 C36 1.252 . S
C29 O32 1.252 1_545 S
C29 O33 1.260 . S
C30 O37 1.240 1_565 S
C30 O38 1.252 . S
C31 O34 1.252 . S
C31 O35 1.260 . S
O32 In26 2.266 1_565 S
O32 C29 1.252 1_565 S
O33 In26 2.326 . S
O33 C29 1.260 . S
O34 In26 2.266 . S
O34 C31 1.252 . S
O35 In26 2.326 . S
O35 C31 1.260 . S
C36 O27 1.240 . S
C36 O28 1.252 . S
O37 In26 2.294 1_655 S
O37 C30 1.240 1_545 S
O38 In26 2.326 1_665 S
O38 C30 1.252 . S
Mg39 O46 2.141 . S
Mg39 O47 2.048 . S
Mg39 O48 2.048 . S
Mg39 O51 2.141 . S
C40 O41 1.313 . S
C40 O47 1.195 1_655 S
O41 C40 1.313 . S
C42 O43 1.245 . S
C42 O51 1.289 1_655 S
O43 C42 1.245 . S
C44 O45 1.245 . S
C44 O46 1.289 1_655 S
O45 C44 1.245 . S
O46 Mg39 2.141 . S
O46 C44 1.289 1_455 S
O47 Mg39 2.048 . S
O47 C40 1.195 1_455 S
O48 Mg39 2.048 . S
O48 C49 1.195 1_455 S
C49 O48 1.195 1_655 S
C49 O50 1.313 . S
O50 C49 1.313 . S
O51 Mg39 2.141 . S
O51 C42 1.289 1_455 S
Mg52 O59 2.141 . S
Mg52 O60 2.048 . S
Mg52 O61 2.048 . S
Mg52 O64 2.141 . S
C53 O54 1.313 . S
C53 O60 1.195 1_565 S
O54 C53 1.313 . S
C55 O56 1.245 . S
C55 O64 1.289 1_565 S
O56 C55 1.245 . S
C57 O58 1.245 . S
C57 O59 1.289 1_565 S
O58 C57 1.245 . S
O59 Mg52 2.141 . S
O59 C57 1.289 1_545 S
O60 Mg52 2.048 . S
O60 C53 1.195 1_545 S
O61 Mg52 2.048 . S
O61 C62 1.195 1_545 S
C62 O61 1.195 1_565 S
C62 O63 1.313 . S
O63 C62 1.313 . S
O64 Mg52 2.141 . S
O64 C55 1.289 1_545 S
Mg65 O72 2.141 . S
Mg65 O73 2.048 . S
Mg65 O74 2.048 . S
Mg65 O77 2.141 . S
C66 O67 1.313 . S
C66 O73 1.195 . S
O67 C66 1.313 . S
C68 O69 1.245 . S
C68 O77 1.289 . S
O69 C68 1.245 . S
C70 O71 1.245 . S
C70 O72 1.289 . S
O71 C70 1.245 . S
O72 Mg65 2.141 . S
O72 C70 1.289 . S
O73 Mg65 2.048 . S
O73 C66 1.195 . S
O74 Mg65 2.048 . S
O74 C75 1.195 . S
C75 O74 1.195 . S
C75 O76 1.313 . S
O76 C75 1.313 . S
O77 Mg65 2.141 . S
O77 C68 1.289 . S
H78 C79 0.951 1_655 S
C79 H78 0.951 1_455 S
C79 C85 1.265 . S
H80 C85 0.950 . S
H81 C89 0.949 . S
H82 C90 0.950 . S
H83 C91 0.951 . S
H84 C92 0.951 . S
C85 C79 1.265 . S
C85 H80 0.950 . S
C85 C86 1.478 . S
C86 C85 1.478 . S
C86 C87 1.397 . S
C86 C103 1.394 1_455 S
C87 C86 1.397 . S
C87 C88 1.438 . S
C87 C92 1.429 . S
C88 C87 1.438 . S
C88 C89 1.428 . S
C88 C101 1.394 1_455 S
C89 H81 0.949 . S
C89 C88 1.428 . S
C89 C90 1.345 . S
C90 H82 0.950 . S
C90 C89 1.345 . S
C90 C91 1.424 . S
C91 H83 0.951 . S
C91 C90 1.424 . S
C91 C92 1.347 . S
C92 H84 0.951 . S
C92 C87 1.429 . S
C92 C91 1.347 . S
H93 C94 0.951 . S
C94 H93 0.951 . S
C94 C100 1.265 1_455 S
H95 C100 0.950 . S
H96 C104 0.949 . S
H97 C105 0.950 . S
H98 C106 0.951 . S
H99 C107 0.951 . S
C100 C94 1.265 1_655 S
C100 H95 0.950 . S
C100 C101 1.478 . S
C101 C88 1.394 1_655 S
C101 C100 1.478 . S
C101 C102 1.397 . S
C102 C101 1.397 . S
C102 C103 1.438 . S
C102 C107 1.429 . S
C103 C86 1.394 1_655 S
C103 C102 1.438 . S
C103 C104 1.428 . S
C104 H96 0.949 . S
C104 C103 1.428 . S
C104 C105 1.345 . S
C105 H97 0.950 . S
C105 C104 1.345 . S
C105 C106 1.424 . S
C106 H98 0.951 . S
C106 C105 1.424 . S
C106 C107 1.347 . S
C107 H99 0.951 . S
C107 C102 1.429 . S
C107 C106 1.347 . S
H108 C109 0.951 . S
C109 H108 0.951 . S
C109 C115 1.265 . S
H110 C115 0.950 . S
H111 C119 0.949 . S
H112 C120 0.950 . S
H113 C121 0.951 . S
H114 C122 0.951 . S
C115 C109 1.265 . S
C115 H110 0.950 . S
C115 C116 1.478 . S
C116 C115 1.478 . S
C116 C117 1.397 . S
C116 C133 1.394 1_545 S
C117 C116 1.397 . S
C117 C118 1.438 . S
C117 C122 1.429 . S
C118 C117 1.438 . S
C118 C119 1.428 . S
C118 C131 1.394 . S
C119 H111 0.949 . S
C119 C118 1.428 . S
C119 C120 1.345 . S
C120 H112 0.950 . S
C120 C119 1.345 . S
C120 C121 1.424 . S
C121 H113 0.951 . S
C121 C120 1.424 . S
C121 C122 1.347 . S
C122 H114 0.951 . S
C122 C117 1.429 . S
C122 C121 1.347 . S
H123 C124 0.951 . S
C124 H123 0.951 . S
C124 C130 1.265 . S
H125 C130 0.950 . S
H126 C134 0.949 . S
H127 C135 0.950 . S
H128 C136 0.951 . S
H129 C137 0.951 . S
C130 C124 1.265 . S
C130 H125 0.950 . S
C130 C131 1.478 . S
C131 C118 1.394 . S
C131 C130 1.478 . S
C131 C132 1.397 1_545 S
C132 C131 1.397 1_565 S
C132 C133 1.438 . S
C132 C137 1.429 . S
C133 C116 1.394 1_565 S
C133 C132 1.438 . S
C133 C134 1.428 . S
C134 H126 0.949 . S
C134 C133 1.428 . S
C134 C135 1.345 . S
C135 H127 0.950 . S
C135 C134 1.345 . S
C135 C136 1.424 . S
C136 H128 0.951 . S
C136 C135 1.424 . S
C136 C137 1.347 . S
C137 H129 0.951 . S
C137 C132 1.429 . S
C137 C136 1.347 . S
H138 C139 0.951 . S
C139 H138 0.951 . S
C139 C145 1.265 . S
H140 C145 0.950 . S
H141 C149 0.949 . S
H142 C150 0.950 . S
H143 C151 0.951 . S
H144 C152 0.951 . S
C145 C139 1.265 . S
C145 H140 0.950 . S
C145 C146 1.478 . S
C146 C145 1.478 . S
C146 C147 1.397 . S
C146 C163 1.394 . S
C147 C146 1.397 . S
C147 C148 1.438 . S
C147 C152 1.429 . S
C148 C147 1.438 . S
C148 C149 1.428 . S
C148 C161 1.394 . S
C149 H141 0.949 . S
C149 C148 1.428 . S
C149 C150 1.345 . S
C150 H142 0.950 . S
C150 C149 1.345 . S
C150 C151 1.424 . S
C151 H143 0.951 . S
C151 C150 1.424 . S
C151 C152 1.347 . S
C152 H144 0.951 . S
C152 C147 1.429 . S
C152 C151 1.347 . S
H153 C154 0.951 . S
C154 H153 0.951 . S
C154 C160 1.265 . S
H155 C160 0.950 . S
H156 C164 0.949 . S
H157 C165 0.950 . S
H158 C166 0.951 . S
H159 C167 0.951 . S
C160 C154 1.265 . S
C160 H155 0.950 . S
C160 C161 1.478 . S
C161 C148 1.394 . S
C161 C160 1.478 . S
C161 C162 1.397 . S
C162 C161 1.397 . S
C162 C163 1.438 . S
C162 C167 1.429 . S
C163 C146 1.394 . S
C163 C162 1.438 . S
C163 C164 1.428 . S
C164 H156 0.949 . S
C164 C163 1.428 . S
C164 C165 1.345 . S
C165 H157 0.950 . S
C165 C164 1.345 . S
C165 C166 1.424 . S
C166 H158 0.951 . S
C166 C165 1.424 . S
C166 C167 1.347 . S
C167 H159 0.951 . S
C167 C162 1.429 . S
C167 C166 1.347 . S
H168 C169 0.951 . S
C169 H168 0.951 . S
C169 C175 1.265 1_655 S
H170 C175 0.950 . S
H171 C179 0.949 . S
H172 C180 0.950 . S
H173 C181 0.951 . S
H174 C182 0.951 . S
C175 C169 1.265 1_455 S
C175 H170 0.950 . S
C175 C176 1.478 . S
C176 C175 1.478 . S
C176 C177 1.397 . S
C176 C193 1.394 1_455 S
C177 C176 1.397 . S
C177 C178 1.438 . S
C177 C182 1.429 . S
C178 C177 1.438 . S
C178 C179 1.428 . S
C178 C191 1.394 1_455 S
C179 H171 0.949 . S
C179 C178 1.428 . S
C179 C180 1.345 . S
C180 H172 0.950 . S
C180 C179 1.345 . S
C180 C181 1.424 . S
C181 H173 0.951 . S
C181 C180 1.424 . S
C181 C182 1.347 . S
C182 H174 0.951 . S
C182 C177 1.429 . S
C182 C181 1.347 . S
H183 C184 0.951 . S
C184 H183 0.951 . S
C184 C190 1.265 1_455 S
H185 C190 0.950 . S
H186 C194 0.949 . S
H187 C195 0.950 . S
H188 C196 0.951 . S
H189 C197 0.951 . S
C190 C184 1.265 1_655 S
C190 H185 0.950 . S
C190 C191 1.478 . S
C191 C178 1.394 1_655 S
C191 C190 1.478 . S
C191 C192 1.397 . S
C192 C191 1.397 . S
C192 C193 1.438 . S
C192 C197 1.429 . S
C193 C176 1.394 1_655 S
C193 C192 1.438 . S
C193 C194 1.428 . S
C194 H186 0.949 . S
C194 C193 1.428 . S
C194 C195 1.345 . S
C195 H187 0.950 . S
C195 C194 1.345 . S
C195 C196 1.424 . S
C196 H188 0.951 . S
C196 C195 1.424 . S
C196 C197 1.347 . S
C197 H189 0.951 . S
C197 C192 1.429 . S
C197 C196 1.347 . S
H198 C199 0.951 . S
C199 H198 0.951 . S
C199 C205 1.265 1_545 S
H200 C205 0.950 . S
H201 C209 0.949 . S
H202 C210 0.950 . S
H203 C211 0.951 . S
H204 C212 0.951 . S
C205 C199 1.265 1_565 S
C205 H200 0.950 . S
C205 C206 1.478 . S
C206 C205 1.478 . S
C206 C207 1.397 . S
C206 C223 1.394 1_565 S
C207 C206 1.397 . S
C207 C208 1.438 . S
C207 C212 1.429 . S
C208 C207 1.438 . S
C208 C209 1.428 . S
C208 C221 1.394 1_565 S
C209 H201 0.949 . S
C209 C208 1.428 . S
C209 C210 1.345 . S
C210 H202 0.950 . S
C210 C209 1.345 . S
C210 C211 1.424 . S
C211 H203 0.951 . S
C211 C210 1.424 . S
C211 C212 1.347 . S
C212 H204 0.951 . S
C212 C207 1.429 . S
C212 C211 1.347 . S
H213 C214 0.952 1_565 S
C214 H213 0.952 1_545 S
C214 C220 1.271 . S
H215 C220 0.950 . S
H216 C224 0.949 . S
H217 C225 0.950 . S
H218 C226 0.951 . S
H219 C227 0.951 . S
C220 C214 1.271 . S
C220 H215 0.950 . S
C220 C221 1.478 . S
C221 C208 1.394 1_545 S
C221 C220 1.478 . S
C221 C222 1.397 . S
C222 C221 1.397 . S
C222 C223 1.438 . S
C222 C227 1.429 . S
C223 C206 1.394 1_545 S
C223 C222 1.438 . S
C223 C224 1.428 . S
C224 H216 0.949 . S
C224 C223 1.428 . S
C224 C225 1.345 . S
C225 H217 0.950 . S
C225 C224 1.345 . S
C225 C226 1.424 . S
C226 H218 0.951 . S
C226 C225 1.424 . S
C226 C227 1.347 . S
C227 H219 0.951 . S
C227 C222 1.429 . S
C227 C226 1.347 . S
H228 C229 0.951 . S
C229 H228 0.951 . S
C229 C235 1.265 . S
H230 C235 0.950 . S
H231 C239 0.949 . S
H232 C240 0.950 . S
H233 C241 0.951 . S
H234 C242 0.951 . S
C235 C229 1.265 . S
C235 H230 0.950 . S
C235 C236 1.478 . S
C236 C235 1.478 . S
C236 C237 1.397 . S
C236 C253 1.394 . S
C237 C236 1.397 . S
C237 C238 1.438 . S
C237 C242 1.429 . S
C238 C237 1.438 . S
C238 C239 1.428 . S
C238 C251 1.394 . S
C239 H231 0.949 . S
C239 C238 1.428 . S
C239 C240 1.345 . S
C240 H232 0.950 . S
C240 C239 1.345 . S
C240 C241 1.424 . S
C241 H233 0.951 . S
C241 C240 1.424 . S
C241 C242 1.347 . S
C242 H234 0.951 . S
C242 C237 1.429 . S
C242 C241 1.347 . S
H243 C244 0.951 . S
C244 H243 0.951 . S
C244 C250 1.265 . S
H245 C250 0.950 . S
H246 C254 0.949 . S
H247 C255 0.950 . S
H248 C256 0.951 . S
H249 C257 0.951 . S
C250 C244 1.265 . S
C250 H245 0.950 . S
C250 C251 1.478 . S
C251 C238 1.394 . S
C251 C250 1.478 . S
C251 C252 1.397 . S
C252 C251 1.397 . S
C252 C253 1.438 . S
C252 C257 1.429 . S
C253 C236 1.394 . S
C253 C252 1.438 . S
C253 C254 1.428 . S
C254 H246 0.949 . S
C254 C253 1.428 . S
C254 C255 1.345 . S
C255 H247 0.950 . S
C255 C254 1.345 . S
C255 C256 1.424 . S
C256 H248 0.951 . S
C256 C255 1.424 . S
C256 C257 1.347 . S
C257 H249 0.951 . S
C257 C252 1.429 . S
C257 C256 1.347 . S
H258 C259 0.951 . S
C259 H258 0.951 . S
C259 C265 1.265 1_545 S
H260 C265 0.950 . S
H261 C269 0.949 . S
H262 C270 0.950 . S
H263 C271 0.951 . S
H264 C272 0.951 . S
C265 C259 1.265 1_565 S
C265 H260 0.950 . S
C265 C266 1.478 . S
C266 C265 1.478 . S
C266 C267 1.397 . S
C266 C283 1.394 1_565 S
C267 C266 1.397 . S
C267 C268 1.438 . S
C267 C272 1.429 . S
C268 C267 1.438 . S
C268 C269 1.428 . S
C268 C281 1.394 1_565 S
C269 H261 0.949 . S
C269 C268 1.428 . S
C269 C270 1.345 . S
C270 H262 0.950 . S
C270 C269 1.345 . S
C270 C271 1.424 . S
C271 H263 0.951 . S
C271 C270 1.424 . S
C271 C272 1.347 . S
C272 H264 0.951 . S
C272 C267 1.429 . S
C272 C271 1.347 . S
H273 C274 0.951 . S
C274 H273 0.951 . S
C274 C280 1.265 1_565 S
H275 C280 0.950 . S
H276 C284 0.949 . S
H277 C285 0.950 . S
H278 C286 0.951 . S
H279 C287 0.951 . S
C280 C274 1.265 1_545 S
C280 H275 0.950 . S
C280 C281 1.478 . S
C281 C268 1.394 1_545 S
C281 C280 1.478 . S
C281 C282 1.397 . S
C282 C281 1.397 . S
C282 C283 1.438 . S
C282 C287 1.429 . S
C283 C266 1.394 1_545 S
C283 C282 1.438 . S
C283 C284 1.428 . S
C284 H276 0.949 . S
C284 C283 1.428 . S
C284 C285 1.345 . S
C285 H277 0.950 . S
C285 C284 1.345 . S
C285 C286 1.424 . S
C286 H278 0.951 . S
C286 C285 1.424 . S
C286 C287 1.347 . S
C287 H279 0.951 . S
C287 C282 1.429 . S
C287 C286 1.347 . S
H288 C289 0.951 . S
C289 H288 0.951 . S
C289 C295 1.265 . S
H290 C295 0.950 . S
H291 C299 0.949 . S
H292 C300 0.950 . S
H293 C301 0.951 . S
H294 C302 0.951 . S
C295 C289 1.265 . S
C295 H290 0.950 . S
C295 C296 1.478 . S
C296 C295 1.478 . S
C296 C297 1.397 1_554 S
C296 C313 1.394 . S
C297 C296 1.397 1_556 S
C297 C298 1.438 . S
C297 C302 1.429 . S
C298 C297 1.438 . S
C298 C299 1.428 . S
C298 C311 1.394 . S
C299 H291 0.949 . S
C299 C298 1.428 . S
C299 C300 1.345 . S
C300 H292 0.950 . S
C300 C299 1.345 . S
C300 C301 1.424 . S
C301 H293 0.951 . S
C301 C300 1.424 . S
C301 C302 1.347 . S
C302 H294 0.951 . S
C302 C297 1.429 . S
C302 C301 1.347 . S
H303 C304 0.951 . S
C304 H303 0.951 . S
C304 C310 1.265 . S
H305 C310 0.950 . S
H306 C314 0.949 . S
H307 C315 0.950 . S
H308 C316 0.951 . S
H309 C317 0.951 . S
C310 C304 1.265 . S
C310 H305 0.950 . S
C310 C311 1.478 . S
C311 C298 1.394 . S
C311 C310 1.478 . S
C311 C312 1.397 1_556 S
C312 C311 1.397 1_554 S
C312 C313 1.438 . S
C312 C317 1.429 . S
C313 C296 1.394 . S
C313 C312 1.438 . S
C313 C314 1.428 . S
C314 H306 0.949 . S
C314 C313 1.428 . S
C314 C315 1.345 . S
C315 H307 0.950 . S
C315 C314 1.345 . S
C315 C316 1.424 . S
C316 H308 0.951 . S
C316 C315 1.424 . S
C316 C317 1.347 . S
C317 H309 0.951 . S
C317 C312 1.429 . S
C317 C316 1.347 . S
H318 C319 0.954 . S
C319 H318 0.954 . S
C319 C325 1.261 1_655 S
H320 C325 0.950 . S
H321 C329 0.949 1_655 S
H322 C330 0.950 . S
H323 C331 0.951 . S
H324 C332 0.951 . S
C325 C319 1.261 1_455 S
C325 H320 0.950 . S
C325 C326 1.478 . S
C326 C325 1.478 . S
C326 C327 1.397 . S
C326 C343 1.394 . S
C327 C326 1.397 . S
C327 C328 1.438 . S
C327 C332 1.429 . S
C328 C327 1.438 . S
C328 C329 1.428 . S
C328 C341 1.394 1_455 S
C329 H321 0.949 1_455 S
C329 C328 1.428 . S
C329 C330 1.345 . S
C330 H322 0.950 . S
C330 C329 1.345 . S
C330 C331 1.424 . S
C331 H323 0.951 . S
C331 C330 1.424 . S
C331 C332 1.347 . S
C332 H324 0.951 . S
C332 C327 1.429 . S
C332 C331 1.347 . S
H333 C334 0.951 . S
C334 H333 0.951 . S
C334 C340 1.265 1_455 S
H335 C340 0.950 . S
H336 C344 0.949 . S
H337 C345 0.950 . S
H338 C346 0.951 . S
H339 C347 0.951 . S
C340 C334 1.265 1_655 S
C340 H335 0.950 . S
C340 C341 1.478 . S
C341 C328 1.394 1_655 S
C341 C340 1.478 . S
C341 C342 1.397 . S
C342 C341 1.397 . S
C342 C343 1.438 1_655 S
C342 C347 1.429 . S
C343 C326 1.394 . S
C343 C342 1.438 1_455 S
C343 C344 1.428 . S
C344 H336 0.949 . S
C344 C343 1.428 . S
C344 C345 1.345 1_455 S
C345 H337 0.950 . S
C345 C344 1.345 1_655 S
C345 C346 1.424 . S
C346 H338 0.951 . S
C346 C345 1.424 . S
C346 C347 1.347 . S
C347 H339 0.951 . S
C347 C342 1.429 . S
C347 C346 1.347 . S
H348 C349 0.951 . S
C349 H348 0.951 . S
C349 C355 1.265 . S
H350 C355 0.950 . S
H351 C359 0.949 . S
H352 C360 0.950 . S
H353 C361 0.951 . S
H354 C362 0.951 . S
C355 C349 1.265 . S
C355 H350 0.950 . S
C355 C356 1.478 . S
C356 C355 1.478 . S
C356 C357 1.397 . S
C356 C373 1.394 1_545 S
C357 C356 1.397 . S
C357 C358 1.438 . S
C357 C362 1.429 . S
C358 C357 1.438 . S
C358 C359 1.428 . S
C358 C371 1.394 . S
C359 H351 0.949 . S
C359 C358 1.428 . S
C359 C360 1.345 . S
C360 H352 0.950 . S
C360 C359 1.345 . S
C360 C361 1.424 . S
C361 H353 0.951 . S
C361 C360 1.424 . S
C361 C362 1.347 . S
C362 H354 0.951 . S
C362 C357 1.429 . S
C362 C361 1.347 . S
H363 C364 0.943 . S
C364 H363 0.943 . S
C364 C370 1.265 . S
H365 C370 0.950 . S
H366 C374 0.949 . S
H367 C375 0.950 . S
H368 C376 0.951 . S
H369 C377 0.951 . S
C370 C364 1.265 . S
C370 H365 0.950 . S
C370 C371 1.478 . S
C371 C358 1.394 . S
C371 C370 1.478 . S
C371 C372 1.397 1_545 S
C372 C371 1.397 1_565 S
C372 C373 1.438 . S
C372 C377 1.429 . S
C373 C356 1.394 1_565 S
C373 C372 1.438 . S
C373 C374 1.428 . S
C374 H366 0.949 . S
C374 C373 1.428 . S
C374 C375 1.345 . S
C375 H367 0.950 . S
C375 C374 1.345 . S
C375 C376 1.424 . S
C376 H368 0.951 . S
C376 C375 1.424 . S
C376 C377 1.347 . S
C377 H369 0.951 . S
C377 C372 1.429 . S
C377 C376 1.347 . S
H378 C379 0.951 . S
C379 H378 0.951 . S
C379 C385 1.265 . S
H380 C385 0.950 . S
H381 C389 0.949 . S
H382 C390 0.950 . S
H383 C391 0.951 . S
H384 C392 0.951 . S
C385 C379 1.265 . S
C385 H380 0.950 . S
C385 C386 1.478 . S
C386 C385 1.478 . S
C386 C387 1.397 1_554 S
C386 C403 1.394 . S
C387 C386 1.397 1_556 S
C387 C388 1.438 . S
C387 C392 1.429 . S
C388 C387 1.438 . S
C388 C389 1.428 . S
C388 C401 1.394 . S
C389 H381 0.949 . S
C389 C388 1.428 . S
C389 C390 1.345 . S
C390 H382 0.950 . S
C390 C389 1.345 . S
C390 C391 1.424 . S
C391 H383 0.951 . S
C391 C390 1.424 . S
C391 C392 1.347 . S
C392 H384 0.951 . S
C392 C387 1.429 . S
C392 C391 1.347 . S
H393 C394 0.951 . S
C394 H393 0.951 . S
C394 C400 1.265 . S
H395 C400 0.950 . S
H396 C404 0.949 . S
H397 C405 0.950 . S
H398 C406 0.951 . S
H399 C407 0.951 . S
C400 C394 1.265 . S
C400 H395 0.950 . S
C400 C401 1.478 . S
C401 C388 1.394 . S
C401 C400 1.478 . S
C401 C402 1.397 1_556 S
C402 C401 1.397 1_554 S
C402 C403 1.438 . S
C402 C407 1.429 . S
C403 C386 1.394 . S
C403 C402 1.438 . S
C403 C404 1.428 . S
C404 H396 0.949 . S
C404 C403 1.428 . S
C404 C405 1.345 . S
C405 H397 0.950 . S
C405 C404 1.345 . S
C405 C406 1.424 . S
C406 H398 0.951 . S
C406 C405 1.424 . S
C406 C407 1.347 . S
C407 H399 0.951 . S
C407 C402 1.429 . S
C407 C406 1.347 . S
H408 C409 0.951 . S
C409 H408 0.951 . S
C409 C415 1.265 1_455 S
H410 C415 0.950 . S
H411 C419 0.949 . S
H412 C420 0.950 . S
H413 C421 0.951 . S
H414 C422 0.951 . S
C415 C409 1.265 1_655 S
C415 H410 0.950 . S
C415 C416 1.478 . S
C416 C415 1.478 . S
C416 C417 1.397 . S
C416 C433 1.394 1_655 S
C417 C416 1.397 . S
C417 C418 1.438 . S
C417 C422 1.429 . S
C418 C417 1.438 . S
C418 C419 1.428 . S
C418 C431 1.394 1_655 S
C419 H411 0.949 . S
C419 C418 1.428 . S
C419 C420 1.345 . S
C420 H412 0.950 . S
C420 C419 1.345 . S
C420 C421 1.424 . S
C421 H413 0.951 . S
C421 C420 1.424 . S
C421 C422 1.347 . S
C422 H414 0.951 . S
C422 C417 1.429 . S
C422 C421 1.347 . S
H423 C424 0.951 . S
C424 H423 0.951 . S
C424 C430 1.265 1_655 S
H425 C430 0.950 . S
H426 C434 0.949 . S
H427 C435 0.950 . S
H428 C436 0.951 . S
H429 C437 0.951 . S
C430 C424 1.265 1_455 S
C430 H425 0.950 . S
C430 C431 1.478 . S
C431 C418 1.394 1_455 S
C431 C430 1.478 . S
C431 C432 1.397 . S
C432 C431 1.397 . S
C432 C433 1.438 . S
C432 C437 1.429 . S
C433 C416 1.394 1_455 S
C433 C432 1.438 . S
C433 C434 1.428 . S
C434 H426 0.949 . S
C434 C433 1.428 . S
C434 C435 1.345 . S
C435 H427 0.950 . S
C435 C434 1.345 . S
C435 C436 1.424 . S
C436 H428 0.951 . S
C436 C435 1.424 . S
C436 C437 1.347 . S
C437 H429 0.951 . S
C437 C432 1.429 . S
C437 C436 1.347 . S
C94 C44 1.453 1_455 S
C79 C10 1.439 . S
C109 C17 1.510 . S
C124 C62 1.501 1_545 S
C139 C36 1.512 . S
C154 C75 1.523 . S
C169 C5 1.435 . S
C184 C42 1.451 1_455 S
C214 C53 1.489 1_545 S
C199 C16 1.524 1_545 S
C229 C31 1.513 . S
C244 C66 1.496 . S
C274 C55 1.412 . S
C259 C30 1.439 1_545 S
C289 C3 1.451 . S
C304 C68 1.441 . S
C334 C49 1.521 1_455 S
C319 C18 1.510 1_655 S
C364 C57 1.427 1_545 S
C349 C29 1.446 . S
C394 C70 1.414 . S
C379 C4 1.444 . S
C409 C23 1.509 1_455 S
C424 C40 1.486 . S
