# Generated by pormake.
# Topology gar, (4,6)-cn, num edge types: 1
# Building blocks:
#     Node 0, Type 0, BuildingBlock: KUFVIS_clean_sbu_0, # of connection points: 4
#     Node 1, Type 0, BuildingBlock: KUFVIS_clean_sbu_0, # of connection points: 4
#     Node 2, Type 0, BuildingBlock: KUFVIS_clean_sbu_0, # of connection points: 4
#     Node 3, Type 0, BuildingBlock: KUFVIS_clean_sbu_0, # of connection points: 4
#     Node 4, Type 0, BuildingBlock: KUFVIS_clean_sbu_0, # of connection points: 4
#     Node 5, Type 0, BuildingBlock: KUFVIS_clean_sbu_0, # of connection points: 4
#     Node 6, Type 0, BuildingBlock: KUFVIS_clean_sbu_0, # of connection points: 4
#     Node 7, Type 0, BuildingBlock: KUFVIS_clean_sbu_0, # of connection points: 4
#     Node 8, Type 0, BuildingBlock: KUFVIS_clean_sbu_0, # of connection points: 4
#     Node 9, Type 0, BuildingBlock: KUFVIS_clean_sbu_0, # of connection points: 4
#     Node 10, Type 0, BuildingBlock: KUFVIS_clean_sbu_0, # of connection points: 4
#     Node 11, Type 0, BuildingBlock: KUFVIS_clean_sbu_0, # of connection points: 4
#     Node 12, Type 0, BuildingBlock: KUFVIS_clean_sbu_0, # of connection points: 4
#     Node 13, Type 0, BuildingBlock: KUFVIS_clean_sbu_0, # of connection points: 4
#     Node 14, Type 0, BuildingBlock: KUFVIS_clean_sbu_0, # of connection points: 4
#     Node 15, Type 0, BuildingBlock: KUFVIS_clean_sbu_0, # of connection points: 4
#     Node 16, Type 0, BuildingBlock: KUFVIS_clean_sbu_0, # of connection points: 4
#     Node 17, Type 0, BuildingBlock: KUFVIS_clean_sbu_0, # of connection points: 4
#     Node 18, Type 0, BuildingBlock: KUFVIS_clean_sbu_0, # of connection points: 4
#     Node 19, Type 0, BuildingBlock: KUFVIS_clean_sbu_0, # of connection points: 4
#     Node 20, Type 0, BuildingBlock: KUFVIS_clean_sbu_0, # of connection points: 4
#     Node 21, Type 0, BuildingBlock: KUFVIS_clean_sbu_0, # of connection points: 4
#     Node 22, Type 0, BuildingBlock: KUFVIS_clean_sbu_0, # of connection points: 4
#     Node 23, Type 0, BuildingBlock: KUFVIS_clean_sbu_0, # of connection points: 4
#     Node 24, Type 1, BuildingBlock: BETFEN_clean_sbu_0, # of connection points: 6
#     Node 25, Type 1, BuildingBlock: BETFEN_clean_sbu_0, # of connection points: 6
#     Node 26, Type 1, BuildingBlock: BETFEN_clean_sbu_0, # of connection points: 6
#     Node 27, Type 1, BuildingBlock: BETFEN_clean_sbu_0, # of connection points: 6
#     Node 28, Type 1, BuildingBlock: BETFEN_clean_sbu_0, # of connection points: 6
#     Node 29, Type 1, BuildingBlock: BETFEN_clean_sbu_0, # of connection points: 6
#     Node 30, Type 1, BuildingBlock: BETFEN_clean_sbu_0, # of connection points: 6
#     Node 31, Type 1, BuildingBlock: BETFEN_clean_sbu_0, # of connection points: 6
#     Node 32, Type 1, BuildingBlock: BETFEN_clean_sbu_0, # of connection points: 6
#     Node 33, Type 1, BuildingBlock: BETFEN_clean_sbu_0, # of connection points: 6
#     Node 34, Type 1, BuildingBlock: BETFEN_clean_sbu_0, # of connection points: 6
#     Node 35, Type 1, BuildingBlock: BETFEN_clean_sbu_0, # of connection points: 6
#     Node 36, Type 1, BuildingBlock: BETFEN_clean_sbu_0, # of connection points: 6
#     Node 37, Type 1, BuildingBlock: BETFEN_clean_sbu_0, # of connection points: 6
#     Node 38, Type 1, BuildingBlock: BETFEN_clean_sbu_0, # of connection points: 6
#     Node 39, Type 1, BuildingBlock: BETFEN_clean_sbu_0, # of connection points: 6
#     Edge 40, Type (0, 1), BuildingBlock: XUDNAN_clean_linker_2, # of connection points: 2
#     Edge 41, Type (0, 1), BuildingBlock: XUDNAN_clean_linker_2, # of connection points: 2
#     Edge 42, Type (0, 1), BuildingBlock: XUDNAN_clean_linker_2, # of connection points: 2
#     Edge 43, Type (0, 1), BuildingBlock: XUDNAN_clean_linker_2, # of connection points: 2
#     Edge 44, Type (0, 1), BuildingBlock: XUDNAN_clean_linker_2, # of connection points: 2
#     Edge 45, Type (0, 1), BuildingBlock: XUDNAN_clean_linker_2, # of connection points: 2
#     Edge 46, Type (0, 1), BuildingBlock: XUDNAN_clean_linker_2, # of connection points: 2
#     Edge 47, Type (0, 1), BuildingBlock: XUDNAN_clean_linker_2, # of connection points: 2
#     Edge 48, Type (0, 1), BuildingBlock: XUDNAN_clean_linker_2, # of connection points: 2
#     Edge 49, Type (0, 1), BuildingBlock: XUDNAN_clean_linker_2, # of connection points: 2
#     Edge 50, Type (0, 1), BuildingBlock: XUDNAN_clean_linker_2, # of connection points: 2
#     Edge 51, Type (0, 1), BuildingBlock: XUDNAN_clean_linker_2, # of connection points: 2
#     Edge 52, Type (0, 1), BuildingBlock: XUDNAN_clean_linker_2, # of connection points: 2
#     Edge 53, Type (0, 1), BuildingBlock: XUDNAN_clean_linker_2, # of connection points: 2
#     Edge 54, Type (0, 1), BuildingBlock: XUDNAN_clean_linker_2, # of connection points: 2
#     Edge 55, Type (0, 1), BuildingBlock: XUDNAN_clean_linker_2, # of connection points: 2
#     Edge 56, Type (0, 1), BuildingBlock: XUDNAN_clean_linker_2, # of connection points: 2
#     Edge 57, Type (0, 1), BuildingBlock: XUDNAN_clean_linker_2, # of connection points: 2
#     Edge 58, Type (0, 1), BuildingBlock: XUDNAN_clean_linker_2, # of connection points: 2
#     Edge 59, Type (0, 1), BuildingBlock: XUDNAN_clean_linker_2, # of connection points: 2
#     Edge 60, Type (0, 1), BuildingBlock: XUDNAN_clean_linker_2, # of connection points: 2
#     Edge 61, Type (0, 1), BuildingBlock: XUDNAN_clean_linker_2, # of connection points: 2
#     Edge 62, Type (0, 1), BuildingBlock: XUDNAN_clean_linker_2, # of connection points: 2
#     Edge 63, Type (0, 1), BuildingBlock: XUDNAN_clean_linker_2, # of connection points: 2
#     Edge 64, Type (0, 1), BuildingBlock: XUDNAN_clean_linker_2, # of connection points: 2
#     Edge 65, Type (0, 1), BuildingBlock: XUDNAN_clean_linker_2, # of connection points: 2
#     Edge 66, Type (0, 1), BuildingBlock: XUDNAN_clean_linker_2, # of connection points: 2
#     Edge 67, Type (0, 1), BuildingBlock: XUDNAN_clean_linker_2, # of connection points: 2
#     Edge 68, Type (0, 1), BuildingBlock: XUDNAN_clean_linker_2, # of connection points: 2
#     Edge 69, Type (0, 1), BuildingBlock: XUDNAN_clean_linker_2, # of connection points: 2
#     Edge 70, Type (0, 1), BuildingBlock: XUDNAN_clean_linker_2, # of connection points: 2
#     Edge 71, Type (0, 1), BuildingBlock: XUDNAN_clean_linker_2, # of connection points: 2
#     Edge 72, Type (0, 1), BuildingBlock: XUDNAN_clean_linker_2, # of connection points: 2
#     Edge 73, Type (0, 1), BuildingBlock: XUDNAN_clean_linker_2, # of connection points: 2
#     Edge 74, Type (0, 1), BuildingBlock: XUDNAN_clean_linker_2, # of connection points: 2
#     Edge 75, Type (0, 1), BuildingBlock: XUDNAN_clean_linker_2, # of connection points: 2
#     Edge 76, Type (0, 1), BuildingBlock: XUDNAN_clean_linker_2, # of connection points: 2
#     Edge 77, Type (0, 1), BuildingBlock: XUDNAN_clean_linker_2, # of connection points: 2
#     Edge 78, Type (0, 1), BuildingBlock: XUDNAN_clean_linker_2, # of connection points: 2
#     Edge 79, Type (0, 1), BuildingBlock: XUDNAN_clean_linker_2, # of connection points: 2
#     Edge 80, Type (0, 1), BuildingBlock: XUDNAN_clean_linker_2, # of connection points: 2
#     Edge 81, Type (0, 1), BuildingBlock: XUDNAN_clean_linker_2, # of connection points: 2
#     Edge 82, Type (0, 1), BuildingBlock: XUDNAN_clean_linker_2, # of connection points: 2
#     Edge 83, Type (0, 1), BuildingBlock: XUDNAN_clean_linker_2, # of connection points: 2
#     Edge 84, Type (0, 1), BuildingBlock: XUDNAN_clean_linker_2, # of connection points: 2
#     Edge 85, Type (0, 1), BuildingBlock: XUDNAN_clean_linker_2, # of connection points: 2
#     Edge 86, Type (0, 1), BuildingBlock: XUDNAN_clean_linker_2, # of connection points: 2
#     Edge 87, Type (0, 1), BuildingBlock: XUDNAN_clean_linker_2, # of connection points: 2
#     Edge 88, Type (0, 1), BuildingBlock: XUDNAN_clean_linker_2, # of connection points: 2
#     Edge 89, Type (0, 1), BuildingBlock: XUDNAN_clean_linker_2, # of connection points: 2
#     Edge 90, Type (0, 1), BuildingBlock: XUDNAN_clean_linker_2, # of connection points: 2
#     Edge 91, Type (0, 1), BuildingBlock: XUDNAN_clean_linker_2, # of connection points: 2
#     Edge 92, Type (0, 1), BuildingBlock: XUDNAN_clean_linker_2, # of connection points: 2
#     Edge 93, Type (0, 1), BuildingBlock: XUDNAN_clean_linker_2, # of connection points: 2
#     Edge 94, Type (0, 1), BuildingBlock: XUDNAN_clean_linker_2, # of connection points: 2
#     Edge 95, Type (0, 1), BuildingBlock: XUDNAN_clean_linker_2, # of connection points: 2
#     Edge 96, Type (0, 1), BuildingBlock: XUDNAN_clean_linker_2, # of connection points: 2
#     Edge 97, Type (0, 1), BuildingBlock: XUDNAN_clean_linker_2, # of connection points: 2
#     Edge 98, Type (0, 1), BuildingBlock: XUDNAN_clean_linker_2, # of connection points: 2
#     Edge 99, Type (0, 1), BuildingBlock: XUDNAN_clean_linker_2, # of connection points: 2
#     Edge 100, Type (0, 1), BuildingBlock: XUDNAN_clean_linker_2, # of connection points: 2
#     Edge 101, Type (0, 1), BuildingBlock: XUDNAN_clean_linker_2, # of connection points: 2
#     Edge 102, Type (0, 1), BuildingBlock: XUDNAN_clean_linker_2, # of connection points: 2
#     Edge 103, Type (0, 1), BuildingBlock: XUDNAN_clean_linker_2, # of connection points: 2
#     Edge 104, Type (0, 1), BuildingBlock: XUDNAN_clean_linker_2, # of connection points: 2
#     Edge 105, Type (0, 1), BuildingBlock: XUDNAN_clean_linker_2, # of connection points: 2
#     Edge 106, Type (0, 1), BuildingBlock: XUDNAN_clean_linker_2, # of connection points: 2
#     Edge 107, Type (0, 1), BuildingBlock: XUDNAN_clean_linker_2, # of connection points: 2
#     Edge 108, Type (0, 1), BuildingBlock: XUDNAN_clean_linker_2, # of connection points: 2
#     Edge 109, Type (0, 1), BuildingBlock: XUDNAN_clean_linker_2, # of connection points: 2
#     Edge 110, Type (0, 1), BuildingBlock: XUDNAN_clean_linker_2, # of connection points: 2
#     Edge 111, Type (0, 1), BuildingBlock: XUDNAN_clean_linker_2, # of connection points: 2
#     Edge 112, Type (0, 1), BuildingBlock: XUDNAN_clean_linker_2, # of connection points: 2
#     Edge 113, Type (0, 1), BuildingBlock: XUDNAN_clean_linker_2, # of connection points: 2
#     Edge 114, Type (0, 1), BuildingBlock: XUDNAN_clean_linker_2, # of connection points: 2
#     Edge 115, Type (0, 1), BuildingBlock: XUDNAN_clean_linker_2, # of connection points: 2
#     Edge 116, Type (0, 1), BuildingBlock: XUDNAN_clean_linker_2, # of connection points: 2
#     Edge 117, Type (0, 1), BuildingBlock: XUDNAN_clean_linker_2, # of connection points: 2
#     Edge 118, Type (0, 1), BuildingBlock: XUDNAN_clean_linker_2, # of connection points: 2
#     Edge 119, Type (0, 1), BuildingBlock: XUDNAN_clean_linker_2, # of connection points: 2
#     Edge 120, Type (0, 1), BuildingBlock: XUDNAN_clean_linker_2, # of connection points: 2
#     Edge 121, Type (0, 1), BuildingBlock: XUDNAN_clean_linker_2, # of connection points: 2
#     Edge 122, Type (0, 1), BuildingBlock: XUDNAN_clean_linker_2, # of connection points: 2
#     Edge 123, Type (0, 1), BuildingBlock: XUDNAN_clean_linker_2, # of connection points: 2
#     Edge 124, Type (0, 1), BuildingBlock: XUDNAN_clean_linker_2, # of connection points: 2
#     Edge 125, Type (0, 1), BuildingBlock: XUDNAN_clean_linker_2, # of connection points: 2
#     Edge 126, Type (0, 1), BuildingBlock: XUDNAN_clean_linker_2, # of connection points: 2
#     Edge 127, Type (0, 1), BuildingBlock: XUDNAN_clean_linker_2, # of connection points: 2
#     Edge 128, Type (0, 1), BuildingBlock: XUDNAN_clean_linker_2, # of connection points: 2
#     Edge 129, Type (0, 1), BuildingBlock: XUDNAN_clean_linker_2, # of connection points: 2
#     Edge 130, Type (0, 1), BuildingBlock: XUDNAN_clean_linker_2, # of connection points: 2
#     Edge 131, Type (0, 1), BuildingBlock: XUDNAN_clean_linker_2, # of connection points: 2
#     Edge 132, Type (0, 1), BuildingBlock: XUDNAN_clean_linker_2, # of connection points: 2
#     Edge 133, Type (0, 1), BuildingBlock: XUDNAN_clean_linker_2, # of connection points: 2
#     Edge 134, Type (0, 1), BuildingBlock: XUDNAN_clean_linker_2, # of connection points: 2
#     Edge 135, Type (0, 1), BuildingBlock: XUDNAN_clean_linker_2, # of connection points: 2
# Relax obj value: 0.191
# Max RMSD: 0.311
# Mean RMSD: 0.160
data_MOF--net-gar--node1-KUFVIS_clean_sbu_0--node2-BETFEN_clean_sbu_0--edge1-XUDNAN_clean_linker_2
_symmetry_space_group_name_H-M    P1
_symmetry_Int_Tables_number       1
_symmetry_cell_setting            triclinic
loop_
_symmetry_equiv_pos_as_xyz
'x, y, z'
_cell_length_a     62.840695
_cell_length_b     56.202186
_cell_length_c     57.633579
_cell_angle_alpha  94.303685
_cell_angle_beta   98.744351
_cell_angle_gamma 102.53322
loop_
_atom_site_label
_atom_site_type_symbol
_atom_site_fract_x
_atom_site_fract_y
_atom_site_fract_z
_atom_type_partial_charge
Mn0 Mn 0.03476 0.32034 0.43111 0.0
Mn1 Mn 0.0373 0.35312 0.38396 0.0
C2 C 1.00176 0.32756 0.40966 0.0
C3 C 0.03299 0.28053 0.44528 0.0
C4 C 0.04973 0.37747 0.43519 0.0
O5 O 0.06594 0.3207 0.42334 0.0
O6 O 0.06343 0.33855 0.38983 0.0
C7 C 0.03268 0.31199 0.34694 0.0
N8 N 0.02564 0.33168 0.35543 0.0
C9 C 0.99938 0.32887 0.31978 0.0
C10 C 1.00635 0.30859 0.31062 0.0
C11 C 0.02293 0.29997 0.32436 0.0
C12 C 1.00915 0.33956 0.34271 0.0
H13 H 0.04574 0.30562 0.35726 0.0
C14 C 0.07353 0.32739 0.40485 0.0
O15 O 0.04074 0.30084 0.45925 0.0
O16 O 0.02623 0.28344 0.42354 0.0
N17 N 1.01349 0.36867 0.37508 0.0
C18 C 1.00995 0.38972 0.38557 0.0
C19 C 0.99394 0.4008 0.37406 0.0
C20 C 0.9823 0.39071 0.35148 0.0
C21 C 0.98702 0.36983 0.34049 0.0
C22 C 1.00287 0.3593 0.35301 0.0
H23 H 0.01918 0.39798 0.40265 0.0
O24 O 1.00247 0.32072 0.43073 0.0
O25 O 0.0202 0.32949 0.40154 0.0
O26 O 0.04472 0.35786 0.44552 0.0
O27 O 0.04884 0.37664 0.41277 0.0
C28 C 0.97727 0.35965 0.31723 0.0
C29 C 0.98346 0.3392 0.30688 0.0
H30 H 0.99917 0.29957 0.29302 0.0
H31 H 0.02843 0.28435 0.31741 0.0
H32 H 0.99073 0.41722 0.38248 0.0
H33 H 0.97012 0.39945 0.34255 0.0
H34 H 0.96503 0.36746 0.3071 0.0
H35 H 0.97579 0.3315 0.28899 0.0
Mn36 Mn 0.09019 0.84001 0.64541 0.0
Mn37 Mn 0.10234 0.8813 0.69408 0.0
C38 C 0.12618 0.85041 0.66891 0.0
C39 C 0.07926 0.79744 0.62911 0.0
C40 C 0.09617 0.89649 0.64389 0.0
O41 O 0.05916 0.84065 0.65335 0.0
O42 O 0.06993 0.86721 0.68659 0.0
C43 C 0.08987 0.84768 0.7295 0.0
N44 N 0.1053 0.86488 0.72186 0.0
C45 C 0.1324 0.86456 0.75611 0.0
C46 C 0.11678 0.8469 0.76437 0.0
C47 C 0.09544 0.83839 0.75097 0.0
C48 C 0.12589 0.87315 0.73458 0.0
H49 H 0.07345 0.84108 0.71926 0.0
C50 C 0.05488 0.85255 0.67137 0.0
O51 O 0.07773 0.81503 0.61598 0.0
O52 O 0.08618 0.80457 0.65134 0.0
N53 N 0.13327 0.89585 0.7034 0.0
C54 C 0.14695 0.91125 0.69199 0.0
C55 C 0.16886 0.92157 0.70305 0.0
C56 C 0.17655 0.91568 0.72557 0.0
C57 C 0.16247 0.89896 0.73654 0.0
C58 C 0.14065 0.88971 0.7249 0.0
H59 H 0.14121 0.91553 0.67457 0.0
O60 O 0.12323 0.8417 0.64687 0.0
O61 O 0.10827 0.85365 0.67588 0.0
O62 O 0.09248 0.87483 0.63266 0.0
O63 O 0.10003 0.90016 0.66648 0.0
C64 C 0.16928 0.89094 0.75844 0.0
C65 C 0.15428 0.87366 0.76817 0.0
H66 H 0.12103 0.83962 0.78088 0.0
H67 H 0.08332 0.8247 0.75719 0.0
H68 H 0.1798 0.93404 0.69425 0.0
H69 H 0.19337 0.92393 0.73418 0.0
H70 H 0.1861 0.89768 0.76779 0.0
H71 H 0.15981 0.86734 0.78484 0.0
Mn72 Mn 0.52972 0.81963 0.93515 0.0
Mn73 Mn 0.53283 0.85361 0.88891 0.0
C74 C 0.4969 0.82748 0.9139 0.0
C75 C 0.52818 0.77952 0.94853 0.0
C76 C 0.54588 0.87652 0.94052 0.0
O77 O 0.56089 0.82025 0.92734 0.0
O78 O 0.55843 0.83803 0.89375 0.0
C79 C 0.52682 0.81341 0.85057 0.0
N80 N 0.52038 0.83313 0.85996 0.0
C81 C 0.49358 0.83179 0.82507 0.0
C82 C 0.49992 0.81149 0.81499 0.0
C83 C 0.51648 0.80213 0.82789 0.0
C84 C 0.50395 0.84175 0.84804 0.0
H85 H 0.53984 0.80646 0.86025 0.0
C86 C 0.56844 0.82678 0.90878 0.0
O87 O 0.53575 0.79962 0.96283 0.0
O88 O 0.52126 0.78277 0.92692 0.0
N89 N 0.5095 0.87015 0.88124 0.0
C90 C 0.50662 0.89112 0.89256 0.0
C91 C 0.4907 0.90288 0.88196 0.0
C92 C 0.47845 0.8935 0.85946 0.0
C93 C 0.48247 0.87265 0.84761 0.0
C94 C 0.49831 0.86148 0.85921 0.0
H95 H 0.51637 0.89888 0.90958 0.0
O96 O 0.49737 0.81999 0.93471 0.0
O97 O 0.51544 0.82965 0.90597 0.0
O98 O 0.53981 0.85677 0.95027 0.0
O99 O 0.54535 0.87631 0.91818 0.0
C100 C 0.47199 0.86309 0.8244 0.0
C101 C 0.47767 0.84279 0.81308 0.0
H102 H 0.49226 0.80302 0.79732 0.0
H103 H 0.52148 0.78648 0.82023 0.0
H104 H 0.48804 0.91927 0.89103 0.0
H105 H 0.46632 0.90274 0.85125 0.0
H106 H 0.45971 0.87137 0.81498 0.0
H107 H 0.46956 0.83567 0.79518 0.0
Mn108 Mn 0.59156 0.33822 0.14871 0.0
Mn109 Mn 0.54856 0.32836 0.10316 0.0
C110 C 0.57559 0.29787 0.13023 0.0
C111 C 0.6291 0.34714 0.16829 0.0
C112 C 0.54313 0.33786 0.15411 0.0
O113 O 0.59343 0.37309 0.13776 0.0
O114 O 0.56451 0.36388 0.10769 0.0
C115 C 0.57364 0.33843 0.06406 0.0
N116 N 0.5586 0.323 0.07398 0.0
C117 C 0.5487 0.29411 0.03896 0.0
C118 C 0.56409 0.30967 0.02834 0.0
C119 C 0.57675 0.33182 0.04104 0.0
C120 C 0.54678 0.30135 0.06217 0.0
H121 H 0.58302 0.35573 0.07355 0.0
C122 C 0.58078 0.37939 0.12071 0.0
O123 O 0.61317 0.35172 0.17829 0.0
O124 O 0.62367 0.33829 0.14611 0.0
N125 N 0.53153 0.29529 0.09619 0.0
C126 C 0.51781 0.2821 0.1092 0.0
C127 C 0.5047 0.25894 0.09946 0.0
C128 C 0.50529 0.24997 0.07621 0.0
C129 C 0.51918 0.26413 0.06301 0.0
C130 C 0.5324 0.2867 0.07391 0.0
H131 H 0.51693 0.28917 0.12689 0.0
O132 O 0.58622 0.30209 0.15183 0.0
O133 O 0.5744 0.31754 0.11977 0.0
O134 O 0.56354 0.34016 0.16225 0.0
O135 O 0.53542 0.33333 0.13204 0.0
C136 C 0.52021 0.25691 0.03935 0.0
C137 C 0.53502 0.27185 0.02735 0.0
H138 H 0.56629 0.30481 1.01046 0.0
H139 H 0.58863 0.34395 0.03296 0.0
H140 H 0.49394 0.24819 0.10973 0.0
H141 H 0.4949 0.23226 0.06863 0.0
H142 H 0.50995 0.23971 0.03032 0.0
H143 H 0.53593 0.26589 1.00928 0.0
Mn144 Mn 0.09921 0.84657 0.15078 0.0
Mn145 Mn 0.05497 0.83083 0.10654 0.0
C146 C 0.08662 0.80595 0.13298 0.0
C147 C 0.13737 0.85786 0.1672 0.0
C148 C 0.05058 0.84023 0.15773 0.0
O149 O 0.0972 0.88012 0.13881 0.0
O150 O 0.06686 0.86713 0.11045 0.0
C151 C 0.07863 0.84412 0.06697 0.0
N152 N 0.06543 0.82705 0.07732 0.0
C153 C 0.06291 0.79593 0.04531 0.0
C154 C 0.07638 0.81322 0.03426 0.0
C155 C 0.0843 0.83741 0.04517 0.0
C156 C 0.05777 0.80371 0.06701 0.0
H157 H 0.08483 0.86271 0.07531 0.0
C158 C 0.08249 0.88424 0.12241 0.0
O159 O 0.12234 0.86145 0.17926 0.0
O160 O 0.13039 0.84961 0.14504 0.0
N161 N 0.04201 0.79636 0.10057 0.0
C162 C 0.0298 0.78172 0.1139 0.0
C163 C 0.0206 0.75696 0.10546 0.0
C164 C 0.02402 0.74754 0.0834 0.0
C165 C 0.03675 0.76291 0.07007 0.0
C166 C 0.04521 0.78752 0.07922 0.0
H167 H 0.02707 0.7889 0.13083 0.0
O168 O 0.09744 0.8108 0.15446 0.0
O169 O 0.08293 0.82493 0.12284 0.0
O170 O 0.07136 0.84573 0.16533 0.0
O171 O 0.04229 0.83375 0.13593 0.0
C172 C 0.04148 0.75474 0.04813 0.0
C173 C 0.05462 0.77122 0.0358 0.0
H174 H 0.08086 0.80809 0.01748 0.0
H175 H 0.09478 0.85083 0.0368 0.0
H176 H 1.01087 0.74516 0.11589 0.0
H177 H 0.0168 0.72848 0.07686 0.0
H178 H 0.03525 0.73577 0.04068 0.0
H179 H 0.05833 0.76467 0.01906 0.0
Mn180 Mn 0.52114 0.80889 0.42538 0.0
Mn181 Mn 0.5182 0.83326 0.37295 0.0
C182 C 0.48628 0.80651 0.4013 0.0
C183 C 0.52731 0.77661 0.44871 0.0
C184 C 0.52605 0.86436 0.42049 0.0
O185 O 0.55314 0.8138 0.41863 0.0
O186 O 0.54798 0.82773 0.38323 0.0
C187 C 0.52345 0.79026 0.34325 0.0
N188 N 0.51203 0.8077 0.3474 0.0
C189 C 0.48703 0.79436 0.31049 0.0
C190 C 0.49855 0.77628 0.30577 0.0
C191 C 0.51677 0.77415 0.32228 0.0
C192 C 0.4943 0.80967 0.3318 0.0
H193 H 0.53757 0.78873 0.35581 0.0
C194 C 0.5602 0.82092 0.40002 0.0
O195 O 0.53115 0.79935 0.45751 0.0
O196 O 0.51908 0.7722 0.4263 0.0
N197 N 0.49061 0.83998 0.35969 0.0
C198 C 0.48116 0.85816 0.36707 0.0
C199 C 0.46348 0.86358 0.35212 0.0
C200 C 0.45514 0.84974 0.33003 0.0
C201 C 0.46507 0.83105 0.32281 0.0
C202 C 0.48325 0.82715 0.33809 0.0
H203 H 0.48718 0.86859 0.38413 0.0
O204 O 0.48775 0.80367 0.42363 0.0
O205 O 0.50497 0.80979 0.39355 0.0
O206 O 0.52532 0.84668 0.43341 0.0
O207 O 0.52407 0.86105 0.398 0.0
C208 C 0.45772 0.8162 0.30102 0.0
C209 C 0.46857 0.79771 0.29496 0.0
H210 H 0.49353 0.76391 0.28956 0.0
H211 H 0.52572 0.76023 0.31878 0.0
H212 H 0.45644 0.87857 0.35761 0.0
H213 H 0.4412 0.8537 0.31874 0.0
H214 H 0.44361 0.81868 0.28891 0.0
H215 H 0.46259 0.78619 0.2783 0.0
Mn216 Mn 0.59362 0.33785 0.64353 0.0
Mn217 Mn 0.54959 0.32235 0.59913 0.0
C218 C 0.58046 0.297 0.62628 0.0
C219 C 0.63175 0.34824 0.66037 0.0
C220 C 0.54493 0.33273 0.65006 0.0
O221 O 0.59245 0.37134 0.63087 0.0
O222 O 0.56182 0.3587 0.60284 0.0
C223 C 0.57371 0.33496 0.55974 0.0
N224 N 0.56028 0.31813 0.5701 0.0
C225 C 0.558 0.28659 0.53856 0.0
C226 C 0.57171 0.30363 0.5275 0.0
C227 C 0.57962 0.32791 0.53816 0.0
C228 C 0.55262 0.29471 0.56002 0.0
H229 H 0.57992 0.35362 0.5679 0.0
C230 C 0.57775 0.37566 0.61456 0.0
O231 O 0.61673 0.35272 0.67206 0.0
O232 O 0.62486 0.33973 0.63827 0.0
N233 N 0.53633 0.28794 0.59333 0.0
C234 C 0.5239 0.27356 0.60667 0.0
C235 C 0.51473 0.24872 0.59848 0.0
C236 C 0.51842 0.23897 0.57668 0.0
C237 C 0.53136 0.25409 0.56333 0.0
C238 C 0.53979 0.27877 0.57222 0.0
H239 H 0.521 0.28098 0.62343 0.0
O240 O 0.59104 0.30207 0.64785 0.0
O241 O 0.57725 0.31596 0.61575 0.0
O242 O 0.56571 0.33819 0.65774 0.0
O243 O 0.5367 0.32572 0.62833 0.0
C244 C 0.53635 0.24558 0.54164 0.0
C245 C 0.54972 0.26181 0.5293 0.0
H246 H 0.57638 0.29825 0.5109 0.0
H247 H 0.59028 0.34115 0.52979 0.0
H248 H 0.50484 0.23712 0.60893 0.0
H249 H 0.51126 0.21984 0.57036 0.0
H250 H 0.53016 0.22654 0.53439 0.0
H251 H 0.55363 0.255 0.51275 0.0
Mn252 Mn 0.02161 0.31359 0.92562 0.0
Mn253 Mn 0.022 0.3516 0.88214 0.0
C254 C 0.98779 0.31867 0.90425 0.0
C255 C 0.02456 0.27534 0.94001 0.0
C256 C 0.03088 0.3703 0.93437 0.0
O257 O 0.0533 0.31853 0.91859 0.0
O258 O 0.05049 0.34146 0.88853 0.0
C259 C 0.02448 0.31611 0.84259 0.0
N260 N 1.01432 0.33274 0.85188 0.0
C261 C 0.99124 0.3322 0.81446 0.0
C262 C 1.0014 0.31503 0.80447 0.0
C263 C 0.01792 0.30674 0.81867 0.0
C264 C 0.99781 0.34008 0.83862 0.0
H265 H 0.03765 0.31026 0.85329 0.0
C266 C 0.06126 0.32955 0.90212 0.0
O267 O 0.03001 0.29586 0.95365 0.0
O268 O 0.01684 0.27682 0.91802 0.0
N269 N 0.99598 0.3635 0.87303 0.0
C270 C 0.9886 0.38107 0.885 0.0
C271 C 0.97187 0.3911 0.87339 0.0
C272 C 0.96355 0.38378 0.8493 0.0
C273 C 0.97208 0.36653 0.83706 0.0
C274 C 0.98823 0.35655 0.84975 0.0
H275 H 0.99529 0.38728 0.90335 0.0
O276 O 0.98876 0.31025 0.9247 0.0
O277 O 1.00646 0.32329 0.8964 0.0
O278 O 0.02827 0.34921 0.94198 0.0
O279 O 0.02962 0.3731 0.91246 0.0
C280 C 0.96581 0.35956 0.81256 0.0
C281 C 0.97527 0.34227 0.80129 0.0
H282 H 0.99676 0.30822 0.78588 0.0
H283 H 0.02591 0.29355 0.81108 0.0
H284 H 0.96564 0.40471 0.8829 0.0
H285 H 0.95091 0.39188 0.84029 0.0
H286 H 0.95354 0.36718 0.80224 0.0
H287 H 0.97009 0.33682 0.78249 0.0
Mn288 Mn 0.47119 0.16733 0.31929 0.0
Mn289 Mn 0.42868 0.13696 0.34286 0.0
C290 C 0.45755 0.12553 0.30981 0.0
C291 C 0.48631 0.18583 0.28883 0.0
C292 C 0.47544 0.15333 0.37015 0.0
O293 O 0.45669 0.19507 0.32875 0.0
O294 O 0.42995 0.17263 0.34554 0.0
C295 C 0.39197 0.1464 0.30858 0.0
N296 N 0.40225 0.13029 0.31963 0.0
C297 C 0.37415 0.09585 0.29916 0.0
C298 C 0.36326 0.11208 0.28765 0.0
C299 C 0.37224 0.13746 0.29234 0.0
C300 C 0.3938 0.10583 0.31513 0.0
H301 H 0.39873 0.16592 0.31206 0.0
C302 C 0.43979 0.19288 0.33907 0.0
O303 O 0.49727 0.18947 0.31029 0.0
O304 O 0.46593 0.17347 0.2856 0.0
N305 N 0.42514 0.10211 0.34057 0.0
C306 C 0.43809 0.08883 0.35241 0.0
C307 C 0.43121 0.06316 0.34994 0.0
C308 C 0.4112 0.05138 0.33515 0.0
C309 C 0.39837 0.06536 0.3228 0.0
C310 C 0.40582 0.09092 0.32637 0.0
H311 H 0.45349 0.09775 0.36375 0.0
O312 O 0.47799 0.13536 0.30875 0.0
O313 O 0.44626 0.14016 0.31764 0.0
O314 O 0.48353 0.16453 0.35388 0.0
O315 O 0.45512 0.14218 0.36786 0.0
C316 C 0.37848 0.05492 0.30709 0.0
C317 C 0.36645 0.07015 0.29516 0.0
H318 H 0.34805 0.10526 0.27508 0.0
H319 H 0.36397 0.15011 0.28347 0.0
H320 H 0.44132 0.05246 0.35937 0.0
H321 H 0.40595 0.03155 0.33323 0.0
H322 H 0.37241 0.03519 0.30387 0.0
H323 H 0.35133 0.06191 0.28288 0.0
Mn324 Mn 0.27661 0.2298 0.52314 0.0
Mn325 Mn 0.26538 0.18345 0.47883 0.0
C326 C 0.23972 0.20758 0.50947 0.0
C327 C 0.28564 0.24658 0.56397 0.0
C328 C 0.2787 0.23718 0.47006 0.0
O329 O 0.3067 0.2203 0.52374 0.0
O330 O 0.29671 0.1882 0.4952 0.0
C331 C 0.26914 0.14132 0.50583 0.0
N332 N 0.25688 0.15244 0.49043 0.0
C333 C 0.22697 0.11645 0.48236 0.0
C334 C 0.23931 0.10455 0.49803 0.0
C335 C 0.2604 0.11713 0.50997 0.0
C336 C 0.23638 0.14068 0.47924 0.0
H337 H 0.28553 0.15074 0.5147 0.0
C338 C 0.31102 0.20232 0.51162 0.0
O339 O 0.29018 0.25948 0.54688 0.0
O340 O 0.27621 0.22359 0.55757 0.0
N341 N 0.23561 0.17675 0.46215 0.0
C342 C 0.22557 0.19115 0.44829 0.0
C343 C 0.2038 0.18184 0.43626 0.0
C344 C 0.19275 0.15772 0.43828 0.0
C345 C 0.20352 0.14319 0.45247 0.0
C346 C 0.22505 0.15362 0.4644 0.0
H347 H 0.23407 0.20962 0.44648 0.0
O348 O 0.24411 0.22997 0.51956 0.0
O349 O 0.25707 0.19923 0.50681 0.0
O350 O 0.27986 0.24568 0.49164 0.0
O351 O 0.27365 0.21414 0.46358 0.0
C352 C 0.19383 0.1187 0.45509 0.0
C353 C 0.20569 0.10522 0.46973 0.0
H354 H 0.23269 0.08582 0.50113 0.0
H355 H 0.27001 0.10809 0.52214 0.0
H356 H 0.19561 0.19317 0.42532 0.0
H357 H 0.17603 0.15053 0.42882 0.0
H358 H 0.17727 0.11003 0.44591 0.0
H359 H 0.19808 0.08639 0.47158 0.0
Mn360 Mn 0.1914 0.10638 0.85529 0.0
Mn361 Mn 0.22323 0.13103 0.9072 0.0
C362 C 0.20467 0.1484 0.86233 0.0
C363 C 0.18546 0.08797 0.81688 0.0
C364 C 0.17396 0.10851 0.90143 0.0
O365 O 0.20276 0.07796 0.86816 0.0
O366 O 0.22753 0.09725 0.90022 0.0
C367 C 0.26872 0.13439 0.89773 0.0
N368 N 0.2528 0.14563 0.90353 0.0
C369 C 0.27805 0.18527 0.9091 0.0
C370 C 0.2948 0.17407 0.90354 0.0
C371 C 0.29006 0.14854 0.89766 0.0
C372 C 0.25717 0.17019 0.90915 0.0
H373 H 0.26523 0.11475 0.89339 0.0
C374 C 0.21849 0.07833 0.8852 0.0
O375 O 0.17037 0.08412 0.83003 0.0
O376 O 0.20447 0.10247 0.82609 0.0
N377 N 0.22051 0.16392 0.9146 0.0
C378 C 0.20244 0.17191 0.91919 0.0
C379 C 0.2041 0.19715 0.92421 0.0
C380 C 0.22432 0.2139 0.92453 0.0
C381 C 0.2427 0.20525 0.91976 0.0
C382 C 0.24002 0.1799 0.91477 0.0
H383 H 0.18683 0.15914 0.91891 0.0
O384 O 0.18679 0.13902 0.84701 0.0
O385 O 0.21369 0.13276 0.87336 0.0
O386 O 0.1709 0.10559 0.8791 0.0
O387 O 0.1931 0.11682 0.91399 0.0
C388 C 0.26352 0.22081 0.91961 0.0
C389 C 0.28124 0.2108 0.9145 0.0
H390 H 0.31127 0.18494 0.90338 0.0
H391 H 0.30285 0.1398 0.89314 0.0
H392 H 0.18982 0.20368 0.9278 0.0
H393 H 0.22553 0.23336 0.92838 0.0
H394 H 0.2661 0.24049 0.92343 0.0
H395 H 0.2972 0.22294 0.91452 0.0
Mn396 Mn 0.33218 0.9404 0.04554 0.0
Mn397 Mn 0.33866 0.99288 0.01888 0.0
C398 C 0.36805 0.96397 0.04336 0.0
C399 C 0.32849 0.9193 0.08058 0.0
C400 C 0.32529 0.94189 0.99065 0.0
O401 O 0.30142 0.94936 0.04444 0.0
O402 O 0.30922 0.98472 0.02824 0.0
C403 C 0.33813 0.0273 0.06022 0.0
N404 N 0.34826 0.02069 0.04229 0.0
C405 C 0.37766 0.05708 0.05237 0.0
C406 C 0.3675 0.06433 0.07088 0.0
C407 C 0.3477 0.04932 0.07487 0.0
C408 C 0.36742 0.03486 0.03845 0.0
H409 H 0.32288 0.01587 0.06332 0.0
C410 C 0.29616 0.96889 0.03745 0.0
O411 O 0.32192 0.90838 0.05921 0.0
O412 O 0.3368 0.94268 0.08179 0.0
N413 N 0.36649 1.00382 1.00892 0.0
C414 C 0.37434 0.99402 0.99055 0.0
C415 C 0.39379 1.00702 0.98394 0.0
C416 C 0.40498 0.02993 0.99625 0.0
C417 C 0.39662 0.03963 0.01509 0.0
C418 C 0.37692 0.02608 0.02057 0.0
H419 H 0.36568 0.97658 0.98082 0.0
O420 O 0.36494 0.941 0.0468 0.0
O421 O 0.35029 0.97242 0.04147 0.0
O422 O 0.32559 0.92937 1.00853 0.0
O423 O 0.32931 0.96534 0.99325 0.0
C424 C 0.40705 0.06224 0.0286 0.0
C425 C 0.39765 0.07088 0.04733 0.0
H426 H 0.37481 0.08132 0.0822 0.0
H427 H 0.33978 0.05476 0.08916 0.0
H428 H 0.4001 0.99944 0.96931 0.0
H429 H 0.41998 0.03994 0.9911 0.0
H430 H 0.42241 0.07302 0.02487 0.0
H431 H 0.40595 0.08814 0.05778 0.0
Mn432 Mn 0.33826 0.42575 0.0578 0.0
Mn433 Mn 0.34276 0.47202 0.02224 0.0
C434 C 0.37385 0.44856 0.0528 0.0
C435 C 0.33372 0.41012 0.09549 0.0
C436 C 0.33135 0.41814 1.00241 0.0
O437 O 0.30735 0.43372 0.05439 0.0
O438 O 0.31318 0.46462 0.03184 0.0
C439 C 0.3399 0.5122 0.05707 0.0
N440 N 0.35069 0.50315 0.04091 0.0
C441 C 0.37472 0.54278 0.04098 0.0
C442 C 0.36393 0.55255 0.05767 0.0
C443 C 0.34662 0.53712 0.06597 0.0
C444 C 0.36793 0.51761 0.03355 0.0
H445 H 0.32608 0.50057 0.06285 0.0
C446 C 0.30096 0.45077 0.04363 0.0
O447 O 0.32784 0.39625 0.07552 0.0
O448 O 0.34242 0.43296 0.09366 0.0
N449 N 0.37014 0.4823 0.01115 0.0
C450 C 0.37873 0.47008 0.9949 0.0
C451 C 0.39662 0.48272 0.98535 0.0
C452 C 0.40488 0.50802 0.99181 0.0
C453 C 0.39532 0.52037 1.00798 0.0
C454 C 0.37813 0.50661 0.01764 0.0
H455 H 0.37217 0.45076 0.98951 0.0
O456 O 0.37107 0.42688 0.05995 0.0
O457 O 0.35586 0.45663 0.04896 0.0
O458 O 0.33162 0.40938 0.02245 0.0
O459 O 0.33498 0.44113 1.00075 0.0
C460 C 0.40172 0.54592 0.01433 0.0
C461 C 0.39155 0.5571 0.03098 0.0
H462 H 0.3687 0.57189 0.06412 0.0
H463 H 0.33815 0.54453 0.07877 0.0
H464 H 0.40377 0.47306 0.97274 0.0
H465 H 0.41839 0.51781 0.98405 0.0
H466 H 0.41472 0.55711 1.00686 0.0
H467 H 0.39691 0.5767 0.03607 0.0
Mn468 Mn 0.79248 0.24135 0.03598 0.0
Mn469 Mn 0.77758 0.19271 0.99355 0.0
C470 C 0.75536 0.21783 0.02668 0.0
C471 C 0.80495 0.26003 0.07628 0.0
C472 C 0.78898 0.24555 0.98165 0.0
O473 O 0.82227 0.23135 0.0336 0.0
O474 O 0.8094 0.19761 1.00707 0.0
C475 C 0.78314 0.15279 0.02307 0.0
N476 N 0.77002 0.16292 1.00759 0.0
C477 C 0.73881 0.1291 1.00659 0.0
C478 C 0.75199 0.11831 0.02251 0.0
C479 C 0.77424 0.13023 0.03081 0.0
C480 C 0.74858 0.15164 0.99956 0.0
H481 H 0.80024 0.16187 0.02951 0.0
C482 C 0.82506 0.21221 0.0217 0.0
O483 O 0.80754 0.27201 0.05815 0.0
O484 O 0.79564 0.23685 0.07121 0.0
N485 N 0.74693 0.18591 0.97968 0.0
C486 C 0.73624 0.19923 0.96512 0.0
C487 C 0.71394 0.18973 0.95503 0.0
C488 C 0.70287 0.16668 0.96 0.0
C489 C 0.71407 0.15352 0.97542 0.0
C490 C 0.7364 0.16373 0.98464 0.0
H491 H 0.74472 0.21684 0.961 0.0
O492 O 0.75978 0.24051 0.03604 0.0
O493 O 0.77256 0.21046 0.02211 0.0
O494 O 0.79177 0.25536 1.0031 0.0
O495 O 0.78445 0.22229 0.97646 0.0
C496 C 0.70396 0.1307 0.98201 0.0
C497 C 0.71629 0.11857 0.99771 0.0
H498 H 0.74517 0.10094 0.02857 0.0
H499 H 0.7845 0.12205 0.04315 0.0
H500 H 0.70534 0.20007 0.9433 0.0
H501 H 0.68575 0.1593 0.95191 0.0
H502 H 0.68667 0.12241 0.97528 0.0
H503 H 0.70826 0.10119 1.00289 0.0
Mn504 Mn 0.15051 0.48581 0.23917 0.0
Mn505 Mn 0.19196 0.49743 0.28661 0.0
C506 C 0.16958 0.52547 0.25356 0.0
C507 C 0.13641 0.4813 0.19874 0.0
C508 C 0.14345 0.48346 0.29053 0.0
O509 O 0.15909 0.45253 0.24007 0.0
O510 O 0.18649 0.46332 0.27208 0.0
C511 C 0.22922 0.4927 0.26197 0.0
N512 N 0.2201 0.50604 0.27673 0.0
C513 C 0.25284 0.53893 0.28398 0.0
C514 C 0.26262 0.52545 0.26897 0.0
C515 C 0.25071 0.50229 0.25784 0.0
C516 C 0.23137 0.52843 0.28743 0.0
H517 H 0.22014 0.47494 0.25338 0.0
C518 C 0.17455 0.44793 0.2551 0.0
O519 O 0.12399 0.47353 0.21393 0.0
O520 O 0.15744 0.4892 0.20674 0.0
N521 N 0.19915 0.53024 0.30204 0.0
C522 C 0.18676 0.54166 0.31457 0.0
C523 C 0.19607 0.56526 0.32636 0.0
C524 C 0.218 0.57686 0.32519 0.0
C525 C 0.23036 0.56483 0.31206 0.0
C526 C 0.22031 0.54119 0.30093 0.0
H527 H 0.16992 0.53285 0.31555 0.0
O528 O 0.14956 0.52136 0.24192 0.0
O529 O 0.17754 0.50642 0.25712 0.0
O530 O 0.13595 0.48074 0.26845 0.0
O531 O 0.16406 0.48953 0.29907 0.0
C532 C 0.25215 0.57553 0.30929 0.0
C533 C 0.26336 0.56262 0.29519 0.0
H534 H 0.27916 0.53282 0.26565 0.0
H535 H 0.25809 0.49188 0.24608 0.0
H536 H 0.18636 0.57451 0.33632 0.0
H537 H 0.22512 0.59509 0.33426 0.0
H538 H 0.2603 0.59385 0.31759 0.0
H539 H 0.27995 0.57122 0.29284 0.0
Mn540 Mn 0.83954 0.92411 0.56318 0.0
Mn541 Mn 0.84417 0.97396 0.53207 0.0
C542 C 0.87512 0.95011 0.56177 0.0
C543 C 0.83273 0.90214 0.59732 0.0
C544 C 0.83483 0.9217 0.50812 0.0
O545 O 0.80776 0.93045 0.55874 0.0
O546 O 0.81408 0.9643 0.53993 0.0
C547 C 0.8394 0.01023 0.56986 0.0
N548 N 0.85087 1.00346 0.55324 0.0
C549 C 0.87701 0.04256 0.56065 0.0
C550 C 0.8654 0.05002 0.57774 0.0
C551 C 0.84658 0.03373 0.58244 0.0
C552 C 0.86915 0.01886 0.54881 0.0
H553 H 0.82489 0.99781 0.57346 0.0
C554 C 0.80142 0.94849 0.54962 0.0
O555 O 0.82899 0.89186 0.5758 0.0
O556 O 0.84101 0.92572 0.59955 0.0
N557 N 0.87226 0.98625 0.52318 0.0
C558 C 0.88203 0.97588 0.50683 0.0
C559 C 0.9009 0.98981 0.49988 0.0
C560 C 0.90966 0.01419 0.50995 0.0
C561 C 0.89936 0.02447 0.52678 0.0
C562 C 0.8803 0.00986 0.53263 0.0
H563 H 0.87539 0.95719 0.499 0.0
O564 O 0.87321 0.92772 0.56703 0.0
O565 O 0.85643 0.95672 0.55785 0.0
O566 O 0.8352 0.91148 0.5273 0.0
O567 O 0.83768 0.94488 0.50799 0.0
C568 C 0.9073 0.04859 0.53807 0.0
C569 C 0.89622 0.05758 0.55511 0.0
H570 H 0.87086 0.06815 0.58745 0.0
H571 H 0.83758 0.03932 0.59566 0.0
H572 H 0.90864 0.98176 0.48674 0.0
H573 H 0.92435 0.02483 0.5047 0.0
H574 H 0.92209 0.06027 0.53401 0.0
H575 H 0.90268 0.07602 0.56395 0.0
Mn576 Mn 0.92127 0.05063 0.2101 0.0
Mn577 Mn 0.86793 0.03726 0.21922 0.0
C578 C 0.90404 0.01008 0.2135 0.0
C579 C 0.94811 0.06199 0.18643 0.0
C580 C 0.90677 0.05589 0.25871 0.0
O581 O 0.91161 0.0823 0.20438 0.0
O582 O 0.87676 0.0706 0.21021 0.0
C583 C 0.84943 0.03709 0.16884 0.0
N584 N 0.84997 0.02586 0.18899 0.0
C585 C 0.81935 0.99296 0.17084 0.0
C586 C 0.81841 1.00415 0.14988 0.0
C587 C 0.83366 0.02621 0.14881 0.0
C588 C 0.83604 1.00414 0.18989 0.0
H589 H 0.86087 0.05428 0.1681 0.0
C590 C 0.89267 0.08645 0.20517 0.0
O591 O 0.95185 0.06836 0.20896 0.0
O592 O 0.92886 0.0478 0.17738 0.0
N593 N 0.85486 1.00615 0.22836 0.0
C594 C 0.85582 0.99979 0.25081 0.0
C595 C 0.84073 0.97913 0.25549 0.0
C596 C 0.82397 0.96593 0.23735 0.0
C597 C 0.8224 0.97359 0.21467 0.0
C598 C 0.83821 0.99404 0.21094 0.0
H599 H 0.86788 0.0106 0.26518 0.0
O600 O 0.92532 0.01703 0.21487 0.0
O601 O 0.89289 0.02649 0.20762 0.0
O602 O 0.92144 0.05783 0.24543 0.0
O603 O 0.88599 0.04835 0.25098 0.0
C604 C 0.80522 0.96223 0.19586 0.0
C605 C 0.80398 0.9716 0.17381 0.0
H606 H 0.80591 0.99611 0.13459 0.0
H607 H 0.83303 0.035 0.13272 0.0
H608 H 0.84175 0.9737 0.27318 0.0
H609 H 0.81211 0.95024 0.24113 0.0
H610 H 0.79282 0.94631 0.19821 0.0
H611 H 0.79076 0.96266 0.15947 0.0
Mn612 Mn 0.29239 0.73753 0.53598 0.0
Mn613 Mn 0.27839 0.69088 0.49147 0.0
C614 C 0.2552 0.71441 0.52452 0.0
C615 C 0.30238 0.75177 0.5779 0.0
C616 C 0.2907 0.74464 0.48228 0.0
O617 O 0.32238 0.7279 0.53389 0.0
O618 O 0.30993 0.6954 0.50583 0.0
C619 C 0.283 0.64941 0.51918 0.0
N620 N 0.2703 0.66026 0.50397 0.0
C621 C 0.23883 0.62631 0.50106 0.0
C622 C 0.25158 0.61476 0.51667 0.0
C623 C 0.27374 0.62639 0.52579 0.0
C624 C 0.24894 0.64926 0.49513 0.0
H625 H 0.30003 0.65827 0.52626 0.0
C626 C 0.32536 0.70935 0.52122 0.0
O627 O 0.3061 0.76637 0.56179 0.0
O628 O 0.29385 0.72904 0.56973 0.0
N629 N 0.24801 0.68457 0.47672 0.0
C630 C 0.23773 0.69862 0.46266 0.0
C631 C 0.21552 0.68958 0.45197 0.0
C632 C 0.20414 0.66621 0.45583 0.0
C633 C 0.21494 0.65225 0.47071 0.0
C634 C 0.23718 0.66206 0.48058 0.0
H635 H 0.24644 0.71651 0.45943 0.0
O636 O 0.25952 0.73657 0.53507 0.0
O637 O 0.27258 0.70738 0.52007 0.0
O638 O 0.29312 0.75378 0.50401 0.0
O639 O 0.28588 0.72149 0.47626 0.0
C640 C 0.20449 0.62903 0.47618 0.0
C641 C 0.21639 0.61613 0.49145 0.0
H642 H 0.24448 0.59705 0.52188 0.0
H643 H 0.28367 0.61762 0.5379 0.0
H644 H 0.20723 0.70052 0.44065 0.0
H645 H 0.18708 0.65922 0.44733 0.0
H646 H 0.18726 0.62103 0.46891 0.0
H647 H 0.20811 0.59845 0.49577 0.0
Mn648 Mn 0.4171 0.5429 0.70256 0.0
Mn649 Mn 0.37252 0.531 0.73059 0.0
C650 C 0.40328 0.50301 0.71077 0.0
C651 C 0.43509 0.55224 0.67067 0.0
C652 C 0.41895 0.55414 0.75576 0.0
O653 O 0.40505 0.5736 0.69978 0.0
O654 O 0.37511 0.56233 0.71667 0.0
C655 C 0.33775 0.5245 0.68835 0.0
N656 N 0.34649 0.51601 0.70829 0.0
C657 C 0.31326 0.48481 0.70672 0.0
C658 C 0.3039 0.49308 0.68607 0.0
C659 C 0.31632 0.5128 0.67666 0.0
C660 C 0.33514 0.49629 0.7168 0.0
H661 H 0.34694 0.5403 0.68167 0.0
C662 C 0.38743 0.57741 0.70608 0.0
O663 O 0.44415 0.56014 0.69224 0.0
O664 O 0.41535 0.53777 0.66708 0.0
N665 N 0.36648 0.50173 0.7458 0.0
C666 C 0.377 0.49748 0.76705 0.0
C667 C 0.36684 0.47838 0.7789 0.0
C668 C 0.34534 0.46478 0.76958 0.0
C669 C 0.3342 0.47045 0.74852 0.0
C670 C 0.34559 0.48891 0.73688 0.0
H671 H 0.39311 0.50856 0.77492 0.0
O672 O 0.42316 0.50985 0.70614 0.0
O673 O 0.3912 0.51923 0.70921 0.0
O674 O 0.4278 0.55324 0.73746 0.0
O675 O 0.39828 0.5463 0.75554 0.0
C676 C 0.31187 0.45928 0.73922 0.0
C677 C 0.30149 0.46625 0.71816 0.0
H678 H 0.2871 0.48464 0.67746 0.0
H679 H 0.30917 0.51941 0.66083 0.0
H680 H 0.37537 0.47455 0.79547 0.0
H681 H 0.33734 0.45045 0.77907 0.0
H682 H 0.30262 0.44513 0.74797 0.0
H683 H 0.28442 0.45733 0.71101 0.0
Mn684 Mn 0.64848 0.98504 0.73744 0.0
Mn685 Mn 0.69356 1.00189 0.78074 0.0
C686 C 0.66685 0.02566 0.74756 0.0
C687 C 0.63055 0.97722 0.69812 0.0
C688 C 0.64686 0.98779 0.79061 0.0
O689 O 0.65868 0.95271 0.73944 0.0
O690 O 0.68749 0.96665 0.76964 0.0
C691 C 0.72738 0.99383 0.75219 0.0
N692 N 0.71974 1.00886 0.7669 0.0
C693 C 0.75171 0.04171 0.7677 0.0
C694 C 0.75995 0.02651 0.75266 0.0
C695 C 0.74768 1.00249 0.74481 0.0
C696 C 0.73136 0.03206 0.77443 0.0
H697 H 0.71804 0.97541 0.74611 0.0
C698 C 0.67504 0.94975 0.75431 0.0
O699 O 0.62038 0.96985 0.71518 0.0
O700 O 0.65168 0.98653 0.7036 0.0
N701 N 0.70155 0.0359 0.79277 0.0
C702 C 0.69077 0.04864 0.80618 0.0
C703 C 0.70083 0.07298 0.81545 0.0
C704 C 0.7218 0.08401 0.81076 0.0
C705 C 0.73245 0.07066 0.79668 0.0
C706 C 0.72181 0.04631 0.78829 0.0
H707 H 0.67466 0.04028 0.80983 0.0
O708 O 0.64601 0.02011 0.73835 0.0
O709 O 0.67594 1.0075 0.7516 0.0
O710 O 0.6375 0.98186 0.76909 0.0
O711 O 0.66771 0.9959 0.79692 0.0
C712 C 0.75314 0.08063 0.79051 0.0
C713 C 0.76272 0.0662 0.77593 0.0
H714 H 0.77557 0.03315 0.74689 0.0
H715 H 0.75386 0.99069 0.7331 0.0
H716 H 0.69242 0.08324 0.82618 0.0
H717 H 0.72951 0.10282 0.81791 0.0
H718 H 0.76168 0.09947 0.79662 0.0
H719 H 0.77847 0.07417 0.77101 0.0
Mn720 Mn 0.78049 0.73347 0.02867 0.0
Mn721 Mn 0.76876 0.68666 0.98476 0.0
C722 C 0.74349 0.71139 0.01546 0.0
C723 C 0.78992 0.75044 0.06945 0.0
C724 C 0.78184 0.74022 0.97534 0.0
O725 O 0.81051 0.72392 0.02901 0.0
O726 O 0.8003 0.6916 1.00073 0.0
C727 C 0.77306 0.64492 0.01213 0.0
N728 N 0.76059 0.65579 0.99671 0.0
C729 C 0.73105 0.61944 0.98873 0.0
C730 C 0.74362 0.60779 1.00442 0.0
C731 C 0.76462 0.62067 0.01635 0.0
C732 C 0.74015 0.64376 0.98558 0.0
H733 H 0.78939 0.65457 0.02098 0.0
C734 C 0.81474 0.70588 0.01692 0.0
O735 O 0.79434 0.76325 0.05227 0.0
O736 O 0.78038 0.72746 0.06317 0.0
N737 N 0.73886 0.6797 0.96845 0.0
C738 C 0.72852 0.69395 0.95469 0.0
C739 C 0.70673 0.68439 0.94282 0.0
C740 C 0.69599 0.66015 0.94485 0.0
C741 C 0.70706 0.64578 0.95893 0.0
C742 C 0.72856 0.65649 0.97077 0.0
H743 H 0.7368 0.71249 0.95286 0.0
O744 O 0.74809 0.73386 0.02539 0.0
O745 O 0.76071 0.7028 0.01273 0.0
O746 O 0.78344 0.74903 0.99693 0.0
O747 O 0.77664 0.71713 0.96912 0.0
C748 C 0.6977 0.62118 0.96153 0.0
C749 C 0.70984 0.60791 0.97613 0.0
H750 H 0.73724 0.58902 1.00755 0.0
H751 H 0.7744 0.61183 0.02853 0.0
H752 H 0.69831 0.6956 0.93197 0.0
H753 H 0.67926 0.65275 0.93547 0.0
H754 H 0.68118 0.61229 0.9524 0.0
H755 H 0.70245 0.58902 0.97803 0.0
Mn756 Mn 0.96864 0.65906 0.82256 0.0
Mn757 Mn 0.93092 0.62273 0.84824 0.0
C758 C 0.9686 0.61811 0.8238 0.0
C759 C 0.98053 0.6746 0.78914 0.0
C760 C 0.97302 0.65606 0.876 0.0
O761 O 0.94553 0.67958 0.82386 0.0
O762 O 0.92235 0.65387 0.8418 0.0
C763 C 0.89298 0.61283 0.80864 0.0
N764 N 0.90722 0.60441 0.82447 0.0
C765 C 0.88619 0.56281 0.81378 0.0
C766 C 0.87128 0.57105 0.79743 0.0
C767 C 0.87483 0.59615 0.79468 0.0
C768 C 0.90439 0.5802 0.82665 0.0
H769 H 0.8953 0.63215 0.80682 0.0
C770 C 0.92769 0.6737 0.83229 0.0
O771 O 0.98946 0.68537 0.81021 0.0
O772 O 0.96351 0.65645 0.78762 0.0
N773 N 0.9363 0.5915 0.85518 0.0
C774 C 0.95138 0.58653 0.87267 0.0
C775 C 0.9505 0.56214 0.87712 0.0
C776 C 0.93373 0.54313 0.86404 0.0
C777 C 0.91788 0.54871 0.84675 0.0
C778 C 0.91985 0.57334 0.84279 0.0
H779 H 0.96425 0.60099 0.88288 0.0
O780 O 0.98627 0.63372 0.8212 0.0
O781 O 0.95112 0.62664 0.82525 0.0
O782 O 0.97983 0.66624 0.85852 0.0
O783 O 0.95482 0.64004 0.87395 0.0
C784 C 0.89975 0.53089 0.83393 0.0
C785 C 0.88376 0.53798 0.81769 0.0
H786 H 0.85708 0.55827 0.78687 0.0
H787 H 0.86341 0.60266 0.78209 0.0
H788 H 0.96267 0.55803 0.89069 0.0
H789 H 0.93297 0.52435 0.86767 0.0
H790 H 0.89778 0.51174 0.83669 0.0
H791 H 0.86977 0.52419 0.80808 0.0
Mn792 Mn 0.83289 0.43879 0.54698 0.0
Mn793 Mn 0.83721 0.49117 0.52046 0.0
C794 C 0.86804 0.46344 0.54451 0.0
C795 C 0.83017 0.41833 0.58227 0.0
C796 C 0.8257 0.44027 0.49213 0.0
O797 O 0.80179 0.44614 0.54613 0.0
O798 O 0.8076 0.48138 0.52945 0.0
C799 C 0.83504 0.52458 0.56188 0.0
N800 N 0.84562 0.51888 0.54401 0.0
C801 C 0.87385 0.55624 0.55463 0.0
C802 C 0.8632 0.56257 0.57306 0.0
C803 C 0.84375 0.54662 0.57675 0.0
C804 C 0.86443 0.53399 0.54044 0.0
H805 H 0.82007 0.5124 0.56476 0.0
C806 C 0.79535 0.46488 0.53881 0.0
O807 O 0.82388 0.40681 0.56109 0.0
O808 O 0.83773 0.44178 0.58307 0.0
N809 N 0.86497 0.50367 0.51087 0.0
C810 C 0.87376 0.49438 0.49303 0.0
C811 C 0.89297 0.50829 0.48672 0.0
C812 C 0.90323 0.53142 0.49913 0.0
C813 C 0.89405 0.54049 0.51763 0.0
C814 C 0.87449 0.52611 0.52265 0.0
H815 H 0.86626 0.47646 0.48374 0.0
O816 O 0.86569 0.44053 0.54796 0.0
O817 O 0.84994 0.47127 0.54287 0.0
O818 O 0.82625 0.42764 0.50994 0.0
O819 O 0.82909 0.46369 0.49484 0.0
C820 C 0.90362 0.56317 0.53138 0.0
C821 C 0.8936 0.57098 0.54996 0.0
H822 H 0.86987 0.57955 0.58457 0.0
H823 H 0.83548 0.55133 0.59099 0.0
H824 H 0.8999 0.50113 0.47238 0.0
H825 H 0.91821 0.54199 0.4944 0.0
H826 H 0.91884 0.57461 0.52801 0.0
H827 H 0.90127 0.58829 0.56062 0.0
Mn828 Mn 0.69646 0.61247 0.35776 0.0
Mn829 Mn 0.72991 0.63115 0.40989 0.0
C830 C 0.71108 0.6539 0.36859 0.0
C831 C 0.69082 0.59864 0.31797 0.0
C832 C 0.6804 0.60928 0.40428 0.0
O833 O 0.70625 0.58207 0.36719 0.0
O834 O 0.73327 0.5977 0.39869 0.0
C835 C 0.77492 0.63572 0.39855 0.0
N836 N 0.75944 0.64629 0.40649 0.0
C837 C 0.78543 0.68543 0.41582 0.0
C838 C 0.80178 0.67478 0.40829 0.0
C839 C 0.79643 0.64987 0.3994 0.0
C840 C 0.76439 0.6703 0.41493 0.0
H841 H 0.77091 0.61661 0.39177 0.0
C842 C 0.72226 0.58015 0.38291 0.0
O843 O 0.67519 0.59355 0.33041 0.0
O844 O 0.71 0.61144 0.32881 0.0
N845 N 0.72796 0.66342 0.42121 0.0
C846 C 0.71018 0.671 0.42731 0.0
C847 C 0.71237 0.69581 0.43516 0.0
C848 C 0.73281 0.71256 0.4367 0.0
C849 C 0.75085 0.70437 0.43024 0.0
C850 C 0.74764 0.67944 0.42243 0.0
H851 H 0.69439 0.65827 0.42602 0.0
O852 O 0.69296 0.64637 0.35322 0.0
O853 O 0.71959 0.63673 0.37741 0.0
O854 O 0.67628 0.60928 0.38207 0.0
O855 O 0.69989 0.61619 0.41637 0.0
C856 C 0.77183 0.71999 0.43105 0.0
C857 C 0.78917 0.71048 0.42405 0.0
H858 H 0.81837 0.68568 0.4088 0.0
H859 H 0.80887 0.64159 0.39324 0.0
H860 H 0.69833 0.70201 0.43999 0.0
H861 H 0.73443 0.73169 0.44275 0.0
H862 H 0.77482 0.73935 0.43705 0.0
H863 H 0.80526 0.72266 0.42482 0.0
Pr864 Pr 0.03302 0.07402 0.03197 0.0
Pr865 Pr 0.08536 0.0984 0.04928 0.0
C866 C 0.98914 0.07203 0.02846 0.0
C867 C 0.9748 0.09015 0.02935 0.0
C868 C 0.97535 0.10488 0.05044 0.0
C869 C 0.96154 0.12141 0.05135 0.0
C870 C 0.94668 0.12389 0.0312 0.0
C871 C 0.94617 0.10914 1.0101 0.0
C872 C 0.95998 0.09252 1.00921 0.0
C873 C 0.06041 0.06648 0.99998 0.0
C874 C 0.0555 0.13337 0.02282 0.0
C875 C 0.12979 0.10222 0.05649 0.0
C876 C 0.14478 0.08506 0.05479 0.0
C877 C 0.13635 0.05984 0.04768 0.0
C878 C 0.15061 0.04377 0.04662 0.0
C879 C 0.17379 0.05249 0.05234 0.0
C880 C 0.18216 0.07788 0.05905 0.0
C881 C 0.16785 0.09388 0.06033 0.0
C882 C 0.05729 0.1033 0.08158 0.0
C883 C 0.06345 0.03796 0.05448 0.0
O884 O 1.00199 0.07045 0.04809 0.0
O885 O 0.99866 0.06998 1.00991 0.0
O886 O 0.06266 0.0857 0.01377 0.0
O887 O 0.04144 0.05116 0.99995 0.0
O888 O 0.07617 0.13136 0.02961 0.0
O889 O 0.03821 0.11596 0.02528 0.0
O890 O 0.11847 0.10611 0.03672 0.0
O891 O 0.11806 0.10017 0.07346 0.0
O892 O 0.05615 0.08498 0.06723 0.0
O893 O 0.07489 0.12049 0.08092 0.0
O894 O 0.04264 0.04022 0.04972 0.0
O895 O 0.08025 0.05561 0.05129 0.0
H896 H 0.9864 0.1036 0.06643 0.0
H897 H 0.96229 0.13197 0.06808 0.0
H898 H 0.93526 0.11058 0.99408 0.0
H899 H 0.95903 0.08147 0.9927 0.0
H900 H 0.1187 0.05249 0.04285 0.0
H901 H 0.14343 0.0245 0.04098 0.0
H902 H 0.19982 0.08539 0.06379 0.0
H903 H 0.17486 0.11323 0.06578 0.0
Pr904 Pr 0.32173 0.8598 0.29383 0.0
Pr905 Pr 0.30578 0.81029 0.27355 0.0
C906 C 0.3482 0.90433 0.30789 0.0
C907 C 0.35771 0.92527 0.29583 0.0
C908 C 0.35108 0.94737 0.29896 0.0
C909 C 0.3603 0.96748 0.28804 0.0
C910 C 0.37646 0.96586 0.27398 0.0
C911 C 0.3829 0.9437 0.27053 0.0
C912 C 0.3735 0.92349 0.28125 0.0
C913 C 0.27788 0.85141 0.26917 0.0
C914 C 0.32444 0.84843 0.23586 0.0
C915 C 0.2781 0.76707 0.25696 0.0
C916 C 0.26904 0.74328 0.26437 0.0
C917 C 0.28207 0.73188 0.27985 0.0
C918 C 0.27356 0.70808 0.28469 0.0
C919 C 0.25192 0.69565 0.27427 0.0
C920 C 0.23853 0.70779 0.26004 0.0
C921 C 0.24709 0.73146 0.25508 0.0
C922 C 0.35006 0.81704 0.29467 0.0
C923 C 0.30359 0.82212 0.3317 0.0
O924 O 0.35562 0.88453 0.30461 0.0
O925 O 0.32684 0.89979 0.3078 0.0
O926 O 0.29374 0.84386 0.26285 0.0
O927 O 0.28428 0.86414 0.28989 0.0
O928 O 0.31316 0.82615 0.23795 0.0
O929 O 0.3314 0.86444 0.25508 0.0
O930 O 0.2715 0.78565 0.2661 0.0
O931 O 0.29907 0.77205 0.25499 0.0
O932 O 0.33575 0.82589 0.3036 0.0
O933 O 0.34154 0.805 0.27398 0.0
O934 O 0.31345 0.84492 0.32948 0.0
O935 O 0.29776 0.80569 0.31275 0.0
H936 H 0.339 0.94921 0.31014 0.0
H937 H 0.35541 0.98459 0.29133 0.0
H938 H 0.3954 0.94214 0.25984 0.0
H939 H 0.37889 0.90663 0.27833 0.0
H940 H 0.29898 0.74101 0.2875 0.0
H941 H 0.28409 0.69906 0.29584 0.0
H942 H 0.2219 0.69848 0.25156 0.0
H943 H 0.23683 0.7402 0.24326 0.0
Pr944 Pr 0.58144 0.07499 0.53956 0.0
Pr945 Pr 0.53074 0.07418 0.53864 0.0
C946 C 0.62262 0.06611 0.54393 0.0
C947 C 0.63694 0.04805 0.54381 0.0
C948 C 0.6539 0.05133 0.53023 0.0
C949 C 0.66905 0.03622 0.53131 0.0
C950 C 0.66801 0.01743 0.54634 0.0
C951 C 0.65054 0.01378 0.5595 0.0
C952 C 0.63515 0.02876 0.55811 0.0
C953 C 0.56257 0.09996 0.50466 0.0
C954 C 0.54267 0.02667 0.51109 0.0
C955 C 0.48903 0.08172 0.53439 0.0
C956 C 0.47438 0.09953 0.53324 0.0
C957 C 0.47507 0.11683 0.55248 0.0
C958 C 0.45964 0.13169 0.55174 0.0
C959 C 0.44304 0.12982 0.53171 0.0
C960 C 0.44273 0.11274 0.51235 0.0
C961 C 0.45801 0.09776 0.51321 0.0
C962 C 0.54944 0.04723 0.57193 0.0
C963 C 0.5695 0.12533 0.56217 0.0
O964 O 0.61239 0.06861 0.56185 0.0
O965 O 0.61139 0.06941 0.52384 0.0
O966 O 0.55319 0.07977 0.51079 0.0
O967 O 0.58302 0.10699 0.51537 0.0
O968 O 0.52776 0.04011 0.5111 0.0
O969 O 0.56294 0.03443 0.52337 0.0
O970 O 0.4986 0.07779 0.51628 0.0
O971 O 0.50117 0.08032 0.55461 0.0
O972 O 0.55882 0.06815 0.56721 0.0
O973 O 0.5292 0.04048 0.56055 0.0
O974 O 0.58542 0.11325 0.56169 0.0
O975 O 0.5486 0.11525 0.5529 0.0
H976 H 0.65569 0.06596 0.51894 0.0
H977 H 0.68164 0.03941 0.52028 0.0
H978 H 0.64899 0.99976 0.57142 0.0
H979 H 0.62204 0.0255 0.56848 0.0
H980 H 0.48724 0.11856 0.56835 0.0
H981 H 0.46042 0.14419 0.56723 0.0
H982 H 0.43063 0.11083 0.49641 0.0
H983 H 0.45672 0.08434 0.49826 0.0
Pr984 Pr 0.28368 0.3269 0.78081 0.0
Pr985 Pr 0.33246 0.3209 0.7909 0.0
C986 C 0.24102 0.32787 0.78224 0.0
C987 C 0.2249 0.32623 0.79891 0.0
C988 C 0.21538 0.30374 0.8065 0.0
C989 C 0.19955 0.30242 0.82142 0.0
C990 C 0.19259 0.32349 0.82888 0.0
C991 C 0.20217 0.34596 0.82128 0.0
C992 C 0.21808 0.34729 0.80651 0.0
C993 C 0.31569 0.36422 0.76797 0.0
C994 C 0.31361 0.34152 0.83652 0.0
C995 C 0.37533 0.32162 0.78905 0.0
C996 C 0.39198 0.32562 0.773 0.0
C997 C 0.39504 0.30598 0.75817 0.0
C998 C 0.41233 0.30934 0.74503 0.0
C999 C 0.42713 0.33233 0.74658 0.0
C1000 C 0.42355 0.35213 0.76075 0.0
C1001 C 0.40626 0.34881 0.77379 0.0
C1002 C 0.30153 0.28359 0.80485 0.0
C1003 C 0.30271 0.30691 0.73513 0.0
O1004 O 0.24726 0.30795 0.77578 0.0
O1005 O 0.25706 0.34765 0.78511 0.0
O1006 O 0.31754 0.35409 0.78669 0.0
O1007 O 0.29603 0.3562 0.75539 0.0
O1008 O 0.33204 0.34179 0.8279 0.0
O1009 O 0.29387 0.33368 0.8229 0.0
O1010 O 0.36866 0.34069 0.79707 0.0
O1011 O 0.35955 0.30154 0.78463 0.0
O1012 O 0.29848 0.29365 0.78615 0.0
O1013 O 0.32186 0.29085 0.81585 0.0
O1014 O 0.28414 0.30615 0.74363 0.0
O1015 O 0.3223 0.31494 0.74898 0.0
H1016 H 0.21989 0.28704 0.80068 0.0
H1017 H 0.19236 0.28473 0.82661 0.0
H1018 H 0.19743 0.36262 0.82682 0.0
H1019 H 0.22491 0.36486 0.80083 0.0
H1020 H 0.38449 0.28781 0.75722 0.0
H1021 H 0.41468 0.29365 0.73446 0.0
H1022 H 0.43441 0.37018 0.76211 0.0
H1023 H 0.40447 0.36436 0.78501 0.0
Pr1024 Pr 0.05262 0.06739 0.51659 0.0
Pr1025 Pr 0.06063 0.09663 0.55956 0.0
C1026 C 0.03338 0.04172 0.47445 0.0
C1027 C 0.01973 0.0457 0.45272 0.0
C1028 C 0.02351 0.06836 0.44344 0.0
C1029 C 1.00869 0.07243 0.42428 0.0
C1030 C 0.98972 0.05409 0.41453 0.0
C1031 C 0.98619 0.03138 0.42369 0.0
C1032 C 1.00112 0.02721 0.44257 0.0
C1033 C 0.09589 0.09824 0.52489 0.0
C1034 C 0.04255 0.12419 0.51575 0.0
C1035 C 0.07822 0.1202 0.60295 0.0
C1036 C 0.08719 0.11154 0.62486 0.0
C1037 C 0.10091 0.1282 0.64314 0.0
C1038 C 0.11197 0.11967 0.66255 0.0
C1039 C 0.10988 0.09429 0.66368 0.0
C1040 C 0.0956 0.07774 0.64544 0.0
C1041 C 0.08416 0.08631 0.62642 0.0
C1042 C 0.01697 0.06733 0.55145 0.0
C1043 C 0.07331 0.04112 0.55973 0.0
O1044 O 0.02379 0.04137 0.49299 0.0
O1045 O 0.0542 0.05339 0.47902 0.0
O1046 O 0.07825 0.10447 0.52782 0.0
O1047 O 0.09164 0.07477 0.51824 0.0
O1048 O 0.05398 0.12863 0.53736 0.0
O1049 O 0.03708 0.10129 0.50532 0.0
O1050 O 0.08968 0.11879 0.58603 0.0
O1051 O 0.05691 0.11264 0.59563 0.0
O1052 O 0.03404 0.05975 0.5482 0.0
O1053 O 0.02229 0.09088 0.55759 0.0
O1054 O 0.06184 0.036 0.53822 0.0
O1055 O 0.07768 0.06391 0.57 0.0
H1056 H 0.03758 0.08304 0.45131 0.0
H1057 H 1.01169 0.09011 0.41751 0.0
H1058 H 0.97184 0.01685 0.41625 0.0
H1059 H 0.99784 0.00971 0.44966 0.0
H1060 H 0.10343 0.14777 0.64217 0.0
H1061 H 0.12225 0.13302 0.67655 0.0
H1062 H 0.09366 0.05812 0.64542 0.0
H1063 H 0.07344 0.07316 0.61256 0.0
Pr1064 Pr 0.30576 0.81146 0.7927 0.0
Pr1065 Pr 0.32149 0.86846 0.78153 0.0
C1066 C 0.29779 0.76253 0.78496 0.0
C1067 C 0.30856 0.74625 0.77196 0.0
C1068 C 0.3316 0.74879 0.77692 0.0
C1069 C 0.34179 0.73425 0.76362 0.0
C1070 C 0.32922 0.717 0.74492 0.0
C1071 C 0.3062 0.71477 0.73977 0.0
C1072 C 0.29598 0.72921 0.75321 0.0
C1073 C 0.30358 0.84456 0.83174 0.0
C1074 C 0.35839 0.84131 0.81149 0.0
C1075 C 0.32817 0.91742 0.78797 0.0
C1076 C 0.31757 0.93301 0.80196 0.0
C1077 C 0.33034 0.95401 0.81637 0.0
C1078 C 0.32043 0.96782 0.83089 0.0
C1079 C 0.29758 0.96082 0.83122 0.0
C1080 C 0.28491 0.93966 0.81687 0.0
C1081 C 0.29478 0.92591 0.80241 0.0
C1082 C 0.32458 0.83578 0.74256 0.0
C1083 C 0.26747 0.83935 0.76724 0.0
O1084 O 0.28669 0.77542 0.77195 0.0
O1085 O 0.30937 0.77498 0.80469 0.0
O1086 O 0.30854 0.84913 0.81177 0.0
O1087 O 0.29814 0.82077 0.83154 0.0
O1088 O 0.35299 0.86204 0.80605 0.0
O1089 O 0.34464 0.81957 0.80465 0.0
O1090 O 0.34093 0.90553 0.80015 0.0
O1091 O 0.31548 0.90403 0.76931 0.0
O1092 O 0.3188 0.8306 0.76208 0.0
O1093 O 0.33085 0.85957 0.74362 0.0
O1094 O 0.27199 0.81868 0.77402 0.0
O1095 O 0.28264 0.86029 0.77008 0.0
H1096 H 0.34183 0.76206 0.79104 0.0
H1097 H 0.35948 0.7362 0.76835 0.0
H1098 H 0.29607 0.7019 0.72529 0.0
H1099 H 0.27826 0.72725 0.74879 0.0
H1100 H 0.34798 0.95961 0.81651 0.0
H1101 H 0.3306 0.98417 0.84158 0.0
H1102 H 0.26736 0.93353 0.81701 0.0
H1103 H 0.2846 0.90945 0.79191 0.0
Pr1104 Pr 0.571 0.08069 0.06849 0.0
Pr1105 Pr 0.55838 0.08954 0.01597 0.0
C1106 C 0.58166 0.08799 0.11583 0.0
C1107 C 0.57213 0.10151 0.133 0.0
C1108 C 0.54949 0.10136 0.12872 0.0
C1109 C 0.54076 0.11613 0.14351 0.0
C1110 C 0.55449 0.13166 0.16283 0.0
C1111 C 0.57717 0.13162 0.16719 0.0
C1112 C 0.58589 0.1167 0.15238 0.0
C1113 C 0.56728 0.03911 0.03586 0.0
C1114 C 0.519 0.06534 0.04522 0.0
C1115 C 0.55013 0.08113 0.96851 0.0
C1116 C 0.55741 0.06623 0.95025 0.0
C1117 C 0.54975 0.04054 0.94637 0.0
C1118 C 0.55708 0.0268 0.92924 0.0
C1119 C 0.57229 0.03844 0.91577 0.0
C1120 C 0.57989 0.06408 0.91964 0.0
C1121 C 0.57245 0.07781 0.93659 0.0
C1122 C 0.55384 0.13077 0.0452 0.0
C1123 C 0.61147 0.10885 0.04098 0.0
O1124 O 0.59255 0.10158 0.10209 0.0
O1125 O 0.56885 0.0676 0.10449 0.0
O1126 O 0.57587 0.06121 0.03321 0.0
O1127 O 0.5621 0.03792 0.05681 0.0
O1128 O 0.52576 0.06406 0.02463 0.0
O1129 O 0.53274 0.07696 0.06427 0.0
O1130 O 0.53727 0.06942 0.98189 0.0
O1131 O 0.56503 0.09991 0.98014 0.0
O1132 O 0.55949 0.11171 0.0514 0.0
O1133 O 0.54969 0.1288 0.02225 0.0
O1134 O 0.60614 0.09993 0.06052 0.0
O1135 O 0.59673 0.10637 0.02147 0.0
H1136 H 0.53853 0.09011 0.11367 0.0
H1137 H 0.52318 0.11526 0.1398 0.0
H1138 H 0.58829 0.1435 0.18173 0.0
H1139 H 0.60347 0.11744 0.15574 0.0
H1140 H 0.53819 0.03098 0.95661 0.0
H1141 H 0.55106 1.00705 0.92674 0.0
H1142 H 0.59135 0.0736 0.90927 0.0
H1143 H 0.5785 0.09756 0.93903 0.0
Pr1144 Pr 0.28391 0.30296 0.27796 0.0
Pr1145 Pr 0.33316 0.34516 0.29157 0.0
C1146 C 0.24225 0.28078 0.28224 0.0
C1147 C 0.22673 0.28313 0.29898 0.0
C1148 C 0.23401 0.28856 0.32352 0.0
C1149 C 0.21914 0.29219 0.33869 0.0
C1150 C 0.19664 0.29074 0.32969 0.0
C1151 C 0.1895 0.28518 0.3051 0.0
C1152 C 0.20432 0.28144 0.29002 0.0
C1153 C 0.29953 0.32447 0.23775 0.0
C1154 C 0.28696 0.36121 0.29334 0.0
C1155 C 0.37331 0.36971 0.28447 0.0
C1156 C 0.39103 0.36436 0.2716 0.0
C1157 C 0.40354 0.3475 0.27908 0.0
C1158 C 0.42084 0.3435 0.26765 0.0
C1159 C 0.42619 0.35613 0.24831 0.0
C1160 C 0.41324 0.37242 0.24035 0.0
C1161 C 0.39596 0.37655 0.25191 0.0
C1162 C 0.31775 0.32716 0.33261 0.0
C1163 C 0.33019 0.28432 0.28638 0.0
O1164 O 0.25943 0.27164 0.2892 0.0
O1165 O 0.24688 0.29923 0.26983 0.0
O1166 O 0.30793 0.3276 0.25931 0.0
O1167 O 0.28168 0.30696 0.23567 0.0
O1168 O 0.30673 0.36937 0.28761 0.0
O1169 O 0.28066 0.33872 0.2988 0.0
O1170 O 0.35474 0.37155 0.27176 0.0
O1171 O 0.37024 0.35869 0.30334 0.0
O1172 O 0.30908 0.32094 0.31105 0.0
O1173 O 0.33497 0.34529 0.33337 0.0
O1174 O 0.30857 0.27799 0.28637 0.0
O1175 O 0.3407 0.30646 0.28256 0.0
H1176 H 0.25126 0.29036 0.33095 0.0
H1177 H 0.2254 0.29668 0.35743 0.0
H1178 H 0.17234 0.28353 0.29743 0.0
H1179 H 0.19827 0.27744 0.27119 0.0
H1180 H 0.40017 0.33752 0.29398 0.0
H1181 H 0.43017 0.33054 0.2741 0.0
H1182 H 0.41691 0.3826 0.22565 0.0
H1183 H 0.38666 0.38962 0.24566 0.0
Pr1184 Pr 0.55794 0.56866 0.01584 0.0
Pr1185 Pr 0.56024 0.59525 0.06062 0.0
C1186 C 0.54485 0.54617 0.97155 0.0
C1187 C 0.53404 0.55316 0.94951 0.0
C1188 C 0.54209 0.54942 0.92848 0.0
C1189 C 0.53178 0.55595 0.90748 0.0
C1190 C 0.51318 0.56607 0.90725 0.0
C1191 C 0.50531 0.57006 0.92836 0.0
C1192 C 0.51575 0.56384 0.94936 0.0
C1193 C 0.59962 0.6016 0.03011 0.0
C1194 C 0.5427 0.62298 0.01618 0.0
C1195 C 0.57539 0.61885 0.10428 0.0
C1196 C 0.58804 0.61288 0.12566 0.0
C1197 C 0.60532 0.63118 0.13882 0.0
C1198 C 0.6201 0.62518 0.15676 0.0
C1199 C 0.61773 0.60079 0.16185 0.0
C1200 C 0.59997 0.58257 0.14917 0.0
C1201 C 0.58531 0.58854 0.13102 0.0
C1202 C 0.51858 0.56233 0.04686 0.0
C1203 C 0.57459 0.54054 0.06019 0.0
O1204 O 0.53282 0.54271 0.98811 0.0
O1205 O 0.56526 0.55806 0.97955 0.0
O1206 O 0.58091 0.60616 0.0314 0.0
O1207 O 0.59714 0.57861 0.02242 0.0
O1208 O 0.5511 0.62668 0.03889 0.0
O1209 O 0.54074 0.60117 1.00443 0.0
O1210 O 0.58638 0.62189 0.08686 0.0
O1211 O 0.55496 0.6063 0.09761 0.0
O1212 O 0.53711 0.55781 0.04465 0.0
O1213 O 0.52116 0.58473 0.05647 0.0
O1214 O 0.56572 0.5369 0.03763 0.0
O1215 O 0.57729 0.5625 0.07197 0.0
H1216 H 0.55623 0.54135 0.9283 0.0
H1217 H 0.53801 0.55257 0.89131 0.0
H1218 H 0.49112 0.57805 0.92859 0.0
H1219 H 0.5094 0.56727 0.96543 0.0
H1220 H 0.60783 0.64997 0.13468 0.0
H1221 H 0.63346 0.63959 0.1666 0.0
H1222 H 0.59786 0.56365 0.15284 0.0
H1223 H 0.57231 0.57406 0.12071 0.0
Pr1224 Pr 0.81093 0.31862 0.29056 0.0
Pr1225 Pr 0.82508 0.36851 0.28216 0.0
C1226 C 0.80658 0.26984 0.28961 0.0
C1227 C 0.81533 0.25381 0.27419 0.0
C1228 C 0.81188 0.22867 0.2762 0.0
C1229 C 0.82193 0.21406 0.26271 0.0
C1230 C 0.83568 0.22449 0.24719 0.0
C1231 C 0.83862 0.24961 0.24483 0.0
C1232 C 0.82846 0.26414 0.25818 0.0
C1233 C 0.80779 0.35061 0.33007 0.0
C1234 C 0.86372 0.34553 0.3092 0.0
C1235 C 0.82815 0.41698 0.28116 0.0
C1236 C 0.81648 0.43206 0.29417 0.0
C1237 C 0.82035 0.45753 0.29378 0.0
C1238 C 0.80855 0.47113 0.3062 0.0
C1239 C 0.79278 0.45932 0.3191 0.0
C1240 C 0.78942 0.43389 0.31973 0.0
C1241 C 0.80102 0.42046 0.3073 0.0
C1242 C 0.83096 0.33712 0.24385 0.0
C1243 C 0.77212 0.34335 0.26765 0.0
O1244 O 0.79114 0.27954 0.27919 0.0
O1245 O 0.82165 0.28572 0.30444 0.0
O1246 O 0.82294 0.35329 0.31781 0.0
O1247 O 0.79354 0.3299 0.32273 0.0
O1248 O 0.85697 0.36603 0.30758 0.0
O1249 O 0.85032 0.3247 0.2989 0.0
O1250 O 0.84278 0.40819 0.29429 0.0
O1251 O 0.81539 0.40043 0.2649 0.0
O1252 O 0.81432 0.33359 0.25424 0.0
O1253 O 0.84507 0.35715 0.25359 0.0
O1254 O 0.77812 0.32236 0.26632 0.0
O1255 O 0.78648 0.3628 0.27905 0.0
H1256 H 0.80188 0.22048 0.28856 0.0
H1257 H 0.81957 0.19477 0.26503 0.0
H1258 H 0.84896 0.25805 0.23287 0.0
H1259 H 0.83127 0.28359 0.25644 0.0
H1260 H 0.83226 0.46681 0.28374 0.0
H1261 H 0.81138 0.49071 0.30526 0.0
H1262 H 0.77778 0.42428 0.32986 0.0
H1263 H 0.7979 0.40088 0.30802 0.0
Pr1264 Pr 0.07191 0.57953 0.56706 0.0
Pr1265 Pr 0.05623 0.58913 0.51146 0.0
C1266 C 0.08061 0.58753 0.61443 0.0
C1267 C 0.0718 0.60178 0.63164 0.0
C1268 C 0.05049 0.60599 0.62598 0.0
C1269 C 0.04243 0.62032 0.64188 0.0
C1270 C 0.05546 0.63067 0.66384 0.0
C1271 C 0.07688 0.62652 0.66937 0.0
C1272 C 0.08498 0.61223 0.65337 0.0
C1273 C 0.07139 0.53836 0.53443 0.0
C1274 C 0.0185 0.56367 0.54299 0.0
C1275 C 0.0472 0.58103 0.46405 0.0
C1276 C 0.05345 0.56538 0.44557 0.0
C1277 C 0.04044 0.54171 0.43728 0.0
C1278 C 0.04669 0.52689 0.42015 0.0
C1279 C 0.0661 0.53541 0.411 0.0
C1280 C 0.07895 0.55916 0.41913 0.0
C1281 C 0.07268 0.57398 0.43613 0.0
C1282 C 0.05541 0.62998 0.54332 0.0
C1283 C 0.11027 0.60656 0.53657 0.0
O1284 O 0.09265 0.60044 0.60104 0.0
O1285 O 0.06677 0.56785 0.60284 0.0
O1286 O 0.06791 0.55912 0.53059 0.0
O1287 O 0.07626 0.5385 0.55727 0.0
O1288 O 0.02364 0.56526 0.52158 0.0
O1289 O 0.03316 0.57224 0.56247 0.0
O1290 O 0.03407 0.56997 0.47754 0.0
O1291 O 0.06286 0.59919 0.47563 0.0
O1292 O 0.06021 0.60991 0.54793 0.0
O1293 O 0.0493 0.62876 0.52053 0.0
O1294 O 0.10549 0.60043 0.55729 0.0
O1295 O 0.09532 0.60208 0.51687 0.0
H1296 H 0.04015 0.59844 0.60911 0.0
H1297 H 0.02602 0.62344 0.63686 0.0
H1298 H 0.08726 0.63393 0.68624 0.0
H1299 H 0.10152 0.60933 0.65798 0.0
H1300 H 0.02547 0.53456 0.44411 0.0
H1301 H 0.0365 0.50863 0.41431 0.0
H1302 H 0.09373 0.5665 0.41205 0.0
H1303 H 0.08296 0.59221 0.44187 0.0
Pr1304 Pr 0.78779 0.83011 0.28595 0.0
Pr1305 Pr 0.83714 0.82661 0.29669 0.0
C1306 C 0.7445 0.82849 0.28652 0.0
C1307 C 0.728 0.8254 0.30254 0.0
C1308 C 0.7343 0.82907 0.32726 0.0
C1309 C 0.71819 0.82695 0.34194 0.0
C1310 C 0.69545 0.82124 0.33219 0.0
C1311 C 0.68935 0.81708 0.30741 0.0
C1312 C 0.70541 0.81916 0.29282 0.0
C1313 C 0.81877 0.86862 0.27341 0.0
C1314 C 0.81736 0.84692 0.34162 0.0
C1315 C 0.88043 0.82914 0.29582 0.0
C1316 C 0.89729 0.83288 0.28007 0.0
C1317 C 0.9131 0.85525 0.28281 0.0
C1318 C 0.93055 0.85831 0.27004 0.0
C1319 C 0.9328 0.83901 0.25424 0.0
C1320 C 0.91649 0.81692 0.25075 0.0
C1321 C 0.89898 0.81385 0.26358 0.0
C1322 C 0.80729 0.78851 0.31098 0.0
C1323 C 0.80797 0.81109 0.2407 0.0
O1324 O 0.75178 0.80923 0.28038 0.0
O1325 O 0.75993 0.84885 0.29029 0.0
O1326 O 0.82081 0.85874 0.29223 0.0
O1327 O 0.79944 0.85963 0.26041 0.0
O1328 O 0.83595 0.84794 0.33317 0.0
O1329 O 0.79778 0.83794 0.32799 0.0
O1330 O 0.87283 0.84807 0.30233 0.0
O1331 O 0.86537 0.80846 0.29229 0.0
O1332 O 0.80396 0.79802 0.292 0.0
O1333 O 0.8274 0.79692 0.32225 0.0
O1334 O 0.78923 0.80968 0.24898 0.0
O1335 O 0.8274 0.81983 0.2547 0.0
H1336 H 0.75166 0.83387 0.33519 0.0
H1337 H 0.72357 0.83041 0.36089 0.0
H1338 H 0.67207 0.81216 0.2992 0.0
H1339 H 0.70016 0.81608 0.27383 0.0
H1340 H 0.91234 0.87027 0.29537 0.0
H1341 H 0.94258 0.87572 0.27289 0.0
H1342 H 0.91777 0.80163 0.23886 0.0
H1343 H 0.88715 0.79631 0.26106 0.0
Pr1344 Pr 0.81398 0.36422 0.79399 0.0
Pr1345 Pr 0.80615 0.31282 0.77487 0.0
C1346 C 0.83352 0.41118 0.81007 0.0
C1347 C 0.85453 0.42711 0.80698 0.0
C1348 C 0.8549 0.45065 0.80044 0.0
C1349 C 0.87475 0.4659 0.79743 0.0
C1350 C 0.89461 0.45793 0.80114 0.0
C1351 C 0.89414 0.43413 0.80718 0.0
C1352 C 0.87423 0.41875 0.80988 0.0
C1353 C 0.77114 0.34719 0.76769 0.0
C1354 C 0.82454 0.35266 0.73912 0.0
C1355 C 0.78415 0.26764 0.75613 0.0
C1356 C 0.77406 0.24273 0.76028 0.0
C1357 C 0.78652 0.22745 0.77112 0.0
C1358 C 0.77657 0.2029 0.77215 0.0
C1359 C 0.75412 0.19352 0.76234 0.0
C1360 C 0.74153 0.20924 0.75259 0.0
C1361 C 0.75146 0.23363 0.75152 0.0
C1362 C 0.84954 0.32902 0.79981 0.0
C1363 C 0.79749 0.32348 0.83078 0.0
O1364 O 0.83506 0.39299 0.82251 0.0
O1365 O 0.81814 0.40503 0.79133 0.0
O1366 O 0.78886 0.34284 0.76258 0.0
O1367 O 0.77515 0.36098 0.78781 0.0
O1368 O 0.81407 0.32993 0.74045 0.0
O1369 O 0.82973 0.36871 0.7584 0.0
O1370 O 0.77436 0.28475 0.76257 0.0
O1371 O 0.80579 0.2747 0.75897 0.0
O1372 O 0.83248 0.33465 0.80569 0.0
O1373 O 0.8443 0.31383 0.7805 0.0
O1374 O 0.80335 0.34711 0.82812 0.0
O1375 O 0.7961 0.30677 0.81277 0.0
H1376 H 0.83987 0.45733 0.79789 0.0
H1377 H 0.87467 0.48426 0.793 0.0
H1378 H 0.90919 0.42752 0.81003 0.0
H1379 H 0.87432 0.40043 0.81446 0.0
H1380 H 0.80399 0.2342 0.77813 0.0
H1381 H 0.78653 0.1911 0.77995 0.0
H1382 H 0.7243 0.20241 0.7446 0.0
H1383 H 0.74162 0.2452 0.743 0.0
Pr1384 Pr 0.78021 0.80106 0.78189 0.0
Pr1385 Pr 0.83043 0.84054 0.79126 0.0
C1386 C 0.73934 0.77997 0.78947 0.0
C1387 C 0.72426 0.78441 0.80623 0.0
C1388 C 0.71553 0.76581 0.81948 0.0
C1389 C 0.70041 0.76933 0.83434 0.0
C1390 C 0.6935 0.79157 0.83632 0.0
C1391 C 0.70258 0.81031 0.8233 0.0
C1392 C 0.71773 0.80681 0.80852 0.0
C1393 C 0.79367 0.81783 0.73901 0.0
C1394 C 0.78573 0.86035 0.79459 0.0
C1395 C 0.86965 0.86472 0.78143 0.0
C1396 C 0.8862 0.86053 0.76644 0.0
C1397 C 0.90811 0.86178 0.77713 0.0
C1398 C 0.92411 0.8582 0.76352 0.0
C1399 C 0.91876 0.85342 0.7387 0.0
C1400 C 0.89671 0.85208 0.72801 0.0
C1401 C 0.88065 0.85552 0.74168 0.0
C1402 C 0.81689 0.82602 0.83433 0.0
C1403 C 0.82478 0.77874 0.78646 0.0
O1404 O 0.75691 0.77201 0.7976 0.0
O1405 O 0.74311 0.79592 0.77424 0.0
O1406 O 0.80355 0.82328 0.76009 0.0
O1407 O 0.77578 0.80113 0.73953 0.0
O1408 O 0.80531 0.86646 0.78788 0.0
O1409 O 0.77793 0.83833 0.80039 0.0
O1410 O 0.85049 0.86761 0.77093 0.0
O1411 O 0.86799 0.852 0.79947 0.0
O1412 O 0.80703 0.81927 0.81327 0.0
O1413 O 0.8345 0.84314 0.83354 0.0
O1414 O 0.80328 0.77409 0.78712 0.0
O1415 O 0.83666 0.80076 0.78389 0.0
H1416 H 0.72016 0.74835 0.81809 0.0
H1417 H 0.69372 0.75434 0.84383 0.0
H1418 H 0.69808 0.82784 0.82459 0.0
H1419 H 0.72416 0.82166 0.79872 0.0
H1420 H 0.91291 0.86552 0.79615 0.0
H1421 H 0.94068 0.85893 0.77259 0.0
H1422 H 0.89185 0.84874 0.709 0.0
H1423 H 0.86392 0.85432 0.73281 0.0
Pr1424 Pr 0.53296 0.57107 0.52912 0.0
Pr1425 Pr 0.58459 0.59263 0.5506 0.0
C1426 C 0.48908 0.56964 0.52498 0.0
C1427 C 0.47446 0.5873 0.52315 0.0
C1428 C 0.45147 0.57883 0.52133 0.0
C1429 C 0.43766 0.5954 0.52217 0.0
C1430 C 0.44647 0.62098 0.525 0.0
C1431 C 0.46953 0.62936 0.52635 0.0
C1432 C 0.48331 0.61276 0.5255 0.0
C1433 C 0.56203 0.56855 0.49788 0.0
C1434 C 0.55822 0.63224 0.52757 0.0
C1435 C 0.62853 0.59475 0.56066 0.0
C1436 C 0.64329 0.57713 0.55978 0.0
C1437 C 0.64603 0.56571 0.53816 0.0
C1438 C 0.66064 0.55002 0.53751 0.0
C1439 C 0.67266 0.54489 0.55849 0.0
C1440 C 0.66957 0.55593 0.58012 0.0
C1441 C 0.65523 0.57194 0.58074 0.0
C1442 C 0.55434 0.59358 0.58111 0.0
C1443 C 0.56168 0.53177 0.54867 0.0
O1444 O 0.50245 0.57189 0.54515 0.0
O1445 O 0.49844 0.56486 0.50684 0.0
O1446 O 0.56368 0.5859 0.51373 0.0
O1447 O 0.5434 0.55201 0.49614 0.0
O1448 O 0.57805 0.62902 0.53645 0.0
O1449 O 0.54009 0.61416 0.52495 0.0
O1450 O 0.61871 0.59978 0.54053 0.0
O1451 O 0.61583 0.59308 0.57681 0.0
O1452 O 0.55408 0.57671 0.56551 0.0
O1453 O 0.57187 0.61144 0.58256 0.0
O1454 O 0.54114 0.53513 0.54449 0.0
O1455 O 0.5788 0.54943 0.54642 0.0
H1456 H 0.44422 0.55933 0.51986 0.0
H1457 H 0.4201 0.5881 0.52136 0.0
H1458 H 0.47702 0.64881 0.52818 0.0
H1459 H 0.50095 0.61991 0.52719 0.0
H1460 H 0.63689 0.56887 0.52164 0.0
H1461 H 0.66231 0.54165 0.52054 0.0
H1462 H 0.67863 0.55262 0.59664 0.0
H1463 H 0.65359 0.58041 0.59768 0.0
Pr1464 Pr 0.08935 0.58736 0.04087 0.0
Pr1465 Pr 0.03806 0.5835 0.04374 0.0
C1466 C 0.13082 0.58042 0.04095 0.0
C1467 C 0.14521 0.5624 0.04362 0.0
C1468 C 0.15138 0.55169 0.02356 0.0
C1469 C 0.1663 0.5363 0.02572 0.0
C1470 C 0.17554 0.53105 0.04805 0.0
C1471 C 0.16915 0.54153 0.06814 0.0
C1472 C 0.15438 0.55714 0.06597 0.0
C1473 C 0.06706 0.61081 1.00729 0.0
C1474 C 0.05139 0.53487 0.02045 0.0
C1475 C 0.99594 0.58939 0.0414 0.0
C1476 C 0.98049 0.60634 0.03959 0.0
C1477 C 0.98221 0.62573 0.05722 0.0
C1478 C 0.96631 0.64001 0.0561 0.0
C1479 C 0.94821 0.63557 0.0372 0.0
C1480 C 0.94679 0.6163 0.01945 0.0
C1481 C 0.96249 0.60179 0.0208 0.0
C1482 C 0.06084 0.56021 0.07741 0.0
C1483 C 0.07623 0.63603 0.06506 0.0
O1484 O 0.12453 0.5896 0.05968 0.0
O1485 O 0.11572 0.5771 0.02189 0.0
O1486 O 0.05875 0.59049 0.01413 0.0
O1487 O 0.08797 0.61818 0.01604 0.0
O1488 O 0.03512 0.5465 0.01997 0.0
O1489 O 0.07202 0.54551 0.03027 0.0
O1490 O 1.00419 0.58366 0.02276 0.0
O1491 O 1.00966 0.59064 0.06124 0.0
O1492 O 0.06863 0.58034 0.07003 0.0
O1493 O 0.03976 0.55267 0.0693 0.0
O1494 O 0.09267 0.62497 0.06351 0.0
O1495 O 0.05524 0.62505 0.05697 0.0
H1496 H 0.14494 0.55554 1.00607 0.0
H1497 H 0.17055 0.52845 1.0098 0.0
H1498 H 0.17606 0.53823 0.08566 0.0
H1499 H 0.15044 0.56541 0.08187 0.0
H1500 H 0.99562 0.62961 0.07219 0.0
H1501 H 0.96803 0.6542 0.07048 0.0
H1502 H 0.93356 0.61231 1.00433 0.0
H1503 H 0.96045 0.5868 1.00708 0.0
H1504 H 0.04893 0.26774 0.98239 0.0
H1505 H 1.00682 0.22877 0.91807 0.0
H1506 H 1.011 0.18937 0.93226 0.0
H1507 H 0.08701 0.22698 0.98708 0.0
H1508 H 0.09085 0.22879 0.01886 0.0
H1509 H 0.08441 0.25415 1.00407 0.0
H1510 H 0.05052 0.25242 0.0249 0.0
H1511 H 0.05688 0.22709 0.03978 0.0
H1512 H 0.02992 0.22404 0.02222 0.0
H1513 H 0.0183 0.154 0.95379 0.0
H1514 H 0.02959 0.12481 0.98018 0.0
H1515 H 0.06929 0.18525 0.03047 0.0
C1516 C 0.04054 0.2509 0.97131 0.0
C1517 C 0.02736 0.25153 0.94902 0.0
C1518 C 0.01693 0.22897 0.9351 0.0
C1519 C 0.01922 0.20642 0.94307 0.0
C1520 C 0.03226 0.20644 0.96499 0.0
C1521 C 0.04293 0.22807 0.9789 0.0
C1522 C 0.05629 0.2227 1.0016 0.0
C1523 C 0.08112 0.23382 1.00298 0.0
C1524 C 0.0479 0.23213 0.02342 0.0
C1525 C 0.05131 0.19469 0.99837 0.0
C1526 C 0.03726 0.18586 0.97712 0.0
C1527 C 0.02944 0.16078 0.97033 0.0
C1528 C 0.03597 0.14428 0.98553 0.0
C1529 C 0.0505 0.15255 1.00737 0.0
C1530 C 0.05846 0.17826 0.01377 0.0
H1531 H 0.15589 0.86857 0.21488 0.0
H1532 H 0.17178 0.85053 0.14595 0.0
H1533 H 0.2091 0.84834 0.16485 0.0
H1534 H 0.21174 0.90613 0.24138 0.0
H1535 H 0.21061 0.89531 0.26993 0.0
H1536 H 0.18548 0.89713 0.25107 0.0
H1537 H 0.16906 0.85123 0.25371 0.0
H1538 H 0.19418 0.8492 0.27239 0.0
H1539 H 0.18392 0.82874 0.24548 0.0
H1540 H 0.24323 0.84446 0.19072 0.0
H1541 H 0.2737 0.84213 0.22176 0.0
H1542 H 0.2379 0.8641 0.27536 0.0
C1543 C 0.16738 0.86466 0.20373 0.0
C1544 C 0.16079 0.85986 0.17876 0.0
C1545 C 0.17631 0.85443 0.16497 0.0
C1546 C 0.1976 0.85307 0.17559 0.0
C1547 C 0.20338 0.85733 0.20015 0.0
C1548 C 0.18889 0.86331 0.21411 0.0
C1549 C 0.19936 0.86639 0.2402 0.0
C1550 C 0.20195 0.89281 0.2513 0.0
C1551 C 0.18582 0.84778 0.25374 0.0
C1552 C 0.22184 0.86081 0.23869 0.0
C1553 C 0.22359 0.85559 0.21531 0.0
C1554 C 0.24213 0.84882 0.20905 0.0
C1555 C 0.25941 0.84747 0.22699 0.0
C1556 C 0.25847 0.85307 0.25121 0.0
C1557 C 0.23931 0.85993 0.25709 0.0
H1558 H 0.54108 0.88581 0.46752 0.0
H1559 H 0.51542 0.90205 0.39759 0.0
H1560 H 0.51482 0.94322 0.41387 0.0
H1561 H 0.513 0.92196 0.50172 0.0
H1562 H 0.53649 0.93393 0.52489 0.0
H1563 H 0.53359 0.90446 0.50852 0.0
H1564 H 0.57236 0.91904 0.49743 0.0
H1565 H 0.57541 0.9485 0.51389 0.0
H1566 H 0.57836 0.94665 0.48322 0.0
H1567 H 0.51448 0.98194 0.43735 0.0
H1568 H 0.52113 0.01896 0.46582 0.0
H1569 H 0.55232 0.98195 0.52003 0.0
C1570 C 0.53525 0.898 0.45568 0.0
C1571 C 0.52754 0.88999 0.43125 0.0
C1572 C 0.52073 0.90701 0.4164 0.0
C1573 C 0.52038 0.93069 0.42547 0.0
C1574 C 0.52763 0.93782 0.44948 0.0
C1575 C 0.53557 0.92235 0.46437 0.0
C1576 C 0.54411 0.93579 0.48915 0.0
C1577 C 0.53102 0.92328 0.50713 0.0
C1578 C 0.56904 0.9376 0.49634 0.0
C1579 C 0.53943 0.96095 0.48574 0.0
C1580 C 0.52946 0.96139 0.46277 0.0
C1581 C 0.52255 0.98197 0.45534 0.0
C1582 C 0.52626 1.00288 0.47166 0.0
C1583 C 0.53732 1.00341 0.49504 0.0
C1584 C 0.54398 0.9821 0.50217 0.0
H1585 H 0.49937 0.3146 0.64488 0.0
H1586 H 0.55649 0.35652 0.6948 0.0
H1587 H 0.53254 0.36118 0.72398 0.0
H1588 H 0.4603 0.34924 0.66085 0.0
H1589 H 0.43758 0.32276 0.65794 0.0
H1590 H 0.45903 0.32284 0.64043 0.0
H1591 H 0.4661 0.28298 0.65659 0.0
H1592 H 0.44466 0.28276 0.67412 0.0
H1593 H 0.47219 0.28208 0.68806 0.0
H1594 H 0.50289 0.36183 0.74792 0.0
H1595 H 0.46925 0.35703 0.76582 0.0
H1596 H 0.43063 0.31413 0.70144 0.0
C1597 C 0.50682 0.32483 0.66192 0.0
C1598 C 0.52993 0.33521 0.6674 0.0
C1599 C 0.53894 0.34828 0.69004 0.0
C1600 C 0.52544 0.35112 0.70681 0.0
C1601 C 0.50285 0.34069 0.70088 0.0
C1602 C 0.49354 0.32769 0.67907 0.0
C1603 C 0.46875 0.31797 0.6776 0.0
C1604 C 0.45564 0.32886 0.65804 0.0
C1605 C 0.46257 0.28977 0.67387 0.0
C1606 C 0.46568 0.32756 0.70197 0.0
C1607 C 0.4856 0.34074 0.71498 0.0
C1608 C 0.48716 0.3516 0.73789 0.0
C1609 C 0.46789 0.3489 0.74786 0.0
C1610 C 0.44718 0.33537 0.73506 0.0
C1611 C 0.44618 0.3245 0.71176 0.0
H1612 H 0.07311 0.90407 0.59929 0.0
H1613 H 0.12037 0.94223 0.66078 0.0
H1614 H 0.12073 0.98127 0.64489 0.0
H1615 H 0.09499 0.94481 0.55595 0.0
H1616 H 0.06801 0.9447 0.53988 0.0
H1617 H 0.07231 0.91859 0.55476 0.0
H1618 H 0.04065 0.92209 0.57774 0.0
H1619 H 0.03631 0.94824 0.563 0.0
H1620 H 0.0417 0.95068 0.59481 0.0
H1621 H 0.11517 0.0172 0.62449 0.0
H1622 H 0.10393 0.04786 0.60005 0.0
H1623 H 0.05946 0.98954 0.5507 0.0
C1624 C 0.08389 0.92057 0.60912 0.0
C1625 C 0.09706 0.91946 0.63136 0.0
C1626 C 0.11035 0.94192 0.64371 0.0
C1627 C 0.11065 0.96451 0.63483 0.0
C1628 C 0.0974 0.96508 0.61334 0.0
C1629 C 0.08422 0.94382 0.60049 0.0
C1630 C 0.07087 0.9504 0.57832 0.0
C1631 C 0.07691 0.93893 0.55589 0.0
C1632 C 0.0459 0.94237 0.57848 0.0
C1633 C 0.07859 0.97848 0.58098 0.0
C1634 C 0.09397 0.98633 0.60139 0.0
C1635 C 0.10324 0.01123 0.60836 0.0
C1636 C 0.09666 0.02863 0.59429 0.0
C1637 C 0.08084 0.02148 0.57322 0.0
C1638 C 0.07181 0.99583 0.56647 0.0
H1639 H 0.46688 0.79994 0.87582 0.0
H1640 H 0.47915 0.86597 0.92437 0.0
H1641 H 0.44607 0.87689 0.90277 0.0
H1642 H 0.43921 0.81733 0.81997 0.0
H1643 H 0.41994 0.78825 0.81559 0.0
H1644 H 0.44715 0.79142 0.83265 0.0
H1645 H 0.42383 0.77227 0.86472 0.0
H1646 H 0.39812 0.77447 0.84723 0.0
H1647 H 0.4064 0.78972 0.87689 0.0
H1648 H 0.41485 0.88343 0.87258 0.0
H1649 H 0.38131 0.88021 0.84311 0.0
H1650 H 0.38381 0.80622 0.81806 0.0
C1651 C 0.4627 0.81688 0.88157 0.0
C1652 C 0.47639 0.83302 0.90091 0.0
C1653 C 0.46949 0.85399 0.90903 0.0
C1654 C 0.4507 0.86029 0.89686 0.0
C1655 C 0.43813 0.84472 0.87724 0.0
C1656 C 0.44321 0.82285 0.87024 0.0
C1657 C 0.4247 0.80771 0.85101 0.0
C1658 C 0.43337 0.80076 0.82854 0.0
C1659 C 0.41255 0.78468 0.86053 0.0
C1660 C 0.40978 0.82561 0.84667 0.0
C1661 C 0.41799 0.84685 0.86203 0.0
C1662 C 0.40804 0.8667 0.86077 0.0
C1663 C 0.38903 0.86475 0.84371 0.0
C1664 C 0.37971 0.84299 0.82808 0.0
C1665 C 0.39033 0.82309 0.82974 0.0
H1666 H 0.5836 0.27682 0.0877 0.0
H1667 H 0.55188 0.25931 0.14793 0.0
H1668 H 0.54299 0.21523 0.13315 0.0
H1669 H 0.54845 0.22741 0.04187 0.0
H1670 H 0.57244 0.22344 0.03016 0.0
H1671 H 0.57238 0.25287 0.04478 0.0
H1672 H 0.60907 0.24929 0.07142 0.0
H1673 H 0.60653 0.2187 0.05763 0.0
H1674 H 0.60831 0.22412 0.08915 0.0
H1675 H 0.53934 0.17206 0.11297 0.0
H1676 H 0.53893 0.13434 0.08739 0.0
H1677 H 0.57232 0.17888 0.03962 0.0
C1678 C 0.57419 0.26374 0.09735 0.0
C1679 C 0.56778 0.27179 0.11871 0.0
C1680 C 0.55654 0.2538 0.13136 0.0
C1681 C 0.55148 0.22862 0.12311 0.0
C1682 C 0.55819 0.22123 0.10225 0.0
C1683 C 0.56929 0.23825 0.08946 0.0
C1684 C 0.57616 0.22507 0.06864 0.0
C1685 C 0.56678 0.23275 0.04497 0.0
C1686 C 0.60152 0.22957 0.07191 0.0
C1687 C 0.56577 0.19831 0.07073 0.0
C1688 C 0.5561 0.19643 0.0907 0.0
C1689 C 0.54655 0.17347 0.09708 0.0
C1690 C 0.5464 0.15207 0.08246 0.0
C1691 C 0.55514 0.15357 0.06123 0.0
C1692 C 0.56506 0.17711 0.05547 0.0
H1693 H 0.0923 0.33626 0.3653 0.0
H1694 H 0.10188 0.3036 0.43088 0.0
H1695 H 0.13499 0.29161 0.4196 0.0
H1696 H 0.10673 0.29057 0.32906 0.0
H1697 H 0.12023 0.31183 0.31099 0.0
H1698 H 0.0982 0.3188 0.32492 0.0
H1699 H 0.12399 0.35995 0.34492 0.0
H1700 H 0.1461 0.35315 0.33099 0.0
H1701 H 0.15021 0.35989 0.36265 0.0
H1702 H 0.16713 0.28231 0.39992 0.0
H1703 H 0.19403 0.27617 0.37414 0.0
H1704 H 0.16271 0.31495 0.32163 0.0
C1705 C 0.10139 0.32681 0.37756 0.0
C1706 C 0.09436 0.32108 0.39919 0.0
C1707 C 0.10684 0.3084 0.41433 0.0
C1708 C 0.12571 0.30149 0.40802 0.0
C1709 C 0.13197 0.3073 0.38646 0.0
C1710 C 0.12011 0.31972 0.37151 0.0
C1711 C 0.1297 0.32327 0.34903 0.0
C1712 C 0.1127 0.31034 0.32721 0.0
C1713 C 0.13799 0.3507 0.34678 0.0
C1714 C 0.14881 0.31077 0.35346 0.0
C1715 C 0.14999 0.30177 0.37518 0.0
C1716 C 0.16631 0.28941 0.38295 0.0
C1717 C 0.18165 0.28612 0.36817 0.0
C1718 C 0.18064 0.29499 0.34569 0.0
C1719 C 0.16392 0.30759 0.33848 0.0
H1720 H 0.95863 0.04099 0.14594 0.0
H1721 H 0.97509 0.10737 0.19489 0.0
H1722 H 1.00366 0.1262 0.17254 0.0
H1723 H 0.01465 0.04133 0.14062 0.0
H1724 H 1.00832 0.0295 0.1098 0.0
H1725 H 0.98782 0.02196 0.1284 0.0
H1726 H 0.96011 0.03913 0.09998 0.0
H1727 H 0.98056 0.04632 0.08127 0.0
H1728 H 0.96826 0.06997 0.09246 0.0
H1729 H 0.03096 0.13792 0.14493 0.0
H1730 H 0.05628 0.14011 0.11559 0.0
H1731 H 0.02446 0.06494 0.08737 0.0
C1732 C 0.96809 0.05958 0.1517 0.0
C1733 C 0.96456 0.0728 0.17202 0.0
C1734 C 0.97756 0.09691 0.17935 0.0
C1735 C 0.99377 0.10782 0.16673 0.0
C1736 C 0.99708 0.0943 0.14692 0.0
C1737 C 0.98478 0.0706 0.13957 0.0
C1738 C 0.99273 0.0595 0.11868 0.0
C1739 C 1.0014 0.03673 0.12475 0.0
C1740 C 0.97432 0.05339 0.0968 0.0
C1741 C 1.01136 0.08058 0.11555 0.0
C1742 C 1.01343 0.10065 0.13174 0.0
C1743 C 0.02949 0.1223 0.13212 0.0
C1744 C 0.04382 0.12341 0.11547 0.0
C1745 C 0.04212 0.10289 0.09895 0.0
C1746 C 0.02581 0.08121 0.0993 0.0
H1747 H 0.28572 0.73105 0.43387 0.0
H1748 H 0.3014 0.79565 0.4851 0.0
H1749 H 0.30542 0.82192 0.45261 0.0
H1750 H 0.32398 0.75497 0.39569 0.0
H1751 H 0.30573 0.74028 0.36884 0.0
H1752 H 0.30395 0.72672 0.39604 0.0
H1753 H 0.26236 0.72686 0.39105 0.0
H1754 H 0.26405 0.74048 0.36387 0.0
H1755 H 0.25391 0.75521 0.38737 0.0
H1756 H 0.30828 0.84152 0.41364 0.0
H1757 H 0.30988 0.85236 0.37314 0.0
H1758 H 0.29203 0.77513 0.34655 0.0
C1759 C 0.29001 0.75074 0.43843 0.0
C1760 C 0.29324 0.76105 0.46252 0.0
C1761 C 0.2988 0.78702 0.46715 0.0
C1762 C 0.30112 0.80216 0.44865 0.0
C1763 C 0.29783 0.79133 0.42527 0.0
C1764 C 0.29238 0.76614 0.42015 0.0
C1765 C 0.28984 0.75902 0.39355 0.0
C1766 C 0.30689 0.74438 0.38822 0.0
C1767 C 0.26613 0.74453 0.38336 0.0
C1768 C 0.29469 0.7841 0.38438 0.0
C1769 C 0.29928 0.80249 0.40301 0.0
C1770 C 0.30462 0.82714 0.39905 0.0
C1771 C 0.30546 0.83316 0.37577 0.0
C1772 C 0.30094 0.81479 0.35618 0.0
C1773 C 0.29535 0.78982 0.36081 0.0
H1774 H 0.63929 0.01564 0.67218 0.0
H1775 H 0.59205 0.94727 0.67381 0.0
H1776 H 0.5676 0.95655 0.6394 0.0
H1777 H 0.59919 0.05024 0.66123 0.0
H1778 H 0.61388 0.06998 0.64275 0.0
H1779 H 0.62896 0.05634 0.66511 0.0
H1780 H 0.64748 0.03826 0.63362 0.0
H1781 H 0.63202 0.05042 0.6103 0.0
H1782 H 0.63087 0.01792 0.60876 0.0
H1783 H 0.54696 0.97492 0.60729 0.0
H1784 H 0.53118 1.00087 0.58002 0.0
H1785 H 0.59091 0.0587 0.60034 0.0
C1786 C 0.62417 1.00221 0.66471 0.0
C1787 C 0.61782 0.98033 0.67516 0.0
C1788 C 0.59741 0.96381 0.6657 0.0
C1789 C 0.58342 0.96901 0.64623 0.0
C1790 C 0.58989 0.99104 0.63672 0.0
C1791 C 0.60975 1.00745 0.64571 0.0
C1792 C 0.61184 0.03087 0.63381 0.0
C1793 C 0.61357 0.05317 0.6518 0.0
C1794 C 0.63172 0.0346 0.62081 0.0
C1795 C 0.59001 0.02514 0.61668 0.0
C1796 C 0.57769 1.002 0.61862 0.0
C1797 C 0.55654 0.99296 0.6055 0.0
C1798 C 0.54767 1.00792 0.59012 0.0
C1799 C 0.55979 0.03181 0.58798 0.0
C1800 C 0.58133 0.04043 0.60139 0.0
H1801 H 0.34348 0.42951 0.95967 0.0
H1802 H 0.30932 0.36896 0.99252 0.0
H1803 H 0.30108 0.34287 0.95403 0.0
H1804 H 0.30886 0.41784 0.9033 0.0
H1805 H 0.33124 0.42591 0.88704 0.0
H1806 H 0.33399 0.43965 0.91691 0.0
H1807 H 0.36978 0.42456 0.92874 0.0
H1808 H 0.36724 0.41088 0.89886 0.0
H1809 H 0.36926 0.39244 0.92303 0.0
H1810 H 0.29422 0.32432 0.91005 0.0
H1811 H 0.29328 0.3138 0.86727 0.0
H1812 H 0.33576 0.38497 0.86441 0.0
C1813 C 0.33444 0.4107 0.95903 0.0
C1814 C 0.32707 0.40146 0.97951 0.0
C1815 C 0.31525 0.37663 0.97737 0.0
C1816 C 0.31043 0.36167 0.95545 0.0
C1817 C 0.31793 0.37148 0.9357 0.0
C1818 C 0.33007 0.39536 0.9375 0.0
C1819 C 0.33697 0.40144 0.91399 0.0
C1820 C 0.32718 0.42246 0.90477 0.0
C1821 C 0.36232 0.4077 0.9163 0.0
C1822 C 0.32661 0.37737 0.89842 0.0
C1823 C 0.31538 0.36041 0.91117 0.0
C1824 C 0.30331 0.3374 0.90016 0.0
C1825 C 0.30283 0.33157 0.87577 0.0
C1826 C 0.31473 0.34833 0.86247 0.0
C1827 C 0.32686 0.37153 0.87413 0.0
H1828 H 0.94951 0.07235 0.28181 0.0
H1829 H 0.882 0.04902 0.2942 0.0
H1830 H 0.89602 0.05072 0.33681 0.0
H1831 H 0.97218 0.03674 0.31944 0.0
H1832 H 0.99807 0.05869 0.32984 0.0
H1833 H 0.98273 0.05952 0.30104 0.0
H1834 H 0.98222 0.10493 0.31204 0.0
H1835 H 0.99777 0.10434 0.34089 0.0
H1836 H 0.97172 0.11331 0.33814 0.0
H1837 H 0.91752 0.04906 0.37678 0.0
H1838 H 0.94492 0.04587 0.41139 0.0
H1839 H 0.99818 0.0709 0.3729 0.0
C1840 C 0.93756 0.06819 0.29348 0.0
C1841 C 0.91462 0.0605 0.28456 0.0
C1842 C 0.89964 0.05499 0.30053 0.0
C1843 C 0.90744 0.05596 0.3248 0.0
C1844 C 0.93022 0.06279 0.33283 0.0
C1845 C 0.94504 0.06911 0.31767 0.0
C1846 C 0.96874 0.0738 0.33033 0.0
C1847 C 0.98114 0.05613 0.31952 0.0
C1848 C 0.98082 0.1007 0.33035 0.0
C1849 C 0.96497 0.06826 0.35483 0.0
C1850 C 0.94264 0.06216 0.35599 0.0
C1851 C 0.93504 0.05428 0.37623 0.0
C1852 C 0.95067 0.05239 0.39571 0.0
C1853 C 0.97357 0.05835 0.39475 0.0
C1854 C 0.98078 0.06678 0.37421 0.0
H1855 H 0.31608 0.79956 0.60184 0.0
H1856 H 0.29737 0.72325 0.61414 0.0
H1857 H 0.30179 0.73577 0.6569 0.0
H1858 H 0.35746 0.81983 0.65574 0.0
H1859 H 0.3504 0.84899 0.66076 0.0
H1860 H 0.34638 0.83407 0.63111 0.0
H1861 H 0.30516 0.836 0.62498 0.0
H1862 H 0.30907 0.8509 0.6546 0.0
H1863 H 0.288 0.82304 0.64539 0.0
H1864 H 0.30722 0.75702 0.69949 0.0
H1865 H 0.31339 0.78491 0.73661 0.0
H1866 H 0.32894 0.84745 0.69745 0.0
C1867 C 0.3131 0.78545 0.61352 0.0
C1868 C 0.30642 0.76023 0.6042 0.0
C1869 C 0.30254 0.7426 0.62045 0.0
C1870 C 0.30501 0.74958 0.64496 0.0
C1871 C 0.31142 0.77445 0.65352 0.0
C1872 C 0.31548 0.79214 0.63825 0.0
C1873 C 0.32184 0.81767 0.65204 0.0
C1874 C 0.34542 0.83092 0.64977 0.0
C1875 C 0.30501 0.83279 0.64376 0.0
C1876 C 0.32066 0.81162 0.6773 0.0
C1877 C 0.31461 0.78656 0.67782 0.0
C1878 C 0.31204 0.77667 0.69914 0.0
C1879 C 0.31558 0.79268 0.72027 0.0
C1880 C 0.32178 0.81849 0.72028 0.0
C1881 C 0.32442 0.82786 0.69831 0.0
H1882 H 0.65837 0.01163 0.8355 0.0
H1883 H 0.60308 0.96431 0.78715 0.0
H1884 H 0.57857 0.96855 0.81618 0.0
H1885 H 0.64148 0.99292 0.89142 0.0
H1886 H 0.65063 0.02386 0.90585 0.0
H1887 H 0.66439 0.01381 0.88299 0.0
H1888 H 0.65716 0.04997 0.85997 0.0
H1889 H 0.6433 0.06004 0.88264 0.0
H1890 H 0.62922 0.0536 0.85239 0.0
H1891 H 0.55945 0.98105 0.8491 0.0
H1892 H 0.5471 1.00216 0.88205 0.0
H1893 H 0.61469 0.0428 0.90757 0.0
C1894 C 0.64124 1.00166 0.83115 0.0
C1895 C 0.63271 0.98752 0.80903 0.0
C1896 C 0.61004 0.97517 0.80399 0.0
C1897 C 0.596 0.97742 0.82041 0.0
C1898 C 0.60485 0.99216 0.84174 0.0
C1899 C 0.62697 1.00407 0.8471 0.0
C1900 C 0.63197 0.02084 0.87003 0.0
C1901 C 0.64807 0.01234 0.88868 0.0
C1902 C 0.64093 0.04769 0.866 0.0
C1903 C 0.60911 0.01699 0.87648 0.0
C1904 C 0.59374 1.00004 0.86021 0.0
C1905 C 0.57138 0.99416 0.86207 0.0
C1906 C 0.56453 1.00618 0.88086 0.0
C1907 C 0.57993 0.02411 0.89732 0.0
C1908 C 0.60253 0.02925 0.89519 0.0
H1909 H 0.31306 0.36306 0.10553 0.0
H1910 H 0.34704 0.43563 0.1397 0.0
H1911 H 0.34228 0.42162 0.17856 0.0
H1912 H 0.27268 0.35099 0.14496 0.0
H1913 H 0.27271 0.31895 0.1452 0.0
H1914 H 0.27892 0.33434 0.11986 0.0
H1915 H 0.3161 0.32111 0.12339 0.0
H1916 H 0.31 0.3057 0.14874 0.0
H1917 H 0.33536 0.32872 0.15089 0.0
H1918 H 0.33332 0.39999 0.21447 0.0
H1919 H 0.32094 0.37279 0.24387 0.0
H1920 H 0.29297 0.31319 0.18818 0.0
C1921 C 0.31956 0.37602 0.12118 0.0
C1922 C 0.33057 0.40069 0.11915 0.0
C1923 C 0.33861 0.41679 0.14036 0.0
C1924 C 0.33596 0.40892 0.1627 0.0
C1925 C 0.3251 0.38469 0.16406 0.0
C1926 C 0.31697 0.36842 0.14386 0.0
C1927 C 0.30573 0.34339 0.15047 0.0
C1928 C 0.28104 0.33651 0.13946 0.0
C1929 C 0.3175 0.32355 0.14292 0.0
C1930 C 0.30886 0.3481 0.17746 0.0
C1931 C 0.32014 0.37212 0.18483 0.0
C1932 C 0.32482 0.38107 0.20879 0.0
C1933 C 0.31803 0.36527 0.22556 0.0
C1934 C 0.30677 0.34041 0.21885 0.0
C1935 C 0.30187 0.33191 0.1942 0.0
H1936 H 0.28337 0.01124 0.02779 0.0
H1937 H 0.26025 0.94222 0.05529 0.0
H1938 H 0.22602 0.95541 0.06161 0.0
H1939 H 0.26437 0.0489 0.06837 0.0
H1940 H 0.25728 0.06894 0.04696 0.0
H1941 H 0.27907 0.05337 0.04394 0.0
H1942 H 0.2592 0.03456 1.00173 0.0
H1943 H 0.23735 0.0501 1.00459 0.0
H1944 H 0.23088 0.01729 0.99728 0.0
H1945 H 0.1938 0.97762 0.06497 0.0
H1946 H 0.16849 1.0057 0.066 0.0
H1947 H 0.21407 0.05996 0.03671 0.0
C1948 C 0.27116 0.99856 0.03499 0.0
C1949 C 0.2747 0.9754 0.04085 0.0
C1950 C 0.25808 0.9599 0.05048 0.0
C1951 C 0.23856 0.96733 0.05415 0.0
C1952 C 0.23583 0.99038 0.04822 0.0
C1953 C 0.25185 1.0057 0.03887 0.0
C1954 C 0.24562 0.0298 0.03438 0.0
C1955 C 0.26259 0.05153 0.0493 0.0
C1956 C 0.24311 0.03312 1.00793 0.0
C1957 C 0.22348 0.02591 0.04267 0.0
C1958 C 0.21796 1.00304 0.05049 0.0
C1959 C 0.1981 0.99548 0.05883 0.0
C1960 C 0.18371 0.0116 0.05922 0.0
C1961 C 0.18912 0.03525 0.05147 0.0
C1962 C 0.20939 0.04225 0.04308 0.0
H1963 H 0.72879 0.66686 0.03277 0.0
H1964 H 0.7056 0.72203 0.99394 0.0
H1965 H 0.66684 0.70022 0.99366 0.0
H1966 H 0.68329 0.61169 1.00768 0.0
H1967 H 0.68387 0.60092 0.03621 0.0
H1968 H 0.70868 0.61954 0.0292 0.0
H1969 H 0.70969 0.64816 0.0676 0.0
H1970 H 0.68354 0.63001 0.07209 0.0
H1971 H 0.6868 0.66233 0.06967 0.0
H1972 H 0.63026 0.67366 0.99944 0.0
H1973 H 0.59885 0.64301 1.00853 0.0
H1974 H 0.64468 0.60417 0.0437 0.0
C1975 C 0.7155 0.67389 0.02361 0.0
C1976 C 0.72032 0.69589 0.01268 0.0
C1977 C 0.70241 0.70507 1.00196 0.0
C1978 C 0.6803 0.6928 1.00181 0.0
C1979 C 0.67607 0.67146 0.01298 0.0
C1980 C 0.69316 0.66197 0.02366 0.0
C1981 C 0.6839 0.63983 0.03605 0.0
C1982 C 0.6904 0.61664 0.02668 0.0
C1983 C 0.69143 0.64542 0.06295 0.0
C1984 C 0.65903 0.63746 0.02939 0.0
C1985 C 0.65495 0.65632 0.01659 0.0
C1986 C 0.63336 0.65871 1.00923 0.0
C1987 C 0.61555 0.64119 0.01456 0.0
C1988 C 0.61915 0.62098 0.02668 0.0
C1989 C 0.64131 0.61925 0.03424 0.0
H1990 H 0.76476 0.57441 0.38691 0.0
H1991 H 0.69615 0.53425 0.37161 0.0
H1992 H 0.70764 0.49715 0.35778 0.0
H1993 H 0.7786 0.55255 0.33646 0.0
H1994 H 0.80624 0.55039 0.34846 0.0
H1995 H 0.79377 0.57212 0.36263 0.0
H1996 H 0.80005 0.55346 0.40213 0.0
H1997 H 0.81305 0.53194 0.38826 0.0
H1998 H 0.78999 0.52099 0.40286 0.0
H1999 H 0.72537 0.46718 0.33949 0.0
H2000 H 0.74851 0.44505 0.31961 0.0
H2001 H 0.80596 0.50469 0.34549 0.0
C2002 C 0.75229 0.55753 0.38167 0.0
C2003 C 0.72961 0.55704 0.38063 0.0
C2004 C 0.71364 0.53484 0.37279 0.0
C2005 C 0.72001 0.51371 0.36489 0.0
C2006 C 0.74242 0.51514 0.36489 0.0
C2007 C 0.75839 0.53637 0.37332 0.0
C2008 C 0.78095 0.53392 0.36857 0.0
C2009 C 0.79043 0.5534 0.35311 0.0
C2010 C 0.79696 0.53514 0.39185 0.0
C2011 C 0.77497 0.50843 0.35529 0.0
C2012 C 0.75272 0.49781 0.35375 0.0
C2013 C 0.74292 0.47502 0.34107 0.0
C2014 C 0.75622 0.46259 0.32983 0.0
C2015 C 0.77911 0.47299 0.33122 0.0
C2016 C 0.78854 0.49625 0.34415 0.0
H2017 H 0.90412 0.45961 0.52284 0.0
H2018 H 0.88298 0.50473 0.57502 0.0
H2019 H 0.91888 0.53481 0.58021 0.0
H2020 H 0.96203 0.47324 0.55515 0.0
H2021 H 0.9741 0.47245 0.52877 0.0
H2022 H 0.94688 0.45382 0.52889 0.0
H2023 H 0.9293 0.47459 0.49309 0.0
H2024 H 0.95772 0.48917 0.49262 0.0
H2025 H 0.938 0.50758 0.49438 0.0
H2026 H 0.95615 0.56117 0.57857 0.0
H2027 H 0.99372 0.58078 0.57216 0.0
H2028 H 0.99174 0.51957 0.52079 0.0
C2029 C 0.90714 0.47589 0.53529 0.0
C2030 C 0.89041 0.48038 0.54789 0.0
C2031 C 0.89524 0.50138 0.56463 0.0
C2032 C 0.91564 0.51852 0.56777 0.0
C2033 C 0.93138 0.51429 0.55431 0.0
C2034 C 0.9276 0.49334 0.53861 0.0
C2035 C 0.94803 0.49289 0.52738 0.0
C2036 C 0.95837 0.47185 0.53554 0.0
C2037 C 0.94286 0.49091 0.50028 0.0
C2038 C 0.96299 0.51771 0.53774 0.0
C2039 C 0.95321 0.52941 0.55368 0.0
C2040 C 0.96394 0.55219 0.56609 0.0
C2041 C 0.98524 0.56326 0.56227 0.0
C2042 C 0.99549 0.55197 0.54569 0.0
C2043 C 0.98411 0.52889 0.5332 0.0
H2044 H 0.43677 0.2271 0.30757 0.0
H2045 H 0.41338 0.2014 0.37038 0.0
H2046 H 0.38261 0.22193 0.36303 0.0
H2047 H 0.41977 0.28834 0.31394 0.0
H2048 H 0.41232 0.28727 0.28236 0.0
H2049 H 0.43452 0.2739 0.2947 0.0
H2050 H 0.41464 0.23291 0.26925 0.0
H2051 H 0.39198 0.24587 0.2576 0.0
H2052 H 0.38676 0.21847 0.27223 0.0
H2053 H 0.35051 0.2372 0.34473 0.0
H2054 H 0.32376 0.25694 0.32242 0.0
H2055 H 0.36879 0.27658 0.27318 0.0
C2056 C 0.4259 0.22694 0.32046 0.0
C2057 C 0.42753 0.21261 0.33958 0.0
C2058 C 0.41251 0.21228 0.35566 0.0
C2059 C 0.39483 0.22371 0.35153 0.0
C2060 C 0.39265 0.23599 0.33155 0.0
C2061 C 0.40822 0.23866 0.31679 0.0
C2062 C 0.40136 0.25226 0.29613 0.0
C2063 C 0.41799 0.27691 0.29684 0.0
C2064 C 0.39852 0.23642 0.2724 0.0
C2065 C 0.37924 0.256 0.30125 0.0
C2066 C 0.37444 0.2461 0.32159 0.0
C2067 C 0.35429 0.24554 0.32907 0.0
C2068 C 0.33903 0.25643 0.31604 0.0
C2069 C 0.34414 0.26812 0.29601 0.0
C2070 C 0.36445 0.26767 0.2884 0.0
H2071 H 0.32346 0.16027 0.49685 0.0
H2072 H 0.3494 0.23075 0.53917 0.0
H2073 H 0.38591 0.22041 0.54844 0.0
H2074 H 0.3523 0.12584 0.53531 0.0
H2075 H 0.3568 0.10584 0.51151 0.0
H2076 H 0.33311 0.11925 0.50774 0.0
H2077 H 0.34514 0.13759 0.47058 0.0
H2078 H 0.36891 0.12429 0.47428 0.0
H2079 H 0.37252 0.15681 0.47273 0.0
H2080 H 0.42021 0.20198 0.55268 0.0
H2081 H 0.44814 0.1772 0.55272 0.0
H2082 H 0.39894 0.11783 0.50931 0.0
C2083 C 0.33679 0.17371 0.50796 0.0
C2084 C 0.33339 0.19652 0.51711 0.0
C2085 C 0.35142 0.21323 0.53184 0.0
C2086 C 0.37229 0.20749 0.53719 0.0
C2087 C 0.37498 0.18484 0.52788 0.0
C2088 C 0.35763 0.16818 0.51366 0.0
C2089 C 0.36455 0.1448 0.50637 0.0
C2090 C 0.35088 0.12263 0.5158 0.0
C2091 C 0.36267 0.14064 0.47939 0.0
C2092 C 0.38858 0.15087 0.51859 0.0
C2093 C 0.39434 0.17408 0.53082 0.0
C2094 C 0.41573 0.18371 0.54328 0.0
C2095 C 0.43153 0.16931 0.54333 0.0
C2096 C 0.42604 0.14525 0.53115 0.0
C2097 C 0.40409 0.13614 0.51861 0.0
H2098 H 0.7528 0.66456 0.35902 0.0
H2099 H 0.69912 0.69765 0.37248 0.0
H2100 H 0.7187 0.73681 0.36045 0.0
H2101 H 0.79918 0.71802 0.37624 0.0
H2102 H 0.8127 0.71194 0.35177 0.0
H2103 H 0.79639 0.68685 0.36345 0.0
H2104 H 0.77211 0.67077 0.32349 0.0
H2105 H 0.78845 0.69487 0.31043 0.0
H2106 H 0.75888 0.69113 0.30692 0.0
H2107 H 0.74174 0.77031 0.34156 0.0
H2108 H 0.76867 0.79704 0.322 0.0
H2109 H 0.80763 0.74231 0.32166 0.0
C2110 C 0.74572 0.68042 0.36053 0.0
C2111 C 0.72483 0.67847 0.36744 0.0
C2112 C 0.71538 0.69911 0.36783 0.0
C2113 C 0.72632 0.7213 0.36089 0.0
C2114 C 0.74655 0.72237 0.35331 0.0
C2115 C 0.75629 0.70254 0.35337 0.0
C2116 C 0.77691 0.70755 0.34214 0.0
C2117 C 0.79752 0.70604 0.35951 0.0
C2118 C 0.7739 0.69005 0.3194 0.0
C2119 C 0.7777 0.73354 0.33652 0.0
C2120 C 0.75978 0.7416 0.34257 0.0
C2121 C 0.75604 0.76431 0.33721 0.0
C2122 C 0.77131 0.77931 0.32594 0.0
C2123 C 0.79021 0.77173 0.32057 0.0
C2124 C 0.7934 0.74857 0.3259 0.0
H2125 H 0.94531 0.58802 0.78561 0.0
H2126 H 0.99082 0.59044 0.85046 0.0
H2127 H 0.98448 0.54517 0.84506 0.0
H2128 H 0.90669 0.5437 0.78272 0.0
H2129 H 0.90389 0.52774 0.75389 0.0
H2130 H 0.91732 0.55965 0.75954 0.0
H2131 H 0.9518 0.55002 0.74534 0.0
H2132 H 0.93826 0.51785 0.74001 0.0
H2133 H 0.96497 0.52777 0.75872 0.0
H2134 H 0.96296 0.50256 0.84032 0.0
H2135 H 0.93194 0.46634 0.83434 0.0
H2136 H 0.90435 0.48993 0.7689 0.0
C2137 C 0.95436 0.57882 0.79815 0.0
C2138 C 0.96748 0.59196 0.81906 0.0
C2139 C 0.98004 0.58016 0.8348 0.0
C2140 C 0.97687 0.55462 0.83161 0.0
C2141 C 0.96256 0.54171 0.81154 0.0
C2142 C 0.95262 0.55357 0.79425 0.0
C2143 C 0.93729 0.53528 0.77498 0.0
C2144 C 0.91498 0.54201 0.76739 0.0
C2145 C 0.94877 0.53257 0.75351 0.0
C2146 C 0.93536 0.5124 0.78756 0.0
C2147 C 0.95144 0.51599 0.80766 0.0
C2148 C 0.95098 0.49902 0.82412 0.0
C2149 C 0.93319 0.47852 0.82065 0.0
C2150 C 0.91588 0.47543 0.8011 0.0
C2151 C 0.91759 0.4919 0.78382 0.0
H2152 H 0.0493 0.90178 0.09684 0.0
H2153 H 0.11768 0.92473 0.13236 0.0
H2154 H 0.11974 0.96575 0.11868 0.0
H2155 H 0.05522 0.93379 0.04603 0.0
H2156 H 0.029 0.9423 0.04398 0.0
H2157 H 0.0326 0.91489 0.05684 0.0
H2158 H 0.02053 0.93053 0.09502 0.0
H2159 H 0.01676 0.95794 0.08223 0.0
H2160 H 0.03474 0.96024 0.11024 0.0
H2161 H 0.11504 1.00352 0.09935 0.0
H2162 H 0.10359 0.0366 0.07906 0.0
H2163 H 0.03728 0.99073 0.0568 0.0
C2164 C 0.06473 0.91544 0.10191 0.0
C2165 C 0.08342 0.90978 0.11576 0.0
C2166 C 0.10314 0.92842 0.12196 0.0
C2167 C 0.10446 0.95181 0.11414 0.0
C2168 C 0.08586 0.95657 0.10031 0.0
C2169 C 0.06625 0.93902 0.09451 0.0
C2170 C 0.04861 0.94903 0.07964 0.0
C2171 C 0.04091 0.93411 0.05517 0.0
C2172 C 0.029 0.94946 0.09255 0.0
C2173 C 0.06141 0.97494 0.07774 0.0
C2174 C 0.08292 0.97869 0.08969 0.0
C2175 C 0.09822 1.00074 0.09008 0.0
C2176 C 0.09148 0.01948 0.07821 0.0
C2177 C 0.06946 0.01653 0.06598 0.0
C2178 C 0.05419 0.99378 0.06591 0.0
H2179 H 0.96268 0.29579 0.86128 0.0
H2180 H 0.96397 0.34953 0.91969 0.0
H2181 H 0.92957 0.35853 0.89903 0.0
H2182 H 0.93459 0.31924 0.80877 0.0
H2183 H 0.91959 0.28847 0.7994 0.0
H2184 H 0.94633 0.29408 0.81803 0.0
H2185 H 0.92205 0.26379 0.84349 0.0
H2186 H 0.89638 0.26533 0.82548 0.0
H2187 H 0.90128 0.27479 0.85675 0.0
H2188 H 0.89699 0.36457 0.87031 0.0
H2189 H 0.86444 0.36171 0.83931 0.0
H2190 H 0.88088 0.3006 0.80108 0.0
C2191 C 0.9558 0.30968 0.86946 0.0
C2192 C 0.9666 0.32295 0.8916 0.0
C2193 C 0.95634 0.33974 0.9025 0.0
C2194 C 0.93681 0.34499 0.89085 0.0
C2195 C 0.92697 0.33235 0.86871 0.0
C2196 C 0.93561 0.31434 0.85847 0.0
C2197 C 0.9197 0.30095 0.83633 0.0
C2198 C 0.93085 0.30067 0.81443 0.0
C2199 C 0.90923 0.27466 0.84078 0.0
C2200 C 0.90248 0.31641 0.8341 0.0
C2201 C 0.9068 0.33409 0.85329 0.0
C2202 C 0.89337 0.35065 0.85532 0.0
C2203 C 0.87497 0.34901 0.8375 0.0
C2204 C 0.87011 0.33115 0.81756 0.0
C2205 C 0.88421 0.31468 0.8159 0.0
H2206 H 0.5639 0.25015 0.63758 0.0
H2207 H 0.59601 0.2893 0.58566 0.0
H2208 H 0.59772 0.24997 0.56463 0.0
H2209 H 0.59481 0.20336 0.63963 0.0
H2210 H 0.57193 0.17877 0.64248 0.0
H2211 H 0.57248 0.20982 0.65343 0.0
H2212 H 0.53415 0.20763 0.62703 0.0
H2213 H 0.53359 0.17602 0.61819 0.0
H2214 H 0.53024 0.19647 0.59613 0.0
H2215 H 0.59795 0.20642 0.55035 0.0
H2216 H 0.59263 0.16151 0.54116 0.0
H2217 H 0.55826 0.14952 0.60047 0.0
C2218 C 0.57101 0.25032 0.62161 0.0
C2219 C 0.57937 0.27283 0.61293 0.0
C2220 C 0.58899 0.27232 0.59227 0.0
C2221 C 0.59019 0.25004 0.58031 0.0
C2222 C 0.58176 0.22818 0.5892 0.0
C2223 C 0.57202 0.22806 0.60917 0.0
C2224 C 0.56424 0.20187 0.6149 0.0
C2225 C 0.57661 0.19825 0.63904 0.0
C2226 C 0.53906 0.19514 0.61402 0.0
C2227 C 0.57088 0.18735 0.5949 0.0
C2228 C 0.58137 0.20298 0.58057 0.0
C2229 C 0.58965 0.19404 0.56139 0.0
C2230 C 0.58672 0.16852 0.55639 0.0
C2231 C 0.57529 0.15208 0.57022 0.0
C2232 C 0.56727 0.16169 0.58974 0.0
H2233 H 0.58015 0.83815 0.36372 0.0
H2234 H 0.59236 0.80252 0.42708 0.0
H2235 H 0.62917 0.79977 0.41776 0.0
H2236 H 0.60355 0.80194 0.32714 0.0
H2237 H 0.6147 0.82679 0.31121 0.0
H2238 H 0.59034 0.82724 0.32395 0.0
H2239 H 0.60954 0.86968 0.34718 0.0
H2240 H 0.63394 0.86946 0.33441 0.0
H2241 H 0.63598 0.87347 0.36605 0.0
H2242 H 0.66468 0.79966 0.39952 0.0
H2243 H 0.69411 0.80214 0.37502 0.0
H2244 H 0.65724 0.83788 0.32421 0.0
C2245 C 0.59051 0.82993 0.37593 0.0
C2246 C 0.58319 0.8206 0.39627 0.0
C2247 C 0.59752 0.80996 0.4115 0.0
C2248 C 0.61846 0.80827 0.40628 0.0
C2249 C 0.62487 0.81735 0.3858 0.0
C2250 C 0.61121 0.82806 0.37099 0.0
C2251 C 0.62124 0.8358 0.34968 0.0
C2252 C 0.60658 0.82212 0.32664 0.0
C2253 C 0.62542 0.86376 0.34932 0.0
C2254 C 0.64273 0.82765 0.35453 0.0
C2255 C 0.64471 0.81713 0.37546 0.0
C2256 C 0.66322 0.808 0.3832 0.0
C2257 C 0.67995 0.80959 0.36919 0.0
C2258 C 0.67807 0.82012 0.34754 0.0
C2259 C 0.65917 0.82937 0.34041 0.0
H2260 H 0.05015 0.26608 0.48893 0.0
H2261 H 1.01315 0.23668 0.41909 0.0
H2262 H 1.01085 0.19471 0.42974 0.0
H2263 H 0.08195 0.21925 0.49457 0.0
H2264 H 0.08143 0.21771 0.52561 0.0
H2265 H 0.0799 0.24578 0.51296 0.0
H2266 H 0.0435 0.2459 0.52869 0.0
H2267 H 0.04492 0.2178 0.54135 0.0
H2268 H 0.0206 0.21948 0.52105 0.0
H2269 H 1.01268 0.15506 0.44753 0.0
H2270 H 0.01915 0.12142 0.47084 0.0
H2271 H 0.05523 0.17488 0.52965 0.0
C2272 C 0.04147 0.25082 0.47592 0.0
C2273 C 0.03176 0.25511 0.45303 0.0
C2274 C 0.02074 0.23432 0.43667 0.0
C2275 C 0.01931 0.2102 0.44258 0.0
C2276 C 0.02902 0.2066 0.46508 0.0
C2277 C 0.03995 0.22632 0.48154 0.0
C2278 C 0.04926 0.21705 0.50435 0.0
C2279 C 0.07464 0.22545 0.50968 0.0
C2280 C 0.03895 0.22557 0.52509 0.0
C2281 C 0.04184 0.1892 0.49812 0.0
C2282 C 0.03014 0.18365 0.47534 0.0
C2283 C 0.02178 0.15929 0.46541 0.0
C2284 C 0.02552 0.14017 0.4789 0.0
C2285 C 0.03758 0.1451 0.50232 0.0
C2286 C 0.04575 0.17019 0.51195 0.0
H2287 H 0.6607 0.31867 0.16819 0.0
H2288 H 0.64836 0.38472 0.20205 0.0
H2289 H 0.68295 0.39028 0.23056 0.0
H2290 H 0.68193 0.29685 0.2216 0.0
H2291 H 0.70298 0.28475 0.21002 0.0
H2292 H 0.67822 0.28658 0.19054 0.0
H2293 H 0.70182 0.31218 0.16405 0.0
H2294 H 0.72666 0.31014 0.18329 0.0
H2295 H 0.722 0.33972 0.17704 0.0
H2296 H 0.71777 0.38837 0.25656 0.0
H2297 H 0.75183 0.37991 0.27789 0.0
H2298 H 0.74271 0.31413 0.22939 0.0
C2299 C 0.66565 0.33463 0.18122 0.0
C2300 C 0.65188 0.35154 0.18256 0.0
C2301 C 0.65864 0.3717 0.20044 0.0
C2302 C 0.67827 0.37497 0.21682 0.0
C2303 C 0.69116 0.35779 0.21548 0.0
C2304 C 0.6853 0.33805 0.19813 0.0
C2305 C 0.70196 0.32187 0.2016 0.0
C2306 C 0.69059 0.29597 0.20621 0.0
C2307 C 0.71381 0.32093 0.18022 0.0
C2308 C 0.7179 0.3356 0.22359 0.0
C2309 C 0.71125 0.35631 0.23112 0.0
C2310 C 0.72314 0.37221 0.2508 0.0
C2311 C 0.74252 0.36717 0.26289 0.0
C2312 C 0.75005 0.34625 0.2556 0.0
C2313 C 0.73732 0.33008 0.23572 0.0
H2314 H 0.53571 0.89451 0.98399 0.0
H2315 H 0.57262 0.91674 0.92828 0.0
H2316 H 0.58144 0.95952 0.94601 0.0
H2317 H 0.51273 0.94772 0.9887 0.0
H2318 H 0.51514 0.95048 0.0204 0.0
H2319 H 0.51203 0.9209 1.00414 0.0
H2320 H 0.54796 0.91543 0.0295 0.0
H2321 H 0.55106 0.94489 0.04597 0.0
H2322 H 0.57319 0.93867 0.0317 0.0
H2323 H 0.58476 1.00103 0.96803 0.0
H2324 H 0.58491 0.0374 0.9951 0.0
H2325 H 0.54746 0.99015 0.0382 0.0
C2326 C 0.54605 0.90827 0.97583 0.0
C2327 C 0.55344 0.90173 0.95454 0.0
C2328 C 0.5666 0.92079 0.94443 0.0
C2329 C 0.57174 0.94539 0.95438 0.0
C2330 C 0.56384 0.9513 0.97484 0.0
C2331 C 0.5515 0.93332 0.9857 0.0
C2332 C 0.54503 0.94513 1.00758 0.0
C2333 C 0.51973 0.94079 1.00505 0.0
C2334 C 0.5549 0.93545 0.03002 0.0
C2335 C 0.55567 0.9723 1.0072 0.0
C2336 C 0.56626 0.97539 0.98797 0.0
C2337 C 0.57674 0.99874 0.98332 0.0
C2338 C 0.57672 0.01941 0.99882 0.0
C2339 C 0.56647 0.01688 0.01904 0.0
C2340 C 0.55569 0.99284 0.02308 0.0
H2341 H 0.04093 0.87592 0.70769 0.0
H2342 H 0.01594 0.82176 0.64637 0.0
H2343 H 0.97817 0.81621 0.65626 0.0
H2344 H 1.00764 0.84575 0.74621 0.0
H2345 H 1.00401 0.87381 0.76065 0.0
H2346 H 0.02858 0.87375 0.74815 0.0
H2347 H 0.02066 0.9081 0.72289 0.0
H2348 H 0.99611 0.90835 0.73537 0.0
H2349 H 0.99427 0.90366 0.70377 0.0
H2350 H 0.9427 0.81633 0.67432 0.0
H2351 H 0.91402 0.82206 0.69782 0.0
H2352 H 0.96319 0.87683 0.74652 0.0
C2353 C 0.02762 0.86292 0.6961 0.0
C2354 C 0.03163 0.84931 0.67609 0.0
C2355 C 1.01346 0.83249 0.6617 0.0
C2356 C 0.99191 0.82921 0.66724 0.0
C2357 C 0.98872 0.84287 0.68723 0.0
C2358 C 1.00619 0.85944 0.70135 0.0
C2359 C 0.9988 0.87178 0.72202 0.0
C2360 C 1.01045 0.86591 0.74565 0.0
C2361 C 1.00269 0.89962 0.72093 0.0
C2362 C 0.97434 0.85963 0.71751 0.0
C2363 C 0.96874 0.84299 0.69739 0.0
C2364 C 0.94701 0.82944 0.68999 0.0
C2365 C 0.93073 0.83296 0.70344 0.0
C2366 C 0.93611 0.84995 0.72419 0.0
C2367 C 0.95834 0.86343 0.73106 0.0
H2368 H 0.17214 0.09959 0.94783 0.0
H2369 H 0.13073 0.10028 0.88039 0.0
H2370 H 0.09746 0.08548 0.89752 0.0
H2371 H 0.13727 0.04445 0.96415 0.0
H2372 H 0.14181 0.05584 0.99498 0.0
H2373 H 0.1629 0.06557 0.9775 0.0
H2374 H 0.16308 0.1117 0.98793 0.0
H2375 H 0.14378 0.10118 1.00689 0.0
H2376 H 0.13699 0.12066 0.98475 0.0
H2377 H 0.06842 0.07105 0.92163 0.0
H2378 H 0.04556 0.06247 0.95278 0.0
H2379 H 0.10498 0.07102 1.00468 0.0
C2380 C 0.15608 0.09671 0.93672 0.0
C2381 C 0.15417 0.10108 0.91272 0.0
C2382 C 0.13276 0.09696 0.89878 0.0
C2383 C 0.11368 0.08842 0.9083 0.0
C2384 C 0.11613 0.08391 0.93183 0.0
C2385 C 0.13674 0.08803 0.94594 0.0
C2386 C 0.13459 0.08253 0.97094 0.0
C2387 C 0.14475 0.06081 0.97725 0.0
C2388 C 0.14519 0.10541 0.98865 0.0
C2389 C 0.10955 0.07564 0.96883 0.0
C2390 C 0.09926 0.07598 0.94594 0.0
C2391 C 0.07625 0.07059 0.9396 0.0
C2392 C 0.06339 0.06552 0.95731 0.0
C2393 C 0.07361 0.06621 0.981 0.0
C2394 C 0.09691 0.07074 0.9867 0.0
H2395 H 0.83555 0.43737 0.63005 0.0
H2396 H 0.82318 0.36893 0.58461 0.0
H2397 H 0.82265 0.34618 0.61952 0.0
H2398 H 0.87072 0.42041 0.67965 0.0
H2399 H 0.85943 0.43518 0.70216 0.0
H2400 H 0.85955 0.44674 0.67382 0.0
H2401 H 0.81725 0.4425 0.66857 0.0
H2402 H 0.81704 0.43109 0.69696 0.0
H2403 H 0.79944 0.41331 0.67103 0.0
H2404 H 0.82365 0.33025 0.65905 0.0
H2405 H 0.82305 0.32165 0.70007 0.0
H2406 H 0.83335 0.39946 0.7222 0.0
C2407 C 0.83277 0.41759 0.62745 0.0
C2408 C 0.82949 0.40507 0.60421 0.0
C2409 C 0.82573 0.37913 0.6019 0.0
C2410 C 0.82548 0.36597 0.62177 0.0
C2411 C 0.82882 0.37874 0.64425 0.0
C2412 C 0.83218 0.40397 0.64731 0.0
C2413 C 0.8345 0.41284 0.67361 0.0
C2414 C 0.85742 0.4298 0.68285 0.0
C2415 C 0.81595 0.4257 0.67778 0.0
C2416 C 0.83195 0.3887 0.68477 0.0
C2417 C 0.82888 0.36938 0.66733 0.0
C2418 C 0.82599 0.34527 0.67278 0.0
C2419 C 0.82572 0.34058 0.69637 0.0
C2420 C 0.8282 0.35971 0.71486 0.0
C2421 C 0.83167 0.38429 0.70881 0.0
H2422 H 0.46886 0.11988 0.40243 0.0
H2423 H 0.51696 0.18218 0.38717 0.0
H2424 H 0.54365 0.1767 0.42139 0.0
H2425 H 0.48395 0.12908 0.46711 0.0
H2426 H 0.48023 0.09669 0.46938 0.0
H2427 H 0.46401 0.10727 0.4455 0.0
H2428 H 0.47773 0.08 0.41544 0.0
H2429 H 0.49398 0.06953 0.43934 0.0
H2430 H 0.50705 0.08341 0.41634 0.0
H2431 H 0.56576 0.16326 0.45629 0.0
H2432 H 0.58196 0.1421 0.48816 0.0
H2433 H 0.52029 0.08699 0.47901 0.0
C2434 C 0.48485 0.13266 0.40644 0.0
C2435 C 0.49071 0.15158 0.39207 0.0
C2436 C 0.51201 0.1676 0.39788 0.0
C2437 C 0.52729 0.16465 0.41733 0.0
C2438 C 0.52114 0.14547 0.43075 0.0
C2439 C 0.50043 0.1297 0.42552 0.0
C2440 C 0.49851 0.10946 0.44162 0.0
C2441 C 0.4806 0.11073 0.4568 0.0
C2442 C 0.49406 0.08411 0.42733 0.0
C2443 C 0.52142 0.11617 0.45661 0.0
C2444 C 0.53412 0.13718 0.45025 0.0
C2445 C 0.55593 0.14683 0.46143 0.0
C2446 C 0.565 0.13465 0.47949 0.0
C2447 C 0.5524 0.1129 0.48605 0.0
C2448 C 0.53029 0.10365 0.47447 0.0
H2449 H 0.76986 0.7372 0.10842 0.0
H2450 H 0.82305 0.79013 0.08801 0.0
H2451 H 0.83314 0.81049 0.12889 0.0
H2452 H 0.75382 0.78122 0.14789 0.0
H2453 H 0.7472 0.76023 0.1693 0.0
H2454 H 0.74458 0.74874 0.1387 0.0
H2455 H 0.77057 0.72011 0.15053 0.0
H2456 H 0.77323 0.73148 0.18116 0.0
H2457 H 0.7976 0.73296 0.16788 0.0
H2458 H 0.83847 0.82479 0.1723 0.0
H2459 H 0.8371 0.8338 0.21449 0.0
H2460 H 0.77872 0.77439 0.20787 0.0
C2461 C 0.78375 0.75295 0.11264 0.0
C2462 C 0.79581 0.76184 0.0948 0.0
C2463 C 0.81357 0.78283 0.10114 0.0
C2464 C 0.81947 0.79455 0.12443 0.0
C2465 C 0.80727 0.7855 0.14149 0.0
C2466 C 0.78961 0.76533 0.13591 0.0
C2467 C 0.77875 0.76018 0.15762 0.0
C2468 C 0.75465 0.76275 0.1531 0.0
C2469 C 0.78012 0.73466 0.16471 0.0
C2470 C 0.79316 0.78045 0.17621 0.0
C2471 C 0.80965 0.79462 0.16644 0.0
C2472 C 0.82552 0.81388 0.18003 0.0
C2473 C 0.82463 0.81884 0.20412 0.0
C2474 C 0.80778 0.80499 0.21473 0.0
C2475 C 0.79169 0.78557 0.20036 0.0
H2476 H 0.19814 0.11114 0.77976 0.0
H2477 H 0.15789 0.0447 0.79801 0.0
H2478 H 0.13842 0.03482 0.75686 0.0
H2479 H 0.15803 0.12926 0.74888 0.0
H2480 H 0.17166 0.14165 0.7256 0.0
H2481 H 0.18774 0.13989 0.75367 0.0
H2482 H 0.21095 0.11429 0.73369 0.0
H2483 H 0.19536 0.11653 0.70528 0.0
H2484 H 0.1972 0.08688 0.7142 0.0
H2485 H 0.11672 0.03828 0.71882 0.0
H2486 H 0.09672 0.05231 0.68456 0.0
H2487 H 0.15146 0.11578 0.68889 0.0
C2488 C 0.18619 0.0938 0.77463 0.0
C2489 C 0.17962 0.07849 0.79178 0.0
C2490 C 0.16324 0.05647 0.78493 0.0
C2491 C 0.15211 0.05071 0.76159 0.0
C2492 C 0.15772 0.0671 0.74535 0.0
C2493 C 0.17475 0.08795 0.75135 0.0
C2494 C 0.17502 0.10445 0.73172 0.0
C2495 C 0.17297 0.13031 0.74051 0.0
C2496 C 0.19587 0.10559 0.72056 0.0
C2497 C 0.15448 0.09064 0.71475 0.0
C2498 C 0.14503 0.06891 0.72272 0.0
C2499 C 0.12441 0.05471 0.71182 0.0
C2500 C 0.11314 0.0629 0.69228 0.0
C2501 C 0.12251 0.0851 0.68369 0.0
C2502 C 0.1437 0.09879 0.69493 0.0
H2503 H 0.80894 0.39036 0.47057 0.0
H2504 H 0.83532 0.46434 0.45452 0.0
H2505 H 0.8336 0.44898 0.41368 0.0
H2506 H 0.83478 0.35795 0.42956 0.0
H2507 H 0.81094 0.33303 0.41937 0.0
H2508 H 0.81493 0.34887 0.44864 0.0
H2509 H 0.77623 0.35824 0.43934 0.0
H2510 H 0.77214 0.34243 0.41003 0.0
H2511 H 0.76955 0.37374 0.41388 0.0
H2512 H 0.83288 0.42666 0.37525 0.0
H2513 H 0.82752 0.39854 0.33906 0.0
H2514 H 0.79529 0.33859 0.37399 0.0
C2515 C 0.81441 0.40329 0.45849 0.0
C2516 C 0.82293 0.42878 0.4667 0.0
C2517 C 0.82931 0.4448 0.44967 0.0
C2518 C 0.82832 0.43625 0.42601 0.0
C2519 C 0.82022 0.41142 0.41863 0.0
C2520 C 0.81283 0.39506 0.43402 0.0
C2521 C 0.8037 0.36944 0.42026 0.0
C2522 C 0.81688 0.35124 0.43005 0.0
C2523 C 0.77893 0.36042 0.42092 0.0
C2524 C 0.80752 0.37419 0.39511 0.0
C2525 C 0.81747 0.39861 0.39502 0.0
C2526 C 0.82446 0.40764 0.3749 0.0
C2527 C 0.82113 0.39149 0.35422 0.0
C2528 C 0.80999 0.36656 0.35298 0.0
C2529 C 0.8031 0.35775 0.37393 0.0
H2530 H 0.52697 0.17873 0.28551 0.0
H2531 H 0.47006 0.19768 0.24558 0.0
H2532 H 0.48519 0.19226 0.20882 0.0
H2533 H 0.5693 0.20235 0.24716 0.0
H2534 H 0.58125 0.17616 0.25065 0.0
H2535 H 0.5693 0.18816 0.27419 0.0
H2536 H 0.54391 0.14516 0.27414 0.0
H2537 H 0.55544 0.13311 0.25043 0.0
H2538 H 0.52598 0.13025 0.24716 0.0
H2539 H 0.5034 0.17854 0.17604 0.0
H2540 H 0.52207 0.15646 0.1499 0.0
H2541 H 0.56506 0.1424 0.21121 0.0
C2542 C 0.51835 0.18308 0.2692 0.0
C2543 C 0.49774 0.18944 0.2684 0.0
C2544 C 0.48618 0.19347 0.24656 0.0
C2545 C 0.49465 0.19037 0.22563 0.0
C2546 C 0.51453 0.18289 0.22683 0.0
C2547 C 0.52627 0.17933 0.24811 0.0
C2548 C 0.54503 0.16728 0.24431 0.0
C2549 C 0.56756 0.18452 0.25469 0.0
C2550 C 0.54241 0.14249 0.25461 0.0
C2551 C 0.54158 0.16382 0.21759 0.0
C2552 C 0.52426 0.17347 0.20784 0.0
C2553 C 0.51711 0.17113 0.1835 0.0
C2554 C 0.52769 0.15828 0.1688 0.0
C2555 C 0.54499 0.14746 0.17843 0.0
C2556 C 0.5522 0.15077 0.20318 0.0
H2557 H 0.774 0.72986 0.92585 0.0
H2558 H 0.80121 0.78976 0.98176 0.0
H2559 H 0.81108 0.8176 0.95193 0.0
H2560 H 0.81435 0.74664 0.88844 0.0
H2561 H 0.79502 0.73853 0.86102 0.0
H2562 H 0.78933 0.72315 0.88649 0.0
H2563 H 0.75168 0.73539 0.88317 0.0
H2564 H 0.75728 0.75081 0.85767 0.0
H2565 H 0.7509 0.76723 0.88279 0.0
H2566 H 0.82041 0.83886 0.91618 0.0
H2567 H 0.82712 0.85214 0.87759 0.0
H2568 H 0.79254 0.77994 0.8431 0.0
C2569 C 0.78193 0.74888 0.93189 0.0
C2570 C 0.78678 0.75736 0.95659 0.0
C2571 C 0.79714 0.78253 0.96328 0.0
C2572 C 0.80288 0.79859 0.94633 0.0
C2573 C 0.79802 0.78962 0.92234 0.0
C2574 C 0.78757 0.76538 0.91503 0.0
C2575 C 0.78433 0.76059 0.88802 0.0
C2576 C 0.79648 0.74107 0.88056 0.0
C2577 C 0.75958 0.75305 0.87728 0.0
C2578 C 0.79499 0.78574 0.88134 0.0
C2579 C 0.80276 0.80215 0.90154 0.0
C2580 C 0.81411 0.82617 0.90031 0.0
C2581 C 0.81785 0.83361 0.87816 0.0
C2582 C 0.81012 0.81742 0.857 0.0
C2583 C 0.79826 0.79308 0.85873 0.0
H2584 H 0.83455 0.17054 1.00192 0.0
H2585 H 0.86498 0.23615 0.05048 0.0
H2586 H 0.89971 0.22146 0.05762 0.0
H2587 H 0.85833 0.12928 0.03522 0.0
H2588 H 0.86141 0.11072 1.0096 0.0
H2589 H 0.83971 0.12716 1.00767 0.0
H2590 H 0.85413 0.14843 0.97289 0.0
H2591 H 0.87589 0.13205 0.97469 0.0
H2592 H 0.88261 0.16507 0.97662 0.0
H2593 H 0.93133 0.19822 0.05972 0.0
H2594 H 0.95588 0.16963 0.05697 0.0
H2595 H 0.90352 0.11883 1.00797 0.0
C2596 C 0.84849 0.18215 0.01393 0.0
C2597 C 0.84684 0.20479 0.02549 0.0
C2598 C 0.86567 0.21892 0.04124 0.0
C2599 C 0.8855 0.21064 0.04542 0.0
C2600 C 0.88633 0.18812 0.03382 0.0
C2601 C 0.86822 0.17414 0.01839 0.0
C2602 C 0.87284 0.15028 1.00857 0.0
C2603 C 0.85714 0.12805 0.0157 0.0
C2604 C 0.87128 0.14889 0.98159 0.0
C2605 C 0.89649 0.15283 0.02083 0.0
C2606 C 0.90406 0.17479 0.03529 0.0
C2607 C 0.92542 0.181 0.04848 0.0
C2608 C 0.93925 0.16445 0.0469 0.0
C2609 C 0.93184 0.14167 0.03231 0.0
C2610 C 0.91005 0.13606 0.01909 0.0
H2611 H 0.39848 0.4945 0.07444 0.0
H2612 H 0.40089 0.43333 0.02531 0.0
H2613 H 0.43757 0.45556 0.01851 0.0
H2614 H 0.43147 0.54908 0.05172 0.0
H2615 H 0.44351 0.56005 0.08164 0.0
H2616 H 0.41639 0.53973 0.07519 0.0
H2617 H 0.43687 0.51533 0.10687 0.0
H2618 H 0.46369 0.53475 0.10639 0.0
H2619 H 0.45869 0.50216 0.09848 0.0
H2620 H 0.47321 0.48557 0.01501 0.0
H2621 H 0.50682 0.51893 0.01846 0.0
H2622 H 0.48371 0.56011 0.07215 0.0
C2623 C 0.40667 0.48602 0.06201 0.0
C2624 C 0.3963 0.4625 0.04955 0.0
C2625 C 0.40818 0.45145 0.03458 0.0
C2626 C 0.42905 0.46401 0.03058 0.0
C2627 C 0.43858 0.48734 0.04256 0.0
C2628 C 0.4281 0.498 0.05854 0.0
C2629 C 0.44356 0.52177 0.07138 0.0
C2630 C 0.43295 0.54387 0.06988 0.0
C2631 C 0.45115 0.51829 0.09731 0.0
C2632 C 0.46287 0.52438 0.05783 0.0
C2633 C 0.45992 0.50387 0.04181 0.0
C2634 C 0.47561 0.50168 0.02751 0.0
C2635 C 0.49466 0.52085 0.02949 0.0
C2636 C 0.49789 0.54244 0.04522 0.0
C2637 C 0.48166 0.54408 0.05963 0.0
H2638 H 0.34679 0.58661 0.70594 0.0
H2639 H 0.41414 0.62162 0.7001 0.0
H2640 H 0.40464 0.66215 0.70316 0.0
H2641 H 0.31869 0.63143 0.67544 0.0
H2642 H 0.2993 0.62902 0.69569 0.0
H2643 H 0.31015 0.60297 0.68763 0.0
H2644 H 0.32351 0.60005 0.73192 0.0
H2645 H 0.31298 0.62613 0.74011 0.0
H2646 H 0.34169 0.62643 0.74991 0.0
H2647 H 0.38939 0.69887 0.71403 0.0
H2648 H 0.36985 0.72805 0.73066 0.0
H2649 H 0.31319 0.66809 0.73063 0.0
C2650 C 0.35941 0.60272 0.70457 0.0
C2651 C 0.38121 0.601 0.70281 0.0
C2652 C 0.39727 0.62251 0.70121 0.0
C2653 C 0.39201 0.64559 0.70296 0.0
C2654 C 0.37057 0.64669 0.70591 0.0
C2655 C 0.35446 0.6257 0.70634 0.0
C2656 C 0.33352 0.63164 0.71249 0.0
C2657 C 0.31428 0.62327 0.69156 0.0
C2658 C 0.32761 0.62041 0.73494 0.0
C2659 C 0.34067 0.65926 0.71673 0.0
C2660 C 0.3619 0.66771 0.71239 0.0
C2661 C 0.37262 0.69246 0.71707 0.0
C2662 C 0.36147 0.70886 0.72673 0.0
C2663 C 0.33993 0.70038 0.73192 0.0
C2664 C 0.32936 0.67531 0.72633 0.0
H2665 H 0.21018 0.71245 0.50876 0.0
H2666 H 0.25475 0.67498 0.54822 0.0
H2667 H 0.22297 0.64332 0.55454 0.0
H2668 H 0.16816 0.70033 0.54611 0.0
H2669 H 0.14491 0.69586 0.52241 0.0
H2670 H 0.171 0.71569 0.52 0.0
H2671 H 0.17256 0.68982 0.48056 0.0
H2672 H 0.14552 0.67227 0.48303 0.0
H2673 H 0.16732 0.65683 0.48013 0.0
H2674 H 0.18671 0.61603 0.55777 0.0
H2675 H 0.14783 0.59458 0.55728 0.0
H2676 H 0.12541 0.64775 0.51478 0.0
C2677 C 0.21313 0.69748 0.5186 0.0
C2678 C 0.23507 0.69591 0.52756 0.0
C2679 C 0.2382 0.6763 0.54075 0.0
C2680 C 0.22021 0.65823 0.54451 0.0
C2681 C 0.19889 0.65989 0.53513 0.0
C2682 C 0.19514 0.67896 0.52243 0.0
C2683 C 0.17029 0.67649 0.51506 0.0
C2684 C 0.16317 0.6984 0.52658 0.0
C2685 C 0.16358 0.67374 0.48808 0.0
C2686 C 0.16088 0.65285 0.52508 0.0
C2687 C 0.17775 0.64382 0.53684 0.0
C2688 C 0.17337 0.6228 0.54841 0.0
C2689 C 0.15123 0.6107 0.54802 0.0
C2690 C 0.13358 0.61918 0.53569 0.0
C2691 C 0.13856 0.64051 0.52394 0.0
H2692 H 0.70354 0.93379 0.72935 0.0
H2693 H 0.66375 0.91576 0.7834 0.0
H2694 H 0.68938 0.89152 0.80034 0.0
H2695 H 0.72338 0.87371 0.72516 0.0
H2696 H 0.75022 0.89015 0.72078 0.0
H2697 H 0.72588 0.90072 0.70982 0.0
H2698 H 0.74452 0.94313 0.73286 0.0
H2699 H 0.76836 0.93253 0.74526 0.0
H2700 H 0.75281 0.94573 0.76447 0.0
H2701 H 0.72295 0.87783 0.81653 0.0
H2702 H 0.75771 0.86423 0.82496 0.0
H2703 H 0.77664 0.89045 0.76043 0.0
C2704 C 0.6995 0.92337 0.74379 0.0
C2705 C 0.68143 0.92618 0.75483 0.0
C2706 C 0.67707 0.91314 0.77427 0.0
C2707 C 0.69184 0.89979 0.7843 0.0
C2708 C 0.71072 0.89946 0.77445 0.0
C2709 C 0.71421 0.91001 0.75406 0.0
C2710 C 0.73666 0.90836 0.74811 0.0
C2711 C 0.73386 0.89227 0.72458 0.0
C2712 C 0.75145 0.93396 0.74766 0.0
C2713 C 0.74553 0.89603 0.76881 0.0
C2714 C 0.73028 0.89131 0.78383 0.0
C2715 C 0.73482 0.88097 0.80466 0.0
C2716 C 0.75479 0.87368 0.80948 0.0
C2717 C 0.76995 0.87641 0.79344 0.0
C2718 C 0.76561 0.88857 0.77324 0.0
H2719 H 0.78781 0.99084 0.54247 0.0
H2720 H 0.76381 0.91713 0.55995 0.0
H2721 H 0.72692 0.92623 0.56116 0.0
H2722 H 0.75905 0.02086 0.58043 0.0
H2723 H 0.75422 0.04281 0.56017 0.0
H2724 H 0.77812 0.02995 0.56056 0.0
H2725 H 0.76611 0.01542 0.51581 0.0
H2726 H 0.74211 0.02811 0.5153 0.0
H2727 H 0.73889 0.99621 0.5051 0.0
H2728 H 0.69163 0.94427 0.55902 0.0
H2729 H 0.66329 0.96876 0.55551 0.0
H2730 H 0.71234 0.03112 0.54189 0.0
C2731 C 0.77489 0.97639 0.5465 0.0
C2732 C 0.77888 0.95306 0.5509 0.0
C2733 C 0.76132 0.93508 0.55642 0.0
C2734 C 0.74027 0.94013 0.55711 0.0
C2735 C 0.73702 0.96336 0.55252 0.0
C2736 C 0.75406 0.98119 0.54752 0.0
C2737 C 0.74686 1.00488 0.54364 0.0
C2738 C 0.76036 0.02586 0.56231 0.0
C2739 C 0.74859 0.01153 0.51847 0.0
C2740 C 0.72293 0.99773 0.54697 0.0
C2741 C 0.71742 0.97371 0.552 0.0
C2742 C 0.69598 0.96314 0.55529 0.0
C2743 C 0.67993 0.97737 0.55341 0.0
C2744 C 0.68522 1.00217 0.5484 0.0
C2745 C 0.70724 0.01225 0.5453 0.0
H2746 H 0.37007 0.46291 0.69053 0.0
H2747 H 0.42246 0.48922 0.75088 0.0
H2748 H 0.40896 0.45224 0.76992 0.0
H2749 H 0.32815 0.4369 0.70811 0.0
H2750 H 0.31869 0.40672 0.69245 0.0
H2751 H 0.33557 0.43085 0.67994 0.0
H2752 H 0.36477 0.40664 0.6761 0.0
H2753 H 0.34784 0.38121 0.6871 0.0
H2754 H 0.37624 0.39315 0.70101 0.0
H2755 H 0.38422 0.41957 0.78624 0.0
H2756 H 0.35391 0.38844 0.79631 0.0
H2757 H 0.31914 0.37986 0.72406 0.0
C2758 C 0.37889 0.46041 0.70749 0.0
C2759 C 0.39659 0.47922 0.71993 0.0
C2760 C 0.40852 0.47517 0.74151 0.0
C2761 C 0.40112 0.45413 0.75231 0.0
C2762 C 0.3827 0.4366 0.74045 0.0
C2763 C 0.37264 0.4386 0.71783 0.0
C2764 C 0.35366 0.41633 0.70905 0.0
C2765 C 0.33274 0.42308 0.69668 0.0
C2766 C 0.36107 0.39828 0.69234 0.0
C2767 C 0.35101 0.40567 0.73222 0.0
C2768 C 0.36902 0.41647 0.74957 0.0
C2769 C 0.37038 0.41045 0.77267 0.0
C2770 C 0.35296 0.39292 0.77828 0.0
C2771 C 0.33413 0.38195 0.76104 0.0
C2772 C 0.33329 0.38817 0.73761 0.0
H2773 H 0.16215 0.57007 0.26885 0.0
H2774 H 0.20946 0.53544 0.24057 0.0
H2775 H 0.23689 0.57493 0.24712 0.0
H2776 H 0.17813 0.62468 0.23896 0.0
H2777 H 0.17307 0.64534 0.26185 0.0
H2778 H 0.1574 0.61398 0.25664 0.0
H2779 H 0.17012 0.60762 0.30082 0.0
H2780 H 0.18429 0.63956 0.30525 0.0
H2781 H 0.19923 0.61668 0.31303 0.0
H2782 H 0.25999 0.61629 0.25964 0.0
H2783 H 0.27474 0.66102 0.2663 0.0
H2784 H 0.21173 0.67065 0.28271 0.0
C2785 C 0.17837 0.57097 0.26428 0.0
C2786 C 0.18443 0.54971 0.2557 0.0
C2787 C 0.20516 0.55148 0.24846 0.0
C2788 C 0.22078 0.57374 0.25205 0.0
C2789 C 0.21502 0.59412 0.26217 0.0
C2790 C 0.1941 0.5933 0.2673 0.0
C2791 C 0.19151 0.61874 0.27496 0.0
C2792 C 0.17399 0.62612 0.25703 0.0
C2793 C 0.18595 0.6207 0.29999 0.0
C2794 C 0.21456 0.63361 0.27427 0.0
C2795 C 0.22787 0.61888 0.26722 0.0
C2796 C 0.24977 0.62817 0.26504 0.0
C2797 C 0.25807 0.65352 0.26914 0.0
C2798 C 0.24436 0.66912 0.27508 0.0
C2799 C 0.22251 0.65901 0.27824 0.0
H2800 H 0.50981 0.72562 0.44437 0.0
H2801 H 0.56043 0.78431 0.4866 0.0
H2802 H 0.5735 0.75433 0.51088 0.0
H2803 H 0.49751 0.69144 0.49465 0.0
H2804 H 0.49253 0.66172 0.47805 0.0
H2805 H 0.48718 0.68754 0.46332 0.0
H2806 H 0.5131 0.68008 0.43406 0.0
H2807 H 0.5185 0.65423 0.44868 0.0
H2808 H 0.54117 0.67885 0.44536 0.0
H2809 H 0.58283 0.71766 0.52955 0.0
H2810 H 0.58531 0.6776 0.54342 0.0
H2811 H 0.52684 0.64211 0.49226 0.0
C2812 C 0.52363 0.73212 0.45873 0.0
C2813 C 0.53413 0.75754 0.46338 0.0
C2814 C 0.55201 0.76513 0.48259 0.0
C2815 C 0.55964 0.74815 0.49652 0.0
C2816 C 0.54904 0.72337 0.49155 0.0
C2817 C 0.53116 0.71533 0.47338 0.0
C2818 C 0.52233 0.68765 0.47255 0.0
C2819 C 0.49847 0.68175 0.47743 0.0
C2820 C 0.52387 0.67442 0.44875 0.0
C2821 C 0.53827 0.68143 0.49272 0.0
C2822 C 0.55366 0.70234 0.50327 0.0
C2823 C 0.57067 0.70123 0.52157 0.0
C2824 C 0.57199 0.67831 0.52935 0.0
C2825 C 0.55621 0.65656 0.51925 0.0
C2826 C 0.53903 0.65835 0.5007 0.0
H2827 H 0.65066 0.36323 0.70748 0.0
H2828 H 0.66508 0.33472 0.64099 0.0
H2829 H 0.70154 0.33117 0.6614 0.0
H2830 H 0.70744 0.39887 0.73104 0.0
H2831 H 0.7058 0.39229 0.76094 0.0
H2832 H 0.68113 0.39357 0.741 0.0
H2833 H 0.66258 0.34982 0.74888 0.0
H2834 H 0.68728 0.34828 0.76862 0.0
H2835 H 0.67599 0.32506 0.7439 0.0
H2836 H 0.7353 0.32779 0.68921 0.0
H2837 H 0.76592 0.32881 0.72168 0.0
H2838 H 0.73135 0.36105 0.77087 0.0
C2839 C 0.66164 0.35663 0.69713 0.0
C2840 C 0.65487 0.34935 0.67245 0.0
C2841 C 0.66977 0.34058 0.65975 0.0
C2842 C 0.69054 0.33838 0.67126 0.0
C2843 C 0.69645 0.34516 0.69558 0.0
C2844 C 0.68262 0.35447 0.70837 0.0
C2845 C 0.69315 0.36033 0.73441 0.0
C2846 C 0.69712 0.38791 0.74231 0.0
C2847 C 0.6789 0.34495 0.74986 0.0
C2848 C 0.71495 0.35264 0.73428 0.0
C2849 C 0.71633 0.34378 0.71165 0.0
C2850 C 0.73446 0.33493 0.70693 0.0
C2851 C 0.7518 0.33551 0.72562 0.0
C2852 C 0.75126 0.34511 0.74896 0.0
C2853 C 0.73238 0.35364 0.7533 0.0
H2854 H 0.02771 0.41702 0.92485 0.0
H2855 H 0.04243 0.37488 0.9829 0.0
H2856 H 0.04789 0.41198 0.01112 0.0
H2857 H 0.06628 0.47349 0.94843 0.0
H2858 H 0.04806 0.49252 0.93776 0.0
H2859 H 0.04566 0.46278 0.92224 0.0
H2860 H 1.00428 0.45059 0.92609 0.0
H2861 H 1.00657 0.48029 0.9417 0.0
H2862 H 0.99658 0.45287 0.95491 0.0
H2863 H 0.05356 0.45445 0.03294 0.0
H2864 H 0.05746 0.49825 0.04667 0.0
H2865 H 0.03615 0.51214 0.97492 0.0
C2866 C 0.03206 0.41545 0.94349 0.0
C2867 C 0.03466 0.3928 0.95154 0.0
C2868 C 0.04032 0.39186 0.97617 0.0
C2869 C 0.04345 0.41289 0.99237 0.0
C2870 C 0.04056 0.43477 0.98379 0.0
C2871 C 0.03483 0.43614 0.95992 0.0
C2872 C 0.03239 0.46179 0.95528 0.0
C2873 C 0.0491 0.47332 0.94003 0.0
C2874 C 1.00854 0.46135 0.94382 0.0
C2875 C 0.0379 0.47479 0.98027 0.0
C2876 C 0.0427 0.45887 0.99644 0.0
C2877 C 0.04949 0.46691 0.02046 0.0
C2878 C 0.05161 0.49179 0.02812 0.0
C2879 C 0.04659 0.50836 0.01195 0.0
C2880 C 0.03947 0.49968 0.98773 0.0
H2881 H 1.00472 0.82436 0.15165 0.0
H2882 H 0.06257 0.86008 0.20385 0.0
H2883 H 0.03874 0.86358 0.23335 0.0
H2884 H 0.96794 0.86038 0.17064 0.0
H2885 H 0.94405 0.83501 0.16583 0.0
H2886 H 0.96551 0.83521 0.14833 0.0
H2887 H 0.96989 0.79305 0.16102 0.0
H2888 H 0.94842 0.79272 0.17855 0.0
H2889 H 0.97529 0.78937 0.19201 0.0
H2890 H 1.00924 0.86374 0.2574 0.0
H2891 H 0.97551 0.85958 0.27501 0.0
H2892 H 0.93593 0.82358 0.20815 0.0
C2893 C 1.01237 0.83295 0.16927 0.0
C2894 C 0.03565 0.84195 0.17528 0.0
C2895 C 0.04489 0.85295 0.19865 0.0
C2896 C 0.03146 0.85509 0.21562 0.0
C2897 C 1.00871 0.84609 0.20915 0.0
C2898 C 0.99915 0.83516 0.18661 0.0
C2899 C 0.97417 0.82682 0.18459 0.0
C2900 C 0.96222 0.84016 0.16626 0.0
C2901 C 0.96649 0.79883 0.17869 0.0
C2902 C 0.97128 0.83486 0.2095 0.0
C2903 C 0.99149 0.84601 0.22326 0.0
C2904 C 0.9933 0.85512 0.24679 0.0
C2905 C 0.97397 0.85282 0.25659 0.0
C2906 C 0.95296 0.84147 0.24298 0.0
C2907 C 0.9517 0.83227 0.21908 0.0
H2908 H 0.5634 0.39796 0.08065 0.0
H2909 H 0.60594 0.42145 0.14878 0.0
H2910 H 0.60971 0.4648 0.14079 0.0
H2911 H 0.59309 0.44422 0.04884 0.0
H2912 H 0.56826 0.44777 0.03057 0.0
H2913 H 0.56921 0.41884 0.04171 0.0
H2914 H 0.53455 0.42017 0.0605 0.0
H2915 H 0.53352 0.44912 0.04946 0.0
H2916 H 0.53472 0.44643 0.08058 0.0
H2917 H 0.60691 0.50682 0.12559 0.0
H2918 H 0.5998 0.54175 0.10423 0.0
H2919 H 0.56054 0.49064 0.04527 0.0
C2920 C 0.57362 0.41213 0.09395 0.0
C2921 C 0.58433 0.4059 0.11551 0.0
C2922 C 0.59759 0.42538 0.13215 0.0
C2923 C 0.59977 0.4502 0.12775 0.0
C2924 C 0.58881 0.4556 0.10644 0.0
C2925 C 0.57617 0.43698 0.08972 0.0
C2926 C 0.56617 0.44748 0.06813 0.0
C2927 C 0.57469 0.43907 0.046 0.0
C2928 C 0.54074 0.44038 0.06446 0.0
C2929 C 0.57493 0.47495 0.07525 0.0
C2930 C 0.58787 0.47934 0.09749 0.0
C2931 C 0.597 0.50339 0.10808 0.0
C2932 C 0.59286 0.52324 0.09575 0.0
C2933 C 0.57984 0.51927 0.0728 0.0
C2934 C 0.5709 0.49459 0.06256 0.0
H2935 H 0.97144 0.30074 0.37127 0.0
H2936 H 0.9845 0.36603 0.42101 0.0
H2937 H 0.95147 0.37756 0.40013 0.0
H2938 H 0.94342 0.31929 0.31596 0.0
H2939 H 0.9241 0.29027 0.31149 0.0
H2940 H 0.9514 0.29319 0.32821 0.0
H2941 H 0.92792 0.27355 0.3601 0.0
H2942 H 0.90228 0.27647 0.34299 0.0
H2943 H 0.9109 0.29115 0.37284 0.0
H2944 H 0.9205 0.38495 0.3709 0.0
H2945 H 0.88716 0.38307 0.34186 0.0
H2946 H 0.88848 0.3094 0.31429 0.0
C2947 C 0.96743 0.31764 0.37742 0.0
C2948 C 0.98131 0.3334 0.39693 0.0
C2949 C 0.97465 0.35431 0.40559 0.0
C2950 C 0.9559 0.36098 0.39383 0.0
C2951 C 0.94314 0.3458 0.37407 0.0
C2952 C 0.94797 0.32399 0.36648 0.0
C2953 C 0.92925 0.30938 0.34712 0.0
C2954 C 0.93765 0.30262 0.32442 0.0
C2955 C 0.91686 0.28627 0.35631 0.0
C2956 C 0.91461 0.32767 0.3433 0.0
C2957 C 0.92309 0.34849 0.35918 0.0
C2958 C 0.91347 0.36857 0.35867 0.0
C2959 C 0.89454 0.36736 0.34182 0.0
C2960 C 0.88494 0.34611 0.32555 0.0
C2961 C 0.89523 0.32591 0.32643 0.0
H2962 H 0.06648 0.77441 0.58235 0.0
H2963 H 0.08215 0.75914 0.65488 0.0
H2964 H 0.07716 0.71541 0.64127 0.0
H2965 H 0.02411 0.71739 0.56246 0.0
H2966 H 0.03186 0.71365 0.53379 0.0
H2967 H 0.03618 0.74392 0.5491 0.0
H2968 H 0.07768 0.75238 0.54568 0.0
H2969 H 0.07347 0.72213 0.5304 0.0
H2970 H 0.09404 0.73168 0.55678 0.0
H2971 H 0.07226 0.67275 0.61969 0.0
H2972 H 0.06635 0.63523 0.59176 0.0
H2973 H 0.05231 0.67661 0.53318 0.0
C2974 C 0.06867 0.76185 0.59538 0.0
C2975 C 0.07473 0.77061 0.61984 0.0
C2976 C 0.07751 0.75327 0.63611 0.0
C2977 C 0.07473 0.7282 0.62853 0.0
C2978 C 0.069 0.72022 0.60444 0.0
C2979 C 0.06584 0.73648 0.58807 0.0
C2980 C 0.05983 0.72292 0.56316 0.0
C2981 C 0.03661 0.72457 0.55144 0.0
C2982 C 0.0773 0.73287 0.54812 0.0
C2983 C 0.06026 0.69669 0.56811 0.0
C2984 C 0.06567 0.69556 0.59208 0.0
C2985 C 0.0678 0.67349 0.60091 0.0
C2986 C 0.06434 0.65214 0.58493 0.0
C2987 C 0.05851 0.65265 0.5603 0.0
C2988 C 0.05645 0.67538 0.55192 0.0
H2989 H 0.58808 0.8365 0.86988 0.0
H2990 H 0.59582 0.80185 0.93451 0.0
H2991 H 0.62897 0.78971 0.92362 0.0
H2992 H 0.60309 0.79141 0.83305 0.0
H2993 H 0.61728 0.81324 0.81592 0.0
H2994 H 0.59486 0.81988 0.82937 0.0
H2995 H 0.6205 0.86052 0.85076 0.0
H2996 H 0.64302 0.85402 0.83737 0.0
H2997 H 0.64629 0.85986 0.86904 0.0
H2998 H 0.66125 0.78045 0.90456 0.0
H2999 H 0.68921 0.7754 0.87986 0.0
H3000 H 0.65952 0.81566 0.82755 0.0
C3001 C 0.59677 0.82654 0.88198 0.0
C3002 C 0.58921 0.8203 0.90324 0.0
C3003 C 0.60119 0.80703 0.91824 0.0
C3004 C 0.62007 0.80002 0.91215 0.0
C3005 C 0.62687 0.80636 0.89097 0.0
C3006 C 0.61554 0.81939 0.87618 0.0
C3007 C 0.62582 0.82358 0.85418 0.0
C3008 C 0.60928 0.81129 0.83181 0.0
C3009 C 0.63442 0.85113 0.85277 0.0
C3010 C 0.64475 0.81084 0.85878 0.0
C3011 C 0.64513 0.801 0.88009 0.0
C3012 C 0.66102 0.78811 0.88787 0.0
C3013 C 0.6768 0.78519 0.87358 0.0
C3014 C 0.67675 0.79508 0.8516 0.0
C3015 C 0.66039 0.80812 0.84432 0.0
H3016 H 0.4519 0.52742 0.63742 0.0
H3017 H 0.44663 0.59964 0.66404 0.0
H3018 H 0.47546 0.61869 0.64211 0.0
H3019 H 0.50789 0.53993 0.64337 0.0
H3020 H 0.50993 0.52233 0.61666 0.0
H3021 H 0.48592 0.5139 0.63037 0.0
H3022 H 0.46027 0.51712 0.59156 0.0
H3023 H 0.48424 0.52492 0.57754 0.0
H3024 H 0.46535 0.5449 0.57747 0.0
H3025 H 0.50907 0.62994 0.62288 0.0
H3026 H 0.54189 0.63222 0.60322 0.0
H3027 H 0.52529 0.55293 0.58893 0.0
C3028 C 0.45604 0.54717 0.63753 0.0
C3029 C 0.44669 0.56212 0.65185 0.0
C3030 C 0.45327 0.58795 0.65265 0.0
C3031 C 0.46974 0.59893 0.64039 0.0
C3032 C 0.47948 0.58382 0.6273 0.0
C3033 C 0.47255 0.55848 0.62529 0.0
C3034 C 0.48695 0.54653 0.61154 0.0
C3035 C 0.49834 0.52969 0.62638 0.0
C3036 C 0.47339 0.53254 0.58814 0.0
C3037 C 0.50355 0.56899 0.60721 0.0
C3038 C 0.4989 0.59036 0.61623 0.0
C3039 C 0.51265 0.61334 0.61534 0.0
C3040 C 0.53136 0.61449 0.60441 0.0
C3041 C 0.53601 0.59281 0.59453 0.0
C3042 C 0.522 0.56984 0.5962 0.0
H3043 H 0.78636 0.23173 0.9334 0.0
H3044 H 0.79504 0.29603 0.98362 0.0
H3045 H 0.7969 0.32213 0.95095 0.0
H3046 H 0.82389 0.26045 0.89617 0.0
H3047 H 0.80729 0.24414 0.86903 0.0
H3048 H 0.80635 0.23047 0.89626 0.0
H3049 H 0.76386 0.22511 0.88978 0.0
H3050 H 0.7647 0.23887 0.86258 0.0
H3051 H 0.75229 0.25144 0.8854 0.0
H3052 H 0.79782 0.34176 0.91207 0.0
H3053 H 0.79912 0.35303 0.87165 0.0
H3054 H 0.7903 0.27638 0.84587 0.0
C3055 C 0.78867 0.25131 0.93765 0.0
C3056 C 0.79054 0.26159 0.96153 0.0
C3057 C 0.79358 0.28742 0.96582 0.0
C3058 C 0.79462 0.30249 0.94723 0.0
C3059 C 0.79267 0.29176 0.92405 0.0
C3060 C 0.78986 0.26672 0.91922 0.0
C3061 C 0.78855 0.25984 0.89276 0.0
C3062 C 0.80766 0.24802 0.88829 0.0
C3063 C 0.76601 0.2428 0.882 0.0
C3064 C 0.79105 0.28487 0.8834 0.0
C3065 C 0.79333 0.30301 0.90179 0.0
C3066 C 0.79603 0.32759 0.89765 0.0
C3067 C 0.79668 0.33385 0.87442 0.0
C3068 C 0.79469 0.31577 0.8551 0.0
C3069 C 0.79168 0.29082 0.85992 0.0
H3070 H 0.09366 0.48409 0.18327 0.0
H3071 H 0.15762 0.49172 0.16135 0.0
H3072 H 0.14366 0.5091 0.12556 0.0
H3073 H 0.05887 0.47114 0.12236 0.0
H3074 H 0.04017 0.48903 0.13092 0.0
H3075 H 0.0538 0.47299 0.15234 0.0
H3076 H 0.06918 0.51377 0.17968 0.0
H3077 H 0.05599 0.53003 0.15824 0.0
H3078 H 0.08541 0.53964 0.16863 0.0
H3079 H 0.12458 0.53059 0.0953 0.0
H3080 H 0.10138 0.55362 0.07189 0.0
H3081 H 0.0499 0.53315 0.11346 0.0
C3082 C 0.10445 0.48845 0.17045 0.0
C3083 C 0.12667 0.48616 0.17494 0.0
C3084 C 0.14049 0.49297 0.15814 0.0
C3085 C 0.13269 0.50292 0.13778 0.0
C3086 C 0.11102 0.50594 0.13442 0.0
C3087 C 0.09697 0.49865 0.15013 0.0
C3088 C 0.07519 0.50616 0.14364 0.0
C3089 C 0.05586 0.48348 0.13691 0.0
C3090 C 0.07123 0.52342 0.16374 0.0
C3091 C 0.07946 0.51954 0.1223 0.0
C3092 C 0.10015 0.51895 0.11718 0.0
C3093 C 0.10838 0.53118 0.09913 0.0
C3094 C 0.09527 0.54454 0.08615 0.0
C3095 C 0.07418 0.54567 0.0912 0.0
C3096 C 0.066 0.53258 0.10922 0.0
H3097 H 0.84916 0.93378 0.4662 0.0
H3098 H 0.81063 0.87409 0.4965 0.0
H3099 H 0.80197 0.84892 0.45763 0.0
H3100 H 0.81575 0.92498 0.40868 0.0
H3101 H 0.83879 0.93158 0.39311 0.0
H3102 H 0.84155 0.94512 0.42307 0.0
H3103 H 0.87555 0.92704 0.43539 0.0
H3104 H 0.87296 0.91352 0.40544 0.0
H3105 H 0.87311 0.89453 0.42929 0.0
H3106 H 0.79514 0.83124 0.41411 0.0
H3107 H 0.79467 0.82062 0.37152 0.0
H3108 H 0.84121 0.88954 0.37009 0.0
C3109 C 0.839 0.91537 0.46477 0.0
C3110 C 0.83053 0.90606 0.48469 0.0
C3111 C 0.81739 0.88175 0.48176 0.0
C3112 C 0.81231 0.86731 0.45963 0.0
C3113 C 0.82085 0.87707 0.44043 0.0
C3114 C 0.83429 0.9004 0.44292 0.0
C3115 C 0.84212 0.90617 0.41972 0.0
C3116 C 0.83407 0.92827 0.41061 0.0
C3117 C 0.86744 0.91057 0.42264 0.0
C3118 C 0.83076 0.88259 0.40367 0.0
C3119 C 0.81826 0.86621 0.41592 0.0
C3120 C 0.80518 0.84381 0.40456 0.0
C3121 C 0.80497 0.83793 0.38028 0.0
C3122 C 0.81814 0.85399 0.36744 0.0
C3123 C 0.83129 0.87663 0.37946 0.0
H3124 H 0.41286 0.54496 0.80084 0.0
H3125 H 0.45934 0.58553 0.76124 0.0
H3126 H 0.48719 0.59742 0.79745 0.0
H3127 H 0.43221 0.58656 0.858 0.0
H3128 H 0.42855 0.56095 0.87521 0.0
H3129 H 0.41076 0.55935 0.84719 0.0
H3130 H 0.42142 0.51936 0.83295 0.0
H3131 H 0.43934 0.52092 0.86077 0.0
H3132 H 0.4502 0.51937 0.83364 0.0
H3133 H 0.51179 0.59931 0.83555 0.0
H3134 H 0.5311 0.59262 0.87436 0.0
H3135 H 0.46911 0.55111 0.88963 0.0
C3136 C 0.42865 0.55691 0.79994 0.0
C3137 C 0.43396 0.5642 0.77823 0.0
C3138 C 0.45496 0.57958 0.77769 0.0
C3139 C 0.47087 0.58657 0.79819 0.0
C3140 C 0.46551 0.5782 0.81912 0.0
C3141 C 0.44485 0.56394 0.82028 0.0
C3142 C 0.44419 0.55529 0.84446 0.0
C3143 C 0.42797 0.5662 0.85695 0.0
C3144 C 0.43846 0.52707 0.84284 0.0
C3145 C 0.46792 0.56607 0.85629 0.0
C3146 C 0.47985 0.57948 0.84144 0.0
C3147 C 0.50256 0.58934 0.84758 0.0
C3148 C 0.51341 0.58532 0.8695 0.0
C3149 C 0.50148 0.5716 0.88489 0.0
C3150 C 0.47844 0.56216 0.87832 0.0
H3151 H 0.78798 0.24968 0.11799 0.0
H3152 H 0.83895 0.29977 0.0912 0.0
H3153 H 0.85164 0.32267 0.13085 0.0
H3154 H 0.77447 0.29621 0.15617 0.0
H3155 H 0.76955 0.27747 0.17972 0.0
H3156 H 0.76521 0.26336 0.14973 0.0
H3157 H 0.79212 0.23594 0.1625 0.0
H3158 H 0.79655 0.25001 0.19254 0.0
H3159 H 0.81979 0.25002 0.17768 0.0
H3160 H 0.8593 0.34055 0.17324 0.0
H3161 H 0.85955 0.35455 0.21474 0.0
H3162 H 0.80217 0.29578 0.21578 0.0
C3163 C 0.802 0.26527 0.12059 0.0
C3164 C 0.81262 0.27265 0.10121 0.0
C3165 C 0.83056 0.29356 0.10548 0.0
C3166 C 0.83795 0.30672 0.12808 0.0
C3167 C 0.82714 0.2992 0.14665 0.0
C3168 C 0.8094 0.27911 0.14323 0.0
C3169 C 0.80007 0.27611 0.16622 0.0
C3170 C 0.77589 0.27842 0.16274 0.0
C3171 C 0.80226 0.25156 0.17526 0.0
C3172 C 0.81522 0.29771 0.18288 0.0
C3173 C 0.83091 0.31043 0.17114 0.0
C3174 C 0.847 0.33077 0.18252 0.0
C3175 C 0.84701 0.3386 0.20629 0.0
C3176 C 0.83084 0.32656 0.21886 0.0
C3177 C 0.81475 0.30559 0.20684 0.0
H3178 H 0.15286 0.49801 0.33807 0.0
H3179 H 0.09805 0.46751 0.28071 0.0
H3180 H 0.07173 0.47229 0.3075 0.0
H3181 H 0.12554 0.47377 0.38752 0.0
H3182 H 0.13818 0.5017 0.40672 0.0
H3183 H 0.1524 0.49135 0.38443 0.0
H3184 H 0.15578 0.53328 0.36763 0.0
H3185 H 0.14143 0.54366 0.38965 0.0
H3186 H 0.13112 0.54412 0.35879 0.0
H3187 H 0.05162 0.48571 0.33896 0.0
H3188 H 0.03966 0.50723 0.37188 0.0
H3189 H 0.10778 0.52954 0.40814 0.0
C3190 C 0.13533 0.49159 0.33123 0.0
C3191 C 0.12757 0.48227 0.30725 0.0
C3192 C 0.10445 0.4746 0.29902 0.0
C3193 C 0.08935 0.47719 0.31414 0.0
C3194 C 0.09763 0.48738 0.33744 0.0
C3195 C 0.12011 0.49432 0.34596 0.0
C3196 C 0.12492 0.50744 0.37075 0.0
C3197 C 0.1359 0.49267 0.3884 0.0
C3198 C 0.13914 0.53367 0.37174 0.0
C3199 C 0.10167 0.50762 0.37456 0.0
C3200 C 0.0861 0.49556 0.35536 0.0
C3201 C 0.06364 0.4948 0.35426 0.0
C3202 C 0.05699 0.50703 0.37307 0.0
C3203 C 0.07279 0.52007 0.39257 0.0
C3204 C 0.09532 0.51982 0.39343 0.0
H3205 H 0.83976 0.91484 0.64766 0.0
H3206 H 0.8118 0.85407 0.59269 0.0
H3207 H 0.80072 0.82735 0.6225 0.0
H3208 H 0.86075 0.87733 0.69209 0.0
H3209 H 0.85408 0.8941 0.71684 0.0
H3210 H 0.86038 0.90926 0.6914 0.0
H3211 H 0.82294 0.92202 0.68722 0.0
H3212 H 0.81659 0.90676 0.71259 0.0
H3213 H 0.79768 0.89879 0.68488 0.0
H3214 H 0.79081 0.80656 0.65729 0.0
H3215 H 0.78354 0.79282 0.69547 0.0
H3216 H 0.81835 0.86459 0.73093 0.0
C3217 C 0.83137 0.8959 0.64192 0.0
C3218 C 0.8268 0.8869 0.6173 0.0
C3219 C 0.81572 0.86184 0.61102 0.0
C3220 C 0.80926 0.84629 0.62799 0.0
C3221 C 0.81392 0.85555 0.65178 0.0
C3222 C 0.8248 0.87972 0.65897 0.0
C3223 C 0.82753 0.88444 0.68604 0.0
C3224 C 0.85215 0.89172 0.69726 0.0
C3225 C 0.81547 0.90418 0.6931 0.0
C3226 C 0.81636 0.85929 0.69268 0.0
C3227 C 0.80863 0.84307 0.6724 0.0
C3228 C 0.797 0.81908 0.67329 0.0
C3229 C 0.79294 0.81137 0.69522 0.0
C3230 C 0.8006 0.82722 0.71658 0.0
C3231 C 0.81269 0.85165 0.71518 0.0
H3232 H 0.77318 0.49626 0.51685 0.0
H3233 H 0.76842 0.44569 0.57014 0.0
H3234 H 0.73549 0.45924 0.58003 0.0
H3235 H 0.76011 0.54476 0.5491 0.0
H3236 H 0.74452 0.55442 0.52409 0.0
H3237 H 0.76625 0.53913 0.51991 0.0
H3238 H 0.73869 0.50618 0.48945 0.0
H3239 H 0.71688 0.52148 0.49336 0.0
H3240 H 0.71353 0.48953 0.49764 0.0
H3241 H 0.70471 0.48182 0.58642 0.0
H3242 H 0.67815 0.50851 0.58682 0.0
H3243 H 0.70326 0.54377 0.5289 0.0
C3244 C 0.76506 0.48761 0.53036 0.0
C3245 C 0.77351 0.46972 0.54264 0.0
C3246 C 0.76225 0.45914 0.56024 0.0
C3247 C 0.74357 0.46689 0.56608 0.0
C3248 C 0.73614 0.48508 0.55402 0.0
C3249 C 0.74644 0.49502 0.53628 0.0
C3250 C 0.73586 0.51484 0.52639 0.0
C3251 C 0.75269 0.53976 0.5301 0.0
C3252 C 0.72563 0.50756 0.50016 0.0
C3253 C 0.71811 0.51488 0.54152 0.0
C3254 C 0.7185 0.49763 0.5574 0.0
C3255 C 0.70422 0.49516 0.57387 0.0
C3256 C 0.68924 0.51055 0.57406 0.0
C3257 C 0.68843 0.52827 0.55783 0.0
C3258 C 0.7031 0.53021 0.5413 0.0
H3259 H 0.22521 0.16363 0.52774 0.0
H3260 H 0.20184 0.217 0.48639 0.0
H3261 H 0.16315 0.19433 0.48507 0.0
H3262 H 0.18078 0.10695 0.50309 0.0
H3263 H 0.18113 0.09741 0.53209 0.0
H3264 H 0.20587 0.11613 0.52496 0.0
H3265 H 0.20537 0.14573 0.56235 0.0
H3266 H 0.1792 0.12735 0.56651 0.0
H3267 H 0.18198 0.15939 0.5629 0.0
H3268 H 0.12667 0.16727 0.49004 0.0
H3269 H 0.09525 0.13721 0.49984 0.0
H3270 H 0.14106 0.10066 0.53857 0.0
C3271 C 0.21192 0.17008 0.51784 0.0
C3272 C 0.21666 0.19178 0.50644 0.0
C3273 C 0.19872 0.20026 0.49475 0.0
C3274 C 0.17665 0.18747 0.49398 0.0
C3275 C 0.17248 0.16639 0.50554 0.0
C3276 C 0.1896 0.15769 0.51732 0.0
C3277 C 0.18031 0.13593 0.53019 0.0
C3278 C 0.18754 0.11276 0.52206 0.0
C3279 C 0.18712 0.14249 0.55708 0.0
C3280 C 0.15544 0.13287 0.52263 0.0
C3281 C 0.15136 0.15101 0.50882 0.0
C3282 C 0.12976 0.15284 0.50058 0.0
C3283 C 0.11196 0.13563 0.50627 0.0
C3284 C 0.11554 0.11627 0.51967 0.0
C3285 C 0.1377 0.11495 0.52795 0.0
H3286 H 0.21033 0.03942 0.85109 0.0
H3287 H 0.25143 0.07002 0.9188 0.0
H3288 H 0.27395 0.03953 0.91446 0.0
H3289 H 0.21416 0.97409 0.85439 0.0
H3290 H 0.21539 0.97001 0.82333 0.0
H3291 H 0.19999 0.99078 0.83411 0.0
H3292 H 0.22271 0.02573 0.8149 0.0
H3293 H 0.23839 1.00528 0.80439 0.0
H3294 H 0.25248 0.03344 0.8226 0.0
H3295 H 0.2953 0.00986 0.89985 0.0
H3296 H 0.31267 0.98277 0.87682 0.0
H3297 H 0.25816 0.97334 0.8183 0.0
C3298 C 0.22353 0.03922 0.86548 0.0
C3299 C 0.22897 0.05709 0.88537 0.0
C3300 C 0.24679 0.05644 0.90346 0.0
C3301 C 0.2597 0.03917 0.90115 0.0
C3302 C 0.25451 0.02261 0.88073 0.0
C3303 C 0.23666 0.02234 0.86334 0.0
C3304 C 0.23596 1.0047 0.84193 0.0
C3305 C 0.21514 0.98364 0.83824 0.0
C3306 C 0.23749 0.0181 0.81966 0.0
C3307 C 0.25663 0.99569 0.84961 0.0
C3308 C 0.26697 1.00591 0.87216 0.0
C3309 C 0.28716 1.00149 0.88232 0.0
C3310 C 0.29701 0.98629 0.86904 0.0
C3311 C 0.28674 0.97589 0.8458 0.0
C3312 C 0.26619 0.98056 0.83619 0.0
H3313 H 0.4049 0.96002 0.0227 0.0
H3314 H 0.38279 1.00463 0.0745 0.0
H3315 H 0.41866 0.03473 0.08052 0.0
H3316 H 0.46274 0.9742 0.05702 0.0
H3317 H 0.47549 0.9733 0.03111 0.0
H3318 H 0.44826 0.95443 0.03071 0.0
H3319 H 0.43128 0.97449 0.99415 0.0
H3320 H 0.45974 0.98942 0.99435 0.0
H3321 H 0.43963 1.00744 0.99508 0.0
H3322 H 0.45559 0.06162 0.07922 0.0
H3323 H 0.49317 0.08185 0.07352 0.0
H3324 H 0.49299 0.02069 0.02285 0.0
C3325 C 0.40772 0.97616 0.03527 0.0
C3326 C 0.39067 0.98053 0.04749 0.0
C3327 C 0.39528 1.00135 0.06441 0.0
C3328 C 0.41567 0.01852 0.06801 0.0
C3329 C 0.43169 0.0145 0.05488 0.0
C3330 C 0.42825 0.99363 0.03916 0.0
C3331 C 0.44911 0.99336 0.02859 0.0
C3332 C 0.45951 0.97259 0.03738 0.0
C3333 C 0.44457 0.99101 1.00145 0.0
C3334 C 0.46375 0.01837 0.03905 0.0
C3335 C 0.45352 0.02986 0.05466 0.0
C3336 C 0.46378 0.05278 0.06707 0.0
C3337 C 0.48511 0.0642 0.06364 0.0
C3338 C 0.49592 0.05312 0.04749 0.0
C3339 C 0.48498 0.02988 0.03496 0.0
H3340 H 0.92913 0.71691 0.81086 0.0
H3341 H 0.88698 0.66361 0.84517 0.0
H3342 H 0.85642 0.68351 0.83507 0.0
H3343 H 0.90699 0.76908 0.83045 0.0
H3344 H 0.90874 0.78287 0.80335 0.0
H3345 H 0.9279 0.76464 0.81341 0.0
H3346 H 0.91632 0.73726 0.77331 0.0
H3347 H 0.89687 0.75518 0.76331 0.0
H3348 H 0.88756 0.72249 0.7632 0.0
H3349 H 0.82945 0.70657 0.81939 0.0
H3350 H 0.80884 0.73622 0.80438 0.0
H3351 H 0.86784 0.7771 0.7819 0.0
C3352 C 0.91358 0.70965 0.81653 0.0
C3353 C 0.91064 0.68848 0.82873 0.0
C3354 C 0.8899 0.67967 0.83578 0.0
C3355 C 0.87225 0.69078 0.83002 0.0
C3356 C 0.87547 0.71101 0.81745 0.0
C3357 C 0.89567 0.72082 0.81121 0.0
C3358 C 0.8945 0.74328 0.79832 0.0
C3359 C 0.91048 0.76634 0.81222 0.0
C3360 C 0.89908 0.7393 0.77303 0.0
C3361 C 0.87048 0.74428 0.79824 0.0
C3362 C 0.85985 0.7252 0.8091 0.0
C3363 C 0.8376 0.72173 0.81098 0.0
C3364 C 0.82596 0.73864 0.80217 0.0
C3365 C 0.83661 0.75908 0.79186 0.0
C3366 C 0.85916 0.76167 0.78961 0.0
H3367 H 0.82688 0.6629 1.0045 0.0
H3368 H 0.85372 0.73595 0.04148 0.0
H3369 H 0.8906 0.72638 0.05009 0.0
H3370 H 0.85808 0.63201 0.04486 0.0
H3371 H 0.86165 0.61017 0.02207 0.0
H3372 H 0.83772 0.62317 0.01824 0.0
H3373 H 0.84748 0.63799 0.97886 0.0
H3374 H 0.8715 0.62512 0.98262 0.0
H3375 H 0.87447 0.65709 0.97855 0.0
H3376 H 0.92521 0.70868 0.05383 0.0
H3377 H 0.95343 0.68435 0.05436 0.0
H3378 H 0.90324 0.6217 0.01742 0.0
C3379 C 0.84049 0.67702 0.0143 0.0
C3380 C 0.83724 0.70036 0.02213 0.0
C3381 C 0.85562 0.718 0.03521 0.0
C3382 C 0.8767 0.71272 0.04015 0.0
C3383 C 0.87926 0.68956 0.03217 0.0
C3384 C 0.86156 0.67194 0.01968 0.0
C3385 C 0.86847 0.64819 0.01375 0.0
C3386 C 0.85572 0.62714 0.02543 0.0
C3387 C 0.86529 0.64172 0.98685 0.0
C3388 C 0.89287 0.65517 0.0247 0.0
C3389 C 0.89882 0.67916 0.0351 0.0
C3390 C 0.92058 0.6898 0.04595 0.0
C3391 C 0.93656 0.67561 0.04633 0.0
C3392 C 0.93091 0.65072 0.03617 0.0
C3393 C 0.90856 0.6406 0.02518 0.0
H3394 H 0.24592 0.15897 0.85155 0.0
H3395 H 0.19195 0.19193 0.86421 0.0
H3396 H 0.21156 0.23106 0.85205 0.0
H3397 H 0.29255 0.21251 0.86797 0.0
H3398 H 0.30558 0.20501 0.84358 0.0
H3399 H 0.28879 0.18086 0.85605 0.0
H3400 H 0.26495 0.16516 0.81522 0.0
H3401 H 0.28149 0.18933 0.8024 0.0
H3402 H 0.25194 0.18581 0.79882 0.0
H3403 H 0.23569 0.26529 0.83495 0.0
H3404 H 0.26326 0.29251 0.81641 0.0
H3405 H 0.30115 0.23683 0.81445 0.0
C3406 C 0.23868 0.17475 0.85261 0.0
C3407 C 0.21781 0.17285 0.85954 0.0
C3408 C 0.20819 0.19336 0.85949 0.0
C3409 C 0.21917 0.21554 0.85253 0.0
C3410 C 0.23951 0.21666 0.84518 0.0
C3411 C 0.24921 0.19679 0.84525 0.0
C3412 C 0.26993 0.20181 0.83417 0.0
C3413 C 0.29042 0.19995 0.85154 0.0
C3414 C 0.26688 0.1845 0.8113 0.0
C3415 C 0.27095 0.22793 0.82882 0.0
C3416 C 0.25305 0.23604 0.83486 0.0
C3417 C 0.24982 0.25915 0.83031 0.0
C3418 C 0.26545 0.27442 0.81964 0.0
C3419 C 0.28419 0.26666 0.81403 0.0
C3420 C 0.28696 0.24317 0.81872 0.0
H3421 H 0.46931 0.08122 0.30647 0.0
H3422 H 0.42064 0.12003 0.2777 0.0
H3423 H 0.39814 0.08196 0.25472 0.0
H3424 H 0.45655 0.03544 0.24677 0.0
H3425 H 0.4626 0.01095 0.26316 0.0
H3426 H 0.47816 0.04207 0.27237 0.0
H3427 H 0.46747 0.04017 0.31468 0.0
H3428 H 0.45462 1.00862 0.30475 0.0
H3429 H 0.43885 0.02802 0.31655 0.0
H3430 H 0.37654 0.04043 0.24545 0.0
H3431 H 0.35801 0.99803 0.2495 0.0
H3432 H 0.42077 0.9844 0.28077 0.0
C3433 C 0.45418 0.08155 0.29479 0.0
C3434 C 0.44607 0.10302 0.29447 0.0
C3435 C 0.42658 0.10336 0.27877 0.0
C3436 C 0.41392 0.08196 0.26529 0.0
C3437 C 0.42149 0.06058 0.26697 0.0
C3438 C 0.44148 0.06022 0.28078 0.0
C3439 C 0.44467 0.03424 0.28071 0.0
C3440 C 0.46148 0.03046 0.2648 0.0
C3441 C 0.4518 0.02748 0.30567 0.0
C3442 C 0.42154 0.02013 0.26931 0.0
C3443 C 0.409 0.0357 0.25998 0.0
C3444 C 0.3863 0.02782 0.25179 0.0
C3445 C 0.37585 1.00381 0.25436 0.0
C3446 C 0.3881 0.98814 0.26524 0.0
C3447 C 0.4113 0.99596 0.2717 0.0
H3448 H 0.54422 0.39525 0.59209 0.0
H3449 H 0.61446 0.41418 0.62085 0.0
H3450 H 0.61741 0.45497 0.60648 0.0
H3451 H 0.54676 0.42588 0.5399 0.0
H3452 H 0.5219 0.43673 0.5408 0.0
H3453 H 0.52498 0.40904 0.55342 0.0
H3454 H 0.51796 0.427 0.59346 0.0
H3455 H 0.51469 0.45468 0.58092 0.0
H3456 H 0.53476 0.45629 0.60724 0.0
H3457 H 0.61336 0.49259 0.58678 0.0
H3458 H 0.60256 0.52651 0.56765 0.0
H3459 H 0.53385 0.48577 0.55321 0.0
C3460 C 0.56024 0.40802 0.59552 0.0
C3461 C 0.5792 0.40124 0.60767 0.0
C3462 C 0.5997 0.41873 0.61181 0.0
C3463 C 0.60154 0.44198 0.60355 0.0
C3464 C 0.58265 0.44785 0.59142 0.0
C3465 C 0.56229 0.43156 0.58776 0.0
C3466 C 0.54451 0.44285 0.57468 0.0
C3467 C 0.53391 0.42772 0.55078 0.0
C3468 C 0.52694 0.44535 0.58999 0.0
C3469 C 0.55811 0.46797 0.57126 0.0
C3470 C 0.5801 0.47017 0.5809 0.0
C3471 C 0.59615 0.49108 0.57943 0.0
C3472 C 0.5897 0.51037 0.56827 0.0
C3473 C 0.56718 0.50926 0.55867 0.0
C3474 C 0.55115 0.4875 0.56026 0.0
H3475 H 0.44954 0.82644 0.40524 0.0
H3476 H 0.47306 0.77517 0.36136 0.0
H3477 H 0.44008 0.77103 0.33072 0.0
H3478 H 0.38941 0.79036 0.38482 0.0
H3479 H 0.37833 0.81725 0.38714 0.0
H3480 H 0.40299 0.81565 0.40698 0.0
H3481 H 0.42662 0.85627 0.39307 0.0
H3482 H 0.39961 0.85751 0.37813 0.0
H3483 H 0.42162 0.85885 0.36172 0.0
H3484 H 0.40961 0.77919 0.3017 0.0
H3485 H 0.37724 0.79008 0.2793 0.0
H3486 H 0.36916 0.83246 0.34218 0.0
C3487 C 0.44754 0.81423 0.38922 0.0
C3488 C 0.46447 0.80202 0.38509 0.0
C3489 C 0.46081 0.78541 0.36445 0.0
C3490 C 0.44205 0.78286 0.34697 0.0
C3491 C 0.42659 0.79657 0.35058 0.0
C3492 C 0.4285 0.81118 0.37153 0.0
C3493 C 0.40824 0.82227 0.3711 0.0
C3494 C 0.3939 0.8107 0.38855 0.0
C3495 C 0.41452 0.85036 0.37638 0.0
C3496 C 0.39642 0.81421 0.34564 0.0
C3497 C 0.40724 0.79907 0.33438 0.0
C3498 C 0.40063 0.79046 0.3105 0.0
C3499 C 0.38225 0.79698 0.29783 0.0
C3500 C 0.37038 0.81202 0.30885 0.0
C3501 C 0.3777 0.8208 0.3332 0.0
H3502 H 0.07068 0.75874 0.14362 0.0
H3503 H 0.10178 0.7995 0.09199 0.0
H3504 H 0.10324 0.76072 0.06979 0.0
H3505 H 0.10205 0.71229 0.14345 0.0
H3506 H 0.07949 0.68737 0.14639 0.0
H3507 H 0.08007 0.71815 0.1582 0.0
H3508 H 0.04119 0.71622 0.1329 0.0
H3509 H 0.04072 0.68479 0.12342 0.0
H3510 H 0.03665 0.70552 0.10183 0.0
H3511 H 0.10323 0.71767 0.05419 0.0
H3512 H 0.09815 0.67295 0.04399 0.0
H3513 H 0.06512 0.65905 0.104 0.0
C3514 C 0.07752 0.75936 0.12747 0.0
C3515 C 0.08563 0.78213 0.11917 0.0
C3516 C 0.09494 0.78228 0.0983 0.0
C3517 C 0.096 0.76033 0.08567 0.0
C3518 C 0.08776 0.73818 0.09415 0.0
C3519 C 0.07842 0.73744 0.1144 0.0
C3520 C 0.07097 0.71105 0.11967 0.0
C3521 C 0.08392 0.70699 0.14333 0.0
C3522 C 0.04589 0.70403 0.11946 0.0
C3523 C 0.07721 0.69714 0.09902 0.0
C3524 C 0.08729 0.71324 0.0848 0.0
C3525 C 0.09523 0.70491 0.06512 0.0
C3526 C 0.09243 0.67951 0.05953 0.0
C3527 C 0.08142 0.66264 0.07327 0.0
C3528 C 0.0737 0.67161 0.09327 0.0
H3529 H 0.08311 0.35111 0.86857 0.0
H3530 H 0.08935 0.30238 0.92294 0.0
H3531 H 0.12425 0.29626 0.91106 0.0
H3532 H 0.10157 0.31713 0.82499 0.0
H3533 H 0.11594 0.34371 0.81333 0.0
H3534 H 0.09241 0.34534 0.8272 0.0
H3535 H 0.11614 0.3823 0.85625 0.0
H3536 H 0.13974 0.38086 0.8424 0.0
H3537 H 0.1416 0.37943 0.87377 0.0
H3538 H 0.15789 0.29395 0.89124 0.0
H3539 H 0.18721 0.29674 0.86667 0.0
H3540 H 0.15802 0.34666 0.82533 0.0
C3541 C 0.09186 0.33936 0.8783 0.0
C3542 C 0.08337 0.32732 0.89686 0.0
C3543 C 0.09547 0.31197 0.90882 0.0
C3544 C 0.11531 0.30833 0.90212 0.0
C3545 C 0.12292 0.3202 0.88347 0.0
C3546 C 0.11156 0.33552 0.87187 0.0
C3547 C 0.12268 0.34562 0.85195 0.0
C3548 C 0.10723 0.33745 0.82795 0.0
C3549 C 0.13051 0.37372 0.85637 0.0
C3550 C 0.14209 0.33352 0.85397 0.0
C3551 C 0.14201 0.31891 0.87223 0.0
C3552 C 0.1581 0.30545 0.87699 0.0
C3553 C 0.17464 0.30703 0.86282 0.0
C3554 C 0.17508 0.322 0.84405 0.0
C3555 C 0.15848 0.33538 0.83974 0.0
H3556 H 0.54448 0.76471 0.99231 0.0
H3557 H 0.51088 0.73582 0.92107 0.0
H3558 H 0.5101 0.69379 0.93089 0.0
H3559 H 0.57869 0.72036 0.99888 0.0
H3560 H 0.57691 0.71763 0.02953 0.0
H3561 H 0.57456 0.74574 0.01734 0.0
H3562 H 0.53684 0.74283 0.03106 0.0
H3563 H 0.53908 0.71469 0.04325 0.0
H3564 H 0.51512 0.71548 0.02196 0.0
H3565 H 0.51349 0.65413 0.94786 0.0
H3566 H 0.52092 0.62047 0.97063 0.0
H3567 H 0.55218 0.67336 0.03157 0.0
C3568 C 0.53685 0.74954 0.97881 0.0
C3569 C 0.52766 0.75399 0.95577 0.0
C3570 C 0.51802 0.73333 0.93878 0.0
C3571 C 0.51747 0.70918 0.94422 0.0
C3572 C 0.52665 0.70543 0.96688 0.0
C3573 C 0.53618 0.72502 0.98397 0.0
C3574 C 0.54512 0.71562 1.00687 0.0
C3575 C 0.57032 0.72543 0.01355 0.0
C3576 C 0.53334 0.72257 0.02698 0.0
C3577 C 0.53915 0.68784 0.99995 0.0
C3578 C 0.5285 0.68245 0.97674 0.0
C3579 C 0.52174 0.65823 0.96608 0.0
C3580 C 0.52603 0.63909 0.97926 0.0
C3581 C 0.53699 0.64385 1.00314 0.0
C3582 C 0.5435 0.66878 0.01353 0.0
H3583 H 0.17166 0.86809 0.66994 0.0
H3584 H 0.1243 0.82419 0.70616 0.0
H3585 H 0.15482 0.8172 0.73516 0.0
H3586 H 0.21152 0.8301 0.67806 0.0
H3587 H 0.23564 0.85514 0.68241 0.0
H3588 H 0.21029 0.85779 0.66454 0.0
H3589 H 0.20932 0.89757 0.6916 0.0
H3590 H 0.23597 0.89503 0.70654 0.0
H3591 H 0.21437 0.89669 0.72322 0.0
H3592 H 0.19039 0.81363 0.75984 0.0
H3593 H 0.22872 0.81493 0.77905 0.0
H3594 H 0.25404 0.86221 0.72857 0.0
C3595 C 0.16781 0.85719 0.68411 0.0
C3596 C 0.14547 0.84722 0.68613 0.0
C3597 C 0.14118 0.83255 0.70459 0.0
C3598 C 0.15846 0.82837 0.72112 0.0
C3599 C 0.18023 0.83876 0.71902 0.0
C3600 C 0.18506 0.85294 0.70104 0.0
C3601 C 0.21008 0.86123 0.70261 0.0
C3602 C 0.2173 0.85042 0.6806 0.0
C3603 C 0.21783 0.88931 0.70615 0.0
C3604 C 0.2184 0.85009 0.72456 0.0
C3605 C 0.20085 0.83689 0.7335 0.0
C3606 C 0.20425 0.82413 0.75311 0.0
C3607 C 0.2261 0.82496 0.76394 0.0
C3608 C 0.24441 0.83892 0.75561 0.0
C3609 C 0.2404 0.85172 0.73565 0.0
H3610 H 0.05033 0.39408 0.48359 0.0
H3611 H 0.06229 0.42056 0.41665 0.0
H3612 H 0.06801 0.46275 0.43422 0.0
H3613 H 0.02201 0.4401 0.5016 0.0
H3614 H 0.03471 0.44433 0.53229 0.0
H3615 H 0.03132 0.41531 0.51491 0.0
H3616 H 0.0733 0.41792 0.52577 0.0
H3617 H 0.07678 0.44687 0.54332 0.0
H3618 H 0.09276 0.44462 0.52012 0.0
H3619 H 0.07024 0.50295 0.45764 0.0
H3620 H 0.07305 0.53829 0.48721 0.0
H3621 H 0.06334 0.48869 0.54078 0.0
C3622 C 0.05441 0.40872 0.47269 0.0
C3623 C 0.05556 0.40323 0.44837 0.0
C3624 C 0.061 0.42348 0.43511 0.0
C3625 C 0.06431 0.44789 0.44496 0.0
C3626 C 0.06263 0.45259 0.46854 0.0
C3627 C 0.05823 0.43371 0.48248 0.0
C3628 C 0.058 0.44447 0.50763 0.0
C3629 C 0.03515 0.43551 0.51451 0.0
C3630 C 0.0763 0.43809 0.52526 0.0
C3631 C 0.06279 0.47207 0.5054 0.0
C3632 C 0.06508 0.4762 0.48252 0.0
C3633 C 0.06867 0.49993 0.47568 0.0
C3634 C 0.0702 0.51998 0.49261 0.0
C3635 C 0.06864 0.51653 0.51643 0.0
C3636 C 0.06486 0.49209 0.52279 0.0
H3637 H 0.49882 0.34102 0.14566 0.0
H3638 H 0.55289 0.34024 0.2022 0.0
H3639 H 0.52896 0.3445 0.23146 0.0
H3640 H 0.4771 0.38632 0.17679 0.0
H3641 H 0.44848 0.37198 0.16533 0.0
H3642 H 0.46957 0.36834 0.14828 0.0
H3643 H 0.45637 0.32113 0.14586 0.0
H3644 H 0.43522 0.32463 0.16288 0.0
H3645 H 0.45481 0.3068 0.17271 0.0
H3646 H 0.49966 0.34879 0.25506 0.0
H3647 H 0.46679 0.35366 0.27159 0.0
H3648 H 0.4308 0.35238 0.20078 0.0
C3649 C 0.50561 0.34169 0.16418 0.0
C3650 C 0.52793 0.34028 0.17143 0.0
C3651 C 0.53602 0.34134 0.19596 0.0
C3652 C 0.5225 0.34373 0.21284 0.0
C3653 C 0.50076 0.34517 0.20517 0.0
C3654 C 0.49229 0.34427 0.18146 0.0
C3655 C 0.46831 0.34658 0.17825 0.0
C3656 C 0.46572 0.36968 0.16646 0.0
C3657 C 0.45276 0.32341 0.16408 0.0
C3658 C 0.46474 0.34893 0.20382 0.0
C3659 C 0.48372 0.34794 0.21897 0.0
C3660 C 0.48468 0.34951 0.24336 0.0
C3661 C 0.46579 0.35213 0.2526 0.0
C3662 C 0.44599 0.35324 0.23761 0.0
C3663 C 0.44562 0.35173 0.21281 0.0
H3664 H 0.67002 0.62697 0.44595 0.0
H3665 H 0.6486 0.56801 0.38857 0.0
H3666 H 0.61684 0.54976 0.40715 0.0
H3667 H 0.6544 0.59236 0.49277 0.0
H3668 H 0.64404 0.61585 0.50747 0.0
H3669 H 0.66572 0.6242 0.49043 0.0
H3670 H 0.6427 0.64846 0.46479 0.0
H3671 H 0.621 0.64106 0.48198 0.0
H3672 H 0.61495 0.63369 0.45034 0.0
H3673 H 0.58725 0.53794 0.43201 0.0
H3674 H 0.56059 0.5353 0.45987 0.0
H3675 H 0.59961 0.60378 0.49885 0.0
C3676 C 0.65871 0.61014 0.43746 0.0
C3677 C 0.66176 0.59876 0.41596 0.0
C3678 C 0.64645 0.57698 0.40508 0.0
C3679 C 0.62844 0.56644 0.41553 0.0
C3680 C 0.62575 0.57814 0.43667 0.0
C3681 C 0.64026 0.59972 0.44733 0.0
C3682 C 0.63281 0.60941 0.46918 0.0
C3683 C 0.65026 0.61049 0.49129 0.0
C3684 C 0.62755 0.63465 0.4664 0.0
C3685 C 0.61198 0.58983 0.46922 0.0
C3686 C 0.60829 0.57182 0.45047 0.0
C3687 C 0.58995 0.55195 0.44678 0.0
C3688 C 0.57489 0.55059 0.46263 0.0
C3689 C 0.57817 0.56915 0.48165 0.0
C3690 C 0.59693 0.589 0.48482 0.0
H3691 H 0.33835 0.93675 0.12937 0.0
H3692 H 0.31563 0.86973 0.08117 0.0
H3693 H 0.31374 0.84556 0.115 0.0
H3694 H 0.37199 0.91224 0.17495 0.0
H3695 H 0.36456 0.92854 0.19949 0.0
H3696 H 0.36459 0.9412 0.17166 0.0
H3697 H 0.32384 0.94376 0.17031 0.0
H3698 H 0.32379 0.93122 0.19819 0.0
H3699 H 0.30334 0.91658 0.17286 0.0
H3700 H 0.31422 0.82785 0.15383 0.0
H3701 H 0.31527 0.81792 0.19471 0.0
H3702 H 0.33701 0.89544 0.22019 0.0
C3703 C 0.33297 0.91698 0.12593 0.0
C3704 C 0.32716 0.90533 0.10215 0.0
C3705 C 0.32017 0.87936 0.09883 0.0
C3706 C 0.31908 0.86534 0.1181 0.0
C3707 C 0.32493 0.87725 0.14109 0.0
C3708 C 0.33162 0.90251 0.14522 0.0
C3709 C 0.33648 0.91043 0.17195 0.0
C3710 C 0.36086 0.92391 0.17998 0.0
C3711 C 0.32094 0.92645 0.17872 0.0
C3712 C 0.33153 0.88572 0.18208 0.0
C3713 C 0.32498 0.86692 0.16378 0.0
C3714 C 0.31933 0.84249 0.16824 0.0
C3715 C 0.32004 0.83701 0.19176 0.0
C3716 C 0.32632 0.85568 0.21118 0.0
C3717 C 0.33235 0.88052 0.20604 0.0
H3718 H 0.96694 0.63154 0.91472 0.0
H3719 H 0.01467 0.68677 0.88887 0.0
H3720 H 0.04305 0.68418 0.92273 0.0
H3721 H 0.98892 0.64638 0.97902 0.0
H3722 H 0.98427 0.61448 0.98364 0.0
H3723 H 0.96613 0.62433 0.96092 0.0
H3724 H 0.97384 0.59316 0.92999 0.0
H3725 H 0.99193 0.58296 0.95235 0.0
H3726 H 1.00196 0.59378 0.92645 0.0
H3727 H 0.06733 0.67184 0.95669 0.0
H3728 H 0.08553 0.6507 0.98713 0.0
H3729 H 0.02281 0.60006 0.98744 0.0
C3730 C 0.98317 0.64363 0.91636 0.0
C3731 C 0.98848 0.65935 0.89893 0.0
C3732 C 1.01005 0.67469 0.90197 0.0
C3733 C 0.02633 0.67328 0.92115 0.0
C3734 C 0.02083 0.65636 0.93706 0.0
C3735 C 0.99971 0.64187 0.93488 0.0
C3736 C 0.99864 0.62292 0.95231 0.0
C3737 C 0.98357 0.62733 0.97001 0.0
C3738 C 0.99117 0.59666 0.9395 0.0
C3739 C 0.02261 0.62849 0.96427 0.0
C3740 C 0.03504 0.64823 0.95563 0.0
C3741 C 0.0577 0.6565 0.96366 0.0
C3742 C 0.0679 0.64428 0.9809 0.0
C3743 C 0.05557 0.62369 0.98965 0.0
C3744 C 0.03261 0.61581 0.98122 0.0
H3745 H 0.26578 0.23267 0.60294 0.0
H3746 H 0.31797 0.28696 0.58254 0.0
H3747 H 0.32751 0.30751 0.62332 0.0
H3748 H 0.24843 0.27575 0.64222 0.0
H3749 H 0.2424 0.25469 0.66372 0.0
H3750 H 0.24004 0.2432 0.63317 0.0
H3751 H 0.26705 0.21571 0.64517 0.0
H3752 H 0.26944 0.22706 0.67576 0.0
H3753 H 0.29391 0.22939 0.66253 0.0
H3754 H 0.33241 0.32196 0.66655 0.0
H3755 H 0.33095 0.33074 0.70876 0.0
H3756 H 0.27392 0.26972 0.70238 0.0
C3757 C 0.27934 0.24876 0.60714 0.0
C3758 C 0.29126 0.25799 0.58932 0.0
C3759 C 0.30859 0.27939 0.59565 0.0
C3760 C 0.31417 0.29124 0.61888 0.0
C3761 C 0.3021 0.28187 0.63591 0.0
C3762 C 0.28489 0.26125 0.63038 0.0
C3763 C 0.27414 0.25575 0.6521 0.0
C3764 C 0.2498 0.25745 0.64752 0.0
C3765 C 0.27626 0.23047 0.65931 0.0
C3766 C 0.28809 0.27636 0.67063 0.0
C3767 C 0.30426 0.29101 0.66082 0.0
C3768 C 0.31971 0.31068 0.67433 0.0
C3769 C 0.31878 0.31551 0.69841 0.0
C3770 C 0.30228 0.30111 0.70909 0.0
C3771 C 0.28657 0.28132 0.6948 0.0
H3772 H 0.65184 0.57351 0.29129 0.0
H3773 H 0.71889 0.6107 0.2865 0.0
H3774 H 0.70846 0.60749 0.24315 0.0
H3775 H 0.63922 0.53348 0.23193 0.0
H3776 H 0.61121 0.53736 0.22717 0.0
H3777 H 0.62527 0.53657 0.25672 0.0
H3778 H 0.61732 0.57853 0.2695 0.0
H3779 H 0.60353 0.57961 0.24011 0.0
H3780 H 0.62641 0.60438 0.25379 0.0
H3781 H 0.6892 0.60895 0.20267 0.0
H3782 H 0.6628 0.61363 0.16785 0.0
H3783 H 0.60826 0.57541 0.19875 0.0
C3784 C 0.66455 0.58011 0.28105 0.0
C3785 C 0.68615 0.59231 0.29217 0.0
C3786 C 0.70226 0.60114 0.27827 0.0
C3787 C 0.6965 0.59931 0.25363 0.0
C3788 C 0.6747 0.5883 0.24326 0.0
C3789 C 0.65904 0.57848 0.25651 0.0
C3790 C 0.63611 0.5709 0.24173 0.0
C3791 C 0.62745 0.54291 0.23924 0.0
C3792 C 0.61992 0.58416 0.25189 0.0
C3793 C 0.64105 0.57958 0.21852 0.0
C3794 C 0.66348 0.58903 0.21958 0.0
C3795 C 0.67171 0.60097 0.20136 0.0
C3796 C 0.65663 0.60373 0.18179 0.0
C3797 C 0.63362 0.59469 0.18071 0.0
C3798 C 0.62583 0.58187 0.19897 0.0
H3799 H 0.31674 0.89151 0.97179 0.0
H3800 H 0.32438 0.96513 0.95066 0.0
H3801 H 0.31962 0.94858 0.90932 0.0
H3802 H 0.34557 0.8685 0.92813 0.0
H3803 H 0.32715 0.83848 0.92199 0.0
H3804 H 0.33096 0.85567 0.95059 0.0
H3805 H 0.28872 0.85179 0.94606 0.0
H3806 H 0.2848 0.83455 0.91747 0.0
H3807 H 0.27439 0.86188 0.92047 0.0
H3808 H 0.31572 0.92482 0.86934 0.0
H3809 H 0.31076 0.89467 0.83419 0.0
H3810 H 0.30361 0.83567 0.87867 0.0
C3811 C 0.31729 0.90415 0.95851 0.0
C3812 C 0.32106 0.92991 0.9652 0.0
C3813 C 0.32161 0.94545 0.94673 0.0
C3814 C 0.31893 0.93621 0.92285 0.0
C3815 C 0.31549 0.91105 0.91693 0.0
C3816 C 0.31445 0.89512 0.93413 0.0
C3817 C 0.31034 0.86876 0.92247 0.0
C3818 C 0.32966 0.85717 0.93133 0.0
C3819 C 0.28825 0.85333 0.92688 0.0
C3820 C 0.30936 0.87254 0.8963 0.0
C3821 C 0.31253 0.89718 0.89359 0.0
C3822 C 0.31303 0.90544 0.8713 0.0
C3823 C 0.31017 0.88818 0.85131 0.0
C3824 C 0.30651 0.86273 0.85333 0.0
C3825 C 0.3061 0.85494 0.87631 0.0
H3826 H 0.96845 0.64887 0.74548 0.0
H3827 H 0.01911 0.70805 0.78696 0.0
H3828 H 0.04236 0.70688 0.75608 0.0
H3829 H 1.00326 0.61459 0.73108 0.0
H3830 H 0.98865 0.60278 0.70168 0.0
H3831 H 0.97387 0.61205 0.72376 0.0
H3832 H 0.95936 0.64208 0.69685 0.0
H3833 H 0.97382 0.63258 0.67439 0.0
H3834 H 0.97872 0.6646 0.6851 0.0
H3835 H 0.0625 0.69432 0.72402 0.0
H3836 H 0.07701 0.67274 0.69316 0.0
H3837 H 1.01355 0.62051 0.67429 0.0
C3838 C 0.98402 0.66232 0.74768 0.0
C3839 C 0.99186 0.67873 0.76856 0.0
C3840 C 1.01263 0.69554 0.77098 0.0
C3841 C 0.02598 0.69495 0.75354 0.0
C3842 C 0.01825 0.67752 0.73378 0.0
C3843 C 0.99759 0.66172 0.73065 0.0
C3844 C 0.99414 0.64267 0.70958 0.0
C3845 C 0.98973 0.6165 0.71699 0.0
C3846 C 0.9754 0.64567 0.69034 0.0
C3847 C 0.01638 0.64959 0.70181 0.0
C3848 C 0.02997 0.66995 0.7157 0.0
C3849 C 0.05185 0.67861 0.71283 0.0
C3850 C 0.06002 0.66607 0.6954 0.0
C3851 C 0.04642 0.64495 0.68121 0.0
C3852 C 0.02425 0.6369 0.68441 0.0
H3853 H 0.27387 0.22729 0.42064 0.0
H3854 H 0.29576 0.28717 0.47726 0.0
H3855 H 0.30588 0.31585 0.44822 0.0
H3856 H 0.31622 0.24751 0.38616 0.0
H3857 H 0.29837 0.23866 0.35785 0.0
H3858 H 0.29206 0.22258 0.38276 0.0
H3859 H 0.25316 0.23198 0.3769 0.0
H3860 H 0.25942 0.2481 0.35197 0.0
H3861 H 0.25073 0.26332 0.37627 0.0
H3862 H 0.31586 0.33818 0.41345 0.0
H3863 H 0.32408 0.35261 0.37575 0.0
H3864 H 0.29471 0.27969 0.33971 0.0
C3865 C 0.28068 0.24647 0.42699 0.0
C3866 C 0.28394 0.2547 0.45168 0.0
C3867 C 0.29292 0.28009 0.45878 0.0
C3868 C 0.29879 0.29664 0.44228 0.0
C3869 C 0.29549 0.28793 0.41832 0.0
C3870 C 0.28649 0.26345 0.41058 0.0
C3871 C 0.28488 0.25905 0.38369 0.0
C3872 C 0.2987 0.24087 0.37724 0.0
C3873 C 0.2606 0.25007 0.37149 0.0
C3874 C 0.29477 0.28474 0.37762 0.0
C3875 C 0.30072 0.30104 0.39801 0.0
C3876 C 0.31101 0.32557 0.39742 0.0
C3877 C 0.31561 0.33365 0.37576 0.0
C3878 C 0.30983 0.31759 0.35444 0.0
C3879 C 0.29897 0.2927 0.35546 0.0
H3880 H 0.33509 0.66909 0.49907 0.0
H3881 H 0.36496 0.73171 0.5515 0.0
H3882 H 0.39963 0.71676 0.55767 0.0
H3883 H 0.35813 0.62547 0.52923 0.0
H3884 H 0.36158 0.60878 0.50263 0.0
H3885 H 0.33993 0.62524 0.50179 0.0
H3886 H 0.35502 0.64937 0.46887 0.0
H3887 H 0.3767 0.63294 0.46956 0.0
H3888 H 0.38357 0.666 0.47375 0.0
H3889 H 0.43122 0.6934 0.55828 0.0
H3890 H 0.4555 0.6647 0.55399 0.0
H3891 H 0.40392 0.61763 0.50124 0.0
C3892 C 0.34888 0.68001 0.51177 0.0
C3893 C 0.34711 0.70186 0.52469 0.0
C3894 C 0.36576 0.71508 0.54124 0.0
C3895 C 0.38555 0.70665 0.54487 0.0
C3896 C 0.38649 0.6849 0.53189 0.0
C3897 C 0.36853 0.67183 0.51567 0.0
C3898 C 0.3732 0.64867 0.50433 0.0
C3899 C 0.35727 0.62569 0.50983 0.0
C3900 C 0.37206 0.64929 0.47754 0.0
C3901 C 0.39668 0.65051 0.51666 0.0
C3902 C 0.40417 0.67156 0.53243 0.0
C3903 C 0.42542 0.67698 0.54587 0.0
C3904 C 0.4392 0.66056 0.54318 0.0
C3905 C 0.43182 0.63873 0.52721 0.0
C3906 C 0.41017 0.63389 0.5138 0.0
H3907 H 0.9146 0.94736 0.54455 0.0
H3908 H 0.8862 0.99405 0.58813 0.0
H3909 H 0.91937 0.02755 0.59088 0.0
H3910 H 0.97233 0.97375 0.58029 0.0
H3911 H 0.98614 0.97056 0.55544 0.0
H3912 H 0.96057 0.94915 0.55689 0.0
H3913 H 0.94134 0.95978 0.51587 0.0
H3914 H 0.96873 0.97751 0.51501 0.0
H3915 H 0.94587 0.99182 0.51132 0.0
H3916 H 0.95175 0.05832 0.58307 0.0
H3917 H 0.98644 0.08231 0.57393 0.0
H3918 H 0.99856 0.01639 0.53935 0.0
C3919 C 0.91551 0.96463 0.55475 0.0
C3920 C 0.89713 0.96843 0.56521 0.0
C3921 C 0.89949 0.99094 0.57919 0.0
C3922 C 0.91838 0.01013 0.58092 0.0
C3923 C 0.93542 1.00657 0.5691 0.0
C3924 C 0.93471 0.98416 0.55699 0.0
C3925 C 0.95655 0.98522 0.54774 0.0
C3926 C 0.96967 0.96869 0.56087 0.0
C3927 C 0.9528 0.97811 0.52091 0.0
C3928 C 0.96834 0.01232 0.55436 0.0
C3929 C 0.95572 0.02404 0.56685 0.0
C3930 C 0.96204 0.0492 0.57384 0.0
C3931 C 0.98184 0.06278 0.56835 0.0
C3932 C 0.99564 0.05148 0.55606 0.0
C3933 C 0.98866 0.0257 0.549 0.0
H3934 H 0.85297 0.09841 0.19558 0.0
H3935 H 0.92358 0.13042 0.21043 0.0
H3936 H 0.91603 0.17172 0.2159 0.0
H3937 H 0.83493 0.15165 0.16784 0.0
H3938 H 0.81082 0.14676 0.18187 0.0
H3939 H 0.82174 0.12108 0.17281 0.0
H3940 H 0.82449 0.10892 0.21547 0.0
H3941 H 0.81403 0.13467 0.22479 0.0
H3942 H 0.84031 0.13098 0.23965 0.0
H3943 H 0.90083 0.20797 0.22766 0.0
H3944 H 0.87967 0.23554 0.24404 0.0
H3945 H 0.8192 0.17908 0.22275 0.0
C3946 C 0.86689 0.11417 0.19913 0.0
C3947 C 0.88886 0.11123 0.20259 0.0
C3948 C 0.90661 0.13227 0.20744 0.0
C3949 C 0.90245 0.15579 0.2106 0.0
C3950 C 0.8805 0.15787 0.20852 0.0
C3951 C 0.86301 0.13756 0.20253 0.0
C3952 C 0.84114 0.14388 0.20468 0.0
C3953 C 0.82629 0.14066 0.18035 0.0
C3954 C 0.82933 0.12872 0.22219 0.0
C3955 C 0.84911 0.17062 0.21423 0.0
C3956 C 0.87177 0.1786 0.21574 0.0
C3957 C 0.88304 0.20209 0.22601 0.0
C3958 C 0.8709 0.21761 0.23526 0.0
C3959 C 0.84781 0.20938 0.23454 0.0
C3960 C 0.83681 0.18581 0.22342 0.0
H3961 H 0.7101 0.2154 0.01175 0.0
H3962 H 0.75562 0.17961 0.05201 0.0
H3963 H 0.72425 0.14832 0.05983 0.0
H3964 H 0.66872 0.20423 0.05045 0.0
H3965 H 0.64517 0.19901 0.02701 0.0
H3966 H 0.67099 0.21893 0.02389 0.0
H3967 H 0.67249 0.19216 0.98479 0.0
H3968 H 0.64554 0.17494 0.98794 0.0
H3969 H 0.66716 0.15925 0.98515 0.0
H3970 H 0.68818 0.12074 0.06387 0.0
H3971 H 0.64948 0.09848 0.06322 0.0
H3972 H 0.62618 0.15033 0.01957 0.0
C3973 C 0.71335 0.20092 0.02215 0.0
C3974 C 0.73544 0.19969 0.03087 0.0
C3975 C 0.73895 0.18068 0.04475 0.0
C3976 C 0.72119 0.16282 0.04938 0.0
C3977 C 0.69971 0.16411 0.04019 0.0
C3978 C 0.6956 0.18263 0.02687 0.0
C3979 C 0.67068 0.17979 0.01974 0.0
C3980 C 0.66347 0.2018 0.03094 0.0
C3981 C 0.66361 0.17639 0.99278 0.0
C3982 C 0.66166 0.15642 0.03038 0.0
C3983 C 0.67874 0.14796 0.04243 0.0
C3984 C 0.67467 0.12712 0.05434 0.0
C3985 C 0.65262 0.11455 0.05387 0.0
C3986 C 0.63477 0.12237 0.04111 0.0
C3987 C 0.63947 0.14362 0.02916 0.0
H3988 H 0.20428 0.43535 0.23006 0.0
H3989 H 0.16164 0.41032 0.27988 0.0
H3990 H 0.18686 0.38492 0.29517 0.0
H3991 H 0.22558 0.37599 0.22188 0.0
H3992 H 0.25264 0.39392 0.22 0.0
H3993 H 0.22832 0.40444 0.20884 0.0
H3994 H 0.24504 0.44537 0.23523 0.0
H3995 H 0.2688 0.43472 0.24775 0.0
H3996 H 0.25177 0.4454 0.2668 0.0
H3997 H 0.22029 0.37122 0.31146 0.0
H3998 H 0.25582 0.3595 0.321 0.0
H3999 H 0.27786 0.39288 0.26069 0.0
C4000 C 0.19952 0.42312 0.24299 0.0
C4001 C 0.18078 0.4243 0.25348 0.0
C4002 C 0.1755 0.40898 0.27113 0.0
C4003 C 0.19001 0.39491 0.28024 0.0
C4004 C 0.20954 0.39617 0.27123 0.0
C4005 C 0.21397 0.40903 0.25233 0.0
C4006 C 0.23708 0.40898 0.24741 0.0
C4007 C 0.23583 0.39499 0.22309 0.0
C4008 C 0.25151 0.43518 0.24944 0.0
C4009 C 0.2453 0.39516 0.26721 0.0
C4010 C 0.22908 0.38805 0.28071 0.0
C4011 C 0.23291 0.37616 0.30069 0.0
C4012 C 0.2533 0.36993 0.30617 0.0
C4013 C 0.26966 0.37537 0.29166 0.0
C4014 C 0.26586 0.38887 0.27233 0.0
H4015 H 0.28099 0.48287 0.01971 0.0
H4016 H 0.27179 0.43339 0.07354 0.0
H4017 H 0.23819 0.44757 0.08005 0.0
H4018 H 0.26572 0.53229 0.04898 0.0
H4019 H 0.25205 0.54143 0.02246 0.0
H4020 H 0.27431 0.52617 0.02112 0.0
H4021 H 0.24881 0.49274 0.9895 0.0
H4022 H 0.22649 0.50797 0.99062 0.0
H4023 H 0.22268 0.47616 0.99563 0.0
H4024 H 0.20638 0.46979 0.08216 0.0
H4025 H 0.17907 0.49568 0.0783 0.0
H4026 H 0.20972 0.53038 0.02307 0.0
C4027 C 0.27184 0.47464 0.0327 0.0
C4028 C 0.27919 0.4568 0.04604 0.0
C4029 C 0.26655 0.44685 0.0629 0.0
C4030 C 0.24745 0.45491 0.06679 0.0
C4031 C 0.24103 0.4729 0.05362 0.0
C4032 C 0.25282 0.48243 0.03675 0.0
C4033 C 0.24299 0.50197 0.02526 0.0
C4034 C 0.25977 0.52694 0.02973 0.0
C4035 C 0.23475 0.49424 0.99868 0.0
C4036 C 0.22383 0.5022 0.03835 0.0
C4037 C 0.22293 0.48536 0.05469 0.0
C4038 C 0.20694 0.48288 0.0693 0.0
C4039 C 0.19154 0.49783 0.06708 0.0
C4040 C 0.19202 0.51513 0.0503 0.0
C4041 C 0.20851 0.51714 0.0358 0.0
H4042 H 0.87644 0.96503 0.19372 0.0
H4043 H 0.91392 1.00575 0.25948 0.0
H4044 H 0.8996 0.97142 0.28126 0.0
H4045 H 0.82592 0.92632 0.20916 0.0
H4046 H 0.83075 0.90243 0.19033 0.0
H4047 H 0.84181 0.93372 0.18588 0.0
H4048 H 0.88885 0.90537 0.21746 0.0
H4049 H 0.8778 0.91258 0.1888 0.0
H4050 H 0.8637 0.88603 0.2008 0.0
H4051 H 0.87683 0.937 0.2967 0.0
H4052 H 0.84927 0.90158 0.3048 0.0
H4053 H 0.8275 0.88044 0.22953 0.0
C4054 C 0.88143 0.96651 0.21268 0.0
C4055 C 0.8954 0.98842 0.22522 0.0
C4056 C 0.90272 0.98942 0.24979 0.0
C4057 C 0.89483 0.96993 0.26226 0.0
C4058 C 0.88037 0.94902 0.24976 0.0
C4059 C 0.87418 0.94668 0.22544 0.0
C4060 C 0.85966 0.92111 0.21671 0.0
C4061 C 0.8384 0.92113 0.19951 0.0
C4062 C 0.87331 0.90535 0.20527 0.0
C4063 C 0.85484 0.91218 0.24008 0.0
C4064 C 0.86815 0.92792 0.25884 0.0
C4065 C 0.86656 0.9243 0.28221 0.0
C4066 C 0.85072 0.90427 0.28663 0.0
C4067 C 0.83612 0.88858 0.26781 0.0
C4068 C 0.83838 0.89236 0.24421 0.0
H4069 H 0.66051 0.07155 0.76032 0.0
H4070 H 0.70346 0.0332 0.72816 0.0
H4071 H 0.73043 0.07221 0.72868 0.0
H4072 H 0.6748 0.12486 0.72465 0.0
H4073 H 0.67199 0.14696 0.74761 0.0
H4074 H 0.65517 0.11611 0.74405 0.0
H4075 H 0.67006 0.11032 0.78818 0.0
H4076 H 0.68429 0.1421 0.79063 0.0
H4077 H 0.69953 0.11961 0.79849 0.0
H4078 H 0.75502 0.11304 0.73859 0.0
H4079 H 0.77279 0.15704 0.74765 0.0
H4080 H 0.71315 0.17045 0.77029 0.0
C4081 C 0.67556 0.07161 0.75331 0.0
C4082 C 0.68074 0.04955 0.74545 0.0
C4083 C 0.69991 0.05002 0.73531 0.0
C4084 C 0.71522 0.07201 0.73539 0.0
C4085 C 0.7106 0.09334 0.74489 0.0
C4086 C 0.69092 0.09363 0.75279 0.0
C4087 C 0.6897 0.11964 0.76036 0.0
C4088 C 0.67186 0.12735 0.74314 0.0
C4089 C 0.68564 0.12301 0.78591 0.0
C4090 C 0.71268 0.13328 0.75784 0.0
C4091 C 0.72428 0.11771 0.74864 0.0
C4092 C 0.74606 0.12565 0.7454 0.0
C4093 C 0.75611 0.15053 0.75096 0.0
C4094 C 0.74433 0.16701 0.7597 0.0
C4095 C 0.72244 0.1582 0.76346 0.0
loop_
_geom_bond_atom_site_label_1
_geom_bond_atom_site_label_2
_geom_bond_distance
_geom_bond_site_symmetry_2
_ccdc_geom_bond_type
Mn0 O5 2.095 . S
Mn0 O15 2.162 . S
Mn0 O16 2.297 . S
Mn0 O24 2.385 1_455 S
Mn0 O25 2.209 1_455 S
Mn0 O26 2.094 . S
Mn1 O6 2.121 . S
Mn1 N8 2.257 1_455 S
Mn1 N17 2.282 1_455 S
Mn1 O25 2.215 1_455 S
Mn1 O27 2.117 . S
C2 O24 1.234 . S
C2 O25 1.283 . S
C3 O15 1.281 . S
C3 O16 1.236 . S
C4 O26 1.240 . S
C4 O27 1.264 . S
O5 Mn0 2.095 . S
O5 C14 1.250 . S
O6 Mn1 2.121 . S
O6 C14 1.258 . S
C7 N8 1.326 1_455 S
C7 C11 1.460 1_455 S
C7 H13 0.929 . S
N8 Mn1 2.257 1_655 S
N8 C7 1.326 1_655 S
N8 C12 1.362 . S
C9 C10 1.258 . S
C9 C12 1.431 . S
C9 C29 1.449 . S
C10 C9 1.258 . S
C10 C11 1.477 . S
C10 H30 0.931 . S
C11 C7 1.460 1_655 S
C11 C10 1.477 . S
C11 H31 0.930 . S
C12 N8 1.362 . S
C12 C9 1.431 . S
C12 C22 1.476 . S
H13 C7 0.929 . S
C14 O5 1.250 . S
C14 O6 1.258 . S
O15 Mn0 2.162 . S
O15 C3 1.281 . S
O16 Mn0 2.297 . S
O16 C3 1.236 . S
N17 Mn1 2.282 1_655 S
N17 C18 1.328 . S
N17 C22 1.318 . S
C18 N17 1.328 . S
C18 C19 1.457 . S
C18 H23 0.929 . S
C19 C18 1.457 . S
C19 C20 1.291 . S
C19 H32 0.931 . S
C20 C19 1.291 . S
C20 C21 1.373 . S
C20 H33 0.929 . S
C21 C20 1.373 . S
C21 C22 1.396 . S
C21 C28 1.403 . S
C22 C12 1.476 . S
C22 N17 1.318 . S
C22 C21 1.396 . S
H23 C18 0.929 . S
O24 Mn0 2.385 1_655 S
O24 C2 1.234 . S
O25 Mn0 2.209 1_655 S
O25 Mn1 2.215 1_655 S
O25 C2 1.283 . S
O26 Mn0 2.094 . S
O26 C4 1.240 . S
O27 Mn1 2.117 . S
O27 C4 1.264 . S
C28 C21 1.403 . S
C28 C29 1.399 . S
C28 H34 0.929 . S
C29 C9 1.449 . S
C29 C28 1.399 . S
C29 H35 0.930 . S
H30 C10 0.931 . S
H31 C11 0.930 . S
H32 C19 0.931 . S
H33 C20 0.929 . S
H34 C28 0.929 . S
H35 C29 0.930 . S
Mn36 O41 2.095 . S
Mn36 O51 2.162 . S
Mn36 O52 2.297 . S
Mn36 O60 2.385 . S
Mn36 O61 2.209 . S
Mn36 O62 2.094 . S
Mn37 O42 2.121 . S
Mn37 N44 2.257 . S
Mn37 N53 2.282 . S
Mn37 O61 2.215 . S
Mn37 O63 2.117 . S
C38 O60 1.234 . S
C38 O61 1.283 . S
C39 O51 1.281 . S
C39 O52 1.236 . S
C40 O62 1.240 . S
C40 O63 1.264 . S
O41 Mn36 2.095 . S
O41 C50 1.250 . S
O42 Mn37 2.121 . S
O42 C50 1.258 . S
C43 N44 1.326 . S
C43 C47 1.460 . S
C43 H49 0.929 . S
N44 Mn37 2.257 . S
N44 C43 1.326 . S
N44 C48 1.362 . S
C45 C46 1.258 . S
C45 C48 1.431 . S
C45 C65 1.449 . S
C46 C45 1.258 . S
C46 C47 1.477 . S
C46 H66 0.931 . S
C47 C43 1.460 . S
C47 C46 1.477 . S
C47 H67 0.930 . S
C48 N44 1.362 . S
C48 C45 1.431 . S
C48 C58 1.476 . S
H49 C43 0.929 . S
C50 O41 1.250 . S
C50 O42 1.258 . S
O51 Mn36 2.162 . S
O51 C39 1.281 . S
O52 Mn36 2.297 . S
O52 C39 1.236 . S
N53 Mn37 2.282 . S
N53 C54 1.328 . S
N53 C58 1.318 . S
C54 N53 1.328 . S
C54 C55 1.457 . S
C54 H59 0.929 . S
C55 C54 1.457 . S
C55 C56 1.291 . S
C55 H68 0.931 . S
C56 C55 1.291 . S
C56 C57 1.373 . S
C56 H69 0.929 . S
C57 C56 1.373 . S
C57 C58 1.396 . S
C57 C64 1.403 . S
C58 C48 1.476 . S
C58 N53 1.318 . S
C58 C57 1.396 . S
H59 C54 0.929 . S
O60 Mn36 2.385 . S
O60 C38 1.234 . S
O61 Mn36 2.209 . S
O61 Mn37 2.215 . S
O61 C38 1.283 . S
O62 Mn36 2.094 . S
O62 C40 1.240 . S
O63 Mn37 2.117 . S
O63 C40 1.264 . S
C64 C57 1.403 . S
C64 C65 1.399 . S
C64 H70 0.929 . S
C65 C45 1.449 . S
C65 C64 1.399 . S
C65 H71 0.930 . S
H66 C46 0.931 . S
H67 C47 0.930 . S
H68 C55 0.931 . S
H69 C56 0.929 . S
H70 C64 0.929 . S
H71 C65 0.930 . S
Mn72 O77 2.095 . S
Mn72 O87 2.162 . S
Mn72 O88 2.297 . S
Mn72 O96 2.385 . S
Mn72 O97 2.209 . S
Mn72 O98 2.094 . S
Mn73 O78 2.121 . S
Mn73 N80 2.257 . S
Mn73 N89 2.282 . S
Mn73 O97 2.215 . S
Mn73 O99 2.117 . S
C74 O96 1.234 . S
C74 O97 1.283 . S
C75 O87 1.281 . S
C75 O88 1.236 . S
C76 O98 1.240 . S
C76 O99 1.264 . S
O77 Mn72 2.095 . S
O77 C86 1.250 . S
O78 Mn73 2.121 . S
O78 C86 1.258 . S
C79 N80 1.326 . S
C79 C83 1.460 . S
C79 H85 0.929 . S
N80 Mn73 2.257 . S
N80 C79 1.326 . S
N80 C84 1.362 . S
C81 C82 1.258 . S
C81 C84 1.431 . S
C81 C101 1.449 . S
C82 C81 1.258 . S
C82 C83 1.477 . S
C82 H102 0.931 . S
C83 C79 1.460 . S
C83 C82 1.477 . S
C83 H103 0.930 . S
C84 N80 1.362 . S
C84 C81 1.431 . S
C84 C94 1.476 . S
H85 C79 0.929 . S
C86 O77 1.250 . S
C86 O78 1.258 . S
O87 Mn72 2.162 . S
O87 C75 1.281 . S
O88 Mn72 2.297 . S
O88 C75 1.236 . S
N89 Mn73 2.282 . S
N89 C90 1.328 . S
N89 C94 1.318 . S
C90 N89 1.328 . S
C90 C91 1.457 . S
C90 H95 0.929 . S
C91 C90 1.457 . S
C91 C92 1.291 . S
C91 H104 0.931 . S
C92 C91 1.291 . S
C92 C93 1.373 . S
C92 H105 0.929 . S
C93 C92 1.373 . S
C93 C94 1.396 . S
C93 C100 1.403 . S
C94 C84 1.476 . S
C94 N89 1.318 . S
C94 C93 1.396 . S
H95 C90 0.929 . S
O96 Mn72 2.385 . S
O96 C74 1.234 . S
O97 Mn72 2.209 . S
O97 Mn73 2.215 . S
O97 C74 1.283 . S
O98 Mn72 2.094 . S
O98 C76 1.240 . S
O99 Mn73 2.117 . S
O99 C76 1.264 . S
C100 C93 1.403 . S
C100 C101 1.399 . S
C100 H106 0.929 . S
C101 C81 1.449 . S
C101 C100 1.399 . S
C101 H107 0.930 . S
H102 C82 0.931 . S
H103 C83 0.930 . S
H104 C91 0.931 . S
H105 C92 0.929 . S
H106 C100 0.929 . S
H107 C101 0.930 . S
Mn108 O113 2.095 . S
Mn108 O123 2.162 . S
Mn108 O124 2.297 . S
Mn108 O132 2.385 . S
Mn108 O133 2.209 . S
Mn108 O134 2.094 . S
Mn109 O114 2.121 . S
Mn109 N116 2.257 . S
Mn109 N125 2.282 . S
Mn109 O133 2.215 . S
Mn109 O135 2.117 . S
C110 O132 1.234 . S
C110 O133 1.283 . S
C111 O123 1.281 . S
C111 O124 1.236 . S
C112 O134 1.240 . S
C112 O135 1.264 . S
O113 Mn108 2.095 . S
O113 C122 1.250 . S
O114 Mn109 2.121 . S
O114 C122 1.258 . S
C115 N116 1.326 . S
C115 C119 1.460 . S
C115 H121 0.929 . S
N116 Mn109 2.257 . S
N116 C115 1.326 . S
N116 C120 1.362 . S
C117 C118 1.258 . S
C117 C120 1.431 . S
C117 C137 1.449 . S
C118 C117 1.258 . S
C118 C119 1.477 . S
C118 H138 0.931 . S
C119 C115 1.460 . S
C119 C118 1.477 . S
C119 H139 0.930 . S
C120 N116 1.362 . S
C120 C117 1.431 . S
C120 C130 1.476 . S
H121 C115 0.929 . S
C122 O113 1.250 . S
C122 O114 1.258 . S
O123 Mn108 2.162 . S
O123 C111 1.281 . S
O124 Mn108 2.297 . S
O124 C111 1.236 . S
N125 Mn109 2.282 . S
N125 C126 1.328 . S
N125 C130 1.318 . S
C126 N125 1.328 . S
C126 C127 1.457 . S
C126 H131 0.929 . S
C127 C126 1.457 . S
C127 C128 1.291 . S
C127 H140 0.931 . S
C128 C127 1.291 . S
C128 C129 1.373 . S
C128 H141 0.929 . S
C129 C128 1.373 . S
C129 C130 1.396 . S
C129 C136 1.403 . S
C130 C120 1.476 . S
C130 N125 1.318 . S
C130 C129 1.396 . S
H131 C126 0.929 . S
O132 Mn108 2.385 . S
O132 C110 1.234 . S
O133 Mn108 2.209 . S
O133 Mn109 2.215 . S
O133 C110 1.283 . S
O134 Mn108 2.094 . S
O134 C112 1.240 . S
O135 Mn109 2.117 . S
O135 C112 1.264 . S
C136 C129 1.403 . S
C136 C137 1.399 . S
C136 H142 0.929 . S
C137 C117 1.449 . S
C137 C136 1.399 . S
C137 H143 0.930 . S
H138 C118 0.931 . S
H139 C119 0.930 . S
H140 C127 0.931 . S
H141 C128 0.929 . S
H142 C136 0.929 . S
H143 C137 0.930 . S
Mn144 O149 2.095 . S
Mn144 O159 2.162 . S
Mn144 O160 2.297 . S
Mn144 O168 2.385 . S
Mn144 O169 2.209 . S
Mn144 O170 2.094 . S
Mn145 O150 2.121 . S
Mn145 N152 2.257 . S
Mn145 N161 2.282 . S
Mn145 O169 2.215 . S
Mn145 O171 2.117 . S
C146 O168 1.234 . S
C146 O169 1.283 . S
C147 O159 1.281 . S
C147 O160 1.236 . S
C148 O170 1.240 . S
C148 O171 1.264 . S
O149 Mn144 2.095 . S
O149 C158 1.250 . S
O150 Mn145 2.121 . S
O150 C158 1.258 . S
C151 N152 1.326 . S
C151 C155 1.460 . S
C151 H157 0.929 . S
N152 Mn145 2.257 . S
N152 C151 1.326 . S
N152 C156 1.362 . S
C153 C154 1.258 . S
C153 C156 1.431 . S
C153 C173 1.449 . S
C154 C153 1.258 . S
C154 C155 1.477 . S
C154 H174 0.931 1_554 S
C155 C151 1.460 . S
C155 C154 1.477 . S
C155 H175 0.930 . S
C156 N152 1.362 . S
C156 C153 1.431 . S
C156 C166 1.476 . S
H157 C151 0.929 . S
C158 O149 1.250 . S
C158 O150 1.258 . S
O159 Mn144 2.162 . S
O159 C147 1.281 . S
O160 Mn144 2.297 . S
O160 C147 1.236 . S
N161 Mn145 2.282 . S
N161 C162 1.328 . S
N161 C166 1.318 . S
C162 N161 1.328 . S
C162 C163 1.457 1_455 S
C162 H167 0.929 . S
C163 C162 1.457 1_655 S
C163 C164 1.291 . S
C163 H176 0.931 . S
C164 C163 1.291 . S
C164 C165 1.355 1_655 S
C164 H177 0.929 . S
C165 C164 1.355 1_455 S
C165 C166 1.411 . S
C165 C172 1.411 1_455 S
C166 C156 1.476 . S
C166 N161 1.318 . S
C166 C165 1.411 . S
H167 C162 0.929 . S
O168 Mn144 2.385 . S
O168 C146 1.234 . S
O169 Mn144 2.209 . S
O169 Mn145 2.215 . S
O169 C146 1.283 . S
O170 Mn144 2.094 . S
O170 C148 1.240 . S
O171 Mn145 2.117 . S
O171 C148 1.264 . S
C172 C165 1.411 1_655 S
C172 C173 1.399 1_655 S
C172 H178 0.929 . S
C173 C153 1.449 . S
C173 C172 1.399 1_455 S
C173 H179 0.930 . S
H174 C154 0.931 1_556 S
H175 C155 0.930 . S
H176 C163 0.931 . S
H177 C164 0.929 . S
H178 C172 0.929 . S
H179 C173 0.930 . S
Mn180 O185 2.095 . S
Mn180 O195 2.162 . S
Mn180 O196 2.297 . S
Mn180 O204 2.385 . S
Mn180 O205 2.209 . S
Mn180 O206 2.094 . S
Mn181 O186 2.121 . S
Mn181 N188 2.257 . S
Mn181 N197 2.282 . S
Mn181 O205 2.215 . S
Mn181 O207 2.117 . S
C182 O204 1.234 . S
C182 O205 1.283 . S
C183 O195 1.281 . S
C183 O196 1.236 . S
C184 O206 1.240 . S
C184 O207 1.264 . S
O185 Mn180 2.095 . S
O185 C194 1.250 . S
O186 Mn181 2.121 . S
O186 C194 1.258 . S
C187 N188 1.326 . S
C187 C191 1.460 . S
C187 H193 0.929 . S
N188 Mn181 2.257 . S
N188 C187 1.326 . S
N188 C192 1.362 . S
C189 C190 1.258 . S
C189 C192 1.431 . S
C189 C209 1.449 . S
C190 C189 1.258 . S
C190 C191 1.477 . S
C190 H210 0.931 . S
C191 C187 1.460 . S
C191 C190 1.477 . S
C191 H211 0.930 . S
C192 N188 1.362 . S
C192 C189 1.431 . S
C192 C202 1.476 . S
H193 C187 0.929 . S
C194 O185 1.250 . S
C194 O186 1.258 . S
O195 Mn180 2.162 . S
O195 C183 1.281 . S
O196 Mn180 2.297 . S
O196 C183 1.236 . S
N197 Mn181 2.282 . S
N197 C198 1.328 . S
N197 C202 1.318 . S
C198 N197 1.328 . S
C198 C199 1.457 . S
C198 H203 0.929 . S
C199 C198 1.457 . S
C199 C200 1.291 . S
C199 H212 0.931 . S
C200 C199 1.291 . S
C200 C201 1.373 . S
C200 H213 0.929 . S
C201 C200 1.373 . S
C201 C202 1.396 . S
C201 C208 1.403 . S
C202 C192 1.476 . S
C202 N197 1.318 . S
C202 C201 1.396 . S
H203 C198 0.929 . S
O204 Mn180 2.385 . S
O204 C182 1.234 . S
O205 Mn180 2.209 . S
O205 Mn181 2.215 . S
O205 C182 1.283 . S
O206 Mn180 2.094 . S
O206 C184 1.240 . S
O207 Mn181 2.117 . S
O207 C184 1.264 . S
C208 C201 1.403 . S
C208 C209 1.399 . S
C208 H214 0.929 . S
C209 C189 1.449 . S
C209 C208 1.399 . S
C209 H215 0.930 . S
H210 C190 0.931 . S
H211 C191 0.930 . S
H212 C199 0.931 . S
H213 C200 0.929 . S
H214 C208 0.929 . S
H215 C209 0.930 . S
Mn216 O221 2.095 . S
Mn216 O231 2.162 . S
Mn216 O232 2.297 . S
Mn216 O240 2.385 . S
Mn216 O241 2.209 . S
Mn216 O242 2.094 . S
Mn217 O222 2.121 . S
Mn217 N224 2.257 . S
Mn217 N233 2.282 . S
Mn217 O241 2.215 . S
Mn217 O243 2.117 . S
C218 O240 1.234 . S
C218 O241 1.283 . S
C219 O231 1.281 . S
C219 O232 1.236 . S
C220 O242 1.240 . S
C220 O243 1.264 . S
O221 Mn216 2.095 . S
O221 C230 1.250 . S
O222 Mn217 2.121 . S
O222 C230 1.258 . S
C223 N224 1.326 . S
C223 C227 1.460 . S
C223 H229 0.929 . S
N224 Mn217 2.257 . S
N224 C223 1.326 . S
N224 C228 1.362 . S
C225 C226 1.258 . S
C225 C228 1.431 . S
C225 C245 1.449 . S
C226 C225 1.258 . S
C226 C227 1.477 . S
C226 H246 0.931 . S
C227 C223 1.460 . S
C227 C226 1.477 . S
C227 H247 0.930 . S
C228 N224 1.362 . S
C228 C225 1.431 . S
C228 C238 1.476 . S
H229 C223 0.929 . S
C230 O221 1.250 . S
C230 O222 1.258 . S
O231 Mn216 2.162 . S
O231 C219 1.281 . S
O232 Mn216 2.297 . S
O232 C219 1.236 . S
N233 Mn217 2.282 . S
N233 C234 1.328 . S
N233 C238 1.318 . S
C234 N233 1.328 . S
C234 C235 1.457 . S
C234 H239 0.929 . S
C235 C234 1.457 . S
C235 C236 1.291 . S
C235 H248 0.931 . S
C236 C235 1.291 . S
C236 C237 1.373 . S
C236 H249 0.929 . S
C237 C236 1.373 . S
C237 C238 1.396 . S
C237 C244 1.403 . S
C238 C228 1.476 . S
C238 N233 1.318 . S
C238 C237 1.396 . S
H239 C234 0.929 . S
O240 Mn216 2.385 . S
O240 C218 1.234 . S
O241 Mn216 2.209 . S
O241 Mn217 2.215 . S
O241 C218 1.283 . S
O242 Mn216 2.094 . S
O242 C220 1.240 . S
O243 Mn217 2.117 . S
O243 C220 1.264 . S
C244 C237 1.403 . S
C244 C245 1.399 . S
C244 H250 0.929 . S
C245 C225 1.449 . S
C245 C244 1.399 . S
C245 H251 0.930 . S
H246 C226 0.931 . S
H247 C227 0.930 . S
H248 C235 0.931 . S
H249 C236 0.929 . S
H250 C244 0.929 . S
H251 C245 0.930 . S
Mn252 O257 2.095 . S
Mn252 O267 2.162 . S
Mn252 O268 2.297 . S
Mn252 O276 2.385 1_455 S
Mn252 O277 2.194 1_455 S
Mn252 O278 2.094 . S
Mn253 O258 2.121 . S
Mn253 N260 2.257 . S
Mn253 N269 2.282 1_455 S
Mn253 O277 2.204 1_455 S
Mn253 O279 2.117 . S
C254 O276 1.234 . S
C254 O277 1.315 . S
C255 O267 1.281 . S
C255 O268 1.236 . S
C256 O278 1.240 . S
C256 O279 1.264 . S
O257 Mn252 2.095 . S
O257 C266 1.250 . S
O258 Mn253 2.121 . S
O258 C266 1.258 . S
C259 N260 1.326 . S
C259 C263 1.460 . S
C259 H265 0.929 . S
N260 Mn253 2.257 . S
N260 C259 1.326 . S
N260 C264 1.362 1_455 S
C261 C262 1.258 . S
C261 C264 1.431 . S
C261 C281 1.449 . S
C262 C261 1.258 . S
C262 C263 1.477 1_655 S
C262 H282 0.931 . S
C263 C259 1.460 . S
C263 C262 1.477 1_455 S
C263 H283 0.930 . S
C264 N260 1.362 1_655 S
C264 C261 1.431 . S
C264 C274 1.476 . S
H265 C259 0.929 . S
C266 O257 1.250 . S
C266 O258 1.258 . S
O267 Mn252 2.162 . S
O267 C255 1.281 . S
O268 Mn252 2.297 . S
O268 C255 1.236 . S
N269 Mn253 2.282 1_655 S
N269 C270 1.328 . S
N269 C274 1.318 . S
C270 N269 1.328 . S
C270 C271 1.457 . S
C270 H275 0.929 . S
C271 C270 1.457 . S
C271 C272 1.291 . S
C271 H284 0.931 . S
C272 C271 1.291 . S
C272 C273 1.373 . S
C272 H285 0.929 . S
C273 C272 1.373 . S
C273 C274 1.396 . S
C273 C280 1.403 . S
C274 C264 1.476 . S
C274 N269 1.318 . S
C274 C273 1.396 . S
H275 C270 0.929 . S
O276 Mn252 2.385 1_655 S
O276 C254 1.234 . S
O277 Mn252 2.194 1_655 S
O277 Mn253 2.204 1_655 S
O277 C254 1.315 . S
O278 Mn252 2.094 . S
O278 C256 1.240 . S
O279 Mn253 2.117 . S
O279 C256 1.264 . S
C280 C273 1.403 . S
C280 C281 1.399 . S
C280 H286 0.929 . S
C281 C261 1.449 . S
C281 C280 1.399 . S
C281 H287 0.930 . S
H282 C262 0.931 . S
H283 C263 0.930 . S
H284 C271 0.931 . S
H285 C272 0.929 . S
H286 C280 0.929 . S
H287 C281 0.930 . S
Mn288 O293 2.095 . S
Mn288 O303 2.162 . S
Mn288 O304 2.297 . S
Mn288 O312 2.385 . S
Mn288 O313 2.209 . S
Mn288 O314 2.094 . S
Mn289 O294 2.121 . S
Mn289 N296 2.257 . S
Mn289 N305 2.282 . S
Mn289 O313 2.215 . S
Mn289 O315 2.117 . S
C290 O312 1.234 . S
C290 O313 1.283 . S
C291 O303 1.281 . S
C291 O304 1.236 . S
C292 O314 1.240 . S
C292 O315 1.264 . S
O293 Mn288 2.095 . S
O293 C302 1.250 . S
O294 Mn289 2.121 . S
O294 C302 1.258 . S
C295 N296 1.326 . S
C295 C299 1.460 . S
C295 H301 0.929 . S
N296 Mn289 2.257 . S
N296 C295 1.326 . S
N296 C300 1.362 . S
C297 C298 1.258 . S
C297 C300 1.431 . S
C297 C317 1.449 . S
C298 C297 1.258 . S
C298 C299 1.477 . S
C298 H318 0.931 . S
C299 C295 1.460 . S
C299 C298 1.477 . S
C299 H319 0.930 . S
C300 N296 1.362 . S
C300 C297 1.431 . S
C300 C310 1.476 . S
H301 C295 0.929 . S
C302 O293 1.250 . S
C302 O294 1.258 . S
O303 Mn288 2.162 . S
O303 C291 1.281 . S
O304 Mn288 2.297 . S
O304 C291 1.236 . S
N305 Mn289 2.282 . S
N305 C306 1.328 . S
N305 C310 1.318 . S
C306 N305 1.328 . S
C306 C307 1.457 . S
C306 H311 0.929 . S
C307 C306 1.457 . S
C307 C308 1.291 . S
C307 H320 0.931 . S
C308 C307 1.291 . S
C308 C309 1.373 . S
C308 H321 0.929 . S
C309 C308 1.373 . S
C309 C310 1.396 . S
C309 C316 1.403 . S
C310 C300 1.476 . S
C310 N305 1.318 . S
C310 C309 1.396 . S
H311 C306 0.929 . S
O312 Mn288 2.385 . S
O312 C290 1.234 . S
O313 Mn288 2.209 . S
O313 Mn289 2.215 . S
O313 C290 1.283 . S
O314 Mn288 2.094 . S
O314 C292 1.240 . S
O315 Mn289 2.117 . S
O315 C292 1.264 . S
C316 C309 1.403 . S
C316 C317 1.399 . S
C316 H322 0.929 . S
C317 C297 1.449 . S
C317 C316 1.399 . S
C317 H323 0.930 . S
H318 C298 0.931 . S
H319 C299 0.930 . S
H320 C307 0.931 . S
H321 C308 0.929 . S
H322 C316 0.929 . S
H323 C317 0.930 . S
Mn324 O329 2.095 . S
Mn324 O339 2.162 . S
Mn324 O340 2.297 . S
Mn324 O348 2.385 . S
Mn324 O349 2.209 . S
Mn324 O350 2.094 . S
Mn325 O330 2.121 . S
Mn325 N332 2.257 . S
Mn325 N341 2.282 . S
Mn325 O349 2.215 . S
Mn325 O351 2.117 . S
C326 O348 1.234 . S
C326 O349 1.283 . S
C327 O339 1.281 . S
C327 O340 1.236 . S
C328 O350 1.240 . S
C328 O351 1.264 . S
O329 Mn324 2.095 . S
O329 C338 1.250 . S
O330 Mn325 2.121 . S
O330 C338 1.258 . S
C331 N332 1.326 . S
C331 C335 1.460 . S
C331 H337 0.929 . S
N332 Mn325 2.257 . S
N332 C331 1.326 . S
N332 C336 1.362 . S
C333 C334 1.258 . S
C333 C336 1.431 . S
C333 C353 1.449 . S
C334 C333 1.258 . S
C334 C335 1.477 . S
C334 H354 0.931 . S
C335 C331 1.460 . S
C335 C334 1.477 . S
C335 H355 0.930 . S
C336 N332 1.362 . S
C336 C333 1.431 . S
C336 C346 1.476 . S
H337 C331 0.929 . S
C338 O329 1.250 . S
C338 O330 1.258 . S
O339 Mn324 2.162 . S
O339 C327 1.281 . S
O340 Mn324 2.297 . S
O340 C327 1.236 . S
N341 Mn325 2.282 . S
N341 C342 1.328 . S
N341 C346 1.318 . S
C342 N341 1.328 . S
C342 C343 1.457 . S
C342 H347 0.929 . S
C343 C342 1.457 . S
C343 C344 1.291 . S
C343 H356 0.931 . S
C344 C343 1.291 . S
C344 C345 1.373 . S
C344 H357 0.929 . S
C345 C344 1.373 . S
C345 C346 1.396 . S
C345 C352 1.403 . S
C346 C336 1.476 . S
C346 N341 1.318 . S
C346 C345 1.396 . S
H347 C342 0.929 . S
O348 Mn324 2.385 . S
O348 C326 1.234 . S
O349 Mn324 2.209 . S
O349 Mn325 2.215 . S
O349 C326 1.283 . S
O350 Mn324 2.094 . S
O350 C328 1.240 . S
O351 Mn325 2.117 . S
O351 C328 1.264 . S
C352 C345 1.403 . S
C352 C353 1.399 . S
C352 H358 0.929 . S
C353 C333 1.449 . S
C353 C352 1.399 . S
C353 H359 0.930 . S
H354 C334 0.931 . S
H355 C335 0.930 . S
H356 C343 0.931 . S
H357 C344 0.929 . S
H358 C352 0.929 . S
H359 C353 0.930 . S
Mn360 O365 2.095 . S
Mn360 O375 2.162 . S
Mn360 O376 2.297 . S
Mn360 O384 2.385 . S
Mn360 O385 2.209 . S
Mn360 O386 2.094 . S
Mn361 O366 2.121 . S
Mn361 N368 2.257 . S
Mn361 N377 2.282 . S
Mn361 O385 2.215 . S
Mn361 O387 2.117 . S
C362 O384 1.234 . S
C362 O385 1.283 . S
C363 O375 1.281 . S
C363 O376 1.236 . S
C364 O386 1.240 . S
C364 O387 1.264 . S
O365 Mn360 2.095 . S
O365 C374 1.250 . S
O366 Mn361 2.121 . S
O366 C374 1.258 . S
C367 N368 1.326 . S
C367 C371 1.460 . S
C367 H373 0.929 . S
N368 Mn361 2.257 . S
N368 C367 1.326 . S
N368 C372 1.362 . S
C369 C370 1.258 . S
C369 C372 1.431 . S
C369 C389 1.449 . S
C370 C369 1.258 . S
C370 C371 1.477 . S
C370 H390 0.931 . S
C371 C367 1.460 . S
C371 C370 1.477 . S
C371 H391 0.930 . S
C372 N368 1.362 . S
C372 C369 1.431 . S
C372 C382 1.476 . S
H373 C367 0.929 . S
C374 O365 1.250 . S
C374 O366 1.258 . S
O375 Mn360 2.162 . S
O375 C363 1.281 . S
O376 Mn360 2.297 . S
O376 C363 1.236 . S
N377 Mn361 2.282 . S
N377 C378 1.328 . S
N377 C382 1.318 . S
C378 N377 1.328 . S
C378 C379 1.457 . S
C378 H383 0.929 . S
C379 C378 1.457 . S
C379 C380 1.291 . S
C379 H392 0.931 . S
C380 C379 1.291 . S
C380 C381 1.373 . S
C380 H393 0.929 . S
C381 C380 1.373 . S
C381 C382 1.396 . S
C381 C388 1.403 . S
C382 C372 1.476 . S
C382 N377 1.318 . S
C382 C381 1.396 . S
H383 C378 0.929 . S
O384 Mn360 2.385 . S
O384 C362 1.234 . S
O385 Mn360 2.209 . S
O385 Mn361 2.215 . S
O385 C362 1.283 . S
O386 Mn360 2.094 . S
O386 C364 1.240 . S
O387 Mn361 2.117 . S
O387 C364 1.264 . S
C388 C381 1.403 . S
C388 C389 1.399 . S
C388 H394 0.929 . S
C389 C369 1.449 . S
C389 C388 1.399 . S
C389 H395 0.930 . S
H390 C370 0.931 . S
H391 C371 0.930 . S
H392 C379 0.931 . S
H393 C380 0.929 . S
H394 C388 0.929 . S
H395 C389 0.930 . S
Mn396 O401 2.095 . S
Mn396 O411 2.162 . S
Mn396 O412 2.297 . S
Mn396 O420 2.385 . S
Mn396 O421 2.209 . S
Mn396 O422 2.094 . S
Mn397 O402 2.121 . S
Mn397 N404 2.257 1_565 S
Mn397 N413 2.282 . S
Mn397 O421 2.215 . S
Mn397 O423 2.117 . S
C398 O420 1.234 . S
C398 O421 1.283 . S
C399 O411 1.281 . S
C399 O412 1.236 . S
C400 O422 1.240 . S
C400 O423 1.264 . S
O401 Mn396 2.095 . S
O401 C410 1.250 . S
O402 Mn397 2.121 . S
O402 C410 1.258 . S
C403 N404 1.326 . S
C403 C407 1.460 . S
C403 H409 0.929 . S
N404 Mn397 2.257 1_545 S
N404 C403 1.326 . S
N404 C408 1.362 . S
C405 C406 1.258 . S
C405 C408 1.431 . S
C405 C425 1.449 . S
C406 C405 1.258 . S
C406 C407 1.477 . S
C406 H426 0.931 . S
C407 C403 1.460 . S
C407 C406 1.477 . S
C407 H427 0.930 . S
C408 N404 1.362 . S
C408 C405 1.431 . S
C408 C418 1.476 . S
H409 C403 0.929 . S
C410 O401 1.250 . S
C410 O402 1.258 . S
O411 Mn396 2.162 . S
O411 C399 1.281 . S
O412 Mn396 2.297 . S
O412 C399 1.236 . S
N413 Mn397 2.282 . S
N413 C414 1.328 1_554 S
N413 C418 1.318 1_565 S
C414 N413 1.328 1_556 S
C414 C415 1.457 . S
C414 H419 0.929 . S
C415 C414 1.457 . S
C415 C416 1.291 . S
C415 H428 0.931 . S
C416 C415 1.291 . S
C416 C417 1.373 1_566 S
C416 H429 0.929 . S
C417 C416 1.373 1_544 S
C417 C418 1.396 . S
C417 C424 1.403 . S
C418 C408 1.476 . S
C418 N413 1.318 1_545 S
C418 C417 1.396 . S
H419 C414 0.929 . S
O420 Mn396 2.385 . S
O420 C398 1.234 . S
O421 Mn396 2.209 . S
O421 Mn397 2.215 . S
O421 C398 1.283 . S
O422 Mn396 2.094 . S
O422 C400 1.240 . S
O423 Mn397 2.117 . S
O423 C400 1.264 . S
C424 C417 1.403 . S
C424 C425 1.399 . S
C424 H430 0.929 . S
C425 C405 1.449 . S
C425 C424 1.399 . S
C425 H431 0.930 . S
H426 C406 0.931 . S
H427 C407 0.930 . S
H428 C415 0.931 . S
H429 C416 0.929 . S
H430 C424 0.929 . S
H431 C425 0.930 . S
Mn432 O437 2.095 . S
Mn432 O447 2.162 . S
Mn432 O448 2.297 . S
Mn432 O456 2.385 . S
Mn432 O457 2.209 . S
Mn432 O458 2.111 . S
Mn433 O438 2.121 1_556 S
Mn433 N440 2.257 1_556 S
Mn433 N449 2.282 . S
Mn433 O457 2.215 1_556 S
Mn433 O459 2.117 . S
C434 O456 1.234 . S
C434 O457 1.283 . S
C435 O447 1.281 . S
C435 O448 1.236 . S
C436 O458 1.221 1_556 S
C436 O459 1.264 . S
O437 Mn432 2.095 . S
O437 C446 1.250 . S
O438 Mn433 2.121 1_554 S
O438 C446 1.258 . S
C439 N440 1.326 . S
C439 C443 1.460 . S
C439 H445 0.929 . S
N440 Mn433 2.257 1_554 S
N440 C439 1.326 . S
N440 C444 1.342 1_554 S
C441 C442 1.258 . S
C441 C444 1.432 1_554 S
C441 C461 1.449 1_554 S
C442 C441 1.258 . S
C442 C443 1.477 . S
C442 H462 0.931 . S
C443 C439 1.460 . S
C443 C442 1.477 . S
C443 H463 0.930 . S
C444 N440 1.342 1_556 S
C444 C441 1.432 1_556 S
C444 C454 1.496 . S
H445 C439 0.929 . S
C446 O437 1.250 . S
C446 O438 1.258 . S
O447 Mn432 2.162 . S
O447 C435 1.281 . S
O448 Mn432 2.297 . S
O448 C435 1.236 . S
N449 Mn433 2.282 . S
N449 C450 1.328 . S
N449 C454 1.318 . S
C450 N449 1.328 . S
C450 C451 1.457 . S
C450 H455 0.929 . S
C451 C450 1.457 . S
C451 C452 1.291 . S
C451 H464 0.931 . S
C452 C451 1.291 . S
C452 C453 1.373 . S
C452 H465 0.929 . S
C453 C452 1.373 . S
C453 C454 1.396 . S
C453 C460 1.403 . S
C454 C444 1.496 . S
C454 N449 1.318 . S
C454 C453 1.396 . S
H455 C450 0.929 . S
O456 Mn432 2.385 . S
O456 C434 1.234 . S
O457 Mn432 2.209 . S
O457 Mn433 2.215 1_554 S
O457 C434 1.283 . S
O458 Mn432 2.111 . S
O458 C436 1.221 1_554 S
O459 Mn433 2.117 . S
O459 C436 1.264 . S
C460 C453 1.403 . S
C460 C461 1.399 . S
C460 H466 0.929 . S
C461 C441 1.449 1_556 S
C461 C460 1.399 . S
C461 H467 0.930 . S
H462 C442 0.931 . S
H463 C443 0.930 . S
H464 C451 0.931 . S
H465 C452 0.929 . S
H466 C460 0.929 . S
H467 C461 0.930 . S
Mn468 O473 2.095 1_554 S
Mn468 O483 2.162 . S
Mn468 O484 2.297 . S
Mn468 O492 2.383 . S
Mn468 O493 2.209 1_554 S
Mn468 O494 2.094 1_554 S
Mn469 O474 2.121 . S
Mn469 N476 2.257 . S
Mn469 N485 2.282 . S
Mn469 O493 2.215 . S
Mn469 O495 2.117 . S
C470 O492 1.231 1_556 S
C470 O493 1.283 . S
C471 O483 1.281 . S
C471 O484 1.236 . S
C472 O494 1.240 . S
C472 O495 1.264 . S
O473 Mn468 2.095 1_556 S
O473 C482 1.250 . S
O474 Mn469 2.121 . S
O474 C482 1.258 . S
C475 N476 1.326 . S
C475 C479 1.460 . S
C475 H481 0.929 . S
N476 Mn469 2.257 . S
N476 C475 1.326 . S
N476 C480 1.362 . S
C477 C478 1.258 . S
C477 C480 1.431 . S
C477 C497 1.449 . S
C478 C477 1.258 . S
C478 C479 1.477 . S
C478 H498 0.931 . S
C479 C475 1.460 . S
C479 C478 1.477 . S
C479 H499 0.930 . S
C480 N476 1.362 . S
C480 C477 1.431 . S
C480 C490 1.476 . S
H481 C475 0.929 . S
C482 O473 1.250 . S
C482 O474 1.258 . S
O483 Mn468 2.162 . S
O483 C471 1.281 . S
O484 Mn468 2.297 . S
O484 C471 1.236 . S
N485 Mn469 2.282 . S
N485 C486 1.328 . S
N485 C490 1.318 . S
C486 N485 1.328 . S
C486 C487 1.457 . S
C486 H491 0.929 . S
C487 C486 1.457 . S
C487 C488 1.291 . S
C487 H500 0.931 . S
C488 C487 1.291 . S
C488 C489 1.373 . S
C488 H501 0.929 . S
C489 C488 1.373 . S
C489 C490 1.396 . S
C489 C496 1.403 . S
C490 C480 1.476 . S
C490 N485 1.318 . S
C490 C489 1.396 . S
H491 C486 0.929 . S
O492 Mn468 2.383 . S
O492 C470 1.231 1_554 S
O493 Mn468 2.209 1_556 S
O493 Mn469 2.215 . S
O493 C470 1.283 . S
O494 Mn468 2.094 1_556 S
O494 C472 1.240 . S
O495 Mn469 2.117 . S
O495 C472 1.264 . S
C496 C489 1.403 . S
C496 C497 1.399 . S
C496 H502 0.929 . S
C497 C477 1.449 . S
C497 C496 1.399 . S
C497 H503 0.930 . S
H498 C478 0.931 . S
H499 C479 0.930 . S
H500 C487 0.931 . S
H501 C488 0.929 . S
H502 C496 0.929 . S
H503 C497 0.930 . S
Mn504 O509 2.095 . S
Mn504 O519 2.162 . S
Mn504 O520 2.297 . S
Mn504 O528 2.385 . S
Mn504 O529 2.209 . S
Mn504 O530 2.094 . S
Mn505 O510 2.121 . S
Mn505 N512 2.257 . S
Mn505 N521 2.282 . S
Mn505 O529 2.215 . S
Mn505 O531 2.117 . S
C506 O528 1.234 . S
C506 O529 1.283 . S
C507 O519 1.281 . S
C507 O520 1.236 . S
C508 O530 1.240 . S
C508 O531 1.264 . S
O509 Mn504 2.095 . S
O509 C518 1.250 . S
O510 Mn505 2.121 . S
O510 C518 1.258 . S
C511 N512 1.326 . S
C511 C515 1.460 . S
C511 H517 0.929 . S
N512 Mn505 2.257 . S
N512 C511 1.326 . S
N512 C516 1.362 . S
C513 C514 1.258 . S
C513 C516 1.431 . S
C513 C533 1.449 . S
C514 C513 1.258 . S
C514 C515 1.477 . S
C514 H534 0.931 . S
C515 C511 1.460 . S
C515 C514 1.477 . S
C515 H535 0.930 . S
C516 N512 1.362 . S
C516 C513 1.431 . S
C516 C526 1.476 . S
H517 C511 0.929 . S
C518 O509 1.250 . S
C518 O510 1.258 . S
O519 Mn504 2.162 . S
O519 C507 1.281 . S
O520 Mn504 2.297 . S
O520 C507 1.236 . S
N521 Mn505 2.282 . S
N521 C522 1.328 . S
N521 C526 1.318 . S
C522 N521 1.328 . S
C522 C523 1.457 . S
C522 H527 0.929 . S
C523 C522 1.457 . S
C523 C524 1.291 . S
C523 H536 0.931 . S
C524 C523 1.291 . S
C524 C525 1.373 . S
C524 H537 0.929 . S
C525 C524 1.373 . S
C525 C526 1.396 . S
C525 C532 1.403 . S
C526 C516 1.476 . S
C526 N521 1.318 . S
C526 C525 1.396 . S
H527 C522 0.929 . S
O528 Mn504 2.385 . S
O528 C506 1.234 . S
O529 Mn504 2.209 . S
O529 Mn505 2.215 . S
O529 C506 1.283 . S
O530 Mn504 2.094 . S
O530 C508 1.240 . S
O531 Mn505 2.117 . S
O531 C508 1.264 . S
C532 C525 1.403 . S
C532 C533 1.399 . S
C532 H538 0.929 . S
C533 C513 1.449 . S
C533 C532 1.399 . S
C533 H539 0.930 . S
H534 C514 0.931 . S
H535 C515 0.930 . S
H536 C523 0.931 . S
H537 C524 0.929 . S
H538 C532 0.929 . S
H539 C533 0.930 . S
Mn540 O545 2.095 . S
Mn540 O555 2.162 . S
Mn540 O556 2.297 . S
Mn540 O564 2.385 . S
Mn540 O565 2.209 . S
Mn540 O566 2.094 . S
Mn541 O546 2.121 . S
Mn541 N548 2.242 1_565 S
Mn541 N557 2.282 . S
Mn541 O565 2.215 . S
Mn541 O567 2.117 . S
C542 O564 1.234 . S
C542 O565 1.283 . S
C543 O555 1.281 . S
C543 O556 1.236 . S
C544 O566 1.240 . S
C544 O567 1.264 . S
O545 Mn540 2.095 . S
O545 C554 1.250 . S
O546 Mn541 2.121 . S
O546 C554 1.258 . S
C547 N548 1.338 . S
C547 C551 1.460 . S
C547 H553 0.929 . S
N548 Mn541 2.242 1_545 S
N548 C547 1.338 . S
N548 C552 1.365 . S
C549 C550 1.258 . S
C549 C552 1.431 . S
C549 C569 1.449 . S
C550 C549 1.258 . S
C550 C551 1.477 . S
C550 H570 0.931 . S
C551 C547 1.460 . S
C551 C550 1.477 . S
C551 H571 0.930 . S
C552 N548 1.365 . S
C552 C549 1.431 . S
C552 C562 1.476 1_545 S
H553 C547 0.929 . S
C554 O545 1.250 . S
C554 O546 1.258 . S
O555 Mn540 2.162 . S
O555 C543 1.281 . S
O556 Mn540 2.297 . S
O556 C543 1.236 . S
N557 Mn541 2.282 . S
N557 C558 1.328 . S
N557 C562 1.318 . S
C558 N557 1.328 . S
C558 C559 1.457 . S
C558 H563 0.929 . S
C559 C558 1.457 . S
C559 C560 1.291 . S
C559 H572 0.931 . S
C560 C559 1.291 . S
C560 C561 1.373 . S
C560 H573 0.929 . S
C561 C560 1.373 . S
C561 C562 1.396 . S
C561 C568 1.403 1_565 S
C562 C552 1.476 1_565 S
C562 N557 1.318 . S
C562 C561 1.396 . S
H563 C558 0.929 . S
O564 Mn540 2.385 . S
O564 C542 1.234 . S
O565 Mn540 2.209 . S
O565 Mn541 2.215 . S
O565 C542 1.283 . S
O566 Mn540 2.094 . S
O566 C544 1.240 . S
O567 Mn541 2.117 . S
O567 C544 1.264 . S
C568 C561 1.403 1_545 S
C568 C569 1.399 . S
C568 H574 0.929 . S
C569 C549 1.449 . S
C569 C568 1.399 . S
C569 H575 0.930 . S
H570 C550 0.931 . S
H571 C551 0.930 . S
H572 C559 0.931 . S
H573 C560 0.929 . S
H574 C568 0.929 . S
H575 C569 0.930 . S
Mn576 O581 2.095 . S
Mn576 O591 2.162 . S
Mn576 O592 2.297 . S
Mn576 O600 2.385 1_545 S
Mn576 O601 2.209 . S
Mn576 O602 2.094 . S
Mn577 O582 2.121 . S
Mn577 N584 2.257 . S
Mn577 N593 2.282 1_545 S
Mn577 O601 2.215 . S
Mn577 O603 2.117 . S
C578 O600 1.234 . S
C578 O601 1.283 1_565 S
C579 O591 1.281 . S
C579 O592 1.236 . S
C580 O602 1.240 . S
C580 O603 1.264 . S
O581 Mn576 2.095 . S
O581 C590 1.250 . S
O582 Mn577 2.121 . S
O582 C590 1.258 . S
C583 N584 1.326 . S
C583 C587 1.460 . S
C583 H589 0.929 . S
N584 Mn577 2.257 . S
N584 C583 1.326 . S
N584 C588 1.362 1_545 S
C585 C586 1.258 . S
C585 C588 1.431 . S
C585 C605 1.449 . S
C586 C585 1.258 . S
C586 C587 1.477 1_565 S
C586 H606 0.931 . S
C587 C583 1.460 . S
C587 C586 1.477 1_545 S
C587 H607 0.930 . S
C588 N584 1.362 1_565 S
C588 C585 1.431 . S
C588 C598 1.476 . S
H589 C583 0.929 . S
C590 O581 1.250 . S
C590 O582 1.258 . S
O591 Mn576 2.162 . S
O591 C579 1.281 . S
O592 Mn576 2.297 . S
O592 C579 1.236 . S
N593 Mn577 2.282 1_565 S
N593 C594 1.328 . S
N593 C598 1.318 . S
C594 N593 1.328 . S
C594 C595 1.457 . S
C594 H599 0.929 . S
C595 C594 1.457 . S
C595 C596 1.291 . S
C595 H608 0.931 . S
C596 C595 1.291 . S
C596 C597 1.373 . S
C596 H609 0.929 . S
C597 C596 1.373 . S
C597 C598 1.396 . S
C597 C604 1.403 . S
C598 C588 1.476 . S
C598 N593 1.318 . S
C598 C597 1.396 . S
H599 C594 0.929 . S
O600 Mn576 2.385 1_565 S
O600 C578 1.234 . S
O601 Mn576 2.209 . S
O601 Mn577 2.215 . S
O601 C578 1.283 1_545 S
O602 Mn576 2.094 . S
O602 C580 1.240 . S
O603 Mn577 2.117 . S
O603 C580 1.264 . S
C604 C597 1.403 . S
C604 C605 1.399 . S
C604 H610 0.929 . S
C605 C585 1.449 . S
C605 C604 1.399 . S
C605 H611 0.930 . S
H606 C586 0.931 . S
H607 C587 0.930 . S
H608 C595 0.931 . S
H609 C596 0.929 . S
H610 C604 0.929 . S
H611 C605 0.930 . S
Mn612 O617 2.095 . S
Mn612 O627 2.162 . S
Mn612 O628 2.297 . S
Mn612 O636 2.385 . S
Mn612 O637 2.209 . S
Mn612 O638 2.094 . S
Mn613 O618 2.121 . S
Mn613 N620 2.257 . S
Mn613 N629 2.282 . S
Mn613 O637 2.215 . S
Mn613 O639 2.117 . S
C614 O636 1.234 . S
C614 O637 1.283 . S
C615 O627 1.281 . S
C615 O628 1.236 . S
C616 O638 1.240 . S
C616 O639 1.264 . S
O617 Mn612 2.095 . S
O617 C626 1.250 . S
O618 Mn613 2.121 . S
O618 C626 1.258 . S
C619 N620 1.326 . S
C619 C623 1.460 . S
C619 H625 0.929 . S
N620 Mn613 2.257 . S
N620 C619 1.326 . S
N620 C624 1.362 . S
C621 C622 1.258 . S
C621 C624 1.431 . S
C621 C641 1.449 . S
C622 C621 1.258 . S
C622 C623 1.477 . S
C622 H642 0.931 . S
C623 C619 1.460 . S
C623 C622 1.477 . S
C623 H643 0.930 . S
C624 N620 1.362 . S
C624 C621 1.431 . S
C624 C634 1.476 . S
H625 C619 0.929 . S
C626 O617 1.250 . S
C626 O618 1.258 . S
O627 Mn612 2.162 . S
O627 C615 1.281 . S
O628 Mn612 2.297 . S
O628 C615 1.236 . S
N629 Mn613 2.282 . S
N629 C630 1.328 . S
N629 C634 1.318 . S
C630 N629 1.328 . S
C630 C631 1.457 . S
C630 H635 0.929 . S
C631 C630 1.457 . S
C631 C632 1.291 . S
C631 H644 0.931 . S
C632 C631 1.291 . S
C632 C633 1.373 . S
C632 H645 0.929 . S
C633 C632 1.373 . S
C633 C634 1.396 . S
C633 C640 1.403 . S
C634 C624 1.476 . S
C634 N629 1.318 . S
C634 C633 1.396 . S
H635 C630 0.929 . S
O636 Mn612 2.385 . S
O636 C614 1.234 . S
O637 Mn612 2.209 . S
O637 Mn613 2.215 . S
O637 C614 1.283 . S
O638 Mn612 2.094 . S
O638 C616 1.240 . S
O639 Mn613 2.117 . S
O639 C616 1.264 . S
C640 C633 1.403 . S
C640 C641 1.399 . S
C640 H646 0.929 . S
C641 C621 1.449 . S
C641 C640 1.399 . S
C641 H647 0.930 . S
H642 C622 0.931 . S
H643 C623 0.930 . S
H644 C631 0.931 . S
H645 C632 0.929 . S
H646 C640 0.929 . S
H647 C641 0.930 . S
Mn648 O653 2.095 . S
Mn648 O663 2.162 . S
Mn648 O664 2.297 . S
Mn648 O672 2.385 . S
Mn648 O673 2.209 . S
Mn648 O674 2.094 . S
Mn649 O654 2.121 . S
Mn649 N656 2.257 . S
Mn649 N665 2.282 . S
Mn649 O673 2.215 . S
Mn649 O675 2.117 . S
C650 O672 1.234 . S
C650 O673 1.283 . S
C651 O663 1.281 . S
C651 O664 1.236 . S
C652 O674 1.240 . S
C652 O675 1.264 . S
O653 Mn648 2.095 . S
O653 C662 1.250 . S
O654 Mn649 2.121 . S
O654 C662 1.258 . S
C655 N656 1.326 . S
C655 C659 1.460 . S
C655 H661 0.929 . S
N656 Mn649 2.257 . S
N656 C655 1.326 . S
N656 C660 1.362 . S
C657 C658 1.258 . S
C657 C660 1.431 . S
C657 C677 1.449 . S
C658 C657 1.258 . S
C658 C659 1.477 . S
C658 H678 0.931 . S
C659 C655 1.460 . S
C659 C658 1.477 . S
C659 H679 0.930 . S
C660 N656 1.362 . S
C660 C657 1.431 . S
C660 C670 1.476 . S
H661 C655 0.929 . S
C662 O653 1.250 . S
C662 O654 1.258 . S
O663 Mn648 2.162 . S
O663 C651 1.281 . S
O664 Mn648 2.297 . S
O664 C651 1.236 . S
N665 Mn649 2.282 . S
N665 C666 1.328 . S
N665 C670 1.318 . S
C666 N665 1.328 . S
C666 C667 1.457 . S
C666 H671 0.929 . S
C667 C666 1.457 . S
C667 C668 1.291 . S
C667 H680 0.931 . S
C668 C667 1.291 . S
C668 C669 1.373 . S
C668 H681 0.929 . S
C669 C668 1.373 . S
C669 C670 1.396 . S
C669 C676 1.403 . S
C670 C660 1.476 . S
C670 N665 1.318 . S
C670 C669 1.396 . S
H671 C666 0.929 . S
O672 Mn648 2.385 . S
O672 C650 1.234 . S
O673 Mn648 2.209 . S
O673 Mn649 2.215 . S
O673 C650 1.283 . S
O674 Mn648 2.094 . S
O674 C652 1.240 . S
O675 Mn649 2.117 . S
O675 C652 1.264 . S
C676 C669 1.403 . S
C676 C677 1.399 . S
C676 H682 0.929 . S
C677 C657 1.449 . S
C677 C676 1.399 . S
C677 H683 0.930 . S
H678 C658 0.931 . S
H679 C659 0.930 . S
H680 C667 0.931 . S
H681 C668 0.929 . S
H682 C676 0.929 . S
H683 C677 0.930 . S
Mn684 O689 2.093 . S
Mn684 O699 2.162 . S
Mn684 O700 2.299 . S
Mn684 O708 2.387 1_565 S
Mn684 O709 2.209 1_565 S
Mn684 O710 2.094 . S
Mn685 O690 2.121 1_545 S
Mn685 N692 2.257 . S
Mn685 N701 2.282 . S
Mn685 O709 2.215 . S
Mn685 O711 2.117 . S
C686 O708 1.234 . S
C686 O709 1.283 . S
C687 O699 1.281 . S
C687 O700 1.233 . S
C688 O710 1.240 1_545 S
C688 O711 1.264 . S
O689 Mn684 2.093 . S
O689 C698 1.250 . S
O690 Mn685 2.121 1_565 S
O690 C698 1.258 . S
C691 N692 1.326 . S
C691 C695 1.460 . S
C691 H697 0.929 1_545 S
N692 Mn685 2.257 . S
N692 C691 1.326 . S
N692 C696 1.362 . S
C693 C694 1.258 . S
C693 C696 1.431 . S
C693 C713 1.449 . S
C694 C693 1.258 . S
C694 C695 1.477 . S
C694 H714 0.931 . S
C695 C691 1.460 . S
C695 C694 1.477 . S
C695 H715 0.930 . S
C696 N692 1.362 . S
C696 C693 1.431 . S
C696 C706 1.476 . S
H697 C691 0.929 1_565 S
C698 O689 1.250 . S
C698 O690 1.258 . S
O699 Mn684 2.162 . S
O699 C687 1.281 . S
O700 Mn684 2.299 . S
O700 C687 1.233 . S
N701 Mn685 2.282 . S
N701 C702 1.328 . S
N701 C706 1.318 . S
C702 N701 1.328 . S
C702 C703 1.457 . S
C702 H707 0.929 . S
C703 C702 1.457 . S
C703 C704 1.291 . S
C703 H716 0.931 . S
C704 C703 1.291 . S
C704 C705 1.373 . S
C704 H717 0.929 . S
C705 C704 1.373 . S
C705 C706 1.396 . S
C705 C712 1.403 . S
C706 C696 1.476 . S
C706 N701 1.318 . S
C706 C705 1.396 . S
H707 C702 0.929 . S
O708 Mn684 2.387 1_545 S
O708 C686 1.234 . S
O709 Mn684 2.209 1_545 S
O709 Mn685 2.215 . S
O709 C686 1.283 . S
O710 Mn684 2.094 . S
O710 C688 1.240 1_565 S
O711 Mn685 2.117 . S
O711 C688 1.264 . S
C712 C705 1.403 . S
C712 C713 1.399 . S
C712 H718 0.929 . S
C713 C693 1.449 . S
C713 C712 1.399 . S
C713 H719 0.930 . S
H714 C694 0.931 . S
H715 C695 0.930 . S
H716 C703 0.931 . S
H717 C704 0.929 . S
H718 C712 0.929 . S
H719 C713 0.930 . S
Mn720 O725 2.095 . S
Mn720 O735 2.162 . S
Mn720 O736 2.297 . S
Mn720 O744 2.385 . S
Mn720 O745 2.209 . S
Mn720 O746 2.094 1_554 S
Mn721 O726 2.121 1_556 S
Mn721 N728 2.257 . S
Mn721 N737 2.282 . S
Mn721 O745 2.215 1_556 S
Mn721 O747 2.117 . S
C722 O744 1.234 . S
C722 O745 1.283 . S
C723 O735 1.281 . S
C723 O736 1.236 . S
C724 O746 1.240 . S
C724 O747 1.264 . S
O725 Mn720 2.095 . S
O725 C734 1.250 . S
O726 Mn721 2.121 1_554 S
O726 C734 1.258 . S
C727 N728 1.326 . S
C727 C731 1.460 . S
C727 H733 0.914 1_556 S
N728 Mn721 2.257 . S
N728 C727 1.326 . S
N728 C732 1.362 . S
C729 C730 1.258 . S
C729 C732 1.431 . S
C729 C749 1.449 . S
C730 C729 1.258 . S
C730 C731 1.477 . S
C730 H750 0.931 . S
C731 C727 1.460 . S
C731 C730 1.477 . S
C731 H751 0.930 . S
C732 N728 1.362 . S
C732 C729 1.431 . S
C732 C742 1.476 . S
H733 C727 0.914 1_554 S
C734 O725 1.250 . S
C734 O726 1.258 . S
O735 Mn720 2.162 . S
O735 C723 1.281 . S
O736 Mn720 2.297 . S
O736 C723 1.236 . S
N737 Mn721 2.282 . S
N737 C738 1.328 . S
N737 C742 1.318 . S
C738 N737 1.328 . S
C738 C739 1.457 . S
C738 H743 0.929 . S
C739 C738 1.457 . S
C739 C740 1.291 . S
C739 H752 0.931 . S
C740 C739 1.291 . S
C740 C741 1.373 . S
C740 H753 0.929 . S
C741 C740 1.373 . S
C741 C742 1.396 . S
C741 C748 1.403 . S
C742 C732 1.476 . S
C742 N737 1.318 . S
C742 C741 1.396 . S
H743 C738 0.929 . S
O744 Mn720 2.385 . S
O744 C722 1.234 . S
O745 Mn720 2.209 . S
O745 Mn721 2.215 1_554 S
O745 C722 1.283 . S
O746 Mn720 2.094 1_556 S
O746 C724 1.240 . S
O747 Mn721 2.117 . S
O747 C724 1.264 . S
C748 C741 1.403 . S
C748 C749 1.399 . S
C748 H754 0.929 . S
C749 C729 1.449 . S
C749 C748 1.399 . S
C749 H755 0.930 . S
H750 C730 0.931 . S
H751 C731 0.930 . S
H752 C739 0.931 . S
H753 C740 0.929 . S
H754 C748 0.929 . S
H755 C749 0.930 . S
Mn756 O761 2.095 . S
Mn756 O771 2.162 . S
Mn756 O772 2.297 . S
Mn756 O780 2.385 . S
Mn756 O781 2.209 . S
Mn756 O782 2.094 . S
Mn757 O762 2.121 . S
Mn757 N764 2.257 . S
Mn757 N773 2.282 . S
Mn757 O781 2.215 . S
Mn757 O783 2.117 . S
C758 O780 1.234 . S
C758 O781 1.283 . S
C759 O771 1.281 . S
C759 O772 1.236 . S
C760 O782 1.240 . S
C760 O783 1.264 . S
O761 Mn756 2.095 . S
O761 C770 1.250 . S
O762 Mn757 2.121 . S
O762 C770 1.258 . S
C763 N764 1.326 . S
C763 C767 1.460 . S
C763 H769 0.929 . S
N764 Mn757 2.257 . S
N764 C763 1.326 . S
N764 C768 1.362 . S
C765 C766 1.258 . S
C765 C768 1.431 . S
C765 C785 1.449 . S
C766 C765 1.258 . S
C766 C767 1.477 . S
C766 H786 0.931 . S
C767 C763 1.460 . S
C767 C766 1.477 . S
C767 H787 0.930 . S
C768 N764 1.362 . S
C768 C765 1.431 . S
C768 C778 1.476 . S
H769 C763 0.929 . S
C770 O761 1.250 . S
C770 O762 1.258 . S
O771 Mn756 2.162 . S
O771 C759 1.281 . S
O772 Mn756 2.297 . S
O772 C759 1.236 . S
N773 Mn757 2.282 . S
N773 C774 1.328 . S
N773 C778 1.318 . S
C774 N773 1.328 . S
C774 C775 1.457 . S
C774 H779 0.929 . S
C775 C774 1.457 . S
C775 C776 1.291 . S
C775 H788 0.931 . S
C776 C775 1.291 . S
C776 C777 1.373 . S
C776 H789 0.929 . S
C777 C776 1.373 . S
C777 C778 1.396 . S
C777 C784 1.403 . S
C778 C768 1.476 . S
C778 N773 1.318 . S
C778 C777 1.396 . S
H779 C774 0.929 . S
O780 Mn756 2.385 . S
O780 C758 1.234 . S
O781 Mn756 2.209 . S
O781 Mn757 2.215 . S
O781 C758 1.283 . S
O782 Mn756 2.094 . S
O782 C760 1.240 . S
O783 Mn757 2.117 . S
O783 C760 1.264 . S
C784 C777 1.403 . S
C784 C785 1.399 . S
C784 H790 0.929 . S
C785 C765 1.449 . S
C785 C784 1.399 . S
C785 H791 0.930 . S
H786 C766 0.931 . S
H787 C767 0.930 . S
H788 C775 0.931 . S
H789 C776 0.929 . S
H790 C784 0.929 . S
H791 C785 0.930 . S
Mn792 O797 2.095 . S
Mn792 O807 2.162 . S
Mn792 O808 2.297 . S
Mn792 O816 2.385 . S
Mn792 O817 2.209 . S
Mn792 O818 2.094 . S
Mn793 O798 2.121 . S
Mn793 N800 2.257 . S
Mn793 N809 2.282 . S
Mn793 O817 2.215 . S
Mn793 O819 2.117 . S
C794 O816 1.234 . S
C794 O817 1.283 . S
C795 O807 1.281 . S
C795 O808 1.236 . S
C796 O818 1.240 . S
C796 O819 1.264 . S
O797 Mn792 2.095 . S
O797 C806 1.250 . S
O798 Mn793 2.121 . S
O798 C806 1.258 . S
C799 N800 1.326 . S
C799 C803 1.460 . S
C799 H805 0.929 . S
N800 Mn793 2.257 . S
N800 C799 1.326 . S
N800 C804 1.362 . S
C801 C802 1.258 . S
C801 C804 1.431 . S
C801 C821 1.449 . S
C802 C801 1.258 . S
C802 C803 1.477 . S
C802 H822 0.931 . S
C803 C799 1.460 . S
C803 C802 1.477 . S
C803 H823 0.930 . S
C804 N800 1.362 . S
C804 C801 1.431 . S
C804 C814 1.476 . S
H805 C799 0.929 . S
C806 O797 1.250 . S
C806 O798 1.258 . S
O807 Mn792 2.162 . S
O807 C795 1.281 . S
O808 Mn792 2.297 . S
O808 C795 1.236 . S
N809 Mn793 2.282 . S
N809 C810 1.328 . S
N809 C814 1.318 . S
C810 N809 1.328 . S
C810 C811 1.457 . S
C810 H815 0.929 . S
C811 C810 1.457 . S
C811 C812 1.291 . S
C811 H824 0.931 . S
C812 C811 1.291 . S
C812 C813 1.373 . S
C812 H825 0.929 . S
C813 C812 1.373 . S
C813 C814 1.396 . S
C813 C820 1.403 . S
C814 C804 1.476 . S
C814 N809 1.318 . S
C814 C813 1.396 . S
H815 C810 0.929 . S
O816 Mn792 2.385 . S
O816 C794 1.234 . S
O817 Mn792 2.209 . S
O817 Mn793 2.215 . S
O817 C794 1.283 . S
O818 Mn792 2.094 . S
O818 C796 1.240 . S
O819 Mn793 2.117 . S
O819 C796 1.264 . S
C820 C813 1.403 . S
C820 C821 1.399 . S
C820 H826 0.929 . S
C821 C801 1.449 . S
C821 C820 1.399 . S
C821 H827 0.930 . S
H822 C802 0.931 . S
H823 C803 0.930 . S
H824 C811 0.931 . S
H825 C812 0.929 . S
H826 C820 0.929 . S
H827 C821 0.930 . S
Mn828 O833 2.095 . S
Mn828 O843 2.162 . S
Mn828 O844 2.297 . S
Mn828 O852 2.385 . S
Mn828 O853 2.209 . S
Mn828 O854 2.094 . S
Mn829 O834 2.121 . S
Mn829 N836 2.257 . S
Mn829 N845 2.282 . S
Mn829 O853 2.215 . S
Mn829 O855 2.117 . S
C830 O852 1.234 . S
C830 O853 1.283 . S
C831 O843 1.281 . S
C831 O844 1.236 . S
C832 O854 1.240 . S
C832 O855 1.264 . S
O833 Mn828 2.095 . S
O833 C842 1.250 . S
O834 Mn829 2.121 . S
O834 C842 1.258 . S
C835 N836 1.326 . S
C835 C839 1.460 . S
C835 H841 0.929 . S
N836 Mn829 2.257 . S
N836 C835 1.326 . S
N836 C840 1.362 . S
C837 C838 1.258 . S
C837 C840 1.431 . S
C837 C857 1.449 . S
C838 C837 1.258 . S
C838 C839 1.477 . S
C838 H858 0.931 . S
C839 C835 1.460 . S
C839 C838 1.477 . S
C839 H859 0.930 . S
C840 N836 1.362 . S
C840 C837 1.431 . S
C840 C850 1.476 . S
H841 C835 0.929 . S
C842 O833 1.250 . S
C842 O834 1.258 . S
O843 Mn828 2.162 . S
O843 C831 1.281 . S
O844 Mn828 2.297 . S
O844 C831 1.236 . S
N845 Mn829 2.282 . S
N845 C846 1.328 . S
N845 C850 1.318 . S
C846 N845 1.328 . S
C846 C847 1.457 . S
C846 H851 0.929 . S
C847 C846 1.457 . S
C847 C848 1.291 . S
C847 H860 0.931 . S
C848 C847 1.291 . S
C848 C849 1.373 . S
C848 H861 0.929 . S
C849 C848 1.373 . S
C849 C850 1.396 . S
C849 C856 1.403 . S
C850 C840 1.476 . S
C850 N845 1.318 . S
C850 C849 1.396 . S
H851 C846 0.929 . S
O852 Mn828 2.385 . S
O852 C830 1.234 . S
O853 Mn828 2.209 . S
O853 Mn829 2.215 . S
O853 C830 1.283 . S
O854 Mn828 2.094 . S
O854 C832 1.240 . S
O855 Mn829 2.117 . S
O855 C832 1.264 . S
C856 C849 1.403 . S
C856 C857 1.399 . S
C856 H862 0.929 . S
C857 C837 1.449 . S
C857 C856 1.399 . S
C857 H863 0.930 . S
H858 C838 0.931 . S
H859 C839 0.930 . S
H860 C847 0.931 . S
H861 C848 0.929 . S
H862 C856 0.929 . S
H863 C857 0.930 . S
Pr864 C866 2.880 1_454 S
Pr864 O884 2.562 1_455 S
Pr864 O885 2.490 1_454 S
Pr864 O886 2.695 . S
Pr864 O887 2.512 1_554 S
Pr864 O889 2.437 . S
Pr864 O892 2.436 . S
Pr864 O894 2.438 . S
Pr865 C875 2.880 . S
Pr865 O886 2.436 . S
Pr865 O888 2.438 . S
Pr865 O890 2.562 . S
Pr865 O891 2.490 . S
Pr865 O892 2.695 . S
Pr865 O893 2.512 . S
Pr865 O895 2.437 . S
C866 Pr864 2.880 1_656 S
C866 C867 1.491 . S
C866 O884 1.254 1_556 S
C866 O885 1.225 . S
C867 C866 1.491 . S
C867 C868 1.392 . S
C867 C872 1.356 . S
C868 C867 1.392 . S
C868 C869 1.368 . S
C868 H896 0.929 . S
C869 C868 1.368 . S
C869 C870 1.386 . S
C869 H897 0.929 . S
C870 C869 1.386 . S
C870 C871 1.373 . S
C871 C870 1.373 . S
C871 C872 1.409 . S
C871 H898 0.931 . S
C872 C867 1.356 . S
C872 C871 1.409 . S
C872 H899 0.930 1_556 S
C873 O886 1.270 1_556 S
C873 O887 1.248 . S
C874 O888 1.267 . S
C874 O889 1.278 . S
C875 Pr865 2.880 . S
C875 C876 1.491 . S
C875 O890 1.254 . S
C875 O891 1.225 . S
C876 C875 1.491 . S
C876 C877 1.392 . S
C876 C881 1.356 . S
C877 C876 1.392 . S
C877 C878 1.368 . S
C877 H900 0.929 . S
C878 C877 1.368 . S
C878 C879 1.386 . S
C878 H901 0.929 . S
C879 C878 1.386 . S
C879 C880 1.373 . S
C880 C879 1.373 . S
C880 C881 1.409 . S
C880 H902 0.931 . S
C881 C876 1.356 . S
C881 C880 1.409 . S
C881 H903 0.930 . S
C882 O892 1.270 . S
C882 O893 1.248 . S
C883 O894 1.267 . S
C883 O895 1.278 . S
O884 Pr864 2.562 1_655 S
O884 C866 1.254 1_554 S
O885 Pr864 2.490 1_656 S
O885 C866 1.225 . S
O886 Pr864 2.695 . S
O886 Pr865 2.436 . S
O886 C873 1.270 1_554 S
O887 Pr864 2.512 1_556 S
O887 C873 1.248 . S
O888 Pr865 2.438 . S
O888 C874 1.267 . S
O889 Pr864 2.437 . S
O889 C874 1.278 . S
O890 Pr865 2.562 . S
O890 C875 1.254 . S
O891 Pr865 2.490 . S
O891 C875 1.225 . S
O892 Pr864 2.436 . S
O892 Pr865 2.695 . S
O892 C882 1.270 . S
O893 Pr865 2.512 . S
O893 C882 1.248 . S
O894 Pr864 2.438 . S
O894 C883 1.267 . S
O895 Pr865 2.437 . S
O895 C883 1.278 . S
H896 C868 0.929 . S
H897 C869 0.929 . S
H898 C871 0.931 . S
H899 C872 0.930 1_554 S
H900 C877 0.929 . S
H901 C878 0.929 . S
H902 C880 0.931 . S
H903 C881 0.930 . S
Pr904 C906 2.880 . S
Pr904 O924 2.562 . S
Pr904 O925 2.490 . S
Pr904 O926 2.695 . S
Pr904 O927 2.512 . S
Pr904 O929 2.437 . S
Pr904 O932 2.436 . S
Pr904 O934 2.438 . S
Pr905 C915 2.880 . S
Pr905 O926 2.436 . S
Pr905 O928 2.438 . S
Pr905 O930 2.562 . S
Pr905 O931 2.490 . S
Pr905 O932 2.695 . S
Pr905 O933 2.512 . S
Pr905 O935 2.437 . S
C906 Pr904 2.880 . S
C906 C907 1.491 . S
C906 O924 1.254 . S
C906 O925 1.225 . S
C907 C906 1.491 . S
C907 C908 1.392 . S
C907 C912 1.356 . S
C908 C907 1.392 . S
C908 C909 1.368 . S
C908 H936 0.929 . S
C909 C908 1.368 . S
C909 C910 1.386 . S
C909 H937 0.929 . S
C910 C909 1.386 . S
C910 C911 1.373 . S
C911 C910 1.373 . S
C911 C912 1.409 . S
C911 H938 0.931 . S
C912 C907 1.356 . S
C912 C911 1.409 . S
C912 H939 0.930 . S
C913 O926 1.270 . S
C913 O927 1.248 . S
C914 O928 1.267 . S
C914 O929 1.278 . S
C915 Pr905 2.880 . S
C915 C916 1.491 . S
C915 O930 1.254 . S
C915 O931 1.225 . S
C916 C915 1.491 . S
C916 C917 1.392 . S
C916 C921 1.356 . S
C917 C916 1.392 . S
C917 C918 1.368 . S
C917 H940 0.929 . S
C918 C917 1.368 . S
C918 C919 1.386 . S
C918 H941 0.929 . S
C919 C918 1.386 . S
C919 C920 1.373 . S
C920 C919 1.373 . S
C920 C921 1.409 . S
C920 H942 0.931 . S
C921 C916 1.356 . S
C921 C920 1.409 . S
C921 H943 0.930 . S
C922 O932 1.270 . S
C922 O933 1.248 . S
C923 O934 1.267 . S
C923 O935 1.278 . S
O924 Pr904 2.562 . S
O924 C906 1.254 . S
O925 Pr904 2.490 . S
O925 C906 1.225 . S
O926 Pr904 2.695 . S
O926 Pr905 2.436 . S
O926 C913 1.270 . S
O927 Pr904 2.512 . S
O927 C913 1.248 . S
O928 Pr905 2.438 . S
O928 C914 1.267 . S
O929 Pr904 2.437 . S
O929 C914 1.278 . S
O930 Pr905 2.562 . S
O930 C915 1.254 . S
O931 Pr905 2.490 . S
O931 C915 1.225 . S
O932 Pr904 2.436 . S
O932 Pr905 2.695 . S
O932 C922 1.270 . S
O933 Pr905 2.512 . S
O933 C922 1.248 . S
O934 Pr904 2.438 . S
O934 C923 1.267 . S
O935 Pr905 2.437 . S
O935 C923 1.278 . S
H936 C908 0.929 . S
H937 C909 0.929 . S
H938 C911 0.931 . S
H939 C912 0.930 . S
H940 C917 0.929 . S
H941 C918 0.929 . S
H942 C920 0.931 . S
H943 C921 0.930 . S
Pr944 C946 2.880 . S
Pr944 O964 2.562 . S
Pr944 O965 2.490 . S
Pr944 O966 2.695 . S
Pr944 O967 2.512 . S
Pr944 O969 2.437 . S
Pr944 O972 2.436 . S
Pr944 O974 2.438 . S
Pr945 C955 2.880 . S
Pr945 O966 2.436 . S
Pr945 O968 2.438 . S
Pr945 O970 2.562 . S
Pr945 O971 2.490 . S
Pr945 O972 2.695 . S
Pr945 O973 2.512 . S
Pr945 O975 2.437 . S
C946 Pr944 2.880 . S
C946 C947 1.491 . S
C946 O964 1.254 . S
C946 O965 1.225 . S
C947 C946 1.491 . S
C947 C948 1.392 . S
C947 C952 1.356 . S
C948 C947 1.392 . S
C948 C949 1.368 . S
C948 H976 0.929 . S
C949 C948 1.368 . S
C949 C950 1.386 . S
C949 H977 0.929 . S
C950 C949 1.386 . S
C950 C951 1.373 . S
C951 C950 1.373 . S
C951 C952 1.409 . S
C951 H978 0.931 . S
C952 C947 1.356 . S
C952 C951 1.409 . S
C952 H979 0.930 . S
C953 O966 1.270 . S
C953 O967 1.248 . S
C954 O968 1.267 . S
C954 O969 1.278 . S
C955 Pr945 2.880 . S
C955 C956 1.491 . S
C955 O970 1.254 . S
C955 O971 1.225 . S
C956 C955 1.491 . S
C956 C957 1.392 . S
C956 C961 1.356 . S
C957 C956 1.392 . S
C957 C958 1.368 . S
C957 H980 0.929 . S
C958 C957 1.368 . S
C958 C959 1.386 . S
C958 H981 0.929 . S
C959 C958 1.386 . S
C959 C960 1.373 . S
C960 C959 1.373 . S
C960 C961 1.409 . S
C960 H982 0.931 . S
C961 C956 1.356 . S
C961 C960 1.409 . S
C961 H983 0.930 . S
C962 O972 1.270 . S
C962 O973 1.248 . S
C963 O974 1.267 . S
C963 O975 1.278 . S
O964 Pr944 2.562 . S
O964 C946 1.254 . S
O965 Pr944 2.490 . S
O965 C946 1.225 . S
O966 Pr944 2.695 . S
O966 Pr945 2.436 . S
O966 C953 1.270 . S
O967 Pr944 2.512 . S
O967 C953 1.248 . S
O968 Pr945 2.438 . S
O968 C954 1.267 . S
O969 Pr944 2.437 . S
O969 C954 1.278 . S
O970 Pr945 2.562 . S
O970 C955 1.254 . S
O971 Pr945 2.490 . S
O971 C955 1.225 . S
O972 Pr944 2.436 . S
O972 Pr945 2.695 . S
O972 C962 1.270 . S
O973 Pr945 2.512 . S
O973 C962 1.248 . S
O974 Pr944 2.438 . S
O974 C963 1.267 . S
O975 Pr945 2.437 . S
O975 C963 1.278 . S
H976 C948 0.929 . S
H977 C949 0.929 . S
H978 C951 0.931 . S
H979 C952 0.930 . S
H980 C957 0.929 . S
H981 C958 0.929 . S
H982 C960 0.931 . S
H983 C961 0.930 . S
Pr984 C986 2.880 . S
Pr984 O1004 2.562 . S
Pr984 O1005 2.490 . S
Pr984 O1006 2.695 . S
Pr984 O1007 2.512 . S
Pr984 O1009 2.437 . S
Pr984 O1012 2.436 . S
Pr984 O1014 2.438 . S
Pr985 C995 2.880 . S
Pr985 O1006 2.436 . S
Pr985 O1008 2.438 . S
Pr985 O1010 2.562 . S
Pr985 O1011 2.490 . S
Pr985 O1012 2.695 . S
Pr985 O1013 2.512 . S
Pr985 O1015 2.437 . S
C986 Pr984 2.880 . S
C986 C987 1.491 . S
C986 O1004 1.254 . S
C986 O1005 1.225 . S
C987 C986 1.491 . S
C987 C988 1.392 . S
C987 C992 1.356 . S
C988 C987 1.392 . S
C988 C989 1.368 . S
C988 H1016 0.929 . S
C989 C988 1.368 . S
C989 C990 1.386 . S
C989 H1017 0.929 . S
C990 C989 1.386 . S
C990 C991 1.373 . S
C991 C990 1.373 . S
C991 C992 1.409 . S
C991 H1018 0.931 . S
C992 C987 1.356 . S
C992 C991 1.409 . S
C992 H1019 0.930 . S
C993 O1006 1.270 . S
C993 O1007 1.248 . S
C994 O1008 1.267 . S
C994 O1009 1.278 . S
C995 Pr985 2.880 . S
C995 C996 1.491 . S
C995 O1010 1.254 . S
C995 O1011 1.225 . S
C996 C995 1.491 . S
C996 C997 1.392 . S
C996 C1001 1.356 . S
C997 C996 1.392 . S
C997 C998 1.368 . S
C997 H1020 0.929 . S
C998 C997 1.368 . S
C998 C999 1.386 . S
C998 H1021 0.929 . S
C999 C998 1.386 . S
C999 C1000 1.373 . S
C1000 C999 1.373 . S
C1000 C1001 1.409 . S
C1000 H1022 0.931 . S
C1001 C996 1.356 . S
C1001 C1000 1.409 . S
C1001 H1023 0.930 . S
C1002 O1012 1.270 . S
C1002 O1013 1.248 . S
C1003 O1014 1.267 . S
C1003 O1015 1.278 . S
O1004 Pr984 2.562 . S
O1004 C986 1.254 . S
O1005 Pr984 2.490 . S
O1005 C986 1.225 . S
O1006 Pr984 2.695 . S
O1006 Pr985 2.436 . S
O1006 C993 1.270 . S
O1007 Pr984 2.512 . S
O1007 C993 1.248 . S
O1008 Pr985 2.438 . S
O1008 C994 1.267 . S
O1009 Pr984 2.437 . S
O1009 C994 1.278 . S
O1010 Pr985 2.562 . S
O1010 C995 1.254 . S
O1011 Pr985 2.490 . S
O1011 C995 1.225 . S
O1012 Pr984 2.436 . S
O1012 Pr985 2.695 . S
O1012 C1002 1.270 . S
O1013 Pr985 2.512 . S
O1013 C1002 1.248 . S
O1014 Pr984 2.438 . S
O1014 C1003 1.267 . S
O1015 Pr985 2.437 . S
O1015 C1003 1.278 . S
H1016 C988 0.929 . S
H1017 C989 0.929 . S
H1018 C991 0.931 . S
H1019 C992 0.930 . S
H1020 C997 0.929 . S
H1021 C998 0.929 . S
H1022 C1000 0.931 . S
H1023 C1001 0.930 . S
Pr1024 C1026 2.880 . S
Pr1024 O1044 2.562 . S
Pr1024 O1045 2.490 . S
Pr1024 O1046 2.695 . S
Pr1024 O1047 2.512 . S
Pr1024 O1049 2.437 . S
Pr1024 O1052 2.436 . S
Pr1024 O1054 2.438 . S
Pr1025 C1035 2.880 . S
Pr1025 O1046 2.436 . S
Pr1025 O1048 2.438 . S
Pr1025 O1050 2.562 . S
Pr1025 O1051 2.490 . S
Pr1025 O1052 2.695 . S
Pr1025 O1053 2.512 . S
Pr1025 O1055 2.437 . S
C1026 Pr1024 2.880 . S
C1026 C1027 1.491 . S
C1026 O1044 1.254 . S
C1026 O1045 1.225 . S
C1027 C1026 1.491 . S
C1027 C1028 1.392 . S
C1027 C1032 1.356 1_455 S
C1028 C1027 1.392 . S
C1028 C1029 1.368 . S
C1028 H1056 0.929 . S
C1029 C1028 1.368 . S
C1029 C1030 1.386 1_455 S
C1029 H1057 0.929 . S
C1030 C1029 1.386 1_655 S
C1030 C1031 1.373 . S
C1031 C1030 1.373 . S
C1031 C1032 1.409 . S
C1031 H1058 0.931 . S
C1032 C1027 1.356 1_655 S
C1032 C1031 1.409 . S
C1032 H1059 0.930 . S
C1033 O1046 1.270 . S
C1033 O1047 1.248 . S
C1034 O1048 1.267 . S
C1034 O1049 1.278 . S
C1035 Pr1025 2.880 . S
C1035 C1036 1.491 . S
C1035 O1050 1.254 . S
C1035 O1051 1.225 . S
C1036 C1035 1.491 . S
C1036 C1037 1.392 . S
C1036 C1041 1.356 . S
C1037 C1036 1.392 . S
C1037 C1038 1.368 . S
C1037 H1060 0.929 . S
C1038 C1037 1.368 . S
C1038 C1039 1.386 . S
C1038 H1061 0.929 . S
C1039 C1038 1.386 . S
C1039 C1040 1.373 . S
C1040 C1039 1.373 . S
C1040 C1041 1.409 . S
C1040 H1062 0.931 . S
C1041 C1036 1.356 . S
C1041 C1040 1.409 . S
C1041 H1063 0.930 . S
C1042 O1052 1.270 . S
C1042 O1053 1.248 . S
C1043 O1054 1.267 . S
C1043 O1055 1.278 . S
O1044 Pr1024 2.562 . S
O1044 C1026 1.254 . S
O1045 Pr1024 2.490 . S
O1045 C1026 1.225 . S
O1046 Pr1024 2.695 . S
O1046 Pr1025 2.436 . S
O1046 C1033 1.270 . S
O1047 Pr1024 2.512 . S
O1047 C1033 1.248 . S
O1048 Pr1025 2.438 . S
O1048 C1034 1.267 . S
O1049 Pr1024 2.437 . S
O1049 C1034 1.278 . S
O1050 Pr1025 2.562 . S
O1050 C1035 1.254 . S
O1051 Pr1025 2.490 . S
O1051 C1035 1.225 . S
O1052 Pr1024 2.436 . S
O1052 Pr1025 2.695 . S
O1052 C1042 1.270 . S
O1053 Pr1025 2.512 . S
O1053 C1042 1.248 . S
O1054 Pr1024 2.438 . S
O1054 C1043 1.267 . S
O1055 Pr1025 2.437 . S
O1055 C1043 1.278 . S
H1056 C1028 0.929 . S
H1057 C1029 0.929 . S
H1058 C1031 0.931 . S
H1059 C1032 0.930 . S
H1060 C1037 0.929 . S
H1061 C1038 0.929 . S
H1062 C1040 0.931 . S
H1063 C1041 0.930 . S
Pr1064 C1066 2.880 . S
Pr1064 O1084 2.562 . S
Pr1064 O1085 2.490 . S
Pr1064 O1086 2.695 . S
Pr1064 O1087 2.512 . S
Pr1064 O1089 2.437 . S
Pr1064 O1092 2.436 . S
Pr1064 O1094 2.438 . S
Pr1065 C1075 2.880 . S
Pr1065 O1086 2.436 . S
Pr1065 O1088 2.438 . S
Pr1065 O1090 2.562 . S
Pr1065 O1091 2.490 . S
Pr1065 O1092 2.695 . S
Pr1065 O1093 2.512 . S
Pr1065 O1095 2.437 . S
C1066 Pr1064 2.880 . S
C1066 C1067 1.491 . S
C1066 O1084 1.254 . S
C1066 O1085 1.225 . S
C1067 C1066 1.491 . S
C1067 C1068 1.392 . S
C1067 C1072 1.356 . S
C1068 C1067 1.392 . S
C1068 C1069 1.368 . S
C1068 H1096 0.929 . S
C1069 C1068 1.368 . S
C1069 C1070 1.386 . S
C1069 H1097 0.929 . S
C1070 C1069 1.386 . S
C1070 C1071 1.373 . S
C1071 C1070 1.373 . S
C1071 C1072 1.409 . S
C1071 H1098 0.931 . S
C1072 C1067 1.356 . S
C1072 C1071 1.409 . S
C1072 H1099 0.930 . S
C1073 O1086 1.270 . S
C1073 O1087 1.248 . S
C1074 O1088 1.267 . S
C1074 O1089 1.278 . S
C1075 Pr1065 2.880 . S
C1075 C1076 1.491 . S
C1075 O1090 1.254 . S
C1075 O1091 1.225 . S
C1076 C1075 1.491 . S
C1076 C1077 1.392 . S
C1076 C1081 1.356 . S
C1077 C1076 1.392 . S
C1077 C1078 1.368 . S
C1077 H1100 0.929 . S
C1078 C1077 1.368 . S
C1078 C1079 1.386 . S
C1078 H1101 0.929 . S
C1079 C1078 1.386 . S
C1079 C1080 1.373 . S
C1080 C1079 1.373 . S
C1080 C1081 1.409 . S
C1080 H1102 0.931 . S
C1081 C1076 1.356 . S
C1081 C1080 1.409 . S
C1081 H1103 0.930 . S
C1082 O1092 1.270 . S
C1082 O1093 1.248 . S
C1083 O1094 1.267 . S
C1083 O1095 1.278 . S
O1084 Pr1064 2.562 . S
O1084 C1066 1.254 . S
O1085 Pr1064 2.490 . S
O1085 C1066 1.225 . S
O1086 Pr1064 2.695 . S
O1086 Pr1065 2.436 . S
O1086 C1073 1.270 . S
O1087 Pr1064 2.512 . S
O1087 C1073 1.248 . S
O1088 Pr1065 2.438 . S
O1088 C1074 1.267 . S
O1089 Pr1064 2.437 . S
O1089 C1074 1.278 . S
O1090 Pr1065 2.562 . S
O1090 C1075 1.254 . S
O1091 Pr1065 2.490 . S
O1091 C1075 1.225 . S
O1092 Pr1064 2.436 . S
O1092 Pr1065 2.695 . S
O1092 C1082 1.270 . S
O1093 Pr1065 2.512 . S
O1093 C1082 1.248 . S
O1094 Pr1064 2.438 . S
O1094 C1083 1.267 . S
O1095 Pr1065 2.437 . S
O1095 C1083 1.278 . S
H1096 C1068 0.929 . S
H1097 C1069 0.929 . S
H1098 C1071 0.931 . S
H1099 C1072 0.930 . S
H1100 C1077 0.929 . S
H1101 C1078 0.929 . S
H1102 C1080 0.931 . S
H1103 C1081 0.930 . S
Pr1104 C1106 2.880 . S
Pr1104 O1124 2.562 . S
Pr1104 O1125 2.490 . S
Pr1104 O1126 2.695 . S
Pr1104 O1127 2.512 . S
Pr1104 O1129 2.437 . S
Pr1104 O1132 2.436 . S
Pr1104 O1134 2.438 . S
Pr1105 C1115 2.880 . S
Pr1105 O1126 2.436 1_556 S
Pr1105 O1128 2.438 1_556 S
Pr1105 O1130 2.562 . S
Pr1105 O1131 2.490 . S
Pr1105 O1132 2.695 1_556 S
Pr1105 O1133 2.512 1_556 S
Pr1105 O1135 2.437 1_556 S
C1106 Pr1104 2.880 . S
C1106 C1107 1.491 . S
C1106 O1124 1.254 . S
C1106 O1125 1.225 . S
C1107 C1106 1.491 . S
C1107 C1108 1.392 . S
C1107 C1112 1.356 . S
C1108 C1107 1.392 . S
C1108 C1109 1.368 . S
C1108 H1136 0.929 . S
C1109 C1108 1.368 . S
C1109 C1110 1.386 . S
C1109 H1137 0.929 . S
C1110 C1109 1.386 . S
C1110 C1111 1.373 . S
C1111 C1110 1.373 . S
C1111 C1112 1.409 . S
C1111 H1138 0.931 . S
C1112 C1107 1.356 . S
C1112 C1111 1.409 . S
C1112 H1139 0.930 . S
C1113 O1126 1.270 . S
C1113 O1127 1.248 . S
C1114 O1128 1.267 . S
C1114 O1129 1.278 . S
C1115 Pr1105 2.880 . S
C1115 C1116 1.491 . S
C1115 O1130 1.254 . S
C1115 O1131 1.225 . S
C1116 C1115 1.491 . S
C1116 C1117 1.392 . S
C1116 C1121 1.356 . S
C1117 C1116 1.392 . S
C1117 C1118 1.368 . S
C1117 H1140 0.929 . S
C1118 C1117 1.368 . S
C1118 C1119 1.386 . S
C1118 H1141 0.929 . S
C1119 C1118 1.386 . S
C1119 C1120 1.373 . S
C1120 C1119 1.373 . S
C1120 C1121 1.409 . S
C1120 H1142 0.931 . S
C1121 C1116 1.356 . S
C1121 C1120 1.409 . S
C1121 H1143 0.930 . S
C1122 O1132 1.270 . S
C1122 O1133 1.248 . S
C1123 O1134 1.267 . S
C1123 O1135 1.278 . S
O1124 Pr1104 2.562 . S
O1124 C1106 1.254 . S
O1125 Pr1104 2.490 . S
O1125 C1106 1.225 . S
O1126 Pr1104 2.695 . S
O1126 Pr1105 2.436 1_554 S
O1126 C1113 1.270 . S
O1127 Pr1104 2.512 . S
O1127 C1113 1.248 . S
O1128 Pr1105 2.438 1_554 S
O1128 C1114 1.267 . S
O1129 Pr1104 2.437 . S
O1129 C1114 1.278 . S
O1130 Pr1105 2.562 . S
O1130 C1115 1.254 . S
O1131 Pr1105 2.490 . S
O1131 C1115 1.225 . S
O1132 Pr1104 2.436 . S
O1132 Pr1105 2.695 1_554 S
O1132 C1122 1.270 . S
O1133 Pr1105 2.512 1_554 S
O1133 C1122 1.248 . S
O1134 Pr1104 2.438 . S
O1134 C1123 1.267 . S
O1135 Pr1105 2.437 1_554 S
O1135 C1123 1.278 . S
H1136 C1108 0.929 . S
H1137 C1109 0.929 . S
H1138 C1111 0.931 . S
H1139 C1112 0.930 . S
H1140 C1117 0.929 . S
H1141 C1118 0.929 . S
H1142 C1120 0.931 . S
H1143 C1121 0.930 . S
Pr1144 C1146 2.880 . S
Pr1144 O1164 2.562 . S
Pr1144 O1165 2.490 . S
Pr1144 O1166 2.695 . S
Pr1144 O1167 2.512 . S
Pr1144 O1169 2.437 . S
Pr1144 O1172 2.436 . S
Pr1144 O1174 2.438 . S
Pr1145 C1155 2.880 . S
Pr1145 O1166 2.436 . S
Pr1145 O1168 2.438 . S
Pr1145 O1170 2.562 . S
Pr1145 O1171 2.490 . S
Pr1145 O1172 2.695 . S
Pr1145 O1173 2.512 . S
Pr1145 O1175 2.437 . S
C1146 Pr1144 2.880 . S
C1146 C1147 1.491 . S
C1146 O1164 1.254 . S
C1146 O1165 1.225 . S
C1147 C1146 1.491 . S
C1147 C1148 1.392 . S
C1147 C1152 1.356 . S
C1148 C1147 1.392 . S
C1148 C1149 1.368 . S
C1148 H1176 0.929 . S
C1149 C1148 1.368 . S
C1149 C1150 1.386 . S
C1149 H1177 0.929 . S
C1150 C1149 1.386 . S
C1150 C1151 1.373 . S
C1151 C1150 1.373 . S
C1151 C1152 1.409 . S
C1151 H1178 0.931 . S
C1152 C1147 1.356 . S
C1152 C1151 1.409 . S
C1152 H1179 0.930 . S
C1153 O1166 1.270 . S
C1153 O1167 1.248 . S
C1154 O1168 1.267 . S
C1154 O1169 1.278 . S
C1155 Pr1145 2.880 . S
C1155 C1156 1.491 . S
C1155 O1170 1.254 . S
C1155 O1171 1.225 . S
C1156 C1155 1.491 . S
C1156 C1157 1.392 . S
C1156 C1161 1.356 . S
C1157 C1156 1.392 . S
C1157 C1158 1.368 . S
C1157 H1180 0.929 . S
C1158 C1157 1.368 . S
C1158 C1159 1.386 . S
C1158 H1181 0.929 . S
C1159 C1158 1.386 . S
C1159 C1160 1.373 . S
C1160 C1159 1.373 . S
C1160 C1161 1.409 . S
C1160 H1182 0.931 . S
C1161 C1156 1.356 . S
C1161 C1160 1.409 . S
C1161 H1183 0.930 . S
C1162 O1172 1.270 . S
C1162 O1173 1.248 . S
C1163 O1174 1.267 . S
C1163 O1175 1.278 . S
O1164 Pr1144 2.562 . S
O1164 C1146 1.254 . S
O1165 Pr1144 2.490 . S
O1165 C1146 1.225 . S
O1166 Pr1144 2.695 . S
O1166 Pr1145 2.436 . S
O1166 C1153 1.270 . S
O1167 Pr1144 2.512 . S
O1167 C1153 1.248 . S
O1168 Pr1145 2.438 . S
O1168 C1154 1.267 . S
O1169 Pr1144 2.437 . S
O1169 C1154 1.278 . S
O1170 Pr1145 2.562 . S
O1170 C1155 1.254 . S
O1171 Pr1145 2.490 . S
O1171 C1155 1.225 . S
O1172 Pr1144 2.436 . S
O1172 Pr1145 2.695 . S
O1172 C1162 1.270 . S
O1173 Pr1145 2.512 . S
O1173 C1162 1.248 . S
O1174 Pr1144 2.438 . S
O1174 C1163 1.267 . S
O1175 Pr1145 2.437 . S
O1175 C1163 1.278 . S
H1176 C1148 0.929 . S
H1177 C1149 0.929 . S
H1178 C1151 0.931 . S
H1179 C1152 0.930 . S
H1180 C1157 0.929 . S
H1181 C1158 0.929 . S
H1182 C1160 0.931 . S
H1183 C1161 0.930 . S
Pr1184 C1186 2.880 . S
Pr1184 O1204 2.562 . S
Pr1184 O1205 2.490 . S
Pr1184 O1206 2.695 1_556 S
Pr1184 O1207 2.512 . S
Pr1184 O1209 2.437 . S
Pr1184 O1212 2.436 1_556 S
Pr1184 O1214 2.438 1_556 S
Pr1185 C1195 2.880 . S
Pr1185 O1206 2.436 . S
Pr1185 O1208 2.438 . S
Pr1185 O1210 2.562 . S
Pr1185 O1211 2.490 . S
Pr1185 O1212 2.695 . S
Pr1185 O1213 2.512 . S
Pr1185 O1215 2.437 . S
C1186 Pr1184 2.880 . S
C1186 C1187 1.491 . S
C1186 O1204 1.254 . S
C1186 O1205 1.225 . S
C1187 C1186 1.491 . S
C1187 C1188 1.392 . S
C1187 C1192 1.356 . S
C1188 C1187 1.392 . S
C1188 C1189 1.368 . S
C1188 H1216 0.929 . S
C1189 C1188 1.368 . S
C1189 C1190 1.386 . S
C1189 H1217 0.929 . S
C1190 C1189 1.386 . S
C1190 C1191 1.373 . S
C1191 C1190 1.373 . S
C1191 C1192 1.409 . S
C1191 H1218 0.931 . S
C1192 C1187 1.356 . S
C1192 C1191 1.409 . S
C1192 H1219 0.930 . S
C1193 O1206 1.270 . S
C1193 O1207 1.248 1_554 S
C1194 O1208 1.267 . S
C1194 O1209 1.278 1_554 S
C1195 Pr1185 2.880 . S
C1195 C1196 1.491 . S
C1195 O1210 1.254 . S
C1195 O1211 1.225 . S
C1196 C1195 1.491 . S
C1196 C1197 1.392 . S
C1196 C1201 1.356 . S
C1197 C1196 1.392 . S
C1197 C1198 1.368 . S
C1197 H1220 0.929 . S
C1198 C1197 1.368 . S
C1198 C1199 1.386 . S
C1198 H1221 0.929 . S
C1199 C1198 1.386 . S
C1199 C1200 1.373 . S
C1200 C1199 1.373 . S
C1200 C1201 1.409 . S
C1200 H1222 0.931 . S
C1201 C1196 1.356 . S
C1201 C1200 1.409 . S
C1201 H1223 0.930 . S
C1202 O1212 1.270 . S
C1202 O1213 1.248 . S
C1203 O1214 1.267 . S
C1203 O1215 1.278 . S
O1204 Pr1184 2.562 . S
O1204 C1186 1.254 . S
O1205 Pr1184 2.490 . S
O1205 C1186 1.225 . S
O1206 Pr1184 2.695 1_554 S
O1206 Pr1185 2.436 . S
O1206 C1193 1.270 . S
O1207 Pr1184 2.512 . S
O1207 C1193 1.248 1_556 S
O1208 Pr1185 2.438 . S
O1208 C1194 1.267 . S
O1209 Pr1184 2.437 . S
O1209 C1194 1.278 1_556 S
O1210 Pr1185 2.562 . S
O1210 C1195 1.254 . S
O1211 Pr1185 2.490 . S
O1211 C1195 1.225 . S
O1212 Pr1184 2.436 1_554 S
O1212 Pr1185 2.695 . S
O1212 C1202 1.270 . S
O1213 Pr1185 2.512 . S
O1213 C1202 1.248 . S
O1214 Pr1184 2.438 1_554 S
O1214 C1203 1.267 . S
O1215 Pr1185 2.437 . S
O1215 C1203 1.278 . S
H1216 C1188 0.929 . S
H1217 C1189 0.929 . S
H1218 C1191 0.931 . S
H1219 C1192 0.930 . S
H1220 C1197 0.929 . S
H1221 C1198 0.929 . S
H1222 C1200 0.931 . S
H1223 C1201 0.930 . S
Pr1224 C1226 2.880 . S
Pr1224 O1244 2.562 . S
Pr1224 O1245 2.490 . S
Pr1224 O1246 2.695 . S
Pr1224 O1247 2.512 . S
Pr1224 O1249 2.437 . S
Pr1224 O1252 2.436 . S
Pr1224 O1254 2.438 . S
Pr1225 C1235 2.880 . S
Pr1225 O1246 2.436 . S
Pr1225 O1248 2.438 . S
Pr1225 O1250 2.562 . S
Pr1225 O1251 2.490 . S
Pr1225 O1252 2.695 . S
Pr1225 O1253 2.512 . S
Pr1225 O1255 2.437 . S
C1226 Pr1224 2.880 . S
C1226 C1227 1.491 . S
C1226 O1244 1.254 . S
C1226 O1245 1.225 . S
C1227 C1226 1.491 . S
C1227 C1228 1.392 . S
C1227 C1232 1.356 . S
C1228 C1227 1.392 . S
C1228 C1229 1.368 . S
C1228 H1256 0.929 . S
C1229 C1228 1.368 . S
C1229 C1230 1.386 . S
C1229 H1257 0.929 . S
C1230 C1229 1.386 . S
C1230 C1231 1.373 . S
C1231 C1230 1.373 . S
C1231 C1232 1.409 . S
C1231 H1258 0.931 . S
C1232 C1227 1.356 . S
C1232 C1231 1.409 . S
C1232 H1259 0.930 . S
C1233 O1246 1.270 . S
C1233 O1247 1.248 . S
C1234 O1248 1.267 . S
C1234 O1249 1.278 . S
C1235 Pr1225 2.880 . S
C1235 C1236 1.491 . S
C1235 O1250 1.254 . S
C1235 O1251 1.225 . S
C1236 C1235 1.491 . S
C1236 C1237 1.392 . S
C1236 C1241 1.356 . S
C1237 C1236 1.392 . S
C1237 C1238 1.368 . S
C1237 H1260 0.929 . S
C1238 C1237 1.368 . S
C1238 C1239 1.386 . S
C1238 H1261 0.929 . S
C1239 C1238 1.386 . S
C1239 C1240 1.373 . S
C1240 C1239 1.373 . S
C1240 C1241 1.409 . S
C1240 H1262 0.931 . S
C1241 C1236 1.356 . S
C1241 C1240 1.409 . S
C1241 H1263 0.930 . S
C1242 O1252 1.270 . S
C1242 O1253 1.248 . S
C1243 O1254 1.267 . S
C1243 O1255 1.278 . S
O1244 Pr1224 2.562 . S
O1244 C1226 1.254 . S
O1245 Pr1224 2.490 . S
O1245 C1226 1.225 . S
O1246 Pr1224 2.695 . S
O1246 Pr1225 2.436 . S
O1246 C1233 1.270 . S
O1247 Pr1224 2.512 . S
O1247 C1233 1.248 . S
O1248 Pr1225 2.438 . S
O1248 C1234 1.267 . S
O1249 Pr1224 2.437 . S
O1249 C1234 1.278 . S
O1250 Pr1225 2.562 . S
O1250 C1235 1.254 . S
O1251 Pr1225 2.490 . S
O1251 C1235 1.225 . S
O1252 Pr1224 2.436 . S
O1252 Pr1225 2.695 . S
O1252 C1242 1.270 . S
O1253 Pr1225 2.512 . S
O1253 C1242 1.248 . S
O1254 Pr1224 2.438 . S
O1254 C1243 1.267 . S
O1255 Pr1225 2.437 . S
O1255 C1243 1.278 . S
H1256 C1228 0.929 . S
H1257 C1229 0.929 . S
H1258 C1231 0.931 . S
H1259 C1232 0.930 . S
H1260 C1237 0.929 . S
H1261 C1238 0.929 . S
H1262 C1240 0.931 . S
H1263 C1241 0.930 . S
Pr1264 C1266 2.880 . S
Pr1264 O1284 2.562 . S
Pr1264 O1285 2.490 . S
Pr1264 O1286 2.695 . S
Pr1264 O1287 2.512 . S
Pr1264 O1289 2.437 . S
Pr1264 O1292 2.436 . S
Pr1264 O1294 2.438 . S
Pr1265 C1275 2.880 . S
Pr1265 O1286 2.436 . S
Pr1265 O1288 2.438 . S
Pr1265 O1290 2.562 . S
Pr1265 O1291 2.490 . S
Pr1265 O1292 2.695 . S
Pr1265 O1293 2.512 . S
Pr1265 O1295 2.437 . S
C1266 Pr1264 2.880 . S
C1266 C1267 1.491 . S
C1266 O1284 1.254 . S
C1266 O1285 1.225 . S
C1267 C1266 1.491 . S
C1267 C1268 1.392 . S
C1267 C1272 1.356 . S
C1268 C1267 1.392 . S
C1268 C1269 1.368 . S
C1268 H1296 0.929 . S
C1269 C1268 1.368 . S
C1269 C1270 1.386 . S
C1269 H1297 0.929 . S
C1270 C1269 1.386 . S
C1270 C1271 1.373 . S
C1271 C1270 1.373 . S
C1271 C1272 1.409 . S
C1271 H1298 0.931 1_455 S
C1272 C1267 1.356 . S
C1272 C1271 1.409 . S
C1272 H1299 0.930 . S
C1273 O1286 1.270 . S
C1273 O1287 1.248 . S
C1274 O1288 1.267 . S
C1274 O1289 1.278 . S
C1275 Pr1265 2.880 . S
C1275 C1276 1.491 . S
C1275 O1290 1.254 . S
C1275 O1291 1.225 . S
C1276 C1275 1.491 . S
C1276 C1277 1.392 . S
C1276 C1281 1.356 . S
C1277 C1276 1.392 . S
C1277 C1278 1.368 . S
C1277 H1300 0.929 . S
C1278 C1277 1.368 . S
C1278 C1279 1.386 . S
C1278 H1301 0.929 . S
C1279 C1278 1.386 . S
C1279 C1280 1.373 . S
C1280 C1279 1.373 . S
C1280 C1281 1.409 . S
C1280 H1302 0.931 . S
C1281 C1276 1.356 . S
C1281 C1280 1.409 . S
C1281 H1303 0.930 . S
C1282 O1292 1.270 . S
C1282 O1293 1.248 . S
C1283 O1294 1.267 . S
C1283 O1295 1.278 . S
O1284 Pr1264 2.562 . S
O1284 C1266 1.254 . S
O1285 Pr1264 2.490 . S
O1285 C1266 1.225 . S
O1286 Pr1264 2.695 . S
O1286 Pr1265 2.436 . S
O1286 C1273 1.270 . S
O1287 Pr1264 2.512 . S
O1287 C1273 1.248 . S
O1288 Pr1265 2.438 . S
O1288 C1274 1.267 . S
O1289 Pr1264 2.437 . S
O1289 C1274 1.278 . S
O1290 Pr1265 2.562 . S
O1290 C1275 1.254 . S
O1291 Pr1265 2.490 . S
O1291 C1275 1.225 . S
O1292 Pr1264 2.436 . S
O1292 Pr1265 2.695 . S
O1292 C1282 1.270 . S
O1293 Pr1265 2.512 . S
O1293 C1282 1.248 . S
O1294 Pr1264 2.438 . S
O1294 C1283 1.267 . S
O1295 Pr1265 2.437 . S
O1295 C1283 1.278 . S
H1296 C1268 0.929 . S
H1297 C1269 0.929 . S
H1298 C1271 0.931 1_655 S
H1299 C1272 0.930 . S
H1300 C1277 0.929 . S
H1301 C1278 0.929 . S
H1302 C1280 0.931 . S
H1303 C1281 0.930 . S
Pr1304 C1306 2.880 . S
Pr1304 O1324 2.562 . S
Pr1304 O1325 2.490 . S
Pr1304 O1326 2.695 . S
Pr1304 O1327 2.512 . S
Pr1304 O1329 2.437 . S
Pr1304 O1332 2.436 . S
Pr1304 O1334 2.438 . S
Pr1305 C1315 2.880 . S
Pr1305 O1326 2.436 . S
Pr1305 O1328 2.438 . S
Pr1305 O1330 2.562 . S
Pr1305 O1331 2.490 . S
Pr1305 O1332 2.695 . S
Pr1305 O1333 2.512 . S
Pr1305 O1335 2.437 . S
C1306 Pr1304 2.880 . S
C1306 C1307 1.491 . S
C1306 O1324 1.254 . S
C1306 O1325 1.225 . S
C1307 C1306 1.491 . S
C1307 C1308 1.392 . S
C1307 C1312 1.356 . S
C1308 C1307 1.392 . S
C1308 C1309 1.368 . S
C1308 H1336 0.929 . S
C1309 C1308 1.368 . S
C1309 C1310 1.386 . S
C1309 H1337 0.929 . S
C1310 C1309 1.386 . S
C1310 C1311 1.373 . S
C1311 C1310 1.373 . S
C1311 C1312 1.409 . S
C1311 H1338 0.931 . S
C1312 C1307 1.356 . S
C1312 C1311 1.409 . S
C1312 H1339 0.930 . S
C1313 O1326 1.270 . S
C1313 O1327 1.248 . S
C1314 O1328 1.267 . S
C1314 O1329 1.278 . S
C1315 Pr1305 2.880 . S
C1315 C1316 1.491 . S
C1315 O1330 1.254 . S
C1315 O1331 1.225 . S
C1316 C1315 1.491 . S
C1316 C1317 1.392 . S
C1316 C1321 1.356 . S
C1317 C1316 1.392 . S
C1317 C1318 1.368 . S
C1317 H1340 0.929 . S
C1318 C1317 1.368 . S
C1318 C1319 1.386 . S
C1318 H1341 0.929 . S
C1319 C1318 1.386 . S
C1319 C1320 1.373 . S
C1320 C1319 1.373 . S
C1320 C1321 1.409 . S
C1320 H1342 0.931 . S
C1321 C1316 1.356 . S
C1321 C1320 1.409 . S
C1321 H1343 0.930 . S
C1322 O1332 1.270 . S
C1322 O1333 1.248 . S
C1323 O1334 1.267 . S
C1323 O1335 1.278 . S
O1324 Pr1304 2.562 . S
O1324 C1306 1.254 . S
O1325 Pr1304 2.490 . S
O1325 C1306 1.225 . S
O1326 Pr1304 2.695 . S
O1326 Pr1305 2.436 . S
O1326 C1313 1.270 . S
O1327 Pr1304 2.512 . S
O1327 C1313 1.248 . S
O1328 Pr1305 2.438 . S
O1328 C1314 1.267 . S
O1329 Pr1304 2.437 . S
O1329 C1314 1.278 . S
O1330 Pr1305 2.562 . S
O1330 C1315 1.254 . S
O1331 Pr1305 2.490 . S
O1331 C1315 1.225 . S
O1332 Pr1304 2.436 . S
O1332 Pr1305 2.695 . S
O1332 C1322 1.270 . S
O1333 Pr1305 2.512 . S
O1333 C1322 1.248 . S
O1334 Pr1304 2.438 . S
O1334 C1323 1.267 . S
O1335 Pr1305 2.437 . S
O1335 C1323 1.278 . S
H1336 C1308 0.929 . S
H1337 C1309 0.929 . S
H1338 C1311 0.931 . S
H1339 C1312 0.930 . S
H1340 C1317 0.929 . S
H1341 C1318 0.929 . S
H1342 C1320 0.931 . S
H1343 C1321 0.930 . S
Pr1344 C1346 2.880 . S
Pr1344 O1364 2.562 . S
Pr1344 O1365 2.490 . S
Pr1344 O1366 2.695 . S
Pr1344 O1367 2.512 . S
Pr1344 O1369 2.437 . S
Pr1344 O1372 2.436 . S
Pr1344 O1374 2.438 . S
Pr1345 C1355 2.880 . S
Pr1345 O1366 2.436 . S
Pr1345 O1368 2.438 . S
Pr1345 O1370 2.562 . S
Pr1345 O1371 2.490 . S
Pr1345 O1372 2.695 . S
Pr1345 O1373 2.512 . S
Pr1345 O1375 2.437 . S
C1346 Pr1344 2.880 . S
C1346 C1347 1.491 . S
C1346 O1364 1.254 . S
C1346 O1365 1.225 . S
C1347 C1346 1.491 . S
C1347 C1348 1.392 . S
C1347 C1352 1.356 . S
C1348 C1347 1.392 . S
C1348 C1349 1.368 . S
C1348 H1376 0.929 . S
C1349 C1348 1.368 . S
C1349 C1350 1.386 . S
C1349 H1377 0.929 . S
C1350 C1349 1.386 . S
C1350 C1351 1.373 . S
C1351 C1350 1.373 . S
C1351 C1352 1.409 . S
C1351 H1378 0.931 . S
C1352 C1347 1.356 . S
C1352 C1351 1.409 . S
C1352 H1379 0.930 . S
C1353 O1366 1.270 . S
C1353 O1367 1.248 . S
C1354 O1368 1.267 . S
C1354 O1369 1.278 . S
C1355 Pr1345 2.880 . S
C1355 C1356 1.491 . S
C1355 O1370 1.254 . S
C1355 O1371 1.225 . S
C1356 C1355 1.491 . S
C1356 C1357 1.392 . S
C1356 C1361 1.356 . S
C1357 C1356 1.392 . S
C1357 C1358 1.368 . S
C1357 H1380 0.929 . S
C1358 C1357 1.368 . S
C1358 C1359 1.386 . S
C1358 H1381 0.929 . S
C1359 C1358 1.386 . S
C1359 C1360 1.373 . S
C1360 C1359 1.373 . S
C1360 C1361 1.409 . S
C1360 H1382 0.931 . S
C1361 C1356 1.356 . S
C1361 C1360 1.409 . S
C1361 H1383 0.930 . S
C1362 O1372 1.270 . S
C1362 O1373 1.248 . S
C1363 O1374 1.267 . S
C1363 O1375 1.278 . S
O1364 Pr1344 2.562 . S
O1364 C1346 1.254 . S
O1365 Pr1344 2.490 . S
O1365 C1346 1.225 . S
O1366 Pr1344 2.695 . S
O1366 Pr1345 2.436 . S
O1366 C1353 1.270 . S
O1367 Pr1344 2.512 . S
O1367 C1353 1.248 . S
O1368 Pr1345 2.438 . S
O1368 C1354 1.267 . S
O1369 Pr1344 2.437 . S
O1369 C1354 1.278 . S
O1370 Pr1345 2.562 . S
O1370 C1355 1.254 . S
O1371 Pr1345 2.490 . S
O1371 C1355 1.225 . S
O1372 Pr1344 2.436 . S
O1372 Pr1345 2.695 . S
O1372 C1362 1.270 . S
O1373 Pr1345 2.512 . S
O1373 C1362 1.248 . S
O1374 Pr1344 2.438 . S
O1374 C1363 1.267 . S
O1375 Pr1345 2.437 . S
O1375 C1363 1.278 . S
H1376 C1348 0.929 . S
H1377 C1349 0.929 . S
H1378 C1351 0.931 . S
H1379 C1352 0.930 . S
H1380 C1357 0.929 . S
H1381 C1358 0.929 . S
H1382 C1360 0.931 . S
H1383 C1361 0.930 . S
Pr1384 C1386 2.880 . S
Pr1384 O1404 2.562 . S
Pr1384 O1405 2.490 . S
Pr1384 O1406 2.695 . S
Pr1384 O1407 2.512 . S
Pr1384 O1409 2.437 . S
Pr1384 O1412 2.436 . S
Pr1384 O1414 2.438 . S
Pr1385 C1395 2.880 . S
Pr1385 O1406 2.436 . S
Pr1385 O1408 2.438 . S
Pr1385 O1410 2.562 . S
Pr1385 O1411 2.490 . S
Pr1385 O1412 2.695 . S
Pr1385 O1413 2.512 . S
Pr1385 O1415 2.437 . S
C1386 Pr1384 2.880 . S
C1386 C1387 1.491 . S
C1386 O1404 1.254 . S
C1386 O1405 1.225 . S
C1387 C1386 1.491 . S
C1387 C1388 1.392 . S
C1387 C1392 1.356 . S
C1388 C1387 1.392 . S
C1388 C1389 1.368 . S
C1388 H1416 0.929 . S
C1389 C1388 1.368 . S
C1389 C1390 1.386 . S
C1389 H1417 0.929 . S
C1390 C1389 1.386 . S
C1390 C1391 1.373 . S
C1391 C1390 1.373 . S
C1391 C1392 1.409 . S
C1391 H1418 0.931 . S
C1392 C1387 1.356 . S
C1392 C1391 1.409 . S
C1392 H1419 0.930 . S
C1393 O1406 1.270 . S
C1393 O1407 1.248 . S
C1394 O1408 1.267 . S
C1394 O1409 1.278 . S
C1395 Pr1385 2.880 . S
C1395 C1396 1.491 . S
C1395 O1410 1.254 . S
C1395 O1411 1.225 . S
C1396 C1395 1.491 . S
C1396 C1397 1.392 . S
C1396 C1401 1.356 . S
C1397 C1396 1.392 . S
C1397 C1398 1.368 . S
C1397 H1420 0.929 . S
C1398 C1397 1.368 . S
C1398 C1399 1.386 . S
C1398 H1421 0.929 . S
C1399 C1398 1.386 . S
C1399 C1400 1.373 . S
C1400 C1399 1.373 . S
C1400 C1401 1.409 . S
C1400 H1422 0.931 . S
C1401 C1396 1.356 . S
C1401 C1400 1.409 . S
C1401 H1423 0.930 . S
C1402 O1412 1.270 . S
C1402 O1413 1.248 . S
C1403 O1414 1.267 . S
C1403 O1415 1.278 . S
O1404 Pr1384 2.562 . S
O1404 C1386 1.254 . S
O1405 Pr1384 2.490 . S
O1405 C1386 1.225 . S
O1406 Pr1384 2.695 . S
O1406 Pr1385 2.436 . S
O1406 C1393 1.270 . S
O1407 Pr1384 2.512 . S
O1407 C1393 1.248 . S
O1408 Pr1385 2.438 . S
O1408 C1394 1.267 . S
O1409 Pr1384 2.437 . S
O1409 C1394 1.278 . S
O1410 Pr1385 2.562 . S
O1410 C1395 1.254 . S
O1411 Pr1385 2.490 . S
O1411 C1395 1.225 . S
O1412 Pr1384 2.436 . S
O1412 Pr1385 2.695 . S
O1412 C1402 1.270 . S
O1413 Pr1385 2.512 . S
O1413 C1402 1.248 . S
O1414 Pr1384 2.438 . S
O1414 C1403 1.267 . S
O1415 Pr1385 2.437 . S
O1415 C1403 1.278 . S
H1416 C1388 0.929 . S
H1417 C1389 0.929 . S
H1418 C1391 0.931 . S
H1419 C1392 0.930 . S
H1420 C1397 0.929 . S
H1421 C1398 0.929 . S
H1422 C1400 0.931 . S
H1423 C1401 0.930 . S
Pr1424 C1426 2.880 . S
Pr1424 O1444 2.562 . S
Pr1424 O1445 2.490 . S
Pr1424 O1446 2.695 . S
Pr1424 O1447 2.512 . S
Pr1424 O1449 2.437 . S
Pr1424 O1452 2.436 . S
Pr1424 O1454 2.438 . S
Pr1425 C1435 2.880 . S
Pr1425 O1446 2.436 . S
Pr1425 O1448 2.438 . S
Pr1425 O1450 2.562 . S
Pr1425 O1451 2.490 . S
Pr1425 O1452 2.695 . S
Pr1425 O1453 2.512 . S
Pr1425 O1455 2.437 . S
C1426 Pr1424 2.880 . S
C1426 C1427 1.491 . S
C1426 O1444 1.254 . S
C1426 O1445 1.225 . S
C1427 C1426 1.491 . S
C1427 C1428 1.392 . S
C1427 C1432 1.356 . S
C1428 C1427 1.392 . S
C1428 C1429 1.368 . S
C1428 H1456 0.929 . S
C1429 C1428 1.368 . S
C1429 C1430 1.386 . S
C1429 H1457 0.929 . S
C1430 C1429 1.386 . S
C1430 C1431 1.373 . S
C1431 C1430 1.373 . S
C1431 C1432 1.409 . S
C1431 H1458 0.931 . S
C1432 C1427 1.356 . S
C1432 C1431 1.409 . S
C1432 H1459 0.930 . S
C1433 O1446 1.270 . S
C1433 O1447 1.248 . S
C1434 O1448 1.267 . S
C1434 O1449 1.278 . S
C1435 Pr1425 2.880 . S
C1435 C1436 1.491 . S
C1435 O1450 1.254 . S
C1435 O1451 1.225 . S
C1436 C1435 1.491 . S
C1436 C1437 1.392 . S
C1436 C1441 1.356 . S
C1437 C1436 1.392 . S
C1437 C1438 1.368 . S
C1437 H1460 0.929 . S
C1438 C1437 1.368 . S
C1438 C1439 1.386 . S
C1438 H1461 0.929 . S
C1439 C1438 1.386 . S
C1439 C1440 1.373 . S
C1440 C1439 1.373 . S
C1440 C1441 1.409 . S
C1440 H1462 0.931 . S
C1441 C1436 1.356 . S
C1441 C1440 1.409 . S
C1441 H1463 0.930 . S
C1442 O1452 1.270 . S
C1442 O1453 1.248 . S
C1443 O1454 1.267 . S
C1443 O1455 1.278 . S
O1444 Pr1424 2.562 . S
O1444 C1426 1.254 . S
O1445 Pr1424 2.490 . S
O1445 C1426 1.225 . S
O1446 Pr1424 2.695 . S
O1446 Pr1425 2.436 . S
O1446 C1433 1.270 . S
O1447 Pr1424 2.512 . S
O1447 C1433 1.248 . S
O1448 Pr1425 2.438 . S
O1448 C1434 1.267 . S
O1449 Pr1424 2.437 . S
O1449 C1434 1.278 . S
O1450 Pr1425 2.562 . S
O1450 C1435 1.254 . S
O1451 Pr1425 2.490 . S
O1451 C1435 1.225 . S
O1452 Pr1424 2.436 . S
O1452 Pr1425 2.695 . S
O1452 C1442 1.270 . S
O1453 Pr1425 2.512 . S
O1453 C1442 1.248 . S
O1454 Pr1424 2.438 . S
O1454 C1443 1.267 . S
O1455 Pr1425 2.437 . S
O1455 C1443 1.278 . S
H1456 C1428 0.929 . S
H1457 C1429 0.929 . S
H1458 C1431 0.931 . S
H1459 C1432 0.930 . S
H1460 C1437 0.929 . S
H1461 C1438 0.929 . S
H1462 C1440 0.931 . S
H1463 C1441 0.930 . S
Pr1464 C1466 2.880 . S
Pr1464 O1484 2.562 . S
Pr1464 O1485 2.490 1_554 S
Pr1464 O1486 2.695 . S
Pr1464 O1487 2.512 1_554 S
Pr1464 O1489 2.437 . S
Pr1464 O1492 2.436 . S
Pr1464 O1494 2.438 . S
Pr1465 C1475 2.880 1_455 S
Pr1465 O1486 2.436 . S
Pr1465 O1488 2.438 . S
Pr1465 O1490 2.562 1_455 S
Pr1465 O1491 2.490 1_455 S
Pr1465 O1492 2.695 . S
Pr1465 O1493 2.512 . S
Pr1465 O1495 2.437 . S
C1466 Pr1464 2.880 . S
C1466 C1467 1.491 . S
C1466 O1484 1.254 . S
C1466 O1485 1.225 1_554 S
C1467 C1466 1.491 . S
C1467 C1468 1.392 1_554 S
C1467 C1472 1.356 . S
C1468 C1467 1.392 1_556 S
C1468 C1469 1.368 . S
C1468 H1496 0.929 . S
C1469 C1468 1.368 . S
C1469 C1470 1.386 . S
C1469 H1497 0.929 . S
C1470 C1469 1.386 . S
C1470 C1471 1.373 1_556 S
C1471 C1470 1.373 1_554 S
C1471 C1472 1.409 . S
C1471 H1498 0.931 . S
C1472 C1467 1.356 . S
C1472 C1471 1.409 . S
C1472 H1499 0.930 . S
C1473 O1486 1.270 1_556 S
C1473 O1487 1.248 . S
C1474 O1488 1.267 . S
C1474 O1489 1.278 . S
C1475 Pr1465 2.880 1_655 S
C1475 C1476 1.491 . S
C1475 O1490 1.254 . S
C1475 O1491 1.225 . S
C1476 C1475 1.491 . S
C1476 C1477 1.392 . S
C1476 C1481 1.356 . S
C1477 C1476 1.392 . S
C1477 C1478 1.368 . S
C1477 H1500 0.929 . S
C1478 C1477 1.368 . S
C1478 C1479 1.386 . S
C1478 H1501 0.929 . S
C1479 C1478 1.386 . S
C1479 C1480 1.373 . S
C1480 C1479 1.373 . S
C1480 C1481 1.409 . S
C1480 H1502 0.931 . S
C1481 C1476 1.356 . S
C1481 C1480 1.409 . S
C1481 H1503 0.930 . S
C1482 O1492 1.270 . S
C1482 O1493 1.248 . S
C1483 O1494 1.267 . S
C1483 O1495 1.278 . S
O1484 Pr1464 2.562 . S
O1484 C1466 1.254 . S
O1485 Pr1464 2.490 1_556 S
O1485 C1466 1.225 1_556 S
O1486 Pr1464 2.695 . S
O1486 Pr1465 2.436 . S
O1486 C1473 1.270 1_554 S
O1487 Pr1464 2.512 1_556 S
O1487 C1473 1.248 . S
O1488 Pr1465 2.438 . S
O1488 C1474 1.267 . S
O1489 Pr1464 2.437 . S
O1489 C1474 1.278 . S
O1490 Pr1465 2.562 1_655 S
O1490 C1475 1.254 . S
O1491 Pr1465 2.490 1_655 S
O1491 C1475 1.225 . S
O1492 Pr1464 2.436 . S
O1492 Pr1465 2.695 . S
O1492 C1482 1.270 . S
O1493 Pr1465 2.512 . S
O1493 C1482 1.248 . S
O1494 Pr1464 2.438 . S
O1494 C1483 1.267 . S
O1495 Pr1465 2.437 . S
O1495 C1483 1.278 . S
H1496 C1468 0.929 . S
H1497 C1469 0.929 . S
H1498 C1471 0.931 . S
H1499 C1472 0.930 . S
H1500 C1477 0.929 . S
H1501 C1478 0.929 . S
H1502 C1480 0.931 . S
H1503 C1481 0.930 . S
H1504 C1516 0.930 . S
H1505 C1518 0.930 . S
H1506 C1519 0.930 . S
H1507 C1523 0.959 . S
H1508 C1523 0.959 . S
H1509 C1523 0.961 . S
H1510 C1524 0.960 . S
H1511 C1524 0.961 . S
H1512 C1524 0.959 1_556 S
H1513 C1527 0.929 . S
H1514 C1528 0.931 . S
H1515 C1530 0.930 . S
C1516 H1504 0.930 . S
C1516 C1517 1.399 . S
C1516 C1521 1.399 . S
C1517 C1516 1.399 . S
C1517 C1518 1.376 . S
C1518 H1505 0.930 . S
C1518 C1517 1.376 . S
C1518 C1519 1.388 . S
C1519 H1506 0.930 . S
C1519 C1518 1.388 . S
C1519 C1520 1.390 . S
C1520 C1519 1.390 . S
C1520 C1521 1.394 . S
C1520 C1526 1.465 . S
C1521 C1516 1.399 . S
C1521 C1520 1.394 . S
C1521 C1522 1.471 1_556 S
C1522 C1521 1.471 1_554 S
C1522 C1523 1.532 . S
C1522 C1524 1.580 1_455 S
C1522 C1525 1.520 1_554 S
C1523 H1507 0.959 . S
C1523 H1508 0.959 . S
C1523 H1509 0.961 . S
C1523 C1522 1.532 . S
C1524 H1510 0.960 . S
C1524 H1511 0.961 . S
C1524 H1512 0.959 1_554 S
C1524 C1522 1.580 1_655 S
C1525 C1522 1.520 1_556 S
C1525 C1526 1.396 . S
C1525 C1530 1.390 1_556 S
C1526 C1520 1.465 . S
C1526 C1525 1.396 . S
C1526 C1527 1.399 . S
C1527 H1513 0.929 . S
C1527 C1526 1.399 . S
C1527 C1528 1.385 . S
C1528 H1514 0.931 . S
C1528 C1527 1.385 . S
C1528 C1529 1.389 1_556 S
C1529 C1528 1.389 1_554 S
C1529 C1530 1.387 . S
C1530 H1515 0.930 . S
C1530 C1525 1.390 1_554 S
C1530 C1529 1.387 . S
H1531 C1543 0.930 . S
H1532 C1545 0.930 . S
H1533 C1546 0.930 . S
H1534 C1550 0.959 . S
H1535 C1550 0.959 . S
H1536 C1550 0.961 . S
H1537 C1551 0.960 . S
H1538 C1551 0.961 . S
H1539 C1551 0.959 . S
H1540 C1554 0.929 . S
H1541 C1555 0.931 . S
H1542 C1557 0.930 . S
C1543 H1531 0.930 . S
C1543 C1544 1.399 . S
C1543 C1548 1.399 . S
C1544 C1543 1.399 . S
C1544 C1545 1.376 . S
C1545 H1532 0.930 . S
C1545 C1544 1.376 . S
C1545 C1546 1.388 . S
C1546 H1533 0.930 . S
C1546 C1545 1.388 . S
C1546 C1547 1.390 . S
C1547 C1546 1.390 . S
C1547 C1548 1.394 . S
C1547 C1553 1.465 . S
C1548 C1543 1.399 . S
C1548 C1547 1.394 . S
C1548 C1549 1.516 . S
C1549 C1548 1.516 . S
C1549 C1550 1.502 . S
C1549 C1551 1.561 . S
C1549 C1552 1.526 . S
C1550 H1534 0.959 . S
C1550 H1535 0.959 . S
C1550 H1536 0.961 . S
C1550 C1549 1.502 . S
C1551 H1537 0.960 . S
C1551 H1538 0.961 . S
C1551 H1539 0.959 . S
C1551 C1549 1.561 . S
C1552 C1549 1.526 . S
C1552 C1553 1.396 . S
C1552 C1557 1.390 . S
C1553 C1547 1.465 . S
C1553 C1552 1.396 . S
C1553 C1554 1.399 . S
C1554 H1540 0.929 . S
C1554 C1553 1.399 . S
C1554 C1555 1.385 . S
C1555 H1541 0.931 . S
C1555 C1554 1.385 . S
C1555 C1556 1.389 . S
C1556 C1555 1.389 . S
C1556 C1557 1.387 . S
C1557 H1542 0.930 . S
C1557 C1552 1.390 . S
C1557 C1556 1.387 . S
H1558 C1570 0.930 . S
H1559 C1572 0.930 . S
H1560 C1573 0.930 . S
H1561 C1577 0.959 . S
H1562 C1577 0.959 . S
H1563 C1577 0.961 . S
H1564 C1578 0.960 . S
H1565 C1578 0.961 . S
H1566 C1578 0.959 . S
H1567 C1581 0.929 . S
H1568 C1582 0.931 . S
H1569 C1584 0.930 . S
C1570 H1558 0.930 . S
C1570 C1571 1.399 . S
C1570 C1575 1.399 . S
C1571 C1570 1.399 . S
C1571 C1572 1.376 . S
C1572 H1559 0.930 . S
C1572 C1571 1.376 . S
C1572 C1573 1.388 . S
C1573 H1560 0.930 . S
C1573 C1572 1.388 . S
C1573 C1574 1.390 . S
C1574 C1573 1.390 . S
C1574 C1575 1.394 . S
C1574 C1580 1.465 . S
C1575 C1570 1.399 . S
C1575 C1574 1.394 . S
C1575 C1576 1.516 . S
C1576 C1575 1.516 . S
C1576 C1577 1.502 . S
C1576 C1578 1.561 . S
C1576 C1579 1.526 . S
C1577 H1561 0.959 . S
C1577 H1562 0.959 . S
C1577 H1563 0.961 . S
C1577 C1576 1.502 . S
C1578 H1564 0.960 . S
C1578 H1565 0.961 . S
C1578 H1566 0.959 . S
C1578 C1576 1.561 . S
C1579 C1576 1.526 . S
C1579 C1580 1.396 . S
C1579 C1584 1.390 . S
C1580 C1574 1.465 . S
C1580 C1579 1.396 . S
C1580 C1581 1.399 . S
C1581 H1567 0.929 . S
C1581 C1580 1.399 . S
C1581 C1582 1.385 1_565 S
C1582 H1568 0.931 . S
C1582 C1581 1.385 1_545 S
C1582 C1583 1.389 . S
C1583 C1582 1.389 . S
C1583 C1584 1.387 1_545 S
C1584 H1569 0.930 . S
C1584 C1579 1.390 . S
C1584 C1583 1.387 1_565 S
H1585 C1597 0.930 . S
H1586 C1599 0.930 . S
H1587 C1600 0.930 . S
H1588 C1604 0.959 . S
H1589 C1604 0.959 . S
H1590 C1604 0.961 . S
H1591 C1605 0.960 . S
H1592 C1605 0.961 . S
H1593 C1605 0.959 . S
H1594 C1608 0.929 . S
H1595 C1609 0.931 . S
H1596 C1611 0.930 . S
C1597 H1585 0.930 . S
C1597 C1598 1.399 . S
C1597 C1602 1.399 . S
C1598 C1597 1.399 . S
C1598 C1599 1.376 . S
C1599 H1586 0.930 . S
C1599 C1598 1.376 . S
C1599 C1600 1.388 . S
C1600 H1587 0.930 . S
C1600 C1599 1.388 . S
C1600 C1601 1.390 . S
C1601 C1600 1.390 . S
C1601 C1602 1.394 . S
C1601 C1607 1.465 . S
C1602 C1597 1.399 . S
C1602 C1601 1.394 . S
C1602 C1603 1.516 . S
C1603 C1602 1.516 . S
C1603 C1604 1.502 . S
C1603 C1605 1.561 . S
C1603 C1606 1.526 . S
C1604 H1588 0.959 . S
C1604 H1589 0.959 . S
C1604 H1590 0.961 . S
C1604 C1603 1.502 . S
C1605 H1591 0.960 . S
C1605 H1592 0.961 . S
C1605 H1593 0.959 . S
C1605 C1603 1.561 . S
C1606 C1603 1.526 . S
C1606 C1607 1.396 . S
C1606 C1611 1.390 . S
C1607 C1601 1.465 . S
C1607 C1606 1.396 . S
C1607 C1608 1.399 . S
C1608 H1594 0.929 . S
C1608 C1607 1.399 . S
C1608 C1609 1.385 . S
C1609 H1595 0.931 . S
C1609 C1608 1.385 . S
C1609 C1610 1.389 . S
C1610 C1609 1.389 . S
C1610 C1611 1.387 . S
C1611 H1596 0.930 . S
C1611 C1606 1.390 . S
C1611 C1610 1.387 . S
H1612 C1624 0.930 . S
H1613 C1626 0.930 . S
H1614 C1627 0.930 . S
H1615 C1631 0.959 . S
H1616 C1631 0.959 . S
H1617 C1631 0.961 . S
H1618 C1632 0.960 . S
H1619 C1632 0.961 . S
H1620 C1632 0.959 . S
H1621 C1635 0.929 . S
H1622 C1636 0.931 . S
H1623 C1638 0.930 . S
C1624 H1612 0.930 . S
C1624 C1625 1.399 . S
C1624 C1629 1.399 . S
C1625 C1624 1.399 . S
C1625 C1626 1.376 . S
C1626 H1613 0.930 . S
C1626 C1625 1.376 . S
C1626 C1627 1.388 . S
C1627 H1614 0.930 . S
C1627 C1626 1.388 . S
C1627 C1628 1.390 . S
C1628 C1627 1.390 . S
C1628 C1629 1.394 . S
C1628 C1634 1.465 . S
C1629 C1624 1.399 . S
C1629 C1628 1.394 . S
C1629 C1630 1.516 . S
C1630 C1629 1.516 . S
C1630 C1631 1.502 . S
C1630 C1632 1.561 . S
C1630 C1633 1.526 . S
C1631 H1615 0.959 . S
C1631 H1616 0.959 . S
C1631 H1617 0.961 . S
C1631 C1630 1.502 . S
C1632 H1618 0.960 . S
C1632 H1619 0.961 . S
C1632 H1620 0.959 . S
C1632 C1630 1.561 . S
C1633 C1630 1.526 . S
C1633 C1634 1.396 . S
C1633 C1638 1.390 . S
C1634 C1628 1.465 . S
C1634 C1633 1.396 . S
C1634 C1635 1.399 . S
C1635 H1621 0.929 . S
C1635 C1634 1.399 . S
C1635 C1636 1.385 1_565 S
C1636 H1622 0.931 . S
C1636 C1635 1.385 1_545 S
C1636 C1637 1.389 . S
C1637 C1636 1.389 . S
C1637 C1638 1.387 1_545 S
C1638 H1623 0.930 . S
C1638 C1633 1.390 . S
C1638 C1637 1.387 1_565 S
H1639 C1651 0.930 . S
H1640 C1653 0.930 . S
H1641 C1654 0.930 . S
H1642 C1658 0.959 . S
H1643 C1658 0.959 . S
H1644 C1658 0.961 . S
H1645 C1659 0.960 . S
H1646 C1659 0.961 . S
H1647 C1659 0.959 . S
H1648 C1662 0.929 . S
H1649 C1663 0.931 . S
H1650 C1665 0.930 . S
C1651 H1639 0.930 . S
C1651 C1652 1.399 . S
C1651 C1656 1.399 . S
C1652 C1651 1.399 . S
C1652 C1653 1.376 . S
C1653 H1640 0.930 . S
C1653 C1652 1.376 . S
C1653 C1654 1.388 . S
C1654 H1641 0.930 . S
C1654 C1653 1.388 . S
C1654 C1655 1.390 . S
C1655 C1654 1.390 . S
C1655 C1656 1.394 . S
C1655 C1661 1.465 . S
C1656 C1651 1.399 . S
C1656 C1655 1.394 . S
C1656 C1657 1.516 . S
C1657 C1656 1.516 . S
C1657 C1658 1.502 . S
C1657 C1659 1.561 . S
C1657 C1660 1.526 . S
C1658 H1642 0.959 . S
C1658 H1643 0.959 . S
C1658 H1644 0.961 . S
C1658 C1657 1.502 . S
C1659 H1645 0.960 . S
C1659 H1646 0.961 . S
C1659 H1647 0.959 . S
C1659 C1657 1.561 . S
C1660 C1657 1.526 . S
C1660 C1661 1.396 . S
C1660 C1665 1.390 . S
C1661 C1655 1.465 . S
C1661 C1660 1.396 . S
C1661 C1662 1.399 . S
C1662 H1648 0.929 . S
C1662 C1661 1.399 . S
C1662 C1663 1.385 . S
C1663 H1649 0.931 . S
C1663 C1662 1.385 . S
C1663 C1664 1.389 . S
C1664 C1663 1.389 . S
C1664 C1665 1.387 . S
C1665 H1650 0.930 . S
C1665 C1660 1.390 . S
C1665 C1664 1.387 . S
H1666 C1678 0.930 . S
H1667 C1680 0.930 . S
H1668 C1681 0.930 . S
H1669 C1685 0.959 . S
H1670 C1685 0.959 . S
H1671 C1685 0.961 . S
H1672 C1686 0.960 . S
H1673 C1686 0.961 . S
H1674 C1686 0.959 . S
H1675 C1689 0.929 . S
H1676 C1690 0.931 . S
H1677 C1692 0.930 . S
C1678 H1666 0.930 . S
C1678 C1679 1.399 . S
C1678 C1683 1.399 . S
C1679 C1678 1.399 . S
C1679 C1680 1.376 . S
C1680 H1667 0.930 . S
C1680 C1679 1.376 . S
C1680 C1681 1.388 . S
C1681 H1668 0.930 . S
C1681 C1680 1.388 . S
C1681 C1682 1.390 . S
C1682 C1681 1.390 . S
C1682 C1683 1.394 . S
C1682 C1688 1.465 . S
C1683 C1678 1.399 . S
C1683 C1682 1.394 . S
C1683 C1684 1.516 . S
C1684 C1683 1.516 . S
C1684 C1685 1.502 . S
C1684 C1686 1.561 . S
C1684 C1687 1.526 . S
C1685 H1669 0.959 . S
C1685 H1670 0.959 . S
C1685 H1671 0.961 . S
C1685 C1684 1.502 . S
C1686 H1672 0.960 . S
C1686 H1673 0.961 . S
C1686 H1674 0.959 . S
C1686 C1684 1.561 . S
C1687 C1684 1.526 . S
C1687 C1688 1.396 . S
C1687 C1692 1.390 . S
C1688 C1682 1.465 . S
C1688 C1687 1.396 . S
C1688 C1689 1.399 . S
C1689 H1675 0.929 . S
C1689 C1688 1.399 . S
C1689 C1690 1.385 . S
C1690 H1676 0.931 . S
C1690 C1689 1.385 . S
C1690 C1691 1.389 . S
C1691 C1690 1.389 . S
C1691 C1692 1.387 . S
C1692 H1677 0.930 . S
C1692 C1687 1.390 . S
C1692 C1691 1.387 . S
H1693 C1705 0.930 . S
H1694 C1707 0.930 . S
H1695 C1708 0.930 . S
H1696 C1712 0.959 . S
H1697 C1712 0.959 . S
H1698 C1712 0.961 . S
H1699 C1713 0.960 . S
H1700 C1713 0.961 . S
H1701 C1713 0.959 . S
H1702 C1716 0.929 . S
H1703 C1717 0.931 . S
H1704 C1719 0.930 . S
C1705 H1693 0.930 . S
C1705 C1706 1.399 . S
C1705 C1710 1.399 . S
C1706 C1705 1.399 . S
C1706 C1707 1.376 . S
C1707 H1694 0.930 . S
C1707 C1706 1.376 . S
C1707 C1708 1.388 . S
C1708 H1695 0.930 . S
C1708 C1707 1.388 . S
C1708 C1709 1.390 . S
C1709 C1708 1.390 . S
C1709 C1710 1.394 . S
C1709 C1715 1.465 . S
C1710 C1705 1.399 . S
C1710 C1709 1.394 . S
C1710 C1711 1.516 . S
C1711 C1710 1.516 . S
C1711 C1712 1.502 . S
C1711 C1713 1.561 . S
C1711 C1714 1.526 . S
C1712 H1696 0.959 . S
C1712 H1697 0.959 . S
C1712 H1698 0.961 . S
C1712 C1711 1.502 . S
C1713 H1699 0.960 . S
C1713 H1700 0.961 . S
C1713 H1701 0.959 . S
C1713 C1711 1.561 . S
C1714 C1711 1.526 . S
C1714 C1715 1.396 . S
C1714 C1719 1.390 . S
C1715 C1709 1.465 . S
C1715 C1714 1.396 . S
C1715 C1716 1.399 . S
C1716 H1702 0.929 . S
C1716 C1715 1.399 . S
C1716 C1717 1.385 . S
C1717 H1703 0.931 . S
C1717 C1716 1.385 . S
C1717 C1718 1.389 . S
C1718 C1717 1.389 . S
C1718 C1719 1.387 . S
C1719 H1704 0.930 . S
C1719 C1714 1.390 . S
C1719 C1718 1.387 . S
H1720 C1732 0.930 . S
H1721 C1734 0.930 . S
H1722 C1735 0.930 . S
H1723 C1739 0.959 . S
H1724 C1739 0.959 . S
H1725 C1739 0.961 1_565 S
H1726 C1740 0.960 . S
H1727 C1740 0.961 . S
H1728 C1740 0.959 . S
H1729 C1743 0.929 . S
H1730 C1744 0.931 . S
H1731 C1746 0.935 1_655 S
C1732 H1720 0.930 . S
C1732 C1733 1.399 . S
C1732 C1737 1.399 . S
C1733 C1732 1.399 . S
C1733 C1734 1.376 . S
C1734 H1721 0.930 . S
C1734 C1733 1.376 . S
C1734 C1735 1.388 . S
C1735 H1722 0.930 . S
C1735 C1734 1.388 . S
C1735 C1736 1.390 . S
C1736 C1735 1.390 . S
C1736 C1737 1.394 . S
C1736 C1742 1.465 . S
C1737 C1732 1.399 . S
C1737 C1736 1.394 . S
C1737 C1738 1.516 . S
C1738 C1737 1.516 . S
C1738 C1739 1.502 . S
C1738 C1740 1.561 . S
C1738 C1741 1.526 . S
C1739 H1723 0.959 . S
C1739 H1724 0.959 . S
C1739 H1725 0.961 1_545 S
C1739 C1738 1.502 . S
C1740 H1726 0.960 . S
C1740 H1727 0.961 . S
C1740 H1728 0.959 . S
C1740 C1738 1.561 . S
C1741 C1738 1.526 . S
C1741 C1742 1.396 . S
C1741 C1746 1.358 1_655 S
C1742 C1736 1.465 . S
C1742 C1741 1.396 . S
C1742 C1743 1.399 1_655 S
C1743 H1729 0.929 . S
C1743 C1742 1.399 1_455 S
C1743 C1744 1.385 . S
C1744 H1730 0.931 . S
C1744 C1743 1.385 . S
C1744 C1745 1.389 . S
C1745 C1744 1.389 . S
C1745 C1746 1.415 . S
C1746 H1731 0.935 1_455 S
C1746 C1741 1.358 1_455 S
C1746 C1745 1.415 . S
H1747 C1759 0.930 . S
H1748 C1761 0.930 . S
H1749 C1762 0.930 . S
H1750 C1766 0.959 . S
H1751 C1766 0.959 . S
H1752 C1766 0.961 . S
H1753 C1767 0.960 . S
H1754 C1767 0.961 . S
H1755 C1767 0.959 . S
H1756 C1770 0.929 . S
H1757 C1771 0.931 . S
H1758 C1773 0.930 . S
C1759 H1747 0.930 . S
C1759 C1760 1.399 . S
C1759 C1764 1.399 . S
C1760 C1759 1.399 . S
C1760 C1761 1.376 . S
C1761 H1748 0.930 . S
C1761 C1760 1.376 . S
C1761 C1762 1.388 . S
C1762 H1749 0.930 . S
C1762 C1761 1.388 . S
C1762 C1763 1.390 . S
C1763 C1762 1.390 . S
C1763 C1764 1.394 . S
C1763 C1769 1.465 . S
C1764 C1759 1.399 . S
C1764 C1763 1.394 . S
C1764 C1765 1.516 . S
C1765 C1764 1.516 . S
C1765 C1766 1.502 . S
C1765 C1767 1.561 . S
C1765 C1768 1.526 . S
C1766 H1750 0.959 . S
C1766 H1751 0.959 . S
C1766 H1752 0.961 . S
C1766 C1765 1.502 . S
C1767 H1753 0.960 . S
C1767 H1754 0.961 . S
C1767 H1755 0.959 . S
C1767 C1765 1.561 . S
C1768 C1765 1.526 . S
C1768 C1769 1.396 . S
C1768 C1773 1.390 . S
C1769 C1763 1.465 . S
C1769 C1768 1.396 . S
C1769 C1770 1.399 . S
C1770 H1756 0.929 . S
C1770 C1769 1.399 . S
C1770 C1771 1.385 . S
C1771 H1757 0.931 . S
C1771 C1770 1.385 . S
C1771 C1772 1.389 . S
C1772 C1771 1.389 . S
C1772 C1773 1.387 . S
C1773 H1758 0.930 . S
C1773 C1768 1.390 . S
C1773 C1772 1.387 . S
H1774 C1786 0.930 . S
H1775 C1788 0.930 . S
H1776 C1789 0.930 . S
H1777 C1793 0.959 . S
H1778 C1793 0.959 . S
H1779 C1793 0.961 . S
H1780 C1794 0.960 . S
H1781 C1794 0.961 . S
H1782 C1794 0.959 . S
H1783 C1797 0.933 1_565 S
H1784 C1798 0.931 . S
H1785 C1800 0.930 . S
C1786 H1774 0.930 . S
C1786 C1787 1.399 1_545 S
C1786 C1791 1.399 . S
C1787 C1786 1.399 1_565 S
C1787 C1788 1.376 . S
C1788 H1775 0.930 . S
C1788 C1787 1.376 . S
C1788 C1789 1.388 . S
C1789 H1776 0.930 . S
C1789 C1788 1.388 . S
C1789 C1790 1.390 1_565 S
C1790 C1789 1.390 1_545 S
C1790 C1791 1.394 . S
C1790 C1796 1.465 . S
C1791 C1786 1.399 . S
C1791 C1790 1.394 . S
C1791 C1792 1.516 . S
C1792 C1791 1.516 . S
C1792 C1793 1.502 . S
C1792 C1794 1.561 . S
C1792 C1795 1.526 . S
C1793 H1777 0.959 . S
C1793 H1778 0.959 . S
C1793 H1779 0.961 . S
C1793 C1792 1.502 . S
C1794 H1780 0.960 . S
C1794 H1781 0.961 . S
C1794 H1782 0.959 . S
C1794 C1792 1.561 . S
C1795 C1792 1.526 . S
C1795 C1796 1.396 . S
C1795 C1800 1.390 . S
C1796 C1790 1.465 . S
C1796 C1795 1.396 . S
C1796 C1797 1.399 . S
C1797 H1783 0.933 1_545 S
C1797 C1796 1.399 . S
C1797 C1798 1.385 . S
C1798 H1784 0.931 . S
C1798 C1797 1.385 . S
C1798 C1799 1.389 . S
C1799 C1798 1.389 . S
C1799 C1800 1.387 . S
C1800 H1785 0.930 . S
C1800 C1795 1.390 . S
C1800 C1799 1.387 . S
H1801 C1813 0.930 . S
H1802 C1815 0.930 . S
H1803 C1816 0.930 . S
H1804 C1820 0.959 . S
H1805 C1820 0.959 . S
H1806 C1820 0.961 . S
H1807 C1821 0.960 . S
H1808 C1821 0.961 . S
H1809 C1821 0.959 . S
H1810 C1824 0.929 . S
H1811 C1825 0.931 . S
H1812 C1827 0.930 . S
C1813 H1801 0.930 . S
C1813 C1814 1.399 . S
C1813 C1818 1.399 . S
C1814 C1813 1.399 . S
C1814 C1815 1.376 . S
C1815 H1802 0.930 . S
C1815 C1814 1.376 . S
C1815 C1816 1.388 . S
C1816 H1803 0.930 . S
C1816 C1815 1.388 . S
C1816 C1817 1.390 . S
C1817 C1816 1.390 . S
C1817 C1818 1.394 . S
C1817 C1823 1.465 . S
C1818 C1813 1.399 . S
C1818 C1817 1.394 . S
C1818 C1819 1.516 . S
C1819 C1818 1.516 . S
C1819 C1820 1.502 . S
C1819 C1821 1.561 . S
C1819 C1822 1.526 . S
C1820 H1804 0.959 . S
C1820 H1805 0.959 . S
C1820 H1806 0.961 . S
C1820 C1819 1.502 . S
C1821 H1807 0.960 . S
C1821 H1808 0.961 . S
C1821 H1809 0.959 . S
C1821 C1819 1.561 . S
C1822 C1819 1.526 . S
C1822 C1823 1.396 . S
C1822 C1827 1.390 . S
C1823 C1817 1.465 . S
C1823 C1822 1.396 . S
C1823 C1824 1.399 . S
C1824 H1810 0.929 . S
C1824 C1823 1.399 . S
C1824 C1825 1.385 . S
C1825 H1811 0.931 . S
C1825 C1824 1.385 . S
C1825 C1826 1.389 . S
C1826 C1825 1.389 . S
C1826 C1827 1.387 . S
C1827 H1812 0.930 . S
C1827 C1822 1.390 . S
C1827 C1826 1.387 . S
H1828 C1840 0.930 . S
H1829 C1842 0.930 . S
H1830 C1843 0.930 . S
H1831 C1847 0.959 . S
H1832 C1847 0.959 . S
H1833 C1847 0.961 . S
H1834 C1848 0.960 1_565 S
H1835 C1848 0.987 . S
H1836 C1848 0.959 . S
H1837 C1851 0.929 . S
H1838 C1852 0.931 . S
H1839 C1854 0.930 . S
C1840 H1828 0.930 . S
C1840 C1841 1.399 . S
C1840 C1845 1.399 . S
C1841 C1840 1.399 . S
C1841 C1842 1.376 . S
C1842 H1829 0.930 . S
C1842 C1841 1.376 . S
C1842 C1843 1.388 . S
C1843 H1830 0.930 . S
C1843 C1842 1.388 . S
C1843 C1844 1.390 . S
C1844 C1843 1.390 . S
C1844 C1845 1.394 . S
C1844 C1850 1.465 . S
C1845 C1840 1.399 . S
C1845 C1844 1.394 . S
C1845 C1846 1.516 . S
C1846 C1845 1.516 . S
C1846 C1847 1.502 . S
C1846 C1848 1.561 . S
C1846 C1849 1.526 . S
C1847 H1831 0.959 . S
C1847 H1832 0.959 . S
C1847 H1833 0.961 . S
C1847 C1846 1.502 . S
C1848 H1834 0.960 1_545 S
C1848 H1835 0.987 . S
C1848 H1836 0.959 . S
C1848 C1846 1.561 . S
C1849 C1846 1.526 . S
C1849 C1850 1.396 . S
C1849 C1854 1.390 . S
C1850 C1844 1.465 . S
C1850 C1849 1.396 . S
C1850 C1851 1.399 . S
C1851 H1837 0.929 . S
C1851 C1850 1.399 . S
C1851 C1852 1.385 1_655 S
C1852 H1838 0.931 . S
C1852 C1851 1.385 1_455 S
C1852 C1853 1.387 1_455 S
C1853 C1852 1.387 1_655 S
C1853 C1854 1.403 . S
C1854 H1839 0.930 . S
C1854 C1849 1.390 . S
C1854 C1853 1.403 . S
H1855 C1867 0.930 . S
H1856 C1869 0.930 . S
H1857 C1870 0.930 . S
H1858 C1874 0.959 . S
H1859 C1874 0.959 . S
H1860 C1874 0.961 . S
H1861 C1875 0.960 . S
H1862 C1875 0.961 . S
H1863 C1875 0.959 . S
H1864 C1878 0.929 . S
H1865 C1879 0.931 . S
H1866 C1881 0.930 . S
C1867 H1855 0.930 . S
C1867 C1868 1.399 . S
C1867 C1872 1.399 . S
C1868 C1867 1.399 . S
C1868 C1869 1.376 . S
C1869 H1856 0.930 . S
C1869 C1868 1.376 . S
C1869 C1870 1.388 . S
C1870 H1857 0.930 . S
C1870 C1869 1.388 . S
C1870 C1871 1.390 . S
C1871 C1870 1.390 . S
C1871 C1872 1.394 . S
C1871 C1877 1.465 . S
C1872 C1867 1.399 . S
C1872 C1871 1.394 . S
C1872 C1873 1.516 . S
C1873 C1872 1.516 . S
C1873 C1874 1.502 . S
C1873 C1875 1.561 . S
C1873 C1876 1.526 . S
C1874 H1858 0.959 . S
C1874 H1859 0.959 . S
C1874 H1860 0.961 . S
C1874 C1873 1.502 . S
C1875 H1861 0.960 . S
C1875 H1862 0.961 . S
C1875 H1863 0.959 . S
C1875 C1873 1.561 . S
C1876 C1873 1.526 . S
C1876 C1877 1.396 . S
C1876 C1881 1.390 . S
C1877 C1871 1.465 . S
C1877 C1876 1.396 . S
C1877 C1878 1.399 . S
C1878 H1864 0.929 . S
C1878 C1877 1.399 . S
C1878 C1879 1.385 . S
C1879 H1865 0.931 . S
C1879 C1878 1.385 . S
C1879 C1880 1.389 . S
C1880 C1879 1.389 . S
C1880 C1881 1.387 . S
C1881 H1866 0.930 . S
C1881 C1876 1.390 . S
C1881 C1880 1.387 . S
H1882 C1894 0.930 1_565 S
H1883 C1896 0.930 . S
H1884 C1897 0.930 . S
H1885 C1901 0.959 . S
H1886 C1901 0.959 . S
H1887 C1901 0.961 1_565 S
H1888 C1902 0.960 . S
H1889 C1902 0.961 . S
H1890 C1902 0.959 . S
H1891 C1905 0.929 . S
H1892 C1906 0.931 . S
H1893 C1908 0.930 . S
C1894 H1882 0.930 1_545 S
C1894 C1895 1.399 . S
C1894 C1899 1.399 . S
C1895 C1894 1.399 . S
C1895 C1896 1.376 . S
C1896 H1883 0.930 . S
C1896 C1895 1.376 . S
C1896 C1897 1.388 . S
C1897 H1884 0.930 . S
C1897 C1896 1.388 . S
C1897 C1898 1.390 . S
C1898 C1897 1.390 . S
C1898 C1899 1.394 . S
C1898 C1904 1.465 . S
C1899 C1894 1.399 . S
C1899 C1898 1.394 . S
C1899 C1900 1.516 . S
C1900 C1899 1.516 . S
C1900 C1901 1.502 . S
C1900 C1902 1.561 . S
C1900 C1903 1.526 . S
C1901 H1885 0.959 . S
C1901 H1886 0.959 . S
C1901 H1887 0.961 1_545 S
C1901 C1900 1.502 . S
C1902 H1888 0.960 . S
C1902 H1889 0.961 . S
C1902 H1890 0.959 . S
C1902 C1900 1.561 . S
C1903 C1900 1.526 . S
C1903 C1904 1.396 . S
C1903 C1908 1.390 . S
C1904 C1898 1.465 . S
C1904 C1903 1.396 . S
C1904 C1905 1.399 . S
C1905 H1891 0.929 . S
C1905 C1904 1.399 . S
C1905 C1906 1.385 . S
C1906 H1892 0.931 . S
C1906 C1905 1.385 . S
C1906 C1907 1.389 . S
C1907 C1906 1.389 . S
C1907 C1908 1.387 . S
C1908 H1893 0.930 . S
C1908 C1903 1.390 . S
C1908 C1907 1.387 . S
H1909 C1921 0.930 . S
H1910 C1923 0.930 . S
H1911 C1924 0.930 . S
H1912 C1928 0.959 . S
H1913 C1928 0.959 . S
H1914 C1928 0.961 . S
H1915 C1929 0.960 . S
H1916 C1929 0.961 . S
H1917 C1929 0.959 . S
H1918 C1932 0.929 . S
H1919 C1933 0.931 . S
H1920 C1935 0.930 . S
C1921 H1909 0.930 . S
C1921 C1922 1.399 . S
C1921 C1926 1.399 . S
C1922 C1921 1.399 . S
C1922 C1923 1.376 . S
C1923 H1910 0.930 . S
C1923 C1922 1.376 . S
C1923 C1924 1.388 . S
C1924 H1911 0.930 . S
C1924 C1923 1.388 . S
C1924 C1925 1.390 . S
C1925 C1924 1.390 . S
C1925 C1926 1.394 . S
C1925 C1931 1.465 . S
C1926 C1921 1.399 . S
C1926 C1925 1.394 . S
C1926 C1927 1.516 . S
C1927 C1926 1.516 . S
C1927 C1928 1.502 . S
C1927 C1929 1.561 . S
C1927 C1930 1.526 . S
C1928 H1912 0.959 . S
C1928 H1913 0.959 . S
C1928 H1914 0.961 . S
C1928 C1927 1.502 . S
C1929 H1915 0.960 . S
C1929 H1916 0.961 . S
C1929 H1917 0.959 . S
C1929 C1927 1.561 . S
C1930 C1927 1.526 . S
C1930 C1931 1.396 . S
C1930 C1935 1.390 . S
C1931 C1925 1.465 . S
C1931 C1930 1.396 . S
C1931 C1932 1.399 . S
C1932 H1918 0.929 . S
C1932 C1931 1.399 . S
C1932 C1933 1.385 . S
C1933 H1919 0.931 . S
C1933 C1932 1.385 . S
C1933 C1934 1.389 . S
C1934 C1933 1.389 . S
C1934 C1935 1.387 . S
C1935 H1920 0.930 . S
C1935 C1930 1.390 . S
C1935 C1934 1.387 . S
H1936 C1948 0.930 . S
H1937 C1950 0.930 . S
H1938 C1951 0.930 . S
H1939 C1955 0.959 . S
H1940 C1955 0.959 . S
H1941 C1955 0.961 . S
H1942 C1956 0.960 . S
H1943 C1956 0.961 . S
H1944 C1956 0.959 . S
H1945 C1959 0.929 . S
H1946 C1960 0.931 . S
H1947 C1962 0.930 . S
C1948 H1936 0.930 . S
C1948 C1949 1.399 . S
C1948 C1953 1.399 . S
C1949 C1948 1.399 . S
C1949 C1950 1.376 . S
C1950 H1937 0.930 . S
C1950 C1949 1.376 . S
C1950 C1951 1.388 1_565 S
C1951 H1938 0.930 . S
C1951 C1950 1.388 1_545 S
C1951 C1952 1.390 1_545 S
C1952 C1951 1.390 1_565 S
C1952 C1953 1.394 . S
C1952 C1958 1.465 1_565 S
C1953 C1948 1.399 . S
C1953 C1952 1.394 . S
C1953 C1954 1.516 . S
C1954 C1953 1.516 . S
C1954 C1955 1.502 . S
C1954 C1956 1.561 . S
C1954 C1957 1.526 . S
C1955 H1939 0.959 . S
C1955 H1940 0.959 . S
C1955 H1941 0.961 . S
C1955 C1954 1.502 . S
C1956 H1942 0.960 . S
C1956 H1943 0.961 . S
C1956 H1944 0.959 . S
C1956 C1954 1.561 . S
C1957 C1954 1.526 . S
C1957 C1958 1.396 1_565 S
C1957 C1962 1.390 . S
C1958 C1952 1.465 1_545 S
C1958 C1957 1.396 1_545 S
C1958 C1959 1.399 . S
C1959 H1945 0.929 . S
C1959 C1958 1.399 . S
C1959 C1960 1.385 . S
C1960 H1946 0.931 . S
C1960 C1959 1.385 . S
C1960 C1961 1.389 . S
C1961 C1960 1.389 . S
C1961 C1962 1.387 1_545 S
C1962 H1947 0.930 . S
C1962 C1957 1.390 . S
C1962 C1961 1.387 1_565 S
H1963 C1975 0.930 . S
H1964 C1977 0.930 . S
H1965 C1978 0.930 . S
H1966 C1982 0.959 . S
H1967 C1982 0.959 . S
H1968 C1982 0.961 . S
H1969 C1983 0.960 . S
H1970 C1983 0.961 . S
H1971 C1983 0.959 . S
H1972 C1986 0.929 . S
H1973 C1987 0.931 . S
H1974 C1989 0.930 . S
C1975 H1963 0.930 . S
C1975 C1976 1.399 . S
C1975 C1980 1.399 . S
C1976 C1975 1.399 . S
C1976 C1977 1.376 1_554 S
C1977 H1964 0.930 . S
C1977 C1976 1.376 1_556 S
C1977 C1978 1.388 . S
C1978 H1965 0.930 . S
C1978 C1977 1.388 . S
C1978 C1979 1.390 1_556 S
C1979 C1978 1.390 1_554 S
C1979 C1980 1.394 . S
C1979 C1985 1.465 . S
C1980 C1975 1.399 . S
C1980 C1979 1.394 . S
C1980 C1981 1.516 . S
C1981 C1980 1.516 . S
C1981 C1982 1.502 . S
C1981 C1983 1.561 . S
C1981 C1984 1.526 . S
C1982 H1966 0.959 . S
C1982 H1967 0.959 . S
C1982 H1968 0.961 . S
C1982 C1981 1.502 . S
C1983 H1969 0.960 . S
C1983 H1970 0.961 . S
C1983 H1971 0.959 . S
C1983 C1981 1.561 . S
C1984 C1981 1.526 . S
C1984 C1985 1.396 . S
C1984 C1989 1.390 . S
C1985 C1979 1.465 . S
C1985 C1984 1.396 . S
C1985 C1986 1.399 1_554 S
C1986 H1972 0.929 . S
C1986 C1985 1.399 1_556 S
C1986 C1987 1.385 . S
C1987 H1973 0.931 . S
C1987 C1986 1.385 . S
C1987 C1988 1.389 1_556 S
C1988 C1987 1.389 1_554 S
C1988 C1989 1.387 . S
C1989 H1974 0.930 . S
C1989 C1984 1.390 . S
C1989 C1988 1.387 . S
H1990 C2002 0.930 . S
H1991 C2004 0.930 . S
H1992 C2005 0.930 . S
H1993 C2009 0.959 . S
H1994 C2009 0.959 . S
H1995 C2009 0.961 . S
H1996 C2010 0.960 . S
H1997 C2010 0.961 . S
H1998 C2010 0.959 . S
H1999 C2013 0.929 . S
H2000 C2014 0.931 . S
H2001 C2016 0.930 . S
C2002 H1990 0.930 . S
C2002 C2003 1.399 . S
C2002 C2007 1.399 . S
C2003 C2002 1.399 . S
C2003 C2004 1.376 . S
C2004 H1991 0.930 . S
C2004 C2003 1.376 . S
C2004 C2005 1.388 . S
C2005 H1992 0.930 . S
C2005 C2004 1.388 . S
C2005 C2006 1.390 . S
C2006 C2005 1.390 . S
C2006 C2007 1.394 . S
C2006 C2012 1.465 . S
C2007 C2002 1.399 . S
C2007 C2006 1.394 . S
C2007 C2008 1.516 . S
C2008 C2007 1.516 . S
C2008 C2009 1.502 . S
C2008 C2010 1.561 . S
C2008 C2011 1.526 . S
C2009 H1993 0.959 . S
C2009 H1994 0.959 . S
C2009 H1995 0.961 . S
C2009 C2008 1.502 . S
C2010 H1996 0.960 . S
C2010 H1997 0.961 . S
C2010 H1998 0.959 . S
C2010 C2008 1.561 . S
C2011 C2008 1.526 . S
C2011 C2012 1.396 . S
C2011 C2016 1.390 . S
C2012 C2006 1.465 . S
C2012 C2011 1.396 . S
C2012 C2013 1.399 . S
C2013 H1999 0.929 . S
C2013 C2012 1.399 . S
C2013 C2014 1.385 . S
C2014 H2000 0.931 . S
C2014 C2013 1.385 . S
C2014 C2015 1.389 . S
C2015 C2014 1.389 . S
C2015 C2016 1.387 . S
C2016 H2001 0.930 . S
C2016 C2011 1.390 . S
C2016 C2015 1.387 . S
H2017 C2029 0.930 . S
H2018 C2031 0.930 . S
H2019 C2032 0.930 . S
H2020 C2036 0.959 . S
H2021 C2036 0.959 . S
H2022 C2036 0.961 . S
H2023 C2037 0.960 . S
H2024 C2037 0.961 . S
H2025 C2037 0.959 . S
H2026 C2040 0.929 . S
H2027 C2041 0.931 . S
H2028 C2043 0.930 . S
C2029 H2017 0.930 . S
C2029 C2030 1.399 . S
C2029 C2034 1.399 . S
C2030 C2029 1.399 . S
C2030 C2031 1.376 . S
C2031 H2018 0.930 . S
C2031 C2030 1.376 . S
C2031 C2032 1.388 . S
C2032 H2019 0.930 . S
C2032 C2031 1.388 . S
C2032 C2033 1.390 . S
C2033 C2032 1.390 . S
C2033 C2034 1.394 . S
C2033 C2039 1.465 . S
C2034 C2029 1.399 . S
C2034 C2033 1.394 . S
C2034 C2035 1.516 . S
C2035 C2034 1.516 . S
C2035 C2036 1.502 . S
C2035 C2037 1.561 . S
C2035 C2038 1.526 . S
C2036 H2020 0.959 . S
C2036 H2021 0.959 . S
C2036 H2022 0.961 . S
C2036 C2035 1.502 . S
C2037 H2023 0.960 . S
C2037 H2024 0.961 . S
C2037 H2025 0.959 . S
C2037 C2035 1.561 . S
C2038 C2035 1.526 . S
C2038 C2039 1.396 . S
C2038 C2043 1.390 . S
C2039 C2033 1.465 . S
C2039 C2038 1.396 . S
C2039 C2040 1.399 . S
C2040 H2026 0.929 . S
C2040 C2039 1.399 . S
C2040 C2041 1.385 . S
C2041 H2027 0.931 . S
C2041 C2040 1.385 . S
C2041 C2042 1.389 . S
C2042 C2041 1.389 . S
C2042 C2043 1.387 . S
C2043 H2028 0.930 . S
C2043 C2038 1.390 . S
C2043 C2042 1.387 . S
H2044 C2056 0.930 . S
H2045 C2058 0.930 . S
H2046 C2059 0.930 . S
H2047 C2063 0.959 . S
H2048 C2063 0.959 . S
H2049 C2063 0.961 . S
H2050 C2064 0.960 . S
H2051 C2064 0.961 . S
H2052 C2064 0.959 . S
H2053 C2067 0.929 . S
H2054 C2068 0.931 . S
H2055 C2070 0.930 . S
C2056 H2044 0.930 . S
C2056 C2057 1.399 . S
C2056 C2061 1.399 . S
C2057 C2056 1.399 . S
C2057 C2058 1.376 . S
C2058 H2045 0.930 . S
C2058 C2057 1.376 . S
C2058 C2059 1.388 . S
C2059 H2046 0.930 . S
C2059 C2058 1.388 . S
C2059 C2060 1.390 . S
C2060 C2059 1.390 . S
C2060 C2061 1.394 . S
C2060 C2066 1.465 . S
C2061 C2056 1.399 . S
C2061 C2060 1.394 . S
C2061 C2062 1.516 . S
C2062 C2061 1.516 . S
C2062 C2063 1.502 . S
C2062 C2064 1.561 . S
C2062 C2065 1.526 . S
C2063 H2047 0.959 . S
C2063 H2048 0.959 . S
C2063 H2049 0.961 . S
C2063 C2062 1.502 . S
C2064 H2050 0.960 . S
C2064 H2051 0.961 . S
C2064 H2052 0.959 . S
C2064 C2062 1.561 . S
C2065 C2062 1.526 . S
C2065 C2066 1.396 . S
C2065 C2070 1.390 . S
C2066 C2060 1.465 . S
C2066 C2065 1.396 . S
C2066 C2067 1.399 . S
C2067 H2053 0.929 . S
C2067 C2066 1.399 . S
C2067 C2068 1.385 . S
C2068 H2054 0.931 . S
C2068 C2067 1.385 . S
C2068 C2069 1.389 . S
C2069 C2068 1.389 . S
C2069 C2070 1.387 . S
C2070 H2055 0.930 . S
C2070 C2065 1.390 . S
C2070 C2069 1.387 . S
H2071 C2083 0.930 . S
H2072 C2085 0.930 . S
H2073 C2086 0.930 . S
H2074 C2090 0.959 . S
H2075 C2090 0.959 . S
H2076 C2090 0.961 . S
H2077 C2091 0.960 . S
H2078 C2091 0.961 . S
H2079 C2091 0.959 . S
H2080 C2094 0.929 . S
H2081 C2095 0.931 . S
H2082 C2097 0.930 . S
C2083 H2071 0.930 . S
C2083 C2084 1.399 . S
C2083 C2088 1.399 . S
C2084 C2083 1.399 . S
C2084 C2085 1.376 . S
C2085 H2072 0.930 . S
C2085 C2084 1.376 . S
C2085 C2086 1.388 . S
C2086 H2073 0.930 . S
C2086 C2085 1.388 . S
C2086 C2087 1.390 . S
C2087 C2086 1.390 . S
C2087 C2088 1.394 . S
C2087 C2093 1.465 . S
C2088 C2083 1.399 . S
C2088 C2087 1.394 . S
C2088 C2089 1.516 . S
C2089 C2088 1.516 . S
C2089 C2090 1.502 . S
C2089 C2091 1.561 . S
C2089 C2092 1.526 . S
C2090 H2074 0.959 . S
C2090 H2075 0.959 . S
C2090 H2076 0.961 . S
C2090 C2089 1.502 . S
C2091 H2077 0.960 . S
C2091 H2078 0.961 . S
C2091 H2079 0.959 . S
C2091 C2089 1.561 . S
C2092 C2089 1.526 . S
C2092 C2093 1.396 . S
C2092 C2097 1.390 . S
C2093 C2087 1.465 . S
C2093 C2092 1.396 . S
C2093 C2094 1.399 . S
C2094 H2080 0.929 . S
C2094 C2093 1.399 . S
C2094 C2095 1.385 . S
C2095 H2081 0.931 . S
C2095 C2094 1.385 . S
C2095 C2096 1.389 . S
C2096 C2095 1.389 . S
C2096 C2097 1.387 . S
C2097 H2082 0.930 . S
C2097 C2092 1.390 . S
C2097 C2096 1.387 . S
H2098 C2110 0.930 . S
H2099 C2112 0.930 . S
H2100 C2113 0.930 . S
H2101 C2117 0.959 . S
H2102 C2117 0.959 . S
H2103 C2117 0.961 . S
H2104 C2118 0.960 . S
H2105 C2118 0.961 . S
H2106 C2118 0.959 . S
H2107 C2121 0.929 . S
H2108 C2122 0.931 . S
H2109 C2124 0.930 . S
C2110 H2098 0.930 . S
C2110 C2111 1.399 . S
C2110 C2115 1.399 . S
C2111 C2110 1.399 . S
C2111 C2112 1.376 . S
C2112 H2099 0.930 . S
C2112 C2111 1.376 . S
C2112 C2113 1.388 . S
C2113 H2100 0.930 . S
C2113 C2112 1.388 . S
C2113 C2114 1.390 . S
C2114 C2113 1.390 . S
C2114 C2115 1.394 . S
C2114 C2120 1.465 . S
C2115 C2110 1.399 . S
C2115 C2114 1.394 . S
C2115 C2116 1.516 . S
C2116 C2115 1.516 . S
C2116 C2117 1.502 . S
C2116 C2118 1.561 . S
C2116 C2119 1.526 . S
C2117 H2101 0.959 . S
C2117 H2102 0.959 . S
C2117 H2103 0.961 . S
C2117 C2116 1.502 . S
C2118 H2104 0.960 . S
C2118 H2105 0.961 . S
C2118 H2106 0.959 . S
C2118 C2116 1.561 . S
C2119 C2116 1.526 . S
C2119 C2120 1.396 . S
C2119 C2124 1.390 . S
C2120 C2114 1.465 . S
C2120 C2119 1.396 . S
C2120 C2121 1.399 . S
C2121 H2107 0.929 . S
C2121 C2120 1.399 . S
C2121 C2122 1.385 . S
C2122 H2108 0.931 . S
C2122 C2121 1.385 . S
C2122 C2123 1.389 . S
C2123 C2122 1.389 . S
C2123 C2124 1.387 . S
C2124 H2109 0.930 . S
C2124 C2119 1.390 . S
C2124 C2123 1.387 . S
H2125 C2137 0.930 . S
H2126 C2139 0.930 . S
H2127 C2140 0.930 . S
H2128 C2144 0.959 . S
H2129 C2144 0.959 . S
H2130 C2144 0.961 . S
H2131 C2145 0.960 . S
H2132 C2145 0.961 . S
H2133 C2145 0.959 . S
H2134 C2148 0.929 . S
H2135 C2149 0.931 . S
H2136 C2151 0.930 . S
C2137 H2125 0.930 . S
C2137 C2138 1.399 . S
C2137 C2142 1.399 . S
C2138 C2137 1.399 . S
C2138 C2139 1.376 . S
C2139 H2126 0.930 . S
C2139 C2138 1.376 . S
C2139 C2140 1.388 . S
C2140 H2127 0.930 . S
C2140 C2139 1.388 . S
C2140 C2141 1.390 . S
C2141 C2140 1.390 . S
C2141 C2142 1.394 . S
C2141 C2147 1.465 . S
C2142 C2137 1.399 . S
C2142 C2141 1.394 . S
C2142 C2143 1.516 . S
C2143 C2142 1.516 . S
C2143 C2144 1.502 . S
C2143 C2145 1.561 . S
C2143 C2146 1.526 . S
C2144 H2128 0.959 . S
C2144 H2129 0.959 . S
C2144 H2130 0.961 . S
C2144 C2143 1.502 . S
C2145 H2131 0.960 . S
C2145 H2132 0.961 . S
C2145 H2133 0.959 . S
C2145 C2143 1.561 . S
C2146 C2143 1.526 . S
C2146 C2147 1.396 . S
C2146 C2151 1.390 . S
C2147 C2141 1.465 . S
C2147 C2146 1.396 . S
C2147 C2148 1.399 . S
C2148 H2134 0.929 . S
C2148 C2147 1.399 . S
C2148 C2149 1.385 . S
C2149 H2135 0.931 . S
C2149 C2148 1.385 . S
C2149 C2150 1.389 . S
C2150 C2149 1.389 . S
C2150 C2151 1.387 . S
C2151 H2136 0.930 . S
C2151 C2146 1.390 . S
C2151 C2150 1.387 . S
H2152 C2164 0.930 . S
H2153 C2166 0.930 . S
H2154 C2167 0.930 . S
H2155 C2171 0.959 . S
H2156 C2171 0.959 . S
H2157 C2171 0.961 . S
H2158 C2172 0.960 . S
H2159 C2172 0.961 . S
H2160 C2172 0.959 . S
H2161 C2175 0.929 . S
H2162 C2176 0.931 1_545 S
H2163 C2178 0.930 . S
C2164 H2152 0.930 . S
C2164 C2165 1.399 . S
C2164 C2169 1.399 . S
C2165 C2164 1.399 . S
C2165 C2166 1.376 . S
C2166 H2153 0.930 . S
C2166 C2165 1.376 . S
C2166 C2167 1.388 . S
C2167 H2154 0.930 . S
C2167 C2166 1.388 . S
C2167 C2168 1.390 . S
C2168 C2167 1.390 . S
C2168 C2169 1.394 . S
C2168 C2174 1.465 . S
C2169 C2164 1.399 . S
C2169 C2168 1.394 . S
C2169 C2170 1.516 . S
C2170 C2169 1.516 . S
C2170 C2171 1.502 . S
C2170 C2172 1.561 . S
C2170 C2173 1.526 . S
C2171 H2155 0.959 . S
C2171 H2156 0.959 . S
C2171 H2157 0.961 . S
C2171 C2170 1.502 . S
C2172 H2158 0.960 . S
C2172 H2159 0.961 . S
C2172 H2160 0.959 . S
C2172 C2170 1.561 . S
C2173 C2170 1.526 . S
C2173 C2174 1.396 . S
C2173 C2178 1.390 . S
C2174 C2168 1.465 . S
C2174 C2173 1.396 . S
C2174 C2175 1.399 . S
C2175 H2161 0.929 . S
C2175 C2174 1.399 . S
C2175 C2176 1.385 . S
C2176 H2162 0.931 1_565 S
C2176 C2175 1.385 . S
C2176 C2177 1.389 . S
C2177 C2176 1.389 . S
C2177 C2178 1.387 . S
C2178 H2163 0.930 . S
C2178 C2173 1.390 . S
C2178 C2177 1.387 . S
H2179 C2191 0.930 . S
H2180 C2193 0.930 . S
H2181 C2194 0.930 . S
H2182 C2198 0.959 . S
H2183 C2198 0.959 . S
H2184 C2198 0.961 . S
H2185 C2199 0.960 . S
H2186 C2199 0.961 . S
H2187 C2199 0.959 . S
H2188 C2202 0.929 . S
H2189 C2203 0.931 . S
H2190 C2205 0.930 . S
C2191 H2179 0.930 . S
C2191 C2192 1.399 . S
C2191 C2196 1.399 . S
C2192 C2191 1.399 . S
C2192 C2193 1.376 . S
C2193 H2180 0.930 . S
C2193 C2192 1.376 . S
C2193 C2194 1.388 . S
C2194 H2181 0.930 . S
C2194 C2193 1.388 . S
C2194 C2195 1.390 . S
C2195 C2194 1.390 . S
C2195 C2196 1.394 . S
C2195 C2201 1.465 . S
C2196 C2191 1.399 . S
C2196 C2195 1.394 . S
C2196 C2197 1.516 . S
C2197 C2196 1.516 . S
C2197 C2198 1.502 . S
C2197 C2199 1.561 . S
C2197 C2200 1.526 . S
C2198 H2182 0.959 . S
C2198 H2183 0.959 . S
C2198 H2184 0.961 . S
C2198 C2197 1.502 . S
C2199 H2185 0.960 . S
C2199 H2186 0.961 . S
C2199 H2187 0.959 . S
C2199 C2197 1.561 . S
C2200 C2197 1.526 . S
C2200 C2201 1.396 . S
C2200 C2205 1.390 . S
C2201 C2195 1.465 . S
C2201 C2200 1.396 . S
C2201 C2202 1.399 . S
C2202 H2188 0.929 . S
C2202 C2201 1.399 . S
C2202 C2203 1.385 . S
C2203 H2189 0.931 . S
C2203 C2202 1.385 . S
C2203 C2204 1.389 . S
C2204 C2203 1.389 . S
C2204 C2205 1.387 . S
C2205 H2190 0.930 . S
C2205 C2200 1.390 . S
C2205 C2204 1.387 . S
H2206 C2218 0.930 . S
H2207 C2220 0.930 . S
H2208 C2221 0.930 . S
H2209 C2225 0.959 . S
H2210 C2225 0.959 . S
H2211 C2225 0.961 . S
H2212 C2226 0.960 . S
H2213 C2226 0.961 . S
H2214 C2226 0.959 . S
H2215 C2229 0.929 . S
H2216 C2230 0.931 . S
H2217 C2232 0.930 . S
C2218 H2206 0.930 . S
C2218 C2219 1.399 . S
C2218 C2223 1.399 . S
C2219 C2218 1.399 . S
C2219 C2220 1.376 . S
C2220 H2207 0.930 . S
C2220 C2219 1.376 . S
C2220 C2221 1.388 . S
C2221 H2208 0.930 . S
C2221 C2220 1.388 . S
C2221 C2222 1.390 . S
C2222 C2221 1.390 . S
C2222 C2223 1.394 . S
C2222 C2228 1.465 . S
C2223 C2218 1.399 . S
C2223 C2222 1.394 . S
C2223 C2224 1.516 . S
C2224 C2223 1.516 . S
C2224 C2225 1.502 . S
C2224 C2226 1.561 . S
C2224 C2227 1.526 . S
C2225 H2209 0.959 . S
C2225 H2210 0.959 . S
C2225 H2211 0.961 . S
C2225 C2224 1.502 . S
C2226 H2212 0.960 . S
C2226 H2213 0.961 . S
C2226 H2214 0.959 . S
C2226 C2224 1.561 . S
C2227 C2224 1.526 . S
C2227 C2228 1.396 . S
C2227 C2232 1.390 . S
C2228 C2222 1.465 . S
C2228 C2227 1.396 . S
C2228 C2229 1.399 . S
C2229 H2215 0.929 . S
C2229 C2228 1.399 . S
C2229 C2230 1.385 . S
C2230 H2216 0.931 . S
C2230 C2229 1.385 . S
C2230 C2231 1.389 . S
C2231 C2230 1.389 . S
C2231 C2232 1.387 . S
C2232 H2217 0.930 . S
C2232 C2227 1.390 . S
C2232 C2231 1.387 . S
H2233 C2245 0.930 . S
H2234 C2247 0.930 . S
H2235 C2248 0.930 . S
H2236 C2252 0.959 . S
H2237 C2252 0.959 . S
H2238 C2252 0.961 . S
H2239 C2253 0.960 . S
H2240 C2253 0.961 . S
H2241 C2253 0.959 . S
H2242 C2256 0.929 . S
H2243 C2257 0.931 . S
H2244 C2259 0.930 . S
C2245 H2233 0.930 . S
C2245 C2246 1.399 . S
C2245 C2250 1.399 . S
C2246 C2245 1.399 . S
C2246 C2247 1.376 . S
C2247 H2234 0.930 . S
C2247 C2246 1.376 . S
C2247 C2248 1.388 . S
C2248 H2235 0.930 . S
C2248 C2247 1.388 . S
C2248 C2249 1.390 . S
C2249 C2248 1.390 . S
C2249 C2250 1.394 . S
C2249 C2255 1.465 . S
C2250 C2245 1.399 . S
C2250 C2249 1.394 . S
C2250 C2251 1.516 . S
C2251 C2250 1.516 . S
C2251 C2252 1.502 . S
C2251 C2253 1.561 . S
C2251 C2254 1.526 . S
C2252 H2236 0.959 . S
C2252 H2237 0.959 . S
C2252 H2238 0.961 . S
C2252 C2251 1.502 . S
C2253 H2239 0.960 . S
C2253 H2240 0.961 . S
C2253 H2241 0.959 . S
C2253 C2251 1.561 . S
C2254 C2251 1.526 . S
C2254 C2255 1.396 . S
C2254 C2259 1.390 . S
C2255 C2249 1.465 . S
C2255 C2254 1.396 . S
C2255 C2256 1.399 . S
C2256 H2242 0.929 . S
C2256 C2255 1.399 . S
C2256 C2257 1.385 . S
C2257 H2243 0.931 . S
C2257 C2256 1.385 . S
C2257 C2258 1.389 . S
C2258 C2257 1.389 . S
C2258 C2259 1.387 . S
C2259 H2244 0.930 . S
C2259 C2254 1.390 . S
C2259 C2258 1.387 . S
H2260 C2272 0.930 . S
H2261 C2274 0.930 . S
H2262 C2275 0.930 . S
H2263 C2279 0.959 . S
H2264 C2279 0.959 . S
H2265 C2279 0.961 . S
H2266 C2280 0.960 . S
H2267 C2280 0.961 . S
H2268 C2280 0.959 . S
H2269 C2283 0.929 . S
H2270 C2284 0.931 1_655 S
H2271 C2286 0.930 . S
C2272 H2260 0.930 . S
C2272 C2273 1.399 . S
C2272 C2277 1.399 . S
C2273 C2272 1.399 . S
C2273 C2274 1.376 1_455 S
C2274 H2261 0.930 . S
C2274 C2273 1.376 1_655 S
C2274 C2275 1.388 . S
C2275 H2262 0.930 . S
C2275 C2274 1.388 . S
C2275 C2276 1.390 1_655 S
C2276 C2275 1.390 1_455 S
C2276 C2277 1.394 . S
C2276 C2282 1.465 . S
C2277 C2272 1.399 . S
C2277 C2276 1.394 . S
C2277 C2278 1.516 . S
C2278 C2277 1.516 . S
C2278 C2279 1.502 . S
C2278 C2280 1.561 . S
C2278 C2281 1.526 . S
C2279 H2263 0.959 . S
C2279 H2264 0.959 . S
C2279 H2265 0.961 . S
C2279 C2278 1.502 . S
C2280 H2266 0.960 . S
C2280 H2267 0.961 . S
C2280 H2268 0.959 . S
C2280 C2278 1.561 . S
C2281 C2278 1.526 . S
C2281 C2282 1.396 . S
C2281 C2286 1.390 . S
C2282 C2276 1.465 . S
C2282 C2281 1.396 . S
C2282 C2283 1.399 1_455 S
C2283 H2269 0.929 . S
C2283 C2282 1.399 1_655 S
C2283 C2284 1.385 1_655 S
C2284 H2270 0.931 1_455 S
C2284 C2283 1.385 1_455 S
C2284 C2285 1.389 . S
C2285 C2284 1.389 . S
C2285 C2286 1.387 . S
C2286 H2271 0.930 . S
C2286 C2281 1.390 . S
C2286 C2285 1.387 . S
H2287 C2299 0.930 . S
H2288 C2301 0.930 . S
H2289 C2302 0.930 . S
H2290 C2306 0.959 . S
H2291 C2306 0.959 . S
H2292 C2306 0.961 . S
H2293 C2307 0.960 . S
H2294 C2307 0.961 . S
H2295 C2307 0.959 . S
H2296 C2310 0.929 . S
H2297 C2311 0.931 . S
H2298 C2313 0.930 . S
C2299 H2287 0.930 . S
C2299 C2300 1.399 . S
C2299 C2304 1.399 . S
C2300 C2299 1.399 . S
C2300 C2301 1.376 . S
C2301 H2288 0.930 . S
C2301 C2300 1.376 . S
C2301 C2302 1.388 . S
C2302 H2289 0.930 . S
C2302 C2301 1.388 . S
C2302 C2303 1.390 . S
C2303 C2302 1.390 . S
C2303 C2304 1.394 . S
C2303 C2309 1.465 . S
C2304 C2299 1.399 . S
C2304 C2303 1.394 . S
C2304 C2305 1.516 . S
C2305 C2304 1.516 . S
C2305 C2306 1.502 . S
C2305 C2307 1.561 . S
C2305 C2308 1.526 . S
C2306 H2290 0.959 . S
C2306 H2291 0.959 . S
C2306 H2292 0.961 . S
C2306 C2305 1.502 . S
C2307 H2293 0.960 . S
C2307 H2294 0.961 . S
C2307 H2295 0.959 . S
C2307 C2305 1.561 . S
C2308 C2305 1.526 . S
C2308 C2309 1.396 . S
C2308 C2313 1.390 . S
C2309 C2303 1.465 . S
C2309 C2308 1.396 . S
C2309 C2310 1.399 . S
C2310 H2296 0.929 . S
C2310 C2309 1.399 . S
C2310 C2311 1.385 . S
C2311 H2297 0.931 . S
C2311 C2310 1.385 . S
C2311 C2312 1.389 . S
C2312 C2311 1.389 . S
C2312 C2313 1.387 . S
C2313 H2298 0.930 . S
C2313 C2308 1.390 . S
C2313 C2312 1.387 . S
H2314 C2326 0.930 . S
H2315 C2328 0.930 . S
H2316 C2329 0.930 . S
H2317 C2333 0.959 . S
H2318 C2333 0.969 . S
H2319 C2333 0.961 . S
H2320 C2334 0.960 . S
H2321 C2334 0.961 . S
H2322 C2334 0.959 . S
H2323 C2337 0.929 . S
H2324 C2338 0.931 . S
H2325 C2340 0.930 . S
C2326 H2314 0.930 . S
C2326 C2327 1.399 . S
C2326 C2331 1.399 . S
C2327 C2326 1.399 . S
C2327 C2328 1.376 . S
C2328 H2315 0.930 . S
C2328 C2327 1.376 . S
C2328 C2329 1.388 . S
C2329 H2316 0.930 . S
C2329 C2328 1.388 . S
C2329 C2330 1.390 . S
C2330 C2329 1.390 . S
C2330 C2331 1.394 . S
C2330 C2336 1.465 . S
C2331 C2326 1.399 . S
C2331 C2330 1.394 . S
C2331 C2332 1.516 . S
C2332 C2331 1.516 . S
C2332 C2333 1.502 . S
C2332 C2334 1.561 1_556 S
C2332 C2335 1.526 . S
C2333 H2317 0.959 . S
C2333 H2318 0.969 . S
C2333 H2319 0.961 . S
C2333 C2332 1.502 . S
C2334 H2320 0.960 . S
C2334 H2321 0.961 . S
C2334 H2322 0.959 . S
C2334 C2332 1.561 1_554 S
C2335 C2332 1.526 . S
C2335 C2336 1.396 . S
C2335 C2340 1.390 1_556 S
C2336 C2330 1.465 . S
C2336 C2335 1.396 . S
C2336 C2337 1.399 . S
C2337 H2323 0.929 . S
C2337 C2336 1.399 . S
C2337 C2338 1.385 1_565 S
C2338 H2324 0.931 . S
C2338 C2337 1.385 1_545 S
C2338 C2339 1.389 1_556 S
C2339 C2338 1.389 1_554 S
C2339 C2340 1.387 1_545 S
C2340 H2325 0.930 . S
C2340 C2335 1.390 1_554 S
C2340 C2339 1.387 1_565 S
H2341 C2353 0.930 . S
H2342 C2355 0.930 . S
H2343 C2356 0.934 . S
H2344 C2360 0.959 . S
H2345 C2360 0.952 1_655 S
H2346 C2360 0.961 . S
H2347 C2361 0.960 . S
H2348 C2361 0.961 . S
H2349 C2361 0.959 . S
H2350 C2364 0.929 . S
H2351 C2365 0.931 . S
H2352 C2367 0.930 . S
C2353 H2341 0.930 . S
C2353 C2354 1.399 . S
C2353 C2358 1.399 . S
C2354 C2353 1.399 . S
C2354 C2355 1.376 . S
C2355 H2342 0.930 . S
C2355 C2354 1.376 . S
C2355 C2356 1.388 . S
C2356 H2343 0.934 . S
C2356 C2355 1.388 . S
C2356 C2357 1.390 1_455 S
C2357 C2356 1.390 1_655 S
C2357 C2358 1.394 1_655 S
C2357 C2363 1.465 . S
C2358 C2353 1.399 . S
C2358 C2357 1.394 1_455 S
C2358 C2359 1.516 1_455 S
C2359 C2358 1.516 1_655 S
C2359 C2360 1.502 1_655 S
C2359 C2361 1.561 . S
C2359 C2362 1.526 . S
C2360 H2344 0.959 . S
C2360 H2345 0.952 1_455 S
C2360 H2346 0.961 . S
C2360 C2359 1.502 1_455 S
C2361 H2347 0.960 . S
C2361 H2348 0.961 . S
C2361 H2349 0.959 . S
C2361 C2359 1.561 . S
C2362 C2359 1.526 . S
C2362 C2363 1.396 . S
C2362 C2367 1.390 . S
C2363 C2357 1.465 . S
C2363 C2362 1.396 . S
C2363 C2364 1.399 . S
C2364 H2350 0.929 . S
C2364 C2363 1.399 . S
C2364 C2365 1.385 . S
C2365 H2351 0.931 . S
C2365 C2364 1.385 . S
C2365 C2366 1.389 . S
C2366 C2365 1.389 . S
C2366 C2367 1.387 . S
C2367 H2352 0.930 . S
C2367 C2362 1.390 . S
C2367 C2366 1.387 . S
H2368 C2380 0.930 . S
H2369 C2382 0.930 . S
H2370 C2383 0.930 . S
H2371 C2387 0.959 . S
H2372 C2387 0.959 . S
H2373 C2387 0.961 . S
H2374 C2388 0.960 . S
H2375 C2388 0.961 . S
H2376 C2388 0.959 . S
H2377 C2391 0.929 . S
H2378 C2392 0.931 . S
H2379 C2394 0.930 . S
C2380 H2368 0.930 . S
C2380 C2381 1.399 . S
C2380 C2385 1.399 . S
C2381 C2380 1.399 . S
C2381 C2382 1.376 . S
C2382 H2369 0.930 . S
C2382 C2381 1.376 . S
C2382 C2383 1.388 . S
C2383 H2370 0.930 . S
C2383 C2382 1.388 . S
C2383 C2384 1.390 . S
C2384 C2383 1.390 . S
C2384 C2385 1.394 . S
C2384 C2390 1.465 . S
C2385 C2380 1.399 . S
C2385 C2384 1.394 . S
C2385 C2386 1.516 . S
C2386 C2385 1.516 . S
C2386 C2387 1.502 . S
C2386 C2388 1.561 . S
C2386 C2389 1.526 . S
C2387 H2371 0.959 . S
C2387 H2372 0.959 . S
C2387 H2373 0.961 . S
C2387 C2386 1.502 . S
C2388 H2374 0.960 . S
C2388 H2375 0.961 . S
C2388 H2376 0.959 . S
C2388 C2386 1.561 . S
C2389 C2386 1.526 . S
C2389 C2390 1.396 . S
C2389 C2394 1.390 . S
C2390 C2384 1.465 . S
C2390 C2389 1.396 . S
C2390 C2391 1.399 . S
C2391 H2377 0.929 . S
C2391 C2390 1.399 . S
C2391 C2392 1.385 . S
C2392 H2378 0.931 . S
C2392 C2391 1.385 . S
C2392 C2393 1.389 . S
C2393 C2392 1.389 . S
C2393 C2394 1.387 . S
C2394 H2379 0.930 . S
C2394 C2389 1.390 . S
C2394 C2393 1.387 . S
H2395 C2407 0.930 . S
H2396 C2409 0.930 . S
H2397 C2410 0.930 . S
H2398 C2414 0.959 . S
H2399 C2414 0.959 . S
H2400 C2414 0.961 . S
H2401 C2415 0.960 . S
H2402 C2415 0.961 . S
H2403 C2415 0.959 . S
H2404 C2418 0.929 . S
H2405 C2419 0.931 . S
H2406 C2421 0.930 . S
C2407 H2395 0.930 . S
C2407 C2408 1.399 . S
C2407 C2412 1.399 . S
C2408 C2407 1.399 . S
C2408 C2409 1.376 . S
C2409 H2396 0.930 . S
C2409 C2408 1.376 . S
C2409 C2410 1.388 . S
C2410 H2397 0.930 . S
C2410 C2409 1.388 . S
C2410 C2411 1.390 . S
C2411 C2410 1.390 . S
C2411 C2412 1.394 . S
C2411 C2417 1.465 . S
C2412 C2407 1.399 . S
C2412 C2411 1.394 . S
C2412 C2413 1.516 . S
C2413 C2412 1.516 . S
C2413 C2414 1.502 . S
C2413 C2415 1.561 . S
C2413 C2416 1.526 . S
C2414 H2398 0.959 . S
C2414 H2399 0.959 . S
C2414 H2400 0.961 . S
C2414 C2413 1.502 . S
C2415 H2401 0.960 . S
C2415 H2402 0.961 . S
C2415 H2403 0.959 . S
C2415 C2413 1.561 . S
C2416 C2413 1.526 . S
C2416 C2417 1.396 . S
C2416 C2421 1.390 . S
C2417 C2411 1.465 . S
C2417 C2416 1.396 . S
C2417 C2418 1.399 . S
C2418 H2404 0.929 . S
C2418 C2417 1.399 . S
C2418 C2419 1.385 . S
C2419 H2405 0.931 . S
C2419 C2418 1.385 . S
C2419 C2420 1.389 . S
C2420 C2419 1.389 . S
C2420 C2421 1.387 . S
C2421 H2406 0.930 . S
C2421 C2416 1.390 . S
C2421 C2420 1.387 . S
H2422 C2434 0.930 . S
H2423 C2436 0.930 . S
H2424 C2437 0.930 . S
H2425 C2441 0.959 . S
H2426 C2441 0.959 . S
H2427 C2441 0.961 . S
H2428 C2442 0.960 . S
H2429 C2442 0.961 . S
H2430 C2442 0.959 . S
H2431 C2445 0.929 . S
H2432 C2446 0.931 . S
H2433 C2448 0.930 . S
C2434 H2422 0.930 . S
C2434 C2435 1.399 . S
C2434 C2439 1.399 . S
C2435 C2434 1.399 . S
C2435 C2436 1.376 . S
C2436 H2423 0.930 . S
C2436 C2435 1.376 . S
C2436 C2437 1.388 . S
C2437 H2424 0.930 . S
C2437 C2436 1.388 . S
C2437 C2438 1.390 . S
C2438 C2437 1.390 . S
C2438 C2439 1.394 . S
C2438 C2444 1.465 . S
C2439 C2434 1.399 . S
C2439 C2438 1.394 . S
C2439 C2440 1.516 . S
C2440 C2439 1.516 . S
C2440 C2441 1.502 . S
C2440 C2442 1.561 . S
C2440 C2443 1.526 . S
C2441 H2425 0.959 . S
C2441 H2426 0.959 . S
C2441 H2427 0.961 . S
C2441 C2440 1.502 . S
C2442 H2428 0.960 . S
C2442 H2429 0.961 . S
C2442 H2430 0.959 . S
C2442 C2440 1.561 . S
C2443 C2440 1.526 . S
C2443 C2444 1.396 . S
C2443 C2448 1.390 . S
C2444 C2438 1.465 . S
C2444 C2443 1.396 . S
C2444 C2445 1.399 . S
C2445 H2431 0.929 . S
C2445 C2444 1.399 . S
C2445 C2446 1.385 . S
C2446 H2432 0.931 . S
C2446 C2445 1.385 . S
C2446 C2447 1.389 . S
C2447 C2446 1.389 . S
C2447 C2448 1.387 . S
C2448 H2433 0.930 . S
C2448 C2443 1.390 . S
C2448 C2447 1.387 . S
H2449 C2461 0.930 . S
H2450 C2463 0.930 . S
H2451 C2464 0.930 . S
H2452 C2468 0.959 . S
H2453 C2468 0.959 . S
H2454 C2468 0.961 . S
H2455 C2469 0.960 . S
H2456 C2469 0.961 . S
H2457 C2469 0.959 . S
H2458 C2472 0.929 . S
H2459 C2473 0.931 . S
H2460 C2475 0.930 . S
C2461 H2449 0.930 . S
C2461 C2462 1.399 . S
C2461 C2466 1.399 . S
C2462 C2461 1.399 . S
C2462 C2463 1.376 . S
C2463 H2450 0.930 . S
C2463 C2462 1.376 . S
C2463 C2464 1.388 . S
C2464 H2451 0.930 . S
C2464 C2463 1.388 . S
C2464 C2465 1.390 . S
C2465 C2464 1.390 . S
C2465 C2466 1.394 . S
C2465 C2471 1.465 . S
C2466 C2461 1.399 . S
C2466 C2465 1.394 . S
C2466 C2467 1.516 . S
C2467 C2466 1.516 . S
C2467 C2468 1.502 . S
C2467 C2469 1.561 . S
C2467 C2470 1.526 . S
C2468 H2452 0.959 . S
C2468 H2453 0.959 . S
C2468 H2454 0.961 . S
C2468 C2467 1.502 . S
C2469 H2455 0.960 . S
C2469 H2456 0.961 . S
C2469 H2457 0.959 . S
C2469 C2467 1.561 . S
C2470 C2467 1.526 . S
C2470 C2471 1.396 . S
C2470 C2475 1.390 . S
C2471 C2465 1.465 . S
C2471 C2470 1.396 . S
C2471 C2472 1.399 . S
C2472 H2458 0.929 . S
C2472 C2471 1.399 . S
C2472 C2473 1.385 . S
C2473 H2459 0.931 . S
C2473 C2472 1.385 . S
C2473 C2474 1.389 . S
C2474 C2473 1.389 . S
C2474 C2475 1.387 . S
C2475 H2460 0.930 . S
C2475 C2470 1.390 . S
C2475 C2474 1.387 . S
H2476 C2488 0.930 . S
H2477 C2490 0.930 . S
H2478 C2491 0.930 . S
H2479 C2495 0.959 . S
H2480 C2495 0.959 . S
H2481 C2495 0.961 . S
H2482 C2496 0.960 . S
H2483 C2496 0.961 . S
H2484 C2496 0.959 . S
H2485 C2499 0.929 . S
H2486 C2500 0.931 . S
H2487 C2502 0.930 . S
C2488 H2476 0.930 . S
C2488 C2489 1.399 . S
C2488 C2493 1.399 . S
C2489 C2488 1.399 . S
C2489 C2490 1.376 . S
C2490 H2477 0.930 . S
C2490 C2489 1.376 . S
C2490 C2491 1.388 . S
C2491 H2478 0.930 . S
C2491 C2490 1.388 . S
C2491 C2492 1.390 . S
C2492 C2491 1.390 . S
C2492 C2493 1.394 . S
C2492 C2498 1.465 . S
C2493 C2488 1.399 . S
C2493 C2492 1.394 . S
C2493 C2494 1.516 . S
C2494 C2493 1.516 . S
C2494 C2495 1.502 . S
C2494 C2496 1.561 . S
C2494 C2497 1.526 . S
C2495 H2479 0.959 . S
C2495 H2480 0.959 . S
C2495 H2481 0.961 . S
C2495 C2494 1.502 . S
C2496 H2482 0.960 . S
C2496 H2483 0.961 . S
C2496 H2484 0.959 . S
C2496 C2494 1.561 . S
C2497 C2494 1.526 . S
C2497 C2498 1.396 . S
C2497 C2502 1.390 . S
C2498 C2492 1.465 . S
C2498 C2497 1.396 . S
C2498 C2499 1.399 . S
C2499 H2485 0.929 . S
C2499 C2498 1.399 . S
C2499 C2500 1.385 . S
C2500 H2486 0.931 . S
C2500 C2499 1.385 . S
C2500 C2501 1.389 . S
C2501 C2500 1.389 . S
C2501 C2502 1.387 . S
C2502 H2487 0.930 . S
C2502 C2497 1.390 . S
C2502 C2501 1.387 . S
H2503 C2515 0.930 . S
H2504 C2517 0.930 . S
H2505 C2518 0.930 . S
H2506 C2522 0.959 . S
H2507 C2522 0.959 . S
H2508 C2522 0.961 . S
H2509 C2523 0.960 . S
H2510 C2523 0.961 . S
H2511 C2523 0.959 . S
H2512 C2526 0.929 . S
H2513 C2527 0.931 . S
H2514 C2529 0.930 . S
C2515 H2503 0.930 . S
C2515 C2516 1.399 . S
C2515 C2520 1.399 . S
C2516 C2515 1.399 . S
C2516 C2517 1.376 . S
C2517 H2504 0.930 . S
C2517 C2516 1.376 . S
C2517 C2518 1.388 . S
C2518 H2505 0.930 . S
C2518 C2517 1.388 . S
C2518 C2519 1.390 . S
C2519 C2518 1.390 . S
C2519 C2520 1.394 . S
C2519 C2525 1.465 . S
C2520 C2515 1.399 . S
C2520 C2519 1.394 . S
C2520 C2521 1.516 . S
C2521 C2520 1.516 . S
C2521 C2522 1.502 . S
C2521 C2523 1.561 . S
C2521 C2524 1.526 . S
C2522 H2506 0.959 . S
C2522 H2507 0.959 . S
C2522 H2508 0.961 . S
C2522 C2521 1.502 . S
C2523 H2509 0.960 . S
C2523 H2510 0.961 . S
C2523 H2511 0.959 . S
C2523 C2521 1.561 . S
C2524 C2521 1.526 . S
C2524 C2525 1.396 . S
C2524 C2529 1.390 . S
C2525 C2519 1.465 . S
C2525 C2524 1.396 . S
C2525 C2526 1.399 . S
C2526 H2512 0.929 . S
C2526 C2525 1.399 . S
C2526 C2527 1.385 . S
C2527 H2513 0.931 . S
C2527 C2526 1.385 . S
C2527 C2528 1.389 . S
C2528 C2527 1.389 . S
C2528 C2529 1.387 . S
C2529 H2514 0.930 . S
C2529 C2524 1.390 . S
C2529 C2528 1.387 . S
H2530 C2542 0.930 . S
H2531 C2544 0.930 . S
H2532 C2545 0.930 . S
H2533 C2549 0.959 . S
H2534 C2549 0.959 . S
H2535 C2549 0.961 . S
H2536 C2550 0.960 . S
H2537 C2550 0.961 . S
H2538 C2550 0.959 . S
H2539 C2553 0.929 . S
H2540 C2554 0.931 . S
H2541 C2556 0.930 . S
C2542 H2530 0.930 . S
C2542 C2543 1.399 . S
C2542 C2547 1.399 . S
C2543 C2542 1.399 . S
C2543 C2544 1.376 . S
C2544 H2531 0.930 . S
C2544 C2543 1.376 . S
C2544 C2545 1.388 . S
C2545 H2532 0.930 . S
C2545 C2544 1.388 . S
C2545 C2546 1.390 . S
C2546 C2545 1.390 . S
C2546 C2547 1.394 . S
C2546 C2552 1.465 . S
C2547 C2542 1.399 . S
C2547 C2546 1.394 . S
C2547 C2548 1.516 . S
C2548 C2547 1.516 . S
C2548 C2549 1.502 . S
C2548 C2550 1.561 . S
C2548 C2551 1.526 . S
C2549 H2533 0.959 . S
C2549 H2534 0.959 . S
C2549 H2535 0.961 . S
C2549 C2548 1.502 . S
C2550 H2536 0.960 . S
C2550 H2537 0.961 . S
C2550 H2538 0.959 . S
C2550 C2548 1.561 . S
C2551 C2548 1.526 . S
C2551 C2552 1.396 . S
C2551 C2556 1.390 . S
C2552 C2546 1.465 . S
C2552 C2551 1.396 . S
C2552 C2553 1.399 . S
C2553 H2539 0.929 . S
C2553 C2552 1.399 . S
C2553 C2554 1.385 . S
C2554 H2540 0.931 . S
C2554 C2553 1.385 . S
C2554 C2555 1.389 . S
C2555 C2554 1.389 . S
C2555 C2556 1.387 . S
C2556 H2541 0.930 . S
C2556 C2551 1.390 . S
C2556 C2555 1.387 . S
H2557 C2569 0.930 . S
H2558 C2571 0.930 . S
H2559 C2572 0.930 . S
H2560 C2576 0.959 . S
H2561 C2576 0.959 . S
H2562 C2576 0.961 . S
H2563 C2577 0.960 . S
H2564 C2577 0.961 . S
H2565 C2577 0.959 . S
H2566 C2580 0.929 . S
H2567 C2581 0.931 . S
H2568 C2583 0.930 . S
C2569 H2557 0.930 . S
C2569 C2570 1.399 . S
C2569 C2574 1.399 . S
C2570 C2569 1.399 . S
C2570 C2571 1.376 . S
C2571 H2558 0.930 . S
C2571 C2570 1.376 . S
C2571 C2572 1.388 . S
C2572 H2559 0.930 . S
C2572 C2571 1.388 . S
C2572 C2573 1.390 . S
C2573 C2572 1.390 . S
C2573 C2574 1.394 . S
C2573 C2579 1.465 . S
C2574 C2569 1.399 . S
C2574 C2573 1.394 . S
C2574 C2575 1.516 . S
C2575 C2574 1.516 . S
C2575 C2576 1.502 . S
C2575 C2577 1.561 . S
C2575 C2578 1.526 . S
C2576 H2560 0.959 . S
C2576 H2561 0.959 . S
C2576 H2562 0.961 . S
C2576 C2575 1.502 . S
C2577 H2563 0.960 . S
C2577 H2564 0.961 . S
C2577 H2565 0.959 . S
C2577 C2575 1.561 . S
C2578 C2575 1.526 . S
C2578 C2579 1.396 . S
C2578 C2583 1.390 . S
C2579 C2573 1.465 . S
C2579 C2578 1.396 . S
C2579 C2580 1.399 . S
C2580 H2566 0.929 . S
C2580 C2579 1.399 . S
C2580 C2581 1.385 . S
C2581 H2567 0.931 . S
C2581 C2580 1.385 . S
C2581 C2582 1.389 . S
C2582 C2581 1.389 . S
C2582 C2583 1.387 . S
C2583 H2568 0.930 . S
C2583 C2578 1.390 . S
C2583 C2582 1.387 . S
H2584 C2596 0.930 . S
H2585 C2598 0.930 . S
H2586 C2599 0.930 . S
H2587 C2603 0.959 . S
H2588 C2603 0.956 1_554 S
H2589 C2603 0.961 1_554 S
H2590 C2604 0.960 . S
H2591 C2604 0.961 . S
H2592 C2604 0.959 . S
H2593 C2607 0.929 . S
H2594 C2608 0.931 . S
H2595 C2610 0.930 . S
C2596 H2584 0.930 . S
C2596 C2597 1.399 1_554 S
C2596 C2601 1.399 1_554 S
C2597 C2596 1.399 1_556 S
C2597 C2598 1.376 . S
C2598 H2585 0.930 . S
C2598 C2597 1.376 . S
C2598 C2599 1.388 . S
C2599 H2586 0.930 . S
C2599 C2598 1.388 . S
C2599 C2600 1.390 . S
C2600 C2599 1.390 . S
C2600 C2601 1.394 . S
C2600 C2606 1.465 . S
C2601 C2596 1.399 1_556 S
C2601 C2600 1.394 . S
C2601 C2602 1.519 . S
C2602 C2601 1.519 . S
C2602 C2603 1.514 . S
C2602 C2604 1.522 1_556 S
C2602 C2605 1.551 . S
C2603 H2587 0.959 . S
C2603 H2588 0.956 1_556 S
C2603 H2589 0.961 1_556 S
C2603 C2602 1.514 . S
C2604 H2590 0.960 . S
C2604 H2591 0.961 . S
C2604 H2592 0.959 . S
C2604 C2602 1.522 1_554 S
C2605 C2602 1.551 . S
C2605 C2606 1.396 . S
C2605 C2610 1.390 . S
C2606 C2600 1.465 . S
C2606 C2605 1.396 . S
C2606 C2607 1.399 . S
C2607 H2593 0.929 . S
C2607 C2606 1.399 . S
C2607 C2608 1.385 . S
C2608 H2594 0.931 . S
C2608 C2607 1.385 . S
C2608 C2609 1.389 . S
C2609 C2608 1.389 . S
C2609 C2610 1.387 . S
C2610 H2595 0.930 . S
C2610 C2605 1.390 . S
C2610 C2609 1.387 . S
H2611 C2623 0.930 . S
H2612 C2625 0.930 . S
H2613 C2626 0.930 1_556 S
H2614 C2630 0.959 . S
H2615 C2630 0.959 . S
H2616 C2630 0.961 . S
H2617 C2631 0.960 . S
H2618 C2631 0.961 . S
H2619 C2631 0.959 . S
H2620 C2634 0.929 1_556 S
H2621 C2635 0.931 1_556 S
H2622 C2637 0.930 . S
C2623 H2611 0.930 . S
C2623 C2624 1.399 . S
C2623 C2628 1.399 . S
C2624 C2623 1.399 . S
C2624 C2625 1.376 . S
C2625 H2612 0.930 . S
C2625 C2624 1.376 . S
C2625 C2626 1.388 . S
C2626 H2613 0.930 1_554 S
C2626 C2625 1.388 . S
C2626 C2627 1.390 . S
C2627 C2626 1.390 . S
C2627 C2628 1.394 . S
C2627 C2633 1.465 . S
C2628 C2623 1.399 . S
C2628 C2627 1.394 . S
C2628 C2629 1.516 . S
C2629 C2628 1.516 . S
C2629 C2630 1.502 . S
C2629 C2631 1.561 . S
C2629 C2632 1.526 . S
C2630 H2614 0.959 . S
C2630 H2615 0.959 . S
C2630 H2616 0.961 . S
C2630 C2629 1.502 . S
C2631 H2617 0.960 . S
C2631 H2618 0.961 . S
C2631 H2619 0.959 . S
C2631 C2629 1.561 . S
C2632 C2629 1.526 . S
C2632 C2633 1.396 . S
C2632 C2637 1.390 . S
C2633 C2627 1.465 . S
C2633 C2632 1.396 . S
C2633 C2634 1.399 . S
C2634 H2620 0.929 1_554 S
C2634 C2633 1.399 . S
C2634 C2635 1.385 . S
C2635 H2621 0.931 1_554 S
C2635 C2634 1.385 . S
C2635 C2636 1.389 . S
C2636 C2635 1.389 . S
C2636 C2637 1.387 . S
C2637 H2622 0.930 . S
C2637 C2632 1.390 . S
C2637 C2636 1.387 . S
H2638 C2650 0.930 . S
H2639 C2652 0.930 . S
H2640 C2653 0.930 . S
H2641 C2657 0.959 . S
H2642 C2657 0.959 . S
H2643 C2657 0.961 . S
H2644 C2658 0.960 . S
H2645 C2658 0.961 . S
H2646 C2658 0.959 . S
H2647 C2661 0.929 . S
H2648 C2662 0.931 . S
H2649 C2664 0.930 . S
C2650 H2638 0.930 . S
C2650 C2651 1.399 . S
C2650 C2655 1.399 . S
C2651 C2650 1.399 . S
C2651 C2652 1.376 . S
C2652 H2639 0.930 . S
C2652 C2651 1.376 . S
C2652 C2653 1.388 . S
C2653 H2640 0.930 . S
C2653 C2652 1.388 . S
C2653 C2654 1.390 . S
C2654 C2653 1.390 . S
C2654 C2655 1.394 . S
C2654 C2660 1.465 . S
C2655 C2650 1.399 . S
C2655 C2654 1.394 . S
C2655 C2656 1.516 . S
C2656 C2655 1.516 . S
C2656 C2657 1.502 . S
C2656 C2658 1.561 . S
C2656 C2659 1.526 . S
C2657 H2641 0.959 . S
C2657 H2642 0.959 . S
C2657 H2643 0.961 . S
C2657 C2656 1.502 . S
C2658 H2644 0.960 . S
C2658 H2645 0.961 . S
C2658 H2646 0.959 . S
C2658 C2656 1.561 . S
C2659 C2656 1.526 . S
C2659 C2660 1.396 . S
C2659 C2664 1.390 . S
C2660 C2654 1.465 . S
C2660 C2659 1.396 . S
C2660 C2661 1.399 . S
C2661 H2647 0.929 . S
C2661 C2660 1.399 . S
C2661 C2662 1.385 . S
C2662 H2648 0.931 . S
C2662 C2661 1.385 . S
C2662 C2663 1.389 . S
C2663 C2662 1.389 . S
C2663 C2664 1.387 . S
C2664 H2649 0.930 . S
C2664 C2659 1.390 . S
C2664 C2663 1.387 . S
H2665 C2677 0.930 . S
H2666 C2679 0.930 . S
H2667 C2680 0.930 . S
H2668 C2684 0.959 . S
H2669 C2684 0.959 . S
H2670 C2684 0.961 . S
H2671 C2685 0.960 . S
H2672 C2685 0.961 . S
H2673 C2685 0.959 . S
H2674 C2688 0.929 . S
H2675 C2689 0.931 . S
H2676 C2691 0.930 . S
C2677 H2665 0.930 . S
C2677 C2678 1.399 . S
C2677 C2682 1.399 . S
C2678 C2677 1.399 . S
C2678 C2679 1.376 . S
C2679 H2666 0.930 . S
C2679 C2678 1.376 . S
C2679 C2680 1.388 . S
C2680 H2667 0.930 . S
C2680 C2679 1.388 . S
C2680 C2681 1.390 . S
C2681 C2680 1.390 . S
C2681 C2682 1.394 . S
C2681 C2687 1.465 . S
C2682 C2677 1.399 . S
C2682 C2681 1.394 . S
C2682 C2683 1.516 . S
C2683 C2682 1.516 . S
C2683 C2684 1.502 . S
C2683 C2685 1.561 . S
C2683 C2686 1.526 . S
C2684 H2668 0.959 . S
C2684 H2669 0.959 . S
C2684 H2670 0.961 . S
C2684 C2683 1.502 . S
C2685 H2671 0.960 . S
C2685 H2672 0.961 . S
C2685 H2673 0.959 . S
C2685 C2683 1.561 . S
C2686 C2683 1.526 . S
C2686 C2687 1.396 . S
C2686 C2691 1.390 . S
C2687 C2681 1.465 . S
C2687 C2686 1.396 . S
C2687 C2688 1.399 . S
C2688 H2674 0.929 . S
C2688 C2687 1.399 . S
C2688 C2689 1.385 . S
C2689 H2675 0.931 . S
C2689 C2688 1.385 . S
C2689 C2690 1.389 . S
C2690 C2689 1.389 . S
C2690 C2691 1.387 . S
C2691 H2676 0.930 . S
C2691 C2686 1.390 . S
C2691 C2690 1.387 . S
H2692 C2704 0.930 . S
H2693 C2706 0.930 . S
H2694 C2707 0.930 . S
H2695 C2711 0.959 . S
H2696 C2711 0.959 . S
H2697 C2711 0.961 . S
H2698 C2712 0.960 . S
H2699 C2712 0.961 . S
H2700 C2712 0.959 . S
H2701 C2715 0.929 . S
H2702 C2716 0.931 . S
H2703 C2718 0.930 . S
C2704 H2692 0.930 . S
C2704 C2705 1.399 . S
C2704 C2709 1.399 . S
C2705 C2704 1.399 . S
C2705 C2706 1.376 . S
C2706 H2693 0.930 . S
C2706 C2705 1.376 . S
C2706 C2707 1.388 . S
C2707 H2694 0.930 . S
C2707 C2706 1.388 . S
C2707 C2708 1.390 . S
C2708 C2707 1.390 . S
C2708 C2709 1.394 . S
C2708 C2714 1.465 . S
C2709 C2704 1.399 . S
C2709 C2708 1.394 . S
C2709 C2710 1.516 . S
C2710 C2709 1.516 . S
C2710 C2711 1.502 . S
C2710 C2712 1.561 . S
C2710 C2713 1.526 . S
C2711 H2695 0.959 . S
C2711 H2696 0.959 . S
C2711 H2697 0.961 . S
C2711 C2710 1.502 . S
C2712 H2698 0.960 . S
C2712 H2699 0.961 . S
C2712 H2700 0.959 . S
C2712 C2710 1.561 . S
C2713 C2710 1.526 . S
C2713 C2714 1.396 . S
C2713 C2718 1.390 . S
C2714 C2708 1.465 . S
C2714 C2713 1.396 . S
C2714 C2715 1.399 . S
C2715 H2701 0.929 . S
C2715 C2714 1.399 . S
C2715 C2716 1.385 . S
C2716 H2702 0.931 . S
C2716 C2715 1.385 . S
C2716 C2717 1.389 . S
C2717 C2716 1.389 . S
C2717 C2718 1.387 . S
C2718 H2703 0.930 . S
C2718 C2713 1.390 . S
C2718 C2717 1.387 . S
H2719 C2731 0.930 . S
H2720 C2733 0.930 . S
H2721 C2734 0.930 . S
H2722 C2738 0.959 . S
H2723 C2738 0.959 . S
H2724 C2738 0.961 . S
H2725 C2739 0.960 . S
H2726 C2739 0.961 1_545 S
H2727 C2739 0.959 . S
H2728 C2742 0.929 . S
H2729 C2743 0.931 . S
H2730 C2745 0.930 . S
C2731 H2719 0.930 . S
C2731 C2732 1.399 . S
C2731 C2736 1.399 . S
C2732 C2731 1.399 . S
C2732 C2733 1.376 . S
C2733 H2720 0.930 . S
C2733 C2732 1.376 . S
C2733 C2734 1.388 . S
C2734 H2721 0.930 . S
C2734 C2733 1.388 . S
C2734 C2735 1.390 . S
C2735 C2734 1.390 . S
C2735 C2736 1.394 . S
C2735 C2741 1.465 . S
C2736 C2731 1.399 . S
C2736 C2735 1.394 . S
C2736 C2737 1.516 . S
C2737 C2736 1.516 . S
C2737 C2738 1.502 1_565 S
C2737 C2739 1.561 . S
C2737 C2740 1.526 . S
C2738 H2722 0.959 . S
C2738 H2723 0.959 . S
C2738 H2724 0.961 . S
C2738 C2737 1.502 1_545 S
C2739 H2725 0.960 . S
C2739 H2726 0.961 1_565 S
C2739 H2727 0.959 . S
C2739 C2737 1.561 . S
C2740 C2737 1.526 . S
C2740 C2741 1.396 . S
C2740 C2745 1.390 1_565 S
C2741 C2735 1.465 . S
C2741 C2740 1.396 . S
C2741 C2742 1.399 . S
C2742 H2728 0.929 . S
C2742 C2741 1.399 . S
C2742 C2743 1.385 . S
C2743 H2729 0.931 . S
C2743 C2742 1.385 . S
C2743 C2744 1.389 1_565 S
C2744 C2743 1.389 1_545 S
C2744 C2745 1.387 . S
C2745 H2730 0.930 . S
C2745 C2740 1.390 1_545 S
C2745 C2744 1.387 . S
H2746 C2758 0.930 . S
H2747 C2760 0.930 . S
H2748 C2761 0.930 . S
H2749 C2765 0.959 . S
H2750 C2765 0.959 . S
H2751 C2765 0.961 . S
H2752 C2766 0.960 . S
H2753 C2766 0.961 . S
H2754 C2766 0.959 . S
H2755 C2769 0.929 . S
H2756 C2770 0.931 . S
H2757 C2772 0.930 . S
C2758 H2746 0.930 . S
C2758 C2759 1.399 . S
C2758 C2763 1.399 . S
C2759 C2758 1.399 . S
C2759 C2760 1.376 . S
C2760 H2747 0.930 . S
C2760 C2759 1.376 . S
C2760 C2761 1.388 . S
C2761 H2748 0.930 . S
C2761 C2760 1.388 . S
C2761 C2762 1.390 . S
C2762 C2761 1.390 . S
C2762 C2763 1.394 . S
C2762 C2768 1.465 . S
C2763 C2758 1.399 . S
C2763 C2762 1.394 . S
C2763 C2764 1.516 . S
C2764 C2763 1.516 . S
C2764 C2765 1.502 . S
C2764 C2766 1.561 . S
C2764 C2767 1.526 . S
C2765 H2749 0.959 . S
C2765 H2750 0.959 . S
C2765 H2751 0.961 . S
C2765 C2764 1.502 . S
C2766 H2752 0.960 . S
C2766 H2753 0.961 . S
C2766 H2754 0.959 . S
C2766 C2764 1.561 . S
C2767 C2764 1.526 . S
C2767 C2768 1.396 . S
C2767 C2772 1.390 . S
C2768 C2762 1.465 . S
C2768 C2767 1.396 . S
C2768 C2769 1.399 . S
C2769 H2755 0.929 . S
C2769 C2768 1.399 . S
C2769 C2770 1.385 . S
C2770 H2756 0.931 . S
C2770 C2769 1.385 . S
C2770 C2771 1.389 . S
C2771 C2770 1.389 . S
C2771 C2772 1.387 . S
C2772 H2757 0.930 . S
C2772 C2767 1.390 . S
C2772 C2771 1.387 . S
H2773 C2785 0.930 . S
H2774 C2787 0.930 . S
H2775 C2788 0.930 . S
H2776 C2792 0.959 . S
H2777 C2792 0.959 . S
H2778 C2792 0.961 . S
H2779 C2793 0.960 . S
H2780 C2793 0.961 . S
H2781 C2793 0.959 . S
H2782 C2796 0.929 . S
H2783 C2797 0.931 . S
H2784 C2799 0.930 . S
C2785 H2773 0.930 . S
C2785 C2786 1.399 . S
C2785 C2790 1.399 . S
C2786 C2785 1.399 . S
C2786 C2787 1.376 . S
C2787 H2774 0.930 . S
C2787 C2786 1.376 . S
C2787 C2788 1.388 . S
C2788 H2775 0.930 . S
C2788 C2787 1.388 . S
C2788 C2789 1.390 . S
C2789 C2788 1.390 . S
C2789 C2790 1.394 . S
C2789 C2795 1.465 . S
C2790 C2785 1.399 . S
C2790 C2789 1.394 . S
C2790 C2791 1.516 . S
C2791 C2790 1.516 . S
C2791 C2792 1.502 . S
C2791 C2793 1.561 . S
C2791 C2794 1.526 . S
C2792 H2776 0.959 . S
C2792 H2777 0.959 . S
C2792 H2778 0.961 . S
C2792 C2791 1.502 . S
C2793 H2779 0.960 . S
C2793 H2780 0.961 . S
C2793 H2781 0.959 . S
C2793 C2791 1.561 . S
C2794 C2791 1.526 . S
C2794 C2795 1.396 . S
C2794 C2799 1.390 . S
C2795 C2789 1.465 . S
C2795 C2794 1.396 . S
C2795 C2796 1.399 . S
C2796 H2782 0.929 . S
C2796 C2795 1.399 . S
C2796 C2797 1.385 . S
C2797 H2783 0.931 . S
C2797 C2796 1.385 . S
C2797 C2798 1.389 . S
C2798 C2797 1.389 . S
C2798 C2799 1.387 . S
C2799 H2784 0.930 . S
C2799 C2794 1.390 . S
C2799 C2798 1.387 . S
H2800 C2812 0.930 . S
H2801 C2814 0.930 . S
H2802 C2815 0.930 . S
H2803 C2819 0.959 . S
H2804 C2819 0.959 . S
H2805 C2819 0.961 . S
H2806 C2820 0.960 . S
H2807 C2820 0.961 . S
H2808 C2820 0.959 . S
H2809 C2823 0.929 . S
H2810 C2824 0.931 . S
H2811 C2826 0.930 . S
C2812 H2800 0.930 . S
C2812 C2813 1.399 . S
C2812 C2817 1.399 . S
C2813 C2812 1.399 . S
C2813 C2814 1.376 . S
C2814 H2801 0.930 . S
C2814 C2813 1.376 . S
C2814 C2815 1.388 . S
C2815 H2802 0.930 . S
C2815 C2814 1.388 . S
C2815 C2816 1.390 . S
C2816 C2815 1.390 . S
C2816 C2817 1.394 . S
C2816 C2822 1.465 . S
C2817 C2812 1.399 . S
C2817 C2816 1.394 . S
C2817 C2818 1.516 . S
C2818 C2817 1.516 . S
C2818 C2819 1.502 . S
C2818 C2820 1.561 . S
C2818 C2821 1.526 . S
C2819 H2803 0.959 . S
C2819 H2804 0.959 . S
C2819 H2805 0.961 . S
C2819 C2818 1.502 . S
C2820 H2806 0.960 . S
C2820 H2807 0.961 . S
C2820 H2808 0.959 . S
C2820 C2818 1.561 . S
C2821 C2818 1.526 . S
C2821 C2822 1.396 . S
C2821 C2826 1.390 . S
C2822 C2816 1.465 . S
C2822 C2821 1.396 . S
C2822 C2823 1.399 . S
C2823 H2809 0.929 . S
C2823 C2822 1.399 . S
C2823 C2824 1.385 . S
C2824 H2810 0.931 . S
C2824 C2823 1.385 . S
C2824 C2825 1.389 . S
C2825 C2824 1.389 . S
C2825 C2826 1.387 . S
C2826 H2811 0.930 . S
C2826 C2821 1.390 . S
C2826 C2825 1.387 . S
H2827 C2839 0.930 . S
H2828 C2841 0.930 . S
H2829 C2842 0.930 . S
H2830 C2846 0.959 . S
H2831 C2846 0.959 . S
H2832 C2846 0.961 . S
H2833 C2847 0.960 . S
H2834 C2847 0.961 . S
H2835 C2847 0.959 . S
H2836 C2850 0.929 . S
H2837 C2851 0.931 . S
H2838 C2853 0.930 . S
C2839 H2827 0.930 . S
C2839 C2840 1.399 . S
C2839 C2844 1.399 . S
C2840 C2839 1.399 . S
C2840 C2841 1.376 . S
C2841 H2828 0.930 . S
C2841 C2840 1.376 . S
C2841 C2842 1.388 . S
C2842 H2829 0.930 . S
C2842 C2841 1.388 . S
C2842 C2843 1.390 . S
C2843 C2842 1.390 . S
C2843 C2844 1.394 . S
C2843 C2849 1.465 . S
C2844 C2839 1.399 . S
C2844 C2843 1.394 . S
C2844 C2845 1.516 . S
C2845 C2844 1.516 . S
C2845 C2846 1.502 . S
C2845 C2847 1.561 . S
C2845 C2848 1.526 . S
C2846 H2830 0.959 . S
C2846 H2831 0.959 . S
C2846 H2832 0.961 . S
C2846 C2845 1.502 . S
C2847 H2833 0.960 . S
C2847 H2834 0.961 . S
C2847 H2835 0.959 . S
C2847 C2845 1.561 . S
C2848 C2845 1.526 . S
C2848 C2849 1.396 . S
C2848 C2853 1.390 . S
C2849 C2843 1.465 . S
C2849 C2848 1.396 . S
C2849 C2850 1.399 . S
C2850 H2836 0.929 . S
C2850 C2849 1.399 . S
C2850 C2851 1.385 . S
C2851 H2837 0.931 . S
C2851 C2850 1.385 . S
C2851 C2852 1.389 . S
C2852 C2851 1.389 . S
C2852 C2853 1.387 . S
C2853 H2838 0.930 . S
C2853 C2848 1.390 . S
C2853 C2852 1.387 . S
H2854 C2866 0.930 . S
H2855 C2868 0.930 . S
H2856 C2869 0.930 . S
H2857 C2873 0.959 . S
H2858 C2873 0.959 . S
H2859 C2873 0.961 . S
H2860 C2874 0.960 . S
H2861 C2874 0.961 . S
H2862 C2874 0.959 . S
H2863 C2877 0.929 . S
H2864 C2878 0.931 . S
H2865 C2880 0.930 . S
C2866 H2854 0.930 . S
C2866 C2867 1.399 . S
C2866 C2871 1.399 . S
C2867 C2866 1.399 . S
C2867 C2868 1.376 . S
C2868 H2855 0.930 . S
C2868 C2867 1.376 . S
C2868 C2869 1.388 . S
C2869 H2856 0.930 . S
C2869 C2868 1.388 . S
C2869 C2870 1.390 . S
C2870 C2869 1.390 . S
C2870 C2871 1.394 . S
C2870 C2876 1.465 . S
C2871 C2866 1.399 . S
C2871 C2870 1.394 . S
C2871 C2872 1.550 . S
C2872 C2871 1.550 . S
C2872 C2873 1.478 1_556 S
C2872 C2874 1.542 1_556 S
C2872 C2875 1.540 . S
C2873 H2857 0.959 . S
C2873 H2858 0.959 . S
C2873 H2859 0.961 . S
C2873 C2872 1.478 1_554 S
C2874 H2860 0.960 . S
C2874 H2861 0.961 . S
C2874 H2862 0.959 . S
C2874 C2872 1.542 1_554 S
C2875 C2872 1.540 . S
C2875 C2876 1.396 . S
C2875 C2880 1.390 1_556 S
C2876 C2870 1.465 . S
C2876 C2875 1.396 . S
C2876 C2877 1.399 . S
C2877 H2863 0.929 . S
C2877 C2876 1.399 . S
C2877 C2878 1.385 . S
C2878 H2864 0.931 . S
C2878 C2877 1.385 . S
C2878 C2879 1.389 . S
C2879 C2878 1.389 . S
C2879 C2880 1.387 1_556 S
C2880 H2865 0.930 . S
C2880 C2875 1.390 1_554 S
C2880 C2879 1.387 1_554 S
H2881 C2893 0.930 1_455 S
H2882 C2895 0.930 . S
H2883 C2896 0.930 . S
H2884 C2900 0.959 . S
H2885 C2900 0.959 . S
H2886 C2900 0.961 . S
H2887 C2901 0.960 . S
H2888 C2901 0.961 . S
H2889 C2901 0.959 . S
H2890 C2904 0.929 . S
H2891 C2905 0.931 . S
H2892 C2907 0.930 . S
C2893 H2881 0.930 1_655 S
C2893 C2894 1.399 1_655 S
C2893 C2898 1.400 . S
C2894 C2893 1.399 1_455 S
C2894 C2895 1.376 . S
C2895 H2882 0.930 . S
C2895 C2894 1.376 . S
C2895 C2896 1.388 1_455 S
C2896 H2883 0.930 . S
C2896 C2895 1.388 1_655 S
C2896 C2897 1.390 . S
C2897 C2896 1.390 . S
C2897 C2898 1.394 . S
C2897 C2903 1.465 . S
C2898 C2893 1.400 . S
C2898 C2897 1.394 . S
C2898 C2899 1.516 . S
C2899 C2898 1.516 . S
C2899 C2900 1.502 . S
C2899 C2901 1.561 . S
C2899 C2902 1.526 . S
C2900 H2884 0.959 . S
C2900 H2885 0.959 . S
C2900 H2886 0.961 . S
C2900 C2899 1.502 . S
C2901 H2887 0.960 . S
C2901 H2888 0.961 . S
C2901 H2889 0.959 . S
C2901 C2899 1.561 . S
C2902 C2899 1.526 . S
C2902 C2903 1.396 . S
C2902 C2907 1.390 . S
C2903 C2897 1.465 . S
C2903 C2902 1.396 . S
C2903 C2904 1.399 . S
C2904 H2890 0.929 . S
C2904 C2903 1.399 . S
C2904 C2905 1.385 . S
C2905 H2891 0.931 . S
C2905 C2904 1.385 . S
C2905 C2906 1.389 . S
C2906 C2905 1.389 . S
C2906 C2907 1.387 . S
C2907 H2892 0.930 . S
C2907 C2902 1.390 . S
C2907 C2906 1.387 . S
H2908 C2920 0.930 . S
H2909 C2922 0.930 . S
H2910 C2923 0.930 . S
H2911 C2927 0.959 . S
H2912 C2927 0.959 . S
H2913 C2927 0.961 . S
H2914 C2928 0.960 . S
H2915 C2928 0.961 . S
H2916 C2928 0.959 . S
H2917 C2931 0.929 . S
H2918 C2932 0.931 . S
H2919 C2934 0.930 . S
C2920 H2908 0.930 . S
C2920 C2921 1.399 . S
C2920 C2925 1.399 . S
C2921 C2920 1.399 . S
C2921 C2922 1.376 . S
C2922 H2909 0.930 . S
C2922 C2921 1.376 . S
C2922 C2923 1.388 . S
C2923 H2910 0.930 . S
C2923 C2922 1.388 . S
C2923 C2924 1.390 . S
C2924 C2923 1.390 . S
C2924 C2925 1.394 . S
C2924 C2930 1.465 . S
C2925 C2920 1.399 . S
C2925 C2924 1.394 . S
C2925 C2926 1.516 . S
C2926 C2925 1.516 . S
C2926 C2927 1.502 . S
C2926 C2928 1.561 . S
C2926 C2929 1.526 . S
C2927 H2911 0.959 . S
C2927 H2912 0.959 . S
C2927 H2913 0.961 . S
C2927 C2926 1.502 . S
C2928 H2914 0.960 . S
C2928 H2915 0.961 . S
C2928 H2916 0.959 . S
C2928 C2926 1.561 . S
C2929 C2926 1.526 . S
C2929 C2930 1.396 . S
C2929 C2934 1.390 . S
C2930 C2924 1.465 . S
C2930 C2929 1.396 . S
C2930 C2931 1.399 . S
C2931 H2917 0.929 . S
C2931 C2930 1.399 . S
C2931 C2932 1.385 . S
C2932 H2918 0.931 . S
C2932 C2931 1.385 . S
C2932 C2933 1.389 . S
C2933 C2932 1.389 . S
C2933 C2934 1.387 . S
C2934 H2919 0.930 . S
C2934 C2929 1.390 . S
C2934 C2933 1.387 . S
H2935 C2947 0.930 . S
H2936 C2949 0.930 . S
H2937 C2950 0.930 . S
H2938 C2954 0.959 . S
H2939 C2954 0.959 . S
H2940 C2954 0.961 . S
H2941 C2955 0.960 . S
H2942 C2955 0.961 . S
H2943 C2955 0.959 . S
H2944 C2958 0.929 . S
H2945 C2959 0.931 . S
H2946 C2961 0.930 . S
C2947 H2935 0.930 . S
C2947 C2948 1.399 . S
C2947 C2952 1.399 . S
C2948 C2947 1.399 . S
C2948 C2949 1.376 . S
C2949 H2936 0.930 . S
C2949 C2948 1.376 . S
C2949 C2950 1.388 . S
C2950 H2937 0.930 . S
C2950 C2949 1.388 . S
C2950 C2951 1.390 . S
C2951 C2950 1.390 . S
C2951 C2952 1.394 . S
C2951 C2957 1.465 . S
C2952 C2947 1.399 . S
C2952 C2951 1.394 . S
C2952 C2953 1.516 . S
C2953 C2952 1.516 . S
C2953 C2954 1.502 . S
C2953 C2955 1.561 . S
C2953 C2956 1.526 . S
C2954 H2938 0.959 . S
C2954 H2939 0.959 . S
C2954 H2940 0.961 . S
C2954 C2953 1.502 . S
C2955 H2941 0.960 . S
C2955 H2942 0.961 . S
C2955 H2943 0.959 . S
C2955 C2953 1.561 . S
C2956 C2953 1.526 . S
C2956 C2957 1.396 . S
C2956 C2961 1.390 . S
C2957 C2951 1.465 . S
C2957 C2956 1.396 . S
C2957 C2958 1.399 . S
C2958 H2944 0.929 . S
C2958 C2957 1.399 . S
C2958 C2959 1.385 . S
C2959 H2945 0.931 . S
C2959 C2958 1.385 . S
C2959 C2960 1.389 . S
C2960 C2959 1.389 . S
C2960 C2961 1.387 . S
C2961 H2946 0.930 . S
C2961 C2956 1.390 . S
C2961 C2960 1.387 . S
H2962 C2974 0.930 . S
H2963 C2976 0.930 . S
H2964 C2977 0.930 . S
H2965 C2981 0.959 . S
H2966 C2981 0.959 . S
H2967 C2981 0.961 . S
H2968 C2982 0.960 . S
H2969 C2982 0.961 . S
H2970 C2982 0.959 . S
H2971 C2985 0.929 . S
H2972 C2986 0.931 . S
H2973 C2988 0.930 . S
C2974 H2962 0.930 . S
C2974 C2975 1.399 . S
C2974 C2979 1.399 . S
C2975 C2974 1.399 . S
C2975 C2976 1.376 . S
C2976 H2963 0.930 . S
C2976 C2975 1.376 . S
C2976 C2977 1.388 . S
C2977 H2964 0.930 . S
C2977 C2976 1.388 . S
C2977 C2978 1.390 . S
C2978 C2977 1.390 . S
C2978 C2979 1.394 . S
C2978 C2984 1.465 . S
C2979 C2974 1.399 . S
C2979 C2978 1.394 . S
C2979 C2980 1.516 . S
C2980 C2979 1.516 . S
C2980 C2981 1.502 . S
C2980 C2982 1.561 . S
C2980 C2983 1.526 . S
C2981 H2965 0.959 . S
C2981 H2966 0.959 . S
C2981 H2967 0.961 . S
C2981 C2980 1.502 . S
C2982 H2968 0.960 . S
C2982 H2969 0.961 . S
C2982 H2970 0.959 . S
C2982 C2980 1.561 . S
C2983 C2980 1.526 . S
C2983 C2984 1.396 . S
C2983 C2988 1.390 . S
C2984 C2978 1.465 . S
C2984 C2983 1.396 . S
C2984 C2985 1.399 . S
C2985 H2971 0.929 . S
C2985 C2984 1.399 . S
C2985 C2986 1.385 . S
C2986 H2972 0.931 . S
C2986 C2985 1.385 . S
C2986 C2987 1.389 . S
C2987 C2986 1.389 . S
C2987 C2988 1.387 . S
C2988 H2973 0.930 . S
C2988 C2983 1.390 . S
C2988 C2987 1.387 . S
H2989 C3001 0.930 . S
H2990 C3003 0.930 . S
H2991 C3004 0.930 . S
H2992 C3008 0.959 . S
H2993 C3008 0.959 . S
H2994 C3008 0.961 . S
H2995 C3009 0.960 . S
H2996 C3009 0.961 . S
H2997 C3009 0.959 . S
H2998 C3012 0.929 . S
H2999 C3013 0.931 . S
H3000 C3015 0.930 . S
C3001 H2989 0.930 . S
C3001 C3002 1.399 . S
C3001 C3006 1.399 . S
C3002 C3001 1.399 . S
C3002 C3003 1.376 . S
C3003 H2990 0.930 . S
C3003 C3002 1.376 . S
C3003 C3004 1.388 . S
C3004 H2991 0.930 . S
C3004 C3003 1.388 . S
C3004 C3005 1.390 . S
C3005 C3004 1.390 . S
C3005 C3006 1.394 . S
C3005 C3011 1.465 . S
C3006 C3001 1.399 . S
C3006 C3005 1.394 . S
C3006 C3007 1.516 . S
C3007 C3006 1.516 . S
C3007 C3008 1.502 . S
C3007 C3009 1.561 . S
C3007 C3010 1.526 . S
C3008 H2992 0.959 . S
C3008 H2993 0.959 . S
C3008 H2994 0.961 . S
C3008 C3007 1.502 . S
C3009 H2995 0.960 . S
C3009 H2996 0.961 . S
C3009 H2997 0.959 . S
C3009 C3007 1.561 . S
C3010 C3007 1.526 . S
C3010 C3011 1.396 . S
C3010 C3015 1.390 . S
C3011 C3005 1.465 . S
C3011 C3010 1.396 . S
C3011 C3012 1.399 . S
C3012 H2998 0.929 . S
C3012 C3011 1.399 . S
C3012 C3013 1.385 . S
C3013 H2999 0.931 . S
C3013 C3012 1.385 . S
C3013 C3014 1.389 . S
C3014 C3013 1.389 . S
C3014 C3015 1.387 . S
C3015 H3000 0.930 . S
C3015 C3010 1.390 . S
C3015 C3014 1.387 . S
H3016 C3028 0.930 . S
H3017 C3030 0.930 . S
H3018 C3031 0.930 . S
H3019 C3035 0.959 . S
H3020 C3035 0.959 . S
H3021 C3035 0.961 . S
H3022 C3036 0.960 . S
H3023 C3036 0.961 . S
H3024 C3036 0.959 . S
H3025 C3039 0.929 . S
H3026 C3040 0.931 . S
H3027 C3042 0.930 . S
C3028 H3016 0.930 . S
C3028 C3029 1.399 . S
C3028 C3033 1.399 . S
C3029 C3028 1.399 . S
C3029 C3030 1.376 . S
C3030 H3017 0.930 . S
C3030 C3029 1.376 . S
C3030 C3031 1.388 . S
C3031 H3018 0.930 . S
C3031 C3030 1.388 . S
C3031 C3032 1.390 . S
C3032 C3031 1.390 . S
C3032 C3033 1.394 . S
C3032 C3038 1.465 . S
C3033 C3028 1.399 . S
C3033 C3032 1.394 . S
C3033 C3034 1.516 . S
C3034 C3033 1.516 . S
C3034 C3035 1.502 . S
C3034 C3036 1.561 . S
C3034 C3037 1.526 . S
C3035 H3019 0.959 . S
C3035 H3020 0.959 . S
C3035 H3021 0.961 . S
C3035 C3034 1.502 . S
C3036 H3022 0.960 . S
C3036 H3023 0.961 . S
C3036 H3024 0.959 . S
C3036 C3034 1.561 . S
C3037 C3034 1.526 . S
C3037 C3038 1.396 . S
C3037 C3042 1.390 . S
C3038 C3032 1.465 . S
C3038 C3037 1.396 . S
C3038 C3039 1.399 . S
C3039 H3025 0.929 . S
C3039 C3038 1.399 . S
C3039 C3040 1.385 . S
C3040 H3026 0.931 . S
C3040 C3039 1.385 . S
C3040 C3041 1.389 . S
C3041 C3040 1.389 . S
C3041 C3042 1.387 . S
C3042 H3027 0.930 . S
C3042 C3037 1.390 . S
C3042 C3041 1.387 . S
H3043 C3055 0.930 . S
H3044 C3057 0.930 . S
H3045 C3058 0.930 . S
H3046 C3062 0.959 . S
H3047 C3062 0.959 . S
H3048 C3062 0.961 . S
H3049 C3063 0.960 . S
H3050 C3063 0.961 . S
H3051 C3063 0.959 . S
H3052 C3066 0.929 . S
H3053 C3067 0.931 . S
H3054 C3069 0.930 . S
C3055 H3043 0.930 . S
C3055 C3056 1.399 . S
C3055 C3060 1.399 . S
C3056 C3055 1.399 . S
C3056 C3057 1.376 . S
C3057 H3044 0.930 . S
C3057 C3056 1.376 . S
C3057 C3058 1.388 . S
C3058 H3045 0.930 . S
C3058 C3057 1.388 . S
C3058 C3059 1.390 . S
C3059 C3058 1.390 . S
C3059 C3060 1.394 . S
C3059 C3065 1.465 . S
C3060 C3055 1.399 . S
C3060 C3059 1.394 . S
C3060 C3061 1.516 . S
C3061 C3060 1.516 . S
C3061 C3062 1.502 . S
C3061 C3063 1.561 . S
C3061 C3064 1.526 . S
C3062 H3046 0.959 . S
C3062 H3047 0.959 . S
C3062 H3048 0.961 . S
C3062 C3061 1.502 . S
C3063 H3049 0.960 . S
C3063 H3050 0.961 . S
C3063 H3051 0.959 . S
C3063 C3061 1.561 . S
C3064 C3061 1.526 . S
C3064 C3065 1.396 . S
C3064 C3069 1.390 . S
C3065 C3059 1.465 . S
C3065 C3064 1.396 . S
C3065 C3066 1.399 . S
C3066 H3052 0.929 . S
C3066 C3065 1.399 . S
C3066 C3067 1.385 . S
C3067 H3053 0.931 . S
C3067 C3066 1.385 . S
C3067 C3068 1.389 . S
C3068 C3067 1.389 . S
C3068 C3069 1.387 . S
C3069 H3054 0.930 . S
C3069 C3064 1.390 . S
C3069 C3068 1.387 . S
H3070 C3082 0.930 . S
H3071 C3084 0.930 . S
H3072 C3085 0.930 . S
H3073 C3089 0.959 . S
H3074 C3089 0.959 . S
H3075 C3089 0.961 . S
H3076 C3090 0.960 . S
H3077 C3090 0.961 . S
H3078 C3090 0.959 . S
H3079 C3093 0.929 . S
H3080 C3094 0.931 . S
H3081 C3096 0.930 . S
C3082 H3070 0.930 . S
C3082 C3083 1.399 . S
C3082 C3087 1.399 . S
C3083 C3082 1.399 . S
C3083 C3084 1.376 . S
C3084 H3071 0.930 . S
C3084 C3083 1.376 . S
C3084 C3085 1.388 . S
C3085 H3072 0.930 . S
C3085 C3084 1.388 . S
C3085 C3086 1.390 . S
C3086 C3085 1.390 . S
C3086 C3087 1.394 . S
C3086 C3092 1.465 . S
C3087 C3082 1.399 . S
C3087 C3086 1.394 . S
C3087 C3088 1.516 . S
C3088 C3087 1.516 . S
C3088 C3089 1.502 . S
C3088 C3090 1.561 . S
C3088 C3091 1.526 . S
C3089 H3073 0.959 . S
C3089 H3074 0.959 . S
C3089 H3075 0.961 . S
C3089 C3088 1.502 . S
C3090 H3076 0.960 . S
C3090 H3077 0.961 . S
C3090 H3078 0.959 . S
C3090 C3088 1.561 . S
C3091 C3088 1.526 . S
C3091 C3092 1.396 . S
C3091 C3096 1.390 . S
C3092 C3086 1.465 . S
C3092 C3091 1.396 . S
C3092 C3093 1.399 . S
C3093 H3079 0.929 . S
C3093 C3092 1.399 . S
C3093 C3094 1.385 . S
C3094 H3080 0.931 . S
C3094 C3093 1.385 . S
C3094 C3095 1.389 . S
C3095 C3094 1.389 . S
C3095 C3096 1.387 . S
C3096 H3081 0.930 . S
C3096 C3091 1.390 . S
C3096 C3095 1.387 . S
H3097 C3109 0.930 . S
H3098 C3111 0.930 . S
H3099 C3112 0.930 . S
H3100 C3116 0.959 . S
H3101 C3116 0.959 . S
H3102 C3116 0.961 . S
H3103 C3117 0.960 . S
H3104 C3117 0.961 . S
H3105 C3117 0.959 . S
H3106 C3120 0.929 . S
H3107 C3121 0.931 . S
H3108 C3123 0.930 . S
C3109 H3097 0.930 . S
C3109 C3110 1.399 . S
C3109 C3114 1.399 . S
C3110 C3109 1.399 . S
C3110 C3111 1.376 . S
C3111 H3098 0.930 . S
C3111 C3110 1.376 . S
C3111 C3112 1.388 . S
C3112 H3099 0.930 . S
C3112 C3111 1.388 . S
C3112 C3113 1.390 . S
C3113 C3112 1.390 . S
C3113 C3114 1.394 . S
C3113 C3119 1.465 . S
C3114 C3109 1.399 . S
C3114 C3113 1.394 . S
C3114 C3115 1.516 . S
C3115 C3114 1.516 . S
C3115 C3116 1.502 . S
C3115 C3117 1.561 . S
C3115 C3118 1.526 . S
C3116 H3100 0.959 . S
C3116 H3101 0.959 . S
C3116 H3102 0.961 . S
C3116 C3115 1.502 . S
C3117 H3103 0.960 . S
C3117 H3104 0.961 . S
C3117 H3105 0.959 . S
C3117 C3115 1.561 . S
C3118 C3115 1.526 . S
C3118 C3119 1.396 . S
C3118 C3123 1.390 . S
C3119 C3113 1.465 . S
C3119 C3118 1.396 . S
C3119 C3120 1.399 . S
C3120 H3106 0.929 . S
C3120 C3119 1.399 . S
C3120 C3121 1.385 . S
C3121 H3107 0.931 . S
C3121 C3120 1.385 . S
C3121 C3122 1.389 . S
C3122 C3121 1.389 . S
C3122 C3123 1.387 . S
C3123 H3108 0.930 . S
C3123 C3118 1.390 . S
C3123 C3122 1.387 . S
H3124 C3136 0.930 . S
H3125 C3138 0.930 . S
H3126 C3139 0.930 . S
H3127 C3143 0.959 . S
H3128 C3143 0.959 . S
H3129 C3143 0.961 . S
H3130 C3144 0.960 . S
H3131 C3144 0.961 . S
H3132 C3144 0.959 . S
H3133 C3147 0.929 . S
H3134 C3148 0.931 . S
H3135 C3150 0.930 . S
C3136 H3124 0.930 . S
C3136 C3137 1.399 . S
C3136 C3141 1.399 . S
C3137 C3136 1.399 . S
C3137 C3138 1.376 . S
C3138 H3125 0.930 . S
C3138 C3137 1.376 . S
C3138 C3139 1.388 . S
C3139 H3126 0.930 . S
C3139 C3138 1.388 . S
C3139 C3140 1.390 . S
C3140 C3139 1.390 . S
C3140 C3141 1.394 . S
C3140 C3146 1.465 . S
C3141 C3136 1.399 . S
C3141 C3140 1.394 . S
C3141 C3142 1.516 . S
C3142 C3141 1.516 . S
C3142 C3143 1.502 . S
C3142 C3144 1.561 . S
C3142 C3145 1.526 . S
C3143 H3127 0.959 . S
C3143 H3128 0.959 . S
C3143 H3129 0.961 . S
C3143 C3142 1.502 . S
C3144 H3130 0.960 . S
C3144 H3131 0.961 . S
C3144 H3132 0.959 . S
C3144 C3142 1.561 . S
C3145 C3142 1.526 . S
C3145 C3146 1.396 . S
C3145 C3150 1.390 . S
C3146 C3140 1.465 . S
C3146 C3145 1.396 . S
C3146 C3147 1.399 . S
C3147 H3133 0.929 . S
C3147 C3146 1.399 . S
C3147 C3148 1.385 . S
C3148 H3134 0.931 . S
C3148 C3147 1.385 . S
C3148 C3149 1.389 . S
C3149 C3148 1.389 . S
C3149 C3150 1.387 . S
C3150 H3135 0.930 . S
C3150 C3145 1.390 . S
C3150 C3149 1.387 . S
H3151 C3163 0.930 . S
H3152 C3165 0.930 . S
H3153 C3166 0.930 . S
H3154 C3170 0.959 . S
H3155 C3170 0.959 . S
H3156 C3170 0.961 . S
H3157 C3171 0.960 . S
H3158 C3171 0.961 . S
H3159 C3171 0.959 . S
H3160 C3174 0.929 . S
H3161 C3175 0.931 . S
H3162 C3177 0.930 . S
C3163 H3151 0.930 . S
C3163 C3164 1.399 . S
C3163 C3168 1.399 . S
C3164 C3163 1.399 . S
C3164 C3165 1.376 . S
C3165 H3152 0.930 . S
C3165 C3164 1.376 . S
C3165 C3166 1.388 . S
C3166 H3153 0.930 . S
C3166 C3165 1.388 . S
C3166 C3167 1.390 . S
C3167 C3166 1.390 . S
C3167 C3168 1.394 . S
C3167 C3173 1.465 . S
C3168 C3163 1.399 . S
C3168 C3167 1.394 . S
C3168 C3169 1.516 . S
C3169 C3168 1.516 . S
C3169 C3170 1.502 . S
C3169 C3171 1.561 . S
C3169 C3172 1.526 . S
C3170 H3154 0.959 . S
C3170 H3155 0.959 . S
C3170 H3156 0.961 . S
C3170 C3169 1.502 . S
C3171 H3157 0.960 . S
C3171 H3158 0.961 . S
C3171 H3159 0.959 . S
C3171 C3169 1.561 . S
C3172 C3169 1.526 . S
C3172 C3173 1.396 . S
C3172 C3177 1.390 . S
C3173 C3167 1.465 . S
C3173 C3172 1.396 . S
C3173 C3174 1.399 . S
C3174 H3160 0.929 . S
C3174 C3173 1.399 . S
C3174 C3175 1.385 . S
C3175 H3161 0.931 . S
C3175 C3174 1.385 . S
C3175 C3176 1.389 . S
C3176 C3175 1.389 . S
C3176 C3177 1.387 . S
C3177 H3162 0.930 . S
C3177 C3172 1.390 . S
C3177 C3176 1.387 . S
H3178 C3190 0.930 . S
H3179 C3192 0.930 . S
H3180 C3193 0.930 . S
H3181 C3197 0.959 . S
H3182 C3197 0.959 . S
H3183 C3197 0.961 . S
H3184 C3198 0.960 . S
H3185 C3198 0.961 . S
H3186 C3198 0.959 . S
H3187 C3201 0.929 . S
H3188 C3202 0.931 . S
H3189 C3204 0.930 . S
C3190 H3178 0.930 . S
C3190 C3191 1.399 . S
C3190 C3195 1.399 . S
C3191 C3190 1.399 . S
C3191 C3192 1.376 . S
C3192 H3179 0.930 . S
C3192 C3191 1.376 . S
C3192 C3193 1.388 . S
C3193 H3180 0.930 . S
C3193 C3192 1.388 . S
C3193 C3194 1.390 . S
C3194 C3193 1.390 . S
C3194 C3195 1.394 . S
C3194 C3200 1.465 . S
C3195 C3190 1.399 . S
C3195 C3194 1.394 . S
C3195 C3196 1.516 . S
C3196 C3195 1.516 . S
C3196 C3197 1.502 . S
C3196 C3198 1.561 . S
C3196 C3199 1.526 . S
C3197 H3181 0.959 . S
C3197 H3182 0.959 . S
C3197 H3183 0.961 . S
C3197 C3196 1.502 . S
C3198 H3184 0.960 . S
C3198 H3185 0.961 . S
C3198 H3186 0.959 . S
C3198 C3196 1.561 . S
C3199 C3196 1.526 . S
C3199 C3200 1.396 . S
C3199 C3204 1.390 . S
C3200 C3194 1.465 . S
C3200 C3199 1.396 . S
C3200 C3201 1.399 . S
C3201 H3187 0.929 . S
C3201 C3200 1.399 . S
C3201 C3202 1.385 . S
C3202 H3188 0.931 . S
C3202 C3201 1.385 . S
C3202 C3203 1.389 . S
C3203 C3202 1.389 . S
C3203 C3204 1.387 . S
C3204 H3189 0.930 . S
C3204 C3199 1.390 . S
C3204 C3203 1.387 . S
H3205 C3217 0.930 . S
H3206 C3219 0.930 . S
H3207 C3220 0.930 . S
H3208 C3224 0.959 . S
H3209 C3224 0.959 . S
H3210 C3224 0.961 . S
H3211 C3225 0.960 . S
H3212 C3225 0.961 . S
H3213 C3225 0.959 . S
H3214 C3228 0.929 . S
H3215 C3229 0.931 . S
H3216 C3231 0.930 . S
C3217 H3205 0.930 . S
C3217 C3218 1.399 . S
C3217 C3222 1.399 . S
C3218 C3217 1.399 . S
C3218 C3219 1.376 . S
C3219 H3206 0.930 . S
C3219 C3218 1.376 . S
C3219 C3220 1.388 . S
C3220 H3207 0.930 . S
C3220 C3219 1.388 . S
C3220 C3221 1.390 . S
C3221 C3220 1.390 . S
C3221 C3222 1.394 . S
C3221 C3227 1.465 . S
C3222 C3217 1.399 . S
C3222 C3221 1.394 . S
C3222 C3223 1.516 . S
C3223 C3222 1.516 . S
C3223 C3224 1.502 . S
C3223 C3225 1.561 . S
C3223 C3226 1.526 . S
C3224 H3208 0.959 . S
C3224 H3209 0.959 . S
C3224 H3210 0.961 . S
C3224 C3223 1.502 . S
C3225 H3211 0.960 . S
C3225 H3212 0.961 . S
C3225 H3213 0.959 . S
C3225 C3223 1.561 . S
C3226 C3223 1.526 . S
C3226 C3227 1.396 . S
C3226 C3231 1.390 . S
C3227 C3221 1.465 . S
C3227 C3226 1.396 . S
C3227 C3228 1.399 . S
C3228 H3214 0.929 . S
C3228 C3227 1.399 . S
C3228 C3229 1.385 . S
C3229 H3215 0.931 . S
C3229 C3228 1.385 . S
C3229 C3230 1.389 . S
C3230 C3229 1.389 . S
C3230 C3231 1.387 . S
C3231 H3216 0.930 . S
C3231 C3226 1.390 . S
C3231 C3230 1.387 . S
H3232 C3244 0.930 . S
H3233 C3246 0.930 . S
H3234 C3247 0.930 . S
H3235 C3251 0.959 . S
H3236 C3251 0.959 . S
H3237 C3251 0.961 . S
H3238 C3252 0.960 . S
H3239 C3252 0.961 . S
H3240 C3252 0.959 . S
H3241 C3255 0.929 . S
H3242 C3256 0.931 . S
H3243 C3258 0.930 . S
C3244 H3232 0.930 . S
C3244 C3245 1.399 . S
C3244 C3249 1.399 . S
C3245 C3244 1.399 . S
C3245 C3246 1.376 . S
C3246 H3233 0.930 . S
C3246 C3245 1.376 . S
C3246 C3247 1.388 . S
C3247 H3234 0.930 . S
C3247 C3246 1.388 . S
C3247 C3248 1.390 . S
C3248 C3247 1.390 . S
C3248 C3249 1.394 . S
C3248 C3254 1.465 . S
C3249 C3244 1.399 . S
C3249 C3248 1.394 . S
C3249 C3250 1.516 . S
C3250 C3249 1.516 . S
C3250 C3251 1.502 . S
C3250 C3252 1.561 . S
C3250 C3253 1.526 . S
C3251 H3235 0.959 . S
C3251 H3236 0.959 . S
C3251 H3237 0.961 . S
C3251 C3250 1.502 . S
C3252 H3238 0.960 . S
C3252 H3239 0.961 . S
C3252 H3240 0.959 . S
C3252 C3250 1.561 . S
C3253 C3250 1.526 . S
C3253 C3254 1.396 . S
C3253 C3258 1.390 . S
C3254 C3248 1.465 . S
C3254 C3253 1.396 . S
C3254 C3255 1.399 . S
C3255 H3241 0.929 . S
C3255 C3254 1.399 . S
C3255 C3256 1.385 . S
C3256 H3242 0.931 . S
C3256 C3255 1.385 . S
C3256 C3257 1.389 . S
C3257 C3256 1.389 . S
C3257 C3258 1.387 . S
C3258 H3243 0.930 . S
C3258 C3253 1.390 . S
C3258 C3257 1.387 . S
H3259 C3271 0.930 . S
H3260 C3273 0.930 . S
H3261 C3274 0.930 . S
H3262 C3278 0.959 . S
H3263 C3278 0.959 . S
H3264 C3278 0.961 . S
H3265 C3279 0.960 . S
H3266 C3279 0.961 . S
H3267 C3279 0.959 . S
H3268 C3282 0.929 . S
H3269 C3283 0.931 . S
H3270 C3285 0.930 . S
C3271 H3259 0.930 . S
C3271 C3272 1.399 . S
C3271 C3276 1.399 . S
C3272 C3271 1.399 . S
C3272 C3273 1.376 . S
C3273 H3260 0.930 . S
C3273 C3272 1.376 . S
C3273 C3274 1.388 . S
C3274 H3261 0.930 . S
C3274 C3273 1.388 . S
C3274 C3275 1.390 . S
C3275 C3274 1.390 . S
C3275 C3276 1.394 . S
C3275 C3281 1.465 . S
C3276 C3271 1.399 . S
C3276 C3275 1.394 . S
C3276 C3277 1.516 . S
C3277 C3276 1.516 . S
C3277 C3278 1.502 . S
C3277 C3279 1.561 . S
C3277 C3280 1.526 . S
C3278 H3262 0.959 . S
C3278 H3263 0.959 . S
C3278 H3264 0.961 . S
C3278 C3277 1.502 . S
C3279 H3265 0.960 . S
C3279 H3266 0.961 . S
C3279 H3267 0.959 . S
C3279 C3277 1.561 . S
C3280 C3277 1.526 . S
C3280 C3281 1.396 . S
C3280 C3285 1.390 . S
C3281 C3275 1.465 . S
C3281 C3280 1.396 . S
C3281 C3282 1.399 . S
C3282 H3268 0.929 . S
C3282 C3281 1.399 . S
C3282 C3283 1.385 . S
C3283 H3269 0.931 . S
C3283 C3282 1.385 . S
C3283 C3284 1.389 . S
C3284 C3283 1.389 . S
C3284 C3285 1.387 . S
C3285 H3270 0.930 . S
C3285 C3280 1.390 . S
C3285 C3284 1.387 . S
H3286 C3298 0.930 . S
H3287 C3300 0.930 . S
H3288 C3301 0.930 . S
H3289 C3305 0.959 1_565 S
H3290 C3305 0.959 1_565 S
H3291 C3305 0.961 . S
H3292 C3306 0.960 . S
H3293 C3306 0.961 . S
H3294 C3306 0.959 . S
H3295 C3309 0.929 . S
H3296 C3310 0.931 . S
H3297 C3312 0.930 . S
C3298 H3286 0.930 . S
C3298 C3299 1.399 . S
C3298 C3303 1.399 . S
C3299 C3298 1.399 . S
C3299 C3300 1.376 . S
C3300 H3287 0.930 . S
C3300 C3299 1.376 . S
C3300 C3301 1.388 . S
C3301 H3288 0.930 . S
C3301 C3300 1.388 . S
C3301 C3302 1.390 . S
C3302 C3301 1.390 . S
C3302 C3303 1.394 . S
C3302 C3308 1.465 . S
C3303 C3298 1.399 . S
C3303 C3302 1.394 . S
C3303 C3304 1.516 . S
C3304 C3303 1.516 . S
C3304 C3305 1.502 . S
C3304 C3306 1.561 . S
C3304 C3307 1.526 1_545 S
C3305 H3289 0.959 1_545 S
C3305 H3290 0.959 1_545 S
C3305 H3291 0.961 . S
C3305 C3304 1.502 . S
C3306 H3292 0.960 . S
C3306 H3293 0.961 . S
C3306 H3294 0.959 . S
C3306 C3304 1.561 . S
C3307 C3304 1.526 1_565 S
C3307 C3308 1.396 1_565 S
C3307 C3312 1.390 . S
C3308 C3302 1.465 . S
C3308 C3307 1.396 1_545 S
C3308 C3309 1.399 1_545 S
C3309 H3295 0.929 . S
C3309 C3308 1.399 1_565 S
C3309 C3310 1.385 . S
C3310 H3296 0.931 . S
C3310 C3309 1.385 . S
C3310 C3311 1.389 . S
C3311 C3310 1.389 . S
C3311 C3312 1.387 . S
C3312 H3297 0.930 . S
C3312 C3307 1.390 . S
C3312 C3311 1.387 . S
H3313 C3325 0.930 . S
H3314 C3327 0.932 . S
H3315 C3328 0.930 . S
H3316 C3332 0.959 . S
H3317 C3332 0.959 . S
H3318 C3332 0.961 . S
H3319 C3333 0.960 . S
H3320 C3333 0.961 . S
H3321 C3333 0.959 1_545 S
H3322 C3336 0.929 . S
H3323 C3337 0.931 . S
H3324 C3339 0.930 . S
C3325 H3313 0.930 . S
C3325 C3326 1.399 . S
C3325 C3330 1.399 . S
C3326 C3325 1.399 . S
C3326 C3327 1.372 1_565 S
C3327 H3314 0.932 . S
C3327 C3326 1.372 1_545 S
C3327 C3328 1.392 . S
C3328 H3315 0.930 . S
C3328 C3327 1.392 . S
C3328 C3329 1.390 . S
C3329 C3328 1.390 . S
C3329 C3330 1.394 1_545 S
C3329 C3335 1.465 . S
C3330 C3325 1.399 . S
C3330 C3329 1.394 1_565 S
C3330 C3331 1.516 . S
C3331 C3330 1.516 . S
C3331 C3332 1.502 . S
C3331 C3333 1.561 1_554 S
C3331 C3334 1.526 1_565 S
C3332 H3316 0.959 . S
C3332 H3317 0.959 . S
C3332 H3318 0.961 . S
C3332 C3331 1.502 . S
C3333 H3319 0.960 . S
C3333 H3320 0.961 . S
C3333 H3321 0.959 1_565 S
C3333 C3331 1.561 1_556 S
C3334 C3331 1.526 1_545 S
C3334 C3335 1.396 . S
C3334 C3339 1.390 . S
C3335 C3329 1.465 . S
C3335 C3334 1.396 . S
C3335 C3336 1.399 . S
C3336 H3322 0.929 . S
C3336 C3335 1.399 . S
C3336 C3337 1.385 . S
C3337 H3323 0.931 . S
C3337 C3336 1.385 . S
C3337 C3338 1.389 . S
C3338 C3337 1.389 . S
C3338 C3339 1.387 . S
C3339 H3324 0.930 . S
C3339 C3334 1.390 . S
C3339 C3338 1.387 . S
H3340 C3352 0.930 . S
H3341 C3354 0.930 . S
H3342 C3355 0.930 . S
H3343 C3359 0.959 . S
H3344 C3359 0.959 . S
H3345 C3359 0.961 . S
H3346 C3360 0.960 . S
H3347 C3360 0.961 . S
H3348 C3360 0.959 . S
H3349 C3363 0.929 . S
H3350 C3364 0.931 . S
H3351 C3366 0.930 . S
C3352 H3340 0.930 . S
C3352 C3353 1.399 . S
C3352 C3357 1.399 . S
C3353 C3352 1.399 . S
C3353 C3354 1.376 . S
C3354 H3341 0.930 . S
C3354 C3353 1.376 . S
C3354 C3355 1.388 . S
C3355 H3342 0.930 . S
C3355 C3354 1.388 . S
C3355 C3356 1.390 . S
C3356 C3355 1.390 . S
C3356 C3357 1.394 . S
C3356 C3362 1.465 . S
C3357 C3352 1.399 . S
C3357 C3356 1.394 . S
C3357 C3358 1.516 . S
C3358 C3357 1.516 . S
C3358 C3359 1.502 . S
C3358 C3360 1.561 . S
C3358 C3361 1.526 . S
C3359 H3343 0.959 . S
C3359 H3344 0.959 . S
C3359 H3345 0.961 . S
C3359 C3358 1.502 . S
C3360 H3346 0.960 . S
C3360 H3347 0.961 . S
C3360 H3348 0.959 . S
C3360 C3358 1.561 . S
C3361 C3358 1.526 . S
C3361 C3362 1.396 . S
C3361 C3366 1.390 . S
C3362 C3356 1.465 . S
C3362 C3361 1.396 . S
C3362 C3363 1.399 . S
C3363 H3349 0.929 . S
C3363 C3362 1.399 . S
C3363 C3364 1.385 . S
C3364 H3350 0.931 . S
C3364 C3363 1.385 . S
C3364 C3365 1.389 . S
C3365 C3364 1.389 . S
C3365 C3366 1.387 . S
C3366 H3351 0.930 . S
C3366 C3361 1.390 . S
C3366 C3365 1.387 . S
H3367 C3379 0.930 1_556 S
H3368 C3381 0.930 . S
H3369 C3382 0.930 . S
H3370 C3386 0.959 . S
H3371 C3386 0.959 1_556 S
H3372 C3386 0.961 1_556 S
H3373 C3387 0.960 . S
H3374 C3387 0.961 . S
H3375 C3387 0.959 1_554 S
H3376 C3390 0.929 . S
H3377 C3391 0.931 . S
H3378 C3393 0.930 . S
C3379 H3367 0.930 1_554 S
C3379 C3380 1.399 . S
C3379 C3384 1.399 . S
C3380 C3379 1.399 . S
C3380 C3381 1.376 . S
C3381 H3368 0.930 . S
C3381 C3380 1.376 . S
C3381 C3382 1.388 . S
C3382 H3369 0.930 . S
C3382 C3381 1.388 . S
C3382 C3383 1.390 . S
C3383 C3382 1.390 . S
C3383 C3384 1.394 . S
C3383 C3389 1.465 . S
C3384 C3379 1.399 . S
C3384 C3383 1.394 . S
C3384 C3385 1.516 . S
C3385 C3384 1.516 . S
C3385 C3386 1.502 . S
C3385 C3387 1.561 1_554 S
C3385 C3388 1.526 . S
C3386 H3370 0.959 . S
C3386 H3371 0.959 1_554 S
C3386 H3372 0.961 1_554 S
C3386 C3385 1.502 . S
C3387 H3373 0.960 . S
C3387 H3374 0.961 . S
C3387 H3375 0.959 1_556 S
C3387 C3385 1.561 1_556 S
C3388 C3385 1.526 . S
C3388 C3389 1.396 . S
C3388 C3393 1.390 . S
C3389 C3383 1.465 . S
C3389 C3388 1.396 . S
C3389 C3390 1.399 . S
C3390 H3376 0.929 . S
C3390 C3389 1.399 . S
C3390 C3391 1.385 . S
C3391 H3377 0.931 . S
C3391 C3390 1.385 . S
C3391 C3392 1.389 . S
C3392 C3391 1.389 . S
C3392 C3393 1.387 . S
C3393 H3378 0.930 . S
C3393 C3388 1.390 . S
C3393 C3392 1.387 . S
H3394 C3406 0.930 . S
H3395 C3408 0.930 . S
H3396 C3409 0.930 . S
H3397 C3413 0.959 . S
H3398 C3413 0.959 . S
H3399 C3413 0.961 . S
H3400 C3414 0.960 . S
H3401 C3414 0.961 . S
H3402 C3414 0.959 . S
H3403 C3417 0.929 . S
H3404 C3418 0.931 . S
H3405 C3420 0.930 . S
C3406 H3394 0.930 . S
C3406 C3407 1.399 . S
C3406 C3411 1.399 . S
C3407 C3406 1.399 . S
C3407 C3408 1.376 . S
C3408 H3395 0.930 . S
C3408 C3407 1.376 . S
C3408 C3409 1.388 . S
C3409 H3396 0.930 . S
C3409 C3408 1.388 . S
C3409 C3410 1.390 . S
C3410 C3409 1.390 . S
C3410 C3411 1.394 . S
C3410 C3416 1.465 . S
C3411 C3406 1.399 . S
C3411 C3410 1.394 . S
C3411 C3412 1.516 . S
C3412 C3411 1.516 . S
C3412 C3413 1.502 . S
C3412 C3414 1.561 . S
C3412 C3415 1.526 . S
C3413 H3397 0.959 . S
C3413 H3398 0.959 . S
C3413 H3399 0.961 . S
C3413 C3412 1.502 . S
C3414 H3400 0.960 . S
C3414 H3401 0.961 . S
C3414 H3402 0.959 . S
C3414 C3412 1.561 . S
C3415 C3412 1.526 . S
C3415 C3416 1.396 . S
C3415 C3420 1.390 . S
C3416 C3410 1.465 . S
C3416 C3415 1.396 . S
C3416 C3417 1.399 . S
C3417 H3403 0.929 . S
C3417 C3416 1.399 . S
C3417 C3418 1.385 . S
C3418 H3404 0.931 . S
C3418 C3417 1.385 . S
C3418 C3419 1.389 . S
C3419 C3418 1.389 . S
C3419 C3420 1.387 . S
C3420 H3405 0.930 . S
C3420 C3415 1.390 . S
C3420 C3419 1.387 . S
H3421 C3433 0.930 . S
H3422 C3435 0.930 . S
H3423 C3436 0.930 . S
H3424 C3440 0.959 . S
H3425 C3440 0.959 . S
H3426 C3440 0.961 . S
H3427 C3441 0.960 . S
H3428 C3441 0.961 . S
H3429 C3441 0.959 . S
H3430 C3444 0.929 . S
H3431 C3445 0.931 . S
H3432 C3447 0.930 . S
C3433 H3421 0.930 . S
C3433 C3434 1.399 . S
C3433 C3438 1.399 . S
C3434 C3433 1.399 . S
C3434 C3435 1.376 . S
C3435 H3422 0.930 . S
C3435 C3434 1.376 . S
C3435 C3436 1.388 . S
C3436 H3423 0.930 . S
C3436 C3435 1.388 . S
C3436 C3437 1.390 . S
C3437 C3436 1.390 . S
C3437 C3438 1.394 . S
C3437 C3443 1.465 . S
C3438 C3433 1.399 . S
C3438 C3437 1.394 . S
C3438 C3439 1.516 . S
C3439 C3438 1.516 . S
C3439 C3440 1.502 . S
C3439 C3441 1.561 . S
C3439 C3442 1.526 . S
C3440 H3424 0.959 . S
C3440 H3425 0.959 . S
C3440 H3426 0.961 . S
C3440 C3439 1.502 . S
C3441 H3427 0.960 . S
C3441 H3428 0.961 . S
C3441 H3429 0.959 . S
C3441 C3439 1.561 . S
C3442 C3439 1.526 . S
C3442 C3443 1.396 . S
C3442 C3447 1.390 1_545 S
C3443 C3437 1.465 . S
C3443 C3442 1.396 . S
C3443 C3444 1.399 . S
C3444 H3430 0.929 . S
C3444 C3443 1.399 . S
C3444 C3445 1.385 1_545 S
C3445 H3431 0.931 . S
C3445 C3444 1.385 1_565 S
C3445 C3446 1.389 . S
C3446 C3445 1.389 . S
C3446 C3447 1.387 . S
C3447 H3432 0.930 . S
C3447 C3442 1.390 1_565 S
C3447 C3446 1.387 . S
H3448 C3460 0.930 . S
H3449 C3462 0.930 . S
H3450 C3463 0.930 . S
H3451 C3467 0.959 . S
H3452 C3467 0.959 . S
H3453 C3467 0.961 . S
H3454 C3468 0.960 . S
H3455 C3468 0.961 . S
H3456 C3468 0.959 . S
H3457 C3471 0.929 . S
H3458 C3472 0.931 . S
H3459 C3474 0.930 . S
C3460 H3448 0.930 . S
C3460 C3461 1.399 . S
C3460 C3465 1.399 . S
C3461 C3460 1.399 . S
C3461 C3462 1.376 . S
C3462 H3449 0.930 . S
C3462 C3461 1.376 . S
C3462 C3463 1.388 . S
C3463 H3450 0.930 . S
C3463 C3462 1.388 . S
C3463 C3464 1.390 . S
C3464 C3463 1.390 . S
C3464 C3465 1.394 . S
C3464 C3470 1.465 . S
C3465 C3460 1.399 . S
C3465 C3464 1.394 . S
C3465 C3466 1.516 . S
C3466 C3465 1.516 . S
C3466 C3467 1.502 . S
C3466 C3468 1.561 . S
C3466 C3469 1.526 . S
C3467 H3451 0.959 . S
C3467 H3452 0.959 . S
C3467 H3453 0.961 . S
C3467 C3466 1.502 . S
C3468 H3454 0.960 . S
C3468 H3455 0.961 . S
C3468 H3456 0.959 . S
C3468 C3466 1.561 . S
C3469 C3466 1.526 . S
C3469 C3470 1.396 . S
C3469 C3474 1.390 . S
C3470 C3464 1.465 . S
C3470 C3469 1.396 . S
C3470 C3471 1.399 . S
C3471 H3457 0.929 . S
C3471 C3470 1.399 . S
C3471 C3472 1.385 . S
C3472 H3458 0.931 . S
C3472 C3471 1.385 . S
C3472 C3473 1.389 . S
C3473 C3472 1.389 . S
C3473 C3474 1.387 . S
C3474 H3459 0.930 . S
C3474 C3469 1.390 . S
C3474 C3473 1.387 . S
H3475 C3487 0.930 . S
H3476 C3489 0.930 . S
H3477 C3490 0.930 . S
H3478 C3494 0.959 . S
H3479 C3494 0.959 . S
H3480 C3494 0.961 . S
H3481 C3495 0.960 . S
H3482 C3495 0.961 . S
H3483 C3495 0.959 . S
H3484 C3498 0.929 . S
H3485 C3499 0.931 . S
H3486 C3501 0.930 . S
C3487 H3475 0.930 . S
C3487 C3488 1.399 . S
C3487 C3492 1.399 . S
C3488 C3487 1.399 . S
C3488 C3489 1.376 . S
C3489 H3476 0.930 . S
C3489 C3488 1.376 . S
C3489 C3490 1.388 . S
C3490 H3477 0.930 . S
C3490 C3489 1.388 . S
C3490 C3491 1.390 . S
C3491 C3490 1.390 . S
C3491 C3492 1.394 . S
C3491 C3497 1.465 . S
C3492 C3487 1.399 . S
C3492 C3491 1.394 . S
C3492 C3493 1.516 . S
C3493 C3492 1.516 . S
C3493 C3494 1.502 . S
C3493 C3495 1.561 . S
C3493 C3496 1.526 . S
C3494 H3478 0.959 . S
C3494 H3479 0.959 . S
C3494 H3480 0.961 . S
C3494 C3493 1.502 . S
C3495 H3481 0.960 . S
C3495 H3482 0.961 . S
C3495 H3483 0.959 . S
C3495 C3493 1.561 . S
C3496 C3493 1.526 . S
C3496 C3497 1.396 . S
C3496 C3501 1.390 . S
C3497 C3491 1.465 . S
C3497 C3496 1.396 . S
C3497 C3498 1.399 . S
C3498 H3484 0.929 . S
C3498 C3497 1.399 . S
C3498 C3499 1.385 . S
C3499 H3485 0.931 . S
C3499 C3498 1.385 . S
C3499 C3500 1.389 . S
C3500 C3499 1.389 . S
C3500 C3501 1.387 . S
C3501 H3486 0.930 . S
C3501 C3496 1.390 . S
C3501 C3500 1.387 . S
H3502 C3514 0.930 . S
H3503 C3516 0.930 . S
H3504 C3517 0.930 . S
H3505 C3521 0.959 . S
H3506 C3521 0.959 . S
H3507 C3521 0.961 . S
H3508 C3522 0.960 . S
H3509 C3522 0.961 . S
H3510 C3522 0.959 . S
H3511 C3525 0.929 . S
H3512 C3526 0.931 . S
H3513 C3528 0.930 . S
C3514 H3502 0.930 . S
C3514 C3515 1.399 . S
C3514 C3519 1.399 . S
C3515 C3514 1.399 . S
C3515 C3516 1.376 . S
C3516 H3503 0.930 . S
C3516 C3515 1.376 . S
C3516 C3517 1.388 . S
C3517 H3504 0.930 . S
C3517 C3516 1.388 . S
C3517 C3518 1.390 . S
C3518 C3517 1.390 . S
C3518 C3519 1.394 . S
C3518 C3524 1.465 . S
C3519 C3514 1.399 . S
C3519 C3518 1.394 . S
C3519 C3520 1.516 . S
C3520 C3519 1.516 . S
C3520 C3521 1.502 . S
C3520 C3522 1.561 . S
C3520 C3523 1.526 . S
C3521 H3505 0.959 . S
C3521 H3506 0.959 . S
C3521 H3507 0.961 . S
C3521 C3520 1.502 . S
C3522 H3508 0.960 . S
C3522 H3509 0.961 . S
C3522 H3510 0.959 . S
C3522 C3520 1.561 . S
C3523 C3520 1.526 . S
C3523 C3524 1.396 . S
C3523 C3528 1.390 . S
C3524 C3518 1.465 . S
C3524 C3523 1.396 . S
C3524 C3525 1.399 . S
C3525 H3511 0.929 . S
C3525 C3524 1.399 . S
C3525 C3526 1.385 . S
C3526 H3512 0.931 . S
C3526 C3525 1.385 . S
C3526 C3527 1.389 . S
C3527 C3526 1.389 . S
C3527 C3528 1.387 . S
C3528 H3513 0.930 . S
C3528 C3523 1.390 . S
C3528 C3527 1.387 . S
H3529 C3541 0.930 . S
H3530 C3543 0.930 . S
H3531 C3544 0.930 . S
H3532 C3548 0.959 . S
H3533 C3548 0.959 . S
H3534 C3548 0.961 . S
H3535 C3549 0.960 . S
H3536 C3549 0.961 . S
H3537 C3549 0.959 . S
H3538 C3552 0.929 . S
H3539 C3553 0.931 . S
H3540 C3555 0.930 . S
C3541 H3529 0.930 . S
C3541 C3542 1.399 . S
C3541 C3546 1.399 . S
C3542 C3541 1.399 . S
C3542 C3543 1.376 . S
C3543 H3530 0.930 . S
C3543 C3542 1.376 . S
C3543 C3544 1.388 . S
C3544 H3531 0.930 . S
C3544 C3543 1.388 . S
C3544 C3545 1.390 . S
C3545 C3544 1.390 . S
C3545 C3546 1.394 . S
C3545 C3551 1.465 . S
C3546 C3541 1.399 . S
C3546 C3545 1.394 . S
C3546 C3547 1.516 . S
C3547 C3546 1.516 . S
C3547 C3548 1.502 . S
C3547 C3549 1.561 . S
C3547 C3550 1.526 . S
C3548 H3532 0.959 . S
C3548 H3533 0.959 . S
C3548 H3534 0.961 . S
C3548 C3547 1.502 . S
C3549 H3535 0.960 . S
C3549 H3536 0.961 . S
C3549 H3537 0.959 . S
C3549 C3547 1.561 . S
C3550 C3547 1.526 . S
C3550 C3551 1.396 . S
C3550 C3555 1.390 . S
C3551 C3545 1.465 . S
C3551 C3550 1.396 . S
C3551 C3552 1.399 . S
C3552 H3538 0.929 . S
C3552 C3551 1.399 . S
C3552 C3553 1.385 . S
C3553 H3539 0.931 . S
C3553 C3552 1.385 . S
C3553 C3554 1.389 . S
C3554 C3553 1.389 . S
C3554 C3555 1.387 . S
C3555 H3540 0.930 . S
C3555 C3550 1.390 . S
C3555 C3554 1.387 . S
H3556 C3568 0.930 . S
H3557 C3570 0.930 . S
H3558 C3571 0.930 . S
H3559 C3575 0.959 . S
H3560 C3575 0.959 1_554 S
H3561 C3575 0.961 . S
H3562 C3576 0.960 . S
H3563 C3576 0.961 . S
H3564 C3576 0.959 1_556 S
H3565 C3579 0.929 . S
H3566 C3580 0.931 . S
H3567 C3582 0.930 1_554 S
C3568 H3556 0.930 . S
C3568 C3569 1.399 . S
C3568 C3573 1.399 . S
C3569 C3568 1.399 . S
C3569 C3570 1.376 . S
C3570 H3557 0.930 . S
C3570 C3569 1.376 . S
C3570 C3571 1.388 . S
C3571 H3558 0.930 . S
C3571 C3570 1.388 . S
C3571 C3572 1.390 . S
C3572 C3571 1.390 . S
C3572 C3573 1.394 . S
C3572 C3578 1.465 . S
C3573 C3568 1.399 . S
C3573 C3572 1.394 . S
C3573 C3574 1.516 . S
C3574 C3573 1.516 . S
C3574 C3575 1.502 . S
C3574 C3576 1.561 1_556 S
C3574 C3577 1.526 . S
C3575 H3559 0.959 . S
C3575 H3560 0.959 1_556 S
C3575 H3561 0.961 . S
C3575 C3574 1.502 . S
C3576 H3562 0.960 . S
C3576 H3563 0.961 . S
C3576 H3564 0.959 1_554 S
C3576 C3574 1.561 1_554 S
C3577 C3574 1.526 . S
C3577 C3578 1.396 . S
C3577 C3582 1.390 . S
C3578 C3572 1.465 . S
C3578 C3577 1.396 . S
C3578 C3579 1.399 . S
C3579 H3565 0.929 . S
C3579 C3578 1.399 . S
C3579 C3580 1.385 . S
C3580 H3566 0.931 . S
C3580 C3579 1.385 . S
C3580 C3581 1.389 . S
C3581 C3580 1.389 . S
C3581 C3582 1.387 . S
C3582 H3567 0.930 1_556 S
C3582 C3577 1.390 . S
C3582 C3581 1.387 . S
H3583 C3595 0.930 . S
H3584 C3597 0.930 . S
H3585 C3598 0.930 . S
H3586 C3602 0.959 . S
H3587 C3602 0.959 . S
H3588 C3602 0.961 . S
H3589 C3603 0.960 . S
H3590 C3603 0.961 . S
H3591 C3603 0.959 . S
H3592 C3606 0.929 . S
H3593 C3607 0.931 . S
H3594 C3609 0.930 . S
C3595 H3583 0.930 . S
C3595 C3596 1.399 . S
C3595 C3600 1.399 . S
C3596 C3595 1.399 . S
C3596 C3597 1.376 . S
C3597 H3584 0.930 . S
C3597 C3596 1.376 . S
C3597 C3598 1.388 . S
C3598 H3585 0.930 . S
C3598 C3597 1.388 . S
C3598 C3599 1.390 . S
C3599 C3598 1.390 . S
C3599 C3600 1.394 . S
C3599 C3605 1.465 . S
C3600 C3595 1.399 . S
C3600 C3599 1.394 . S
C3600 C3601 1.516 . S
C3601 C3600 1.516 . S
C3601 C3602 1.502 . S
C3601 C3603 1.561 . S
C3601 C3604 1.526 . S
C3602 H3586 0.959 . S
C3602 H3587 0.959 . S
C3602 H3588 0.961 . S
C3602 C3601 1.502 . S
C3603 H3589 0.960 . S
C3603 H3590 0.961 . S
C3603 H3591 0.959 . S
C3603 C3601 1.561 . S
C3604 C3601 1.526 . S
C3604 C3605 1.396 . S
C3604 C3609 1.390 . S
C3605 C3599 1.465 . S
C3605 C3604 1.396 . S
C3605 C3606 1.399 . S
C3606 H3592 0.929 . S
C3606 C3605 1.399 . S
C3606 C3607 1.385 . S
C3607 H3593 0.931 . S
C3607 C3606 1.385 . S
C3607 C3608 1.389 . S
C3608 C3607 1.389 . S
C3608 C3609 1.387 . S
C3609 H3594 0.930 . S
C3609 C3604 1.390 . S
C3609 C3608 1.387 . S
H3610 C3622 0.930 . S
H3611 C3624 0.930 . S
H3612 C3625 0.930 . S
H3613 C3629 0.959 . S
H3614 C3629 0.959 . S
H3615 C3629 0.961 . S
H3616 C3630 0.960 . S
H3617 C3630 0.961 . S
H3618 C3630 0.959 . S
H3619 C3633 0.929 . S
H3620 C3634 0.931 . S
H3621 C3636 0.930 . S
C3622 H3610 0.930 . S
C3622 C3623 1.399 . S
C3622 C3627 1.399 . S
C3623 C3622 1.399 . S
C3623 C3624 1.376 . S
C3624 H3611 0.930 . S
C3624 C3623 1.376 . S
C3624 C3625 1.388 . S
C3625 H3612 0.930 . S
C3625 C3624 1.388 . S
C3625 C3626 1.390 . S
C3626 C3625 1.390 . S
C3626 C3627 1.394 . S
C3626 C3632 1.465 . S
C3627 C3622 1.399 . S
C3627 C3626 1.394 . S
C3627 C3628 1.516 . S
C3628 C3627 1.516 . S
C3628 C3629 1.502 1_455 S
C3628 C3630 1.561 . S
C3628 C3631 1.526 . S
C3629 H3613 0.959 . S
C3629 H3614 0.959 . S
C3629 H3615 0.961 . S
C3629 C3628 1.502 1_655 S
C3630 H3616 0.960 . S
C3630 H3617 0.961 . S
C3630 H3618 0.959 . S
C3630 C3628 1.561 . S
C3631 C3628 1.526 . S
C3631 C3632 1.396 . S
C3631 C3636 1.390 . S
C3632 C3626 1.465 . S
C3632 C3631 1.396 . S
C3632 C3633 1.399 . S
C3633 H3619 0.929 . S
C3633 C3632 1.399 . S
C3633 C3634 1.385 . S
C3634 H3620 0.931 . S
C3634 C3633 1.385 . S
C3634 C3635 1.389 . S
C3635 C3634 1.389 . S
C3635 C3636 1.387 . S
C3636 H3621 0.930 . S
C3636 C3631 1.390 . S
C3636 C3635 1.387 . S
H3637 C3649 0.930 . S
H3638 C3651 0.930 . S
H3639 C3652 0.930 . S
H3640 C3656 0.959 . S
H3641 C3656 0.959 . S
H3642 C3656 0.961 . S
H3643 C3657 0.960 . S
H3644 C3657 0.961 . S
H3645 C3657 0.959 . S
H3646 C3660 0.929 . S
H3647 C3661 0.931 . S
H3648 C3663 0.930 . S
C3649 H3637 0.930 . S
C3649 C3650 1.399 . S
C3649 C3654 1.399 . S
C3650 C3649 1.399 . S
C3650 C3651 1.376 . S
C3651 H3638 0.930 . S
C3651 C3650 1.376 . S
C3651 C3652 1.388 . S
C3652 H3639 0.930 . S
C3652 C3651 1.388 . S
C3652 C3653 1.390 . S
C3653 C3652 1.390 . S
C3653 C3654 1.394 . S
C3653 C3659 1.465 . S
C3654 C3649 1.399 . S
C3654 C3653 1.394 . S
C3654 C3655 1.516 . S
C3655 C3654 1.516 . S
C3655 C3656 1.502 . S
C3655 C3657 1.561 . S
C3655 C3658 1.526 . S
C3656 H3640 0.959 . S
C3656 H3641 0.959 . S
C3656 H3642 0.961 . S
C3656 C3655 1.502 . S
C3657 H3643 0.960 . S
C3657 H3644 0.961 . S
C3657 H3645 0.959 . S
C3657 C3655 1.561 . S
C3658 C3655 1.526 . S
C3658 C3659 1.396 . S
C3658 C3663 1.390 . S
C3659 C3653 1.465 . S
C3659 C3658 1.396 . S
C3659 C3660 1.399 . S
C3660 H3646 0.929 . S
C3660 C3659 1.399 . S
C3660 C3661 1.385 . S
C3661 H3647 0.931 . S
C3661 C3660 1.385 . S
C3661 C3662 1.389 . S
C3662 C3661 1.389 . S
C3662 C3663 1.387 . S
C3663 H3648 0.930 . S
C3663 C3658 1.390 . S
C3663 C3662 1.387 . S
H3664 C3676 0.930 . S
H3665 C3678 0.930 . S
H3666 C3679 0.930 . S
H3667 C3683 0.959 . S
H3668 C3683 0.959 . S
H3669 C3683 0.961 . S
H3670 C3684 0.960 . S
H3671 C3684 0.961 . S
H3672 C3684 0.959 . S
H3673 C3687 0.929 . S
H3674 C3688 0.931 . S
H3675 C3690 0.930 . S
C3676 H3664 0.930 . S
C3676 C3677 1.399 . S
C3676 C3681 1.399 . S
C3677 C3676 1.399 . S
C3677 C3678 1.376 . S
C3678 H3665 0.930 . S
C3678 C3677 1.376 . S
C3678 C3679 1.388 . S
C3679 H3666 0.930 . S
C3679 C3678 1.388 . S
C3679 C3680 1.390 . S
C3680 C3679 1.390 . S
C3680 C3681 1.394 . S
C3680 C3686 1.465 . S
C3681 C3676 1.399 . S
C3681 C3680 1.394 . S
C3681 C3682 1.516 . S
C3682 C3681 1.516 . S
C3682 C3683 1.502 . S
C3682 C3684 1.561 . S
C3682 C3685 1.526 . S
C3683 H3667 0.959 . S
C3683 H3668 0.959 . S
C3683 H3669 0.961 . S
C3683 C3682 1.502 . S
C3684 H3670 0.960 . S
C3684 H3671 0.961 . S
C3684 H3672 0.959 . S
C3684 C3682 1.561 . S
C3685 C3682 1.526 . S
C3685 C3686 1.396 . S
C3685 C3690 1.390 . S
C3686 C3680 1.465 . S
C3686 C3685 1.396 . S
C3686 C3687 1.399 . S
C3687 H3673 0.929 . S
C3687 C3686 1.399 . S
C3687 C3688 1.385 . S
C3688 H3674 0.931 . S
C3688 C3687 1.385 . S
C3688 C3689 1.389 . S
C3689 C3688 1.389 . S
C3689 C3690 1.387 . S
C3690 H3675 0.930 . S
C3690 C3685 1.390 . S
C3690 C3689 1.387 . S
H3691 C3703 0.930 . S
H3692 C3705 0.930 . S
H3693 C3706 0.930 . S
H3694 C3710 0.959 . S
H3695 C3710 0.959 . S
H3696 C3710 0.961 . S
H3697 C3711 0.960 . S
H3698 C3711 0.961 . S
H3699 C3711 0.959 . S
H3700 C3714 0.929 . S
H3701 C3715 0.931 . S
H3702 C3717 0.930 . S
C3703 H3691 0.930 . S
C3703 C3704 1.399 . S
C3703 C3708 1.399 . S
C3704 C3703 1.399 . S
C3704 C3705 1.376 . S
C3705 H3692 0.930 . S
C3705 C3704 1.376 . S
C3705 C3706 1.388 . S
C3706 H3693 0.930 . S
C3706 C3705 1.388 . S
C3706 C3707 1.390 . S
C3707 C3706 1.390 . S
C3707 C3708 1.394 . S
C3707 C3713 1.465 . S
C3708 C3703 1.399 . S
C3708 C3707 1.394 . S
C3708 C3709 1.516 . S
C3709 C3708 1.516 . S
C3709 C3710 1.502 . S
C3709 C3711 1.561 . S
C3709 C3712 1.526 . S
C3710 H3694 0.959 . S
C3710 H3695 0.959 . S
C3710 H3696 0.961 . S
C3710 C3709 1.502 . S
C3711 H3697 0.960 . S
C3711 H3698 0.961 . S
C3711 H3699 0.959 . S
C3711 C3709 1.561 . S
C3712 C3709 1.526 . S
C3712 C3713 1.396 . S
C3712 C3717 1.390 . S
C3713 C3707 1.465 . S
C3713 C3712 1.396 . S
C3713 C3714 1.399 . S
C3714 H3700 0.929 . S
C3714 C3713 1.399 . S
C3714 C3715 1.385 . S
C3715 H3701 0.931 . S
C3715 C3714 1.385 . S
C3715 C3716 1.389 . S
C3716 C3715 1.389 . S
C3716 C3717 1.387 . S
C3717 H3702 0.930 . S
C3717 C3712 1.390 . S
C3717 C3716 1.387 . S
H3718 C3730 0.930 . S
H3719 C3732 0.929 . S
H3720 C3733 0.930 . S
H3721 C3737 0.959 . S
H3722 C3737 0.959 . S
H3723 C3737 0.961 . S
H3724 C3738 0.960 1_655 S
H3725 C3738 0.961 . S
H3726 C3738 0.959 . S
H3727 C3741 0.929 . S
H3728 C3742 0.931 . S
H3729 C3744 0.930 . S
C3730 H3718 0.930 . S
C3730 C3731 1.399 . S
C3730 C3735 1.399 . S
C3731 C3730 1.399 . S
C3731 C3732 1.359 1_655 S
C3732 H3719 0.929 . S
C3732 C3731 1.359 1_455 S
C3732 C3733 1.409 . S
C3733 H3720 0.930 . S
C3733 C3732 1.409 . S
C3733 C3734 1.390 . S
C3734 C3733 1.390 . S
C3734 C3735 1.394 1_455 S
C3734 C3740 1.465 . S
C3735 C3730 1.399 . S
C3735 C3734 1.394 1_655 S
C3735 C3736 1.516 . S
C3736 C3735 1.516 . S
C3736 C3737 1.502 . S
C3736 C3738 1.561 1_655 S
C3736 C3739 1.526 1_655 S
C3737 H3721 0.959 . S
C3737 H3722 0.959 . S
C3737 H3723 0.961 . S
C3737 C3736 1.502 . S
C3738 H3724 0.960 1_455 S
C3738 H3725 0.961 . S
C3738 H3726 0.959 . S
C3738 C3736 1.561 1_455 S
C3739 C3736 1.526 1_455 S
C3739 C3740 1.396 . S
C3739 C3744 1.390 . S
C3740 C3734 1.465 . S
C3740 C3739 1.396 . S
C3740 C3741 1.399 . S
C3741 H3727 0.929 . S
C3741 C3740 1.399 . S
C3741 C3742 1.385 . S
C3742 H3728 0.931 . S
C3742 C3741 1.385 . S
C3742 C3743 1.389 . S
C3743 C3742 1.389 . S
C3743 C3744 1.387 . S
C3744 H3729 0.930 . S
C3744 C3739 1.390 . S
C3744 C3743 1.387 . S
H3745 C3757 0.930 . S
H3746 C3759 0.930 . S
H3747 C3760 0.930 . S
H3748 C3764 0.959 . S
H3749 C3764 0.959 . S
H3750 C3764 0.961 . S
H3751 C3765 0.960 . S
H3752 C3765 0.961 . S
H3753 C3765 0.959 . S
H3754 C3768 0.929 . S
H3755 C3769 0.931 . S
H3756 C3771 0.930 . S
C3757 H3745 0.930 . S
C3757 C3758 1.399 . S
C3757 C3762 1.399 . S
C3758 C3757 1.399 . S
C3758 C3759 1.376 . S
C3759 H3746 0.930 . S
C3759 C3758 1.376 . S
C3759 C3760 1.388 . S
C3760 H3747 0.930 . S
C3760 C3759 1.388 . S
C3760 C3761 1.390 . S
C3761 C3760 1.390 . S
C3761 C3762 1.394 . S
C3761 C3767 1.465 . S
C3762 C3757 1.399 . S
C3762 C3761 1.394 . S
C3762 C3763 1.516 . S
C3763 C3762 1.516 . S
C3763 C3764 1.502 . S
C3763 C3765 1.561 . S
C3763 C3766 1.526 . S
C3764 H3748 0.959 . S
C3764 H3749 0.959 . S
C3764 H3750 0.961 . S
C3764 C3763 1.502 . S
C3765 H3751 0.960 . S
C3765 H3752 0.961 . S
C3765 H3753 0.959 . S
C3765 C3763 1.561 . S
C3766 C3763 1.526 . S
C3766 C3767 1.396 . S
C3766 C3771 1.390 . S
C3767 C3761 1.465 . S
C3767 C3766 1.396 . S
C3767 C3768 1.399 . S
C3768 H3754 0.929 . S
C3768 C3767 1.399 . S
C3768 C3769 1.385 . S
C3769 H3755 0.931 . S
C3769 C3768 1.385 . S
C3769 C3770 1.389 . S
C3770 C3769 1.389 . S
C3770 C3771 1.387 . S
C3771 H3756 0.930 . S
C3771 C3766 1.390 . S
C3771 C3770 1.387 . S
H3772 C3784 0.930 . S
H3773 C3786 0.930 . S
H3774 C3787 0.930 . S
H3775 C3791 0.959 . S
H3776 C3791 0.959 . S
H3777 C3791 0.961 . S
H3778 C3792 0.960 . S
H3779 C3792 0.961 . S
H3780 C3792 0.959 . S
H3781 C3795 0.929 . S
H3782 C3796 0.931 . S
H3783 C3798 0.930 . S
C3784 H3772 0.930 . S
C3784 C3785 1.399 . S
C3784 C3789 1.399 . S
C3785 C3784 1.399 . S
C3785 C3786 1.376 . S
C3786 H3773 0.930 . S
C3786 C3785 1.376 . S
C3786 C3787 1.388 . S
C3787 H3774 0.930 . S
C3787 C3786 1.388 . S
C3787 C3788 1.390 . S
C3788 C3787 1.390 . S
C3788 C3789 1.394 . S
C3788 C3794 1.465 . S
C3789 C3784 1.399 . S
C3789 C3788 1.394 . S
C3789 C3790 1.516 . S
C3790 C3789 1.516 . S
C3790 C3791 1.502 . S
C3790 C3792 1.561 . S
C3790 C3793 1.526 . S
C3791 H3775 0.959 . S
C3791 H3776 0.959 . S
C3791 H3777 0.961 . S
C3791 C3790 1.502 . S
C3792 H3778 0.960 . S
C3792 H3779 0.961 . S
C3792 H3780 0.959 . S
C3792 C3790 1.561 . S
C3793 C3790 1.526 . S
C3793 C3794 1.396 . S
C3793 C3798 1.390 . S
C3794 C3788 1.465 . S
C3794 C3793 1.396 . S
C3794 C3795 1.399 . S
C3795 H3781 0.929 . S
C3795 C3794 1.399 . S
C3795 C3796 1.385 . S
C3796 H3782 0.931 . S
C3796 C3795 1.385 . S
C3796 C3797 1.389 . S
C3797 C3796 1.389 . S
C3797 C3798 1.387 . S
C3798 H3783 0.930 . S
C3798 C3793 1.390 . S
C3798 C3797 1.387 . S
H3799 C3811 0.930 . S
H3800 C3813 0.930 . S
H3801 C3814 0.930 . S
H3802 C3818 0.959 . S
H3803 C3818 0.959 . S
H3804 C3818 0.961 . S
H3805 C3819 0.960 . S
H3806 C3819 0.961 . S
H3807 C3819 0.959 . S
H3808 C3822 0.929 . S
H3809 C3823 0.931 . S
H3810 C3825 0.930 . S
C3811 H3799 0.930 . S
C3811 C3812 1.399 . S
C3811 C3816 1.399 . S
C3812 C3811 1.399 . S
C3812 C3813 1.376 . S
C3813 H3800 0.930 . S
C3813 C3812 1.376 . S
C3813 C3814 1.388 . S
C3814 H3801 0.930 . S
C3814 C3813 1.388 . S
C3814 C3815 1.390 . S
C3815 C3814 1.390 . S
C3815 C3816 1.394 . S
C3815 C3821 1.465 . S
C3816 C3811 1.399 . S
C3816 C3815 1.394 . S
C3816 C3817 1.516 . S
C3817 C3816 1.516 . S
C3817 C3818 1.502 . S
C3817 C3819 1.561 . S
C3817 C3820 1.526 . S
C3818 H3802 0.959 . S
C3818 H3803 0.959 . S
C3818 H3804 0.961 . S
C3818 C3817 1.502 . S
C3819 H3805 0.960 . S
C3819 H3806 0.961 . S
C3819 H3807 0.959 . S
C3819 C3817 1.561 . S
C3820 C3817 1.526 . S
C3820 C3821 1.396 . S
C3820 C3825 1.390 . S
C3821 C3815 1.465 . S
C3821 C3820 1.396 . S
C3821 C3822 1.399 . S
C3822 H3808 0.929 . S
C3822 C3821 1.399 . S
C3822 C3823 1.385 . S
C3823 H3809 0.931 . S
C3823 C3822 1.385 . S
C3823 C3824 1.389 . S
C3824 C3823 1.389 . S
C3824 C3825 1.387 . S
C3825 H3810 0.930 . S
C3825 C3820 1.390 . S
C3825 C3824 1.387 . S
H3826 C3838 0.930 . S
H3827 C3840 0.930 . S
H3828 C3841 0.930 . S
H3829 C3845 0.959 . S
H3830 C3845 0.959 . S
H3831 C3845 0.961 . S
H3832 C3846 0.960 . S
H3833 C3846 0.961 . S
H3834 C3846 0.959 . S
H3835 C3849 0.929 . S
H3836 C3850 0.931 . S
H3837 C3852 0.924 1_455 S
C3838 H3826 0.930 . S
C3838 C3839 1.399 . S
C3838 C3843 1.399 . S
C3839 C3838 1.399 . S
C3839 C3840 1.376 . S
C3840 H3827 0.930 . S
C3840 C3839 1.376 . S
C3840 C3841 1.388 . S
C3841 H3828 0.930 . S
C3841 C3840 1.388 . S
C3841 C3842 1.390 . S
C3842 C3841 1.390 . S
C3842 C3843 1.394 . S
C3842 C3848 1.465 . S
C3843 C3838 1.399 . S
C3843 C3842 1.394 . S
C3843 C3844 1.516 . S
C3844 C3843 1.516 . S
C3844 C3845 1.502 1_655 S
C3844 C3846 1.561 . S
C3844 C3847 1.526 . S
C3845 H3829 0.959 . S
C3845 H3830 0.959 . S
C3845 H3831 0.961 . S
C3845 C3844 1.502 1_455 S
C3846 H3832 0.960 . S
C3846 H3833 0.961 . S
C3846 H3834 0.959 . S
C3846 C3844 1.561 . S
C3847 C3844 1.526 . S
C3847 C3848 1.396 . S
C3847 C3852 1.398 . S
C3848 C3842 1.465 . S
C3848 C3847 1.396 . S
C3848 C3849 1.399 . S
C3849 H3835 0.929 . S
C3849 C3848 1.399 . S
C3849 C3850 1.385 . S
C3850 H3836 0.931 . S
C3850 C3849 1.385 . S
C3850 C3851 1.404 . S
C3851 C3850 1.404 . S
C3851 C3852 1.390 . S
C3852 H3837 0.924 1_655 S
C3852 C3847 1.398 . S
C3852 C3851 1.390 . S
H3853 C3865 0.930 . S
H3854 C3867 0.930 . S
H3855 C3868 0.930 . S
H3856 C3872 0.959 . S
H3857 C3872 0.959 . S
H3858 C3872 0.961 . S
H3859 C3873 0.960 . S
H3860 C3873 0.961 . S
H3861 C3873 0.959 . S
H3862 C3876 0.929 . S
H3863 C3877 0.931 . S
H3864 C3879 0.930 . S
C3865 H3853 0.930 . S
C3865 C3866 1.399 . S
C3865 C3870 1.399 . S
C3866 C3865 1.399 . S
C3866 C3867 1.376 . S
C3867 H3854 0.930 . S
C3867 C3866 1.376 . S
C3867 C3868 1.388 . S
C3868 H3855 0.930 . S
C3868 C3867 1.388 . S
C3868 C3869 1.390 . S
C3869 C3868 1.390 . S
C3869 C3870 1.394 . S
C3869 C3875 1.465 . S
C3870 C3865 1.399 . S
C3870 C3869 1.394 . S
C3870 C3871 1.516 . S
C3871 C3870 1.516 . S
C3871 C3872 1.502 . S
C3871 C3873 1.561 . S
C3871 C3874 1.526 . S
C3872 H3856 0.959 . S
C3872 H3857 0.959 . S
C3872 H3858 0.961 . S
C3872 C3871 1.502 . S
C3873 H3859 0.960 . S
C3873 H3860 0.961 . S
C3873 H3861 0.959 . S
C3873 C3871 1.561 . S
C3874 C3871 1.526 . S
C3874 C3875 1.396 . S
C3874 C3879 1.390 . S
C3875 C3869 1.465 . S
C3875 C3874 1.396 . S
C3875 C3876 1.399 . S
C3876 H3862 0.929 . S
C3876 C3875 1.399 . S
C3876 C3877 1.385 . S
C3877 H3863 0.931 . S
C3877 C3876 1.385 . S
C3877 C3878 1.389 . S
C3878 C3877 1.389 . S
C3878 C3879 1.387 . S
C3879 H3864 0.930 . S
C3879 C3874 1.390 . S
C3879 C3878 1.387 . S
H3880 C3892 0.930 . S
H3881 C3894 0.930 . S
H3882 C3895 0.930 . S
H3883 C3899 0.959 . S
H3884 C3899 0.959 . S
H3885 C3899 0.961 . S
H3886 C3900 0.960 . S
H3887 C3900 0.961 . S
H3888 C3900 0.959 . S
H3889 C3903 0.929 . S
H3890 C3904 0.931 . S
H3891 C3906 0.930 . S
C3892 H3880 0.930 . S
C3892 C3893 1.399 . S
C3892 C3897 1.399 . S
C3893 C3892 1.399 . S
C3893 C3894 1.376 . S
C3894 H3881 0.930 . S
C3894 C3893 1.376 . S
C3894 C3895 1.388 . S
C3895 H3882 0.930 . S
C3895 C3894 1.388 . S
C3895 C3896 1.390 . S
C3896 C3895 1.390 . S
C3896 C3897 1.394 . S
C3896 C3902 1.465 . S
C3897 C3892 1.399 . S
C3897 C3896 1.394 . S
C3897 C3898 1.516 . S
C3898 C3897 1.516 . S
C3898 C3899 1.502 . S
C3898 C3900 1.561 . S
C3898 C3901 1.526 . S
C3899 H3883 0.959 . S
C3899 H3884 0.959 . S
C3899 H3885 0.961 . S
C3899 C3898 1.502 . S
C3900 H3886 0.960 . S
C3900 H3887 0.961 . S
C3900 H3888 0.959 . S
C3900 C3898 1.561 . S
C3901 C3898 1.526 . S
C3901 C3902 1.396 . S
C3901 C3906 1.390 . S
C3902 C3896 1.465 . S
C3902 C3901 1.396 . S
C3902 C3903 1.399 . S
C3903 H3889 0.929 . S
C3903 C3902 1.399 . S
C3903 C3904 1.385 . S
C3904 H3890 0.931 . S
C3904 C3903 1.385 . S
C3904 C3905 1.389 . S
C3905 C3904 1.389 . S
C3905 C3906 1.387 . S
C3906 H3891 0.930 . S
C3906 C3901 1.390 . S
C3906 C3905 1.387 . S
H3907 C3919 0.930 . S
H3908 C3921 0.930 . S
H3909 C3922 0.930 . S
H3910 C3926 0.959 . S
H3911 C3926 0.959 . S
H3912 C3926 0.961 . S
H3913 C3927 0.960 . S
H3914 C3927 0.960 1_545 S
H3915 C3927 0.959 1_545 S
H3916 C3930 0.929 . S
H3917 C3931 0.931 . S
H3918 C3933 0.930 . S
C3919 H3907 0.930 . S
C3919 C3920 1.399 . S
C3919 C3924 1.399 . S
C3920 C3919 1.399 . S
C3920 C3921 1.376 . S
C3921 H3908 0.930 . S
C3921 C3920 1.376 . S
C3921 C3922 1.388 1_565 S
C3922 H3909 0.930 . S
C3922 C3921 1.388 1_545 S
C3922 C3923 1.390 . S
C3923 C3922 1.390 . S
C3923 C3924 1.394 1_545 S
C3923 C3929 1.465 . S
C3924 C3919 1.399 . S
C3924 C3923 1.394 1_565 S
C3924 C3925 1.516 . S
C3925 C3924 1.516 . S
C3925 C3926 1.502 . S
C3925 C3927 1.561 . S
C3925 C3928 1.526 1_565 S
C3926 H3910 0.959 . S
C3926 H3911 0.959 . S
C3926 H3912 0.961 . S
C3926 C3925 1.502 . S
C3927 H3913 0.960 . S
C3927 H3914 0.960 1_565 S
C3927 H3915 0.959 1_565 S
C3927 C3925 1.561 . S
C3928 C3925 1.526 1_545 S
C3928 C3929 1.396 . S
C3928 C3933 1.390 . S
C3929 C3923 1.465 . S
C3929 C3928 1.396 . S
C3929 C3930 1.399 . S
C3930 H3916 0.929 . S
C3930 C3929 1.399 . S
C3930 C3931 1.385 . S
C3931 H3917 0.931 . S
C3931 C3930 1.385 . S
C3931 C3932 1.389 . S
C3932 C3931 1.389 . S
C3932 C3933 1.387 . S
C3933 H3918 0.930 . S
C3933 C3928 1.390 . S
C3933 C3932 1.387 . S
H3934 C3946 0.930 . S
H3935 C3948 0.930 . S
H3936 C3949 0.930 . S
H3937 C3953 0.959 . S
H3938 C3953 0.959 . S
H3939 C3953 0.961 . S
H3940 C3954 0.960 . S
H3941 C3954 0.961 . S
H3942 C3954 0.959 . S
H3943 C3957 0.929 . S
H3944 C3958 0.931 . S
H3945 C3960 0.930 . S
C3946 H3934 0.930 . S
C3946 C3947 1.399 . S
C3946 C3951 1.399 . S
C3947 C3946 1.399 . S
C3947 C3948 1.376 . S
C3948 H3935 0.930 . S
C3948 C3947 1.376 . S
C3948 C3949 1.388 . S
C3949 H3936 0.930 . S
C3949 C3948 1.388 . S
C3949 C3950 1.390 . S
C3950 C3949 1.390 . S
C3950 C3951 1.394 . S
C3950 C3956 1.465 . S
C3951 C3946 1.399 . S
C3951 C3950 1.394 . S
C3951 C3952 1.516 . S
C3952 C3951 1.516 . S
C3952 C3953 1.502 . S
C3952 C3954 1.561 . S
C3952 C3955 1.526 . S
C3953 H3937 0.959 . S
C3953 H3938 0.959 . S
C3953 H3939 0.961 . S
C3953 C3952 1.502 . S
C3954 H3940 0.960 . S
C3954 H3941 0.961 . S
C3954 H3942 0.959 . S
C3954 C3952 1.561 . S
C3955 C3952 1.526 . S
C3955 C3956 1.396 . S
C3955 C3960 1.390 . S
C3956 C3950 1.465 . S
C3956 C3955 1.396 . S
C3956 C3957 1.399 . S
C3957 H3943 0.929 . S
C3957 C3956 1.399 . S
C3957 C3958 1.385 . S
C3958 H3944 0.931 . S
C3958 C3957 1.385 . S
C3958 C3959 1.389 . S
C3959 C3958 1.389 . S
C3959 C3960 1.387 . S
C3960 H3945 0.930 . S
C3960 C3955 1.390 . S
C3960 C3959 1.387 . S
H3961 C3973 0.930 . S
H3962 C3975 0.930 . S
H3963 C3976 0.930 . S
H3964 C3980 0.959 . S
H3965 C3980 0.959 . S
H3966 C3980 0.961 . S
H3967 C3981 0.960 . S
H3968 C3981 0.961 . S
H3969 C3981 0.959 . S
H3970 C3984 0.929 . S
H3971 C3985 0.931 . S
H3972 C3987 0.930 . S
C3973 H3961 0.930 . S
C3973 C3974 1.424 . S
C3973 C3978 1.399 . S
C3974 C3973 1.424 . S
C3974 C3975 1.326 1_556 S
C3975 H3962 0.930 . S
C3975 C3974 1.326 1_554 S
C3975 C3976 1.388 . S
C3976 H3963 0.930 . S
C3976 C3975 1.388 . S
C3976 C3977 1.390 . S
C3977 C3976 1.390 . S
C3977 C3978 1.394 1_554 S
C3977 C3983 1.465 . S
C3978 C3973 1.399 . S
C3978 C3977 1.394 1_556 S
C3978 C3979 1.516 . S
C3979 C3978 1.516 . S
C3979 C3980 1.502 . S
C3979 C3981 1.561 . S
C3979 C3982 1.526 . S
C3980 H3964 0.959 . S
C3980 H3965 0.959 . S
C3980 H3966 0.961 . S
C3980 C3979 1.502 . S
C3981 H3967 0.960 . S
C3981 H3968 0.961 . S
C3981 H3969 0.959 . S
C3981 C3979 1.561 . S
C3982 C3979 1.526 . S
C3982 C3983 1.396 1_556 S
C3982 C3987 1.390 . S
C3983 C3977 1.465 . S
C3983 C3982 1.396 1_554 S
C3983 C3984 1.399 . S
C3984 H3970 0.929 . S
C3984 C3983 1.399 . S
C3984 C3985 1.385 . S
C3985 H3971 0.931 . S
C3985 C3984 1.385 . S
C3985 C3986 1.389 . S
C3986 C3985 1.389 . S
C3986 C3987 1.387 1_554 S
C3987 H3972 0.930 . S
C3987 C3982 1.390 . S
C3987 C3986 1.387 1_556 S
H3988 C4000 0.930 . S
H3989 C4002 0.930 . S
H3990 C4003 0.930 . S
H3991 C4007 0.959 . S
H3992 C4007 0.959 . S
H3993 C4007 0.961 . S
H3994 C4008 0.960 . S
H3995 C4008 0.961 . S
H3996 C4008 0.959 . S
H3997 C4011 0.929 . S
H3998 C4012 0.931 . S
H3999 C4014 0.930 . S
C4000 H3988 0.930 . S
C4000 C4001 1.399 . S
C4000 C4005 1.399 . S
C4001 C4000 1.399 . S
C4001 C4002 1.376 . S
C4002 H3989 0.930 . S
C4002 C4001 1.376 . S
C4002 C4003 1.388 . S
C4003 H3990 0.930 . S
C4003 C4002 1.388 . S
C4003 C4004 1.390 . S
C4004 C4003 1.390 . S
C4004 C4005 1.394 . S
C4004 C4010 1.465 . S
C4005 C4000 1.399 . S
C4005 C4004 1.394 . S
C4005 C4006 1.516 . S
C4006 C4005 1.516 . S
C4006 C4007 1.502 . S
C4006 C4008 1.561 . S
C4006 C4009 1.526 . S
C4007 H3991 0.959 . S
C4007 H3992 0.959 . S
C4007 H3993 0.961 . S
C4007 C4006 1.502 . S
C4008 H3994 0.960 . S
C4008 H3995 0.961 . S
C4008 H3996 0.959 . S
C4008 C4006 1.561 . S
C4009 C4006 1.526 . S
C4009 C4010 1.396 . S
C4009 C4014 1.390 . S
C4010 C4004 1.465 . S
C4010 C4009 1.396 . S
C4010 C4011 1.399 . S
C4011 H3997 0.929 . S
C4011 C4010 1.399 . S
C4011 C4012 1.385 . S
C4012 H3998 0.931 . S
C4012 C4011 1.385 . S
C4012 C4013 1.389 . S
C4013 C4012 1.389 . S
C4013 C4014 1.387 . S
C4014 H3999 0.930 . S
C4014 C4009 1.390 . S
C4014 C4013 1.387 . S
H4015 C4027 0.930 . S
H4016 C4029 0.930 . S
H4017 C4030 0.930 . S
H4018 C4034 0.959 . S
H4019 C4034 0.959 1_556 S
H4020 C4034 0.961 . S
H4021 C4035 0.960 . S
H4022 C4035 0.961 . S
H4023 C4035 0.959 . S
H4024 C4038 0.929 . S
H4025 C4039 0.931 . S
H4026 C4041 0.930 . S
C4027 H4015 0.930 . S
C4027 C4028 1.399 . S
C4027 C4032 1.399 . S
C4028 C4027 1.399 . S
C4028 C4029 1.376 . S
C4029 H4016 0.930 . S
C4029 C4028 1.376 . S
C4029 C4030 1.388 . S
C4030 H4017 0.930 . S
C4030 C4029 1.388 . S
C4030 C4031 1.390 . S
C4031 C4030 1.390 . S
C4031 C4032 1.394 . S
C4031 C4037 1.465 . S
C4032 C4027 1.399 . S
C4032 C4031 1.394 . S
C4032 C4033 1.516 1_554 S
C4033 C4032 1.516 1_556 S
C4033 C4034 1.502 1_556 S
C4033 C4035 1.561 . S
C4033 C4036 1.526 . S
C4034 H4018 0.959 . S
C4034 H4019 0.959 1_554 S
C4034 H4020 0.961 . S
C4034 C4033 1.502 1_554 S
C4035 H4021 0.960 . S
C4035 H4022 0.961 . S
C4035 H4023 0.959 . S
C4035 C4033 1.561 . S
C4036 C4033 1.526 . S
C4036 C4037 1.396 1_556 S
C4036 C4041 1.390 . S
C4037 C4031 1.465 . S
C4037 C4036 1.396 1_554 S
C4037 C4038 1.399 . S
C4038 H4024 0.929 . S
C4038 C4037 1.399 . S
C4038 C4039 1.385 . S
C4039 H4025 0.931 . S
C4039 C4038 1.385 . S
C4039 C4040 1.389 1_554 S
C4040 C4039 1.389 1_556 S
C4040 C4041 1.387 . S
C4041 H4026 0.930 . S
C4041 C4036 1.390 . S
C4041 C4040 1.387 . S
H4042 C4054 0.930 . S
H4043 C4056 0.930 . S
H4044 C4057 0.930 . S
H4045 C4061 0.959 . S
H4046 C4061 0.959 . S
H4047 C4061 0.961 . S
H4048 C4062 0.960 . S
H4049 C4062 0.961 . S
H4050 C4062 0.959 . S
H4051 C4065 0.929 . S
H4052 C4066 0.931 . S
H4053 C4068 0.930 . S
C4054 H4042 0.930 . S
C4054 C4055 1.399 . S
C4054 C4059 1.399 . S
C4055 C4054 1.399 . S
C4055 C4056 1.376 . S
C4056 H4043 0.930 . S
C4056 C4055 1.376 . S
C4056 C4057 1.388 . S
C4057 H4044 0.930 . S
C4057 C4056 1.388 . S
C4057 C4058 1.390 . S
C4058 C4057 1.390 . S
C4058 C4059 1.394 . S
C4058 C4064 1.465 . S
C4059 C4054 1.399 . S
C4059 C4058 1.394 . S
C4059 C4060 1.516 . S
C4060 C4059 1.516 . S
C4060 C4061 1.502 . S
C4060 C4062 1.561 . S
C4060 C4063 1.526 . S
C4061 H4045 0.959 . S
C4061 H4046 0.959 . S
C4061 H4047 0.961 . S
C4061 C4060 1.502 . S
C4062 H4048 0.960 . S
C4062 H4049 0.961 . S
C4062 H4050 0.959 . S
C4062 C4060 1.561 . S
C4063 C4060 1.526 . S
C4063 C4064 1.396 . S
C4063 C4068 1.390 . S
C4064 C4058 1.465 . S
C4064 C4063 1.396 . S
C4064 C4065 1.399 . S
C4065 H4051 0.929 . S
C4065 C4064 1.399 . S
C4065 C4066 1.385 . S
C4066 H4052 0.931 . S
C4066 C4065 1.385 . S
C4066 C4067 1.389 . S
C4067 C4066 1.389 . S
C4067 C4068 1.387 . S
C4068 H4053 0.930 . S
C4068 C4063 1.390 . S
C4068 C4067 1.387 . S
H4069 C4081 0.930 . S
H4070 C4083 0.930 . S
H4071 C4084 0.930 . S
H4072 C4088 0.959 . S
H4073 C4088 0.959 . S
H4074 C4088 0.961 . S
H4075 C4089 0.960 . S
H4076 C4089 0.961 . S
H4077 C4089 0.959 . S
H4078 C4092 0.929 . S
H4079 C4093 0.931 . S
H4080 C4095 0.930 . S
C4081 H4069 0.930 . S
C4081 C4082 1.399 . S
C4081 C4086 1.399 . S
C4082 C4081 1.399 . S
C4082 C4083 1.376 . S
C4083 H4070 0.930 . S
C4083 C4082 1.376 . S
C4083 C4084 1.388 . S
C4084 H4071 0.930 . S
C4084 C4083 1.388 . S
C4084 C4085 1.390 . S
C4085 C4084 1.390 . S
C4085 C4086 1.394 . S
C4085 C4091 1.465 . S
C4086 C4081 1.399 . S
C4086 C4085 1.394 . S
C4086 C4087 1.516 . S
C4087 C4086 1.516 . S
C4087 C4088 1.502 . S
C4087 C4089 1.561 . S
C4087 C4090 1.526 . S
C4088 H4072 0.959 . S
C4088 H4073 0.959 . S
C4088 H4074 0.961 . S
C4088 C4087 1.502 . S
C4089 H4075 0.960 . S
C4089 H4076 0.961 . S
C4089 H4077 0.959 . S
C4089 C4087 1.561 . S
C4090 C4087 1.526 . S
C4090 C4091 1.396 . S
C4090 C4095 1.390 . S
C4091 C4085 1.465 . S
C4091 C4090 1.396 . S
C4091 C4092 1.399 . S
C4092 H4078 0.929 . S
C4092 C4091 1.399 . S
C4092 C4093 1.385 . S
C4093 H4079 0.931 . S
C4093 C4092 1.385 . S
C4093 C4094 1.389 . S
C4094 C4093 1.389 . S
C4094 C4095 1.387 . S
C4095 H4080 0.930 . S
C4095 C4090 1.390 . S
C4095 C4094 1.387 . S
C1517 C255 2.094 . S
C1529 C874 2.008 . S
C1544 C147 1.748 . S
C1556 C913 1.748 . S
C1571 C184 1.369 . S
C1583 C954 1.364 . S
C1610 C999 1.385 . S
C1598 C220 1.449 . S
C1625 C40 2.009 . S
C1637 C1043 1.981 . S
C1664 C1074 1.352 . S
C1652 C74 1.407 . S
C1691 C1122 2.009 . S
C1679 C110 1.997 . S
C1706 C14 1.632 . S
C1718 C1150 1.673 . S
C1745 C882 1.528 . S
C1733 C579 1.471 . S
C1760 C616 1.566 . S
C1772 C923 1.522 . S
C1799 C962 1.480 . S
C1787 C687 1.503 . S
C1826 C994 1.525 . S
C1814 C436 1.511 . S
C1841 C580 0.279 . S
C1853 C1030 0.358 . S
C1880 C1082 2.246 . S
C1868 C615 2.260 . S
C1907 C1119 1.170 . S
C1895 C688 1.035 . S
C1934 C1153 1.984 . S
C1922 C435 1.987 . S
C1961 C879 1.844 . S
C1949 C410 1.885 . S
C1976 C722 2.030 . S
C1988 C1193 1.973 . S
C2015 C1239 1.346 . S
C2003 C842 1.353 . S
C2042 C1274 1.524 1_655 S
C2030 C794 1.573 . S
C2057 C302 1.900 . S
C2069 C1163 1.893 . S
C2084 C338 1.429 . S
C2096 C959 1.412 . S
C2111 C830 1.369 . S
C2123 C1322 1.374 . S
C2150 C1350 0.416 . S
C2138 C758 0.450 . S
C2177 C883 1.991 1_565 S
C2165 C158 1.982 . S
C2204 C1362 1.736 . S
C2192 C254 1.755 . S
C2219 C218 1.380 . S
C2231 C963 1.387 . S
C2246 C194 1.309 . S
C2258 C1310 1.429 . S
C2285 C1034 1.968 . S
C2273 C3 1.976 . S
C2300 C111 1.360 . S
C2312 C1243 1.273 . S
C2339 C1113 1.918 . S
C2327 C76 1.913 . S
C2366 C1399 1.673 . S
C2354 C50 1.683 . S
C2393 C873 1.499 . S
C2381 C364 1.522 . S
C2420 C1354 1.384 . S
C2408 C795 1.447 . S
C2435 C292 1.335 . S
C2447 C953 1.453 . S
C2462 C723 1.455 . S
C2474 C1323 1.458 . S
C2489 C363 0.240 . S
C2501 C1039 0.264 . S
C2528 C1233 2.229 . S
C2516 C796 2.210 . S
C2543 C291 1.029 . S
C2555 C1110 1.125 . S
C2570 C724 1.979 . S
C2582 C1402 1.972 . S
C2597 C482 1.772 . S
C2609 C870 1.865 . S
C2624 C434 2.003 . S
C2636 C1202 2.002 . S
C2651 C662 1.060 . S
C2663 C1070 1.312 . S
C2678 C614 1.589 . S
C2690 C1283 1.545 . S
C2717 C1394 1.931 . S
C2705 C698 1.797 . S
C2732 C554 1.353 . S
C2744 C950 1.358 . S
C2771 C993 1.352 . S
C2759 C650 1.262 . S
C2798 C919 0.475 . S
C2786 C506 0.494 . S
C2813 C183 2.081 . S
C2825 C1434 2.060 . S
C2852 C1353 1.699 . S
C2840 C219 1.775 . S
C2867 C256 1.364 . S
C2879 C1474 1.358 1_556 S
C2894 C148 1.406 . S
C2906 C1319 1.439 . S
C2921 C122 1.958 . S
C2933 C1203 2.048 . S
C2960 C1234 1.262 . S
C2948 C2 1.341 . S
C2987 C1282 1.875 . S
C2975 C39 1.869 . S
C3014 C1390 1.658 . S
C3002 C86 1.715 . S
C3041 C1442 1.553 . S
C3029 C651 1.503 . S
C3056 C472 1.556 . S
C3068 C1363 1.483 . S
C3095 C1482 1.490 . S
C3083 C507 1.449 . S
C3122 C1314 1.522 . S
C3110 C544 1.505 . S
C3149 C1190 0.345 . S
C3137 C652 0.288 . S
C3164 C471 2.239 . S
C3176 C1242 2.208 . S
C3203 C1279 1.131 . S
C3191 C508 0.988 . S
C3218 C543 1.977 . S
C3230 C1393 1.973 . S
C3257 C1439 1.821 . S
C3245 C806 1.890 . S
C3272 C326 2.012 . S
C3284 C1033 1.955 . S
C3311 C1079 1.221 . S
C3299 C374 1.310 . S
C3338 C1114 1.572 . S
C3326 C398 1.600 . S
C3365 C1403 1.872 . S
C3353 C770 1.887 . S
C3380 C734 1.419 . S
C3392 C1479 1.405 . S
C3419 C1002 1.362 . S
C3407 C362 1.370 . S
C3446 C910 0.552 . S
C3434 C290 0.488 . S
C3461 C230 2.008 . S
C3473 C1443 2.042 . S
C3500 C922 1.712 . S
C3488 C182 1.782 . S
C3515 C146 1.371 . S
C3527 C1483 1.383 . S
C3542 C266 1.343 . S
C3554 C990 1.402 . S
C3569 C75 2.036 . S
C3581 C1194 2.021 1_556 S
C3608 C1083 1.424 . S
C3596 C38 1.460 . S
C3623 C4 1.861 . S
C3635 C1273 1.868 . S
C3650 C112 1.683 . S
C3662 C1159 1.651 . S
C3689 C1433 1.514 . S
C3677 C832 1.490 . S
C3704 C399 1.462 . S
C3716 C914 1.383 . S
C3743 C1473 1.399 . S
C3731 C760 1.417 . S
C3758 C327 1.452 . S
C3770 C1003 1.454 . S
C3785 C831 0.236 . S
C3797 C1199 0.246 . S
C3824 C1073 2.224 . S
C3812 C400 2.217 1_556 S
C3839 C759 1.168 . S
C3851 C1270 1.013 1_655 S
C3878 C1162 1.954 . S
C3866 C328 1.964 . S
C3905 C1430 1.818 . S
C3893 C626 1.844 . S
C3932 C1042 1.955 1_655 S
C3920 C542 2.025 . S
C3947 C590 1.054 . S
C3959 C1230 1.269 . S
C3986 C1123 1.514 . S
C3974 C470 1.569 . S
C4001 C518 1.755 . S
C4013 C1154 1.911 . S
C4028 C446 1.340 . S
C4040 C1470 1.349 . S
C4067 C1313 1.314 . S
C4055 C578 1.343 . S
C4094 C1359 0.492 . S
C4082 C686 0.469 . S
