# Generated by pormake.
# Topology pyr, (3,6)-cn, num edge types: 1
# Building blocks:
#     Node 0, Type 0, BuildingBlock: WUSLED_clean_sbu_0, # of connection points: 3
#     Node 1, Type 0, BuildingBlock: WUSLED_clean_sbu_0, # of connection points: 3
#     Node 2, Type 0, BuildingBlock: WUSLED_clean_sbu_0, # of connection points: 3
#     Node 3, Type 0, BuildingBlock: WUSLED_clean_sbu_0, # of connection points: 3
#     Node 4, Type 0, BuildingBlock: WUSLED_clean_sbu_0, # of connection points: 3
#     Node 5, Type 0, BuildingBlock: WUSLED_clean_sbu_0, # of connection points: 3
#     Node 6, Type 0, BuildingBlock: WUSLED_clean_sbu_0, # of connection points: 3
#     Node 7, Type 0, BuildingBlock: WUSLED_clean_sbu_0, # of connection points: 3
#     Node 8, Type 1, BuildingBlock: BETFEN_clean_sbu_0, # of connection points: 6
#     Node 9, Type 1, BuildingBlock: BETFEN_clean_sbu_0, # of connection points: 6
#     Node 10, Type 1, BuildingBlock: BETFEN_clean_sbu_0, # of connection points: 6
#     Node 11, Type 1, BuildingBlock: BETFEN_clean_sbu_0, # of connection points: 6
#     Edge 12, Type (0, 1), BuildingBlock: KIFKEQ_clean_linker_1, # of connection points: 2
#     Edge 13, Type (0, 1), BuildingBlock: KIFKEQ_clean_linker_1, # of connection points: 2
#     Edge 14, Type (0, 1), BuildingBlock: KIFKEQ_clean_linker_1, # of connection points: 2
#     Edge 15, Type (0, 1), BuildingBlock: KIFKEQ_clean_linker_1, # of connection points: 2
#     Edge 16, Type (0, 1), BuildingBlock: KIFKEQ_clean_linker_1, # of connection points: 2
#     Edge 17, Type (0, 1), BuildingBlock: KIFKEQ_clean_linker_1, # of connection points: 2
#     Edge 18, Type (0, 1), BuildingBlock: KIFKEQ_clean_linker_1, # of connection points: 2
#     Edge 19, Type (0, 1), BuildingBlock: KIFKEQ_clean_linker_1, # of connection points: 2
#     Edge 20, Type (0, 1), BuildingBlock: KIFKEQ_clean_linker_1, # of connection points: 2
#     Edge 21, Type (0, 1), BuildingBlock: KIFKEQ_clean_linker_1, # of connection points: 2
#     Edge 22, Type (0, 1), BuildingBlock: KIFKEQ_clean_linker_1, # of connection points: 2
#     Edge 23, Type (0, 1), BuildingBlock: KIFKEQ_clean_linker_1, # of connection points: 2
#     Edge 24, Type (0, 1), BuildingBlock: KIFKEQ_clean_linker_1, # of connection points: 2
#     Edge 25, Type (0, 1), BuildingBlock: KIFKEQ_clean_linker_1, # of connection points: 2
#     Edge 26, Type (0, 1), BuildingBlock: KIFKEQ_clean_linker_1, # of connection points: 2
#     Edge 27, Type (0, 1), BuildingBlock: KIFKEQ_clean_linker_1, # of connection points: 2
#     Edge 28, Type (0, 1), BuildingBlock: KIFKEQ_clean_linker_1, # of connection points: 2
#     Edge 29, Type (0, 1), BuildingBlock: KIFKEQ_clean_linker_1, # of connection points: 2
#     Edge 30, Type (0, 1), BuildingBlock: KIFKEQ_clean_linker_1, # of connection points: 2
#     Edge 31, Type (0, 1), BuildingBlock: KIFKEQ_clean_linker_1, # of connection points: 2
#     Edge 32, Type (0, 1), BuildingBlock: KIFKEQ_clean_linker_1, # of connection points: 2
#     Edge 33, Type (0, 1), BuildingBlock: KIFKEQ_clean_linker_1, # of connection points: 2
#     Edge 34, Type (0, 1), BuildingBlock: KIFKEQ_clean_linker_1, # of connection points: 2
#     Edge 35, Type (0, 1), BuildingBlock: KIFKEQ_clean_linker_1, # of connection points: 2
# Relax obj value: 0.119
# Max RMSD: 0.226
# Mean RMSD: 0.104
data_MOF--net-pyr--node1-WUSLED_clean_sbu_0--node2-BETFEN_clean_sbu_0--edge1-KIFKEQ_clean_linker_1
_symmetry_space_group_name_H-M    P1
_symmetry_Int_Tables_number       1
_symmetry_cell_setting            triclinic
loop_
_symmetry_equiv_pos_as_xyz
'x, y, z'
_cell_length_a     48.411978
_cell_length_b     52.671844
_cell_length_c     50.330726
_cell_angle_alpha  90.969307
_cell_angle_beta   99.661631
_cell_angle_gamma 106.91577
loop_
_atom_site_label
_atom_site_type_symbol
_atom_site_fract_x
_atom_site_fract_y
_atom_site_fract_z
_atom_type_partial_charge
C0 C 0.29787 0.32757 0.19307 0.0
C1 C 0.27219 0.32577 0.20335 0.0
C2 C 0.26497 0.3618 0.17694 0.0
C3 C 0.25576 0.34285 0.19531 0.0
C4 C 0.29192 0.365 0.16849 0.0
C5 C 0.30836 0.34783 0.17654 0.0
U6 U 0.3032 0.27308 0.23542 0.0
O7 O 0.3066 0.23301 0.22859 0.0
O8 O 0.34099 0.26239 0.25724 0.0
C9 C 0.33347 0.23973 0.24262 0.0
C10 C 0.31283 0.30764 0.19933 0.0
C11 C 0.35526 0.23717 0.2271 0.0
C12 C 0.37384 0.24267 0.18519 0.0
C13 C 0.35427 0.24634 0.20099 0.0
C14 C 0.39715 0.22287 0.22242 0.0
C15 C 0.39485 0.23034 0.19567 0.0
C16 C 0.37724 0.22619 0.2381 0.0
C17 C 0.25607 0.25694 0.28667 0.0
C18 C 0.26312 0.22223 0.31547 0.0
C19 C 0.22644 0.24422 0.32081 0.0
C20 C 0.23405 0.26005 0.29985 0.0
C21 C 0.24085 0.22518 0.32866 0.0
C22 C 0.27075 0.23813 0.29451 0.0
C23 C 0.26414 0.27342 0.26486 0.0
O24 O 0.32888 0.31144 0.22365 0.0
O25 O 0.29582 0.28303 0.19321 0.0
O26 O 0.25733 0.2604 0.24099 0.0
O27 O 0.29105 0.28961 0.27031 0.0
H28 H 0.26411 0.3103 0.2165 0.0
H29 H 0.23481 0.33985 0.20171 0.0
H30 H 0.29919 0.37962 0.15429 0.0
H31 H 0.32844 0.34962 0.16895 0.0
H32 H 0.37172 0.24822 0.16448 0.0
H33 H 0.33768 0.25544 0.19249 0.0
H34 H 0.41304 0.21285 0.23051 0.0
H35 H 0.37841 0.21948 0.25838 0.0
H36 H 0.27418 0.20741 0.32107 0.0
H37 H 0.20854 0.24618 0.33021 0.0
H38 H 0.22255 0.27442 0.29372 0.0
H39 H 0.28786 0.23563 0.28426 0.0
C40 C 0.20337 0.83275 0.67753 0.0
C41 C 0.19955 0.85288 0.69397 0.0
C42 C 0.16885 0.86565 0.65542 0.0
C43 C 0.18236 0.86914 0.68303 0.0
C44 C 0.17206 0.84466 0.63968 0.0
C45 C 0.1891 0.82869 0.65051 0.0
U46 U 0.26227 0.7997 0.71836 0.0
O47 O 0.25812 0.75686 0.71151 0.0
O48 O 0.29227 0.78747 0.69618 0.0
C49 C 0.27947 0.76196 0.69747 0.0
C50 C 0.22289 0.81615 0.68642 0.0
C51 C 0.29723 0.74345 0.69658 0.0
C52 C 0.30499 0.70691 0.67145 0.0
C53 C 0.28727 0.72261 0.67629 0.0
C54 C 0.34276 0.73176 0.70809 0.0
C55 C 0.33325 0.71145 0.68694 0.0
C56 C 0.32499 0.74772 0.71275 0.0
C57 C 0.3017 0.83079 0.79418 0.0
C58 C 0.34401 0.83267 0.82882 0.0
C59 C 0.31474 0.86221 0.83345 0.0
C60 C 0.29618 0.85077 0.80927 0.0
C61 C 0.33934 0.85382 0.84329 0.0
C62 C 0.32538 0.8213 0.80432 0.0
C63 C 0.28387 0.82288 0.76694 0.0
O64 O 0.25129 0.82637 0.68775 0.0
O65 O 0.2158 0.7977 0.70344 0.0
O66 O 0.26146 0.80107 0.76229 0.0
O67 O 0.29562 0.83098 0.7457 0.0
H68 H 0.21025 0.85639 0.71497 0.0
H69 H 0.18049 0.88494 0.69598 0.0
H70 H 0.16148 0.84048 0.6187 0.0
H71 H 0.19155 0.81322 0.63743 0.0
H72 H 0.29692 0.69196 0.65469 0.0
H73 H 0.2661 0.71919 0.66328 0.0
H74 H 0.36414 0.73565 0.72078 0.0
H75 H 0.33322 0.76377 0.72844 0.0
H76 H 0.36249 0.82543 0.83607 0.0
H77 H 0.3106 0.87865 0.84362 0.0
H78 H 0.27812 0.85848 0.80166 0.0
H79 H 0.32998 0.80581 0.793 0.0
C80 C 0.62958 0.34877 0.7434 0.0
C81 C 0.65078 0.37356 0.743 0.0
C82 C 0.61928 0.38539 0.70461 0.0
C83 C 0.64571 0.39166 0.7237 0.0
C84 C 0.59881 0.36017 0.70481 0.0
C85 C 0.60386 0.34228 0.7239 0.0
U86 U 0.66864 0.32087 0.80602 0.0
O87 O 0.6489 0.30152 0.83998 0.0
O88 O 0.6667 0.279 0.813 0.0
C89 C 0.65455 0.27926 0.83445 0.0
C90 C 0.63243 0.32939 0.7641 0.0
C91 C 0.64296 0.25472 0.84816 0.0
C92 C 0.60441 0.21421 0.85309 0.0
C93 C 0.61517 0.23658 0.83869 0.0
C94 C 0.64932 0.22754 0.88618 0.0
C95 C 0.62123 0.20951 0.87723 0.0
C96 C 0.65996 0.24985 0.87185 0.0
C97 C 0.74831 0.36566 0.83895 0.0
C98 C 0.78429 0.36081 0.87708 0.0
C99 C 0.79307 0.40165 0.85407 0.0
C100 C 0.76648 0.39119 0.83646 0.0
C101 C 0.80255 0.38671 0.87462 0.0
C102 C 0.75726 0.35035 0.85936 0.0
C103 C 0.72018 0.35667 0.81994 0.0
O104 O 0.65091 0.31573 0.76218 0.0
O105 O 0.63254 0.33683 0.78918 0.0
O106 O 0.69665 0.35794 0.82896 0.0
O107 O 0.71554 0.3358 0.80324 0.0
H108 H 0.6709 0.37906 0.75782 0.0
H109 H 0.66205 0.41084 0.72427 0.0
H110 H 0.57857 0.35417 0.69018 0.0
H111 H 0.58727 0.3233 0.72365 0.0
H112 H 0.58288 0.2006 0.84531 0.0
H113 H 0.60168 0.23984 0.82039 0.0
H114 H 0.66283 0.22488 0.90473 0.0
H115 H 0.68145 0.26361 0.87955 0.0
H116 H 0.79088 0.34864 0.89255 0.0
H117 H 0.80582 0.42186 0.85186 0.0
H118 H 0.75986 0.40335 0.82095 0.0
H119 H 0.74342 0.33054 0.86164 0.0
C120 C 0.78003 0.64177 0.34535 0.0
C121 C 0.78137 0.65782 0.36848 0.0
C122 C 0.73675 0.62592 0.37967 0.0
C123 C 0.75998 0.65007 0.38531 0.0
C124 C 0.73544 0.61035 0.35611 0.0
C125 C 0.75663 0.6181 0.33941 0.0
U126 U 0.84952 0.67707 0.30907 0.0
O127 O 0.87708 0.65342 0.29591 0.0
O128 O 0.85001 0.66993 0.26542 0.0
C129 C 0.86879 0.65613 0.27016 0.0
C130 C 0.80287 0.6477 0.32751 0.0
C131 C 0.8802 0.64505 0.24773 0.0
C132 C 0.88747 0.60715 0.22347 0.0
C133 C 0.87613 0.61758 0.2439 0.0
C134 C 0.90794 0.65144 0.21027 0.0
C135 C 0.90409 0.6238 0.20627 0.0
C136 C 0.89602 0.66176 0.23037 0.0
C137 C 0.88829 0.75233 0.34539 0.0
C138 C 0.92454 0.79631 0.35666 0.0
C139 C 0.88355 0.78341 0.38008 0.0
C140 C 0.87303 0.75852 0.36483 0.0
C141 C 0.90961 0.80287 0.3763 0.0
C142 C 0.91405 0.77162 0.34155 0.0
C143 C 0.87883 0.72634 0.32872 0.0
O144 O 0.80119 0.66342 0.30766 0.0
O145 O 0.83003 0.64879 0.33781 0.0
O146 O 0.88465 0.70521 0.3388 0.0
O147 O 0.856 0.72061 0.30895 0.0
H148 H 0.79912 0.67614 0.37375 0.0
H149 H 0.76219 0.66272 0.40318 0.0
H150 H 0.71789 0.59198 0.35034 0.0
H151 H 0.75488 0.60522 0.32179 0.0
H152 H 0.88282 0.5858 0.22124 0.0
H153 H 0.8639 0.60399 0.25668 0.0
H154 H 0.92072 0.66548 0.19828 0.0
H155 H 0.89981 0.68305 0.23273 0.0
H156 H 0.94486 0.81007 0.35316 0.0
H157 H 0.87101 0.78747 0.39464 0.0
H158 H 0.85304 0.74416 0.36826 0.0
H159 H 0.9264 0.76751 0.3268 0.0
C160 C 0.75176 0.70884 0.85062 0.0
C161 C 0.77133 0.70521 0.83428 0.0
C162 C 0.7937 0.68344 0.87 0.0
C163 C 0.79222 0.69256 0.84392 0.0
C164 C 0.77301 0.68586 0.88567 0.0
C165 C 0.75222 0.69862 0.87605 0.0
U166 U 0.73855 0.75943 0.80437 0.0
O167 O 0.69926 0.77045 0.78689 0.0
O168 O 0.73703 0.79994 0.81195 0.0
C169 C 0.70939 0.79398 0.80014 0.0
C170 C 0.73445 0.72687 0.84289 0.0
C171 C 0.69075 0.79971 0.81762 0.0
C172 C 0.67358 0.79444 0.86028 0.0
C173 C 0.688 0.78648 0.84151 0.0
C174 C 0.66355 0.82795 0.83066 0.0
C175 C 0.66161 0.81532 0.85486 0.0
C176 C 0.67822 0.8202 0.81207 0.0
C177 C 0.78604 0.77722 0.75201 0.0
C178 C 0.78617 0.81627 0.7272 0.0
C179 C 0.82304 0.79376 0.72488 0.0
C180 C 0.81051 0.77522 0.742 0.0
C181 C 0.81116 0.81454 0.71752 0.0
C182 C 0.77361 0.79761 0.74445 0.0
C183 C 0.77594 0.75981 0.77269 0.0
O184 O 0.75003 0.75203 0.84689 0.0
O185 O 0.71705 0.72091 0.81914 0.0
O186 O 0.78367 0.77162 0.79713 0.0
O187 O 0.74843 0.74483 0.76702 0.0
H188 H 0.77145 0.7134 0.81467 0.0
H189 H 0.80796 0.6909 0.83152 0.0
H190 H 0.7741 0.67945 0.90605 0.0
H191 H 0.73761 0.70177 0.88902 0.0
H192 H 0.6723 0.78483 0.87909 0.0
H193 H 0.69795 0.77072 0.84602 0.0
H194 H 0.65456 0.84439 0.82664 0.0
H195 H 0.68061 0.83071 0.79387 0.0
H196 H 0.77681 0.83226 0.7219 0.0
H197 H 0.84284 0.79248 0.71837 0.0
H198 H 0.8206 0.75991 0.74822 0.0
H199 H 0.75487 0.79954 0.75254 0.0
C200 C 0.7501 0.22272 0.26089 0.0
C201 C 0.7617 0.20489 0.24883 0.0
C202 C 0.71877 0.19273 0.21213 0.0
C203 C 0.74624 0.19014 0.2245 0.0
C204 C 0.70808 0.21136 0.22421 0.0
C205 C 0.72363 0.2262 0.24805 0.0
U206 U 0.79562 0.25101 0.33567 0.0
O207 O 0.80597 0.29382 0.348 0.0
O208 O 0.77293 0.26404 0.36517 0.0
C209 C 0.78662 0.28937 0.36417 0.0
C210 C 0.7634 0.2374 0.28735 0.0
C211 C 0.76923 0.30819 0.36574 0.0
C212 C 0.72727 0.32484 0.35098 0.0
C213 C 0.74515 0.30893 0.34598 0.0
C214 C 0.75829 0.34008 0.39458 0.0
C215 C 0.7331 0.33987 0.3759 0.0
C216 C 0.77589 0.3244 0.38963 0.0
C217 C 0.85357 0.21195 0.37014 0.0
C218 C 0.88625 0.20354 0.40941 0.0
C219 C 0.87497 0.17544 0.36824 0.0
C220 C 0.85715 0.19038 0.35592 0.0
C221 C 0.88946 0.18127 0.3955 0.0
C222 C 0.86867 0.21867 0.39688 0.0
C223 C 0.8326 0.22609 0.35768 0.0
O224 O 0.7551 0.22683 0.30923 0.0
O225 O 0.79011 0.25411 0.29136 0.0
O226 O 0.84064 0.247 0.34365 0.0
O227 O 0.80463 0.21822 0.35934 0.0
H228 H 0.78226 0.20203 0.25836 0.0
H229 H 0.75568 0.17649 0.21568 0.0
H230 H 0.68696 0.21384 0.21606 0.0
H231 H 0.71434 0.23993 0.25702 0.0
H232 H 0.70819 0.32435 0.33602 0.0
H233 H 0.73961 0.29662 0.32726 0.0
H234 H 0.76402 0.35184 0.41366 0.0
H235 H 0.7943 0.32423 0.40514 0.0
H236 H 0.89648 0.20896 0.43034 0.0
H237 H 0.87716 0.15922 0.35616 0.0
H238 H 0.84578 0.1848 0.33526 0.0
H239 H 0.86628 0.23524 0.40837 0.0
C240 C 0.30677 0.68904 0.22512 0.0
C241 C 0.30152 0.70139 0.20102 0.0
C242 C 0.25438 0.66705 0.18744 0.0
C243 C 0.27529 0.69051 0.18233 0.0
C244 C 0.25932 0.65576 0.21219 0.0
C245 C 0.28517 0.66664 0.23075 0.0
U246 U 0.38803 0.73042 0.25831 0.0
O247 O 0.40603 0.73444 0.3021 0.0
O248 O 0.42259 0.71239 0.27437 0.0
C249 C 0.4239 0.7203 0.29955 0.0
C250 C 0.33507 0.6969 0.24403 0.0
C251 C 0.42772 0.70138 0.32039 0.0
C252 C 0.41258 0.65909 0.34118 0.0
C253 C 0.40659 0.67689 0.32194 0.0
C254 C 0.46045 0.69025 0.3576 0.0
C255 C 0.43988 0.66537 0.35903 0.0
C256 C 0.45444 0.7079 0.33859 0.0
C257 C 0.41568 0.79583 0.21578 0.0
C258 C 0.45385 0.83437 0.20601 0.0
C259 C 0.40535 0.82249 0.17842 0.0
C260 C 0.3961 0.80089 0.19414 0.0
C261 C 0.43445 0.83951 0.18402 0.0
C262 C 0.44456 0.81281 0.22167 0.0
C263 C 0.40661 0.77245 0.23168 0.0
O264 O 0.35808 0.69452 0.2348 0.0
O265 O 0.34094 0.71778 0.26105 0.0
O266 O 0.39316 0.773 0.25222 0.0
O267 O 0.40937 0.74922 0.22495 0.0
H268 H 0.31796 0.71876 0.19632 0.0
H269 H 0.272 0.69966 0.16341 0.0
H270 H 0.24345 0.63798 0.21692 0.0
H271 H 0.28877 0.65688 0.24924 0.0
H272 H 0.39618 0.64013 0.34154 0.0
H273 H 0.38578 0.67137 0.30807 0.0
H274 H 0.48141 0.69619 0.37122 0.0
H275 H 0.47105 0.72668 0.33785 0.0
H276 H 0.47652 0.84662 0.21079 0.0
H277 H 0.38963 0.8259 0.16195 0.0
H278 H 0.3737 0.78799 0.18926 0.0
H279 H 0.4601 0.80919 0.23822 0.0
C280 C 0.1739 0.29648 0.71141 0.0
C281 C 0.18805 0.29042 0.69093 0.0
C282 C 0.15139 0.24591 0.6803 0.0
C283 C 0.17696 0.2655 0.67562 0.0
C284 C 0.13808 0.25217 0.70144 0.0
C285 C 0.14899 0.27688 0.71645 0.0
U286 U 0.21324 0.37228 0.74632 0.0
O287 O 0.186 0.39579 0.75984 0.0
O288 O 0.21544 0.38184 0.79033 0.0
C289 C 0.19656 0.39555 0.78561 0.0
C290 C 0.18343 0.32266 0.72793 0.0
C291 C 0.18322 0.40519 0.80756 0.0
C292 C 0.14325 0.40151 0.83331 0.0
C293 C 0.15553 0.39128 0.81334 0.0
C294 C 0.18618 0.43962 0.84266 0.0
C295 C 0.15813 0.42614 0.84851 0.0
C296 C 0.19827 0.42944 0.82267 0.0
C297 C 0.28217 0.40792 0.70873 0.0
C298 C 0.32123 0.44279 0.69357 0.0
C299 C 0.31014 0.39747 0.67574 0.0
C300 C 0.28795 0.38933 0.69171 0.0
C301 C 0.32733 0.42445 0.67633 0.0
C302 C 0.29922 0.43466 0.70939 0.0
C303 C 0.25914 0.40089 0.72636 0.0
O304 O 0.20652 0.3287 0.74745 0.0
O305 O 0.17742 0.34363 0.71764 0.0
O306 O 0.23191 0.40005 0.71665 0.0
O307 O 0.26121 0.3851 0.74607 0.0
H308 H 0.20741 0.30498 0.68655 0.0
H309 H 0.18812 0.26191 0.65968 0.0
H310 H 0.11907 0.23789 0.70673 0.0
H311 H 0.13765 0.28074 0.73219 0.0
H312 H 0.12167 0.39004 0.83627 0.0
H313 H 0.14317 0.37252 0.80223 0.0
H314 H 0.1994 0.45816 0.85361 0.0
H315 H 0.21963 0.44082 0.81889 0.0
H316 H 0.33312 0.46375 0.69462 0.0
H317 H 0.31403 0.38245 0.66319 0.0
H318 H 0.27539 0.36854 0.69076 0.0
H319 H 0.29545 0.44955 0.72228 0.0
Pr320 Pr 1.0095 1.01966 0.54045 0.0
Pr321 Pr 0.04955 0.02885 0.51482 0.0
C322 C 0.96788 0.99927 0.5693 0.0
C323 C 0.96621 0.98148 0.59124 0.0
C324 C 0.96839 0.99185 0.61757 0.0
C325 C 0.96253 0.97477 0.63793 0.0
C326 C 0.95381 0.94723 0.6319 0.0
C327 C 0.95528 0.93697 0.60648 0.0
C328 C 0.96143 0.95408 0.58612 0.0
C329 C 0.04828 0.06996 0.56191 0.0
C330 C 0.06205 0.99121 0.56075 0.0
C331 C 0.08983 0.04848 0.48448 0.0
C332 C 0.09128 0.06765 0.46384 0.0
C333 C 0.08474 0.05849 0.43653 0.0
C334 C 0.08993 0.07649 0.41687 0.0
C335 C 0.1025 0.10363 0.42454 0.0
C336 C 0.10514 0.11305 0.45132 0.0
C337 C 0.09966 0.09506 0.47102 0.0
C338 C 1.00957 0.97889 0.49339 0.0
C339 C 0.99807 0.05753 0.49442 0.0
O340 O 0.96771 0.98899 0.54552 0.0
O341 O 0.98645 0.02293 0.57506 0.0
O342 O 0.05632 0.04945 0.55782 0.0
O343 O 1.02055 0.06517 0.55246 0.0
O344 O 0.07614 1.0086 0.54578 0.0
O345 O 0.03435 0.9895 0.56082 0.0
O346 O 0.09254 0.05759 0.50933 0.0
O347 O 0.06949 0.02586 0.47815 0.0
O348 O 1.00252 0.99986 0.49751 0.0
O349 O 0.03732 0.98307 0.50217 0.0
O350 O 0.98305 0.03845 0.50719 0.0
O351 O 1.02642 0.06093 0.49691 0.0
H352 H 0.97278 1.01299 0.62206 0.0
H353 H 0.9617 0.98289 0.65761 0.0
H354 H 0.94858 0.9157 0.60151 0.0
H355 H 0.9605 0.94564 0.56609 0.0
H356 H 0.07747 0.03741 0.4305 0.0
H357 H 0.08762 0.06905 0.39615 0.0
H358 H 0.1148 0.13402 0.45755 0.0
H359 H 0.10394 0.10265 0.49192 0.0
Pr360 Pr 0.50636 0.03036 0.03147 0.0
Pr361 Pr 0.55118 1.01277 0.02628 0.0
C362 C 0.46421 0.04517 0.04893 0.0
C363 C 0.46597 0.06669 0.06819 0.0
C364 C 0.46816 0.09222 0.05949 0.0
C365 C 0.47127 0.11294 0.07808 0.0
C366 C 0.472 0.10828 0.10548 0.0
C367 C 0.47094 0.08307 0.11437 0.0
C368 C 0.46775 0.06229 0.09578 0.0
C369 C 0.53483 0.0582 0.99182 0.0
C370 C 0.57027 0.06081 0.07095 0.0
C371 C 0.59369 0.9964 1.01145 0.0
C372 C 0.59273 0.97579 0.99148 0.0
C373 C 0.59125 0.95012 0.99937 0.0
C374 C 0.58918 0.93021 0.98023 0.0
C375 C 0.58895 0.93588 0.95312 0.0
C376 C 0.58949 0.96123 0.945 0.0
C377 C 0.59142 0.98116 0.96411 0.0
C378 C 0.52177 0.9856 0.0657 0.0
C379 C 0.48823 0.98343 0.98551 0.0
O380 O 0.47399 0.02619 0.05925 0.0
O381 O 0.47245 0.0522 0.02603 0.0
O382 O 0.54756 0.05399 1.01463 0.0
O383 O 0.50677 0.04664 0.98838 0.0
O384 O 0.58056 0.04822 0.05443 0.0
O385 O 0.5416 0.05602 0.06851 0.0
O386 O 0.58655 1.0169 1.00174 0.0
O387 O 0.58234 0.98814 0.03266 0.0
O388 O 0.50979 0.98915 0.04239 0.0
O389 O 0.54966 0.99806 0.07009 0.0
O390 O 0.47737 0.99537 1.00215 0.0
O391 O 0.51693 0.98845 0.9883 0.0
H392 H 0.46708 0.09616 0.03834 0.0
H393 H 0.47138 0.13222 0.07081 0.0
H394 H 0.47128 0.07924 0.13549 0.0
H395 H 0.46641 0.04279 0.10302 0.0
H396 H 0.59206 0.9455 1.02034 0.0
H397 H 0.58946 0.9108 0.98686 0.0
H398 H 0.58958 0.96581 0.92409 0.0
H399 H 0.59225 1.00078 0.95746 0.0
Pr400 Pr 0.53914 0.55446 0.54773 0.0
Pr401 Pr 0.5272 0.49905 0.51163 0.0
C402 C 0.52105 0.59524 0.56306 0.0
C403 C 0.50147 0.60111 0.58076 0.0
C404 C 0.51282 0.61371 0.60679 0.0
C405 C 0.49463 0.62179 0.62199 0.0
C406 C 0.46464 0.61775 0.61147 0.0
C407 C 0.45311 0.60404 0.58591 0.0
C408 C 0.47121 0.59587 0.57082 0.0
C409 C 0.56349 0.519 0.57781 0.0
C410 C 0.48446 0.49822 0.5571 0.0
C411 C 0.53925 0.45815 0.48794 0.0
C412 C 0.56228 0.45317 0.47404 0.0
C413 C 0.55642 0.44674 0.44599 0.0
C414 C 0.57656 0.43868 0.43336 0.0
C415 C 0.60285 0.43656 0.44858 0.0
C416 C 0.60944 0.44448 0.47633 0.0
C417 C 0.58948 0.45269 0.4889 0.0
C418 C 0.4993 0.53548 0.48905 0.0
C419 C 0.58448 0.55446 0.50441 0.0
O420 O 0.50797 0.57897 0.54166 0.0
O421 O 0.54658 0.5924 0.57411 0.0
O422 O 0.55005 0.51575 0.55372 0.0
O423 O 0.56582 0.54281 0.58754 0.0
O424 O 0.49274 0.48304 0.54054 0.0
O425 O 0.49663 0.52445 0.56001 0.0
O426 O 0.54648 0.46479 0.51393 0.0
O427 O 0.52163 0.47055 0.47523 0.0
O428 O 0.52487 0.54066 0.50275 0.0
O429 O 0.48686 0.50973 0.48574 0.0
O430 O 0.57715 0.56972 0.52182 0.0
O431 O 0.57033 0.52855 0.49976 0.0
H432 H 0.53593 0.61796 0.61518 0.0
H433 H 0.50428 0.63167 0.64184 0.0
H434 H 0.43031 0.60065 0.57685 0.0
H435 H 0.46152 0.58622 0.55087 0.0
H436 H 0.53573 0.44695 0.43396 0.0
H437 H 0.57078 0.43266 0.41198 0.0
H438 H 0.62971 0.44345 0.48856 0.0
H439 H 0.59501 0.45772 0.51048 0.0
Pr440 Pr 0.03047 0.54686 1.00916 0.0
Pr441 Pr 0.03349 0.5071 0.04489 0.0
C442 C 1.01201 0.58027 0.9766 0.0
C443 C 0.99396 0.59779 0.97927 0.0
C444 C 1.0061 0.62526 0.97828 0.0
C445 C 0.98825 0.64181 0.97715 0.0
C446 C 0.95802 0.63091 0.97652 0.0
C447 C 0.94655 0.60386 0.98063 0.0
C448 C 0.96443 0.58735 0.982 0.0
C449 C 0.08235 0.56322 0.04661 0.0
C450 C 1.00041 0.5475 0.06562 0.0
C451 C 0.04855 0.47222 0.07755 0.0
C452 C 0.06557 0.45391 0.0752 0.0
C453 C 0.05423 0.42736 0.08075 0.0
C454 C 0.07186 0.41061 0.08212 0.0
C455 C 0.10112 0.42057 0.07852 0.0
C456 C 0.11124 0.44633 0.06994 0.0
C457 C 0.09348 0.46289 0.06815 0.0
C458 C 0.98147 0.49231 1.00774 0.0
C459 C 0.06438 0.50642 0.98893 0.0
O460 O 0.99864 0.5547 0.97474 0.0
O461 O 0.03796 0.58708 0.9919 0.0
O462 O 0.05748 0.55167 0.05222 0.0
O463 O 0.08106 0.56643 1.02095 0.0
O464 O 1.0136 0.52964 0.07364 0.0
O465 O 1.00122 0.55561 0.04082 0.0
O466 O 0.06323 0.49753 0.07986 0.0
O467 O 1.02316 0.46648 0.06142 0.0
O468 O 1.00664 0.50228 1.00206 0.0
O469 O 0.98239 0.49097 0.03358 0.0
O470 O 0.05299 0.52561 0.98129 0.0
O471 O 0.06177 0.49716 1.01307 0.0
H472 H 1.02903 0.63373 0.9769 0.0
H473 H 0.99753 0.66273 0.97436 0.0
H474 H 0.92326 0.59496 0.98015 0.0
H475 H 0.95468 0.56626 0.98359 0.0
H476 H 0.03234 0.41999 0.08536 0.0
H477 H 0.06342 0.39056 0.08811 0.0
H478 H 0.1337 0.45458 0.06701 0.0
H479 H 0.1023 0.48315 0.06287 0.0
H480 H 0.22638 0.17158 0.32265 0.0
H481 H 0.22921 0.23661 0.3776 0.0
H482 H 0.19359 0.14078 0.34701 0.0
H483 H 0.19671 0.20562 0.40253 0.0
H484 H 0.10508 0.15357 0.40912 0.0
H485 H 0.14454 0.18288 0.38935 0.0
H486 H 0.18501 0.11976 0.38744 0.0
H487 H 0.14525 0.09055 0.40579 0.0
C488 C 0.22091 0.17905 0.34065 0.0
C489 C 0.22962 0.20636 0.34809 0.0
C490 C 0.20204 0.16148 0.35452 0.0
C491 C 0.19201 0.17109 0.37607 0.0
C492 C 0.20346 0.19798 0.38537 0.0
C493 C 0.2222 0.21557 0.37139 0.0
C494 C 0.12206 0.14599 0.40365 0.0
C495 C 0.12194 0.11984 0.40811 0.0
C496 C 0.14485 0.16274 0.39295 0.0
C497 C 0.16791 0.15354 0.38724 0.0
C498 C 0.16734 0.12721 0.39135 0.0
C499 C 0.14443 0.11045 0.40154 0.0
H500 H 0.32935 0.87507 0.88989 0.0
H501 H 0.3992 0.86781 0.84986 0.0
H502 H 0.36529 0.90484 0.9252 0.0
H503 H 0.43501 0.89788 0.88466 0.0
H504 H 0.49693 0.94076 0.95993 0.0
H505 H 0.46056 0.90646 0.92863 0.0
H506 H 0.39631 0.9482 0.93262 0.0
H507 H 0.43211 0.98136 0.96481 0.0
C508 C 0.35239 0.87971 0.88866 0.0
C509 C 0.3613 0.86902 0.86689 0.0
C510 C 0.37308 0.89696 0.90888 0.0
C511 C 0.40326 0.90414 0.90781 0.0
C512 C 0.41213 0.89263 0.88656 0.0
C513 C 0.39149 0.87526 0.86648 0.0
C514 C 0.47507 0.94258 0.9539 0.0
C515 C 0.46745 0.96378 0.96468 0.0
C516 C 0.45415 0.92295 0.93593 0.0
C517 C 0.42529 0.92438 0.92792 0.0
C518 C 0.41796 0.94591 0.9386 0.0
C519 C 0.43867 0.9652 0.95687 0.0
H520 H 0.56609 0.39423 0.68917 0.0
H521 H 0.65551 0.42125 0.67587 0.0
H522 H 0.55252 0.42386 0.65673 0.0
H523 H 0.64209 0.45227 0.64396 0.0
H524 H 0.60074 0.48975 0.57001 0.0
H525 H 0.61506 0.45731 0.59976 0.0
H526 H 0.55742 0.46906 0.65259 0.0
H527 H 0.54358 0.50118 0.62305 0.0
C528 C 0.58297 0.40645 0.67928 0.0
C529 C 0.61193 0.40497 0.68521 0.0
C530 C 0.5752 0.42387 0.66078 0.0
C531 C 0.59613 0.44083 0.64761 0.0
C532 C 0.6252 0.43944 0.65343 0.0
C533 C 0.63302 0.42184 0.67205 0.0
C534 C 0.59107 0.48511 0.58792 0.0
C535 C 0.5711 0.498 0.59431 0.0
C536 C 0.59943 0.4667 0.60513 0.0
C537 C 0.58751 0.46037 0.62881 0.0
C538 C 0.567 0.47302 0.63457 0.0
C539 C 0.55913 0.49165 0.61772 0.0
H540 H 0.91799 0.57585 0.20383 0.0
H541 H 0.92141 0.6454 0.15878 0.0
H542 H 0.93781 0.55753 0.17004 0.0
H543 H 0.94418 0.62824 0.12624 0.0
H544 H 0.97141 0.58636 0.05881 0.0
H545 H 0.94771 0.60384 0.0909 0.0
H546 H 0.9729 0.55224 0.15 0.0
H547 H 0.99489 0.53417 0.11753 0.0
C548 C 0.92286 0.58753 0.18683 0.0
C549 C 0.91746 0.61249 0.18482 0.0
C550 C 0.93516 0.57703 0.16724 0.0
C551 C 0.94349 0.59108 0.14468 0.0
C552 C 0.93815 0.6161 0.14267 0.0
C553 C 0.9253 0.6264 0.16203 0.0
C554 C 0.97165 0.57859 0.07861 0.0
C555 C 0.98524 0.55861 0.08517 0.0
C556 C 0.95813 0.58889 0.09745 0.0
C557 C 0.95777 0.57986 0.12388 0.0
C558 C 0.97156 0.55984 0.13018 0.0
C559 C 0.98473 0.54944 0.11132 0.0
H560 H 0.3693 0.19662 0.15215 0.0
H561 H 0.45353 0.23933 0.19998 0.0
H562 H 0.39208 0.16821 0.13066 0.0
H563 H 0.47647 0.21077 0.17841 0.0
H564 H 0.50238 0.16079 0.11319 0.0
H565 H 0.48534 0.19521 0.13253 0.0
H566 H 0.41364 0.13425 0.15557 0.0
H567 H 0.43015 0.10012 0.13589 0.0
C568 C 0.39291 0.20059 0.15713 0.0
C569 C 0.40993 0.21992 0.17754 0.0
C570 C 0.40577 0.18419 0.14521 0.0
C571 C 0.43574 0.18725 0.1535 0.0
C572 C 0.45327 0.20823 0.17196 0.0
C573 C 0.44031 0.2245 0.18412 0.0
C574 C 0.4835 0.15496 0.1231 0.0
C575 C 0.46751 0.12812 0.12325 0.0
C576 C 0.47374 0.17446 0.13392 0.0
C577 C 0.44798 0.16709 0.14476 0.0
C578 C 0.43328 0.1402 0.1467 0.0
C579 C 0.44303 0.12076 0.13599 0.0
H580 H 0.16604 0.88195 0.60362 0.0
H581 H 0.13428 0.89168 0.67718 0.0
H582 H 0.13876 0.90969 0.58142 0.0
H583 H 0.10848 0.92153 0.65535 0.0
H584 H 0.04496 0.95849 0.60144 0.0
H585 H 0.0695 0.92814 0.62443 0.0
H586 H 0.13766 0.95219 0.57643 0.0
H587 H 0.11283 0.98155 0.5533 0.0
C588 C 0.15318 0.88993 0.61523 0.0
C589 C 0.15244 0.88404 0.64239 0.0
C590 C 0.13778 0.90651 0.60246 0.0
C591 C 0.12134 0.91851 0.61638 0.0
C592 C 0.12054 0.91269 0.64361 0.0
C593 C 0.13579 0.89575 0.65638 0.0
C594 C 0.06516 0.95719 0.5958 0.0
C595 C 0.07685 0.97271 0.5755 0.0
C596 C 0.07946 0.93984 0.60916 0.0
C597 C 0.10582 0.93727 0.60251 0.0
C598 C 0.1173 0.95289 0.58211 0.0
C599 C 0.10312 0.97019 0.56892 0.0
H600 H 0.81619 0.3805 0.92912 0.0
H601 H 0.85339 0.42094 0.86351 0.0
H602 H 0.86032 0.40459 0.96067 0.0
H603 H 0.8958 0.44695 0.89518 0.0
H604 H 0.98023 0.47779 0.95526 0.0
H605 H 0.9388 0.44965 0.92335 0.0
H606 H 0.88295 0.44602 0.98285 0.0
H607 H 0.92505 0.47273 1.01518 0.0
C608 C 0.83374 0.39441 0.92133 0.0
C609 C 0.83078 0.39902 0.89371 0.0
C610 C 0.85891 0.4087 0.93957 0.0
C611 C 0.88159 0.4283 0.93074 0.0
C612 C 0.87909 0.43204 0.90295 0.0
C613 C 0.85432 0.41734 0.88471 0.0
C614 C 0.95904 0.47096 0.96142 0.0
C615 C 0.9558 0.47731 0.98768 0.0
C616 C 0.93515 0.45488 0.94308 0.0
C617 C 0.90728 0.44523 0.9504 0.0
C618 C 0.90408 0.45233 0.97658 0.0
C619 C 0.92813 0.46796 0.99507 0.0
H620 H 0.7132 0.65545 0.41136 0.0
H621 H 0.7092 0.57448 0.39106 0.0
H622 H 0.67721 0.63978 0.4404 0.0
H623 H 0.67456 0.55876 0.42039 0.0
H624 H 0.59987 0.52902 0.46397 0.0
H625 H 0.63332 0.54632 0.43409 0.0
H626 H 0.65667 0.62443 0.47541 0.0
H627 H 0.62077 0.60684 0.50438 0.0
C628 C 0.7049 0.63425 0.41316 0.0
C629 C 0.71444 0.61646 0.39828 0.0
C630 C 0.68396 0.62504 0.43014 0.0
C631 C 0.67181 0.59755 0.43339 0.0
C632 C 0.68184 0.57995 0.41858 0.0
C633 C 0.70233 0.58912 0.40142 0.0
C634 C 0.61211 0.54995 0.46695 0.0
C635 C 0.60747 0.56624 0.48724 0.0
C636 C 0.63206 0.56011 0.44961 0.0
C637 C 0.64924 0.58713 0.45191 0.0
C638 C 0.64441 0.60358 0.47226 0.0
C639 C 0.62381 0.59338 0.48939 0.0
H640 H 0.23403 0.39108 0.19726 0.0
H641 H 0.24672 0.35658 0.12351 0.0
H642 H 0.19356 0.40463 0.17171 0.0
H643 H 0.20569 0.36852 0.09831 0.0
H644 H 0.14789 0.41566 0.05739 0.0
H645 H 0.18988 0.40422 0.0819 0.0
H646 H 0.14463 0.3836 0.14933 0.0
H647 H 0.10383 0.39691 0.12575 0.0
C648 C 0.22832 0.3868 0.17555 0.0
C649 C 0.24361 0.37342 0.16207 0.0
C650 C 0.20504 0.39413 0.16101 0.0
C651 C 0.19645 0.38749 0.13301 0.0
C652 C 0.21217 0.37443 0.1197 0.0
C653 C 0.23568 0.36764 0.13408 0.0
C654 C 0.14687 0.40835 0.0773 0.0
C655 C 0.12268 0.40713 0.08964 0.0
C656 C 0.17083 0.40176 0.09133 0.0
C657 C 0.17066 0.3934 0.11769 0.0
C658 C 0.14567 0.3906 0.12931 0.0
C659 C 0.12195 0.39755 0.11547 0.0
H660 H 0.56537 0.19059 0.8877 0.0
H661 H 0.64989 0.17666 0.90446 0.0
H662 H 0.54589 0.15479 0.91521 0.0
H663 H 0.63018 0.13977 0.93114 0.0
H664 H 0.59296 0.08738 0.99646 0.0
H665 H 0.61432 0.12348 0.96937 0.0
H666 H 0.52884 0.11098 0.91948 0.0
H667 H 0.50772 0.0762 0.94745 0.0
C668 C 0.57972 0.17952 0.89686 0.0
C669 C 0.6092 0.18657 0.89355 0.0
C670 C 0.56847 0.15867 0.9127 0.0
C671 C 0.5861 0.14365 0.92549 0.0
C672 C 0.61571 0.15077 0.92215 0.0
C673 C 0.6271 0.17198 0.9066 0.0
C674 C 0.57882 0.09251 0.97972 0.0
C675 C 0.54857 0.07902 0.9743 0.0
C676 C 0.5911 0.11317 0.96391 0.0
C677 C 0.57349 0.12085 0.94207 0.0
C678 C 0.54331 0.10661 0.9364 0.0
C679 C 0.53109 0.08621 0.95231 0.0
H680 H 0.9068 0.81545 0.42956 0.0
H681 H 0.93992 0.85198 0.36065 0.0
H682 H 0.92845 0.85762 0.45628 0.0
H683 H 0.96095 0.89416 0.38693 0.0
H684 H 1.02113 0.96241 0.44594 0.0
H685 H 0.99635 0.92144 0.41787 0.0
H686 H 0.93228 0.89986 0.47041 0.0
H687 H 0.95804 0.94093 0.49875 0.0
C688 C 0.91835 0.83248 0.41985 0.0
C689 C 0.9216 0.82964 0.3927 0.0
C690 C 0.93091 0.85706 0.43534 0.0
C691 C 0.94713 0.88008 0.42437 0.0
C692 C 0.94963 0.87728 0.39693 0.0
C693 C 0.93729 0.8527 0.38156 0.0
C694 C 1.00155 0.94899 0.45132 0.0
C695 C 0.99153 0.95521 0.47454 0.0
C696 C 0.987 0.92527 0.43501 0.0
C697 C 0.96185 0.90646 0.44137 0.0
C698 C 0.9516 0.91312 0.46456 0.0
C699 C 0.96615 0.93705 0.48079 0.0
H700 H 0.39295 0.72915 0.68915 0.0
H701 H 0.31874 0.65889 0.66808 0.0
H702 H 0.42409 0.70651 0.67391 0.0
H703 H 0.34945 0.6355 0.65289 0.0
H704 H 0.4056 0.59742 0.61343 0.0
H705 H 0.3749 0.61831 0.6325 0.0
H706 H 0.45153 0.68524 0.6635 0.0
H707 H 0.48104 0.66492 0.64239 0.0
C708 C 0.38329 0.70855 0.68159 0.0
C709 C 0.35309 0.69614 0.67976 0.0
C710 C 0.40142 0.69512 0.67248 0.0
C711 C 0.39024 0.66847 0.66125 0.0
C712 C 0.35992 0.65589 0.66045 0.0
C713 C 0.3418 0.66947 0.66938 0.0
C714 C 0.41575 0.6168 0.6241 0.0
C715 C 0.44598 0.62942 0.626 0.0
C716 C 0.39795 0.62904 0.6356 0.0
C717 C 0.40967 0.65438 0.64993 0.0
C718 C 0.44036 0.66631 0.65255 0.0
C719 C 0.45797 0.65423 0.64065 0.0
H720 H 0.82501 0.8682 0.72747 0.0
H721 H 0.8334 0.80773 0.67286 0.0
H722 H 0.86077 0.90196 0.70805 0.0
H723 H 0.86929 0.8414 0.65366 0.0
H724 H 0.958 0.90028 0.65171 0.0
H725 H 0.92063 0.86859 0.67195 0.0
H726 H 0.86877 0.92336 0.66581 0.0
H727 H 0.9061 0.95491 0.64646 0.0
C728 C 0.83392 0.86227 0.71086 0.0
C729 C 0.82693 0.8354 0.70188 0.0
C730 C 0.85451 0.88149 0.69994 0.0
C731 C 0.86825 0.87398 0.68 0.0
C732 C 0.8596 0.84745 0.66965 0.0
C733 C 0.83895 0.82831 0.68042 0.0
C734 C 0.93893 0.9056 0.65546 0.0
C735 C 0.93504 0.93004 0.64828 0.0
C736 C 0.91749 0.88752 0.66662 0.0
C737 C 0.89189 0.89366 0.67021 0.0
C738 C 0.88852 0.91841 0.66363 0.0
C739 C 0.90996 0.93647 0.65278 0.0
H740 H 0.71605 0.14107 0.198 0.0
H741 H 0.67829 0.20341 0.1714 0.0
H742 H 0.68098 0.11036 0.16331 0.0
H743 H 0.64243 0.17216 0.13742 0.0
H744 H 0.56173 0.10046 0.10235 0.0
H745 H 0.59926 0.13358 0.13443 0.0
H746 H 0.66531 0.09903 0.11632 0.0
H747 H 0.62821 0.06593 0.08536 0.0
C748 C 0.70069 0.14851 0.18463 0.0
C749 C 0.69997 0.17486 0.18824 0.0
C750 C 0.6803 0.1307 0.1647 0.0
C751 C 0.65838 0.13859 0.14788 0.0
C752 C 0.65844 0.16518 0.15052 0.0
C753 C 0.6791 0.18312 0.17019 0.0
C754 C 0.58422 0.09988 0.10551 0.0
C755 C 0.59186 0.08048 0.0914 0.0
C756 C 0.60581 0.119 0.12362 0.0
C757 C 0.63538 0.11896 0.12805 0.0
C758 C 0.64281 0.0995 0.11383 0.0
C759 C 0.6214 0.08055 0.09587 0.0
H760 H 0.4047 0.63179 0.38988 0.0
H761 H 0.49271 0.65509 0.37279 0.0
H762 H 0.4182 0.60167 0.42252 0.0
H763 H 0.5061 0.62496 0.40491 0.0
H764 H 0.53137 0.58575 0.48046 0.0
H765 H 0.5166 0.61716 0.45054 0.0
H766 H 0.42979 0.56132 0.42844 0.0
H767 H 0.44469 0.53007 0.45892 0.0
C768 C 0.42685 0.63036 0.39286 0.0
C769 C 0.44757 0.64615 0.37864 0.0
C770 C 0.43467 0.613 0.41165 0.0
C771 C 0.4634 0.61072 0.41673 0.0
C772 C 0.48396 0.62639 0.40227 0.0
C773 C 0.4762 0.64376 0.38364 0.0
C774 C 0.50901 0.58025 0.46944 0.0
C775 C 0.48923 0.55527 0.4721 0.0
C776 C 0.50055 0.59824 0.45195 0.0
C777 C 0.47194 0.59193 0.43659 0.0
C778 C 0.45193 0.56717 0.43991 0.0
C779 C 0.46049 0.54908 0.45732 0.0
H780 H 0.17282 0.47864 0.87143 0.0
H781 H 0.11194 0.401 0.87563 0.0
H782 H 0.15267 0.49664 0.90535 0.0
H783 H 0.09014 0.41975 0.90793 0.0
H784 H 0.06694 0.4547 0.98277 0.0
H785 H 0.0891 0.43559 0.95036 0.0
H786 H 0.11748 0.5124 0.91795 0.0
H787 H 0.0955 0.53119 0.95052 0.0
C788 C 0.15519 0.46503 0.8793 0.0
C789 C 0.14469 0.43778 0.86989 0.0
C790 C 0.14299 0.47578 0.89886 0.0
C791 C 0.11918 0.46011 0.90999 0.0
C792 C 0.10856 0.43291 0.90063 0.0
C793 C 0.12104 0.42204 0.88132 0.0
C794 C 0.07819 0.46759 0.96891 0.0
C795 C 0.07934 0.49469 0.96965 0.0
C796 C 0.09079 0.45649 0.94985 0.0
C797 C 0.10555 0.47205 0.93083 0.0
C798 C 0.10692 0.49932 0.932 0.0
C799 C 0.09396 0.51027 0.95077 0.0
H800 H 0.69083 0.84837 0.8983 0.0
H801 H 0.60421 0.80701 0.85442 0.0
H802 H 0.67025 0.87684 0.92283 0.0
H803 H 0.58352 0.8356 0.87842 0.0
H804 H 0.55818 0.88383 0.94261 0.0
H805 H 0.57546 0.8501 0.92249 0.0
H806 H 0.64925 0.91195 0.90376 0.0
H807 H 0.63247 0.94537 0.92454 0.0
C808 C 0.66726 0.84481 0.89482 0.0
C809 C 0.64878 0.82576 0.87488 0.0
C810 C 0.65559 0.86121 0.90841 0.0
C811 C 0.62547 0.85852 0.90195 0.0
C812 C 0.60678 0.83787 0.88368 0.0
C813 C 0.61847 0.82153 0.87011 0.0
C814 C 0.57767 0.89002 0.93356 0.0
C815 C 0.59409 0.91684 0.93489 0.0
C816 C 0.58761 0.8709 0.92231 0.0
C817 C 0.61396 0.87859 0.91235 0.0
C818 C 0.62925 0.90562 0.91203 0.0
C819 C 0.61933 0.9247 0.92327 0.0
H820 H 0.93608 0.19406 0.43931 0.0
H821 H 0.88273 0.12784 0.38392 0.0
H822 H 0.96153 0.16581 0.46244 0.0
H823 H 0.90894 0.09988 0.40551 0.0
H824 H 0.95466 0.04569 0.44985 0.0
H825 H 0.93015 0.07451 0.42601 0.0
H826 H 0.98383 0.14049 0.48264 0.0
H827 H 1.00838 0.11093 0.50549 0.0
C828 C 0.92954 0.17339 0.43191 0.0
C829 C 0.90677 0.16374 0.40941 0.0
C830 C 0.94467 0.15671 0.44531 0.0
C831 C 0.9381 0.12944 0.43678 0.0
C832 C 0.91558 0.12015 0.41382 0.0
C833 C 0.90028 0.13674 0.4007 0.0
C834 C 0.96119 0.06648 0.45694 0.0
C835 C 0.9837 0.07598 0.47937 0.0
C836 C 0.94696 0.08354 0.44316 0.0
C837 C 0.95416 0.11096 0.45154 0.0
C838 C 0.97686 0.12012 0.47449 0.0
C839 C 0.99141 0.10303 0.48793 0.0
H840 H 0.21467 0.68742 0.15588 0.0
H841 H 0.23602 0.6144 0.17174 0.0
H842 H 0.17171 0.66275 0.12236 0.0
H843 H 0.19365 0.58999 0.13844 0.0
H844 H 0.09933 0.54983 0.09722 0.0
H845 H 0.1399 0.57587 0.13189 0.0
H846 H 0.16076 0.63826 0.07729 0.0
H847 H 0.12037 0.61196 0.0426 0.0
C848 C 0.21029 0.66619 0.15208 0.0
C849 C 0.2286 0.65283 0.16655 0.0
C850 C 0.18574 0.65207 0.13295 0.0
C851 C 0.17918 0.62437 0.12788 0.0
C852 C 0.19769 0.61118 0.14225 0.0
C853 C 0.22204 0.62521 0.16129 0.0
C854 C 0.1127 0.56906 0.0927 0.0
C855 C 0.10713 0.57875 0.06722 0.0
C856 C 0.13591 0.58398 0.11248 0.0
C857 C 0.15363 0.60912 0.1073 0.0
C858 C 0.14748 0.61904 0.08194 0.0
C859 C 0.12462 0.60387 0.06199 0.0
H860 H 0.33056 0.40419 0.62568 0.0
H861 H 0.37946 0.46595 0.68762 0.0
H862 H 0.36743 0.42053 0.59765 0.0
H863 H 0.4165 0.48191 0.66018 0.0
H864 H 0.46991 0.5224 0.59915 0.0
H865 H 0.43351 0.5046 0.62674 0.0
H866 H 0.41064 0.42773 0.58317 0.0
H867 H 0.44669 0.44637 0.55454 0.0
C868 C 0.34927 0.42111 0.63363 0.0
C869 C 0.35122 0.43371 0.65918 0.0
C870 C 0.37081 0.43064 0.61733 0.0
C871 C 0.39553 0.45314 0.62586 0.0
C872 C 0.39778 0.4652 0.65181 0.0
C873 C 0.37619 0.45583 0.66794 0.0
C874 C 0.45703 0.5017 0.59515 0.0
C875 C 0.46146 0.48609 0.57413 0.0
C876 C 0.43604 0.49115 0.61151 0.0
C877 C 0.41842 0.46427 0.60793 0.0
C878 C 0.42301 0.44855 0.58687 0.0
C879 C 0.44408 0.45923 0.57034 0.0
H880 H 0.79265 0.64027 0.89923 0.0
H881 H 0.85135 0.70766 0.86945 0.0
H882 H 0.83455 0.63077 0.92661 0.0
H883 H 0.89316 0.69878 0.89733 0.0
H884 H 0.96075 0.65672 0.931 0.0
H885 H 0.92149 0.66933 0.90368 0.0
H886 H 0.86952 0.64938 0.96665 0.0
H887 H 0.90886 0.6356 0.99372 0.0
C888 C 0.81457 0.65288 0.89845 0.0
C889 C 0.81885 0.67476 0.88248 0.0
C890 C 0.8385 0.6477 0.91434 0.0
C891 C 0.86707 0.66449 0.91469 0.0
C892 C 0.87141 0.68551 0.89754 0.0
C893 C 0.84749 0.69051 0.88145 0.0
C894 C 0.94137 0.65591 0.93945 0.0
C895 C 0.93776 0.64529 0.96447 0.0
C896 C 0.91874 0.66298 0.92368 0.0
C897 C 0.89221 0.65991 0.9328 0.0
C898 C 0.88947 0.65124 0.95879 0.0
C899 C 0.91204 0.64377 0.97446 0.0
H900 H 0.47288 0.88929 0.2 0.0
H901 H 0.41967 0.84133 0.12886 0.0
H902 H 0.4921 0.92502 0.17203 0.0
H903 H 0.43908 0.87707 0.10075 0.0
H904 H 0.46434 0.95429 0.05799 0.0
H905 H 0.44149 0.92022 0.08663 0.0
H906 H 0.52446 0.93673 0.14152 0.0
H907 H 0.54674 0.97121 0.11344 0.0
C908 C 0.46537 0.88623 0.17836 0.0
C909 C 0.44486 0.86213 0.16682 0.0
C910 C 0.47648 0.90682 0.1622 0.0
C911 C 0.46755 0.90404 0.13392 0.0
C912 C 0.44639 0.88022 0.12242 0.0
C913 C 0.4352 0.85961 0.13862 0.0
C914 C 0.47757 0.95073 0.07632 0.0
C915 C 0.50737 0.96551 0.08345 0.0
C916 C 0.46453 0.93102 0.09268 0.0
C917 C 0.48099 0.92553 0.11658 0.0
C918 C 0.51078 0.94056 0.12365 0.0
C919 C 0.52371 0.96029 0.1074 0.0
H920 H 0.17834 0.21527 0.6533 0.0
H921 H 0.09302 0.21555 0.66773 0.0
H922 H 0.15559 0.1735 0.62547 0.0
H923 H 0.07102 0.17335 0.64247 0.0
H924 H 1.02887 0.11117 0.57474 0.0
H925 H 0.05414 0.15196 0.60192 0.0
H926 H 0.13292 0.12763 0.61758 0.0
H927 H 0.10718 0.08649 0.58877 0.0
C928 C 0.15479 0.20661 0.65074 0.0
C929 C 0.1379 0.2195 0.66321 0.0
C930 C 0.14162 0.18215 0.63491 0.0
C931 C 0.11098 0.16945 0.6309 0.0
C932 C 0.0944 0.1822 0.6439 0.0
C933 C 0.10739 0.20664 0.65925 0.0
C934 C 0.05163 0.11432 0.58386 0.0
C935 C 0.06569 0.09512 0.57934 0.0
C936 C 0.06631 0.13797 0.60003 0.0
C937 C 0.09592 0.1437 0.61292 0.0
C938 C 0.11028 0.12451 0.60821 0.0
C939 C 0.09542 0.10064 0.59171 0.0
H940 H 0.71611 0.33951 0.42447 0.0
H941 H 0.70259 0.37082 0.3464 0.0
H942 H 0.68782 0.36393 0.44123 0.0
H943 H 0.6705 0.39362 0.36214 0.0
H944 H 0.62384 0.44495 0.40052 0.0
H945 H 0.65446 0.42243 0.38192 0.0
H946 H 0.65082 0.3729 0.45011 0.0
H947 H 0.62328 0.39706 0.46901 0.0
C948 C 0.7067 0.3516 0.41066 0.0
C949 C 0.71227 0.35345 0.38419 0.0
C950 C 0.68942 0.36546 0.42019 0.0
C951 C 0.67557 0.38106 0.40335 0.0
C952 C 0.68054 0.38234 0.37634 0.0
C953 C 0.69874 0.36884 0.36696 0.0
C954 C 0.63023 0.42946 0.41153 0.0
C955 C 0.62164 0.4232 0.43655 0.0
C956 C 0.64772 0.41616 0.40075 0.0
C957 C 0.65643 0.3956 0.4143 0.0
C958 C 0.6466 0.38908 0.43898 0.0
C959 C 0.63014 0.4029 0.45004 0.0
loop_
_geom_bond_atom_site_label_1
_geom_bond_atom_site_label_2
_geom_bond_distance
_geom_bond_site_symmetry_2
_ccdc_geom_bond_type
C0 C1 1.264 . S
C0 C5 1.479 . S
C0 C10 1.465 . S
C1 C0 1.264 . S
C1 C3 1.339 . S
C1 H28 0.931 . S
C2 C3 1.395 . S
C2 C4 1.320 . S
C3 C1 1.339 . S
C3 C2 1.395 . S
C3 H29 0.929 . S
C4 C2 1.320 . S
C4 C5 1.405 . S
C4 H30 0.930 . S
C5 C0 1.479 . S
C5 C4 1.405 . S
C5 H31 0.931 . S
U6 O7 2.454 . S
U6 O8 2.458 . S
U6 C9 2.984 . S
U6 C10 2.847 . S
U6 C23 2.882 . S
U6 O24 2.441 . S
U6 O25 2.420 . S
U6 O26 2.455 . S
U6 O27 2.449 . S
O7 U6 2.454 . S
O7 C9 1.353 . S
O8 U6 2.458 . S
O8 C9 1.286 . S
C9 U6 2.984 . S
C9 O7 1.353 . S
C9 O8 1.286 . S
C9 C11 1.363 . S
C10 C0 1.465 . S
C10 U6 2.847 . S
C10 O24 1.249 . S
C10 O25 1.202 . S
C11 C9 1.363 . S
C11 C13 1.408 . S
C11 C16 1.342 . S
C12 C13 1.310 . S
C12 C15 1.461 . S
C12 H32 0.932 . S
C13 C11 1.408 . S
C13 C12 1.310 . S
C13 H33 0.930 . S
C14 C15 1.474 . S
C14 C16 1.285 . S
C14 H34 0.929 . S
C15 C12 1.461 . S
C15 C14 1.474 . S
C16 C11 1.342 . S
C16 C14 1.285 . S
C16 H35 0.930 . S
C17 C20 1.424 . S
C17 C22 1.245 . S
C17 C23 1.428 . S
C18 C21 1.260 . S
C18 C22 1.477 . S
C18 H36 0.932 . S
C19 C20 1.384 . S
C19 C21 1.479 . S
C19 H37 0.929 . S
C20 C17 1.424 . S
C20 C19 1.384 . S
C20 H38 0.928 . S
C21 C18 1.260 . S
C21 C19 1.479 . S
C22 C17 1.245 . S
C22 C18 1.477 . S
C22 H39 0.932 . S
C23 U6 2.882 . S
C23 C17 1.428 . S
C23 O26 1.301 . S
C23 O27 1.282 . S
O24 U6 2.441 . S
O24 C10 1.249 . S
O25 U6 2.420 . S
O25 C10 1.202 . S
O26 U6 2.455 . S
O26 C23 1.301 . S
O27 U6 2.449 . S
O27 C23 1.282 . S
H28 C1 0.931 . S
H29 C3 0.929 . S
H30 C4 0.930 . S
H31 C5 0.931 . S
H32 C12 0.932 . S
H33 C13 0.930 . S
H34 C14 0.929 . S
H35 C16 0.930 . S
H36 C18 0.932 . S
H37 C19 0.929 . S
H38 C20 0.928 . S
H39 C22 0.932 . S
C40 C41 1.264 . S
C40 C45 1.479 . S
C40 C50 1.465 . S
C41 C40 1.264 . S
C41 C43 1.339 . S
C41 H68 0.931 . S
C42 C43 1.395 . S
C42 C44 1.320 . S
C43 C41 1.339 . S
C43 C42 1.395 . S
C43 H69 0.929 . S
C44 C42 1.320 . S
C44 C45 1.405 . S
C44 H70 0.930 . S
C45 C40 1.479 . S
C45 C44 1.405 . S
C45 H71 0.931 . S
U46 O47 2.454 . S
U46 O48 2.458 . S
U46 C49 2.984 . S
U46 C50 2.847 . S
U46 C63 2.882 . S
U46 O64 2.441 . S
U46 O65 2.420 . S
U46 O66 2.455 . S
U46 O67 2.449 . S
O47 U46 2.454 . S
O47 C49 1.353 . S
O48 U46 2.458 . S
O48 C49 1.286 . S
C49 U46 2.984 . S
C49 O47 1.353 . S
C49 O48 1.286 . S
C49 C51 1.363 . S
C50 C40 1.465 . S
C50 U46 2.847 . S
C50 O64 1.249 . S
C50 O65 1.202 . S
C51 C49 1.363 . S
C51 C53 1.408 . S
C51 C56 1.342 . S
C52 C53 1.310 . S
C52 C55 1.461 . S
C52 H72 0.932 . S
C53 C51 1.408 . S
C53 C52 1.310 . S
C53 H73 0.930 . S
C54 C55 1.474 . S
C54 C56 1.285 . S
C54 H74 0.929 . S
C55 C52 1.461 . S
C55 C54 1.474 . S
C56 C51 1.342 . S
C56 C54 1.285 . S
C56 H75 0.930 . S
C57 C60 1.424 . S
C57 C62 1.245 . S
C57 C63 1.428 . S
C58 C61 1.260 . S
C58 C62 1.477 . S
C58 H76 0.932 . S
C59 C60 1.384 . S
C59 C61 1.479 . S
C59 H77 0.929 . S
C60 C57 1.424 . S
C60 C59 1.384 . S
C60 H78 0.928 . S
C61 C58 1.260 . S
C61 C59 1.479 . S
C62 C57 1.245 . S
C62 C58 1.477 . S
C62 H79 0.932 . S
C63 U46 2.882 . S
C63 C57 1.428 . S
C63 O66 1.301 . S
C63 O67 1.282 . S
O64 U46 2.441 . S
O64 C50 1.249 . S
O65 U46 2.420 . S
O65 C50 1.202 . S
O66 U46 2.455 . S
O66 C63 1.301 . S
O67 U46 2.449 . S
O67 C63 1.282 . S
H68 C41 0.931 . S
H69 C43 0.929 . S
H70 C44 0.930 . S
H71 C45 0.931 . S
H72 C52 0.932 . S
H73 C53 0.930 . S
H74 C54 0.929 . S
H75 C56 0.930 . S
H76 C58 0.932 . S
H77 C59 0.929 . S
H78 C60 0.928 . S
H79 C62 0.932 . S
C80 C81 1.264 . S
C80 C85 1.479 . S
C80 C90 1.465 . S
C81 C80 1.264 . S
C81 C83 1.339 . S
C81 H108 0.931 . S
C82 C83 1.395 . S
C82 C84 1.320 . S
C83 C81 1.339 . S
C83 C82 1.395 . S
C83 H109 0.929 . S
C84 C82 1.320 . S
C84 C85 1.405 . S
C84 H110 0.930 . S
C85 C80 1.479 . S
C85 C84 1.405 . S
C85 H111 0.931 . S
U86 O87 2.454 . S
U86 O88 2.458 . S
U86 C89 2.984 . S
U86 C90 2.847 . S
U86 C103 2.882 . S
U86 O104 2.441 . S
U86 O105 2.420 . S
U86 O106 2.455 . S
U86 O107 2.449 . S
O87 U86 2.454 . S
O87 C89 1.353 . S
O88 U86 2.458 . S
O88 C89 1.286 . S
C89 U86 2.984 . S
C89 O87 1.353 . S
C89 O88 1.286 . S
C89 C91 1.363 . S
C90 C80 1.465 . S
C90 U86 2.847 . S
C90 O104 1.249 . S
C90 O105 1.202 . S
C91 C89 1.363 . S
C91 C93 1.408 . S
C91 C96 1.342 . S
C92 C93 1.310 . S
C92 C95 1.461 . S
C92 H112 0.932 . S
C93 C91 1.408 . S
C93 C92 1.310 . S
C93 H113 0.930 . S
C94 C95 1.474 . S
C94 C96 1.285 . S
C94 H114 0.929 . S
C95 C92 1.461 . S
C95 C94 1.474 . S
C96 C91 1.342 . S
C96 C94 1.285 . S
C96 H115 0.930 . S
C97 C100 1.424 . S
C97 C102 1.245 . S
C97 C103 1.428 . S
C98 C101 1.260 . S
C98 C102 1.477 . S
C98 H116 0.932 . S
C99 C100 1.384 . S
C99 C101 1.479 . S
C99 H117 0.929 . S
C100 C97 1.424 . S
C100 C99 1.384 . S
C100 H118 0.928 . S
C101 C98 1.260 . S
C101 C99 1.479 . S
C102 C97 1.245 . S
C102 C98 1.477 . S
C102 H119 0.932 . S
C103 U86 2.882 . S
C103 C97 1.428 . S
C103 O106 1.301 . S
C103 O107 1.282 . S
O104 U86 2.441 . S
O104 C90 1.249 . S
O105 U86 2.420 . S
O105 C90 1.202 . S
O106 U86 2.455 . S
O106 C103 1.301 . S
O107 U86 2.449 . S
O107 C103 1.282 . S
H108 C81 0.931 . S
H109 C83 0.929 . S
H110 C84 0.930 . S
H111 C85 0.931 . S
H112 C92 0.932 . S
H113 C93 0.930 . S
H114 C94 0.929 . S
H115 C96 0.930 . S
H116 C98 0.932 . S
H117 C99 0.929 . S
H118 C100 0.928 . S
H119 C102 0.932 . S
C120 C121 1.264 . S
C120 C125 1.479 . S
C120 C130 1.465 . S
C121 C120 1.264 . S
C121 C123 1.339 . S
C121 H148 0.931 . S
C122 C123 1.395 . S
C122 C124 1.320 . S
C123 C121 1.339 . S
C123 C122 1.395 . S
C123 H149 0.929 . S
C124 C122 1.320 . S
C124 C125 1.405 . S
C124 H150 0.930 . S
C125 C120 1.479 . S
C125 C124 1.405 . S
C125 H151 0.931 . S
U126 O127 2.454 . S
U126 O128 2.458 . S
U126 C129 2.984 . S
U126 C130 2.847 . S
U126 C143 2.882 . S
U126 O144 2.441 . S
U126 O145 2.420 . S
U126 O146 2.455 . S
U126 O147 2.449 . S
O127 U126 2.454 . S
O127 C129 1.353 . S
O128 U126 2.458 . S
O128 C129 1.286 . S
C129 U126 2.984 . S
C129 O127 1.353 . S
C129 O128 1.286 . S
C129 C131 1.363 . S
C130 C120 1.465 . S
C130 U126 2.847 . S
C130 O144 1.249 . S
C130 O145 1.202 . S
C131 C129 1.363 . S
C131 C133 1.408 . S
C131 C136 1.342 . S
C132 C133 1.310 . S
C132 C135 1.461 . S
C132 H152 0.932 . S
C133 C131 1.408 . S
C133 C132 1.310 . S
C133 H153 0.930 . S
C134 C135 1.474 . S
C134 C136 1.285 . S
C134 H154 0.929 . S
C135 C132 1.461 . S
C135 C134 1.474 . S
C136 C131 1.342 . S
C136 C134 1.285 . S
C136 H155 0.930 . S
C137 C140 1.424 . S
C137 C142 1.245 . S
C137 C143 1.428 . S
C138 C141 1.260 . S
C138 C142 1.477 . S
C138 H156 0.932 . S
C139 C140 1.384 . S
C139 C141 1.479 . S
C139 H157 0.929 . S
C140 C137 1.424 . S
C140 C139 1.384 . S
C140 H158 0.928 . S
C141 C138 1.260 . S
C141 C139 1.479 . S
C142 C137 1.245 . S
C142 C138 1.477 . S
C142 H159 0.932 . S
C143 U126 2.882 . S
C143 C137 1.428 . S
C143 O146 1.301 . S
C143 O147 1.282 . S
O144 U126 2.441 . S
O144 C130 1.249 . S
O145 U126 2.420 . S
O145 C130 1.202 . S
O146 U126 2.455 . S
O146 C143 1.301 . S
O147 U126 2.449 . S
O147 C143 1.282 . S
H148 C121 0.931 . S
H149 C123 0.929 . S
H150 C124 0.930 . S
H151 C125 0.931 . S
H152 C132 0.932 . S
H153 C133 0.930 . S
H154 C134 0.929 . S
H155 C136 0.930 . S
H156 C138 0.932 . S
H157 C139 0.929 . S
H158 C140 0.928 . S
H159 C142 0.932 . S
C160 C161 1.264 . S
C160 C165 1.479 . S
C160 C170 1.465 . S
C161 C160 1.264 . S
C161 C163 1.339 . S
C161 H188 0.931 . S
C162 C163 1.395 . S
C162 C164 1.320 . S
C163 C161 1.339 . S
C163 C162 1.395 . S
C163 H189 0.929 . S
C164 C162 1.320 . S
C164 C165 1.405 . S
C164 H190 0.930 . S
C165 C160 1.479 . S
C165 C164 1.405 . S
C165 H191 0.931 . S
U166 O167 2.454 . S
U166 O168 2.458 . S
U166 C169 2.984 . S
U166 C170 2.847 . S
U166 C183 2.882 . S
U166 O184 2.441 . S
U166 O185 2.420 . S
U166 O186 2.455 . S
U166 O187 2.449 . S
O167 U166 2.454 . S
O167 C169 1.353 . S
O168 U166 2.458 . S
O168 C169 1.286 . S
C169 U166 2.984 . S
C169 O167 1.353 . S
C169 O168 1.286 . S
C169 C171 1.363 . S
C170 C160 1.465 . S
C170 U166 2.847 . S
C170 O184 1.249 . S
C170 O185 1.202 . S
C171 C169 1.363 . S
C171 C173 1.408 . S
C171 C176 1.342 . S
C172 C173 1.310 . S
C172 C175 1.461 . S
C172 H192 0.932 . S
C173 C171 1.408 . S
C173 C172 1.310 . S
C173 H193 0.930 . S
C174 C175 1.474 . S
C174 C176 1.285 . S
C174 H194 0.929 . S
C175 C172 1.461 . S
C175 C174 1.474 . S
C176 C171 1.342 . S
C176 C174 1.285 . S
C176 H195 0.930 . S
C177 C180 1.424 . S
C177 C182 1.245 . S
C177 C183 1.428 . S
C178 C181 1.260 . S
C178 C182 1.477 . S
C178 H196 0.932 . S
C179 C180 1.384 . S
C179 C181 1.479 . S
C179 H197 0.929 . S
C180 C177 1.424 . S
C180 C179 1.384 . S
C180 H198 0.928 . S
C181 C178 1.260 . S
C181 C179 1.479 . S
C182 C177 1.245 . S
C182 C178 1.477 . S
C182 H199 0.932 . S
C183 U166 2.882 . S
C183 C177 1.428 . S
C183 O186 1.301 . S
C183 O187 1.282 . S
O184 U166 2.441 . S
O184 C170 1.249 . S
O185 U166 2.420 . S
O185 C170 1.202 . S
O186 U166 2.455 . S
O186 C183 1.301 . S
O187 U166 2.449 . S
O187 C183 1.282 . S
H188 C161 0.931 . S
H189 C163 0.929 . S
H190 C164 0.930 . S
H191 C165 0.931 . S
H192 C172 0.932 . S
H193 C173 0.930 . S
H194 C174 0.929 . S
H195 C176 0.930 . S
H196 C178 0.932 . S
H197 C179 0.929 . S
H198 C180 0.928 . S
H199 C182 0.932 . S
C200 C201 1.264 . S
C200 C205 1.479 . S
C200 C210 1.465 . S
C201 C200 1.264 . S
C201 C203 1.339 . S
C201 H228 0.931 . S
C202 C203 1.395 . S
C202 C204 1.320 . S
C203 C201 1.339 . S
C203 C202 1.395 . S
C203 H229 0.929 . S
C204 C202 1.320 . S
C204 C205 1.405 . S
C204 H230 0.930 . S
C205 C200 1.479 . S
C205 C204 1.405 . S
C205 H231 0.931 . S
U206 O207 2.454 . S
U206 O208 2.458 . S
U206 C209 2.984 . S
U206 C210 2.847 . S
U206 C223 2.882 . S
U206 O224 2.441 . S
U206 O225 2.420 . S
U206 O226 2.455 . S
U206 O227 2.449 . S
O207 U206 2.454 . S
O207 C209 1.353 . S
O208 U206 2.458 . S
O208 C209 1.286 . S
C209 U206 2.984 . S
C209 O207 1.353 . S
C209 O208 1.286 . S
C209 C211 1.363 . S
C210 C200 1.465 . S
C210 U206 2.847 . S
C210 O224 1.249 . S
C210 O225 1.202 . S
C211 C209 1.363 . S
C211 C213 1.408 . S
C211 C216 1.342 . S
C212 C213 1.310 . S
C212 C215 1.461 . S
C212 H232 0.932 . S
C213 C211 1.408 . S
C213 C212 1.310 . S
C213 H233 0.930 . S
C214 C215 1.474 . S
C214 C216 1.285 . S
C214 H234 0.929 . S
C215 C212 1.461 . S
C215 C214 1.474 . S
C216 C211 1.342 . S
C216 C214 1.285 . S
C216 H235 0.930 . S
C217 C220 1.424 . S
C217 C222 1.245 . S
C217 C223 1.428 . S
C218 C221 1.260 . S
C218 C222 1.477 . S
C218 H236 0.932 . S
C219 C220 1.384 . S
C219 C221 1.479 . S
C219 H237 0.929 . S
C220 C217 1.424 . S
C220 C219 1.384 . S
C220 H238 0.928 . S
C221 C218 1.260 . S
C221 C219 1.479 . S
C222 C217 1.245 . S
C222 C218 1.477 . S
C222 H239 0.932 . S
C223 U206 2.882 . S
C223 C217 1.428 . S
C223 O226 1.301 . S
C223 O227 1.282 . S
O224 U206 2.441 . S
O224 C210 1.249 . S
O225 U206 2.420 . S
O225 C210 1.202 . S
O226 U206 2.455 . S
O226 C223 1.301 . S
O227 U206 2.449 . S
O227 C223 1.282 . S
H228 C201 0.931 . S
H229 C203 0.929 . S
H230 C204 0.930 . S
H231 C205 0.931 . S
H232 C212 0.932 . S
H233 C213 0.930 . S
H234 C214 0.929 . S
H235 C216 0.930 . S
H236 C218 0.932 . S
H237 C219 0.929 . S
H238 C220 0.928 . S
H239 C222 0.932 . S
C240 C241 1.264 . S
C240 C245 1.479 . S
C240 C250 1.465 . S
C241 C240 1.264 . S
C241 C243 1.339 . S
C241 H268 0.931 . S
C242 C243 1.395 . S
C242 C244 1.320 . S
C243 C241 1.339 . S
C243 C242 1.395 . S
C243 H269 0.929 . S
C244 C242 1.320 . S
C244 C245 1.405 . S
C244 H270 0.930 . S
C245 C240 1.479 . S
C245 C244 1.405 . S
C245 H271 0.931 . S
U246 O247 2.454 . S
U246 O248 2.458 . S
U246 C249 2.984 . S
U246 C250 2.847 . S
U246 C263 2.882 . S
U246 O264 2.441 . S
U246 O265 2.420 . S
U246 O266 2.455 . S
U246 O267 2.449 . S
O247 U246 2.454 . S
O247 C249 1.353 . S
O248 U246 2.458 . S
O248 C249 1.286 . S
C249 U246 2.984 . S
C249 O247 1.353 . S
C249 O248 1.286 . S
C249 C251 1.363 . S
C250 C240 1.465 . S
C250 U246 2.847 . S
C250 O264 1.249 . S
C250 O265 1.202 . S
C251 C249 1.363 . S
C251 C253 1.408 . S
C251 C256 1.342 . S
C252 C253 1.310 . S
C252 C255 1.461 . S
C252 H272 0.932 . S
C253 C251 1.408 . S
C253 C252 1.310 . S
C253 H273 0.930 . S
C254 C255 1.474 . S
C254 C256 1.285 . S
C254 H274 0.929 . S
C255 C252 1.461 . S
C255 C254 1.474 . S
C256 C251 1.342 . S
C256 C254 1.285 . S
C256 H275 0.930 . S
C257 C260 1.424 . S
C257 C262 1.245 . S
C257 C263 1.428 . S
C258 C261 1.260 . S
C258 C262 1.477 . S
C258 H276 0.932 . S
C259 C260 1.384 . S
C259 C261 1.479 . S
C259 H277 0.929 . S
C260 C257 1.424 . S
C260 C259 1.384 . S
C260 H278 0.928 . S
C261 C258 1.260 . S
C261 C259 1.479 . S
C262 C257 1.245 . S
C262 C258 1.477 . S
C262 H279 0.932 . S
C263 U246 2.882 . S
C263 C257 1.428 . S
C263 O266 1.301 . S
C263 O267 1.282 . S
O264 U246 2.441 . S
O264 C250 1.249 . S
O265 U246 2.420 . S
O265 C250 1.202 . S
O266 U246 2.455 . S
O266 C263 1.301 . S
O267 U246 2.449 . S
O267 C263 1.282 . S
H268 C241 0.931 . S
H269 C243 0.929 . S
H270 C244 0.930 . S
H271 C245 0.931 . S
H272 C252 0.932 . S
H273 C253 0.930 . S
H274 C254 0.929 . S
H275 C256 0.930 . S
H276 C258 0.932 . S
H277 C259 0.929 . S
H278 C260 0.928 . S
H279 C262 0.932 . S
C280 C281 1.264 . S
C280 C285 1.479 . S
C280 C290 1.465 . S
C281 C280 1.264 . S
C281 C283 1.339 . S
C281 H308 0.931 . S
C282 C283 1.395 . S
C282 C284 1.320 . S
C283 C281 1.339 . S
C283 C282 1.395 . S
C283 H309 0.929 . S
C284 C282 1.320 . S
C284 C285 1.405 . S
C284 H310 0.930 . S
C285 C280 1.479 . S
C285 C284 1.405 . S
C285 H311 0.931 . S
U286 O287 2.454 . S
U286 O288 2.458 . S
U286 C289 2.984 . S
U286 C290 2.847 . S
U286 C303 2.882 . S
U286 O304 2.441 . S
U286 O305 2.420 . S
U286 O306 2.455 . S
U286 O307 2.449 . S
O287 U286 2.454 . S
O287 C289 1.353 . S
O288 U286 2.458 . S
O288 C289 1.286 . S
C289 U286 2.984 . S
C289 O287 1.353 . S
C289 O288 1.286 . S
C289 C291 1.363 . S
C290 C280 1.465 . S
C290 U286 2.847 . S
C290 O304 1.249 . S
C290 O305 1.202 . S
C291 C289 1.363 . S
C291 C293 1.408 . S
C291 C296 1.342 . S
C292 C293 1.310 . S
C292 C295 1.461 . S
C292 H312 0.932 . S
C293 C291 1.408 . S
C293 C292 1.310 . S
C293 H313 0.930 . S
C294 C295 1.474 . S
C294 C296 1.285 . S
C294 H314 0.929 . S
C295 C292 1.461 . S
C295 C294 1.474 . S
C296 C291 1.342 . S
C296 C294 1.285 . S
C296 H315 0.930 . S
C297 C300 1.424 . S
C297 C302 1.245 . S
C297 C303 1.428 . S
C298 C301 1.260 . S
C298 C302 1.477 . S
C298 H316 0.932 . S
C299 C300 1.384 . S
C299 C301 1.479 . S
C299 H317 0.929 . S
C300 C297 1.424 . S
C300 C299 1.384 . S
C300 H318 0.928 . S
C301 C298 1.260 . S
C301 C299 1.479 . S
C302 C297 1.245 . S
C302 C298 1.477 . S
C302 H319 0.932 . S
C303 U286 2.882 . S
C303 C297 1.428 . S
C303 O306 1.301 . S
C303 O307 1.282 . S
O304 U286 2.441 . S
O304 C290 1.249 . S
O305 U286 2.420 . S
O305 C290 1.202 . S
O306 U286 2.455 . S
O306 C303 1.301 . S
O307 U286 2.449 . S
O307 C303 1.282 . S
H308 C281 0.931 . S
H309 C283 0.929 . S
H310 C284 0.930 . S
H311 C285 0.931 . S
H312 C292 0.932 . S
H313 C293 0.930 . S
H314 C294 0.929 . S
H315 C296 0.930 . S
H316 C298 0.932 . S
H317 C299 0.929 . S
H318 C300 0.928 . S
H319 C302 0.932 . S
Pr320 C322 2.880 . S
Pr320 O340 2.562 . S
Pr320 O341 2.490 . S
Pr320 O342 2.695 1_665 S
Pr320 O343 2.512 1_665 S
Pr320 O345 2.437 1_655 S
Pr320 O348 2.436 . S
Pr320 O350 2.438 1_565 S
Pr321 C331 2.880 . S
Pr321 O342 2.436 . S
Pr321 O344 2.438 1_545 S
Pr321 O346 2.562 . S
Pr321 O347 2.490 . S
Pr321 O348 2.695 1_445 S
Pr321 O349 2.505 1_445 S
Pr321 O351 2.437 1_455 S
C322 Pr320 2.880 . S
C322 C323 1.491 . S
C322 O340 1.254 . S
C322 O341 1.225 . S
C323 C322 1.491 . S
C323 C324 1.392 . S
C323 C328 1.356 . S
C324 C323 1.392 . S
C324 C325 1.368 . S
C324 H352 0.929 . S
C325 C324 1.368 . S
C325 C326 1.386 . S
C325 H353 0.929 . S
C326 C325 1.386 . S
C326 C327 1.373 . S
C327 C326 1.373 . S
C327 C328 1.409 . S
C327 H354 0.931 . S
C328 C323 1.356 . S
C328 C327 1.409 . S
C328 H355 0.930 . S
C329 O342 1.270 . S
C329 O343 1.248 . S
C330 O344 1.267 . S
C330 O345 1.278 . S
C331 Pr321 2.880 . S
C331 C332 1.491 . S
C331 O346 1.254 . S
C331 O347 1.225 . S
C332 C331 1.491 . S
C332 C333 1.392 . S
C332 C337 1.356 . S
C333 C332 1.392 . S
C333 C334 1.368 . S
C333 H356 0.929 . S
C334 C333 1.368 . S
C334 C335 1.386 . S
C334 H357 0.929 . S
C335 C334 1.386 . S
C335 C336 1.373 . S
C336 C335 1.373 . S
C336 C337 1.409 . S
C336 H358 0.931 . S
C337 C332 1.356 . S
C337 C336 1.409 . S
C337 H359 0.930 . S
C338 O348 1.270 . S
C338 O349 1.267 . S
C339 O350 1.267 . S
C339 O351 1.278 . S
O340 Pr320 2.562 . S
O340 C322 1.254 . S
O341 Pr320 2.490 . S
O341 C322 1.225 . S
O342 Pr320 2.695 1_445 S
O342 Pr321 2.436 . S
O342 C329 1.270 . S
O343 Pr320 2.512 1_445 S
O343 C329 1.248 . S
O344 Pr321 2.438 1_565 S
O344 C330 1.267 . S
O345 Pr320 2.437 1_455 S
O345 C330 1.278 . S
O346 Pr321 2.562 . S
O346 C331 1.254 . S
O347 Pr321 2.490 . S
O347 C331 1.225 . S
O348 Pr320 2.436 . S
O348 Pr321 2.695 1_665 S
O348 C338 1.270 . S
O349 Pr321 2.505 1_665 S
O349 C338 1.267 . S
O350 Pr320 2.438 1_545 S
O350 C339 1.267 . S
O351 Pr321 2.437 1_655 S
O351 C339 1.278 . S
H352 C324 0.929 . S
H353 C325 0.929 . S
H354 C327 0.931 . S
H355 C328 0.930 . S
H356 C333 0.929 . S
H357 C334 0.929 . S
H358 C336 0.931 . S
H359 C337 0.930 . S
Pr360 C362 2.880 . S
Pr360 O380 2.562 . S
Pr360 O381 2.490 . S
Pr360 O382 2.695 1_554 S
Pr360 O383 2.512 1_554 S
Pr360 O385 2.437 . S
Pr360 O388 2.436 1_545 S
Pr360 O390 2.438 1_544 S
Pr361 C371 2.880 1_554 S
Pr361 O382 2.436 1_564 S
Pr361 O384 2.438 1_565 S
Pr361 O386 2.562 1_554 S
Pr361 O387 2.490 1_554 S
Pr361 O388 2.695 . S
Pr361 O389 2.512 . S
Pr361 O391 2.437 1_554 S
C362 Pr360 2.880 . S
C362 C363 1.491 . S
C362 O380 1.254 . S
C362 O381 1.225 . S
C363 C362 1.491 . S
C363 C364 1.392 . S
C363 C368 1.356 . S
C364 C363 1.392 . S
C364 C365 1.368 . S
C364 H392 0.929 . S
C365 C364 1.368 . S
C365 C366 1.386 . S
C365 H393 0.929 . S
C366 C365 1.386 . S
C366 C367 1.373 . S
C367 C366 1.373 . S
C367 C368 1.409 . S
C367 H394 0.931 . S
C368 C363 1.356 . S
C368 C367 1.409 . S
C368 H395 0.930 . S
C369 O382 1.270 . S
C369 O383 1.248 . S
C370 O384 1.267 . S
C370 O385 1.278 . S
C371 Pr361 2.880 1_556 S
C371 C372 1.491 . S
C371 O386 1.254 . S
C371 O387 1.225 . S
C372 C371 1.491 . S
C372 C373 1.392 . S
C372 C377 1.356 . S
C373 C372 1.392 . S
C373 C374 1.368 . S
C373 H396 0.929 . S
C374 C373 1.368 . S
C374 C375 1.386 . S
C374 H397 0.929 . S
C375 C374 1.386 . S
C375 C376 1.373 . S
C376 C375 1.373 . S
C376 C377 1.409 . S
C376 H398 0.931 . S
C377 C372 1.356 . S
C377 C376 1.409 . S
C377 H399 0.930 . S
C378 O388 1.270 . S
C378 O389 1.248 . S
C379 O390 1.267 . S
C379 O391 1.278 . S
O380 Pr360 2.562 . S
O380 C362 1.254 . S
O381 Pr360 2.490 . S
O381 C362 1.225 . S
O382 Pr360 2.695 1_556 S
O382 Pr361 2.436 1_546 S
O382 C369 1.270 . S
O383 Pr360 2.512 1_556 S
O383 C369 1.248 . S
O384 Pr361 2.438 1_545 S
O384 C370 1.267 . S
O385 Pr360 2.437 . S
O385 C370 1.278 . S
O386 Pr361 2.562 1_556 S
O386 C371 1.254 . S
O387 Pr361 2.490 1_556 S
O387 C371 1.225 . S
O388 Pr360 2.436 1_565 S
O388 Pr361 2.695 . S
O388 C378 1.270 . S
O389 Pr361 2.512 . S
O389 C378 1.248 . S
O390 Pr360 2.438 1_566 S
O390 C379 1.267 . S
O391 Pr361 2.437 1_556 S
O391 C379 1.278 . S
H392 C364 0.929 . S
H393 C365 0.929 . S
H394 C367 0.931 . S
H395 C368 0.930 . S
H396 C373 0.929 . S
H397 C374 0.929 . S
H398 C376 0.931 . S
H399 C377 0.930 . S
Pr400 C402 2.880 . S
Pr400 O420 2.562 . S
Pr400 O421 2.490 . S
Pr400 O422 2.695 . S
Pr400 O423 2.512 . S
Pr400 O425 2.437 . S
Pr400 O428 2.436 . S
Pr400 O430 2.438 . S
Pr401 C411 2.880 . S
Pr401 O422 2.436 . S
Pr401 O424 2.438 . S
Pr401 O426 2.562 . S
Pr401 O427 2.490 . S
Pr401 O428 2.695 . S
Pr401 O429 2.512 . S
Pr401 O431 2.437 . S
C402 Pr400 2.880 . S
C402 C403 1.491 . S
C402 O420 1.254 . S
C402 O421 1.225 . S
C403 C402 1.491 . S
C403 C404 1.392 . S
C403 C408 1.356 . S
C404 C403 1.392 . S
C404 C405 1.368 . S
C404 H432 0.929 . S
C405 C404 1.368 . S
C405 C406 1.386 . S
C405 H433 0.929 . S
C406 C405 1.386 . S
C406 C407 1.373 . S
C407 C406 1.373 . S
C407 C408 1.409 . S
C407 H434 0.931 . S
C408 C403 1.356 . S
C408 C407 1.409 . S
C408 H435 0.930 . S
C409 O422 1.270 . S
C409 O423 1.248 . S
C410 O424 1.267 . S
C410 O425 1.278 . S
C411 Pr401 2.880 . S
C411 C412 1.491 . S
C411 O426 1.254 . S
C411 O427 1.225 . S
C412 C411 1.491 . S
C412 C413 1.392 . S
C412 C417 1.356 . S
C413 C412 1.392 . S
C413 C414 1.368 . S
C413 H436 0.929 . S
C414 C413 1.368 . S
C414 C415 1.386 . S
C414 H437 0.929 . S
C415 C414 1.386 . S
C415 C416 1.373 . S
C416 C415 1.373 . S
C416 C417 1.409 . S
C416 H438 0.931 . S
C417 C412 1.356 . S
C417 C416 1.409 . S
C417 H439 0.930 . S
C418 O428 1.270 . S
C418 O429 1.248 . S
C419 O430 1.267 . S
C419 O431 1.278 . S
O420 Pr400 2.562 . S
O420 C402 1.254 . S
O421 Pr400 2.490 . S
O421 C402 1.225 . S
O422 Pr400 2.695 . S
O422 Pr401 2.436 . S
O422 C409 1.270 . S
O423 Pr400 2.512 . S
O423 C409 1.248 . S
O424 Pr401 2.438 . S
O424 C410 1.267 . S
O425 Pr400 2.437 . S
O425 C410 1.278 . S
O426 Pr401 2.562 . S
O426 C411 1.254 . S
O427 Pr401 2.490 . S
O427 C411 1.225 . S
O428 Pr400 2.436 . S
O428 Pr401 2.695 . S
O428 C418 1.270 . S
O429 Pr401 2.512 . S
O429 C418 1.248 . S
O430 Pr400 2.438 . S
O430 C419 1.267 . S
O431 Pr401 2.437 . S
O431 C419 1.278 . S
H432 C404 0.929 . S
H433 C405 0.929 . S
H434 C407 0.931 . S
H435 C408 0.930 . S
H436 C413 0.929 . S
H437 C414 0.929 . S
H438 C416 0.931 . S
H439 C417 0.930 . S
Pr440 C442 2.847 1_455 S
Pr440 O460 2.521 1_455 S
Pr440 O461 2.472 1_455 S
Pr440 O462 2.719 1_556 S
Pr440 O463 2.538 1_556 S
Pr440 O465 2.413 1_456 S
Pr440 O468 2.420 1_455 S
Pr440 O470 2.472 . S
Pr441 C451 2.880 . S
Pr441 O462 2.436 . S
Pr441 O464 2.438 1_455 S
Pr441 O466 2.562 . S
Pr441 O467 2.490 . S
Pr441 O468 2.695 1_454 S
Pr441 O469 2.512 1_454 S
Pr441 O471 2.437 1_554 S
C442 Pr440 2.847 1_655 S
C442 C443 1.491 . S
C442 O460 1.254 . S
C442 O461 1.225 . S
C443 C442 1.491 . S
C443 C444 1.392 . S
C443 C448 1.356 . S
C444 C443 1.392 . S
C444 C445 1.368 . S
C444 H472 0.929 . S
C445 C444 1.368 . S
C445 C446 1.386 . S
C445 H473 0.929 . S
C446 C445 1.386 . S
C446 C447 1.373 . S
C447 C446 1.373 . S
C447 C448 1.409 . S
C447 H474 0.931 . S
C448 C443 1.356 . S
C448 C447 1.409 . S
C448 H475 0.930 . S
C449 O462 1.270 . S
C449 O463 1.248 . S
C450 O464 1.267 . S
C450 O465 1.278 . S
C451 Pr441 2.880 . S
C451 C452 1.491 . S
C451 O466 1.254 . S
C451 O467 1.225 . S
C452 C451 1.491 . S
C452 C453 1.392 . S
C452 C457 1.356 . S
C453 C452 1.392 . S
C453 C454 1.368 . S
C453 H476 0.929 . S
C454 C453 1.368 . S
C454 C455 1.386 . S
C454 H477 0.929 . S
C455 C454 1.386 . S
C455 C456 1.373 . S
C456 C455 1.373 . S
C456 C457 1.409 . S
C456 H478 0.931 . S
C457 C452 1.356 . S
C457 C456 1.409 . S
C457 H479 0.930 . S
C458 O468 1.270 . S
C458 O469 1.248 . S
C459 O470 1.267 . S
C459 O471 1.278 . S
O460 Pr440 2.521 1_655 S
O460 C442 1.254 . S
O461 Pr440 2.472 1_655 S
O461 C442 1.225 . S
O462 Pr440 2.719 1_554 S
O462 Pr441 2.436 . S
O462 C449 1.270 . S
O463 Pr440 2.538 1_554 S
O463 C449 1.248 . S
O464 Pr441 2.438 1_655 S
O464 C450 1.267 . S
O465 Pr440 2.413 1_654 S
O465 C450 1.278 . S
O466 Pr441 2.562 . S
O466 C451 1.254 . S
O467 Pr441 2.490 . S
O467 C451 1.225 . S
O468 Pr440 2.420 1_655 S
O468 Pr441 2.695 1_656 S
O468 C458 1.270 . S
O469 Pr441 2.512 1_656 S
O469 C458 1.248 . S
O470 Pr440 2.472 . S
O470 C459 1.267 . S
O471 Pr441 2.437 1_556 S
O471 C459 1.278 . S
H472 C444 0.929 . S
H473 C445 0.929 . S
H474 C447 0.931 . S
H475 C448 0.930 . S
H476 C453 0.929 . S
H477 C454 0.929 . S
H478 C456 0.931 . S
H479 C457 0.930 . S
H480 C488 0.950 . S
H481 C493 0.950 . S
H482 C490 0.950 . S
H483 C492 0.950 . S
H484 C494 0.950 . S
H485 C496 0.950 . S
H486 C498 0.950 . S
H487 C499 0.950 . S
C488 H480 0.950 . S
C488 C489 1.386 . S
C488 C490 1.391 . S
C489 C488 1.386 . S
C489 C493 1.393 . S
C490 H482 0.950 . S
C490 C488 1.391 . S
C490 C491 1.400 . S
C491 C490 1.400 . S
C491 C492 1.398 . S
C491 C497 1.491 . S
C492 H483 0.950 . S
C492 C491 1.398 . S
C492 C493 1.391 . S
C493 H481 0.950 . S
C493 C489 1.393 . S
C493 C492 1.391 . S
C494 H484 0.950 . S
C494 C495 1.386 . S
C494 C496 1.391 . S
C495 C494 1.386 . S
C495 C499 1.393 . S
C496 H485 0.950 . S
C496 C494 1.391 . S
C496 C497 1.400 . S
C497 C491 1.491 . S
C497 C496 1.400 . S
C497 C498 1.398 . S
C498 H486 0.950 . S
C498 C497 1.398 . S
C498 C499 1.391 . S
C499 H487 0.950 . S
C499 C495 1.393 . S
C499 C498 1.391 . S
H500 C508 0.950 . S
H501 C513 0.950 . S
H502 C510 0.950 . S
H503 C512 0.950 . S
H504 C514 0.950 . S
H505 C516 0.950 . S
H506 C518 0.950 . S
H507 C519 0.950 . S
C508 H500 0.950 . S
C508 C509 1.386 . S
C508 C510 1.391 . S
C509 C508 1.386 . S
C509 C513 1.393 . S
C510 H502 0.950 . S
C510 C508 1.391 . S
C510 C511 1.400 . S
C511 C510 1.400 . S
C511 C512 1.398 . S
C511 C517 1.491 . S
C512 H503 0.950 . S
C512 C511 1.398 . S
C512 C513 1.391 . S
C513 H501 0.950 . S
C513 C509 1.393 . S
C513 C512 1.391 . S
C514 H504 0.950 . S
C514 C515 1.386 . S
C514 C516 1.391 . S
C515 C514 1.386 . S
C515 C519 1.393 . S
C516 H505 0.950 . S
C516 C514 1.391 . S
C516 C517 1.400 . S
C517 C511 1.491 . S
C517 C516 1.400 . S
C517 C518 1.398 . S
C518 H506 0.950 . S
C518 C517 1.398 . S
C518 C519 1.391 . S
C519 H507 0.950 . S
C519 C515 1.393 . S
C519 C518 1.391 . S
H520 C528 0.950 . S
H521 C533 0.950 . S
H522 C530 0.950 . S
H523 C532 0.950 . S
H524 C534 0.950 . S
H525 C536 0.950 . S
H526 C538 0.950 . S
H527 C539 0.950 . S
C528 H520 0.950 . S
C528 C529 1.386 . S
C528 C530 1.391 . S
C529 C528 1.386 . S
C529 C533 1.393 . S
C530 H522 0.950 . S
C530 C528 1.391 . S
C530 C531 1.400 . S
C531 C530 1.400 . S
C531 C532 1.398 . S
C531 C537 1.491 . S
C532 H523 0.950 . S
C532 C531 1.398 . S
C532 C533 1.391 . S
C533 H521 0.950 . S
C533 C529 1.393 . S
C533 C532 1.391 . S
C534 H524 0.950 . S
C534 C535 1.386 . S
C534 C536 1.391 . S
C535 C534 1.386 . S
C535 C539 1.393 . S
C536 H525 0.950 . S
C536 C534 1.391 . S
C536 C537 1.400 . S
C537 C531 1.491 . S
C537 C536 1.400 . S
C537 C538 1.398 . S
C538 H526 0.950 . S
C538 C537 1.398 . S
C538 C539 1.391 . S
C539 H527 0.950 . S
C539 C535 1.393 . S
C539 C538 1.391 . S
H540 C548 0.950 . S
H541 C553 0.950 . S
H542 C550 0.950 . S
H543 C552 0.950 . S
H544 C554 0.950 . S
H545 C556 0.950 . S
H546 C558 0.950 . S
H547 C559 0.950 . S
C548 H540 0.950 . S
C548 C549 1.386 . S
C548 C550 1.391 . S
C549 C548 1.386 . S
C549 C553 1.393 . S
C550 H542 0.950 . S
C550 C548 1.391 . S
C550 C551 1.400 . S
C551 C550 1.400 . S
C551 C552 1.398 . S
C551 C557 1.491 . S
C552 H543 0.950 . S
C552 C551 1.398 . S
C552 C553 1.391 . S
C553 H541 0.950 . S
C553 C549 1.393 . S
C553 C552 1.391 . S
C554 H544 0.950 . S
C554 C555 1.386 . S
C554 C556 1.391 . S
C555 C554 1.386 . S
C555 C559 1.393 . S
C556 H545 0.950 . S
C556 C554 1.391 . S
C556 C557 1.400 . S
C557 C551 1.491 . S
C557 C556 1.400 . S
C557 C558 1.398 . S
C558 H546 0.950 . S
C558 C557 1.398 . S
C558 C559 1.391 . S
C559 H547 0.950 . S
C559 C555 1.393 . S
C559 C558 1.391 . S
H560 C568 0.950 . S
H561 C573 0.950 . S
H562 C570 0.950 . S
H563 C572 0.950 . S
H564 C574 0.950 . S
H565 C576 0.950 . S
H566 C578 0.950 . S
H567 C579 0.950 . S
C568 H560 0.950 . S
C568 C569 1.386 . S
C568 C570 1.391 . S
C569 C568 1.386 . S
C569 C573 1.393 . S
C570 H562 0.950 . S
C570 C568 1.391 . S
C570 C571 1.400 . S
C571 C570 1.400 . S
C571 C572 1.398 . S
C571 C577 1.491 . S
C572 H563 0.950 . S
C572 C571 1.398 . S
C572 C573 1.391 . S
C573 H561 0.950 . S
C573 C569 1.393 . S
C573 C572 1.391 . S
C574 H564 0.950 . S
C574 C575 1.386 . S
C574 C576 1.391 . S
C575 C574 1.386 . S
C575 C579 1.393 . S
C576 H565 0.950 . S
C576 C574 1.391 . S
C576 C577 1.400 . S
C577 C571 1.491 . S
C577 C576 1.400 . S
C577 C578 1.398 . S
C578 H566 0.950 . S
C578 C577 1.398 . S
C578 C579 1.391 . S
C579 H567 0.950 . S
C579 C575 1.393 . S
C579 C578 1.391 . S
H580 C588 0.950 . S
H581 C593 0.950 . S
H582 C590 0.950 . S
H583 C592 0.950 . S
H584 C594 0.950 . S
H585 C596 0.950 . S
H586 C598 0.950 . S
H587 C599 0.950 . S
C588 H580 0.950 . S
C588 C589 1.386 . S
C588 C590 1.391 . S
C589 C588 1.386 . S
C589 C593 1.393 . S
C590 H582 0.950 . S
C590 C588 1.391 . S
C590 C591 1.400 . S
C591 C590 1.400 . S
C591 C592 1.398 . S
C591 C597 1.491 . S
C592 H583 0.950 . S
C592 C591 1.398 . S
C592 C593 1.391 . S
C593 H581 0.950 . S
C593 C589 1.393 . S
C593 C592 1.391 . S
C594 H584 0.950 . S
C594 C595 1.386 . S
C594 C596 1.391 . S
C595 C594 1.386 . S
C595 C599 1.393 . S
C596 H585 0.950 . S
C596 C594 1.391 . S
C596 C597 1.400 . S
C597 C591 1.491 . S
C597 C596 1.400 . S
C597 C598 1.398 . S
C598 H586 0.950 . S
C598 C597 1.398 . S
C598 C599 1.391 . S
C599 H587 0.950 . S
C599 C595 1.393 . S
C599 C598 1.391 . S
H600 C608 0.950 . S
H601 C613 0.950 . S
H602 C610 0.950 . S
H603 C612 0.950 . S
H604 C614 0.950 . S
H605 C616 0.950 . S
H606 C618 0.950 . S
H607 C619 0.950 . S
C608 H600 0.950 . S
C608 C609 1.386 . S
C608 C610 1.391 . S
C609 C608 1.386 . S
C609 C613 1.393 . S
C610 H602 0.950 . S
C610 C608 1.391 . S
C610 C611 1.400 . S
C611 C610 1.400 . S
C611 C612 1.398 . S
C611 C617 1.491 . S
C612 H603 0.950 . S
C612 C611 1.398 . S
C612 C613 1.391 . S
C613 H601 0.950 . S
C613 C609 1.393 . S
C613 C612 1.391 . S
C614 H604 0.950 . S
C614 C615 1.386 . S
C614 C616 1.391 . S
C615 C614 1.386 . S
C615 C619 1.393 . S
C616 H605 0.950 . S
C616 C614 1.391 . S
C616 C617 1.400 . S
C617 C611 1.491 . S
C617 C616 1.400 . S
C617 C618 1.398 . S
C618 H606 0.950 . S
C618 C617 1.398 . S
C618 C619 1.391 . S
C619 H607 0.950 . S
C619 C615 1.393 . S
C619 C618 1.391 . S
H620 C628 0.950 . S
H621 C633 0.950 . S
H622 C630 0.950 . S
H623 C632 0.950 . S
H624 C634 0.950 . S
H625 C636 0.950 . S
H626 C638 0.950 . S
H627 C639 0.950 . S
C628 H620 0.950 . S
C628 C629 1.386 . S
C628 C630 1.391 . S
C629 C628 1.386 . S
C629 C633 1.393 . S
C630 H622 0.950 . S
C630 C628 1.391 . S
C630 C631 1.400 . S
C631 C630 1.400 . S
C631 C632 1.398 . S
C631 C637 1.491 . S
C632 H623 0.950 . S
C632 C631 1.398 . S
C632 C633 1.391 . S
C633 H621 0.950 . S
C633 C629 1.393 . S
C633 C632 1.391 . S
C634 H624 0.950 . S
C634 C635 1.386 . S
C634 C636 1.391 . S
C635 C634 1.386 . S
C635 C639 1.393 . S
C636 H625 0.950 . S
C636 C634 1.391 . S
C636 C637 1.400 . S
C637 C631 1.491 . S
C637 C636 1.400 . S
C637 C638 1.398 . S
C638 H626 0.950 . S
C638 C637 1.398 . S
C638 C639 1.391 . S
C639 H627 0.950 . S
C639 C635 1.393 . S
C639 C638 1.391 . S
H640 C648 0.950 . S
H641 C653 0.950 . S
H642 C650 0.950 . S
H643 C652 0.950 . S
H644 C654 0.950 . S
H645 C656 0.950 . S
H646 C658 0.950 . S
H647 C659 0.950 . S
C648 H640 0.950 . S
C648 C649 1.386 . S
C648 C650 1.391 . S
C649 C648 1.386 . S
C649 C653 1.393 . S
C650 H642 0.950 . S
C650 C648 1.391 . S
C650 C651 1.400 . S
C651 C650 1.400 . S
C651 C652 1.398 . S
C651 C657 1.491 . S
C652 H643 0.950 . S
C652 C651 1.398 . S
C652 C653 1.391 . S
C653 H641 0.950 . S
C653 C649 1.393 . S
C653 C652 1.391 . S
C654 H644 0.950 . S
C654 C655 1.386 . S
C654 C656 1.391 . S
C655 C654 1.386 . S
C655 C659 1.393 . S
C656 H645 0.950 . S
C656 C654 1.391 . S
C656 C657 1.400 . S
C657 C651 1.491 . S
C657 C656 1.400 . S
C657 C658 1.398 . S
C658 H646 0.950 . S
C658 C657 1.398 . S
C658 C659 1.391 . S
C659 H647 0.950 . S
C659 C655 1.393 . S
C659 C658 1.391 . S
H660 C668 0.950 . S
H661 C673 0.950 . S
H662 C670 0.950 . S
H663 C672 0.950 . S
H664 C674 0.950 . S
H665 C676 0.950 . S
H666 C678 0.950 . S
H667 C679 0.950 . S
C668 H660 0.950 . S
C668 C669 1.386 . S
C668 C670 1.391 . S
C669 C668 1.386 . S
C669 C673 1.393 . S
C670 H662 0.950 . S
C670 C668 1.391 . S
C670 C671 1.400 . S
C671 C670 1.400 . S
C671 C672 1.398 . S
C671 C677 1.491 . S
C672 H663 0.950 . S
C672 C671 1.398 . S
C672 C673 1.391 . S
C673 H661 0.950 . S
C673 C669 1.393 . S
C673 C672 1.391 . S
C674 H664 0.950 . S
C674 C675 1.386 . S
C674 C676 1.391 . S
C675 C674 1.386 . S
C675 C679 1.393 . S
C676 H665 0.950 . S
C676 C674 1.391 . S
C676 C677 1.400 . S
C677 C671 1.491 . S
C677 C676 1.400 . S
C677 C678 1.398 . S
C678 H666 0.950 . S
C678 C677 1.398 . S
C678 C679 1.391 . S
C679 H667 0.950 . S
C679 C675 1.393 . S
C679 C678 1.391 . S
H680 C688 0.950 . S
H681 C693 0.950 . S
H682 C690 0.950 . S
H683 C692 0.950 . S
H684 C694 0.950 . S
H685 C696 0.950 . S
H686 C698 0.950 . S
H687 C699 0.950 . S
C688 H680 0.950 . S
C688 C689 1.386 . S
C688 C690 1.391 . S
C689 C688 1.386 . S
C689 C693 1.393 . S
C690 H682 0.950 . S
C690 C688 1.391 . S
C690 C691 1.400 . S
C691 C690 1.400 . S
C691 C692 1.398 . S
C691 C697 1.491 . S
C692 H683 0.950 . S
C692 C691 1.398 . S
C692 C693 1.391 . S
C693 H681 0.950 . S
C693 C689 1.393 . S
C693 C692 1.391 . S
C694 H684 0.950 . S
C694 C695 1.386 . S
C694 C696 1.391 . S
C695 C694 1.386 . S
C695 C699 1.393 . S
C696 H685 0.950 . S
C696 C694 1.391 . S
C696 C697 1.400 . S
C697 C691 1.491 . S
C697 C696 1.400 . S
C697 C698 1.398 . S
C698 H686 0.950 . S
C698 C697 1.398 . S
C698 C699 1.391 . S
C699 H687 0.950 . S
C699 C695 1.393 . S
C699 C698 1.391 . S
H700 C708 0.950 . S
H701 C713 0.950 . S
H702 C710 0.950 . S
H703 C712 0.950 . S
H704 C714 0.950 . S
H705 C716 0.950 . S
H706 C718 0.950 . S
H707 C719 0.950 . S
C708 H700 0.950 . S
C708 C709 1.386 . S
C708 C710 1.391 . S
C709 C708 1.386 . S
C709 C713 1.393 . S
C710 H702 0.950 . S
C710 C708 1.391 . S
C710 C711 1.400 . S
C711 C710 1.400 . S
C711 C712 1.398 . S
C711 C717 1.491 . S
C712 H703 0.950 . S
C712 C711 1.398 . S
C712 C713 1.391 . S
C713 H701 0.950 . S
C713 C709 1.393 . S
C713 C712 1.391 . S
C714 H704 0.950 . S
C714 C715 1.386 . S
C714 C716 1.391 . S
C715 C714 1.386 . S
C715 C719 1.393 . S
C716 H705 0.950 . S
C716 C714 1.391 . S
C716 C717 1.400 . S
C717 C711 1.491 . S
C717 C716 1.400 . S
C717 C718 1.398 . S
C718 H706 0.950 . S
C718 C717 1.398 . S
C718 C719 1.391 . S
C719 H707 0.950 . S
C719 C715 1.393 . S
C719 C718 1.391 . S
H720 C728 0.950 . S
H721 C733 0.950 . S
H722 C730 0.950 . S
H723 C732 0.950 . S
H724 C734 0.950 . S
H725 C736 0.950 . S
H726 C738 0.950 . S
H727 C739 0.950 . S
C728 H720 0.950 . S
C728 C729 1.386 . S
C728 C730 1.391 . S
C729 C728 1.386 . S
C729 C733 1.393 . S
C730 H722 0.950 . S
C730 C728 1.391 . S
C730 C731 1.400 . S
C731 C730 1.400 . S
C731 C732 1.398 . S
C731 C737 1.491 . S
C732 H723 0.950 . S
C732 C731 1.398 . S
C732 C733 1.391 . S
C733 H721 0.950 . S
C733 C729 1.393 . S
C733 C732 1.391 . S
C734 H724 0.950 . S
C734 C735 1.386 . S
C734 C736 1.391 . S
C735 C734 1.386 . S
C735 C739 1.393 . S
C736 H725 0.950 . S
C736 C734 1.391 . S
C736 C737 1.400 . S
C737 C731 1.491 . S
C737 C736 1.400 . S
C737 C738 1.398 . S
C738 H726 0.950 . S
C738 C737 1.398 . S
C738 C739 1.391 . S
C739 H727 0.950 . S
C739 C735 1.393 . S
C739 C738 1.391 . S
H740 C748 0.950 . S
H741 C753 0.950 . S
H742 C750 0.950 . S
H743 C752 0.950 . S
H744 C754 0.950 . S
H745 C756 0.950 . S
H746 C758 0.950 . S
H747 C759 0.950 . S
C748 H740 0.950 . S
C748 C749 1.386 . S
C748 C750 1.391 . S
C749 C748 1.386 . S
C749 C753 1.393 . S
C750 H742 0.950 . S
C750 C748 1.391 . S
C750 C751 1.400 . S
C751 C750 1.400 . S
C751 C752 1.398 . S
C751 C757 1.491 . S
C752 H743 0.950 . S
C752 C751 1.398 . S
C752 C753 1.391 . S
C753 H741 0.950 . S
C753 C749 1.393 . S
C753 C752 1.391 . S
C754 H744 0.950 . S
C754 C755 1.386 . S
C754 C756 1.391 . S
C755 C754 1.386 . S
C755 C759 1.393 . S
C756 H745 0.950 . S
C756 C754 1.391 . S
C756 C757 1.400 . S
C757 C751 1.491 . S
C757 C756 1.400 . S
C757 C758 1.398 . S
C758 H746 0.950 . S
C758 C757 1.398 . S
C758 C759 1.391 . S
C759 H747 0.950 . S
C759 C755 1.393 . S
C759 C758 1.391 . S
H760 C768 0.950 . S
H761 C773 0.950 . S
H762 C770 0.950 . S
H763 C772 0.950 . S
H764 C774 0.950 . S
H765 C776 0.950 . S
H766 C778 0.950 . S
H767 C779 0.950 . S
C768 H760 0.950 . S
C768 C769 1.386 . S
C768 C770 1.391 . S
C769 C768 1.386 . S
C769 C773 1.393 . S
C770 H762 0.950 . S
C770 C768 1.391 . S
C770 C771 1.400 . S
C771 C770 1.400 . S
C771 C772 1.398 . S
C771 C777 1.491 . S
C772 H763 0.950 . S
C772 C771 1.398 . S
C772 C773 1.391 . S
C773 H761 0.950 . S
C773 C769 1.393 . S
C773 C772 1.391 . S
C774 H764 0.950 . S
C774 C775 1.386 . S
C774 C776 1.391 . S
C775 C774 1.386 . S
C775 C779 1.393 . S
C776 H765 0.950 . S
C776 C774 1.391 . S
C776 C777 1.400 . S
C777 C771 1.491 . S
C777 C776 1.400 . S
C777 C778 1.398 . S
C778 H766 0.950 . S
C778 C777 1.398 . S
C778 C779 1.391 . S
C779 H767 0.950 . S
C779 C775 1.393 . S
C779 C778 1.391 . S
H780 C788 0.950 . S
H781 C793 0.950 . S
H782 C790 0.950 . S
H783 C792 0.950 . S
H784 C794 0.950 . S
H785 C796 0.950 . S
H786 C798 0.950 . S
H787 C799 0.950 . S
C788 H780 0.950 . S
C788 C789 1.386 . S
C788 C790 1.391 . S
C789 C788 1.386 . S
C789 C793 1.393 . S
C790 H782 0.950 . S
C790 C788 1.391 . S
C790 C791 1.400 . S
C791 C790 1.400 . S
C791 C792 1.398 . S
C791 C797 1.491 . S
C792 H783 0.950 . S
C792 C791 1.398 . S
C792 C793 1.391 . S
C793 H781 0.950 . S
C793 C789 1.393 . S
C793 C792 1.391 . S
C794 H784 0.950 . S
C794 C795 1.386 . S
C794 C796 1.391 . S
C795 C794 1.386 . S
C795 C799 1.393 . S
C796 H785 0.950 . S
C796 C794 1.391 . S
C796 C797 1.400 . S
C797 C791 1.491 . S
C797 C796 1.400 . S
C797 C798 1.398 . S
C798 H786 0.950 . S
C798 C797 1.398 . S
C798 C799 1.391 . S
C799 H787 0.950 . S
C799 C795 1.393 . S
C799 C798 1.391 . S
H800 C808 0.950 . S
H801 C813 0.950 . S
H802 C810 0.950 . S
H803 C812 0.950 . S
H804 C814 0.950 . S
H805 C816 0.950 . S
H806 C818 0.950 . S
H807 C819 0.950 . S
C808 H800 0.950 . S
C808 C809 1.386 . S
C808 C810 1.391 . S
C809 C808 1.386 . S
C809 C813 1.393 . S
C810 H802 0.950 . S
C810 C808 1.391 . S
C810 C811 1.400 . S
C811 C810 1.400 . S
C811 C812 1.398 . S
C811 C817 1.491 . S
C812 H803 0.950 . S
C812 C811 1.398 . S
C812 C813 1.391 . S
C813 H801 0.950 . S
C813 C809 1.393 . S
C813 C812 1.391 . S
C814 H804 0.950 . S
C814 C815 1.386 . S
C814 C816 1.391 . S
C815 C814 1.386 . S
C815 C819 1.393 . S
C816 H805 0.950 . S
C816 C814 1.391 . S
C816 C817 1.400 . S
C817 C811 1.491 . S
C817 C816 1.400 . S
C817 C818 1.398 . S
C818 H806 0.950 . S
C818 C817 1.398 . S
C818 C819 1.391 . S
C819 H807 0.950 . S
C819 C815 1.393 . S
C819 C818 1.391 . S
H820 C828 0.950 . S
H821 C833 0.950 . S
H822 C830 0.950 . S
H823 C832 0.950 . S
H824 C834 0.950 . S
H825 C836 0.950 . S
H826 C838 0.950 . S
H827 C839 0.950 . S
C828 H820 0.950 . S
C828 C829 1.386 . S
C828 C830 1.391 . S
C829 C828 1.386 . S
C829 C833 1.393 . S
C830 H822 0.950 . S
C830 C828 1.391 . S
C830 C831 1.400 . S
C831 C830 1.400 . S
C831 C832 1.398 . S
C831 C837 1.491 . S
C832 H823 0.950 . S
C832 C831 1.398 . S
C832 C833 1.391 . S
C833 H821 0.950 . S
C833 C829 1.393 . S
C833 C832 1.391 . S
C834 H824 0.950 . S
C834 C835 1.386 . S
C834 C836 1.391 . S
C835 C834 1.386 . S
C835 C839 1.393 . S
C836 H825 0.950 . S
C836 C834 1.391 . S
C836 C837 1.400 . S
C837 C831 1.491 . S
C837 C836 1.400 . S
C837 C838 1.398 . S
C838 H826 0.950 . S
C838 C837 1.398 . S
C838 C839 1.391 . S
C839 H827 0.950 . S
C839 C835 1.393 . S
C839 C838 1.391 . S
H840 C848 0.950 . S
H841 C853 0.950 . S
H842 C850 0.950 . S
H843 C852 0.950 . S
H844 C854 0.950 . S
H845 C856 0.950 . S
H846 C858 0.950 . S
H847 C859 0.950 . S
C848 H840 0.950 . S
C848 C849 1.386 . S
C848 C850 1.391 . S
C849 C848 1.386 . S
C849 C853 1.393 . S
C850 H842 0.950 . S
C850 C848 1.391 . S
C850 C851 1.400 . S
C851 C850 1.400 . S
C851 C852 1.398 . S
C851 C857 1.491 . S
C852 H843 0.950 . S
C852 C851 1.398 . S
C852 C853 1.391 . S
C853 H841 0.950 . S
C853 C849 1.393 . S
C853 C852 1.391 . S
C854 H844 0.950 . S
C854 C855 1.386 . S
C854 C856 1.391 . S
C855 C854 1.386 . S
C855 C859 1.393 . S
C856 H845 0.950 . S
C856 C854 1.391 . S
C856 C857 1.400 . S
C857 C851 1.491 . S
C857 C856 1.400 . S
C857 C858 1.398 . S
C858 H846 0.950 . S
C858 C857 1.398 . S
C858 C859 1.391 . S
C859 H847 0.950 . S
C859 C855 1.393 . S
C859 C858 1.391 . S
H860 C868 0.950 . S
H861 C873 0.950 . S
H862 C870 0.950 . S
H863 C872 0.950 . S
H864 C874 0.950 . S
H865 C876 0.950 . S
H866 C878 0.950 . S
H867 C879 0.950 . S
C868 H860 0.950 . S
C868 C869 1.386 . S
C868 C870 1.391 . S
C869 C868 1.386 . S
C869 C873 1.393 . S
C870 H862 0.950 . S
C870 C868 1.391 . S
C870 C871 1.400 . S
C871 C870 1.400 . S
C871 C872 1.398 . S
C871 C877 1.491 . S
C872 H863 0.950 . S
C872 C871 1.398 . S
C872 C873 1.391 . S
C873 H861 0.950 . S
C873 C869 1.393 . S
C873 C872 1.391 . S
C874 H864 0.950 . S
C874 C875 1.386 . S
C874 C876 1.391 . S
C875 C874 1.386 . S
C875 C879 1.393 . S
C876 H865 0.950 . S
C876 C874 1.391 . S
C876 C877 1.400 . S
C877 C871 1.491 . S
C877 C876 1.400 . S
C877 C878 1.398 . S
C878 H866 0.950 . S
C878 C877 1.398 . S
C878 C879 1.391 . S
C879 H867 0.950 . S
C879 C875 1.393 . S
C879 C878 1.391 . S
H880 C888 0.950 . S
H881 C893 0.950 . S
H882 C890 0.950 . S
H883 C892 0.950 . S
H884 C894 0.950 . S
H885 C896 0.950 . S
H886 C898 0.950 . S
H887 C899 0.950 . S
C888 H880 0.950 . S
C888 C889 1.386 . S
C888 C890 1.391 . S
C889 C888 1.386 . S
C889 C893 1.393 . S
C890 H882 0.950 . S
C890 C888 1.391 . S
C890 C891 1.400 . S
C891 C890 1.400 . S
C891 C892 1.398 . S
C891 C897 1.491 . S
C892 H883 0.950 . S
C892 C891 1.398 . S
C892 C893 1.391 . S
C893 H881 0.950 . S
C893 C889 1.393 . S
C893 C892 1.391 . S
C894 H884 0.950 . S
C894 C895 1.386 . S
C894 C896 1.391 . S
C895 C894 1.386 . S
C895 C899 1.393 . S
C896 H885 0.950 . S
C896 C894 1.391 . S
C896 C897 1.400 . S
C897 C891 1.491 . S
C897 C896 1.400 . S
C897 C898 1.398 . S
C898 H886 0.950 . S
C898 C897 1.398 . S
C898 C899 1.391 . S
C899 H887 0.950 . S
C899 C895 1.393 . S
C899 C898 1.391 . S
H900 C908 0.950 . S
H901 C913 0.950 . S
H902 C910 0.950 . S
H903 C912 0.950 . S
H904 C914 0.950 . S
H905 C916 0.950 . S
H906 C918 0.950 . S
H907 C919 0.950 . S
C908 H900 0.950 . S
C908 C909 1.386 . S
C908 C910 1.391 . S
C909 C908 1.386 . S
C909 C913 1.393 . S
C910 H902 0.950 . S
C910 C908 1.391 . S
C910 C911 1.400 . S
C911 C910 1.400 . S
C911 C912 1.398 . S
C911 C917 1.491 . S
C912 H903 0.950 . S
C912 C911 1.398 . S
C912 C913 1.391 . S
C913 H901 0.950 . S
C913 C909 1.393 . S
C913 C912 1.391 . S
C914 H904 0.950 . S
C914 C915 1.386 . S
C914 C916 1.391 . S
C915 C914 1.386 . S
C915 C919 1.393 . S
C916 H905 0.950 . S
C916 C914 1.391 . S
C916 C917 1.400 . S
C917 C911 1.491 . S
C917 C916 1.400 . S
C917 C918 1.398 . S
C918 H906 0.950 . S
C918 C917 1.398 . S
C918 C919 1.391 . S
C919 H907 0.950 . S
C919 C915 1.393 . S
C919 C918 1.391 . S
H920 C928 0.950 . S
H921 C933 0.950 . S
H922 C930 0.950 . S
H923 C932 0.950 . S
H924 C934 0.950 . S
H925 C936 0.950 . S
H926 C938 0.950 . S
H927 C939 0.950 . S
C928 H920 0.950 . S
C928 C929 1.386 . S
C928 C930 1.391 . S
C929 C928 1.386 . S
C929 C933 1.393 . S
C930 H922 0.950 . S
C930 C928 1.391 . S
C930 C931 1.400 . S
C931 C930 1.400 . S
C931 C932 1.398 . S
C931 C937 1.491 . S
C932 H923 0.950 . S
C932 C931 1.398 . S
C932 C933 1.391 . S
C933 H921 0.950 . S
C933 C929 1.393 . S
C933 C932 1.391 . S
C934 H924 0.950 . S
C934 C935 1.386 . S
C934 C936 1.391 . S
C935 C934 1.386 . S
C935 C939 1.393 . S
C936 H925 0.950 . S
C936 C934 1.391 . S
C936 C937 1.400 . S
C937 C931 1.491 . S
C937 C936 1.400 . S
C937 C938 1.398 . S
C938 H926 0.950 . S
C938 C937 1.398 . S
C938 C939 1.391 . S
C939 H927 0.950 . S
C939 C935 1.393 . S
C939 C938 1.391 . S
H940 C948 0.950 . S
H941 C953 0.950 . S
H942 C950 0.950 . S
H943 C952 0.950 . S
H944 C954 0.950 . S
H945 C956 0.950 . S
H946 C958 0.950 . S
H947 C959 0.950 . S
C948 H940 0.950 . S
C948 C949 1.386 . S
C948 C950 1.391 . S
C949 C948 1.386 . S
C949 C953 1.393 . S
C950 H942 0.950 . S
C950 C948 1.391 . S
C950 C951 1.400 . S
C951 C950 1.400 . S
C951 C952 1.398 . S
C951 C957 1.491 . S
C952 H943 0.950 . S
C952 C951 1.398 . S
C952 C953 1.391 . S
C953 H941 0.950 . S
C953 C949 1.393 . S
C953 C952 1.391 . S
C954 H944 0.950 . S
C954 C955 1.386 . S
C954 C956 1.391 . S
C955 C954 1.386 . S
C955 C959 1.393 . S
C956 H945 0.950 . S
C956 C954 1.391 . S
C956 C957 1.400 . S
C957 C951 1.491 . S
C957 C956 1.400 . S
C957 C958 1.398 . S
C958 H946 0.950 . S
C958 C957 1.398 . S
C958 C959 1.391 . S
C959 H947 0.950 . S
C959 C955 1.393 . S
C959 C958 1.391 . S
C489 C21 1.079 . S
C495 C335 1.118 . S
C509 C61 1.753 . S
C515 C379 1.694 . S
C535 C409 2.090 . S
C529 C82 2.043 . S
C549 C135 2.813 . S
C555 C450 2.774 . S
C575 C366 0.794 . S
C569 C15 0.786 . S
C595 C330 2.665 . S
C589 C42 2.665 . S
C615 C458 1.187 . S
C609 C101 1.163 . S
C635 C419 2.251 . S
C629 C122 2.278 . S
C649 C2 0.981 . S
C655 C455 1.019 . S
C675 C369 1.982 . S
C669 C95 2.022 . S
C689 C141 2.137 . S
C695 C338 2.129 . S
C709 C55 1.974 . S
C715 C406 1.982 . S
C735 C326 1.098 . S
C729 C181 1.121 . S
C749 C202 1.703 . S
C755 C370 1.638 . S
C769 C255 2.095 . S
C775 C418 2.124 . S
C789 C295 2.787 . S
C795 C459 2.765 . S
C809 C175 0.764 . S
C815 C375 0.757 . S
C835 C339 2.681 . S
C829 C221 2.662 . S
C855 C449 1.103 . S
C849 C242 1.119 . S
C875 C410 2.278 . S
C869 C301 2.271 . S
C889 C162 1.041 . S
C895 C446 1.025 . S
C915 C378 2.036 . S
C909 C261 2.068 . S
C935 C329 2.093 . S
C929 C282 2.126 . S
C949 C215 1.981 . S
C955 C415 1.995 . S
