# Generated by pormake.
# Topology iac, (4,6)-cn, num edge types: 1
# Building blocks:
#     Node 0, Type 0, BuildingBlock: CEKHIL_clean_sbu_0, # of connection points: 4
#     Node 1, Type 0, BuildingBlock: CEKHIL_clean_sbu_0, # of connection points: 4
#     Node 2, Type 0, BuildingBlock: CEKHIL_clean_sbu_0, # of connection points: 4
#     Node 3, Type 0, BuildingBlock: CEKHIL_clean_sbu_0, # of connection points: 4
#     Node 4, Type 0, BuildingBlock: CEKHIL_clean_sbu_0, # of connection points: 4
#     Node 5, Type 0, BuildingBlock: CEKHIL_clean_sbu_0, # of connection points: 4
#     Node 6, Type 0, BuildingBlock: CEKHIL_clean_sbu_0, # of connection points: 4
#     Node 7, Type 0, BuildingBlock: CEKHIL_clean_sbu_0, # of connection points: 4
#     Node 8, Type 0, BuildingBlock: CEKHIL_clean_sbu_0, # of connection points: 4
#     Node 9, Type 0, BuildingBlock: CEKHIL_clean_sbu_0, # of connection points: 4
#     Node 10, Type 0, BuildingBlock: CEKHIL_clean_sbu_0, # of connection points: 4
#     Node 11, Type 0, BuildingBlock: CEKHIL_clean_sbu_0, # of connection points: 4
#     Node 12, Type 0, BuildingBlock: CEKHIL_clean_sbu_0, # of connection points: 4
#     Node 13, Type 0, BuildingBlock: CEKHIL_clean_sbu_0, # of connection points: 4
#     Node 14, Type 0, BuildingBlock: CEKHIL_clean_sbu_0, # of connection points: 4
#     Node 15, Type 0, BuildingBlock: CEKHIL_clean_sbu_0, # of connection points: 4
#     Node 16, Type 0, BuildingBlock: CEKHIL_clean_sbu_0, # of connection points: 4
#     Node 17, Type 0, BuildingBlock: CEKHIL_clean_sbu_0, # of connection points: 4
#     Node 18, Type 0, BuildingBlock: CEKHIL_clean_sbu_0, # of connection points: 4
#     Node 19, Type 0, BuildingBlock: CEKHIL_clean_sbu_0, # of connection points: 4
#     Node 20, Type 0, BuildingBlock: CEKHIL_clean_sbu_0, # of connection points: 4
#     Node 21, Type 0, BuildingBlock: CEKHIL_clean_sbu_0, # of connection points: 4
#     Node 22, Type 0, BuildingBlock: CEKHIL_clean_sbu_0, # of connection points: 4
#     Node 23, Type 0, BuildingBlock: CEKHIL_clean_sbu_0, # of connection points: 4
#     Node 24, Type 1, BuildingBlock: VOLQOD_clean_sbu_1, # of connection points: 6
#     Node 25, Type 1, BuildingBlock: VOLQOD_clean_sbu_1, # of connection points: 6
#     Node 26, Type 1, BuildingBlock: VOLQOD_clean_sbu_1, # of connection points: 6
#     Node 27, Type 1, BuildingBlock: VOLQOD_clean_sbu_1, # of connection points: 6
#     Node 28, Type 1, BuildingBlock: VOLQOD_clean_sbu_1, # of connection points: 6
#     Node 29, Type 1, BuildingBlock: VOLQOD_clean_sbu_1, # of connection points: 6
#     Node 30, Type 1, BuildingBlock: VOLQOD_clean_sbu_1, # of connection points: 6
#     Node 31, Type 1, BuildingBlock: VOLQOD_clean_sbu_1, # of connection points: 6
#     Node 32, Type 1, BuildingBlock: VOLQOD_clean_sbu_1, # of connection points: 6
#     Node 33, Type 1, BuildingBlock: VOLQOD_clean_sbu_1, # of connection points: 6
#     Node 34, Type 1, BuildingBlock: VOLQOD_clean_sbu_1, # of connection points: 6
#     Node 35, Type 1, BuildingBlock: VOLQOD_clean_sbu_1, # of connection points: 6
#     Node 36, Type 1, BuildingBlock: VOLQOD_clean_sbu_1, # of connection points: 6
#     Node 37, Type 1, BuildingBlock: VOLQOD_clean_sbu_1, # of connection points: 6
#     Node 38, Type 1, BuildingBlock: VOLQOD_clean_sbu_1, # of connection points: 6
#     Node 39, Type 1, BuildingBlock: VOLQOD_clean_sbu_1, # of connection points: 6
#     Edge 40, Type (0, 1), BuildingBlock: TEMPAE_clean_linker_10, # of connection points: 2
#     Edge 41, Type (0, 1), BuildingBlock: TEMPAE_clean_linker_10, # of connection points: 2
#     Edge 42, Type (0, 1), BuildingBlock: TEMPAE_clean_linker_10, # of connection points: 2
#     Edge 43, Type (0, 1), BuildingBlock: TEMPAE_clean_linker_10, # of connection points: 2
#     Edge 44, Type (0, 1), BuildingBlock: TEMPAE_clean_linker_10, # of connection points: 2
#     Edge 45, Type (0, 1), BuildingBlock: TEMPAE_clean_linker_10, # of connection points: 2
#     Edge 46, Type (0, 1), BuildingBlock: TEMPAE_clean_linker_10, # of connection points: 2
#     Edge 47, Type (0, 1), BuildingBlock: TEMPAE_clean_linker_10, # of connection points: 2
#     Edge 48, Type (0, 1), BuildingBlock: TEMPAE_clean_linker_10, # of connection points: 2
#     Edge 49, Type (0, 1), BuildingBlock: TEMPAE_clean_linker_10, # of connection points: 2
#     Edge 50, Type (0, 1), BuildingBlock: TEMPAE_clean_linker_10, # of connection points: 2
#     Edge 51, Type (0, 1), BuildingBlock: TEMPAE_clean_linker_10, # of connection points: 2
#     Edge 52, Type (0, 1), BuildingBlock: TEMPAE_clean_linker_10, # of connection points: 2
#     Edge 53, Type (0, 1), BuildingBlock: TEMPAE_clean_linker_10, # of connection points: 2
#     Edge 54, Type (0, 1), BuildingBlock: TEMPAE_clean_linker_10, # of connection points: 2
#     Edge 55, Type (0, 1), BuildingBlock: TEMPAE_clean_linker_10, # of connection points: 2
#     Edge 56, Type (0, 1), BuildingBlock: TEMPAE_clean_linker_10, # of connection points: 2
#     Edge 57, Type (0, 1), BuildingBlock: TEMPAE_clean_linker_10, # of connection points: 2
#     Edge 58, Type (0, 1), BuildingBlock: TEMPAE_clean_linker_10, # of connection points: 2
#     Edge 59, Type (0, 1), BuildingBlock: TEMPAE_clean_linker_10, # of connection points: 2
#     Edge 60, Type (0, 1), BuildingBlock: TEMPAE_clean_linker_10, # of connection points: 2
#     Edge 61, Type (0, 1), BuildingBlock: TEMPAE_clean_linker_10, # of connection points: 2
#     Edge 62, Type (0, 1), BuildingBlock: TEMPAE_clean_linker_10, # of connection points: 2
#     Edge 63, Type (0, 1), BuildingBlock: TEMPAE_clean_linker_10, # of connection points: 2
#     Edge 64, Type (0, 1), BuildingBlock: TEMPAE_clean_linker_10, # of connection points: 2
#     Edge 65, Type (0, 1), BuildingBlock: TEMPAE_clean_linker_10, # of connection points: 2
#     Edge 66, Type (0, 1), BuildingBlock: TEMPAE_clean_linker_10, # of connection points: 2
#     Edge 67, Type (0, 1), BuildingBlock: TEMPAE_clean_linker_10, # of connection points: 2
#     Edge 68, Type (0, 1), BuildingBlock: TEMPAE_clean_linker_10, # of connection points: 2
#     Edge 69, Type (0, 1), BuildingBlock: TEMPAE_clean_linker_10, # of connection points: 2
#     Edge 70, Type (0, 1), BuildingBlock: TEMPAE_clean_linker_10, # of connection points: 2
#     Edge 71, Type (0, 1), BuildingBlock: TEMPAE_clean_linker_10, # of connection points: 2
#     Edge 72, Type (0, 1), BuildingBlock: TEMPAE_clean_linker_10, # of connection points: 2
#     Edge 73, Type (0, 1), BuildingBlock: TEMPAE_clean_linker_10, # of connection points: 2
#     Edge 74, Type (0, 1), BuildingBlock: TEMPAE_clean_linker_10, # of connection points: 2
#     Edge 75, Type (0, 1), BuildingBlock: TEMPAE_clean_linker_10, # of connection points: 2
#     Edge 76, Type (0, 1), BuildingBlock: TEMPAE_clean_linker_10, # of connection points: 2
#     Edge 77, Type (0, 1), BuildingBlock: TEMPAE_clean_linker_10, # of connection points: 2
#     Edge 78, Type (0, 1), BuildingBlock: TEMPAE_clean_linker_10, # of connection points: 2
#     Edge 79, Type (0, 1), BuildingBlock: TEMPAE_clean_linker_10, # of connection points: 2
#     Edge 80, Type (0, 1), BuildingBlock: TEMPAE_clean_linker_10, # of connection points: 2
#     Edge 81, Type (0, 1), BuildingBlock: TEMPAE_clean_linker_10, # of connection points: 2
#     Edge 82, Type (0, 1), BuildingBlock: TEMPAE_clean_linker_10, # of connection points: 2
#     Edge 83, Type (0, 1), BuildingBlock: TEMPAE_clean_linker_10, # of connection points: 2
#     Edge 84, Type (0, 1), BuildingBlock: TEMPAE_clean_linker_10, # of connection points: 2
#     Edge 85, Type (0, 1), BuildingBlock: TEMPAE_clean_linker_10, # of connection points: 2
#     Edge 86, Type (0, 1), BuildingBlock: TEMPAE_clean_linker_10, # of connection points: 2
#     Edge 87, Type (0, 1), BuildingBlock: TEMPAE_clean_linker_10, # of connection points: 2
#     Edge 88, Type (0, 1), BuildingBlock: TEMPAE_clean_linker_10, # of connection points: 2
#     Edge 89, Type (0, 1), BuildingBlock: TEMPAE_clean_linker_10, # of connection points: 2
#     Edge 90, Type (0, 1), BuildingBlock: TEMPAE_clean_linker_10, # of connection points: 2
#     Edge 91, Type (0, 1), BuildingBlock: TEMPAE_clean_linker_10, # of connection points: 2
#     Edge 92, Type (0, 1), BuildingBlock: TEMPAE_clean_linker_10, # of connection points: 2
#     Edge 93, Type (0, 1), BuildingBlock: TEMPAE_clean_linker_10, # of connection points: 2
#     Edge 94, Type (0, 1), BuildingBlock: TEMPAE_clean_linker_10, # of connection points: 2
#     Edge 95, Type (0, 1), BuildingBlock: TEMPAE_clean_linker_10, # of connection points: 2
#     Edge 96, Type (0, 1), BuildingBlock: TEMPAE_clean_linker_10, # of connection points: 2
#     Edge 97, Type (0, 1), BuildingBlock: TEMPAE_clean_linker_10, # of connection points: 2
#     Edge 98, Type (0, 1), BuildingBlock: TEMPAE_clean_linker_10, # of connection points: 2
#     Edge 99, Type (0, 1), BuildingBlock: TEMPAE_clean_linker_10, # of connection points: 2
#     Edge 100, Type (0, 1), BuildingBlock: TEMPAE_clean_linker_10, # of connection points: 2
#     Edge 101, Type (0, 1), BuildingBlock: TEMPAE_clean_linker_10, # of connection points: 2
#     Edge 102, Type (0, 1), BuildingBlock: TEMPAE_clean_linker_10, # of connection points: 2
#     Edge 103, Type (0, 1), BuildingBlock: TEMPAE_clean_linker_10, # of connection points: 2
#     Edge 104, Type (0, 1), BuildingBlock: TEMPAE_clean_linker_10, # of connection points: 2
#     Edge 105, Type (0, 1), BuildingBlock: TEMPAE_clean_linker_10, # of connection points: 2
#     Edge 106, Type (0, 1), BuildingBlock: TEMPAE_clean_linker_10, # of connection points: 2
#     Edge 107, Type (0, 1), BuildingBlock: TEMPAE_clean_linker_10, # of connection points: 2
#     Edge 108, Type (0, 1), BuildingBlock: TEMPAE_clean_linker_10, # of connection points: 2
#     Edge 109, Type (0, 1), BuildingBlock: TEMPAE_clean_linker_10, # of connection points: 2
#     Edge 110, Type (0, 1), BuildingBlock: TEMPAE_clean_linker_10, # of connection points: 2
#     Edge 111, Type (0, 1), BuildingBlock: TEMPAE_clean_linker_10, # of connection points: 2
#     Edge 112, Type (0, 1), BuildingBlock: TEMPAE_clean_linker_10, # of connection points: 2
#     Edge 113, Type (0, 1), BuildingBlock: TEMPAE_clean_linker_10, # of connection points: 2
#     Edge 114, Type (0, 1), BuildingBlock: TEMPAE_clean_linker_10, # of connection points: 2
#     Edge 115, Type (0, 1), BuildingBlock: TEMPAE_clean_linker_10, # of connection points: 2
#     Edge 116, Type (0, 1), BuildingBlock: TEMPAE_clean_linker_10, # of connection points: 2
#     Edge 117, Type (0, 1), BuildingBlock: TEMPAE_clean_linker_10, # of connection points: 2
#     Edge 118, Type (0, 1), BuildingBlock: TEMPAE_clean_linker_10, # of connection points: 2
#     Edge 119, Type (0, 1), BuildingBlock: TEMPAE_clean_linker_10, # of connection points: 2
#     Edge 120, Type (0, 1), BuildingBlock: TEMPAE_clean_linker_10, # of connection points: 2
#     Edge 121, Type (0, 1), BuildingBlock: TEMPAE_clean_linker_10, # of connection points: 2
#     Edge 122, Type (0, 1), BuildingBlock: TEMPAE_clean_linker_10, # of connection points: 2
#     Edge 123, Type (0, 1), BuildingBlock: TEMPAE_clean_linker_10, # of connection points: 2
#     Edge 124, Type (0, 1), BuildingBlock: TEMPAE_clean_linker_10, # of connection points: 2
#     Edge 125, Type (0, 1), BuildingBlock: TEMPAE_clean_linker_10, # of connection points: 2
#     Edge 126, Type (0, 1), BuildingBlock: TEMPAE_clean_linker_10, # of connection points: 2
#     Edge 127, Type (0, 1), BuildingBlock: TEMPAE_clean_linker_10, # of connection points: 2
#     Edge 128, Type (0, 1), BuildingBlock: TEMPAE_clean_linker_10, # of connection points: 2
#     Edge 129, Type (0, 1), BuildingBlock: TEMPAE_clean_linker_10, # of connection points: 2
#     Edge 130, Type (0, 1), BuildingBlock: TEMPAE_clean_linker_10, # of connection points: 2
#     Edge 131, Type (0, 1), BuildingBlock: TEMPAE_clean_linker_10, # of connection points: 2
#     Edge 132, Type (0, 1), BuildingBlock: TEMPAE_clean_linker_10, # of connection points: 2
#     Edge 133, Type (0, 1), BuildingBlock: TEMPAE_clean_linker_10, # of connection points: 2
#     Edge 134, Type (0, 1), BuildingBlock: TEMPAE_clean_linker_10, # of connection points: 2
#     Edge 135, Type (0, 1), BuildingBlock: TEMPAE_clean_linker_10, # of connection points: 2
# Relax obj value: 0.303
# Max RMSD: 0.289
# Mean RMSD: 0.141
data_MOF--net-iac--node1-CEKHIL_clean_sbu_0--node2-VOLQOD_clean_sbu_1--edge1-TEMPAE_clean_linker_10
_symmetry_space_group_name_H-M    P1
_symmetry_Int_Tables_number       1
_symmetry_cell_setting            triclinic
loop_
_symmetry_equiv_pos_as_xyz
'x, y, z'
_cell_length_a     55.62712
_cell_length_b     54.981186
_cell_length_c     54.160117
_cell_angle_alpha  90.063241
_cell_angle_beta   90.303469
_cell_angle_gamma 90.686076
loop_
_atom_site_label
_atom_site_type_symbol
_atom_site_fract_x
_atom_site_fract_y
_atom_site_fract_z
_atom_type_partial_charge
Co0 Co 0.96594 0.27164 0.16459 0.0
O1 O 0.93207 0.26634 0.16834 0.0
O2 O 0.96007 0.25228 0.19381 0.0
C3 C 0.96449 0.31124 0.15478 0.0
O4 O 0.00244 0.27456 0.16706 0.0
Co5 Co 0.98648 0.2856 0.11321 0.0
O6 O 0.01707 0.29019 0.13165 0.0
C7 C 0.97035 0.23552 0.12212 0.0
C8 C 0.9375 0.25329 0.18747 0.0
C9 C 0.01981 0.28303 0.15385 0.0
O10 O 0.96771 0.24067 0.14504 0.0
O11 O 0.97638 0.25121 0.10579 0.0
O12 O 0.96371 0.30465 0.17786 0.0
O13 O 0.96358 0.29382 0.1388 0.0
Co14 Co 0.02981 0.74778 0.39177 0.0
O15 O 0.06399 0.74444 0.38861 0.0
O16 O 0.03666 0.72714 0.36408 0.0
C17 C 0.02925 0.78797 0.39747 0.0
O18 O 0.99364 0.74807 0.38766 0.0
Co19 Co 0.00558 0.76564 0.43969 0.0
O20 O 0.97664 0.76933 0.41831 0.0
C21 C 0.02688 0.71698 0.43804 0.0
C22 C 0.05918 0.73074 0.36957 0.0
C23 C 0.97569 0.75904 0.39724 0.0
O24 O 0.02892 0.7189 0.41448 0.0
O25 O 0.01963 0.73436 0.45177 0.0
O26 O 0.0308 0.77923 0.37524 0.0
O27 O 0.0304 0.7725 0.41535 0.0
Co28 Co 0.50204 0.76594 0.64133 0.0
O29 O 0.46775 0.76376 0.64169 0.0
O30 O 0.49134 0.75437 0.67334 0.0
C31 C 0.50489 0.80251 0.62362 0.0
O32 O 0.53832 0.76751 0.64708 0.0
Co33 Co 0.52707 0.76663 0.59009 0.0
O34 O 0.55596 0.7745 0.61026 0.0
C35 C 0.50674 0.72098 0.60876 0.0
C36 C 0.46971 0.75602 0.66418 0.0
C37 C 0.55689 0.77241 0.6337 0.0
O38 O 0.50365 0.73138 0.62969 0.0
O39 O 0.51397 0.73243 0.58957 0.0
O40 O 0.50084 0.80075 0.64717 0.0
O41 O 0.50397 0.78235 0.61131 0.0
Co42 Co 0.50864 0.26836 0.88308 0.0
O43 O 0.54311 0.26654 0.87809 0.0
O44 O 0.51504 0.25886 0.84987 0.0
C45 C 0.50792 0.30399 0.9035 0.0
O46 O 0.47255 0.26931 0.8788 0.0
Co47 Co 0.48202 0.26836 0.93299 0.0
O48 O 0.45186 0.27334 0.91392 0.0
C49 C 0.50581 0.22392 0.91552 0.0
C50 C 0.53766 0.26016 0.85551 0.0
C51 C 0.4528 0.2721 0.89049 0.0
O52 O 0.50807 0.23328 0.89388 0.0
O53 O 0.49774 0.23576 0.93401 0.0
O54 O 0.50998 0.30372 0.87957 0.0
O55 O 0.50833 0.28309 0.91434 0.0
Co56 Co 0.13886 0.01972 0.28272 0.0
O57 O 0.13687 0.98483 0.28142 0.0
O58 O 0.16482 0.00764 0.26318 0.0
C59 C 0.13268 0.02473 0.32312 0.0
O60 O 0.14753 0.05546 0.28055 0.0
Co61 Co 0.09483 0.05102 0.29692 0.0
O62 O 0.11824 0.07845 0.29658 0.0
C63 C 0.09543 0.02568 0.24932 0.0
C64 C 0.15575 0.98616 0.26739 0.0
C65 C 0.13922 0.07598 0.28767 0.0
O66 O 0.1178 0.02105 0.25253 0.0
O67 O 0.08243 0.03605 0.26554 0.0
O68 O 0.15391 0.01881 0.31534 0.0
O69 O 0.11565 0.02451 0.3068 0.0
Co70 Co 0.26277 0.89002 0.49147 0.0
O71 O 0.22982 0.87913 0.48814 0.0
O72 O 0.24247 0.90992 0.51163 0.0
C73 C 0.27187 0.88808 0.4512 0.0
O74 O 0.29447 0.90748 0.49869 0.0
Co75 Co 0.30548 0.85681 0.47717 0.0
O76 O 0.32577 0.88565 0.48523 0.0
C77 C 0.27343 0.84426 0.51789 0.0
C78 C 0.2248 0.89628 0.50373 0.0
C79 C 0.3171 0.90475 0.49496 0.0
O80 O 0.26735 0.86667 0.51954 0.0
O81 O 0.28621 0.83598 0.50029 0.0
O82 O 0.26059 0.90699 0.45958 0.0
O83 O 0.27527 0.87082 0.46677 0.0
Co84 Co 0.37488 0.98531 0.77601 0.0
O85 O 0.37343 0.01984 0.78237 0.0
O86 O 0.34888 -0.00105 0.75758 0.0
C87 C 0.37989 0.97249 0.81484 0.0
O88 O 0.36913 0.95049 0.76567 0.0
Co89 Co 0.42012 0.95432 0.78613 0.0
O90 O 0.39887 0.92601 0.77792 0.0
C91 C 0.42062 0.99151 0.7475 0.0
C92 C 0.35524 0.01972 0.76713 0.0
C93 C 0.37808 0.92929 0.7686 0.0
O94 O 0.39751 0.9916 0.74775 0.0
O95 O 0.43325 0.97996 0.76332 0.0
O96 O 0.35851 0.9783 0.80717 0.0
O97 O 0.39742 0.97717 0.80002 0.0
Co98 Co 0.24639 0.13468 0.98408 0.0
O99 O 0.28072 0.13613 0.98179 0.0
O100 O 0.26027 0.11037 0.00543 0.0
C101 C 0.23844 0.13637 0.94368 0.0
O102 O 0.211 0.12772 0.99031 0.0
Co103 Co 0.21666 0.17923 0.96615 0.0
O104 O 0.18903 0.15672 0.97171 0.0
C105 C 0.24583 0.18261 0.01115 0.0
C106 C 0.28097 0.11849 -0.00233 0.0
C107 C 0.1908 0.13661 0.98326 0.0
O108 O 0.24762 0.15933 0.01144 0.0
O109 O 0.2366 0.19442 0.99318 0.0
O110 O 0.24422 0.11569 0.9535 0.0
O111 O 0.24039 0.15524 0.9577 0.0
Co112 Co 0.74748 0.37054 0.99508 0.0
O113 O 0.71328 0.37393 -0.00176 0.0
O114 O 0.74063 0.3984 0.01535 0.0
C115 C 0.74626 0.36358 0.95439 0.0
O116 O 0.78387 0.37433 0.99522 0.0
Co117 Co 0.77252 0.32417 0.97682 0.0
O118 O 0.80031 0.34629 0.97069 0.0
C119 C 0.75155 0.32572 0.02679 0.0
C120 C 0.7181 0.39304 0.01159 0.0
C121 C 0.80168 0.36606 0.98288 0.0
O122 O 0.74776 0.34865 0.02468 0.0
O123 O 0.76021 0.31251 0.0096 0.0
O124 O 0.74624 0.38582 0.9626 0.0
O125 O 0.74635 0.34655 0.97076 0.0
Co126 Co 0.87552 0.4899 0.26621 0.0
O127 O 0.87461 0.52339 0.27609 0.0
O128 O 0.84379 0.50229 0.26049 0.0
C129 C 0.89523 0.47622 0.29948 0.0
O130 O 0.86914 0.45525 0.2551 0.0
Co131 Co 0.92335 0.4633 0.25628 0.0
O132 O 0.90289 0.43373 0.26012 0.0
C133 C 0.90456 0.49805 0.21962 0.0
C134 C 0.85225 0.5228 0.269 0.0
C135 C 0.88031 0.43499 0.25649 0.0
O136 O 0.88512 0.5 0.23207 0.0
O137 O 0.92248 0.48539 0.22677 0.0
O138 O 0.87214 0.47958 0.30036 0.0
O139 O 0.90582 0.48322 0.27949 0.0
Co140 Co 0.74996 0.63342 0.51528 0.0
O141 O 0.7846 0.63425 0.51669 0.0
O142 O 0.7617 0.60161 0.52311 0.0
C143 C 0.74579 0.6545 0.48023 0.0
O144 O 0.71438 0.62462 0.51424 0.0
Co145 Co 0.71861 0.67977 0.518 0.0
O146 O 0.69137 0.65773 0.50985 0.0
C147 C 0.74455 0.66244 0.56208 0.0
C148 C 0.78312 0.6112 0.52192 0.0
C149 C 0.69396 0.63478 0.51065 0.0
O150 O 0.74914 0.64223 0.55128 0.0
O151 O 0.73411 0.68023 0.55144 0.0
O152 O 0.75072 0.63144 0.47943 0.0
O153 O 0.74562 0.66438 0.50186 0.0
Co154 Co 0.65333 0.51931 0.77754 0.0
O155 O 0.65522 0.48439 0.77712 0.0
O156 O 0.68509 0.50994 0.76797 0.0
C157 C 0.63382 0.52309 0.81325 0.0
O158 O 0.65909 0.55585 0.77722 0.0
Co159 Co 0.60485 0.54685 0.77541 0.0
O160 O 0.62461 0.57641 0.78155 0.0
C161 C 0.6217 0.51952 0.73236 0.0
C162 C 0.67725 0.48767 0.76975 0.0
C163 C 0.64743 0.57565 0.78035 0.0
O164 O 0.64279 0.51826 0.74199 0.0
O165 O 0.60366 0.52858 0.74346 0.0
O166 O 0.65695 0.51973 0.81338 0.0
O167 O 0.6232 0.52171 0.79205 0.0
Co168 Co 0.02314 0.76628 0.8855 0.0
O169 O 0.05618 0.7609 0.87704 0.0
O170 O 0.02554 0.76048 0.85059 0.0
C171 C 0.03006 0.79965 0.90862 0.0
O172 O 0.98733 0.77196 0.88651 0.0
Co173 Co 0.00435 0.76534 0.93949 0.0
O174 O 0.97292 0.77473 0.92507 0.0
C175 C 0.01488 0.71936 0.91335 0.0
C176 C 0.04859 0.75943 0.85435 0.0
C177 C 0.97007 0.77533 0.90173 0.0
O178 O 0.01776 0.73061 0.89271 0.0
O179 O 0.01203 0.73023 0.93404 0.0
O180 O 0.02888 0.80122 0.88474 0.0
O181 O 0.02891 0.77792 0.91762 0.0
Co182 Co 0.98253 0.23798 0.65473 0.0
O183 O 0.94999 0.22977 0.66189 0.0
O184 O 0.98002 0.22804 0.689 0.0
C185 C 0.97378 0.27296 0.63561 0.0
O186 O 0.0184 0.24535 0.65345 0.0
Co187 Co -0.00147 0.24256 0.60006 0.0
O188 O 0.02978 0.25309 0.61441 0.0
C189 C 0.99107 0.19406 0.6225 0.0
C190 C 0.95719 0.2253 0.68418 0.0
C191 C 0.03445 0.25118 0.63739 0.0
O192 O 0.98832 0.20374 0.64386 0.0
O193 O 0.9932 0.20647 0.60261 0.0
O194 O 0.97607 0.27238 0.65946 0.0
O195 O 0.97525 0.25237 0.62431 0.0
Co196 Co 0.50916 0.27666 0.3762 0.0
O197 O 0.54202 0.27693 0.38733 0.0
O198 O 0.52804 0.2559 0.35532 0.0
C199 C 0.50498 0.31712 0.37846 0.0
O200 O 0.47696 0.27268 0.35855 0.0
Co201 Co 0.46778 0.29617 0.40914 0.0
O202 O 0.44947 0.29564 0.37765 0.0
C203 C 0.49055 0.24918 0.42045 0.0
C204 C 0.54638 0.26273 0.36876 0.0
C205 C 0.45614 0.28253 0.3596 0.0
O206 O 0.50122 0.24914 0.39938 0.0
O207 O 0.47839 0.26714 0.42849 0.0
O208 O 0.51501 0.30764 0.35915 0.0
O209 O 0.49941 0.30223 0.3959 0.0
Co210 Co 0.51028 0.78544 0.12856 0.0
O211 O 0.47793 0.7934 0.12059 0.0
O212 O 0.48858 0.76493 0.14736 0.0
C213 C 0.52163 0.8246 0.13385 0.0
O214 O 0.54193 0.77325 0.142 0.0
Co215 Co 0.55021 0.80186 0.09386 0.0
O216 O 0.57207 0.7888 0.1193 0.0
C217 C 0.52271 0.75792 0.08134 0.0
C218 C 0.47157 0.77735 0.13682 0.0
C219 C 0.56439 0.77615 0.13734 0.0
O220 O 0.51097 0.76074 0.10143 0.0
O221 O 0.53847 0.77329 0.07381 0.0
O222 O 0.51204 0.81212 0.1516 0.0
O223 O 0.52299 0.81343 0.11276 0.0
Co224 Co 0.87766 0.04124 0.76156 0.0
O225 O 0.87076 0.07449 0.75361 0.0
O226 O 0.84574 0.04327 0.74782 0.0
C227 C 0.8925 0.0486 0.7997 0.0
O228 O 0.87779 0.00498 0.76749 0.0
Co229 Co 0.93039 0.02498 0.77199 0.0
O230 O 0.91601 0.99192 0.76775 0.0
C231 C 0.91312 0.02999 0.72074 0.0
C232 C 0.8496 0.06661 0.7469 0.0
C233 C 0.89342 0.98803 0.76653 0.0
O234 O 0.89175 0.03495 0.72805 0.0
O235 O 0.93127 0.02826 0.73521 0.0
O236 O 0.86946 0.04715 0.79597 0.0
O237 O 0.90561 0.04784 0.78015 0.0
Co238 Co 0.78354 0.13614 0.47459 0.0
O239 O 0.81636 0.1473 0.47468 0.0
O240 O 0.80108 0.11991 0.50035 0.0
C241 C 0.78267 0.13042 0.43352 0.0
O242 O 0.75126 0.11922 0.47974 0.0
Co243 Co 0.7436 0.16295 0.44678 0.0
O244 O 0.72319 0.13421 0.45436 0.0
C245 C 0.76086 0.18194 0.4948 0.0
C246 C 0.81989 0.13155 0.49211 0.0
C247 C 0.72988 0.11901 0.47064 0.0
O248 O 0.77413 0.16311 0.49745 0.0
O249 O 0.74862 0.18607 0.47519 0.0
O250 O 0.79106 0.11377 0.44804 0.0
O251 O 0.77583 0.15028 0.44406 0.0
Co252 Co 0.61626 0.98113 0.26784 0.0
O253 O 0.623 0.94879 0.25633 0.0
O254 O 0.64947 0.9792 0.25878 0.0
C255 C 0.59609 0.97043 0.30204 0.0
O256 O 0.61706 0.01604 0.2795 0.0
Co257 Co 0.56465 0.00161 0.27396 0.0
O258 O 0.58065 0.03057 0.2888 0.0
C259 C 0.58831 0.00236 0.22501 0.0
C260 C 0.64513 0.95639 0.25413 0.0
C261 C 0.6034 0.03292 0.28756 0.0
O262 O 0.60731 0.99234 0.2337 0.0
O263 O 0.56945 0.00657 0.23765 0.0
O264 O 0.61942 0.97015 0.30167 0.0
O265 O 0.58564 0.97459 0.28109 0.0
Co266 Co 0.73207 0.85973 0.01134 0.0
O267 O 0.69951 0.84814 0.00936 0.0
O268 O 0.71295 0.87527 0.03646 0.0
C269 C 0.73471 0.86694 0.9706 0.0
O270 O 0.76404 0.87688 0.018 0.0
Co271 Co 0.77272 0.83331 0.98312 0.0
O272 O 0.79219 0.86225 0.99255 0.0
C273 C 0.75612 0.81429 0.03131 0.0
C274 C 0.69469 0.86398 0.02631 0.0
C275 C 0.78544 0.87715 0.00908 0.0
O276 O 0.74165 0.83229 0.03391 0.0
O277 O 0.76842 0.81071 0.01175 0.0
O278 O 0.72516 0.88286 0.98509 0.0
O279 O 0.74095 0.84674 0.9808 0.0
Co280 Co 0.25098 0.6147 0.98384 0.0
O281 O 0.28499 0.62114 0.9817 0.0
O282 O 0.26798 0.59299 0.00539 0.0
C283 C 0.24424 0.61489 0.94303 0.0
O284 O 0.21732 0.60209 0.99078 0.0
Co285 Co 0.21223 0.65013 0.96327 0.0
O286 O 0.18956 0.62274 0.96934 0.0
C287 C 0.23596 0.65984 0.01159 0.0
C288 C 0.28751 0.60322 -0.0029 0.0
C289 C 0.19556 0.60546 0.98365 0.0
O290 O 0.24744 0.63964 0.01077 0.0
O291 O 0.22275 0.66767 0.99393 0.0
O292 O 0.2525 0.59541 0.95344 0.0
O293 O 0.24197 0.63366 0.95701 0.0
Co294 Co 0.12266 0.48325 0.78931 0.0
O295 O 0.12131 0.44835 0.78597 0.0
O296 O 0.14817 0.47303 0.76851 0.0
C297 C 0.11788 0.4839 0.83042 0.0
O298 O 0.13154 0.51877 0.78831 0.0
Co299 Co 0.08166 0.51523 0.80892 0.0
O300 O 0.10308 0.54359 0.80245 0.0
C301 C 0.07947 0.49643 0.75779 0.0
C302 C 0.14062 0.45103 0.77271 0.0
C303 C 0.12363 0.54 0.79302 0.0
O304 O 0.10063 0.48744 0.76007 0.0
O305 O 0.06827 0.50649 0.7756 0.0
O306 O 0.13889 0.47983 0.82102 0.0
O307 O 0.10027 0.48608 0.81493 0.0
Co308 Co 0.25061 0.37199 0.49564 0.0
O309 O 0.21808 0.36014 0.49251 0.0
O310 O 0.23114 0.38572 0.52138 0.0
C311 C 0.25416 0.38064 0.45525 0.0
O312 O 0.28191 0.38916 0.50456 0.0
Co313 Co 0.29361 0.34946 0.46761 0.0
O314 O 0.31169 0.37866 0.47903 0.0
C315 C 0.27582 0.32681 0.51394 0.0
C316 C 0.21314 0.37447 0.51083 0.0
C317 C 0.30358 0.39136 0.49674 0.0
O318 O 0.26017 0.34368 0.51692 0.0
O319 O 0.28936 0.32527 0.49496 0.0
O320 O 0.24385 0.39596 0.46992 0.0
O321 O 0.26092 0.36049 0.46507 0.0
Co322 Co 0.39202 0.52589 0.29153 0.0
O323 O 0.39906 0.56043 0.29245 0.0
O324 O 0.37074 0.54228 0.26974 0.0
C325 C 0.39247 0.52044 0.33253 0.0
O326 O 0.37769 0.49277 0.28552 0.0
Co327 Co 0.42391 0.48467 0.31099 0.0
O328 O 0.39684 0.46187 0.30325 0.0
C329 C 0.435 0.50793 0.26304 0.0
C330 C 0.38087 0.56229 0.27735 0.0
C331 C 0.37954 0.47015 0.29044 0.0
O332 O 0.41573 0.52058 0.26435 0.0
O333 O 0.44225 0.49406 0.28048 0.0
O334 O 0.37352 0.52902 0.32166 0.0
O335 O 0.4109 0.51653 0.31866 0.0
O336 O 0.96782 0.06593 0.03939 0.0
Zn337 Zn 0.98387 0.0421 0.01743 0.0
O338 O 0.98256 0.00971 0.03177 0.0
Zn339 Zn 0.0148 0.99646 0.03355 0.0
Zn340 Zn 0.96759 0.01037 0.06449 0.0
Zn341 Zn 0.96357 0.98939 0.01038 0.0
O342 O 0.01716 0.964 0.01645 0.0
O343 O 0.97968 0.95801 0.00346 0.0
O344 O 0.01817 0.05332 0.01407 0.0
O345 O 0.03929 0.01965 0.01949 0.0
O346 O 0.02398 0.99211 0.06896 0.0
O347 O 0.99039 -0.00245 0.0903 0.0
O348 O 0.93545 0.99208 0.06506 0.0
O349 O 0.96884 0.04348 0.9835 0.0
O350 O 0.93187 0.98252 0.02528 0.0
O351 O 0.95743 0.00511 0.97803 0.0
C352 C 0.96097 0.06498 0.06173 0.0
C353 C 0.00115 0.95074 0.00602 0.0
C354 C 0.01264 0.99238 0.08931 0.0
C355 C 0.03808 0.04215 0.01419 0.0
C356 C 0.9233 0.98355 0.04693 0.0
C357 C 0.95973 0.02671 0.97006 0.0
O358 O 0.96117 0.04526 0.07406 0.0
O359 O 0.23482 0.72872 0.19423 0.0
Zn360 Zn 0.24014 0.73268 0.23067 0.0
O361 O 0.25016 0.76577 0.23759 0.0
Zn362 Zn 0.28026 0.76627 0.25543 0.0
Zn363 Zn 0.25343 0.78451 0.20725 0.0
Zn364 Zn 0.2273 0.78045 0.25876 0.0
O365 O 0.27987 0.78997 0.28347 0.0
O366 O 0.24089 0.78961 0.29187 0.0
O367 O 0.26664 0.71033 0.24083 0.0
O368 O 0.28915 0.73274 0.2666 0.0
O369 O 0.30677 0.77581 0.23299 0.0
O370 O 0.28838 0.7876 0.19861 0.0
O371 O 0.2385 0.81795 0.21044 0.0
O372 O 0.209 0.72347 0.24811 0.0
O373 O 0.21815 0.81222 0.24523 0.0
O374 O 0.19848 0.75951 0.26294 0.0
C375 C 0.23448 0.74344 0.17608 0.0
C376 C 0.26238 0.79591 0.29713 0.0
C377 C 0.30745 0.78331 0.21084 0.0
C378 C 0.28381 0.71251 0.25637 0.0
C379 C 0.22436 0.82552 0.22715 0.0
C380 C 0.19395 0.73714 0.25887 0.0
O381 O 0.23949 0.76596 0.17875 0.0
O382 O 0.51158 0.97289 0.53111 0.0
Zn383 Zn 0.5044 0.00369 0.51367 0.0
O384 O 0.51783 0.03125 0.53143 0.0
Zn385 Zn 0.49125 0.05072 0.5444 0.0
Zn386 Zn 0.53908 0.01975 0.55793 0.0
Zn387 Zn 0.53663 0.05016 0.50839 0.0
O388 O 0.49231 0.08496 0.53052 0.0
O389 O 0.52438 0.08371 0.50618 0.0
O390 O 0.46891 0.00548 0.51099 0.0
O391 O 0.4586 0.03571 0.53583 0.0
O392 O 0.49313 0.05159 0.58149 0.0
O393 O 0.52576 0.03026 0.59065 0.0
O394 O 0.5738 0.03123 0.55385 0.0
O395 O 0.51705 0.00076 0.47961 0.0
O396 O 0.5707 0.05259 0.51916 0.0
O397 O 0.53704 0.03541 0.47443 0.0
C398 C 0.52598 0.96715 0.54837 0.0
C399 C 0.50697 0.09514 0.51564 0.0
C400 C 0.50746 0.04236 0.59725 0.0
C401 C 0.453 0.01827 0.52134 0.0
C402 C 0.58307 0.04439 0.53698 0.0
C403 C 0.52918 0.01516 0.46611 0.0
O404 O 0.53874 0.98313 0.55953 0.0
O405 O 0.24192 0.23665 0.7881 0.0
Zn406 Zn 0.2601 0.25779 0.76442 0.0
O407 O 0.26193 0.24193 0.73248 0.0
Zn408 Zn 0.29473 0.23206 0.72548 0.0
Zn409 Zn 0.24004 0.21385 0.73094 0.0
Zn410 Zn 0.25211 0.26526 0.70835 0.0
O411 O 0.30544 0.24317 0.69145 0.0
O412 O 0.27499 0.26693 0.68078 0.0
O413 O 0.29309 0.26263 0.77868 0.0
O414 O 0.31746 0.2442 0.75232 0.0
O415 O 0.29606 0.19579 0.7254 0.0
O416 O 0.25794 0.18315 0.72313 0.0
O417 O 0.21124 0.2196 0.70864 0.0
O418 O 0.24425 0.29042 0.76221 0.0
O419 O 0.21988 0.25663 0.69489 0.0
O420 O 0.24748 0.29815 0.72221 0.0
C421 C 0.22972 0.21706 0.7855 0.0
C422 C 0.29514 0.25737 0.67626 0.0
C423 C 0.2804 0.17881 0.7235 0.0
C424 C 0.31401 0.25601 0.77227 0.0
C425 C 0.20567 0.23843 0.69625 0.0
C426 C 0.24205 0.30476 0.74392 0.0
O427 O 0.2272 0.20696 0.76453 0.0
O428 O 0.02719 0.00297 0.47094 0.0
Zn429 Zn 0.9979 0.99168 0.48831 0.0
O430 O 0.00779 0.98561 0.5215 0.0
Zn431 Zn 0.00706 0.9519 0.53194 0.0
Zn432 Zn 0.03661 0.00248 0.53037 0.0
Zn433 Zn 0.98332 -0.00184 0.54054 0.0
O434 O 0.98509 0.94887 0.56259 0.0
O435 O 0.95905 0.97213 0.5443 0.0
O436 O 0.98769 0.95995 0.47306 0.0
O437 O 0.99413 0.93256 0.50281 0.0
O438 O 0.04168 0.94169 0.53902 0.0
O439 O 0.06033 0.97771 0.54061 0.0
O440 O 0.03014 0.02592 0.55826 0.0
O441 O 0.97279 0.01854 0.48524 0.0
O442 O 0.99595 0.01031 0.57261 0.0
O443 O 0.96847 0.02631 0.52505 0.0
C444 C 0.04654 0.01387 0.47744 0.0
C445 C 0.96422 0.95829 0.56211 0.0
C446 C 0.06075 0.9546 0.54209 0.0
C447 C 0.98755 0.93805 0.48086 0.0
C448 C 0.01373 0.02498 0.57466 0.0
C449 C 0.96461 0.03163 0.50267 0.0
O450 O 0.05161 0.01803 0.50007 0.0
O451 O 0.29723 0.72352 0.74014 0.0
Zn452 Zn 0.26461 0.73313 0.75144 0.0
O453 O 0.24263 0.72823 0.72492 0.0
Zn454 Zn 0.23046 0.75831 0.71315 0.0
Zn455 Zn 0.25559 0.70595 0.70032 0.0
Zn456 Zn 0.21573 0.7104 0.73495 0.0
O457 O 0.19705 0.76636 0.72667 0.0
O458 O 0.18834 0.73054 0.74334 0.0
O459 O 0.26838 0.76887 0.75895 0.0
O460 O 0.25406 0.78412 0.72375 0.0
O461 O 0.22988 0.75574 0.67638 0.0
O462 O 0.24796 0.72071 0.6671 0.0
O463 O 0.23956 0.67207 0.70514 0.0
O464 O 0.25573 0.71174 0.7801 0.0
O465 O 0.2056 0.691 0.70601 0.0
O466 O 0.22507 0.69038 0.76431 0.0
C467 C 0.30571 0.71276 0.72134 0.0
C468 C 0.18278 0.75228 0.73839 0.0
C469 C 0.23753 0.74034 0.66071 0.0
C470 C 0.26648 0.78629 0.74351 0.0
C471 C 0.21667 0.67114 0.70572 0.0
C472 C 0.2406 0.69416 0.78129 0.0
O473 O 0.29193 0.70457 0.70424 0.0
O474 O 0.54411 0.03486 0.04408 0.0
Zn475 Zn 0.53391 0.02076 0.01133 0.0
O476 O 0.50007 0.01121 0.01358 0.0
Zn477 Zn 0.49545 0.9761 0.01221 0.0
Zn478 Zn 0.48641 0.02399 0.04393 0.0
Zn479 Zn 0.48302 0.02452 0.98642 0.0
O480 O 0.47543 0.96455 0.98278 0.0
O481 O 0.47399 -0.00066 0.96218 0.0
O482 O 0.55451 0.9908 0.00697 0.0
O483 O 0.52791 0.96051 0.01103 0.0
O484 O 0.48108 0.96397 0.04361 0.0
O485 O 0.4813 0.99661 0.0678 0.0
O486 O 0.45442 0.04033 0.03829 0.0
O487 O 0.53948 0.04672 0.98476 0.0
O488 O 0.45225 0.03911 -0.0026 0.0
O489 O 0.50257 0.04931 0.96922 0.0
C490 C 0.53279 0.04499 0.06162 0.0
C491 C 0.47011 0.97659 0.96348 0.0
C492 C 0.47848 0.97384 0.06468 0.0
C493 C 0.54951 0.96814 0.0088 0.0
C494 C 0.44312 0.04432 0.0182 0.0
C495 C 0.52448 0.05611 0.96971 0.0
O496 O 0.5099 0.04565 0.0617 0.0
O497 O 0.19542 0.28436 0.23866 0.0
Zn498 Zn 0.22698 0.28034 0.25619 0.0
O499 O 0.2523 0.28605 0.23333 0.0
Zn500 Zn 0.26843 0.25682 0.22406 0.0
Zn501 Zn 0.24108 0.30564 0.20612 0.0
Zn502 Zn 0.27586 0.30569 0.24843 0.0
O503 O 0.30178 0.25402 0.23944 0.0
O504 O 0.30159 0.28634 0.26402 0.0
O505 O 0.22783 0.24561 0.26731 0.0
O506 O 0.24886 0.22868 0.23692 0.0
O507 O 0.27064 0.25588 0.18721 0.0
O508 O 0.25182 0.28943 0.17478 0.0
O509 O 0.2557 0.33974 0.20892 0.0
O510 O 0.22871 0.30469 0.28421 0.0
O511 O 0.29052 0.32657 0.22285 0.0
O512 O 0.26103 0.32658 0.27411 0.0
C513 C 0.18921 0.2957 0.21919 0.0
C514 C 0.31101 0.26668 0.25684 0.0
C515 C 0.26328 0.26999 0.17016 0.0
C516 C 0.23519 0.22693 0.25572 0.0
C517 C 0.27801 0.34325 0.21329 0.0
C518 C 0.24264 0.32303 0.28755 0.0
O519 O 0.20465 0.30627 0.20543 0.0
O520 O 0.51569 0.52408 0.96874 0.0
Zn521 Zn 0.49766 0.51168 -0.00145 0.0
O522 O 0.5166 0.51769 0.02839 0.0
Zn523 Zn 0.52313 0.48751 0.04579 0.0
Zn524 Zn 0.5464 0.53541 0.02156 0.0
Zn525 Zn 0.49831 0.53807 0.04939 0.0
O526 O 0.50977 0.48808 0.08065 0.0
O527 O 0.50116 0.52737 0.08426 0.0
O528 O 0.49414 0.47574 0.99307 0.0
O529 O 0.51144 0.4585 0.02566 0.0
O530 O 0.55882 0.48353 0.04921 0.0
O531 O 0.57523 0.5174 0.03414 0.0
O532 O 0.54627 0.57047 0.03285 0.0
O533 O 0.46416 0.52606 0.00083 0.0
O534 O 0.5087 0.57256 0.04613 0.0
O535 O 0.46386 0.53807 0.03994 0.0
C536 C 0.53676 0.5332 0.96661 0.0
C537 C 0.5041 0.50644 0.09373 0.0
C538 C 0.57722 0.49656 0.04416 0.0
C539 C 0.50059 0.45689 0.00488 0.0
C540 C 0.52845 0.58271 0.04026 0.0
C541 C 0.45311 0.53464 0.01945 0.0
O542 O 0.55009 0.53754 0.98526 0.0
O543 O 0.7861 0.2171 0.20248 0.0
Zn544 Zn 0.7808 0.22837 0.23693 0.0
O545 O 0.74737 0.22529 0.24344 0.0
Zn546 Zn 0.7329 0.25617 0.24179 0.0
Zn547 Zn 0.73687 0.20267 0.21817 0.0
Zn548 Zn 0.74128 0.21283 0.27504 0.0
O549 O 0.70674 0.25793 0.26735 0.0
O550 O 0.72448 0.23653 0.29689 0.0
O551 O 0.79162 0.26266 0.23986 0.0
O552 O 0.7579 0.28259 0.24765 0.0
O553 O 0.72111 0.25979 0.20716 0.0
O554 O 0.72562 0.22342 0.18946 0.0
O555 O 0.71057 0.18065 0.23173 0.0
O556 O 0.79959 0.20731 0.26065 0.0
O557 O 0.7172 0.1863 0.27186 0.0
O558 O 0.77138 0.1994 0.28882 0.0
C559 C 0.78439 0.1943 0.19929 0.0
C560 C 0.70757 0.25026 0.28958 0.0
C561 C 0.72018 0.24593 0.18825 0.0
C562 C 0.78064 0.28219 0.24483 0.0
C563 C 0.70575 0.17604 0.25428 0.0
C564 C 0.79279 0.19766 0.28085 0.0
O565 O 0.76638 0.18287 0.20821 0.0
O566 O 0.0263 0.50671 0.56871 0.0
Zn567 Zn 0.02615 0.50283 0.53173 0.0
O568 O 0.99562 0.4872 0.52142 0.0
Zn569 Zn 0.0018 0.456 0.50566 0.0
Zn570 Zn 0.97364 0.48278 0.54935 0.0
Zn571 Zn 0.9801 0.50755 0.49771 0.0
O572 O 0.99159 0.45454 0.46968 0.0
O573 O 0.97742 0.49176 0.46508 0.0
O574 O 0.05439 0.48098 0.52433 0.0
O575 O 0.03654 0.44781 0.50895 0.0
O576 O 0.98496 0.42951 0.5236 0.0
O577 O 0.96473 0.44739 0.55366 0.0
O578 O 0.94307 0.50245 0.54597 0.0
O579 O 0.03121 0.53623 0.51605 0.0
O580 O 0.94722 0.51678 0.50799 0.0
O581 O 0.99817 0.53816 0.49315 0.0
C582 C 0.01135 0.50123 0.58561 0.0
C583 C 0.98229 0.47099 0.4563 0.0
C584 C 0.97117 0.42835 0.54219 0.0
C585 C 0.05527 0.45919 0.51635 0.0
C586 C 0.93501 0.51438 0.5276 0.0
C587 C 0.01771 0.54759 0.50098 0.0
O588 O 0.99073 0.49213 0.58062 0.0
O589 O 0.75953 0.76306 0.31897 0.0
Zn590 Zn 0.77578 0.77588 0.28838 0.0
O591 O 0.76979 0.75364 0.26074 0.0
Zn592 Zn 0.79959 0.73967 0.24847 0.0
Zn593 Zn 0.74695 0.72779 0.26983 0.0
Zn594 Zn 0.75575 0.77223 0.23482 0.0
O595 O 0.80546 0.74702 0.21209 0.0
O596 O 0.77157 0.7662 0.20309 0.0
O597 O 0.8111 0.77665 0.29651 0.0
O598 O 0.82729 0.75036 0.27025 0.0
O599 O 0.79766 0.70339 0.25072 0.0
O600 O 0.76102 0.69474 0.26455 0.0
O601 O 0.71524 0.72985 0.25181 0.0
O602 O 0.76423 0.81022 0.2813 0.0
O603 O 0.72133 0.76387 0.23066 0.0
O604 O 0.7568 0.80757 0.24116 0.0
C605 C 0.74585 0.74474 0.32289 0.0
C606 C 0.79128 0.75686 0.19662 0.0
C607 C 0.78155 0.68804 0.25707 0.0
C608 C 0.82913 0.76506 0.28842 0.0
C609 C 0.7077 0.74656 0.23765 0.0
C610 C 0.75862 0.82008 0.26079 0.0
O611 O 0.73976 0.73015 0.30568 0.0
O612 O 0.71649 0.24703 0.67103 0.0
Zn613 Zn 0.71355 0.24329 0.70792 0.0
O614 O 0.73227 0.26838 0.72347 0.0
Zn615 Zn 0.748 0.25462 0.75177 0.0
Zn616 Zn 0.75496 0.28405 0.70185 0.0
Zn617 Zn 0.71103 0.2934 0.73308 0.0
O618 O 0.74278 0.27536 0.78172 0.0
O619 O 0.72078 0.30548 0.76654 0.0
O620 O 0.72789 0.21141 0.71726 0.0
O621 O 0.74014 0.21884 0.75564 0.0
O622 O 0.78331 0.25467 0.74625 0.0
O623 O 0.78878 0.27403 0.71075 0.0
O624 O 0.752 0.32077 0.70475 0.0
O625 O 0.67919 0.24345 0.72071 0.0
O626 O 0.71261 0.32163 0.71018 0.0
O627 O 0.67773 0.28083 0.73615 0.0
C628 C 0.73137 0.25895 0.65765 0.0
C629 C 0.73276 0.29598 0.78406 0.0
C630 C 0.79706 0.2625 0.72931 0.0
C631 C 0.73616 0.20403 0.73787 0.0
C632 C 0.73233 0.33242 0.70527 0.0
C633 C 0.66778 0.26042 0.73143 0.0
O634 O 0.74717 0.27325 0.66713 0.0
O635 O 0.71555 0.78633 0.74124 0.0
Zn636 Zn 0.73774 0.78343 0.76966 0.0
O637 O 0.77016 0.78656 0.75722 0.0
Zn638 Zn 0.7875 0.75652 0.76258 0.0
Zn639 Zn 0.77074 0.79697 0.72254 0.0
Zn640 Zn 0.78556 0.81095 0.77641 0.0
O641 O 0.81391 0.75996 0.78843 0.0
O642 O 0.80668 0.79711 0.80219 0.0
O643 O 0.73098 0.75015 0.7836 0.0
O644 O 0.76453 0.73085 0.77402 0.0
O645 O 0.7994 0.7433 0.73053 0.0
O646 O 0.78458 0.76931 0.70305 0.0
O647 O 0.79275 0.8269 0.71707 0.0
O648 O 0.72952 0.80978 0.79409 0.0
O649 O 0.80645 0.83074 0.7555 0.0
O650 O 0.7625 0.83267 0.79283 0.0
C651 C 0.71658 0.79389 0.7191 0.0
C652 C 0.81784 0.77716 0.8038 0.0
C653 C 0.79555 0.74973 0.70829 0.0
C654 C 0.74317 0.73075 0.78227 0.0
C655 C 0.80723 0.83639 0.73283 0.0
C656 C 0.74104 0.82912 0.79993 0.0
O657 O 0.73634 0.80097 0.70936 0.0
O658 O 0.49208 0.54548 0.55451 0.0
Zn659 Zn 0.49815 0.52166 0.52775 0.0
O660 O 0.49979 0.48985 0.54237 0.0
Zn661 Zn 0.53087 0.47598 0.53667 0.0
Zn662 Zn 0.49097 0.48964 0.57678 0.0
Zn663 Zn 0.47656 0.46995 0.52634 0.0
O664 O 0.53061 0.45304 0.5074 0.0
O665 O 0.49157 0.45274 0.49839 0.0
O666 O 0.53011 0.53191 0.51329 0.0
O667 O 0.55363 0.50286 0.52811 0.0
O668 O 0.54364 0.46121 0.56776 0.0
O669 O 0.51672 0.47205 0.59593 0.0
O670 O 0.45802 0.47362 0.58044 0.0
O671 O 0.47101 0.52399 0.50318 0.0
O672 O 0.46097 0.44703 0.54995 0.0
O673 O 0.45088 0.48982 0.51084 0.0
C674 C 0.48964 0.54432 0.57779 0.0
C675 C 0.51307 0.44718 0.49332 0.0
C676 C 0.53647 0.46196 0.59006 0.0
C677 C 0.5509 0.5233 0.51754 0.0
C678 C 0.45028 0.45478 0.56903 0.0
C679 C 0.45244 0.51045 0.50037 0.0
O680 O 0.48963 0.52423 0.58948 0.0
O681 O 0.0021 0.4619 0.04928 0.0
Zn682 Zn -0.00142 0.47998 0.01711 0.0
O683 O 0.99313 0.51412 0.02309 0.0
Zn684 Zn 0.96194 0.52536 0.01219 0.0
Zn685 Zn -0.00103 0.52054 0.05745 0.0
Zn686 Zn 0.01718 0.53344 0.00764 0.0
O687 O 0.9647 0.54998 0.98388 0.0
O688 O 0.00427 0.55117 0.97896 0.0
O689 O 0.96883 0.46557 0.00117 0.0
O690 O 0.9427 0.49605 0.00052 0.0
O691 O 0.94533 0.54061 0.04156 0.0
O692 O 0.97484 0.54432 0.0694 0.0
O693 O 0.03327 0.53234 0.06214 0.0
O694 O 0.02845 0.47496 0.9965 0.0
O695 O 0.03159 0.55774 0.03091 0.0
O696 O 0.04337 0.51259 0.99532 0.0
C697 C 0.99816 0.46816 0.07152 0.0
C698 C 0.9833 0.55715 0.97211 0.0
C699 C 0.95335 0.54838 0.0623 0.0
C700 C 0.94787 0.47378 0.99674 0.0
C701 C 0.04214 0.55013 0.05015 0.0
C702 C 0.04518 0.48999 0.99082 0.0
O703 O 0.9945 0.49018 0.07746 0.0
C704 C 0.98149 0.19938 0.09727 0.0
C705 C 0.96626 0.21016 0.11445 0.0
C706 C 0.97833 0.17494 0.09054 0.0
C707 C 0.9589 0.16135 0.10056 0.0
C708 C 0.94307 0.1724 0.11744 0.0
C709 C 0.94728 0.19659 0.12464 0.0
C710 C 0.99592 0.1636 0.0729 0.0
C711 C 0.92173 0.15876 0.12788 0.0
C712 C 0.9438 0.10641 0.06135 0.0
C713 C 0.95581 0.08806 0.07416 0.0
C714 C 0.943 0.1301 0.07081 0.0
C715 C 0.9553 0.13561 0.09309 0.0
C716 C 0.96629 0.11681 0.10679 0.0
C717 C 0.9661 0.09307 0.09728 0.0
C718 C 0.93016 0.14948 0.05627 0.0
C719 C 0.97988 0.12207 0.13044 0.0
H720 H 0.99628 0.2099 0.08961 0.0
H721 H 0.93543 0.20506 0.13788 0.0
H722 H 0.00392 0.14718 0.08139 0.0
H723 H 0.98644 0.15767 0.05582 0.0
H724 H 0.01069 0.17636 0.06772 0.0
H725 H 0.90877 0.17122 0.13668 0.0
H726 H 0.91219 0.14826 0.11323 0.0
H727 H 0.92796 0.14563 0.14199 0.0
H728 H 0.93574 0.10239 0.0435 0.0
H729 H 0.9756 0.07886 0.10703 0.0
H730 H 0.94355 0.16194 0.04772 0.0
H731 H 0.91879 0.16053 0.06865 0.0
H732 H 0.91866 0.14159 0.04138 0.0
H733 H 0.99596 0.13348 0.12631 0.0
H734 H 0.98588 0.10519 0.13977 0.0
H735 H 0.96857 0.13248 0.14339 0.0
C736 C 0.10243 0.72785 0.35878 0.0
C737 C 0.07848 0.72152 0.35364 0.0
C738 C 0.12051 0.72348 0.34153 0.0
C739 C 0.11444 0.71237 0.31868 0.0
C740 C 0.09076 0.70358 0.31453 0.0
C741 C 0.07294 0.70842 0.33205 0.0
C742 C 0.14562 0.73294 0.34682 0.0
C743 C 0.08375 0.69095 0.29078 0.0
C744 C 0.15134 0.74262 0.26961 0.0
C745 C 0.17117 0.72725 0.26847 0.0
C746 C 0.13147 0.73668 0.28412 0.0
C747 C 0.13152 0.71482 0.29789 0.0
C748 C 0.15028 0.69793 0.29461 0.0
C749 C 0.17006 0.70439 0.27983 0.0
C750 C 0.11162 0.75505 0.28666 0.0
C751 C 0.15056 0.6741 0.30836 0.0
H752 H 0.10688 0.73759 0.37564 0.0
H753 H 0.05448 0.70305 0.32819 0.0
H754 H 0.15911 0.7189 0.3425 0.0
H755 H 0.14944 0.74894 0.33492 0.0
H756 H 0.14799 0.73856 0.36641 0.0
H757 H 0.06728 0.67957 0.29312 0.0
H758 H 0.08 0.70478 0.27641 0.0
H759 H 0.09848 0.67932 0.28397 0.0
H760 H 0.15204 0.76011 0.26036 0.0
H761 H 0.18537 0.69241 0.27879 0.0
H762 H 0.11245 0.76336 0.30534 0.0
H763 H 0.09377 0.74609 0.28459 0.0
H764 H 0.11308 0.76984 0.27276 0.0
H765 H 0.15765 0.67721 0.3273 0.0
H766 H 0.16227 0.66068 0.2991 0.0
H767 H 0.13217 0.66625 0.31001 0.0
C768 C 0.50523 0.84761 0.62423 0.0
C769 C 0.51082 0.82595 0.61205 0.0
C770 C 0.50986 0.87017 0.61321 0.0
C771 C 0.52082 0.87099 0.5897 0.0
C772 C 0.52734 0.84918 0.57772 0.0
C773 C 0.52197 0.82682 0.58894 0.0
C774 C 0.50223 0.89306 0.62634 0.0
C775 C 0.53953 0.84948 0.55288 0.0
C776 C 0.50644 0.92644 0.55166 0.0
C777 C 0.52617 0.94172 0.55693 0.0
C778 C 0.50483 0.90308 0.56171 0.0
C779 C 0.52365 0.89463 0.57697 0.0
C780 C 0.54419 0.90948 0.58141 0.0
C781 C 0.54508 0.93305 0.57154 0.0
C782 C 0.48242 0.88793 0.55695 0.0
C783 C 0.56481 0.90076 0.59718 0.0
H784 H 0.49659 0.84692 0.64212 0.0
H785 H 0.52654 0.81005 0.57964 0.0
H786 H 0.51778 0.9057 0.62855 0.0
H787 H 0.4885 0.90256 0.61511 0.0
H788 H 0.49459 0.88926 0.64487 0.0
H789 H 0.54549 0.8311 0.54717 0.0
H790 H 0.52698 0.85646 0.53864 0.0
H791 H 0.55538 0.86192 0.55332 0.0
H792 H 0.49169 0.93309 0.54049 0.0
H793 H 0.56044 0.94477 0.57549 0.0
H794 H 0.47289 0.88463 0.57461 0.0
H795 H 0.48725 0.86993 0.54931 0.0
H796 H 0.46983 0.89686 0.54391 0.0
H797 H 0.55889 0.89901 0.61663 0.0
H798 H 0.58052 0.91341 0.59659 0.0
H799 H 0.57058 0.88249 0.59102 0.0
C800 C 0.40967 0.2611 0.8827 0.0
C801 C 0.43064 0.27346 0.87557 0.0
C802 C 0.38983 0.25936 0.86656 0.0
C803 C 0.39095 0.27079 0.84313 0.0
C804 C 0.41162 0.28449 0.83655 0.0
C805 C 0.43133 0.28538 0.85272 0.0
C806 C 0.36823 0.24427 0.87404 0.0
C807 C 0.41328 0.29748 0.81204 0.0
C808 C 0.35417 0.24525 0.78965 0.0
C809 C 0.3343 0.26068 0.78943 0.0
C810 C 0.37252 0.24812 0.80732 0.0
C811 C 0.37123 0.26724 0.82481 0.0
C812 C 0.35149 0.28322 0.82432 0.0
C813 C 0.33312 0.27958 0.8068 0.0
C814 C 0.39313 0.23049 0.80749 0.0
C815 C 0.34981 0.30417 0.84225 0.0
H816 H 0.40926 0.25171 0.90029 0.0
H817 H 0.44753 0.29511 0.8473 0.0
H818 H 0.35155 0.25494 0.87198 0.0
H819 H 0.36649 0.22823 0.86168 0.0
H820 H 0.36957 0.23778 0.89341 0.0
H821 H 0.4296 0.30926 0.8108 0.0
H822 H 0.41375 0.28396 0.79685 0.0
H823 H 0.39719 0.30887 0.80904 0.0
H824 H 0.35502 0.23043 0.77647 0.0
H825 H 0.3178 0.2916 0.80665 0.0
H826 H 0.39454 0.22168 0.82586 0.0
H827 H 0.41031 0.24038 0.8042 0.0
H828 H 0.39101 0.21609 0.7932 0.0
H829 H 0.3496 0.29725 0.86147 0.0
H830 H 0.33345 0.31518 0.83916 0.0
H831 H 0.36586 0.31622 0.84049 0.0
C832 C 0.03447 0.82669 0.41975 0.0
C833 C 0.02174 0.81289 0.40234 0.0
C834 C 0.02546 0.84878 0.42824 0.0
C835 C 0.00263 0.85659 0.41985 0.0
C836 C 0.99007 0.84305 0.40153 0.0
C837 C 3e-05 0.82139 0.39267 0.0
C838 C 0.03984 0.86309 0.44717 0.0
C839 C 0.96545 0.85035 0.39262 0.0
C840 C 0.97731 0.89495 0.4706 0.0
C841 C 0.9843 0.91822 0.46277 0.0
C842 C 0.98045 0.87471 0.45527 0.0
C843 C 0.99158 0.87785 0.43201 0.0
C844 C 0.9964 0.90156 0.42306 0.0
C845 C 0.99239 0.92156 0.43849 0.0
C846 C 0.97412 0.84974 0.465 0.0
C847 C 0.0084 0.9057 0.39846 0.0
H848 H 0.05122 0.81985 0.4272 0.0
H849 H 0.9901 0.81033 0.37944 0.0
H850 H 0.04122 0.88249 0.44168 0.0
H851 H 0.03062 0.86232 0.46527 0.0
H852 H 0.05829 0.85592 0.4496 0.0
H853 H 0.96025 0.84078 0.37528 0.0
H854 H 0.95201 0.84565 0.40697 0.0
H855 H 0.96457 0.87026 0.38952 0.0
H856 H 0.97072 0.8924 0.48924 0.0
H857 H 0.9978 0.93955 0.43232 0.0
H858 H 0.99073 0.8406 0.4713 0.0
H859 H 0.96582 0.83833 0.45028 0.0
H860 H 0.96155 0.85067 0.48084 0.0
H861 H 0.02782 0.90162 0.40024 0.0
H862 H 0.00663 0.92482 0.39216 0.0
H863 H 0.00074 0.89342 0.38411 0.0
C864 C 0.42627 0.76018 0.67222 0.0
C865 C 0.44795 0.74867 0.67775 0.0
C866 C 0.40455 0.75191 0.68223 0.0
C867 C 0.40443 0.73125 0.69781 0.0
C868 C 0.42637 0.71987 0.70401 0.0
C869 C 0.44803 0.7289 0.69404 0.0
C870 C 0.38165 0.76497 0.67559 0.0
C871 C 0.42685 0.69768 0.72035 0.0
C872 C 0.34687 0.72656 0.73419 0.0
C873 C 0.33217 0.7129 0.71802 0.0
C874 C 0.37111 0.73119 0.72882 0.0
C875 C 0.38102 0.72163 0.70692 0.0
C876 C 0.36692 0.70599 0.69171 0.0
C877 C 0.34258 0.70193 0.69735 0.0
C878 C 0.3854 0.74813 0.74543 0.0
C879 C 0.377 0.69507 0.66844 0.0
H880 H 0.42626 0.77555 0.65968 0.0
H881 H 0.4648 0.71984 0.69805 0.0
H882 H 0.36947 0.75257 0.6651 0.0
H883 H 0.37209 0.77049 0.69259 0.0
H884 H 0.38506 0.78145 0.66423 0.0
H885 H 0.44548 0.69207 0.7249 0.0
H886 H 0.41708 0.70114 0.73778 0.0
H887 H 0.4175 0.68233 0.71089 0.0
H888 H 0.33913 0.735 0.75036 0.0
H889 H 0.33148 0.69112 0.68491 0.0
H890 H 0.38718 0.76616 0.73639 0.0
H891 H 0.4038 0.74119 0.74857 0.0
H892 H 0.37659 0.75071 0.76359 0.0
H893 H 0.37883 0.70944 0.65417 0.0
H894 H 0.36522 0.68034 0.66094 0.0
H895 H 0.39516 0.68764 0.67191 0.0
C896 C 0.50361 0.18569 0.93995 0.0
C897 C 0.51291 0.1984 0.91966 0.0
C898 C 0.51032 0.16174 0.94484 0.0
C899 C 0.52709 0.1502 0.92925 0.0
C900 C 0.53697 0.16303 0.90897 0.0
C901 C 0.52953 0.18696 0.90422 0.0
C902 C 0.49904 0.14865 0.96651 0.0
C903 C 0.55516 0.15146 0.89219 0.0
C904 C 0.54862 0.09412 0.96219 0.0
C905 C 0.5311 0.07728 0.95429 0.0
C906 C 0.5496 0.11759 0.95192 0.0
C907 C 0.53254 0.12416 0.93363 0.0
C908 C 0.51696 0.10621 0.92353 0.0
C909 C 0.51654 0.08293 0.93391 0.0
C910 C 0.56707 0.13604 0.96254 0.0
C911 C 0.49856 0.11229 0.90396 0.0
H912 H 0.49072 0.19438 0.95193 0.0
H913 H 0.53701 0.19681 0.88866 0.0
H914 H 0.48897 0.13233 0.95992 0.0
H915 H 0.51322 0.14235 0.97939 0.0
H916 H 0.48649 0.16035 0.97693 0.0
H917 H 0.56412 0.16506 0.88006 0.0
H918 H 0.56908 0.14193 0.90314 0.0
H919 H 0.54606 0.13769 0.88031 0.0
H920 H 0.56012 0.08976 0.97775 0.0
H921 H 0.50333 0.06974 0.92735 0.0
H922 H 0.55766 0.14751 0.97622 0.0
H923 H 0.57418 0.14821 0.9479 0.0
H924 H 0.58237 0.12713 0.97203 0.0
H925 H 0.48376 0.12267 0.91251 0.0
H926 H 0.49071 0.09568 0.89524 0.0
H927 H 0.50658 0.12386 0.88935 0.0
C928 C 0.0642 0.27965 0.14999 0.0
C929 C 0.04416 0.28458 0.16466 0.0
C930 C 0.08757 0.28154 0.15967 0.0
C931 C 0.09099 0.28935 0.18437 0.0
C932 C 0.07079 0.2946 0.1992 0.0
C933 C 0.04754 0.29176 0.18926 0.0
C934 C 0.10858 0.27502 0.1435 0.0
C935 C 0.07377 0.30362 0.22539 0.0
C936 C 0.14991 0.27386 0.2159 0.0
C937 C 0.16373 0.29489 0.21152 0.0
C938 C 0.12617 0.27185 0.20726 0.0
C939 C 0.11574 0.29169 0.19467 0.0
C940 C 0.12937 0.31332 0.19096 0.0
C941 C 0.15339 0.31449 0.19904 0.0
C942 C 0.11254 0.2482 0.21085 0.0
C943 C 0.11864 0.3351 0.17824 0.0
H944 H 0.06154 0.27396 0.13098 0.0
H945 H 0.03202 0.29583 0.2005 0.0
H946 H 0.12048 0.29113 0.14093 0.0
H947 H 0.11945 0.26074 0.15255 0.0
H948 H 0.10276 0.26832 0.12502 0.0
H949 H 0.05626 0.3076 0.23421 0.0
H950 H 0.0832 0.28985 0.23669 0.0
H951 H 0.08505 0.32041 0.22563 0.0
H952 H 0.15799 0.25856 0.2253 0.0
H953 H 0.16406 0.3308 0.19578 0.0
H954 H 0.10755 0.24037 0.19261 0.0
H955 H 0.0956 0.25145 0.22096 0.0
H956 H 0.12319 0.23458 0.22121 0.0
H957 H 0.11448 0.33058 0.15871 0.0
H958 H 0.13094 0.35116 0.17864 0.0
H959 H 0.10147 0.34005 0.18719 0.0
C960 C 0.08973 0.99558 0.21547 0.0
C961 C 0.08406 0.01807 0.226 0.0
C962 C 0.07837 0.98764 0.19369 0.0
C963 C 0.06168 0.00301 0.18184 0.0
C964 C 0.05612 0.02587 0.19234 0.0
C965 C 0.06708 0.03293 0.21459 0.0
C966 C 0.0841 0.96283 0.18345 0.0
C967 C 0.03893 0.04307 0.17985 0.0
C968 C 0.05032 -0.00099 0.11319 0.0
C969 C 0.02645 0.99052 0.1125 0.0
C970 C 0.06246 0.00214 0.13568 0.0
C971 C 0.05067 0.99589 0.1579 0.0
C972 C 0.02731 0.98537 0.15715 0.0
C973 C 0.01526 0.98322 0.13442 0.0
C974 C 0.08712 0.01396 0.13573 0.0
C975 C 0.01458 0.97762 0.18044 0.0
H976 H 0.10265 0.98396 0.2246 0.0
H977 H 0.06281 0.05034 0.2228 0.0
H978 H 0.06728 0.95202 0.18097 0.0
H979 H 0.0925 0.96466 0.16502 0.0
H980 H 0.09649 0.95259 0.19567 0.0
H981 H 0.03706 0.06042 0.19016 0.0
H982 H 0.04529 0.04729 0.16092 0.0
H983 H 0.02091 0.03439 0.17806 0.0
H984 H 0.05897 0.00485 0.09627 0.0
H985 H 0.99687 0.97646 0.13386 0.0
H986 H 0.09453 0.01594 0.11681 0.0
H987 H 0.09988 0.00324 0.14698 0.0
H988 H 0.08607 0.0323 0.14422 0.0
H989 H 0.02687 0.96728 0.19262 0.0
H990 H 0.99841 0.9662 0.17642 0.0
H991 H 0.00883 0.99395 0.19079 0.0
C992 C 0.29406 0.866 0.41922 0.0
C993 C 0.27721 0.88383 0.42501 0.0
C994 C 0.29422 0.85504 0.39597 0.0
C995 C 0.27742 0.86254 0.37794 0.0
C996 C 0.26252 0.88276 0.38264 0.0
C997 C 0.26247 0.89317 0.40636 0.0
C998 C 0.31035 0.8335 0.39185 0.0
C999 C 0.24502 0.89183 0.36348 0.0
C1000 C 0.28374 0.8314 0.31592 0.0
C1001 C 0.26659 0.81263 0.31792 0.0
C1002 C 0.28669 0.84868 0.3348 0.0
C1003 C 0.27268 0.84653 0.3564 0.0
C1004 C 0.25534 0.82753 0.35847 0.0
C1005 C 0.25224 0.81103 0.33898 0.0
C1006 C 0.30473 0.86916 0.33166 0.0
C1007 C 0.24042 0.82428 0.38149 0.0
H1008 H 0.3058 0.85909 0.43356 0.0
H1009 H 0.24952 0.90707 0.4108 0.0
H1010 H 0.29933 0.81653 0.39205 0.0
H1011 H 0.31923 0.83463 0.37362 0.0
H1012 H 0.32444 0.83207 0.40637 0.0
H1013 H 0.23906 0.91059 0.36767 0.0
H1014 H 0.25309 0.89155 0.34479 0.0
H1015 H 0.22891 0.87973 0.3631 0.0
H1016 H 0.29442 0.83295 0.29929 0.0
H1017 H 0.23886 0.79659 0.34037 0.0
H1018 H 0.31934 0.86752 0.34555 0.0
H1019 H 0.29596 0.8869 0.33486 0.0
H1020 H 0.31286 0.86928 0.31297 0.0
H1021 H 0.25238 0.82138 0.39767 0.0
H1022 H 0.22771 0.8086 0.38006 0.0
H1023 H 0.22996 0.84094 0.38512 0.0
C1024 C 0.42498 0.00253 0.70324 0.0
C1025 C 0.43333 0.00436 0.72757 0.0
C1026 C 0.43844 0.01233 0.68373 0.0
C1027 C 0.46025 0.02499 0.6889 0.0
C1028 C 0.46784 0.02832 0.71366 0.0
C1029 C 0.45452 0.01748 0.73271 0.0
C1030 C 0.42998 0.00792 0.65754 0.0
C1031 C 0.49039 0.04261 0.71997 0.0
C1032 C 0.50553 0.02082 0.63743 0.0
C1033 C 0.49987 0.04134 0.62331 0.0
C1034 C 0.49357 0.0159 0.65958 0.0
C1035 C 0.47614 0.03237 0.66822 0.0
C1036 C 0.47216 0.05436 0.65535 0.0
C1037 C 0.48377 0.0584 0.63274 0.0
C1038 C 0.49807 0.99202 0.67249 0.0
C1039 C 0.45455 0.07289 0.66463 0.0
H1040 H 0.40858 0.99234 0.69935 0.0
H1041 H 0.46073 0.01916 0.75166 0.0
H1042 H 0.42831 0.02543 0.64758 0.0
H1043 H 0.44343 0.99692 0.64756 0.0
H1044 H 0.41236 -0.00179 0.65673 0.0
H1045 H 0.49148 0.04708 0.73996 0.0
H1046 H 0.50641 0.03186 0.71503 0.0
H1047 H 0.4912 0.05977 0.70922 0.0
H1048 H 0.51786 0.00749 0.63018 0.0
H1049 H 0.47949 0.0744 0.62195 0.0
H1050 H 0.48163 0.98041 0.67139 0.0
H1051 H 0.50211 0.99509 0.69232 0.0
H1052 H 0.51321 0.98191 0.66419 0.0
H1053 H 0.43594 0.06645 0.66077 0.0
H1054 H 0.45715 0.09081 0.6555 0.0
H1055 H 0.45636 0.07533 0.6849 0.0
C1056 C 0.24837 0.1384 0.89953 0.0
C1057 C 0.23097 0.13889 0.91797 0.0
C1058 C 0.24344 0.148 0.87613 0.0
C1059 C 0.22054 0.15809 0.87138 0.0
C1060 C 0.20215 0.15609 0.88919 0.0
C1061 C 0.20771 0.14668 0.91249 0.0
C1062 C 0.26348 0.14963 0.85748 0.0
C1063 C 0.17734 0.16596 0.88454 0.0
C1064 C 0.22613 0.21364 0.83116 0.0
C1065 C 0.22173 0.20374 0.8077 0.0
C1066 C 0.2242 0.19922 0.85232 0.0
C1067 C 0.21751 0.17439 0.84991 0.0
C1068 C 0.21076 0.16492 0.8266 0.0
C1069 C 0.21298 0.17974 0.80568 0.0
C1070 C 0.2312 0.2101 0.87701 0.0
C1071 C 0.20299 0.1387 0.8234 0.0
H1072 H 0.26639 0.13244 0.90403 0.0
H1073 H 0.19421 0.14666 0.92678 0.0
H1074 H 0.25701 0.14368 0.83901 0.0
H1075 H 0.26965 0.16883 0.85584 0.0
H1076 H 0.27911 0.13837 0.86284 0.0
H1077 H 0.16399 0.15827 0.89767 0.0
H1078 H 0.17776 0.18601 0.88684 0.0
H1079 H 0.17126 0.16196 0.8654 0.0
H1080 H 0.23253 0.23226 0.83292 0.0
H1081 H 0.20925 0.17199 0.78763 0.0
H1082 H 0.24805 0.20168 0.8837 0.0
H1083 H 0.21708 0.20629 0.8909 0.0
H1084 H 0.23412 0.2301 0.87596 0.0
H1085 H 0.21912 0.12702 0.82329 0.0
H1086 H 0.19312 0.1358 0.80574 0.0
H1087 H 0.1914 0.13263 0.83888 0.0
C1088 C 0.14096 0.02061 0.3682 0.0
C1089 C 0.12786 0.03116 0.34894 0.0
C1090 C 0.13279 0.02221 0.39263 0.0
C1091 C 0.11127 0.03482 0.39755 0.0
C1092 C 0.10006 0.04827 0.37856 0.0
C1093 C 0.10832 0.046 0.35436 0.0
C1094 C 0.14551 0.00806 0.41252 0.0
C1095 C 0.07752 0.06258 0.38317 0.0
C1096 C 0.06426 0.00457 0.43692 0.0
C1097 C 0.06436 0.01918 0.45811 0.0
C1098 C 0.0804 0.00883 0.41778 0.0
C1099 C 0.09695 0.02851 0.41965 0.0
C1100 C 0.09783 0.04289 0.44137 0.0
C1101 C 0.08151 0.03793 0.46055 0.0
C1102 C 0.07906 0.99267 0.39517 0.0
C1103 C 0.11517 0.06404 0.44399 0.0
H1104 H 0.15636 0.00945 0.364 0.0
H1105 H 0.0986 0.05477 0.33953 0.0
H1106 H 0.1454 0.01804 0.43033 0.0
H1107 H 0.13599 0.99043 0.41533 0.0
H1108 H 0.16441 0.00423 0.40739 0.0
H1109 H 0.07386 0.07563 0.368 0.0
H1110 H 0.06195 0.04984 0.38455 0.0
H1111 H 0.07892 0.07276 0.40082 0.0
H1112 H 0.05144 0.98963 0.43523 0.0
H1113 H 0.08174 0.0491 0.47705 0.0
H1114 H 0.09704 0.98526 0.39097 0.0
H1115 H 0.07319 0.00345 0.37896 0.0
H1116 H 0.06628 0.97717 0.39749 0.0
H1117 H 0.13278 0.05996 0.43551 0.0
H1118 H 0.11807 0.06905 0.46367 0.0
H1119 H 0.10769 0.08006 0.4343 0.0
C1120 C 0.25641 0.80408 0.52942 0.0
C1121 C 0.26506 0.82705 0.53665 0.0
C1122 C 0.2488 0.78707 0.54701 0.0
C1123 C 0.25081 0.793 0.57233 0.0
C1124 C 0.25938 0.81632 0.57968 0.0
C1125 C 0.26599 0.83329 0.56163 0.0
C1126 C 0.23882 0.76277 0.53856 0.0
C1127 C 0.26225 0.82309 0.60659 0.0
C1128 C 0.21938 0.76191 0.62517 0.0
C1129 C 0.23808 0.74793 0.6348 0.0
C1130 C 0.22245 0.77497 0.60322 0.0
C1131 C 0.24505 0.77463 0.59138 0.0
C1132 C 0.26331 0.75901 0.60002 0.0
C1133 C 0.25941 0.74547 0.62151 0.0
C1134 C 0.20224 0.79063 0.59389 0.0
C1135 C 0.28781 0.75852 0.58815 0.0
H1136 H 0.2554 0.79952 0.50995 0.0
H1137 H 0.27272 0.85112 0.56704 0.0
H1138 H 0.25108 0.74804 0.54429 0.0
H1139 H 0.2212 0.75911 0.54741 0.0
H1140 H 0.23646 0.76191 0.5182 0.0
H1141 H 0.26967 0.84178 0.60911 0.0
H1142 H 0.24463 0.8219 0.61601 0.0
H1143 H 0.27443 0.81009 0.61589 0.0
H1144 H 0.20283 0.76364 0.63549 0.0
H1145 H 0.27394 0.73481 0.62917 0.0
H1146 H 0.20078 0.7896 0.57348 0.0
H1147 H 0.20593 0.80989 0.5989 0.0
H1148 H 0.1847 0.78516 0.60204 0.0
H1149 H 0.28619 0.7565 0.56785 0.0
H1150 H 0.29902 0.74352 0.59541 0.0
H1151 H 0.29732 0.77603 0.59183 0.0
C1152 C 0.3771 0.97374 0.86046 0.0
C1153 C 0.38461 0.96178 0.83913 0.0
C1154 C 0.38808 0.96877 0.88327 0.0
C1155 C 0.40652 0.95119 0.88447 0.0
C1156 C 0.41112 0.93643 0.8637 0.0
C1157 C 0.40052 0.94233 0.84104 0.0
C1158 C 0.38236 0.98463 0.90516 0.0
C1159 C 0.42958 0.91657 0.8646 0.0
C1160 C 0.46051 0.97536 0.91911 0.0
C1161 C 0.4573 0.96522 0.94255 0.0
C1162 C 0.44469 0.96989 0.8998 0.0
C1163 C 0.42524 0.95355 0.90395 0.0
C1164 C 0.42317 0.94148 0.92695 0.0
C1165 C 0.43927 0.94758 0.94618 0.0
C1166 C 0.44796 0.98297 0.87545 0.0
C1167 C 0.4032 0.92337 0.93189 0.0
H1168 H 0.36465 0.98869 0.8589 0.0
H1169 H 0.40597 0.93277 0.82455 0.0
H1170 H 0.3812 0.97362 0.92225 0.0
H1171 H 0.39702 -0.0017 0.90777 0.0
H1172 H 0.36519 0.99445 0.90254 0.0
H1173 H 0.42653 0.90303 0.84963 0.0
H1174 H 0.44778 0.92467 0.86221 0.0
H1175 H 0.42922 0.90709 0.88268 0.0
H1176 H 0.47472 0.98873 0.91625 0.0
H1177 H 0.43677 0.93974 0.96436 0.0
H1178 H 0.43203 0.99431 0.87148 0.0
H1179 H 0.44961 0.96963 0.86021 0.0
H1180 H 0.46418 0.99495 0.87536 0.0
H1181 H 0.38722 0.93318 0.93867 0.0
H1182 H 0.40855 0.91014 0.94634 0.0
H1183 H 0.3979 0.91325 0.91494 0.0
C1184 C 0.26422 0.21916 0.03114 0.0
C1185 C 0.25314 0.19626 0.03328 0.0
C1186 C 0.26982 0.23297 0.05223 0.0
C1187 C 0.26323 0.22395 0.07571 0.0
C1188 C 0.25248 0.20057 0.07792 0.0
C1189 C 0.24795 0.18681 0.05663 0.0
C1190 C 0.28218 0.25738 0.04934 0.0
C1191 C 0.24469 0.19056 0.10263 0.0
C1192 C 0.28514 0.24768 0.13736 0.0
C1193 C 0.26569 0.26201 0.14442 0.0
C1194 C 0.28559 0.2367 0.11401 0.0
C1195 C 0.2657 0.23948 0.09792 0.0
C1196 C 0.24663 0.25499 0.1045 0.0
C1197 C 0.24707 0.26641 0.1276 0.0
C1198 C 0.30666 0.22105 0.10717 0.0
C1199 C 0.22485 0.25798 0.08806 0.0
H1200 H 0.26847 0.22626 0.01299 0.0
H1201 H 0.23928 0.16911 0.05816 0.0
H1202 H 0.26942 0.27211 0.05366 0.0
H1203 H 0.29747 0.2591 0.0625 0.0
H1204 H 0.28898 0.26022 0.0303 0.0
H1205 H 0.23677 0.17197 0.10111 0.0
H1206 H 0.26023 0.18995 0.11552 0.0
H1207 H 0.23113 0.2027 0.11094 0.0
H1208 H 0.29968 0.24452 0.15034 0.0
H1209 H 0.23196 0.27739 0.13316 0.0
H1210 H 0.31217 0.2245 0.08781 0.0
H1211 H 0.30139 0.20158 0.10856 0.0
H1212 H 0.32236 0.22434 0.11953 0.0
H1213 H 0.23036 0.26315 0.06912 0.0
H1214 H 0.21238 0.27196 0.09516 0.0
H1215 H 0.21493 0.24039 0.0867 0.0
C1216 C 0.16633 0.10839 0.00932 0.0
C1217 C 0.16859 0.12263 0.98801 0.0
C1218 C 0.14508 0.09523 0.01399 0.0
C1219 C 0.12604 0.09582 0.99654 0.0
C1220 C 0.12845 0.10984 0.97478 0.0
C1221 C 0.14959 0.12335 0.97094 0.0
C1222 C 0.14287 0.08097 0.03769 0.0
C1223 C 0.10877 0.11042 0.95547 0.0
C1224 C 0.07997 0.04445 -0.00188 0.0
C1225 C 0.06042 0.05588 0.0092 0.0
C1226 C 0.10141 0.05733 0.99361 0.0
C1227 C 0.10348 0.08195 0.00109 0.0
C1228 C 0.08387 0.09346 0.01262 0.0
C1229 C 0.06242 0.08036 0.0162 0.0
C1230 C 0.12174 0.04469 0.98064 0.0
C1231 C 0.08565 0.11951 0.02141 0.0
H1232 H 0.18101 0.10796 0.02256 0.0
H1233 H 0.15147 0.13414 0.95429 0.0
H1234 H 0.12704 0.08723 0.04822 0.0
H1235 H 0.13992 0.0614 0.03353 0.0
H1236 H 0.15912 0.08289 0.04959 0.0
H1237 H 0.11387 0.12152 0.93915 0.0
H1238 H 0.1044 0.09165 0.94918 0.0
H1239 H 0.09217 0.11801 0.9635 0.0
H1240 H 0.07836 0.02553 0.99262 0.0
H1241 H 0.04737 0.08912 0.02506 0.0
H1242 H 0.1379 0.04447 0.99271 0.0
H1243 H 0.12666 0.05483 0.96366 0.0
H1244 H 0.117 0.02566 0.97548 0.0
H1245 H 0.10106 0.12169 0.03434 0.0
H1246 H 0.06905 0.12545 0.03088 0.0
H1247 H 0.08902 0.13178 0.00553 0.0
C1248 C 0.67568 0.40668 0.01065 0.0
C1249 C 0.69877 0.40864 0.02091 0.0
C1250 C 0.65743 0.42247 0.01782 0.0
C1251 C 0.66228 0.44033 0.0361 0.0
C1252 C 0.68534 0.44185 0.0472 0.0
C1253 C 0.70345 0.42612 0.03926 0.0
C1254 C 0.63313 0.42044 0.00531 0.0
C1255 C 0.69094 0.46028 0.06715 0.0
C1256 C 0.61996 0.49331 0.03114 0.0
C1257 C 0.60123 0.48558 0.04658 0.0
C1258 C 0.64089 0.47956 0.0288 0.0
C1259 C 0.64325 0.45787 0.04262 0.0
C1260 C 0.62546 0.45132 0.06004 0.0
C1261 C 0.6045 0.46513 0.06164 0.0
C1262 C 0.65936 0.48706 0.00985 0.0
C1263 C 0.62766 0.42868 0.07561 0.0
H1264 H 0.67202 0.39326 0.9964 0.0
H1265 H 0.72128 0.42754 0.04735 0.0
H1266 H 0.61893 0.41708 0.01923 0.0
H1267 H 0.6289 0.4378 0.9959 0.0
H1268 H 0.63234 0.40554 0.99144 0.0
H1269 H 0.7091 0.45776 0.07531 0.0
H1270 H 0.68997 0.47892 0.05943 0.0
H1271 H 0.6774 0.45898 0.08208 0.0
H1272 H 0.61756 0.5091 0.01944 0.0
H1273 H 0.59019 0.45926 0.07385 0.0
H1274 H 0.65838 0.47435 0.99393 0.0
H1275 H 0.67778 0.48604 0.01768 0.0
H1276 H 0.65641 0.50581 0.00293 0.0
H1277 H 0.624 0.41242 0.06398 0.0
H1278 H 0.61474 0.42856 0.09118 0.0
H1279 H 0.64616 0.42704 0.08314 0.0
C1280 C 0.84607 0.41158 0.23831 0.0
C1281 C 0.86622 0.41238 0.25392 0.0
C1282 C 0.83195 0.39042 0.23631 0.0
C1283 C 0.83779 0.36994 0.25085 0.0
C1284 C 0.85806 0.37071 0.26675 0.0
C1285 C 0.87228 0.39188 0.26783 0.0
C1286 C 0.81089 0.38993 0.21859 0.0
C1287 C 0.86447 0.34934 0.2829 0.0
C1288 C 0.78816 0.32358 0.26232 0.0
C1289 C 0.79478 0.30487 0.2463 0.0
C1290 C 0.80221 0.34485 0.26423 0.0
C1291 C 0.82283 0.34757 0.24921 0.0
C1292 C 0.82925 0.32891 0.23261 0.0
C1293 C 0.81528 0.30762 0.23159 0.0
C1294 C 0.79522 0.36421 0.28255 0.0
C1295 C 0.85075 0.33145 0.21584 0.0
H1296 H 0.84152 0.42745 0.22746 0.0
H1297 H 0.88774 0.39267 0.2801 0.0
H1298 H 0.81282 0.37471 0.2053 0.0
H1299 H 0.79394 0.38671 0.22883 0.0
H1300 H 0.80927 0.40717 0.20806 0.0
H1301 H 0.88042 0.35318 0.29477 0.0
H1302 H 0.84904 0.34449 0.29491 0.0
H1303 H 0.86827 0.33322 0.27129 0.0
H1304 H 0.77236 0.32131 0.27377 0.0
H1305 H 0.82019 0.29323 0.21894 0.0
H1306 H 0.79168 0.38154 0.2728 0.0
H1307 H 0.81029 0.36768 0.29565 0.0
H1308 H 0.77897 0.35901 0.29324 0.0
H1309 H 0.84892 0.34793 0.20418 0.0
H1310 H 0.8529 0.31541 0.20358 0.0
H1311 H 0.8674 0.33381 0.22698 0.0
C1312 C 0.80283 0.571 0.52735 0.0
C1313 C 0.80477 0.59642 0.52597 0.0
C1314 C 0.82335 0.55659 0.52972 0.0
C1315 C 0.8463 0.56792 0.53097 0.0
C1316 C 0.84829 0.59362 0.53054 0.0
C1317 C 0.82748 0.60757 0.52791 0.0
C1318 C 0.82054 0.52924 0.52987 0.0
C1319 C 0.87246 0.60636 0.53202 0.0
C1320 C 0.90066 0.53166 0.5516 0.0
C1321 C 0.91144 0.52648 0.52887 0.0
C1322 C 0.87926 0.54495 0.55265 0.0
C1323 C 0.86833 0.55293 0.53045 0.0
C1324 C 0.87876 0.54708 0.50747 0.0
C1325 C 0.9002 0.53404 0.50697 0.0
C1326 C 0.86867 0.55103 0.57747 0.0
C1327 C 0.8675 0.55497 0.48336 0.0
H1328 H 0.7853 0.56228 0.5259 0.0
H1329 H 0.82905 0.62723 0.52708 0.0
H1330 H 0.82863 0.52157 0.51292 0.0
H1331 H 0.83023 0.52139 0.54587 0.0
H1332 H 0.80139 0.52334 0.53065 0.0
H1333 H 0.87077 0.62641 0.53364 0.0
H1334 H 0.88284 0.59961 0.54811 0.0
H1335 H 0.883 0.60226 0.51522 0.0
H1336 H 0.90932 0.52595 0.56857 0.0
H1337 H 0.90829 0.52992 0.48931 0.0
H1338 H 0.8497 0.54464 0.57834 0.0
H1339 H 0.86865 0.57105 0.58007 0.0
H1340 H 0.87885 0.54273 0.59296 0.0
H1341 H 0.84861 0.54837 0.48221 0.0
H1342 H 0.87738 0.54808 0.46706 0.0
H1343 H 0.86719 0.57512 0.48242 0.0
C1344 C 0.14482 0.12012 0.2794 0.0
C1345 C 0.15476 0.09759 0.28525 0.0
C1346 C 0.15962 0.14057 0.2758 0.0
C1347 C 0.1848 0.13843 0.27885 0.0
C1348 C 0.19484 0.11588 0.28562 0.0
C1349 C 0.17967 0.09557 0.28838 0.0
C1350 C 0.14836 0.16426 0.26805 0.0
C1351 C 0.22155 0.11318 0.28971 0.0
C1352 C 0.2223 0.18493 0.24458 0.0
C1353 C 0.22547 0.20293 0.26266 0.0
C1354 C 0.20968 0.1634 0.24984 0.0
C1355 C 0.20061 0.15966 0.27391 0.0
C1356 C 0.20512 0.17707 0.29266 0.0
C1357 C 0.21726 0.19873 0.28671 0.0
C1358 C 0.20484 0.14538 0.22927 0.0
C1359 C 0.19629 0.17328 0.3187 0.0
H1360 H 0.12554 0.12157 0.27688 0.0
H1361 H 0.18728 0.07813 0.29321 0.0
H1362 H 0.15292 0.17876 0.2816 0.0
H1363 H 0.15569 0.17007 0.24995 0.0
H1364 H 0.12848 0.16281 0.26646 0.0
H1365 H 0.22623 0.09481 0.29662 0.0
H1366 H 0.23125 0.11643 0.27216 0.0
H1367 H 0.22816 0.12697 0.30318 0.0
H1368 H 0.22852 0.18823 0.22592 0.0
H1369 H 0.21992 0.21259 0.30076 0.0
H1370 H 0.18524 0.14439 0.22542 0.0
H1371 H 0.21056 0.12693 0.23486 0.0
H1372 H 0.21426 0.15042 0.21195 0.0
H1373 H 0.1764 0.17441 0.31904 0.0
H1374 H 0.20382 0.18708 0.33169 0.0
H1375 H 0.20116 0.15491 0.32539 0.0
C1376 C 0.35786 0.91965 0.50744 0.0
C1377 C 0.33384 0.92474 0.50184 0.0
C1378 C 0.37443 0.9384 0.51251 0.0
C1379 C 0.36691 0.96291 0.51144 0.0
C1380 C 0.34251 0.96818 0.50651 0.0
C1381 C 0.32617 0.94897 0.50198 0.0
C1382 C 0.40021 0.93196 0.51818 0.0
C1383 C 0.33392 0.99406 0.50488 0.0
C1384 C 0.41328 0.00634 0.53875 0.0
C1385 C 0.42781 0.01047 0.51811 0.0
C1386 C 0.39208 0.99229 0.53665 0.0
C1387 C 0.38527 0.98269 0.51331 0.0
C1388 C 0.39864 0.9891 0.49207 0.0
C1389 C 0.41996 0.00264 0.4948 0.0
C1390 C 0.3784 0.98578 0.55975 0.0
C1391 C 0.39171 0.97978 0.46675 0.0
H1392 H 0.36379 0.90094 0.50769 0.0
H1393 H 0.3076 0.95298 0.49758 0.0
H1394 H 0.41199 0.93831 0.50297 0.0
H1395 H 0.40637 0.94124 0.53533 0.0
H1396 H 0.40263 0.91206 0.52048 0.0
H1397 H 0.314 0.99505 0.5038 0.0
H1398 H 0.34028 0.00477 0.52106 0.0
H1399 H 0.34156 0.0028 0.48816 0.0
H1400 H 0.41952 0.01223 0.55682 0.0
H1401 H 0.43124 0.00596 0.47884 0.0
H1402 H 0.38273 0.96687 0.56519 0.0
H1403 H 0.35872 0.98652 0.55648 0.0
H1404 H 0.38318 -0.00194 0.57537 0.0
H1405 H 0.39586 0.96013 0.46546 0.0
H1406 H 0.40159 0.98949 0.45188 0.0
H1407 H 0.37212 0.98176 0.4635 0.0
C1408 C 0.84504 0.56496 0.28346 0.0
C1409 C 0.83773 0.54499 0.26912 0.0
C1410 C 0.83296 0.58709 0.28193 0.0
C1411 C 0.81338 0.58934 0.26532 0.0
C1412 C 0.80534 0.56895 0.25147 0.0
C1413 C 0.81754 0.54688 0.25369 0.0
C1414 C 0.8418 0.60835 0.29731 0.0
C1415 C 0.7847 0.57079 0.23337 0.0
C1416 C 0.77581 0.64583 0.27313 0.0
C1417 C 0.78751 0.66199 0.25705 0.0
C1418 C 0.78343 0.6217 0.27542 0.0
C1419 C 0.8029 0.61361 0.26098 0.0
C1420 C 0.81383 0.62949 0.2437 0.0
C1421 C 0.80614 0.65357 0.24211 0.0
C1422 C 0.77154 0.60532 0.29421 0.0
C1423 C 0.83438 0.62135 0.22765 0.0
H1424 H 0.86053 0.56344 0.29558 0.0
H1425 H 0.81192 0.53143 0.24251 0.0
H1426 H 0.84964 0.62252 0.28509 0.0
H1427 H 0.82662 0.6167 0.30732 0.0
H1428 H 0.8557 0.60296 0.31099 0.0
H1429 H 0.77908 0.55274 0.22597 0.0
H1430 H 0.76899 0.57938 0.24222 0.0
H1431 H 0.79014 0.58255 0.21768 0.0
H1432 H 0.76145 0.65232 0.28478 0.0
H1433 H 0.81502 0.66597 0.22944 0.0
H1434 H 0.78437 0.60165 0.30948 0.0
H1435 H 0.76659 0.58755 0.28578 0.0
H1436 H 0.75515 0.61354 0.30214 0.0
H1437 H 0.85041 0.61784 0.23933 0.0
H1438 H 0.83933 0.63518 0.21356 0.0
H1439 H 0.8296 0.60409 0.21809 0.0
C1440 C 0.70897 0.47092 0.74256 0.0
C1441 C 0.69166 0.46717 0.76094 0.0
C1442 C 0.72018 0.45117 0.73116 0.0
C1443 C 0.71422 0.42727 0.73875 0.0
C1444 C 0.69794 0.42352 0.75848 0.0
C1445 C 0.68657 0.44355 0.7691 0.0
C1446 C 0.73719 0.45584 0.71002 0.0
C1447 C 0.69165 0.39829 0.76761 0.0
C1448 C 0.71291 0.37197 0.69778 0.0
C1449 C 0.73251 0.35907 0.70705 0.0
C1450 C 0.70812 0.39549 0.70622 0.0
C1451 C 0.72299 0.40594 0.72479 0.0
C1452 C 0.74411 0.3939 0.73243 0.0
C1453 C 0.74879 0.37059 0.72321 0.0
C1454 C 0.68577 0.40805 0.69708 0.0
C1455 C 0.76032 0.40434 0.75232 0.0
H1456 H 0.7128 0.48922 0.73612 0.0
H1457 H 0.67331 0.44069 0.78344 0.0
H1458 H 0.75368 0.44487 0.71209 0.0
H1459 H 0.72838 0.45025 0.69245 0.0
H1460 H 0.74244 0.47535 0.7086 0.0
H1461 H 0.68066 0.39868 0.78467 0.0
H1462 H 0.68137 0.38828 0.75314 0.0
H1463 H 0.70824 0.3879 0.77144 0.0
H1464 H 0.70035 0.36298 0.68529 0.0
H1465 H 0.7638 0.36046 0.73061 0.0
H1466 H 0.68955 0.42756 0.69337 0.0
H1467 H 0.6717 0.40706 0.71151 0.0
H1468 H 0.67848 0.39948 0.67998 0.0
H1469 H 0.76301 0.42421 0.74987 0.0
H1470 H 0.77815 0.39545 0.75255 0.0
H1471 H 0.75179 0.40145 0.77058 0.0
C1472 C 0.02965 0.81893 0.95029 0.0
C1473 C 0.02983 0.82137 0.92453 0.0
C1474 C 0.02748 0.83935 0.96559 0.0
C1475 C 0.02539 0.86264 0.95478 0.0
C1476 C 0.02661 0.86529 0.92882 0.0
C1477 C 0.02884 0.84458 0.91399 0.0
C1478 C 0.02634 0.83588 0.99321 0.0
C1479 C 0.02447 0.88988 0.91665 0.0
C1480 C 0.98951 0.91119 0.98667 0.0
C1481 C 0.00766 0.927 0.99531 0.0
C1482 C 0.99513 0.88973 0.97422 0.0
C1483 C 0.01951 0.88394 0.97027 0.0
C1484 C 0.03797 0.89925 0.97979 0.0
C1485 C 0.03182 0.92065 0.99228 0.0
C1486 C 0.97493 0.87373 0.96446 0.0
C1487 C 0.06416 0.89352 0.97594 0.0
H1488 H 0.03061 0.801 0.95852 0.0
H1489 H 0.02915 0.84654 0.89408 0.0
H1490 H 0.03888 0.84871 0.00269 0.0
H1491 H 0.00796 0.83992 -0.00022 0.0
H1492 H 0.03084 0.81703 -0.00121 0.0
H1493 H 0.02773 0.88905 0.89645 0.0
H1494 H 0.00616 0.89708 0.91969 0.0
H1495 H 0.03744 0.90301 0.92503 0.0
H1496 H 0.97079 0.91583 0.98916 0.0
H1497 H 0.04594 0.93277 -0.00106 0.0
H1498 H 0.97722 0.85474 0.97089 0.0
H1499 H 0.97537 0.87345 0.94398 0.0
H1500 H 0.95697 0.8801 0.97037 0.0
H1501 H 0.0679 0.87454 0.98159 0.0
H1502 H 0.07627 0.90601 0.98646 0.0
H1503 H 0.06853 0.89506 0.95603 0.0
C1504 C 0.919 0.20666 0.69689 0.0
C1505 C 0.93902 0.22103 0.70318 0.0
C1506 C 0.89676 0.21059 0.708 0.0
C1507 C 0.89472 0.22951 0.72557 0.0
C1508 C 0.9157 0.24134 0.73472 0.0
C1509 C 0.93785 0.2369 0.72333 0.0
C1510 C 0.87499 0.19706 0.6981 0.0
C1511 C 0.91431 0.261 0.75407 0.0
C1512 C 0.83888 0.26597 0.71309 0.0
C1513 C 0.82287 0.25643 0.73051 0.0
C1514 C 0.86276 0.25828 0.7123 0.0
C1515 C 0.87082 0.24054 0.72935 0.0
C1516 C 0.85514 0.23178 0.74784 0.0
C1517 C 0.83131 0.23982 0.74819 0.0
C1518 C 0.87901 0.26824 0.69234 0.0
C1519 C 0.86297 0.21287 0.7663 0.0
H1520 H 0.92009 0.19425 0.68135 0.0
H1521 H 0.95341 0.24802 0.72815 0.0
H1522 H 0.86167 0.19352 0.71284 0.0
H1523 H 0.86619 0.20831 0.68373 0.0
H1524 H 0.88001 0.17945 0.68958 0.0
H1525 H 0.932 0.26419 0.7632 0.0
H1526 H 0.90871 0.27824 0.7452 0.0
H1527 H 0.90077 0.25629 0.76831 0.0
H1528 H 0.83259 0.27897 0.69955 0.0
H1529 H 0.81908 0.23234 0.7618 0.0
H1530 H 0.88378 0.25344 0.67937 0.0
H1531 H 0.89598 0.27541 0.70055 0.0
H1532 H 0.87044 0.28304 0.68161 0.0
H1533 H 0.86195 0.19463 0.75756 0.0
H1534 H 0.85121 0.21263 0.78281 0.0
H1535 H 0.88184 0.21605 0.77234 0.0
C1536 C 0.49579 0.20453 0.42612 0.0
C1537 C 0.49222 0.22756 0.43639 0.0
C1538 C 0.49689 0.18386 0.44118 0.0
C1539 C 0.49491 0.18647 0.46712 0.0
C1540 C 0.49149 0.20971 0.4776 0.0
C1541 C 0.48995 0.22998 0.46207 0.0
C1542 C 0.50025 0.15925 0.42936 0.0
C1543 C 0.48994 0.21322 0.50521 0.0
C1544 C 0.48021 0.12869 0.50227 0.0
C1545 C 0.50332 0.12032 0.50757 0.0
C1546 C 0.47705 0.15082 0.48986 0.0
C1547 C 0.4975 0.16491 0.48321 0.0
C1548 C 0.52075 0.15732 0.49027 0.0
C1549 C 0.52339 0.13494 0.50212 0.0
C1550 C 0.45202 0.15829 0.4824 0.0
C1551 C 0.54293 0.17218 0.48411 0.0
H1552 H 0.49736 0.20261 0.40627 0.0
H1553 H 0.4874 0.24783 0.47009 0.0
H1554 H 0.51758 0.15145 0.43548 0.0
H1555 H 0.48576 0.14654 0.43531 0.0
H1556 H 0.50015 0.1602 0.40887 0.0
H1557 H 0.48671 0.23247 0.51036 0.0
H1558 H 0.47525 0.20175 0.51288 0.0
H1559 H 0.50692 0.20732 0.51409 0.0
H1560 H 0.46474 0.11723 0.50636 0.0
H1561 H 0.54126 0.12847 0.50646 0.0
H1562 H 0.45012 0.15703 0.46203 0.0
H1563 H 0.4488 0.17747 0.48765 0.0
H1564 H 0.43795 0.14659 0.49098 0.0
H1565 H 0.54593 0.17181 0.46388 0.0
H1566 H 0.55927 0.16517 0.49344 0.0
H1567 H 0.54053 0.19146 0.48955 0.0
C1568 C 0.60541 0.76042 0.14489 0.0
C1569 C 0.58219 0.76465 0.15364 0.0
C1570 C 0.62351 0.75238 0.16077 0.0
C1571 C 0.61827 0.74882 0.18605 0.0
C1572 C 0.59442 0.75113 0.19459 0.0
C1573 C 0.57654 0.75898 0.17818 0.0
C1574 C 0.64868 0.74967 0.15084 0.0
C1575 C 0.58818 0.74726 0.22139 0.0
C1576 C 0.67095 0.72447 0.22254 0.0
C1577 C 0.68278 0.7463 0.22866 0.0
C1578 C 0.64881 0.72476 0.20996 0.0
C1579 C 0.63848 0.74739 0.20381 0.0
C1580 C 0.6495 0.76935 0.21187 0.0
C1581 C 0.6716 0.76851 0.22406 0.0
C1582 C 0.6375 0.70102 0.20169 0.0
C1583 C 0.6389 0.79389 0.206 0.0
H1584 H 0.60969 0.76417 0.12574 0.0
H1585 H 0.55849 0.76195 0.18493 0.0
H1586 H 0.66015 0.76497 0.15759 0.0
H1587 H 0.65677 0.73254 0.15753 0.0
H1588 H 0.64903 0.74971 0.13033 0.0
H1589 H 0.56849 0.74494 0.22405 0.0
H1590 H 0.59743 0.7311 0.22891 0.0
H1591 H 0.59432 0.76329 0.23228 0.0
H1592 H 0.67965 0.70729 0.22619 0.0
H1593 H 0.68062 0.78537 0.22925 0.0
H1594 H 0.6415 0.69806 0.18188 0.0
H1595 H 0.61767 0.70137 0.20366 0.0
H1596 H 0.64462 0.68538 0.21231 0.0
H1597 H 0.64019 0.79737 0.18587 0.0
H1598 H 0.64834 0.80895 0.21591 0.0
H1599 H 0.61959 0.79421 0.21098 0.0
C1600 C 0.99659 0.15329 0.6422 0.0
C1601 C 0.99317 0.16736 0.62085 0.0
C1602 C 0.00044 0.12817 0.64054 0.0
C1603 C 0.00079 0.11702 0.61703 0.0
C1604 C 0.99671 0.13101 0.59551 0.0
C1605 C 0.993 0.15599 0.59769 0.0
C1606 C 0.00469 0.11371 0.66381 0.0
C1607 C 0.99675 0.1197 0.57004 0.0
C1608 C 0.03191 0.06005 0.59758 0.0
C1609 C 0.012 0.04496 0.59268 0.0
C1610 C 0.0289 0.08294 0.60848 0.0
C1611 C 0.00543 0.09073 0.61433 0.0
C1612 C 0.98573 0.07441 0.61212 0.0
C1613 C 0.98925 0.05172 0.60118 0.0
C1614 C 0.05042 0.09973 0.61109 0.0
C1615 C 0.96042 0.08194 0.61822 0.0
H1616 H 0.99682 0.16195 0.66019 0.0
H1617 H 0.99023 0.16667 0.58113 0.0
H1618 H 0.99266 0.09748 0.6643 0.0
H1619 H 0.02344 0.10706 0.66407 0.0
H1620 H 0.00174 0.12468 0.68074 0.0
H1621 H 0.99158 0.1328 0.5554 0.0
H1622 H 0.01497 0.11286 0.56585 0.0
H1623 H 0.98416 0.10392 0.56925 0.0
H1624 H 0.04956 0.05479 0.59123 0.0
H1625 H 0.97367 0.04034 0.59716 0.0
H1626 H 0.0496 0.11023 0.62855 0.0
H1627 H 0.05047 0.11294 0.59561 0.0
H1628 H 0.06757 0.08959 0.61064 0.0
H1629 H 0.96006 0.09311 0.63527 0.0
H1630 H 0.94829 0.06592 0.62065 0.0
H1631 H 0.95324 0.09314 0.60288 0.0
C1632 C 0.59061 0.2691 0.3736 0.0
C1633 C 0.57134 0.25735 0.36152 0.0
C1634 C 0.61411 0.26751 0.36453 0.0
C1635 C 0.61842 0.25366 0.34302 0.0
C1636 C 0.5993 0.24051 0.33166 0.0
C1637 C 0.57592 0.24261 0.34099 0.0
C1638 C 0.63405 0.28171 0.37719 0.0
C1639 C 0.60332 0.22516 0.30895 0.0
C1640 C 0.6694 0.27128 0.30015 0.0
C1641 C 0.68652 0.2536 0.30573 0.0
C1642 C 0.64749 0.27201 0.31283 0.0
C1643 C 0.64248 0.25443 0.33126 0.0
C1644 C 0.66004 0.23709 0.3376 0.0
C1645 C 0.68193 0.237 0.32488 0.0
C1646 C 0.62932 0.29103 0.30581 0.0
C1647 C 0.65525 0.21787 0.35692 0.0
H1648 H 0.58722 0.28049 0.38952 0.0
H1649 H 0.56112 0.23337 0.33168 0.0
H1650 H 0.64966 0.26984 0.38083 0.0
H1651 H 0.64032 0.2966 0.36492 0.0
H1652 H 0.62817 0.28979 0.39494 0.0
H1653 H 0.58707 0.21437 0.30369 0.0
H1654 H 0.6083 0.23707 0.29322 0.0
H1655 H 0.61844 0.21251 0.31205 0.0
H1656 H 0.67284 0.28414 0.2854 0.0
H1657 H 0.69494 0.22306 0.32911 0.0
H1658 H 0.62348 0.30108 0.32247 0.0
H1659 H 0.61314 0.28207 0.29769 0.0
H1660 H 0.63658 0.3043 0.29223 0.0
H1661 H 0.67152 0.2071 0.36123 0.0
H1662 H 0.64093 0.20524 0.35025 0.0
H1663 H 0.64872 0.22631 0.37421 0.0
C1664 C 0.50558 0.8626 0.15191 0.0
C1665 C 0.52085 0.85133 0.13489 0.0
C1666 C 0.49801 0.88652 0.14823 0.0
C1667 C 0.50648 0.89945 0.12746 0.0
C1668 C 0.52484 0.88943 0.11264 0.0
C1669 C 0.5315 0.86521 0.11625 0.0
C1670 C 0.4788 0.89656 0.16482 0.0
C1671 C 0.53546 0.90314 0.0911 0.0
C1672 C 0.46789 0.93441 0.08377 0.0
C1673 C 0.47803 0.95767 0.08623 0.0
C1674 C 0.47494 0.9156 0.09944 0.0
C1675 C 0.4928 0.92027 0.11763 0.0
C1676 C 0.50049 0.94442 0.12242 0.0
C1677 C 0.49288 0.96303 0.10661 0.0
C1678 C 0.4654 0.8902 0.09453 0.0
C1679 C 0.51897 0.95013 0.14212 0.0
H1680 H 0.49754 0.85206 0.1667 0.0
H1681 H 0.54372 0.85668 0.10342 0.0
H1682 H 0.47952 0.9167 0.16577 0.0
H1683 H 0.46089 0.89107 0.15745 0.0
H1684 H 0.48044 0.8891 0.1838 0.0
H1685 H 0.55363 0.89634 0.08667 0.0
H1686 H 0.52374 0.90049 0.07463 0.0
H1687 H 0.53692 0.92292 0.09491 0.0
H1688 H 0.4561 0.93043 0.06823 0.0
H1689 H 0.50069 0.9811 0.10862 0.0
H1690 H 0.46079 0.88094 0.1121 0.0
H1691 H 0.47946 0.87938 0.08527 0.0
H1692 H 0.44918 0.89028 0.08247 0.0
H1693 H 0.51583 0.93904 0.15892 0.0
H1694 H 0.51891 0.96969 0.14727 0.0
H1695 H 0.53705 0.9456 0.13506 0.0
C1696 C 0.92557 0.76902 0.90387 0.0
C1697 C 0.94573 0.77806 0.89128 0.0
C1698 C 0.90289 0.7682 0.89236 0.0
C1699 C 0.90044 0.77696 0.86792 0.0
C1700 C 0.92054 0.7872 0.85564 0.0
C1701 C 0.94298 0.78745 0.86742 0.0
C1702 C 0.88184 0.75705 0.90591 0.0
C1703 C 0.91852 0.79724 0.82976 0.0
C1704 C 0.8523 0.7551 0.8232 0.0
C1705 C 0.83694 0.77511 0.82278 0.0
C1706 C 0.87236 0.75477 0.83903 0.0
C1707 C 0.87712 0.77497 0.85464 0.0
C1708 C 0.86088 0.79451 0.85538 0.0
C1709 C 0.84095 0.79431 0.8395 0.0
C1710 C 0.88918 0.73346 0.83801 0.0
C1711 C 0.86535 0.81638 0.87177 0.0
H1712 H 0.92771 0.76154 0.92225 0.0
H1713 H 0.95853 0.79461 0.85773 0.0
H1714 H 0.86627 0.76947 0.90549 0.0
H1715 H 0.87613 0.73996 0.89654 0.0
H1716 H 0.88629 0.75284 0.92545 0.0
H1717 H 0.93562 0.80569 0.82335 0.0
H1718 H 0.9134 0.78243 0.81676 0.0
H1719 H 0.9042 0.81109 0.82889 0.0
H1720 H 0.84923 0.74011 0.81051 0.0
H1721 H 0.82903 0.80976 0.83958 0.0
H1722 H 0.89342 0.72699 0.85692 0.0
H1723 H 0.90636 0.73925 0.82938 0.0
H1724 H 0.88151 0.71803 0.82716 0.0
H1725 H 0.86991 0.81063 0.89082 0.0
H1726 H 0.84954 0.82852 0.8725 0.0
H1727 H 0.8809 0.827 0.86463 0.0
C1728 C 0.92806 0.04929 0.82788 0.0
C1729 C 0.90304 0.04906 0.8247 0.0
C1730 C 0.93832 0.04806 0.85152 0.0
C1731 C 0.92314 0.04656 0.87235 0.0
C1732 C 0.89788 0.0473 0.86929 0.0
C1733 C 0.88811 0.04853 0.84544 0.0
C1734 C 0.96535 0.04729 0.85412 0.0
C1735 C 0.88116 0.04577 0.89113 0.0
C1736 C 0.94532 0.01301 0.92869 0.0
C1737 C 0.95135 0.03217 0.94477 0.0
C1738 C 0.93651 0.01753 0.90494 0.0
C1739 C 0.93353 0.04183 0.89709 0.0
C1740 C 0.93989 0.06132 0.91302 0.0
C1741 C 0.94884 0.05625 0.93672 0.0
C1742 C 0.93009 0.99627 0.88836 0.0
C1743 C 0.93684 0.08744 0.90518 0.0
H1744 H 0.93966 0.04988 0.81187 0.0
H1745 H 0.86875 0.04852 0.84305 0.0
H1746 H 0.97168 0.06087 0.86793 0.0
H1747 H 0.97075 0.02911 0.86088 0.0
H1748 H 0.97461 0.0509 0.83635 0.0
H1749 H 0.86211 0.04872 0.88578 0.0
H1750 H 0.88254 0.02757 0.89982 0.0
H1751 H 0.8864 0.05945 0.90529 0.0
H1752 H 0.94739 0.99434 0.93467 0.0
H1753 H 0.95344 0.07113 0.94907 0.0
H1754 H 0.94012 -0.00236 0.87076 0.0
H1755 H 0.91065 0.9966 0.88372 0.0
H1756 H 0.93416 0.97848 0.89706 0.0
H1757 H 0.94665 0.09093 0.88773 0.0
H1758 H 0.94346 0.10049 0.91942 0.0
H1759 H 0.91756 0.09102 0.90152 0.0
C1760 C 0.77033 0.19386 0.53835 0.0
C1761 C 0.75809 0.19851 0.51617 0.0
C1762 C 0.76552 0.20724 0.55974 0.0
C1763 C 0.74815 0.22582 0.55894 0.0
C1764 C 0.73676 0.23162 0.53633 0.0
C1765 C 0.74182 0.21785 0.51519 0.0
C1766 C 0.7782 0.20062 0.58351 0.0
C1767 C 0.71837 0.25154 0.53473 0.0
C1768 C 0.71835 0.23481 0.62072 0.0
C1769 C 0.73235 0.25377 0.63083 0.0
C1770 C 0.72234 0.22651 0.59664 0.0
C1771 C 0.74063 0.23756 0.58228 0.0
C1772 C 0.75347 0.25796 0.59162 0.0
C1773 C 0.74922 0.2658 0.61584 0.0
C1774 C 0.70814 0.20477 0.58725 0.0
C1775 C 0.77281 0.27048 0.57667 0.0
H1776 H 0.78309 0.17915 0.5393 0.0
H1777 H 0.73238 0.22175 0.49813 0.0
H1778 H 0.78664 0.21702 0.59197 0.0
H1779 H 0.76493 0.19329 0.59689 0.0
H1780 H 0.79231 0.18678 0.58067 0.0
H1781 H 0.71375 0.25609 0.51531 0.0
H1782 H 0.7017 0.24564 0.54426 0.0
H1783 H 0.72506 0.26825 0.54414 0.0
H1784 H 0.70512 0.22552 0.63203 0.0
H1785 H 0.75994 0.28067 0.62337 0.0
H1786 H 0.72018 0.18889 0.58573 0.0
H1787 H 0.70081 0.20842 0.56855 0.0
H1788 H 0.69301 0.19982 0.59965 0.0
H1789 H 0.78887 0.25873 0.57588 0.0
H1790 H 0.77829 0.28826 0.58483 0.0
H1791 H 0.76663 0.27347 0.55742 0.0
C1792 C 0.59562 0.96899 0.34787 0.0
C1793 C 0.58313 0.97207 0.3256 0.0
C1794 C 0.58476 0.97422 0.37047 0.0
C1795 C 0.5609 0.98284 0.37069 0.0
C1796 C 0.54772 0.98465 0.34837 0.0
C1797 C 0.55899 0.97908 0.32602 0.0
C1798 C 0.59925 0.97174 0.39399 0.0
C1799 C 0.52222 0.99374 0.34798 0.0
C1800 C 0.53035 0.98369 0.43289 0.0
C1801 C 0.53532 0.00756 0.44079 0.0
C1802 C 0.5379 0.97553 0.40972 0.0
C1803 C 0.55056 0.9917 0.39409 0.0
C1804 C 0.55479 0.01609 0.4015 0.0
C1805 C 0.54718 0.02371 0.42483 0.0
C1806 C 0.53318 0.94938 0.40241 0.0
C1807 C 0.56808 0.03389 0.38513 0.0
H1808 H 0.61422 0.96332 0.34763 0.0
H1809 H 0.54918 0.98126 0.30885 0.0
H1810 H 0.60279 0.99002 0.40202 0.0
H1811 H 0.58901 0.96106 0.40785 0.0
H1812 H 0.61676 0.96277 0.39083 0.0
H1813 H 0.51367 0.99166 0.3295 0.0
H1814 H 0.51112 0.98385 0.36175 0.0
H1815 H 0.52214 0.01328 0.35311 0.0
H1816 H 0.52116 0.97108 0.4451 0.0
H1817 H 0.55092 0.04223 0.43072 0.0
H1818 H 0.55047 0.93959 0.40134 0.0
H1819 H 0.52472 0.94844 0.38383 0.0
H1820 H 0.52135 0.93975 0.41576 0.0
H1821 H 0.58688 0.02787 0.38265 0.0
H1822 H 0.56844 0.0526 0.39292 0.0
H1823 H 0.55957 0.03445 0.36657 0.0
C1824 C 0.74845 0.80135 0.0749 0.0
C1825 C 0.76138 0.79873 0.05296 0.0
C1826 C 0.75608 0.79004 0.09672 0.0
C1827 C 0.77726 0.77595 0.09661 0.0
C1828 C 0.78953 0.77196 0.07424 0.0
C1829 C 0.78138 0.7833 0.05265 0.0
C1830 C 0.74217 0.79427 0.12019 0.0
C1831 C 0.81211 0.75701 0.07338 0.0
C1832 C 0.80623 0.77779 0.15963 0.0
C1833 C 0.79629 0.75684 0.17021 0.0
C1834 C 0.80208 0.78315 0.13468 0.0
C1835 C 0.78739 0.76725 0.12035 0.0
C1836 C 0.77948 0.74482 0.13039 0.0
C1837 C 0.784 0.73991 0.15536 0.0
C1838 C 0.81121 0.80706 0.12449 0.0
C1839 C 0.76399 0.72728 0.11569 0.0
H1840 H 0.73287 0.81301 0.0753 0.0
H1841 H 0.79154 0.78103 0.0358 0.0
H1842 H 0.73795 0.77669 0.12932 0.0
H1843 H 0.7533 0.80523 0.13326 0.0
H1844 H 0.72509 0.804 0.11677 0.0
H1845 H 0.81732 0.75251 0.05415 0.0
H1846 H 0.82711 0.76739 0.08214 0.0
H1847 H 0.80978 0.73985 0.08389 0.0
H1848 H 0.81529 0.79105 0.17137 0.0
H1849 H 0.77593 0.72394 0.16384 0.0
H1850 H 0.79602 0.81986 0.12276 0.0
H1851 H 0.81887 0.80452 0.10581 0.0
H1852 H 0.82515 0.81551 0.13662 0.0
H1853 H 0.74535 0.7342 0.11482 0.0
H1854 H 0.76348 0.70892 0.12424 0.0
H1855 H 0.77055 0.72562 0.09646 0.0
C1856 C 0.89988 0.00284 0.68672 0.0
C1857 C 0.91623 0.02039 0.69567 0.0
C1858 C 0.90524 0.98885 0.66584 0.0
C1859 C 0.92702 0.99325 0.65313 0.0
C1860 C 0.9433 0.01143 0.66181 0.0
C1861 C 0.93782 0.02453 0.68319 0.0
C1862 C 0.88807 0.96877 0.65798 0.0
C1863 C 0.96713 0.01646 0.6495 0.0
C1864 C 0.95782 0.95163 0.60762 0.0
C1865 C 0.95041 0.96182 0.58517 0.0
C1866 C 0.94857 0.96016 0.63011 0.0
C1867 C 0.93235 0.97987 0.63002 0.0
C1868 C 0.92361 0.989 0.60738 0.0
C1869 C 0.93214 0.97931 0.5853 0.0
C1870 C 0.9575 0.9493 0.65396 0.0
C1871 C 0.90737 0.01084 0.60631 0.0
H1872 H 0.88359 -0.00106 0.69698 0.0
H1873 H 0.95076 0.03759 0.69056 0.0
H1874 H 0.87925 0.97365 0.6403 0.0
H1875 H 0.89798 0.95165 0.65484 0.0
H1876 H 0.87385 0.96533 0.67193 0.0
H1877 H 0.97285 0.03572 0.65216 0.0
H1878 H 0.98103 0.00489 0.65814 0.0
H1879 H 0.96664 0.01236 0.62949 0.0
H1880 H 0.97169 0.93796 0.60773 0.0
H1881 H 0.92595 0.98716 0.56809 0.0
H1882 H 0.94285 0.9481 0.66775 0.0
H1883 H 0.97195 0.96112 0.66176 0.0
H1884 H 0.96497 0.93088 0.65105 0.0
H1885 H 0.89161 0.00828 0.6185 0.0
H1886 H 0.90081 0.01457 0.5873 0.0
H1887 H 0.91744 0.02713 0.61303 0.0
C1888 C 0.80975 0.12113 0.39849 0.0
C1889 C 0.7879 0.13035 0.40702 0.0
C1890 C 0.81797 0.12668 0.37467 0.0
C1891 C 0.80372 0.14142 0.35917 0.0
C1892 C 0.78056 0.14869 0.36702 0.0
C1893 C 0.7731 0.14332 0.39102 0.0
C1894 C 0.84265 0.11846 0.36715 0.0
C1895 C 0.7643 0.16374 0.35078 0.0
C1896 C 0.81959 0.19112 0.3161 0.0
C1897 C 0.80866 0.18179 0.29479 0.0
C1898 C 0.8224 0.1763 0.33691 0.0
C1899 C 0.81346 0.15207 0.33612 0.0
C1900 C 0.8069 0.14156 0.3132 0.0
C1901 C 0.80457 0.15671 0.29257 0.0
C1902 C 0.83088 0.18778 0.36076 0.0
C1903 C 0.79828 0.11552 0.31134 0.0
H1904 H 0.82132 0.11123 0.41103 0.0
H1905 H 0.75617 0.15028 0.39772 0.0
H1906 H 0.84414 0.11616 0.34687 0.0
H1907 H 0.85613 0.13234 0.37308 0.0
H1908 H 0.84729 0.10104 0.3763 0.0
H1909 H 0.74611 0.16586 0.35884 0.0
H1910 H 0.77233 0.18213 0.3482 0.0
H1911 H 0.76229 0.15524 0.33229 0.0
H1912 H 0.82284 0.21056 0.31764 0.0
H1913 H 0.79623 0.14958 0.27588 0.0
H1914 H 0.84166 0.17479 0.37173 0.0
H1915 H 0.81503 0.19291 0.37192 0.0
H1916 H 0.84185 0.20445 0.35737 0.0
H1917 H 0.8083 0.10365 0.32425 0.0
H1918 H 0.80022 0.10844 0.29224 0.0
H1919 H 0.77896 0.11452 0.3163 0.0
C1920 C 0.58416 0.9966 0.17978 0.0
C1921 C 0.58874 0.01191 0.19986 0.0
C1922 C 0.5797 0.00642 0.15633 0.0
C1923 C 0.57993 0.03205 0.15318 0.0
C1924 C 0.58672 0.04736 0.17308 0.0
C1925 C 0.59073 0.03707 0.19637 0.0
C1926 C 0.57302 0.98947 0.13538 0.0
C1927 C 0.58812 0.07464 0.17025 0.0
C1928 C 0.57094 0.04867 0.08613 0.0
C1929 C 0.54576 0.04997 0.08504 0.0
C1930 C 0.58286 0.04528 0.10876 0.0
C1931 C 0.56915 0.04252 0.13052 0.0
C1932 C 0.54404 0.04641 0.12982 0.0
C1933 C 0.53272 0.05055 0.10712 0.0
C1934 C 0.60981 0.04257 0.10895 0.0
C1935 C 0.52866 0.0435 0.15258 0.0
H1936 H 0.58268 0.97713 0.18273 0.0
H1937 H 0.59443 0.04878 0.21212 0.0
H1938 H 0.55424 0.99282 0.1294 0.0
H1939 H 0.58475 0.99302 0.11926 0.0
H1940 H 0.5747 0.97004 0.14064 0.0
H1941 H 0.59875 0.08326 0.1854 0.0
H1942 H 0.5963 0.07971 0.1523 0.0
H1943 H 0.56973 0.0822 0.17063 0.0
H1944 H 0.58123 0.04862 0.06918 0.0
H1945 H 0.5133 0.0518 0.10657 0.0
H1946 H 0.6143 0.02301 0.10762 0.0
H1947 H 0.61788 0.04982 0.12628 0.0
H1948 H 0.61815 0.05207 0.093 0.0
H1949 H 0.52849 0.02413 0.15837 0.0
H1950 H 0.5098 0.04915 0.14932 0.0
H1951 H 0.53617 0.05437 0.16811 0.0
C1952 C 0.72019 0.88692 0.9321 0.0
C1953 C 0.73518 0.87003 0.94369 0.0
C1954 C 0.7176 0.88713 0.90631 0.0
C1955 C 0.73039 0.87007 0.89209 0.0
C1956 C 0.74678 0.85412 0.90373 0.0
C1957 C 0.74888 0.85426 0.92942 0.0
C1958 C 0.70015 0.90456 0.89467 0.0
C1959 C 0.76126 0.83598 0.88918 0.0
C1960 C 0.7128 0.83771 0.83429 0.0
C1961 C 0.73155 0.84557 0.81898 0.0
C1962 C 0.70966 0.84831 0.85755 0.0
C1963 C 0.7257 0.867 0.86536 0.0
C1964 C 0.7417 0.87774 0.84828 0.0
C1965 C 0.74444 0.86686 0.82513 0.0
C1966 C 0.6916 0.83711 0.87499 0.0
C1967 C 0.75834 0.89842 0.8556 0.0
H1968 H 0.70955 0.89916 0.94318 0.0
H1969 H 0.7607 0.84142 0.9384 0.0
H1970 H 0.70607 0.91039 0.87604 0.0
H1971 H 0.68237 0.89539 0.89266 0.0
H1972 H 0.69775 0.92095 0.90638 0.0
H1973 H 0.77408 0.82584 0.901 0.0
H1974 H 0.74899 0.82264 0.88007 0.0
H1975 H 0.77161 0.8454 0.87449 0.0
H1976 H 0.70226 0.8217 0.82934 0.0
H1977 H 0.75839 0.87362 0.81292 0.0
H1978 H 0.68275 0.85135 0.88612 0.0
H1979 H 0.70102 0.82475 0.88792 0.0
H1980 H 0.67759 0.82641 0.86493 0.0
H1981 H 0.74923 0.91138 0.86804 0.0
H1982 H 0.76508 0.90842 0.83916 0.0
H1983 H 0.77405 0.891 0.86568 0.0
C1984 C 0.82729 0.89396 0.01089 0.0
C1985 C 0.80343 0.89472 0.0191 0.0
C1986 C 0.84475 0.9101 0.02015 0.0
C1987 C 0.83826 0.92759 0.03804 0.0
C1988 C 0.81437 0.92827 0.0468 0.0
C1989 C 0.79718 0.9118 0.0372 0.0
C1990 C 0.87008 0.90874 0.01029 0.0
C1991 C 0.80687 0.94669 0.06585 0.0
C1992 C 0.89418 0.95518 0.06702 0.0
C1993 C 0.8988 0.97398 0.05027 0.0
C1994 C 0.87303 0.94105 0.06491 0.0
C1995 C 0.85636 0.94618 0.04577 0.0
C1996 C 0.85985 0.96692 0.03072 0.0
C1997 C 0.88119 0.98044 0.03302 0.0
C1998 C 0.86986 0.91917 0.0814 0.0
C1999 C 0.84243 0.97326 0.0103 0.0
H2000 H 0.83242 0.88075 -0.00292 0.0
H2001 H 0.77884 0.91245 0.04379 0.0
H2002 H 0.87471 0.92582 0.00041 0.0
H2003 H 0.88309 0.90681 0.02574 0.0
H2004 H 0.87243 0.89326 -0.00264 0.0
H2005 H 0.78824 0.94336 0.07245 0.0
H2006 H 0.8193 0.94639 0.08193 0.0
H2007 H 0.80789 0.96523 0.05782 0.0
H2008 H 0.90794 0.95017 0.08026 0.0
H2009 H 0.88485 0.99513 0.02017 0.0
H2010 H 0.875 0.90257 0.07112 0.0
H2011 H 0.85081 0.91688 0.087 0.0
H2012 H 0.88129 0.92054 0.09824 0.0
H2013 H 0.84462 0.96035 0.99473 0.0
H2014 H 0.84555 0.992 0.00324 0.0
H2015 H 0.8236 0.97165 0.01674 0.0
C2016 C 0.31351 0.57029 0.01362 0.0
C2017 C 0.31145 0.59336 0.00286 0.0
C2018 C 0.33606 0.55953 0.01675 0.0
C2019 C 0.357 0.57232 0.00925 0.0
C2020 C 0.35506 0.59592 -0.00095 0.0
C2021 C 0.33227 0.6061 0.99583 0.0
C2022 C 0.33745 0.53429 0.0276 0.0
C2023 C 0.37705 0.61029 0.99127 0.0
C2024 C 0.41722 0.55537 0.03668 0.0
C2025 C 0.42783 0.54257 0.01717 0.0
C2026 C 0.39406 0.56482 0.03446 0.0
C2027 C 0.38101 0.56118 0.01229 0.0
C2028 C 0.39123 0.54766 0.99278 0.0
C2029 C 0.41461 0.53859 0.9954 0.0
C2030 C 0.38384 0.57929 0.05561 0.0
C2031 C 0.37765 0.5432 0.96896 0.0
H2032 H 0.29745 0.56029 0.01892 0.0
H2033 H 0.33075 0.62396 0.98754 0.0
H2034 H 0.34577 0.52178 0.0141 0.0
H2035 H 0.34905 0.53449 0.04432 0.0
H2036 H 0.31948 0.52687 0.03267 0.0
H2037 H 0.37249 0.62865 0.98423 0.0
H2038 H 0.38963 0.61241 0.00712 0.0
H2039 H 0.38671 0.60034 0.97659 0.0
H2040 H 0.42724 0.5586 0.05361 0.0
H2041 H 0.42262 0.52866 0.98029 0.0
H2042 H 0.36625 0.57148 0.06128 0.0
H2043 H 0.38064 0.59827 0.04958 0.0
H2044 H 0.396 0.57973 0.07194 0.0
H2045 H 0.35986 0.53474 0.97286 0.0
H2046 H 0.38757 0.53121 0.95613 0.0
H2047 H 0.37431 0.56077 0.95957 0.0
C2048 C 0.12615 0.57719 0.76759 0.0
C2049 C 0.13757 0.56045 0.78295 0.0
C2050 C 0.13958 0.59335 0.75305 0.0
C2051 C 0.16505 0.5937 0.75505 0.0
C2052 C 0.17663 0.57698 0.77094 0.0
C2053 C 0.16269 0.56027 0.78435 0.0
C2054 C 0.1262 0.60954 0.73527 0.0
C2055 C 0.20365 0.57577 0.77332 0.0
C2056 C 0.20657 0.62659 0.70977 0.0
C2057 C 0.20439 0.65056 0.71793 0.0
C2058 C 0.19337 0.60773 0.72119 0.0
C2059 C 0.17917 0.61295 0.7423 0.0
C2060 C 0.17787 0.63712 0.75108 0.0
C2061 C 0.18957 0.65559 0.73813 0.0
C2062 C 0.19463 0.58254 0.71023 0.0
C2063 C 0.16399 0.64411 0.77393 0.0
H2064 H 0.10672 0.57664 0.76576 0.0
H2065 H 0.17149 0.54671 0.79566 0.0
H2066 H 0.11949 0.62564 0.74535 0.0
H2067 H 0.13758 0.61585 0.71973 0.0
H2068 H 0.11023 0.59985 0.72749 0.0
H2069 H 0.209 0.56932 0.79197 0.0
H2070 H 0.21043 0.56237 0.7598 0.0
H2071 H 0.21264 0.59353 0.76977 0.0
H2072 H 0.21776 0.62273 0.69394 0.0
H2073 H 0.18726 0.67418 0.74427 0.0
H2074 H 0.17916 0.57078 0.71552 0.0
H2075 H 0.21148 0.57384 0.7165 0.0
H2076 H 0.19532 0.58354 0.68975 0.0
H2077 H 0.14619 0.65118 0.76833 0.0
H2078 H 0.17341 0.65903 0.78408 0.0
H2079 H 0.16122 0.62873 0.78686 0.0
C2080 C 0.18229 0.39434 0.53729 0.0
C2081 C 0.18815 0.38177 0.51566 0.0
C2082 C 0.15985 0.40554 0.53972 0.0
C2083 C 0.14335 0.4048 0.51971 0.0
C2084 C 0.14881 0.39122 0.49829 0.0
C2085 C 0.171 0.37954 0.49671 0.0
C2086 C 0.15424 0.41902 0.56325 0.0
C2087 C 0.13193 0.39035 0.47635 0.0
C2088 C 0.07773 0.42155 0.52574 0.0
C2089 C 0.07801 0.44581 0.51778 0.0
C2090 C 0.09903 0.4083 0.52757 0.0
C2091 C 0.121 0.41933 0.52038 0.0
C2092 C 0.12138 0.4439 0.51241 0.0
C2093 C 0.09987 0.45703 0.51166 0.0
C2094 C 0.09801 0.38247 0.53703 0.0
C2095 C 0.14436 0.45609 0.50397 0.0
H2096 H 0.19551 0.39605 0.55198 0.0
H2097 H 0.17552 0.37005 0.47983 0.0
H2098 H 0.15465 0.43889 0.55973 0.0
H2099 H 0.1359 0.4142 0.56974 0.0
H2100 H 0.16735 0.415 0.5782 0.0
H2101 H 0.1385 0.37828 0.46144 0.0
H2102 H 0.11385 0.38385 0.48206 0.0
H2103 H 0.12983 0.40894 0.46873 0.0
H2104 H 0.06081 0.41302 0.53092 0.0
H2105 H 0.10001 0.4758 0.50556 0.0
H2106 H 0.11127 0.38009 0.55219 0.0
H2107 H 0.10286 0.36969 0.52206 0.0
H2108 H 0.07987 0.37736 0.54393 0.0
H2109 H 0.15798 0.45579 0.51899 0.0
H2110 H 0.14159 0.47527 0.4983 0.0
H2111 H 0.15187 0.44595 0.48811 0.0
C2112 C 0.89471 0.9525 0.73849 0.0
C2113 C 0.88475 0.96373 0.75926 0.0
C2114 C 0.88431 0.93129 0.72847 0.0
C2115 C 0.86394 0.9208 0.74001 0.0
C2116 C 0.85417 0.93187 0.76135 0.0
C2117 C 0.86445 0.95352 0.77043 0.0
C2118 C 0.89475 0.92045 0.70532 0.0
C2119 C 0.83282 0.92088 0.7746 0.0
C2120 C 0.81825 0.87627 0.71377 0.0
C2121 C 0.82508 0.85515 0.7262 0.0
C2122 C 0.83236 0.89761 0.7158 0.0
C2123 C 0.85332 0.89756 0.73086 0.0
C2124 C 0.86162 0.87546 0.74087 0.0
C2125 C 0.84746 0.85446 0.73819 0.0
C2126 C 0.82353 0.9207 0.704 0.0
C2127 C 0.88374 0.87448 0.75712 0.0
H2128 H 0.90999 0.96096 0.72939 0.0
H2129 H 0.85659 0.96254 0.78621 0.0
H2130 H 0.90068 0.90159 0.70887 0.0
H2131 H 0.88075 0.91946 0.69067 0.0
H2132 H 0.9103 0.93121 0.69832 0.0
H2133 H 0.8279 0.9314 0.79132 0.0
H2134 H 0.81703 0.92014 0.76202 0.0
H2135 H 0.8368 0.90194 0.78021 0.0
H2136 H 0.80094 0.8768 0.70451 0.0
H2137 H 0.85278 0.83796 0.74762 0.0
H2138 H 0.83874 0.93155 0.69646 0.0
H2139 H 0.81454 0.93197 0.71814 0.0
H2140 H 0.8104 0.91683 0.68892 0.0
H2141 H 0.89879 0.88515 0.74904 0.0
H2142 H 0.88979 0.85552 0.76013 0.0
H2143 H 0.87962 0.88261 0.77536 0.0
C2144 C 0.68853 0.10067 0.47098 0.0
C2145 C 0.71158 0.10237 0.48147 0.0
C2146 C 0.66997 0.08792 0.48287 0.0
C2147 C 0.67452 0.07659 0.50588 0.0
C2148 C 0.69802 0.07711 0.51597 0.0
C2149 C 0.71631 0.08997 0.50362 0.0
C2150 C 0.64518 0.08755 0.47131 0.0
C2151 C 0.70357 0.06515 0.54038 0.0
C2152 C 0.61724 0.07282 0.54276 0.0
C2153 C 0.60893 0.04953 0.5365 0.0
C2154 C 0.63985 0.08113 0.53484 0.0
C2155 C 0.65409 0.06585 0.5199 0.0
C2156 C 0.64655 0.04156 0.51534 0.0
C2157 C 0.62393 0.03368 0.52371 0.0
C2158 C 0.64737 0.10704 0.54042 0.0
C2159 C 0.66118 0.0247 0.49955 0.0
H2160 H 0.68472 0.10998 0.45379 0.0
H2161 H 0.73407 0.09113 0.5119 0.0
H2162 H 0.63827 0.06859 0.46984 0.0
H2163 H 0.63257 0.09771 0.4832 0.0
H2164 H 0.645 0.09585 0.45262 0.0
H2165 H 0.72321 0.06442 0.54409 0.0
H2166 H 0.69503 0.07552 0.55549 0.0
H2167 H 0.69603 0.04639 0.54089 0.0
H2168 H 0.60534 0.08513 0.55229 0.0
H2169 H 0.61715 0.01581 0.51848 0.0
H2170 H 0.64547 0.11821 0.52348 0.0
H2171 H 0.66652 0.10796 0.54621 0.0
H2172 H 0.63622 0.1152 0.55516 0.0
H2173 H 0.65919 0.02996 0.47987 0.0
H2174 H 0.65521 0.00545 0.50154 0.0
H2175 H 0.68056 0.02613 0.50434 0.0
C2176 C 0.14593 0.40648 0.76644 0.0
C2177 C 0.15524 0.4302 0.76532 0.0
C2178 C 0.1607 0.38651 0.76188 0.0
C2179 C 0.18535 0.39052 0.75668 0.0
C2180 C 0.19471 0.41446 0.75507 0.0
C2181 C 0.17944 0.43405 0.75915 0.0
C2182 C 0.15006 0.36114 0.76311 0.0
C2183 C 0.22099 0.41936 0.74989 0.0
C2184 C 0.22673 0.33812 0.77071 0.0
C2185 C 0.22995 0.32823 0.74713 0.0
C2186 C 0.21275 0.35889 0.77402 0.0
C2187 C 0.20146 0.36962 0.7533 0.0
C2188 C 0.20517 0.36012 0.7294 0.0
C2189 C 0.21956 0.33965 0.72657 0.0
C2190 C 0.20958 0.369 0.79972 0.0
C2191 C 0.19319 0.37099 0.70693 0.0
H2192 H 0.1272 0.40353 0.77115 0.0
H2193 H 0.18677 0.45239 0.75847 0.0
H2194 H 0.15386 0.35114 0.74579 0.0
H2195 H 0.15853 0.35094 0.77846 0.0
H2196 H 0.13031 0.36124 0.76601 0.0
H2197 H 0.22525 0.43911 0.74868 0.0
H2198 H 0.23217 0.41135 0.76476 0.0
H2199 H 0.22626 0.41057 0.73232 0.0
H2200 H 0.2348 0.32939 0.78661 0.0
H2201 H 0.22181 0.33201 0.70829 0.0
H2202 H 0.19045 0.36733 0.80521 0.0
H2203 H 0.21441 0.38864 0.80007 0.0
H2204 H 0.22076 0.35943 0.81361 0.0
H2205 H 0.17337 0.36938 0.70873 0.0
H2206 H 0.19861 0.36189 0.68954 0.0
H2207 H 0.19768 0.39064 0.70552 0.0
C2208 C 0.34492 0.58575 0.26597 0.0
C2209 C 0.36943 0.58572 0.27209 0.0
C2210 C 0.33241 0.60749 0.26373 0.0
C2211 C 0.3449 0.62982 0.26687 0.0
C2212 C 0.3699 0.63001 0.27208 0.0
C2213 C 0.38185 0.60783 0.27509 0.0
C2214 C 0.30565 0.60649 0.25869 0.0
C2215 C 0.38387 0.65358 0.27463 0.0
C2216 C 0.31089 0.68197 0.23877 0.0
C2217 C 0.30013 0.6921 0.25961 0.0
C2218 C 0.32692 0.66268 0.24107 0.0
C2219 C 0.33144 0.65279 0.26471 0.0
C2220 C 0.32081 0.66324 0.2859 0.0
C2221 C 0.30556 0.68321 0.28311 0.0
C2222 C 0.33846 0.6525 0.21816 0.0
C2223 C 0.32462 0.65263 0.3113 0.0
H2224 H 0.33516 0.56867 0.26393 0.0
H2225 H 0.40081 0.60776 0.27981 0.0
H2226 H 0.29592 0.61619 0.27351 0.0
H2227 H 0.30151 0.6158 0.24104 0.0
H2228 H 0.29855 0.58755 0.25758 0.0
H2229 H 0.40346 0.65057 0.27698 0.0
H2230 H 0.381 0.6651 0.25808 0.0
H2231 H 0.37731 0.6639 0.2908 0.0
H2232 H 0.30693 0.68934 0.22064 0.0
H2233 H 0.29723 0.69133 0.29914 0.0
H2234 H 0.33082 0.63419 0.21409 0.0
H2235 H 0.35809 0.65038 0.22111 0.0
H2236 H 0.33557 0.66425 0.20177 0.0
H2237 H 0.31697 0.6339 0.3119 0.0
H2238 H 0.31601 0.66362 0.32596 0.0
H2239 H 0.34409 0.65131 0.31547 0.0
C2240 C 0.49745 0.68096 0.62872 0.0
C2241 C 0.50224 0.69443 0.60722 0.0
C2242 C 0.49387 0.6557 0.62776 0.0
C2243 C 0.49502 0.64367 0.60475 0.0
C2244 C 0.49935 0.65716 0.58292 0.0
C2245 C 0.50297 0.68238 0.58443 0.0
C2246 C 0.48932 0.64185 0.65138 0.0
C2247 C 0.50054 0.64489 0.55798 0.0
C2248 C 0.51172 0.57766 0.5982 0.0
C2249 C 0.48965 0.56733 0.5912 0.0
C2250 C 0.51351 0.60238 0.60426 0.0
C2251 C 0.49262 0.61683 0.60335 0.0
C2252 C 0.46996 0.60592 0.59816 0.0
C2253 C 0.46879 0.58121 0.59179 0.0
C2254 C 0.53801 0.61337 0.60951 0.0
C2255 C 0.44727 0.62069 0.59741 0.0
H2256 H 0.49681 0.69007 0.64646 0.0
H2257 H 0.50648 0.69263 0.56772 0.0
H2258 H 0.47269 0.63063 0.64963 0.0
H2259 H 0.50436 0.62923 0.65493 0.0
H2260 H 0.48754 0.65411 0.66757 0.0
H2261 H 0.50333 0.6581 0.54273 0.0
H2262 H 0.51549 0.63172 0.55781 0.0
H2263 H 0.48366 0.63451 0.55433 0.0
H2264 H 0.52786 0.56682 0.59716 0.0
H2265 H 0.45184 0.57309 0.58591 0.0
H2266 H 0.53747 0.62523 0.62608 0.0
H2267 H 0.5436 0.6249 0.59369 0.0
H2268 H 0.55187 0.59926 0.61244 0.0
H2269 H 0.44633 0.63291 0.61367 0.0
H2270 H 0.43088 0.60894 0.59693 0.0
H2271 H 0.44733 0.6323 0.58066 0.0
C2272 C 0.58036 0.25986 0.84097 0.0
C2273 C 0.55593 0.25523 0.83649 0.0
C2274 C 0.5973 0.25734 0.82201 0.0
C2275 C 0.58954 0.25 0.79812 0.0
C2276 C 0.56508 0.24415 0.79387 0.0
C2277 C 0.54857 0.24686 0.81309 0.0
C2278 C 0.62334 0.2636 0.82726 0.0
C2279 C 0.55612 0.23617 0.76873 0.0
C2280 C 0.62892 0.27515 0.74737 0.0
C2281 C 0.64422 0.2556 0.74286 0.0
C2282 C 0.61009 0.27306 0.7643 0.0
C2283 C 0.60662 0.2509 0.77714 0.0
C2284 C 0.62073 0.23047 0.77115 0.0
C2285 C 0.63938 0.23304 0.75391 0.0
C2286 C 0.59509 0.29514 0.76975 0.0
C2287 C 0.61741 0.2065 0.7843 0.0
H2288 H 0.58615 0.26619 0.85903 0.0
H2289 H 0.52972 0.24298 0.80954 0.0
H2290 H 0.63506 0.24862 0.82106 0.0
H2291 H 0.6286 0.28012 0.81675 0.0
H2292 H 0.62677 0.26704 0.84719 0.0
H2293 H 0.53718 0.22957 0.7692 0.0
H2294 H 0.55729 0.25169 0.7557 0.0
H2295 H 0.56752 0.22149 0.76128 0.0
H2296 H 0.63259 0.29259 0.73874 0.0
H2297 H 0.65133 0.21795 0.75063 0.0
H2298 H 0.59922 0.30182 0.78867 0.0
H2299 H 0.57567 0.29035 0.7691 0.0
H2300 H 0.59856 0.31019 0.75652 0.0
H2301 H 0.62438 0.20818 0.80347 0.0
H2302 H 0.62712 0.19156 0.77497 0.0
H2303 H 0.59807 0.20147 0.78547 0.0
C2304 C 0.96317 0.34293 0.12235 0.0
C2305 C 0.96809 0.33666 0.14689 0.0
C2306 C 0.96798 0.36639 0.11358 0.0
C2307 C 0.97838 0.38393 0.12966 0.0
C2308 C 0.98285 0.37793 0.15468 0.0
C2309 C 0.97747 0.3543 0.16309 0.0
C2310 C 0.96254 0.37214 0.08685 0.0
C2311 C 0.99421 0.3961 0.17223 0.0
C2312 C 0.01223 0.43047 0.0919 0.0
C2313 C 0.99535 0.44902 0.09018 0.0
C2314 C 0.00793 0.41013 0.10688 0.0
C2315 C 0.98574 0.40793 0.11947 0.0
C2316 C 0.9692 0.42731 0.11879 0.0
C2317 C 0.97441 0.44787 0.10437 0.0
C2318 C 0.02639 0.39024 0.10782 0.0
C2319 C 0.94513 0.42547 0.13144 0.0
H2320 H 0.95574 0.32936 0.10983 0.0
H2321 H 0.98137 0.34941 0.18206 0.0
H2322 H 0.95161 0.38884 0.08552 0.0
H2323 H 0.97956 0.37566 0.0768 0.0
H2324 H 0.95271 0.35707 0.07738 0.0
H2325 H 0.99453 0.38933 0.19155 0.0
H2326 H 0.01295 0.40004 0.16641 0.0
H2327 H 0.98438 0.41353 0.17171 0.0
H2328 H 0.02851 0.43159 0.081 0.0
H2329 H 0.9613 0.46224 0.10277 0.0
H2330 H 0.02008 0.37458 0.09649 0.0
H2331 H 0.02883 0.38367 0.12702 0.0
H2332 H 0.04409 0.39648 0.10063 0.0
H2333 H 0.93335 0.41259 0.12104 0.0
H2334 H 0.93603 0.44333 0.13234 0.0
H2335 H 0.94712 0.41824 0.15043 0.0
C2336 C 0.93102 0.75798 0.39162 0.0
C2337 C 0.95401 0.76162 0.38187 0.0
C2338 C 0.91057 0.75958 0.37638 0.0
C2339 C 0.91332 0.76586 0.35115 0.0
C2340 C 0.93652 0.77062 0.3416 0.0
C2341 C 0.95661 0.76802 0.357 0.0
C2342 C 0.88614 0.7538 0.38703 0.0
C2343 C 0.94015 0.77818 0.31506 0.0
C2344 C 0.86608 0.74552 0.30459 0.0
C2345 C 0.85183 0.76628 0.3026 0.0
C2346 C 0.88595 0.74508 0.32058 0.0
C2347 C 0.89215 0.76618 0.33432 0.0
C2348 C 0.87835 0.78751 0.33171 0.0
C2349 C 0.85807 0.78717 0.31616 0.0
C2350 C 0.89993 0.72184 0.32325 0.0
C2351 C 0.88491 0.81058 0.34545 0.0
H2352 H 0.92912 0.75309 0.41091 0.0
H2353 H 0.97445 0.7713 0.34963 0.0
H2354 H 0.87389 0.76933 0.38422 0.0
H2355 H 0.87809 0.73791 0.37726 0.0
H2356 H 0.88704 0.74964 0.40708 0.0
H2357 H 0.95915 0.78325 0.31117 0.0
H2358 H 0.93477 0.76306 0.30256 0.0
H2359 H 0.9286 0.7939 0.31056 0.0
H2360 H 0.86106 0.7292 0.29444 0.0
H2361 H 0.84704 0.80323 0.31464 0.0
H2362 H 0.90003 0.71599 0.34286 0.0
H2363 H 0.9189 0.72494 0.31778 0.0
H2364 H 0.8923 0.70682 0.31181 0.0
H2365 H 0.88355 0.80751 0.36563 0.0
H2366 H 0.87309 0.82594 0.34035 0.0
H2367 H 0.90383 0.81586 0.34154 0.0
C2368 C 0.4905 0.32587 0.93931 0.0
C2369 C 0.50421 0.32653 0.91768 0.0
C2370 C 0.48775 0.34673 0.95389 0.0
C2371 C 0.49968 0.36856 0.9471 0.0
C2372 C 0.5134 0.36938 0.92511 0.0
C2373 C 0.51517 0.34839 0.91041 0.0
C2374 C 0.47232 0.34532 0.97671 0.0
C2375 C 0.52683 0.39218 0.91753 0.0
C2376 C 0.48118 0.42955 0.9735 0.0
C2377 C 0.49817 0.43298 0.99246 0.0
C2378 C 0.48093 0.4083 0.9591 0.0
C2379 C 0.49846 0.39032 0.9634 0.0
C2380 C 0.51525 0.39338 0.98296 0.0
C2381 C 0.51471 0.41456 -0.00256 0.0
C2382 C 0.46233 0.40539 0.93888 0.0
C2383 C 0.53444 0.37478 0.9879 0.0
H2384 H 0.48181 0.30902 0.94483 0.0
H2385 H 0.5259 0.34883 0.89375 0.0
H2386 H 0.48364 0.34814 0.99342 0.0
H2387 H 0.45877 0.35997 0.97643 0.0
H2388 H 0.46282 0.32752 0.97838 0.0
H2389 H 0.5366 0.38985 0.89987 0.0
H2390 H 0.51417 0.40749 0.91549 0.0
H2391 H 0.53999 0.39738 0.93213 0.0
H2392 H 0.46831 0.44371 0.96961 0.0
H2393 H 0.52808 0.41723 0.01187 0.0
H2394 H 0.45292 0.38757 0.94061 0.0
H2395 H 0.47125 0.40566 0.92061 0.0
H2396 H 0.44876 0.42004 0.93926 0.0
H2397 H 0.5261 0.35668 0.99131 0.0
H2398 H 0.54592 0.37971 0.00404 0.0
H2399 H 0.54608 0.37302 0.97143 0.0
C2400 C 0.89677 0.24618 0.2041 0.0
C2401 C 0.91919 0.2369 0.19788 0.0
C2402 C 0.87683 0.23067 0.20704 0.0
C2403 C 0.87925 0.20538 0.2025 0.0
C2404 C 0.9023 0.19573 0.19799 0.0
C2405 C 0.92217 0.21168 0.19608 0.0
C2406 C 0.85276 0.24173 0.21282 0.0
C2407 C 0.90569 0.1689 0.1935 0.0
C2408 C 0.82005 0.17494 0.21637 0.0
C2409 C 0.80737 0.1822 0.19525 0.0
C2410 C 0.84485 0.17968 0.21846 0.0
C2411 C 0.85706 0.19051 0.19833 0.0
C2412 C 0.84509 0.19258 0.17526 0.0
C2413 C 0.82018 0.18869 0.17408 0.0
C2414 C 0.85672 0.17677 0.24335 0.0
C2415 C 0.85764 0.20283 0.15286 0.0
H2416 H 0.89455 0.26572 0.20533 0.0
H2417 H 0.93957 0.20462 0.19096 0.0
H2418 H 0.84143 0.24184 0.1959 0.0
H2419 H 0.84315 0.23085 0.227 0.0
H2420 H 0.85465 0.26075 0.21959 0.0
H2421 H 0.92427 0.16472 0.18754 0.0
H2422 H 0.90189 0.15869 0.21071 0.0
H2423 H 0.89286 0.16216 0.17923 0.0
H2424 H 0.81012 0.16942 0.23264 0.0
H2425 H 0.81038 0.19408 0.15764 0.0
H2426 H 0.85416 0.19365 0.25426 0.0
H2427 H 0.87629 0.17366 0.24171 0.0
H2428 H 0.84841 0.16146 0.25377 0.0
H2429 H 0.85796 0.22299 0.15406 0.0
H2430 H 0.84812 0.19755 0.13554 0.0
H2431 H 0.87648 0.19658 0.15189 0.0
C2432 C 0.04339 0.6749 0.43613 0.0
C2433 C 0.03216 0.69328 0.44967 0.0
C2434 C 0.04604 0.65151 0.44598 0.0
C2435 C 0.03698 0.64638 0.4698 0.0
C2436 C 0.0273 0.6653 0.48426 0.0
C2437 C 0.02507 0.68857 0.47404 0.0
C2438 C 0.05678 0.63188 0.43011 0.0
C2439 C 0.01735 0.66054 0.50971 0.0
C2440 C 0.00715 0.58502 0.47792 0.0
C2441 C 0.02377 0.57256 0.49268 0.0
C2442 C 0.01147 0.6089 0.47032 0.0
C2443 C 0.03311 0.62075 0.47743 0.0
C2444 C 0.05026 0.6083 0.49196 0.0
C2445 C 0.04534 0.58428 0.49955 0.0
C2446 C 0.9926 0.62154 0.45493 0.0
C2447 C 0.07361 0.62043 0.49963 0.0
H2448 H 0.04942 0.6785 0.41747 0.0
H2449 H 0.01664 0.70273 0.48479 0.0
H2450 H 0.069 0.62031 0.44114 0.0
H2451 H 0.04217 0.61998 0.42274 0.0
H2452 H 0.0669 0.63959 0.41426 0.0
H2453 H 0.01412 0.67767 0.52 0.0
H2454 H 2e-05 0.65045 0.50801 0.0
H2455 H 0.02976 0.64911 0.52065 0.0
H2456 H 0.9904 0.57624 0.47246 0.0
H2457 H 0.05827 0.57476 0.5109 0.0
H2458 H 0.0004 0.6275 0.4371 0.0
H2459 H 0.98634 0.63804 0.46468 0.0
H2460 H 0.97674 0.60966 0.45099 0.0
H2461 H 0.08322 0.62741 0.48315 0.0
H2462 H 0.0856 0.60785 0.50978 0.0
H2463 H 0.06989 0.63629 0.51163 0.0
C2464 C 0.58242 0.7867 0.66909 0.0
C2465 C 0.58056 0.77607 0.64565 0.0
C2466 C 0.60503 0.7914 0.67987 0.0
C2467 C 0.62614 0.78468 0.66714 0.0
C2468 C 0.6243 0.77381 0.64351 0.0
C2469 C 0.60153 0.76991 0.63293 0.0
C2470 C 0.60633 0.80338 0.70495 0.0
C2471 C 0.64632 0.76568 0.6297 0.0
C2472 C 0.68702 0.80994 0.6881 0.0
C2473 C 0.69445 0.7916 0.7042 0.0
C2474 C 0.66467 0.80807 0.67585 0.0
C2475 C 0.65 0.78709 0.67941 0.0
C2476 C 0.658 0.76817 0.69495 0.0
C2477 C 0.67997 0.77081 0.70736 0.0
C2478 C 0.65647 0.82874 0.65969 0.0
C2479 C 0.64329 0.74518 0.69869 0.0
H2480 H 0.56623 0.79179 0.67878 0.0
H2481 H 0.60011 0.76161 0.61481 0.0
H2482 H 0.61388 0.79053 0.71864 0.0
H2483 H 0.61855 0.81947 0.70434 0.0
H2484 H 0.58842 0.80926 0.71148 0.0
H2485 H 0.64182 0.75823 0.61114 0.0
H2486 H 0.65913 0.78111 0.62747 0.0
H2487 H 0.65569 0.75144 0.64046 0.0
H2488 H 0.69822 0.82604 0.6858 0.0
H2489 H 0.6859 0.75647 0.71962 0.0
H2490 H 0.63952 0.83627 0.66706 0.0
H2491 H 0.65255 0.82204 0.64076 0.0
H2492 H 0.67009 0.84363 0.6586 0.0
H2493 H 0.62594 0.74961 0.70753 0.0
H2494 H 0.65272 0.73171 0.71042 0.0
H2495 H 0.63908 0.7366 0.6806 0.0
C2496 C 0.62422 0.48352 0.70486 0.0
C2497 C 0.61711 0.50763 0.70853 0.0
C2498 C 0.61505 0.46988 0.68492 0.0
C2499 C 0.59892 0.48094 0.66817 0.0
C2500 C 0.59341 0.50594 0.67078 0.0
C2501 C 0.60226 0.51885 0.69121 0.0
C2502 C 0.62116 0.44327 0.68308 0.0
C2503 C 0.57694 0.51874 0.65285 0.0
C2504 C 0.57858 0.46043 0.60539 0.0
C2505 C 0.55395 0.45687 0.60994 0.0
C2506 C 0.5946 0.46557 0.62481 0.0
C2507 C 0.58576 0.46648 0.64921 0.0
C2508 C 0.56187 0.4588 0.65412 0.0
C2509 C 0.54608 0.45437 0.63434 0.0
C2510 C 0.62001 0.47332 0.61879 0.0
C2511 C 0.55214 0.4583 0.68007 0.0
H2512 H 0.6355 0.47479 0.71855 0.0
H2513 H 0.59686 0.53752 0.69417 0.0
H2514 H 0.60665 0.43235 0.69187 0.0
H2515 H 0.62254 0.43725 0.6636 0.0
H2516 H 0.6383 0.43926 0.69279 0.0
H2517 H 0.57669 0.53871 0.65597 0.0
H2518 H 0.5826 0.5153 0.63356 0.0
H2519 H 0.55832 0.51155 0.65488 0.0
H2520 H 0.58492 0.46208 0.58656 0.0
H2521 H 0.52717 0.45107 0.63795 0.0
H2522 H 0.63286 0.46699 0.63306 0.0
H2523 H 0.62108 0.49349 0.61828 0.0
H2524 H 0.62566 0.46629 0.6005 0.0
H2525 H 0.56557 0.45073 0.69309 0.0
H2526 H 0.53528 0.44734 0.68127 0.0
H2527 H 0.54821 0.47714 0.68606 0.0
C2528 C 0.73189 0.33589 0.92157 0.0
C2529 C 0.74398 0.35743 0.92812 0.0
C2530 C 0.7298 0.32875 0.89692 0.0
C2531 C 0.74067 0.34321 0.87841 0.0
C2532 C 0.75262 0.36525 0.88483 0.0
C2533 C 0.75387 0.37231 0.90977 0.0
C2534 C 0.7164 0.30541 0.89078 0.0
C2535 C 0.76477 0.38081 0.86554 0.0
C2536 C 0.75524 0.30475 0.82297 0.0
C2537 C 0.73571 0.30954 0.80736 0.0
C2538 C 0.75804 0.31705 0.84545 0.0
C2539 C 0.74057 0.33411 0.85269 0.0
C2540 C 0.72131 0.33972 0.83659 0.0
C2541 C 0.71922 0.32748 0.81395 0.0
C2542 C 0.7791 0.31097 0.86194 0.0
C2543 C 0.70213 0.35752 0.84385 0.0
H2544 H 0.72392 0.32457 0.93581 0.0
H2545 H 0.76325 0.38896 0.91497 0.0
H2546 H 0.7026 0.30876 0.87636 0.0
H2547 H 0.72908 0.29188 0.88329 0.0
H2548 H 0.7074 0.29736 0.90716 0.0
H2549 H 0.7717 0.39827 0.87328 0.0
H2550 H 0.78005 0.37076 0.8575 0.0
H2551 H 0.75212 0.38481 0.85022 0.0
H2552 H 0.76832 0.29126 0.81767 0.0
H2553 H 0.70418 0.33135 0.80182 0.0
H2554 H 0.77265 0.30057 0.87821 0.0
H2555 H 0.78794 0.32784 0.86891 0.0
H2556 H 0.7927 0.29988 0.85224 0.0
H2557 H 0.69066 0.34926 0.85837 0.0
H2558 H 0.69047 0.36251 0.82796 0.0
H2559 H 0.71029 0.37435 0.85168 0.0
C2560 C 0.89199 0.53137 0.19099 0.0
C2561 C 0.90626 0.51099 0.19582 0.0
C2562 C 0.89402 0.54412 0.16863 0.0
C2563 C 0.91061 0.53613 0.15075 0.0
C2564 C 0.92465 0.51522 0.15539 0.0
C2565 C 0.92239 0.50304 0.17791 0.0
C2566 C 0.87901 0.56648 0.16467 0.0
C2567 C 0.94231 0.50571 0.13665 0.0
C2568 C 0.91379 0.54455 0.08272 0.0
C2569 C 0.93637 0.55609 0.08149 0.0
C2570 C 0.90263 0.54097 0.1056 0.0
C2571 C 0.91431 0.54949 0.12727 0.0
C2572 C 0.93431 0.56547 0.12531 0.0
C2573 C 0.94527 0.56852 0.10229 0.0
C2574 C 0.88062 0.52474 0.10686 0.0
C2575 C 0.94649 0.57602 0.14791 0.0
H2576 H 0.87958 0.5377 0.2049 0.0
H2577 H 0.93322 0.48714 0.18144 0.0
H2578 H 0.88984 0.58284 0.1697 0.0
H2579 H 0.8734 0.56839 0.14509 0.0
H2580 H 0.86271 0.56618 0.17645 0.0
H2581 H 0.95143 0.48898 0.14305 0.0
H2582 H 0.9329 0.50155 0.119 0.0
H2583 H 0.95629 0.51974 0.13279 0.0
H2584 H 0.90651 0.53535 0.06656 0.0
H2585 H 0.96239 0.5781 0.1012 0.0
H2586 H 0.86837 0.53068 0.12174 0.0
H2587 H 0.88623 0.50588 0.11105 0.0
H2588 H 0.87062 0.52452 0.08905 0.0
H2589 H 0.93305 0.58162 0.16179 0.0
H2590 H 0.95803 0.59196 0.14318 0.0
H2591 H 0.95802 0.56197 0.15647 0.0
C2592 C 0.74984 0.66108 0.43508 0.0
C2593 C 0.74103 0.66881 0.45787 0.0
C2594 C 0.74753 0.67571 0.41408 0.0
C2595 C 0.73559 0.69826 0.41591 0.0
C2596 C 0.72557 0.70555 0.43863 0.0
C2597 C 0.72872 0.69085 0.45949 0.0
C2598 C 0.75869 0.66745 0.39016 0.0
C2599 C 0.71207 0.72909 0.44103 0.0
C2600 C 0.75613 0.74308 0.36752 0.0
C2601 C 0.73983 0.73787 0.34839 0.0
C2602 C 0.75408 0.73138 0.39038 0.0
C2603 C 0.73495 0.71462 0.39423 0.0
C2604 C 0.71706 0.71128 0.37585 0.0
C2605 C 0.71988 0.72275 0.35295 0.0
C2606 C 0.77363 0.73526 0.40949 0.0
C2607 C 0.69596 0.69418 0.37962 0.0
H2608 H 0.75939 0.64405 0.43387 0.0
H2609 H 0.72167 0.69671 0.47711 0.0
H2610 H 0.74486 0.66651 0.37536 0.0
H2611 H 0.77261 0.68082 0.38426 0.0
H2612 H 0.76716 0.64932 0.39183 0.0
H2613 H 0.70302 0.73069 0.45919 0.0
H2614 H 0.7247 0.7447 0.43894 0.0
H2615 H 0.69836 0.73054 0.42617 0.0
H2616 H 0.77161 0.75471 0.364 0.0
H2617 H 0.7071 0.71894 0.33822 0.0
H2618 H 0.78454 0.71855 0.41097 0.0
H2619 H 0.76575 0.73871 0.42791 0.0
H2620 H 0.78577 0.75073 0.40472 0.0
H2621 H 0.70207 0.67512 0.378 0.0
H2622 H 0.68155 0.69712 0.3657 0.0
H2623 H 0.6883 0.69645 0.39834 0.0
C2624 C 0.62724 0.51892 0.85842 0.0
C2625 C 0.62019 0.52852 0.83566 0.0
C2626 C 0.61273 0.52172 0.8793 0.0
C2627 C 0.59115 0.53505 0.87731 0.0
C2628 C 0.58467 0.54586 0.85462 0.0
C2629 C 0.59912 0.54214 0.83393 0.0
C2630 C 0.61998 0.50962 0.90318 0.0
C2631 C 0.56223 0.56086 0.85206 0.0
C2632 C 0.54266 0.51922 0.9235 0.0
C2633 C 0.5474 0.53635 0.94206 0.0
C2634 C 0.55643 0.51897 0.90192 0.0
C2635 C 0.57484 0.53668 0.89873 0.0
C2636 C 0.57851 0.55507 0.91667 0.0
C2637 C 0.56493 0.55448 0.93834 0.0
C2638 C 0.55225 0.49888 0.88328 0.0
C2639 C 0.59747 0.57469 0.91349 0.0
H2640 H 0.6435 0.5083 0.85964 0.0
H2641 H 0.59382 0.5498 0.81634 0.0
H2642 H 0.6213 0.52328 0.91822 0.0
H2643 H 0.60601 0.49609 0.90859 0.0
H2644 H 0.63749 0.50023 0.90171 0.0
H2645 H 0.561 0.56989 0.83376 0.0
H2646 H 0.5461 0.54906 0.85445 0.0
H2647 H 0.56175 0.575 0.86668 0.0
H2648 H 0.52928 0.50505 0.92655 0.0
H2649 H 0.56848 0.5678 0.95273 0.0
H2650 H 0.56844 0.48733 0.88227 0.0
H2651 H 0.54929 0.50664 0.86463 0.0
H2652 H 0.53654 0.48715 0.88803 0.0
H2653 H 0.61559 0.5666 0.915 0.0
H2654 H 0.59601 0.58924 0.92763 0.0
H2655 H 0.59604 0.58302 0.8949 0.0
C2656 C 0.72036 0.31519 0.05753 0.0
C2657 C 0.74422 0.31368 0.04967 0.0
C2658 C 0.71267 0.30291 0.0788 0.0
C2659 C 0.72957 0.28974 0.09292 0.0
C2660 C 0.75376 0.28828 0.08498 0.0
C2661 C 0.76068 0.2999 0.06308 0.0
C2662 C 0.68658 0.30408 0.0862 0.0
C2663 C 0.77248 0.27506 0.09997 0.0
C2664 C 0.72124 0.28268 0.16161 0.0
C2665 C 0.71728 0.2575 0.16379 0.0
C2666 C 0.72432 0.29357 0.13851 0.0
C2667 C 0.72259 0.27908 0.11699 0.0
C2668 C 0.71646 0.25408 0.11889 0.0
C2669 C 0.71422 0.24346 0.14236 0.0
C2670 C 0.73135 0.32019 0.13734 0.0
C2671 C 0.71357 0.23829 0.09623 0.0
H2672 H 0.70762 0.32558 0.04673 0.0
H2673 H 0.77909 0.29877 0.05674 0.0
H2674 H 0.6793 0.28546 0.08933 0.0
H2675 H 0.68491 0.3142 0.10381 0.0
H2676 H 0.67537 0.31317 0.07199 0.0
H2677 H 0.79051 0.27578 0.09125 0.0
H2678 H 0.77389 0.28324 0.11868 0.0
H2679 H 0.76709 0.25573 0.10233 0.0
H2680 H 0.72367 0.29374 0.17803 0.0
H2681 H 0.71098 0.22404 0.1439 0.0
H2682 H 0.71942 0.33004 0.12441 0.0
H2683 H 0.74996 0.32201 0.13022 0.0
H2684 H 0.73056 0.32919 0.15568 0.0
H2685 H 0.70276 0.24768 0.08193 0.0
H2686 H 0.7048 0.22055 0.10057 0.0
H2687 H 0.73148 0.23469 0.08822 0.0
C2688 C 0.89824 0.46479 0.34381 0.0
C2689 C 0.9089 0.46645 0.32052 0.0
C2690 C 0.91216 0.4599 0.36481 0.0
C2691 C 0.93721 0.45636 0.36227 0.0
C2692 C 0.94752 0.45545 0.3385 0.0
C2693 C 0.93325 0.46074 0.31784 0.0
C2694 C 0.90045 0.46092 0.38987 0.0
C2695 C 0.97401 0.45101 0.33501 0.0
C2696 C 0.97157 0.48571 0.41458 0.0
C2697 C 0.97522 0.46602 0.4305 0.0
C2698 C 0.96044 0.48247 0.39165 0.0
C2699 C 0.95289 0.45886 0.38435 0.0
C2700 C 0.95828 0.43858 0.39941 0.0
C2701 C 0.96941 0.44241 0.42248 0.0
C2702 C 0.9553 0.50461 0.37604 0.0
C2703 C 0.95096 0.41309 0.39195 0.0
H2704 H 0.87934 0.46888 0.34589 0.0
H2705 H 0.94145 0.46148 0.29974 0.0
H2706 H 0.90627 0.44546 0.40149 0.0
H2707 H 0.90609 0.47795 0.39942 0.0
H2708 H 0.88051 0.46055 0.38853 0.0
H2709 H 0.97809 0.44552 0.31575 0.0
H2710 H 0.98427 0.46796 0.33921 0.0
H2711 H 0.98044 0.4367 0.34779 0.0
H2712 H 0.97646 0.50396 0.42054 0.0
H2713 H 0.97229 0.42712 0.43472 0.0
H2714 H 0.93559 0.50728 0.37472 0.0
H2715 H 0.9621 0.50201 0.35702 0.0
H2716 H 0.96363 0.52145 0.38378 0.0
H2717 H 0.93152 0.41031 0.39566 0.0
H2718 H 0.9611 0.39921 0.40248 0.0
H2719 H 0.9538 0.41011 0.37191 0.0
C2720 C 0.74097 0.68079 0.60363 0.0
C2721 C 0.75406 0.66672 0.58707 0.0
C2722 C 0.75171 0.68983 0.62523 0.0
C2723 C 0.77633 0.68519 0.6299 0.0
C2724 C 0.78915 0.66954 0.61409 0.0
C2725 C 0.77772 0.66024 0.59286 0.0
C2726 C 0.73715 0.70583 0.64205 0.0
C2727 C 0.81541 0.66429 0.61834 0.0
C2728 C 0.80105 0.73953 0.66398 0.0
C2729 C 0.79875 0.73174 0.68845 0.0
C2730 C 0.79651 0.72346 0.64437 0.0
C2731 C 0.78888 0.69932 0.64952 0.0
C2732 C 0.78907 0.69072 0.67411 0.0
C2733 C 0.7943 0.70704 0.69336 0.0
C2734 C 0.79734 0.73309 0.61829 0.0
C2735 C 0.781 0.66516 0.68039 0.0
H2736 H 0.72262 0.68563 0.59913 0.0
H2737 H 0.78789 0.64949 0.57986 0.0
H2738 H 0.73952 0.70026 0.66159 0.0
H2739 H 0.74352 0.72496 0.64042 0.0
H2740 H 0.71766 0.70514 0.63745 0.0
H2741 H 0.82122 0.64805 0.6078 0.0
H2742 H 0.82634 0.68015 0.61218 0.0
H2743 H 0.8193 0.6614 0.63822 0.0
H2744 H 0.80475 0.75857 0.66018 0.0
H2745 H 0.79246 0.70093 0.71229 0.0
H2746 H 0.77874 0.73615 0.61156 0.0
H2747 H 0.80577 0.71972 0.60576 0.0
H2748 H 0.80749 0.75058 0.61714 0.0
H2749 H 0.76106 0.66421 0.68007 0.0
H2750 H 0.78723 0.65971 0.69909 0.0
H2751 H 0.78767 0.65188 0.66669 0.0
C2752 C 0.65071 0.62598 0.51853 0.0
C2753 C 0.67252 0.61908 0.50798 0.0
C2754 C 0.63065 0.61034 0.5178 0.0
C2755 C 0.63232 0.58768 0.50551 0.0
C2756 C 0.65397 0.58121 0.49371 0.0
C2757 C 0.67399 0.59684 0.49548 0.0
C2758 C 0.60807 0.61755 0.53121 0.0
C2759 C 0.65615 0.55752 0.47981 0.0
C2760 C 0.59208 0.53696 0.52888 0.0
C2761 C 0.57236 0.53842 0.51277 0.0
C2762 C 0.61182 0.55274 0.5265 0.0
C2763 C 0.61216 0.56989 0.50704 0.0
C2764 C 0.59278 0.57072 0.49 0.0
C2765 C 0.57282 0.55522 0.49335 0.0
C2766 C 0.63184 0.55171 0.54544 0.0
C2767 C 0.59298 0.58821 0.46855 0.0
H2768 H 0.64966 0.64317 0.52828 0.0
H2769 H 0.69083 0.59169 0.48705 0.0
H2770 H 0.59237 0.61672 0.51852 0.0
H2771 H 0.60449 0.60453 0.54644 0.0
H2772 H 0.60944 0.63617 0.53911 0.0
H2773 H 0.67313 0.55662 0.46916 0.0
H2774 H 0.65568 0.54209 0.49298 0.0
H2775 H 0.64075 0.55506 0.4669 0.0
H2776 H 0.59162 0.52414 0.54407 0.0
H2777 H 0.5576 0.55622 0.48082 0.0
H2778 H 0.63344 0.56944 0.55516 0.0
H2779 H 0.64925 0.5484 0.53624 0.0
H2780 H 0.6288 0.5372 0.55939 0.0
H2781 H 0.59182 0.60715 0.47548 0.0
H2782 H 0.57776 0.58481 0.45558 0.0
H2783 H 0.6101 0.58678 0.45825 0.0
C2784 C 0.18117 0.90067 0.49515 0.0
C2785 C 0.20009 0.9001 0.51221 0.0
C2786 C 0.15788 0.90669 0.50266 0.0
C2787 C 0.15337 0.9112 0.52799 0.0
C2788 C 0.17219 0.90883 0.5455 0.0
C2789 C 0.19552 0.90388 0.5373 0.0
C2790 C 0.13853 0.90981 0.48329 0.0
C2791 C 0.16789 0.91246 0.57274 0.0
C2792 C 0.10537 0.95763 0.54026 0.0
C2793 C 0.08469 0.943 0.54314 0.0
C2794 C 0.12786 0.94741 0.53601 0.0
C2795 C 0.13006 0.92183 0.53548 0.0
C2796 C 0.1097 0.90686 0.54032 0.0
C2797 C 0.08711 0.91763 0.54373 0.0
C2798 C 0.14897 0.96411 0.5305 0.0
C2799 C 0.11157 0.87952 0.54084 0.0
H2800 H 0.18486 0.8977 0.47574 0.0
H2801 H 0.21021 0.903 0.55049 0.0
H2802 H 0.12234 0.8989 0.48808 0.0
H2803 H 0.13311 0.92917 0.48261 0.0
H2804 H 0.14462 0.90433 0.46461 0.0
H2805 H 0.18311 0.90578 0.58412 0.0
H2806 H 0.16556 0.93209 0.57667 0.0
H2807 H 0.15117 0.90287 0.5785 0.0
H2808 H 0.10387 0.97726 0.53985 0.0
H2809 H 0.07131 0.90616 0.54608 0.0
H2810 H 0.15555 0.96058 0.51153 0.0
H2811 H 0.16403 0.96052 0.54342 0.0
H2812 H 0.14426 0.98364 0.53193 0.0
H2813 H 0.11338 0.87253 0.52173 0.0
H2814 H 0.09545 0.87082 0.54923 0.0
H2815 H 0.12777 0.87391 0.55134 0.0
C2816 C 0.33769 0.91147 0.75948 0.0
C2817 C 0.3625 0.9081 0.76268 0.0
C2818 C 0.32202 0.8917 0.75602 0.0
C2819 C 0.33138 0.86795 0.75531 0.0
C2820 C 0.35646 0.86435 0.75775 0.0
C2821 C 0.37175 0.88452 0.76165 0.0
C2822 C 0.29534 0.89621 0.75375 0.0
C2823 C 0.36705 0.83923 0.75652 0.0
C2824 C 0.28894 0.81568 0.77045 0.0
C2825 C 0.28177 0.80809 0.74682 0.0
C2826 C 0.30509 0.83525 0.7735 0.0
C2827 C 0.31472 0.84692 0.75239 0.0
C2828 C 0.30768 0.83918 0.7285 0.0
C2829 C 0.291 0.82005 0.72601 0.0
C2830 C 0.31177 0.8435 0.79927 0.0
C2831 C 0.31797 0.85088 0.70558 0.0
H2832 H 0.33029 0.9296 0.76042 0.0
H2833 H 0.39089 0.8818 0.76403 0.0
H2834 H 0.28837 0.88876 0.73604 0.0
H2835 H 0.28564 0.88667 0.76882 0.0
H2836 H 0.291 0.91586 0.75462 0.0
H2837 H 0.38701 0.83967 0.75743 0.0
H2838 H 0.3602 0.82802 0.77204 0.0
H2839 H 0.36139 0.83003 0.73915 0.0
H2840 H 0.28186 0.80636 0.78652 0.0
H2841 H 0.28584 0.81389 0.70769 0.0
H2842 H 0.30708 0.86291 0.80171 0.0
H2843 H 0.33146 0.84204 0.80213 0.0
H2844 H 0.30247 0.83264 0.81371 0.0
H2845 H 0.31331 0.87043 0.70505 0.0
H2846 H 0.31123 0.8421 0.68837 0.0
H2847 H 0.33788 0.84983 0.70595 0.0
C2848 C 0.30476 0.08501 0.01691 0.0
C2849 C 0.30397 0.10803 0.00588 0.0
C2850 C 0.32689 0.07405 0.02223 0.0
C2851 C 0.34856 0.0866 0.01659 0.0
C2852 C 0.34776 0.11041 0.00676 0.0
C2853 C 0.32547 0.12076 0.0014 0.0
C2854 C 0.32706 0.04857 0.03257 0.0
C2855 C 0.37046 0.12449 0.0007 0.0
C2856 C 0.40952 0.06568 0.0398 0.0
C2857 C 0.41855 0.05431 0.01865 0.0
C2858 C 0.38639 0.07572 0.03976 0.0
C2859 C 0.372 0.07405 0.01816 0.0
C2860 C 0.38074 0.06185 -0.00291 0.0
C2861 C 0.40392 0.05227 -0.00245 0.0
C2862 C 0.37766 0.08874 0.06249 0.0
C2863 C 0.36585 0.05944 0.97377 0.0
H2864 H 0.28814 0.07514 0.02044 0.0
H2865 H 0.32494 0.13871 0.99316 0.0
H2866 H 0.33338 0.03579 0.0182 0.0
H2867 H 0.33972 0.04741 0.0484 0.0
H2868 H 0.30894 0.0425 0.03871 0.0
H2869 H 0.36676 0.14366 0.9956 0.0
H2870 H 0.38303 0.12442 0.01667 0.0
H2871 H 0.37969 0.11566 0.98501 0.0
H2872 H 0.42071 0.06722 0.05619 0.0
H2873 H 0.41058 0.04317 0.98124 0.0
H2874 H 0.35968 0.08169 0.06789 0.0
H2875 H 0.37572 0.1084 0.05841 0.0
H2876 H 0.39019 0.08676 0.07839 0.0
H2877 H 0.34794 0.05146 0.97801 0.0
H2878 H 0.37461 0.04788 0.95966 0.0
H2879 H 0.36289 0.0777 0.96568 0.0
C2880 C 0.6821 0.59897 0.79765 0.0
C2881 C 0.66122 0.59843 0.7831 0.0
C2882 C 0.69555 0.62051 0.80048 0.0
C2883 C 0.68837 0.64165 0.78767 0.0
C2884 C 0.6672 0.64118 0.773 0.0
C2885 C 0.6536 0.61961 0.77126 0.0
C2886 C 0.71757 0.62058 0.81691 0.0
C2887 C 0.65942 0.66316 0.75843 0.0
C2888 C 0.71244 0.70469 0.80339 0.0
C2889 C 0.73101 0.70718 0.7862 0.0
C2890 C 0.69906 0.68294 0.80493 0.0
C2891 C 0.70383 0.66379 0.7882 0.0
C2892 C 0.7228 0.66617 0.77106 0.0
C2893 C 0.73644 0.68769 0.77058 0.0
C2894 C 0.67949 0.68065 0.82402 0.0
C2895 C 0.72798 0.64648 0.75238 0.0
H2896 H 0.68773 0.58258 0.80707 0.0
H2897 H 0.63744 0.61905 0.75997 0.0
H2898 H 0.73395 0.62323 0.80559 0.0
H2899 H 0.71686 0.63594 0.83019 0.0
H2900 H 0.71934 0.60334 0.82742 0.0
H2901 H 0.64239 0.65981 0.74808 0.0
H2902 H 0.6569 0.67889 0.77093 0.0
H2903 H 0.67364 0.66834 0.74507 0.0
H2904 H 0.70827 0.71981 0.81544 0.0
H2905 H 0.75056 0.68975 0.75698 0.0
H2906 H 0.68139 0.6634 0.83444 0.0
H2907 H 0.66166 0.68008 0.81476 0.0
H2908 H 0.67981 0.69606 0.8373 0.0
H2909 H 0.73192 0.62913 0.76191 0.0
H2910 H 0.74343 0.65124 0.74032 0.0
H2911 H 0.7119 0.64328 0.74055 0.0
C2912 C 0.83023 0.39497 0.00348 0.0
C2913 C 0.82455 0.38001 0.98326 0.0
C2914 C 0.85134 0.40915 0.00385 0.0
C2915 C 0.86687 0.40881 0.98323 0.0
C2916 C 0.86128 0.3937 0.96275 0.0
C2917 C 0.84028 0.37923 0.96313 0.0
C2918 C 0.85692 0.42462 0.02628 0.0
C2919 C 0.87718 0.39324 0.94026 0.0
C2920 C 0.90694 0.46492 0.97928 0.0
C2921 C 0.92839 0.4565 0.98974 0.0
C2922 C 0.88718 0.44919 0.97567 0.0
C2923 C 0.88876 0.4246 0.9832 0.0
C2924 C 0.91068 0.41576 0.99282 0.0
C2925 C 0.93032 0.43177 0.99574 0.0
C2926 C 0.86425 0.45917 0.96486 0.0
C2927 C 0.91297 0.38978 0.00145 0.0
H2928 H 0.8182 0.39549 0.01915 0.0
H2929 H 0.83581 0.36786 0.94736 0.0
H2930 H 0.87499 0.42019 0.03366 0.0
H2931 H 0.85726 0.44412 0.02106 0.0
H2932 H 0.84352 0.42199 0.04121 0.0
H2933 H 0.87047 0.38027 0.92599 0.0
H2934 H 0.87824 0.41168 0.932 0.0
H2935 H 0.89573 0.38813 0.94557 0.0
H2936 H 0.90541 0.48397 0.97443 0.0
H2937 H 0.94678 0.42514 0.00398 0.0
H2938 H 0.85025 0.45983 0.97935 0.0
H2939 H 0.85737 0.44709 0.94993 0.0
H2940 H 0.86682 0.47779 0.95729 0.0
H2941 H 0.90142 0.38681 0.01784 0.0
H2942 H 0.93176 0.38522 0.00653 0.0
H2943 H 0.90666 0.37698 0.9869 0.0
C2944 C 0.32814 0.04241 0.73889 0.0
C2945 C 0.34271 0.04217 0.7601 0.0
C2946 C 0.31666 0.06369 0.7313 0.0
C2947 C 0.3195 0.08511 0.74554 0.0
C2948 C 0.33377 0.08486 0.76728 0.0
C2949 C 0.34543 0.0634 0.77419 0.0
C2950 C 0.30191 0.0634 0.7078 0.0
C2951 C 0.33683 0.1073 0.78316 0.0
C2952 C 0.31159 0.14741 0.71715 0.0
C2953 C 0.28863 0.15353 0.72542 0.0
C2954 C 0.32143 0.1247 0.72265 0.0
C2955 C 0.30819 0.10803 0.7373 0.0
C2956 C 0.28463 0.11378 0.74496 0.0
C2957 C 0.275 0.13641 0.73865 0.0
C2958 C 0.34637 0.11895 0.71363 0.0
C2959 C 0.27014 0.09664 0.76097 0.0
H2960 H 0.32609 0.02604 0.72786 0.0
H2961 H 0.35657 0.06321 0.79067 0.0
H2962 H 0.28329 0.06925 0.71164 0.0
H2963 H 0.30968 0.07651 0.69439 0.0
H2964 H 0.30117 0.04511 0.69907 0.0
H2965 H 0.34752 0.10373 0.80013 0.0
H2966 H 0.34598 0.12188 0.77249 0.0
H2967 H 0.31899 0.11425 0.78862 0.0
H2968 H 0.32212 0.16066 0.7069 0.0
H2969 H 0.25737 0.14128 0.74539 0.0
H2970 H 0.3464 0.10099 0.70426 0.0
H2971 H 0.35891 0.11786 0.72958 0.0
H2972 H 0.35335 0.13292 0.70062 0.0
H2973 H 0.26912 0.0783 0.75246 0.0
H2974 H 0.25158 0.10318 0.76406 0.0
H2975 H 0.27917 0.09467 0.77917 0.0
C2976 C 0.15266 0.94265 0.25508 0.0
C2977 C 0.16614 0.96428 0.25622 0.0
C2978 C 0.16269 0.92133 0.24572 0.0
C2979 C 0.18689 0.92164 0.23774 0.0
C2980 C 0.20019 0.94373 0.2377 0.0
C2981 C 0.18957 0.96489 0.24683 0.0
C2982 C 0.14783 0.89815 0.24576 0.0
C2983 C 0.2261 0.94469 0.22958 0.0
C2984 C 0.2177 0.86261 0.25134 0.0
C2985 C 0.21732 0.85113 0.22825 0.0
C2986 C 0.20894 0.88606 0.2543 0.0
C2987 C 0.19922 0.89827 0.23364 0.0
C2988 C 0.19977 0.88725 0.20996 0.0
C2989 C 0.20908 0.86368 0.20748 0.0
C2990 C 0.20912 0.89727 0.27982 0.0
C2991 C 0.18948 0.89981 0.1876 0.0
H2992 H 0.13436 0.94226 0.26188 0.0
H2993 H 0.19996 0.98169 0.24751 0.0
H2994 H 0.14949 0.8885 0.22787 0.0
H2995 H 0.15456 0.88584 0.26041 0.0
H2996 H 0.1285 0.90164 0.24924 0.0
H2997 H 0.23272 0.96367 0.22709 0.0
H2998 H 0.2375 0.93579 0.24373 0.0
H2999 H 0.22843 0.93462 0.21202 0.0
H3000 H 0.22455 0.85298 0.26734 0.0
H3001 H 0.20888 0.85471 0.18964 0.0
H3002 H 0.19039 0.89922 0.28642 0.0
H3003 H 0.21739 0.91572 0.27932 0.0
H3004 H 0.21914 0.88613 0.29344 0.0
H3005 H 0.16962 0.90045 0.18919 0.0
H3006 H 0.19403 0.89026 0.17018 0.0
H3007 H 0.19617 0.91887 0.18654 0.0
C3008 C 0.52292 0.35872 0.37702 0.0
C3009 C 0.50361 0.34332 0.38304 0.0
C3010 C 0.52612 0.38099 0.38944 0.0
C3011 C 0.50977 0.38741 0.40824 0.0
C3012 C 0.48858 0.37336 0.41177 0.0
C3013 C 0.48572 0.35149 0.39895 0.0
C3014 C 0.54816 0.39631 0.3842 0.0
C3015 C 0.47034 0.37976 0.43125 0.0
C3016 C 0.52955 0.41245 0.46984 0.0
C3017 C 0.51727 0.43441 0.47005 0.0
C3018 C 0.52904 0.39767 0.44874 0.0
C3019 C 0.51652 0.40559 0.42733 0.0
C3020 C 0.50649 0.42907 0.42672 0.0
C3021 C 0.50652 0.44303 0.44835 0.0
C3022 C 0.53978 0.37261 0.45025 0.0
C3023 C 0.49399 0.43875 0.40403 0.0
H3024 H 0.53669 0.35241 0.36454 0.0
H3025 H 0.47056 0.33966 0.40315 0.0
H3026 H 0.54421 0.41598 0.38594 0.0
H3027 H 0.56247 0.39193 0.39776 0.0
H3028 H 0.55521 0.3927 0.36541 0.0
H3029 H 0.45405 0.36789 0.43029 0.0
H3030 H 0.47856 0.37782 0.44986 0.0
H3031 H 0.4647 0.39892 0.42922 0.0
H3032 H 0.53787 0.40598 0.48672 0.0
H3033 H 0.49735 0.46033 0.44855 0.0
H3034 H 0.55153 0.36927 0.43416 0.0
H3035 H 0.52515 0.35869 0.4498 0.0
H3036 H 0.55047 0.37004 0.46741 0.0
H3037 H 0.50184 0.43133 0.38684 0.0
H3038 H 0.49507 0.45893 0.40342 0.0
H3039 H 0.47469 0.43348 0.40452 0.0
C3040 C 0.43222 0.79686 0.14203 0.0
C3041 C 0.44649 0.77622 0.14508 0.0
C3042 C 0.40911 0.79779 0.15183 0.0
C3043 C 0.39978 0.77727 0.16437 0.0
C3044 C 0.41367 0.75594 0.16663 0.0
C3045 C 0.43716 0.7558 0.15727 0.0
C3046 C 0.39511 0.8211 0.14969 0.0
C3047 C 0.40389 0.73352 0.17933 0.0
C3048 C 0.35178 0.78877 0.21196 0.0
C3049 C 0.3308 0.78388 0.19837 0.0
C3050 C 0.37441 0.78666 0.20107 0.0
C3051 C 0.37597 0.77885 0.17623 0.0
C3052 C 0.35482 0.77384 0.16242 0.0
C3053 C 0.33239 0.77676 0.1736 0.0
C3054 C 0.3966 0.79285 0.21611 0.0
C3055 C 0.35592 0.765 0.13605 0.0
H3056 H 0.43952 0.81283 0.13286 0.0
H3057 H 0.44822 0.73985 0.15954 0.0
H3058 H 0.3775 0.81756 0.14062 0.0
H3059 H 0.39143 0.82839 0.16839 0.0
H3060 H 0.4049 0.83528 0.13899 0.0
H3061 H 0.41608 0.71776 0.17749 0.0
H3062 H 0.40134 0.73733 0.19926 0.0
H3063 H 0.38604 0.72845 0.17152 0.0
H3064 H 0.35046 0.79417 0.23117 0.0
H3065 H 0.31613 0.77249 0.16327 0.0
H3066 H 0.4071 0.80745 0.20682 0.0
H3067 H 0.40834 0.77675 0.21749 0.0
H3068 H 0.39218 0.79902 0.23508 0.0
H3069 H 0.36478 0.77893 0.1243 0.0
H3070 H 0.3378 0.76091 0.12825 0.0
H3071 H 0.36691 0.74832 0.13502 0.0
C3072 C -0.0005 0.6803 0.89506 0.0
C3073 C 0.01241 0.69264 0.91364 0.0
C3074 C 0.99255 0.65579 0.89812 0.0
C3075 C -0.00119 0.64356 0.9202 0.0
C3076 C 0.01329 0.65557 0.93816 0.0
C3077 C 0.0198 0.67995 0.93468 0.0
C3078 C 0.97733 0.64362 0.87845 0.0
C3079 C 0.02092 0.64308 0.96175 0.0
C3080 C 0.96505 0.5943 0.95388 0.0
C3081 C 0.9817 0.57548 0.95231 0.0
C3082 C 0.96875 0.61604 0.94075 0.0
C3083 C 0.98947 0.61873 0.9258 0.0
C3084 C 0.00423 0.59845 0.92143 0.0
C3085 C 0.00022 0.57705 0.93486 0.0
C3086 C 0.9522 0.63708 0.94534 0.0
C3087 C 0.02604 0.60026 0.90505 0.0
H3088 H 0.99357 0.69018 0.87886 0.0
H3089 H 0.02994 0.68944 0.94896 0.0
H3090 H 0.98216 0.62424 0.87614 0.0
H3091 H 0.95817 0.64421 0.88399 0.0
H3092 H 0.97912 0.65299 0.86038 0.0
H3093 H 0.03305 0.65469 0.97324 0.0
H3094 H 0.00482 0.63831 0.97284 0.0
H3095 H 0.03034 0.62593 0.95747 0.0
H3096 H 0.9506 0.59307 0.96719 0.0
H3097 H 0.01285 0.56225 0.93322 0.0
H3098 H 0.94848 0.64698 0.92793 0.0
H3099 H 0.96102 0.65007 0.95833 0.0
H3100 H 0.93488 0.63098 0.95351 0.0
H3101 H 0.02221 0.61126 0.88836 0.0
H3102 H 0.03227 0.58201 0.89923 0.0
H3103 H 0.0409 0.60942 0.91533 0.0
C3104 C 0.06588 0.25414 0.67059 0.0
C3105 C 0.05989 0.25293 0.64543 0.0
C3106 C 0.08989 0.25271 0.67848 0.0
C3107 C 0.10826 0.24963 0.66079 0.0
C3108 C 0.10244 0.24914 0.63536 0.0
C3109 C 0.07835 0.25098 0.62797 0.0
C3110 C 0.09554 0.25389 0.70576 0.0
C3111 C 0.12155 0.24577 0.61597 0.0
C3112 C 0.17269 0.26382 0.67922 0.0
C3113 C 0.18131 0.24069 0.68545 0.0
C3114 C 0.14896 0.26699 0.67121 0.0
C3115 C 0.13356 0.24648 0.66891 0.0
C3116 C 0.14227 0.22299 0.67451 0.0
C3117 C 0.16602 0.22039 0.68294 0.0
C3118 C 0.14024 0.29236 0.66577 0.0
C3119 C 0.1264 0.20066 0.67185 0.0
H3120 H 0.05175 0.25577 0.68419 0.0
H3121 H 0.07394 0.24989 0.60848 0.0
H3122 H 0.10314 0.23635 0.71194 0.0
H3123 H 0.10931 0.26822 0.70946 0.0
H3124 H 0.07938 0.25776 0.717 0.0
H3125 H 0.11411 0.2465 0.59691 0.0
H3126 H 0.13571 0.26002 0.61789 0.0
H3127 H 0.13033 0.22794 0.61863 0.0
H3128 H 0.18427 0.27969 0.68135 0.0
H3129 H 0.17256 0.2025 0.68771 0.0
H3130 H 0.12502 0.29677 0.67809 0.0
H3131 H 0.13346 0.29343 0.64651 0.0
H3132 H 0.15458 0.30638 0.66836 0.0
H3133 H 0.11083 0.20199 0.68448 0.0
H3134 H 0.13616 0.18364 0.67605 0.0
H3135 H 0.11914 0.19947 0.65276 0.0
C3136 C 0.50752 0.71519 0.08031 0.0
C3137 C 0.5204 0.73407 0.06875 0.0
C3138 C 0.50923 0.69116 0.07214 0.0
C3139 C 0.5236 0.68591 0.05139 0.0
C3140 C 0.535 0.70505 0.0383 0.0
C3141 C 0.5335 0.72896 0.04731 0.0
C3142 C 0.49682 0.67124 0.0867 0.0
C3143 C 0.54965 0.70016 0.0155 0.0
C3144 C 0.54781 0.62189 0.05287 0.0
C3145 C 0.52959 0.60934 0.04018 0.0
C3146 C 0.54682 0.64726 0.05556 0.0
C3147 C 0.52757 0.66014 0.0446 0.0
C3148 C 0.51025 0.64759 0.03009 0.0
C3149 C 0.51122 0.62222 0.02846 0.0
C3150 C 0.56535 0.66 0.07159 0.0
C3151 C 0.48994 0.66073 0.01744 0.0
H3152 H 0.49716 0.71886 0.09677 0.0
H3153 H 0.54332 0.74344 0.0381 0.0
H3154 H 0.4848 0.66034 0.07448 0.0
H3155 H 0.51043 0.65873 0.09444 0.0
H3156 H 0.48597 0.6785 0.10215 0.0
H3157 H 0.55397 0.71715 0.00526 0.0
H3158 H 0.56677 0.69142 0.02086 0.0
H3159 H 0.5399 0.68745 0.00293 0.0
H3160 H 0.56198 0.61176 0.06187 0.0
H3161 H 0.49733 0.61234 0.01834 0.0
H3162 H 0.5566 0.66696 0.08852 0.0
H3163 H 0.57319 0.67587 0.06176 0.0
H3164 H 0.58014 0.64772 0.07718 0.0
H3165 H 0.47644 0.66617 0.03133 0.0
H3166 H 0.48078 0.64912 0.00337 0.0
H3167 H 0.49666 0.67756 0.00837 0.0
C3168 C 0.08874 0.7505 0.8369 0.0
C3169 C 0.06564 0.75974 0.83368 0.0
C3170 C 0.10587 0.75249 0.81812 0.0
C3171 C 0.09989 0.76465 0.79589 0.0
C3172 C 0.07659 0.7742 0.79261 0.0
C3173 C 0.05959 0.77133 0.81149 0.0
C3174 C 0.13032 0.74141 0.82204 0.0
C3175 C 0.0698 0.78776 0.76943 0.0
C3176 C 0.1567 0.78107 0.76137 0.0
C3177 C 0.15909 0.76022 0.74682 0.0
C3178 C 0.13608 0.78415 0.77592 0.0
C3179 C 0.11784 0.76588 0.77575 0.0
C3180 C 0.11915 0.74629 0.75891 0.0
C3181 C 0.13981 0.74373 0.74464 0.0
C3182 C 0.13494 0.80562 0.7932 0.0
C3183 C 0.10013 0.72646 0.75798 0.0
H3184 H 0.0934 0.74163 0.85412 0.0
H3185 H 0.04182 0.77893 0.80922 0.0
H3186 H 0.1338 0.72776 0.80742 0.0
H3187 H 0.14451 0.75568 0.82068 0.0
H3188 H 0.13197 0.73238 0.8403 0.0
H3189 H 0.05075 0.79358 0.76954 0.0
H3190 H 0.08151 0.80412 0.76747 0.0
H3191 H 0.07274 0.77622 0.75293 0.0
H3192 H 0.17168 0.79376 0.76305 0.0
H3193 H 0.1417 0.72769 0.73315 0.0
H3194 H 0.13963 0.79968 0.81218 0.0
H3195 H 0.1165 0.81307 0.79372 0.0
H3196 H 0.14771 0.82033 0.78774 0.0
H3197 H 0.1018 0.71483 0.77462 0.0
H3198 H 0.10195 0.71474 0.74138 0.0
H3199 H 0.08185 0.73426 0.75801 0.0
C3200 C 0.97855 0.31768 0.63124 0.0
C3201 C 0.96933 0.29562 0.62222 0.0
C3202 C 0.97562 0.33921 0.61783 0.0
C3203 C 0.96247 0.33861 0.59535 0.0
C3204 C 0.95196 0.31656 0.58693 0.0
C3205 C 0.95592 0.29516 0.60028 0.0
C3206 C 0.98765 0.36229 0.62704 0.0
C3207 C 0.93717 0.31544 0.56349 0.0
C3208 C 0.94741 0.40083 0.56994 0.0
C3209 C 0.96607 0.40425 0.55297 0.0
C3210 C 0.94504 0.37886 0.58294 0.0
C3211 C 0.96222 0.36041 0.57936 0.0
C3212 C 0.98052 0.36346 0.56157 0.0
C3213 C 0.98196 0.38519 0.54831 0.0
C3214 C 0.9248 0.37578 0.60116 0.0
C3215 C -0.00048 0.34443 0.55761 0.0
H3216 H 0.9889 0.31791 0.64827 0.0
H3217 H 0.94845 0.27806 0.59358 0.0
H3218 H 0.00157 0.36828 0.61367 0.0
H3219 H 0.97437 0.3771 0.62844 0.0
H3220 H 0.99634 0.35987 0.64537 0.0
H3221 H 0.9275 0.29775 0.56141 0.0
H3222 H 0.92383 0.33029 0.5632 0.0
H3223 H 0.94904 0.31803 0.5473 0.0
H3224 H 0.93503 0.41549 0.57347 0.0
H3225 H 0.99655 0.38777 0.53535 0.0
H3226 H 0.93207 0.3768 0.62025 0.0
H3227 H 0.91604 0.35767 0.59893 0.0
H3228 H 0.91099 0.39006 0.59898 0.0
H3229 H 0.00998 0.34192 0.57491 0.0
H3230 H 0.0122 0.34945 0.54262 0.0
H3231 H 0.99102 0.32666 0.55294 0.0
C3232 C 0.42273 0.29541 0.33227 0.0
C3233 C 0.43842 0.27722 0.34001 0.0
C3234 C 0.40392 0.29016 0.31578 0.0
C3235 C 0.4003 0.26593 0.30747 0.0
C3236 C 0.41665 0.24764 0.31452 0.0
C3237 C 0.43579 0.2536 0.33053 0.0
C3238 C 0.38725 0.31036 0.30818 0.0
C3239 C 0.41308 0.22155 0.30647 0.0
C3240 C 0.33442 0.25616 0.294 0.0
C3241 C 0.33371 0.25966 0.26845 0.0
C3242 C 0.35639 0.25571 0.3067 0.0
C3243 C 0.37801 0.25972 0.29353 0.0
C3244 C 0.37741 0.26154 0.26744 0.0
C3245 C 0.35513 0.26129 0.25512 0.0
C3246 C 0.35627 0.25308 0.33445 0.0
C3247 C 0.40001 0.2661 0.25278 0.0
H3248 H 0.42496 0.31372 0.33948 0.0
H3249 H 0.44788 0.2395 0.33672 0.0
H3250 H 0.38471 0.31039 0.28785 0.0
H3251 H 0.36934 0.30737 0.31665 0.0
H3252 H 0.39413 0.32854 0.31399 0.0
H3253 H 0.42907 0.21031 0.31062 0.0
H3254 H 0.39739 0.2136 0.31627 0.0
H3255 H 0.40915 0.22048 0.28641 0.0
H3256 H 0.31771 0.25506 0.30419 0.0
H3257 H 0.35438 0.26436 0.23535 0.0
H3258 H 0.36002 0.27104 0.34311 0.0
H3259 H 0.37054 0.24049 0.34058 0.0
H3260 H 0.33866 0.24624 0.34132 0.0
H3261 H 0.40587 0.28531 0.25534 0.0
H3262 H 0.39711 0.26281 0.23274 0.0
H3263 H 0.41483 0.25442 0.25937 0.0
C3264 C 0.41317 0.50454 0.36964 0.0
C3265 C 0.394 0.51744 0.35946 0.0
C3266 C 0.41712 0.50427 0.39514 0.0
C3267 C 0.40162 0.51744 0.41076 0.0
C3268 C 0.38134 0.52926 0.40075 0.0
C3269 C 0.37772 0.52908 0.37508 0.0
C3270 C 0.43864 0.49085 0.40518 0.0
C3271 C 0.36423 0.54305 0.41696 0.0
C3272 C 0.41518 0.50048 0.47638 0.0
C3273 C 0.4343 0.51666 0.48145 0.0
C3274 C 0.40207 0.50216 0.45431 0.0
C3275 C 0.40834 0.52042 0.43708 0.0
C3276 C 0.42532 0.53873 0.44366 0.0
C3277 C 0.43813 0.53664 0.46586 0.0
C3278 C 0.38355 0.48269 0.44849 0.0
C3279 C 0.43206 0.5589 0.42602 0.0
H3280 H 0.42556 0.49522 0.3576 0.0
H3281 H 0.3628 0.53899 0.3672 0.0
H3282 H 0.45167 0.50402 0.41342 0.0
H3283 H 0.43297 0.47813 0.42 0.0
H3284 H 0.44801 0.48031 0.39069 0.0
H3285 H 0.34745 0.54785 0.40696 0.0
H3286 H 0.35947 0.53223 0.43355 0.0
H3287 H 0.37306 0.5601 0.42345 0.0
H3288 H 0.41162 0.48533 0.48866 0.0
H3289 H 0.45247 0.54958 0.46993 0.0
H3290 H 0.39267 0.46681 0.44022 0.0
H3291 H 0.36974 0.48908 0.43523 0.0
H3292 H 0.37443 0.47642 0.46558 0.0
H3293 H 0.44356 0.55147 0.41119 0.0
H3294 H 0.44216 0.57383 0.43544 0.0
H3295 H 0.41582 0.56657 0.41715 0.0
C3296 C 0.25413 0.67059 0.05262 0.0
C3297 C 0.23627 0.6741 0.0347 0.0
C3298 C 0.25347 0.68313 0.07517 0.0
C3299 C 0.23425 0.6991 0.07996 0.0
C3300 C 0.21634 0.7029 0.06185 0.0
C3301 C 0.21767 0.6905 0.03936 0.0
C3302 C 0.27311 0.67904 0.09401 0.0
C3303 C 0.1954 0.71954 0.06647 0.0
C3304 C 0.2206 0.71072 0.14728 0.0
C3305 C 0.23154 0.73353 0.15095 0.0
C3306 C 0.22075 0.69959 0.12401 0.0
C3307 C 0.23253 0.7114 0.10418 0.0
C3308 C 0.24298 0.73473 0.10759 0.0
C3309 C 0.24215 0.74565 0.13093 0.0
C3310 C 0.20888 0.67493 0.1208 0.0
C3311 C 0.2559 0.74772 0.08689 0.0
H3312 H 0.26858 0.65802 0.04906 0.0
H3313 H 0.20363 0.69314 0.0257 0.0
H3314 H 0.2814 0.69669 0.09955 0.0
H3315 H 0.26538 0.67067 0.11087 0.0
H3316 H 0.28743 0.66701 0.08692 0.0
H3317 H 0.18329 0.72095 0.05017 0.0
H3318 H 0.18477 0.71268 0.08234 0.0
H3319 H 0.202 0.73804 0.0714 0.0
H3320 H 0.21232 0.70137 0.16272 0.0
H3321 H 0.25087 0.76318 0.13375 0.0
H3322 H 0.22263 0.66121 0.11628 0.0
H3323 H 0.19591 0.67533 0.10517 0.0
H3324 H 0.19921 0.66893 0.13767 0.0
H3325 H 0.27162 0.73693 0.08104 0.0
H3326 H 0.26232 0.76617 0.09237 0.0
H3327 H 0.24388 0.74944 0.07059 0.0
C3328 C 0.09282 0.49487 0.86625 0.0
C3329 C 0.11367 0.48418 0.85719 0.0
C3330 C 0.08698 0.49335 0.89125 0.0
C3331 C 0.10223 0.48044 0.90754 0.0
C3332 C 0.12376 0.47025 0.89867 0.0
C3333 C 0.12933 0.47237 0.87348 0.0
C3334 C 0.06412 0.50509 0.90007 0.0
C3335 C 0.14039 0.45638 0.91549 0.0
C3336 C 0.08479 0.49834 0.97141 0.0
C3337 C 0.06528 0.48234 0.97506 0.0
C3338 C 0.09958 0.49605 0.95074 0.0
C3339 C 0.09465 0.47728 0.93353 0.0
C3340 C 0.07755 0.45887 0.9393 0.0
C3341 C 0.06294 0.46164 0.96011 0.0
C3342 C 0.11807 0.51573 0.94577 0.0
C3343 C 0.07241 0.43805 0.92182 0.0
H3344 H 0.08083 0.5042 0.85368 0.0
H3345 H 0.14544 0.46399 0.8664 0.0
H3346 H 0.05153 0.49094 0.90711 0.0
H3347 H 0.06816 0.51782 0.91549 0.0
H3348 H 0.05487 0.51532 0.88519 0.0
H3349 H 0.15806 0.453 0.90673 0.0
H3350 H 0.14342 0.46636 0.93307 0.0
H3351 H 0.13201 0.43858 0.92016 0.0
H3352 H 0.08717 0.51398 0.98342 0.0
H3353 H 0.04823 0.44891 0.96314 0.0
H3354 H 0.1094 0.53073 0.93546 0.0
H3355 H 0.1332 0.50895 0.93455 0.0
H3356 H 0.12538 0.52336 0.9633 0.0
H3357 H 0.06094 0.44455 0.9064 0.0
H3358 H 0.06279 0.42285 0.93117 0.0
H3359 H 0.08927 0.43108 0.91376 0.0
C3360 C 0.26455 0.30804 0.55434 0.0
C3361 C 0.28064 0.31001 0.53464 0.0
C3362 C 0.2708 0.29532 0.57579 0.0
C3363 C 0.29383 0.28468 0.57768 0.0
C3364 C 0.3096 0.28539 0.55735 0.0
C3365 C 0.30275 0.29793 0.53599 0.0
C3366 C 0.25323 0.29442 0.59696 0.0
C3367 C 0.33431 0.27439 0.5587 0.0
C3368 C 0.31207 0.28426 0.64453 0.0
C3369 C 0.30448 0.26094 0.65141 0.0
C3370 C 0.31124 0.29147 0.61977 0.0
C3371 C 0.30196 0.27505 0.60182 0.0
C3372 C 0.29676 0.25066 0.6084 0.0
C3373 C 0.2982 0.24383 0.63329 0.0
C3374 C 0.31765 0.31745 0.61333 0.0
C3375 C 0.28691 0.23261 0.58982 0.0
H3376 H 0.24737 0.3171 0.55334 0.0
H3377 H 0.31538 0.29937 0.52087 0.0
H3378 H 0.25099 0.27548 0.60369 0.0
H3379 H 0.26033 0.30551 0.61257 0.0
H3380 H 0.2353 0.30147 0.59167 0.0
H3381 H 0.34255 0.27263 0.54015 0.0
H3382 H 0.34619 0.28619 0.57023 0.0
H3383 H 0.33364 0.2562 0.56752 0.0
H3384 H 0.31656 0.2975 0.65874 0.0
H3385 H 0.29189 0.22592 0.63885 0.0
H3386 H 0.30093 0.32786 0.61029 0.0
H3387 H 0.32819 0.31824 0.59602 0.0
H3388 H 0.32819 0.32651 0.62828 0.0
H3389 H 0.26758 0.23629 0.58654 0.0
H3390 H 0.28856 0.2136 0.59649 0.0
H3391 H 0.29626 0.23436 0.57187 0.0
C3392 C 0.43772 0.51689 0.21799 0.0
C3393 C 0.44846 0.50791 0.23955 0.0
C3394 C 0.44921 0.51507 0.19515 0.0
C3395 C 0.47217 0.50433 0.19386 0.0
C3396 C 0.48341 0.49572 0.21558 0.0
C3397 C 0.47135 0.49747 0.23819 0.0
C3398 C 0.4366 0.52438 0.17232 0.0
C3399 C 0.50807 0.48456 0.21489 0.0
C3400 C 0.48825 0.48292 0.12963 0.0
C3401 C 0.49973 0.50374 0.12035 0.0
C3402 C 0.48024 0.48224 0.15416 0.0
C3403 C 0.48436 0.50267 0.16966 0.0
C3404 C 0.49772 0.52288 0.16085 0.0
C3405 C 0.505 0.52328 0.13618 0.0
C3406 C 0.46587 0.46046 0.16289 0.0
C3407 C 0.50299 0.54474 0.17699 0.0
H3408 H 0.41999 0.5248 0.21881 0.0
H3409 H 0.47981 0.49054 0.25478 0.0
H3410 H 0.44757 0.53897 0.16361 0.0
H3411 H 0.43451 0.5095 0.15859 0.0
H3412 H 0.41854 0.53173 0.17643 0.0
H3413 H 0.51456 0.47927 0.23354 0.0
H3414 H 0.50773 0.46817 0.20293 0.0
H3415 H 0.52117 0.4976 0.20675 0.0
H3416 H 0.48417 0.46784 0.11733 0.0
H3417 H 0.51422 0.53926 0.12903 0.0
H3418 H 0.44679 0.46565 0.16511 0.0
H3419 H 0.47246 0.45427 0.18117 0.0
H3420 H 0.46669 0.44502 0.14968 0.0
H3421 H 0.48617 0.55493 0.18005 0.0
H3422 H 0.51641 0.55727 0.16852 0.0
H3423 H 0.50979 0.53897 0.19534 0.0
C3424 C 0.2553 0.60797 0.89925 0.0
C3425 C 0.23907 0.61686 0.91661 0.0
C3426 C 0.25459 0.61633 0.87478 0.0
C3427 C 0.2372 0.63371 0.86793 0.0
C3428 C 0.21915 0.64044 0.88479 0.0
C3429 C 0.22039 0.63198 0.90903 0.0
C3430 C 0.27369 0.60833 0.85696 0.0
C3431 C 0.19988 0.65841 0.87795 0.0
C3432 C 0.25397 0.68438 0.82409 0.0
C3433 C 0.24092 0.67783 0.80287 0.0
C3434 C 0.25359 0.6696 0.84509 0.0
C3435 C 0.23985 0.64774 0.84481 0.0
C3436 C 0.2271 0.64072 0.82329 0.0
C3437 C 0.22796 0.65577 0.80245 0.0
C3438 C 0.26712 0.67788 0.86793 0.0
C3439 C 0.2124 0.6175 0.82233 0.0
H3440 H 0.26975 0.59625 0.90525 0.0
H3441 H 0.20762 0.63847 0.92247 0.0
H3442 H 0.2656 0.60392 0.8387 0.0
H3443 H 0.28683 0.62341 0.85418 0.0
H3444 H 0.28353 0.59221 0.86384 0.0
H3445 H 0.18562 0.65942 0.89219 0.0
H3446 H 0.20811 0.67678 0.87583 0.0
H3447 H 0.19142 0.65342 0.86003 0.0
H3448 H 0.26407 0.70136 0.82452 0.0
H3449 H 0.21835 0.65029 0.78588 0.0
H3450 H 0.2794 0.66342 0.87432 0.0
H3451 H 0.25423 0.6814 0.88305 0.0
H3452 H 0.27785 0.69474 0.86469 0.0
H3453 H 0.22471 0.60183 0.82099 0.0
H3454 H 0.2 0.61711 0.80624 0.0
H3455 H 0.20162 0.61504 0.83933 0.0
C3456 C 0.07678 0.48215 0.71392 0.0
C3457 C 0.06801 0.49667 0.73309 0.0
C3458 C 0.06675 0.4833 0.69014 0.0
C3459 C 0.04776 0.49959 0.6854 0.0
C3460 C 0.03875 0.5142 0.70466 0.0
C3461 C 0.04887 0.51244 0.72831 0.0
C3462 C 0.07656 0.46719 0.67006 0.0
C3463 C 0.0187 0.53199 0.70019 0.0
C3464 C 0.03856 0.51784 0.61857 0.0
C3465 C 0.01912 0.50283 0.61167 0.0
C3466 C 0.04764 0.5175 0.64277 0.0
C3467 C 0.03733 0.50138 0.66023 0.0
C3468 C 0.0174 0.48656 0.65351 0.0
C3469 C 0.00837 0.48764 0.62935 0.0
C3470 C 0.06858 0.53398 0.6495 0.0
C3471 C 0.00616 0.46892 0.67157 0.0
H3472 H 0.09151 0.46988 0.71749 0.0
H3473 H 0.04211 0.52392 0.74293 0.0
H3474 H 0.06186 0.45584 0.662 0.0
H3475 H 0.08404 0.47853 0.65495 0.0
H3476 H 0.09089 0.45501 0.67696 0.0
H3477 H 0.01373 0.54201 0.7172 0.0
H3478 H 0.02421 0.54538 0.68592 0.0
H3479 H 0.00251 0.52227 0.69305 0.0
H3480 H 0.04684 0.52967 0.60496 0.0
H3481 H 0.99348 0.47581 0.62406 0.0
H3482 H 0.08447 0.52289 0.65427 0.0
H3483 H 0.06417 0.54498 0.66602 0.0
H3484 H 0.07355 0.5465 0.63421 0.0
H3485 H 0.01965 0.45534 0.6774 0.0
H3486 H 0.99037 0.45909 0.66357 0.0
H3487 H 0.00036 0.47867 0.68841 0.0
C3488 C 0.23552 0.39514 0.41608 0.0
C3489 C 0.25432 0.38334 0.4283 0.0
C3490 C 0.23175 0.39155 0.39066 0.0
C3491 C 0.24714 0.37584 0.3776 0.0
C3492 C 0.26771 0.36628 0.38941 0.0
C3493 C 0.27099 0.3701 0.4147 0.0
C3494 C 0.21044 0.40307 0.3782 0.0
C3495 C 0.28517 0.35029 0.37583 0.0
C3496 C 0.22626 0.33102 0.32944 0.0
C3497 C 0.23894 0.33934 0.3088 0.0
C3498 C 0.22692 0.34412 0.35162 0.0
C3499 C 0.24027 0.36622 0.35296 0.0
C3500 C 0.25076 0.37603 0.33138 0.0
C3501 C 0.2502 0.36233 0.30955 0.0
C3502 C 0.21535 0.33305 0.37421 0.0
C3503 C 0.26421 0.40002 0.33142 0.0
H3504 H 0.2227 0.40555 0.42663 0.0
H3505 H 0.2858 0.36138 0.42415 0.0
H3506 H 0.21565 0.41053 0.35992 0.0
H3507 H 0.19622 0.38908 0.37499 0.0
H3508 H 0.20277 0.41789 0.38956 0.0
H3509 H 0.30108 0.3457 0.38732 0.0
H3510 H 0.276 0.33309 0.37021 0.0
H3511 H 0.29148 0.35951 0.35881 0.0
H3512 H 0.21731 0.31341 0.32885 0.0
H3513 H 0.25952 0.36919 0.29341 0.0
H3514 H 0.20474 0.34681 0.38423 0.0
H3515 H 0.22956 0.32655 0.38697 0.0
H3516 H 0.20334 0.31741 0.36948 0.0
H3517 H 0.26143 0.4108 0.34847 0.0
H3518 H 0.25835 0.41108 0.3154 0.0
H3519 H 0.28373 0.39666 0.32925 0.0
C3520 C 0.31744 0.40896 0.53686 0.0
C3521 C 0.32079 0.40617 0.51133 0.0
C3522 C 0.33579 0.4186 0.55195 0.0
C3523 C 0.35777 0.42594 0.54113 0.0
C3524 C 0.36053 0.42483 0.51513 0.0
C3525 C 0.34207 0.41474 0.50057 0.0
C3526 C 0.33225 0.41922 0.57956 0.0
C3527 C 0.38352 0.43308 0.5028 0.0
C3528 C 0.40706 0.46404 0.57024 0.0
C3529 C 0.42524 0.44669 0.57203 0.0
C3530 C 0.38388 0.45729 0.56228 0.0
C3531 C 0.37888 0.43259 0.5567 0.0
C3532 C 0.39628 0.41468 0.56192 0.0
C3533 C 0.41947 0.42202 0.56915 0.0
C3534 C 0.36589 0.47694 0.5569 0.0
C3535 C 0.39132 0.38804 0.5571 0.0
H3536 H 0.30107 0.40216 0.54533 0.0
H3537 H 0.34461 0.41278 0.48084 0.0
H3538 H 0.34208 0.4039 0.58809 0.0
H3539 H 0.3396 0.43631 0.58764 0.0
H3540 H 0.31297 0.41743 0.58458 0.0
H3541 H 0.38196 0.43302 0.48234 0.0
H3542 H 0.38852 0.45169 0.50901 0.0
H3543 H 0.39838 0.42085 0.50816 0.0
H3544 H 0.41161 0.48318 0.57218 0.0
H3545 H 0.43361 0.40866 0.5705 0.0
H3546 H 0.34742 0.47099 0.56184 0.0
H3547 H 0.36601 0.48096 0.53682 0.0
H3548 H 0.37034 0.49401 0.56702 0.0
H3549 H 0.37319 0.38272 0.56378 0.0
H3550 H 0.40488 0.3763 0.56616 0.0
H3551 H 0.3918 0.38455 0.53692 0.0
C3552 C 0.84778 0.10255 0.51224 0.0
C3553 C 0.84444 0.12357 0.49812 0.0
C3554 C 0.87006 0.09096 0.51274 0.0
C3555 C 0.88943 0.1008 0.49896 0.0
C3556 C 0.88676 0.12316 0.48646 0.0
C3557 C 0.86422 0.1343 0.48615 0.0
C3558 C 0.87237 0.06731 0.52669 0.0
C3559 C 0.90722 0.13451 0.47215 0.0
C3560 C 0.94827 0.07145 0.51521 0.0
C3561 C 0.94893 0.05249 0.49784 0.0
C3562 C 0.92997 0.08866 0.51465 0.0
C3563 C 0.91179 0.08663 0.49644 0.0
C3564 C 0.91353 0.0688 0.47759 0.0
C3565 C 0.93227 0.05194 0.47843 0.0
C3566 C 0.92908 0.10767 0.53476 0.0
C3567 C 0.89451 0.06628 0.45774 0.0
H3568 H 0.83261 0.09425 0.52163 0.0
H3569 H 0.86179 0.15067 0.47532 0.0
H3570 H 0.87549 0.05224 0.51347 0.0
H3571 H 0.88805 0.06816 0.5394 0.0
H3572 H 0.85605 0.06287 0.53761 0.0
H3573 H 0.90334 0.15354 0.46665 0.0
H3574 H 0.92407 0.1344 0.4832 0.0
H3575 H 0.91041 0.12372 0.45519 0.0
H3576 H 0.96142 0.0721 0.53007 0.0
H3577 H 0.9328 0.0373 0.46502 0.0
H3578 H 0.91597 0.10184 0.549 0.0
H3579 H 0.92311 0.12542 0.52735 0.0
H3580 H 0.94685 0.11028 0.54388 0.0
H3581 H 0.87748 0.05964 0.4661 0.0
H3582 H 0.89981 0.05333 0.44303 0.0
H3583 H 0.89086 0.08418 0.44918 0.0
C3584 C 0.63925 0.05865 0.29653 0.0
C3585 C 0.61457 0.05702 0.29144 0.0
C3586 C 0.65188 0.08052 0.29325 0.0
C3587 C 0.63947 0.10117 0.2846 0.0
C3588 C 0.61417 0.10028 0.2818 0.0
C3589 C 0.60193 0.07811 0.28535 0.0
C3590 C 0.67882 0.0809 0.29695 0.0
C3591 C 0.60031 0.12208 0.273 0.0
C3592 C 0.67691 0.15886 0.28477 0.0
C3593 C 0.68651 0.15856 0.26083 0.0
C3594 C 0.66036 0.1411 0.29241 0.0
C3595 C 0.65346 0.12248 0.27577 0.0
C3596 C 0.66205 0.12281 0.25116 0.0
C3597 C 0.67845 0.14098 0.24393 0.0
C3598 C 0.65128 0.14159 0.31864 0.0
C3599 C 0.65488 0.10326 0.23284 0.0
H3600 H 0.64898 0.04239 0.30157 0.0
H3601 H 0.58283 0.07692 0.28136 0.0
H3602 H 0.6878 0.08244 0.27876 0.0
H3603 H 0.68445 0.09692 0.30812 0.0
H3604 H 0.68529 0.06419 0.30626 0.0
H3605 H 0.60312 0.12446 0.25288 0.0
H3606 H 0.58071 0.11988 0.27631 0.0
H3607 H 0.60677 0.13893 0.2823 0.0
H3608 H 0.6827 0.17275 0.29781 0.0
H3609 H 0.6857 0.1408 0.22539 0.0
H3610 H 0.66011 0.12705 0.32945 0.0
H3611 H 0.63163 0.13801 0.31917 0.0
H3612 H 0.65514 0.15931 0.32783 0.0
H3613 H 0.66217 0.08554 0.23893 0.0
H3614 H 0.66164 0.10719 0.21398 0.0
H3615 H 0.63502 0.1013 0.23198 0.0
C3616 C 0.66406 0.89029 0.04669 0.0
C3617 C 0.67003 0.87353 0.02828 0.0
C3618 C 0.64279 0.90379 0.04499 0.0
C3619 C 0.62771 0.90103 0.02395 0.0
C3620 C 0.63302 0.88318 0.00605 0.0
C3621 C 0.65384 0.86933 0.0087 0.0
C3622 C 0.63711 0.92192 0.065 0.0
C3623 C 0.61778 0.87999 0.98306 0.0
C3624 C 0.56505 0.92778 0.02245 0.0
C3625 C 0.56927 0.95041 0.01112 0.0
C3626 C 0.58389 0.91157 0.02687 0.0
C3627 C 0.60749 0.91801 0.0196 0.0
C3628 C 0.61179 0.94054 0.00761 0.0
C3629 C 0.59267 0.95658 0.00375 0.0
C3630 C 0.57864 0.88778 0.0398 0.0
C3631 C 0.6366 0.9477 -0.00117 0.0
H3632 H 0.67646 0.89359 0.06187 0.0
H3633 H 0.65834 0.85653 0.99426 0.0
H3634 H 0.63969 0.94066 0.05784 0.0
H3635 H 0.61804 0.92001 0.07068 0.0
H3636 H 0.6488 0.91966 0.08152 0.0
H3637 H 0.62321 0.86398 0.97196 0.0
H3638 H 0.59853 0.87788 0.98787 0.0
H3639 H 0.61951 0.89648 0.97138 0.0
H3640 H 0.54708 0.92297 0.02855 0.0
H3641 H 0.59606 0.97399 0.99497 0.0
H3642 H 0.58771 0.88778 0.05809 0.0
H3643 H 0.58592 0.87231 0.02917 0.0
H3644 H 0.55907 0.88459 0.04245 0.0
H3645 H 0.64913 0.94902 0.01478 0.0
H3646 H 0.63676 0.96541 0.98897 0.0
H3647 H 0.6436 0.93353 0.98624 0.0
C3648 C 0.34878 0.462 0.25797 0.0
C3649 C 0.36204 0.45354 0.27835 0.0
C3650 C 0.3332 0.4466 0.24481 0.0
C3651 C 0.33049 0.42221 0.25239 0.0
C3652 C 0.34323 0.41362 0.27335 0.0
C3653 C 0.3591 0.42938 0.28598 0.0
C3654 C 0.32031 0.45624 0.22228 0.0
C3655 C 0.34032 0.38772 0.28219 0.0
C3656 C 0.27705 0.38373 0.23241 0.0
C3657 C 0.28799 0.36781 0.21584 0.0
C3658 C 0.29046 0.4024 0.24377 0.0
C3659 C 0.31506 0.40535 0.23783 0.0
C3660 C 0.32541 0.39091 0.21915 0.0
C3661 C 0.31175 0.37206 0.20853 0.0
C3662 C 0.27893 0.41749 0.26366 0.0
C3663 C 0.35145 0.39394 0.21191 0.0
H3664 H 0.35108 0.4806 0.25172 0.0
H3665 H 0.36922 0.42281 0.30173 0.0
H3666 H 0.32647 0.44644 0.20559 0.0
H3667 H 0.30067 0.45293 0.22382 0.0
H3668 H 0.32354 0.47603 0.21954 0.0
H3669 H 0.35063 0.38424 0.29942 0.0
H3670 H 0.32105 0.38353 0.28558 0.0
H3671 H 0.34654 0.37499 0.26772 0.0
H3672 H 0.25882 0.38 0.23846 0.0
H3673 H 0.32021 0.35941 0.19598 0.0
H3674 H 0.25954 0.41304 0.26594 0.0
H3675 H 0.28084 0.43712 0.2593 0.0
H3676 H 0.28829 0.41441 0.2815 0.0
H3677 H 0.35593 0.4134 0.20876 0.0
H3678 H 0.35576 0.38351 0.19495 0.0
H3679 H 0.36314 0.38744 0.22714 0.0
C3680 C 0.15435 0.58729 0.98359 0.0
C3681 C 0.17626 0.59143 0.99575 0.0
C3682 C 0.13451 0.5778 0.99633 0.0
C3683 C 0.13654 0.57307 0.02199 0.0
C3684 C 0.15894 0.5762 0.03411 0.0
C3685 C 0.17866 0.58508 0.02072 0.0
C3686 C 0.11102 0.57427 0.98259 0.0
C3687 C 0.16167 0.57203 0.06152 0.0
C3688 C 0.07567 0.57993 0.05104 0.0
C3689 C 0.06786 0.5557 0.05196 0.0
C3690 C 0.09915 0.58576 0.04372 0.0
C3691 C 0.11463 0.56689 0.03622 0.0
C3692 C 0.1074 0.5423 0.03903 0.0
C3693 C 0.08409 0.53698 0.0473 0.0
C3694 C 0.10655 0.6122 0.04178 0.0
C3695 C 0.12325 0.52174 0.03083 0.0
H3696 H 0.15253 0.59215 0.96427 0.0
H3697 H 0.19554 0.58861 0.03026 0.0
H3698 H 0.10222 0.55685 0.98787 0.0
H3699 H 0.09861 0.58914 0.98749 0.0
H3700 H 0.11354 0.57444 0.96225 0.0
H3701 H 0.18085 0.57127 0.06725 0.0
H3702 H 0.15309 0.58718 0.07162 0.0
H3703 H 0.1525 0.55495 0.06725 0.0
H3704 H 0.06293 0.59432 0.05438 0.0
H3705 H 0.07776 0.51824 0.0475 0.0
H3706 H 0.10624 0.61784 0.02212 0.0
H3707 H 0.12515 0.615 0.04881 0.0
H3708 H 0.09429 0.62419 0.05224 0.0
H3709 H 0.12536 0.52241 0.01048 0.0
H3710 H 0.11568 0.50365 0.0359 0.0
H3711 H 0.14145 0.5237 0.03908 0.0
C3712 C 0.66003 0.9144 0.2471 0.0
C3713 C 0.66498 0.93925 0.25027 0.0
C3714 C 0.67855 0.89736 0.24776 0.0
C3715 C 0.70256 0.90542 0.25173 0.0
C3716 C 0.70782 0.93057 0.25358 0.0
C3717 C 0.68893 0.94723 0.25279 0.0
C3718 C 0.67227 0.87065 0.2453 0.0
C3719 C 0.73321 0.93981 0.25757 0.0
C3720 C 0.74024 0.85626 0.28083 0.0
C3721 C 0.75002 0.84537 0.25983 0.0
C3722 C 0.72606 0.8771 0.27869 0.0
C3723 C 0.72178 0.88721 0.25504 0.0
C3724 C 0.7336 0.87772 0.23418 0.0
C3725 C 0.74761 0.8569 0.23683 0.0
C3726 C 0.71398 0.88698 0.30143 0.0
C3727 C 0.72978 0.88819 0.20871 0.0
H3728 H 0.64158 0.90815 0.24506 0.0
H3729 H 0.69288 0.96644 0.25524 0.0
H3730 H 0.68309 0.86228 0.23046 0.0
H3731 H 0.67667 0.8611 0.26276 0.0
H3732 H 0.65292 0.86751 0.24105 0.0
H3733 H 0.73463 0.9599 0.25569 0.0
H3734 H 0.73938 0.93475 0.27637 0.0
H3735 H 0.74562 0.93129 0.24423 0.0
H3736 H 0.74208 0.84748 0.29865 0.0
H3737 H 0.75544 0.84875 0.22055 0.0
H3738 H 0.69448 0.88253 0.30064 0.0
H3739 H 0.71585 0.90708 0.30221 0.0
H3740 H 0.72154 0.87919 0.31868 0.0
H3741 H 0.7116 0.88292 0.20191 0.0
H3742 H 0.74323 0.88146 0.19532 0.0
H3743 H 0.73074 0.90835 0.20916 0.0
C3744 C 0.83554 0.10827 0.73699 0.0
C3745 C 0.83008 0.08377 0.74155 0.0
C3746 C 0.81733 0.12559 0.73547 0.0
C3747 C 0.79309 0.11823 0.73892 0.0
C3748 C 0.78737 0.09336 0.74263 0.0
C3749 C 0.80597 0.07635 0.74373 0.0
C3750 C 0.82416 0.15191 0.73103 0.0
C3751 C 0.76177 0.0849 0.74665 0.0
C3752 C 0.75556 0.17049 0.76166 0.0
C3753 C 0.7457 0.17904 0.73947 0.0
C3754 C 0.76962 0.14948 0.76207 0.0
C3755 C 0.77409 0.13694 0.73974 0.0
C3756 C 0.76259 0.14432 0.71769 0.0
C3757 C 0.74836 0.16518 0.71787 0.0
C3758 C 0.78114 0.14179 0.78609 0.0
C3759 C 0.76694 0.13147 0.6935 0.0
H3760 H 0.85416 0.11404 0.7352 0.0
H3761 H 0.80169 0.05743 0.74747 0.0
H3762 H 0.8139 0.15917 0.71509 0.0
H3763 H 0.81953 0.163 0.74742 0.0
H3764 H 0.84366 0.1543 0.72734 0.0
H3765 H 0.76008 0.06475 0.7469 0.0
H3766 H 0.75525 0.09206 0.76454 0.0
H3767 H 0.7498 0.0921 0.73201 0.0
H3768 H 0.75339 0.1809 0.77849 0.0
H3769 H 0.74071 0.17152 0.70062 0.0
H3770 H 0.80066 0.14615 0.78561 0.0
H3771 H 0.77919 0.12186 0.78871 0.0
H3772 H 0.7732 0.15118 0.80223 0.0
H3773 H 0.78546 0.1357 0.68713 0.0
H3774 H 0.7541 0.13719 0.6789 0.0
H3775 H 0.76551 0.11147 0.69578 0.0
loop_
_geom_bond_atom_site_label_1
_geom_bond_atom_site_label_2
_geom_bond_distance
_geom_bond_site_symmetry_2
_ccdc_geom_bond_type
Co0 O1 2.210 1_455 S
Co0 O2 2.087 1_455 S
Co0 O4 2.010 . S
Co0 O10 2.021 . S
Co0 O12 2.137 1_455 S
Co0 O13 2.246 . S
O1 Co0 2.210 1_655 S
O1 C8 1.247 . S
O2 Co0 2.087 1_655 S
O2 C8 1.261 . S
C3 O12 1.247 1_455 S
C3 O13 1.272 . S
O4 Co0 2.010 . S
O4 C9 1.259 . S
Co5 O6 2.061 . S
Co5 O11 2.052 . S
Co5 O13 2.135 . S
O6 Co5 2.061 . S
O6 C9 1.235 . S
C7 O10 1.238 . S
C7 O11 1.241 . S
C8 O1 1.247 . S
C8 O2 1.261 . S
C9 O4 1.259 . S
C9 O6 1.235 . S
O10 Co0 2.021 . S
O10 C7 1.238 . S
O11 Co5 2.052 . S
O11 C7 1.241 . S
O12 Co0 2.137 1_655 S
O12 C3 1.247 1_655 S
O13 Co0 2.246 . S
O13 C3 1.272 . S
O13 Co5 2.135 . S
Co14 O15 2.216 . S
Co14 O16 2.091 . S
Co14 O18 2.004 1_455 S
Co14 O24 2.021 . S
Co14 O26 2.137 . S
Co14 O27 2.230 1_455 S
O15 Co14 2.216 . S
O15 C22 1.247 . S
O16 Co14 2.091 . S
O16 C22 1.261 . S
C17 O26 1.247 . S
C17 O27 1.259 1_455 S
O18 Co14 2.004 1_655 S
O18 C23 1.259 . S
Co19 O20 2.061 . S
Co19 O25 2.052 . S
Co19 O27 2.173 . S
O20 Co19 2.061 . S
O20 C23 1.235 . S
C21 O24 1.238 . S
C21 O25 1.241 1_455 S
C22 O15 1.247 . S
C22 O16 1.261 . S
C23 O18 1.259 . S
C23 O20 1.235 . S
O24 Co14 2.021 . S
O24 C21 1.238 . S
O25 Co19 2.052 . S
O25 C21 1.241 1_655 S
O26 Co14 2.137 . S
O26 C17 1.247 . S
O27 Co14 2.230 1_655 S
O27 C17 1.259 1_655 S
O27 Co19 2.173 . S
Co28 O29 2.216 . S
Co28 O30 2.091 . S
Co28 O32 2.004 . S
Co28 O38 2.021 . S
Co28 O40 2.137 . S
Co28 O41 2.244 . S
O29 Co28 2.216 . S
O29 C36 1.247 . S
O30 Co28 2.091 . S
O30 C36 1.261 . S
C31 O40 1.247 . S
C31 O41 1.272 . S
O32 Co28 2.004 . S
O32 C37 1.259 . S
Co33 O34 2.061 . S
Co33 O39 2.052 . S
Co33 O41 2.135 . S
O34 Co33 2.061 . S
O34 C37 1.235 . S
C35 O38 1.238 . S
C35 O39 1.241 . S
C36 O29 1.247 . S
C36 O30 1.261 . S
C37 O32 1.259 . S
C37 O34 1.235 . S
O38 Co28 2.021 . S
O38 C35 1.238 . S
O39 Co33 2.052 . S
O39 C35 1.241 . S
O40 Co28 2.137 . S
O40 C31 1.247 . S
O41 Co28 2.244 . S
O41 C31 1.272 . S
O41 Co33 2.135 . S
Co42 O43 2.216 . S
Co42 O44 2.091 . S
Co42 O46 2.004 . S
Co42 O52 2.021 . S
Co42 O54 2.137 . S
Co42 O55 2.244 . S
O43 Co42 2.216 . S
O43 C50 1.247 . S
O44 Co42 2.091 . S
O44 C50 1.261 . S
C45 O54 1.247 . S
C45 O55 1.272 . S
O46 Co42 2.004 . S
O46 C51 1.259 . S
Co47 O48 2.061 . S
Co47 O53 2.052 . S
Co47 O55 2.135 . S
O48 Co47 2.061 . S
O48 C51 1.235 . S
C49 O52 1.238 . S
C49 O53 1.241 . S
C50 O43 1.247 . S
C50 O44 1.261 . S
C51 O46 1.259 . S
C51 O48 1.235 . S
O52 Co42 2.021 . S
O52 C49 1.238 . S
O53 Co47 2.052 . S
O53 C49 1.241 . S
O54 Co42 2.137 . S
O54 C45 1.247 . S
O55 Co42 2.244 . S
O55 C45 1.272 . S
O55 Co47 2.135 . S
Co56 O57 2.216 1_545 S
Co56 O58 2.091 1_545 S
Co56 O60 2.004 . S
Co56 O66 2.021 . S
Co56 O68 2.137 . S
Co56 O69 2.244 . S
O57 Co56 2.216 1_565 S
O57 C64 1.247 . S
O58 Co56 2.091 1_565 S
O58 C64 1.261 . S
C59 O68 1.247 . S
C59 O69 1.272 . S
O60 Co56 2.004 . S
O60 C65 1.259 . S
Co61 O62 2.061 . S
Co61 O67 2.052 . S
Co61 O69 2.135 . S
O62 Co61 2.061 . S
O62 C65 1.235 . S
C63 O66 1.238 . S
C63 O67 1.241 . S
C64 O57 1.247 . S
C64 O58 1.261 . S
C65 O60 1.259 . S
C65 O62 1.235 . S
O66 Co56 2.021 . S
O66 C63 1.238 . S
O67 Co61 2.052 . S
O67 C63 1.241 . S
O68 Co56 2.137 . S
O68 C59 1.247 . S
O69 Co56 2.244 . S
O69 C59 1.272 . S
O69 Co61 2.135 . S
Co70 O71 2.216 . S
Co70 O72 2.091 . S
Co70 O74 2.004 . S
Co70 O80 2.021 . S
Co70 O82 2.137 . S
Co70 O83 2.244 . S
O71 Co70 2.216 . S
O71 C78 1.247 . S
O72 Co70 2.091 . S
O72 C78 1.261 . S
C73 O82 1.247 . S
C73 O83 1.272 . S
O74 Co70 2.004 . S
O74 C79 1.259 . S
Co75 O76 2.061 . S
Co75 O81 2.052 . S
Co75 O83 2.135 . S
O76 Co75 2.061 . S
O76 C79 1.235 . S
C77 O80 1.238 . S
C77 O81 1.241 . S
C78 O71 1.247 . S
C78 O72 1.261 . S
C79 O74 1.259 . S
C79 O76 1.235 . S
O80 Co70 2.021 . S
O80 C77 1.238 . S
O81 Co75 2.052 . S
O81 C77 1.241 . S
O82 Co70 2.137 . S
O82 C73 1.247 . S
O83 Co70 2.244 . S
O83 C73 1.272 . S
O83 Co75 2.135 . S
Co84 O85 2.216 . S
Co84 O86 2.091 . S
Co84 O88 2.004 1_545 S
Co84 O94 2.021 . S
Co84 O96 2.137 . S
Co84 O97 2.244 1_545 S
O85 Co84 2.216 . S
O85 C92 1.247 . S
O86 Co84 2.091 . S
O86 C92 1.261 . S
C87 O96 1.250 . S
C87 O97 1.269 1_545 S
O88 Co84 2.004 1_565 S
O88 C93 1.259 . S
Co89 O90 2.061 . S
Co89 O95 2.052 . S
Co89 O97 2.135 . S
O90 Co89 2.061 . S
O90 C93 1.235 . S
C91 O94 1.238 1_565 S
C91 O95 1.241 . S
C92 O85 1.247 . S
C92 O86 1.261 . S
C93 O88 1.259 . S
C93 O90 1.235 . S
O94 Co84 2.021 . S
O94 C91 1.238 1_545 S
O95 Co89 2.052 . S
O95 C91 1.241 . S
O96 Co84 2.137 . S
O96 C87 1.250 . S
O97 Co84 2.244 1_565 S
O97 C87 1.269 1_565 S
O97 Co89 2.135 . S
Co98 O99 2.216 . S
Co98 O100 2.091 . S
Co98 O102 2.004 . S
Co98 O108 2.021 . S
Co98 O110 2.137 1_554 S
Co98 O111 2.244 1_554 S
O99 Co98 2.216 . S
O99 C106 1.247 . S
O100 Co98 2.091 . S
O100 C106 1.261 . S
C101 O110 1.247 . S
C101 O111 1.272 . S
O102 Co98 2.004 . S
O102 C107 1.259 . S
Co103 O104 2.061 . S
Co103 O109 2.052 . S
Co103 O111 2.135 1_554 S
O104 Co103 2.061 . S
O104 C107 1.235 . S
C105 O108 1.238 . S
C105 O109 1.241 . S
C106 O99 1.247 . S
C106 O100 1.261 . S
C107 O102 1.259 . S
C107 O104 1.235 . S
O108 Co98 2.021 . S
O108 C105 1.238 . S
O109 Co103 2.052 . S
O109 C105 1.241 . S
O110 Co98 2.137 1_556 S
O110 C101 1.247 . S
O111 Co98 2.244 1_556 S
O111 C101 1.272 . S
O111 Co103 2.135 1_556 S
Co112 O113 2.216 . S
Co112 O114 2.091 . S
Co112 O116 2.004 . S
Co112 O122 2.021 . S
Co112 O124 2.137 1_554 S
Co112 O125 2.244 1_554 S
O113 Co112 2.216 . S
O113 C120 1.247 . S
O114 Co112 2.091 . S
O114 C120 1.261 . S
C115 O124 1.247 . S
C115 O125 1.272 . S
O116 Co112 2.004 . S
O116 C121 1.259 . S
Co117 O118 2.061 . S
Co117 O123 2.052 . S
Co117 O125 2.135 1_554 S
O118 Co117 2.061 . S
O118 C121 1.235 . S
C119 O122 1.238 . S
C119 O123 1.241 . S
C120 O113 1.247 . S
C120 O114 1.261 . S
C121 O116 1.259 . S
C121 O118 1.235 . S
O122 Co112 2.021 . S
O122 C119 1.238 . S
O123 Co117 2.052 . S
O123 C119 1.241 . S
O124 Co112 2.137 1_556 S
O124 C115 1.247 . S
O125 Co112 2.244 1_556 S
O125 C115 1.272 . S
O125 Co117 2.135 1_556 S
Co126 O127 2.216 . S
Co126 O128 2.091 . S
Co126 O130 2.004 . S
Co126 O136 2.021 . S
Co126 O138 2.137 . S
Co126 O139 2.244 . S
O127 Co126 2.216 . S
O127 C134 1.247 . S
O128 Co126 2.091 . S
O128 C134 1.261 . S
C129 O138 1.247 . S
C129 O139 1.272 . S
O130 Co126 2.004 . S
O130 C135 1.259 . S
Co131 O132 2.061 . S
Co131 O137 2.052 . S
Co131 O139 2.135 . S
O132 Co131 2.061 . S
O132 C135 1.235 . S
C133 O136 1.238 . S
C133 O137 1.241 . S
C134 O127 1.247 . S
C134 O128 1.261 . S
C135 O130 1.259 . S
C135 O132 1.235 . S
O136 Co126 2.021 . S
O136 C133 1.238 . S
O137 Co131 2.052 . S
O137 C133 1.241 . S
O138 Co126 2.137 . S
O138 C129 1.247 . S
O139 Co126 2.244 . S
O139 C129 1.272 . S
O139 Co131 2.135 . S
Co140 O141 2.216 . S
Co140 O142 2.091 . S
Co140 O144 2.004 . S
Co140 O150 2.021 . S
Co140 O152 2.137 . S
Co140 O153 2.244 . S
O141 Co140 2.216 . S
O141 C148 1.247 . S
O142 Co140 2.091 . S
O142 C148 1.261 . S
C143 O152 1.247 . S
C143 O153 1.272 . S
O144 Co140 2.004 . S
O144 C149 1.259 . S
Co145 O146 2.061 . S
Co145 O151 2.052 . S
Co145 O153 2.135 . S
O146 Co145 2.061 . S
O146 C149 1.235 . S
C147 O150 1.238 . S
C147 O151 1.241 . S
C148 O141 1.247 . S
C148 O142 1.261 . S
C149 O144 1.259 . S
C149 O146 1.235 . S
O150 Co140 2.021 . S
O150 C147 1.238 . S
O151 Co145 2.052 . S
O151 C147 1.241 . S
O152 Co140 2.137 . S
O152 C143 1.247 . S
O153 Co140 2.244 . S
O153 C143 1.272 . S
O153 Co145 2.135 . S
Co154 O155 2.216 . S
Co154 O156 2.091 . S
Co154 O158 2.004 . S
Co154 O164 2.021 . S
Co154 O166 2.137 . S
Co154 O167 2.244 . S
O155 Co154 2.216 . S
O155 C162 1.247 . S
O156 Co154 2.091 . S
O156 C162 1.261 . S
C157 O166 1.247 . S
C157 O167 1.272 . S
O158 Co154 2.004 . S
O158 C163 1.259 . S
Co159 O160 2.061 . S
Co159 O165 2.052 . S
Co159 O167 2.135 . S
O160 Co159 2.061 . S
O160 C163 1.235 . S
C161 O164 1.238 . S
C161 O165 1.241 . S
C162 O155 1.247 . S
C162 O156 1.261 . S
C163 O158 1.259 . S
C163 O160 1.235 . S
O164 Co154 2.021 . S
O164 C161 1.238 . S
O165 Co159 2.052 . S
O165 C161 1.241 . S
O166 Co154 2.137 . S
O166 C157 1.247 . S
O167 Co154 2.244 . S
O167 C157 1.272 . S
O167 Co159 2.135 . S
Co168 O169 2.216 . S
Co168 O170 2.091 . S
Co168 O172 2.004 1_455 S
Co168 O178 2.021 . S
Co168 O180 2.137 . S
Co168 O181 2.244 1_455 S
O169 Co168 2.216 . S
O169 C176 1.247 . S
O170 Co168 2.091 . S
O170 C176 1.261 . S
C171 O180 1.247 . S
C171 O181 1.272 1_455 S
O172 Co168 2.004 1_655 S
O172 C177 1.259 . S
Co173 O174 2.061 . S
Co173 O179 2.052 . S
Co173 O181 2.135 . S
O174 Co173 2.061 . S
O174 C177 1.235 . S
C175 O178 1.250 . S
C175 O179 1.221 1_455 S
C176 O169 1.247 . S
C176 O170 1.261 . S
C177 O172 1.259 . S
C177 O174 1.235 . S
O178 Co168 2.021 . S
O178 C175 1.250 . S
O179 Co173 2.052 . S
O179 C175 1.221 1_655 S
O180 Co168 2.137 . S
O180 C171 1.247 . S
O181 Co168 2.244 1_655 S
O181 C171 1.272 1_655 S
O181 Co173 2.135 . S
Co182 O183 2.173 1_455 S
Co182 O184 2.063 1_455 S
Co182 O186 2.043 . S
Co182 O192 2.024 . S
Co182 O194 2.135 1_455 S
Co182 O195 2.257 . S
O183 Co182 2.173 1_655 S
O183 C190 1.247 . S
O184 Co182 2.063 1_655 S
O184 C190 1.261 . S
C185 O194 1.247 1_455 S
C185 O195 1.272 . S
O186 Co182 2.043 . S
O186 C191 1.259 . S
Co187 O188 2.061 . S
Co187 O193 2.052 . S
Co187 O195 2.135 . S
O188 Co187 2.061 . S
O188 C191 1.235 . S
C189 O192 1.238 . S
C189 O193 1.241 . S
C190 O183 1.247 . S
C190 O184 1.261 . S
C191 O186 1.259 . S
C191 O188 1.235 . S
O192 Co182 2.024 . S
O192 C189 1.238 . S
O193 Co187 2.052 . S
O193 C189 1.241 . S
O194 Co182 2.135 1_655 S
O194 C185 1.247 1_655 S
O195 Co182 2.257 . S
O195 C185 1.272 . S
O195 Co187 2.135 . S
Co196 O197 2.216 . S
Co196 O198 2.091 . S
Co196 O200 2.004 . S
Co196 O206 2.021 . S
Co196 O208 2.137 . S
Co196 O209 2.244 . S
O197 Co196 2.216 . S
O197 C204 1.247 . S
O198 Co196 2.091 . S
O198 C204 1.261 . S
C199 O208 1.247 . S
C199 O209 1.272 . S
O200 Co196 2.004 . S
O200 C205 1.259 . S
Co201 O202 2.061 . S
Co201 O207 2.052 . S
Co201 O209 2.135 . S
O202 Co201 2.061 . S
O202 C205 1.235 . S
C203 O206 1.238 . S
C203 O207 1.241 . S
C204 O197 1.247 . S
C204 O198 1.261 . S
C205 O200 1.259 . S
C205 O202 1.235 . S
O206 Co196 2.021 . S
O206 C203 1.238 . S
O207 Co201 2.052 . S
O207 C203 1.241 . S
O208 Co196 2.137 . S
O208 C199 1.247 . S
O209 Co196 2.244 . S
O209 C199 1.272 . S
O209 Co201 2.135 . S
Co210 O211 2.216 . S
Co210 O212 2.091 . S
Co210 O214 2.004 . S
Co210 O220 2.021 . S
Co210 O222 2.137 . S
Co210 O223 2.244 . S
O211 Co210 2.216 . S
O211 C218 1.247 . S
O212 Co210 2.091 . S
O212 C218 1.261 . S
C213 O222 1.247 . S
C213 O223 1.272 . S
O214 Co210 2.004 . S
O214 C219 1.259 . S
Co215 O216 2.061 . S
Co215 O221 2.052 . S
Co215 O223 2.135 . S
O216 Co215 2.061 . S
O216 C219 1.235 . S
C217 O220 1.238 . S
C217 O221 1.241 . S
C218 O211 1.247 . S
C218 O212 1.261 . S
C219 O214 1.259 . S
C219 O216 1.235 . S
O220 Co210 2.021 . S
O220 C217 1.238 . S
O221 Co215 2.052 . S
O221 C217 1.241 . S
O222 Co210 2.137 . S
O222 C213 1.247 . S
O223 Co210 2.244 . S
O223 C213 1.272 . S
O223 Co215 2.135 . S
Co224 O225 2.216 . S
Co224 O226 2.091 . S
Co224 O228 2.004 1_545 S
Co224 O234 2.021 . S
Co224 O236 2.137 . S
Co224 O237 2.244 . S
O225 Co224 2.216 . S
O225 C232 1.247 . S
O226 Co224 2.091 . S
O226 C232 1.261 . S
C227 O236 1.247 . S
C227 O237 1.272 . S
O228 Co224 2.004 1_565 S
O228 C233 1.259 . S
Co229 O230 2.061 . S
Co229 O235 2.052 1_565 S
Co229 O237 2.135 1_565 S
O230 Co229 2.061 . S
O230 C233 1.235 . S
C231 O234 1.238 . S
C231 O235 1.241 . S
C232 O225 1.247 . S
C232 O226 1.261 . S
C233 O228 1.259 . S
C233 O230 1.235 . S
O234 Co224 2.021 . S
O234 C231 1.238 . S
O235 Co229 2.052 1_545 S
O235 C231 1.241 . S
O236 Co224 2.137 . S
O236 C227 1.247 . S
O237 Co224 2.244 . S
O237 C227 1.272 . S
O237 Co229 2.135 1_545 S
Co238 O239 2.216 . S
Co238 O240 2.091 . S
Co238 O242 2.004 . S
Co238 O248 2.021 . S
Co238 O250 2.137 . S
Co238 O251 2.244 . S
O239 Co238 2.216 . S
O239 C246 1.247 . S
O240 Co238 2.091 . S
O240 C246 1.261 . S
C241 O250 1.247 . S
C241 O251 1.272 . S
O242 Co238 2.004 . S
O242 C247 1.259 . S
Co243 O244 2.061 . S
Co243 O249 2.052 . S
Co243 O251 2.135 . S
O244 Co243 2.061 . S
O244 C247 1.235 . S
C245 O248 1.238 . S
C245 O249 1.241 . S
C246 O239 1.247 . S
C246 O240 1.261 . S
C247 O242 1.259 . S
C247 O244 1.235 . S
O248 Co238 2.021 . S
O248 C245 1.238 . S
O249 Co243 2.052 . S
O249 C245 1.241 . S
O250 Co238 2.137 . S
O250 C241 1.247 . S
O251 Co238 2.244 . S
O251 C241 1.272 . S
O251 Co243 2.135 . S
Co252 O253 2.216 . S
Co252 O254 2.091 . S
Co252 O256 2.004 1_565 S
Co252 O262 2.021 . S
Co252 O264 2.137 . S
Co252 O265 2.244 1_565 S
O253 Co252 2.216 . S
O253 C260 1.247 . S
O254 Co252 2.091 . S
O254 C260 1.261 . S
C255 O264 1.247 1_545 S
C255 O265 1.272 . S
O256 Co252 2.004 1_545 S
O256 C261 1.259 . S
Co257 O258 2.061 . S
Co257 O263 2.052 . S
Co257 O265 2.135 . S
O258 Co257 2.061 . S
O258 C261 1.235 . S
C259 O262 1.238 1_545 S
C259 O263 1.241 . S
C260 O253 1.247 . S
C260 O254 1.261 . S
C261 O256 1.259 . S
C261 O258 1.235 . S
O262 Co252 2.021 . S
O262 C259 1.238 1_565 S
O263 Co257 2.052 . S
O263 C259 1.241 . S
O264 Co252 2.137 . S
O264 C255 1.247 1_565 S
O265 Co252 2.244 1_545 S
O265 C255 1.272 . S
O265 Co257 2.135 . S
Co266 O267 2.215 1_556 S
Co266 O268 2.087 1_556 S
Co266 O270 2.004 . S
Co266 O276 1.989 1_556 S
Co266 O278 2.171 . S
Co266 O279 2.259 . S
O267 Co266 2.215 1_554 S
O267 C274 1.248 . S
O268 Co266 2.087 1_554 S
O268 C274 1.261 . S
C269 O278 1.247 . S
C269 O279 1.272 . S
O270 Co266 2.004 . S
O270 C275 1.254 1_556 S
Co271 O272 2.061 . S
Co271 O277 2.052 . S
Co271 O279 2.135 1_554 S
O272 Co271 2.061 . S
O272 C275 1.235 . S
C273 O276 1.238 . S
C273 O277 1.241 . S
C274 O267 1.248 . S
C274 O268 1.261 . S
C275 O270 1.254 1_554 S
C275 O272 1.235 . S
O276 Co266 1.989 1_554 S
O276 C273 1.238 . S
O277 Co271 2.052 . S
O277 C273 1.241 . S
O278 Co266 2.171 . S
O278 C269 1.247 . S
O279 Co266 2.259 . S
O279 C269 1.272 . S
O279 Co271 2.135 1_556 S
Co280 O281 2.216 . S
Co280 O282 2.091 1_556 S
Co280 O284 2.004 . S
Co280 O290 2.021 1_556 S
Co280 O292 2.137 . S
Co280 O293 2.244 . S
O281 Co280 2.216 . S
O281 C288 1.247 1_556 S
O282 Co280 2.091 1_554 S
O282 C288 1.261 . S
C283 O292 1.247 . S
C283 O293 1.272 . S
O284 Co280 2.004 . S
O284 C289 1.259 1_556 S
Co285 O286 2.061 . S
Co285 O291 2.052 . S
Co285 O293 2.135 1_554 S
O286 Co285 2.061 . S
O286 C289 1.235 . S
C287 O290 1.238 . S
C287 O291 1.241 . S
C288 O281 1.247 1_554 S
C288 O282 1.261 . S
C289 O284 1.259 1_554 S
C289 O286 1.235 . S
O290 Co280 2.021 1_554 S
O290 C287 1.238 . S
O291 Co285 2.052 . S
O291 C287 1.241 . S
O292 Co280 2.137 . S
O292 C283 1.247 . S
O293 Co280 2.244 . S
O293 C283 1.272 . S
O293 Co285 2.135 1_556 S
Co294 O295 2.216 . S
Co294 O296 2.091 . S
Co294 O298 2.004 . S
Co294 O304 2.021 . S
Co294 O306 2.137 . S
Co294 O307 2.244 . S
O295 Co294 2.216 . S
O295 C302 1.247 . S
O296 Co294 2.091 . S
O296 C302 1.261 . S
C297 O306 1.247 . S
C297 O307 1.272 . S
O298 Co294 2.004 . S
O298 C303 1.259 . S
Co299 O300 2.061 . S
Co299 O305 2.052 . S
Co299 O307 2.135 . S
O300 Co299 2.061 . S
O300 C303 1.235 . S
C301 O304 1.238 . S
C301 O305 1.241 . S
C302 O295 1.247 . S
C302 O296 1.261 . S
C303 O298 1.259 . S
C303 O300 1.235 . S
O304 Co294 2.021 . S
O304 C301 1.238 . S
O305 Co299 2.052 . S
O305 C301 1.241 . S
O306 Co294 2.137 . S
O306 C297 1.247 . S
O307 Co294 2.244 . S
O307 C297 1.272 . S
O307 Co299 2.135 . S
Co308 O309 2.216 . S
Co308 O310 2.091 . S
Co308 O312 2.004 . S
Co308 O318 2.021 . S
Co308 O320 2.137 . S
Co308 O321 2.244 . S
O309 Co308 2.216 . S
O309 C316 1.247 . S
O310 Co308 2.091 . S
O310 C316 1.261 . S
C311 O320 1.247 . S
C311 O321 1.272 . S
O312 Co308 2.004 . S
O312 C317 1.259 . S
Co313 O314 2.061 . S
Co313 O319 2.052 . S
Co313 O321 2.135 . S
O314 Co313 2.061 . S
O314 C317 1.235 . S
C315 O318 1.238 . S
C315 O319 1.241 . S
C316 O309 1.247 . S
C316 O310 1.261 . S
C317 O312 1.259 . S
C317 O314 1.235 . S
O318 Co308 2.021 . S
O318 C315 1.238 . S
O319 Co313 2.052 . S
O319 C315 1.241 . S
O320 Co308 2.137 . S
O320 C311 1.247 . S
O321 Co308 2.244 . S
O321 C311 1.272 . S
O321 Co313 2.135 . S
Co322 O323 2.216 . S
Co322 O324 2.091 . S
Co322 O326 2.004 . S
Co322 O332 2.021 . S
Co322 O334 2.137 . S
Co322 O335 2.244 . S
O323 Co322 2.216 . S
O323 C330 1.247 . S
O324 Co322 2.091 . S
O324 C330 1.261 . S
C325 O334 1.247 . S
C325 O335 1.272 . S
O326 Co322 2.004 . S
O326 C331 1.259 . S
Co327 O328 2.061 . S
Co327 O333 2.052 . S
Co327 O335 2.135 . S
O328 Co327 2.061 . S
O328 C331 1.235 . S
C329 O332 1.238 . S
C329 O333 1.241 . S
C330 O323 1.247 . S
C330 O324 1.261 . S
C331 O326 1.259 . S
C331 O328 1.235 . S
O332 Co322 2.021 . S
O332 C329 1.238 . S
O333 Co327 2.052 . S
O333 C329 1.241 . S
O334 Co322 2.137 . S
O334 C325 1.247 . S
O335 Co322 2.244 . S
O335 C325 1.272 . S
O335 Co327 2.135 . S
O336 Zn337 1.953 . S
O336 C352 1.225 1_455 S
Zn337 O336 1.953 . S
Zn337 O338 1.954 . S
Zn337 O344 1.919 1_554 S
Zn337 O349 1.924 1_454 S
O338 Zn337 1.954 . S
O338 Zn339 1.935 1_545 S
O338 Zn340 1.941 1_455 S
O338 Zn341 1.937 1_444 S
Zn339 O338 1.935 1_565 S
Zn339 O342 1.933 . S
Zn339 O345 1.941 1_565 S
Zn339 O346 1.965 . S
Zn340 O338 1.941 1_655 S
Zn340 O347 1.938 . S
Zn340 O348 1.906 1_545 S
Zn340 O358 1.953 . S
Zn341 O338 1.937 1_666 S
Zn341 O343 1.932 . S
Zn341 O350 1.977 1_556 S
Zn341 O351 1.910 1_565 S
O342 Zn339 1.933 . S
O342 C353 1.226 1_554 S
O343 Zn341 1.932 . S
O343 C353 1.307 1_655 S
O344 Zn337 1.919 1_556 S
O344 C355 1.253 1_556 S
O345 Zn339 1.941 1_545 S
O345 C355 1.283 . S
O346 Zn339 1.965 . S
O346 C354 1.300 1_565 S
O347 Zn340 1.938 . S
O347 C354 1.249 1_655 S
O348 Zn340 1.906 1_565 S
O348 C356 1.304 . S
O349 Zn337 1.924 1_656 S
O349 C357 1.311 . S
O350 Zn341 1.977 1_554 S
O350 C356 1.272 . S
O351 Zn341 1.910 1_545 S
O351 C357 1.231 . S
C352 O336 1.225 1_655 S
C352 O358 1.298 . S
C353 O342 1.226 1_556 S
C353 O343 1.307 1_455 S
C354 O346 1.300 1_545 S
C354 O347 1.249 1_455 S
C355 O344 1.253 1_554 S
C355 O345 1.283 . S
C356 O348 1.304 . S
C356 O350 1.272 . S
C357 O349 1.311 . S
C357 O351 1.231 . S
O358 Zn340 1.953 . S
O358 C352 1.298 . S
O359 Zn360 1.953 . S
O359 C375 1.225 . S
Zn360 O359 1.953 . S
Zn360 O361 1.949 . S
Zn360 O367 1.919 . S
Zn360 O372 1.924 . S
O361 Zn360 1.949 . S
O361 Zn362 1.923 . S
O361 Zn363 1.950 . S
O361 Zn364 1.945 . S
Zn362 O361 1.923 . S
Zn362 O365 1.933 . S
Zn362 O368 1.941 . S
Zn362 O369 1.965 . S
Zn363 O361 1.950 . S
Zn363 O370 1.938 . S
Zn363 O371 1.906 . S
Zn363 O381 1.953 . S
Zn364 O361 1.945 . S
Zn364 O366 1.932 . S
Zn364 O373 1.977 . S
Zn364 O374 1.910 . S
O365 Zn362 1.933 . S
O365 C376 1.226 . S
O366 Zn364 1.932 . S
O366 C376 1.307 . S
O367 Zn360 1.919 . S
O367 C378 1.253 . S
O368 Zn362 1.941 . S
O368 C378 1.283 . S
O369 Zn362 1.965 . S
O369 C377 1.303 . S
O370 Zn363 1.938 . S
O370 C377 1.247 . S
O371 Zn363 1.906 . S
O371 C379 1.304 . S
O372 Zn360 1.924 . S
O372 C380 1.311 . S
O373 Zn364 1.977 . S
O373 C379 1.272 . S
O374 Zn364 1.910 . S
O374 C380 1.231 . S
C375 O359 1.225 . S
C375 O381 1.298 . S
C376 O365 1.226 . S
C376 O366 1.307 . S
C377 O369 1.303 . S
C377 O370 1.247 . S
C378 O367 1.253 . S
C378 O368 1.283 . S
C379 O371 1.304 . S
C379 O373 1.272 . S
C380 O372 1.311 . S
C380 O374 1.231 . S
O381 Zn363 1.953 . S
O381 C375 1.298 . S
O382 Zn383 1.953 . S
O382 C398 1.225 . S
Zn383 O382 1.953 . S
Zn383 O384 1.949 1_565 S
Zn383 O390 1.919 . S
Zn383 O395 1.924 . S
O384 Zn383 1.949 1_545 S
O384 Zn385 1.923 . S
O384 Zn386 1.950 . S
O384 Zn387 1.945 . S
Zn385 O384 1.923 . S
Zn385 O388 1.933 . S
Zn385 O391 1.941 . S
Zn385 O392 1.965 . S
Zn386 O384 1.950 . S
Zn386 O393 1.938 . S
Zn386 O394 1.906 . S
Zn386 O404 1.953 1_545 S
Zn387 O384 1.945 . S
Zn387 O389 1.932 . S
Zn387 O396 1.977 . S
Zn387 O397 1.910 . S
O388 Zn385 1.933 . S
O388 C399 1.226 . S
O389 Zn387 1.932 . S
O389 C399 1.307 . S
O390 Zn383 1.919 . S
O390 C401 1.253 . S
O391 Zn385 1.941 . S
O391 C401 1.283 1_545 S
O392 Zn385 1.965 . S
O392 C400 1.303 . S
O393 Zn386 1.938 . S
O393 C400 1.247 . S
O394 Zn386 1.906 . S
O394 C402 1.304 . S
O395 Zn383 1.924 . S
O395 C403 1.311 . S
O396 Zn387 1.977 . S
O396 C402 1.272 . S
O397 Zn387 1.910 . S
O397 C403 1.231 1_545 S
C398 O382 1.225 . S
C398 O404 1.298 . S
C399 O388 1.226 . S
C399 O389 1.307 . S
C400 O392 1.303 . S
C400 O393 1.247 . S
C401 O390 1.253 . S
C401 O391 1.283 1_565 S
C402 O394 1.304 . S
C402 O396 1.272 . S
C403 O395 1.311 . S
C403 O397 1.231 1_565 S
O404 Zn386 1.953 1_565 S
O404 C398 1.298 . S
O405 Zn406 1.953 . S
O405 C421 1.225 . S
Zn406 O405 1.953 . S
Zn406 O407 1.949 . S
Zn406 O413 1.919 . S
Zn406 O418 1.924 . S
O407 Zn406 1.949 . S
O407 Zn408 1.923 . S
O407 Zn409 1.950 . S
O407 Zn410 1.945 . S
Zn408 O407 1.923 . S
Zn408 O411 1.933 . S
Zn408 O414 1.941 . S
Zn408 O415 1.965 . S
Zn409 O407 1.950 . S
Zn409 O416 1.938 . S
Zn409 O417 1.906 . S
Zn409 O427 1.953 . S
Zn410 O407 1.945 . S
Zn410 O412 1.932 . S
Zn410 O419 1.977 . S
Zn410 O420 1.910 . S
O411 Zn408 1.933 . S
O411 C422 1.226 . S
O412 Zn410 1.932 . S
O412 C422 1.307 . S
O413 Zn406 1.919 . S
O413 C424 1.253 . S
O414 Zn408 1.941 . S
O414 C424 1.283 . S
O415 Zn408 1.965 . S
O415 C423 1.303 . S
O416 Zn409 1.938 . S
O416 C423 1.247 . S
O417 Zn409 1.906 . S
O417 C425 1.304 . S
O418 Zn406 1.924 . S
O418 C426 1.311 . S
O419 Zn410 1.977 . S
O419 C425 1.272 . S
O420 Zn410 1.910 . S
O420 C426 1.231 . S
C421 O405 1.225 . S
C421 O427 1.298 . S
C422 O411 1.226 . S
C422 O412 1.307 . S
C423 O415 1.303 . S
C423 O416 1.247 . S
C424 O413 1.253 . S
C424 O414 1.283 . S
C425 O417 1.304 . S
C425 O419 1.272 . S
C426 O418 1.311 . S
C426 O420 1.231 . S
O427 Zn409 1.953 . S
O427 C421 1.298 . S
O428 Zn429 1.953 1_455 S
O428 C444 1.225 . S
Zn429 O428 1.953 1_655 S
Zn429 O430 1.949 1_655 S
Zn429 O436 1.919 1_545 S
Zn429 O441 1.924 . S
O430 Zn429 1.949 1_455 S
O430 Zn431 1.923 1_545 S
O430 Zn432 1.950 . S
O430 Zn433 1.945 1_455 S
Zn431 O430 1.923 1_565 S
Zn431 O434 1.933 . S
Zn431 O437 1.941 . S
Zn431 O438 1.965 . S
Zn432 O430 1.950 . S
Zn432 O439 1.938 . S
Zn432 O440 1.906 . S
Zn432 O450 1.953 . S
Zn433 O430 1.945 1_655 S
Zn433 O435 1.932 . S
Zn433 O442 1.977 . S
Zn433 O443 1.910 . S
O434 Zn431 1.933 . S
O434 C445 1.226 1_455 S
O435 Zn433 1.932 . S
O435 C445 1.307 1_545 S
O436 Zn429 1.919 1_565 S
O436 C447 1.253 . S
O437 Zn431 1.941 . S
O437 C447 1.283 1_455 S
O438 Zn431 1.965 . S
O438 C446 1.303 . S
O439 Zn432 1.938 . S
O439 C446 1.247 1_545 S
O440 Zn432 1.906 . S
O440 C448 1.304 . S
O441 Zn429 1.924 . S
O441 C449 1.311 . S
O442 Zn433 1.977 . S
O442 C448 1.272 1_655 S
O443 Zn433 1.910 . S
O443 C449 1.231 . S
C444 O428 1.225 . S
C444 O450 1.298 . S
C445 O434 1.226 1_655 S
C445 O435 1.307 1_565 S
C446 O438 1.303 . S
C446 O439 1.247 1_565 S
C447 O436 1.253 . S
C447 O437 1.283 1_655 S
C448 O440 1.304 . S
C448 O442 1.272 1_455 S
C449 O441 1.311 . S
C449 O443 1.231 . S
O450 Zn432 1.953 . S
O450 C444 1.298 . S
O451 Zn452 1.953 . S
O451 C467 1.225 . S
Zn452 O451 1.953 . S
Zn452 O453 1.949 . S
Zn452 O459 1.919 . S
Zn452 O464 1.924 . S
O453 Zn452 1.949 . S
O453 Zn454 1.923 . S
O453 Zn455 1.950 . S
O453 Zn456 1.945 . S
Zn454 O453 1.923 . S
Zn454 O457 1.933 . S
Zn454 O460 1.941 . S
Zn454 O461 1.965 . S
Zn455 O453 1.950 . S
Zn455 O462 1.938 . S
Zn455 O463 1.906 . S
Zn455 O473 1.953 . S
Zn456 O453 1.945 . S
Zn456 O458 1.932 . S
Zn456 O465 1.977 . S
Zn456 O466 1.910 . S
O457 Zn454 1.933 . S
O457 C468 1.226 . S
O458 Zn456 1.932 . S
O458 C468 1.307 . S
O459 Zn452 1.919 . S
O459 C470 1.253 . S
O460 Zn454 1.941 . S
O460 C470 1.283 . S
O461 Zn454 1.965 . S
O461 C469 1.303 . S
O462 Zn455 1.938 . S
O462 C469 1.247 . S
O463 Zn455 1.906 . S
O463 C471 1.304 . S
O464 Zn452 1.924 . S
O464 C472 1.311 . S
O465 Zn456 1.977 . S
O465 C471 1.272 . S
O466 Zn456 1.910 . S
O466 C472 1.231 . S
C467 O451 1.225 . S
C467 O473 1.298 . S
C468 O457 1.226 . S
C468 O458 1.307 . S
C469 O461 1.303 . S
C469 O462 1.247 . S
C470 O459 1.253 . S
C470 O460 1.283 . S
C471 O463 1.304 . S
C471 O465 1.272 . S
C472 O464 1.311 . S
C472 O466 1.231 . S
O473 Zn455 1.953 . S
O473 C467 1.298 . S
O474 Zn475 1.953 . S
O474 C490 1.225 . S
Zn475 O474 1.953 . S
Zn475 O476 1.949 . S
Zn475 O482 1.919 1_545 S
Zn475 O487 1.924 . S
O476 Zn475 1.949 . S
O476 Zn477 1.935 1_545 S
O476 Zn478 1.950 . S
O476 Zn479 1.945 1_554 S
Zn477 O476 1.935 1_565 S
Zn477 O480 1.908 1_554 S
Zn477 O483 1.938 1_554 S
Zn477 O484 1.983 . S
Zn478 O476 1.950 . S
Zn478 O485 1.938 1_545 S
Zn478 O486 1.906 . S
Zn478 O496 1.953 . S
Zn479 O476 1.945 1_556 S
Zn479 O481 1.932 . S
Zn479 O488 1.977 1_556 S
Zn479 O489 1.910 . S
O480 Zn477 1.908 1_556 S
O480 C491 1.226 . S
O481 Zn479 1.932 . S
O481 C491 1.307 1_545 S
O482 Zn475 1.919 1_565 S
O482 C493 1.253 1_554 S
O483 Zn477 1.938 1_556 S
O483 C493 1.283 . S
O484 Zn477 1.983 . S
O484 C492 1.303 . S
O485 Zn478 1.938 1_565 S
O485 C492 1.247 . S
O486 Zn478 1.906 . S
O486 C494 1.304 . S
O487 Zn475 1.924 . S
O487 C495 1.311 . S
O488 Zn479 1.977 1_554 S
O488 C494 1.272 . S
O489 Zn479 1.910 . S
O489 C495 1.231 1_556 S
C490 O474 1.225 . S
C490 O496 1.298 . S
C491 O480 1.226 . S
C491 O481 1.307 1_565 S
C492 O484 1.303 . S
C492 O485 1.247 . S
C493 O482 1.253 1_556 S
C493 O483 1.283 . S
C494 O486 1.304 . S
C494 O488 1.272 . S
C495 O487 1.311 . S
C495 O489 1.231 1_554 S
O496 Zn478 1.953 . S
O496 C490 1.298 . S
O497 Zn498 1.953 . S
O497 C513 1.225 . S
Zn498 O497 1.953 . S
Zn498 O499 1.949 . S
Zn498 O505 1.919 . S
Zn498 O510 1.924 . S
O499 Zn498 1.949 . S
O499 Zn500 1.923 . S
O499 Zn501 1.950 . S
O499 Zn502 1.945 . S
Zn500 O499 1.923 . S
Zn500 O503 1.933 . S
Zn500 O506 1.941 . S
Zn500 O507 1.965 . S
Zn501 O499 1.950 . S
Zn501 O508 1.938 . S
Zn501 O509 1.906 . S
Zn501 O519 1.953 . S
Zn502 O499 1.945 . S
Zn502 O504 1.932 . S
Zn502 O511 1.977 . S
Zn502 O512 1.910 . S
O503 Zn500 1.933 . S
O503 C514 1.226 . S
O504 Zn502 1.932 . S
O504 C514 1.307 . S
O505 Zn498 1.919 . S
O505 C516 1.253 . S
O506 Zn500 1.941 . S
O506 C516 1.283 . S
O507 Zn500 1.965 . S
O507 C515 1.303 . S
O508 Zn501 1.938 . S
O508 C515 1.247 . S
O509 Zn501 1.906 . S
O509 C517 1.304 . S
O510 Zn498 1.924 . S
O510 C518 1.311 . S
O511 Zn502 1.977 . S
O511 C517 1.272 . S
O512 Zn502 1.910 . S
O512 C518 1.231 . S
C513 O497 1.225 . S
C513 O519 1.298 . S
C514 O503 1.226 . S
C514 O504 1.307 . S
C515 O507 1.303 . S
C515 O508 1.247 . S
C516 O505 1.253 . S
C516 O506 1.283 . S
C517 O509 1.304 . S
C517 O511 1.272 . S
C518 O510 1.311 . S
C518 O512 1.231 . S
O519 Zn501 1.953 . S
O519 C513 1.298 . S
O520 Zn521 1.953 . S
O520 C536 1.225 . S
Zn521 O520 1.953 . S
Zn521 O522 1.949 1_556 S
Zn521 O528 1.919 . S
Zn521 O533 1.924 . S
O522 Zn521 1.949 1_554 S
O522 Zn523 1.923 . S
O522 Zn524 1.950 . S
O522 Zn525 1.945 . S
Zn523 O522 1.923 . S
Zn523 O526 1.933 . S
Zn523 O529 1.941 . S
Zn523 O530 1.965 . S
Zn524 O522 1.950 . S
Zn524 O531 1.938 . S
Zn524 O532 1.906 . S
Zn524 O542 1.953 1_554 S
Zn525 O522 1.945 . S
Zn525 O527 1.932 . S
Zn525 O534 1.977 . S
Zn525 O535 1.910 . S
O526 Zn523 1.933 . S
O526 C537 1.226 . S
O527 Zn525 1.932 . S
O527 C537 1.307 . S
O528 Zn521 1.919 . S
O528 C539 1.253 1_556 S
O529 Zn523 1.941 . S
O529 C539 1.283 . S
O530 Zn523 1.965 . S
O530 C538 1.303 . S
O531 Zn524 1.938 . S
O531 C538 1.247 . S
O532 Zn524 1.906 . S
O532 C540 1.304 . S
O533 Zn521 1.924 . S
O533 C541 1.311 . S
O534 Zn525 1.977 . S
O534 C540 1.272 . S
O535 Zn525 1.910 . S
O535 C541 1.231 1_554 S
C536 O520 1.225 . S
C536 O542 1.298 . S
C537 O526 1.226 . S
C537 O527 1.307 . S
C538 O530 1.303 . S
C538 O531 1.247 . S
C539 O528 1.253 1_554 S
C539 O529 1.283 . S
C540 O532 1.304 . S
C540 O534 1.272 . S
C541 O533 1.311 . S
C541 O535 1.231 1_556 S
O542 Zn524 1.953 1_556 S
O542 C536 1.298 . S
O543 Zn544 1.953 . S
O543 C559 1.225 . S
Zn544 O543 1.953 . S
Zn544 O545 1.949 . S
Zn544 O551 1.919 . S
Zn544 O556 1.924 . S
O545 Zn544 1.949 . S
O545 Zn546 1.923 . S
O545 Zn547 1.950 . S
O545 Zn548 1.945 . S
Zn546 O545 1.923 . S
Zn546 O549 1.933 . S
Zn546 O552 1.941 . S
Zn546 O553 1.965 . S
Zn547 O545 1.950 . S
Zn547 O554 1.938 . S
Zn547 O555 1.906 . S
Zn547 O565 1.953 . S
Zn548 O545 1.945 . S
Zn548 O550 1.932 . S
Zn548 O557 1.977 . S
Zn548 O558 1.910 . S
O549 Zn546 1.933 . S
O549 C560 1.226 . S
O550 Zn548 1.932 . S
O550 C560 1.307 . S
O551 Zn544 1.919 . S
O551 C562 1.253 . S
O552 Zn546 1.941 . S
O552 C562 1.283 . S
O553 Zn546 1.965 . S
O553 C561 1.303 . S
O554 Zn547 1.938 . S
O554 C561 1.247 . S
O555 Zn547 1.906 . S
O555 C563 1.304 . S
O556 Zn544 1.924 . S
O556 C564 1.311 . S
O557 Zn548 1.977 . S
O557 C563 1.272 . S
O558 Zn548 1.910 . S
O558 C564 1.231 . S
C559 O543 1.225 . S
C559 O565 1.298 . S
C560 O549 1.226 . S
C560 O550 1.307 . S
C561 O553 1.303 . S
C561 O554 1.247 . S
C562 O551 1.253 . S
C562 O552 1.283 . S
C563 O555 1.304 . S
C563 O557 1.272 . S
C564 O556 1.311 . S
C564 O558 1.231 . S
O565 Zn547 1.953 . S
O565 C559 1.298 . S
O566 Zn567 1.953 . S
O566 C582 1.225 . S
Zn567 O566 1.953 . S
Zn567 O568 1.957 . S
Zn567 O574 1.919 . S
Zn567 O579 1.924 . S
O568 Zn567 1.957 . S
O568 Zn569 1.923 . S
O568 Zn570 1.945 1_455 S
O568 Zn571 1.940 1_455 S
Zn569 O568 1.923 . S
Zn569 O572 1.933 1_455 S
Zn569 O575 1.941 . S
Zn569 O576 1.965 1_455 S
Zn570 O568 1.945 1_655 S
Zn570 O577 1.938 . S
Zn570 O578 1.906 . S
Zn570 O588 1.931 1_655 S
Zn571 O568 1.940 1_655 S
Zn571 O573 1.932 . S
Zn571 O580 1.977 . S
Zn571 O581 1.894 1_655 S
O572 Zn569 1.933 1_655 S
O572 C583 1.226 . S
O573 Zn571 1.932 . S
O573 C583 1.307 . S
O574 Zn567 1.919 . S
O574 C585 1.253 . S
O575 Zn569 1.941 . S
O575 C585 1.283 . S
O576 Zn569 1.965 1_655 S
O576 C584 1.303 . S
O577 Zn570 1.938 . S
O577 C584 1.247 . S
O578 Zn570 1.906 . S
O578 C586 1.304 . S
O579 Zn567 1.924 . S
O579 C587 1.311 . S
O580 Zn571 1.977 . S
O580 C586 1.272 . S
O581 Zn571 1.894 1_455 S
O581 C587 1.262 . S
C582 O566 1.225 . S
C582 O588 1.340 . S
C583 O572 1.226 . S
C583 O573 1.307 . S
C584 O576 1.303 . S
C584 O577 1.247 . S
C585 O574 1.253 . S
C585 O575 1.283 . S
C586 O578 1.304 . S
C586 O580 1.272 . S
C587 O579 1.311 . S
C587 O581 1.262 . S
O588 Zn570 1.931 1_455 S
O588 C582 1.340 . S
O589 Zn590 1.953 . S
O589 C605 1.225 . S
Zn590 O589 1.953 . S
Zn590 O591 1.949 . S
Zn590 O597 1.919 . S
Zn590 O602 1.924 . S
O591 Zn590 1.949 . S
O591 Zn592 1.923 . S
O591 Zn593 1.950 . S
O591 Zn594 1.945 . S
Zn592 O591 1.923 . S
Zn592 O595 1.933 . S
Zn592 O598 1.941 . S
Zn592 O599 1.965 . S
Zn593 O591 1.950 . S
Zn593 O600 1.938 . S
Zn593 O601 1.906 . S
Zn593 O611 1.953 . S
Zn594 O591 1.945 . S
Zn594 O596 1.932 . S
Zn594 O603 1.977 . S
Zn594 O604 1.910 . S
O595 Zn592 1.933 . S
O595 C606 1.226 . S
O596 Zn594 1.932 . S
O596 C606 1.307 . S
O597 Zn590 1.919 . S
O597 C608 1.253 . S
O598 Zn592 1.941 . S
O598 C608 1.283 . S
O599 Zn592 1.965 . S
O599 C607 1.303 . S
O600 Zn593 1.938 . S
O600 C607 1.247 . S
O601 Zn593 1.906 . S
O601 C609 1.304 . S
O602 Zn590 1.924 . S
O602 C610 1.311 . S
O603 Zn594 1.977 . S
O603 C609 1.272 . S
O604 Zn594 1.910 . S
O604 C610 1.231 . S
C605 O589 1.225 . S
C605 O611 1.298 . S
C606 O595 1.226 . S
C606 O596 1.307 . S
C607 O599 1.303 . S
C607 O600 1.247 . S
C608 O597 1.253 . S
C608 O598 1.283 . S
C609 O601 1.304 . S
C609 O603 1.272 . S
C610 O602 1.311 . S
C610 O604 1.231 . S
O611 Zn593 1.953 . S
O611 C605 1.298 . S
O612 Zn613 1.953 . S
O612 C628 1.225 . S
Zn613 O612 1.953 . S
Zn613 O614 1.949 . S
Zn613 O620 1.919 . S
Zn613 O625 1.924 . S
O614 Zn613 1.949 . S
O614 Zn615 1.923 . S
O614 Zn616 1.950 . S
O614 Zn617 1.945 . S
Zn615 O614 1.923 . S
Zn615 O618 1.933 . S
Zn615 O621 1.941 . S
Zn615 O622 1.965 . S
Zn616 O614 1.950 . S
Zn616 O623 1.938 . S
Zn616 O624 1.906 . S
Zn616 O634 1.953 . S
Zn617 O614 1.945 . S
Zn617 O619 1.932 . S
Zn617 O626 1.977 . S
Zn617 O627 1.910 . S
O618 Zn615 1.933 . S
O618 C629 1.226 . S
O619 Zn617 1.932 . S
O619 C629 1.307 . S
O620 Zn613 1.919 . S
O620 C631 1.253 . S
O621 Zn615 1.941 . S
O621 C631 1.283 . S
O622 Zn615 1.965 . S
O622 C630 1.303 . S
O623 Zn616 1.938 . S
O623 C630 1.247 . S
O624 Zn616 1.906 . S
O624 C632 1.304 . S
O625 Zn613 1.924 . S
O625 C633 1.311 . S
O626 Zn617 1.977 . S
O626 C632 1.272 . S
O627 Zn617 1.910 . S
O627 C633 1.231 . S
C628 O612 1.225 . S
C628 O634 1.298 . S
C629 O618 1.226 . S
C629 O619 1.307 . S
C630 O622 1.303 . S
C630 O623 1.247 . S
C631 O620 1.253 . S
C631 O621 1.283 . S
C632 O624 1.304 . S
C632 O626 1.272 . S
C633 O625 1.311 . S
C633 O627 1.231 . S
O634 Zn616 1.953 . S
O634 C628 1.298 . S
O635 Zn636 1.953 . S
O635 C651 1.225 . S
Zn636 O635 1.953 . S
Zn636 O637 1.949 . S
Zn636 O643 1.919 . S
Zn636 O648 1.924 . S
O637 Zn636 1.949 . S
O637 Zn638 1.923 . S
O637 Zn639 1.950 . S
O637 Zn640 1.945 . S
Zn638 O637 1.923 . S
Zn638 O641 1.933 . S
Zn638 O644 1.941 . S
Zn638 O645 1.965 . S
Zn639 O637 1.950 . S
Zn639 O646 1.938 . S
Zn639 O647 1.906 . S
Zn639 O657 1.953 . S
Zn640 O637 1.945 . S
Zn640 O642 1.932 . S
Zn640 O649 1.977 . S
Zn640 O650 1.910 . S
O641 Zn638 1.933 . S
O641 C652 1.226 . S
O642 Zn640 1.932 . S
O642 C652 1.307 . S
O643 Zn636 1.919 . S
O643 C654 1.253 . S
O644 Zn638 1.941 . S
O644 C654 1.283 . S
O645 Zn638 1.965 . S
O645 C653 1.303 . S
O646 Zn639 1.938 . S
O646 C653 1.247 . S
O647 Zn639 1.906 . S
O647 C655 1.304 . S
O648 Zn636 1.924 . S
O648 C656 1.311 . S
O649 Zn640 1.977 . S
O649 C655 1.272 . S
O650 Zn640 1.910 . S
O650 C656 1.231 . S
C651 O635 1.225 . S
C651 O657 1.298 . S
C652 O641 1.226 . S
C652 O642 1.307 . S
C653 O645 1.303 . S
C653 O646 1.247 . S
C654 O643 1.253 . S
C654 O644 1.283 . S
C655 O647 1.304 . S
C655 O649 1.272 . S
C656 O648 1.311 . S
C656 O650 1.231 . S
O657 Zn639 1.953 . S
O657 C651 1.298 . S
O658 Zn659 1.953 . S
O658 C674 1.225 . S
Zn659 O658 1.953 . S
Zn659 O660 1.949 . S
Zn659 O666 1.919 . S
Zn659 O671 1.924 . S
O660 Zn659 1.949 . S
O660 Zn661 1.923 . S
O660 Zn662 1.950 . S
O660 Zn663 1.945 . S
Zn661 O660 1.923 . S
Zn661 O664 1.933 . S
Zn661 O667 1.941 . S
Zn661 O668 1.965 . S
Zn662 O660 1.950 . S
Zn662 O669 1.938 . S
Zn662 O670 1.906 . S
Zn662 O680 1.953 . S
Zn663 O660 1.945 . S
Zn663 O665 1.932 . S
Zn663 O672 1.977 . S
Zn663 O673 1.910 . S
O664 Zn661 1.933 . S
O664 C675 1.226 . S
O665 Zn663 1.932 . S
O665 C675 1.307 . S
O666 Zn659 1.919 . S
O666 C677 1.253 . S
O667 Zn661 1.941 . S
O667 C677 1.283 . S
O668 Zn661 1.965 . S
O668 C676 1.303 . S
O669 Zn662 1.938 . S
O669 C676 1.247 . S
O670 Zn662 1.906 . S
O670 C678 1.304 . S
O671 Zn659 1.924 . S
O671 C679 1.311 . S
O672 Zn663 1.977 . S
O672 C678 1.272 . S
O673 Zn663 1.910 . S
O673 C679 1.231 . S
C674 O658 1.225 . S
C674 O680 1.298 . S
C675 O664 1.226 . S
C675 O665 1.307 . S
C676 O668 1.303 . S
C676 O669 1.247 . S
C677 O666 1.253 . S
C677 O667 1.283 . S
C678 O670 1.304 . S
C678 O672 1.272 . S
C679 O671 1.311 . S
C679 O673 1.231 . S
O680 Zn662 1.953 . S
O680 C674 1.298 . S
O681 Zn682 1.953 1_455 S
O681 C697 1.225 . S
Zn682 O681 1.953 1_655 S
Zn682 O683 1.949 1_655 S
Zn682 O689 1.919 1_554 S
Zn682 O694 1.924 1_654 S
O683 Zn682 1.949 1_455 S
O683 Zn684 1.923 1_455 S
O683 Zn685 1.950 . S
O683 Zn686 1.945 1_554 S
Zn684 O683 1.923 1_655 S
Zn684 O687 1.933 . S
Zn684 O690 1.941 . S
Zn684 O691 1.965 . S
Zn685 O683 1.950 . S
Zn685 O692 1.938 . S
Zn685 O693 1.906 . S
Zn685 O703 1.953 . S
Zn686 O683 1.945 1_556 S
Zn686 O688 1.932 . S
Zn686 O695 1.977 1_556 S
Zn686 O696 1.910 . S
O687 Zn684 1.933 . S
O687 C698 1.226 1_554 S
O688 Zn686 1.932 . S
O688 C698 1.307 1_455 S
O689 Zn682 1.919 1_556 S
O689 C700 1.253 1_556 S
O690 Zn684 1.941 . S
O690 C700 1.283 . S
O691 Zn684 1.965 . S
O691 C699 1.303 . S
O692 Zn685 1.938 . S
O692 C699 1.247 1_455 S
O693 Zn685 1.906 . S
O693 C701 1.304 . S
O694 Zn682 1.924 1_456 S
O694 C702 1.311 . S
O695 Zn686 1.977 1_554 S
O695 C701 1.272 . S
O696 Zn686 1.910 . S
O696 C702 1.231 . S
C697 O681 1.225 . S
C697 O703 1.298 . S
C698 O687 1.226 1_556 S
C698 O688 1.307 1_655 S
C699 O691 1.303 . S
C699 O692 1.247 1_655 S
C700 O689 1.253 1_554 S
C700 O690 1.283 . S
C701 O693 1.304 . S
C701 O695 1.272 . S
C702 O694 1.311 . S
C702 O696 1.231 . S
O703 Zn685 1.953 . S
O703 C697 1.298 . S
C704 C705 1.391 . S
C704 C706 1.394 . S
C704 H720 0.931 . S
C705 C704 1.391 . S
C705 C709 1.376 1_455 S
C706 C704 1.394 . S
C706 C707 1.369 1_455 S
C706 C710 1.531 . S
C707 C706 1.369 1_655 S
C707 C708 1.410 . S
C707 C715 1.503 . S
C708 C707 1.410 . S
C708 C709 1.392 . S
C708 C711 1.511 . S
C709 C705 1.376 1_655 S
C709 C708 1.392 . S
C709 H721 0.929 . S
C710 C706 1.531 . S
C710 H722 0.960 . S
C710 H723 0.962 . S
C710 H724 0.960 . S
C711 C708 1.511 . S
C711 H725 0.961 . S
C711 H726 0.961 . S
C711 H727 0.961 . S
C712 C713 1.370 . S
C712 C714 1.363 . S
C712 H728 0.923 1_655 S
C713 C712 1.370 . S
C713 C717 1.408 . S
C714 C712 1.363 . S
C714 C715 1.370 . S
C714 C718 1.524 1_655 S
C715 C707 1.503 . S
C715 C714 1.370 . S
C715 C716 1.403 . S
C716 C715 1.403 . S
C716 C717 1.404 . S
C716 C719 1.539 . S
C717 C713 1.408 . S
C717 C716 1.404 . S
C717 H729 0.930 . S
C718 C714 1.524 1_455 S
C718 H730 0.956 . S
C718 H731 0.961 1_455 S
C718 H732 0.961 . S
C719 C716 1.539 . S
C719 H733 0.958 . S
C719 H734 0.961 . S
C719 H735 0.960 . S
H720 C704 0.931 . S
H721 C709 0.929 . S
H722 C710 0.960 . S
H723 C710 0.962 . S
H724 C710 0.960 . S
H725 C711 0.961 . S
H726 C711 0.961 . S
H727 C711 0.961 . S
H728 C712 0.923 1_455 S
H729 C717 0.930 . S
H730 C718 0.956 . S
H731 C718 0.961 1_655 S
H732 C718 0.961 . S
H733 C719 0.958 . S
H734 C719 0.961 . S
H735 C719 0.960 . S
C736 C737 1.391 . S
C736 C738 1.394 . S
C736 H752 0.931 . S
C737 C736 1.391 . S
C737 C741 1.376 . S
C738 C736 1.394 . S
C738 C739 1.369 . S
C738 C742 1.531 . S
C739 C738 1.369 . S
C739 C740 1.410 . S
C739 C747 1.503 . S
C740 C739 1.410 . S
C740 C741 1.392 . S
C740 C743 1.511 . S
C741 C737 1.376 . S
C741 C740 1.392 . S
C741 H753 0.929 . S
C742 C738 1.531 . S
C742 H754 0.960 . S
C742 H755 0.962 . S
C742 H756 0.960 . S
C743 C740 1.511 . S
C743 H757 0.961 . S
C743 H758 0.961 . S
C743 H759 0.961 . S
C744 C745 1.370 . S
C744 C746 1.363 . S
C744 H760 0.931 . S
C745 C744 1.370 . S
C745 C749 1.408 . S
C746 C744 1.363 . S
C746 C747 1.370 . S
C746 C750 1.524 . S
C747 C739 1.503 . S
C747 C746 1.370 . S
C747 C748 1.403 . S
C748 C747 1.403 . S
C748 C749 1.404 . S
C748 C751 1.539 . S
C749 C745 1.408 . S
C749 C748 1.404 . S
C749 H761 0.930 . S
C750 C746 1.524 . S
C750 H762 0.956 . S
C750 H763 0.961 . S
C750 H764 0.961 . S
C751 C748 1.539 . S
C751 H765 0.958 . S
C751 H766 0.961 . S
C751 H767 0.960 . S
H752 C736 0.931 . S
H753 C741 0.929 . S
H754 C742 0.960 . S
H755 C742 0.962 . S
H756 C742 0.960 . S
H757 C743 0.961 . S
H758 C743 0.961 . S
H759 C743 0.961 . S
H760 C744 0.931 . S
H761 C749 0.930 . S
H762 C750 0.956 . S
H763 C750 0.961 . S
H764 C750 0.961 . S
H765 C751 0.958 . S
H766 C751 0.961 . S
H767 C751 0.960 . S
C768 C769 1.391 . S
C768 C770 1.394 . S
C768 H784 0.931 . S
C769 C768 1.391 . S
C769 C773 1.376 . S
C770 C768 1.394 . S
C770 C771 1.369 . S
C770 C774 1.531 . S
C771 C770 1.369 . S
C771 C772 1.410 . S
C771 C779 1.503 . S
C772 C771 1.410 . S
C772 C773 1.392 . S
C772 C775 1.511 . S
C773 C769 1.376 . S
C773 C772 1.392 . S
C773 H785 0.929 . S
C774 C770 1.531 . S
C774 H786 0.960 . S
C774 H787 0.962 . S
C774 H788 0.960 . S
C775 C772 1.511 . S
C775 H789 0.961 . S
C775 H790 0.961 . S
C775 H791 0.961 . S
C776 C777 1.370 . S
C776 C778 1.363 . S
C776 H792 0.931 . S
C777 C776 1.370 . S
C777 C781 1.408 . S
C778 C776 1.363 . S
C778 C779 1.370 . S
C778 C782 1.524 . S
C779 C771 1.503 . S
C779 C778 1.370 . S
C779 C780 1.403 . S
C780 C779 1.403 . S
C780 C781 1.404 . S
C780 C783 1.539 . S
C781 C777 1.408 . S
C781 C780 1.404 . S
C781 H793 0.930 . S
C782 C778 1.524 . S
C782 H794 0.956 . S
C782 H795 0.961 . S
C782 H796 0.961 . S
C783 C780 1.539 . S
C783 H797 0.958 . S
C783 H798 0.961 . S
C783 H799 0.960 . S
H784 C768 0.931 . S
H785 C773 0.929 . S
H786 C774 0.960 . S
H787 C774 0.962 . S
H788 C774 0.960 . S
H789 C775 0.961 . S
H790 C775 0.961 . S
H791 C775 0.961 . S
H792 C776 0.931 . S
H793 C781 0.930 . S
H794 C782 0.956 . S
H795 C782 0.961 . S
H796 C782 0.961 . S
H797 C783 0.958 . S
H798 C783 0.961 . S
H799 C783 0.960 . S
C800 C801 1.391 . S
C800 C802 1.394 . S
C800 H816 0.931 . S
C801 C800 1.391 . S
C801 C805 1.376 . S
C802 C800 1.394 . S
C802 C803 1.369 . S
C802 C806 1.531 . S
C803 C802 1.369 . S
C803 C804 1.410 . S
C803 C811 1.503 . S
C804 C803 1.410 . S
C804 C805 1.392 . S
C804 C807 1.511 . S
C805 C801 1.376 . S
C805 C804 1.392 . S
C805 H817 0.929 . S
C806 C802 1.531 . S
C806 H818 0.960 . S
C806 H819 0.962 . S
C806 H820 0.960 . S
C807 C804 1.511 . S
C807 H821 0.961 . S
C807 H822 0.961 . S
C807 H823 0.961 . S
C808 C809 1.370 . S
C808 C810 1.363 . S
C808 H824 0.931 . S
C809 C808 1.370 . S
C809 C813 1.408 . S
C810 C808 1.363 . S
C810 C811 1.370 . S
C810 C814 1.524 . S
C811 C803 1.503 . S
C811 C810 1.370 . S
C811 C812 1.403 . S
C812 C811 1.403 . S
C812 C813 1.404 . S
C812 C815 1.539 . S
C813 C809 1.408 . S
C813 C812 1.404 . S
C813 H825 0.930 . S
C814 C810 1.524 . S
C814 H826 0.956 . S
C814 H827 0.961 . S
C814 H828 0.961 . S
C815 C812 1.539 . S
C815 H829 0.958 . S
C815 H830 0.961 . S
C815 H831 0.960 . S
H816 C800 0.931 . S
H817 C805 0.929 . S
H818 C806 0.960 . S
H819 C806 0.962 . S
H820 C806 0.960 . S
H821 C807 0.961 . S
H822 C807 0.961 . S
H823 C807 0.961 . S
H824 C808 0.931 . S
H825 C813 0.930 . S
H826 C814 0.956 . S
H827 C814 0.961 . S
H828 C814 0.961 . S
H829 C815 0.958 . S
H830 C815 0.961 . S
H831 C815 0.960 . S
C832 C833 1.391 . S
C832 C834 1.394 . S
C832 H848 0.931 . S
C833 C832 1.391 . S
C833 C837 1.376 1_455 S
C834 C832 1.394 . S
C834 C835 1.369 1_455 S
C834 C838 1.531 . S
C835 C834 1.369 1_655 S
C835 C836 1.410 . S
C835 C843 1.503 . S
C836 C835 1.410 . S
C836 C837 1.392 . S
C836 C839 1.511 . S
C837 C833 1.376 1_655 S
C837 C836 1.392 . S
C837 H849 0.929 . S
C838 C834 1.531 . S
C838 H850 0.960 . S
C838 H851 0.962 . S
C838 H852 0.960 . S
C839 C836 1.511 . S
C839 H853 0.961 . S
C839 H854 0.961 . S
C839 H855 0.961 . S
C840 C841 1.375 . S
C840 C842 1.362 1_655 S
C840 H856 0.927 1_655 S
C841 C840 1.375 . S
C841 C845 1.408 . S
C842 C840 1.362 1_455 S
C842 C843 1.370 1_455 S
C842 C846 1.524 . S
C843 C835 1.503 . S
C843 C842 1.370 1_655 S
C843 C844 1.403 . S
C844 C843 1.403 . S
C844 C845 1.404 . S
C844 C847 1.539 . S
C845 C841 1.408 . S
C845 C844 1.404 . S
C845 H857 0.930 . S
C846 C842 1.524 . S
C846 H858 0.956 . S
C846 H859 0.941 1_455 S
C846 H860 0.961 . S
C847 C844 1.539 . S
C847 H861 0.958 . S
C847 H862 0.961 . S
C847 H863 0.960 . S
H848 C832 0.931 . S
H849 C837 0.929 . S
H850 C838 0.960 . S
H851 C838 0.962 . S
H852 C838 0.960 . S
H853 C839 0.961 . S
H854 C839 0.961 . S
H855 C839 0.961 . S
H856 C840 0.927 1_455 S
H857 C845 0.930 . S
H858 C846 0.956 . S
H859 C846 0.941 1_655 S
H860 C846 0.961 . S
H861 C847 0.958 . S
H862 C847 0.961 . S
H863 C847 0.960 . S
C864 C865 1.391 . S
C864 C866 1.394 . S
C864 H880 0.931 . S
C865 C864 1.391 . S
C865 C869 1.376 . S
C866 C864 1.394 . S
C866 C867 1.369 . S
C866 C870 1.531 . S
C867 C866 1.369 . S
C867 C868 1.410 . S
C867 C875 1.503 . S
C868 C867 1.410 . S
C868 C869 1.392 . S
C868 C871 1.511 . S
C869 C865 1.376 . S
C869 C868 1.392 . S
C869 H881 0.929 . S
C870 C866 1.531 . S
C870 H882 0.960 . S
C870 H883 0.962 . S
C870 H884 0.960 . S
C871 C868 1.511 . S
C871 H885 0.961 . S
C871 H886 0.961 . S
C871 H887 0.961 . S
C872 C873 1.370 . S
C872 C874 1.363 . S
C872 H888 0.931 . S
C873 C872 1.370 . S
C873 C877 1.408 . S
C874 C872 1.363 . S
C874 C875 1.370 . S
C874 C878 1.524 . S
C875 C867 1.503 . S
C875 C874 1.370 . S
C875 C876 1.403 . S
C876 C875 1.403 . S
C876 C877 1.404 . S
C876 C879 1.539 . S
C877 C873 1.408 . S
C877 C876 1.404 . S
C877 H889 0.930 . S
C878 C874 1.524 . S
C878 H890 0.956 . S
C878 H891 0.961 . S
C878 H892 0.961 . S
C879 C876 1.539 . S
C879 H893 0.958 . S
C879 H894 0.961 . S
C879 H895 0.960 . S
H880 C864 0.931 . S
H881 C869 0.929 . S
H882 C870 0.960 . S
H883 C870 0.962 . S
H884 C870 0.960 . S
H885 C871 0.961 . S
H886 C871 0.961 . S
H887 C871 0.961 . S
H888 C872 0.931 . S
H889 C877 0.930 . S
H890 C878 0.956 . S
H891 C878 0.961 . S
H892 C878 0.961 . S
H893 C879 0.958 . S
H894 C879 0.961 . S
H895 C879 0.960 . S
C896 C897 1.391 . S
C896 C898 1.394 . S
C896 H912 0.931 . S
C897 C896 1.391 . S
C897 C901 1.376 . S
C898 C896 1.394 . S
C898 C899 1.369 . S
C898 C902 1.531 . S
C899 C898 1.369 . S
C899 C900 1.410 . S
C899 C907 1.503 . S
C900 C899 1.410 . S
C900 C901 1.392 . S
C900 C903 1.511 . S
C901 C897 1.376 . S
C901 C900 1.392 . S
C901 H913 0.929 . S
C902 C898 1.531 . S
C902 H914 0.960 . S
C902 H915 0.962 . S
C902 H916 0.960 . S
C903 C900 1.511 . S
C903 H917 0.961 . S
C903 H918 0.961 . S
C903 H919 0.961 . S
C904 C905 1.370 . S
C904 C906 1.363 . S
C904 H920 0.931 . S
C905 C904 1.370 . S
C905 C909 1.406 1_556 S
C906 C904 1.363 . S
C906 C907 1.370 . S
C906 C910 1.524 . S
C907 C899 1.503 . S
C907 C906 1.370 . S
C907 C908 1.403 . S
C908 C907 1.403 . S
C908 C909 1.398 1_556 S
C908 C911 1.539 . S
C909 C905 1.406 1_554 S
C909 C908 1.398 1_554 S
C909 H921 0.938 . S
C910 C906 1.524 . S
C910 H922 0.956 . S
C910 H923 0.961 . S
C910 H924 0.961 . S
C911 C908 1.539 . S
C911 H925 0.958 1_556 S
C911 H926 0.961 . S
C911 H927 0.960 . S
H912 C896 0.931 . S
H913 C901 0.929 . S
H914 C902 0.960 . S
H915 C902 0.962 . S
H916 C902 0.960 . S
H917 C903 0.961 . S
H918 C903 0.961 . S
H919 C903 0.961 . S
H920 C904 0.931 . S
H921 C909 0.938 . S
H922 C910 0.956 . S
H923 C910 0.961 . S
H924 C910 0.961 . S
H925 C911 0.958 1_554 S
H926 C911 0.961 . S
H927 C911 0.960 . S
C928 C929 1.391 . S
C928 C930 1.394 . S
C928 H944 0.931 . S
C929 C928 1.391 . S
C929 C933 1.376 . S
C930 C928 1.394 . S
C930 C931 1.369 . S
C930 C934 1.531 . S
C931 C930 1.369 . S
C931 C932 1.410 . S
C931 C939 1.503 . S
C932 C931 1.410 . S
C932 C933 1.392 . S
C932 C935 1.511 . S
C933 C929 1.376 . S
C933 C932 1.392 . S
C933 H945 0.929 . S
C934 C930 1.531 . S
C934 H946 0.960 . S
C934 H947 0.962 . S
C934 H948 0.960 . S
C935 C932 1.511 . S
C935 H949 0.961 . S
C935 H950 0.961 . S
C935 H951 0.961 . S
C936 C937 1.370 . S
C936 C938 1.363 . S
C936 H952 0.931 . S
C937 C936 1.370 . S
C937 C941 1.408 . S
C938 C936 1.363 . S
C938 C939 1.370 . S
C938 C942 1.524 . S
C939 C931 1.503 . S
C939 C938 1.370 . S
C939 C940 1.403 . S
C940 C939 1.403 . S
C940 C941 1.404 . S
C940 C943 1.539 . S
C941 C937 1.408 . S
C941 C940 1.404 . S
C941 H953 0.930 . S
C942 C938 1.524 . S
C942 H954 0.956 . S
C942 H955 0.961 . S
C942 H956 0.961 . S
C943 C940 1.539 . S
C943 H957 0.958 . S
C943 H958 0.961 . S
C943 H959 0.960 . S
H944 C928 0.931 . S
H945 C933 0.929 . S
H946 C934 0.960 . S
H947 C934 0.962 . S
H948 C934 0.960 . S
H949 C935 0.961 . S
H950 C935 0.961 . S
H951 C935 0.961 . S
H952 C936 0.931 . S
H953 C941 0.930 . S
H954 C942 0.956 . S
H955 C942 0.961 . S
H956 C942 0.961 . S
H957 C943 0.958 . S
H958 C943 0.961 . S
H959 C943 0.960 . S
C960 C961 1.391 1_565 S
C960 C962 1.394 . S
C960 H976 0.931 . S
C961 C960 1.391 1_545 S
C961 C965 1.376 . S
C962 C960 1.394 . S
C962 C963 1.369 1_565 S
C962 C966 1.531 . S
C963 C962 1.369 1_545 S
C963 C964 1.410 . S
C963 C971 1.503 . S
C964 C963 1.410 . S
C964 C965 1.392 . S
C964 C967 1.511 . S
C965 C961 1.376 . S
C965 C964 1.392 . S
C965 H977 0.929 . S
C966 C962 1.531 . S
C966 H978 0.960 . S
C966 H979 0.962 . S
C966 H980 0.960 . S
C967 C964 1.511 . S
C967 H981 0.961 . S
C967 H982 0.961 . S
C967 H983 0.961 . S
C968 C969 1.370 . S
C968 C970 1.363 . S
C968 H984 0.931 . S
C969 C968 1.370 . S
C969 C973 1.408 1_545 S
C970 C968 1.363 . S
C970 C971 1.370 . S
C970 C974 1.524 . S
C971 C963 1.503 . S
C971 C970 1.370 . S
C971 C972 1.403 1_545 S
C972 C971 1.403 1_565 S
C972 C973 1.404 . S
C972 C975 1.539 . S
C973 C969 1.408 1_565 S
C973 C972 1.404 . S
C973 H985 0.930 . S
C974 C970 1.524 . S
C974 H986 0.956 . S
C974 H987 0.961 . S
C974 H988 0.961 . S
C975 C972 1.539 . S
C975 H989 0.958 . S
C975 H990 0.961 . S
C975 H991 0.960 . S
H976 C960 0.931 . S
H977 C965 0.929 . S
H978 C966 0.960 . S
H979 C966 0.962 . S
H980 C966 0.960 . S
H981 C967 0.961 . S
H982 C967 0.961 . S
H983 C967 0.961 . S
H984 C968 0.931 . S
H985 C973 0.930 . S
H986 C974 0.956 . S
H987 C974 0.961 . S
H988 C974 0.961 . S
H989 C975 0.958 . S
H990 C975 0.961 . S
H991 C975 0.960 . S
C992 C993 1.391 . S
C992 C994 1.394 . S
C992 H1008 0.931 . S
C993 C992 1.391 . S
C993 C997 1.376 . S
C994 C992 1.394 . S
C994 C995 1.369 . S
C994 C998 1.531 . S
C995 C994 1.369 . S
C995 C996 1.410 . S
C995 C1003 1.503 . S
C996 C995 1.410 . S
C996 C997 1.392 . S
C996 C999 1.511 . S
C997 C993 1.376 . S
C997 C996 1.392 . S
C997 H1009 0.929 . S
C998 C994 1.531 . S
C998 H1010 0.960 . S
C998 H1011 0.962 . S
C998 H1012 0.960 . S
C999 C996 1.511 . S
C999 H1013 0.961 . S
C999 H1014 0.961 . S
C999 H1015 0.961 . S
C1000 C1001 1.370 . S
C1000 C1002 1.363 . S
C1000 H1016 0.931 . S
C1001 C1000 1.370 . S
C1001 C1005 1.408 . S
C1002 C1000 1.363 . S
C1002 C1003 1.370 . S
C1002 C1006 1.524 . S
C1003 C995 1.503 . S
C1003 C1002 1.370 . S
C1003 C1004 1.403 . S
C1004 C1003 1.403 . S
C1004 C1005 1.404 . S
C1004 C1007 1.539 . S
C1005 C1001 1.408 . S
C1005 C1004 1.404 . S
C1005 H1017 0.930 . S
C1006 C1002 1.524 . S
C1006 H1018 0.956 . S
C1006 H1019 0.961 . S
C1006 H1020 0.961 . S
C1007 C1004 1.539 . S
C1007 H1021 0.958 . S
C1007 H1022 0.961 . S
C1007 H1023 0.960 . S
H1008 C992 0.931 . S
H1009 C997 0.929 . S
H1010 C998 0.960 . S
H1011 C998 0.962 . S
H1012 C998 0.960 . S
H1013 C999 0.961 . S
H1014 C999 0.961 . S
H1015 C999 0.961 . S
H1016 C1000 0.931 . S
H1017 C1005 0.930 . S
H1018 C1006 0.956 . S
H1019 C1006 0.961 . S
H1020 C1006 0.961 . S
H1021 C1007 0.958 . S
H1022 C1007 0.961 . S
H1023 C1007 0.960 . S
C1024 C1025 1.391 . S
C1024 C1026 1.394 . S
C1024 H1040 0.931 . S
C1025 C1024 1.391 . S
C1025 C1029 1.376 . S
C1026 C1024 1.394 . S
C1026 C1027 1.369 . S
C1026 C1030 1.531 . S
C1027 C1026 1.369 . S
C1027 C1028 1.410 . S
C1027 C1035 1.503 . S
C1028 C1027 1.410 . S
C1028 C1029 1.392 . S
C1028 C1031 1.511 . S
C1029 C1025 1.376 . S
C1029 C1028 1.392 . S
C1029 H1041 0.929 . S
C1030 C1026 1.531 . S
C1030 H1042 0.960 . S
C1030 H1043 0.962 1_545 S
C1030 H1044 0.960 . S
C1031 C1028 1.511 . S
C1031 H1045 0.961 . S
C1031 H1046 0.961 . S
C1031 H1047 0.961 . S
C1032 C1033 1.370 1_565 S
C1032 C1034 1.363 . S
C1032 H1048 0.931 . S
C1033 C1032 1.370 1_545 S
C1033 C1037 1.408 . S
C1034 C1032 1.363 . S
C1034 C1035 1.370 1_565 S
C1034 C1038 1.524 . S
C1035 C1027 1.503 . S
C1035 C1034 1.370 1_545 S
C1035 C1036 1.403 . S
C1036 C1035 1.403 . S
C1036 C1037 1.404 . S
C1036 C1039 1.539 . S
C1037 C1033 1.408 . S
C1037 C1036 1.404 . S
C1037 H1049 0.930 . S
C1038 C1034 1.524 . S
C1038 H1050 0.956 . S
C1038 H1051 0.961 . S
C1038 H1052 0.961 . S
C1039 C1036 1.539 . S
C1039 H1053 0.958 . S
C1039 H1054 0.961 . S
C1039 H1055 0.960 . S
H1040 C1024 0.931 . S
H1041 C1029 0.929 . S
H1042 C1030 0.960 . S
H1043 C1030 0.962 1_565 S
H1044 C1030 0.960 . S
H1045 C1031 0.961 . S
H1046 C1031 0.961 . S
H1047 C1031 0.961 . S
H1048 C1032 0.931 . S
H1049 C1037 0.930 . S
H1050 C1038 0.956 . S
H1051 C1038 0.961 . S
H1052 C1038 0.961 . S
H1053 C1039 0.958 . S
H1054 C1039 0.961 . S
H1055 C1039 0.960 . S
C1056 C1057 1.391 . S
C1056 C1058 1.394 . S
C1056 H1072 0.931 . S
C1057 C1056 1.391 . S
C1057 C1061 1.376 . S
C1058 C1056 1.394 . S
C1058 C1059 1.369 . S
C1058 C1062 1.531 . S
C1059 C1058 1.369 . S
C1059 C1060 1.410 . S
C1059 C1067 1.503 . S
C1060 C1059 1.410 . S
C1060 C1061 1.392 . S
C1060 C1063 1.511 . S
C1061 C1057 1.376 . S
C1061 C1060 1.392 . S
C1061 H1073 0.929 . S
C1062 C1058 1.531 . S
C1062 H1074 0.960 . S
C1062 H1075 0.962 . S
C1062 H1076 0.960 . S
C1063 C1060 1.511 . S
C1063 H1077 0.961 . S
C1063 H1078 0.961 . S
C1063 H1079 0.961 . S
C1064 C1065 1.370 . S
C1064 C1066 1.363 . S
C1064 H1080 0.931 . S
C1065 C1064 1.370 . S
C1065 C1069 1.408 . S
C1066 C1064 1.363 . S
C1066 C1067 1.370 . S
C1066 C1070 1.524 . S
C1067 C1059 1.503 . S
C1067 C1066 1.370 . S
C1067 C1068 1.403 . S
C1068 C1067 1.403 . S
C1068 C1069 1.404 . S
C1068 C1071 1.539 . S
C1069 C1065 1.408 . S
C1069 C1068 1.404 . S
C1069 H1081 0.930 . S
C1070 C1066 1.524 . S
C1070 H1082 0.956 . S
C1070 H1083 0.961 . S
C1070 H1084 0.961 . S
C1071 C1068 1.539 . S
C1071 H1085 0.958 . S
C1071 H1086 0.961 . S
C1071 H1087 0.960 . S
H1072 C1056 0.931 . S
H1073 C1061 0.929 . S
H1074 C1062 0.960 . S
H1075 C1062 0.962 . S
H1076 C1062 0.960 . S
H1077 C1063 0.961 . S
H1078 C1063 0.961 . S
H1079 C1063 0.961 . S
H1080 C1064 0.931 . S
H1081 C1069 0.930 . S
H1082 C1070 0.956 . S
H1083 C1070 0.961 . S
H1084 C1070 0.961 . S
H1085 C1071 0.958 . S
H1086 C1071 0.961 . S
H1087 C1071 0.960 . S
C1088 C1089 1.391 . S
C1088 C1090 1.394 . S
C1088 H1104 0.931 . S
C1089 C1088 1.391 . S
C1089 C1093 1.376 . S
C1090 C1088 1.394 . S
C1090 C1091 1.369 . S
C1090 C1094 1.531 . S
C1091 C1090 1.369 . S
C1091 C1092 1.410 . S
C1091 C1099 1.503 . S
C1092 C1091 1.410 . S
C1092 C1093 1.392 . S
C1092 C1095 1.511 . S
C1093 C1089 1.376 . S
C1093 C1092 1.392 . S
C1093 H1105 0.929 . S
C1094 C1090 1.531 . S
C1094 H1106 0.960 . S
C1094 H1107 0.962 . S
C1094 H1108 0.960 . S
C1095 C1092 1.511 . S
C1095 H1109 0.961 . S
C1095 H1110 0.961 . S
C1095 H1111 0.961 . S
C1096 C1097 1.370 . S
C1096 C1098 1.363 . S
C1096 H1112 0.931 1_545 S
C1097 C1096 1.370 . S
C1097 C1101 1.408 . S
C1098 C1096 1.363 . S
C1098 C1099 1.370 . S
C1098 C1102 1.524 1_545 S
C1099 C1091 1.503 . S
C1099 C1098 1.370 . S
C1099 C1100 1.403 . S
C1100 C1099 1.403 . S
C1100 C1101 1.404 . S
C1100 C1103 1.539 . S
C1101 C1097 1.408 . S
C1101 C1100 1.404 . S
C1101 H1113 0.930 . S
C1102 C1098 1.524 1_565 S
C1102 H1114 0.956 . S
C1102 H1115 0.961 . S
C1102 H1116 0.961 . S
C1103 C1100 1.539 . S
C1103 H1117 0.958 . S
C1103 H1118 0.961 . S
C1103 H1119 0.960 . S
H1104 C1088 0.931 . S
H1105 C1093 0.929 . S
H1106 C1094 0.960 . S
H1107 C1094 0.962 . S
H1108 C1094 0.960 . S
H1109 C1095 0.961 . S
H1110 C1095 0.961 . S
H1111 C1095 0.961 . S
H1112 C1096 0.931 1_565 S
H1113 C1101 0.930 . S
H1114 C1102 0.956 . S
H1115 C1102 0.961 . S
H1116 C1102 0.961 . S
H1117 C1103 0.958 . S
H1118 C1103 0.961 . S
H1119 C1103 0.960 . S
C1120 C1121 1.391 . S
C1120 C1122 1.394 . S
C1120 H1136 0.931 . S
C1121 C1120 1.391 . S
C1121 C1125 1.376 . S
C1122 C1120 1.394 . S
C1122 C1123 1.369 . S
C1122 C1126 1.531 . S
C1123 C1122 1.369 . S
C1123 C1124 1.410 . S
C1123 C1131 1.503 . S
C1124 C1123 1.410 . S
C1124 C1125 1.392 . S
C1124 C1127 1.511 . S
C1125 C1121 1.376 . S
C1125 C1124 1.392 . S
C1125 H1137 0.929 . S
C1126 C1122 1.531 . S
C1126 H1138 0.960 . S
C1126 H1139 0.962 . S
C1126 H1140 0.960 . S
C1127 C1124 1.511 . S
C1127 H1141 0.961 . S
C1127 H1142 0.961 . S
C1127 H1143 0.961 . S
C1128 C1129 1.370 . S
C1128 C1130 1.363 . S
C1128 H1144 0.931 . S
C1129 C1128 1.370 . S
C1129 C1133 1.408 . S
C1130 C1128 1.363 . S
C1130 C1131 1.370 . S
C1130 C1134 1.524 . S
C1131 C1123 1.503 . S
C1131 C1130 1.370 . S
C1131 C1132 1.403 . S
C1132 C1131 1.403 . S
C1132 C1133 1.404 . S
C1132 C1135 1.539 . S
C1133 C1129 1.408 . S
C1133 C1132 1.404 . S
C1133 H1145 0.930 . S
C1134 C1130 1.524 . S
C1134 H1146 0.956 . S
C1134 H1147 0.961 . S
C1134 H1148 0.961 . S
C1135 C1132 1.539 . S
C1135 H1149 0.958 . S
C1135 H1150 0.961 . S
C1135 H1151 0.960 . S
H1136 C1120 0.931 . S
H1137 C1125 0.929 . S
H1138 C1126 0.960 . S
H1139 C1126 0.962 . S
H1140 C1126 0.960 . S
H1141 C1127 0.961 . S
H1142 C1127 0.961 . S
H1143 C1127 0.961 . S
H1144 C1128 0.931 . S
H1145 C1133 0.930 . S
H1146 C1134 0.956 . S
H1147 C1134 0.961 . S
H1148 C1134 0.961 . S
H1149 C1135 0.958 . S
H1150 C1135 0.961 . S
H1151 C1135 0.960 . S
C1152 C1153 1.391 . S
C1152 C1154 1.394 . S
C1152 H1168 0.931 . S
C1153 C1152 1.391 . S
C1153 C1157 1.376 . S
C1154 C1152 1.394 . S
C1154 C1155 1.369 . S
C1154 C1158 1.531 . S
C1155 C1154 1.369 . S
C1155 C1156 1.410 . S
C1155 C1163 1.503 . S
C1156 C1155 1.410 . S
C1156 C1157 1.392 . S
C1156 C1159 1.511 . S
C1157 C1153 1.376 . S
C1157 C1156 1.392 . S
C1157 H1169 0.929 1_565 S
C1158 C1154 1.531 . S
C1158 H1170 0.960 . S
C1158 H1171 0.962 . S
C1158 H1172 0.960 . S
C1159 C1156 1.511 . S
C1159 H1173 0.961 1_565 S
C1159 H1174 0.961 1_565 S
C1159 H1175 0.961 . S
C1160 C1161 1.370 1_545 S
C1160 C1162 1.363 . S
C1160 H1176 0.931 . S
C1161 C1160 1.370 1_565 S
C1161 C1165 1.408 . S
C1162 C1160 1.363 . S
C1162 C1163 1.370 1_545 S
C1162 C1166 1.524 . S
C1163 C1155 1.503 . S
C1163 C1162 1.370 1_565 S
C1163 C1164 1.403 . S
C1164 C1163 1.403 . S
C1164 C1165 1.404 . S
C1164 C1167 1.539 . S
C1165 C1161 1.408 . S
C1165 C1164 1.404 . S
C1165 H1177 0.930 . S
C1166 C1162 1.524 . S
C1166 H1178 0.956 . S
C1166 H1179 0.961 . S
C1166 H1180 0.961 . S
C1167 C1164 1.539 . S
C1167 H1181 0.958 . S
C1167 H1182 0.961 . S
C1167 H1183 0.960 . S
H1168 C1152 0.931 . S
H1169 C1157 0.929 1_545 S
H1170 C1158 0.960 . S
H1171 C1158 0.962 . S
H1172 C1158 0.960 . S
H1173 C1159 0.961 1_545 S
H1174 C1159 0.961 1_545 S
H1175 C1159 0.961 . S
H1176 C1160 0.931 . S
H1177 C1165 0.930 . S
H1178 C1166 0.956 . S
H1179 C1166 0.961 . S
H1180 C1166 0.961 . S
H1181 C1167 0.958 . S
H1182 C1167 0.961 . S
H1183 C1167 0.960 . S
C1184 C1185 1.391 . S
C1184 C1186 1.394 . S
C1184 H1200 0.931 . S
C1185 C1184 1.391 . S
C1185 C1189 1.376 . S
C1186 C1184 1.394 . S
C1186 C1187 1.369 . S
C1186 C1190 1.531 . S
C1187 C1186 1.369 . S
C1187 C1188 1.410 . S
C1187 C1195 1.503 . S
C1188 C1187 1.410 . S
C1188 C1189 1.392 . S
C1188 C1191 1.511 . S
C1189 C1185 1.376 . S
C1189 C1188 1.392 . S
C1189 H1201 0.929 . S
C1190 C1186 1.531 . S
C1190 H1202 0.960 . S
C1190 H1203 0.962 . S
C1190 H1204 0.960 . S
C1191 C1188 1.511 . S
C1191 H1205 0.961 . S
C1191 H1206 0.961 . S
C1191 H1207 0.961 . S
C1192 C1193 1.370 . S
C1192 C1194 1.363 . S
C1192 H1208 0.931 . S
C1193 C1192 1.370 . S
C1193 C1197 1.408 . S
C1194 C1192 1.363 . S
C1194 C1195 1.370 . S
C1194 C1198 1.524 . S
C1195 C1187 1.503 . S
C1195 C1194 1.370 . S
C1195 C1196 1.403 . S
C1196 C1195 1.403 . S
C1196 C1197 1.404 . S
C1196 C1199 1.539 . S
C1197 C1193 1.408 . S
C1197 C1196 1.404 . S
C1197 H1209 0.930 . S
C1198 C1194 1.524 . S
C1198 H1210 0.956 . S
C1198 H1211 0.961 . S
C1198 H1212 0.961 . S
C1199 C1196 1.539 . S
C1199 H1213 0.958 . S
C1199 H1214 0.961 . S
C1199 H1215 0.960 . S
H1200 C1184 0.931 . S
H1201 C1189 0.929 . S
H1202 C1190 0.960 . S
H1203 C1190 0.962 . S
H1204 C1190 0.960 . S
H1205 C1191 0.961 . S
H1206 C1191 0.961 . S
H1207 C1191 0.961 . S
H1208 C1192 0.931 . S
H1209 C1197 0.930 . S
H1210 C1198 0.956 . S
H1211 C1198 0.961 . S
H1212 C1198 0.961 . S
H1213 C1199 0.958 . S
H1214 C1199 0.961 . S
H1215 C1199 0.960 . S
C1216 C1217 1.391 . S
C1216 C1218 1.394 . S
C1216 H1232 0.931 1_554 S
C1217 C1216 1.391 . S
C1217 C1221 1.376 . S
C1218 C1216 1.394 . S
C1218 C1219 1.369 . S
C1218 C1222 1.531 1_554 S
C1219 C1218 1.369 . S
C1219 C1220 1.410 . S
C1219 C1227 1.503 . S
C1220 C1219 1.410 . S
C1220 C1221 1.392 . S
C1220 C1223 1.511 . S
C1221 C1217 1.376 . S
C1221 C1220 1.392 . S
C1221 H1233 0.929 . S
C1222 C1218 1.531 1_556 S
C1222 H1234 0.966 . S
C1222 H1235 0.962 . S
C1222 H1236 0.960 . S
C1223 C1220 1.511 . S
C1223 H1237 0.961 . S
C1223 H1238 0.961 . S
C1223 H1239 0.961 . S
C1224 C1225 1.370 . S
C1224 C1226 1.363 . S
C1224 H1240 0.931 . S
C1225 C1224 1.370 . S
C1225 C1229 1.408 1_556 S
C1226 C1224 1.363 . S
C1226 C1227 1.370 1_556 S
C1226 C1230 1.524 . S
C1227 C1219 1.503 . S
C1227 C1226 1.370 1_554 S
C1227 C1228 1.403 . S
C1228 C1227 1.403 . S
C1228 C1229 1.404 . S
C1228 C1231 1.539 . S
C1229 C1225 1.408 1_554 S
C1229 C1228 1.404 . S
C1229 H1241 0.930 . S
C1230 C1226 1.524 . S
C1230 H1242 0.956 . S
C1230 H1243 0.961 . S
C1230 H1244 0.961 . S
C1231 C1228 1.539 . S
C1231 H1245 0.958 . S
C1231 H1246 0.961 . S
C1231 H1247 0.960 . S
H1232 C1216 0.931 1_556 S
H1233 C1221 0.929 . S
H1234 C1222 0.966 . S
H1235 C1222 0.962 . S
H1236 C1222 0.960 . S
H1237 C1223 0.961 . S
H1238 C1223 0.961 . S
H1239 C1223 0.961 . S
H1240 C1224 0.931 . S
H1241 C1229 0.930 . S
H1242 C1230 0.956 . S
H1243 C1230 0.961 . S
H1244 C1230 0.961 . S
H1245 C1231 0.958 . S
H1246 C1231 0.961 . S
H1247 C1231 0.960 . S
C1248 C1249 1.391 . S
C1248 C1250 1.394 . S
C1248 H1264 0.931 . S
C1249 C1248 1.391 . S
C1249 C1253 1.376 . S
C1250 C1248 1.394 . S
C1250 C1251 1.369 . S
C1250 C1254 1.531 . S
C1251 C1250 1.369 . S
C1251 C1252 1.410 . S
C1251 C1259 1.503 . S
C1252 C1251 1.410 . S
C1252 C1253 1.392 . S
C1252 C1255 1.511 . S
C1253 C1249 1.376 . S
C1253 C1252 1.392 . S
C1253 H1265 0.929 . S
C1254 C1250 1.531 . S
C1254 H1266 0.960 . S
C1254 H1267 1.002 . S
C1254 H1268 0.960 . S
C1255 C1252 1.511 . S
C1255 H1269 0.961 . S
C1255 H1270 0.961 . S
C1255 H1271 0.961 . S
C1256 C1257 1.366 . S
C1256 C1258 1.362 1_554 S
C1256 H1272 0.935 1_554 S
C1257 C1256 1.366 . S
C1257 C1261 1.408 . S
C1258 C1256 1.362 1_556 S
C1258 C1259 1.336 1_556 S
C1258 C1262 1.561 . S
C1259 C1251 1.503 . S
C1259 C1258 1.336 1_554 S
C1259 C1260 1.403 . S
C1260 C1259 1.403 . S
C1260 C1261 1.404 . S
C1260 C1263 1.539 . S
C1261 C1257 1.408 . S
C1261 C1260 1.404 . S
C1261 H1273 0.930 . S
C1262 C1258 1.561 . S
C1262 H1274 0.956 . S
C1262 H1275 0.961 . S
C1262 H1276 0.961 . S
C1263 C1260 1.539 . S
C1263 H1277 0.958 . S
C1263 H1278 0.961 . S
C1263 H1279 0.960 . S
H1264 C1248 0.931 . S
H1265 C1253 0.929 . S
H1266 C1254 0.960 . S
H1267 C1254 1.002 . S
H1268 C1254 0.960 . S
H1269 C1255 0.961 . S
H1270 C1255 0.961 . S
H1271 C1255 0.961 . S
H1272 C1256 0.935 1_556 S
H1273 C1261 0.930 . S
H1274 C1262 0.956 . S
H1275 C1262 0.961 . S
H1276 C1262 0.961 . S
H1277 C1263 0.958 . S
H1278 C1263 0.961 . S
H1279 C1263 0.960 . S
C1280 C1281 1.391 . S
C1280 C1282 1.394 . S
C1280 H1296 0.931 . S
C1281 C1280 1.391 . S
C1281 C1285 1.376 . S
C1282 C1280 1.394 . S
C1282 C1283 1.369 . S
C1282 C1286 1.531 . S
C1283 C1282 1.369 . S
C1283 C1284 1.410 . S
C1283 C1291 1.503 . S
C1284 C1283 1.410 . S
C1284 C1285 1.392 . S
C1284 C1287 1.511 . S
C1285 C1281 1.376 . S
C1285 C1284 1.392 . S
C1285 H1297 0.929 . S
C1286 C1282 1.531 . S
C1286 H1298 0.960 . S
C1286 H1299 0.962 . S
C1286 H1300 0.960 . S
C1287 C1284 1.511 . S
C1287 H1301 0.961 . S
C1287 H1302 0.961 . S
C1287 H1303 0.961 . S
C1288 C1289 1.370 . S
C1288 C1290 1.363 . S
C1288 H1304 0.931 . S
C1289 C1288 1.370 . S
C1289 C1293 1.408 . S
C1290 C1288 1.363 . S
C1290 C1291 1.370 . S
C1290 C1294 1.524 . S
C1291 C1283 1.503 . S
C1291 C1290 1.370 . S
C1291 C1292 1.403 . S
C1292 C1291 1.403 . S
C1292 C1293 1.404 . S
C1292 C1295 1.539 . S
C1293 C1289 1.408 . S
C1293 C1292 1.404 . S
C1293 H1305 0.930 . S
C1294 C1290 1.524 . S
C1294 H1306 0.956 . S
C1294 H1307 0.961 . S
C1294 H1308 0.961 . S
C1295 C1292 1.539 . S
C1295 H1309 0.958 . S
C1295 H1310 0.961 . S
C1295 H1311 0.960 . S
H1296 C1280 0.931 . S
H1297 C1285 0.929 . S
H1298 C1286 0.960 . S
H1299 C1286 0.962 . S
H1300 C1286 0.960 . S
H1301 C1287 0.961 . S
H1302 C1287 0.961 . S
H1303 C1287 0.961 . S
H1304 C1288 0.931 . S
H1305 C1293 0.930 . S
H1306 C1294 0.956 . S
H1307 C1294 0.961 . S
H1308 C1294 0.961 . S
H1309 C1295 0.958 . S
H1310 C1295 0.961 . S
H1311 C1295 0.960 . S
C1312 C1313 1.391 . S
C1312 C1314 1.394 . S
C1312 H1328 0.931 . S
C1313 C1312 1.391 . S
C1313 C1317 1.376 . S
C1314 C1312 1.394 . S
C1314 C1315 1.369 . S
C1314 C1318 1.531 . S
C1315 C1314 1.369 . S
C1315 C1316 1.410 . S
C1315 C1323 1.503 . S
C1316 C1315 1.410 . S
C1316 C1317 1.392 . S
C1316 C1319 1.511 . S
C1317 C1313 1.376 . S
C1317 C1316 1.392 . S
C1317 H1329 0.929 . S
C1318 C1314 1.531 . S
C1318 H1330 0.960 . S
C1318 H1331 0.962 . S
C1318 H1332 0.960 . S
C1319 C1316 1.511 . S
C1319 H1333 0.961 . S
C1319 H1334 0.961 . S
C1319 H1335 0.961 . S
C1320 C1321 1.370 . S
C1320 C1322 1.363 . S
C1320 H1336 0.931 . S
C1321 C1320 1.370 . S
C1321 C1325 1.408 . S
C1322 C1320 1.363 . S
C1322 C1323 1.370 . S
C1322 C1326 1.524 . S
C1323 C1315 1.503 . S
C1323 C1322 1.370 . S
C1323 C1324 1.403 . S
C1324 C1323 1.403 . S
C1324 C1325 1.404 . S
C1324 C1327 1.539 . S
C1325 C1321 1.408 . S
C1325 C1324 1.404 . S
C1325 H1337 0.930 . S
C1326 C1322 1.524 . S
C1326 H1338 0.956 . S
C1326 H1339 0.961 . S
C1326 H1340 0.961 . S
C1327 C1324 1.539 . S
C1327 H1341 0.958 . S
C1327 H1342 0.961 . S
C1327 H1343 0.960 . S
H1328 C1312 0.931 . S
H1329 C1317 0.929 . S
H1330 C1318 0.960 . S
H1331 C1318 0.962 . S
H1332 C1318 0.960 . S
H1333 C1319 0.961 . S
H1334 C1319 0.961 . S
H1335 C1319 0.961 . S
H1336 C1320 0.931 . S
H1337 C1325 0.930 . S
H1338 C1326 0.956 . S
H1339 C1326 0.961 . S
H1340 C1326 0.961 . S
H1341 C1327 0.958 . S
H1342 C1327 0.961 . S
H1343 C1327 0.960 . S
C1344 C1345 1.391 . S
C1344 C1346 1.394 . S
C1344 H1360 0.931 . S
C1345 C1344 1.391 . S
C1345 C1349 1.376 . S
C1346 C1344 1.394 . S
C1346 C1347 1.369 . S
C1346 C1350 1.531 . S
C1347 C1346 1.369 . S
C1347 C1348 1.410 . S
C1347 C1355 1.503 . S
C1348 C1347 1.410 . S
C1348 C1349 1.392 . S
C1348 C1351 1.511 . S
C1349 C1345 1.376 . S
C1349 C1348 1.392 . S
C1349 H1361 0.929 . S
C1350 C1346 1.531 . S
C1350 H1362 0.960 . S
C1350 H1363 0.962 . S
C1350 H1364 0.960 . S
C1351 C1348 1.511 . S
C1351 H1365 0.961 . S
C1351 H1366 0.961 . S
C1351 H1367 0.961 . S
C1352 C1353 1.370 . S
C1352 C1354 1.363 . S
C1352 H1368 0.931 . S
C1353 C1352 1.370 . S
C1353 C1357 1.408 . S
C1354 C1352 1.363 . S
C1354 C1355 1.370 . S
C1354 C1358 1.524 . S
C1355 C1347 1.503 . S
C1355 C1354 1.370 . S
C1355 C1356 1.403 . S
C1356 C1355 1.403 . S
C1356 C1357 1.404 . S
C1356 C1359 1.539 . S
C1357 C1353 1.408 . S
C1357 C1356 1.404 . S
C1357 H1369 0.930 . S
C1358 C1354 1.524 . S
C1358 H1370 0.956 . S
C1358 H1371 0.961 . S
C1358 H1372 0.961 . S
C1359 C1356 1.539 . S
C1359 H1373 0.958 . S
C1359 H1374 0.961 . S
C1359 H1375 0.960 . S
H1360 C1344 0.931 . S
H1361 C1349 0.929 . S
H1362 C1350 0.960 . S
H1363 C1350 0.962 . S
H1364 C1350 0.960 . S
H1365 C1351 0.961 . S
H1366 C1351 0.961 . S
H1367 C1351 0.961 . S
H1368 C1352 0.931 . S
H1369 C1357 0.930 . S
H1370 C1358 0.956 . S
H1371 C1358 0.961 . S
H1372 C1358 0.961 . S
H1373 C1359 0.958 . S
H1374 C1359 0.961 . S
H1375 C1359 0.960 . S
C1376 C1377 1.391 . S
C1376 C1378 1.394 . S
C1376 H1392 0.931 . S
C1377 C1376 1.391 . S
C1377 C1381 1.376 . S
C1378 C1376 1.394 . S
C1378 C1379 1.369 . S
C1378 C1382 1.531 . S
C1379 C1378 1.369 . S
C1379 C1380 1.410 . S
C1379 C1387 1.503 . S
C1380 C1379 1.410 . S
C1380 C1381 1.392 . S
C1380 C1383 1.511 . S
C1381 C1377 1.376 . S
C1381 C1380 1.392 . S
C1381 H1393 0.929 . S
C1382 C1378 1.531 . S
C1382 H1394 0.960 . S
C1382 H1395 0.962 . S
C1382 H1396 0.960 . S
C1383 C1380 1.511 . S
C1383 H1397 0.961 . S
C1383 H1398 0.961 . S
C1383 H1399 0.961 . S
C1384 C1385 1.370 . S
C1384 C1386 1.363 . S
C1384 H1400 0.931 . S
C1385 C1384 1.370 . S
C1385 C1389 1.408 . S
C1386 C1384 1.363 . S
C1386 C1387 1.370 . S
C1386 C1390 1.524 . S
C1387 C1379 1.503 . S
C1387 C1386 1.370 . S
C1387 C1388 1.403 . S
C1388 C1387 1.403 . S
C1388 C1389 1.404 . S
C1388 C1391 1.539 . S
C1389 C1385 1.408 . S
C1389 C1388 1.404 . S
C1389 H1401 0.930 . S
C1390 C1386 1.524 . S
C1390 H1402 0.956 . S
C1390 H1403 0.961 . S
C1390 H1404 0.961 . S
C1391 C1388 1.539 . S
C1391 H1405 0.958 . S
C1391 H1406 0.961 . S
C1391 H1407 0.960 . S
H1392 C1376 0.931 . S
H1393 C1381 0.929 . S
H1394 C1382 0.960 . S
H1395 C1382 0.962 . S
H1396 C1382 0.960 . S
H1397 C1383 0.961 . S
H1398 C1383 0.961 . S
H1399 C1383 0.961 . S
H1400 C1384 0.931 . S
H1401 C1389 0.930 . S
H1402 C1390 0.956 . S
H1403 C1390 0.961 . S
H1404 C1390 0.961 . S
H1405 C1391 0.958 . S
H1406 C1391 0.961 . S
H1407 C1391 0.960 . S
C1408 C1409 1.391 . S
C1408 C1410 1.394 . S
C1408 H1424 0.931 . S
C1409 C1408 1.391 . S
C1409 C1413 1.376 . S
C1410 C1408 1.394 . S
C1410 C1411 1.369 . S
C1410 C1414 1.531 . S
C1411 C1410 1.369 . S
C1411 C1412 1.410 . S
C1411 C1419 1.503 . S
C1412 C1411 1.410 . S
C1412 C1413 1.392 . S
C1412 C1415 1.511 . S
C1413 C1409 1.376 . S
C1413 C1412 1.392 . S
C1413 H1425 0.929 . S
C1414 C1410 1.531 . S
C1414 H1426 0.960 . S
C1414 H1427 0.962 . S
C1414 H1428 0.960 . S
C1415 C1412 1.511 . S
C1415 H1429 0.961 . S
C1415 H1430 0.961 . S
C1415 H1431 0.961 . S
C1416 C1417 1.370 . S
C1416 C1418 1.363 . S
C1416 H1432 0.931 . S
C1417 C1416 1.370 . S
C1417 C1421 1.408 . S
C1418 C1416 1.363 . S
C1418 C1419 1.370 . S
C1418 C1422 1.524 . S
C1419 C1411 1.503 . S
C1419 C1418 1.370 . S
C1419 C1420 1.403 . S
C1420 C1419 1.403 . S
C1420 C1421 1.404 . S
C1420 C1423 1.539 . S
C1421 C1417 1.408 . S
C1421 C1420 1.404 . S
C1421 H1433 0.930 . S
C1422 C1418 1.524 . S
C1422 H1434 0.956 . S
C1422 H1435 0.961 . S
C1422 H1436 0.961 . S
C1423 C1420 1.539 . S
C1423 H1437 0.958 . S
C1423 H1438 0.961 . S
C1423 H1439 0.960 . S
H1424 C1408 0.931 . S
H1425 C1413 0.929 . S
H1426 C1414 0.960 . S
H1427 C1414 0.962 . S
H1428 C1414 0.960 . S
H1429 C1415 0.961 . S
H1430 C1415 0.961 . S
H1431 C1415 0.961 . S
H1432 C1416 0.931 . S
H1433 C1421 0.930 . S
H1434 C1422 0.956 . S
H1435 C1422 0.961 . S
H1436 C1422 0.961 . S
H1437 C1423 0.958 . S
H1438 C1423 0.961 . S
H1439 C1423 0.960 . S
C1440 C1441 1.391 . S
C1440 C1442 1.394 . S
C1440 H1456 0.931 . S
C1441 C1440 1.391 . S
C1441 C1445 1.376 . S
C1442 C1440 1.394 . S
C1442 C1443 1.369 . S
C1442 C1446 1.531 . S
C1443 C1442 1.369 . S
C1443 C1444 1.410 . S
C1443 C1451 1.503 . S
C1444 C1443 1.410 . S
C1444 C1445 1.392 . S
C1444 C1447 1.511 . S
C1445 C1441 1.376 . S
C1445 C1444 1.392 . S
C1445 H1457 0.929 . S
C1446 C1442 1.531 . S
C1446 H1458 0.960 . S
C1446 H1459 0.962 . S
C1446 H1460 0.960 . S
C1447 C1444 1.511 . S
C1447 H1461 0.961 . S
C1447 H1462 0.961 . S
C1447 H1463 0.961 . S
C1448 C1449 1.370 . S
C1448 C1450 1.363 . S
C1448 H1464 0.931 . S
C1449 C1448 1.370 . S
C1449 C1453 1.408 . S
C1450 C1448 1.363 . S
C1450 C1451 1.370 . S
C1450 C1454 1.524 . S
C1451 C1443 1.503 . S
C1451 C1450 1.370 . S
C1451 C1452 1.403 . S
C1452 C1451 1.403 . S
C1452 C1453 1.404 . S
C1452 C1455 1.539 . S
C1453 C1449 1.408 . S
C1453 C1452 1.404 . S
C1453 H1465 0.930 . S
C1454 C1450 1.524 . S
C1454 H1466 0.956 . S
C1454 H1467 0.961 . S
C1454 H1468 0.961 . S
C1455 C1452 1.539 . S
C1455 H1469 0.958 . S
C1455 H1470 0.961 . S
C1455 H1471 0.960 . S
H1456 C1440 0.931 . S
H1457 C1445 0.929 . S
H1458 C1446 0.960 . S
H1459 C1446 0.962 . S
H1460 C1446 0.960 . S
H1461 C1447 0.961 . S
H1462 C1447 0.961 . S
H1463 C1447 0.961 . S
H1464 C1448 0.931 . S
H1465 C1453 0.930 . S
H1466 C1454 0.956 . S
H1467 C1454 0.961 . S
H1468 C1454 0.961 . S
H1469 C1455 0.958 . S
H1470 C1455 0.961 . S
H1471 C1455 0.960 . S
C1472 C1473 1.391 1_655 S
C1472 C1474 1.394 1_655 S
C1472 H1488 0.931 . S
C1473 C1472 1.391 1_455 S
C1473 C1477 1.376 . S
C1474 C1472 1.394 1_455 S
C1474 C1475 1.369 . S
C1474 C1478 1.531 1_455 S
C1475 C1474 1.369 . S
C1475 C1476 1.410 . S
C1475 C1483 1.503 . S
C1476 C1475 1.410 . S
C1476 C1477 1.392 . S
C1476 C1479 1.511 . S
C1477 C1473 1.376 . S
C1477 C1476 1.392 . S
C1477 H1489 0.929 . S
C1478 C1474 1.531 1_655 S
C1478 H1490 0.960 1_655 S
C1478 H1491 0.962 . S
C1478 H1492 0.960 . S
C1479 C1476 1.511 . S
C1479 H1493 0.961 . S
C1479 H1494 0.961 . S
C1479 H1495 0.961 . S
C1480 C1481 1.373 . S
C1480 C1482 1.363 1_455 S
C1480 H1496 0.928 1_455 S
C1481 C1480 1.373 . S
C1481 C1485 1.408 . S
C1482 C1480 1.363 1_655 S
C1482 C1483 1.370 1_655 S
C1482 C1486 1.524 . S
C1483 C1475 1.503 . S
C1483 C1482 1.370 1_455 S
C1483 C1484 1.403 . S
C1484 C1483 1.403 . S
C1484 C1485 1.404 . S
C1484 C1487 1.539 . S
C1485 C1481 1.408 . S
C1485 C1484 1.404 . S
C1485 H1497 0.930 1_556 S
C1486 C1482 1.524 . S
C1486 H1498 0.956 . S
C1486 H1499 0.961 . S
C1486 H1500 0.961 . S
C1487 C1484 1.539 . S
C1487 H1501 0.958 . S
C1487 H1502 0.961 . S
C1487 H1503 0.960 . S
H1488 C1472 0.931 . S
H1489 C1477 0.929 . S
H1490 C1478 0.960 1_455 S
H1491 C1478 0.962 . S
H1492 C1478 0.960 . S
H1493 C1479 0.961 . S
H1494 C1479 0.961 . S
H1495 C1479 0.961 . S
H1496 C1480 0.928 1_655 S
H1497 C1485 0.930 1_554 S
H1498 C1486 0.956 . S
H1499 C1486 0.961 . S
H1500 C1486 0.961 . S
H1501 C1487 0.958 . S
H1502 C1487 0.961 . S
H1503 C1487 0.960 . S
C1504 C1505 1.391 . S
C1504 C1506 1.394 . S
C1504 H1520 0.931 . S
C1505 C1504 1.391 . S
C1505 C1509 1.376 . S
C1506 C1504 1.394 . S
C1506 C1507 1.369 . S
C1506 C1510 1.531 . S
C1507 C1506 1.369 . S
C1507 C1508 1.410 . S
C1507 C1515 1.503 . S
C1508 C1507 1.410 . S
C1508 C1509 1.392 . S
C1508 C1511 1.511 . S
C1509 C1505 1.376 . S
C1509 C1508 1.392 . S
C1509 H1521 0.929 . S
C1510 C1506 1.531 . S
C1510 H1522 0.960 . S
C1510 H1523 0.962 . S
C1510 H1524 0.960 . S
C1511 C1508 1.511 . S
C1511 H1525 0.961 . S
C1511 H1526 0.961 . S
C1511 H1527 0.961 . S
C1512 C1513 1.370 . S
C1512 C1514 1.363 . S
C1512 H1528 0.931 . S
C1513 C1512 1.370 . S
C1513 C1517 1.408 . S
C1514 C1512 1.363 . S
C1514 C1515 1.370 . S
C1514 C1518 1.524 . S
C1515 C1507 1.503 . S
C1515 C1514 1.370 . S
C1515 C1516 1.403 . S
C1516 C1515 1.403 . S
C1516 C1517 1.404 . S
C1516 C1519 1.539 . S
C1517 C1513 1.408 . S
C1517 C1516 1.404 . S
C1517 H1529 0.930 . S
C1518 C1514 1.524 . S
C1518 H1530 0.956 . S
C1518 H1531 0.961 . S
C1518 H1532 0.961 . S
C1519 C1516 1.539 . S
C1519 H1533 0.958 . S
C1519 H1534 0.961 . S
C1519 H1535 0.960 . S
H1520 C1504 0.931 . S
H1521 C1509 0.929 . S
H1522 C1510 0.960 . S
H1523 C1510 0.962 . S
H1524 C1510 0.960 . S
H1525 C1511 0.961 . S
H1526 C1511 0.961 . S
H1527 C1511 0.961 . S
H1528 C1512 0.931 . S
H1529 C1517 0.930 . S
H1530 C1518 0.956 . S
H1531 C1518 0.961 . S
H1532 C1518 0.961 . S
H1533 C1519 0.958 . S
H1534 C1519 0.961 . S
H1535 C1519 0.960 . S
C1536 C1537 1.391 . S
C1536 C1538 1.394 . S
C1536 H1552 0.931 . S
C1537 C1536 1.391 . S
C1537 C1541 1.376 . S
C1538 C1536 1.394 . S
C1538 C1539 1.369 . S
C1538 C1542 1.531 . S
C1539 C1538 1.369 . S
C1539 C1540 1.410 . S
C1539 C1547 1.503 . S
C1540 C1539 1.410 . S
C1540 C1541 1.392 . S
C1540 C1543 1.511 . S
C1541 C1537 1.376 . S
C1541 C1540 1.392 . S
C1541 H1553 0.929 . S
C1542 C1538 1.531 . S
C1542 H1554 0.960 . S
C1542 H1555 0.962 . S
C1542 H1556 0.960 . S
C1543 C1540 1.511 . S
C1543 H1557 0.961 . S
C1543 H1558 0.961 . S
C1543 H1559 0.961 . S
C1544 C1545 1.370 . S
C1544 C1546 1.363 . S
C1544 H1560 0.931 . S
C1545 C1544 1.370 . S
C1545 C1549 1.408 . S
C1546 C1544 1.363 . S
C1546 C1547 1.370 . S
C1546 C1550 1.524 . S
C1547 C1539 1.503 . S
C1547 C1546 1.370 . S
C1547 C1548 1.403 . S
C1548 C1547 1.403 . S
C1548 C1549 1.404 . S
C1548 C1551 1.539 . S
C1549 C1545 1.408 . S
C1549 C1548 1.404 . S
C1549 H1561 0.930 . S
C1550 C1546 1.524 . S
C1550 H1562 0.956 . S
C1550 H1563 0.961 . S
C1550 H1564 0.961 . S
C1551 C1548 1.539 . S
C1551 H1565 0.958 . S
C1551 H1566 0.961 . S
C1551 H1567 0.960 . S
H1552 C1536 0.931 . S
H1553 C1541 0.929 . S
H1554 C1542 0.960 . S
H1555 C1542 0.962 . S
H1556 C1542 0.960 . S
H1557 C1543 0.961 . S
H1558 C1543 0.961 . S
H1559 C1543 0.961 . S
H1560 C1544 0.931 . S
H1561 C1549 0.930 . S
H1562 C1550 0.956 . S
H1563 C1550 0.961 . S
H1564 C1550 0.961 . S
H1565 C1551 0.958 . S
H1566 C1551 0.961 . S
H1567 C1551 0.960 . S
C1568 C1569 1.391 . S
C1568 C1570 1.394 . S
C1568 H1584 0.931 . S
C1569 C1568 1.391 . S
C1569 C1573 1.376 . S
C1570 C1568 1.394 . S
C1570 C1571 1.369 . S
C1570 C1574 1.531 . S
C1571 C1570 1.369 . S
C1571 C1572 1.410 . S
C1571 C1579 1.503 . S
C1572 C1571 1.410 . S
C1572 C1573 1.392 . S
C1572 C1575 1.511 . S
C1573 C1569 1.376 . S
C1573 C1572 1.392 . S
C1573 H1585 0.929 . S
C1574 C1570 1.531 . S
C1574 H1586 0.960 . S
C1574 H1587 0.962 . S
C1574 H1588 0.960 . S
C1575 C1572 1.511 . S
C1575 H1589 0.961 . S
C1575 H1590 0.961 . S
C1575 H1591 0.961 . S
C1576 C1577 1.370 . S
C1576 C1578 1.363 . S
C1576 H1592 0.931 . S
C1577 C1576 1.370 . S
C1577 C1581 1.408 . S
C1578 C1576 1.363 . S
C1578 C1579 1.370 . S
C1578 C1582 1.524 . S
C1579 C1571 1.503 . S
C1579 C1578 1.370 . S
C1579 C1580 1.403 . S
C1580 C1579 1.403 . S
C1580 C1581 1.404 . S
C1580 C1583 1.539 . S
C1581 C1577 1.408 . S
C1581 C1580 1.404 . S
C1581 H1593 0.930 . S
C1582 C1578 1.524 . S
C1582 H1594 0.956 . S
C1582 H1595 0.961 . S
C1582 H1596 0.961 . S
C1583 C1580 1.539 . S
C1583 H1597 0.958 . S
C1583 H1598 0.961 . S
C1583 H1599 0.960 . S
H1584 C1568 0.931 . S
H1585 C1573 0.929 . S
H1586 C1574 0.960 . S
H1587 C1574 0.962 . S
H1588 C1574 0.960 . S
H1589 C1575 0.961 . S
H1590 C1575 0.961 . S
H1591 C1575 0.961 . S
H1592 C1576 0.931 . S
H1593 C1581 0.930 . S
H1594 C1582 0.956 . S
H1595 C1582 0.961 . S
H1596 C1582 0.961 . S
H1597 C1583 0.958 . S
H1598 C1583 0.961 . S
H1599 C1583 0.960 . S
C1600 C1601 1.391 . S
C1600 C1602 1.394 . S
C1600 H1616 0.931 . S
C1601 C1600 1.391 . S
C1601 C1605 1.376 1_455 S
C1602 C1600 1.394 . S
C1602 C1603 1.369 . S
C1602 C1606 1.531 . S
C1603 C1602 1.369 . S
C1603 C1604 1.410 1_455 S
C1603 C1611 1.503 . S
C1604 C1603 1.410 1_655 S
C1604 C1605 1.392 . S
C1604 C1607 1.511 . S
C1605 C1601 1.376 1_655 S
C1605 C1604 1.392 . S
C1605 H1617 0.929 . S
C1606 C1602 1.531 . S
C1606 H1618 0.960 . S
C1606 H1619 0.962 . S
C1606 H1620 0.960 . S
C1607 C1604 1.511 . S
C1607 H1621 0.961 . S
C1607 H1622 0.961 . S
C1607 H1623 0.961 . S
C1608 C1609 1.370 . S
C1608 C1610 1.363 . S
C1608 H1624 0.931 . S
C1609 C1608 1.370 . S
C1609 C1613 1.408 . S
C1610 C1608 1.363 . S
C1610 C1611 1.370 . S
C1610 C1614 1.524 . S
C1611 C1603 1.503 . S
C1611 C1610 1.370 . S
C1611 C1612 1.425 . S
C1612 C1611 1.425 . S
C1612 C1613 1.412 . S
C1612 C1615 1.508 1_455 S
C1613 C1609 1.408 . S
C1613 C1612 1.412 . S
C1613 H1625 0.930 1_455 S
C1614 C1610 1.524 . S
C1614 H1626 0.956 . S
C1614 H1627 0.961 . S
C1614 H1628 0.961 . S
C1615 C1612 1.508 1_655 S
C1615 H1629 0.958 . S
C1615 H1630 0.961 . S
C1615 H1631 0.960 . S
H1616 C1600 0.931 . S
H1617 C1605 0.929 . S
H1618 C1606 0.960 . S
H1619 C1606 0.962 . S
H1620 C1606 0.960 . S
H1621 C1607 0.961 . S
H1622 C1607 0.961 . S
H1623 C1607 0.961 . S
H1624 C1608 0.931 . S
H1625 C1613 0.930 1_655 S
H1626 C1614 0.956 . S
H1627 C1614 0.961 . S
H1628 C1614 0.961 . S
H1629 C1615 0.958 . S
H1630 C1615 0.961 . S
H1631 C1615 0.960 . S
C1632 C1633 1.391 . S
C1632 C1634 1.394 . S
C1632 H1648 0.931 . S
C1633 C1632 1.391 . S
C1633 C1637 1.376 . S
C1634 C1632 1.394 . S
C1634 C1635 1.369 . S
C1634 C1638 1.531 . S
C1635 C1634 1.369 . S
C1635 C1636 1.410 . S
C1635 C1643 1.503 . S
C1636 C1635 1.410 . S
C1636 C1637 1.392 . S
C1636 C1639 1.511 . S
C1637 C1633 1.376 . S
C1637 C1636 1.392 . S
C1637 H1649 0.929 . S
C1638 C1634 1.531 . S
C1638 H1650 0.960 . S
C1638 H1651 0.962 . S
C1638 H1652 0.960 . S
C1639 C1636 1.511 . S
C1639 H1653 0.961 . S
C1639 H1654 0.961 . S
C1639 H1655 0.961 . S
C1640 C1641 1.370 . S
C1640 C1642 1.363 . S
C1640 H1656 0.931 . S
C1641 C1640 1.370 . S
C1641 C1645 1.408 . S
C1642 C1640 1.363 . S
C1642 C1643 1.370 . S
C1642 C1646 1.524 . S
C1643 C1635 1.503 . S
C1643 C1642 1.370 . S
C1643 C1644 1.403 . S
C1644 C1643 1.403 . S
C1644 C1645 1.404 . S
C1644 C1647 1.539 . S
C1645 C1641 1.408 . S
C1645 C1644 1.404 . S
C1645 H1657 0.930 . S
C1646 C1642 1.524 . S
C1646 H1658 0.956 . S
C1646 H1659 0.961 . S
C1646 H1660 0.961 . S
C1647 C1644 1.539 . S
C1647 H1661 0.958 . S
C1647 H1662 0.961 . S
C1647 H1663 0.960 . S
H1648 C1632 0.931 . S
H1649 C1637 0.929 . S
H1650 C1638 0.960 . S
H1651 C1638 0.962 . S
H1652 C1638 0.960 . S
H1653 C1639 0.961 . S
H1654 C1639 0.961 . S
H1655 C1639 0.961 . S
H1656 C1640 0.931 . S
H1657 C1645 0.930 . S
H1658 C1646 0.956 . S
H1659 C1646 0.961 . S
H1660 C1646 0.961 . S
H1661 C1647 0.958 . S
H1662 C1647 0.961 . S
H1663 C1647 0.960 . S
C1664 C1665 1.391 . S
C1664 C1666 1.394 . S
C1664 H1680 0.931 . S
C1665 C1664 1.391 . S
C1665 C1669 1.376 . S
C1666 C1664 1.394 . S
C1666 C1667 1.369 . S
C1666 C1670 1.531 . S
C1667 C1666 1.369 . S
C1667 C1668 1.410 . S
C1667 C1675 1.503 . S
C1668 C1667 1.410 . S
C1668 C1669 1.392 . S
C1668 C1671 1.511 . S
C1669 C1665 1.376 . S
C1669 C1668 1.392 . S
C1669 H1681 0.929 . S
C1670 C1666 1.531 . S
C1670 H1682 0.960 . S
C1670 H1683 0.962 . S
C1670 H1684 0.960 . S
C1671 C1668 1.511 . S
C1671 H1685 0.961 . S
C1671 H1686 0.961 . S
C1671 H1687 0.961 . S
C1672 C1673 1.370 . S
C1672 C1674 1.363 . S
C1672 H1688 0.931 . S
C1673 C1672 1.370 . S
C1673 C1677 1.408 . S
C1674 C1672 1.363 . S
C1674 C1675 1.370 . S
C1674 C1678 1.524 . S
C1675 C1667 1.503 . S
C1675 C1674 1.370 . S
C1675 C1676 1.403 . S
C1676 C1675 1.403 . S
C1676 C1677 1.404 . S
C1676 C1679 1.539 . S
C1677 C1673 1.408 . S
C1677 C1676 1.404 . S
C1677 H1689 0.930 . S
C1678 C1674 1.524 . S
C1678 H1690 0.956 . S
C1678 H1691 0.961 . S
C1678 H1692 0.961 . S
C1679 C1676 1.539 . S
C1679 H1693 0.958 . S
C1679 H1694 0.961 . S
C1679 H1695 0.960 . S
H1680 C1664 0.931 . S
H1681 C1669 0.929 . S
H1682 C1670 0.960 . S
H1683 C1670 0.962 . S
H1684 C1670 0.960 . S
H1685 C1671 0.961 . S
H1686 C1671 0.961 . S
H1687 C1671 0.961 . S
H1688 C1672 0.931 . S
H1689 C1677 0.930 . S
H1690 C1678 0.956 . S
H1691 C1678 0.961 . S
H1692 C1678 0.961 . S
H1693 C1679 0.958 . S
H1694 C1679 0.961 . S
H1695 C1679 0.960 . S
C1696 C1697 1.391 . S
C1696 C1698 1.394 . S
C1696 H1712 0.931 . S
C1697 C1696 1.391 . S
C1697 C1701 1.376 . S
C1698 C1696 1.394 . S
C1698 C1699 1.369 . S
C1698 C1702 1.531 . S
C1699 C1698 1.369 . S
C1699 C1700 1.410 . S
C1699 C1707 1.503 . S
C1700 C1699 1.410 . S
C1700 C1701 1.392 . S
C1700 C1703 1.511 . S
C1701 C1697 1.376 . S
C1701 C1700 1.392 . S
C1701 H1713 0.929 . S
C1702 C1698 1.531 . S
C1702 H1714 0.960 . S
C1702 H1715 0.962 . S
C1702 H1716 0.960 . S
C1703 C1700 1.511 . S
C1703 H1717 0.961 . S
C1703 H1718 0.961 . S
C1703 H1719 0.961 . S
C1704 C1705 1.370 . S
C1704 C1706 1.363 . S
C1704 H1720 0.931 . S
C1705 C1704 1.370 . S
C1705 C1709 1.408 . S
C1706 C1704 1.363 . S
C1706 C1707 1.370 . S
C1706 C1710 1.524 . S
C1707 C1699 1.503 . S
C1707 C1706 1.370 . S
C1707 C1708 1.403 . S
C1708 C1707 1.403 . S
C1708 C1709 1.404 . S
C1708 C1711 1.539 . S
C1709 C1705 1.408 . S
C1709 C1708 1.404 . S
C1709 H1721 0.930 . S
C1710 C1706 1.524 . S
C1710 H1722 0.956 . S
C1710 H1723 0.961 . S
C1710 H1724 0.961 . S
C1711 C1708 1.539 . S
C1711 H1725 0.958 . S
C1711 H1726 0.961 . S
C1711 H1727 0.960 . S
H1712 C1696 0.931 . S
H1713 C1701 0.929 . S
H1714 C1702 0.960 . S
H1715 C1702 0.962 . S
H1716 C1702 0.960 . S
H1717 C1703 0.961 . S
H1718 C1703 0.961 . S
H1719 C1703 0.961 . S
H1720 C1704 0.931 . S
H1721 C1709 0.930 . S
H1722 C1710 0.956 . S
H1723 C1710 0.961 . S
H1724 C1710 0.961 . S
H1725 C1711 0.958 . S
H1726 C1711 0.961 . S
H1727 C1711 0.960 . S
C1728 C1729 1.391 . S
C1728 C1730 1.394 . S
C1728 H1744 0.931 . S
C1729 C1728 1.391 . S
C1729 C1733 1.376 . S
C1730 C1728 1.394 . S
C1730 C1731 1.369 . S
C1730 C1734 1.531 . S
C1731 C1730 1.369 . S
C1731 C1732 1.410 . S
C1731 C1739 1.503 . S
C1732 C1731 1.410 . S
C1732 C1733 1.392 . S
C1732 C1735 1.511 1_545 S
C1733 C1729 1.376 . S
C1733 C1732 1.392 . S
C1733 H1745 0.929 1_545 S
C1734 C1730 1.531 . S
C1734 H1746 0.960 . S
C1734 H1747 0.962 . S
C1734 H1748 0.960 . S
C1735 C1732 1.511 1_565 S
C1735 H1749 0.961 . S
C1735 H1750 0.961 . S
C1735 H1751 0.961 . S
C1736 C1737 1.370 . S
C1736 C1738 1.363 . S
C1736 H1752 0.931 . S
C1737 C1736 1.370 . S
C1737 C1741 1.408 . S
C1738 C1736 1.363 . S
C1738 C1739 1.370 . S
C1738 C1742 1.524 . S
C1739 C1731 1.503 . S
C1739 C1738 1.370 . S
C1739 C1740 1.403 . S
C1740 C1739 1.403 . S
C1740 C1741 1.404 . S
C1740 C1743 1.539 . S
C1741 C1737 1.408 . S
C1741 C1740 1.404 . S
C1741 H1753 0.930 . S
C1742 C1738 1.524 . S
C1742 H1754 0.956 . S
C1742 H1755 0.961 1_545 S
C1742 H1756 0.961 1_545 S
C1743 C1740 1.539 . S
C1743 H1757 0.958 . S
C1743 H1758 0.961 . S
C1743 H1759 0.960 . S
H1744 C1728 0.931 . S
H1745 C1733 0.929 1_565 S
H1746 C1734 0.960 . S
H1747 C1734 0.962 . S
H1748 C1734 0.960 . S
H1749 C1735 0.961 . S
H1750 C1735 0.961 . S
H1751 C1735 0.961 . S
H1752 C1736 0.931 . S
H1753 C1741 0.930 . S
H1754 C1742 0.956 . S
H1755 C1742 0.961 1_565 S
H1756 C1742 0.961 1_565 S
H1757 C1743 0.958 . S
H1758 C1743 0.961 . S
H1759 C1743 0.960 . S
C1760 C1761 1.391 . S
C1760 C1762 1.394 . S
C1760 H1776 0.931 . S
C1761 C1760 1.391 . S
C1761 C1765 1.376 . S
C1762 C1760 1.394 . S
C1762 C1763 1.369 . S
C1762 C1766 1.531 . S
C1763 C1762 1.369 . S
C1763 C1764 1.410 . S
C1763 C1771 1.503 . S
C1764 C1763 1.410 . S
C1764 C1765 1.392 . S
C1764 C1767 1.511 . S
C1765 C1761 1.376 . S
C1765 C1764 1.392 . S
C1765 H1777 0.929 . S
C1766 C1762 1.531 . S
C1766 H1778 0.960 . S
C1766 H1779 0.962 . S
C1766 H1780 0.960 . S
C1767 C1764 1.511 . S
C1767 H1781 0.961 . S
C1767 H1782 0.961 . S
C1767 H1783 0.961 . S
C1768 C1769 1.370 . S
C1768 C1770 1.363 . S
C1768 H1784 0.931 . S
C1769 C1768 1.370 . S
C1769 C1773 1.408 . S
C1770 C1768 1.363 . S
C1770 C1771 1.370 . S
C1770 C1774 1.524 . S
C1771 C1763 1.503 . S
C1771 C1770 1.370 . S
C1771 C1772 1.403 . S
C1772 C1771 1.403 . S
C1772 C1773 1.404 . S
C1772 C1775 1.539 . S
C1773 C1769 1.408 . S
C1773 C1772 1.404 . S
C1773 H1785 0.930 . S
C1774 C1770 1.524 . S
C1774 H1786 0.956 . S
C1774 H1787 0.961 . S
C1774 H1788 0.961 . S
C1775 C1772 1.539 . S
C1775 H1789 0.958 . S
C1775 H1790 0.961 . S
C1775 H1791 0.960 . S
H1776 C1760 0.931 . S
H1777 C1765 0.929 . S
H1778 C1766 0.960 . S
H1779 C1766 0.962 . S
H1780 C1766 0.960 . S
H1781 C1767 0.961 . S
H1782 C1767 0.961 . S
H1783 C1767 0.961 . S
H1784 C1768 0.931 . S
H1785 C1773 0.930 . S
H1786 C1774 0.956 . S
H1787 C1774 0.961 . S
H1788 C1774 0.961 . S
H1789 C1775 0.958 . S
H1790 C1775 0.961 . S
H1791 C1775 0.960 . S
C1792 C1793 1.391 . S
C1792 C1794 1.394 . S
C1792 H1808 0.931 . S
C1793 C1792 1.391 . S
C1793 C1797 1.376 1_545 S
C1794 C1792 1.394 . S
C1794 C1795 1.369 1_545 S
C1794 C1798 1.531 . S
C1795 C1794 1.369 1_565 S
C1795 C1796 1.410 . S
C1795 C1803 1.503 . S
C1796 C1795 1.410 . S
C1796 C1797 1.392 . S
C1796 C1799 1.511 . S
C1797 C1793 1.376 1_565 S
C1797 C1796 1.392 . S
C1797 H1809 0.929 . S
C1798 C1794 1.531 . S
C1798 H1810 0.960 . S
C1798 H1811 0.962 . S
C1798 H1812 0.960 . S
C1799 C1796 1.511 . S
C1799 H1813 0.961 . S
C1799 H1814 0.961 . S
C1799 H1815 0.961 . S
C1800 C1801 1.370 . S
C1800 C1802 1.363 . S
C1800 H1816 0.931 . S
C1801 C1800 1.370 . S
C1801 C1805 1.389 1_565 S
C1802 C1800 1.363 . S
C1802 C1803 1.370 . S
C1802 C1806 1.524 . S
C1803 C1795 1.503 . S
C1803 C1802 1.370 . S
C1803 C1804 1.403 1_565 S
C1804 C1803 1.403 1_545 S
C1804 C1805 1.409 . S
C1804 C1807 1.539 . S
C1805 C1801 1.389 1_545 S
C1805 C1804 1.409 . S
C1805 H1817 0.944 . S
C1806 C1802 1.524 . S
C1806 H1818 0.956 . S
C1806 H1819 0.961 . S
C1806 H1820 0.961 . S
C1807 C1804 1.539 . S
C1807 H1821 0.958 . S
C1807 H1822 0.961 . S
C1807 H1823 0.960 . S
H1808 C1792 0.931 . S
H1809 C1797 0.929 . S
H1810 C1798 0.960 . S
H1811 C1798 0.962 . S
H1812 C1798 0.960 . S
H1813 C1799 0.961 . S
H1814 C1799 0.961 . S
H1815 C1799 0.961 . S
H1816 C1800 0.931 . S
H1817 C1805 0.944 . S
H1818 C1806 0.956 . S
H1819 C1806 0.961 . S
H1820 C1806 0.961 . S
H1821 C1807 0.958 . S
H1822 C1807 0.961 . S
H1823 C1807 0.960 . S
C1824 C1825 1.391 . S
C1824 C1826 1.394 . S
C1824 H1840 0.931 . S
C1825 C1824 1.391 . S
C1825 C1829 1.376 . S
C1826 C1824 1.394 . S
C1826 C1827 1.369 . S
C1826 C1830 1.531 . S
C1827 C1826 1.369 . S
C1827 C1828 1.410 . S
C1827 C1835 1.503 . S
C1828 C1827 1.410 . S
C1828 C1829 1.392 . S
C1828 C1831 1.511 . S
C1829 C1825 1.376 . S
C1829 C1828 1.392 . S
C1829 H1841 0.929 . S
C1830 C1826 1.531 . S
C1830 H1842 0.960 . S
C1830 H1843 0.962 . S
C1830 H1844 0.960 . S
C1831 C1828 1.511 . S
C1831 H1845 0.961 . S
C1831 H1846 0.961 . S
C1831 H1847 0.961 . S
C1832 C1833 1.370 . S
C1832 C1834 1.363 . S
C1832 H1848 0.931 . S
C1833 C1832 1.370 . S
C1833 C1837 1.408 . S
C1834 C1832 1.363 . S
C1834 C1835 1.370 . S
C1834 C1838 1.524 . S
C1835 C1827 1.503 . S
C1835 C1834 1.370 . S
C1835 C1836 1.403 . S
C1836 C1835 1.403 . S
C1836 C1837 1.404 . S
C1836 C1839 1.539 . S
C1837 C1833 1.408 . S
C1837 C1836 1.404 . S
C1837 H1849 0.930 . S
C1838 C1834 1.524 . S
C1838 H1850 0.956 . S
C1838 H1851 0.961 . S
C1838 H1852 0.961 . S
C1839 C1836 1.539 . S
C1839 H1853 0.958 . S
C1839 H1854 0.961 . S
C1839 H1855 0.960 . S
H1840 C1824 0.931 . S
H1841 C1829 0.929 . S
H1842 C1830 0.960 . S
H1843 C1830 0.962 . S
H1844 C1830 0.960 . S
H1845 C1831 0.961 . S
H1846 C1831 0.961 . S
H1847 C1831 0.961 . S
H1848 C1832 0.931 . S
H1849 C1837 0.930 . S
H1850 C1838 0.956 . S
H1851 C1838 0.961 . S
H1852 C1838 0.961 . S
H1853 C1839 0.958 . S
H1854 C1839 0.961 . S
H1855 C1839 0.960 . S
C1856 C1857 1.391 . S
C1856 C1858 1.394 1_545 S
C1856 H1872 0.931 1_545 S
C1857 C1856 1.391 . S
C1857 C1861 1.376 . S
C1858 C1856 1.394 1_565 S
C1858 C1859 1.369 1_565 S
C1858 C1862 1.531 . S
C1859 C1858 1.369 1_545 S
C1859 C1860 1.410 . S
C1859 C1867 1.503 . S
C1860 C1859 1.410 . S
C1860 C1861 1.392 . S
C1860 C1863 1.511 . S
C1861 C1857 1.376 . S
C1861 C1860 1.392 . S
C1861 H1873 0.929 . S
C1862 C1858 1.531 . S
C1862 H1874 0.960 . S
C1862 H1875 0.962 . S
C1862 H1876 0.960 . S
C1863 C1860 1.511 . S
C1863 H1877 0.961 . S
C1863 H1878 0.961 . S
C1863 H1879 0.961 . S
C1864 C1865 1.370 . S
C1864 C1866 1.363 . S
C1864 H1880 0.931 . S
C1865 C1864 1.370 . S
C1865 C1869 1.408 1_565 S
C1866 C1864 1.363 . S
C1866 C1867 1.370 1_565 S
C1866 C1870 1.524 . S
C1867 C1859 1.503 . S
C1867 C1866 1.370 1_545 S
C1867 C1868 1.403 . S
C1868 C1867 1.403 . S
C1868 C1869 1.404 . S
C1868 C1871 1.539 . S
C1869 C1865 1.408 1_545 S
C1869 C1868 1.404 . S
C1869 H1881 0.930 . S
C1870 C1866 1.524 . S
C1870 H1882 0.956 . S
C1870 H1883 0.961 . S
C1870 H1884 0.961 . S
C1871 C1868 1.539 . S
C1871 H1885 0.958 . S
C1871 H1886 0.961 . S
C1871 H1887 0.960 . S
H1872 C1856 0.931 1_565 S
H1873 C1861 0.929 . S
H1874 C1862 0.960 . S
H1875 C1862 0.962 . S
H1876 C1862 0.960 . S
H1877 C1863 0.961 . S
H1878 C1863 0.961 . S
H1879 C1863 0.961 . S
H1880 C1864 0.931 . S
H1881 C1869 0.930 . S
H1882 C1870 0.956 . S
H1883 C1870 0.961 . S
H1884 C1870 0.961 . S
H1885 C1871 0.958 . S
H1886 C1871 0.961 . S
H1887 C1871 0.960 . S
C1888 C1889 1.391 . S
C1888 C1890 1.394 . S
C1888 H1904 0.931 . S
C1889 C1888 1.391 . S
C1889 C1893 1.376 . S
C1890 C1888 1.394 . S
C1890 C1891 1.369 . S
C1890 C1894 1.531 . S
C1891 C1890 1.369 . S
C1891 C1892 1.410 . S
C1891 C1899 1.503 . S
C1892 C1891 1.410 . S
C1892 C1893 1.392 . S
C1892 C1895 1.511 . S
C1893 C1889 1.376 . S
C1893 C1892 1.392 . S
C1893 H1905 0.929 . S
C1894 C1890 1.531 . S
C1894 H1906 0.960 . S
C1894 H1907 0.962 . S
C1894 H1908 0.960 . S
C1895 C1892 1.511 . S
C1895 H1909 0.961 . S
C1895 H1910 0.961 . S
C1895 H1911 0.961 . S
C1896 C1897 1.370 . S
C1896 C1898 1.363 . S
C1896 H1912 0.931 . S
C1897 C1896 1.370 . S
C1897 C1901 1.408 . S
C1898 C1896 1.363 . S
C1898 C1899 1.370 . S
C1898 C1902 1.524 . S
C1899 C1891 1.503 . S
C1899 C1898 1.370 . S
C1899 C1900 1.403 . S
C1900 C1899 1.403 . S
C1900 C1901 1.404 . S
C1900 C1903 1.539 . S
C1901 C1897 1.408 . S
C1901 C1900 1.404 . S
C1901 H1913 0.930 . S
C1902 C1898 1.524 . S
C1902 H1914 0.956 . S
C1902 H1915 0.961 . S
C1902 H1916 0.961 . S
C1903 C1900 1.539 . S
C1903 H1917 0.958 . S
C1903 H1918 0.961 . S
C1903 H1919 0.960 . S
H1904 C1888 0.931 . S
H1905 C1893 0.929 . S
H1906 C1894 0.960 . S
H1907 C1894 0.962 . S
H1908 C1894 0.960 . S
H1909 C1895 0.961 . S
H1910 C1895 0.961 . S
H1911 C1895 0.961 . S
H1912 C1896 0.931 . S
H1913 C1901 0.930 . S
H1914 C1902 0.956 . S
H1915 C1902 0.961 . S
H1916 C1902 0.961 . S
H1917 C1903 0.958 . S
H1918 C1903 0.961 . S
H1919 C1903 0.960 . S
C1920 C1921 1.383 1_565 S
C1920 C1922 1.394 . S
C1920 H1936 0.931 . S
C1921 C1920 1.383 1_545 S
C1921 C1925 1.385 . S
C1922 C1920 1.394 . S
C1922 C1923 1.369 1_565 S
C1922 C1926 1.531 . S
C1923 C1922 1.369 1_545 S
C1923 C1924 1.410 . S
C1923 C1931 1.503 . S
C1924 C1923 1.410 . S
C1924 C1925 1.392 . S
C1924 C1927 1.511 . S
C1925 C1921 1.385 . S
C1925 C1924 1.392 . S
C1925 H1937 0.929 . S
C1926 C1922 1.531 . S
C1926 H1938 0.960 . S
C1926 H1939 0.962 . S
C1926 H1940 0.960 . S
C1927 C1924 1.511 . S
C1927 H1941 0.961 . S
C1927 H1942 0.961 . S
C1927 H1943 0.961 . S
C1928 C1929 1.370 . S
C1928 C1930 1.363 . S
C1928 H1944 0.931 . S
C1929 C1928 1.370 . S
C1929 C1933 1.408 . S
C1930 C1928 1.363 . S
C1930 C1931 1.370 . S
C1930 C1934 1.524 . S
C1931 C1923 1.503 . S
C1931 C1930 1.370 . S
C1931 C1932 1.403 . S
C1932 C1931 1.403 . S
C1932 C1933 1.404 . S
C1932 C1935 1.539 1_545 S
C1933 C1929 1.408 . S
C1933 C1932 1.404 . S
C1933 H1945 0.930 . S
C1934 C1930 1.524 . S
C1934 H1946 0.956 . S
C1934 H1947 0.961 . S
C1934 H1948 0.961 . S
C1935 C1932 1.539 1_565 S
C1935 H1949 0.958 . S
C1935 H1950 0.961 . S
C1935 H1951 0.960 . S
H1936 C1920 0.931 . S
H1937 C1925 0.929 . S
H1938 C1926 0.960 . S
H1939 C1926 0.962 . S
H1940 C1926 0.960 . S
H1941 C1927 0.961 . S
H1942 C1927 0.961 . S
H1943 C1927 0.961 . S
H1944 C1928 0.931 . S
H1945 C1933 0.930 . S
H1946 C1934 0.956 . S
H1947 C1934 0.961 . S
H1948 C1934 0.961 . S
H1949 C1935 0.958 . S
H1950 C1935 0.961 . S
H1951 C1935 0.960 . S
C1952 C1953 1.391 . S
C1952 C1954 1.394 . S
C1952 H1968 0.931 . S
C1953 C1952 1.391 . S
C1953 C1957 1.376 . S
C1954 C1952 1.394 . S
C1954 C1955 1.369 . S
C1954 C1958 1.531 . S
C1955 C1954 1.369 . S
C1955 C1956 1.410 . S
C1955 C1963 1.503 . S
C1956 C1955 1.410 . S
C1956 C1957 1.392 . S
C1956 C1959 1.511 . S
C1957 C1953 1.376 . S
C1957 C1956 1.392 . S
C1957 H1969 0.929 . S
C1958 C1954 1.531 . S
C1958 H1970 0.960 . S
C1958 H1971 0.962 . S
C1958 H1972 0.960 . S
C1959 C1956 1.511 . S
C1959 H1973 0.961 . S
C1959 H1974 0.961 . S
C1959 H1975 0.961 . S
C1960 C1961 1.370 . S
C1960 C1962 1.363 . S
C1960 H1976 0.931 . S
C1961 C1960 1.370 . S
C1961 C1965 1.408 . S
C1962 C1960 1.363 . S
C1962 C1963 1.370 . S
C1962 C1966 1.524 . S
C1963 C1955 1.503 . S
C1963 C1962 1.370 . S
C1963 C1964 1.403 . S
C1964 C1963 1.403 . S
C1964 C1965 1.404 . S
C1964 C1967 1.539 . S
C1965 C1961 1.408 . S
C1965 C1964 1.404 . S
C1965 H1977 0.930 . S
C1966 C1962 1.524 . S
C1966 H1978 0.956 . S
C1966 H1979 0.961 . S
C1966 H1980 0.961 . S
C1967 C1964 1.539 . S
C1967 H1981 0.958 . S
C1967 H1982 0.961 . S
C1967 H1983 0.960 . S
H1968 C1952 0.931 . S
H1969 C1957 0.929 . S
H1970 C1958 0.960 . S
H1971 C1958 0.962 . S
H1972 C1958 0.960 . S
H1973 C1959 0.961 . S
H1974 C1959 0.961 . S
H1975 C1959 0.961 . S
H1976 C1960 0.931 . S
H1977 C1965 0.930 . S
H1978 C1966 0.956 . S
H1979 C1966 0.961 . S
H1980 C1966 0.961 . S
H1981 C1967 0.958 . S
H1982 C1967 0.961 . S
H1983 C1967 0.960 . S
C1984 C1985 1.391 1_556 S
C1984 C1986 1.394 . S
C1984 H2000 0.931 . S
C1985 C1984 1.391 1_554 S
C1985 C1989 1.376 . S
C1986 C1984 1.394 . S
C1986 C1987 1.369 1_556 S
C1986 C1990 1.531 . S
C1987 C1986 1.369 1_554 S
C1987 C1988 1.410 . S
C1987 C1995 1.503 . S
C1988 C1987 1.410 . S
C1988 C1989 1.392 . S
C1988 C1991 1.511 . S
C1989 C1985 1.376 . S
C1989 C1988 1.392 . S
C1989 H2001 0.929 . S
C1990 C1986 1.531 . S
C1990 H2002 0.960 . S
C1990 H2003 0.962 1_556 S
C1990 H2004 0.960 . S
C1991 C1988 1.511 . S
C1991 H2005 0.961 . S
C1991 H2006 0.961 . S
C1991 H2007 0.961 . S
C1992 C1993 1.370 . S
C1992 C1994 1.363 . S
C1992 H2008 0.931 . S
C1993 C1992 1.370 . S
C1993 C1997 1.408 . S
C1994 C1992 1.363 . S
C1994 C1995 1.370 . S
C1994 C1998 1.524 . S
C1995 C1987 1.503 . S
C1995 C1994 1.370 . S
C1995 C1996 1.403 . S
C1996 C1995 1.403 . S
C1996 C1997 1.404 . S
C1996 C1999 1.539 1_554 S
C1997 C1993 1.408 . S
C1997 C1996 1.404 . S
C1997 H2009 0.930 1_554 S
C1998 C1994 1.524 . S
C1998 H2010 0.956 . S
C1998 H2011 0.961 . S
C1998 H2012 0.961 . S
C1999 C1996 1.539 1_556 S
C1999 H2013 0.958 . S
C1999 H2014 0.961 . S
C1999 H2015 0.960 . S
H2000 C1984 0.931 . S
H2001 C1989 0.929 . S
H2002 C1990 0.960 . S
H2003 C1990 0.962 1_554 S
H2004 C1990 0.960 . S
H2005 C1991 0.961 . S
H2006 C1991 0.961 . S
H2007 C1991 0.961 . S
H2008 C1992 0.931 . S
H2009 C1997 0.930 1_556 S
H2010 C1998 0.956 . S
H2011 C1998 0.961 . S
H2012 C1998 0.961 . S
H2013 C1999 0.958 . S
H2014 C1999 0.961 . S
H2015 C1999 0.960 . S
C2016 C2017 1.414 . S
C2016 C2018 1.394 . S
C2016 H2032 0.931 . S
C2017 C2016 1.414 . S
C2017 C2021 1.345 1_554 S
C2018 C2016 1.394 . S
C2018 C2019 1.369 1_554 S
C2018 C2022 1.531 . S
C2019 C2018 1.369 1_556 S
C2019 C2020 1.410 . S
C2019 C2027 1.503 . S
C2020 C2019 1.410 . S
C2020 C2021 1.392 . S
C2020 C2023 1.511 . S
C2021 C2017 1.345 1_556 S
C2021 C2020 1.392 . S
C2021 H2033 0.929 . S
C2022 C2018 1.531 . S
C2022 H2034 0.960 . S
C2022 H2035 0.962 . S
C2022 H2036 0.960 . S
C2023 C2020 1.511 . S
C2023 H2037 0.961 . S
C2023 H2038 0.961 . S
C2023 H2039 0.961 . S
C2024 C2025 1.370 1_554 S
C2024 C2026 1.363 . S
C2024 H2040 0.931 . S
C2025 C2024 1.370 1_556 S
C2025 C2029 1.408 . S
C2026 C2024 1.363 . S
C2026 C2027 1.370 1_554 S
C2026 C2030 1.524 . S
C2027 C2019 1.503 . S
C2027 C2026 1.370 1_556 S
C2027 C2028 1.403 . S
C2028 C2027 1.403 . S
C2028 C2029 1.404 . S
C2028 C2031 1.539 . S
C2029 C2025 1.408 . S
C2029 C2028 1.404 . S
C2029 H2041 0.930 . S
C2030 C2026 1.524 . S
C2030 H2042 0.956 . S
C2030 H2043 0.961 . S
C2030 H2044 0.961 . S
C2031 C2028 1.539 . S
C2031 H2045 0.958 . S
C2031 H2046 0.961 . S
C2031 H2047 0.960 . S
H2032 C2016 0.931 . S
H2033 C2021 0.929 . S
H2034 C2022 0.960 . S
H2035 C2022 0.962 . S
H2036 C2022 0.960 . S
H2037 C2023 0.961 . S
H2038 C2023 0.961 . S
H2039 C2023 0.961 . S
H2040 C2024 0.931 . S
H2041 C2029 0.930 . S
H2042 C2030 0.956 . S
H2043 C2030 0.961 . S
H2044 C2030 0.961 . S
H2045 C2031 0.958 . S
H2046 C2031 0.961 . S
H2047 C2031 0.960 . S
C2048 C2049 1.391 . S
C2048 C2050 1.394 . S
C2048 H2064 0.931 . S
C2049 C2048 1.391 . S
C2049 C2053 1.376 . S
C2050 C2048 1.394 . S
C2050 C2051 1.369 . S
C2050 C2054 1.531 . S
C2051 C2050 1.369 . S
C2051 C2052 1.410 . S
C2051 C2059 1.503 . S
C2052 C2051 1.410 . S
C2052 C2053 1.392 . S
C2052 C2055 1.511 . S
C2053 C2049 1.376 . S
C2053 C2052 1.392 . S
C2053 H2065 0.929 . S
C2054 C2050 1.531 . S
C2054 H2066 0.960 . S
C2054 H2067 0.962 . S
C2054 H2068 0.960 . S
C2055 C2052 1.511 . S
C2055 H2069 0.961 . S
C2055 H2070 0.961 . S
C2055 H2071 0.961 . S
C2056 C2057 1.370 . S
C2056 C2058 1.363 . S
C2056 H2072 0.931 . S
C2057 C2056 1.370 . S
C2057 C2061 1.408 . S
C2058 C2056 1.363 . S
C2058 C2059 1.370 . S
C2058 C2062 1.524 . S
C2059 C2051 1.503 . S
C2059 C2058 1.370 . S
C2059 C2060 1.403 . S
C2060 C2059 1.403 . S
C2060 C2061 1.404 . S
C2060 C2063 1.539 . S
C2061 C2057 1.408 . S
C2061 C2060 1.404 . S
C2061 H2073 0.930 . S
C2062 C2058 1.524 . S
C2062 H2074 0.956 . S
C2062 H2075 0.961 . S
C2062 H2076 0.961 . S
C2063 C2060 1.539 . S
C2063 H2077 0.958 . S
C2063 H2078 0.961 . S
C2063 H2079 0.960 . S
H2064 C2048 0.931 . S
H2065 C2053 0.929 . S
H2066 C2054 0.960 . S
H2067 C2054 0.962 . S
H2068 C2054 0.960 . S
H2069 C2055 0.961 . S
H2070 C2055 0.961 . S
H2071 C2055 0.961 . S
H2072 C2056 0.931 . S
H2073 C2061 0.930 . S
H2074 C2062 0.956 . S
H2075 C2062 0.961 . S
H2076 C2062 0.961 . S
H2077 C2063 0.958 . S
H2078 C2063 0.961 . S
H2079 C2063 0.960 . S
C2080 C2081 1.391 . S
C2080 C2082 1.394 . S
C2080 H2096 0.931 . S
C2081 C2080 1.391 . S
C2081 C2085 1.376 . S
C2082 C2080 1.394 . S
C2082 C2083 1.369 . S
C2082 C2086 1.531 . S
C2083 C2082 1.369 . S
C2083 C2084 1.410 . S
C2083 C2091 1.503 . S
C2084 C2083 1.410 . S
C2084 C2085 1.392 . S
C2084 C2087 1.511 . S
C2085 C2081 1.376 . S
C2085 C2084 1.392 . S
C2085 H2097 0.929 . S
C2086 C2082 1.531 . S
C2086 H2098 0.960 . S
C2086 H2099 0.962 . S
C2086 H2100 0.960 . S
C2087 C2084 1.511 . S
C2087 H2101 0.961 . S
C2087 H2102 0.961 . S
C2087 H2103 0.961 . S
C2088 C2089 1.370 . S
C2088 C2090 1.363 . S
C2088 H2104 0.931 . S
C2089 C2088 1.370 . S
C2089 C2093 1.408 . S
C2090 C2088 1.363 . S
C2090 C2091 1.370 . S
C2090 C2094 1.524 . S
C2091 C2083 1.503 . S
C2091 C2090 1.370 . S
C2091 C2092 1.403 . S
C2092 C2091 1.403 . S
C2092 C2093 1.404 . S
C2092 C2095 1.539 . S
C2093 C2089 1.408 . S
C2093 C2092 1.404 . S
C2093 H2105 0.930 . S
C2094 C2090 1.524 . S
C2094 H2106 0.956 . S
C2094 H2107 0.961 . S
C2094 H2108 0.961 . S
C2095 C2092 1.539 . S
C2095 H2109 0.958 . S
C2095 H2110 0.961 . S
C2095 H2111 0.960 . S
H2096 C2080 0.931 . S
H2097 C2085 0.929 . S
H2098 C2086 0.960 . S
H2099 C2086 0.962 . S
H2100 C2086 0.960 . S
H2101 C2087 0.961 . S
H2102 C2087 0.961 . S
H2103 C2087 0.961 . S
H2104 C2088 0.931 . S
H2105 C2093 0.930 . S
H2106 C2094 0.956 . S
H2107 C2094 0.961 . S
H2108 C2094 0.961 . S
H2109 C2095 0.958 . S
H2110 C2095 0.961 . S
H2111 C2095 0.960 . S
C2112 C2113 1.391 . S
C2112 C2114 1.394 . S
C2112 H2128 0.931 . S
C2113 C2112 1.391 . S
C2113 C2117 1.376 . S
C2114 C2112 1.394 . S
C2114 C2115 1.369 . S
C2114 C2118 1.531 . S
C2115 C2114 1.369 . S
C2115 C2116 1.410 . S
C2115 C2123 1.503 . S
C2116 C2115 1.410 . S
C2116 C2117 1.392 . S
C2116 C2119 1.511 . S
C2117 C2113 1.376 . S
C2117 C2116 1.392 . S
C2117 H2129 0.929 . S
C2118 C2114 1.531 . S
C2118 H2130 0.960 . S
C2118 H2131 0.962 . S
C2118 H2132 0.960 . S
C2119 C2116 1.511 . S
C2119 H2133 0.961 . S
C2119 H2134 0.961 . S
C2119 H2135 0.961 . S
C2120 C2121 1.370 . S
C2120 C2122 1.363 . S
C2120 H2136 0.931 . S
C2121 C2120 1.370 . S
C2121 C2125 1.408 . S
C2122 C2120 1.363 . S
C2122 C2123 1.370 . S
C2122 C2126 1.524 . S
C2123 C2115 1.503 . S
C2123 C2122 1.370 . S
C2123 C2124 1.403 . S
C2124 C2123 1.403 . S
C2124 C2125 1.404 . S
C2124 C2127 1.539 . S
C2125 C2121 1.408 . S
C2125 C2124 1.404 . S
C2125 H2137 0.930 . S
C2126 C2122 1.524 . S
C2126 H2138 0.956 . S
C2126 H2139 0.961 . S
C2126 H2140 0.961 . S
C2127 C2124 1.539 . S
C2127 H2141 0.958 . S
C2127 H2142 0.961 . S
C2127 H2143 0.960 . S
H2128 C2112 0.931 . S
H2129 C2117 0.929 . S
H2130 C2118 0.960 . S
H2131 C2118 0.962 . S
H2132 C2118 0.960 . S
H2133 C2119 0.961 . S
H2134 C2119 0.961 . S
H2135 C2119 0.961 . S
H2136 C2120 0.931 . S
H2137 C2125 0.930 . S
H2138 C2126 0.956 . S
H2139 C2126 0.961 . S
H2140 C2126 0.961 . S
H2141 C2127 0.958 . S
H2142 C2127 0.961 . S
H2143 C2127 0.960 . S
C2144 C2145 1.391 . S
C2144 C2146 1.394 . S
C2144 H2160 0.931 . S
C2145 C2144 1.391 . S
C2145 C2149 1.376 . S
C2146 C2144 1.394 . S
C2146 C2147 1.369 . S
C2146 C2150 1.531 . S
C2147 C2146 1.369 . S
C2147 C2148 1.410 . S
C2147 C2155 1.503 . S
C2148 C2147 1.410 . S
C2148 C2149 1.392 . S
C2148 C2151 1.511 . S
C2149 C2145 1.376 . S
C2149 C2148 1.392 . S
C2149 H2161 0.929 . S
C2150 C2146 1.531 . S
C2150 H2162 0.960 . S
C2150 H2163 0.962 . S
C2150 H2164 0.960 . S
C2151 C2148 1.511 . S
C2151 H2165 0.961 . S
C2151 H2166 0.961 . S
C2151 H2167 0.961 . S
C2152 C2153 1.370 . S
C2152 C2154 1.363 . S
C2152 H2168 0.931 . S
C2153 C2152 1.370 . S
C2153 C2157 1.408 . S
C2154 C2152 1.363 . S
C2154 C2155 1.370 . S
C2154 C2158 1.524 . S
C2155 C2147 1.503 . S
C2155 C2154 1.370 . S
C2155 C2156 1.403 . S
C2156 C2155 1.403 . S
C2156 C2157 1.404 . S
C2156 C2159 1.539 . S
C2157 C2153 1.408 . S
C2157 C2156 1.404 . S
C2157 H2169 0.930 . S
C2158 C2154 1.524 . S
C2158 H2170 0.956 . S
C2158 H2171 0.961 . S
C2158 H2172 0.961 . S
C2159 C2156 1.539 . S
C2159 H2173 0.958 . S
C2159 H2174 0.961 . S
C2159 H2175 0.960 . S
H2160 C2144 0.931 . S
H2161 C2149 0.929 . S
H2162 C2150 0.960 . S
H2163 C2150 0.962 . S
H2164 C2150 0.960 . S
H2165 C2151 0.961 . S
H2166 C2151 0.961 . S
H2167 C2151 0.961 . S
H2168 C2152 0.931 . S
H2169 C2157 0.930 . S
H2170 C2158 0.956 . S
H2171 C2158 0.961 . S
H2172 C2158 0.961 . S
H2173 C2159 0.958 . S
H2174 C2159 0.961 . S
H2175 C2159 0.960 . S
C2176 C2177 1.391 . S
C2176 C2178 1.394 . S
C2176 H2192 0.931 . S
C2177 C2176 1.391 . S
C2177 C2181 1.376 . S
C2178 C2176 1.394 . S
C2178 C2179 1.369 . S
C2178 C2182 1.531 . S
C2179 C2178 1.369 . S
C2179 C2180 1.410 . S
C2179 C2187 1.503 . S
C2180 C2179 1.410 . S
C2180 C2181 1.392 . S
C2180 C2183 1.511 . S
C2181 C2177 1.376 . S
C2181 C2180 1.392 . S
C2181 H2193 0.929 . S
C2182 C2178 1.531 . S
C2182 H2194 0.960 . S
C2182 H2195 0.962 . S
C2182 H2196 0.960 . S
C2183 C2180 1.511 . S
C2183 H2197 0.961 . S
C2183 H2198 0.961 . S
C2183 H2199 0.961 . S
C2184 C2185 1.370 . S
C2184 C2186 1.363 . S
C2184 H2200 0.931 . S
C2185 C2184 1.370 . S
C2185 C2189 1.408 . S
C2186 C2184 1.363 . S
C2186 C2187 1.370 . S
C2186 C2190 1.524 . S
C2187 C2179 1.503 . S
C2187 C2186 1.370 . S
C2187 C2188 1.403 . S
C2188 C2187 1.403 . S
C2188 C2189 1.404 . S
C2188 C2191 1.539 . S
C2189 C2185 1.408 . S
C2189 C2188 1.404 . S
C2189 H2201 0.930 . S
C2190 C2186 1.524 . S
C2190 H2202 0.956 . S
C2190 H2203 0.961 . S
C2190 H2204 0.961 . S
C2191 C2188 1.539 . S
C2191 H2205 0.958 . S
C2191 H2206 0.961 . S
C2191 H2207 0.960 . S
H2192 C2176 0.931 . S
H2193 C2181 0.929 . S
H2194 C2182 0.960 . S
H2195 C2182 0.962 . S
H2196 C2182 0.960 . S
H2197 C2183 0.961 . S
H2198 C2183 0.961 . S
H2199 C2183 0.961 . S
H2200 C2184 0.931 . S
H2201 C2189 0.930 . S
H2202 C2190 0.956 . S
H2203 C2190 0.961 . S
H2204 C2190 0.961 . S
H2205 C2191 0.958 . S
H2206 C2191 0.961 . S
H2207 C2191 0.960 . S
C2208 C2209 1.391 . S
C2208 C2210 1.394 . S
C2208 H2224 0.931 . S
C2209 C2208 1.391 . S
C2209 C2213 1.376 . S
C2210 C2208 1.394 . S
C2210 C2211 1.369 . S
C2210 C2214 1.531 . S
C2211 C2210 1.369 . S
C2211 C2212 1.410 . S
C2211 C2219 1.503 . S
C2212 C2211 1.410 . S
C2212 C2213 1.392 . S
C2212 C2215 1.511 . S
C2213 C2209 1.376 . S
C2213 C2212 1.392 . S
C2213 H2225 0.929 . S
C2214 C2210 1.531 . S
C2214 H2226 0.960 . S
C2214 H2227 0.962 . S
C2214 H2228 0.960 . S
C2215 C2212 1.511 . S
C2215 H2229 0.961 . S
C2215 H2230 0.961 . S
C2215 H2231 0.961 . S
C2216 C2217 1.370 . S
C2216 C2218 1.363 . S
C2216 H2232 0.931 . S
C2217 C2216 1.370 . S
C2217 C2221 1.408 . S
C2218 C2216 1.363 . S
C2218 C2219 1.370 . S
C2218 C2222 1.524 . S
C2219 C2211 1.503 . S
C2219 C2218 1.370 . S
C2219 C2220 1.403 . S
C2220 C2219 1.403 . S
C2220 C2221 1.404 . S
C2220 C2223 1.539 . S
C2221 C2217 1.408 . S
C2221 C2220 1.404 . S
C2221 H2233 0.930 . S
C2222 C2218 1.524 . S
C2222 H2234 0.956 . S
C2222 H2235 0.961 . S
C2222 H2236 0.961 . S
C2223 C2220 1.539 . S
C2223 H2237 0.958 . S
C2223 H2238 0.961 . S
C2223 H2239 0.960 . S
H2224 C2208 0.931 . S
H2225 C2213 0.929 . S
H2226 C2214 0.960 . S
H2227 C2214 0.962 . S
H2228 C2214 0.960 . S
H2229 C2215 0.961 . S
H2230 C2215 0.961 . S
H2231 C2215 0.961 . S
H2232 C2216 0.931 . S
H2233 C2221 0.930 . S
H2234 C2222 0.956 . S
H2235 C2222 0.961 . S
H2236 C2222 0.961 . S
H2237 C2223 0.958 . S
H2238 C2223 0.961 . S
H2239 C2223 0.960 . S
C2240 C2241 1.391 . S
C2240 C2242 1.394 . S
C2240 H2256 0.931 . S
C2241 C2240 1.391 . S
C2241 C2245 1.376 . S
C2242 C2240 1.394 . S
C2242 C2243 1.369 . S
C2242 C2246 1.531 . S
C2243 C2242 1.369 . S
C2243 C2244 1.410 . S
C2243 C2251 1.503 . S
C2244 C2243 1.410 . S
C2244 C2245 1.392 . S
C2244 C2247 1.511 . S
C2245 C2241 1.376 . S
C2245 C2244 1.392 . S
C2245 H2257 0.929 . S
C2246 C2242 1.531 . S
C2246 H2258 0.960 . S
C2246 H2259 0.962 . S
C2246 H2260 0.960 . S
C2247 C2244 1.511 . S
C2247 H2261 0.961 . S
C2247 H2262 0.961 . S
C2247 H2263 0.961 . S
C2248 C2249 1.370 . S
C2248 C2250 1.363 . S
C2248 H2264 0.931 . S
C2249 C2248 1.370 . S
C2249 C2253 1.408 . S
C2250 C2248 1.363 . S
C2250 C2251 1.370 . S
C2250 C2254 1.524 . S
C2251 C2243 1.503 . S
C2251 C2250 1.370 . S
C2251 C2252 1.403 . S
C2252 C2251 1.403 . S
C2252 C2253 1.404 . S
C2252 C2255 1.539 . S
C2253 C2249 1.408 . S
C2253 C2252 1.404 . S
C2253 H2265 0.930 . S
C2254 C2250 1.524 . S
C2254 H2266 0.956 . S
C2254 H2267 0.961 . S
C2254 H2268 0.961 . S
C2255 C2252 1.539 . S
C2255 H2269 0.958 . S
C2255 H2270 0.961 . S
C2255 H2271 0.960 . S
H2256 C2240 0.931 . S
H2257 C2245 0.929 . S
H2258 C2246 0.960 . S
H2259 C2246 0.962 . S
H2260 C2246 0.960 . S
H2261 C2247 0.961 . S
H2262 C2247 0.961 . S
H2263 C2247 0.961 . S
H2264 C2248 0.931 . S
H2265 C2253 0.930 . S
H2266 C2254 0.956 . S
H2267 C2254 0.961 . S
H2268 C2254 0.961 . S
H2269 C2255 0.958 . S
H2270 C2255 0.961 . S
H2271 C2255 0.960 . S
C2272 C2273 1.391 . S
C2272 C2274 1.394 . S
C2272 H2288 0.931 . S
C2273 C2272 1.391 . S
C2273 C2277 1.376 . S
C2274 C2272 1.394 . S
C2274 C2275 1.369 . S
C2274 C2278 1.531 . S
C2275 C2274 1.369 . S
C2275 C2276 1.410 . S
C2275 C2283 1.503 . S
C2276 C2275 1.410 . S
C2276 C2277 1.392 . S
C2276 C2279 1.511 . S
C2277 C2273 1.376 . S
C2277 C2276 1.392 . S
C2277 H2289 0.929 . S
C2278 C2274 1.531 . S
C2278 H2290 0.960 . S
C2278 H2291 0.962 . S
C2278 H2292 0.960 . S
C2279 C2276 1.511 . S
C2279 H2293 0.961 . S
C2279 H2294 0.961 . S
C2279 H2295 0.961 . S
C2280 C2281 1.370 . S
C2280 C2282 1.363 . S
C2280 H2296 0.931 . S
C2281 C2280 1.370 . S
C2281 C2285 1.408 . S
C2282 C2280 1.363 . S
C2282 C2283 1.370 . S
C2282 C2286 1.524 . S
C2283 C2275 1.503 . S
C2283 C2282 1.370 . S
C2283 C2284 1.403 . S
C2284 C2283 1.403 . S
C2284 C2285 1.404 . S
C2284 C2287 1.539 . S
C2285 C2281 1.408 . S
C2285 C2284 1.404 . S
C2285 H2297 0.930 . S
C2286 C2282 1.524 . S
C2286 H2298 0.956 . S
C2286 H2299 0.961 . S
C2286 H2300 0.961 . S
C2287 C2284 1.539 . S
C2287 H2301 0.958 . S
C2287 H2302 0.961 . S
C2287 H2303 0.960 . S
H2288 C2272 0.931 . S
H2289 C2277 0.929 . S
H2290 C2278 0.960 . S
H2291 C2278 0.962 . S
H2292 C2278 0.960 . S
H2293 C2279 0.961 . S
H2294 C2279 0.961 . S
H2295 C2279 0.961 . S
H2296 C2280 0.931 . S
H2297 C2285 0.930 . S
H2298 C2286 0.956 . S
H2299 C2286 0.961 . S
H2300 C2286 0.961 . S
H2301 C2287 0.958 . S
H2302 C2287 0.961 . S
H2303 C2287 0.960 . S
C2304 C2305 1.391 . S
C2304 C2306 1.394 . S
C2304 H2320 0.931 . S
C2305 C2304 1.391 . S
C2305 C2309 1.376 1_455 S
C2306 C2304 1.394 . S
C2306 C2307 1.369 . S
C2306 C2310 1.531 . S
C2307 C2306 1.369 . S
C2307 C2308 1.410 1_455 S
C2307 C2315 1.503 . S
C2308 C2307 1.410 1_655 S
C2308 C2309 1.392 . S
C2308 C2311 1.511 . S
C2309 C2305 1.376 1_655 S
C2309 C2308 1.392 . S
C2309 H2321 0.929 . S
C2310 C2306 1.531 . S
C2310 H2322 0.960 . S
C2310 H2323 0.962 . S
C2310 H2324 0.960 . S
C2311 C2308 1.511 . S
C2311 H2325 0.961 . S
C2311 H2326 0.961 . S
C2311 H2327 0.961 . S
C2312 C2313 1.370 . S
C2312 C2314 1.363 . S
C2312 H2328 0.931 . S
C2313 C2312 1.370 . S
C2313 C2317 1.408 . S
C2314 C2312 1.363 . S
C2314 C2315 1.370 . S
C2314 C2318 1.524 . S
C2315 C2307 1.503 . S
C2315 C2314 1.370 . S
C2315 C2316 1.385 1_455 S
C2316 C2315 1.385 1_655 S
C2316 C2317 1.399 1_655 S
C2316 C2319 1.563 . S
C2317 C2313 1.408 . S
C2317 C2316 1.399 1_455 S
C2317 H2329 0.930 1_455 S
C2318 C2314 1.524 . S
C2318 H2330 0.956 . S
C2318 H2331 0.961 . S
C2318 H2332 0.961 . S
C2319 C2316 1.563 . S
C2319 H2333 0.958 . S
C2319 H2334 0.961 . S
C2319 H2335 0.960 . S
H2320 C2304 0.931 . S
H2321 C2309 0.929 . S
H2322 C2310 0.960 . S
H2323 C2310 0.962 . S
H2324 C2310 0.960 . S
H2325 C2311 0.961 . S
H2326 C2311 0.961 . S
H2327 C2311 0.961 . S
H2328 C2312 0.931 . S
H2329 C2317 0.930 1_655 S
H2330 C2318 0.956 . S
H2331 C2318 0.961 . S
H2332 C2318 0.961 . S
H2333 C2319 0.958 . S
H2334 C2319 0.961 . S
H2335 C2319 0.960 . S
C2336 C2337 1.391 . S
C2336 C2338 1.394 . S
C2336 H2352 0.931 . S
C2337 C2336 1.391 . S
C2337 C2341 1.376 . S
C2338 C2336 1.394 . S
C2338 C2339 1.369 . S
C2338 C2342 1.531 . S
C2339 C2338 1.369 . S
C2339 C2340 1.410 . S
C2339 C2347 1.503 . S
C2340 C2339 1.410 . S
C2340 C2341 1.392 . S
C2340 C2343 1.511 . S
C2341 C2337 1.376 . S
C2341 C2340 1.392 . S
C2341 H2353 0.929 . S
C2342 C2338 1.531 . S
C2342 H2354 0.960 . S
C2342 H2355 0.962 . S
C2342 H2356 0.960 . S
C2343 C2340 1.511 . S
C2343 H2357 0.961 . S
C2343 H2358 0.961 . S
C2343 H2359 0.961 . S
C2344 C2345 1.370 . S
C2344 C2346 1.363 . S
C2344 H2360 0.931 . S
C2345 C2344 1.370 . S
C2345 C2349 1.408 . S
C2346 C2344 1.363 . S
C2346 C2347 1.370 . S
C2346 C2350 1.524 . S
C2347 C2339 1.503 . S
C2347 C2346 1.370 . S
C2347 C2348 1.403 . S
C2348 C2347 1.403 . S
C2348 C2349 1.404 . S
C2348 C2351 1.539 . S
C2349 C2345 1.408 . S
C2349 C2348 1.404 . S
C2349 H2361 0.930 . S
C2350 C2346 1.524 . S
C2350 H2362 0.956 . S
C2350 H2363 0.961 . S
C2350 H2364 0.961 . S
C2351 C2348 1.539 . S
C2351 H2365 0.958 . S
C2351 H2366 0.961 . S
C2351 H2367 0.960 . S
H2352 C2336 0.931 . S
H2353 C2341 0.929 . S
H2354 C2342 0.960 . S
H2355 C2342 0.962 . S
H2356 C2342 0.960 . S
H2357 C2343 0.961 . S
H2358 C2343 0.961 . S
H2359 C2343 0.961 . S
H2360 C2344 0.931 . S
H2361 C2349 0.930 . S
H2362 C2350 0.956 . S
H2363 C2350 0.961 . S
H2364 C2350 0.961 . S
H2365 C2351 0.958 . S
H2366 C2351 0.961 . S
H2367 C2351 0.960 . S
C2368 C2369 1.391 . S
C2368 C2370 1.394 . S
C2368 H2384 0.931 . S
C2369 C2368 1.391 . S
C2369 C2373 1.376 . S
C2370 C2368 1.394 . S
C2370 C2371 1.369 . S
C2370 C2374 1.531 . S
C2371 C2370 1.369 . S
C2371 C2372 1.410 . S
C2371 C2379 1.503 . S
C2372 C2371 1.410 . S
C2372 C2373 1.392 . S
C2372 C2375 1.511 . S
C2373 C2369 1.376 . S
C2373 C2372 1.392 . S
C2373 H2385 0.929 . S
C2374 C2370 1.531 . S
C2374 H2386 0.960 . S
C2374 H2387 0.962 . S
C2374 H2388 0.960 . S
C2375 C2372 1.511 . S
C2375 H2389 0.961 . S
C2375 H2390 0.961 . S
C2375 H2391 0.961 . S
C2376 C2377 1.370 . S
C2376 C2378 1.363 . S
C2376 H2392 0.931 . S
C2377 C2376 1.370 . S
C2377 C2381 1.408 1_556 S
C2378 C2376 1.363 . S
C2378 C2379 1.370 . S
C2378 C2382 1.524 . S
C2379 C2371 1.503 . S
C2379 C2378 1.370 . S
C2379 C2380 1.403 . S
C2380 C2379 1.403 . S
C2380 C2381 1.404 1_556 S
C2380 C2383 1.539 1_556 S
C2381 C2377 1.408 1_554 S
C2381 C2380 1.404 1_554 S
C2381 H2393 0.930 . S
C2382 C2378 1.524 . S
C2382 H2394 0.956 . S
C2382 H2395 0.961 . S
C2382 H2396 0.961 . S
C2383 C2380 1.539 1_554 S
C2383 H2397 0.958 . S
C2383 H2398 0.961 . S
C2383 H2399 0.980 . S
H2384 C2368 0.931 . S
H2385 C2373 0.929 . S
H2386 C2374 0.960 . S
H2387 C2374 0.962 . S
H2388 C2374 0.960 . S
H2389 C2375 0.961 . S
H2390 C2375 0.961 . S
H2391 C2375 0.961 . S
H2392 C2376 0.931 . S
H2393 C2381 0.930 . S
H2394 C2382 0.956 . S
H2395 C2382 0.961 . S
H2396 C2382 0.961 . S
H2397 C2383 0.958 . S
H2398 C2383 0.961 . S
H2399 C2383 0.980 . S
C2400 C2401 1.391 . S
C2400 C2402 1.394 . S
C2400 H2416 0.931 . S
C2401 C2400 1.391 . S
C2401 C2405 1.376 . S
C2402 C2400 1.394 . S
C2402 C2403 1.369 . S
C2402 C2406 1.531 . S
C2403 C2402 1.369 . S
C2403 C2404 1.410 . S
C2403 C2411 1.503 . S
C2404 C2403 1.410 . S
C2404 C2405 1.392 . S
C2404 C2407 1.511 . S
C2405 C2401 1.376 . S
C2405 C2404 1.392 . S
C2405 H2417 0.929 . S
C2406 C2402 1.531 . S
C2406 H2418 0.960 . S
C2406 H2419 0.962 . S
C2406 H2420 0.960 . S
C2407 C2404 1.511 . S
C2407 H2421 0.961 . S
C2407 H2422 0.961 . S
C2407 H2423 0.961 . S
C2408 C2409 1.370 . S
C2408 C2410 1.363 . S
C2408 H2424 0.931 . S
C2409 C2408 1.370 . S
C2409 C2413 1.408 . S
C2410 C2408 1.363 . S
C2410 C2411 1.370 . S
C2410 C2414 1.524 . S
C2411 C2403 1.503 . S
C2411 C2410 1.370 . S
C2411 C2412 1.403 . S
C2412 C2411 1.403 . S
C2412 C2413 1.404 . S
C2412 C2415 1.539 . S
C2413 C2409 1.408 . S
C2413 C2412 1.404 . S
C2413 H2425 0.930 . S
C2414 C2410 1.524 . S
C2414 H2426 0.956 . S
C2414 H2427 0.961 . S
C2414 H2428 0.961 . S
C2415 C2412 1.539 . S
C2415 H2429 0.958 . S
C2415 H2430 0.961 . S
C2415 H2431 0.960 . S
H2416 C2400 0.931 . S
H2417 C2405 0.929 . S
H2418 C2406 0.960 . S
H2419 C2406 0.962 . S
H2420 C2406 0.960 . S
H2421 C2407 0.961 . S
H2422 C2407 0.961 . S
H2423 C2407 0.961 . S
H2424 C2408 0.931 . S
H2425 C2413 0.930 . S
H2426 C2414 0.956 . S
H2427 C2414 0.961 . S
H2428 C2414 0.961 . S
H2429 C2415 0.958 . S
H2430 C2415 0.961 . S
H2431 C2415 0.960 . S
C2432 C2433 1.391 . S
C2432 C2434 1.394 . S
C2432 H2448 0.931 . S
C2433 C2432 1.391 . S
C2433 C2437 1.376 . S
C2434 C2432 1.394 . S
C2434 C2435 1.369 . S
C2434 C2438 1.531 . S
C2435 C2434 1.369 . S
C2435 C2436 1.410 . S
C2435 C2443 1.503 . S
C2436 C2435 1.410 . S
C2436 C2437 1.392 . S
C2436 C2439 1.511 . S
C2437 C2433 1.376 . S
C2437 C2436 1.392 . S
C2437 H2449 0.929 . S
C2438 C2434 1.531 . S
C2438 H2450 0.960 . S
C2438 H2451 0.962 1_455 S
C2438 H2452 0.960 . S
C2439 C2436 1.511 . S
C2439 H2453 0.961 . S
C2439 H2454 0.961 . S
C2439 H2455 0.961 . S
C2440 C2441 1.384 . S
C2440 C2442 1.361 1_455 S
C2440 H2456 0.918 1_455 S
C2441 C2440 1.384 . S
C2441 C2445 1.408 . S
C2442 C2440 1.361 1_655 S
C2442 C2443 1.332 1_655 S
C2442 C2446 1.566 . S
C2443 C2435 1.503 . S
C2443 C2442 1.332 1_455 S
C2443 C2444 1.403 . S
C2444 C2443 1.403 . S
C2444 C2445 1.404 . S
C2444 C2447 1.539 . S
C2445 C2441 1.408 . S
C2445 C2444 1.404 . S
C2445 H2457 0.930 . S
C2446 C2442 1.566 . S
C2446 H2458 0.956 . S
C2446 H2459 0.961 . S
C2446 H2460 0.961 . S
C2447 C2444 1.539 . S
C2447 H2461 0.958 . S
C2447 H2462 0.961 . S
C2447 H2463 0.960 . S
H2448 C2432 0.931 . S
H2449 C2437 0.929 . S
H2450 C2438 0.960 . S
H2451 C2438 0.962 1_655 S
H2452 C2438 0.960 . S
H2453 C2439 0.961 . S
H2454 C2439 0.961 . S
H2455 C2439 0.961 . S
H2456 C2440 0.918 1_655 S
H2457 C2445 0.930 . S
H2458 C2446 0.956 . S
H2459 C2446 0.961 . S
H2460 C2446 0.961 . S
H2461 C2447 0.958 . S
H2462 C2447 0.961 . S
H2463 C2447 0.960 . S
C2464 C2465 1.391 . S
C2464 C2466 1.394 . S
C2464 H2480 0.931 . S
C2465 C2464 1.391 . S
C2465 C2469 1.376 . S
C2466 C2464 1.394 . S
C2466 C2467 1.369 . S
C2466 C2470 1.531 . S
C2467 C2466 1.369 . S
C2467 C2468 1.410 . S
C2467 C2475 1.503 . S
C2468 C2467 1.410 . S
C2468 C2469 1.392 . S
C2468 C2471 1.511 . S
C2469 C2465 1.376 . S
C2469 C2468 1.392 . S
C2469 H2481 0.929 . S
C2470 C2466 1.531 . S
C2470 H2482 0.960 . S
C2470 H2483 0.962 . S
C2470 H2484 0.960 . S
C2471 C2468 1.511 . S
C2471 H2485 0.961 . S
C2471 H2486 0.961 . S
C2471 H2487 0.961 . S
C2472 C2473 1.370 . S
C2472 C2474 1.363 . S
C2472 H2488 0.931 . S
C2473 C2472 1.370 . S
C2473 C2477 1.408 . S
C2474 C2472 1.363 . S
C2474 C2475 1.370 . S
C2474 C2478 1.524 . S
C2475 C2467 1.503 . S
C2475 C2474 1.370 . S
C2475 C2476 1.403 . S
C2476 C2475 1.403 . S
C2476 C2477 1.404 . S
C2476 C2479 1.539 . S
C2477 C2473 1.408 . S
C2477 C2476 1.404 . S
C2477 H2489 0.930 . S
C2478 C2474 1.524 . S
C2478 H2490 0.956 . S
C2478 H2491 0.961 . S
C2478 H2492 0.961 . S
C2479 C2476 1.539 . S
C2479 H2493 0.958 . S
C2479 H2494 0.961 . S
C2479 H2495 0.960 . S
H2480 C2464 0.931 . S
H2481 C2469 0.929 . S
H2482 C2470 0.960 . S
H2483 C2470 0.962 . S
H2484 C2470 0.960 . S
H2485 C2471 0.961 . S
H2486 C2471 0.961 . S
H2487 C2471 0.961 . S
H2488 C2472 0.931 . S
H2489 C2477 0.930 . S
H2490 C2478 0.956 . S
H2491 C2478 0.961 . S
H2492 C2478 0.961 . S
H2493 C2479 0.958 . S
H2494 C2479 0.961 . S
H2495 C2479 0.960 . S
C2496 C2497 1.391 . S
C2496 C2498 1.394 . S
C2496 H2512 0.931 . S
C2497 C2496 1.391 . S
C2497 C2501 1.376 . S
C2498 C2496 1.394 . S
C2498 C2499 1.369 . S
C2498 C2502 1.531 . S
C2499 C2498 1.369 . S
C2499 C2500 1.410 . S
C2499 C2507 1.503 . S
C2500 C2499 1.410 . S
C2500 C2501 1.392 . S
C2500 C2503 1.511 . S
C2501 C2497 1.376 . S
C2501 C2500 1.392 . S
C2501 H2513 0.929 . S
C2502 C2498 1.531 . S
C2502 H2514 0.960 . S
C2502 H2515 0.962 . S
C2502 H2516 0.960 . S
C2503 C2500 1.511 . S
C2503 H2517 0.961 . S
C2503 H2518 0.961 . S
C2503 H2519 0.961 . S
C2504 C2505 1.370 . S
C2504 C2506 1.363 . S
C2504 H2520 0.931 . S
C2505 C2504 1.370 . S
C2505 C2509 1.408 . S
C2506 C2504 1.363 . S
C2506 C2507 1.370 . S
C2506 C2510 1.524 . S
C2507 C2499 1.503 . S
C2507 C2506 1.370 . S
C2507 C2508 1.403 . S
C2508 C2507 1.403 . S
C2508 C2509 1.404 . S
C2508 C2511 1.539 . S
C2509 C2505 1.408 . S
C2509 C2508 1.404 . S
C2509 H2521 0.930 . S
C2510 C2506 1.524 . S
C2510 H2522 0.956 . S
C2510 H2523 0.961 . S
C2510 H2524 0.961 . S
C2511 C2508 1.539 . S
C2511 H2525 0.958 . S
C2511 H2526 0.961 . S
C2511 H2527 0.960 . S
H2512 C2496 0.931 . S
H2513 C2501 0.929 . S
H2514 C2502 0.960 . S
H2515 C2502 0.962 . S
H2516 C2502 0.960 . S
H2517 C2503 0.961 . S
H2518 C2503 0.961 . S
H2519 C2503 0.961 . S
H2520 C2504 0.931 . S
H2521 C2509 0.930 . S
H2522 C2510 0.956 . S
H2523 C2510 0.961 . S
H2524 C2510 0.961 . S
H2525 C2511 0.958 . S
H2526 C2511 0.961 . S
H2527 C2511 0.960 . S
C2528 C2529 1.391 . S
C2528 C2530 1.394 . S
C2528 H2544 0.931 . S
C2529 C2528 1.391 . S
C2529 C2533 1.376 . S
C2530 C2528 1.394 . S
C2530 C2531 1.369 . S
C2530 C2534 1.531 . S
C2531 C2530 1.369 . S
C2531 C2532 1.410 . S
C2531 C2539 1.503 . S
C2532 C2531 1.410 . S
C2532 C2533 1.392 . S
C2532 C2535 1.511 . S
C2533 C2529 1.376 . S
C2533 C2532 1.392 . S
C2533 H2545 0.929 . S
C2534 C2530 1.531 . S
C2534 H2546 0.960 . S
C2534 H2547 0.962 . S
C2534 H2548 0.960 . S
C2535 C2532 1.511 . S
C2535 H2549 0.961 . S
C2535 H2550 0.961 . S
C2535 H2551 0.961 . S
C2536 C2537 1.370 . S
C2536 C2538 1.363 . S
C2536 H2552 0.931 . S
C2537 C2536 1.370 . S
C2537 C2541 1.408 . S
C2538 C2536 1.363 . S
C2538 C2539 1.370 . S
C2538 C2542 1.524 . S
C2539 C2531 1.503 . S
C2539 C2538 1.370 . S
C2539 C2540 1.403 . S
C2540 C2539 1.403 . S
C2540 C2541 1.404 . S
C2540 C2543 1.539 . S
C2541 C2537 1.408 . S
C2541 C2540 1.404 . S
C2541 H2553 0.930 . S
C2542 C2538 1.524 . S
C2542 H2554 0.956 . S
C2542 H2555 0.961 . S
C2542 H2556 0.961 . S
C2543 C2540 1.539 . S
C2543 H2557 0.958 . S
C2543 H2558 0.961 . S
C2543 H2559 0.960 . S
H2544 C2528 0.931 . S
H2545 C2533 0.929 . S
H2546 C2534 0.960 . S
H2547 C2534 0.962 . S
H2548 C2534 0.960 . S
H2549 C2535 0.961 . S
H2550 C2535 0.961 . S
H2551 C2535 0.961 . S
H2552 C2536 0.931 . S
H2553 C2541 0.930 . S
H2554 C2542 0.956 . S
H2555 C2542 0.961 . S
H2556 C2542 0.961 . S
H2557 C2543 0.958 . S
H2558 C2543 0.961 . S
H2559 C2543 0.960 . S
C2560 C2561 1.391 . S
C2560 C2562 1.394 . S
C2560 H2576 0.931 . S
C2561 C2560 1.391 . S
C2561 C2565 1.376 . S
C2562 C2560 1.394 . S
C2562 C2563 1.369 . S
C2562 C2566 1.531 . S
C2563 C2562 1.369 . S
C2563 C2564 1.410 . S
C2563 C2571 1.503 . S
C2564 C2563 1.410 . S
C2564 C2565 1.392 . S
C2564 C2567 1.511 . S
C2565 C2561 1.376 . S
C2565 C2564 1.392 . S
C2565 H2577 0.929 . S
C2566 C2562 1.531 . S
C2566 H2578 0.960 . S
C2566 H2579 0.962 . S
C2566 H2580 0.960 . S
C2567 C2564 1.511 . S
C2567 H2581 0.961 . S
C2567 H2582 0.961 . S
C2567 H2583 0.961 . S
C2568 C2569 1.370 . S
C2568 C2570 1.363 . S
C2568 H2584 0.931 . S
C2569 C2568 1.370 . S
C2569 C2573 1.408 . S
C2570 C2568 1.363 . S
C2570 C2571 1.370 . S
C2570 C2574 1.524 . S
C2571 C2563 1.503 . S
C2571 C2570 1.370 . S
C2571 C2572 1.403 . S
C2572 C2571 1.403 . S
C2572 C2573 1.404 . S
C2572 C2575 1.539 . S
C2573 C2569 1.408 . S
C2573 C2572 1.404 . S
C2573 H2585 0.930 1_655 S
C2574 C2570 1.524 . S
C2574 H2586 0.956 . S
C2574 H2587 0.961 . S
C2574 H2588 0.961 . S
C2575 C2572 1.539 . S
C2575 H2589 0.958 . S
C2575 H2590 0.961 . S
C2575 H2591 0.960 . S
H2576 C2560 0.931 . S
H2577 C2565 0.929 . S
H2578 C2566 0.960 . S
H2579 C2566 0.962 . S
H2580 C2566 0.960 . S
H2581 C2567 0.961 . S
H2582 C2567 0.961 . S
H2583 C2567 0.961 . S
H2584 C2568 0.931 . S
H2585 C2573 0.930 1_455 S
H2586 C2574 0.956 . S
H2587 C2574 0.961 . S
H2588 C2574 0.961 . S
H2589 C2575 0.958 . S
H2590 C2575 0.961 . S
H2591 C2575 0.960 . S
C2592 C2593 1.391 . S
C2592 C2594 1.394 . S
C2592 H2608 0.931 . S
C2593 C2592 1.391 . S
C2593 C2597 1.376 . S
C2594 C2592 1.394 . S
C2594 C2595 1.369 . S
C2594 C2598 1.531 . S
C2595 C2594 1.369 . S
C2595 C2596 1.410 . S
C2595 C2603 1.503 . S
C2596 C2595 1.410 . S
C2596 C2597 1.392 . S
C2596 C2599 1.511 . S
C2597 C2593 1.376 . S
C2597 C2596 1.392 . S
C2597 H2609 0.929 . S
C2598 C2594 1.531 . S
C2598 H2610 0.960 . S
C2598 H2611 0.962 . S
C2598 H2612 0.960 . S
C2599 C2596 1.511 . S
C2599 H2613 0.961 . S
C2599 H2614 0.961 . S
C2599 H2615 0.961 . S
C2600 C2601 1.370 . S
C2600 C2602 1.363 . S
C2600 H2616 0.931 . S
C2601 C2600 1.370 . S
C2601 C2605 1.408 . S
C2602 C2600 1.363 . S
C2602 C2603 1.370 . S
C2602 C2606 1.524 . S
C2603 C2595 1.503 . S
C2603 C2602 1.370 . S
C2603 C2604 1.403 . S
C2604 C2603 1.403 . S
C2604 C2605 1.404 . S
C2604 C2607 1.539 . S
C2605 C2601 1.408 . S
C2605 C2604 1.404 . S
C2605 H2617 0.930 . S
C2606 C2602 1.524 . S
C2606 H2618 0.956 . S
C2606 H2619 0.961 . S
C2606 H2620 0.961 . S
C2607 C2604 1.539 . S
C2607 H2621 0.958 . S
C2607 H2622 0.961 . S
C2607 H2623 0.960 . S
H2608 C2592 0.931 . S
H2609 C2597 0.929 . S
H2610 C2598 0.960 . S
H2611 C2598 0.962 . S
H2612 C2598 0.960 . S
H2613 C2599 0.961 . S
H2614 C2599 0.961 . S
H2615 C2599 0.961 . S
H2616 C2600 0.931 . S
H2617 C2605 0.930 . S
H2618 C2606 0.956 . S
H2619 C2606 0.961 . S
H2620 C2606 0.961 . S
H2621 C2607 0.958 . S
H2622 C2607 0.961 . S
H2623 C2607 0.960 . S
C2624 C2625 1.391 . S
C2624 C2626 1.394 . S
C2624 H2640 0.931 . S
C2625 C2624 1.391 . S
C2625 C2629 1.376 . S
C2626 C2624 1.394 . S
C2626 C2627 1.369 . S
C2626 C2630 1.531 . S
C2627 C2626 1.369 . S
C2627 C2628 1.410 . S
C2627 C2635 1.503 . S
C2628 C2627 1.410 . S
C2628 C2629 1.392 . S
C2628 C2631 1.511 . S
C2629 C2625 1.376 . S
C2629 C2628 1.392 . S
C2629 H2641 0.929 . S
C2630 C2626 1.531 . S
C2630 H2642 0.960 . S
C2630 H2643 0.962 . S
C2630 H2644 0.960 . S
C2631 C2628 1.511 . S
C2631 H2645 0.961 . S
C2631 H2646 0.961 . S
C2631 H2647 0.961 . S
C2632 C2633 1.370 . S
C2632 C2634 1.363 . S
C2632 H2648 0.931 . S
C2633 C2632 1.370 . S
C2633 C2637 1.408 . S
C2634 C2632 1.363 . S
C2634 C2635 1.370 . S
C2634 C2638 1.524 . S
C2635 C2627 1.503 . S
C2635 C2634 1.370 . S
C2635 C2636 1.403 . S
C2636 C2635 1.403 . S
C2636 C2637 1.404 . S
C2636 C2639 1.539 . S
C2637 C2633 1.408 . S
C2637 C2636 1.404 . S
C2637 H2649 0.930 . S
C2638 C2634 1.524 . S
C2638 H2650 0.956 . S
C2638 H2651 0.961 . S
C2638 H2652 0.961 . S
C2639 C2636 1.539 . S
C2639 H2653 0.958 . S
C2639 H2654 0.961 . S
C2639 H2655 0.960 . S
H2640 C2624 0.931 . S
H2641 C2629 0.929 . S
H2642 C2630 0.960 . S
H2643 C2630 0.962 . S
H2644 C2630 0.960 . S
H2645 C2631 0.961 . S
H2646 C2631 0.961 . S
H2647 C2631 0.961 . S
H2648 C2632 0.931 . S
H2649 C2637 0.930 . S
H2650 C2638 0.956 . S
H2651 C2638 0.961 . S
H2652 C2638 0.961 . S
H2653 C2639 0.958 . S
H2654 C2639 0.961 . S
H2655 C2639 0.960 . S
C2656 C2657 1.391 . S
C2656 C2658 1.394 . S
C2656 H2672 0.931 . S
C2657 C2656 1.391 . S
C2657 C2661 1.376 . S
C2658 C2656 1.394 . S
C2658 C2659 1.369 . S
C2658 C2662 1.531 . S
C2659 C2658 1.369 . S
C2659 C2660 1.410 . S
C2659 C2667 1.503 . S
C2660 C2659 1.410 . S
C2660 C2661 1.392 . S
C2660 C2663 1.511 . S
C2661 C2657 1.376 . S
C2661 C2660 1.392 . S
C2661 H2673 0.929 . S
C2662 C2658 1.531 . S
C2662 H2674 0.960 . S
C2662 H2675 0.962 . S
C2662 H2676 0.960 . S
C2663 C2660 1.511 . S
C2663 H2677 0.961 . S
C2663 H2678 0.961 . S
C2663 H2679 0.961 . S
C2664 C2665 1.370 . S
C2664 C2666 1.363 . S
C2664 H2680 0.931 . S
C2665 C2664 1.370 . S
C2665 C2669 1.408 . S
C2666 C2664 1.363 . S
C2666 C2667 1.370 . S
C2666 C2670 1.524 . S
C2667 C2659 1.503 . S
C2667 C2666 1.370 . S
C2667 C2668 1.403 . S
C2668 C2667 1.403 . S
C2668 C2669 1.404 . S
C2668 C2671 1.539 . S
C2669 C2665 1.408 . S
C2669 C2668 1.404 . S
C2669 H2681 0.930 . S
C2670 C2666 1.524 . S
C2670 H2682 0.956 . S
C2670 H2683 0.961 . S
C2670 H2684 0.961 . S
C2671 C2668 1.539 . S
C2671 H2685 0.958 . S
C2671 H2686 0.961 . S
C2671 H2687 0.960 . S
H2672 C2656 0.931 . S
H2673 C2661 0.929 . S
H2674 C2662 0.960 . S
H2675 C2662 0.962 . S
H2676 C2662 0.960 . S
H2677 C2663 0.961 . S
H2678 C2663 0.961 . S
H2679 C2663 0.961 . S
H2680 C2664 0.931 . S
H2681 C2669 0.930 . S
H2682 C2670 0.956 . S
H2683 C2670 0.961 . S
H2684 C2670 0.961 . S
H2685 C2671 0.958 . S
H2686 C2671 0.961 . S
H2687 C2671 0.960 . S
C2688 C2689 1.391 . S
C2688 C2690 1.394 . S
C2688 H2704 0.931 . S
C2689 C2688 1.391 . S
C2689 C2693 1.376 . S
C2690 C2688 1.394 . S
C2690 C2691 1.369 . S
C2690 C2694 1.531 . S
C2691 C2690 1.369 . S
C2691 C2692 1.410 . S
C2691 C2699 1.503 . S
C2692 C2691 1.410 . S
C2692 C2693 1.392 . S
C2692 C2695 1.511 . S
C2693 C2689 1.376 . S
C2693 C2692 1.392 . S
C2693 H2705 0.929 . S
C2694 C2690 1.531 . S
C2694 H2706 0.960 . S
C2694 H2707 0.962 . S
C2694 H2708 0.960 . S
C2695 C2692 1.511 . S
C2695 H2709 0.961 . S
C2695 H2710 0.961 . S
C2695 H2711 0.961 . S
C2696 C2697 1.370 . S
C2696 C2698 1.363 . S
C2696 H2712 0.931 . S
C2697 C2696 1.370 . S
C2697 C2701 1.408 . S
C2698 C2696 1.363 . S
C2698 C2699 1.370 . S
C2698 C2702 1.524 . S
C2699 C2691 1.503 . S
C2699 C2698 1.370 . S
C2699 C2700 1.403 . S
C2700 C2699 1.403 . S
C2700 C2701 1.404 . S
C2700 C2703 1.539 . S
C2701 C2697 1.408 . S
C2701 C2700 1.404 . S
C2701 H2713 0.930 . S
C2702 C2698 1.524 . S
C2702 H2714 0.956 . S
C2702 H2715 0.961 . S
C2702 H2716 0.961 . S
C2703 C2700 1.539 . S
C2703 H2717 0.958 . S
C2703 H2718 0.961 . S
C2703 H2719 0.960 . S
H2704 C2688 0.931 . S
H2705 C2693 0.929 . S
H2706 C2694 0.960 . S
H2707 C2694 0.962 . S
H2708 C2694 0.960 . S
H2709 C2695 0.961 . S
H2710 C2695 0.961 . S
H2711 C2695 0.961 . S
H2712 C2696 0.931 . S
H2713 C2701 0.930 . S
H2714 C2702 0.956 . S
H2715 C2702 0.961 . S
H2716 C2702 0.961 . S
H2717 C2703 0.958 . S
H2718 C2703 0.961 . S
H2719 C2703 0.960 . S
C2720 C2721 1.391 . S
C2720 C2722 1.394 . S
C2720 H2736 0.931 . S
C2721 C2720 1.391 . S
C2721 C2725 1.376 . S
C2722 C2720 1.394 . S
C2722 C2723 1.369 . S
C2722 C2726 1.531 . S
C2723 C2722 1.369 . S
C2723 C2724 1.410 . S
C2723 C2731 1.503 . S
C2724 C2723 1.410 . S
C2724 C2725 1.392 . S
C2724 C2727 1.511 . S
C2725 C2721 1.376 . S
C2725 C2724 1.392 . S
C2725 H2737 0.929 . S
C2726 C2722 1.531 . S
C2726 H2738 0.960 . S
C2726 H2739 0.962 . S
C2726 H2740 0.960 . S
C2727 C2724 1.511 . S
C2727 H2741 0.961 . S
C2727 H2742 0.961 . S
C2727 H2743 0.961 . S
C2728 C2729 1.370 . S
C2728 C2730 1.363 . S
C2728 H2744 0.931 . S
C2729 C2728 1.370 . S
C2729 C2733 1.408 . S
C2730 C2728 1.363 . S
C2730 C2731 1.370 . S
C2730 C2734 1.524 . S
C2731 C2723 1.503 . S
C2731 C2730 1.370 . S
C2731 C2732 1.403 . S
C2732 C2731 1.403 . S
C2732 C2733 1.404 . S
C2732 C2735 1.539 . S
C2733 C2729 1.408 . S
C2733 C2732 1.404 . S
C2733 H2745 0.930 . S
C2734 C2730 1.524 . S
C2734 H2746 0.956 . S
C2734 H2747 0.961 . S
C2734 H2748 0.961 . S
C2735 C2732 1.539 . S
C2735 H2749 0.958 . S
C2735 H2750 0.961 . S
C2735 H2751 0.960 . S
H2736 C2720 0.931 . S
H2737 C2725 0.929 . S
H2738 C2726 0.960 . S
H2739 C2726 0.962 . S
H2740 C2726 0.960 . S
H2741 C2727 0.961 . S
H2742 C2727 0.961 . S
H2743 C2727 0.961 . S
H2744 C2728 0.931 . S
H2745 C2733 0.930 . S
H2746 C2734 0.956 . S
H2747 C2734 0.961 . S
H2748 C2734 0.961 . S
H2749 C2735 0.958 . S
H2750 C2735 0.961 . S
H2751 C2735 0.960 . S
C2752 C2753 1.391 . S
C2752 C2754 1.394 . S
C2752 H2768 0.931 . S
C2753 C2752 1.391 . S
C2753 C2757 1.376 . S
C2754 C2752 1.394 . S
C2754 C2755 1.369 . S
C2754 C2758 1.531 . S
C2755 C2754 1.369 . S
C2755 C2756 1.410 . S
C2755 C2763 1.503 . S
C2756 C2755 1.410 . S
C2756 C2757 1.392 . S
C2756 C2759 1.511 . S
C2757 C2753 1.376 . S
C2757 C2756 1.392 . S
C2757 H2769 0.929 . S
C2758 C2754 1.531 . S
C2758 H2770 0.960 . S
C2758 H2771 0.962 . S
C2758 H2772 0.960 . S
C2759 C2756 1.511 . S
C2759 H2773 0.961 . S
C2759 H2774 0.961 . S
C2759 H2775 0.961 . S
C2760 C2761 1.370 . S
C2760 C2762 1.363 . S
C2760 H2776 0.931 . S
C2761 C2760 1.370 . S
C2761 C2765 1.408 . S
C2762 C2760 1.363 . S
C2762 C2763 1.370 . S
C2762 C2766 1.524 . S
C2763 C2755 1.503 . S
C2763 C2762 1.370 . S
C2763 C2764 1.403 . S
C2764 C2763 1.403 . S
C2764 C2765 1.404 . S
C2764 C2767 1.539 . S
C2765 C2761 1.408 . S
C2765 C2764 1.404 . S
C2765 H2777 0.930 . S
C2766 C2762 1.524 . S
C2766 H2778 0.956 . S
C2766 H2779 0.961 . S
C2766 H2780 0.961 . S
C2767 C2764 1.539 . S
C2767 H2781 0.958 . S
C2767 H2782 0.961 . S
C2767 H2783 0.960 . S
H2768 C2752 0.931 . S
H2769 C2757 0.929 . S
H2770 C2758 0.960 . S
H2771 C2758 0.962 . S
H2772 C2758 0.960 . S
H2773 C2759 0.961 . S
H2774 C2759 0.961 . S
H2775 C2759 0.961 . S
H2776 C2760 0.931 . S
H2777 C2765 0.930 . S
H2778 C2766 0.956 . S
H2779 C2766 0.961 . S
H2780 C2766 0.961 . S
H2781 C2767 0.958 . S
H2782 C2767 0.961 . S
H2783 C2767 0.960 . S
C2784 C2785 1.391 . S
C2784 C2786 1.394 . S
C2784 H2800 0.931 . S
C2785 C2784 1.391 . S
C2785 C2789 1.376 . S
C2786 C2784 1.394 . S
C2786 C2787 1.369 . S
C2786 C2790 1.531 . S
C2787 C2786 1.369 . S
C2787 C2788 1.410 . S
C2787 C2795 1.503 . S
C2788 C2787 1.410 . S
C2788 C2789 1.392 . S
C2788 C2791 1.511 . S
C2789 C2785 1.376 . S
C2789 C2788 1.392 . S
C2789 H2801 0.929 . S
C2790 C2786 1.531 . S
C2790 H2802 0.960 . S
C2790 H2803 0.962 . S
C2790 H2804 0.960 . S
C2791 C2788 1.511 . S
C2791 H2805 0.961 . S
C2791 H2806 0.961 . S
C2791 H2807 0.961 . S
C2792 C2793 1.370 . S
C2792 C2794 1.363 . S
C2792 H2808 0.931 1_565 S
C2793 C2792 1.370 . S
C2793 C2797 1.408 . S
C2794 C2792 1.363 . S
C2794 C2795 1.370 . S
C2794 C2798 1.524 . S
C2795 C2787 1.503 . S
C2795 C2794 1.370 . S
C2795 C2796 1.403 . S
C2796 C2795 1.403 . S
C2796 C2797 1.404 . S
C2796 C2799 1.539 . S
C2797 C2793 1.408 . S
C2797 C2796 1.404 . S
C2797 H2809 0.930 . S
C2798 C2794 1.524 . S
C2798 H2810 0.956 . S
C2798 H2811 0.961 . S
C2798 H2812 0.961 1_565 S
C2799 C2796 1.539 . S
C2799 H2813 0.958 . S
C2799 H2814 0.961 . S
C2799 H2815 0.960 . S
H2800 C2784 0.931 . S
H2801 C2789 0.929 . S
H2802 C2790 0.960 . S
H2803 C2790 0.962 . S
H2804 C2790 0.960 . S
H2805 C2791 0.961 . S
H2806 C2791 0.961 . S
H2807 C2791 0.961 . S
H2808 C2792 0.931 1_545 S
H2809 C2797 0.930 . S
H2810 C2798 0.956 . S
H2811 C2798 0.961 . S
H2812 C2798 0.961 1_545 S
H2813 C2799 0.958 . S
H2814 C2799 0.961 . S
H2815 C2799 0.960 . S
C2816 C2817 1.391 . S
C2816 C2818 1.394 . S
C2816 H2832 0.931 . S
C2817 C2816 1.391 . S
C2817 C2821 1.376 . S
C2818 C2816 1.394 . S
C2818 C2819 1.369 . S
C2818 C2822 1.531 . S
C2819 C2818 1.369 . S
C2819 C2820 1.410 . S
C2819 C2827 1.503 . S
C2820 C2819 1.410 . S
C2820 C2821 1.392 . S
C2820 C2823 1.511 . S
C2821 C2817 1.376 . S
C2821 C2820 1.392 . S
C2821 H2833 0.929 . S
C2822 C2818 1.531 . S
C2822 H2834 0.960 . S
C2822 H2835 0.962 . S
C2822 H2836 0.960 . S
C2823 C2820 1.511 . S
C2823 H2837 0.961 . S
C2823 H2838 0.961 . S
C2823 H2839 0.961 . S
C2824 C2825 1.370 . S
C2824 C2826 1.363 . S
C2824 H2840 0.931 . S
C2825 C2824 1.370 . S
C2825 C2829 1.408 . S
C2826 C2824 1.363 . S
C2826 C2827 1.370 . S
C2826 C2830 1.524 . S
C2827 C2819 1.503 . S
C2827 C2826 1.370 . S
C2827 C2828 1.403 . S
C2828 C2827 1.403 . S
C2828 C2829 1.404 . S
C2828 C2831 1.539 . S
C2829 C2825 1.408 . S
C2829 C2828 1.404 . S
C2829 H2841 0.930 . S
C2830 C2826 1.524 . S
C2830 H2842 0.956 . S
C2830 H2843 0.961 . S
C2830 H2844 0.961 . S
C2831 C2828 1.539 . S
C2831 H2845 0.958 . S
C2831 H2846 0.961 . S
C2831 H2847 0.960 . S
H2832 C2816 0.931 . S
H2833 C2821 0.929 . S
H2834 C2822 0.960 . S
H2835 C2822 0.962 . S
H2836 C2822 0.960 . S
H2837 C2823 0.961 . S
H2838 C2823 0.961 . S
H2839 C2823 0.961 . S
H2840 C2824 0.931 . S
H2841 C2829 0.930 . S
H2842 C2830 0.956 . S
H2843 C2830 0.961 . S
H2844 C2830 0.961 . S
H2845 C2831 0.958 . S
H2846 C2831 0.961 . S
H2847 C2831 0.960 . S
C2848 C2849 1.391 . S
C2848 C2850 1.394 . S
C2848 H2864 0.931 . S
C2849 C2848 1.391 . S
C2849 C2853 1.376 . S
C2850 C2848 1.394 . S
C2850 C2851 1.369 . S
C2850 C2854 1.531 . S
C2851 C2850 1.369 . S
C2851 C2852 1.410 . S
C2851 C2859 1.503 . S
C2852 C2851 1.410 . S
C2852 C2853 1.392 . S
C2852 C2855 1.511 . S
C2853 C2849 1.376 . S
C2853 C2852 1.392 . S
C2853 H2865 0.929 . S
C2854 C2850 1.531 . S
C2854 H2866 0.960 . S
C2854 H2867 0.962 . S
C2854 H2868 0.960 . S
C2855 C2852 1.511 . S
C2855 H2869 0.961 . S
C2855 H2870 0.961 . S
C2855 H2871 0.961 1_554 S
C2856 C2857 1.370 . S
C2856 C2858 1.363 . S
C2856 H2872 0.931 . S
C2857 C2856 1.370 . S
C2857 C2861 1.408 1_554 S
C2858 C2856 1.363 . S
C2858 C2859 1.370 . S
C2858 C2862 1.524 . S
C2859 C2851 1.503 . S
C2859 C2858 1.370 . S
C2859 C2860 1.403 1_554 S
C2860 C2859 1.403 1_556 S
C2860 C2861 1.404 . S
C2860 C2863 1.539 . S
C2861 C2857 1.408 1_556 S
C2861 C2860 1.404 . S
C2861 H2873 0.930 . S
C2862 C2858 1.524 . S
C2862 H2874 0.956 . S
C2862 H2875 0.961 . S
C2862 H2876 0.961 . S
C2863 C2860 1.539 . S
C2863 H2877 0.958 . S
C2863 H2878 0.961 . S
C2863 H2879 0.960 . S
H2864 C2848 0.931 . S
H2865 C2853 0.929 . S
H2866 C2854 0.960 . S
H2867 C2854 0.962 . S
H2868 C2854 0.960 . S
H2869 C2855 0.961 . S
H2870 C2855 0.961 . S
H2871 C2855 0.961 1_556 S
H2872 C2856 0.931 . S
H2873 C2861 0.930 . S
H2874 C2862 0.956 . S
H2875 C2862 0.961 . S
H2876 C2862 0.961 . S
H2877 C2863 0.958 . S
H2878 C2863 0.961 . S
H2879 C2863 0.960 . S
C2880 C2881 1.391 . S
C2880 C2882 1.394 . S
C2880 H2896 0.931 . S
C2881 C2880 1.391 . S
C2881 C2885 1.376 . S
C2882 C2880 1.394 . S
C2882 C2883 1.369 . S
C2882 C2886 1.531 . S
C2883 C2882 1.369 . S
C2883 C2884 1.410 . S
C2883 C2891 1.503 . S
C2884 C2883 1.410 . S
C2884 C2885 1.392 . S
C2884 C2887 1.511 . S
C2885 C2881 1.376 . S
C2885 C2884 1.392 . S
C2885 H2897 0.929 . S
C2886 C2882 1.531 . S
C2886 H2898 0.960 . S
C2886 H2899 0.962 . S
C2886 H2900 0.960 . S
C2887 C2884 1.511 . S
C2887 H2901 0.961 . S
C2887 H2902 0.961 . S
C2887 H2903 0.961 . S
C2888 C2889 1.370 . S
C2888 C2890 1.363 . S
C2888 H2904 0.931 . S
C2889 C2888 1.370 . S
C2889 C2893 1.408 . S
C2890 C2888 1.363 . S
C2890 C2891 1.370 . S
C2890 C2894 1.524 . S
C2891 C2883 1.503 . S
C2891 C2890 1.370 . S
C2891 C2892 1.403 . S
C2892 C2891 1.403 . S
C2892 C2893 1.404 . S
C2892 C2895 1.539 . S
C2893 C2889 1.408 . S
C2893 C2892 1.404 . S
C2893 H2905 0.930 . S
C2894 C2890 1.524 . S
C2894 H2906 0.956 . S
C2894 H2907 0.961 . S
C2894 H2908 0.961 . S
C2895 C2892 1.539 . S
C2895 H2909 0.958 . S
C2895 H2910 0.961 . S
C2895 H2911 0.960 . S
H2896 C2880 0.931 . S
H2897 C2885 0.929 . S
H2898 C2886 0.960 . S
H2899 C2886 0.962 . S
H2900 C2886 0.960 . S
H2901 C2887 0.961 . S
H2902 C2887 0.961 . S
H2903 C2887 0.961 . S
H2904 C2888 0.931 . S
H2905 C2893 0.930 . S
H2906 C2894 0.956 . S
H2907 C2894 0.961 . S
H2908 C2894 0.961 . S
H2909 C2895 0.958 . S
H2910 C2895 0.961 . S
H2911 C2895 0.960 . S
C2912 C2913 1.391 . S
C2912 C2914 1.394 . S
C2912 H2928 0.931 . S
C2913 C2912 1.391 . S
C2913 C2917 1.376 1_554 S
C2914 C2912 1.394 . S
C2914 C2915 1.369 . S
C2914 C2918 1.531 . S
C2915 C2914 1.369 . S
C2915 C2916 1.410 1_554 S
C2915 C2923 1.503 . S
C2916 C2915 1.410 1_556 S
C2916 C2917 1.392 . S
C2916 C2919 1.511 . S
C2917 C2913 1.376 1_556 S
C2917 C2916 1.392 . S
C2917 H2929 0.929 . S
C2918 C2914 1.531 . S
C2918 H2930 0.960 . S
C2918 H2931 0.962 . S
C2918 H2932 0.960 . S
C2919 C2916 1.511 . S
C2919 H2933 0.961 . S
C2919 H2934 0.961 . S
C2919 H2935 0.961 . S
C2920 C2921 1.370 . S
C2920 C2922 1.363 . S
C2920 H2936 0.931 . S
C2921 C2920 1.370 . S
C2921 C2925 1.408 1_556 S
C2922 C2920 1.363 . S
C2922 C2923 1.370 1_556 S
C2922 C2926 1.524 . S
C2923 C2915 1.503 . S
C2923 C2922 1.370 1_554 S
C2923 C2924 1.403 . S
C2924 C2923 1.403 . S
C2924 C2925 1.404 . S
C2924 C2927 1.539 . S
C2925 C2921 1.408 1_554 S
C2925 C2924 1.404 . S
C2925 H2937 0.930 . S
C2926 C2922 1.524 . S
C2926 H2938 0.956 1_556 S
C2926 H2939 0.961 . S
C2926 H2940 0.961 . S
C2927 C2924 1.539 . S
C2927 H2941 0.958 . S
C2927 H2942 0.961 . S
C2927 H2943 0.960 . S
H2928 C2912 0.931 . S
H2929 C2917 0.929 . S
H2930 C2918 0.960 . S
H2931 C2918 0.962 . S
H2932 C2918 0.960 . S
H2933 C2919 0.961 . S
H2934 C2919 0.961 . S
H2935 C2919 0.961 . S
H2936 C2920 0.931 . S
H2937 C2925 0.930 . S
H2938 C2926 0.956 1_554 S
H2939 C2926 0.961 . S
H2940 C2926 0.961 . S
H2941 C2927 0.958 . S
H2942 C2927 0.961 . S
H2943 C2927 0.960 . S
C2944 C2945 1.391 . S
C2944 C2946 1.394 . S
C2944 H2960 0.931 . S
C2945 C2944 1.391 . S
C2945 C2949 1.376 . S
C2946 C2944 1.394 . S
C2946 C2947 1.369 . S
C2946 C2950 1.531 . S
C2947 C2946 1.369 . S
C2947 C2948 1.410 . S
C2947 C2955 1.503 . S
C2948 C2947 1.410 . S
C2948 C2949 1.392 . S
C2948 C2951 1.511 . S
C2949 C2945 1.376 . S
C2949 C2948 1.392 . S
C2949 H2961 0.929 . S
C2950 C2946 1.531 . S
C2950 H2962 0.960 . S
C2950 H2963 0.962 . S
C2950 H2964 0.960 . S
C2951 C2948 1.511 . S
C2951 H2965 0.961 . S
C2951 H2966 0.961 . S
C2951 H2967 0.961 . S
C2952 C2953 1.370 . S
C2952 C2954 1.363 . S
C2952 H2968 0.931 . S
C2953 C2952 1.370 . S
C2953 C2957 1.408 . S
C2954 C2952 1.363 . S
C2954 C2955 1.370 . S
C2954 C2958 1.524 . S
C2955 C2947 1.503 . S
C2955 C2954 1.370 . S
C2955 C2956 1.403 . S
C2956 C2955 1.403 . S
C2956 C2957 1.404 . S
C2956 C2959 1.539 . S
C2957 C2953 1.408 . S
C2957 C2956 1.404 . S
C2957 H2969 0.930 . S
C2958 C2954 1.524 . S
C2958 H2970 0.956 . S
C2958 H2971 0.961 . S
C2958 H2972 0.961 . S
C2959 C2956 1.539 . S
C2959 H2973 0.958 . S
C2959 H2974 0.961 . S
C2959 H2975 0.960 . S
H2960 C2944 0.931 . S
H2961 C2949 0.929 . S
H2962 C2950 0.960 . S
H2963 C2950 0.962 . S
H2964 C2950 0.960 . S
H2965 C2951 0.961 . S
H2966 C2951 0.961 . S
H2967 C2951 0.961 . S
H2968 C2952 0.931 . S
H2969 C2957 0.930 . S
H2970 C2958 0.956 . S
H2971 C2958 0.961 . S
H2972 C2958 0.961 . S
H2973 C2959 0.958 . S
H2974 C2959 0.961 . S
H2975 C2959 0.960 . S
C2976 C2977 1.391 . S
C2976 C2978 1.394 . S
C2976 H2992 0.931 . S
C2977 C2976 1.391 . S
C2977 C2981 1.376 . S
C2978 C2976 1.394 . S
C2978 C2979 1.369 . S
C2978 C2982 1.531 . S
C2979 C2978 1.369 . S
C2979 C2980 1.410 . S
C2979 C2987 1.503 . S
C2980 C2979 1.410 . S
C2980 C2981 1.392 . S
C2980 C2983 1.511 . S
C2981 C2977 1.376 . S
C2981 C2980 1.392 . S
C2981 H2993 0.929 . S
C2982 C2978 1.531 . S
C2982 H2994 0.960 . S
C2982 H2995 0.962 . S
C2982 H2996 0.960 . S
C2983 C2980 1.511 . S
C2983 H2997 0.961 . S
C2983 H2998 0.961 . S
C2983 H2999 0.961 . S
C2984 C2985 1.370 . S
C2984 C2986 1.363 . S
C2984 H3000 0.931 . S
C2985 C2984 1.370 . S
C2985 C2989 1.408 . S
C2986 C2984 1.363 . S
C2986 C2987 1.370 . S
C2986 C2990 1.524 . S
C2987 C2979 1.503 . S
C2987 C2986 1.370 . S
C2987 C2988 1.403 . S
C2988 C2987 1.403 . S
C2988 C2989 1.404 . S
C2988 C2991 1.539 . S
C2989 C2985 1.408 . S
C2989 C2988 1.404 . S
C2989 H3001 0.930 . S
C2990 C2986 1.524 . S
C2990 H3002 0.956 . S
C2990 H3003 0.961 . S
C2990 H3004 0.961 . S
C2991 C2988 1.539 . S
C2991 H3005 0.958 . S
C2991 H3006 0.961 . S
C2991 H3007 0.960 . S
H2992 C2976 0.931 . S
H2993 C2981 0.929 . S
H2994 C2982 0.960 . S
H2995 C2982 0.962 . S
H2996 C2982 0.960 . S
H2997 C2983 0.961 . S
H2998 C2983 0.961 . S
H2999 C2983 0.961 . S
H3000 C2984 0.931 . S
H3001 C2989 0.930 . S
H3002 C2990 0.956 . S
H3003 C2990 0.961 . S
H3004 C2990 0.961 . S
H3005 C2991 0.958 . S
H3006 C2991 0.961 . S
H3007 C2991 0.960 . S
C3008 C3009 1.391 . S
C3008 C3010 1.394 . S
C3008 H3024 0.931 . S
C3009 C3008 1.391 . S
C3009 C3013 1.376 . S
C3010 C3008 1.394 . S
C3010 C3011 1.369 . S
C3010 C3014 1.531 . S
C3011 C3010 1.369 . S
C3011 C3012 1.410 . S
C3011 C3019 1.503 . S
C3012 C3011 1.410 . S
C3012 C3013 1.392 . S
C3012 C3015 1.511 . S
C3013 C3009 1.376 . S
C3013 C3012 1.392 . S
C3013 H3025 0.929 . S
C3014 C3010 1.531 . S
C3014 H3026 0.960 . S
C3014 H3027 0.962 . S
C3014 H3028 0.960 . S
C3015 C3012 1.511 . S
C3015 H3029 0.961 . S
C3015 H3030 0.961 . S
C3015 H3031 0.961 . S
C3016 C3017 1.370 . S
C3016 C3018 1.363 . S
C3016 H3032 0.931 . S
C3017 C3016 1.370 . S
C3017 C3021 1.408 . S
C3018 C3016 1.363 . S
C3018 C3019 1.370 . S
C3018 C3022 1.524 . S
C3019 C3011 1.503 . S
C3019 C3018 1.370 . S
C3019 C3020 1.403 . S
C3020 C3019 1.403 . S
C3020 C3021 1.404 . S
C3020 C3023 1.539 . S
C3021 C3017 1.408 . S
C3021 C3020 1.404 . S
C3021 H3033 0.930 . S
C3022 C3018 1.524 . S
C3022 H3034 0.956 . S
C3022 H3035 0.961 . S
C3022 H3036 0.961 . S
C3023 C3020 1.539 . S
C3023 H3037 0.958 . S
C3023 H3038 0.961 . S
C3023 H3039 0.960 . S
H3024 C3008 0.931 . S
H3025 C3013 0.929 . S
H3026 C3014 0.960 . S
H3027 C3014 0.962 . S
H3028 C3014 0.960 . S
H3029 C3015 0.961 . S
H3030 C3015 0.961 . S
H3031 C3015 0.961 . S
H3032 C3016 0.931 . S
H3033 C3021 0.930 . S
H3034 C3022 0.956 . S
H3035 C3022 0.961 . S
H3036 C3022 0.961 . S
H3037 C3023 0.958 . S
H3038 C3023 0.961 . S
H3039 C3023 0.960 . S
C3040 C3041 1.391 . S
C3040 C3042 1.394 . S
C3040 H3056 0.931 . S
C3041 C3040 1.391 . S
C3041 C3045 1.376 . S
C3042 C3040 1.394 . S
C3042 C3043 1.369 . S
C3042 C3046 1.531 . S
C3043 C3042 1.369 . S
C3043 C3044 1.410 . S
C3043 C3051 1.503 . S
C3044 C3043 1.410 . S
C3044 C3045 1.392 . S
C3044 C3047 1.511 . S
C3045 C3041 1.376 . S
C3045 C3044 1.392 . S
C3045 H3057 0.929 . S
C3046 C3042 1.531 . S
C3046 H3058 0.960 . S
C3046 H3059 0.962 . S
C3046 H3060 0.960 . S
C3047 C3044 1.511 . S
C3047 H3061 0.961 . S
C3047 H3062 0.961 . S
C3047 H3063 0.961 . S
C3048 C3049 1.370 . S
C3048 C3050 1.363 . S
C3048 H3064 0.931 . S
C3049 C3048 1.370 . S
C3049 C3053 1.408 . S
C3050 C3048 1.363 . S
C3050 C3051 1.370 . S
C3050 C3054 1.524 . S
C3051 C3043 1.503 . S
C3051 C3050 1.370 . S
C3051 C3052 1.403 . S
C3052 C3051 1.403 . S
C3052 C3053 1.404 . S
C3052 C3055 1.539 . S
C3053 C3049 1.408 . S
C3053 C3052 1.404 . S
C3053 H3065 0.930 . S
C3054 C3050 1.524 . S
C3054 H3066 0.956 . S
C3054 H3067 0.961 . S
C3054 H3068 0.961 . S
C3055 C3052 1.539 . S
C3055 H3069 0.958 . S
C3055 H3070 0.961 . S
C3055 H3071 0.960 . S
H3056 C3040 0.931 . S
H3057 C3045 0.929 . S
H3058 C3046 0.960 . S
H3059 C3046 0.962 . S
H3060 C3046 0.960 . S
H3061 C3047 0.961 . S
H3062 C3047 0.961 . S
H3063 C3047 0.961 . S
H3064 C3048 0.931 . S
H3065 C3053 0.930 . S
H3066 C3054 0.956 . S
H3067 C3054 0.961 . S
H3068 C3054 0.961 . S
H3069 C3055 0.958 . S
H3070 C3055 0.961 . S
H3071 C3055 0.960 . S
C3072 C3073 1.391 1_655 S
C3072 C3074 1.394 . S
C3072 H3088 0.931 . S
C3073 C3072 1.391 1_455 S
C3073 C3077 1.376 . S
C3074 C3072 1.394 . S
C3074 C3075 1.369 1_655 S
C3074 C3078 1.531 . S
C3075 C3074 1.369 1_455 S
C3075 C3076 1.410 . S
C3075 C3083 1.498 1_455 S
C3076 C3075 1.410 . S
C3076 C3077 1.392 . S
C3076 C3079 1.511 . S
C3077 C3073 1.376 . S
C3077 C3076 1.392 . S
C3077 H3089 0.929 . S
C3078 C3074 1.531 . S
C3078 H3090 0.960 . S
C3078 H3091 0.962 . S
C3078 H3092 0.960 . S
C3079 C3076 1.511 . S
C3079 H3093 0.961 . S
C3079 H3094 0.961 . S
C3079 H3095 0.961 . S
C3080 C3081 1.370 . S
C3080 C3082 1.363 . S
C3080 H3096 0.912 1_556 S
C3081 C3080 1.370 . S
C3081 C3085 1.408 1_655 S
C3082 C3080 1.363 . S
C3082 C3083 1.401 . S
C3082 C3086 1.524 . S
C3083 C3075 1.498 1_655 S
C3083 C3082 1.401 . S
C3083 C3084 1.379 1_655 S
C3084 C3083 1.379 1_455 S
C3084 C3085 1.404 . S
C3084 C3087 1.539 . S
C3085 C3081 1.408 1_455 S
C3085 C3084 1.404 . S
C3085 H3097 0.930 . S
C3086 C3082 1.524 . S
C3086 H3098 0.956 . S
C3086 H3099 0.961 . S
C3086 H3100 0.961 . S
C3087 C3084 1.539 . S
C3087 H3101 0.958 . S
C3087 H3102 0.961 . S
C3087 H3103 0.960 . S
H3088 C3072 0.931 . S
H3089 C3077 0.929 . S
H3090 C3078 0.960 . S
H3091 C3078 0.962 . S
H3092 C3078 0.960 . S
H3093 C3079 0.961 . S
H3094 C3079 0.961 . S
H3095 C3079 0.961 . S
H3096 C3080 0.912 1_554 S
H3097 C3085 0.930 . S
H3098 C3086 0.956 . S
H3099 C3086 0.961 . S
H3100 C3086 0.961 . S
H3101 C3087 0.958 . S
H3102 C3087 0.961 . S
H3103 C3087 0.960 . S
C3104 C3105 1.391 . S
C3104 C3106 1.394 . S
C3104 H3120 0.931 . S
C3105 C3104 1.391 . S
C3105 C3109 1.376 . S
C3106 C3104 1.394 . S
C3106 C3107 1.369 . S
C3106 C3110 1.531 . S
C3107 C3106 1.369 . S
C3107 C3108 1.410 . S
C3107 C3115 1.503 . S
C3108 C3107 1.410 . S
C3108 C3109 1.392 . S
C3108 C3111 1.511 . S
C3109 C3105 1.376 . S
C3109 C3108 1.392 . S
C3109 H3121 0.929 . S
C3110 C3106 1.531 . S
C3110 H3122 0.960 . S
C3110 H3123 0.962 . S
C3110 H3124 0.960 . S
C3111 C3108 1.511 . S
C3111 H3125 0.961 . S
C3111 H3126 0.961 . S
C3111 H3127 0.961 . S
C3112 C3113 1.370 . S
C3112 C3114 1.363 . S
C3112 H3128 0.931 . S
C3113 C3112 1.370 . S
C3113 C3117 1.408 . S
C3114 C3112 1.363 . S
C3114 C3115 1.370 . S
C3114 C3118 1.524 . S
C3115 C3107 1.503 . S
C3115 C3114 1.370 . S
C3115 C3116 1.403 . S
C3116 C3115 1.403 . S
C3116 C3117 1.404 . S
C3116 C3119 1.539 . S
C3117 C3113 1.408 . S
C3117 C3116 1.404 . S
C3117 H3129 0.930 . S
C3118 C3114 1.524 . S
C3118 H3130 0.956 . S
C3118 H3131 0.961 . S
C3118 H3132 0.961 . S
C3119 C3116 1.539 . S
C3119 H3133 0.958 . S
C3119 H3134 0.961 . S
C3119 H3135 0.960 . S
H3120 C3104 0.931 . S
H3121 C3109 0.929 . S
H3122 C3110 0.960 . S
H3123 C3110 0.962 . S
H3124 C3110 0.960 . S
H3125 C3111 0.961 . S
H3126 C3111 0.961 . S
H3127 C3111 0.961 . S
H3128 C3112 0.931 . S
H3129 C3117 0.930 . S
H3130 C3118 0.956 . S
H3131 C3118 0.961 . S
H3132 C3118 0.961 . S
H3133 C3119 0.958 . S
H3134 C3119 0.961 . S
H3135 C3119 0.960 . S
C3136 C3137 1.391 . S
C3136 C3138 1.394 . S
C3136 H3152 0.931 . S
C3137 C3136 1.391 . S
C3137 C3141 1.376 . S
C3138 C3136 1.394 . S
C3138 C3139 1.369 . S
C3138 C3142 1.531 . S
C3139 C3138 1.369 . S
C3139 C3140 1.410 . S
C3139 C3147 1.503 . S
C3140 C3139 1.410 . S
C3140 C3141 1.392 . S
C3140 C3143 1.511 . S
C3141 C3137 1.376 . S
C3141 C3140 1.392 . S
C3141 H3153 0.929 . S
C3142 C3138 1.531 . S
C3142 H3154 0.960 . S
C3142 H3155 0.962 . S
C3142 H3156 0.960 . S
C3143 C3140 1.511 . S
C3143 H3157 0.961 . S
C3143 H3158 0.961 . S
C3143 H3159 0.961 . S
C3144 C3145 1.370 . S
C3144 C3146 1.363 . S
C3144 H3160 0.931 . S
C3145 C3144 1.370 . S
C3145 C3149 1.408 . S
C3146 C3144 1.363 . S
C3146 C3147 1.370 . S
C3146 C3150 1.524 . S
C3147 C3139 1.503 . S
C3147 C3146 1.370 . S
C3147 C3148 1.403 . S
C3148 C3147 1.403 . S
C3148 C3149 1.404 . S
C3148 C3151 1.539 . S
C3149 C3145 1.408 . S
C3149 C3148 1.404 . S
C3149 H3161 0.930 . S
C3150 C3146 1.524 . S
C3150 H3162 0.956 . S
C3150 H3163 0.961 . S
C3150 H3164 0.961 . S
C3151 C3148 1.539 . S
C3151 H3165 0.958 . S
C3151 H3166 0.961 . S
C3151 H3167 0.960 . S
H3152 C3136 0.931 . S
H3153 C3141 0.929 . S
H3154 C3142 0.960 . S
H3155 C3142 0.962 . S
H3156 C3142 0.960 . S
H3157 C3143 0.961 . S
H3158 C3143 0.961 . S
H3159 C3143 0.961 . S
H3160 C3144 0.931 . S
H3161 C3149 0.930 . S
H3162 C3150 0.956 . S
H3163 C3150 0.961 . S
H3164 C3150 0.961 . S
H3165 C3151 0.958 . S
H3166 C3151 0.961 . S
H3167 C3151 0.960 . S
C3168 C3169 1.391 . S
C3168 C3170 1.394 . S
C3168 H3184 0.931 . S
C3169 C3168 1.391 . S
C3169 C3173 1.376 . S
C3170 C3168 1.394 . S
C3170 C3171 1.369 . S
C3170 C3174 1.531 . S
C3171 C3170 1.369 . S
C3171 C3172 1.410 . S
C3171 C3179 1.503 . S
C3172 C3171 1.410 . S
C3172 C3173 1.392 . S
C3172 C3175 1.511 . S
C3173 C3169 1.376 . S
C3173 C3172 1.392 . S
C3173 H3185 0.929 . S
C3174 C3170 1.531 . S
C3174 H3186 0.960 . S
C3174 H3187 0.962 . S
C3174 H3188 0.960 . S
C3175 C3172 1.511 . S
C3175 H3189 0.961 . S
C3175 H3190 0.961 . S
C3175 H3191 0.961 . S
C3176 C3177 1.370 . S
C3176 C3178 1.363 . S
C3176 H3192 0.931 . S
C3177 C3176 1.370 . S
C3177 C3181 1.408 . S
C3178 C3176 1.363 . S
C3178 C3179 1.370 . S
C3178 C3182 1.524 . S
C3179 C3171 1.503 . S
C3179 C3178 1.370 . S
C3179 C3180 1.403 . S
C3180 C3179 1.403 . S
C3180 C3181 1.404 . S
C3180 C3183 1.539 . S
C3181 C3177 1.408 . S
C3181 C3180 1.404 . S
C3181 H3193 0.930 . S
C3182 C3178 1.524 . S
C3182 H3194 0.956 . S
C3182 H3195 0.961 . S
C3182 H3196 0.961 . S
C3183 C3180 1.539 . S
C3183 H3197 0.958 . S
C3183 H3198 0.961 . S
C3183 H3199 0.960 . S
H3184 C3168 0.931 . S
H3185 C3173 0.929 . S
H3186 C3174 0.960 . S
H3187 C3174 0.962 . S
H3188 C3174 0.960 . S
H3189 C3175 0.961 . S
H3190 C3175 0.961 . S
H3191 C3175 0.961 . S
H3192 C3176 0.931 . S
H3193 C3181 0.930 . S
H3194 C3182 0.956 . S
H3195 C3182 0.961 . S
H3196 C3182 0.961 . S
H3197 C3183 0.958 . S
H3198 C3183 0.961 . S
H3199 C3183 0.960 . S
C3200 C3201 1.391 . S
C3200 C3202 1.394 . S
C3200 H3216 0.931 . S
C3201 C3200 1.391 . S
C3201 C3205 1.376 1_455 S
C3202 C3200 1.394 . S
C3202 C3203 1.369 . S
C3202 C3206 1.531 . S
C3203 C3202 1.369 . S
C3203 C3204 1.410 1_455 S
C3203 C3211 1.503 1_455 S
C3204 C3203 1.410 1_655 S
C3204 C3205 1.392 . S
C3204 C3207 1.511 . S
C3205 C3201 1.376 1_655 S
C3205 C3204 1.392 . S
C3205 H3217 0.929 . S
C3206 C3202 1.531 . S
C3206 H3218 0.960 . S
C3206 H3219 0.962 . S
C3206 H3220 0.960 . S
C3207 C3204 1.511 . S
C3207 H3221 0.961 . S
C3207 H3222 0.961 . S
C3207 H3223 0.961 . S
C3208 C3209 1.370 . S
C3208 C3210 1.363 . S
C3208 H3224 0.931 . S
C3209 C3208 1.370 . S
C3209 C3213 1.408 1_655 S
C3210 C3208 1.363 . S
C3210 C3211 1.370 . S
C3210 C3214 1.524 . S
C3211 C3203 1.503 1_655 S
C3211 C3210 1.370 . S
C3211 C3212 1.403 1_655 S
C3212 C3211 1.403 1_455 S
C3212 C3213 1.404 . S
C3212 C3215 1.539 . S
C3213 C3209 1.408 1_455 S
C3213 C3212 1.404 . S
C3213 H3225 0.930 . S
C3214 C3210 1.524 . S
C3214 H3226 0.956 . S
C3214 H3227 0.961 . S
C3214 H3228 0.961 . S
C3215 C3212 1.539 . S
C3215 H3229 0.958 . S
C3215 H3230 0.961 . S
C3215 H3231 0.960 . S
H3216 C3200 0.931 . S
H3217 C3205 0.929 . S
H3218 C3206 0.960 . S
H3219 C3206 0.962 . S
H3220 C3206 0.960 . S
H3221 C3207 0.961 . S
H3222 C3207 0.961 . S
H3223 C3207 0.961 . S
H3224 C3208 0.931 . S
H3225 C3213 0.930 . S
H3226 C3214 0.956 . S
H3227 C3214 0.961 . S
H3228 C3214 0.961 . S
H3229 C3215 0.958 . S
H3230 C3215 0.961 . S
H3231 C3215 0.960 . S
C3232 C3233 1.391 . S
C3232 C3234 1.394 . S
C3232 H3248 0.931 . S
C3233 C3232 1.391 . S
C3233 C3237 1.376 . S
C3234 C3232 1.394 . S
C3234 C3235 1.369 . S
C3234 C3238 1.531 . S
C3235 C3234 1.369 . S
C3235 C3236 1.410 . S
C3235 C3243 1.503 . S
C3236 C3235 1.410 . S
C3236 C3237 1.392 . S
C3236 C3239 1.511 . S
C3237 C3233 1.376 . S
C3237 C3236 1.392 . S
C3237 H3249 0.929 . S
C3238 C3234 1.531 . S
C3238 H3250 0.960 . S
C3238 H3251 0.962 . S
C3238 H3252 0.960 . S
C3239 C3236 1.511 . S
C3239 H3253 0.961 . S
C3239 H3254 0.961 . S
C3239 H3255 0.961 . S
C3240 C3241 1.370 . S
C3240 C3242 1.363 . S
C3240 H3256 0.931 . S
C3241 C3240 1.370 . S
C3241 C3245 1.408 . S
C3242 C3240 1.363 . S
C3242 C3243 1.370 . S
C3242 C3246 1.524 . S
C3243 C3235 1.503 . S
C3243 C3242 1.370 . S
C3243 C3244 1.403 . S
C3244 C3243 1.403 . S
C3244 C3245 1.404 . S
C3244 C3247 1.539 . S
C3245 C3241 1.408 . S
C3245 C3244 1.404 . S
C3245 H3257 0.930 . S
C3246 C3242 1.524 . S
C3246 H3258 0.956 . S
C3246 H3259 0.961 . S
C3246 H3260 0.961 . S
C3247 C3244 1.539 . S
C3247 H3261 0.958 . S
C3247 H3262 0.961 . S
C3247 H3263 0.960 . S
H3248 C3232 0.931 . S
H3249 C3237 0.929 . S
H3250 C3238 0.960 . S
H3251 C3238 0.962 . S
H3252 C3238 0.960 . S
H3253 C3239 0.961 . S
H3254 C3239 0.961 . S
H3255 C3239 0.961 . S
H3256 C3240 0.931 . S
H3257 C3245 0.930 . S
H3258 C3246 0.956 . S
H3259 C3246 0.961 . S
H3260 C3246 0.961 . S
H3261 C3247 0.958 . S
H3262 C3247 0.961 . S
H3263 C3247 0.960 . S
C3264 C3265 1.391 . S
C3264 C3266 1.394 . S
C3264 H3280 0.931 . S
C3265 C3264 1.391 . S
C3265 C3269 1.376 . S
C3266 C3264 1.394 . S
C3266 C3267 1.369 . S
C3266 C3270 1.531 . S
C3267 C3266 1.369 . S
C3267 C3268 1.410 . S
C3267 C3275 1.503 . S
C3268 C3267 1.410 . S
C3268 C3269 1.392 . S
C3268 C3271 1.511 . S
C3269 C3265 1.376 . S
C3269 C3268 1.392 . S
C3269 H3281 0.929 . S
C3270 C3266 1.531 . S
C3270 H3282 0.960 . S
C3270 H3283 0.962 . S
C3270 H3284 0.960 . S
C3271 C3268 1.511 . S
C3271 H3285 0.961 . S
C3271 H3286 0.961 . S
C3271 H3287 0.961 . S
C3272 C3273 1.370 . S
C3272 C3274 1.363 . S
C3272 H3288 0.931 . S
C3273 C3272 1.370 . S
C3273 C3277 1.408 . S
C3274 C3272 1.363 . S
C3274 C3275 1.370 . S
C3274 C3278 1.524 . S
C3275 C3267 1.503 . S
C3275 C3274 1.370 . S
C3275 C3276 1.403 . S
C3276 C3275 1.403 . S
C3276 C3277 1.404 . S
C3276 C3279 1.539 . S
C3277 C3273 1.408 . S
C3277 C3276 1.404 . S
C3277 H3289 0.930 . S
C3278 C3274 1.524 . S
C3278 H3290 0.956 . S
C3278 H3291 0.961 . S
C3278 H3292 0.961 . S
C3279 C3276 1.539 . S
C3279 H3293 0.958 . S
C3279 H3294 0.961 . S
C3279 H3295 0.960 . S
H3280 C3264 0.931 . S
H3281 C3269 0.929 . S
H3282 C3270 0.960 . S
H3283 C3270 0.962 . S
H3284 C3270 0.960 . S
H3285 C3271 0.961 . S
H3286 C3271 0.961 . S
H3287 C3271 0.961 . S
H3288 C3272 0.931 . S
H3289 C3277 0.930 . S
H3290 C3278 0.956 . S
H3291 C3278 0.961 . S
H3292 C3278 0.961 . S
H3293 C3279 0.958 . S
H3294 C3279 0.961 . S
H3295 C3279 0.960 . S
C3296 C3297 1.391 . S
C3296 C3298 1.394 . S
C3296 H3312 0.931 . S
C3297 C3296 1.391 . S
C3297 C3301 1.376 . S
C3298 C3296 1.394 . S
C3298 C3299 1.369 . S
C3298 C3302 1.531 . S
C3299 C3298 1.369 . S
C3299 C3300 1.410 . S
C3299 C3307 1.503 . S
C3300 C3299 1.410 . S
C3300 C3301 1.392 . S
C3300 C3303 1.511 . S
C3301 C3297 1.376 . S
C3301 C3300 1.392 . S
C3301 H3313 0.929 . S
C3302 C3298 1.531 . S
C3302 H3314 0.960 . S
C3302 H3315 0.962 . S
C3302 H3316 0.960 . S
C3303 C3300 1.511 . S
C3303 H3317 0.961 . S
C3303 H3318 0.961 . S
C3303 H3319 0.961 . S
C3304 C3305 1.370 . S
C3304 C3306 1.363 . S
C3304 H3320 0.931 . S
C3305 C3304 1.370 . S
C3305 C3309 1.408 . S
C3306 C3304 1.363 . S
C3306 C3307 1.370 . S
C3306 C3310 1.524 . S
C3307 C3299 1.503 . S
C3307 C3306 1.370 . S
C3307 C3308 1.403 . S
C3308 C3307 1.403 . S
C3308 C3309 1.404 . S
C3308 C3311 1.539 . S
C3309 C3305 1.408 . S
C3309 C3308 1.404 . S
C3309 H3321 0.930 . S
C3310 C3306 1.524 . S
C3310 H3322 0.956 . S
C3310 H3323 0.961 . S
C3310 H3324 0.961 . S
C3311 C3308 1.539 . S
C3311 H3325 0.958 . S
C3311 H3326 0.961 . S
C3311 H3327 0.960 . S
H3312 C3296 0.931 . S
H3313 C3301 0.929 . S
H3314 C3302 0.960 . S
H3315 C3302 0.962 . S
H3316 C3302 0.960 . S
H3317 C3303 0.961 . S
H3318 C3303 0.961 . S
H3319 C3303 0.961 . S
H3320 C3304 0.931 . S
H3321 C3309 0.930 . S
H3322 C3310 0.956 . S
H3323 C3310 0.961 . S
H3324 C3310 0.961 . S
H3325 C3311 0.958 . S
H3326 C3311 0.961 . S
H3327 C3311 0.960 . S
C3328 C3329 1.391 . S
C3328 C3330 1.394 . S
C3328 H3344 0.931 . S
C3329 C3328 1.391 . S
C3329 C3333 1.376 . S
C3330 C3328 1.394 . S
C3330 C3331 1.369 . S
C3330 C3334 1.531 . S
C3331 C3330 1.369 . S
C3331 C3332 1.410 . S
C3331 C3339 1.503 . S
C3332 C3331 1.410 . S
C3332 C3333 1.392 . S
C3332 C3335 1.511 . S
C3333 C3329 1.376 . S
C3333 C3332 1.392 . S
C3333 H3345 0.929 . S
C3334 C3330 1.531 . S
C3334 H3346 0.960 . S
C3334 H3347 0.962 . S
C3334 H3348 0.960 . S
C3335 C3332 1.511 . S
C3335 H3349 0.961 . S
C3335 H3350 0.961 . S
C3335 H3351 0.961 . S
C3336 C3337 1.370 . S
C3336 C3338 1.363 . S
C3336 H3352 0.931 . S
C3337 C3336 1.370 . S
C3337 C3341 1.408 . S
C3338 C3336 1.363 . S
C3338 C3339 1.370 . S
C3338 C3342 1.524 . S
C3339 C3331 1.503 . S
C3339 C3338 1.370 . S
C3339 C3340 1.403 . S
C3340 C3339 1.403 . S
C3340 C3341 1.404 . S
C3340 C3343 1.539 . S
C3341 C3337 1.408 . S
C3341 C3340 1.404 . S
C3341 H3353 0.930 . S
C3342 C3338 1.524 . S
C3342 H3354 0.956 . S
C3342 H3355 0.961 . S
C3342 H3356 0.961 . S
C3343 C3340 1.539 . S
C3343 H3357 0.958 . S
C3343 H3358 0.961 . S
C3343 H3359 0.960 . S
H3344 C3328 0.931 . S
H3345 C3333 0.929 . S
H3346 C3334 0.960 . S
H3347 C3334 0.962 . S
H3348 C3334 0.960 . S
H3349 C3335 0.961 . S
H3350 C3335 0.961 . S
H3351 C3335 0.961 . S
H3352 C3336 0.931 . S
H3353 C3341 0.930 . S
H3354 C3342 0.956 . S
H3355 C3342 0.961 . S
H3356 C3342 0.961 . S
H3357 C3343 0.958 . S
H3358 C3343 0.961 . S
H3359 C3343 0.960 . S
C3360 C3361 1.391 . S
C3360 C3362 1.394 . S
C3360 H3376 0.931 . S
C3361 C3360 1.391 . S
C3361 C3365 1.376 . S
C3362 C3360 1.394 . S
C3362 C3363 1.369 . S
C3362 C3366 1.531 . S
C3363 C3362 1.369 . S
C3363 C3364 1.410 . S
C3363 C3371 1.503 . S
C3364 C3363 1.410 . S
C3364 C3365 1.392 . S
C3364 C3367 1.511 . S
C3365 C3361 1.376 . S
C3365 C3364 1.392 . S
C3365 H3377 0.929 . S
C3366 C3362 1.531 . S
C3366 H3378 0.960 . S
C3366 H3379 0.962 . S
C3366 H3380 0.960 . S
C3367 C3364 1.511 . S
C3367 H3381 0.961 . S
C3367 H3382 0.961 . S
C3367 H3383 0.961 . S
C3368 C3369 1.370 . S
C3368 C3370 1.363 . S
C3368 H3384 0.931 . S
C3369 C3368 1.370 . S
C3369 C3373 1.408 . S
C3370 C3368 1.363 . S
C3370 C3371 1.370 . S
C3370 C3374 1.524 . S
C3371 C3363 1.503 . S
C3371 C3370 1.370 . S
C3371 C3372 1.403 . S
C3372 C3371 1.403 . S
C3372 C3373 1.404 . S
C3372 C3375 1.539 . S
C3373 C3369 1.408 . S
C3373 C3372 1.404 . S
C3373 H3385 0.930 . S
C3374 C3370 1.524 . S
C3374 H3386 0.956 . S
C3374 H3387 0.961 . S
C3374 H3388 0.961 . S
C3375 C3372 1.539 . S
C3375 H3389 0.958 . S
C3375 H3390 0.961 . S
C3375 H3391 0.960 . S
H3376 C3360 0.931 . S
H3377 C3365 0.929 . S
H3378 C3366 0.960 . S
H3379 C3366 0.962 . S
H3380 C3366 0.960 . S
H3381 C3367 0.961 . S
H3382 C3367 0.961 . S
H3383 C3367 0.961 . S
H3384 C3368 0.931 . S
H3385 C3373 0.930 . S
H3386 C3374 0.956 . S
H3387 C3374 0.961 . S
H3388 C3374 0.961 . S
H3389 C3375 0.958 . S
H3390 C3375 0.961 . S
H3391 C3375 0.960 . S
C3392 C3393 1.391 . S
C3392 C3394 1.394 . S
C3392 H3408 0.931 . S
C3393 C3392 1.391 . S
C3393 C3397 1.376 . S
C3394 C3392 1.394 . S
C3394 C3395 1.369 . S
C3394 C3398 1.531 . S
C3395 C3394 1.369 . S
C3395 C3396 1.410 . S
C3395 C3403 1.503 . S
C3396 C3395 1.410 . S
C3396 C3397 1.392 . S
C3396 C3399 1.511 . S
C3397 C3393 1.376 . S
C3397 C3396 1.392 . S
C3397 H3409 0.929 . S
C3398 C3394 1.531 . S
C3398 H3410 0.960 . S
C3398 H3411 0.962 . S
C3398 H3412 0.960 . S
C3399 C3396 1.511 . S
C3399 H3413 0.961 . S
C3399 H3414 0.961 . S
C3399 H3415 0.961 . S
C3400 C3401 1.370 . S
C3400 C3402 1.363 . S
C3400 H3416 0.931 . S
C3401 C3400 1.370 . S
C3401 C3405 1.408 . S
C3402 C3400 1.363 . S
C3402 C3403 1.370 . S
C3402 C3406 1.524 . S
C3403 C3395 1.503 . S
C3403 C3402 1.370 . S
C3403 C3404 1.403 . S
C3404 C3403 1.403 . S
C3404 C3405 1.404 . S
C3404 C3407 1.539 . S
C3405 C3401 1.408 . S
C3405 C3404 1.404 . S
C3405 H3417 0.930 . S
C3406 C3402 1.524 . S
C3406 H3418 0.956 . S
C3406 H3419 0.961 . S
C3406 H3420 0.961 . S
C3407 C3404 1.539 . S
C3407 H3421 0.958 . S
C3407 H3422 0.961 . S
C3407 H3423 0.960 . S
H3408 C3392 0.931 . S
H3409 C3397 0.929 . S
H3410 C3398 0.960 . S
H3411 C3398 0.962 . S
H3412 C3398 0.960 . S
H3413 C3399 0.961 . S
H3414 C3399 0.961 . S
H3415 C3399 0.961 . S
H3416 C3400 0.931 . S
H3417 C3405 0.930 . S
H3418 C3406 0.956 . S
H3419 C3406 0.961 . S
H3420 C3406 0.961 . S
H3421 C3407 0.958 . S
H3422 C3407 0.961 . S
H3423 C3407 0.960 . S
C3424 C3425 1.391 . S
C3424 C3426 1.394 . S
C3424 H3440 0.931 . S
C3425 C3424 1.391 . S
C3425 C3429 1.376 . S
C3426 C3424 1.394 . S
C3426 C3427 1.369 . S
C3426 C3430 1.531 . S
C3427 C3426 1.369 . S
C3427 C3428 1.410 . S
C3427 C3435 1.503 . S
C3428 C3427 1.410 . S
C3428 C3429 1.392 . S
C3428 C3431 1.511 . S
C3429 C3425 1.376 . S
C3429 C3428 1.392 . S
C3429 H3441 0.929 . S
C3430 C3426 1.531 . S
C3430 H3442 0.960 . S
C3430 H3443 0.962 . S
C3430 H3444 0.960 . S
C3431 C3428 1.511 . S
C3431 H3445 0.961 . S
C3431 H3446 0.961 . S
C3431 H3447 0.961 . S
C3432 C3433 1.370 . S
C3432 C3434 1.363 . S
C3432 H3448 0.931 . S
C3433 C3432 1.370 . S
C3433 C3437 1.408 . S
C3434 C3432 1.363 . S
C3434 C3435 1.370 . S
C3434 C3438 1.524 . S
C3435 C3427 1.503 . S
C3435 C3434 1.370 . S
C3435 C3436 1.403 . S
C3436 C3435 1.403 . S
C3436 C3437 1.404 . S
C3436 C3439 1.539 . S
C3437 C3433 1.408 . S
C3437 C3436 1.404 . S
C3437 H3449 0.930 . S
C3438 C3434 1.524 . S
C3438 H3450 0.956 . S
C3438 H3451 0.961 . S
C3438 H3452 0.961 . S
C3439 C3436 1.539 . S
C3439 H3453 0.958 . S
C3439 H3454 0.961 . S
C3439 H3455 0.960 . S
H3440 C3424 0.931 . S
H3441 C3429 0.929 . S
H3442 C3430 0.960 . S
H3443 C3430 0.962 . S
H3444 C3430 0.960 . S
H3445 C3431 0.961 . S
H3446 C3431 0.961 . S
H3447 C3431 0.961 . S
H3448 C3432 0.931 . S
H3449 C3437 0.930 . S
H3450 C3438 0.956 . S
H3451 C3438 0.961 . S
H3452 C3438 0.961 . S
H3453 C3439 0.958 . S
H3454 C3439 0.961 . S
H3455 C3439 0.960 . S
C3456 C3457 1.391 . S
C3456 C3458 1.394 . S
C3456 H3472 0.931 . S
C3457 C3456 1.391 . S
C3457 C3461 1.376 . S
C3458 C3456 1.394 . S
C3458 C3459 1.369 . S
C3458 C3462 1.531 . S
C3459 C3458 1.369 . S
C3459 C3460 1.410 . S
C3459 C3467 1.503 . S
C3460 C3459 1.410 . S
C3460 C3461 1.392 . S
C3460 C3463 1.511 . S
C3461 C3457 1.376 . S
C3461 C3460 1.392 . S
C3461 H3473 0.929 . S
C3462 C3458 1.531 . S
C3462 H3474 0.960 . S
C3462 H3475 0.962 . S
C3462 H3476 0.960 . S
C3463 C3460 1.511 . S
C3463 H3477 0.961 . S
C3463 H3478 0.961 . S
C3463 H3479 0.961 . S
C3464 C3465 1.370 . S
C3464 C3466 1.363 . S
C3464 H3480 0.931 . S
C3465 C3464 1.370 . S
C3465 C3469 1.408 . S
C3466 C3464 1.363 . S
C3466 C3467 1.370 . S
C3466 C3470 1.524 . S
C3467 C3459 1.503 . S
C3467 C3466 1.370 . S
C3467 C3468 1.403 . S
C3468 C3467 1.403 . S
C3468 C3469 1.404 . S
C3468 C3471 1.539 . S
C3469 C3465 1.408 . S
C3469 C3468 1.404 . S
C3469 H3481 0.930 . S
C3470 C3466 1.524 . S
C3470 H3482 0.956 . S
C3470 H3483 0.961 . S
C3470 H3484 0.961 . S
C3471 C3468 1.539 . S
C3471 H3485 0.958 . S
C3471 H3486 0.961 . S
C3471 H3487 0.960 . S
H3472 C3456 0.931 . S
H3473 C3461 0.929 . S
H3474 C3462 0.960 . S
H3475 C3462 0.962 . S
H3476 C3462 0.960 . S
H3477 C3463 0.961 . S
H3478 C3463 0.961 . S
H3479 C3463 0.961 . S
H3480 C3464 0.931 . S
H3481 C3469 0.930 . S
H3482 C3470 0.956 . S
H3483 C3470 0.961 . S
H3484 C3470 0.961 . S
H3485 C3471 0.958 . S
H3486 C3471 0.961 . S
H3487 C3471 0.960 . S
C3488 C3489 1.391 . S
C3488 C3490 1.394 . S
C3488 H3504 0.931 . S
C3489 C3488 1.391 . S
C3489 C3493 1.376 . S
C3490 C3488 1.394 . S
C3490 C3491 1.369 . S
C3490 C3494 1.531 . S
C3491 C3490 1.369 . S
C3491 C3492 1.410 . S
C3491 C3499 1.503 . S
C3492 C3491 1.410 . S
C3492 C3493 1.392 . S
C3492 C3495 1.511 . S
C3493 C3489 1.376 . S
C3493 C3492 1.392 . S
C3493 H3505 0.929 . S
C3494 C3490 1.531 . S
C3494 H3506 0.960 . S
C3494 H3507 0.962 . S
C3494 H3508 0.960 . S
C3495 C3492 1.511 . S
C3495 H3509 0.961 . S
C3495 H3510 0.961 . S
C3495 H3511 0.961 . S
C3496 C3497 1.370 . S
C3496 C3498 1.363 . S
C3496 H3512 0.931 . S
C3497 C3496 1.370 . S
C3497 C3501 1.408 . S
C3498 C3496 1.363 . S
C3498 C3499 1.370 . S
C3498 C3502 1.524 . S
C3499 C3491 1.503 . S
C3499 C3498 1.370 . S
C3499 C3500 1.403 . S
C3500 C3499 1.403 . S
C3500 C3501 1.404 . S
C3500 C3503 1.539 . S
C3501 C3497 1.408 . S
C3501 C3500 1.404 . S
C3501 H3513 0.930 . S
C3502 C3498 1.524 . S
C3502 H3514 0.956 . S
C3502 H3515 0.961 . S
C3502 H3516 0.961 . S
C3503 C3500 1.539 . S
C3503 H3517 0.958 . S
C3503 H3518 0.961 . S
C3503 H3519 0.960 . S
H3504 C3488 0.931 . S
H3505 C3493 0.929 . S
H3506 C3494 0.960 . S
H3507 C3494 0.962 . S
H3508 C3494 0.960 . S
H3509 C3495 0.961 . S
H3510 C3495 0.961 . S
H3511 C3495 0.961 . S
H3512 C3496 0.931 . S
H3513 C3501 0.930 . S
H3514 C3502 0.956 . S
H3515 C3502 0.961 . S
H3516 C3502 0.961 . S
H3517 C3503 0.958 . S
H3518 C3503 0.961 . S
H3519 C3503 0.960 . S
C3520 C3521 1.391 . S
C3520 C3522 1.394 . S
C3520 H3536 0.931 . S
C3521 C3520 1.391 . S
C3521 C3525 1.376 . S
C3522 C3520 1.394 . S
C3522 C3523 1.369 . S
C3522 C3526 1.531 . S
C3523 C3522 1.369 . S
C3523 C3524 1.410 . S
C3523 C3531 1.503 . S
C3524 C3523 1.410 . S
C3524 C3525 1.392 . S
C3524 C3527 1.511 . S
C3525 C3521 1.376 . S
C3525 C3524 1.392 . S
C3525 H3537 0.929 . S
C3526 C3522 1.531 . S
C3526 H3538 0.960 . S
C3526 H3539 0.962 . S
C3526 H3540 0.960 . S
C3527 C3524 1.511 . S
C3527 H3541 0.961 . S
C3527 H3542 0.961 . S
C3527 H3543 0.961 . S
C3528 C3529 1.370 . S
C3528 C3530 1.363 . S
C3528 H3544 0.931 . S
C3529 C3528 1.370 . S
C3529 C3533 1.408 . S
C3530 C3528 1.363 . S
C3530 C3531 1.370 . S
C3530 C3534 1.524 . S
C3531 C3523 1.503 . S
C3531 C3530 1.370 . S
C3531 C3532 1.403 . S
C3532 C3531 1.403 . S
C3532 C3533 1.404 . S
C3532 C3535 1.539 . S
C3533 C3529 1.408 . S
C3533 C3532 1.404 . S
C3533 H3545 0.930 . S
C3534 C3530 1.524 . S
C3534 H3546 0.956 . S
C3534 H3547 0.961 . S
C3534 H3548 0.961 . S
C3535 C3532 1.539 . S
C3535 H3549 0.958 . S
C3535 H3550 0.961 . S
C3535 H3551 0.960 . S
H3536 C3520 0.931 . S
H3537 C3525 0.929 . S
H3538 C3526 0.960 . S
H3539 C3526 0.962 . S
H3540 C3526 0.960 . S
H3541 C3527 0.961 . S
H3542 C3527 0.961 . S
H3543 C3527 0.961 . S
H3544 C3528 0.931 . S
H3545 C3533 0.930 . S
H3546 C3534 0.956 . S
H3547 C3534 0.961 . S
H3548 C3534 0.961 . S
H3549 C3535 0.958 . S
H3550 C3535 0.961 . S
H3551 C3535 0.960 . S
C3552 C3553 1.391 . S
C3552 C3554 1.394 . S
C3552 H3568 0.931 . S
C3553 C3552 1.391 . S
C3553 C3557 1.376 . S
C3554 C3552 1.394 . S
C3554 C3555 1.369 . S
C3554 C3558 1.531 . S
C3555 C3554 1.369 . S
C3555 C3556 1.410 . S
C3555 C3563 1.503 . S
C3556 C3555 1.410 . S
C3556 C3557 1.392 . S
C3556 C3559 1.511 . S
C3557 C3553 1.376 . S
C3557 C3556 1.392 . S
C3557 H3569 0.929 . S
C3558 C3554 1.531 . S
C3558 H3570 0.960 . S
C3558 H3571 0.962 . S
C3558 H3572 0.960 . S
C3559 C3556 1.511 . S
C3559 H3573 0.961 . S
C3559 H3574 0.961 . S
C3559 H3575 0.961 . S
C3560 C3561 1.370 . S
C3560 C3562 1.363 . S
C3560 H3576 0.931 . S
C3561 C3560 1.370 . S
C3561 C3565 1.408 . S
C3562 C3560 1.363 . S
C3562 C3563 1.370 . S
C3562 C3566 1.524 . S
C3563 C3555 1.503 . S
C3563 C3562 1.370 . S
C3563 C3564 1.403 . S
C3564 C3563 1.403 . S
C3564 C3565 1.404 . S
C3564 C3567 1.539 . S
C3565 C3561 1.408 . S
C3565 C3564 1.404 . S
C3565 H3577 0.930 . S
C3566 C3562 1.524 . S
C3566 H3578 0.956 . S
C3566 H3579 0.961 . S
C3566 H3580 0.961 . S
C3567 C3564 1.539 . S
C3567 H3581 0.958 . S
C3567 H3582 0.961 . S
C3567 H3583 0.960 . S
H3568 C3552 0.931 . S
H3569 C3557 0.929 . S
H3570 C3558 0.960 . S
H3571 C3558 0.962 . S
H3572 C3558 0.960 . S
H3573 C3559 0.961 . S
H3574 C3559 0.961 . S
H3575 C3559 0.961 . S
H3576 C3560 0.931 . S
H3577 C3565 0.930 . S
H3578 C3566 0.956 . S
H3579 C3566 0.961 . S
H3580 C3566 0.961 . S
H3581 C3567 0.958 . S
H3582 C3567 0.961 . S
H3583 C3567 0.960 . S
C3584 C3585 1.391 . S
C3584 C3586 1.394 . S
C3584 H3600 0.931 . S
C3585 C3584 1.391 . S
C3585 C3589 1.376 . S
C3586 C3584 1.394 . S
C3586 C3587 1.369 . S
C3586 C3590 1.531 . S
C3587 C3586 1.369 . S
C3587 C3588 1.410 . S
C3587 C3595 1.503 . S
C3588 C3587 1.410 . S
C3588 C3589 1.392 . S
C3588 C3591 1.511 . S
C3589 C3585 1.376 . S
C3589 C3588 1.392 . S
C3589 H3601 0.929 . S
C3590 C3586 1.531 . S
C3590 H3602 0.960 . S
C3590 H3603 0.962 . S
C3590 H3604 0.960 . S
C3591 C3588 1.511 . S
C3591 H3605 0.961 . S
C3591 H3606 0.961 . S
C3591 H3607 0.961 . S
C3592 C3593 1.370 . S
C3592 C3594 1.363 . S
C3592 H3608 0.931 . S
C3593 C3592 1.370 . S
C3593 C3597 1.408 . S
C3594 C3592 1.363 . S
C3594 C3595 1.370 . S
C3594 C3598 1.524 . S
C3595 C3587 1.503 . S
C3595 C3594 1.370 . S
C3595 C3596 1.403 . S
C3596 C3595 1.403 . S
C3596 C3597 1.404 . S
C3596 C3599 1.539 . S
C3597 C3593 1.408 . S
C3597 C3596 1.404 . S
C3597 H3609 0.930 . S
C3598 C3594 1.524 . S
C3598 H3610 0.956 . S
C3598 H3611 0.961 . S
C3598 H3612 0.961 . S
C3599 C3596 1.539 . S
C3599 H3613 0.958 . S
C3599 H3614 0.961 . S
C3599 H3615 0.960 . S
H3600 C3584 0.931 . S
H3601 C3589 0.929 . S
H3602 C3590 0.960 . S
H3603 C3590 0.962 . S
H3604 C3590 0.960 . S
H3605 C3591 0.961 . S
H3606 C3591 0.961 . S
H3607 C3591 0.961 . S
H3608 C3592 0.931 . S
H3609 C3597 0.930 . S
H3610 C3598 0.956 . S
H3611 C3598 0.961 . S
H3612 C3598 0.961 . S
H3613 C3599 0.958 . S
H3614 C3599 0.961 . S
H3615 C3599 0.960 . S
C3616 C3617 1.391 . S
C3616 C3618 1.394 . S
C3616 H3632 0.931 . S
C3617 C3616 1.391 . S
C3617 C3621 1.376 1_554 S
C3618 C3616 1.394 . S
C3618 C3619 1.369 1_554 S
C3618 C3622 1.531 . S
C3619 C3618 1.369 1_556 S
C3619 C3620 1.410 . S
C3619 C3627 1.503 . S
C3620 C3619 1.410 . S
C3620 C3621 1.392 . S
C3620 C3623 1.511 . S
C3621 C3617 1.376 1_556 S
C3621 C3620 1.392 . S
C3621 H3633 0.929 . S
C3622 C3618 1.531 . S
C3622 H3634 0.960 . S
C3622 H3635 0.962 . S
C3622 H3636 0.960 . S
C3623 C3620 1.511 . S
C3623 H3637 0.961 . S
C3623 H3638 0.961 . S
C3623 H3639 0.961 . S
C3624 C3625 1.370 . S
C3624 C3626 1.367 . S
C3624 H3640 0.931 1_556 S
C3625 C3624 1.370 . S
C3625 C3629 1.408 . S
C3626 C3624 1.367 . S
C3626 C3627 1.381 . S
C3626 C3630 1.511 1_556 S
C3627 C3619 1.503 . S
C3627 C3626 1.381 . S
C3627 C3628 1.403 . S
C3628 C3627 1.403 . S
C3628 C3629 1.404 . S
C3628 C3631 1.539 . S
C3629 C3625 1.408 . S
C3629 C3628 1.404 . S
C3629 H3641 0.906 1_565 S
C3630 C3626 1.511 1_554 S
C3630 H3642 0.956 . S
C3630 H3643 0.935 1_554 S
C3630 H3644 0.961 . S
C3631 C3628 1.539 . S
C3631 H3645 0.958 . S
C3631 H3646 0.961 . S
C3631 H3647 0.960 . S
H3632 C3616 0.931 . S
H3633 C3621 0.929 . S
H3634 C3622 0.960 . S
H3635 C3622 0.962 . S
H3636 C3622 0.960 . S
H3637 C3623 0.961 . S
H3638 C3623 0.961 . S
H3639 C3623 0.961 . S
H3640 C3624 0.931 1_554 S
H3641 C3629 0.906 1_545 S
H3642 C3630 0.956 . S
H3643 C3630 0.935 1_556 S
H3644 C3630 0.961 . S
H3645 C3631 0.958 . S
H3646 C3631 0.961 . S
H3647 C3631 0.960 . S
C3648 C3649 1.391 . S
C3648 C3650 1.394 . S
C3648 H3664 0.931 . S
C3649 C3648 1.391 . S
C3649 C3653 1.376 . S
C3650 C3648 1.394 . S
C3650 C3651 1.369 . S
C3650 C3654 1.531 . S
C3651 C3650 1.369 . S
C3651 C3652 1.410 . S
C3651 C3659 1.503 . S
C3652 C3651 1.410 . S
C3652 C3653 1.392 . S
C3652 C3655 1.511 . S
C3653 C3649 1.376 . S
C3653 C3652 1.392 . S
C3653 H3665 0.929 . S
C3654 C3650 1.531 . S
C3654 H3666 0.960 . S
C3654 H3667 0.962 . S
C3654 H3668 0.960 . S
C3655 C3652 1.511 . S
C3655 H3669 0.961 . S
C3655 H3670 0.961 . S
C3655 H3671 0.961 . S
C3656 C3657 1.370 . S
C3656 C3658 1.363 . S
C3656 H3672 0.931 . S
C3657 C3656 1.370 . S
C3657 C3661 1.408 . S
C3658 C3656 1.363 . S
C3658 C3659 1.370 . S
C3658 C3662 1.524 . S
C3659 C3651 1.503 . S
C3659 C3658 1.370 . S
C3659 C3660 1.403 . S
C3660 C3659 1.403 . S
C3660 C3661 1.404 . S
C3660 C3663 1.539 . S
C3661 C3657 1.408 . S
C3661 C3660 1.404 . S
C3661 H3673 0.930 . S
C3662 C3658 1.524 . S
C3662 H3674 0.956 . S
C3662 H3675 0.961 . S
C3662 H3676 0.961 . S
C3663 C3660 1.539 . S
C3663 H3677 0.958 . S
C3663 H3678 0.961 . S
C3663 H3679 0.960 . S
H3664 C3648 0.931 . S
H3665 C3653 0.929 . S
H3666 C3654 0.960 . S
H3667 C3654 0.962 . S
H3668 C3654 0.960 . S
H3669 C3655 0.961 . S
H3670 C3655 0.961 . S
H3671 C3655 0.961 . S
H3672 C3656 0.931 . S
H3673 C3661 0.930 . S
H3674 C3662 0.956 . S
H3675 C3662 0.961 . S
H3676 C3662 0.961 . S
H3677 C3663 0.958 . S
H3678 C3663 0.961 . S
H3679 C3663 0.960 . S
C3680 C3681 1.391 1_556 S
C3680 C3682 1.394 1_556 S
C3680 H3696 0.931 . S
C3681 C3680 1.391 1_554 S
C3681 C3685 1.376 . S
C3682 C3680 1.394 1_554 S
C3682 C3683 1.369 . S
C3682 C3686 1.531 1_554 S
C3683 C3682 1.369 . S
C3683 C3684 1.410 . S
C3683 C3691 1.503 . S
C3684 C3683 1.410 . S
C3684 C3685 1.392 . S
C3684 C3687 1.511 . S
C3685 C3681 1.376 . S
C3685 C3684 1.392 . S
C3685 H3697 0.929 . S
C3686 C3682 1.531 1_556 S
C3686 H3698 0.960 . S
C3686 H3699 0.962 1_556 S
C3686 H3700 0.960 . S
C3687 C3684 1.511 . S
C3687 H3701 0.961 . S
C3687 H3702 0.961 . S
C3687 H3703 0.961 . S
C3688 C3689 1.370 . S
C3688 C3690 1.363 . S
C3688 H3704 0.931 . S
C3689 C3688 1.370 . S
C3689 C3693 1.408 . S
C3690 C3688 1.363 . S
C3690 C3691 1.370 . S
C3690 C3694 1.524 . S
C3691 C3683 1.503 . S
C3691 C3690 1.370 . S
C3691 C3692 1.403 1_554 S
C3692 C3691 1.403 1_556 S
C3692 C3693 1.404 1_556 S
C3692 C3695 1.539 . S
C3693 C3689 1.408 . S
C3693 C3692 1.404 1_554 S
C3693 H3705 0.930 1_554 S
C3694 C3690 1.524 . S
C3694 H3706 0.956 . S
C3694 H3707 0.961 . S
C3694 H3708 0.961 . S
C3695 C3692 1.539 . S
C3695 H3709 0.958 . S
C3695 H3710 0.961 . S
C3695 H3711 0.960 . S
H3696 C3680 0.931 . S
H3697 C3685 0.929 . S
H3698 C3686 0.960 . S
H3699 C3686 0.962 1_554 S
H3700 C3686 0.960 . S
H3701 C3687 0.961 . S
H3702 C3687 0.961 . S
H3703 C3687 0.961 . S
H3704 C3688 0.931 . S
H3705 C3693 0.930 1_556 S
H3706 C3694 0.956 . S
H3707 C3694 0.961 . S
H3708 C3694 0.961 . S
H3709 C3695 0.958 . S
H3710 C3695 0.961 . S
H3711 C3695 0.960 . S
C3712 C3713 1.391 . S
C3712 C3714 1.394 . S
C3712 H3728 0.931 . S
C3713 C3712 1.391 . S
C3713 C3717 1.376 . S
C3714 C3712 1.394 . S
C3714 C3715 1.369 . S
C3714 C3718 1.531 . S
C3715 C3714 1.369 . S
C3715 C3716 1.410 . S
C3715 C3723 1.503 . S
C3716 C3715 1.410 . S
C3716 C3717 1.392 . S
C3716 C3719 1.511 . S
C3717 C3713 1.376 . S
C3717 C3716 1.392 . S
C3717 H3729 0.929 . S
C3718 C3714 1.531 . S
C3718 H3730 0.960 . S
C3718 H3731 0.962 . S
C3718 H3732 0.960 . S
C3719 C3716 1.511 . S
C3719 H3733 0.961 . S
C3719 H3734 0.961 . S
C3719 H3735 0.961 . S
C3720 C3721 1.370 . S
C3720 C3722 1.363 . S
C3720 H3736 0.931 . S
C3721 C3720 1.370 . S
C3721 C3725 1.408 . S
C3722 C3720 1.363 . S
C3722 C3723 1.370 . S
C3722 C3726 1.524 . S
C3723 C3715 1.503 . S
C3723 C3722 1.370 . S
C3723 C3724 1.403 . S
C3724 C3723 1.403 . S
C3724 C3725 1.404 . S
C3724 C3727 1.539 . S
C3725 C3721 1.408 . S
C3725 C3724 1.404 . S
C3725 H3737 0.930 . S
C3726 C3722 1.524 . S
C3726 H3738 0.956 . S
C3726 H3739 0.961 . S
C3726 H3740 0.961 . S
C3727 C3724 1.539 . S
C3727 H3741 0.958 . S
C3727 H3742 0.961 . S
C3727 H3743 0.960 . S
H3728 C3712 0.931 . S
H3729 C3717 0.929 . S
H3730 C3718 0.960 . S
H3731 C3718 0.962 . S
H3732 C3718 0.960 . S
H3733 C3719 0.961 . S
H3734 C3719 0.961 . S
H3735 C3719 0.961 . S
H3736 C3720 0.931 . S
H3737 C3725 0.930 . S
H3738 C3726 0.956 . S
H3739 C3726 0.961 . S
H3740 C3726 0.961 . S
H3741 C3727 0.958 . S
H3742 C3727 0.961 . S
H3743 C3727 0.960 . S
C3744 C3745 1.391 . S
C3744 C3746 1.394 . S
C3744 H3760 0.931 . S
C3745 C3744 1.391 . S
C3745 C3749 1.376 . S
C3746 C3744 1.394 . S
C3746 C3747 1.369 . S
C3746 C3750 1.531 . S
C3747 C3746 1.369 . S
C3747 C3748 1.410 . S
C3747 C3755 1.503 . S
C3748 C3747 1.410 . S
C3748 C3749 1.392 . S
C3748 C3751 1.511 . S
C3749 C3745 1.376 . S
C3749 C3748 1.392 . S
C3749 H3761 0.929 . S
C3750 C3746 1.531 . S
C3750 H3762 0.960 . S
C3750 H3763 0.962 . S
C3750 H3764 0.960 . S
C3751 C3748 1.511 . S
C3751 H3765 0.961 . S
C3751 H3766 0.961 . S
C3751 H3767 0.961 . S
C3752 C3753 1.370 . S
C3752 C3754 1.363 . S
C3752 H3768 0.931 . S
C3753 C3752 1.370 . S
C3753 C3757 1.408 . S
C3754 C3752 1.363 . S
C3754 C3755 1.370 . S
C3754 C3758 1.524 . S
C3755 C3747 1.503 . S
C3755 C3754 1.370 . S
C3755 C3756 1.403 . S
C3756 C3755 1.403 . S
C3756 C3757 1.404 . S
C3756 C3759 1.539 . S
C3757 C3753 1.408 . S
C3757 C3756 1.404 . S
C3757 H3769 0.930 . S
C3758 C3754 1.524 . S
C3758 H3770 0.956 . S
C3758 H3771 0.961 . S
C3758 H3772 0.961 . S
C3759 C3756 1.539 . S
C3759 H3773 0.958 . S
C3759 H3774 0.961 . S
C3759 H3775 0.960 . S
H3760 C3744 0.931 . S
H3761 C3749 0.929 . S
H3762 C3750 0.960 . S
H3763 C3750 0.962 . S
H3764 C3750 0.960 . S
H3765 C3751 0.961 . S
H3766 C3751 0.961 . S
H3767 C3751 0.961 . S
H3768 C3752 0.931 . S
H3769 C3757 0.930 . S
H3770 C3758 0.956 . S
H3771 C3758 0.961 . S
H3772 C3758 0.961 . S
H3773 C3759 0.958 . S
H3774 C3759 0.961 . S
H3775 C3759 0.960 . S
C713 C352 1.167 . S
C705 C7 1.193 . S
C737 C22 1.397 . S
C745 C380 1.323 . S
C769 C31 1.172 . S
C777 C398 1.171 . S
C809 C424 1.347 . S
C801 C51 1.464 . S
C833 C17 1.501 . S
C841 C447 1.352 . S
C873 C467 1.120 . S
C865 C36 1.117 . S
C905 C495 1.366 1_556 S
C897 C49 1.424 . S
C929 C9 1.136 . S
C937 C513 1.153 . S
C961 C63 1.361 . S
C969 C354 1.406 . S
C993 C73 1.116 . S
C1001 C376 1.091 . S
C1033 C400 1.416 . S
C1025 C91 1.399 1_545 S
C1065 C421 1.122 . S
C1057 C101 1.156 . S
C1089 C59 1.164 . S
C1097 C444 1.159 . S
C1129 C469 1.411 . S
C1121 C77 1.350 . S
C1161 C491 1.106 . S
C1153 C87 1.107 1_565 S
C1193 C515 1.410 . S
C1185 C105 1.343 . S
C1225 C355 0.972 1_556 S
C1217 C107 1.078 . S
C1257 C538 1.184 . S
C1249 C120 1.183 . S
C1281 C135 1.070 . S
C1289 C562 0.952 . S
C1321 C586 1.136 . S
C1313 C148 1.160 . S
C1345 C65 1.019 . S
C1353 C516 0.979 . S
C1385 C401 1.033 . S
C1377 C79 1.084 . S
C1409 C134 1.130 . S
C1417 C607 1.138 . S
C1449 C632 1.108 . S
C1441 C162 1.115 . S
C1473 C171 1.158 . S
C1481 C353 1.167 . S
C1513 C630 1.027 . S
C1505 C190 1.032 . S
C1537 C203 1.171 . S
C1545 C399 1.154 . S
C1569 C219 1.010 . S
C1577 C609 0.976 . S
C1609 C448 1.005 . S
C1601 C189 1.051 . S
C1641 C560 1.101 . S
C1633 C204 1.121 . S
C1673 C492 1.091 . S
C1665 C213 1.072 . S
C1705 C652 1.125 . S
C1697 C177 1.148 . S
C1737 C357 0.955 . S
C1729 C227 0.966 . S
C1761 C245 1.260 . S
C1769 C628 1.315 . S
C1801 C403 0.925 . S
C1793 C255 1.009 . S
C1825 C273 1.240 . S
C1833 C606 1.299 . S
C1857 C231 1.315 . S
C1865 C445 1.290 . S
C1889 C241 0.966 . S
C1897 C564 0.956 . S
C1929 C490 1.305 . S
C1921 C259 1.285 . S
C1953 C269 0.990 . S
C1961 C656 0.921 . S
C1985 C275 1.352 . S
C1993 C356 1.284 . S
C2017 C288 1.217 . S
C2025 C541 1.182 . S
C2049 C303 1.321 . S
C2057 C471 1.253 . S
C2081 C316 1.217 . S
C2089 C585 1.156 . S
C2121 C655 1.270 . S
C2113 C233 1.281 . S
C2153 C402 1.306 . S
C2145 C247 1.359 . S
C2185 C426 1.111 . S
C2177 C302 1.200 . S
C2217 C378 1.129 . S
C2209 C330 1.184 . S
C2241 C35 1.188 . S
C2249 C674 1.174 . S
C2281 C633 1.325 . S
C2273 C50 1.395 . S
C2313 C697 1.151 . S
C2305 C3 1.188 . S
C2337 C23 1.466 . S
C2345 C608 1.354 . S
C2369 C45 1.498 . S
C2377 C539 1.367 1_556 S
C2409 C559 1.102 . S
C2401 C8 1.135 . S
C2441 C587 1.378 . S
C2433 C21 1.459 . S
C2473 C651 1.139 . S
C2465 C37 1.171 . S
C2505 C676 1.405 . S
C2497 C161 1.361 . S
C2529 C115 1.120 . S
C2537 C629 1.083 . S
C2561 C133 1.355 . S
C2569 C699 1.424 . S
C2601 C605 1.138 . S
C2593 C143 1.154 . S
C2633 C536 1.158 . S
C2625 C157 1.164 . S
C2657 C119 1.348 . S
C2665 C561 1.410 . S
C2697 C583 1.101 . S
C2689 C129 1.112 . S
C2721 C147 1.399 . S
C2729 C653 1.401 . S
C2761 C677 1.012 . S
C2753 C149 1.054 . S
C2793 C446 1.188 . S
C2785 C78 1.194 . S
C2825 C470 0.953 . S
C2817 C93 1.067 . S
C2849 C106 1.162 . S
C2857 C494 1.133 . S
C2889 C654 0.941 . S
C2881 C163 1.043 . S
C2913 C121 1.092 . S
C2921 C700 0.990 1_556 S
C2953 C423 1.143 . S
C2945 C92 1.145 . S
C2985 C379 1.116 . S
C2977 C64 1.110 . S
C3009 C199 1.166 . S
C3017 C675 1.150 . S
C3049 C377 1.036 . S
C3041 C218 1.032 . S
C3081 C698 1.153 . S
C3073 C175 1.193 . S
C3105 C191 0.996 . S
C3113 C425 1.007 . S
C3137 C217 1.026 . S
C3145 C540 0.992 . S
C3169 C176 1.101 . S
C3177 C468 1.113 . S
C3201 C185 1.097 . S
C3209 C584 1.080 . S
C3233 C205 1.158 . S
C3241 C514 1.147 . S
C3273 C679 0.963 . S
C3265 C325 0.965 . S
C3297 C287 1.263 . S
C3305 C375 1.314 . S
C3337 C702 0.972 . S
C3329 C297 0.971 . S
C3361 C315 1.243 . S
C3369 C422 1.298 . S
C3393 C329 1.296 . S
C3401 C537 1.293 . S
C3433 C472 0.923 . S
C3425 C283 0.991 . S
C3457 C301 1.319 . S
C3465 C582 1.291 . S
C3497 C518 0.922 . S
C3489 C311 0.989 . S
C3529 C678 1.313 . S
C3521 C317 1.320 . S
C3561 C449 1.188 . S
C3553 C246 1.218 . S
C3585 C261 1.302 . S
C3593 C563 1.274 . S
C3625 C493 1.154 . S
C3617 C274 1.218 . S
C3657 C517 1.274 . S
C3649 C331 1.290 . S
C3681 C289 1.360 . S
C3689 C701 1.292 . S
C3721 C610 1.113 . S
C3713 C260 1.203 . S
C3753 C631 1.091 . S
C3745 C232 1.201 . S
