# Generated by pormake.
# Topology iac, (4,6)-cn, num edge types: 1
# Building blocks:
#     Node 0, Type 0, BuildingBlock: KUFVIS_clean_sbu_0, # of connection points: 4
#     Node 1, Type 0, BuildingBlock: KUFVIS_clean_sbu_0, # of connection points: 4
#     Node 2, Type 0, BuildingBlock: KUFVIS_clean_sbu_0, # of connection points: 4
#     Node 3, Type 0, BuildingBlock: KUFVIS_clean_sbu_0, # of connection points: 4
#     Node 4, Type 0, BuildingBlock: KUFVIS_clean_sbu_0, # of connection points: 4
#     Node 5, Type 0, BuildingBlock: KUFVIS_clean_sbu_0, # of connection points: 4
#     Node 6, Type 0, BuildingBlock: KUFVIS_clean_sbu_0, # of connection points: 4
#     Node 7, Type 0, BuildingBlock: KUFVIS_clean_sbu_0, # of connection points: 4
#     Node 8, Type 0, BuildingBlock: KUFVIS_clean_sbu_0, # of connection points: 4
#     Node 9, Type 0, BuildingBlock: KUFVIS_clean_sbu_0, # of connection points: 4
#     Node 10, Type 0, BuildingBlock: KUFVIS_clean_sbu_0, # of connection points: 4
#     Node 11, Type 0, BuildingBlock: KUFVIS_clean_sbu_0, # of connection points: 4
#     Node 12, Type 0, BuildingBlock: KUFVIS_clean_sbu_0, # of connection points: 4
#     Node 13, Type 0, BuildingBlock: KUFVIS_clean_sbu_0, # of connection points: 4
#     Node 14, Type 0, BuildingBlock: KUFVIS_clean_sbu_0, # of connection points: 4
#     Node 15, Type 0, BuildingBlock: KUFVIS_clean_sbu_0, # of connection points: 4
#     Node 16, Type 0, BuildingBlock: KUFVIS_clean_sbu_0, # of connection points: 4
#     Node 17, Type 0, BuildingBlock: KUFVIS_clean_sbu_0, # of connection points: 4
#     Node 18, Type 0, BuildingBlock: KUFVIS_clean_sbu_0, # of connection points: 4
#     Node 19, Type 0, BuildingBlock: KUFVIS_clean_sbu_0, # of connection points: 4
#     Node 20, Type 0, BuildingBlock: KUFVIS_clean_sbu_0, # of connection points: 4
#     Node 21, Type 0, BuildingBlock: KUFVIS_clean_sbu_0, # of connection points: 4
#     Node 22, Type 0, BuildingBlock: KUFVIS_clean_sbu_0, # of connection points: 4
#     Node 23, Type 0, BuildingBlock: KUFVIS_clean_sbu_0, # of connection points: 4
#     Node 24, Type 1, BuildingBlock: FUNLAD_clean_sbu_0, # of connection points: 6
#     Node 25, Type 1, BuildingBlock: FUNLAD_clean_sbu_0, # of connection points: 6
#     Node 26, Type 1, BuildingBlock: FUNLAD_clean_sbu_0, # of connection points: 6
#     Node 27, Type 1, BuildingBlock: FUNLAD_clean_sbu_0, # of connection points: 6
#     Node 28, Type 1, BuildingBlock: FUNLAD_clean_sbu_0, # of connection points: 6
#     Node 29, Type 1, BuildingBlock: FUNLAD_clean_sbu_0, # of connection points: 6
#     Node 30, Type 1, BuildingBlock: FUNLAD_clean_sbu_0, # of connection points: 6
#     Node 31, Type 1, BuildingBlock: FUNLAD_clean_sbu_0, # of connection points: 6
#     Node 32, Type 1, BuildingBlock: FUNLAD_clean_sbu_0, # of connection points: 6
#     Node 33, Type 1, BuildingBlock: FUNLAD_clean_sbu_0, # of connection points: 6
#     Node 34, Type 1, BuildingBlock: FUNLAD_clean_sbu_0, # of connection points: 6
#     Node 35, Type 1, BuildingBlock: FUNLAD_clean_sbu_0, # of connection points: 6
#     Node 36, Type 1, BuildingBlock: FUNLAD_clean_sbu_0, # of connection points: 6
#     Node 37, Type 1, BuildingBlock: FUNLAD_clean_sbu_0, # of connection points: 6
#     Node 38, Type 1, BuildingBlock: FUNLAD_clean_sbu_0, # of connection points: 6
#     Node 39, Type 1, BuildingBlock: FUNLAD_clean_sbu_0, # of connection points: 6
#     Edge 40, Type (0, 1), None
#     Edge 41, Type (0, 1), None
#     Edge 42, Type (0, 1), None
#     Edge 43, Type (0, 1), None
#     Edge 44, Type (0, 1), None
#     Edge 45, Type (0, 1), None
#     Edge 46, Type (0, 1), None
#     Edge 47, Type (0, 1), None
#     Edge 48, Type (0, 1), None
#     Edge 49, Type (0, 1), None
#     Edge 50, Type (0, 1), None
#     Edge 51, Type (0, 1), None
#     Edge 52, Type (0, 1), None
#     Edge 53, Type (0, 1), None
#     Edge 54, Type (0, 1), None
#     Edge 55, Type (0, 1), None
#     Edge 56, Type (0, 1), None
#     Edge 57, Type (0, 1), None
#     Edge 58, Type (0, 1), None
#     Edge 59, Type (0, 1), None
#     Edge 60, Type (0, 1), None
#     Edge 61, Type (0, 1), None
#     Edge 62, Type (0, 1), None
#     Edge 63, Type (0, 1), None
#     Edge 64, Type (0, 1), None
#     Edge 65, Type (0, 1), None
#     Edge 66, Type (0, 1), None
#     Edge 67, Type (0, 1), None
#     Edge 68, Type (0, 1), None
#     Edge 69, Type (0, 1), None
#     Edge 70, Type (0, 1), None
#     Edge 71, Type (0, 1), None
#     Edge 72, Type (0, 1), None
#     Edge 73, Type (0, 1), None
#     Edge 74, Type (0, 1), None
#     Edge 75, Type (0, 1), None
#     Edge 76, Type (0, 1), None
#     Edge 77, Type (0, 1), None
#     Edge 78, Type (0, 1), None
#     Edge 79, Type (0, 1), None
#     Edge 80, Type (0, 1), None
#     Edge 81, Type (0, 1), None
#     Edge 82, Type (0, 1), None
#     Edge 83, Type (0, 1), None
#     Edge 84, Type (0, 1), None
#     Edge 85, Type (0, 1), None
#     Edge 86, Type (0, 1), None
#     Edge 87, Type (0, 1), None
#     Edge 88, Type (0, 1), None
#     Edge 89, Type (0, 1), None
#     Edge 90, Type (0, 1), None
#     Edge 91, Type (0, 1), None
#     Edge 92, Type (0, 1), None
#     Edge 93, Type (0, 1), None
#     Edge 94, Type (0, 1), None
#     Edge 95, Type (0, 1), None
#     Edge 96, Type (0, 1), None
#     Edge 97, Type (0, 1), None
#     Edge 98, Type (0, 1), None
#     Edge 99, Type (0, 1), None
#     Edge 100, Type (0, 1), None
#     Edge 101, Type (0, 1), None
#     Edge 102, Type (0, 1), None
#     Edge 103, Type (0, 1), None
#     Edge 104, Type (0, 1), None
#     Edge 105, Type (0, 1), None
#     Edge 106, Type (0, 1), None
#     Edge 107, Type (0, 1), None
#     Edge 108, Type (0, 1), None
#     Edge 109, Type (0, 1), None
#     Edge 110, Type (0, 1), None
#     Edge 111, Type (0, 1), None
#     Edge 112, Type (0, 1), None
#     Edge 113, Type (0, 1), None
#     Edge 114, Type (0, 1), None
#     Edge 115, Type (0, 1), None
#     Edge 116, Type (0, 1), None
#     Edge 117, Type (0, 1), None
#     Edge 118, Type (0, 1), None
#     Edge 119, Type (0, 1), None
#     Edge 120, Type (0, 1), None
#     Edge 121, Type (0, 1), None
#     Edge 122, Type (0, 1), None
#     Edge 123, Type (0, 1), None
#     Edge 124, Type (0, 1), None
#     Edge 125, Type (0, 1), None
#     Edge 126, Type (0, 1), None
#     Edge 127, Type (0, 1), None
#     Edge 128, Type (0, 1), None
#     Edge 129, Type (0, 1), None
#     Edge 130, Type (0, 1), None
#     Edge 131, Type (0, 1), None
#     Edge 132, Type (0, 1), None
#     Edge 133, Type (0, 1), None
#     Edge 134, Type (0, 1), None
#     Edge 135, Type (0, 1), None
# Relax obj value: 0.509
# Max RMSD: 0.412
# Mean RMSD: 0.165
data_MOF--net-iac--node1-KUFVIS_clean_sbu_0--node2-FUNLAD_clean_sbu_0--edge1-none
_symmetry_space_group_name_H-M    P1
_symmetry_Int_Tables_number       1
_symmetry_cell_setting            triclinic
loop_
_symmetry_equiv_pos_as_xyz
'x, y, z'
_cell_length_a     25.959929
_cell_length_b     24.060535
_cell_length_c     30.233145
_cell_angle_alpha  89.004931
_cell_angle_beta   93.452206
_cell_angle_gamma 89.430639
loop_
_atom_site_label
_atom_site_type_symbol
_atom_site_fract_x
_atom_site_fract_y
_atom_site_fract_z
_atom_type_partial_charge
Mn0 Mn 0.13006 0.20861 0.18137 0.0
Mn1 Mn 0.03984 0.26655 0.11244 0.0
C2 C 0.10294 0.15872 0.11903 0.0
C3 C 0.2086 0.22977 0.2167 0.0
C4 C 0.02478 0.2133 0.20199 0.0
O5 O 0.11308 0.28514 0.20093 0.0
O6 O 0.09097 0.3213 0.135 0.0
C7 C 0.08491 0.319 0.03414 0.0
N8 N 0.05848 0.27679 0.05215 0.0
C9 C 0.04025 0.23849 0.97972 0.0
C10 C 0.0734 0.27722 0.96176 0.0
C11 C 0.09491 0.31859 0.98897 0.0
C12 C 0.03395 0.23978 0.02548 0.0
H13 H 0.09471 0.35429 0.05352 0.0
C14 C 0.11853 0.32179 0.17175 0.0
O15 O 0.17327 0.20369 0.23687 0.0
O16 O 0.20299 0.23312 0.17366 0.0
N17 N 0.9919 0.21462 0.08817 0.0
C18 C 0.95091 0.19321 0.1079 0.0
C19 C 0.91641 0.1604 0.08352 0.0
C20 C 0.92295 0.15054 0.03861 0.0
C21 C 0.96442 0.17449 0.01837 0.0
C22 C 0.99751 0.20788 0.04438 0.0
H23 H 0.94312 0.20318 0.14139 0.0
O24 O 0.13531 0.13658 0.14934 0.0
O25 O 0.09575 0.2116 0.12228 0.0
O26 O 0.06431 0.1825 0.20354 0.0
O27 O 0.01636 0.25367 0.17394 0.0
C28 C 0.97233 0.16939 0.97295 0.0
C29 C 0.01063 0.2012 0.95362 0.0
H30 H 0.07976 0.27794 0.92666 0.0
H31 H 0.1173 0.35117 0.97469 0.0
H32 H 0.88478 0.14377 0.09987 0.0
H33 H 0.89474 0.12679 0.01956 0.0
H34 H 0.9478 0.14297 0.95227 0.0
H35 H 0.01499 0.19891 0.91829 0.0
Mn36 Mn 0.10878 0.75278 0.4323 0.0
Mn37 Mn 0.02191 0.7506 0.51505 0.0
C38 C 0.082 0.83778 0.47018 0.0
C39 C 0.19091 0.74909 0.38896 0.0
C40 C 0.98799 0.74325 0.41732 0.0
O41 O 0.11531 0.66856 0.46146 0.0
O42 O 0.06039 0.68126 0.51512 0.0
C43 C 0.09619 0.74338 0.59364 0.0
N44 N 0.05322 0.76589 0.57195 0.0
C45 C 0.02422 0.80409 0.63878 0.0
C46 C 0.06822 0.78185 0.66218 0.0
C47 C 0.10496 0.75226 0.63929 0.0
C48 C 0.01959 0.7973 0.59298 0.0
H49 H 0.12294 0.71822 0.57635 0.0
C50 C 0.09456 0.65227 0.49798 0.0
O51 O 0.14573 0.7352 0.37391 0.0
O52 O 0.19011 0.76293 0.43038 0.0
N53 N 0.97938 0.81402 0.52293 0.0
C54 C 0.94022 0.83456 0.4951 0.0
C55 C 0.89838 0.86196 0.51271 0.0
C56 C 0.89662 0.86694 0.55882 0.0
C57 C 0.93759 0.84583 0.5867 0.0
C58 C 0.97893 0.82054 0.56724 0.0
H59 H 0.93989 0.82838 0.45986 0.0
O60 O 0.10016 0.83879 0.43095 0.0
O61 O 0.07979 0.78819 0.48654 0.0
O62 O 0.03326 0.7475 0.40301 0.0
O63 O 0.98136 0.73535 0.45838 0.0
C64 C 0.93895 0.84851 0.6332 0.0
C65 C 0.98353 0.83047 0.6591 0.0
H66 H 0.07379 0.78657 0.6977 0.0
H67 H 0.13898 0.73483 0.65705 0.0
H68 H 0.86707 0.87797 0.49077 0.0
H69 H 0.86392 0.8873 0.57247 0.0
H70 H 0.90733 0.86781 0.64931 0.0
H71 H 0.98527 0.83572 0.69468 0.0
Mn72 Mn 0.645 0.67668 0.68999 0.0
Mn73 Mn 0.52137 0.67061 0.64863 0.0
C74 C 0.62459 0.66114 0.61183 0.0
C75 C 0.71889 0.73542 0.69684 0.0
C76 C 0.55974 0.66877 0.74655 0.0
O77 O 0.60426 0.74846 0.68969 0.0
O78 O 0.53881 0.74744 0.64015 0.0
C79 C 0.49688 0.70704 0.55573 0.0
N80 N 0.50499 0.66523 0.58654 0.0
C81 C 0.46975 0.59854 0.53367 0.0
C82 C 0.46701 0.64055 0.50063 0.0
C83 C 0.48041 0.69493 0.51192 0.0
C84 C 0.49036 0.6133 0.57738 0.0
H85 H 0.50085 0.74997 0.56476 0.0
C86 C 0.58096 0.76763 0.65501 0.0
O87 O 0.69649 0.71292 0.72832 0.0
O88 O 0.70144 0.72129 0.65745 0.0
N89 N 0.50505 0.59346 0.65417 0.0
C90 C 0.50538 0.55964 0.69077 0.0
C91 C 0.4856 0.50546 0.68793 0.0
C92 C 0.46608 0.48537 0.64703 0.0
C93 C 0.46774 0.51914 0.60915 0.0
C94 C 0.49055 0.57411 0.61413 0.0
H95 H 0.52224 0.57309 0.72162 0.0
O96 O 0.66755 0.68507 0.6245 0.0
O97 O 0.59566 0.64982 0.64385 0.0
O98 O 0.60593 0.65292 0.74319 0.0
O99 O 0.52865 0.67909 0.71319 0.0
C100 C 0.4439 0.50391 0.56636 0.0
C101 C 0.44476 0.543 0.52859 0.0
H102 H 0.45027 0.63241 0.46775 0.0
H103 H 0.47492 0.72822 0.4875 0.0
H104 H 0.48607 0.47895 0.71725 0.0
H105 H 0.45174 0.44364 0.64431 0.0
H106 H 0.42423 0.46465 0.56264 0.0
H107 H 0.42368 0.5329 0.49817 0.0
Mn108 Mn 0.61388 0.25559 0.92376 0.0
Mn109 Mn 0.52433 0.2413 1.00009 0.0
C110 C 0.58738 0.33813 0.96766 0.0
C111 C 0.69731 0.24732 0.88569 0.0
C112 C 0.49421 0.24368 0.90277 0.0
O113 O 0.61938 0.16923 0.94629 0.0
O114 O 0.56349 0.17275 0.99961 0.0
C115 C 0.60139 0.23444 0.07524 0.0
N116 N 0.55567 0.25449 0.05632 0.0
C117 C 0.54516 0.3154 0.11533 0.0
C118 C 0.59114 0.29499 0.13684 0.0
C119 C 0.61958 0.25405 0.11651 0.0
C120 C 0.52867 0.29429 0.0749 0.0
H121 H 0.62468 0.20516 0.05847 0.0
C122 C 0.5994 0.14822 0.98132 0.0
O123 O 0.65221 0.24033 0.86726 0.0
O124 O 0.69558 0.26002 0.92734 0.0
N125 N 0.48117 0.3038 1.00729 0.0
C126 C 0.44075 0.32409 0.98056 0.0
C127 C 0.40518 0.36084 0.99769 0.0
C128 C 0.41211 0.37698 0.04187 0.0
C129 C 0.45552 0.35756 0.06751 0.0
C130 C 0.48735 0.31807 0.04988 0.0
H131 H 0.4344 0.31146 0.94688 0.0
O132 O 0.60776 0.34238 0.92937 0.0
O133 O 0.58258 0.2859 0.97846 0.0
O134 O 0.5395 0.25511 0.89101 0.0
O135 O 0.48704 0.22734 0.94214 0.0
C136 C 0.46945 0.37671 0.10953 0.0
C137 C 0.51528 0.35651 0.13238 0.0
H138 H 0.60511 0.31092 0.16861 0.0
H139 H 0.65565 0.23852 0.13209 0.0
H140 H 0.37272 0.3766 0.97689 0.0
H141 H 0.3852 0.40601 0.05522 0.0
H142 H 0.44441 0.40588 0.1248 0.0
H143 H 0.52688 0.37019 0.16485 0.0
Mn144 Mn 0.21059 0.02332 0.25439 0.0
Mn145 Mn 0.3012 0.00902 0.3361 0.0
C146 C 0.25105 0.10242 0.2878 0.0
C147 C 0.17186 0.01869 0.17956 0.0
C148 C 0.19331 0.027 0.35469 0.0
O149 O 0.23566 0.9411 0.24874 0.0
O150 O 0.26371 0.94219 0.31826 0.0
C151 C 0.36864 0.96201 0.26722 0.0
N152 N 0.36171 -0.0096 0.30522 0.0
C153 C 0.45298 0.00249 0.31699 0.0
C154 C 0.46134 0.96742 0.28164 0.0
C155 C 0.41878 0.94884 0.25551 0.0
C156 C 0.40215 0.01527 0.32612 0.0
H157 H 0.33693 0.95086 0.24486 0.0
C158 C 0.26053 0.91792 0.28174 0.0
O159 O 0.14777 0.00773 0.21475 0.0
O160 O 0.21908 0.0357 0.18704 0.0
N161 N 0.34114 0.06659 0.36198 0.0
C162 C 0.32716 0.10157 0.39428 0.0
C163 C 0.36517 0.13025 0.41891 0.0
C164 C 0.41712 0.12104 0.41094 0.0
C165 C 0.43071 0.08096 0.38101 0.0
C166 C 0.39126 0.05531 0.35619 0.0
H167 H 0.28731 0.10768 0.40109 0.0
O168 O 0.20598 0.10611 0.26655 0.0
O169 O 0.27374 0.05428 0.28524 0.0
O170 O 0.17809 0.0108 0.31574 0.0
O171 O 0.24088 0.03076 0.3673 0.0
C172 C 0.48174 0.06322 0.37663 0.0
C173 C 0.49294 0.02514 0.34382 0.0
H174 H 0.50009 0.95668 0.27308 0.0
H175 H 0.42457 0.92471 0.22638 0.0
H176 H 0.35455 0.1592 0.44391 0.0
H177 H 0.44673 0.14456 0.42801 0.0
H178 H 0.51233 0.07736 0.39919 0.0
H179 H 0.53201 0.01272 0.33995 0.0
Mn180 Mn 0.33529 0.89808 0.59928 0.0
Mn181 Mn 0.33027 0.01709 0.53571 0.0
C182 C 0.4141 0.95027 0.58629 0.0
C183 C 0.33217 0.82817 0.66154 0.0
C184 C 0.34355 0.90508 0.49844 0.0
O185 O 0.2548 0.9207 0.59619 0.0
O186 O 0.25929 -0.01049 0.54557 0.0
C187 C 0.27696 0.09135 0.59582 0.0
N188 N 0.31872 0.07934 0.57222 0.0
C189 C 0.34732 0.17367 0.57617 0.0
C190 C 0.30414 0.18736 0.59968 0.0
C191 C 0.26944 0.14568 0.61044 0.0
C192 C 0.35371 0.11846 0.56377 0.0
H193 H 0.24871 0.06034 0.60253 0.0
C194 C 0.23273 0.95864 0.57019 0.0
O195 O 0.32181 0.81755 0.62063 0.0
O196 O 0.34124 0.88078 0.66776 0.0
N197 N 0.39282 0.05145 0.52199 0.0
C198 C 0.42934 0.03386 0.49462 0.0
C199 C 0.47341 0.06602 0.49026 0.0
C200 C 0.47534 0.1194 0.50813 0.0
C201 C 0.43325 0.13967 0.53017 0.0
C202 C 0.39409 0.10281 0.53896 0.0
H203 H 0.42713 -0.00631 0.47938 0.0
O204 O 0.41351 0.89805 0.59811 0.0
O205 O 0.36773 0.97362 0.58526 0.0
O206 O 0.33229 0.8789 0.53344 0.0
O207 O 0.34325 0.95762 0.49501 0.0
C208 C 0.42724 0.19532 0.54209 0.0
C209 C 0.38326 0.21282 0.56278 0.0
H210 H 0.29708 0.22959 0.60962 0.0
H211 H 0.23609 0.15576 0.62873 0.0
H212 H 0.50474 0.05047 0.47199 0.0
H213 H 0.508 0.14505 0.50252 0.0
H214 H 0.45491 0.22595 0.5339 0.0
H215 H 0.37779 0.25669 0.56766 0.0
Mn216 Mn 0.43962 0.98184 0.76803 0.0
Mn217 Mn 0.34049 -0.01526 0.83977 0.0
C218 C 0.38353 0.90134 0.78123 0.0
C219 C 0.49847 -0.00815 0.70354 0.0
C220 C 0.45256 0.97071 0.86984 0.0
O221 O 0.42256 0.06843 0.77393 0.0
O222 O 0.35792 0.06006 0.82035 0.0
C223 C 0.2536 0.03511 0.78568 0.0
N224 N 0.27379 -0.00856 0.81054 0.0
C225 C 0.18949 0.95846 0.82477 0.0
C226 C 0.16772 0.0037 0.80025 0.0
C227 C 0.19987 0.04135 0.77954 0.0
C228 C 0.24317 0.95304 0.8283 0.0
H229 H 0.27819 0.06621 0.77216 0.0
C230 C 0.38598 0.08957 0.79629 0.0
O231 O 0.51288 -0.00477 0.74446 0.0
O232 O 0.44877 -0.01507 0.69847 0.0
N233 N 0.31854 0.91511 0.86239 0.0
C234 C 0.34515 0.87819 0.89023 0.0
C235 C 0.31877 0.83489 0.91028 0.0
C236 C 0.26505 0.83174 0.90333 0.0
C237 C 0.23853 0.8713 0.87572 0.0
C238 C 0.26705 0.91173 0.85472 0.0
H239 H 0.3863 0.88126 0.89668 0.0
O240 O 0.42989 0.89697 0.76707 0.0
O241 O 0.36948 0.95248 0.78625 0.0
O242 O 0.47039 0.97398 0.83178 0.0
O243 O 0.40511 0.97723 0.87608 0.0
C244 C 0.18467 0.87608 0.87255 0.0
C245 C 0.16019 0.92084 0.84851 0.0
H246 H 0.12645 0.01065 0.79801 0.0
H247 H 0.18332 0.07646 0.76062 0.0
H248 H 0.33954 0.80511 0.93208 0.0
H249 H 0.24432 0.80006 0.92068 0.0
H250 H 0.16258 0.84779 0.89151 0.0
H251 H 0.11893 0.92666 0.84882 0.0
Mn252 Mn 0.37789 0.12033 0.07351 0.0
Mn253 Mn 0.36806 0.00189 0.01971 0.0
C254 C 0.30435 0.10138 0.04295 0.0
C255 C 0.38873 0.16575 0.13584 0.0
C256 C 0.38026 0.10733 0.97529 0.0
O257 O 0.43576 0.07641 0.09748 0.0
O258 O 0.43603 0.02711 0.03635 0.0
C259 C 0.40737 0.93562 0.09943 0.0
N260 N 0.36948 0.94738 0.06721 0.0
C261 C 0.31878 0.87098 0.09234 0.0
C262 C 0.35619 0.86031 0.12689 0.0
C263 C 0.40097 0.8922 0.12998 0.0
C264 C 0.32721 0.91515 0.06288 0.0
H265 H 0.44304 0.95776 0.10168 0.0
C266 C 0.45816 0.05166 0.06874 0.0
O267 O 0.4095 0.1853 0.10068 0.0
O268 O 0.35736 0.12423 0.1333 0.0
N269 N 0.30414 0.96978 1.0004 0.0
C270 C 0.27475 0.98125 0.96253 0.0
C271 C 0.22973 0.95114 0.95337 0.0
C272 C 0.21806 0.90592 0.98083 0.0
C273 C 0.24996 0.89322 0.01849 0.0
C274 C 0.29331 0.92625 0.02704 0.0
H275 H 0.28438 0.0145 0.94057 0.0
O276 O 0.31444 0.1532 0.05107 0.0
O277 O 0.33647 0.06067 0.05594 0.0
O278 O 0.40516 0.12472 1.01025 0.0
O279 O 0.36532 0.05702 0.97194 0.0
C280 C 0.24 0.84948 0.04808 0.0
C281 C 0.27402 0.83886 0.0853 0.0
H282 H 0.35197 0.82691 0.1506 0.0
H283 H 0.431 0.88272 0.15544 0.0
H284 H 0.20392 0.96352 0.92562 0.0
H285 H 0.18485 0.88081 0.97282 0.0
H286 H 0.2062 0.82385 0.04258 0.0
H287 H 0.26532 0.80557 0.1079 0.0
Mn288 Mn 0.83601 0.38353 0.09678 0.0
Mn289 Mn 0.83471 0.5 0.03277 0.0
C290 C 0.9192 0.42973 0.08157 0.0
C291 C 0.8221 0.32135 0.16144 0.0
C292 C 0.82912 0.38641 0.9963 0.0
O293 O 0.75623 0.41164 0.09024 0.0
O294 O 0.76605 0.49463 0.05711 0.0
C295 C 0.82674 0.5863 0.10032 0.0
N296 N 0.84917 0.56509 0.06477 0.0
C297 C 0.88921 0.65123 0.0483 0.0
C298 C 0.86845 0.6742 0.08552 0.0
C299 C 0.83751 0.64127 0.1122 0.0
C300 C 0.88083 0.59525 0.04062 0.0
H301 H 0.80076 0.56152 0.11894 0.0
C302 C 0.73739 0.45884 0.07439 0.0
O303 O 0.8154 0.30671 0.12099 0.0
O304 O 0.83609 0.37309 0.16548 0.0
N305 N 0.89549 0.51355 1.00398 0.0
C306 C 0.92179 0.48084 0.97663 0.0
C307 C 0.95746 0.50507 0.94981 0.0
C308 C 0.96414 0.56258 0.95092 0.0
C309 C 0.93665 0.59527 0.97999 0.0
C310 C 0.90435 0.56806 1.00753 0.0
H311 H 0.91738 0.43658 0.977 0.0
O312 O 0.91612 0.37913 0.09726 0.0
O313 O 0.8734 0.45426 0.07964 0.0
O314 O 0.83545 0.36033 0.03291 0.0
O315 O 0.81926 0.438 0.99352 0.0
C316 C 0.94114 0.65327 0.9841 0.0
C317 C 0.91717 0.68143 0.01793 0.0
H318 H 0.87721 0.71664 0.09395 0.0
H319 H 0.82099 0.65822 0.1411 0.0
H320 H 0.97981 0.47971 0.9286 0.0
H321 H 0.99358 0.58002 0.93164 0.0
H322 H 0.96309 0.67636 0.96113 0.0
H323 H 0.91956 0.72607 0.01975 0.0
Mn324 Mn 0.94315 0.48604 0.26831 0.0
Mn325 Mn 0.84997 0.48524 0.34479 0.0
C326 C 0.88535 0.40416 0.28022 0.0
C327 C 0.99401 0.50662 0.19975 0.0
C328 C 0.96289 0.46857 0.37036 0.0
O329 O 0.92666 0.57204 0.27878 0.0
O330 O 0.86505 0.56118 0.32747 0.0
C331 C 0.76028 0.53843 0.29638 0.0
N332 N 0.78219 0.49344 0.31854 0.0
C333 C 0.69983 0.45873 0.33546 0.0
C334 C 0.67608 0.50513 0.31393 0.0
C335 C 0.70641 0.54446 0.29313 0.0
C336 C 0.75331 0.45371 0.33617 0.0
H337 H 0.78365 0.57059 0.28276 0.0
C338 C 0.89094 0.59175 0.30272 0.0
O339 O 0.0133 0.5024 0.23961 0.0
O340 O 0.94436 0.49816 0.19824 0.0
N341 N 0.8306 0.41449 0.3654 0.0
C342 C 0.85948 0.37516 0.38895 0.0
C343 C 0.83492 0.33071 0.40895 0.0
C344 C 0.7811 0.32784 0.4047 0.0
C345 C 0.75282 0.36807 0.37906 0.0
C346 C 0.77913 0.41105 0.35977 0.0
H347 H 0.90093 0.37677 0.39121 0.0
O348 O 0.93028 0.40052 0.26315 0.0
O349 O 0.87436 0.45537 0.28889 0.0
O350 O 0.97873 0.47251 0.33132 0.0
O351 O 0.91617 0.47643 0.37832 0.0
C352 C 0.69928 0.37152 0.37748 0.0
C353 C 0.67302 0.4191 0.35893 0.0
H354 H 0.63473 0.51115 0.31347 0.0
H355 H 0.68851 0.58042 0.27631 0.0
H356 H 0.85718 0.29954 0.4282 0.0
H357 H 0.76161 0.29554 0.42239 0.0
H358 H 0.6795 0.34206 0.39742 0.0
H359 H 0.63228 0.42509 0.36328 0.0
Mn360 Mn 0.85633 0.57499 0.58939 0.0
Mn361 Mn 0.85502 0.46999 0.51934 0.0
C362 C 0.7917 0.51323 0.5954 0.0
C363 C 0.90638 0.61807 0.63973 0.0
C364 C 0.81614 0.58583 0.49627 0.0
O365 O 0.91376 0.58826 0.55213 0.0
O366 O 0.92135 0.50143 0.53114 0.0
C367 C 0.91184 0.40558 0.58944 0.0
N368 N 0.87408 0.40683 0.55604 0.0
C369 C 0.82849 0.33347 0.5913 0.0
C370 C 0.86706 0.33161 0.62583 0.0
C371 C 0.90896 0.36759 0.62474 0.0
C372 C 0.83379 0.37191 0.55671 0.0
H373 H 0.94175 0.43635 0.59111 0.0
C374 C 0.93945 0.54852 0.54001 0.0
O375 O 0.87347 0.645 0.61324 0.0
O376 O 0.90409 0.56389 0.64229 0.0
N377 N 0.79423 0.43102 0.50353 0.0
C378 C 0.75894 0.44261 0.46974 0.0
C379 C 0.716 0.40819 0.46415 0.0
C380 C 0.71195 0.35983 0.49018 0.0
C381 C 0.75056 0.34787 0.5231 0.0
C382 C 0.79342 0.38244 0.52627 0.0
H383 H 0.76126 0.4801 0.44988 0.0
O384 O 0.79507 0.55496 0.62197 0.0
O385 O 0.83351 0.50152 0.57538 0.0
O386 O 0.81737 0.60185 0.536 0.0
O387 O 0.83198 0.53792 0.484 0.0
C388 C 0.74466 0.30858 0.55683 0.0
C389 C 0.78226 0.30325 0.59187 0.0
H390 H 0.86418 0.30492 0.65453 0.0
H391 H 0.93725 0.3684 0.65247 0.0
H392 H 0.68246 0.42349 0.44482 0.0
H393 H 0.67689 0.33572 0.48751 0.0
H394 H 0.70946 0.28571 0.55823 0.0
H395 H 0.77339 0.2773 0.61932 0.0
Mn396 Mn 0.70134 0.51558 0.74224 0.0
Mn397 Mn 0.80284 0.51528 0.82121 0.0
C398 C 0.75084 0.6003 0.76261 0.0
C399 C 0.64917 0.50455 0.66952 0.0
C400 C 0.69072 0.51988 0.84425 0.0
O401 O 0.72525 0.43004 0.74674 0.0
O402 O 0.78872 0.44226 0.79917 0.0
C403 C 0.88878 0.47538 0.76932 0.0
N404 N 0.86839 0.51408 0.79588 0.0
C405 C 0.95199 0.55218 0.81386 0.0
C406 C 0.97407 0.51195 0.78779 0.0
C407 C 0.94226 0.47406 0.76461 0.0
C408 C 0.89847 0.55191 0.81684 0.0
H409 H 0.86475 0.44468 0.75295 0.0
C410 C 0.764 0.41158 0.77213 0.0
O411 O 0.63131 0.4985 0.70796 0.0
O412 O 0.69814 0.51666 0.6723 0.0
N413 N 0.82308 0.58298 0.84659 0.0
C414 C 0.79571 0.61555 0.87321 0.0
C415 C 0.82141 0.65426 0.89963 0.0
C416 C 0.87469 0.65949 0.89762 0.0
C417 C 0.90218 0.62709 0.86856 0.0
C418 C 0.87437 0.58834 0.84377 0.0
H419 H 0.75441 0.61293 0.87325 0.0
O420 O 0.70415 0.60162 0.74425 0.0
O421 O 0.76905 0.55009 0.76699 0.0
O422 O 0.67107 0.51582 0.8047 0.0
O423 O 0.7391 0.51711 0.8533 0.0
C424 C 0.95591 0.63031 0.86406 0.0
C425 C 0.981 0.59216 0.83751 0.0
H426 H 0.01538 0.50987 0.78564 0.0
H427 H 0.95905 0.44303 0.74414 0.0
H428 H 0.80026 0.68005 0.92128 0.0
H429 H 0.89297 0.69136 0.91698 0.0
H430 H 0.97924 0.65912 0.88318 0.0
H431 H 0.02253 0.59372 0.83582 0.0
Mn432 Mn 0.03824 0.85499 0.91182 0.0
Mn433 Mn 0.96843 0.82628 0.97522 0.0
C434 C 0.07664 0.88619 0.97709 0.0
C435 C 0.07704 0.81195 0.84885 0.0
C436 C 0.95876 0.76377 0.88255 0.0
O437 O 0.0744 0.78039 0.93405 0.0
O438 O 0.01034 0.75958 0.97855 0.0
C439 C 0.99001 0.78729 0.06563 0.0
N440 N 0.97506 0.83038 0.03779 0.0
C441 C 0.96283 0.88917 0.10726 0.0
C442 C 0.98367 0.84154 0.13219 0.0
C443 C 0.99611 0.79282 0.11129 0.0
C444 C 0.96534 0.88102 0.05282 0.0
H445 H 0.99778 0.7468 0.05312 0.0
C446 C 0.05544 0.75128 0.96538 0.0
O447 O 0.05063 0.85588 0.84591 0.0
O448 O 0.08377 0.79228 0.8886 0.0
N449 N 0.92674 0.90104 0.9803 0.0
C450 C 0.87367 0.91104 0.9793 0.0
C451 C 0.85209 0.96511 0.97338 0.0
C452 C 0.87626 0.00945 0.99317 0.0
C453 C 0.91278 -0.00616 0.02546 0.0
C454 C 0.94253 0.92865 1.01586 0.0
H455 H 0.84677 0.87859 0.98576 0.0
O456 O 0.09808 0.89566 0.9397 0.0
O457 O 0.03331 0.86158 0.97411 0.0
O458 O 0.97242 0.80852 0.901 0.0
O459 O 0.97083 0.80971 0.90361 0.0
C460 C 0.90167 0.02205 0.07577 0.0
C461 C 0.91911 -0.01307 0.12431 0.0
H462 H 0.9891 0.83917 0.16793 0.0
H463 H 0.00957 0.7572 0.13132 0.0
H464 H 0.81323 0.97159 0.96089 0.0
H465 H 0.85553 0.04853 0.99411 0.0
H466 H 0.87945 0.05924 0.07682 0.0
H467 H 0.91334 0.0079 0.15529 0.0
Mn468 Mn 0.09854 0.24149 0.69761 0.0
Mn469 Mn 0.99709 0.25152 0.62219 0.0
C470 C 0.07882 0.15772 0.64199 0.0
C471 C 0.19067 0.25485 0.73742 0.0
C472 C 0.97829 0.25445 0.72091 0.0
O473 O 0.08634 0.32968 0.67996 0.0
O474 O 0.02195 0.32382 0.62705 0.0
C475 C 0.03708 0.29086 0.538 0.0
N476 N 0.01858 0.24991 0.56405 0.0
C477 C 0.02093 0.18518 0.50633 0.0
C478 C 0.04156 0.22547 0.47871 0.0
C479 C 0.04603 0.27988 0.49391 0.0
C480 C 0.00634 0.20077 0.54796 0.0
H481 H 0.04337 0.33178 0.55006 0.0
C482 C 0.05372 0.35173 0.64945 0.0
O483 O 0.14712 0.25525 0.75549 0.0
O484 O 0.18222 0.24678 0.69503 0.0
N485 N 0.97104 0.18238 0.61587 0.0
C486 C 0.95912 0.14708 0.64909 0.0
C487 C 0.94978 0.09253 0.63926 0.0
C488 C 0.95023 0.07642 0.59517 0.0
C489 C 0.96668 0.11372 0.5623 0.0
C490 C 0.97953 0.16583 0.57504 0.0
H491 H 0.9572 0.15995 0.68282 0.0
O492 O 0.1014 0.15308 0.68168 0.0
O493 O 0.06505 0.21124 0.63843 0.0
O494 O 0.02611 0.24164 0.73255 0.0
O495 O 0.96491 0.25874 0.68001 0.0
C496 C 0.97346 0.10249 0.51823 0.0
C497 C 0.00661 0.13279 0.49215 0.0
H498 H 0.04975 0.21624 0.44488 0.0
H499 H 0.05484 0.31353 0.47169 0.0
H500 H 0.93575 0.06587 0.66459 0.0
H501 H 0.93619 0.03621 0.58915 0.0
H502 H 0.94142 0.08658 0.50042 0.0
H503 H 0.01139 0.12123 0.45823 0.0
Mn504 Mn 0.51416 0.26578 0.4441 0.0
Mn505 Mn 0.47327 0.33437 0.35775 0.0
C506 C 0.42539 0.26913 0.4234 0.0
C507 C 0.55138 0.25768 0.51992 0.0
C508 C 0.51579 0.38647 0.45451 0.0
O509 O 0.58064 0.295 0.41654 0.0
O510 O 0.54336 0.35987 0.3733 0.0
C511 C 0.51654 0.21549 0.36735 0.0
N512 N 0.50518 0.26299 0.34255 0.0
C513 C 0.53501 0.21583 0.27866 0.0
C514 C 0.55153 0.17047 0.30494 0.0
C515 C 0.54348 0.17118 0.34978 0.0
C516 C 0.5147 0.26315 0.29907 0.0
H517 H 0.50577 0.20941 0.40029 0.0
C518 C 0.58075 0.32614 0.38165 0.0
O519 O 0.52182 0.29873 0.50758 0.0
O520 O 0.56012 0.22431 0.48908 0.0
N521 N 0.4834 0.35586 0.29547 0.0
C522 C 0.45643 0.39562 0.26963 0.0
C523 C 0.44037 0.38685 0.2261 0.0
C524 C 0.45623 0.3396 0.20645 0.0
C525 C 0.49154 0.30359 0.22838 0.0
C526 C 0.50019 0.30987 0.27428 0.0
H527 H 0.44208 0.43364 0.28114 0.0
O528 O 0.44154 0.23833 0.45664 0.0
O529 O 0.45899 0.30428 0.41244 0.0
O530 O 0.51129 0.34003 0.47507 0.0
O531 O 0.509 0.39017 0.40946 0.0
C532 C 0.50967 0.25606 0.20754 0.0
C533 C 0.5351 0.21402 0.23256 0.0
H534 H 0.56977 0.13466 0.29094 0.0
H535 H 0.5593 0.1381 0.37096 0.0
H536 H 0.41409 0.41574 0.20822 0.0
H537 H 0.43828 0.32923 0.17488 0.0
H538 H 0.50117 0.2495 0.17262 0.0
H539 H 0.54897 0.17755 0.21618 0.0
Mn540 Mn 0.59856 0.74536 0.20217 0.0
Mn541 Mn 0.50111 0.76209 0.12437 0.0
C542 C 0.5793 0.66388 0.14433 0.0
C543 C 0.68849 0.75258 0.24594 0.0
C544 C 0.47687 0.76392 0.22229 0.0
O545 O 0.595 0.83379 0.18204 0.0
O546 O 0.52906 0.83437 0.13013 0.0
C547 C 0.55113 0.79719 0.04343 0.0
N548 N 0.52493 0.75925 0.067 0.0
C549 C 0.52643 0.6947 1.00907 0.0
C550 C 0.55201 0.73301 0.98314 0.0
C551 C 0.56281 0.78571 1.00013 0.0
C552 C 0.5101 0.71131 0.04985 0.0
H553 H 0.56289 0.83584 0.05704 0.0
C554 C 0.56516 0.85879 0.1509 0.0
O555 O 0.64403 0.75649 0.26209 0.0
O556 O 0.68202 0.74395 0.20358 0.0
N557 N 0.47236 0.69386 0.11688 0.0
C558 C 0.45834 0.6586 0.14954 0.0
C559 C 0.44785 0.6043 0.13917 0.0
C560 C 0.44938 0.58875 0.09517 0.0
C561 C 0.46787 0.62535 0.06292 0.0
C562 C 0.48139 0.67724 0.07609 0.0
H563 H 0.45633 0.67105 0.18334 0.0
O564 O 0.59828 0.65744 0.18506 0.0
O565 O 0.56743 0.718 0.14122 0.0
O566 O 0.52404 0.74922 0.23479 0.0
O567 O 0.46574 0.77044 0.18109 0.0
C568 C 0.47718 0.61272 0.01946 0.0
C569 C 0.51221 0.64231 0.99478 0.0
H570 H 0.56165 0.7229 0.94983 0.0
H571 H 0.58012 0.81757 0.98048 0.0
H572 H 0.43399 0.57622 0.1639 0.0
H573 H 0.43569 0.54864 0.08892 0.0
H574 H 0.44764 0.59329 1.00087 0.0
H575 H 0.52099 0.62892 0.96217 0.0
Mn576 Mn 0.96055 0.00156 0.81856 0.0
Mn577 Mn 0.86196 -0.01002 0.88025 0.0
C578 C 0.90977 0.92018 0.81048 0.0
C579 C 0.99346 0.00929 0.75136 0.0
C580 C 0.97887 0.00504 0.91938 0.0
O581 O 0.94013 0.08254 0.82881 0.0
O582 O 0.86658 0.06911 0.8648 0.0
C583 C 0.76017 0.03022 0.83619 0.0
N584 N 0.79018 -0.0125 0.85387 0.0
C585 C 0.7014 0.93349 0.86077 0.0
C586 C 0.67643 0.97923 0.84069 0.0
C587 C 0.70553 0.02614 0.82884 0.0
C588 C 0.76714 0.9411 0.86733 0.0
H589 H 0.77791 0.06924 0.82833 0.0
C590 C 0.89908 0.09999 0.84619 0.0
O591 O 0.02375 0.0155 0.78655 0.0
O592 O 0.94422 0.01111 0.75557 0.0
N593 N 0.85701 0.91264 0.89112 0.0
C594 C 0.89431 0.87557 0.90122 0.0
C595 C 0.88311 0.825 0.92727 0.0
C596 C 0.83751 0.8038 0.93192 0.0
C597 C 0.80108 0.83065 0.90911 0.0
C598 C 0.81001 0.89494 0.88891 0.0
H599 H 0.93218 0.89365 0.90067 0.0
O600 O 0.95929 0.91849 0.80719 0.0
O601 O 0.89289 0.96781 0.82543 0.0
O602 O 0.99836 -0.00201 0.88225 0.0
O603 O 0.92971 -0.00099 0.92053 0.0
C604 C 0.74642 0.80278 0.90973 0.0
C605 C 0.67233 0.87013 0.8773 0.0
H606 H 0.63506 0.97913 0.83405 0.0
H607 H 0.68477 0.06172 0.81405 0.0
H608 H 0.90744 0.7994 0.94868 0.0
H609 H 0.83144 0.76601 0.95108 0.0
H610 H 0.74564 0.76043 0.92393 0.0
H611 H 0.63056 0.86523 0.87271 0.0
Mn612 Mn 0.81777 0.10293 0.53685 0.0
Mn613 Mn 0.75473 0.02236 0.45507 0.0
C614 C 0.73687 0.0416 0.55981 0.0
C615 C 0.84409 0.11137 0.61887 0.0
C616 C 0.76921 0.17008 0.41693 0.0
O617 O 0.87011 0.03648 0.534 0.0
O618 O 0.8438 0.00196 0.46773 0.0
C619 C 0.76574 0.91724 0.50746 0.0
N620 N 0.74782 0.94361 0.46918 0.0
C621 C 0.70866 0.85845 0.44278 0.0
C622 C 0.72608 0.83167 0.48247 0.0
C623 C 0.75534 0.86088 0.51452 0.0
C624 C 0.72254 0.91418 0.43604 0.0
H625 H 0.78839 0.93894 0.53261 0.0
C626 C 0.88065 0.00575 0.50175 0.0
O627 O 0.8616 0.1418 0.58928 0.0
O628 O 0.82057 0.07102 0.602 0.0
N629 N 0.71631 0.00031 0.39499 0.0
C630 C 0.67927 0.04056 0.36903 0.0
C631 C 0.63416 0.01802 0.34228 0.0
C632 C 0.62535 0.95725 0.34429 0.0
C633 C 0.6627 0.91898 0.36916 0.0
C634 C 0.70622 0.94218 0.39654 0.0
H635 H 0.68071 0.08517 0.37149 0.0
O636 O 0.75977 0.07928 0.58076 0.0
O637 O 0.76181 0.03405 0.52406 0.0
O638 O 0.79399 0.18344 0.4523 0.0
O639 O 0.74376 0.12192 0.41695 0.0
C640 C 0.6514 0.86264 0.37542 0.0
C641 C 0.67563 0.83212 0.41108 0.0
H642 H 0.71653 0.78868 0.48899 0.0
H643 H 0.76926 0.84016 0.54505 0.0
H644 H 0.60798 0.04588 0.32345 0.0
H645 H 0.59122 0.94052 0.32718 0.0
H646 H 0.6211 0.84337 0.35501 0.0
H647 H 0.665 0.78912 0.41602 0.0
Mn648 Mn 0.70432 0.98045 0.33211 0.0
Mn649 Mn 0.77782 0.05512 0.41309 0.0
C650 C 0.74824 0.07703 0.30966 0.0
C651 C 0.69598 0.95641 0.25144 0.0
C652 C 0.64546 0.0244 0.44866 0.0
O653 O 0.77321 0.93891 0.33581 0.0
O654 O 0.80596 0.96731 0.40319 0.0
C655 C 0.87205 0.05843 0.36379 0.0
N656 N 0.84786 0.07254 0.4009 0.0
C657 C 0.91291 0.13854 0.42038 0.0
C658 C 0.93822 0.12508 0.3823 0.0
C659 C 0.91906 0.0828 0.35505 0.0
C660 C 0.87213 0.10502 0.43257 0.0
H661 H 0.8551 0.02951 0.3404 0.0
C662 C 0.80522 0.93255 0.36892 0.0
O663 O 0.668 0.93401 0.27859 0.0
O664 O 0.73631 0.97364 0.27156 0.0
N665 N 0.79734 0.09335 0.47392 0.0
C666 C 0.75655 0.12544 0.49826 0.0
C667 C 0.77164 0.17338 0.52617 0.0
C668 C 0.82515 0.19256 0.52597 0.0
C669 C 0.86426 0.16335 0.50028 0.0
C670 C 0.84893 0.11338 0.47331 0.0
H671 H 0.71577 0.11871 0.49487 0.0
O672 O 0.70905 0.05542 0.29138 0.0
O673 O 0.76317 0.04627 0.34391 0.0
O674 O 0.6364 -0.00951 0.41679 0.0
O675 O 0.68861 0.05486 0.44844 0.0
C676 C 0.90191 0.19828 0.48372 0.0
C677 C 0.92377 0.18742 0.44346 0.0
H678 H 0.97213 0.14757 0.37344 0.0
H679 H 0.9386 0.07172 0.32578 0.0
H680 H 0.7431 0.19551 0.5437 0.0
H681 H 0.83506 0.23107 0.5421 0.0
H682 H 0.91053 0.23761 0.49935 0.0
H683 H 0.95019 0.21723 0.43048 0.0
Mn684 Mn 0.74194 0.81228 0.09784 0.0
Mn685 Mn 0.76161 0.95541 0.06446 0.0
C686 C 0.82687 0.86654 0.11196 0.0
C687 C 0.79114 0.77277 0.16027 0.0
C688 C 0.71554 0.85577 1.00413 0.0
O689 O 0.67261 0.85151 0.09714 0.0
O690 O 0.73753 0.90437 0.1088 0.0
C691 C 0.80725 -0.002 0.1505 0.0
N692 N 0.78744 0.00725 0.10821 0.0
C693 C 0.7959 0.10638 0.11692 0.0
C694 C 0.81824 0.0974 0.15972 0.0
C695 C 0.8257 0.04293 0.176 0.0
C696 C 0.7831 0.05981 0.09135 0.0
H697 H 0.80772 0.9571 0.16549 0.0
C698 C 0.68916 0.90014 0.10196 0.0
O699 O 0.80176 0.76279 0.11962 0.0
O700 O 0.7498 0.8016 0.16346 0.0
N701 N 0.75314 0.01947 0.02548 0.0
C702 C 0.72857 0.02333 0.98437 0.0
C703 C 0.72482 0.07466 0.96166 0.0
C704 C 0.74071 0.12296 0.98344 0.0
C705 C 0.75939 0.11927 0.0278 0.0
C706 C 0.76581 0.06618 0.04759 0.0
H707 H 0.70913 -0.01153 0.96986 0.0
O708 O 0.82583 0.81776 0.09584 0.0
O709 O 0.78194 0.88829 0.10548 0.0
O710 O 0.73143 0.81342 0.02798 0.0
O711 O 0.73008 0.90515 1.01575 0.0
C712 C 0.77001 0.16641 0.05348 0.0
C713 C 0.78733 0.15998 0.09825 0.0
H714 H 0.82987 0.13208 0.18022 0.0
H715 H 0.84218 0.0356 0.20937 0.0
H716 H 0.70675 0.07739 0.92847 0.0
H717 H 0.73584 0.16289 0.96658 0.0
H718 H 0.7647 0.20784 0.0392 0.0
H719 H 0.796 0.19646 0.11765 0.0
Mn720 Mn 0.31936 0.61361 0.03492 0.0
Mn721 Mn 0.26244 0.52423 0.95497 0.0
C722 C 0.23692 0.5563 0.05733 0.0
C723 C 0.3427 0.62859 0.11611 0.0
C724 C 0.27218 0.66957 0.91143 0.0
O725 O 0.37325 0.54692 0.03401 0.0
O726 O 0.35062 0.50585 0.96901 0.0
C727 C 0.27366 0.42053 1.00766 0.0
N728 N 0.25836 0.44543 0.96819 0.0
C729 C 0.22584 0.35815 0.9398 0.0
C730 C 0.24067 0.33276 0.98074 0.0
C731 C 0.26583 0.36361 1.01421 0.0
C732 C 0.23779 0.41447 0.93339 0.0
H733 H 0.29186 0.44418 0.03417 0.0
C734 C 0.38579 0.51306 1.00413 0.0
O735 O 0.36003 0.65844 0.08614 0.0
O736 O 0.32354 0.58489 0.10056 0.0
N737 N 0.22664 0.50067 0.89321 0.0
C738 C 0.18601 0.53912 0.86893 0.0
C739 C 0.14166 0.51396 0.84296 0.0
C740 C 0.13809 0.45242 0.84298 0.0
C741 C 0.17993 0.41626 0.86465 0.0
C742 C 0.22154 0.44183 0.89298 0.0
H743 H 0.18474 0.58359 0.87139 0.0
O744 O 0.25671 0.5978 0.07566 0.0
O745 O 0.2656 0.54179 0.02457 0.0
O746 O 0.29637 0.68662 0.94601 0.0
O747 O 0.24861 0.62028 0.91338 0.0
C748 C 0.17212 0.35906 0.87029 0.0
C749 C 0.19625 0.32995 0.90676 0.0
H750 H 0.23219 0.28945 0.98712 0.0
H751 H 0.27774 0.34384 0.04566 0.0
H752 H 0.11144 0.53977 0.82692 0.0
H753 H 0.10391 0.43371 0.82744 0.0
H754 H 0.14335 0.33809 0.8494 0.0
H755 H 0.18726 0.28645 0.91153 0.0
Mn756 Mn 0.21413 0.4862 0.8285 0.0
Mn757 Mn 0.28657 0.5551 0.91393 0.0
C758 C 0.27565 0.57064 0.80574 0.0
C759 C 0.1865 0.47592 0.74608 0.0
C760 C 0.1571 0.51078 0.94942 0.0
O761 O 0.28003 0.44011 0.83035 0.0
O762 O 0.31743 0.46913 0.89706 0.0
C763 C 0.3855 0.5544 0.87093 0.0
N764 N 0.35629 0.57506 0.90294 0.0
C765 C 0.42073 0.64109 0.92311 0.0
C766 C 0.45228 0.61919 0.89173 0.0
C767 C 0.43632 0.57179 0.8686 0.0
C768 C 0.3781 0.61007 0.93386 0.0
H769 H 0.37062 0.52437 0.84765 0.0
C770 C 0.31568 0.43594 0.86097 0.0
O771 O 0.17443 0.44029 0.77419 0.0
O772 O 0.22631 0.50069 0.76148 0.0
N773 N 0.30185 0.59894 0.97249 0.0
C774 C 0.25893 0.63134 0.99365 0.0
C775 C 0.27125 0.68236 0.01916 0.0
C776 C 0.32411 0.70334 0.01974 0.0
C777 C 0.36543 0.67325 0.99724 0.0
C778 C 0.35277 0.62077 0.97266 0.0
H779 H 0.21842 0.62311 0.98806 0.0
O780 O 0.25054 0.538 0.78058 0.0
O781 O 0.27084 0.55254 0.84556 0.0
O782 O 0.14925 0.47965 0.91595 0.0
O783 O 0.19499 0.54869 0.94845 0.0
C784 C 0.40444 0.70691 0.98124 0.0
C785 C 0.43001 0.69221 0.94347 0.0
H786 H 0.48898 0.63799 0.88567 0.0
H787 H 0.46111 0.55181 0.84611 0.0
H788 H 0.24104 0.70617 0.03349 0.0
H789 H 0.33164 0.74379 0.03386 0.0
H790 H 0.41207 0.74729 0.99542 0.0
H791 H 0.45901 0.71969 0.93139 0.0
Mn792 Mn 0.27983 0.40502 0.57499 0.0
Mn793 Mn 0.19658 0.52147 0.55026 0.0
C794 C 0.30126 0.48929 0.53566 0.0
C795 C 0.34639 0.36805 0.6214 0.0
C796 C 0.18618 0.40422 0.50815 0.0
O797 O 0.22839 0.39294 0.62231 0.0
O798 O 0.23706 0.47404 0.59449 0.0
C799 C 0.23275 0.58734 0.62829 0.0
N800 N 0.22042 0.58483 0.58396 0.0
C801 C 0.25232 0.67765 0.57343 0.0
C802 C 0.26056 0.68244 0.61923 0.0
C803 C 0.25202 0.63663 0.64676 0.0
C804 C 0.23194 0.62773 0.55701 0.0
H805 H 0.23074 0.55086 0.64908 0.0
C806 C 0.2129 0.44274 0.61958 0.0
O807 O 0.31959 0.33626 0.59462 0.0
O808 O 0.33488 0.41983 0.62016 0.0
N809 N 0.21531 0.56595 0.49997 0.0
C810 C 0.20941 0.55399 0.4561 0.0
C811 C 0.22513 0.59214 0.4244 0.0
C812 C 0.2468 0.64231 0.43783 0.0
C813 C 0.24676 0.65701 0.48224 0.0
C814 C 0.22952 0.61757 0.51249 0.0
H815 H 0.19227 0.51614 0.44503 0.0
O816 O 0.32624 0.44311 0.53144 0.0
O817 O 0.26168 0.48245 0.55697 0.0
O818 O 0.22345 0.37874 0.53015 0.0
O819 O 0.17639 0.45678 0.51166 0.0
C820 C 0.26567 0.70802 0.49786 0.0
C821 C 0.26778 0.71869 0.54344 0.0
H822 H 0.27659 0.71981 0.63327 0.0
H823 H 0.26206 0.63873 0.68191 0.0
H824 H 0.2203 0.58322 0.38971 0.0
H825 H 0.26356 0.66894 0.4138 0.0
H826 H 0.27959 0.73885 0.47514 0.0
H827 H 0.28367 0.75753 0.55513 0.0
Mn828 Mn 0.45783 0.51284 0.31364 0.0
Mn829 Mn 0.37797 0.50887 0.40005 0.0
C830 C 0.40285 0.41185 0.34788 0.0
C831 C 0.53309 0.49999 0.27978 0.0
C832 C 0.49054 0.54066 0.41101 0.0
O833 O 0.40687 0.577 0.30716 0.0
O834 O 0.38312 0.58399 0.37585 0.0
C835 C 0.28559 0.5317 0.33825 0.0
N836 N 0.30851 0.50081 0.37264 0.0
C837 C 0.2242 0.44285 0.36779 0.0
C838 C 0.20467 0.4784 0.33453 0.0
C839 C 0.23562 0.52106 0.31945 0.0
C840 C 0.28538 0.45559 0.38781 0.0
H841 H 0.30494 0.56605 0.32413 0.0
C842 C 0.39186 0.60523 0.33884 0.0
O843 O 0.51952 0.46302 0.30913 0.0
O844 O 0.51059 0.54842 0.28013 0.0
N845 N 0.36965 0.4404 0.43269 0.0
C846 C 0.40259 0.41947 0.46527 0.0
C847 C 0.39379 0.36999 0.48934 0.0
C848 C 0.3482 0.33997 0.48346 0.0
C849 C 0.30941 0.36029 0.45434 0.0
C850 C 0.32296 0.41923 0.4258 0.0
H851 H 0.4352 0.44315 0.47407 0.0
O852 O 0.40536 0.46472 0.34709 0.0
O853 O 0.40427 0.46623 0.34806 0.0
O854 O 0.49641 0.54591 0.36978 0.0
O855 O 0.44969 0.51897 0.42581 0.0
C856 C 0.25118 0.32816 0.44669 0.0
C857 C 0.19043 0.38679 0.38601 0.0
H858 H 0.16631 0.47241 0.31942 0.0
H859 H 0.22014 0.54779 0.29259 0.0
H860 H 0.42248 0.35585 0.51459 0.0
H861 H 0.34252 0.30244 0.50258 0.0
H862 H 0.24494 0.28971 0.46542 0.0
H863 H 0.15114 0.38021 0.37203 0.0
C864 C 0.01455 0.02131 0.96181 0.0
N865 N 0.0065 0.96659 0.12811 0.0
C866 C 0.97982 0.97099 0.08054 0.0
C867 C 0.89103 0.92492 0.07797 0.0
C868 C 0.87653 0.89948 0.12628 0.0
C869 C 0.92085 0.90962 0.17405 0.0
C870 C 0.98228 0.9418 0.17279 0.0
Zn871 Zn 0.06203 -0.00955 0.07655 0.0
C872 C 0.09112 0.91691 1.01663 0.0
N873 N 0.15901 0.05863 1.00136 0.0
C874 C 0.17482 0.10829 0.98552 0.0
C875 C 0.19064 0.02267 0.02503 0.0
C876 C 0.23611 0.04011 0.0419 0.0
C877 C 0.25514 0.08838 0.02519 0.0
C878 C 0.22524 0.1239 0.99639 0.0
Zn879 Zn 0.09663 0.0453 0.02842 0.0
O880 O 0.01059 -0.0006 1.00039 0.0
C881 C 0.07597 0.12369 0.08553 0.0
O882 O 0.05221 0.05475 0.9604 0.0
H883 H 0.17799 -0.01478 0.04055 0.0
H884 H 0.98923 0.01034 0.06548 0.0
H885 H 0.14744 0.13739 0.96936 0.0
O886 O 0.05681 0.07824 0.09945 0.0
O887 O 0.09013 0.12677 0.04619 0.0
H888 H 0.0079 0.95773 0.15013 0.0
O889 O 0.14876 0.03872 0.09989 0.0
O890 O 0.10871 0.97416 0.13342 0.0
O891 O 0.1043 0.9649 1.00665 0.0
O892 O 0.07129 0.90806 0.05364 0.0
C893 C 0.14469 0.00849 0.13478 0.0
H894 H 0.8575 0.92818 0.05493 0.0
H895 H 0.89271 0.89988 0.152 0.0
H896 H 0.25618 0.01535 0.06806 0.0
H897 H 0.23911 0.16395 0.98576 0.0
C898 C 0.42958 0.76757 0.25334 0.0
N899 N 0.27756 0.70787 0.22318 0.0
C900 C 0.28917 0.73777 0.18678 0.0
C901 C 0.31305 0.71206 0.15281 0.0
C902 C 0.321 0.65453 0.15439 0.0
C903 C 0.30036 0.62324 0.18852 0.0
C904 C 0.27817 0.65117 0.22303 0.0
Zn905 Zn 0.30864 0.74688 0.27712 0.0
C906 C 0.3727 0.66088 0.33054 0.0
N907 N 0.38777 0.81288 0.38881 0.0
C908 C 0.39143 0.86916 0.38691 0.0
C909 C 0.37986 0.78563 0.42764 0.0
C910 C 0.36711 0.81527 0.46454 0.0
C911 C 0.3621 0.87325 0.46122 0.0
C912 C 0.37756 0.90052 0.42272 0.0
Zn913 Zn 0.35628 0.77551 0.33429 0.0
O914 O 0.38332 0.75821 0.2374 0.0
C915 C 0.28756 0.86349 0.28098 0.0
O916 O 0.43267 0.78093 0.29451 0.0
H917 H 0.37643 0.74096 0.42882 0.0
H918 H 0.28803 0.78247 0.18701 0.0
H919 H 0.39869 0.88998 0.35597 0.0
O920 O 0.27305 0.82481 0.25559 0.0
O921 O 0.32352 0.85369 0.31074 0.0
H922 H 0.26786 0.62786 0.25204 0.0
O923 O 0.2831 0.76745 0.37458 0.0
O924 O 0.23678 0.7346 0.31895 0.0
O925 O 0.38468 0.69915 0.35712 0.0
O926 O 0.34167 0.67042 0.2976 0.0
C927 C 0.23896 0.75026 0.35961 0.0
H928 H 0.32636 0.7372 0.12589 0.0
H929 H 0.30339 0.5783 0.18946 0.0
H930 H 0.35814 0.79269 0.49436 0.0
H931 H 0.3764 0.9454 0.41929 0.0
C932 C 0.53612 0.00071 0.66592 0.0
N933 N 0.60555 0.89477 0.57683 0.0
C934 C 0.63178 0.89516 0.61722 0.0
C935 C 0.63357 0.84784 0.64315 0.0
C936 C 0.60875 0.80192 0.62548 0.0
C937 C 0.59783 0.79838 0.57952 0.0
C938 C 0.59347 0.84756 0.55539 0.0
Zn939 Zn 0.57702 0.9668 0.56514 0.0
C940 C 0.46632 0.97474 0.57265 0.0
N941 N 0.57042 0.13377 0.58823 0.0
C942 C 0.53234 0.1664 0.60339 0.0
C943 C 0.61309 0.15781 0.57205 0.0
C944 C 0.61576 0.21464 0.56604 0.0
C945 C 0.56951 0.24401 0.5657 0.0
C946 C 0.53222 0.22381 0.59356 0.0
Zn947 Zn 0.57438 0.04845 0.58779 0.0
O948 O 0.5481 0.96226 0.6392 0.0
C949 C 0.68428 0.02569 0.5751 0.0
O950 O 0.55328 0.04856 0.65708 0.0
H951 H 0.64308 0.13385 0.55826 0.0
H952 H 0.64265 0.93399 0.63244 0.0
H953 H 0.50032 0.14775 0.61924 0.0
O954 O 0.66133 -0.01702 0.56229 0.0
O955 O 0.65957 0.0571 0.60036 0.0
H956 H 0.57503 0.84894 0.52232 0.0
O957 O 0.59956 0.0563 0.51403 0.0
O958 O 0.59421 0.96891 0.49662 0.0
O959 O 0.48294 0.02506 0.57998 0.0
O960 O 0.49898 0.94023 0.55879 0.0
C961 C 0.60969 0.01772 0.48696 0.0
H962 H 0.64497 0.85035 0.67815 0.0
H963 H 0.58546 0.76022 0.56437 0.0
H964 H 0.64631 0.22943 0.54635 0.0
H965 H 0.4988 0.24894 0.60009 0.0
C966 C 0.37303 0.15077 0.79834 0.0
N967 N 0.29024 0.22387 0.90071 0.0
C968 C 0.27988 0.16953 0.89457 0.0
C969 C 0.31238 0.13049 0.91617 0.0
C970 C 0.34853 0.14802 0.94944 0.0
C971 C 0.34792 0.20367 0.96239 0.0
C972 C 0.31672 0.24122 0.93796 0.0
Zn973 Zn 0.3246 0.2529 0.84777 0.0
C974 C 0.44654 0.25284 0.87153 0.0
N975 N 0.40578 0.30246 0.74033 0.0
C976 C 0.40329 0.26843 0.70483 0.0
C977 C 0.4078 0.35843 0.73489 0.0
C978 C 0.39336 0.38188 0.6938 0.0
C979 C 0.38017 0.34677 0.65827 0.0
C980 C 0.38973 0.29008 0.6633 0.0
Zn981 Zn 0.37271 0.27345 0.79441 0.0
O982 O 0.33907 0.16686 0.82433 0.0
C983 C 0.24454 0.26035 0.76585 0.0
O984 O 0.39531 0.18797 0.77705 0.0
H985 H 0.41315 0.38511 0.76304 0.0
H986 H 0.25587 0.15716 0.86599 0.0
H987 H 0.40338 0.22398 0.70833 0.0
O988 O 0.24588 0.25678 0.8083 0.0
O989 O 0.28944 0.26778 0.75003 0.0
H990 H 0.32275 0.28481 0.94367 0.0
O991 O 0.35658 0.36359 0.81941 0.0
O992 O 0.31545 0.33751 0.87538 0.0
O993 O 0.44844 0.27326 0.83254 0.0
O994 O 0.40176 0.24348 0.88517 0.0
C995 C 0.33728 0.37722 0.8561 0.0
H996 H 0.31072 0.088 0.90543 0.0
H997 H 0.37297 0.21868 0.98945 0.0
H998 H 0.38648 0.42633 0.69162 0.0
H999 H 0.37974 0.26158 0.63778 0.0
C1000 C 0.17413 0.97071 0.566 0.0
N1001 N 0.09167 0.05261 0.45701 0.0
C1002 C 0.13834 0.07755 0.45967 0.0
C1003 C 0.17117 0.07215 0.42518 0.0
C1004 C 0.15526 0.042 0.38729 0.0
C1005 C 0.10381 0.02494 0.38256 0.0
C1006 C 0.07228 0.03092 0.41813 0.0
Zn1007 Zn 0.0693 0.01514 0.51385 0.0
C1008 C 0.07115 0.88995 0.49594 0.0
N1009 N 0.03971 0.93847 0.63317 0.0
C1010 C 0.07575 0.94179 0.66792 0.0
C1011 C 0.98983 0.95142 0.63914 0.0
C1012 C 0.97446 0.96932 0.67892 0.0
C1013 C 0.01154 -0.01627 0.71163 0.0
C1014 C 0.06268 0.96641 0.70742 0.0
Zn1015 Zn 0.05774 0.96944 0.57396 0.0
O1016 O 0.15472 0.00172 0.53422 0.0
C1017 C 0.07201 0.10417 0.60634 0.0
O1018 O 0.14249 0.95241 0.59305 0.0
H1019 H 0.96051 0.94806 0.61356 0.0
H1020 H 0.15286 0.09497 0.49067 0.0
H1021 H 0.11562 0.93112 0.66414 0.0
O1022 O 0.07562 0.10493 0.56313 0.0
O1023 O 0.06188 0.05439 0.61948 0.0
H1024 H 0.03507 0.01112 0.41658 0.0
O1025 O 0.96476 0.97382 0.54452 0.0
O1026 O 0.97721 0.0084 0.48174 0.0
O1027 O 0.06193 0.88892 0.53715 0.0
O1028 O 0.07531 0.93735 0.47754 0.0
C1029 C 0.94269 -0.01219 0.50624 0.0
H1030 H 0.20985 0.08806 0.42974 0.0
H1031 H 0.08946 0.00296 0.35346 0.0
H1032 H 0.93349 0.97557 0.68228 0.0
H1033 H 0.09209 0.9724 0.73358 0.0
C1034 C 0.32591 0.78452 0.69865 0.0
N1035 N 0.43528 0.70349 0.80106 0.0
C1036 C 0.44813 0.64954 0.79335 0.0
C1037 C 0.49936 0.63236 0.79378 0.0
C1038 C 0.53672 0.67235 0.7891 0.0
C1039 C 0.52534 0.72632 0.80248 0.0
C1040 C 0.47398 0.74101 0.80891 0.0
Zn1041 Zn 0.35644 0.72764 0.79474 0.0
C1042 C 0.35309 0.84967 0.79379 0.0
N1043 N 0.19636 0.76684 0.77432 0.0
C1044 C 0.17476 0.81777 0.76533 0.0
C1045 C 0.16838 0.72587 0.79355 0.0
C1046 C 0.12358 0.73833 0.8136 0.0
C1047 C 0.10609 0.79271 0.81208 0.0
C1048 C 0.12723 0.83086 0.78245 0.0
Zn1049 Zn 0.27468 0.75037 0.7779 0.0
O1050 O 0.36422 0.76396 0.72329 0.0
C1051 C 0.29042 0.62706 0.78804 0.0
O1052 O 0.28059 0.77235 0.70929 0.0
H1053 H 0.18355 0.68506 0.80106 0.0
H1054 H 0.4199 0.61826 0.7866 0.0
H1055 H 0.1965 0.84973 0.74939 0.0
O1056 O 0.33679 0.64139 0.78638 0.0
O1057 O 0.25654 0.66139 0.77169 0.0
H1058 H 0.46582 0.78375 0.81602 0.0
O1059 O 0.26076 0.7296 0.84646 0.0
O1060 O 0.33868 0.69827 0.86208 0.0
O1061 O 0.30439 0.84184 0.78418 0.0
O1062 O 0.37928 0.80857 0.80928 0.0
C1063 C 0.29051 0.69791 0.87023 0.0
H1064 H 0.50798 0.58907 0.78853 0.0
H1065 H 0.55387 0.75876 0.80083 0.0
H1066 H 0.10677 0.70738 0.83474 0.0
H1067 H 0.11181 0.87269 0.77816 0.0
C1068 C 0.57382 0.91456 0.12838 0.0
N1069 N 0.62729 0.06887 0.15587 0.0
C1070 C 0.59797 0.05173 0.18956 0.0
C1071 C 0.61843 0.01198 0.22043 0.0
C1072 C 0.67067 -0.0038 0.21886 0.0
C1073 C 0.70131 0.03039 0.19403 0.0
C1074 C 0.67904 0.06761 0.16259 0.0
Zn1075 Zn 0.60579 0.02506 0.10024 0.0
C1076 C 0.66666 0.94552 0.07674 0.0
N1077 N 0.55239 0.94661 0.98499 0.0
C1078 C 0.50118 0.93686 0.98756 0.0
C1079 C 0.57357 0.95247 0.94507 0.0
C1080 C 0.5417 0.95778 0.90626 0.0
C1081 C 0.4879 0.95684 0.90891 0.0
C1082 C 0.4679 0.94292 0.94986 0.0
Zn1083 Zn 0.58778 -0.0145 0.03782 0.0
O1084 O 0.59967 0.95275 0.14613 0.0
C1085 C 0.51063 0.04849 0.07194 0.0
O1086 O 0.55746 0.92288 0.08758 0.0
H1087 H 0.61453 0.95957 0.94372 0.0
H1088 H 0.55686 0.05978 0.18792 0.0
H1089 H 0.48525 0.93184 0.01959 0.0
O1090 O 0.53483 0.04853 0.10901 0.0
O1091 O 0.52976 0.03146 0.03788 0.0
H1092 H 0.70211 0.08985 0.14008 0.0
O1093 O 0.61567 0.04825 0.99052 0.0
O1094 O 0.61381 0.0973 0.05058 0.0
O1095 O 0.64482 0.93695 0.03902 0.0
O1096 O 0.67509 -0.00532 0.09 0.0
C1097 C 0.61655 0.09601 1.00794 0.0
H1098 H 0.59351 -0.00727 0.24358 0.0
H1099 H 0.74142 0.02964 0.20158 0.0
H1100 H 0.55879 0.96658 0.87518 0.0
H1101 H 0.42675 0.94013 0.95347 0.0
C1102 C 0.2783 0.15185 0.30773 0.0
N1103 N 0.39989 0.22291 0.26238 0.0
C1104 C 0.41886 0.17115 0.25606 0.0
C1105 C 0.42027 0.15229 0.21305 0.0
C1106 C 0.40151 0.18765 0.1782 0.0
C1107 C 0.38505 0.241 0.18566 0.0
C1108 C 0.38587 0.25844 0.22859 0.0
Zn1109 Zn 0.35094 0.23847 0.3056 0.0
C1110 C 0.24579 0.26336 0.24357 0.0
N1111 N 0.23463 0.3064 0.3727 0.0
C1112 C 0.18552 0.28911 0.3983 0.0
C1113 C 0.26876 0.35781 0.38199 0.0
C1114 C 0.23421 0.41648 0.44358 0.0
C1115 C 0.18209 0.38657 0.46312 0.0
C1116 C 0.15984 0.32513 0.44135 0.0
Zn1117 Zn 0.2853 0.28275 0.32522 0.0
O1118 O 0.32564 0.15704 0.30114 0.0
C1119 C 0.38796 0.24881 0.38889 0.0
O1120 O 0.25477 0.19294 0.3249 0.0
H1121 H 0.30717 0.35296 0.37486 0.0
H1122 H 0.42644 0.14279 0.2839 0.0
H1123 H 0.16783 0.24986 0.38994 0.0
O1124 O 0.40441 0.22222 0.35684 0.0
O1125 O 0.34334 0.27052 0.38412 0.0
H1126 H 0.36828 0.2981 0.23516 0.0
O1127 O 0.31869 0.37792 0.31087 0.0
O1128 O 0.3844 0.32401 0.31393 0.0
O1129 O 0.22892 0.29279 0.27398 0.0
O1130 O 0.29188 0.24626 0.24824 0.0
C1131 C 0.36746 0.37328 0.31798 0.0
H1132 H 0.43146 0.10964 0.20726 0.0
H1133 H 0.36837 0.26758 0.15906 0.0
H1134 H 0.25166 0.45075 0.46218 0.0
H1135 H 0.13369 0.30204 0.46017 0.0
C1136 C 0.67958 0.47366 0.0695 0.0
N1137 N 0.59955 0.5523 0.95598 0.0
C1138 C 0.64975 0.56786 0.95671 0.0
C1139 C 0.67974 0.55624 0.92103 0.0
C1140 C 0.65736 0.53353 0.88174 0.0
C1141 C 0.60367 0.52556 0.87947 0.0
C1142 C 0.5756 0.53417 0.91738 0.0
Zn1143 Zn 0.57583 0.51859 1.01598 0.0
C1144 C 0.57724 0.39045 0.99671 0.0
N1145 N 0.55417 0.459 0.14543 0.0
C1146 C 0.59352 0.4465 0.17676 0.0
C1147 C 0.50897 0.48008 0.15843 0.0
C1148 C 0.50224 0.49107 0.20243 0.0
C1149 C 0.54235 0.48128 0.2347 0.0
C1150 C 0.58808 0.45692 0.22194 0.0
Zn1151 Zn 0.56367 0.47505 0.07808 0.0
O1152 O 0.66139 0.50477 0.03734 0.0
C1153 C 0.57463 0.61093 0.10779 0.0
O1154 O 0.6472 0.45654 0.09596 0.0
H1155 H 0.47872 0.49069 0.13417 0.0
H1156 H 0.66849 0.58314 0.98691 0.0
H1157 H 0.62973 0.42939 0.16752 0.0
O1158 O 0.57935 0.61115 0.06459 0.0
O1159 O 0.56683 0.56098 0.12109 0.0
H1160 H 0.53607 0.5205 0.9171 0.0
O1161 O 0.46905 0.4814 0.05164 0.0
O1162 O 0.48366 0.51327 0.98736 0.0
O1163 O 0.56878 0.38998 0.03855 0.0
O1164 O 0.58121 0.43862 0.97925 0.0
C1165 C 0.44819 0.49497 1.0122 0.0
H1166 H 0.72077 0.56286 0.92549 0.0
H1167 H 0.58423 0.50898 0.84995 0.0
H1168 H 0.46558 0.50809 0.21132 0.0
H1169 H 0.6199 0.44842 0.24585 0.0
C1170 C 0.80964 0.28274 0.20009 0.0
N1171 N 0.91297 0.1946 0.2928 0.0
C1172 C 0.91398 0.15858 0.2586 0.0
C1173 C 0.95284 0.16185 0.22957 0.0
C1174 C 0.98941 0.20323 0.23582 0.0
C1175 C 0.99289 0.2332 0.27502 0.0
C1176 C 0.95417 0.22683 0.30438 0.0
Zn1177 Zn 0.84295 0.22772 0.29802 0.0
C1178 C 0.85332 0.35162 0.29171 0.0
N1179 N 0.68615 0.27833 0.28753 0.0
C1180 C 0.66027 0.32738 0.27963 0.0
C1181 C 0.66537 0.23942 0.31452 0.0
C1182 C 0.63381 0.25552 0.34688 0.0
C1183 C 0.61074 0.30767 0.34391 0.0
C1184 C 0.61814 0.34048 0.30537 0.0
Zn1185 Zn 0.76407 0.25606 0.28112 0.0
O1186 O 0.84523 0.2576 0.22467 0.0
C1187 C 0.76798 0.13154 0.29202 0.0
O1188 O 0.76361 0.2801 0.21234 0.0
H1189 H 0.68027 0.19792 0.31859 0.0
H1190 H 0.88148 0.13286 0.24958 0.0
H1191 H 0.67445 0.35782 0.25673 0.0
O1192 O 0.81486 0.14353 0.29719 0.0
O1193 O 0.73807 0.16809 0.27248 0.0
H1194 H 0.95346 0.25336 0.33286 0.0
O1195 O 0.75843 0.23094 0.35177 0.0
O1196 O 0.83611 0.20152 0.36764 0.0
O1197 O 0.80337 0.34657 0.28651 0.0
O1198 O 0.87814 0.30828 0.30484 0.0
C1199 C 0.78827 0.20037 0.37622 0.0
H1200 H 0.95165 0.13586 0.2006 0.0
H1201 H 0.02316 0.26321 0.28142 0.0
H1202 H 0.6285 0.22721 0.3744 0.0
H1203 H 0.59765 0.37951 0.29973 0.0
C1204 C 0.05407 0.4091 0.62938 0.0
N1205 N 0.07698 0.57238 0.67002 0.0
C1206 C 0.05808 0.53776 0.70114 0.0
C1207 C 0.09317 0.50359 0.72673 0.0
C1208 C 0.14607 0.51377 0.7249 0.0
C1209 C 0.15977 0.56574 0.70707 0.0
C1210 C 0.12385 0.59521 0.67913 0.0
Zn1211 Zn 0.07698 0.52725 0.61175 0.0
C1212 C 0.16102 0.4569 0.61323 0.0
N1213 N 0.06031 0.44175 0.48879 0.0
C1214 C 0.01142 0.42135 0.48623 0.0
C1215 C 0.08063 0.46165 0.45088 0.0
C1216 C 0.05113 0.46606 0.41052 0.0
C1217 C 0.99885 0.45279 0.40913 0.0
C1218 C 0.97972 0.42819 0.44741 0.0
Zn1219 Zn 0.07742 0.48273 0.54963 0.0
O1220 O 0.06485 0.45141 0.65123 0.0
C1221 C 0.99021 0.54622 0.55557 0.0
O1222 O 0.04255 0.41633 0.58774 0.0
H1223 H 0.11712 0.48156 0.45216 0.0
H1224 H 0.01836 0.52471 0.69722 0.0
H1225 H 0.99349 0.40867 0.51599 0.0
O1226 O 1.00147 0.546 0.59705 0.0
O1227 O 0.01812 0.52279 0.52966 0.0
H1228 H 0.13644 0.62944 0.65899 0.0
O1229 O 0.11276 0.55164 0.51072 0.0
O1230 O 0.09427 0.60094 0.56767 0.0
O1231 O 0.13814 0.4375 0.57889 0.0
O1232 O 0.14917 0.50512 0.6253 0.0
C1233 C 0.10606 0.59963 0.52674 0.0
H1234 H 0.07951 0.46754 0.74426 0.0
H1235 H 0.19839 0.58132 0.71209 0.0
H1236 H 0.06772 0.48539 0.38211 0.0
H1237 H 0.93941 0.4182 0.44899 0.0
C1238 C 0.8755 0.6521 0.30531 0.0
N1239 N 0.78385 0.71097 0.40317 0.0
C1240 C 0.76587 0.65948 0.39299 0.0
C1241 C 0.7746 0.61613 0.42343 0.0
C1242 C 0.79811 0.62854 0.46468 0.0
C1243 C 0.80656 0.68425 0.47653 0.0
C1244 C 0.79949 0.72529 0.44469 0.0
Zn1245 Zn 0.81925 0.7497 0.35722 0.0
C1246 C 0.94023 0.75138 0.38592 0.0
N1247 N 0.90699 0.80955 0.2559 0.0
C1248 C 0.91883 0.77072 0.22589 0.0
C1249 C 0.87213 0.84992 0.2441 0.0
C1250 C 0.8332 0.83811 0.21273 0.0
C1251 C 0.83486 0.78687 0.19064 0.0
C1252 C 0.88051 0.75521 0.19436 0.0
Zn1253 Zn 0.86987 0.77196 0.30622 0.0
O1254 O 0.84115 0.6662 0.33177 0.0
C1255 C 0.74102 0.75604 0.27604 0.0
O1256 O 0.89559 0.69039 0.28371 0.0
H1257 H 0.8714 0.88851 0.26178 0.0
H1258 H 0.75268 0.65021 0.35933 0.0
H1259 H 0.95315 0.74508 0.23162 0.0
O1260 O 0.74089 0.75158 0.31801 0.0
O1261 O 0.78644 0.76385 0.26219 0.0
H1262 H 0.81425 0.76633 0.45136 0.0
O1263 O 0.85056 0.85876 0.3338 0.0
O1264 O 0.8033 0.83343 0.38641 0.0
O1265 O 0.94321 0.77066 0.34666 0.0
O1266 O 0.89491 0.74266 0.39896 0.0
C1267 C 0.82652 0.87309 0.36776 0.0
H1268 H 0.76604 0.5738 0.41411 0.0
H1269 H 0.82392 0.6956 0.50857 0.0
H1270 H 0.80161 0.86762 0.20705 0.0
H1271 H 0.88584 0.71874 0.17478 0.0
C1272 C 0.93288 0.25897 0.75304 0.0
N1273 N 0.78332 0.19129 0.72731 0.0
C1274 C 0.79803 0.22026 0.69167 0.0
C1275 C 0.82321 0.19373 0.65914 0.0
C1276 C 0.82657 0.13618 0.65916 0.0
C1277 C 0.80424 0.10562 0.69293 0.0
C1278 C 0.78359 0.13453 0.72788 0.0
Zn1279 Zn 0.81141 0.23673 0.77852 0.0
C1280 C 0.88096 0.15572 0.8354 0.0
N1281 N 0.89066 0.31242 0.88473 0.0
C1282 C 0.87827 0.36742 0.88303 0.0
C1283 C 0.88955 0.28274 0.92349 0.0
C1284 C 0.86741 0.30543 0.95979 0.0
C1285 C 0.84682 0.35946 0.95653 0.0
C1286 C 0.85331 0.39101 0.91765 0.0
Zn1287 Zn 0.86243 0.26992 0.83148 0.0
O1288 O 0.88665 0.24633 0.73927 0.0
C1289 C 0.78669 0.35375 0.77445 0.0
O1290 O 0.93716 0.27746 0.79261 0.0
H1291 H 0.89988 0.23938 0.92541 0.0
H1292 H 0.79958 0.26478 0.69224 0.0
H1293 H 0.88244 0.39164 0.85306 0.0
O1294 O 0.77082 0.31326 0.75158 0.0
O1295 O 0.82437 0.34474 0.803 0.0
H1296 H 0.77243 0.11193 0.75687 0.0
O1297 O 0.79013 0.26042 0.87256 0.0
O1298 O 0.74204 0.22636 0.81832 0.0
O1299 O 0.89705 0.19674 0.8572 0.0
O1300 O 0.84566 0.16231 0.80503 0.0
C1301 C 0.74568 0.24335 0.85835 0.0
H1302 H 0.84018 0.21825 0.63373 0.0
H1303 H 0.80472 0.0606 0.69316 0.0
H1304 H 0.86546 0.28024 0.9897 0.0
H1305 H 0.84054 0.43397 0.91436 0.0
C1306 C 0.78076 0.65301 0.77613 0.0
N1307 N 0.91283 0.71887 0.72907 0.0
C1308 C 0.93402 0.66879 0.74201 0.0
C1309 C 0.9506 0.63296 0.71049 0.0
C1310 C 0.94259 0.65053 0.66668 0.0
C1311 C 0.93931 0.70766 0.65693 0.0
C1312 C 0.91661 0.73974 0.68803 0.0
Zn1313 Zn 0.86007 0.74876 0.76502 0.0
C1314 C 0.75861 0.77608 0.71011 0.0
N1315 N 0.7101 0.79603 0.84007 0.0
C1316 C 0.66945 0.77022 0.87437 0.0
C1317 C 0.74297 0.84908 0.84739 0.0
C1318 C 0.7326 0.88885 0.92669 0.0
C1319 C 0.69312 0.85066 0.95558 0.0
C1320 C 0.66078 0.79536 0.92889 0.0
Zn1321 Zn 0.79076 0.77846 0.80367 0.0
O1322 O 0.82647 0.66185 0.76426 0.0
C1323 C 0.90984 0.7574 0.85032 0.0
O1324 O 0.75932 0.69208 0.79676 0.0
H1325 H 0.75196 0.86937 0.81673 0.0
H1326 H 0.92852 0.65259 0.77452 0.0
H1327 H 0.69314 0.7758 0.84754 0.0
O1328 O 0.91808 0.73695 0.81388 0.0
O1329 O 0.86102 0.76401 0.85777 0.0
H1330 H 0.89526 0.77692 0.67852 0.0
O1331 O 0.83196 0.86302 0.80703 0.0
O1332 O 0.89436 0.83489 0.76769 0.0
O1333 O 0.74722 0.80062 0.7452 0.0
O1334 O 0.80525 0.76062 0.70737 0.0
C1335 C 0.87631 0.87185 0.79297 0.0
H1336 H 0.95535 0.58941 0.71911 0.0
H1337 H 0.93664 0.72248 0.6228 0.0
H1338 H 0.75001 0.92417 0.9423 0.0
H1339 H 0.64059 0.76744 0.94946 0.0
C1340 C 0.53218 0.556 0.44532 0.0
N1341 N 0.4033 0.59425 0.5858 0.0
C1342 C 0.37179 0.61914 0.55246 0.0
C1343 C 0.33968 0.58236 0.52989 0.0
C1344 C 0.3275 0.53569 0.55467 0.0
C1345 C 0.3366 0.53728 0.60168 0.0
C1346 C 0.37491 0.57164 0.61762 0.0
Zn1347 Zn 0.52556 0.53034 0.55695 0.0
C1348 C 0.5321 0.43324 0.48728 0.0
N1349 N 0.66886 0.50731 0.50284 0.0
C1350 C 0.69965 0.55134 0.50593 0.0
C1351 C 0.67548 0.46248 0.53151 0.0
C1352 C 0.71596 0.4616 0.56409 0.0
C1353 C 0.74302 0.5104 0.5701 0.0
C1354 C 0.72664 0.558 0.54598 0.0
Zn1355 Zn 0.60406 0.54077 0.51324 0.0
O1356 O 0.52054 0.54557 0.48377 0.0
C1357 C 0.61294 0.63179 0.56945 0.0
O1358 O 0.57993 0.56516 0.4406 0.0
H1359 H 0.64749 0.42957 0.53172 0.0
H1360 H 0.3825 0.65692 0.53583 0.0
H1361 H 0.69163 0.58676 0.48401 0.0
O1362 O 0.57872 0.59697 0.57201 0.0
O1363 O 0.6379 0.62913 0.53509 0.0
H1364 H 0.38963 0.56747 0.65177 0.0
O1365 O 0.63165 0.51709 0.5891 0.0
O1366 O 0.56522 0.4968 0.62522 0.0
O1367 O 0.57455 0.45845 0.48387 0.0
O1368 O 0.50658 0.44503 0.52175 0.0
C1369 C 0.61406 0.50351 0.62604 0.0
H1370 H 0.32893 0.58755 0.49496 0.0
H1371 H 0.31769 0.51191 0.62513 0.0
H1372 H 0.72353 0.42576 0.58571 0.0
H1373 H 0.73643 0.59937 0.55673 0.0
C1374 C 0.02799 0.5155 0.15918 0.0
N1375 N 0.14196 0.4221 0.10994 0.0
C1376 C 0.14799 0.44118 0.15237 0.0
C1377 C 0.16441 0.40377 0.18579 0.0
C1378 C 0.16908 0.34942 0.17181 0.0
C1379 C 0.19249 0.34386 0.13106 0.0
C1380 C 0.17381 0.38055 0.09784 0.0
Zn1381 Zn 0.08838 0.46329 0.07176 0.0
C1382 C 0.97327 0.45404 0.06966 0.0
N1383 N 0.05286 0.62644 0.04912 0.0
C1384 C 0.08274 0.67214 0.06449 0.0
C1385 C 0.04399 0.61813 1.00388 0.0
C1386 C 0.06463 0.65516 0.97433 0.0
C1387 C 0.08282 0.70583 0.98838 0.0
C1388 C 0.09577 0.71311 0.03384 0.0
Zn1389 Zn 0.06966 0.54693 0.07539 0.0
O1390 O 0.04771 0.47408 0.13981 0.0
C1391 C 0.18327 0.54174 0.0707 0.0
O1392 O 0.038 0.56327 0.14253 0.0
H1393 H 0.03537 0.60804 0.03684 0.0
H1394 H 0.13548 0.48241 0.16069 0.0
H1395 H 0.09478 0.67524 0.09923 0.0
O1396 O 0.16805 0.49279 0.06963 0.0
O1397 O 0.1515 0.57749 0.08512 0.0
H1398 H 0.17878 0.37207 0.0634 0.0
O1399 O 0.10249 0.53621 1.00796 0.0
O1400 O 0.11987 0.44906 1.00522 0.0
O1401 O 0.98359 0.5068 0.06518 0.0
O1402 O 0.0124 0.42074 0.06945 0.0
C1403 C 0.12389 0.4978 0.98811 0.0
H1404 H 0.15886 0.4134 0.22005 0.0
H1405 H 0.20999 0.30562 0.12105 0.0
H1406 H 0.05711 0.64816 0.93924 0.0
H1407 H 0.11116 0.75222 0.04564 0.0
loop_
_geom_bond_atom_site_label_1
_geom_bond_atom_site_label_2
_geom_bond_distance
_geom_bond_site_symmetry_2
_ccdc_geom_bond_type
Mn0 O5 2.095 . S
Mn0 O15 2.162 . S
Mn0 O16 2.297 . S
Mn0 O24 2.385 . S
Mn0 O25 2.209 . S
Mn0 O26 2.094 . S
Mn1 O6 2.121 . S
Mn1 N8 2.257 . S
Mn1 N17 2.282 . S
Mn1 O25 2.215 . S
Mn1 O27 2.117 . S
C2 O24 1.234 . S
C2 O25 1.283 . S
C3 O15 1.281 . S
C3 O16 1.236 . S
C4 O26 1.240 . S
C4 O27 1.264 . S
O5 Mn0 2.095 . S
O5 C14 1.250 . S
O6 Mn1 2.121 . S
O6 C14 1.258 . S
C7 N8 1.326 . S
C7 C11 1.460 1_554 S
C7 H13 0.929 . S
N8 Mn1 2.257 . S
N8 C7 1.326 . S
N8 C12 1.362 . S
C9 C10 1.258 . S
C9 C12 1.431 1_556 S
C9 C29 1.449 . S
C10 C9 1.258 . S
C10 C11 1.477 . S
C10 H30 0.931 . S
C11 C7 1.460 1_556 S
C11 C10 1.477 . S
C11 H31 0.930 . S
C12 N8 1.362 . S
C12 C9 1.431 1_554 S
C12 C22 1.476 . S
H13 C7 0.929 . S
C14 O5 1.250 . S
C14 O6 1.258 . S
O15 Mn0 2.162 . S
O15 C3 1.281 . S
O16 Mn0 2.297 . S
O16 C3 1.236 . S
N17 Mn1 2.282 . S
N17 C18 1.328 1_455 S
N17 C22 1.318 . S
C18 N17 1.328 1_655 S
C18 C19 1.457 1_545 S
C18 H23 0.928 . S
C19 C18 1.457 1_565 S
C19 C20 1.291 . S
C19 H32 0.931 . S
C20 C19 1.291 . S
C20 C21 1.373 1_565 S
C20 H33 0.929 . S
C21 C20 1.373 1_545 S
C21 C22 1.396 1_655 S
C21 C28 1.403 1_545 S
C22 C12 1.476 . S
C22 N17 1.318 . S
C22 C21 1.396 1_455 S
H23 C18 0.928 . S
O24 Mn0 2.385 . S
O24 C2 1.234 . S
O25 Mn0 2.209 . S
O25 Mn1 2.215 . S
O25 C2 1.283 . S
O26 Mn0 2.094 . S
O26 C4 1.240 . S
O27 Mn1 2.117 . S
O27 C4 1.264 . S
C28 C21 1.403 1_565 S
C28 C29 1.399 1_664 S
C28 H34 0.929 . S
C29 C9 1.449 . S
C29 C28 1.399 1_446 S
C29 H35 0.930 . S
H30 C10 0.931 . S
H31 C11 0.930 . S
H32 C19 0.931 . S
H33 C20 0.929 . S
H34 C28 0.929 . S
H35 C29 0.930 . S
Mn36 O41 2.095 . S
Mn36 O51 2.162 . S
Mn36 O52 2.297 . S
Mn36 O60 2.385 . S
Mn36 O61 2.209 . S
Mn36 O62 2.094 . S
Mn37 O42 2.121 1_655 S
Mn37 N44 2.257 1_655 S
Mn37 N53 2.282 . S
Mn37 O61 2.215 1_655 S
Mn37 O63 2.117 . S
C38 O60 1.234 . S
C38 O61 1.283 . S
C39 O51 1.281 . S
C39 O52 1.236 . S
C40 O62 1.240 1_655 S
C40 O63 1.264 . S
O41 Mn36 2.095 . S
O41 C50 1.250 . S
O42 Mn37 2.121 1_455 S
O42 C50 1.258 . S
C43 N44 1.326 . S
C43 C47 1.460 . S
C43 H49 0.929 . S
N44 Mn37 2.257 1_455 S
N44 C43 1.326 . S
N44 C48 1.362 1_455 S
C45 C46 1.258 1_655 S
C45 C48 1.431 . S
C45 C65 1.449 . S
C46 C45 1.258 1_455 S
C46 C47 1.477 . S
C46 H66 0.931 . S
C47 C43 1.460 . S
C47 C46 1.477 . S
C47 H67 0.930 . S
C48 N44 1.362 1_655 S
C48 C45 1.431 . S
C48 C58 1.476 . S
H49 C43 0.929 . S
C50 O41 1.250 . S
C50 O42 1.258 . S
O51 Mn36 2.162 . S
O51 C39 1.281 . S
O52 Mn36 2.297 . S
O52 C39 1.236 . S
N53 Mn37 2.282 . S
N53 C54 1.328 . S
N53 C58 1.318 . S
C54 N53 1.328 . S
C54 C55 1.457 . S
C54 H59 0.929 . S
C55 C54 1.457 . S
C55 C56 1.291 . S
C55 H68 0.931 . S
C56 C55 1.291 . S
C56 C57 1.373 . S
C56 H69 0.929 1_565 S
C57 C56 1.373 . S
C57 C58 1.396 . S
C57 C64 1.403 . S
C58 C48 1.476 . S
C58 N53 1.318 . S
C58 C57 1.396 . S
H59 C54 0.929 . S
O60 Mn36 2.385 . S
O60 C38 1.234 . S
O61 Mn36 2.209 . S
O61 Mn37 2.215 1_455 S
O61 C38 1.283 . S
O62 Mn36 2.094 . S
O62 C40 1.240 1_455 S
O63 Mn37 2.117 . S
O63 C40 1.264 . S
C64 C57 1.403 . S
C64 C65 1.399 . S
C64 H70 0.915 1_565 S
C65 C45 1.449 . S
C65 C64 1.399 . S
C65 H71 0.930 . S
H66 C46 0.931 . S
H67 C47 0.930 . S
H68 C55 0.931 . S
H69 C56 0.929 1_545 S
H70 C64 0.915 1_545 S
H71 C65 0.930 . S
Mn72 O77 2.095 . S
Mn72 O87 2.162 . S
Mn72 O88 2.297 . S
Mn72 O96 2.385 . S
Mn72 O97 2.209 . S
Mn72 O98 2.094 . S
Mn73 O78 2.121 . S
Mn73 N80 2.257 . S
Mn73 N89 2.282 . S
Mn73 O97 2.215 . S
Mn73 O99 2.117 . S
C74 O96 1.234 . S
C74 O97 1.283 . S
C75 O87 1.281 . S
C75 O88 1.236 . S
C76 O98 1.240 . S
C76 O99 1.264 . S
O77 Mn72 2.095 . S
O77 C86 1.250 . S
O78 Mn73 2.121 . S
O78 C86 1.258 . S
C79 N80 1.326 . S
C79 C83 1.460 . S
C79 H85 0.929 . S
N80 Mn73 2.257 . S
N80 C79 1.326 . S
N80 C84 1.362 . S
C81 C82 1.258 . S
C81 C84 1.431 . S
C81 C101 1.449 . S
C82 C81 1.258 . S
C82 C83 1.477 . S
C82 H102 0.931 . S
C83 C79 1.460 . S
C83 C82 1.477 . S
C83 H103 0.930 . S
C84 N80 1.362 . S
C84 C81 1.431 . S
C84 C94 1.476 . S
H85 C79 0.929 . S
C86 O77 1.250 . S
C86 O78 1.258 . S
O87 Mn72 2.162 . S
O87 C75 1.281 . S
O88 Mn72 2.297 . S
O88 C75 1.236 . S
N89 Mn73 2.282 . S
N89 C90 1.328 . S
N89 C94 1.318 . S
C90 N89 1.328 . S
C90 C91 1.457 . S
C90 H95 0.929 . S
C91 C90 1.457 . S
C91 C92 1.291 . S
C91 H104 0.931 . S
C92 C91 1.291 . S
C92 C93 1.373 . S
C92 H105 0.929 . S
C93 C92 1.373 . S
C93 C94 1.396 . S
C93 C100 1.403 . S
C94 C84 1.476 . S
C94 N89 1.318 . S
C94 C93 1.396 . S
H95 C90 0.929 . S
O96 Mn72 2.385 . S
O96 C74 1.234 . S
O97 Mn72 2.209 . S
O97 Mn73 2.215 . S
O97 C74 1.283 . S
O98 Mn72 2.094 . S
O98 C76 1.240 . S
O99 Mn73 2.117 . S
O99 C76 1.264 . S
C100 C93 1.403 . S
C100 C101 1.399 . S
C100 H106 0.929 . S
C101 C81 1.449 . S
C101 C100 1.399 . S
C101 H107 0.930 . S
H102 C82 0.931 . S
H103 C83 0.930 . S
H104 C91 0.931 . S
H105 C92 0.929 . S
H106 C100 0.929 . S
H107 C101 0.930 . S
Mn108 O113 2.095 . S
Mn108 O123 2.162 . S
Mn108 O124 2.297 . S
Mn108 O132 2.385 . S
Mn108 O133 2.209 . S
Mn108 O134 2.094 . S
Mn109 O114 2.121 . S
Mn109 N116 2.257 1_556 S
Mn109 N125 2.282 . S
Mn109 O133 2.215 . S
Mn109 O135 2.117 . S
C110 O132 1.234 . S
C110 O133 1.283 . S
C111 O123 1.281 . S
C111 O124 1.236 . S
C112 O134 1.240 . S
C112 O135 1.264 . S
O113 Mn108 2.095 . S
O113 C122 1.250 . S
O114 Mn109 2.121 . S
O114 C122 1.258 . S
C115 N116 1.326 . S
C115 C119 1.460 . S
C115 H121 0.929 . S
N116 Mn109 2.257 1_554 S
N116 C115 1.326 . S
N116 C120 1.362 . S
C117 C118 1.258 . S
C117 C120 1.431 . S
C117 C137 1.449 . S
C118 C117 1.258 . S
C118 C119 1.477 . S
C118 H138 0.931 . S
C119 C115 1.460 . S
C119 C118 1.477 . S
C119 H139 0.930 . S
C120 N116 1.362 . S
C120 C117 1.431 . S
C120 C130 1.476 . S
H121 C115 0.929 . S
C122 O113 1.250 . S
C122 O114 1.258 . S
O123 Mn108 2.162 . S
O123 C111 1.281 . S
O124 Mn108 2.297 . S
O124 C111 1.236 . S
N125 Mn109 2.282 . S
N125 C126 1.328 . S
N125 C130 1.318 1_556 S
C126 N125 1.328 . S
C126 C127 1.457 . S
C126 H131 0.929 . S
C127 C126 1.457 . S
C127 C128 1.291 1_556 S
C127 H140 0.931 . S
C128 C127 1.291 1_554 S
C128 C129 1.373 . S
C128 H141 0.929 . S
C129 C128 1.373 . S
C129 C130 1.396 . S
C129 C136 1.403 . S
C130 C120 1.476 . S
C130 N125 1.318 1_554 S
C130 C129 1.396 . S
H131 C126 0.929 . S
O132 Mn108 2.385 . S
O132 C110 1.234 . S
O133 Mn108 2.209 . S
O133 Mn109 2.215 . S
O133 C110 1.283 . S
O134 Mn108 2.094 . S
O134 C112 1.240 . S
O135 Mn109 2.117 . S
O135 C112 1.264 . S
C136 C129 1.403 . S
C136 C137 1.399 . S
C136 H142 0.929 . S
C137 C117 1.449 . S
C137 C136 1.399 . S
C137 H143 0.930 . S
H138 C118 0.931 . S
H139 C119 0.930 . S
H140 C127 0.931 . S
H141 C128 0.929 . S
H142 C136 0.929 . S
H143 C137 0.930 . S
Mn144 O149 2.095 1_545 S
Mn144 O159 2.162 . S
Mn144 O160 2.297 . S
Mn144 O168 2.385 . S
Mn144 O169 2.209 . S
Mn144 O170 2.094 . S
Mn145 O150 2.121 1_545 S
Mn145 N152 2.257 . S
Mn145 N161 2.282 . S
Mn145 O169 2.215 . S
Mn145 O171 2.117 . S
C146 O168 1.234 . S
C146 O169 1.283 . S
C147 O159 1.281 . S
C147 O160 1.236 . S
C148 O170 1.240 . S
C148 O171 1.264 . S
O149 Mn144 2.095 1_565 S
O149 C158 1.250 . S
O150 Mn145 2.121 1_565 S
O150 C158 1.258 . S
C151 N152 1.326 . S
C151 C155 1.460 . S
C151 H157 0.929 . S
N152 Mn145 2.257 . S
N152 C151 1.326 . S
N152 C156 1.362 . S
C153 C154 1.258 . S
C153 C156 1.431 . S
C153 C173 1.449 . S
C154 C153 1.258 . S
C154 C155 1.477 . S
C154 H174 0.931 . S
C155 C151 1.460 . S
C155 C154 1.477 . S
C155 H175 0.930 . S
C156 N152 1.362 . S
C156 C153 1.431 . S
C156 C166 1.476 . S
H157 C151 0.929 . S
C158 O149 1.250 . S
C158 O150 1.258 . S
O159 Mn144 2.162 . S
O159 C147 1.281 . S
O160 Mn144 2.297 . S
O160 C147 1.236 . S
N161 Mn145 2.282 . S
N161 C162 1.328 . S
N161 C166 1.318 . S
C162 N161 1.328 . S
C162 C163 1.457 . S
C162 H167 0.929 . S
C163 C162 1.457 . S
C163 C164 1.291 . S
C163 H176 0.931 . S
C164 C163 1.291 . S
C164 C165 1.373 . S
C164 H177 0.929 . S
C165 C164 1.373 . S
C165 C166 1.396 . S
C165 C172 1.403 . S
C166 C156 1.476 . S
C166 N161 1.318 . S
C166 C165 1.396 . S
H167 C162 0.929 . S
O168 Mn144 2.385 . S
O168 C146 1.234 . S
O169 Mn144 2.209 . S
O169 Mn145 2.215 . S
O169 C146 1.283 . S
O170 Mn144 2.094 . S
O170 C148 1.240 . S
O171 Mn145 2.117 . S
O171 C148 1.264 . S
C172 C165 1.403 . S
C172 C173 1.399 . S
C172 H178 0.929 . S
C173 C153 1.449 . S
C173 C172 1.399 . S
C173 H179 0.930 . S
H174 C154 0.931 . S
H175 C155 0.930 . S
H176 C163 0.931 . S
H177 C164 0.929 . S
H178 C172 0.929 . S
H179 C173 0.930 . S
Mn180 O185 2.095 . S
Mn180 O195 2.162 . S
Mn180 O196 2.297 . S
Mn180 O204 2.385 . S
Mn180 O205 2.209 . S
Mn180 O206 2.094 . S
Mn181 O186 2.121 . S
Mn181 N188 2.257 . S
Mn181 N197 2.282 . S
Mn181 O205 2.215 1_545 S
Mn181 O207 2.117 1_545 S
C182 O204 1.234 . S
C182 O205 1.283 . S
C183 O195 1.281 . S
C183 O196 1.236 . S
C184 O206 1.240 . S
C184 O207 1.264 . S
O185 Mn180 2.095 . S
O185 C194 1.250 . S
O186 Mn181 2.121 . S
O186 C194 1.258 1_545 S
C187 N188 1.326 . S
C187 C191 1.460 . S
C187 H193 0.929 . S
N188 Mn181 2.257 . S
N188 C187 1.326 . S
N188 C192 1.362 . S
C189 C190 1.258 . S
C189 C192 1.431 . S
C189 C209 1.449 . S
C190 C189 1.258 . S
C190 C191 1.477 . S
C190 H210 0.931 . S
C191 C187 1.460 . S
C191 C190 1.477 . S
C191 H211 0.930 . S
C192 N188 1.362 . S
C192 C189 1.431 . S
C192 C202 1.476 . S
H193 C187 0.929 . S
C194 O185 1.250 . S
C194 O186 1.258 1_565 S
O195 Mn180 2.162 . S
O195 C183 1.281 . S
O196 Mn180 2.297 . S
O196 C183 1.236 . S
N197 Mn181 2.282 . S
N197 C198 1.328 1_545 S
N197 C202 1.318 . S
C198 N197 1.328 1_565 S
C198 C199 1.457 1_565 S
C198 H203 0.929 . S
C199 C198 1.457 1_545 S
C199 C200 1.291 . S
C199 H212 0.931 1_545 S
C200 C199 1.291 . S
C200 C201 1.373 . S
C200 H213 0.929 . S
C201 C200 1.373 . S
C201 C202 1.396 . S
C201 C208 1.403 . S
C202 C192 1.476 . S
C202 N197 1.318 . S
C202 C201 1.396 . S
H203 C198 0.929 . S
O204 Mn180 2.385 . S
O204 C182 1.234 . S
O205 Mn180 2.209 . S
O205 Mn181 2.215 1_565 S
O205 C182 1.283 . S
O206 Mn180 2.094 . S
O206 C184 1.240 . S
O207 Mn181 2.117 1_565 S
O207 C184 1.264 . S
C208 C201 1.403 . S
C208 C209 1.399 . S
C208 H214 0.929 . S
C209 C189 1.449 . S
C209 C208 1.399 . S
C209 H215 0.930 . S
H210 C190 0.931 . S
H211 C191 0.930 . S
H212 C199 0.931 1_565 S
H213 C200 0.929 . S
H214 C208 0.929 . S
H215 C209 0.930 . S
Mn216 O221 2.095 . S
Mn216 O231 2.162 . S
Mn216 O232 2.297 . S
Mn216 O240 2.385 1_545 S
Mn216 O241 2.209 1_545 S
Mn216 O242 2.094 . S
Mn217 O222 2.121 . S
Mn217 N224 2.257 1_545 S
Mn217 N233 2.282 1_545 S
Mn217 O241 2.215 1_545 S
Mn217 O243 2.117 . S
C218 O240 1.234 . S
C218 O241 1.283 . S
C219 O231 1.281 . S
C219 O232 1.236 . S
C220 O242 1.240 . S
C220 O243 1.264 . S
O221 Mn216 2.095 . S
O221 C230 1.250 . S
O222 Mn217 2.121 . S
O222 C230 1.258 . S
C223 N224 1.326 1_545 S
C223 C227 1.460 . S
C223 H229 0.929 . S
N224 Mn217 2.257 1_565 S
N224 C223 1.326 1_565 S
N224 C228 1.362 . S
C225 C226 1.258 . S
C225 C228 1.431 . S
C225 C245 1.449 . S
C226 C225 1.258 . S
C226 C227 1.477 1_565 S
C226 H246 0.931 . S
C227 C223 1.460 . S
C227 C226 1.477 1_545 S
C227 H247 0.930 . S
C228 N224 1.362 . S
C228 C225 1.431 . S
C228 C238 1.476 . S
H229 C223 0.929 . S
C230 O221 1.250 . S
C230 O222 1.258 . S
O231 Mn216 2.162 . S
O231 C219 1.281 . S
O232 Mn216 2.297 . S
O232 C219 1.236 . S
N233 Mn217 2.282 1_565 S
N233 C234 1.328 . S
N233 C238 1.318 . S
C234 N233 1.328 . S
C234 C235 1.457 . S
C234 H239 0.929 . S
C235 C234 1.457 . S
C235 C236 1.291 . S
C235 H248 0.931 . S
C236 C235 1.291 . S
C236 C237 1.373 . S
C236 H249 0.929 . S
C237 C236 1.373 . S
C237 C238 1.396 . S
C237 C244 1.403 . S
C238 C228 1.476 . S
C238 N233 1.318 . S
C238 C237 1.396 . S
H239 C234 0.929 . S
O240 Mn216 2.385 1_565 S
O240 C218 1.234 . S
O241 Mn216 2.209 1_565 S
O241 Mn217 2.215 1_565 S
O241 C218 1.283 . S
O242 Mn216 2.094 . S
O242 C220 1.240 . S
O243 Mn217 2.117 . S
O243 C220 1.264 . S
C244 C237 1.403 . S
C244 C245 1.399 . S
C244 H250 0.929 . S
C245 C225 1.449 . S
C245 C244 1.399 . S
C245 H251 0.930 . S
H246 C226 0.931 . S
H247 C227 0.930 . S
H248 C235 0.931 . S
H249 C236 0.929 . S
H250 C244 0.929 . S
H251 C245 0.930 . S
Mn252 O257 2.095 . S
Mn252 O267 2.162 . S
Mn252 O268 2.297 . S
Mn252 O276 2.385 . S
Mn252 O277 2.209 . S
Mn252 O278 2.094 1_554 S
Mn253 O258 2.121 1_556 S
Mn253 N260 2.257 . S
Mn253 N269 2.282 . S
Mn253 O277 2.215 1_566 S
Mn253 O279 2.117 1_565 S
C254 O276 1.234 . S
C254 O277 1.283 . S
C255 O267 1.281 . S
C255 O268 1.236 . S
C256 O278 1.240 . S
C256 O279 1.264 . S
O257 Mn252 2.095 . S
O257 C266 1.250 . S
O258 Mn253 2.121 1_554 S
O258 C266 1.258 1_565 S
C259 N260 1.326 1_554 S
C259 C263 1.460 . S
C259 H265 0.929 . S
N260 Mn253 2.257 . S
N260 C259 1.326 1_556 S
N260 C264 1.362 . S
C261 C262 1.258 . S
C261 C264 1.431 . S
C261 C281 1.449 . S
C262 C261 1.258 . S
C262 C263 1.477 1_556 S
C262 H282 0.931 . S
C263 C259 1.460 . S
C263 C262 1.477 1_554 S
C263 H283 0.930 . S
C264 N260 1.362 . S
C264 C261 1.431 . S
C264 C274 1.476 . S
H265 C259 0.929 . S
C266 O257 1.250 . S
C266 O258 1.258 1_545 S
O267 Mn252 2.162 . S
O267 C255 1.281 . S
O268 Mn252 2.297 . S
O268 C255 1.236 . S
N269 Mn253 2.282 . S
N269 C270 1.328 1_565 S
N269 C274 1.318 . S
C270 N269 1.328 1_545 S
C270 C271 1.457 1_545 S
C270 H275 0.929 . S
C271 C270 1.457 1_565 S
C271 C272 1.291 . S
C271 H284 0.931 1_565 S
C272 C271 1.291 . S
C272 C273 1.373 . S
C272 H285 0.929 . S
C273 C272 1.373 . S
C273 C274 1.396 . S
C273 C280 1.403 . S
C274 C264 1.476 . S
C274 N269 1.318 . S
C274 C273 1.396 . S
H275 C270 0.929 . S
O276 Mn252 2.385 . S
O276 C254 1.234 . S
O277 Mn252 2.209 . S
O277 Mn253 2.215 1_544 S
O277 C254 1.283 . S
O278 Mn252 2.094 1_556 S
O278 C256 1.240 . S
O279 Mn253 2.117 1_545 S
O279 C256 1.264 . S
C280 C273 1.403 . S
C280 C281 1.399 . S
C280 H286 0.929 . S
C281 C261 1.449 . S
C281 C280 1.399 . S
C281 H287 0.930 . S
H282 C262 0.931 . S
H283 C263 0.930 . S
H284 C271 0.931 1_545 S
H285 C272 0.929 . S
H286 C280 0.929 . S
H287 C281 0.930 . S
Mn288 O293 2.095 . S
Mn288 O303 2.162 . S
Mn288 O304 2.297 . S
Mn288 O312 2.385 . S
Mn288 O313 2.209 . S
Mn288 O314 2.094 . S
Mn289 O294 2.121 . S
Mn289 N296 2.257 . S
Mn289 N305 2.282 1_554 S
Mn289 O313 2.215 . S
Mn289 O315 2.111 1_554 S
C290 O312 1.234 . S
C290 O313 1.283 . S
C291 O303 1.281 . S
C291 O304 1.236 . S
C292 O314 1.240 . S
C292 O315 1.261 1_554 S
O293 Mn288 2.095 . S
O293 C302 1.250 . S
O294 Mn289 2.121 . S
O294 C302 1.258 . S
C295 N296 1.326 . S
C295 C299 1.460 . S
C295 H301 0.929 . S
N296 Mn289 2.257 . S
N296 C295 1.326 . S
N296 C300 1.362 . S
C297 C298 1.258 . S
C297 C300 1.431 . S
C297 C317 1.449 . S
C298 C297 1.258 . S
C298 C299 1.477 . S
C298 H318 0.931 . S
C299 C295 1.460 . S
C299 C298 1.477 . S
C299 H319 0.930 . S
C300 N296 1.362 . S
C300 C297 1.431 . S
C300 C310 1.480 . S
H301 C295 0.929 . S
C302 O293 1.250 . S
C302 O294 1.258 . S
O303 Mn288 2.162 . S
O303 C291 1.281 . S
O304 Mn288 2.297 . S
O304 C291 1.236 . S
N305 Mn289 2.282 1_556 S
N305 C306 1.328 . S
N305 C310 1.317 1_556 S
C306 N305 1.328 . S
C306 C307 1.457 . S
C306 H311 0.929 . S
C307 C306 1.457 . S
C307 C308 1.291 1_655 S
C307 H320 0.931 1_655 S
C308 C307 1.291 1_455 S
C308 C309 1.373 1_455 S
C308 H321 0.929 . S
C309 C308 1.373 1_655 S
C309 C310 1.392 1_556 S
C309 C316 1.403 . S
C310 C300 1.480 . S
C310 N305 1.317 1_554 S
C310 C309 1.392 1_554 S
H311 C306 0.929 . S
O312 Mn288 2.385 . S
O312 C290 1.234 . S
O313 Mn288 2.209 . S
O313 Mn289 2.215 . S
O313 C290 1.283 . S
O314 Mn288 2.094 . S
O314 C292 1.240 . S
O315 Mn289 2.111 1_556 S
O315 C292 1.261 1_556 S
C316 C309 1.403 . S
C316 C317 1.399 1_556 S
C316 H322 0.929 1_655 S
C317 C297 1.449 . S
C317 C316 1.399 1_554 S
C317 H323 0.930 . S
H318 C298 0.931 . S
H319 C299 0.930 . S
H320 C307 0.931 1_455 S
H321 C308 0.929 . S
H322 C316 0.929 1_455 S
H323 C317 0.930 . S
Mn324 O329 2.095 . S
Mn324 O339 2.162 . S
Mn324 O340 2.297 . S
Mn324 O348 2.385 . S
Mn324 O349 2.209 . S
Mn324 O350 2.094 . S
Mn325 O330 2.121 . S
Mn325 N332 2.257 . S
Mn325 N341 2.282 . S
Mn325 O349 2.215 . S
Mn325 O351 2.117 . S
C326 O348 1.234 . S
C326 O349 1.283 . S
C327 O339 1.281 . S
C327 O340 1.236 . S
C328 O350 1.240 . S
C328 O351 1.264 . S
O329 Mn324 2.095 . S
O329 C338 1.250 . S
O330 Mn325 2.121 . S
O330 C338 1.258 . S
C331 N332 1.326 . S
C331 C335 1.460 . S
C331 H337 0.929 . S
N332 Mn325 2.257 . S
N332 C331 1.326 . S
N332 C336 1.362 . S
C333 C334 1.258 . S
C333 C336 1.431 . S
C333 C353 1.449 . S
C334 C333 1.258 . S
C334 C335 1.477 . S
C334 H354 0.931 . S
C335 C331 1.460 . S
C335 C334 1.477 . S
C335 H355 0.930 . S
C336 N332 1.362 . S
C336 C333 1.431 . S
C336 C346 1.476 . S
H337 C331 0.929 . S
C338 O329 1.250 . S
C338 O330 1.258 . S
O339 Mn324 2.162 . S
O339 C327 1.281 . S
O340 Mn324 2.297 . S
O340 C327 1.236 . S
N341 Mn325 2.282 . S
N341 C342 1.328 . S
N341 C346 1.318 . S
C342 N341 1.328 . S
C342 C343 1.457 . S
C342 H347 0.929 . S
C343 C342 1.457 . S
C343 C344 1.291 . S
C343 H356 0.931 . S
C344 C343 1.291 . S
C344 C345 1.373 . S
C344 H357 0.929 . S
C345 C344 1.373 . S
C345 C346 1.396 . S
C345 C352 1.403 . S
C346 C336 1.476 . S
C346 N341 1.318 . S
C346 C345 1.396 . S
H347 C342 0.929 . S
O348 Mn324 2.385 . S
O348 C326 1.234 . S
O349 Mn324 2.209 . S
O349 Mn325 2.215 . S
O349 C326 1.283 . S
O350 Mn324 2.094 . S
O350 C328 1.240 . S
O351 Mn325 2.117 . S
O351 C328 1.264 . S
C352 C345 1.403 . S
C352 C353 1.399 . S
C352 H358 0.929 . S
C353 C333 1.449 . S
C353 C352 1.399 . S
C353 H359 0.930 . S
H354 C334 0.931 . S
H355 C335 0.930 . S
H356 C343 0.931 . S
H357 C344 0.929 . S
H358 C352 0.929 . S
H359 C353 0.930 . S
Mn360 O365 2.095 . S
Mn360 O375 2.162 . S
Mn360 O376 2.297 . S
Mn360 O384 2.385 . S
Mn360 O385 2.209 . S
Mn360 O386 2.094 . S
Mn361 O366 2.121 . S
Mn361 N368 2.257 . S
Mn361 N377 2.282 . S
Mn361 O385 2.215 . S
Mn361 O387 2.117 . S
C362 O384 1.234 . S
C362 O385 1.283 . S
C363 O375 1.281 . S
C363 O376 1.236 . S
C364 O386 1.240 . S
C364 O387 1.264 . S
O365 Mn360 2.095 . S
O365 C374 1.250 . S
O366 Mn361 2.121 . S
O366 C374 1.258 . S
C367 N368 1.326 . S
C367 C371 1.460 . S
C367 H373 0.929 . S
N368 Mn361 2.257 . S
N368 C367 1.326 . S
N368 C372 1.362 . S
C369 C370 1.258 . S
C369 C372 1.431 . S
C369 C389 1.449 . S
C370 C369 1.258 . S
C370 C371 1.477 . S
C370 H390 0.931 . S
C371 C367 1.460 . S
C371 C370 1.477 . S
C371 H391 0.930 . S
C372 N368 1.362 . S
C372 C369 1.431 . S
C372 C382 1.476 . S
H373 C367 0.929 . S
C374 O365 1.250 . S
C374 O366 1.258 . S
O375 Mn360 2.162 . S
O375 C363 1.281 . S
O376 Mn360 2.297 . S
O376 C363 1.236 . S
N377 Mn361 2.282 . S
N377 C378 1.328 . S
N377 C382 1.318 . S
C378 N377 1.328 . S
C378 C379 1.457 . S
C378 H383 0.929 . S
C379 C378 1.457 . S
C379 C380 1.291 . S
C379 H392 0.931 . S
C380 C379 1.291 . S
C380 C381 1.373 . S
C380 H393 0.929 . S
C381 C380 1.373 . S
C381 C382 1.396 . S
C381 C388 1.403 . S
C382 C372 1.476 . S
C382 N377 1.318 . S
C382 C381 1.396 . S
H383 C378 0.929 . S
O384 Mn360 2.385 . S
O384 C362 1.234 . S
O385 Mn360 2.209 . S
O385 Mn361 2.215 . S
O385 C362 1.283 . S
O386 Mn360 2.094 . S
O386 C364 1.240 . S
O387 Mn361 2.117 . S
O387 C364 1.264 . S
C388 C381 1.403 . S
C388 C389 1.399 . S
C388 H394 0.929 . S
C389 C369 1.449 . S
C389 C388 1.399 . S
C389 H395 0.930 . S
H390 C370 0.931 . S
H391 C371 0.930 . S
H392 C379 0.931 . S
H393 C380 0.929 . S
H394 C388 0.929 . S
H395 C389 0.930 . S
Mn396 O401 2.095 . S
Mn396 O411 2.162 . S
Mn396 O412 2.297 . S
Mn396 O420 2.385 . S
Mn396 O421 2.209 . S
Mn396 O422 2.094 . S
Mn397 O402 2.121 . S
Mn397 N404 2.257 . S
Mn397 N413 2.282 . S
Mn397 O421 2.215 . S
Mn397 O423 2.117 . S
C398 O420 1.234 . S
C398 O421 1.283 . S
C399 O411 1.281 . S
C399 O412 1.236 . S
C400 O422 1.240 . S
C400 O423 1.264 . S
O401 Mn396 2.095 . S
O401 C410 1.250 . S
O402 Mn397 2.121 . S
O402 C410 1.258 . S
C403 N404 1.326 . S
C403 C407 1.460 . S
C403 H409 0.929 . S
N404 Mn397 2.257 . S
N404 C403 1.326 . S
N404 C408 1.362 . S
C405 C406 1.258 . S
C405 C408 1.431 . S
C405 C425 1.449 . S
C406 C405 1.258 . S
C406 C407 1.477 . S
C406 H426 0.931 . S
C407 C403 1.460 . S
C407 C406 1.477 . S
C407 H427 0.930 . S
C408 N404 1.362 . S
C408 C405 1.431 . S
C408 C418 1.476 . S
H409 C403 0.929 . S
C410 O401 1.250 . S
C410 O402 1.258 . S
O411 Mn396 2.162 . S
O411 C399 1.281 . S
O412 Mn396 2.297 . S
O412 C399 1.236 . S
N413 Mn397 2.282 . S
N413 C414 1.328 . S
N413 C418 1.318 . S
C414 N413 1.328 . S
C414 C415 1.457 . S
C414 H419 0.929 . S
C415 C414 1.457 . S
C415 C416 1.291 . S
C415 H428 0.931 . S
C416 C415 1.291 . S
C416 C417 1.373 . S
C416 H429 0.929 . S
C417 C416 1.373 . S
C417 C418 1.396 . S
C417 C424 1.403 . S
C418 C408 1.476 . S
C418 N413 1.318 . S
C418 C417 1.396 . S
H419 C414 0.929 . S
O420 Mn396 2.385 . S
O420 C398 1.234 . S
O421 Mn396 2.209 . S
O421 Mn397 2.215 . S
O421 C398 1.283 . S
O422 Mn396 2.094 . S
O422 C400 1.240 . S
O423 Mn397 2.117 . S
O423 C400 1.264 . S
C424 C417 1.403 . S
C424 C425 1.399 . S
C424 H430 0.929 . S
C425 C405 1.449 . S
C425 C424 1.399 . S
C425 H431 0.930 . S
H426 C406 0.931 . S
H427 C407 0.930 . S
H428 C415 0.931 . S
H429 C416 0.929 . S
H430 C424 0.929 . S
H431 C425 0.930 . S
Mn432 O437 2.095 1_455 S
Mn432 O447 2.162 . S
Mn432 O448 2.297 . S
Mn432 O456 2.385 . S
Mn432 O457 2.209 1_455 S
Mn432 O458 2.094 1_455 S
Mn433 O438 2.121 . S
Mn433 N440 2.257 1_556 S
Mn433 N449 2.282 . S
Mn433 O457 2.215 . S
Mn433 O459 2.117 . S
C434 O456 1.234 . S
C434 O457 1.283 1_455 S
C435 O447 1.281 . S
C435 O448 1.236 . S
C436 O458 1.240 . S
C436 O459 1.264 . S
O437 Mn432 2.095 1_655 S
O437 C446 1.250 . S
O438 Mn433 2.121 . S
O438 C446 1.258 . S
C439 N440 1.326 . S
C439 C443 1.460 . S
C439 H445 0.929 . S
N440 Mn433 2.257 1_554 S
N440 C439 1.326 . S
N440 C444 1.362 . S
C441 C442 1.258 . S
C441 C444 1.431 . S
C441 C461 1.449 1_565 S
C442 C441 1.258 . S
C442 C443 1.477 . S
C442 H462 0.931 . S
C443 C439 1.460 . S
C443 C442 1.477 . S
C443 H463 0.930 . S
C444 N440 1.362 . S
C444 C441 1.431 . S
C444 C454 1.476 . S
H445 C439 0.929 . S
C446 O437 1.250 . S
C446 O438 1.258 . S
O447 Mn432 2.162 . S
O447 C435 1.281 . S
O448 Mn432 2.297 . S
O448 C435 1.236 . S
N449 Mn433 2.282 . S
N449 C450 1.319 1_565 S
N449 C454 1.318 1_556 S
C450 N449 1.319 1_545 S
C450 C451 1.471 . S
C450 H455 0.923 1_545 S
C451 C450 1.471 . S
C451 C452 1.291 . S
C451 H464 0.931 . S
C452 C451 1.291 . S
C452 C453 1.373 1_556 S
C452 H465 0.929 1_556 S
C453 C452 1.373 1_554 S
C453 C454 1.396 1_545 S
C453 C460 1.403 . S
C454 C444 1.476 . S
C454 N449 1.318 1_554 S
C454 C453 1.396 1_565 S
H455 C450 0.923 1_565 S
O456 Mn432 2.385 . S
O456 C434 1.234 . S
O457 Mn432 2.209 1_655 S
O457 Mn433 2.215 . S
O457 C434 1.283 1_655 S
O458 Mn432 2.094 1_655 S
O458 C436 1.240 . S
O459 Mn433 2.117 . S
O459 C436 1.264 . S
C460 C453 1.403 . S
C460 C461 1.399 . S
C460 H466 0.929 . S
C461 C441 1.449 1_545 S
C461 C460 1.399 . S
C461 H467 0.930 . S
H462 C442 0.931 . S
H463 C443 0.930 . S
H464 C451 0.931 . S
H465 C452 0.929 1_554 S
H466 C460 0.929 . S
H467 C461 0.930 . S
Mn468 O473 2.095 . S
Mn468 O483 2.162 . S
Mn468 O484 2.297 . S
Mn468 O492 2.385 . S
Mn468 O493 2.209 . S
Mn468 O494 2.094 . S
Mn469 O474 2.121 1_655 S
Mn469 N476 2.257 . S
Mn469 N485 2.282 . S
Mn469 O493 2.215 1_655 S
Mn469 O495 2.117 . S
C470 O492 1.234 . S
C470 O493 1.283 . S
C471 O483 1.281 . S
C471 O484 1.236 . S
C472 O494 1.240 1_655 S
C472 O495 1.264 . S
O473 Mn468 2.095 . S
O473 C482 1.250 . S
O474 Mn469 2.121 1_455 S
O474 C482 1.258 . S
C475 N476 1.326 1_455 S
C475 C479 1.460 . S
C475 H481 0.929 . S
N476 Mn469 2.257 . S
N476 C475 1.326 1_655 S
N476 C480 1.362 . S
C477 C478 1.258 . S
C477 C480 1.431 . S
C477 C497 1.449 . S
C478 C477 1.258 . S
C478 C479 1.477 1_655 S
C478 H498 0.931 . S
C479 C475 1.460 . S
C479 C478 1.477 1_455 S
C479 H499 0.930 . S
C480 N476 1.362 . S
C480 C477 1.431 . S
C480 C490 1.476 . S
H481 C475 0.929 . S
C482 O473 1.250 . S
C482 O474 1.258 . S
O483 Mn468 2.162 . S
O483 C471 1.281 . S
O484 Mn468 2.297 . S
O484 C471 1.236 . S
N485 Mn469 2.282 . S
N485 C486 1.328 . S
N485 C490 1.318 . S
C486 N485 1.328 . S
C486 C487 1.457 . S
C486 H491 0.929 . S
C487 C486 1.457 . S
C487 C488 1.291 . S
C487 H500 0.931 . S
C488 C487 1.291 . S
C488 C489 1.373 . S
C488 H501 0.929 . S
C489 C488 1.373 . S
C489 C490 1.396 . S
C489 C496 1.403 . S
C490 C480 1.476 . S
C490 N485 1.318 . S
C490 C489 1.396 . S
H491 C486 0.929 . S
O492 Mn468 2.385 . S
O492 C470 1.234 . S
O493 Mn468 2.209 . S
O493 Mn469 2.215 1_455 S
O493 C470 1.283 . S
O494 Mn468 2.094 . S
O494 C472 1.240 1_455 S
O495 Mn469 2.117 . S
O495 C472 1.264 . S
C496 C489 1.403 . S
C496 C497 1.399 . S
C496 H502 0.929 . S
C497 C477 1.449 . S
C497 C496 1.399 . S
C497 H503 0.930 . S
H498 C478 0.931 . S
H499 C479 0.930 . S
H500 C487 0.931 . S
H501 C488 0.929 . S
H502 C496 0.929 . S
H503 C497 0.930 . S
Mn504 O509 2.095 . S
Mn504 O519 2.162 . S
Mn504 O520 2.297 . S
Mn504 O528 2.385 . S
Mn504 O529 2.209 . S
Mn504 O530 2.094 . S
Mn505 O510 2.121 . S
Mn505 N512 2.257 . S
Mn505 N521 2.282 . S
Mn505 O529 2.215 . S
Mn505 O531 2.117 . S
C506 O528 1.234 . S
C506 O529 1.283 . S
C507 O519 1.281 . S
C507 O520 1.236 . S
C508 O530 1.240 . S
C508 O531 1.264 . S
O509 Mn504 2.095 . S
O509 C518 1.250 . S
O510 Mn505 2.121 . S
O510 C518 1.258 . S
C511 N512 1.326 . S
C511 C515 1.460 . S
C511 H517 0.929 . S
N512 Mn505 2.257 . S
N512 C511 1.326 . S
N512 C516 1.362 . S
C513 C514 1.258 . S
C513 C516 1.431 . S
C513 C533 1.449 . S
C514 C513 1.258 . S
C514 C515 1.477 . S
C514 H534 0.931 . S
C515 C511 1.460 . S
C515 C514 1.477 . S
C515 H535 0.930 . S
C516 N512 1.362 . S
C516 C513 1.431 . S
C516 C526 1.476 . S
H517 C511 0.929 . S
C518 O509 1.250 . S
C518 O510 1.258 . S
O519 Mn504 2.162 . S
O519 C507 1.281 . S
O520 Mn504 2.297 . S
O520 C507 1.236 . S
N521 Mn505 2.282 . S
N521 C522 1.328 . S
N521 C526 1.318 . S
C522 N521 1.328 . S
C522 C523 1.457 . S
C522 H527 0.929 . S
C523 C522 1.457 . S
C523 C524 1.291 . S
C523 H536 0.931 . S
C524 C523 1.291 . S
C524 C525 1.373 . S
C524 H537 0.929 . S
C525 C524 1.373 . S
C525 C526 1.396 . S
C525 C532 1.403 . S
C526 C516 1.476 . S
C526 N521 1.318 . S
C526 C525 1.396 . S
H527 C522 0.929 . S
O528 Mn504 2.385 . S
O528 C506 1.234 . S
O529 Mn504 2.209 . S
O529 Mn505 2.215 . S
O529 C506 1.283 . S
O530 Mn504 2.094 . S
O530 C508 1.240 . S
O531 Mn505 2.117 . S
O531 C508 1.264 . S
C532 C525 1.403 . S
C532 C533 1.399 . S
C532 H538 0.929 . S
C533 C513 1.449 . S
C533 C532 1.399 . S
C533 H539 0.930 . S
H534 C514 0.931 . S
H535 C515 0.930 . S
H536 C523 0.931 . S
H537 C524 0.929 . S
H538 C532 0.929 . S
H539 C533 0.930 . S
Mn540 O545 2.095 . S
Mn540 O555 2.162 . S
Mn540 O556 2.297 . S
Mn540 O564 2.385 . S
Mn540 O565 2.209 . S
Mn540 O566 2.094 . S
Mn541 O546 2.121 . S
Mn541 N548 2.257 . S
Mn541 N557 2.282 . S
Mn541 O565 2.215 . S
Mn541 O567 2.117 . S
C542 O564 1.234 . S
C542 O565 1.283 . S
C543 O555 1.281 . S
C543 O556 1.236 . S
C544 O566 1.240 . S
C544 O567 1.264 . S
O545 Mn540 2.095 . S
O545 C554 1.250 . S
O546 Mn541 2.121 . S
O546 C554 1.258 . S
C547 N548 1.326 . S
C547 C551 1.460 1_554 S
C547 H553 0.929 . S
N548 Mn541 2.257 . S
N548 C547 1.326 . S
N548 C552 1.362 . S
C549 C550 1.258 . S
C549 C552 1.431 1_556 S
C549 C569 1.449 . S
C550 C549 1.258 . S
C550 C551 1.477 . S
C550 H570 0.931 . S
C551 C547 1.460 1_556 S
C551 C550 1.477 . S
C551 H571 0.930 . S
C552 N548 1.362 . S
C552 C549 1.431 1_554 S
C552 C562 1.476 . S
H553 C547 0.929 . S
C554 O545 1.250 . S
C554 O546 1.258 . S
O555 Mn540 2.162 . S
O555 C543 1.281 . S
O556 Mn540 2.297 . S
O556 C543 1.236 . S
N557 Mn541 2.282 . S
N557 C558 1.328 . S
N557 C562 1.318 . S
C558 N557 1.328 . S
C558 C559 1.457 . S
C558 H563 0.929 . S
C559 C558 1.457 . S
C559 C560 1.291 . S
C559 H572 0.931 . S
C560 C559 1.291 . S
C560 C561 1.373 . S
C560 H573 0.929 . S
C561 C560 1.373 . S
C561 C562 1.396 . S
C561 C568 1.403 . S
C562 C552 1.476 . S
C562 N557 1.318 . S
C562 C561 1.396 . S
H563 C558 0.929 . S
O564 Mn540 2.385 . S
O564 C542 1.234 . S
O565 Mn540 2.209 . S
O565 Mn541 2.215 . S
O565 C542 1.283 . S
O566 Mn540 2.094 . S
O566 C544 1.240 . S
O567 Mn541 2.117 . S
O567 C544 1.264 . S
C568 C561 1.403 . S
C568 C569 1.399 1_554 S
C568 H574 0.929 1_554 S
C569 C549 1.449 . S
C569 C568 1.399 1_556 S
C569 H575 0.930 . S
H570 C550 0.931 . S
H571 C551 0.930 . S
H572 C559 0.931 . S
H573 C560 0.929 . S
H574 C568 0.929 1_556 S
H575 C569 0.930 . S
Mn576 O581 2.095 1_565 S
Mn576 O591 2.162 1_665 S
Mn576 O592 2.297 . S
Mn576 O600 2.385 . S
Mn576 O601 2.209 . S
Mn576 O602 2.094 1_655 S
Mn577 O582 2.121 1_565 S
Mn577 N584 2.257 . S
Mn577 N593 2.282 . S
Mn577 O601 2.215 . S
Mn577 O603 2.117 . S
C578 O600 1.234 . S
C578 O601 1.283 . S
C579 O591 1.281 1_665 S
C579 O592 1.236 . S
C580 O602 1.240 1_655 S
C580 O603 1.264 . S
O581 Mn576 2.095 1_545 S
O581 C590 1.250 . S
O582 Mn577 2.121 1_545 S
O582 C590 1.258 . S
C583 N584 1.326 1_545 S
C583 C587 1.460 1_545 S
C583 H589 0.929 . S
N584 Mn577 2.257 . S
N584 C583 1.326 1_565 S
N584 C588 1.362 . S
C585 C586 1.258 . S
C585 C588 1.431 . S
C585 C605 1.449 . S
C586 C585 1.258 . S
C586 C587 1.477 . S
C586 H606 0.931 . S
C587 C583 1.460 1_565 S
C587 C586 1.477 . S
C587 H607 0.930 1_565 S
C588 N584 1.362 . S
C588 C585 1.431 . S
C588 C598 1.476 . S
H589 C583 0.929 . S
C590 O581 1.250 . S
C590 O582 1.258 . S
O591 Mn576 2.162 1_445 S
O591 C579 1.281 1_445 S
O592 Mn576 2.297 . S
O592 C579 1.236 . S
N593 Mn577 2.282 . S
N593 C594 1.328 . S
N593 C598 1.318 . S
C594 N593 1.328 . S
C594 C595 1.457 . S
C594 H599 0.929 . S
C595 C594 1.457 . S
C595 C596 1.291 . S
C595 H608 0.931 . S
C596 C595 1.291 . S
C596 C597 1.373 . S
C596 H609 0.929 . S
C597 C596 1.373 . S
C597 C598 1.396 . S
C597 C604 1.403 . S
C598 C588 1.476 . S
C598 N593 1.318 . S
C598 C597 1.396 . S
H599 C594 0.929 . S
O600 Mn576 2.385 . S
O600 C578 1.234 . S
O601 Mn576 2.209 . S
O601 Mn577 2.215 . S
O601 C578 1.283 . S
O602 Mn576 2.094 1_455 S
O602 C580 1.240 1_455 S
O603 Mn577 2.117 . S
O603 C580 1.264 . S
C604 C597 1.403 . S
C604 C605 1.399 . S
C604 H610 0.929 . S
C605 C585 1.449 . S
C605 C604 1.399 . S
C605 H611 0.930 . S
H606 C586 0.931 . S
H607 C587 0.930 1_545 S
H608 C595 0.931 . S
H609 C596 0.929 . S
H610 C604 0.929 . S
H611 C605 0.930 . S
Mn612 O617 2.095 . S
Mn612 O627 2.162 . S
Mn612 O628 2.297 . S
Mn612 O636 2.385 . S
Mn612 O637 2.209 . S
Mn612 O638 2.094 . S
Mn613 O618 2.121 . S
Mn613 N620 2.257 1_545 S
Mn613 N629 2.282 . S
Mn613 O637 2.215 . S
Mn613 O639 2.117 . S
C614 O636 1.234 . S
C614 O637 1.283 . S
C615 O627 1.281 . S
C615 O628 1.236 . S
C616 O638 1.240 . S
C616 O639 1.264 . S
O617 Mn612 2.095 . S
O617 C626 1.250 . S
O618 Mn613 2.121 . S
O618 C626 1.258 . S
C619 N620 1.326 . S
C619 C623 1.460 . S
C619 H625 0.929 . S
N620 Mn613 2.257 1_565 S
N620 C619 1.326 . S
N620 C624 1.362 . S
C621 C622 1.258 . S
C621 C624 1.431 . S
C621 C641 1.449 . S
C622 C621 1.258 . S
C622 C623 1.477 . S
C622 H642 0.931 . S
C623 C619 1.460 . S
C623 C622 1.477 . S
C623 H643 0.930 . S
C624 N620 1.362 . S
C624 C621 1.431 . S
C624 C634 1.476 . S
H625 C619 0.929 . S
C626 O617 1.250 . S
C626 O618 1.258 . S
O627 Mn612 2.162 . S
O627 C615 1.281 . S
O628 Mn612 2.297 . S
O628 C615 1.236 . S
N629 Mn613 2.282 . S
N629 C630 1.328 . S
N629 C634 1.318 1_545 S
C630 N629 1.328 . S
C630 C631 1.457 . S
C630 H635 0.929 . S
C631 C630 1.457 . S
C631 C632 1.291 1_545 S
C631 H644 0.931 . S
C632 C631 1.291 1_565 S
C632 C633 1.373 . S
C632 H645 0.929 . S
C633 C632 1.373 . S
C633 C634 1.396 . S
C633 C640 1.403 . S
C634 C624 1.476 . S
C634 N629 1.318 1_565 S
C634 C633 1.396 . S
H635 C630 0.929 . S
O636 Mn612 2.385 . S
O636 C614 1.234 . S
O637 Mn612 2.209 . S
O637 Mn613 2.215 . S
O637 C614 1.283 . S
O638 Mn612 2.094 . S
O638 C616 1.240 . S
O639 Mn613 2.117 . S
O639 C616 1.264 . S
C640 C633 1.403 . S
C640 C641 1.399 . S
C640 H646 0.929 . S
C641 C621 1.449 . S
C641 C640 1.399 . S
C641 H647 0.930 . S
H642 C622 0.931 . S
H643 C623 0.930 . S
H644 C631 0.931 . S
H645 C632 0.929 . S
H646 C640 0.929 . S
H647 C641 0.930 . S
Mn648 O653 2.095 1_545 S
Mn648 O663 2.162 . S
Mn648 O664 2.297 . S
Mn648 O672 2.385 . S
Mn648 O673 2.209 . S
Mn648 O674 2.094 . S
Mn649 O654 2.121 1_545 S
Mn649 N656 2.257 . S
Mn649 N665 2.282 . S
Mn649 O673 2.215 . S
Mn649 O675 2.117 . S
C650 O672 1.234 . S
C650 O673 1.283 . S
C651 O663 1.281 . S
C651 O664 1.236 . S
C652 O674 1.240 . S
C652 O675 1.264 . S
O653 Mn648 2.095 1_565 S
O653 C662 1.250 . S
O654 Mn649 2.121 1_565 S
O654 C662 1.258 . S
C655 N656 1.326 . S
C655 C659 1.460 . S
C655 H661 0.929 1_545 S
N656 Mn649 2.257 . S
N656 C655 1.326 . S
N656 C660 1.362 . S
C657 C658 1.258 . S
C657 C660 1.431 . S
C657 C677 1.449 . S
C658 C657 1.258 . S
C658 C659 1.477 . S
C658 H678 0.931 1_655 S
C659 C655 1.460 . S
C659 C658 1.477 . S
C659 H679 0.930 . S
C660 N656 1.362 . S
C660 C657 1.431 . S
C660 C670 1.476 . S
H661 C655 0.929 1_565 S
C662 O653 1.250 . S
C662 O654 1.258 . S
O663 Mn648 2.162 . S
O663 C651 1.281 . S
O664 Mn648 2.297 . S
O664 C651 1.236 . S
N665 Mn649 2.282 . S
N665 C666 1.328 . S
N665 C670 1.318 . S
C666 N665 1.328 . S
C666 C667 1.457 . S
C666 H671 0.929 . S
C667 C666 1.457 . S
C667 C668 1.291 . S
C667 H680 0.931 . S
C668 C667 1.291 . S
C668 C669 1.373 . S
C668 H681 0.929 . S
C669 C668 1.373 . S
C669 C670 1.396 . S
C669 C676 1.403 . S
C670 C660 1.476 . S
C670 N665 1.318 . S
C670 C669 1.396 . S
H671 C666 0.929 . S
O672 Mn648 2.385 . S
O672 C650 1.234 . S
O673 Mn648 2.209 . S
O673 Mn649 2.215 . S
O673 C650 1.283 . S
O674 Mn648 2.094 . S
O674 C652 1.240 . S
O675 Mn649 2.117 . S
O675 C652 1.264 . S
C676 C669 1.403 . S
C676 C677 1.399 . S
C676 H682 0.929 . S
C677 C657 1.449 . S
C677 C676 1.399 . S
C677 H683 0.930 . S
H678 C658 0.931 1_455 S
H679 C659 0.930 . S
H680 C667 0.931 . S
H681 C668 0.929 . S
H682 C676 0.929 . S
H683 C677 0.930 . S
Mn684 O689 2.095 . S
Mn684 O699 2.162 . S
Mn684 O700 2.297 . S
Mn684 O708 2.385 . S
Mn684 O709 2.209 1_565 S
Mn684 O710 2.094 1_554 S
Mn685 O690 2.121 1_556 S
Mn685 N692 2.257 . S
Mn685 N701 2.282 . S
Mn685 O709 2.215 1_556 S
Mn685 O711 2.117 1_545 S
C686 O708 1.234 1_545 S
C686 O709 1.283 . S
C687 O699 1.281 . S
C687 O700 1.236 . S
C688 O710 1.240 . S
C688 O711 1.264 . S
O689 Mn684 2.095 . S
O689 C698 1.250 1_565 S
O690 Mn685 2.121 1_554 S
O690 C698 1.258 . S
C691 N692 1.326 1_554 S
C691 C695 1.460 . S
C691 H697 0.929 . S
N692 Mn685 2.257 . S
N692 C691 1.326 1_556 S
N692 C696 1.362 . S
C693 C694 1.258 . S
C693 C696 1.431 . S
C693 C713 1.449 . S
C694 C693 1.258 . S
C694 C695 1.477 1_556 S
C694 H714 0.931 . S
C695 C691 1.460 . S
C695 C694 1.477 1_554 S
C695 H715 0.930 . S
C696 N692 1.362 . S
C696 C693 1.431 . S
C696 C706 1.476 . S
H697 C691 0.929 . S
C698 O689 1.250 1_545 S
C698 O690 1.258 . S
O699 Mn684 2.162 . S
O699 C687 1.281 . S
O700 Mn684 2.297 . S
O700 C687 1.236 . S
N701 Mn685 2.282 . S
N701 C702 1.328 . S
N701 C706 1.318 . S
C702 N701 1.328 . S
C702 C703 1.457 . S
C702 H707 0.914 1_545 S
C703 C702 1.457 . S
C703 C704 1.291 . S
C703 H716 0.931 . S
C704 C703 1.291 . S
C704 C705 1.373 . S
C704 H717 0.929 . S
C705 C704 1.373 . S
C705 C706 1.396 . S
C705 C712 1.403 . S
C706 C696 1.476 . S
C706 N701 1.318 . S
C706 C705 1.396 . S
H707 C702 0.914 1_565 S
O708 Mn684 2.385 . S
O708 C686 1.234 1_565 S
O709 Mn684 2.209 1_545 S
O709 Mn685 2.215 1_554 S
O709 C686 1.283 . S
O710 Mn684 2.094 1_556 S
O710 C688 1.240 . S
O711 Mn685 2.117 1_565 S
O711 C688 1.264 . S
C712 C705 1.403 . S
C712 C713 1.399 . S
C712 H718 0.929 . S
C713 C693 1.449 . S
C713 C712 1.399 . S
C713 H719 0.930 . S
H714 C694 0.931 . S
H715 C695 0.930 . S
H716 C703 0.931 . S
H717 C704 0.929 . S
H718 C712 0.929 . S
H719 C713 0.930 . S
Mn720 O725 2.095 1_554 S
Mn720 O735 2.162 . S
Mn720 O736 2.297 . S
Mn720 O744 2.385 . S
Mn720 O745 2.209 1_554 S
Mn720 O746 2.094 1_554 S
Mn721 O726 2.121 . S
Mn721 N728 2.257 . S
Mn721 N737 2.282 . S
Mn721 O745 2.215 . S
Mn721 O747 2.117 . S
C722 O744 1.234 1_556 S
C722 O745 1.283 . S
C723 O735 1.281 . S
C723 O736 1.236 . S
C724 O746 1.240 . S
C724 O747 1.264 . S
O725 Mn720 2.095 1_556 S
O725 C734 1.250 . S
O726 Mn721 2.121 . S
O726 C734 1.258 . S
C727 N728 1.326 . S
C727 C731 1.460 . S
C727 H733 0.929 . S
N728 Mn721 2.257 . S
N728 C727 1.326 . S
N728 C732 1.362 . S
C729 C730 1.258 . S
C729 C732 1.431 . S
C729 C749 1.449 . S
C730 C729 1.258 . S
C730 C731 1.477 . S
C730 H750 0.931 . S
C731 C727 1.460 . S
C731 C730 1.477 . S
C731 H751 0.930 . S
C732 N728 1.362 . S
C732 C729 1.431 . S
C732 C742 1.476 . S
H733 C727 0.929 . S
C734 O725 1.250 . S
C734 O726 1.258 . S
O735 Mn720 2.162 . S
O735 C723 1.281 . S
O736 Mn720 2.297 . S
O736 C723 1.236 . S
N737 Mn721 2.282 . S
N737 C738 1.328 . S
N737 C742 1.318 . S
C738 N737 1.328 . S
C738 C739 1.457 . S
C738 H743 0.929 . S
C739 C738 1.457 . S
C739 C740 1.291 . S
C739 H752 0.931 . S
C740 C739 1.291 . S
C740 C741 1.373 . S
C740 H753 0.929 . S
C741 C740 1.373 . S
C741 C742 1.396 . S
C741 C748 1.403 . S
C742 C732 1.476 . S
C742 N737 1.318 . S
C742 C741 1.396 . S
H743 C738 0.929 . S
O744 Mn720 2.385 . S
O744 C722 1.234 1_554 S
O745 Mn720 2.209 1_556 S
O745 Mn721 2.215 . S
O745 C722 1.283 . S
O746 Mn720 2.094 1_556 S
O746 C724 1.240 . S
O747 Mn721 2.117 . S
O747 C724 1.264 . S
C748 C741 1.403 . S
C748 C749 1.399 . S
C748 H754 0.929 . S
C749 C729 1.449 . S
C749 C748 1.399 . S
C749 H755 0.930 . S
H750 C730 0.931 . S
H751 C731 0.930 . S
H752 C739 0.931 . S
H753 C740 0.929 . S
H754 C748 0.929 . S
H755 C749 0.930 . S
Mn756 O761 2.095 . S
Mn756 O771 2.162 . S
Mn756 O772 2.297 . S
Mn756 O780 2.385 . S
Mn756 O781 2.209 . S
Mn756 O782 2.094 . S
Mn757 O762 2.121 . S
Mn757 N764 2.257 . S
Mn757 N773 2.282 . S
Mn757 O781 2.215 . S
Mn757 O783 2.117 . S
C758 O780 1.234 . S
C758 O781 1.283 . S
C759 O771 1.281 . S
C759 O772 1.236 . S
C760 O782 1.240 . S
C760 O783 1.264 . S
O761 Mn756 2.095 . S
O761 C770 1.250 . S
O762 Mn757 2.121 . S
O762 C770 1.258 . S
C763 N764 1.326 . S
C763 C767 1.460 . S
C763 H769 0.929 . S
N764 Mn757 2.257 . S
N764 C763 1.326 . S
N764 C768 1.362 . S
C765 C766 1.258 . S
C765 C768 1.431 . S
C765 C785 1.449 . S
C766 C765 1.258 . S
C766 C767 1.477 . S
C766 H786 0.931 . S
C767 C763 1.460 . S
C767 C766 1.477 . S
C767 H787 0.930 . S
C768 N764 1.362 . S
C768 C765 1.431 . S
C768 C778 1.476 . S
H769 C763 0.929 . S
C770 O761 1.250 . S
C770 O762 1.258 . S
O771 Mn756 2.162 . S
O771 C759 1.281 . S
O772 Mn756 2.297 . S
O772 C759 1.236 . S
N773 Mn757 2.282 . S
N773 C774 1.328 . S
N773 C778 1.318 . S
C774 N773 1.328 . S
C774 C775 1.457 . S
C774 H779 0.929 . S
C775 C774 1.457 . S
C775 C776 1.291 . S
C775 H788 0.931 . S
C776 C775 1.291 . S
C776 C777 1.373 . S
C776 H789 0.929 . S
C777 C776 1.373 . S
C777 C778 1.396 . S
C777 C784 1.403 . S
C778 C768 1.476 . S
C778 N773 1.318 . S
C778 C777 1.396 . S
H779 C774 0.929 . S
O780 Mn756 2.385 . S
O780 C758 1.234 . S
O781 Mn756 2.209 . S
O781 Mn757 2.215 . S
O781 C758 1.283 . S
O782 Mn756 2.094 . S
O782 C760 1.240 . S
O783 Mn757 2.117 . S
O783 C760 1.264 . S
C784 C777 1.403 . S
C784 C785 1.399 . S
C784 H790 0.929 . S
C785 C765 1.449 . S
C785 C784 1.399 . S
C785 H791 0.930 . S
H786 C766 0.931 . S
H787 C767 0.930 . S
H788 C775 0.931 . S
H789 C776 0.929 . S
H790 C784 0.929 . S
H791 C785 0.930 . S
Mn792 O797 2.095 . S
Mn792 O807 2.162 . S
Mn792 O808 2.297 . S
Mn792 O816 2.385 . S
Mn792 O817 2.209 . S
Mn792 O818 2.094 . S
Mn793 O798 2.121 . S
Mn793 N800 2.257 . S
Mn793 N809 2.282 . S
Mn793 O817 2.215 . S
Mn793 O819 2.117 . S
C794 O816 1.234 . S
C794 O817 1.283 . S
C795 O807 1.281 . S
C795 O808 1.236 . S
C796 O818 1.240 . S
C796 O819 1.264 . S
O797 Mn792 2.095 . S
O797 C806 1.250 . S
O798 Mn793 2.121 . S
O798 C806 1.258 . S
C799 N800 1.326 . S
C799 C803 1.460 . S
C799 H805 0.929 . S
N800 Mn793 2.257 . S
N800 C799 1.326 . S
N800 C804 1.362 . S
C801 C802 1.258 . S
C801 C804 1.431 . S
C801 C821 1.449 . S
C802 C801 1.258 . S
C802 C803 1.477 . S
C802 H822 0.931 . S
C803 C799 1.460 . S
C803 C802 1.477 . S
C803 H823 0.930 . S
C804 N800 1.362 . S
C804 C801 1.431 . S
C804 C814 1.476 . S
H805 C799 0.929 . S
C806 O797 1.250 . S
C806 O798 1.258 . S
O807 Mn792 2.162 . S
O807 C795 1.281 . S
O808 Mn792 2.297 . S
O808 C795 1.236 . S
N809 Mn793 2.282 . S
N809 C810 1.328 . S
N809 C814 1.318 . S
C810 N809 1.328 . S
C810 C811 1.457 . S
C810 H815 0.929 . S
C811 C810 1.457 . S
C811 C812 1.291 . S
C811 H824 0.931 . S
C812 C811 1.291 . S
C812 C813 1.373 . S
C812 H825 0.929 . S
C813 C812 1.373 . S
C813 C814 1.396 . S
C813 C820 1.403 . S
C814 C804 1.476 . S
C814 N809 1.318 . S
C814 C813 1.396 . S
H815 C810 0.929 . S
O816 Mn792 2.385 . S
O816 C794 1.234 . S
O817 Mn792 2.209 . S
O817 Mn793 2.215 . S
O817 C794 1.283 . S
O818 Mn792 2.094 . S
O818 C796 1.240 . S
O819 Mn793 2.117 . S
O819 C796 1.264 . S
C820 C813 1.403 . S
C820 C821 1.399 . S
C820 H826 0.929 . S
C821 C801 1.449 . S
C821 C820 1.399 . S
C821 H827 0.930 . S
H822 C802 0.931 . S
H823 C803 0.930 . S
H824 C811 0.931 . S
H825 C812 0.929 . S
H826 C820 0.929 . S
H827 C821 0.930 . S
Mn828 O833 2.095 . S
Mn828 O843 2.162 . S
Mn828 O844 2.297 . S
Mn828 O852 2.385 . S
Mn828 O853 2.209 . S
Mn828 O854 2.094 . S
Mn829 O834 2.121 . S
Mn829 N836 2.257 . S
Mn829 N845 2.282 . S
Mn829 O853 2.215 . S
Mn829 O855 2.117 . S
C830 O852 1.234 . S
C830 O853 1.283 . S
C831 O843 1.281 . S
C831 O844 1.236 . S
C832 O854 1.240 . S
C832 O855 1.264 . S
O833 Mn828 2.095 . S
O833 C842 1.250 . S
O834 Mn829 2.121 . S
O834 C842 1.258 . S
C835 N836 1.326 . S
C835 C839 1.460 . S
C835 H841 0.929 . S
N836 Mn829 2.257 . S
N836 C835 1.326 . S
N836 C840 1.362 . S
C837 C838 1.258 . S
C837 C840 1.431 . S
C837 C857 1.449 . S
C838 C837 1.258 . S
C838 C839 1.477 . S
C838 H858 0.931 . S
C839 C835 1.460 . S
C839 C838 1.477 . S
C839 H859 0.930 . S
C840 N836 1.362 . S
C840 C837 1.431 . S
C840 C850 1.476 . S
H841 C835 0.929 . S
C842 O833 1.250 . S
C842 O834 1.258 . S
O843 Mn828 2.162 . S
O843 C831 1.281 . S
O844 Mn828 2.297 . S
O844 C831 1.236 . S
N845 Mn829 2.282 . S
N845 C846 1.328 . S
N845 C850 1.318 . S
C846 N845 1.328 . S
C846 C847 1.457 . S
C846 H851 0.929 . S
C847 C846 1.457 . S
C847 C848 1.291 . S
C847 H860 0.931 . S
C848 C847 1.291 . S
C848 C849 1.373 . S
C848 H861 0.929 . S
C849 C848 1.373 . S
C849 C850 1.396 . S
C849 C856 1.403 . S
C850 C840 1.476 . S
C850 N845 1.318 . S
C850 C849 1.396 . S
H851 C846 0.929 . S
O852 Mn828 2.385 . S
O852 C830 1.234 . S
O853 Mn828 2.209 . S
O853 Mn829 2.215 . S
O853 C830 1.283 . S
O854 Mn828 2.094 . S
O854 C832 1.240 . S
O855 Mn829 2.117 . S
O855 C832 1.264 . S
C856 C849 1.403 . S
C856 C857 1.399 . S
C856 H862 0.929 . S
C857 C837 1.449 . S
C857 C856 1.399 . S
C857 H863 0.930 . S
H858 C838 0.931 . S
H859 C839 0.930 . S
H860 C847 0.931 . S
H861 C848 0.929 . S
H862 C856 0.929 . S
H863 C857 0.930 . S
C864 O880 1.251 1_556 S
C864 O882 1.254 . S
N865 C866 1.333 . S
N865 C870 1.307 1_545 S
N865 Zn871 2.020 1_655 S
C866 N865 1.333 . S
C866 C867 1.379 . S
C866 H884 0.952 . S
C867 C866 1.379 . S
C867 C868 1.390 . S
C867 H894 0.949 . S
C868 C867 1.390 . S
C868 C869 1.357 1_545 S
C869 C868 1.357 1_565 S
C869 C870 1.370 . S
C869 H895 0.950 . S
C870 N865 1.307 1_565 S
C870 C869 1.370 . S
C870 H888 0.948 . S
Zn871 N865 2.020 1_455 S
Zn871 O880 2.039 . S
Zn871 O886 2.034 . S
Zn871 O890 2.025 1_545 S
Zn871 O892 2.024 1_545 S
C872 O891 1.246 . S
C872 O892 1.249 . S
N873 C874 1.307 1_554 S
N873 C875 1.333 . S
N873 Zn879 2.020 . S
C874 N873 1.307 1_556 S
C874 C878 1.370 . S
C874 H885 0.948 . S
C875 N873 1.333 . S
C875 C876 1.379 . S
C875 H883 0.952 1_545 S
C876 C875 1.379 . S
C876 C877 1.390 . S
C876 H896 0.949 1_545 S
C877 C876 1.390 . S
C877 C878 1.357 1_554 S
C878 C874 1.370 . S
C878 C877 1.357 1_556 S
C878 H897 0.950 . S
Zn879 N873 2.020 . S
Zn879 O882 2.025 1_554 S
Zn879 O887 2.024 . S
Zn879 O889 2.039 1_545 S
Zn879 O891 2.034 1_545 S
O880 C864 1.251 1_554 S
O880 Zn871 2.039 . S
C881 O886 1.246 . S
C881 O887 1.249 . S
O882 C864 1.254 . S
O882 Zn879 2.025 1_556 S
H883 C875 0.952 1_565 S
H884 C866 0.952 . S
H885 C874 0.948 . S
O886 Zn871 2.034 . S
O886 C881 1.246 . S
O887 Zn879 2.024 . S
O887 C881 1.249 . S
H888 C870 0.948 . S
O889 Zn879 2.039 1_565 S
O889 C893 1.251 . S
O890 Zn871 2.025 1_565 S
O890 C893 1.254 . S
O891 C872 1.246 . S
O891 Zn879 2.034 1_565 S
O892 Zn871 2.024 1_565 S
O892 C872 1.249 . S
C893 O889 1.251 . S
C893 O890 1.254 . S
H894 C867 0.949 . S
H895 C869 0.950 . S
H896 C876 0.949 1_565 S
H897 C878 0.950 . S
C898 O914 1.251 . S
C898 O916 1.254 . S
N899 C900 1.333 . S
N899 C904 1.307 . S
N899 Zn905 2.020 . S
C900 N899 1.333 . S
C900 C901 1.379 . S
C900 H918 0.952 . S
C901 C900 1.379 . S
C901 C902 1.390 . S
C901 H928 0.949 . S
C902 C901 1.390 . S
C902 C903 1.357 . S
C903 C902 1.357 . S
C903 C904 1.370 . S
C903 H929 0.950 . S
C904 N899 1.307 . S
C904 C903 1.370 . S
C904 H922 0.948 . S
Zn905 N899 2.020 . S
Zn905 O914 2.039 . S
Zn905 O920 2.034 . S
Zn905 O924 2.025 . S
Zn905 O926 2.024 . S
C906 O925 1.246 . S
C906 O926 1.249 . S
N907 C908 1.307 . S
N907 C909 1.333 . S
N907 Zn913 2.020 . S
C908 N907 1.307 . S
C908 C912 1.370 . S
C908 H919 0.948 . S
C909 N907 1.333 . S
C909 C910 1.379 . S
C909 H917 0.952 . S
C910 C909 1.379 . S
C910 C911 1.390 . S
C910 H930 0.949 . S
C911 C910 1.390 . S
C911 C912 1.357 . S
C912 C908 1.370 . S
C912 C911 1.357 . S
C912 H931 0.950 . S
Zn913 N907 2.020 . S
Zn913 O916 2.025 . S
Zn913 O921 2.024 . S
Zn913 O923 2.039 . S
Zn913 O925 2.034 . S
O914 C898 1.251 . S
O914 Zn905 2.039 . S
C915 O920 1.246 . S
C915 O921 1.249 . S
O916 C898 1.254 . S
O916 Zn913 2.025 . S
H917 C909 0.952 . S
H918 C900 0.952 . S
H919 C908 0.948 . S
O920 Zn905 2.034 . S
O920 C915 1.246 . S
O921 Zn913 2.024 . S
O921 C915 1.249 . S
H922 C904 0.948 . S
O923 Zn913 2.039 . S
O923 C927 1.251 . S
O924 Zn905 2.025 . S
O924 C927 1.254 . S
O925 C906 1.246 . S
O925 Zn913 2.034 . S
O926 Zn905 2.024 . S
O926 C906 1.249 . S
C927 O923 1.251 . S
C927 O924 1.254 . S
H928 C901 0.949 . S
H929 C903 0.950 . S
H930 C910 0.949 . S
H931 C912 0.950 . S
C932 O948 1.251 1_545 S
C932 O950 1.254 . S
N933 C934 1.333 . S
N933 C938 1.307 . S
N933 Zn939 2.020 . S
C934 N933 1.333 . S
C934 C935 1.379 . S
C934 H952 0.952 . S
C935 C934 1.379 . S
C935 C936 1.390 . S
C935 H962 0.949 . S
C936 C935 1.390 . S
C936 C937 1.357 . S
C937 C936 1.357 . S
C937 C938 1.370 . S
C937 H963 0.950 . S
C938 N933 1.307 . S
C938 C937 1.370 . S
C938 H956 0.948 . S
Zn939 N933 2.020 . S
Zn939 O948 2.039 . S
Zn939 O954 2.034 1_565 S
Zn939 O958 2.025 . S
Zn939 O960 2.024 . S
C940 O959 1.246 1_565 S
C940 O960 1.249 . S
N941 C942 1.307 . S
N941 C943 1.333 . S
N941 Zn947 2.020 . S
C942 N941 1.307 . S
C942 C946 1.370 . S
C942 H953 0.948 . S
C943 N941 1.333 . S
C943 C944 1.379 . S
C943 H951 0.952 . S
C944 C943 1.379 . S
C944 C945 1.390 . S
C944 H964 0.949 . S
C945 C944 1.390 . S
C945 C946 1.357 . S
C946 C942 1.370 . S
C946 C945 1.357 . S
C946 H965 0.950 . S
Zn947 N941 2.020 . S
Zn947 O950 2.025 . S
Zn947 O955 2.024 . S
Zn947 O957 2.039 . S
Zn947 O959 2.034 . S
O948 C932 1.251 1_565 S
O948 Zn939 2.039 . S
C949 O954 1.246 . S
C949 O955 1.249 . S
O950 C932 1.254 . S
O950 Zn947 2.025 . S
H951 C943 0.952 . S
H952 C934 0.952 . S
H953 C942 0.948 . S
O954 Zn939 2.034 1_545 S
O954 C949 1.246 . S
O955 Zn947 2.024 . S
O955 C949 1.249 . S
H956 C938 0.948 . S
O957 Zn947 2.039 . S
O957 C961 1.251 1_545 S
O958 Zn939 2.025 . S
O958 C961 1.254 . S
O959 C940 1.246 1_545 S
O959 Zn947 2.034 . S
O960 Zn939 2.024 . S
O960 C940 1.249 . S
C961 O957 1.251 1_565 S
C961 O958 1.254 . S
H962 C935 0.949 . S
H963 C937 0.950 . S
H964 C944 0.949 . S
H965 C946 0.950 . S
C966 O982 1.251 . S
C966 O984 1.254 . S
N967 C968 1.333 . S
N967 C972 1.307 . S
N967 Zn973 2.020 . S
C968 N967 1.333 . S
C968 C969 1.379 . S
C968 H986 0.952 . S
C969 C968 1.379 . S
C969 C970 1.390 . S
C969 H996 0.949 . S
C970 C969 1.390 . S
C970 C971 1.357 . S
C971 C970 1.357 . S
C971 C972 1.370 . S
C971 H997 0.950 . S
C972 N967 1.307 . S
C972 C971 1.370 . S
C972 H990 0.948 . S
Zn973 N967 2.020 . S
Zn973 O982 2.039 . S
Zn973 O988 2.034 . S
Zn973 O992 2.025 . S
Zn973 O994 2.024 . S
C974 O993 1.246 . S
C974 O994 1.249 . S
N975 C976 1.307 . S
N975 C977 1.333 . S
N975 Zn981 2.020 . S
C976 N975 1.307 . S
C976 C980 1.370 . S
C976 H987 0.948 . S
C977 N975 1.333 . S
C977 C978 1.379 . S
C977 H985 0.952 . S
C978 C977 1.379 . S
C978 C979 1.390 . S
C978 H998 0.949 . S
C979 C978 1.390 . S
C979 C980 1.357 . S
C980 C976 1.370 . S
C980 C979 1.357 . S
C980 H999 0.950 . S
Zn981 N975 2.020 . S
Zn981 O984 2.025 . S
Zn981 O989 2.024 . S
Zn981 O991 2.039 . S
Zn981 O993 2.034 . S
O982 C966 1.251 . S
O982 Zn973 2.039 . S
C983 O988 1.246 . S
C983 O989 1.249 . S
O984 C966 1.254 . S
O984 Zn981 2.025 . S
H985 C977 0.952 . S
H986 C968 0.952 . S
H987 C976 0.948 . S
O988 Zn973 2.034 . S
O988 C983 1.246 . S
O989 Zn981 2.024 . S
O989 C983 1.249 . S
H990 C972 0.948 . S
O991 Zn981 2.039 . S
O991 C995 1.251 . S
O992 Zn973 2.025 . S
O992 C995 1.254 . S
O993 C974 1.246 . S
O993 Zn981 2.034 . S
O994 Zn973 2.024 . S
O994 C974 1.249 . S
C995 O991 1.251 . S
C995 O992 1.254 . S
H996 C969 0.949 . S
H997 C971 0.950 . S
H998 C978 0.949 . S
H999 C980 0.950 . S
C1000 O1016 1.251 1_565 S
C1000 O1018 1.254 . S
N1001 C1002 1.333 . S
N1001 C1006 1.307 . S
N1001 Zn1007 2.020 . S
C1002 N1001 1.333 . S
C1002 C1003 1.379 . S
C1002 H1020 0.952 . S
C1003 C1002 1.379 . S
C1003 C1004 1.390 . S
C1003 H1030 0.949 . S
C1004 C1003 1.390 . S
C1004 C1005 1.357 . S
C1005 C1004 1.357 . S
C1005 C1006 1.370 . S
C1005 H1031 0.950 . S
C1006 N1001 1.307 . S
C1006 C1005 1.370 . S
C1006 H1024 0.948 . S
Zn1007 N1001 2.020 . S
Zn1007 O1016 2.039 . S
Zn1007 O1022 2.034 . S
Zn1007 O1026 2.025 . S
Zn1007 O1028 2.024 1_545 S
C1008 O1027 1.246 . S
C1008 O1028 1.249 . S
N1009 C1010 1.307 . S
N1009 C1011 1.333 1_455 S
N1009 Zn1015 2.020 1_565 S
C1010 N1009 1.307 . S
C1010 C1014 1.370 . S
C1010 H1021 0.948 . S
C1011 N1009 1.333 1_655 S
C1011 C1012 1.379 . S
C1011 H1019 0.952 . S
C1012 C1011 1.379 . S
C1012 C1013 1.390 . S
C1012 H1032 0.949 . S
C1013 C1012 1.390 . S
C1013 C1014 1.357 1_655 S
C1014 C1010 1.370 . S
C1014 C1013 1.357 1_455 S
C1014 H1033 0.950 . S
Zn1015 N1009 2.020 1_545 S
Zn1015 O1018 2.025 1_545 S
Zn1015 O1023 2.024 . S
Zn1015 O1025 2.039 1_455 S
Zn1015 O1027 2.034 1_545 S
O1016 C1000 1.251 1_545 S
O1016 Zn1007 2.039 . S
C1017 O1022 1.246 . S
C1017 O1023 1.249 . S
O1018 C1000 1.254 . S
O1018 Zn1015 2.025 1_565 S
H1019 C1011 0.952 . S
H1020 C1002 0.952 . S
H1021 C1010 0.948 . S
O1022 Zn1007 2.034 . S
O1022 C1017 1.246 . S
O1023 Zn1015 2.024 . S
O1023 C1017 1.249 . S
H1024 C1006 0.948 . S
O1025 Zn1015 2.039 1_655 S
O1025 C1029 1.251 . S
O1026 Zn1007 2.025 . S
O1026 C1029 1.254 1_455 S
O1027 C1008 1.246 . S
O1027 Zn1015 2.034 1_565 S
O1028 Zn1007 2.024 1_565 S
O1028 C1008 1.249 . S
C1029 O1025 1.251 . S
C1029 O1026 1.254 1_655 S
H1030 C1003 0.949 . S
H1031 C1005 0.950 . S
H1032 C1012 0.949 . S
H1033 C1014 0.950 . S
C1034 O1050 1.251 . S
C1034 O1052 1.254 . S
N1035 C1036 1.333 . S
N1035 C1040 1.307 . S
N1035 Zn1041 2.020 . S
C1036 N1035 1.333 . S
C1036 C1037 1.379 . S
C1036 H1054 0.952 . S
C1037 C1036 1.379 . S
C1037 C1038 1.390 . S
C1037 H1064 0.949 . S
C1038 C1037 1.390 . S
C1038 C1039 1.357 . S
C1039 C1038 1.357 . S
C1039 C1040 1.370 . S
C1039 H1065 0.950 . S
C1040 N1035 1.307 . S
C1040 C1039 1.370 . S
C1040 H1058 0.948 . S
Zn1041 N1035 2.020 . S
Zn1041 O1050 2.039 . S
Zn1041 O1056 2.034 . S
Zn1041 O1060 2.025 . S
Zn1041 O1062 2.024 . S
C1042 O1061 1.246 . S
C1042 O1062 1.249 . S
N1043 C1044 1.307 . S
N1043 C1045 1.333 . S
N1043 Zn1049 2.020 . S
C1044 N1043 1.307 . S
C1044 C1048 1.370 . S
C1044 H1055 0.948 . S
C1045 N1043 1.333 . S
C1045 C1046 1.379 . S
C1045 H1053 0.952 . S
C1046 C1045 1.379 . S
C1046 C1047 1.390 . S
C1046 H1066 0.949 . S
C1047 C1046 1.390 . S
C1047 C1048 1.357 . S
C1048 C1044 1.370 . S
C1048 C1047 1.357 . S
C1048 H1067 0.950 . S
Zn1049 N1043 2.020 . S
Zn1049 O1052 2.025 . S
Zn1049 O1057 2.024 . S
Zn1049 O1059 2.039 . S
Zn1049 O1061 2.034 . S
O1050 C1034 1.251 . S
O1050 Zn1041 2.039 . S
C1051 O1056 1.246 . S
C1051 O1057 1.249 . S
O1052 C1034 1.254 . S
O1052 Zn1049 2.025 . S
H1053 C1045 0.952 . S
H1054 C1036 0.952 . S
H1055 C1044 0.948 . S
O1056 Zn1041 2.034 . S
O1056 C1051 1.246 . S
O1057 Zn1049 2.024 . S
O1057 C1051 1.249 . S
H1058 C1040 0.948 . S
O1059 Zn1049 2.039 . S
O1059 C1063 1.251 . S
O1060 Zn1041 2.025 . S
O1060 C1063 1.254 . S
O1061 C1042 1.246 . S
O1061 Zn1049 2.034 . S
O1062 Zn1041 2.024 . S
O1062 C1042 1.249 . S
C1063 O1059 1.251 . S
C1063 O1060 1.254 . S
H1064 C1037 0.949 . S
H1065 C1039 0.950 . S
H1066 C1046 0.949 . S
H1067 C1048 0.950 . S
C1068 O1084 1.251 . S
C1068 O1086 1.254 . S
N1069 C1070 1.333 . S
N1069 C1074 1.307 . S
N1069 Zn1075 2.020 . S
C1070 N1069 1.333 . S
C1070 C1071 1.379 . S
C1070 H1088 0.952 . S
C1071 C1070 1.379 . S
C1071 C1072 1.390 . S
C1071 H1098 0.949 . S
C1072 C1071 1.390 . S
C1072 C1073 1.357 . S
C1073 C1072 1.357 . S
C1073 C1074 1.370 . S
C1073 H1099 0.950 . S
C1074 N1069 1.307 . S
C1074 C1073 1.370 . S
C1074 H1092 0.948 . S
Zn1075 N1069 2.020 . S
Zn1075 O1084 2.039 1_545 S
Zn1075 O1090 2.034 . S
Zn1075 O1094 2.025 . S
Zn1075 O1096 2.024 . S
C1076 O1095 1.246 . S
C1076 O1096 1.249 1_565 S
N1077 C1078 1.307 . S
N1077 C1079 1.333 1_565 S
N1077 Zn1083 2.020 1_566 S
C1078 N1077 1.307 . S
C1078 C1082 1.370 . S
C1078 H1089 0.948 . S
C1079 N1077 1.333 1_545 S
C1079 C1080 1.379 1_545 S
C1079 H1087 0.952 . S
C1080 C1079 1.379 1_565 S
C1080 C1081 1.390 . S
C1080 H1100 0.949 1_565 S
C1081 C1080 1.390 . S
C1081 C1082 1.357 . S
C1082 C1078 1.370 . S
C1082 C1081 1.357 . S
C1082 H1101 0.950 . S
Zn1083 N1077 2.020 1_544 S
Zn1083 O1086 2.025 1_545 S
Zn1083 O1091 2.024 . S
Zn1083 O1093 2.039 1_554 S
Zn1083 O1095 2.034 1_545 S
O1084 C1068 1.251 . S
O1084 Zn1075 2.039 1_565 S
C1085 O1090 1.246 . S
C1085 O1091 1.249 . S
O1086 C1068 1.254 . S
O1086 Zn1083 2.025 1_565 S
H1087 C1079 0.952 . S
H1088 C1070 0.952 . S
H1089 C1078 0.948 . S
O1090 Zn1075 2.034 . S
O1090 C1085 1.246 . S
O1091 Zn1083 2.024 . S
O1091 C1085 1.249 . S
H1092 C1074 0.948 . S
O1093 Zn1083 2.039 1_556 S
O1093 C1097 1.251 1_556 S
O1094 Zn1075 2.025 . S
O1094 C1097 1.254 . S
O1095 C1076 1.246 . S
O1095 Zn1083 2.034 1_565 S
O1096 Zn1075 2.024 . S
O1096 C1076 1.249 1_545 S
C1097 O1093 1.251 1_554 S
C1097 O1094 1.254 . S
H1098 C1071 0.949 . S
H1099 C1073 0.950 . S
H1100 C1080 0.949 1_545 S
H1101 C1082 0.950 . S
C1102 O1118 1.251 . S
C1102 O1120 1.254 . S
N1103 C1104 1.333 . S
N1103 C1108 1.307 . S
N1103 Zn1109 2.020 . S
C1104 N1103 1.333 . S
C1104 C1105 1.379 . S
C1104 H1122 0.952 . S
C1105 C1104 1.379 . S
C1105 C1106 1.390 . S
C1105 H1132 0.949 . S
C1106 C1105 1.390 . S
C1106 C1107 1.357 . S
C1107 C1106 1.357 . S
C1107 C1108 1.370 . S
C1107 H1133 0.950 . S
C1108 N1103 1.307 . S
C1108 C1107 1.370 . S
C1108 H1126 0.948 . S
Zn1109 N1103 2.020 . S
Zn1109 O1118 2.039 . S
Zn1109 O1124 2.034 . S
Zn1109 O1128 2.025 . S
Zn1109 O1130 2.024 . S
C1110 O1129 1.246 . S
C1110 O1130 1.249 . S
N1111 C1112 1.307 . S
N1111 C1113 1.333 . S
N1111 Zn1117 2.020 . S
C1112 N1111 1.307 . S
C1112 C1116 1.370 . S
C1112 H1123 0.948 . S
C1113 N1111 1.333 . S
C1113 C1114 1.379 . S
C1113 H1121 0.952 . S
C1114 C1113 1.379 . S
C1114 C1115 1.390 . S
C1114 H1134 0.949 . S
C1115 C1114 1.390 . S
C1115 C1116 1.357 . S
C1116 C1112 1.370 . S
C1116 C1115 1.357 . S
C1116 H1135 0.950 . S
Zn1117 N1111 2.020 . S
Zn1117 O1120 2.025 . S
Zn1117 O1125 2.024 . S
Zn1117 O1127 2.039 . S
Zn1117 O1129 2.034 . S
O1118 C1102 1.251 . S
O1118 Zn1109 2.039 . S
C1119 O1124 1.246 . S
C1119 O1125 1.249 . S
O1120 C1102 1.254 . S
O1120 Zn1117 2.025 . S
H1121 C1113 0.952 . S
H1122 C1104 0.952 . S
H1123 C1112 0.948 . S
O1124 Zn1109 2.034 . S
O1124 C1119 1.246 . S
O1125 Zn1117 2.024 . S
O1125 C1119 1.249 . S
H1126 C1108 0.948 . S
O1127 Zn1117 2.039 . S
O1127 C1131 1.251 . S
O1128 Zn1109 2.025 . S
O1128 C1131 1.254 . S
O1129 C1110 1.246 . S
O1129 Zn1117 2.034 . S
O1130 Zn1109 2.024 . S
O1130 C1110 1.249 . S
C1131 O1127 1.251 . S
C1131 O1128 1.254 . S
H1132 C1105 0.949 . S
H1133 C1107 0.950 . S
H1134 C1114 0.949 . S
H1135 C1116 0.950 . S
C1136 O1152 1.251 . S
C1136 O1154 1.254 . S
N1137 C1138 1.333 . S
N1137 C1142 1.307 . S
N1137 Zn1143 2.020 1_556 S
C1138 N1137 1.333 . S
C1138 C1139 1.379 . S
C1138 H1156 0.952 . S
C1139 C1138 1.379 . S
C1139 C1140 1.390 . S
C1139 H1166 0.949 . S
C1140 C1139 1.390 . S
C1140 C1141 1.357 . S
C1141 C1140 1.357 . S
C1141 C1142 1.370 . S
C1141 H1167 0.950 . S
C1142 N1137 1.307 . S
C1142 C1141 1.370 . S
C1142 H1160 0.948 . S
Zn1143 N1137 2.020 1_554 S
Zn1143 O1152 2.039 . S
Zn1143 O1158 2.034 . S
Zn1143 O1162 2.025 1_554 S
Zn1143 O1164 2.024 1_554 S
C1144 O1163 1.246 . S
C1144 O1164 1.249 1_554 S
N1145 C1146 1.307 . S
N1145 C1147 1.333 . S
N1145 Zn1151 2.020 . S
C1146 N1145 1.307 . S
C1146 C1150 1.370 . S
C1146 H1157 0.948 . S
C1147 N1145 1.333 . S
C1147 C1148 1.379 . S
C1147 H1155 0.952 . S
C1148 C1147 1.379 . S
C1148 C1149 1.390 . S
C1148 H1168 0.949 . S
C1149 C1148 1.390 . S
C1149 C1150 1.357 . S
C1150 C1146 1.370 . S
C1150 C1149 1.357 . S
C1150 H1169 0.950 . S
Zn1151 N1145 2.020 . S
Zn1151 O1154 2.025 . S
Zn1151 O1159 2.024 . S
Zn1151 O1161 2.039 . S
Zn1151 O1163 2.034 . S
O1152 C1136 1.251 . S
O1152 Zn1143 2.039 . S
C1153 O1158 1.246 . S
C1153 O1159 1.249 . S
O1154 C1136 1.254 . S
O1154 Zn1151 2.025 . S
H1155 C1147 0.952 . S
H1156 C1138 0.952 . S
H1157 C1146 0.948 . S
O1158 Zn1143 2.034 . S
O1158 C1153 1.246 . S
O1159 Zn1151 2.024 . S
O1159 C1153 1.249 . S
H1160 C1142 0.948 . S
O1161 Zn1151 2.039 . S
O1161 C1165 1.251 . S
O1162 Zn1143 2.025 1_556 S
O1162 C1165 1.254 1_556 S
O1163 C1144 1.246 . S
O1163 Zn1151 2.034 . S
O1164 Zn1143 2.024 1_556 S
O1164 C1144 1.249 1_556 S
C1165 O1161 1.251 . S
C1165 O1162 1.254 1_554 S
H1166 C1139 0.949 . S
H1167 C1141 0.950 . S
H1168 C1148 0.949 . S
H1169 C1150 0.950 . S
C1170 O1186 1.251 . S
C1170 O1188 1.254 . S
N1171 C1172 1.333 . S
N1171 C1176 1.307 . S
N1171 Zn1177 2.020 . S
C1172 N1171 1.333 . S
C1172 C1173 1.379 . S
C1172 H1190 0.952 . S
C1173 C1172 1.379 . S
C1173 C1174 1.390 1_655 S
C1173 H1200 0.949 . S
C1174 C1173 1.390 1_455 S
C1174 C1175 1.357 . S
C1175 C1174 1.357 . S
C1175 C1176 1.370 1_455 S
C1175 H1201 0.950 . S
C1176 N1171 1.307 . S
C1176 C1175 1.370 1_655 S
C1176 H1194 0.948 . S
Zn1177 N1171 2.020 . S
Zn1177 O1186 2.039 . S
Zn1177 O1192 2.034 . S
Zn1177 O1196 2.025 . S
Zn1177 O1198 2.024 . S
C1178 O1197 1.246 . S
C1178 O1198 1.249 . S
N1179 C1180 1.307 . S
N1179 C1181 1.333 . S
N1179 Zn1185 2.020 . S
C1180 N1179 1.307 . S
C1180 C1184 1.370 . S
C1180 H1191 0.948 . S
C1181 N1179 1.333 . S
C1181 C1182 1.379 . S
C1181 H1189 0.952 . S
C1182 C1181 1.379 . S
C1182 C1183 1.390 . S
C1182 H1202 0.949 . S
C1183 C1182 1.390 . S
C1183 C1184 1.357 . S
C1184 C1180 1.370 . S
C1184 C1183 1.357 . S
C1184 H1203 0.950 . S
Zn1185 N1179 2.020 . S
Zn1185 O1188 2.025 . S
Zn1185 O1193 2.024 . S
Zn1185 O1195 2.039 . S
Zn1185 O1197 2.034 . S
O1186 C1170 1.251 . S
O1186 Zn1177 2.039 . S
C1187 O1192 1.246 . S
C1187 O1193 1.249 . S
O1188 C1170 1.254 . S
O1188 Zn1185 2.025 . S
H1189 C1181 0.952 . S
H1190 C1172 0.952 . S
H1191 C1180 0.948 . S
O1192 Zn1177 2.034 . S
O1192 C1187 1.246 . S
O1193 Zn1185 2.024 . S
O1193 C1187 1.249 . S
H1194 C1176 0.948 . S
O1195 Zn1185 2.039 . S
O1195 C1199 1.251 . S
O1196 Zn1177 2.025 . S
O1196 C1199 1.254 . S
O1197 C1178 1.246 . S
O1197 Zn1185 2.034 . S
O1198 Zn1177 2.024 . S
O1198 C1178 1.249 . S
C1199 O1195 1.251 . S
C1199 O1196 1.254 . S
H1200 C1173 0.949 . S
H1201 C1175 0.950 . S
H1202 C1182 0.949 . S
H1203 C1184 0.950 . S
C1204 O1220 1.251 . S
C1204 O1222 1.254 . S
N1205 C1206 1.333 . S
N1205 C1210 1.307 . S
N1205 Zn1211 2.020 . S
C1206 N1205 1.333 . S
C1206 C1207 1.379 . S
C1206 H1224 0.952 . S
C1207 C1206 1.379 . S
C1207 C1208 1.390 . S
C1207 H1234 0.949 . S
C1208 C1207 1.390 . S
C1208 C1209 1.357 . S
C1209 C1208 1.357 . S
C1209 C1210 1.370 . S
C1209 H1235 0.950 . S
C1210 N1205 1.307 . S
C1210 C1209 1.370 . S
C1210 H1228 0.948 . S
Zn1211 N1205 2.020 . S
Zn1211 O1220 2.039 . S
Zn1211 O1226 2.034 . S
Zn1211 O1230 2.025 . S
Zn1211 O1232 2.024 . S
C1212 O1231 1.246 . S
C1212 O1232 1.249 . S
N1213 C1214 1.307 1_455 S
N1213 C1215 1.333 . S
N1213 Zn1219 2.020 . S
C1214 N1213 1.307 1_655 S
C1214 C1218 1.370 . S
C1214 H1225 0.948 . S
C1215 N1213 1.333 . S
C1215 C1216 1.379 . S
C1215 H1223 0.952 . S
C1216 C1215 1.379 . S
C1216 C1217 1.390 1_455 S
C1216 H1236 0.949 . S
C1217 C1216 1.390 1_655 S
C1217 C1218 1.357 . S
C1218 C1214 1.370 . S
C1218 C1217 1.357 . S
C1218 H1237 0.950 . S
Zn1219 N1213 2.020 . S
Zn1219 O1222 2.025 . S
Zn1219 O1227 2.024 1_455 S
Zn1219 O1229 2.039 . S
Zn1219 O1231 2.034 . S
O1220 C1204 1.251 . S
O1220 Zn1211 2.039 . S
C1221 O1226 1.246 1_655 S
C1221 O1227 1.249 . S
O1222 C1204 1.254 . S
O1222 Zn1219 2.025 . S
H1223 C1215 0.952 . S
H1224 C1206 0.952 . S
H1225 C1214 0.948 . S
O1226 Zn1211 2.034 . S
O1226 C1221 1.246 1_455 S
O1227 Zn1219 2.024 1_655 S
O1227 C1221 1.249 . S
H1228 C1210 0.948 . S
O1229 Zn1219 2.039 . S
O1229 C1233 1.251 . S
O1230 Zn1211 2.025 . S
O1230 C1233 1.254 . S
O1231 C1212 1.246 . S
O1231 Zn1219 2.034 . S
O1232 Zn1211 2.024 . S
O1232 C1212 1.249 . S
C1233 O1229 1.251 . S
C1233 O1230 1.254 . S
H1234 C1207 0.949 . S
H1235 C1209 0.950 . S
H1236 C1216 0.949 . S
H1237 C1218 0.950 . S
C1238 O1254 1.251 . S
C1238 O1256 1.254 . S
N1239 C1240 1.333 . S
N1239 C1244 1.307 . S
N1239 Zn1245 2.020 . S
C1240 N1239 1.333 . S
C1240 C1241 1.379 . S
C1240 H1258 0.952 . S
C1241 C1240 1.379 . S
C1241 C1242 1.390 . S
C1241 H1268 0.949 . S
C1242 C1241 1.390 . S
C1242 C1243 1.357 . S
C1243 C1242 1.357 . S
C1243 C1244 1.370 . S
C1243 H1269 0.950 . S
C1244 N1239 1.307 . S
C1244 C1243 1.370 . S
C1244 H1262 0.948 . S
Zn1245 N1239 2.020 . S
Zn1245 O1254 2.039 . S
Zn1245 O1260 2.034 . S
Zn1245 O1264 2.025 . S
Zn1245 O1266 2.024 . S
C1246 O1265 1.246 . S
C1246 O1266 1.249 . S
N1247 C1248 1.307 . S
N1247 C1249 1.333 . S
N1247 Zn1253 2.020 . S
C1248 N1247 1.307 . S
C1248 C1252 1.370 . S
C1248 H1259 0.948 . S
C1249 N1247 1.333 . S
C1249 C1250 1.379 . S
C1249 H1257 0.952 . S
C1250 C1249 1.379 . S
C1250 C1251 1.390 . S
C1250 H1270 0.949 . S
C1251 C1250 1.390 . S
C1251 C1252 1.357 . S
C1252 C1248 1.370 . S
C1252 C1251 1.357 . S
C1252 H1271 0.950 . S
Zn1253 N1247 2.020 . S
Zn1253 O1256 2.025 . S
Zn1253 O1261 2.024 . S
Zn1253 O1263 2.039 . S
Zn1253 O1265 2.034 . S
O1254 C1238 1.251 . S
O1254 Zn1245 2.039 . S
C1255 O1260 1.246 . S
C1255 O1261 1.249 . S
O1256 C1238 1.254 . S
O1256 Zn1253 2.025 . S
H1257 C1249 0.952 . S
H1258 C1240 0.952 . S
H1259 C1248 0.948 . S
O1260 Zn1245 2.034 . S
O1260 C1255 1.246 . S
O1261 Zn1253 2.024 . S
O1261 C1255 1.249 . S
H1262 C1244 0.948 . S
O1263 Zn1253 2.039 . S
O1263 C1267 1.251 . S
O1264 Zn1245 2.025 . S
O1264 C1267 1.254 . S
O1265 C1246 1.246 . S
O1265 Zn1253 2.034 . S
O1266 Zn1245 2.024 . S
O1266 C1246 1.249 . S
C1267 O1263 1.251 . S
C1267 O1264 1.254 . S
H1268 C1241 0.949 . S
H1269 C1243 0.950 . S
H1270 C1250 0.949 . S
H1271 C1252 0.950 . S
C1272 O1288 1.251 . S
C1272 O1290 1.254 . S
N1273 C1274 1.333 . S
N1273 C1278 1.307 . S
N1273 Zn1279 2.020 . S
C1274 N1273 1.333 . S
C1274 C1275 1.379 . S
C1274 H1292 0.952 . S
C1275 C1274 1.379 . S
C1275 C1276 1.390 . S
C1275 H1302 0.949 . S
C1276 C1275 1.390 . S
C1276 C1277 1.357 . S
C1277 C1276 1.357 . S
C1277 C1278 1.370 . S
C1277 H1303 0.950 . S
C1278 N1273 1.307 . S
C1278 C1277 1.370 . S
C1278 H1296 0.948 . S
Zn1279 N1273 2.020 . S
Zn1279 O1288 2.039 . S
Zn1279 O1294 2.034 . S
Zn1279 O1298 2.025 . S
Zn1279 O1300 2.024 . S
C1280 O1299 1.246 . S
C1280 O1300 1.249 . S
N1281 C1282 1.307 . S
N1281 C1283 1.333 . S
N1281 Zn1287 2.020 . S
C1282 N1281 1.307 . S
C1282 C1286 1.370 . S
C1282 H1293 0.948 . S
C1283 N1281 1.333 . S
C1283 C1284 1.379 . S
C1283 H1291 0.952 . S
C1284 C1283 1.379 . S
C1284 C1285 1.390 . S
C1284 H1304 0.949 . S
C1285 C1284 1.390 . S
C1285 C1286 1.357 . S
C1286 C1282 1.370 . S
C1286 C1285 1.357 . S
C1286 H1305 0.950 . S
Zn1287 N1281 2.020 . S
Zn1287 O1290 2.025 . S
Zn1287 O1295 2.024 . S
Zn1287 O1297 2.039 . S
Zn1287 O1299 2.034 . S
O1288 C1272 1.251 . S
O1288 Zn1279 2.039 . S
C1289 O1294 1.246 . S
C1289 O1295 1.249 . S
O1290 C1272 1.254 . S
O1290 Zn1287 2.025 . S
H1291 C1283 0.952 . S
H1292 C1274 0.952 . S
H1293 C1282 0.948 . S
O1294 Zn1279 2.034 . S
O1294 C1289 1.246 . S
O1295 Zn1287 2.024 . S
O1295 C1289 1.249 . S
H1296 C1278 0.948 . S
O1297 Zn1287 2.039 . S
O1297 C1301 1.251 . S
O1298 Zn1279 2.025 . S
O1298 C1301 1.254 . S
O1299 C1280 1.246 . S
O1299 Zn1287 2.034 . S
O1300 Zn1279 2.024 . S
O1300 C1280 1.249 . S
C1301 O1297 1.251 . S
C1301 O1298 1.254 . S
H1302 C1275 0.949 . S
H1303 C1277 0.950 . S
H1304 C1284 0.949 . S
H1305 C1286 0.950 . S
C1306 O1322 1.251 . S
C1306 O1324 1.254 . S
N1307 C1308 1.333 . S
N1307 C1312 1.307 . S
N1307 Zn1313 2.020 . S
C1308 N1307 1.333 . S
C1308 C1309 1.379 . S
C1308 H1326 0.952 . S
C1309 C1308 1.379 . S
C1309 C1310 1.390 . S
C1309 H1336 0.949 . S
C1310 C1309 1.390 . S
C1310 C1311 1.357 . S
C1311 C1310 1.357 . S
C1311 C1312 1.370 . S
C1311 H1337 0.950 . S
C1312 N1307 1.307 . S
C1312 C1311 1.370 . S
C1312 H1330 0.948 . S
Zn1313 N1307 2.020 . S
Zn1313 O1322 2.039 . S
Zn1313 O1328 2.034 . S
Zn1313 O1332 2.025 . S
Zn1313 O1334 2.024 . S
C1314 O1333 1.246 . S
C1314 O1334 1.249 . S
N1315 C1316 1.307 . S
N1315 C1317 1.333 . S
N1315 Zn1321 2.020 . S
C1316 N1315 1.307 . S
C1316 C1320 1.370 . S
C1316 H1327 0.948 . S
C1317 N1315 1.333 . S
C1317 C1318 1.379 . S
C1317 H1325 0.952 . S
C1318 C1317 1.379 . S
C1318 C1319 1.390 . S
C1318 H1338 0.949 . S
C1319 C1318 1.390 . S
C1319 C1320 1.357 . S
C1320 C1316 1.370 . S
C1320 C1319 1.357 . S
C1320 H1339 0.950 . S
Zn1321 N1315 2.020 . S
Zn1321 O1324 2.025 . S
Zn1321 O1329 2.024 . S
Zn1321 O1331 2.039 . S
Zn1321 O1333 2.034 . S
O1322 C1306 1.251 . S
O1322 Zn1313 2.039 . S
C1323 O1328 1.246 . S
C1323 O1329 1.249 . S
O1324 C1306 1.254 . S
O1324 Zn1321 2.025 . S
H1325 C1317 0.952 . S
H1326 C1308 0.952 . S
H1327 C1316 0.948 . S
O1328 Zn1313 2.034 . S
O1328 C1323 1.246 . S
O1329 Zn1321 2.024 . S
O1329 C1323 1.249 . S
H1330 C1312 0.948 . S
O1331 Zn1321 2.039 . S
O1331 C1335 1.251 . S
O1332 Zn1313 2.025 . S
O1332 C1335 1.254 . S
O1333 C1314 1.246 . S
O1333 Zn1321 2.034 . S
O1334 Zn1313 2.024 . S
O1334 C1314 1.249 . S
C1335 O1331 1.251 . S
C1335 O1332 1.254 . S
H1336 C1309 0.949 . S
H1337 C1311 0.950 . S
H1338 C1318 0.949 . S
H1339 C1320 0.950 . S
C1340 O1356 1.251 . S
C1340 O1358 1.254 . S
N1341 C1342 1.333 . S
N1341 C1346 1.307 . S
N1341 Zn1347 2.020 . S
C1342 N1341 1.333 . S
C1342 C1343 1.379 . S
C1342 H1360 0.952 . S
C1343 C1342 1.379 . S
C1343 C1344 1.390 . S
C1343 H1370 0.949 . S
C1344 C1343 1.390 . S
C1344 C1345 1.357 . S
C1345 C1344 1.357 . S
C1345 C1346 1.370 . S
C1345 H1371 0.950 . S
C1346 N1341 1.307 . S
C1346 C1345 1.370 . S
C1346 H1364 0.948 . S
Zn1347 N1341 2.020 . S
Zn1347 O1356 2.039 . S
Zn1347 O1362 2.034 . S
Zn1347 O1366 2.025 . S
Zn1347 O1368 2.024 . S
C1348 O1367 1.246 . S
C1348 O1368 1.249 . S
N1349 C1350 1.307 . S
N1349 C1351 1.333 . S
N1349 Zn1355 2.020 . S
C1350 N1349 1.307 . S
C1350 C1354 1.370 . S
C1350 H1361 0.948 . S
C1351 N1349 1.333 . S
C1351 C1352 1.379 . S
C1351 H1359 0.952 . S
C1352 C1351 1.379 . S
C1352 C1353 1.390 . S
C1352 H1372 0.949 . S
C1353 C1352 1.390 . S
C1353 C1354 1.357 . S
C1354 C1350 1.370 . S
C1354 C1353 1.357 . S
C1354 H1373 0.950 . S
Zn1355 N1349 2.020 . S
Zn1355 O1358 2.025 . S
Zn1355 O1363 2.024 . S
Zn1355 O1365 2.039 . S
Zn1355 O1367 2.034 . S
O1356 C1340 1.251 . S
O1356 Zn1347 2.039 . S
C1357 O1362 1.246 . S
C1357 O1363 1.249 . S
O1358 C1340 1.254 . S
O1358 Zn1355 2.025 . S
H1359 C1351 0.952 . S
H1360 C1342 0.952 . S
H1361 C1350 0.948 . S
O1362 Zn1347 2.034 . S
O1362 C1357 1.246 . S
O1363 Zn1355 2.024 . S
O1363 C1357 1.249 . S
H1364 C1346 0.948 . S
O1365 Zn1355 2.039 . S
O1365 C1369 1.251 . S
O1366 Zn1347 2.025 . S
O1366 C1369 1.254 . S
O1367 C1348 1.246 . S
O1367 Zn1355 2.034 . S
O1368 Zn1347 2.024 . S
O1368 C1348 1.249 . S
C1369 O1365 1.251 . S
C1369 O1366 1.254 . S
H1370 C1343 0.949 . S
H1371 C1345 0.950 . S
H1372 C1352 0.949 . S
H1373 C1354 0.950 . S
C1374 O1390 1.251 . S
C1374 O1392 1.254 . S
N1375 C1376 1.333 . S
N1375 C1380 1.307 . S
N1375 Zn1381 2.020 . S
C1376 N1375 1.333 . S
C1376 C1377 1.379 . S
C1376 H1394 0.952 . S
C1377 C1376 1.379 . S
C1377 C1378 1.390 . S
C1377 H1404 0.949 . S
C1378 C1377 1.390 . S
C1378 C1379 1.357 . S
C1379 C1378 1.357 . S
C1379 C1380 1.370 . S
C1379 H1405 0.950 . S
C1380 N1375 1.307 . S
C1380 C1379 1.370 . S
C1380 H1398 0.948 . S
Zn1381 N1375 2.020 . S
Zn1381 O1390 2.039 . S
Zn1381 O1396 2.034 . S
Zn1381 O1400 2.047 . S
Zn1381 O1402 2.024 . S
C1382 O1401 1.246 . S
C1382 O1402 1.249 1_655 S
N1383 C1384 1.307 . S
N1383 C1385 1.333 1_554 S
N1383 Zn1389 2.020 . S
C1384 N1383 1.307 . S
C1384 C1388 1.370 . S
C1384 H1395 0.948 . S
C1385 N1383 1.333 1_556 S
C1385 C1386 1.379 1_455 S
C1385 H1393 0.952 . S
C1386 C1385 1.379 1_655 S
C1386 C1387 1.390 . S
C1386 H1406 0.949 . S
C1387 C1386 1.390 . S
C1387 C1388 1.357 1_656 S
C1388 C1384 1.370 . S
C1388 C1387 1.357 1_454 S
C1388 H1407 0.950 . S
Zn1389 N1383 2.020 . S
Zn1389 O1392 2.025 . S
Zn1389 O1397 2.024 . S
Zn1389 O1399 2.039 1_554 S
Zn1389 O1401 2.034 1_455 S
O1390 C1374 1.251 . S
O1390 Zn1381 2.039 . S
C1391 O1396 1.246 . S
C1391 O1397 1.249 . S
O1392 C1374 1.254 . S
O1392 Zn1389 2.025 . S
H1393 C1385 0.952 . S
H1394 C1376 0.952 . S
H1395 C1384 0.948 . S
O1396 Zn1381 2.034 . S
O1396 C1391 1.246 . S
O1397 Zn1389 2.024 . S
O1397 C1391 1.249 . S
H1398 C1380 0.948 . S
O1399 Zn1389 2.039 1_556 S
O1399 C1403 1.251 . S
O1400 Zn1381 2.047 . S
O1400 C1403 1.239 1_554 S
O1401 C1382 1.246 . S
O1401 Zn1389 2.034 1_655 S
O1402 Zn1381 2.024 . S
O1402 C1382 1.249 1_455 S
C1403 O1399 1.251 . S
C1403 O1400 1.239 1_556 S
H1404 C1377 0.949 . S
H1405 C1379 0.950 . S
H1406 C1386 0.949 . S
H1407 C1388 0.950 . S
C881 C2 2.956 . S
C39 C927 2.560 . S
C86 C936 0.961 . S
C974 C112 2.192 . S
C38 C1008 2.369 . S
C1038 C76 0.751 . S
C1097 C122 2.059 1_554 S
C3 C1110 2.554 . S
C147 C893 2.358 1_545 S
C184 C911 1.738 . S
C932 C219 2.618 . S
C970 C256 2.713 . S
C148 C1004 1.813 . S
C1034 C183 2.483 . S
C1081 C220 2.045 1_565 S
C1106 C255 1.395 . S
C877 C254 1.408 . S
C1136 C302 2.157 . S
C326 C1178 2.478 . S
C1221 C374 1.146 . S
C146 C1102 2.463 . S
C940 C182 2.621 . S
C338 C1238 1.505 . S
C1289 C410 2.011 . S
C434 C872 2.915 1_556 S
C1272 C472 2.663 . S
C507 C945 0.975 . S
C543 C1255 2.187 . S
C1017 C470 2.399 . S
C1183 C518 0.716 . S
C1068 C554 2.078 . S
C1323 C436 2.733 . S
C864 C580 2.437 1_445 S
C615 C1276 1.773 . S
C961 C652 2.762 1_565 S
C687 C1251 2.722 . S
C579 C1013 1.982 . S
C616 C1199 2.625 . S
C1072 C651 2.101 . S
C688 C1319 1.515 . S
C686 C868 1.437 . S
C734 C1165 2.370 1_556 S
C758 C1051 2.475 . S
C806 C1212 0.902 . S
C1335 C578 2.335 . S
C949 C614 2.584 . S
C995 C770 1.884 . S
C906 C842 2.148 . S
C74 C1357 3.278 . S
C1301 C111 2.558 . S
C1378 C14 0.960 . S
C40 C1246 2.196 . S
C110 C1144 2.362 1_556 S
C1174 C4 0.789 . S
C1233 C50 2.054 . S
C1314 C75 2.792 . S
C1369 C399 2.182 . S
C292 C1285 1.728 1_554 S
C327 C1374 2.646 1_655 S
C1242 C364 2.680 . S
C1140 C400 1.821 . S
C291 C1170 2.525 . S
C1217 C328 2.018 . S
C363 C1310 1.337 . S
C1353 C362 1.610 . S
C1000 C194 2.177 . S
C1042 C218 2.486 . S
C266 C1085 1.229 . S
C1306 C398 2.295 . S
C290 C1382 2.606 . S
C966 C230 1.539 . S
C915 C158 1.974 . S
C508 C1348 3.001 . S
C898 C544 2.666 . S
C1387 C446 0.716 . S
C471 C983 2.193 . S
C542 C1153 2.390 . S
C435 C1047 0.753 . S
C482 C1204 2.058 . S
C506 C1119 2.720 . S
C1340 C832 2.608 . S
C723 C902 1.786 . S
C1403 C760 2.764 . S
C795 C979 2.666 . S
C831 C1149 1.981 . S
C1063 C724 2.621 . S
C759 C1208 2.067 . S
C1115 C796 1.513 . S
C1344 C794 1.328 . S
C1029 C626 2.386 . S
C650 C1187 2.529 . S
C1076 C698 1.004 1_565 S
C1131 C830 2.276 . S
C722 C1391 2.628 1_556 S
C1267 C662 1.879 . S
C1280 C590 2.184 . S
