# Generated by pormake.
# Topology fgl, (4,4)-cn, num edge types: 1
# Building blocks:
#     Node 0, Type 0, BuildingBlock: ESEHIV_clean_sbu_0, # of connection points: 4
#     Node 1, Type 0, BuildingBlock: ESEHIV_clean_sbu_0, # of connection points: 4
#     Node 2, Type 0, BuildingBlock: ESEHIV_clean_sbu_0, # of connection points: 4
#     Node 3, Type 0, BuildingBlock: ESEHIV_clean_sbu_0, # of connection points: 4
#     Node 4, Type 0, BuildingBlock: ESEHIV_clean_sbu_0, # of connection points: 4
#     Node 5, Type 0, BuildingBlock: ESEHIV_clean_sbu_0, # of connection points: 4
#     Node 6, Type 0, BuildingBlock: ESEHIV_clean_sbu_0, # of connection points: 4
#     Node 7, Type 0, BuildingBlock: ESEHIV_clean_sbu_0, # of connection points: 4
#     Node 8, Type 0, BuildingBlock: ESEHIV_clean_sbu_0, # of connection points: 4
#     Node 9, Type 0, BuildingBlock: ESEHIV_clean_sbu_0, # of connection points: 4
#     Node 10, Type 0, BuildingBlock: ESEHIV_clean_sbu_0, # of connection points: 4
#     Node 11, Type 0, BuildingBlock: ESEHIV_clean_sbu_0, # of connection points: 4
#     Node 12, Type 0, BuildingBlock: ESEHIV_clean_sbu_0, # of connection points: 4
#     Node 13, Type 0, BuildingBlock: ESEHIV_clean_sbu_0, # of connection points: 4
#     Node 14, Type 0, BuildingBlock: ESEHIV_clean_sbu_0, # of connection points: 4
#     Node 15, Type 0, BuildingBlock: ESEHIV_clean_sbu_0, # of connection points: 4
#     Node 16, Type 0, BuildingBlock: ESEHIV_clean_sbu_0, # of connection points: 4
#     Node 17, Type 0, BuildingBlock: ESEHIV_clean_sbu_0, # of connection points: 4
#     Node 18, Type 1, BuildingBlock: CEKHIL_clean_sbu_0, # of connection points: 4
#     Node 19, Type 1, BuildingBlock: CEKHIL_clean_sbu_0, # of connection points: 4
#     Node 20, Type 1, BuildingBlock: CEKHIL_clean_sbu_0, # of connection points: 4
#     Node 21, Type 1, BuildingBlock: CEKHIL_clean_sbu_0, # of connection points: 4
#     Node 22, Type 1, BuildingBlock: CEKHIL_clean_sbu_0, # of connection points: 4
#     Node 23, Type 1, BuildingBlock: CEKHIL_clean_sbu_0, # of connection points: 4
#     Node 24, Type 1, BuildingBlock: CEKHIL_clean_sbu_0, # of connection points: 4
#     Node 25, Type 1, BuildingBlock: CEKHIL_clean_sbu_0, # of connection points: 4
#     Node 26, Type 1, BuildingBlock: CEKHIL_clean_sbu_0, # of connection points: 4
#     Node 27, Type 1, BuildingBlock: CEKHIL_clean_sbu_0, # of connection points: 4
#     Node 28, Type 1, BuildingBlock: CEKHIL_clean_sbu_0, # of connection points: 4
#     Node 29, Type 1, BuildingBlock: CEKHIL_clean_sbu_0, # of connection points: 4
#     Node 30, Type 1, BuildingBlock: CEKHIL_clean_sbu_0, # of connection points: 4
#     Node 31, Type 1, BuildingBlock: CEKHIL_clean_sbu_0, # of connection points: 4
#     Node 32, Type 1, BuildingBlock: CEKHIL_clean_sbu_0, # of connection points: 4
#     Node 33, Type 1, BuildingBlock: CEKHIL_clean_sbu_0, # of connection points: 4
#     Node 34, Type 1, BuildingBlock: CEKHIL_clean_sbu_0, # of connection points: 4
#     Node 35, Type 1, BuildingBlock: CEKHIL_clean_sbu_0, # of connection points: 4
#     Edge 36, Type (0, 1), BuildingBlock: XIVTED_clean_linker_0, # of connection points: 2
#     Edge 37, Type (0, 1), BuildingBlock: XIVTED_clean_linker_0, # of connection points: 2
#     Edge 38, Type (0, 1), BuildingBlock: XIVTED_clean_linker_0, # of connection points: 2
#     Edge 39, Type (0, 1), BuildingBlock: XIVTED_clean_linker_0, # of connection points: 2
#     Edge 40, Type (0, 1), BuildingBlock: XIVTED_clean_linker_0, # of connection points: 2
#     Edge 41, Type (0, 1), BuildingBlock: XIVTED_clean_linker_0, # of connection points: 2
#     Edge 42, Type (0, 1), BuildingBlock: XIVTED_clean_linker_0, # of connection points: 2
#     Edge 43, Type (0, 1), BuildingBlock: XIVTED_clean_linker_0, # of connection points: 2
#     Edge 44, Type (0, 1), BuildingBlock: XIVTED_clean_linker_0, # of connection points: 2
#     Edge 45, Type (0, 1), BuildingBlock: XIVTED_clean_linker_0, # of connection points: 2
#     Edge 46, Type (0, 1), BuildingBlock: XIVTED_clean_linker_0, # of connection points: 2
#     Edge 47, Type (0, 1), BuildingBlock: XIVTED_clean_linker_0, # of connection points: 2
#     Edge 48, Type (0, 1), BuildingBlock: XIVTED_clean_linker_0, # of connection points: 2
#     Edge 49, Type (0, 1), BuildingBlock: XIVTED_clean_linker_0, # of connection points: 2
#     Edge 50, Type (0, 1), BuildingBlock: XIVTED_clean_linker_0, # of connection points: 2
#     Edge 51, Type (0, 1), BuildingBlock: XIVTED_clean_linker_0, # of connection points: 2
#     Edge 52, Type (0, 1), BuildingBlock: XIVTED_clean_linker_0, # of connection points: 2
#     Edge 53, Type (0, 1), BuildingBlock: XIVTED_clean_linker_0, # of connection points: 2
#     Edge 54, Type (0, 1), BuildingBlock: XIVTED_clean_linker_0, # of connection points: 2
#     Edge 55, Type (0, 1), BuildingBlock: XIVTED_clean_linker_0, # of connection points: 2
#     Edge 56, Type (0, 1), BuildingBlock: XIVTED_clean_linker_0, # of connection points: 2
#     Edge 57, Type (0, 1), BuildingBlock: XIVTED_clean_linker_0, # of connection points: 2
#     Edge 58, Type (0, 1), BuildingBlock: XIVTED_clean_linker_0, # of connection points: 2
#     Edge 59, Type (0, 1), BuildingBlock: XIVTED_clean_linker_0, # of connection points: 2
#     Edge 60, Type (0, 1), BuildingBlock: XIVTED_clean_linker_0, # of connection points: 2
#     Edge 61, Type (0, 1), BuildingBlock: XIVTED_clean_linker_0, # of connection points: 2
#     Edge 62, Type (0, 1), BuildingBlock: XIVTED_clean_linker_0, # of connection points: 2
#     Edge 63, Type (0, 1), BuildingBlock: XIVTED_clean_linker_0, # of connection points: 2
#     Edge 64, Type (0, 1), BuildingBlock: XIVTED_clean_linker_0, # of connection points: 2
#     Edge 65, Type (0, 1), BuildingBlock: XIVTED_clean_linker_0, # of connection points: 2
#     Edge 66, Type (0, 1), BuildingBlock: XIVTED_clean_linker_0, # of connection points: 2
#     Edge 67, Type (0, 1), BuildingBlock: XIVTED_clean_linker_0, # of connection points: 2
#     Edge 68, Type (0, 1), BuildingBlock: XIVTED_clean_linker_0, # of connection points: 2
#     Edge 69, Type (0, 1), BuildingBlock: XIVTED_clean_linker_0, # of connection points: 2
#     Edge 70, Type (0, 1), BuildingBlock: XIVTED_clean_linker_0, # of connection points: 2
#     Edge 71, Type (0, 1), BuildingBlock: XIVTED_clean_linker_0, # of connection points: 2
#     Edge 72, Type (0, 1), BuildingBlock: XIVTED_clean_linker_0, # of connection points: 2
#     Edge 73, Type (0, 1), BuildingBlock: XIVTED_clean_linker_0, # of connection points: 2
#     Edge 74, Type (0, 1), BuildingBlock: XIVTED_clean_linker_0, # of connection points: 2
#     Edge 75, Type (0, 1), BuildingBlock: XIVTED_clean_linker_0, # of connection points: 2
#     Edge 76, Type (0, 1), BuildingBlock: XIVTED_clean_linker_0, # of connection points: 2
#     Edge 77, Type (0, 1), BuildingBlock: XIVTED_clean_linker_0, # of connection points: 2
#     Edge 78, Type (0, 1), BuildingBlock: XIVTED_clean_linker_0, # of connection points: 2
#     Edge 79, Type (0, 1), BuildingBlock: XIVTED_clean_linker_0, # of connection points: 2
#     Edge 80, Type (0, 1), BuildingBlock: XIVTED_clean_linker_0, # of connection points: 2
#     Edge 81, Type (0, 1), BuildingBlock: XIVTED_clean_linker_0, # of connection points: 2
#     Edge 82, Type (0, 1), BuildingBlock: XIVTED_clean_linker_0, # of connection points: 2
#     Edge 83, Type (0, 1), BuildingBlock: XIVTED_clean_linker_0, # of connection points: 2
#     Edge 84, Type (0, 1), BuildingBlock: XIVTED_clean_linker_0, # of connection points: 2
#     Edge 85, Type (0, 1), BuildingBlock: XIVTED_clean_linker_0, # of connection points: 2
#     Edge 86, Type (0, 1), BuildingBlock: XIVTED_clean_linker_0, # of connection points: 2
#     Edge 87, Type (0, 1), BuildingBlock: XIVTED_clean_linker_0, # of connection points: 2
#     Edge 88, Type (0, 1), BuildingBlock: XIVTED_clean_linker_0, # of connection points: 2
#     Edge 89, Type (0, 1), BuildingBlock: XIVTED_clean_linker_0, # of connection points: 2
#     Edge 90, Type (0, 1), BuildingBlock: XIVTED_clean_linker_0, # of connection points: 2
#     Edge 91, Type (0, 1), BuildingBlock: XIVTED_clean_linker_0, # of connection points: 2
#     Edge 92, Type (0, 1), BuildingBlock: XIVTED_clean_linker_0, # of connection points: 2
#     Edge 93, Type (0, 1), BuildingBlock: XIVTED_clean_linker_0, # of connection points: 2
#     Edge 94, Type (0, 1), BuildingBlock: XIVTED_clean_linker_0, # of connection points: 2
#     Edge 95, Type (0, 1), BuildingBlock: XIVTED_clean_linker_0, # of connection points: 2
#     Edge 96, Type (0, 1), BuildingBlock: XIVTED_clean_linker_0, # of connection points: 2
#     Edge 97, Type (0, 1), BuildingBlock: XIVTED_clean_linker_0, # of connection points: 2
#     Edge 98, Type (0, 1), BuildingBlock: XIVTED_clean_linker_0, # of connection points: 2
#     Edge 99, Type (0, 1), BuildingBlock: XIVTED_clean_linker_0, # of connection points: 2
#     Edge 100, Type (0, 1), BuildingBlock: XIVTED_clean_linker_0, # of connection points: 2
#     Edge 101, Type (0, 1), BuildingBlock: XIVTED_clean_linker_0, # of connection points: 2
#     Edge 102, Type (0, 1), BuildingBlock: XIVTED_clean_linker_0, # of connection points: 2
#     Edge 103, Type (0, 1), BuildingBlock: XIVTED_clean_linker_0, # of connection points: 2
#     Edge 104, Type (0, 1), BuildingBlock: XIVTED_clean_linker_0, # of connection points: 2
#     Edge 105, Type (0, 1), BuildingBlock: XIVTED_clean_linker_0, # of connection points: 2
#     Edge 106, Type (0, 1), BuildingBlock: XIVTED_clean_linker_0, # of connection points: 2
#     Edge 107, Type (0, 1), BuildingBlock: XIVTED_clean_linker_0, # of connection points: 2
# Relax obj value: 0.016
# Max RMSD: 0.135
# Mean RMSD: 0.076
data_MOF--net-fgl--node1-ESEHIV_clean_sbu_0--node2-CEKHIL_clean_sbu_0--edge1-XIVTED_clean_linker_0
_symmetry_space_group_name_H-M    P1
_symmetry_Int_Tables_number       1
_symmetry_cell_setting            triclinic
loop_
_symmetry_equiv_pos_as_xyz
'x, y, z'
_cell_length_a     76.005486
_cell_length_b     75.267088
_cell_length_c     51.280194
_cell_angle_alpha  90.733719
_cell_angle_beta   90.766468
_cell_angle_gamma 119.81456
loop_
_atom_site_label
_atom_site_type_symbol
_atom_site_fract_x
_atom_site_fract_y
_atom_site_fract_z
_atom_type_partial_charge
Cu0 Cu 0.01918 0.53821 0.01574 0.0
N1 N 1.00164 0.53911 0.04056 0.0
N2 N 0.99341 0.55222 0.07473 0.0
C3 C 0.00842 0.55371 0.05952 0.0
C4 C 0.9764 0.53572 0.06509 0.0
C5 C 0.98152 0.5277 0.0439 0.0
O6 O 0.03847 0.56667 0.00925 0.0
C7 C 0.01741 0.50288 0.0297 0.0
O8 O 0.99859 0.49671 0.02229 0.0
H9 H 0.02422 0.56531 0.06198 0.0
H10 H 0.97129 0.5147 0.03168 0.0
N11 N 1.00809 0.52613 0.98297 0.0
N12 N 1.00795 0.51211 0.94403 0.0
C13 C 0.01837 0.52074 0.96651 0.0
C14 C 0.99043 0.52091 0.97049 0.0
C15 C 0.99033 0.51227 0.94638 0.0
C16 C 0.02915 0.57609 1.0026 0.0
O17 O 0.00929 0.56583 1.00008 0.0
H18 H 0.03338 0.52323 0.97111 0.0
H19 H 0.97848 0.52306 0.97838 0.0
O20 O 0.03028 0.52198 0.02967 0.0
H21 H 0.96129 0.53013 0.0724 0.0
H22 H 0.97805 0.50618 0.93202 0.0
Cu23 Cu 0.53981 0.5644 0.02935 0.0
N24 N 0.54173 0.57119 0.99212 0.0
N25 N 0.55295 0.58324 0.95229 0.0
C26 C 0.55821 0.58131 0.97708 0.0
C27 C 0.53247 0.57382 0.95196 0.0
C28 C 0.52567 0.56651 0.97638 0.0
O29 O 0.56105 0.59463 0.03837 0.0
C30 C 0.51779 0.51842 0.02631 0.0
O31 O 0.53321 0.51996 0.04008 0.0
H32 H 0.57366 0.58745 0.98423 0.0
H33 H 0.51004 0.55834 0.98234 0.0
N34 N 0.53735 0.55735 0.06662 0.0
N35 N 0.52422 0.54448 0.10556 0.0
C36 C 0.52055 0.54925 0.08137 0.0
C37 C 0.55196 0.55748 0.08181 0.0
C38 C 0.54401 0.5497 0.10567 0.0
C39 C 0.57998 0.60133 0.0423 0.0
O40 O 0.58691 0.58846 0.0412 0.0
H41 H 0.50594 0.5466 0.07434 0.0
H42 H 0.56714 0.56208 0.07567 0.0
O43 O 0.51768 0.53471 0.01982 0.0
H44 H 0.52294 0.57215 0.93518 0.0
H45 H 0.55211 0.54732 0.1215 0.0
Cu46 Cu 0.50619 0.03419 0.02138 0.0
N47 N 0.49633 0.01702 0.99196 0.0
N48 N 0.47932 1.00355 0.95448 0.0
C49 C 0.48091 0.0145 0.97631 0.0
C50 C 0.49427 0.99889 0.95653 0.0
C51 C 0.50468 0.00712 0.97984 0.0
O52 O 0.48464 0.03771 0.03637 0.0
C53 C 0.53816 0.06416 0.99056 0.0
O54 O 0.52613 0.05463 0.97039 0.0
H55 H 0.47194 0.02175 0.97997 0.0
H56 H 0.51806 0.00689 0.98681 0.0
N57 N 0.51326 0.02159 0.04694 0.0
N58 N 0.5313 0.01961 0.08014 0.0
C59 C 0.5318 0.02937 0.05812 0.0
C60 C 0.50062 0.00625 0.06221 0.0
C61 C 0.51175 1.00503 0.08286 0.0
C62 C 0.47657 0.04771 0.02733 0.0
O63 O 0.48378 0.05838 1.00615 0.0
H64 H 0.54502 0.04307 0.0516 0.0
H65 H 0.48431 0.99765 0.05956 0.0
O66 O 0.53138 0.05917 0.01351 0.0
H67 H 0.49786 0.99079 0.94186 0.0
H68 H 0.50581 0.99501 0.09931 0.0
Cu69 Cu 0.5313 0.03602 0.51881 0.0
N70 N 0.52993 0.02162 0.48814 0.0
N71 N 0.54077 0.01536 0.45062 0.0
C72 C 0.54525 0.02828 0.47131 0.0
C73 C 0.52176 0.99991 0.45464 0.0
C74 C 0.51512 1.00379 0.47783 0.0
O75 O 0.55932 0.04525 0.53226 0.0
C76 C 0.50375 0.04674 0.50022 0.0
O77 O 0.4942 0.02666 0.49831 0.0
H78 H 0.55931 0.0426 0.4741 0.0
H79 H 0.50049 0.99434 0.48635 0.0
N80 N 0.51292 0.01919 0.54378 0.0
N81 N 0.49307 0.01074 0.57859 0.0
C82 C 0.50698 0.02614 0.56426 0.0
C83 C 0.5024 0.99863 0.54515 0.0
C84 C 0.49015 0.99338 0.56659 0.0
C85 C 0.56217 0.03078 0.5404 0.0
O86 O 0.5465 0.01219 0.54092 0.0
H87 H 0.51245 0.04224 0.5681 0.0
H88 H 0.50358 0.98816 0.53163 0.0
O89 O 0.52203 0.05579 0.50939 0.0
H90 H 0.51325 0.98666 0.4419 0.0
H91 H 0.48001 0.97797 0.57292 0.0
Cu92 Cu 0.04485 0.56663 0.52807 0.0
N93 N 0.06073 0.56042 0.55095 0.0
N94 N 0.06737 0.54368 0.5824 0.0
C95 C 0.05291 0.54562 0.56899 0.0
C96 C 0.08504 0.55799 0.57216 0.0
C97 C 0.08091 0.56817 0.55285 0.0
O98 O 0.02224 0.53935 0.51942 0.0
C99 C 0.05386 0.6021 0.55425 0.0
O100 O 0.07171 0.60342 0.5529 0.0
H101 H 0.03678 0.53621 0.57179 0.0
H102 H 0.09189 0.58034 0.54105 0.0
N103 N 0.05747 0.58006 0.4972 0.0
N104 N 0.06142 0.59692 0.45976 0.0
C105 C 0.05042 0.58961 0.48158 0.0
C106 C 0.07368 0.58152 0.48508 0.0
C107 C 0.07617 0.59189 0.46211 0.0
C108 C 0.01882 0.53164 0.49639 0.0
O109 O 0.02617 0.54384 0.47653 0.0
H110 H 0.03693 0.59041 0.48585 0.0
H111 H 0.08279 0.57514 0.49212 0.0
O112 O 0.03833 0.58587 0.54543 0.0
H113 H 0.10001 0.5611 0.57816 0.0
H114 H 0.08793 0.59522 0.4482 0.0
Cu115 Cu 0.52445 0.54929 0.5386 0.0
N116 N 0.54681 0.55059 0.5226 0.0
N117 N 0.57592 0.56569 0.50125 0.0
C118 C 0.56212 0.56832 0.51439 0.0
C119 C 0.56906 0.54533 0.50148 0.0
C120 C 0.55097 0.53599 0.51462 0.0
O121 O 0.5356 0.57089 0.5657 0.0
C122 C 0.50083 0.53717 0.49442 0.0
O123 O 0.50487 0.52228 0.49765 0.0
H124 H 0.56289 0.5829 0.51793 0.0
H125 H 0.5413 0.51975 0.51747 0.0
N126 N 0.50779 0.52398 0.5533 0.0
N127 N 0.4788 0.49773 0.56658 0.0
C128 C 0.48769 0.51607 0.55512 0.0
C129 C 0.51196 0.51024 0.56411 0.0
C130 C 0.49399 0.49396 0.57246 0.0
C131 C 0.5338 0.56708 0.59002 0.0
O132 O 0.52123 0.54842 0.59751 0.0
H133 H 0.47977 0.52381 0.54829 0.0
H134 H 0.52694 0.51197 0.56586 0.0
O135 O 0.50826 0.5522 0.51074 0.0
H136 H 0.57622 0.53765 0.49217 0.0
H137 H 0.4922 0.48031 0.58165 0.0
Cu138 Cu 0.68579 0.86928 0.3566 0.0
N139 N 0.66359 0.87106 0.34442 0.0
N140 N 0.64555 0.88514 0.33028 0.0
C141 C 0.66272 0.88838 0.34252 0.0
C142 C 0.63508 0.8649 0.32439 0.0
C143 C 0.64624 0.85621 0.33331 0.0
O144 O 0.69679 0.88774 0.38784 0.0
C145 C 0.69944 0.87433 0.30315 0.0
O146 O 0.68726 0.88179 0.29941 0.0
H147 H 0.67504 0.90331 0.34833 0.0
H148 H 0.64243 0.84038 0.33087 0.0
N149 N 0.67603 0.84313 0.36939 0.0
N150 N 0.67438 0.8135 0.37871 0.0
C151 C 0.68304 0.83028 0.36387 0.0
C152 C 0.66237 0.83416 0.3882 0.0
C153 C 0.66137 0.81585 0.39408 0.0
C154 C 0.70516 0.90724 0.38956 0.0
O155 O 0.71072 0.9179 0.36815 0.0
H156 H 0.69507 0.83372 0.35033 0.0
H157 H 0.65433 0.84086 0.39763 0.0
O158 O 0.7028 0.8707 0.32653 0.0
H159 H 0.62078 0.8571 0.31363 0.0
H160 H 0.65222 0.80537 0.40895 0.0
Cu161 Cu 0.20018 0.89484 0.36529 0.0
N162 N 0.17496 0.88232 0.34757 0.0
N163 N 0.14702 0.85617 0.32924 0.0
C164 C 0.16424 0.86193 0.34318 0.0
C165 C 0.14686 0.87372 0.3246 0.0
C166 C 0.16408 0.88986 0.33612 0.0
O167 O 0.19431 0.87742 0.39619 0.0
C168 C 0.21938 0.90679 0.31941 0.0
O169 O 0.20792 0.91529 0.32026 0.0
H170 H 0.16937 0.85156 0.34951 0.0
H171 H 0.1685 0.90591 0.33575 0.0
N172 N 0.20976 0.92218 0.37629 0.0
N173 N 0.23194 0.95477 0.38794 0.0
C174 C 0.22951 0.93655 0.37959 0.0
C175 C 0.19931 0.93169 0.38252 0.0
C176 C 0.21292 0.95171 0.38986 0.0
C177 C 0.17905 0.87585 0.4085 0.0
O178 O 0.17138 0.8873 0.40118 0.0
H179 H 0.24187 0.93358 0.37633 0.0
H180 H 0.18296 0.92459 0.38182 0.0
O181 O 0.2193 0.89618 0.33876 0.0
H182 H 0.13519 0.87483 0.31362 0.0
H183 H 0.20911 0.96319 0.3959 0.0
Cu184 Cu 0.19787 0.40796 0.36548 0.0
N185 N 0.19185 0.42218 0.34103 0.0
N186 N 0.17776 0.42524 0.30418 0.0
C187 C 0.18166 0.41287 0.31888 0.0
C188 C 0.18599 0.44325 0.31769 0.0
C189 C 0.19464 0.44128 0.34062 0.0
O190 O 0.1708 0.38543 0.37355 0.0
C191 C 0.23106 0.41452 0.33562 0.0
O192 O 0.22979 0.43065 0.32913 0.0
H193 H 0.17721 0.39717 0.31379 0.0
H194 H 0.20209 0.45275 0.35596 0.0
N195 N 0.21065 0.42293 0.39579 0.0
N196 N 0.227 0.42677 0.43387 0.0
C197 C 0.22349 0.41897 0.4093 0.0
C198 C 0.20618 0.43429 0.41193 0.0
C199 C 0.21634 0.43674 0.4355 0.0
C200 C 0.16323 0.38199 0.39625 0.0
O201 O 0.1754 0.38921 0.41682 0.0
H202 H 0.22884 0.40912 0.4016 0.0
H203 H 0.19496 0.43877 0.40777 0.0
O204 O 0.21752 0.40122 0.35023 0.0
H205 H 0.18532 0.45667 0.31183 0.0
H206 H 0.21455 0.44379 0.45303 0.0
Cu207 Cu 0.19169 0.35651 0.87487 0.0
N208 N 0.1883 0.33915 0.84675 0.0
N209 N 0.19686 0.32903 0.81027 0.0
C210 C 0.20332 0.3426 0.83048 0.0
C211 C 0.17686 0.31642 0.81414 0.0
C212 C 0.17162 0.32271 0.83673 0.0
O213 O 0.22003 0.36659 0.88716 0.0
C214 C 0.1788 0.3783 0.84015 0.0
O215 O 0.1843 0.37039 0.82113 0.0
H216 H 0.21847 0.35561 0.83277 0.0
H217 H 0.15664 0.31622 0.84477 0.0
N218 N 0.17404 0.34221 0.90166 0.0
N219 N 0.15492 0.33693 0.93671 0.0
C220 C 0.16856 0.35092 0.92058 0.0
C221 C 0.16349 0.32195 0.90578 0.0
C222 C 0.15172 0.31865 0.92741 0.0
C223 C 0.22334 0.3532 0.89788 0.0
O224 O 0.20781 0.3349 0.9016 0.0
H225 H 0.1741 0.36722 0.92191 0.0
H226 H 0.1642 0.3104 0.89382 0.0
O227 O 0.18306 0.37619 0.86375 0.0
H228 H 0.16663 0.30385 0.80133 0.0
H229 H 0.14163 0.3039 0.93559 0.0
Cu230 Cu 0.69605 0.90067 0.8575 0.0
N231 N 0.67756 0.87466 0.84403 0.0
N232 N 0.66691 0.84263 0.82991 0.0
C233 C 0.68183 0.85937 0.8423 0.0
C234 C 0.6526 0.84758 0.8236 0.0
C235 C 0.6592 0.86737 0.8324 0.0
O236 O 0.70902 0.89481 0.88796 0.0
C237 C 0.70002 0.92063 0.81107 0.0
O238 O 0.68085 0.91315 0.8167 0.0
H239 H 0.69607 0.86086 0.84906 0.0
H240 H 0.65138 0.87594 0.82979 0.0
N241 N 0.68352 0.91483 0.87092 0.0
N242 N 0.68093 0.94201 0.88338 0.0
C243 C 0.69359 0.93499 0.877 0.0
C244 C 0.66375 0.90878 0.87376 0.0
C245 C 0.66211 0.92557 0.88138 0.0
C246 C 0.69616 0.88452 0.90552 0.0
O247 O 0.67728 0.88005 0.90149 0.0
H248 H 0.70988 0.94449 0.87569 0.0
H249 H 0.65138 0.8934 0.87004 0.0
O250 O 0.71117 0.91699 0.82672 0.0
H251 H 0.63851 0.83772 0.81311 0.0
H252 H 0.64818 0.92568 0.88508 0.0
Cu253 Cu 0.18958 0.89981 0.85059 0.0
N254 N 0.17564 0.90382 0.82311 0.0
N255 N 0.15684 0.89558 0.78627 0.0
C256 C 0.16278 0.88861 0.80678 0.0
C257 C 0.16634 0.91612 0.78998 0.0
C258 C 0.17796 0.92117 0.81276 0.0
O259 O 0.17253 0.87139 0.86032 0.0
C260 C 0.22249 0.90963 0.8161 0.0
O261 O 0.20875 0.90243 0.79716 0.0
H262 H 0.15899 0.87283 0.8091 0.0
H263 H 0.18808 0.93642 0.82052 0.0
N264 N 0.19321 0.91636 0.87995 0.0
N265 N 0.20267 0.92922 0.92055 0.0
C266 C 0.20299 0.91644 0.90209 0.0
C267 C 0.18651 0.92961 0.88438 0.0
C268 C 0.19229 0.93755 0.90944 0.0
C269 C 0.15674 0.86777 0.87286 0.0
O270 O 0.15403 0.88316 0.87934 0.0
H271 H 0.20982 0.90692 0.90471 0.0
H272 H 0.17784 0.93306 0.87051 0.0
O273 O 0.21687 0.90762 0.8397 0.0
H274 H 0.16547 0.92682 0.77686 0.0
H275 H 0.18924 0.94872 0.91865 0.0
Cu276 Cu 0.39458 0.23829 0.70283 0.0
N277 N 0.40334 0.26408 0.68879 0.0
N278 N 0.39795 0.28798 0.67119 0.0
C279 C 0.38978 0.27016 0.68381 0.0
C280 C 0.41761 0.29352 0.66809 0.0
C281 C 0.42097 0.27877 0.67922 0.0
O282 O 0.38032 0.23912 0.73468 0.0
C283 C 0.39281 0.22258 0.65367 0.0
O284 O 0.41116 0.23846 0.65581 0.0
H285 H 0.37386 0.26101 0.68823 0.0
H286 H 0.43503 0.27846 0.6793 0.0
N287 N 0.41471 0.23245 0.71354 0.0
N288 N 0.42486 0.21 0.72297 0.0
C289 C 0.40962 0.21422 0.72387 0.0
C290 C 0.43408 0.24028 0.70619 0.0
C291 C 0.44036 0.22637 0.71191 0.0
C292 C 0.39238 0.25394 0.75005 0.0
O293 O 0.41156 0.26448 0.74376 0.0
H294 H 0.39427 0.20327 0.72919 0.0
H295 H 0.44242 0.25407 0.69523 0.0
O296 O 0.38099 0.21872 0.67306 0.0
H297 H 0.4286 0.30699 0.65809 0.0
H298 H 0.45467 0.22757 0.70675 0.0
Cu299 Cu 0.85954 0.21911 0.68417 0.0
N300 N 0.85885 0.23052 0.65219 0.0
N301 N 0.8698 0.24767 0.61506 0.0
C302 C 0.87509 0.24232 0.63767 0.0
C303 C 0.84938 0.23888 0.6155 0.0
C304 C 0.84268 0.22826 0.63836 0.0
O305 O 0.88732 0.23664 0.69845 0.0
C306 C 0.85095 0.182 0.65665 0.0
O307 O 0.86091 0.19406 0.63746 0.0
H308 H 0.89049 0.24686 0.64365 0.0
H309 H 0.82711 0.21928 0.64431 0.0
N310 N 0.84021 0.21888 0.70679 0.0
N311 N 0.81729 0.20839 0.73844 0.0
C312 C 0.83221 0.20636 0.72715 0.0
C313 C 0.83003 0.22922 0.70509 0.0
C314 C 0.81593 0.22282 0.72458 0.0
C315 C 0.89119 0.25284 0.7114 0.0
O316 O 0.87619 0.25609 0.7169 0.0
H317 H 0.8368 0.19546 0.73294 0.0
H318 H 0.83248 0.24041 0.69047 0.0
O319 O 0.85057 0.18996 0.67856 0.0
H320 H 0.83989 0.23964 0.60015 0.0
H321 H 0.8055 0.22838 0.72821 0.0
Cu322 Cu 0.85753 0.69782 0.6749 0.0
N323 N 0.84429 0.68337 0.64424 0.0
N324 N 0.83208 0.67841 0.60327 0.0
C325 C 0.84062 0.69186 0.62348 0.0
C326 C 0.83021 0.66065 0.61175 0.0
C327 C 0.83786 0.66379 0.63701 0.0
O328 O 0.83858 0.70368 0.69368 0.0
C329 C 0.89383 0.71716 0.64849 0.0
O330 O 0.8851 0.69891 0.63722 0.0
H331 H 0.84432 0.7077 0.62327 0.0
H332 H 0.83909 0.6527 0.64891 0.0
N333 N 0.86385 0.68226 0.69695 0.0
N334 N 0.88088 0.67635 0.72824 0.0
C335 C 0.88067 0.6903 0.71222 0.0
C336 C 0.85289 0.66248 0.70353 0.0
C337 C 0.86348 0.65874 0.72274 0.0
C338 C 0.83192 0.7153 0.68597 0.0
O339 O 0.83975 0.72641 0.66526 0.0
H340 H 0.89232 0.70627 0.71196 0.0
H341 H 0.83793 0.65179 0.69577 0.0
O342 O 0.88402 0.72102 0.66562 0.0
H343 H 0.8242 0.64655 0.60038 0.0
H344 H 0.85833 0.64447 0.73276 0.0
Cu345 Cu 0.85329 0.69977 0.14761 0.0
N346 N 0.85629 0.68705 0.1176 0.0
N347 N 0.8722 0.68106 0.08503 0.0
C348 C 0.87412 0.69311 0.1059 0.0
C349 C 0.85228 0.66685 0.0836 0.0
C350 C 0.84254 0.67056 0.10366 0.0
O351 O 0.87883 0.70923 0.16767 0.0
C352 C 0.82743 0.71131 0.12553 0.0
O353 O 0.81882 0.69165 0.1198 0.0
H354 H 0.8883 0.70594 0.11296 0.0
H355 H 0.82654 0.66183 0.10765 0.0
N356 N 0.83278 0.68179 0.16937 0.0
N357 N 0.81389 0.67293 0.20505 0.0
C358 C 0.82927 0.68818 0.19225 0.0
C359 C 0.81921 0.66164 0.16743 0.0
C360 C 0.80752 0.65612 0.18948 0.0
C361 C 0.88054 0.69465 0.17774 0.0
O362 O 0.86551 0.67581 0.17437 0.0
H363 H 0.83822 0.70382 0.19941 0.0
H364 H 0.81795 0.65163 0.15136 0.0
O365 O 0.84458 0.71968 0.13774 0.0
H366 H 0.84512 0.65475 0.06893 0.0
H367 H 0.79519 0.64096 0.19353 0.0
Cu368 Cu 0.37155 0.23199 0.2098 0.0
N369 N 0.3512 0.20609 0.19816 0.0
N370 N 0.33645 0.17294 0.18666 0.0
C371 C 0.35365 0.18966 0.19523 0.0
C372 C 0.32262 0.17912 0.18411 0.0
C373 C 0.33174 0.19956 0.19132 0.0
O374 O 0.38584 0.22634 0.2389 0.0
C375 C 0.37334 0.2511 0.16355 0.0
O376 O 0.35438 0.24322 0.17046 0.0
H377 H 0.36791 0.19009 0.19901 0.0
H378 H 0.32464 0.20894 0.19154 0.0
N379 N 0.36063 0.24717 0.22461 0.0
N380 N 0.35894 0.27477 0.23737 0.0
C381 C 0.37037 0.26778 0.22624 0.0
C382 C 0.34231 0.24088 0.23494 0.0
C383 C 0.34129 0.25789 0.24302 0.0
C384 C 0.37382 0.21606 0.25721 0.0
O385 O 0.35464 0.21083 0.25436 0.0
H386 H 0.38571 0.27743 0.21975 0.0
H387 H 0.33054 0.22507 0.23657 0.0
O388 O 0.38525 0.2477 0.17803 0.0
H389 H 0.30697 0.16952 0.17778 0.0
H390 H 0.32855 0.25786 0.25224 0.0
Cu391 Cu 0.84657 0.23343 0.19084 0.0
N392 N 0.83265 0.23783 0.16374 0.0
N393 N 0.81252 0.23031 0.12829 0.0
C394 C 0.81989 0.22305 0.14687 0.0
C395 C 0.82106 0.25058 0.13378 0.0
C396 C 0.83347 0.25517 0.15574 0.0
O397 O 0.82928 0.20522 0.2014 0.0
C398 C 0.88073 0.24554 0.15758 0.0
O399 O 0.86834 0.24316 0.13804 0.0
H400 H 0.81668 0.20737 0.14778 0.0
H401 H 0.84267 0.2701 0.16494 0.0
N402 N 0.85142 0.25076 0.21964 0.0
N403 N 0.86663 0.26777 0.25666 0.0
C404 C 0.86614 0.25505 0.23756 0.0
C405 C 0.84226 0.26122 0.2275 0.0
C406 C 0.85157 0.27167 0.25053 0.0
C407 C 0.81348 0.20166 0.21385 0.0
O408 O 0.81053 0.21702 0.21955 0.0
H409 H 0.87622 0.24878 0.23664 0.0
H410 H 0.82972 0.26123 0.21727 0.0
O411 O 0.87367 0.24006 0.18029 0.0
H412 H 0.81862 0.26134 0.12273 0.0
H413 H 0.84785 0.28167 0.26155 0.0
Co414 Co 0.02608 0.6687 0.26302 0.0
O415 O 0.04299 0.66003 0.28087 0.0
O416 O 0.01932 0.66384 0.30006 0.0
C417 C 0.01845 0.64687 0.22798 0.0
O418 O 1.00525 0.67687 0.25001 0.0
Co419 Co 0.03941 0.6888 0.20886 0.0
O420 O 0.01301 0.68798 0.20884 0.0
C421 C 0.05857 0.71382 0.25667 0.0
C422 C 0.03332 0.6587 0.30199 0.0
C423 C 1.00175 0.68373 0.22864 0.0
O424 O 0.04672 0.69865 0.27096 0.0
O425 O 0.05889 0.71238 0.2318 0.0
O426 O 0.0084 0.64066 0.24936 0.0
O427 O 0.03371 0.66527 0.22929 0.0
Co428 Co 0.41496 0.46199 0.29308 0.0
O429 O 0.44084 0.47235 0.27654 0.0
O430 O 0.41297 0.46741 0.25625 0.0
C431 C 0.42749 0.48276 0.32925 0.0
O432 O 0.38557 0.45206 0.30415 0.0
Co433 Co 0.40795 0.44128 0.34755 0.0
O434 O 0.38173 0.44081 0.34535 0.0
C435 C 0.40639 0.41815 0.29953 0.0
C436 C 0.4323 0.47374 0.2552 0.0
C437 C 0.3748 0.44465 0.3247 0.0
O438 O 0.40767 0.43252 0.28475 0.0
O439 O 0.40837 0.42 0.32441 0.0
O440 O 0.42385 0.48967 0.30798 0.0
O441 O 0.42507 0.46464 0.32723 0.0
Co442 Co 0.6442 0.04379 0.25711 0.0
O443 O 0.61792 0.02785 0.27212 0.0
O444 O 0.64525 0.05137 0.29362 0.0
C445 C 0.63255 0.05119 0.22064 0.0
O446 O 0.6736 0.06395 0.2479 0.0
Co447 Co 0.6547 0.03035 0.20496 0.0
O448 O 0.6802 0.05696 0.2076 0.0
C449 C 0.64874 0.00653 0.25231 0.0
C450 C 0.62603 0.0378 0.29385 0.0
C451 C 0.68541 0.06809 0.22831 0.0
O452 O 0.65078 0.0218 0.26625 0.0
O453 O 0.64787 0.00619 0.22735 0.0
O454 O 0.63562 0.06201 0.24193 0.0
O455 O 0.63537 0.03572 0.22259 0.0
Co456 Co 0.042 0.41949 0.7552 0.0
O457 O 0.0287 0.43044 0.73311 0.0
O458 O 0.06153 0.4416 0.73389 0.0
C459 C 0.01874 0.38575 0.74679 0.0
O460 O 0.06194 0.41217 0.77375 0.0
Co461 Co 0.02192 0.39196 0.80272 0.0
O462 O 0.04643 0.38919 0.80503 0.0
C463 C 0.03596 0.43631 0.80661 0.0
C464 C 0.04644 0.44303 0.72406 0.0
C465 C 0.06204 0.40028 0.79172 0.0
O466 O 0.04496 0.43949 0.78451 0.0
O467 O 0.02509 0.4185 0.81599 0.0
O468 O 0.03322 0.39594 0.73054 0.0
O469 O 0.01833 0.39636 0.76642 0.0
Co470 Co 0.65877 0.68144 0.77046 0.0
O471 O 0.63327 0.67024 0.78804 0.0
O472 O 0.6544 0.65832 0.79192 0.0
C473 C 0.66781 0.71423 0.78141 0.0
O474 O 0.68718 0.68974 0.75617 0.0
Co475 Co 0.66926 0.71203 0.72537 0.0
O476 O 0.69719 0.71737 0.73127 0.0
C477 C 0.64014 0.66777 0.71602 0.0
C478 C 0.6376 0.65745 0.799 0.0
C479 C 0.70086 0.70473 0.74303 0.0
O480 O 0.64431 0.6632 0.73865 0.0
O481 O 0.64751 0.6862 0.70836 0.0
O482 O 0.67127 0.70311 0.79758 0.0
O483 O 0.65863 0.7051 0.75992 0.0
Co484 Co 0.40312 0.03975 0.75524 0.0
O485 O 0.42937 0.0493 0.74018 0.0
O486 O 0.40251 0.01882 0.7323 0.0
C487 C 0.4024 0.06901 0.74777 0.0
O488 O 0.37342 0.02426 0.76612 0.0
Co489 Co 0.39642 0.06151 0.8029 0.0
O490 O 0.36729 0.04188 0.79689 0.0
C491 C 0.41322 0.03369 0.81067 0.0
C492 C 0.42138 0.03181 0.72767 0.0
C493 C 0.36132 0.02639 0.78159 0.0
O494 O 0.41115 0.02878 0.78621 0.0
O495 O 0.40934 0.04709 0.82041 0.0
O496 O 0.39715 0.05514 0.72938 0.0
O497 O 0.40875 0.06529 0.76931 0.0
Co498 Co 0.70918 0.99816 0.59625 0.0
O499 O 0.72313 0.98715 0.61755 0.0
O500 O 0.69834 0.99173 0.63115 0.0
C501 C 0.70547 0.97891 0.55909 0.0
O502 O 0.68967 0.0077 0.58176 0.0
Co503 Co 0.72452 0.02145 0.54491 0.0
O504 O 0.69869 0.02193 0.54253 0.0
C505 C 0.74514 0.04137 0.59507 0.0
C506 C 0.71127 0.9857 0.63647 0.0
C507 C 0.68661 0.01603 0.56155 0.0
O508 O 0.73025 0.02735 0.60787 0.0
O509 O 0.74635 0.04038 0.57026 0.0
O510 O 0.69295 0.97112 0.57821 0.0
O511 O 0.72004 0.99733 0.5635 0.0
Co512 Co 0.07967 0.78201 0.59552 0.0
O513 O 0.10533 0.79082 0.57862 0.0
O514 O 0.07724 0.78512 0.55821 0.0
C515 C 0.09301 0.80508 0.6292 0.0
O516 O 0.05065 0.77396 0.6065 0.0
Co517 Co 0.07194 0.76493 0.65172 0.0
O518 O 0.04868 0.76986 0.64995 0.0
C519 C 0.07129 0.73892 0.60733 0.0
C520 C 0.09651 0.7912 0.55699 0.0
C521 C 0.04132 0.7715 0.62823 0.0
O522 O 0.07195 0.75201 0.59072 0.0
O523 O 0.07284 0.74225 0.63205 0.0
O524 O 0.08909 0.81046 0.60687 0.0
O525 O 0.0902 0.78674 0.62976 0.0
Co526 Co 0.29462 0.36993 0.61211 0.0
O527 O 0.26998 0.35037 0.62824 0.0
O528 O 0.29733 0.37411 0.64958 0.0
C529 C 0.27993 0.37917 0.58071 0.0
O530 O 0.32242 0.3929 0.60188 0.0
Co531 Co 0.30308 0.36268 0.55504 0.0
O532 O 0.32453 0.39184 0.55823 0.0
C533 C 0.31242 0.34259 0.59787 0.0
C534 C 0.27876 0.35899 0.65036 0.0
C535 C 0.3315 0.40052 0.58043 0.0
O536 O 0.30587 0.35079 0.61443 0.0
O537 O 0.31189 0.34475 0.57318 0.0
O538 O 0.28288 0.38715 0.60406 0.0
O539 O 0.28391 0.36444 0.57785 0.0
Co540 Co 0.70587 0.78387 0.08899 0.0
O541 O 0.69138 0.79633 0.07255 0.0
O542 O 0.7238 0.80716 0.0677 0.0
C543 C 0.682 0.75067 0.07798 0.0
O544 O 0.72657 0.77491 0.10024 0.0
Co545 Co 0.68924 0.75274 0.13369 0.0
O546 O 0.71016 0.74597 0.12284 0.0
C547 C 0.70634 0.79705 0.1464 0.0
C548 C 0.70811 0.80879 0.0611 0.0
C549 C 0.72566 0.75892 0.1107 0.0
O550 O 0.71169 0.80184 0.12237 0.0
O551 O 0.69664 0.77851 0.15396 0.0
O552 O 0.69517 0.76241 0.06119 0.0
O553 O 0.68281 0.75956 0.10001 0.0
Co554 Co 0.30714 1.00118 0.13206 0.0
O555 O 0.28391 0.98734 0.15404 0.0
O556 O 0.30768 0.97881 0.15021 0.0
C557 C 0.31491 0.03318 0.14527 0.0
O558 O 0.33378 0.01238 0.11209 0.0
Co559 Co 0.30894 0.03133 0.08952 0.0
O560 O 0.33755 0.03811 0.08658 0.0
C561 C 0.28145 0.9867 0.08269 0.0
C562 C 0.29107 0.97567 0.16121 0.0
C563 C 0.34427 0.0271 0.0964 0.0
O564 O 0.29066 0.98282 0.10122 0.0
O565 O 0.2851 1.00477 0.07738 0.0
O566 O 0.3211 0.02288 0.15905 0.0
O567 O 0.30354 0.02348 0.12536 0.0
Co568 Co 0.0629 0.37586 0.10097 0.0
O569 O 0.08774 0.38731 0.08169 0.0
O570 O 0.06627 0.35419 0.08569 0.0
C571 C 0.05291 0.39729 0.08491 0.0
O572 O 0.03536 0.35767 0.11732 0.0
Co573 Co 0.05261 0.40045 0.14095 0.0
O574 O 0.02572 0.37544 0.14322 0.0
C575 C 0.08594 0.39186 0.15101 0.0
C576 C 0.08286 0.36853 0.07585 0.0
C577 C 0.02233 0.35879 0.13204 0.0
O578 O 0.07847 0.37708 0.1339 0.0
O579 O 0.07915 0.40423 0.15427 0.0
O580 O 0.04926 0.38094 0.07153 0.0
O581 O 0.06281 0.40031 0.10657 0.0
Co582 Co 0.37891 0.33483 0.95487 0.0
O583 O 0.39446 0.32538 0.97561 0.0
O584 O 0.36797 0.32685 0.98952 0.0
C585 C 0.37685 0.31688 0.91717 0.0
O586 O 0.35772 0.34215 0.9406 0.0
Co587 Co 0.39328 0.35943 0.90419 0.0
O588 O 0.36578 0.35607 0.90106 0.0
C589 C 0.40988 0.38089 0.95513 0.0
C590 C 0.382 0.32221 0.99443 0.0
C591 C 0.35371 0.34944 0.92005 0.0
O592 O 0.39781 0.36449 0.96753 0.0
O593 O 0.41098 0.38138 0.93023 0.0
O594 O 0.36454 0.30791 0.93616 0.0
O595 O 0.39046 0.33567 0.92212 0.0
Co596 Co 0.72256 0.12628 0.93483 0.0
O597 O 0.74723 0.13516 0.91593 0.0
O598 O 0.71866 0.13103 0.89854 0.0
C599 C 0.73756 0.14773 0.96967 0.0
O600 O 0.69432 0.11823 0.94847 0.0
Co601 Co 0.71695 0.10629 0.98908 0.0
O602 O 0.69329 0.11062 0.99091 0.0
C603 C 0.71469 0.08286 0.94122 0.0
C604 C 0.73766 0.13646 0.89558 0.0
C605 C 0.68551 0.11398 0.97071 0.0
O606 O 0.71406 0.09653 0.92691 0.0
O607 O 0.71775 0.08501 0.96598 0.0
O608 O 0.73297 0.15427 0.94875 0.0
O609 O 0.73439 0.12926 0.96803 0.0
Co610 Co 0.99254 0.70327 0.91602 0.0
O611 O 0.96861 0.68461 0.9344 0.0
O612 O 0.99272 0.71428 0.95063 0.0
C613 C 0.97553 0.70156 0.87872 0.0
O614 O 0.01905 0.72685 0.90267 0.0
Co615 Co 1.00535 0.68959 0.8659 0.0
O616 O 0.02584 0.71885 0.8631 0.0
C617 C 0.01482 0.67906 0.91774 0.0
C618 C 0.97516 0.69792 0.95354 0.0
C619 C 0.02996 0.73144 0.88212 0.0
O620 O 1.00745 0.68914 0.92931 0.0
O621 O 0.01424 0.67653 0.89294 0.0
O622 O 0.9772 0.71391 0.89772 0.0
O623 O 0.98309 0.68986 0.88331 0.0
Co624 Co 0.38379 0.11945 0.44419 0.0
O625 O 0.36989 0.13192 0.42658 0.0
O626 O 0.40245 0.14282 0.42329 0.0
C627 C 0.35945 0.08681 0.43218 0.0
O628 O 0.40396 0.11021 0.45754 0.0
Co629 Co 0.36484 0.08763 0.48775 0.0
O630 O 0.38686 0.08158 0.4806 0.0
C631 C 0.37801 0.13143 0.49908 0.0
C632 C 0.38688 0.14441 0.41579 0.0
C633 C 0.40283 0.09449 0.46919 0.0
O634 O 0.38775 0.13697 0.47733 0.0
O635 O 0.36699 0.11261 0.50508 0.0
O636 O 0.3738 0.098 0.4163 0.0
O637 O 0.36009 0.0957 0.45405 0.0
Co638 Co 0.98762 0.35808 0.44939 0.0
O639 O 0.96188 0.34876 0.46599 0.0
O640 O 0.9813 0.33486 0.47121 0.0
C641 C 0.99885 0.39169 0.45855 0.0
O642 O 0.01549 0.36342 0.4368 0.0
Co643 Co 1.00173 0.38735 0.40275 0.0
O644 O 0.02767 0.38747 0.40617 0.0
C645 C 0.97036 0.34381 0.39464 0.0
C646 C 0.96481 0.33503 0.47714 0.0
C647 C 0.02948 0.37498 0.42093 0.0
O648 O 0.97303 0.33955 0.41812 0.0
O649 O 0.97938 0.36192 0.38563 0.0
O650 O 1.00075 0.3802 0.47581 0.0
O651 O 0.98992 0.3825 0.43693 0.0
Co652 Co 0.74258 0.69813 0.404 0.0
O653 O 0.76554 0.71045 0.38159 0.0
O654 O 0.74405 0.67713 0.38367 0.0
C655 C 0.73088 0.71973 0.39507 0.0
O656 O 0.71685 0.67981 0.4235 0.0
Co657 Co 0.7385 0.72236 0.45101 0.0
O658 O 0.71028 0.699 0.45136 0.0
C659 C 0.76718 0.7067 0.45439 0.0
C660 C 0.7598 0.69203 0.37295 0.0
C661 C 0.70526 0.68202 0.43969 0.0
O662 O 0.7598 0.69624 0.433 0.0
O663 O 0.76209 0.71945 0.46329 0.0
O664 O 0.72677 0.70449 0.37922 0.0
O665 O 0.74328 0.72245 0.41413 0.0
H666 H 0.99663 0.46211 0.01772 0.0
H667 H 0.06687 0.43552 0.10501 0.0
H668 H 0.05139 0.50849 0.05659 0.0
H669 H 0.02736 0.39422 0.04416 0.0
H670 H 0.05912 0.46149 0.09025 0.0
H671 H 1.00559 0.43626 0.02965 0.0
C672 C 0.01056 0.46686 0.02881 0.0
C673 C 0.02324 0.48747 0.03638 0.0
C674 C 0.05218 0.44679 0.08004 0.0
C675 C 0.03347 0.4579 0.05012 0.0
C676 C 0.05647 0.43186 0.08854 0.0
C677 C 0.04766 0.41262 0.07581 0.0
C678 C 0.03874 0.44243 0.05886 0.0
C679 C 0.03444 0.40885 0.0545 0.0
C680 C 0.01569 0.45209 0.03545 0.0
C681 C 0.04118 0.49277 0.05043 0.0
N682 N 0.03024 0.42362 0.04676 0.0
N683 N 0.04568 0.47802 0.05708 0.0
H684 H 0.57974 0.63478 0.02155 0.0
H685 H 0.66622 0.71949 0.11284 0.0
H686 H 0.61324 0.61843 0.07517 0.0
H687 H 0.66394 0.73139 0.03124 0.0
H688 H 0.64141 0.68321 0.10413 0.0
H689 H 0.60494 0.67126 0.02946 0.0
C690 C 0.59225 0.63886 0.03517 0.0
C691 C 0.59437 0.62352 0.04774 0.0
C692 C 0.64637 0.69378 0.08815 0.0
C693 C 0.62297 0.66515 0.0572 0.0
C694 C 0.6605 0.7145 0.09309 0.0
C695 C 0.66731 0.72853 0.07271 0.0
C696 C 0.63837 0.68707 0.0628 0.0
C697 C 0.65927 0.7211 0.04749 0.0
C698 C 0.60668 0.65964 0.03951 0.0
C699 C 0.61103 0.62972 0.06501 0.0
N700 N 0.64504 0.70096 0.04329 0.0
N701 N 0.62451 0.65 0.06947 0.0
H702 H 0.45542 0.02361 0.06816 0.0
H703 H 0.37015 0.05654 0.06337 0.0
H704 H 0.4553 0.0672 0.01438 0.0
H705 H 0.36519 0.00711 0.11038 0.0
H706 H 0.4027 0.06236 0.04812 0.0
H707 H 0.42397 0.01919 0.08646 0.0
C708 C 0.44888 0.03237 0.06027 0.0
C709 C 0.45809 0.04581 0.03959 0.0
C710 C 0.39456 0.05026 0.06181 0.0
C711 C 0.42192 0.04073 0.06057 0.0
C712 C 0.37589 0.04689 0.07063 0.0
C713 C 0.36469 0.03119 0.0882 0.0
C714 C 0.40236 0.03791 0.07055 0.0
C715 C 0.37317 0.01935 0.09683 0.0
C716 C 0.43086 0.02977 0.07073 0.0
C717 C 0.4488 0.05667 0.03024 0.0
N718 N 0.39145 0.02292 0.08788 0.0
N719 N 0.43127 0.05387 0.04076 0.0
H720 H 0.47083 0.03125 0.46799 0.0
H721 H 0.44429 0.12178 0.47698 0.0
H722 H 0.50997 0.08605 0.51321 0.0
H723 H 0.40102 0.05781 0.46381 0.0
H724 H 0.47134 0.11274 0.48289 0.0
H725 H 0.44862 0.04482 0.45807 0.0
C726 C 0.47491 0.04629 0.4758 0.0
C727 C 0.49232 0.05731 0.49185 0.0
C728 C 0.45593 0.10078 0.47852 0.0
C729 C 0.46636 0.07317 0.48033 0.0
C730 C 0.44053 0.10594 0.47489 0.0
C731 C 0.4203 0.09053 0.46979 0.0
C732 C 0.45109 0.08014 0.47642 0.0
C733 C 0.41631 0.07023 0.46772 0.0
C734 C 0.46207 0.05404 0.47009 0.0
C735 C 0.49673 0.07693 0.50083 0.0
N736 N 0.43144 0.06572 0.47091 0.0
N737 N 0.48374 0.08419 0.49513 0.0
H738 H 0.01496 0.50351 0.53299 0.0
H739 H 0.99846 0.41878 0.42433 0.0
H740 H 1.00819 0.50969 0.45044 0.0
H741 H 1.00805 0.41239 0.50598 0.0
H742 H 1.00115 0.45178 0.43419 0.0
H743 H 0.01031 0.46932 0.52436 0.0
C744 C 0.01207 0.49755 0.51312 0.0
C745 C 0.01201 0.50957 0.49238 0.0
C746 C 1.00276 0.44327 0.45001 0.0
C747 C 1.00709 0.47059 0.48237 0.0
C748 C 1.00133 0.42442 0.44436 0.0
C749 C 1.00306 0.41279 0.46436 0.0
C750 C 1.00587 0.45064 0.47592 0.0
C751 C 1.00675 0.42091 0.48994 0.0
C752 C 0.00964 0.47809 0.50819 0.0
C753 C 0.00843 0.50105 0.46703 0.0
N754 N 1.00794 0.43931 0.49503 0.0
N755 N 1.00625 0.4822 0.46275 0.0
H756 H 0.58228 0.60271 0.48551 0.0
H757 H 0.69361 0.64133 0.43344 0.0
H758 H 0.61033 0.56498 0.48853 0.0
H759 H 0.67212 0.68168 0.46005 0.0
H760 H 0.66133 0.61186 0.44604 0.0
H761 H 0.61329 0.63038 0.46837 0.0
C762 C 0.59497 0.60021 0.48276 0.0
C763 C 0.59376 0.58153 0.4891 0.0
C764 C 0.66373 0.62718 0.449 0.0
C765 C 0.62935 0.61325 0.46879 0.0
C766 C 0.68206 0.64399 0.44172 0.0
C767 C 0.68558 0.664 0.44583 0.0
C768 C 0.64875 0.63046 0.46001 0.0
C769 C 0.67013 0.66655 0.45673 0.0
C770 C 0.61268 0.61605 0.47279 0.0
C771 C 0.61057 0.57909 0.48402 0.0
N772 N 0.6524 0.64998 0.46338 0.0
N773 N 0.62775 0.59484 0.47426 0.0
H774 H 0.02673 0.60501 0.03106 0.0
H775 H 0.03901 0.6641 0.90091 0.0
H776 H 0.05258 0.59589 0.96148 0.0
H777 H 0.01286 0.67298 0.97068 0.0
H778 H 0.05181 0.64556 0.92603 0.0
H779 H 0.03056 0.63672 0.01352 0.0
C780 C 0.03412 0.61028 0.01256 0.0
C781 C 0.03944 0.59802 0.99764 0.0
C782 C 0.0435 0.65177 0.93597 0.0
C783 C 0.04283 0.63354 0.9768 0.0
C784 C 0.03603 0.66226 0.92158 0.0
C785 C 0.02436 0.66967 0.93356 0.0
C786 C 0.0391 0.64841 0.96252 0.0
C787 C 0.02149 0.66725 0.96053 0.0
C788 C 0.03605 0.62822 1.00237 0.0
C789 C 0.0485 0.60512 0.9736 0.0
N790 N 0.02851 0.65652 0.97402 0.0
N791 N 0.04948 0.62222 0.96359 0.0
H792 H 0.51017 0.48048 0.04238 0.0
H793 H 0.41891 0.41874 0.93981 0.0
H794 H 0.48608 0.50913 0.99204 0.0
H795 H 0.43145 0.38842 1.00208 0.0
H796 H 0.44375 0.45179 0.9589 0.0
H797 H 0.48231 0.44679 0.02806 0.0
C798 C 0.49904 0.47974 0.02835 0.0
C799 C 0.50063 0.4978 0.01833 0.0
C800 C 0.44102 0.438 0.96864 0.0
C801 C 0.46861 0.4591 1.00178 0.0
C802 C 0.42679 0.41904 0.95773 0.0
C803 C 0.42306 0.4007 0.96931 0.0
C804 C 0.45208 0.43888 0.99123 0.0
C805 C 0.43373 0.40215 0.99258 0.0
C806 C 0.48306 0.46045 0.02028 0.0
C807 C 0.4856 0.49574 1.00031 0.0
N808 N 0.44796 0.4209 1.0026 0.0
N809 N 0.4704 0.47683 0.99253 0.0
H810 H 0.55862 0.07515 0.9445 0.0
H811 H 0.66606 0.11337 0.01541 0.0
H812 H 0.56853 0.0821 0.02799 0.0
H813 H 0.6578 0.10874 0.93166 0.0
H814 H 0.6311 0.10552 0.01982 0.0
H815 H 0.59526 0.09108 0.93894 0.0
C816 C 0.56848 0.08033 0.96168 0.0
C817 C 0.56037 0.07708 0.98679 0.0
C818 C 0.63691 0.10638 1.00043 0.0
C819 C 0.60244 0.09515 0.9805 0.0
C820 C 0.65694 0.11085 0.99787 0.0
C821 C 0.66492 0.11152 0.9731 0.0
C822 C 0.6245 0.10232 0.97809 0.0
C823 C 0.65233 0.10833 0.95115 0.0
C824 C 0.58944 0.08937 0.95846 0.0
C825 C 0.574 0.08416 0.00825 0.0
N826 N 0.63269 0.10364 0.95417 0.0
N827 N 0.59428 0.09263 1.00461 0.0
H828 H 0.59959 0.05593 0.51839 0.0
H829 H 0.65402 1.00227 0.59457 0.0
H830 H 0.57075 0.0102 0.57681 0.0
H831 H 0.67853 0.03833 0.52593 0.0
H832 H 0.62529 0.00851 0.59177 0.0
H833 H 0.63072 0.05375 0.52478 0.0
C834 C 0.59996 0.04586 0.53302 0.0
C835 C 0.58251 0.03332 0.54717 0.0
C836 C 0.63698 0.0151 0.57733 0.0
C837 C 0.61797 0.03044 0.55431 0.0
C838 C 0.65344 0.01151 0.57892 0.0
C839 C 0.66882 0.01961 0.56038 0.0
C840 C 0.63582 0.02706 0.55719 0.0
C841 C 0.66707 0.03157 0.54062 0.0
C842 C 0.61765 0.0444 0.53645 0.0
C843 C 0.5838 0.02018 0.56546 0.0
N844 N 0.65098 0.03491 0.53956 0.0
N845 N 0.60106 0.01906 0.56843 0.0
H846 H 0.0293 0.61717 0.53686 0.0
H847 H 0.08347 0.71538 0.6327 0.0
H848 H 0.07735 0.62904 0.59215 0.0
H849 H 0.05244 0.71625 0.56205 0.0
H850 H 0.0771 0.68138 0.62072 0.0
H851 H 0.03292 0.65077 0.5488 0.0
C852 C 0.04026 0.62663 0.55188 0.0
C853 C 0.05297 0.6203 0.56369 0.0
C854 C 0.0717 0.68894 0.6077 0.0
C855 C 0.05732 0.65857 0.57713 0.0
C856 C 0.07533 0.70844 0.61454 0.0
C857 C 0.06851 0.71879 0.59836 0.0
C858 C 0.06095 0.67935 0.58452 0.0
C859 C 0.05811 0.70891 0.57501 0.0
C860 C 0.0425 0.64586 0.55841 0.0
C861 C 0.06722 0.63329 0.5826 0.0
N862 N 0.05452 0.68963 0.56883 0.0
N863 N 0.06897 0.6517 0.58872 0.0
H864 H 0.4606 0.47077 0.60546 0.0
H865 H 0.35023 0.42829 0.54243 0.0
H866 H 0.44815 0.4954 0.53665 0.0
H867 H 0.35993 0.41294 0.62008 0.0
H868 H 0.38617 0.45368 0.54077 0.0
H869 H 0.42393 0.44932 0.61158 0.0
C870 C 0.45016 0.47163 0.59167 0.0
C871 C 0.45741 0.48489 0.57056 0.0
C872 C 0.38044 0.44499 0.55834 0.0
C873 C 0.41564 0.46063 0.57745 0.0
C874 C 0.3599 0.43052 0.55931 0.0
C875 C 0.35214 0.41845 0.58137 0.0
C876 C 0.39342 0.44717 0.57941 0.0
C877 C 0.36532 0.42201 0.60273 0.0
C878 C 0.42928 0.45956 0.59528 0.0
C879 C 0.44326 0.48561 0.55338 0.0
N880 N 0.38542 0.43585 0.60107 0.0
N881 N 0.4231 0.47358 0.55712 0.0
H882 H 0.68526 0.79729 0.33889 0.0
H883 H 0.7284 0.74448 0.43235 0.0
H884 H 0.67684 0.79461 0.42201 0.0
H885 H 0.71104 0.72367 0.35245 0.0
H886 H 0.71258 0.7657 0.42816 0.0
H887 H 0.69755 0.77275 0.34246 0.0
C888 C 0.6859 0.79142 0.35784 0.0
C889 C 0.68006 0.79794 0.38019 0.0
C890 C 0.71212 0.75639 0.41159 0.0
C891 C 0.69426 0.77024 0.38447 0.0
C892 C 0.72123 0.74435 0.41392 0.0
C893 C 0.72101 0.7323 0.3927 0.0
C894 C 0.70309 0.75674 0.38771 0.0
C895 C 0.71147 0.73272 0.36928 0.0
C896 C 0.6928 0.7774 0.35985 0.0
C897 C 0.68103 0.78982 0.40429 0.0
N898 N 0.70304 0.74493 0.3673 0.0
N899 N 0.68825 0.77658 0.40584 0.0
H900 H 0.23819 0.98349 0.4249 0.0
H901 H 0.35254 0.0628 0.38751 0.0
H902 H 0.26873 0.96869 0.36551 0.0
H903 H 0.32632 0.0638 0.46123 0.0
H904 H 0.32181 0.02989 0.37639 0.0
H905 H 0.2699 0.01494 0.43546 0.0
C906 C 0.25156 0.98691 0.41397 0.0
C907 C 0.25074 0.97339 0.39427 0.0
C908 C 0.32293 0.03732 0.39505 0.0
C909 C 0.28734 0.00958 0.40629 0.0
C910 C 0.34045 0.05607 0.40141 0.0
C911 C 0.34205 0.06615 0.42533 0.0
C912 C 0.30681 0.02879 0.41258 0.0
C913 C 0.32585 0.0567 0.44255 0.0
C914 C 0.26974 1.00483 0.42013 0.0
C915 C 0.26871 0.97857 0.38099 0.0
N916 N 0.30895 0.03875 0.43576 0.0
N917 N 0.28624 0.99632 0.3871 0.0
H918 H 0.1352 0.37652 0.35802 0.0
H919 H 0.04681 0.35984 0.45575 0.0
H920 H 0.14127 0.37258 0.44125 0.0
H921 H 0.05424 0.38545 0.37917 0.0
H922 H 0.07786 0.35773 0.44961 0.0
H923 H 0.10143 0.37206 0.36416 0.0
C924 C 0.12931 0.37429 0.37756 0.0
C925 C 0.14127 0.3751 0.39917 0.0
C926 C 0.07258 0.36373 0.43419 0.0
C927 C 0.10249 0.37019 0.40635 0.0
C928 C 0.05487 0.36494 0.43766 0.0
C929 C 0.04797 0.37305 0.41809 0.0
C930 C 0.08317 0.37028 0.41075 0.0
C931 C 0.05905 0.37935 0.395 0.0
C932 C 0.11005 0.37193 0.38107 0.0
C933 C 0.1327 0.37219 0.42402 0.0
N934 N 0.07596 0.37778 0.39199 0.0
N935 N 0.11391 0.37 0.42696 0.0
H936 H 0.15404 0.38426 0.87364 0.0
H937 H 0.09632 0.41176 0.76212 0.0
H938 H 0.17024 0.38924 0.79269 0.0
H939 H 0.07127 0.38765 0.83703 0.0
H940 H 0.12652 0.40926 0.77424 0.0
H941 H 0.12705 0.39176 0.86199 0.0
C942 C 0.1522 0.38729 0.85349 0.0
C943 C 0.1645 0.38604 0.83415 0.0
C944 C 0.1144 0.4046 0.78801 0.0
C945 C 0.13334 0.39452 0.82057 0.0
C946 C 0.09716 0.40606 0.78111 0.0
C947 C 0.08103 0.39975 0.79842 0.0
C948 C 0.11572 0.39714 0.81259 0.0
C949 C 0.08311 0.3925 0.82283 0.0
C950 C 0.13664 0.39141 0.84679 0.0
C951 C 0.16114 0.38996 0.80829 0.0
N952 N 0.10002 0.39146 0.82913 0.0
N953 N 0.14591 0.39395 0.80226 0.0
H954 H 0.64927 0.81782 0.78746 0.0
H955 H 0.6826 0.73627 0.82756 0.0
H956 H 0.68547 0.82537 0.85662 0.0
H957 H 0.65947 0.73862 0.75112 0.0
H958 H 0.68311 0.76822 0.8397 0.0
H959 H 0.65118 0.78735 0.77531 0.0
C960 C 0.65748 0.81296 0.8002 0.0
C961 C 0.66722 0.82416 0.82308 0.0
C962 C 0.6781 0.76179 0.82021 0.0
C963 C 0.66967 0.78936 0.8092 0.0
C964 C 0.67789 0.74363 0.81325 0.0
C965 C 0.6709 0.73473 0.78834 0.0
C966 C 0.6711 0.77093 0.80218 0.0
C967 C 0.6649 0.74486 0.77059 0.0
C968 C 0.65875 0.79567 0.79315 0.0
C969 C 0.67792 0.81731 0.83868 0.0
N970 N 0.66497 0.76228 0.77792 0.0
N971 N 0.6788 0.80031 0.83151 0.0
H972 H 0.24109 0.91724 0.76857 0.0
H973 H 0.33474 0.02164 0.81977 0.0
H974 H 0.25287 0.93548 0.84997 0.0
H975 H 0.33993 0.99148 0.75045 0.0
H976 H 0.30191 0.99186 0.82761 0.0
H977 H 0.27518 0.94525 0.75865 0.0
C978 C 0.2509 0.9269 0.78439 0.0
C979 C 0.24402 0.92403 0.81015 0.0
C980 C 0.31019 0.99175 0.81064 0.0
C981 C 0.28268 0.95628 0.7988 0.0
C982 C 0.32892 0.00887 0.80595 0.0
C983 C 0.34026 0.00915 0.78438 0.0
C984 C 0.30242 0.97474 0.79351 0.0
C985 C 0.33176 0.99195 0.76734 0.0
C986 C 0.2703 0.94288 0.77868 0.0
C987 C 0.25742 0.93705 0.82984 0.0
N988 N 0.31328 0.97543 0.77221 0.0
N989 N 0.27594 0.95274 0.82369 0.0
H990 H 0.62627 0.88503 0.28537 0.0
H991 H 0.65447 1.00204 0.30435 0.0
H992 H 0.65623 0.9213 0.35462 0.0
H993 H 0.63776 0.9691 0.23033 0.0
H994 H 0.65034 0.97119 0.32533 0.0
H995 H 0.6246 0.91413 0.26757 0.0
C996 C 0.63213 0.89899 0.29704 0.0
C997 C 0.64159 0.90087 0.32137 0.0
C998 C 0.64756 0.97077 0.3045 0.0
C999 C 0.64005 0.93429 0.30101 0.0
C1000 C 0.64996 0.98837 0.29251 0.0
C1001 C 0.64667 0.98825 0.26548 0.0
C1002 C 0.64166 0.95291 0.2894 0.0
C1003 C 0.64069 0.97002 0.25115 0.0
C1004 C 0.63137 0.91566 0.28677 0.0
C1005 C 0.64912 0.91939 0.33558 0.0
N1006 N 0.63839 0.95312 0.26329 0.0
N1007 N 0.64833 0.93546 0.32511 0.0
H1008 H 0.12504 0.84505 0.28386 0.0
H1009 H 0.06957 0.72438 0.30872 0.0
H1010 H 0.13655 0.82044 0.35333 0.0
H1011 H 0.07698 0.75064 0.23251 0.0
H1012 H 0.09026 0.75914 0.32762 0.0
H1013 H 0.10283 0.81009 0.26709 0.0
C1014 C 0.12272 0.83229 0.2957 0.0
C1015 C 0.13276 0.83568 0.31994 0.0
C1016 C 0.08734 0.75719 0.30676 0.0
C1017 C 0.1074 0.79557 0.30087 0.0
C1018 C 0.07554 0.73737 0.29596 0.0
C1019 C 0.07159 0.73447 0.26893 0.0
C1020 C 0.09491 0.77422 0.29046 0.0
C1021 C 0.07971 0.75197 0.2534 0.0
C1022 C 0.11017 0.81233 0.28605 0.0
C1023 C 0.12931 0.81851 0.33438 0.0
N1024 N 0.09083 0.77099 0.26437 0.0
N1025 N 0.11692 0.7992 0.32466 0.0
H1026 H 0.25676 0.43363 0.29594 0.0
H1027 H 0.34685 0.4237 0.3618 0.0
H1028 H 0.24919 0.39615 0.36242 0.0
H1029 H 0.35253 0.45198 0.28728 0.0
H1030 H 0.31111 0.41338 0.36169 0.0
H1031 H 0.29119 0.43948 0.2912 0.0
C1032 C 0.26223 0.42631 0.30928 0.0
C1033 C 0.25006 0.4144 0.32967 0.0
C1034 C 0.32008 0.42177 0.34528 0.0
C1035 C 0.28976 0.42146 0.32466 0.0
C1036 C 0.34066 0.42786 0.34535 0.0
C1037 C 0.35297 0.43894 0.32454 0.0
C1038 C 0.31149 0.42687 0.32437 0.0
C1039 C 0.34376 0.44358 0.3038 0.0
C1040 C 0.28194 0.42974 0.30659 0.0
C1041 C 0.25795 0.40532 0.34634 0.0
N1042 N 0.32362 0.43763 0.30432 0.0
N1043 N 0.27739 0.40926 0.34368 0.0
H1044 H 0.25998 0.37933 0.8749 0.0
H1045 H 0.32097 0.33355 0.95294 0.0
H1046 H 0.23374 0.33386 0.9342 0.0
H1047 H 0.34328 0.36935 0.88366 0.0
H1048 H 0.29044 0.33676 0.94954 0.0
H1049 H 0.29234 0.37965 0.88142 0.0
C1050 C 0.26112 0.36975 0.88964 0.0
C1051 C 0.24407 0.35656 0.90401 0.0
C1052 C 0.30204 0.34394 0.93509 0.0
C1053 C 0.28098 0.35664 0.91141 0.0
C1054 C 0.31952 0.34209 0.93703 0.0
C1055 C 0.33481 0.35104 0.9185 0.0
C1056 C 0.29978 0.355 0.9146 0.0
C1057 C 0.33193 0.36201 0.89835 0.0
C1058 C 0.27953 0.36977 0.89319 0.0
C1059 C 0.24642 0.34423 0.92258 0.0
N1060 N 0.31487 0.36367 0.89698 0.0
N1061 N 0.26439 0.34454 0.92568 0.0
H1062 H 0.71495 0.96998 0.90933 0.0
H1063 H 0.69109 0.06193 0.89798 0.0
H1064 H 0.65987 0.96167 0.87278 0.0
H1065 H 0.73019 0.05916 0.9576 0.0
H1066 H 0.6832 0.02767 0.882 0.0
H1067 H 0.72443 0.0053 0.92081 0.0
C1068 C 0.70491 0.97565 0.90359 0.0
C1069 C 0.68655 0.96285 0.8902 0.0
C1070 C 0.69359 0.03469 0.89848 0.0
C1071 C 0.69735 1.00333 0.90315 0.0
C1072 C 0.69821 0.05426 0.90745 0.0
C1073 C 0.71123 0.06333 0.92923 0.0
C1074 C 0.70238 0.02441 0.91109 0.0
C1075 C 0.71994 0.05266 0.9409 0.0
C1076 C 0.71028 0.99577 0.91024 0.0
C1077 C 0.67402 0.97096 0.88342 0.0
N1078 N 0.71539 0.03384 0.93168 0.0
N1079 N 0.67968 0.99073 0.88989 0.0
H1080 H 0.12756 0.85577 0.9092 0.0
H1081 H 0.05921 0.74453 0.84506 0.0
H1082 H 0.14773 0.83211 0.84635 0.0
H1083 H 0.04443 0.76405 0.91705 0.0
H1084 H 0.09127 0.77668 0.84473 0.0
H1085 H 0.09718 0.8223 0.91255 0.0
C1086 C 0.1257 0.84342 0.8963 0.0
C1087 C 0.14016 0.84673 0.8774 0.0
C1088 C 0.08104 0.77393 0.86062 0.0
C1089 C 0.10516 0.80839 0.88083 0.0
C1090 C 0.06261 0.7556 0.86077 0.0
C1091 C 0.04895 0.75152 0.88111 0.0
C1092 C 0.08592 0.78847 0.88083 0.0
C1093 C 0.05439 0.76649 0.90094 0.0
C1094 C 0.10832 0.82431 0.8982 0.0
C1095 C 0.13701 0.83018 0.86126 0.0
N1096 N 0.07241 0.78431 0.90025 0.0
N1097 N 0.1197 0.81175 0.86314 0.0
H1098 H 0.43877 0.19003 0.69268 0.0
H1099 H 0.40105 0.09442 0.78492 0.0
H1100 H 0.40561 0.18463 0.76241 0.0
H1101 H 0.40674 0.08909 0.70202 0.0
H1102 H 0.40666 0.12908 0.77913 0.0
H1103 H 0.43198 0.15479 0.69812 0.0
C1104 C 0.43036 0.18152 0.70936 0.0
C1105 C 0.42284 0.19022 0.72726 0.0
C1106 C 0.40651 0.12026 0.76218 0.0
C1107 C 0.41492 0.15004 0.73348 0.0
C1108 C 0.4033 0.1005 0.76546 0.0
C1109 C 0.40337 0.08888 0.74389 0.0
C1110 C 0.41032 0.12867 0.73724 0.0
C1111 C 0.40641 0.0975 0.71911 0.0
C1112 C 0.42627 0.16138 0.71226 0.0
C1113 C 0.41166 0.17842 0.74825 0.0
N1114 N 0.41002 0.11701 0.71648 0.0
N1115 N 0.40813 0.15897 0.75089 0.0
H1116 H 0.92668 0.26489 0.68465 0.0
H1117 H 0.9901 0.36191 0.78119 0.0
H1118 H 0.90335 0.27872 0.75343 0.0
H1119 H 0.01013 0.35984 0.70348 0.0
H1120 H 0.96115 0.32782 0.77395 0.0
H1121 H 0.95983 0.2959 0.69377 0.0
C1122 C 0.92866 0.27415 0.70196 0.0
C1123 C 0.91223 0.26918 0.71836 0.0
C1124 C 0.97188 0.33467 0.75844 0.0
C1125 C 0.94993 0.3046 0.72879 0.0
C1126 C 0.98853 0.35422 0.76259 0.0
C1127 C 1.00257 0.36395 0.74284 0.0
C1128 C 0.96897 0.3245 0.73427 0.0
C1129 C 0.99967 0.35298 0.71924 0.0
C1130 C 0.94749 0.29194 0.707 0.0
C1131 C 0.91554 0.28194 0.74024 0.0
N1132 N 0.9831 0.33389 0.71551 0.0
N1133 N 0.93389 0.29895 0.74475 0.0
H1134 H 0.80582 0.68765 0.72122 0.0
H1135 H 0.73428 0.73781 0.72409 0.0
H1136 H 0.81675 0.74121 0.67884 0.0
H1137 H 0.7147 0.6774 0.75328 0.0
H1138 H 0.76667 0.74101 0.71323 0.0
H1139 H 0.77472 0.68537 0.73832 0.0
C1140 C 0.80184 0.69907 0.71573 0.0
C1141 C 0.814 0.71466 0.69847 0.0
C1142 C 0.75539 0.72704 0.7221 0.0
C1143 C 0.77835 0.71209 0.71804 0.0
C1144 C 0.73677 0.72517 0.7284 0.0
C1145 C 0.72144 0.70716 0.73943 0.0
C1146 C 0.75906 0.71084 0.72676 0.0
C1147 C 0.72595 0.69154 0.74477 0.0
C1148 C 0.78401 0.69768 0.72542 0.0
C1149 C 0.80792 0.72891 0.69197 0.0
N1150 N 0.74429 0.69367 0.73822 0.0
N1151 N 0.79062 0.72726 0.70172 0.0
H1152 H 0.79477 0.6977 0.09289 0.0
H1153 H 0.76709 0.7861 0.11643 0.0
H1154 H 0.8329 0.74901 0.14412 0.0
H1155 H 0.7235 0.72233 0.10228 0.0
H1156 H 0.79438 0.77714 0.11827 0.0
H1157 H 0.77212 0.71137 0.08686 0.0
C1158 C 0.79856 0.71201 0.10278 0.0
C1159 C 0.81577 0.72201 0.11939 0.0
C1160 C 0.77883 0.76522 0.11459 0.0
C1161 C 0.78943 0.73792 0.11236 0.0
C1162 C 0.76331 0.77032 0.1133 0.0
C1163 C 0.74297 0.75492 0.10913 0.0
C1164 C 0.77396 0.74468 0.11101 0.0
C1165 C 0.73891 0.7347 0.10558 0.0
C1166 C 0.78549 0.71979 0.09931 0.0
C1167 C 0.81982 0.74071 0.13122 0.0
N1168 N 0.75417 0.73024 0.10645 0.0
N1169 N 0.80665 0.74802 0.12764 0.0
H1170 H 0.31021 0.14502 0.15121 0.0
H1171 H 0.33874 0.05874 0.18581 0.0
H1172 H 0.35625 0.15497 0.20887 0.0
H1173 H 0.30193 0.05584 0.1193 0.0
H1174 H 0.34464 0.09332 0.19634 0.0
H1175 H 0.30573 0.11123 0.14135 0.0
C1176 C 0.3193 0.14004 0.16192 0.0
C1177 C 0.33362 0.15286 0.18089 0.0
C1178 C 0.33535 0.08508 0.17939 0.0
C1179 C 0.3287 0.11413 0.16956 0.0
C1180 C 0.33201 0.0654 0.17339 0.0
C1181 C 0.31981 0.05439 0.15169 0.0
C1182 C 0.32628 0.09364 0.16367 0.0
C1183 C 0.31142 0.06371 0.13624 0.0
C1184 C 0.31685 0.12079 0.15615 0.0
C1185 C 0.3452 0.14568 0.19389 0.0
N1186 N 0.31474 0.08269 0.1426 0.0
N1187 N 0.34244 0.12675 0.18805 0.0
H1188 H 0.90985 0.26515 0.19588 0.0
H1189 H 1.00212 0.3249 0.09968 0.0
H1190 H 0.90221 0.25627 0.11228 0.0
H1191 H 0.99745 0.35 0.1737 0.0
H1192 H 0.96853 0.29486 0.10617 0.0
H1193 H 0.94534 0.2911 0.19012 0.0
C1194 C 0.9157 0.26833 0.17632 0.0
C1195 C 0.90295 0.25857 0.15449 0.0
C1196 C 0.97497 0.30692 0.12101 0.0
C1197 C 0.94362 0.28834 0.14786 0.0
C1198 C 0.99413 0.32401 0.11739 0.0
C1199 C 1.00255 0.34005 0.13611 0.0
C1200 C 0.96438 0.30566 0.14377 0.0
C1201 C 0.99148 0.3381 0.15865 0.0
C1202 C 0.93594 0.28328 0.17307 0.0
C1203 C 0.91145 0.26349 0.12963 0.0
N1204 N 0.97303 0.32122 0.16188 0.0
N1205 N 0.93125 0.27808 0.12697 0.0
H1206 H 0.4036 0.30764 0.6254 0.0
H1207 H 0.31152 0.32878 0.64728 0.0
H1208 H 0.36673 0.28925 0.69372 0.0
H1209 H 0.33841 0.33333 0.57223 0.0
H1210 H 0.33293 0.31608 0.66543 0.0
H1211 H 0.38189 0.32009 0.60671 0.0
C1212 C 0.39111 0.3065 0.63657 0.0
C1213 C 0.38687 0.29738 0.66106 0.0
C1214 C 0.33403 0.3197 0.64494 0.0
C1215 C 0.36192 0.31128 0.63985 0.0
C1216 C 0.32175 0.32689 0.63452 0.0
C1217 C 0.32313 0.33213 0.60816 0.0
C1218 C 0.34801 0.31795 0.629 0.0
C1219 C 0.33672 0.32937 0.59262 0.0
C1220 C 0.3786 0.31337 0.62583 0.0
C1221 C 0.37035 0.296 0.67465 0.0
N1222 N 0.34876 0.32265 0.60333 0.0
N1223 N 0.35849 0.30286 0.66388 0.0
H1224 H 0.8521 0.15935 0.61535 0.0
H1225 H 0.74551 0.05904 0.64335 0.0
H1226 H 0.81897 0.15367 0.68532 0.0
H1227 H 0.783 0.06642 0.57733 0.0
H1228 H 0.77266 0.09213 0.66144 0.0
H1229 H 0.82763 0.12395 0.60347 0.0
C1230 C 0.83978 0.15058 0.6284 0.0
C1231 C 0.83763 0.15961 0.65134 0.0
C1232 C 0.77493 0.08633 0.64311 0.0
C1233 C 0.80905 0.11879 0.63757 0.0
C1234 C 0.75946 0.06742 0.63283 0.0
C1235 C 0.76178 0.05997 0.60858 0.0
C1236 C 0.79282 0.09778 0.62906 0.0
C1237 C 0.78025 0.07157 0.59585 0.0
C1238 C 0.82571 0.13029 0.62158 0.0
C1239 C 0.82129 0.14735 0.66747 0.0
N1240 N 0.79486 0.08979 0.6061 0.0
N1241 N 0.80751 0.12766 0.66015 0.0
H1242 H 0.92348 0.74635 0.68135 0.0
H1243 H 0.01335 0.76044 0.58757 0.0
H1244 H 0.91386 0.71939 0.60409 0.0
H1245 H 0.02166 0.77621 0.66974 0.0
H1246 H 0.97773 0.75171 0.59061 0.0
H1247 H 0.96028 0.76391 0.6746 0.0
C1248 C 0.92907 0.74455 0.66275 0.0
C1249 C 0.91559 0.7313 0.64332 0.0
C1250 C 0.98744 0.75731 0.6079 0.0
C1251 C 0.95761 0.7511 0.63553 0.0
C1252 C 1.00781 0.76239 0.60613 0.0
C1253 C 0.02052 0.76884 0.62848 0.0
C1254 C 0.97972 0.75884 0.63214 0.0
C1255 C 0.01241 0.77103 0.65204 0.0
C1256 C 0.95008 0.7544 0.65897 0.0
C1257 C 0.92371 0.72933 0.61969 0.0
N1258 N 0.99258 0.76593 0.65328 0.0
N1259 N 0.94412 0.73895 0.61654 0.0
H1260 H 0.92035 0.72449 0.17011 0.0
H1261 H 0.96549 0.66633 0.25517 0.0
H1262 H 0.88346 0.67089 0.21495 0.0
H1263 H 0.99877 0.71075 0.19669 0.0
H1264 H 0.93665 0.67204 0.24719 0.0
H1265 H 0.95077 0.72423 0.18663 0.0
C1266 C 0.91868 0.71299 0.18388 0.0
C1267 C 0.89935 0.69763 0.19101 0.0
C1268 C 0.95037 0.68063 0.23628 0.0
C1269 C 0.93397 0.69703 0.20979 0.0
C1270 C 0.96683 0.67739 0.2409 0.0
C1271 C 0.9845 0.68781 0.22634 0.0
C1272 C 0.9517 0.69458 0.21723 0.0
C1273 C 0.98536 0.70205 0.2081 0.0
C1274 C 0.93601 0.7127 0.19314 0.0
C1275 C 0.89808 0.68292 0.20873 0.0
N1276 N 0.96926 0.70494 0.20403 0.0
N1277 N 0.91507 0.6829 0.21734 0.0
H1278 H 0.38373 0.30857 0.20991 0.0
H1279 H 0.39477 0.38324 0.32631 0.0
H1280 H 0.34807 0.2889 0.27927 0.0
H1281 H 0.40409 0.40558 0.24759 0.0
H1282 H 0.38279 0.34898 0.30931 0.0
H1283 H 0.39557 0.34446 0.22299 0.0
C1284 C 0.37837 0.31182 0.22782 0.0
C1285 C 0.36498 0.29577 0.24364 0.0
C1286 C 0.38743 0.36133 0.29569 0.0
C1287 C 0.37854 0.3365 0.25867 0.0
C1288 C 0.39449 0.38107 0.30535 0.0
C1289 C 0.4005 0.39754 0.28837 0.0
C1290 C 0.38652 0.35773 0.26875 0.0
C1291 C 0.39959 0.3934 0.2614 0.0
C1292 C 0.38501 0.33222 0.23512 0.0
C1293 C 0.35827 0.30075 0.26644 0.0
N1294 N 0.39279 0.37384 0.25236 0.0
N1295 N 0.36531 0.32065 0.27341 0.0
H1296 H 0.80606 0.16519 0.191 0.0
H1297 H 0.7008 0.10001 0.26428 0.0
H1298 H 0.7839 0.19036 0.24958 0.0
H1299 H 0.71679 0.07856 0.19493 0.0
H1300 H 0.73386 0.13135 0.26386 0.0
H1301 H 0.77617 0.13135 0.19716 0.0
C1302 C 0.79511 0.16353 0.20545 0.0
C1303 C 0.79736 0.18062 0.21964 0.0
C1304 C 0.73016 0.11971 0.24883 0.0
C1305 C 0.76318 0.14212 0.22669 0.0
C1306 C 0.71128 0.10178 0.24908 0.0
C1307 C 0.70586 0.08666 0.22947 0.0
C1308 C 0.7438 0.12252 0.22892 0.0
C1309 C 0.72016 0.08986 0.21031 0.0
C1310 C 0.77799 0.14427 0.20884 0.0
C1311 C 0.78265 0.17763 0.23802 0.0
N1312 N 0.7384 0.10743 0.21046 0.0
N1313 N 0.76617 0.15882 0.24091 0.0
H1314 H 0.03484 0.49829 0.94672 0.0
H1315 H 0.02164 0.46258 0.79625 0.0
H1316 H 0.99561 0.50661 0.89273 0.0
H1317 H 0.05262 0.44733 0.85505 0.0
H1318 H 0.01645 0.48378 0.82891 0.0
H1319 H 0.04545 0.48425 0.91135 0.0
C1320 C 0.02856 0.4974 0.92737 0.0
C1321 C 0.01429 0.50377 0.92285 0.0
C1322 C 0.02477 0.47615 0.8345 0.0
C1323 C 0.02633 0.48725 0.88186 0.0
C1324 C 0.02799 0.46433 0.81578 0.0
C1325 C 0.03785 0.45349 0.82295 0.0
C1326 C 0.03148 0.47708 0.86047 0.0
C1327 C 0.0452 0.45568 0.84869 0.0
C1328 C 0.03459 0.48922 0.9071 0.0
C1329 C 1.00648 0.50173 0.89726 0.0
N1330 N 0.04178 0.4671 0.86648 0.0
N1331 N 0.01257 0.49362 0.87774 0.0
H1332 H 0.59136 0.5902 0.94349 0.0
H1333 H 0.59917 0.6483 0.81011 0.0
H1334 H 0.54439 0.60018 0.91111 0.0
H1335 H 0.64652 0.63657 0.83634 0.0
H1336 H 0.57903 0.62985 0.84714 0.0
H1337 H 0.61219 0.60687 0.90536 0.0
C1338 C 0.58543 0.59591 0.92851 0.0
C1339 C 0.56593 0.59356 0.93057 0.0
C1340 C 0.59376 0.63114 0.84487 0.0
C1341 C 0.58964 0.61254 0.88679 0.0
C1342 C 0.6053 0.64167 0.82357 0.0
C1343 C 0.62462 0.64404 0.82002 0.0
C1344 C 0.60153 0.62292 0.86318 0.0
C1345 C 0.63166 0.63503 0.83822 0.0
C1346 C 0.59728 0.60531 0.90665 0.0
C1347 C 0.55906 0.6012 0.91035 0.0
N1348 N 0.62019 0.625 0.85914 0.0
N1349 N 0.57084 0.61027 0.88951 0.0
H1350 H 0.44118 0.99716 0.95487 0.0
H1351 H 0.43987 0.01935 0.80289 0.0
H1352 H 0.4884 1.0041 0.90328 0.0
H1353 H 0.40167 0.02438 0.86056 0.0
H1354 H 0.45347 0.00608 0.83662 0.0
H1355 H 0.42188 0.99881 0.91752 0.0
C1356 C 0.44734 0.99879 0.93557 0.0
C1357 C 0.46651 1.00084 0.93216 0.0
C1358 C 0.44191 0.00986 0.84169 0.0
C1359 C 0.44468 1.003 0.88928 0.0
C1360 C 0.43414 0.01735 0.8225 0.0
C1361 C 0.41992 0.02328 0.82914 0.0
C1362 C 0.43512 0.00807 0.86743 0.0
C1363 C 0.41292 0.02037 0.85474 0.0
C1364 C 0.43635 0.99974 0.91424 0.0
C1365 C 0.47367 1.00252 0.9067 0.0
N1366 N 0.42066 0.0131 0.87292 0.0
N1367 N 0.46289 1.00391 0.88619 0.0
H1368 H 0.45613 0.98274 0.59668 0.0
H1369 H 0.46074 0.05653 0.71386 0.0
H1370 H 0.50716 0.04296 0.61297 0.0
H1371 H 0.40827 0.99759 0.6961 0.0
H1372 H 0.47878 0.05063 0.67882 0.0
H1373 H 0.43921 0.98672 0.63469 0.0
C1374 C 0.46387 0.99673 0.60832 0.0
C1375 C 0.48311 0.01258 0.60144 0.0
C1376 C 0.46336 0.03891 0.68263 0.0
C1377 C 0.46369 0.0173 0.64498 0.0
C1378 C 0.45304 0.04226 0.70271 0.0
C1379 C 0.43292 0.02756 0.70787 0.0
C1380 C 0.4535 0.02074 0.66749 0.0
C1381 C 0.42375 0.00936 0.69277 0.0
C1382 C 0.45414 0.99904 0.62998 0.0
C1383 C 0.49224 0.03046 0.61719 0.0
N1384 N 0.43408 0.0065 0.67319 0.0
N1385 N 0.48246 0.03234 0.63813 0.0
H1386 H 0.0953 0.53436 0.60276 0.0
H1387 H 0.01786 0.45064 0.7014 0.0
H1388 H 0.03291 0.51953 0.6097 0.0
H1389 H 0.08153 0.46979 0.69935 0.0
H1390 H 0.02282 0.47508 0.66719 0.0
H1391 H 0.09031 0.51038 0.63721 0.0
C1392 C 0.08055 0.52623 0.61144 0.0
C1393 C 0.06456 0.52929 0.60293 0.0
C1394 C 0.03573 0.47398 0.67422 0.0
C1395 C 0.05868 0.50124 0.64277 0.0
C1396 C 0.0329 0.45998 0.6938 0.0
C1397 C 0.04929 0.45807 0.7034 0.0
C1398 C 0.0551 0.48622 0.66391 0.0
C1399 C 0.06842 0.47067 0.69267 0.0
C1400 C 0.0777 0.51238 0.6312 0.0
C1401 C 0.04575 0.5178 0.61513 0.0
N1402 N 0.07077 0.4841 0.67357 0.0
N1403 N 0.04337 0.50438 0.63428 0.0
H1404 H 0.53499 0.56332 0.64304 0.0
H1405 H 0.63827 0.6699 0.66332 0.0
H1406 H 0.56594 0.60543 0.58133 0.0
H1407 H 0.60877 0.62889 0.72651 0.0
H1408 H 0.6121 0.64574 0.63324 0.0
H1409 H 0.56129 0.58682 0.67406 0.0
C1410 C 0.54719 0.5776 0.63602 0.0
C1411 C 0.54821 0.58237 0.60944 0.0
C1412 C 0.61131 0.64188 0.65362 0.0
C1413 C 0.57857 0.60924 0.64494 0.0
C1414 C 0.62632 0.65569 0.67089 0.0
C1415 C 0.62568 0.65151 0.6976 0.0
C1416 C 0.5953 0.62364 0.66296 0.0
C1417 C 0.60991 0.63271 0.7061 0.0
C1418 C 0.56227 0.59095 0.65377 0.0
C1419 C 0.56444 0.60109 0.60157 0.0
N1420 N 0.59522 0.61952 0.68884 0.0
N1421 N 0.57897 0.61376 0.6192 0.0
H1422 H 0.96942 0.54362 0.11718 0.0
H1423 H 0.03795 0.6561 0.18141 0.0
H1424 H 0.02209 0.59232 0.08139 0.0
H1425 H 0.98782 0.60705 0.22064 0.0
H1426 H 0.03083 0.63334 0.14348 0.0
H1427 H 0.97429 0.56692 0.15401 0.0
C1428 C 0.98192 0.55921 0.11695 0.0
C1429 C 0.99546 0.56589 0.09618 0.0
C1430 C 0.02132 0.62752 0.16032 0.0
C1431 C 1.00119 0.59268 0.13836 0.0
C1432 C 0.02536 0.64056 0.18201 0.0
C1433 C 0.01351 0.63348 0.20431 0.0
C1434 C 1.00527 0.60717 0.16081 0.0
C1435 C 0.99738 0.61316 0.20389 0.0
C1436 C 0.98475 0.57249 0.13805 0.0
C1437 C 0.01147 0.58629 0.0971 0.0
N1438 N 0.99377 0.60072 0.18256 0.0
N1439 N 0.01388 0.59887 0.11777 0.0
H1440 H 0.53371 0.54562 0.15709 0.0
H1441 H 0.41968 0.47829 0.20589 0.0
H1442 H 0.48256 0.52164 0.10315 0.0
H1443 H 0.47325 0.49122 0.25091 0.0
H1444 H 0.44135 0.49571 0.1686 0.0
H1445 H 0.51084 0.52798 0.1922 0.0
C1446 C 0.51767 0.53655 0.15246 0.0
C1447 C 0.51026 0.53498 0.12676 0.0
C1448 C 0.44828 0.49463 0.18665 0.0
C1449 C 0.48355 0.51471 0.16764 0.0
C1450 C 0.43593 0.48468 0.20794 0.0
C1451 C 0.4446 0.48324 0.23166 0.0
C1452 C 0.46947 0.50339 0.18922 0.0
C1453 C 0.46578 0.49187 0.23312 0.0
C1454 C 0.50452 0.52648 0.17271 0.0
C1455 C 0.48908 0.52339 0.12253 0.0
N1456 N 0.47739 0.50159 0.21237 0.0
N1457 N 0.47649 0.51367 0.14271 0.0
H1458 H 0.57046 0.03153 0.07101 0.0
H1459 H 0.60599 0.06561 0.21904 0.0
H1460 H 0.52899 0.02353 0.13217 0.0
H1461 H 0.63389 0.03971 0.17055 0.0
H1462 H 0.58232 0.06054 0.18294 0.0
H1463 H 0.59823 0.04386 0.10384 0.0
C1464 C 0.56729 0.03241 0.09137 0.0
C1465 C 0.5475 0.02626 0.09911 0.0
C1466 C 0.5939 0.05636 0.18013 0.0
C1467 C 0.57895 0.04084 0.13627 0.0
C1468 C 0.60751 0.05943 0.20055 0.0
C1469 C 0.62175 0.05291 0.1977 0.0
C1470 C 0.59488 0.04708 0.15669 0.0
C1471 C 0.62298 0.04478 0.17347 0.0
C1472 C 0.58304 0.03945 0.10996 0.0
C1473 C 0.54402 0.02778 0.1256 0.0
N1474 N 0.60961 0.04199 0.15385 0.0
N1475 N 0.55964 0.03502 0.14328 0.0
H1476 H 0.58196 0.03831 0.44899 0.0
H1477 H 0.58558 0.01106 0.29845 0.0
H1478 H 0.52892 0.99837 0.40183 0.0
H1479 H 0.63821 0.05544 0.34288 0.0
H1480 H 0.56499 1.00495 0.33692 0.0
H1481 H 0.60306 0.04357 0.41121 0.0
C1482 C 0.57468 0.03069 0.43071 0.0
C1483 C 0.55351 0.01796 0.42867 0.0
C1484 C 0.58104 0.01601 0.33833 0.0
C1485 C 0.57776 0.02376 0.38527 0.0
C1486 C 0.59284 0.01951 0.31634 0.0
C1487 C 0.61367 0.03383 0.31742 0.0
C1488 C 0.59008 0.02687 0.3617 0.0
C1489 C 0.62221 0.04429 0.34116 0.0
C1490 C 0.5868 0.03364 0.40914 0.0
C1491 C 0.54511 0.00818 0.40451 0.0
N1492 N 0.61037 0.04062 0.36237 0.0
N1493 N 0.55724 0.01133 0.38379 0.0
H1494 H 0.03608 0.61319 0.45774 0.0
H1495 H 0.06199 0.64744 0.30915 0.0
H1496 H 0.07766 0.6036 0.41109 0.0
H1497 H 0.01521 0.65191 0.35043 0.0
H1498 H 0.06898 0.63328 0.34769 0.0
H1499 H 0.0292 0.62881 0.42028 0.0
C1500 C 0.04378 0.61424 0.43976 0.0
C1501 C 0.05752 0.60683 0.43794 0.0
C1502 C 0.05719 0.63735 0.34848 0.0
C1503 C 0.04974 0.62512 0.39472 0.0
C1504 C 0.05317 0.64553 0.32638 0.0
C1505 C 0.03791 0.65091 0.32636 0.0
C1506 C 0.04593 0.63442 0.37111 0.0
C1507 C 0.0271 0.648 0.34946 0.0
C1508 C 0.03985 0.62329 0.41832 0.0
C1509 C 0.06712 0.60909 0.41392 0.0
N1510 N 0.03129 0.63994 0.37087 0.0
N1511 N 0.06304 0.61795 0.39346 0.0
H1512 H 0.50669 0.5618 0.45241 0.0
H1513 H 0.4151 0.46747 0.37719 0.0
H1514 H 0.46275 0.50593 0.48787 0.0
H1515 H 0.45445 0.52376 0.33871 0.0
H1516 H 0.42944 0.48417 0.41909 0.0
H1517 H 0.48532 0.55143 0.41227 0.0
C1518 C 0.4922 0.54774 0.45202 0.0
C1519 C 0.48634 0.53468 0.47337 0.0
C1520 C 0.43488 0.49309 0.40163 0.0
C1521 C 0.46219 0.52253 0.4277 0.0
C1522 C 0.42664 0.48349 0.37762 0.0
C1523 C 0.43372 0.49419 0.35446 0.0
C1524 C 0.4508 0.5135 0.40264 0.0
C1525 C 0.44858 0.51501 0.35621 0.0
C1526 C 0.48011 0.54172 0.42909 0.0
C1527 C 0.46773 0.51641 0.4718 0.0
N1528 N 0.45695 0.52393 0.37991 0.0
N1529 N 0.45646 0.51081 0.44935 0.0
H1530 H 0.71616 0.849 0.30129 0.0
H1531 H 0.70562 0.8337 0.14454 0.0
H1532 H 0.69692 0.88216 0.25142 0.0
H1533 H 0.71727 0.79614 0.19677 0.0
H1534 H 0.70748 0.85534 0.18231 0.0
H1535 H 0.72172 0.83327 0.26238 0.0
C1536 C 0.71344 0.85329 0.28221 0.0
C1537 C 0.70599 0.86696 0.27985 0.0
C1538 C 0.70991 0.84252 0.18541 0.0
C1539 C 0.71212 0.84869 0.23484 0.0
C1540 C 0.70904 0.83028 0.16377 0.0
C1541 C 0.71123 0.813 0.16738 0.0
C1542 C 0.71317 0.83755 0.21082 0.0
C1543 C 0.71534 0.8092 0.19295 0.0
C1544 C 0.71649 0.84417 0.2599 0.0
C1545 C 0.7026 0.87168 0.25438 0.0
N1546 N 0.71606 0.8212 0.21351 0.0
N1547 N 0.70554 0.86251 0.23302 0.0
H1548 H 0.20327 0.89762 0.27093 0.0
H1549 H 0.30843 0.96197 0.19763 0.0
H1550 H 0.26057 0.92271 0.31248 0.0
H1551 H 0.25109 0.95547 0.17274 0.0
H1552 H 0.29164 0.94047 0.23547 0.0
H1553 H 0.22117 0.91043 0.23029 0.0
C1554 C 0.2197 0.90529 0.27132 0.0
C1555 C 0.23045 0.90898 0.29505 0.0
C1556 C 0.28276 0.94356 0.22148 0.0
C1557 C 0.25118 0.92442 0.24854 0.0
C1558 C 0.29227 0.95569 0.19983 0.0
C1559 C 0.28112 0.96054 0.18205 0.0
C1560 C 0.2619 0.9359 0.22494 0.0
C1561 C 0.26029 0.95221 0.18599 0.0
C1562 C 0.22992 0.91282 0.24814 0.0
C1563 C 0.25173 0.91929 0.29451 0.0
N1564 N 0.25141 0.94035 0.2069 0.0
N1565 N 0.26147 0.92694 0.27162 0.0
H1566 H 0.14943 0.38706 0.28702 0.0
H1567 H 0.11909 0.42825 0.16218 0.0
H1568 H 0.17988 0.45059 0.26553 0.0
H1569 H 0.09145 0.36408 0.17926 0.0
H1570 H 0.14399 0.4361 0.19721 0.0
H1571 H 0.13023 0.3779 0.24595 0.0
C1572 C 0.1523 0.39911 0.27357 0.0
C1573 C 0.16638 0.4197 0.27983 0.0
C1574 C 0.13272 0.42025 0.19317 0.0
C1575 C 0.14412 0.40922 0.2327 0.0
C1576 C 0.11856 0.41576 0.17309 0.0
C1577 C 0.10319 0.39552 0.16804 0.0
C1578 C 0.13132 0.40441 0.20868 0.0
C1579 C 0.10314 0.37988 0.18257 0.0
C1580 C 0.14123 0.39382 0.25009 0.0
C1581 C 0.16904 0.4346 0.26174 0.0
N1582 N 0.11683 0.38469 0.20262 0.0
N1583 N 0.15796 0.42906 0.23906 0.0
H1584 H 0.1194 0.30998 0.95931 0.0
H1585 H 0.11901 0.39518 0.05385 0.0
H1586 H 0.16819 0.37273 0.96424 0.0
H1587 H 0.07413 0.33099 0.056 0.0
H1588 H 0.13745 0.38718 0.02135 0.0
H1589 H 0.10285 0.31722 0.99502 0.0
C1590 C 0.12677 0.32524 0.96795 0.0
C1591 C 0.14525 0.34077 0.95847 0.0
C1592 C 0.12364 0.37481 0.02904 0.0
C1593 C 0.12613 0.34924 0.99936 0.0
C1594 C 0.1131 0.37938 0.04762 0.0
C1595 C 0.09496 0.36374 0.05762 0.0
C1596 C 0.11593 0.35447 0.02021 0.0
C1597 C 0.08804 0.34354 0.04882 0.0
C1598 C 0.11722 0.32939 0.98834 0.0
C1599 C 0.15382 0.36032 0.97043 0.0
N1600 N 0.09846 0.33951 0.03052 0.0
N1601 N 0.14417 0.36399 0.99012 0.0
H1602 H 0.67335 0.87143 0.94872 0.0
H1603 H 0.73889 0.83134 0.02679 0.0
H1604 H 0.7293 0.87899 0.91848 0.0
H1605 H 0.67844 0.81754 0.0461 0.0
H1606 H 0.73804 0.85152 0.9898 0.0
H1607 H 0.67759 0.855 0.98669 0.0
C1608 C 0.6867 0.86976 0.95004 0.0
C1609 C 0.70091 0.87663 0.92994 0.0
C1610 C 0.72503 0.84418 1.00223 0.0
C1611 C 0.70585 0.85731 0.97433 0.0
C1612 C 0.72552 0.83271 0.0235 0.0
C1613 C 0.70871 0.82266 0.03983 0.0
C1614 C 0.70765 0.84582 0.99723 0.0
C1615 C 0.69179 0.82494 0.03426 0.0
C1616 C 0.68907 0.86025 0.97194 0.0
C1617 C 0.71793 0.87405 0.93335 0.0
N1618 N 0.69172 0.83618 0.01362 0.0
N1619 N 0.71987 0.8645 0.955 0.0
H1620 H 0.19065 0.94159 0.96338 0.0
H1621 H 0.28645 0.96008 0.05084 0.0
H1622 H 0.23492 0.92569 0.93744 0.0
H1623 H 0.24286 0.97771 0.07365 0.0
H1624 H 0.26473 0.9416 0.01263 0.0
H1625 H 0.20689 0.94996 1.00657 0.0
C1626 C 0.2038 0.93987 0.96673 0.0
C1627 C 0.21154 0.93316 0.94657 0.0
C1628 C 0.25967 0.94906 0.02637 0.0
C1629 C 0.23026 0.9426 0.99629 0.0
C1630 C 0.27193 0.95933 0.04834 0.0
C1631 C 0.26631 0.97027 0.06539 0.0
C1632 C 0.2418 0.94989 0.02154 0.0
C1633 C 0.24763 0.96935 0.06097 0.0
C1634 C 0.21301 0.9445 0.99152 0.0
C1635 C 0.22838 0.93076 0.95235 0.0
N1636 N 0.23618 0.95958 0.03937 0.0
N1637 N 0.2373 0.93568 0.97658 0.0
H1638 H 0.72489 0.94853 0.40146 0.0
H1639 H 0.68108 0.93761 0.5462 0.0
H1640 H 0.68747 0.88991 0.43627 0.0
H1641 H 0.72728 0.99444 0.51496 0.0
H1642 H 0.68128 0.91982 0.50559 0.0
H1643 H 0.72442 0.96546 0.44227 0.0
C1644 C 0.71667 0.93916 0.41771 0.0
C1645 C 0.7063 0.91767 0.41522 0.0
C1646 C 0.69134 0.93619 0.50763 0.0
C1647 C 0.70542 0.93717 0.46239 0.0
C1648 C 0.69114 0.94639 0.5308 0.0
C1649 C 0.70416 0.96762 0.53415 0.0
C1650 C 0.70452 0.9473 0.48748 0.0
C1651 C 0.71696 0.97809 0.51343 0.0
C1652 C 0.71637 0.94888 0.4411 0.0
C1653 C 0.69584 0.90649 0.43717 0.0
N1654 N 0.71678 0.9679 0.49116 0.0
N1655 N 0.69558 0.91632 0.45966 0.0
H1656 H 0.19337 0.85958 0.44651 0.0
H1657 H 0.08283 0.79641 0.50947 0.0
H1658 H 0.13868 0.85605 0.41552 0.0
H1659 H 0.13733 0.80645 0.54969 0.0
H1660 H 0.10306 0.81417 0.47186 0.0
H1661 H 0.17322 0.83627 0.48152 0.0
C1662 C 0.17717 0.85371 0.44683 0.0
C1663 C 0.16776 0.85997 0.42821 0.0
C1664 C 0.11064 0.81239 0.48882 0.0
C1665 C 0.14466 0.83338 0.46795 0.0
C1666 C 0.09903 0.80215 0.51032 0.0
C1667 C 0.10834 0.79998 0.53291 0.0
C1668 C 0.13183 0.82065 0.48974 0.0
C1669 C 0.12947 0.8078 0.53274 0.0
C1670 C 0.16568 0.84051 0.46686 0.0
C1671 C 0.14669 0.85193 0.42964 0.0
N1672 N 0.14051 0.81788 0.51162 0.0
N1673 N 0.13597 0.8392 0.44906 0.0
H1674 H 0.24001 0.44589 0.48164 0.0
H1675 H 0.27322 0.36568 0.52994 0.0
H1676 H 0.23565 0.39562 0.43481 0.0
H1677 H 0.27199 0.4109 0.58131 0.0
H1678 H 0.26195 0.37867 0.49387 0.0
H1679 H 0.25411 0.43538 0.51765 0.0
C1680 C 0.24203 0.43275 0.47878 0.0
C1681 C 0.23654 0.42174 0.4549 0.0
C1682 C 0.26415 0.38581 0.51301 0.0
C1683 C 0.25281 0.40973 0.49601 0.0
C1684 C 0.27059 0.37837 0.53362 0.0
C1685 C 0.27343 0.38715 0.55866 0.0
C1686 C 0.26051 0.40217 0.51743 0.0
C1687 C 0.26989 0.40363 0.56228 0.0
C1688 C 0.25014 0.4268 0.49935 0.0
C1689 C 0.23979 0.40494 0.45242 0.0
N1690 N 0.26356 0.4106 0.54189 0.0
N1691 N 0.24762 0.39949 0.47265 0.0
H1692 H 0.1828 0.31364 0.76124 0.0
H1693 H 0.29292 0.3727 0.70032 0.0
H1694 H 0.23785 0.34645 0.80792 0.0
H1695 H 0.23906 0.33019 0.65632 0.0
H1696 H 0.27318 0.36286 0.74021 0.0
H1697 H 0.20321 0.31863 0.72281 0.0
C1698 C 0.19914 0.32166 0.76355 0.0
C1699 C 0.20856 0.32987 0.7879 0.0
C1700 C 0.26573 0.35556 0.72184 0.0
C1701 C 0.23209 0.33597 0.74378 0.0
C1702 C 0.27699 0.36121 0.69908 0.0
C1703 C 0.26759 0.35235 0.67496 0.0
C1704 C 0.2449 0.34109 0.72041 0.0
C1705 C 0.24692 0.33748 0.67449 0.0
C1706 C 0.21082 0.32461 0.74152 0.0
C1707 C 0.22988 0.34027 0.7895 0.0
N1708 N 0.23624 0.33245 0.69682 0.0
N1709 N 0.2409 0.34319 0.76773 0.0
H1710 H 0.72621 0.92229 0.77189 0.0
H1711 H 0.69116 0.98576 0.68016 0.0
H1712 H 0.68928 0.94803 0.79566 0.0
H1713 H 0.73329 0.96726 0.65335 0.0
H1714 H 0.69164 0.97232 0.72289 0.0
H1715 H 0.73103 0.93932 0.72939 0.0
C1716 C 0.71957 0.9319 0.76849 0.0
C1717 C 0.70735 0.93374 0.78751 0.0
C1718 C 0.70089 0.97118 0.70782 0.0
C1719 C 0.71237 0.95286 0.73878 0.0
C1720 C 0.70058 0.97887 0.68322 0.0
C1721 C 0.71215 0.97768 0.66287 0.0
C1722 C 0.71276 0.96192 0.71255 0.0
C1723 C 0.72409 0.96856 0.66837 0.0
C1724 C 0.72213 0.94144 0.74411 0.0
C1725 C 0.69878 0.94607 0.78169 0.0
N1726 N 0.72401 0.96094 0.69257 0.0
N1727 N 0.70133 0.95493 0.75806 0.0
H1728 H 0.15706 0.90851 0.73663 0.0
H1729 H 0.09433 0.79436 0.67937 0.0
H1730 H 0.12935 0.85491 0.78432 0.0
H1731 H 0.1077 0.84668 0.63263 0.0
H1732 H 0.10758 0.81678 0.71784 0.0
H1733 H 0.13932 0.88685 0.69828 0.0
C1734 C 0.14709 0.89227 0.73917 0.0
C1735 C 0.14497 0.88353 0.76382 0.0
C1736 C 0.10751 0.82341 0.69925 0.0
C1737 C 0.12485 0.85862 0.71987 0.0
C1738 C 0.09997 0.81059 0.67721 0.0
C1739 C 0.09995 0.81866 0.65272 0.0
C1740 C 0.11542 0.8446 0.69686 0.0
C1741 C 0.10742 0.83983 0.65117 0.0
C1742 C 0.13702 0.8799 0.71721 0.0
C1743 C 0.1319 0.86233 0.76573 0.0
N1744 N 0.11506 0.85213 0.67292 0.0
N1745 N 0.12253 0.85063 0.74409 0.0
H1746 H 0.36108 0.18285 0.64341 0.0
H1747 H 0.40576 0.17329 0.50511 0.0
H1748 H 0.41307 0.23279 0.6081 0.0
H1749 H 0.35237 0.12423 0.53932 0.0
H1750 H 0.40765 0.19608 0.54134 0.0
H1751 H 0.35635 0.16165 0.60407 0.0
C1752 C 0.37132 0.18944 0.62736 0.0
C1753 C 0.38756 0.20962 0.62931 0.0
C1754 C 0.39547 0.18032 0.54076 0.0
C1755 C 0.38242 0.18542 0.58422 0.0
C1756 C 0.39437 0.16733 0.51998 0.0
C1757 C 0.37906 0.14667 0.5191 0.0
C1758 C 0.38112 0.17262 0.5608 0.0
C1759 C 0.3647 0.13991 0.53914 0.0
C1760 C 0.36871 0.17732 0.6049 0.0
C1761 C 0.40042 0.21726 0.60777 0.0
N1762 N 0.36615 0.15271 0.55904 0.0
N1763 N 0.39767 0.20521 0.58637 0.0
H1764 H 0.86319 0.27042 0.57961 0.0
H1765 H 0.96861 0.30734 0.50768 0.0
H1766 H 0.90688 0.25274 0.6034 0.0
H1767 H 0.92819 0.33068 0.49076 0.0
H1768 H 0.94524 0.28548 0.54089 0.0
H1769 H 0.88582 0.29081 0.5451 0.0
C1770 C 0.87748 0.27072 0.57754 0.0
C1771 C 0.88308 0.25982 0.59457 0.0
C1772 C 0.94146 0.29535 0.52986 0.0
C1773 C 0.90924 0.28331 0.555 0.0
C1774 C 0.95478 0.30779 0.51084 0.0
C1775 C 0.95039 0.32091 0.49642 0.0
C1776 C 0.92355 0.29593 0.53447 0.0
C1777 C 0.93224 0.32086 0.50142 0.0
C1778 C 0.89047 0.28247 0.55787 0.0
C1779 C 0.90198 0.26106 0.59103 0.0
N1780 N 0.91953 0.30861 0.51998 0.0
N1781 N 0.91433 0.27254 0.57166 0.0
H1782 H 0.84699 0.71521 0.57995 0.0
H1783 H 0.76831 0.67101 0.4591 0.0
H1784 H 0.80384 0.65084 0.56868 0.0
H1785 H 0.79686 0.73353 0.48792 0.0
H1786 H 0.78723 0.66374 0.49251 0.0
H1787 H 0.83446 0.72225 0.53972 0.0
C1788 C 0.83486 0.70252 0.56909 0.0
C1789 C 0.82615 0.68242 0.57815 0.0
C1790 C 0.78952 0.6791 0.4912 0.0
C1791 C 0.81199 0.69042 0.5316 0.0
C1792 C 0.77888 0.68329 0.47206 0.0
C1793 C 0.78091 0.70285 0.47096 0.0
C1794 C 0.80244 0.69467 0.50899 0.0
C1795 C 0.79469 0.71818 0.48831 0.0
C1796 C 0.82782 0.70656 0.54597 0.0
C1797 C 0.81096 0.66656 0.56257 0.0
N1798 N 0.80484 0.71374 0.50667 0.0
N1799 N 0.80422 0.67092 0.54015 0.0
H1800 H 0.79107 0.64227 0.23854 0.0
H1801 H 0.79161 0.72068 0.34579 0.0
H1802 H 0.81885 0.70764 0.22896 0.0
H1803 H 0.75036 0.65554 0.34847 0.0
H1804 H 0.80546 0.71542 0.30578 0.0
H1805 H 0.77884 0.64614 0.28105 0.0
C1806 C 0.79459 0.6574 0.24521 0.0
C1807 C 0.80619 0.67466 0.23001 0.0
C1808 C 0.79344 0.70223 0.31514 0.0
C1809 C 0.79252 0.67917 0.27884 0.0
C1810 C 0.78558 0.70522 0.3381 0.0
C1811 C 0.7697 0.68854 0.3504 0.0
C1812 C 0.78542 0.6824 0.30433 0.0
C1813 C 0.76255 0.66884 0.33954 0.0
C1814 C 0.78768 0.65959 0.26957 0.0
C1815 C 0.81039 0.69389 0.23998 0.0
N1816 N 0.77041 0.6663 0.317 0.0
N1817 N 0.80361 0.6956 0.26368 0.0
H1818 H 0.40685 0.20985 0.26772 0.0
H1819 H 0.35853 0.15521 0.40298 0.0
H1820 H 0.35411 0.20656 0.30286 0.0
H1821 H 0.41661 0.16457 0.37899 0.0
H1822 H 0.35779 0.17471 0.36586 0.0
H1823 H 0.41217 0.19445 0.30743 0.0
C1824 C 0.3966 0.20623 0.28379 0.0
C1825 C 0.3799 0.20945 0.28166 0.0
C1826 C 0.37085 0.17271 0.36864 0.0
C1827 C 0.38573 0.19161 0.32702 0.0
C1828 C 0.37127 0.16153 0.39002 0.0
C1829 C 0.38767 0.1582 0.39437 0.0
C1830 C 0.38683 0.18061 0.35087 0.0
C1831 C 0.40369 0.16683 0.3766 0.0
C1832 C 0.39956 0.19732 0.30642 0.0
C1833 C 0.36706 0.20423 0.30319 0.0
N1834 N 0.4028 0.17746 0.35556 0.0
N1835 N 0.37017 0.19557 0.32458 0.0
H1836 H 0.8603 0.27788 0.30533 0.0
H1837 H 0.97664 0.33577 0.34518 0.0
H1838 H 0.90574 0.27653 0.25721 0.0
H1839 H 0.93055 0.31613 0.40324 0.0
H1840 H 0.95075 0.31424 0.31255 0.0
H1841 H 0.88546 0.29269 0.34135 0.0
C1842 C 0.87554 0.28068 0.30238 0.0
C1843 C 0.88097 0.27603 0.27825 0.0
C1844 C 0.94628 0.31429 0.33251 0.0
C1845 C 0.9097 0.29286 0.31918 0.0
C1846 C 0.96106 0.32649 0.35112 0.0
C1847 C 0.95565 0.32753 0.37686 0.0
C1848 C 0.92583 0.3035 0.33951 0.0
C1849 C 0.93528 0.31548 0.38359 0.0
C1850 C 0.88981 0.28892 0.32297 0.0
C1851 C 0.90085 0.27972 0.27553 0.0
N1852 N 0.92098 0.30421 0.36488 0.0
N1853 N 0.91453 0.28811 0.29563 0.0
H1854 H 0.36127 0.23248 0.78561 0.0
H1855 H 0.39838 0.33487 0.87396 0.0
H1856 H 0.40908 0.29304 0.76737 0.0
H1857 H 0.35374 0.27576 0.90154 0.0
H1858 H 0.39932 0.31896 0.83297 0.0
H1859 H 0.35509 0.24692 0.82598 0.0
C1860 C 0.37024 0.24876 0.78983 0.0
C1861 C 0.38584 0.2615 0.77306 0.0
C1862 C 0.38921 0.30931 0.84782 0.0
C1863 C 0.37892 0.27809 0.81907 0.0
C1864 C 0.38866 0.31848 0.8714 0.0
C1865 C 0.37604 0.30672 0.89149 0.0
C1866 C 0.37714 0.28799 0.84386 0.0
C1867 C 0.36373 0.28547 0.88666 0.0
C1868 C 0.36681 0.25699 0.81295 0.0
C1869 C 0.39706 0.28248 0.7797 0.0
N1870 N 0.36467 0.27675 0.86343 0.0
N1871 N 0.39343 0.28998 0.80195 0.0
H1872 H 0.77907 0.20032 0.74961 0.0
H1873 H 0.77583 0.14486 0.88321 0.0
H1874 H 0.82736 0.19048 0.77721 0.0
H1875 H 0.72441 0.14787 0.85198 0.0
H1876 H 0.79471 0.16141 0.84431 0.0
H1877 H 0.75887 0.18152 0.78682 0.0
C1878 C 0.7855 0.1943 0.76351 0.0
C1879 C 0.80505 0.1971 0.7602 0.0
C1880 C 0.77927 0.15837 0.84582 0.0
C1881 C 0.78183 0.17534 0.8029 0.0
C1882 C 0.76843 0.14888 0.86807 0.0
C1883 C 0.74848 0.14498 0.87093 0.0
C1884 C 0.77021 0.16423 0.82621 0.0
C1885 C 0.73973 0.15054 0.8506 0.0
C1886 C 0.77387 0.18342 0.78469 0.0
C1887 C 0.81235 0.1886 0.77872 0.0
N1888 N 0.75069 0.16 0.82919 0.0
N1889 N 0.80081 0.17822 0.79926 0.0
H1890 H 0.89182 0.64969 0.74737 0.0
H1891 H 0.96107 0.72632 0.86206 0.0
H1892 H 0.90345 0.71172 0.75595 0.0
H1893 H 0.96279 0.67156 0.84083 0.0
H1894 H 0.93894 0.72065 0.82408 0.0
H1895 H 0.91651 0.65651 0.78285 0.0
C1896 C 0.89957 0.66472 0.75672 0.0
C1897 C 0.89562 0.68016 0.74866 0.0
C1898 C 0.94429 0.70996 0.82761 0.0
C1899 C 0.92378 0.68809 0.78916 0.0
C1900 C 0.95691 0.71319 0.84928 0.0
C1901 C 0.96372 0.69937 0.85461 0.0
C1902 C 0.93821 0.69261 0.81135 0.0
C1903 C 0.95789 0.68261 0.83741 0.0
C1904 C 0.91373 0.66865 0.77681 0.0
C1905 C 0.9062 0.69944 0.76127 0.0
N1906 N 0.9453 0.67958 0.81666 0.0
N1907 N 0.91968 0.70281 0.78097 0.0
H1908 H 0.87202 0.65131 0.05406 0.0
H1909 H 0.98027 0.72585 0.99239 0.0
H1910 H 0.90884 0.71508 0.07672 0.0
H1911 H 0.94008 0.66359 0.96599 0.0
H1912 H 0.95608 0.72152 0.02641 0.0
H1913 H 0.8983 0.65498 0.02433 0.0
C1914 C 0.88556 0.66613 0.05278 0.0
C1915 C 0.88801 0.68293 0.06791 0.0
C1916 C 0.95266 0.70877 0.01328 0.0
C1917 C 0.91851 0.68721 0.03387 0.0
C1918 C 0.96651 0.7112 0.99395 0.0
C1919 C 0.96217 0.69509 0.97622 0.0
C1920 C 0.93437 0.69008 0.01492 0.0
C1921 C 0.94405 0.67648 0.97911 0.0
C1922 C 0.90068 0.66819 0.03585 0.0
C1923 C 0.90623 0.70164 0.06566 0.0
N1924 N 0.93083 0.67453 0.99794 0.0
N1925 N 0.92071 0.70329 0.04891 0.0
H1926 H 0.40059 0.25631 0.12389 0.0
H1927 H 0.36059 0.31872 0.03826 0.0
H1928 H 0.35976 0.27668 0.15004 0.0
H1929 H 0.4061 0.30567 0.00949 0.0
H1930 H 0.36145 0.30373 0.07968 0.0
H1931 H 0.40477 0.27496 0.08282 0.0
C1932 C 0.39287 0.265 0.12129 0.0
C1933 C 0.37974 0.26482 0.14051 0.0
C1934 C 0.37136 0.30414 0.06446 0.0
C1935 C 0.38414 0.28587 0.09351 0.0
C1936 C 0.37085 0.31273 0.04063 0.0
C1937 C 0.38325 0.31351 0.02013 0.0
C1938 C 0.38429 0.29594 0.0682 0.0
C1939 C 0.39625 0.30546 0.02468 0.0
C1940 C 0.3951 0.2755 0.09775 0.0
C1941 C 0.3699 0.27615 0.13581 0.0
N1942 N 0.39636 0.29691 0.04811 0.0
N1943 N 0.3722 0.28598 0.11299 0.0
H1944 H 0.78594 0.18942 0.12549 0.0
H1945 H 0.75261 0.18915 0.9765 0.0
H1946 H 0.80857 0.24464 0.08118 0.0
H1947 H 0.74247 0.13526 0.01748 0.0
H1948 H 0.76917 0.20994 0.01608 0.0
H1949 H 0.76589 0.16963 0.08753 0.0
C1950 C 0.78676 0.19743 0.10777 0.0
C1951 C 0.79929 0.21876 0.10652 0.0
C1952 C 0.7632 0.19354 0.01639 0.0
C1953 C 0.77601 0.19605 0.0628 0.0
C1954 C 0.75369 0.18168 0.99387 0.0
C1955 C 0.74624 0.16046 0.99367 0.0
C1956 C 0.76505 0.18406 0.03888 0.0
C1957 C 0.74808 0.15157 0.01668 0.0
C1958 C 0.7752 0.18609 0.08608 0.0
C1959 C 0.79916 0.22826 0.08313 0.0
N1960 N 0.7573 0.16339 0.03828 0.0
N1961 N 0.78781 0.21683 0.06213 0.0
loop_
_geom_bond_atom_site_label_1
_geom_bond_atom_site_label_2
_geom_bond_distance
_geom_bond_site_symmetry_2
_ccdc_geom_bond_type
Cu0 N1 1.999 . S
Cu0 O6 1.974 1_554 S
Cu0 N11 1.985 1_554 S
Cu0 O20 1.959 . S
N1 Cu0 1.999 . S
N1 C3 1.263 . S
N1 C5 1.389 . S
N2 C3 1.358 . S
N2 C4 1.400 . S
C3 N1 1.263 . S
C3 N2 1.358 . S
C3 H9 0.930 . S
C4 N2 1.400 . S
C4 C5 1.351 . S
C4 H21 0.930 . S
C5 N1 1.389 . S
C5 C4 1.351 . S
C5 H10 0.930 . S
O6 Cu0 1.974 1_556 S
O6 C16 1.282 . S
C7 O8 1.261 . S
C7 O20 1.251 . S
O8 C7 1.261 . S
H9 C3 0.930 . S
H10 C5 0.930 . S
N11 Cu0 1.985 1_556 S
N11 C13 1.335 . S
N11 C14 1.390 . S
N12 C13 1.345 . S
N12 C15 1.336 . S
C13 N11 1.335 . S
C13 N12 1.345 . S
C13 H18 0.930 . S
C14 N11 1.390 . S
C14 C15 1.346 . S
C14 H19 0.930 . S
C15 N12 1.336 . S
C15 C14 1.346 . S
C15 H22 0.929 . S
C16 O6 1.282 . S
C16 O17 1.216 . S
O17 C16 1.216 . S
H18 C13 0.930 . S
H19 C14 0.930 . S
O20 Cu0 1.959 . S
O20 C7 1.251 . S
H21 C4 0.930 . S
H22 C15 0.929 . S
Cu23 N24 1.999 1_554 S
Cu23 O29 1.974 . S
Cu23 N34 1.985 . S
Cu23 O43 1.959 1_554 S
N24 Cu23 1.999 1_556 S
N24 C26 1.263 . S
N24 C28 1.389 . S
N25 C26 1.358 . S
N25 C27 1.400 . S
C26 N24 1.263 . S
C26 N25 1.358 . S
C26 H32 0.930 . S
C27 N25 1.400 . S
C27 C28 1.351 . S
C27 H44 0.930 . S
C28 N24 1.389 . S
C28 C27 1.351 . S
C28 H33 0.930 . S
O29 Cu23 1.974 . S
O29 C39 1.282 . S
C30 O31 1.264 . S
C30 O43 1.251 . S
O31 C30 1.264 . S
H32 C26 0.930 . S
H33 C28 0.930 . S
N34 Cu23 1.985 . S
N34 C36 1.335 . S
N34 C37 1.390 . S
N35 C36 1.345 . S
N35 C38 1.336 . S
C36 N34 1.335 . S
C36 N35 1.345 . S
C36 H41 0.930 . S
C37 N34 1.390 . S
C37 C38 1.346 . S
C37 H42 0.930 . S
C38 N35 1.336 . S
C38 C37 1.346 . S
C38 H45 0.929 . S
C39 O29 1.282 . S
C39 O40 1.216 . S
O40 C39 1.216 . S
H41 C36 0.930 . S
H42 C37 0.930 . S
O43 Cu23 1.959 1_556 S
O43 C30 1.251 . S
H44 C27 0.930 . S
H45 C38 0.929 . S
Cu46 N47 1.999 1_554 S
Cu46 O52 1.973 1_545 S
Cu46 N57 1.985 . S
Cu46 O66 1.959 . S
N47 Cu46 1.999 1_556 S
N47 C49 1.263 . S
N47 C51 1.389 1_545 S
N48 C49 1.358 . S
N48 C50 1.400 1_545 S
C49 N47 1.263 . S
C49 N48 1.358 . S
C49 H55 0.930 . S
C50 N48 1.400 1_565 S
C50 C51 1.351 . S
C50 H67 0.930 . S
C51 N47 1.389 1_565 S
C51 C50 1.351 . S
C51 H56 0.930 . S
O52 Cu46 1.973 1_565 S
O52 C62 1.285 1_565 S
C53 O54 1.261 1_556 S
C53 O66 1.251 1_556 S
O54 C53 1.261 1_554 S
H55 C49 0.930 . S
H56 C51 0.930 . S
N57 Cu46 1.985 . S
N57 C59 1.335 . S
N57 C60 1.390 . S
N58 C59 1.345 . S
N58 C61 1.336 . S
C59 N57 1.335 . S
C59 N58 1.345 . S
C59 H64 0.930 . S
C60 N57 1.390 . S
C60 C61 1.346 . S
C60 H65 0.930 . S
C61 N58 1.336 . S
C61 C60 1.346 . S
C61 H68 0.929 . S
C62 O52 1.285 1_545 S
C62 O63 1.216 . S
O63 C62 1.216 . S
H64 C59 0.930 . S
H65 C60 0.930 . S
O66 Cu46 1.959 . S
O66 C53 1.251 1_554 S
H67 C50 0.930 . S
H68 C61 0.929 . S
Cu69 N70 1.999 . S
Cu69 O75 1.974 . S
Cu69 N80 1.985 . S
Cu69 O89 1.959 . S
N70 Cu69 1.999 . S
N70 C72 1.263 . S
N70 C74 1.389 . S
N71 C72 1.358 . S
N71 C73 1.400 . S
C72 N70 1.263 . S
C72 N71 1.358 . S
C72 H78 0.930 . S
C73 N71 1.400 . S
C73 C74 1.351 . S
C73 H90 0.930 . S
C74 N70 1.389 . S
C74 C73 1.351 . S
C74 H79 0.930 . S
O75 Cu69 1.974 . S
O75 C85 1.287 . S
C76 O77 1.261 . S
C76 O89 1.251 . S
O77 C76 1.261 . S
H78 C72 0.930 . S
H79 C74 0.930 . S
N80 Cu69 1.985 . S
N80 C82 1.335 . S
N80 C83 1.390 . S
N81 C82 1.345 . S
N81 C84 1.336 . S
C82 N80 1.335 . S
C82 N81 1.345 . S
C82 H87 0.930 . S
C83 N80 1.390 . S
C83 C84 1.346 . S
C83 H88 0.930 1_545 S
C84 N81 1.336 . S
C84 C83 1.346 . S
C84 H91 0.929 1_545 S
C85 O75 1.287 . S
C85 O86 1.213 1_545 S
O86 C85 1.213 1_565 S
H87 C82 0.930 . S
H88 C83 0.930 1_565 S
O89 Cu69 1.959 . S
O89 C76 1.251 . S
H90 C73 0.930 . S
H91 C84 0.929 1_565 S
Cu92 N93 1.999 . S
Cu92 O98 1.974 . S
Cu92 N103 1.985 . S
Cu92 O112 1.959 . S
N93 Cu92 1.999 . S
N93 C95 1.263 . S
N93 C97 1.389 . S
N94 C95 1.358 . S
N94 C96 1.400 . S
C95 N93 1.263 . S
C95 N94 1.358 . S
C95 H101 0.930 . S
C96 N94 1.400 . S
C96 C97 1.351 . S
C96 H113 0.930 . S
C97 N93 1.389 . S
C97 C96 1.351 . S
C97 H102 0.930 . S
O98 Cu92 1.974 . S
O98 C108 1.282 . S
C99 O100 1.261 . S
C99 O112 1.251 . S
O100 C99 1.261 . S
H101 C95 0.930 . S
H102 C97 0.930 . S
N103 Cu92 1.985 . S
N103 C105 1.335 . S
N103 C106 1.390 . S
N104 C105 1.345 . S
N104 C107 1.336 . S
C105 N103 1.335 . S
C105 N104 1.345 . S
C105 H110 0.930 . S
C106 N103 1.390 . S
C106 C107 1.346 . S
C106 H111 0.930 . S
C107 N104 1.336 . S
C107 C106 1.346 . S
C107 H114 0.929 . S
C108 O98 1.282 . S
C108 O109 1.216 . S
O109 C108 1.216 . S
H110 C105 0.930 . S
H111 C106 0.930 . S
O112 Cu92 1.959 . S
O112 C99 1.251 . S
H113 C96 0.930 . S
H114 C107 0.929 . S
Cu115 N116 1.999 . S
Cu115 O121 1.974 . S
Cu115 N126 1.985 . S
Cu115 O135 1.959 . S
N116 Cu115 1.999 . S
N116 C118 1.263 . S
N116 C120 1.389 . S
N117 C118 1.358 . S
N117 C119 1.400 . S
C118 N116 1.263 . S
C118 N117 1.358 . S
C118 H124 0.930 . S
C119 N117 1.400 . S
C119 C120 1.351 . S
C119 H136 0.930 . S
C120 N116 1.389 . S
C120 C119 1.351 . S
C120 H125 0.930 . S
O121 Cu115 1.974 . S
O121 C131 1.282 . S
C122 O123 1.261 . S
C122 O135 1.251 . S
O123 C122 1.261 . S
H124 C118 0.930 . S
H125 C120 0.930 . S
N126 Cu115 1.985 . S
N126 C128 1.335 . S
N126 C129 1.390 . S
N127 C128 1.345 . S
N127 C130 1.336 . S
C128 N126 1.335 . S
C128 N127 1.345 . S
C128 H133 0.930 . S
C129 N126 1.390 . S
C129 C130 1.346 . S
C129 H134 0.930 . S
C130 N127 1.336 . S
C130 C129 1.346 . S
C130 H137 0.929 . S
C131 O121 1.282 . S
C131 O132 1.216 . S
O132 C131 1.216 . S
H133 C128 0.930 . S
H134 C129 0.930 . S
O135 Cu115 1.959 . S
O135 C122 1.251 . S
H136 C119 0.930 . S
H137 C130 0.929 . S
Cu138 N139 1.999 . S
Cu138 O144 1.974 . S
Cu138 N149 1.985 . S
Cu138 O158 1.959 . S
N139 Cu138 1.999 . S
N139 C141 1.263 . S
N139 C143 1.389 . S
N140 C141 1.358 . S
N140 C142 1.400 . S
C141 N139 1.263 . S
C141 N140 1.358 . S
C141 H147 0.930 . S
C142 N140 1.400 . S
C142 C143 1.351 . S
C142 H159 0.930 . S
C143 N139 1.389 . S
C143 C142 1.351 . S
C143 H148 0.930 . S
O144 Cu138 1.974 . S
O144 C154 1.282 . S
C145 O146 1.261 . S
C145 O158 1.251 . S
O146 C145 1.261 . S
H147 C141 0.930 . S
H148 C143 0.930 . S
N149 Cu138 1.985 . S
N149 C151 1.335 . S
N149 C152 1.390 . S
N150 C151 1.345 . S
N150 C153 1.336 . S
C151 N149 1.335 . S
C151 N150 1.345 . S
C151 H156 0.930 . S
C152 N149 1.390 . S
C152 C153 1.346 . S
C152 H157 0.930 . S
C153 N150 1.336 . S
C153 C152 1.346 . S
C153 H160 0.929 . S
C154 O144 1.282 . S
C154 O155 1.216 . S
O155 C154 1.216 . S
H156 C151 0.930 . S
H157 C152 0.930 . S
O158 Cu138 1.959 . S
O158 C145 1.251 . S
H159 C142 0.930 . S
H160 C153 0.929 . S
Cu161 N162 1.999 . S
Cu161 O167 1.974 . S
Cu161 N172 1.985 . S
Cu161 O181 1.959 . S
N162 Cu161 1.999 . S
N162 C164 1.263 . S
N162 C166 1.389 . S
N163 C164 1.358 . S
N163 C165 1.400 . S
C164 N162 1.263 . S
C164 N163 1.358 . S
C164 H170 0.930 . S
C165 N163 1.400 . S
C165 C166 1.351 . S
C165 H182 0.930 . S
C166 N162 1.389 . S
C166 C165 1.351 . S
C166 H171 0.930 . S
O167 Cu161 1.974 . S
O167 C177 1.282 . S
C168 O169 1.261 . S
C168 O181 1.251 . S
O169 C168 1.261 . S
H170 C164 0.930 . S
H171 C166 0.930 . S
N172 Cu161 1.985 . S
N172 C174 1.335 . S
N172 C175 1.390 . S
N173 C174 1.345 . S
N173 C176 1.336 . S
C174 N172 1.335 . S
C174 N173 1.345 . S
C174 H179 0.930 . S
C175 N172 1.390 . S
C175 C176 1.346 . S
C175 H180 0.930 . S
C176 N173 1.336 . S
C176 C175 1.346 . S
C176 H183 0.929 . S
C177 O167 1.282 . S
C177 O178 1.216 . S
O178 C177 1.216 . S
H179 C174 0.930 . S
H180 C175 0.930 . S
O181 Cu161 1.959 . S
O181 C168 1.251 . S
H182 C165 0.930 . S
H183 C176 0.929 . S
Cu184 N185 1.999 . S
Cu184 O190 1.974 . S
Cu184 N195 1.985 . S
Cu184 O204 1.959 . S
N185 Cu184 1.999 . S
N185 C187 1.263 . S
N185 C189 1.389 . S
N186 C187 1.358 . S
N186 C188 1.400 . S
C187 N185 1.263 . S
C187 N186 1.358 . S
C187 H193 0.930 . S
C188 N186 1.400 . S
C188 C189 1.351 . S
C188 H205 0.930 . S
C189 N185 1.389 . S
C189 C188 1.351 . S
C189 H194 0.930 . S
O190 Cu184 1.974 . S
O190 C200 1.282 . S
C191 O192 1.261 . S
C191 O204 1.251 . S
O192 C191 1.261 . S
H193 C187 0.930 . S
H194 C189 0.930 . S
N195 Cu184 1.985 . S
N195 C197 1.335 . S
N195 C198 1.390 . S
N196 C197 1.345 . S
N196 C199 1.336 . S
C197 N195 1.335 . S
C197 N196 1.345 . S
C197 H202 0.930 . S
C198 N195 1.390 . S
C198 C199 1.346 . S
C198 H203 0.930 . S
C199 N196 1.336 . S
C199 C198 1.346 . S
C199 H206 0.929 . S
C200 O190 1.282 . S
C200 O201 1.216 . S
O201 C200 1.216 . S
H202 C197 0.930 . S
H203 C198 0.930 . S
O204 Cu184 1.959 . S
O204 C191 1.251 . S
H205 C188 0.930 . S
H206 C199 0.929 . S
Cu207 N208 1.999 . S
Cu207 O213 1.974 . S
Cu207 N218 1.985 . S
Cu207 O227 1.959 . S
N208 Cu207 1.999 . S
N208 C210 1.263 . S
N208 C212 1.389 . S
N209 C210 1.358 . S
N209 C211 1.400 . S
C210 N208 1.263 . S
C210 N209 1.358 . S
C210 H216 0.930 . S
C211 N209 1.400 . S
C211 C212 1.351 . S
C211 H228 0.930 . S
C212 N208 1.389 . S
C212 C211 1.351 . S
C212 H217 0.930 . S
O213 Cu207 1.974 . S
O213 C223 1.282 . S
C214 O215 1.261 . S
C214 O227 1.251 . S
O215 C214 1.261 . S
H216 C210 0.930 . S
H217 C212 0.930 . S
N218 Cu207 1.985 . S
N218 C220 1.335 . S
N218 C221 1.390 . S
N219 C220 1.345 . S
N219 C222 1.336 . S
C220 N218 1.335 . S
C220 N219 1.345 . S
C220 H225 0.930 . S
C221 N218 1.390 . S
C221 C222 1.346 . S
C221 H226 0.930 . S
C222 N219 1.336 . S
C222 C221 1.346 . S
C222 H229 0.929 . S
C223 O213 1.282 . S
C223 O224 1.216 . S
O224 C223 1.216 . S
H225 C220 0.930 . S
H226 C221 0.930 . S
O227 Cu207 1.959 . S
O227 C214 1.251 . S
H228 C211 0.930 . S
H229 C222 0.929 . S
Cu230 N231 1.999 . S
Cu230 O236 1.974 . S
Cu230 N241 1.985 . S
Cu230 O250 1.959 . S
N231 Cu230 1.999 . S
N231 C233 1.263 . S
N231 C235 1.389 . S
N232 C233 1.358 . S
N232 C234 1.400 . S
C233 N231 1.263 . S
C233 N232 1.358 . S
C233 H239 0.930 . S
C234 N232 1.400 . S
C234 C235 1.351 . S
C234 H251 0.930 . S
C235 N231 1.389 . S
C235 C234 1.351 . S
C235 H240 0.930 . S
O236 Cu230 1.974 . S
O236 C246 1.282 . S
C237 O238 1.261 . S
C237 O250 1.251 . S
O238 C237 1.261 . S
H239 C233 0.930 . S
H240 C235 0.930 . S
N241 Cu230 1.985 . S
N241 C243 1.335 . S
N241 C244 1.390 . S
N242 C243 1.345 . S
N242 C245 1.336 . S
C243 N241 1.335 . S
C243 N242 1.345 . S
C243 H248 0.930 . S
C244 N241 1.390 . S
C244 C245 1.346 . S
C244 H249 0.930 . S
C245 N242 1.336 . S
C245 C244 1.346 . S
C245 H252 0.929 . S
C246 O236 1.282 . S
C246 O247 1.216 . S
O247 C246 1.216 . S
H248 C243 0.930 . S
H249 C244 0.930 . S
O250 Cu230 1.959 . S
O250 C237 1.251 . S
H251 C234 0.930 . S
H252 C245 0.929 . S
Cu253 N254 1.999 . S
Cu253 O259 1.974 . S
Cu253 N264 1.985 . S
Cu253 O273 1.959 . S
N254 Cu253 1.999 . S
N254 C256 1.263 . S
N254 C258 1.389 . S
N255 C256 1.358 . S
N255 C257 1.400 . S
C256 N254 1.263 . S
C256 N255 1.358 . S
C256 H262 0.930 . S
C257 N255 1.400 . S
C257 C258 1.351 . S
C257 H274 0.930 . S
C258 N254 1.389 . S
C258 C257 1.351 . S
C258 H263 0.930 . S
O259 Cu253 1.974 . S
O259 C269 1.282 . S
C260 O261 1.261 . S
C260 O273 1.251 . S
O261 C260 1.261 . S
H262 C256 0.930 . S
H263 C258 0.930 . S
N264 Cu253 1.985 . S
N264 C266 1.335 . S
N264 C267 1.390 . S
N265 C266 1.345 . S
N265 C268 1.336 . S
C266 N264 1.335 . S
C266 N265 1.345 . S
C266 H271 0.930 . S
C267 N264 1.390 . S
C267 C268 1.346 . S
C267 H272 0.930 . S
C268 N265 1.336 . S
C268 C267 1.346 . S
C268 H275 0.929 . S
C269 O259 1.282 . S
C269 O270 1.216 . S
O270 C269 1.216 . S
H271 C266 0.930 . S
H272 C267 0.930 . S
O273 Cu253 1.959 . S
O273 C260 1.251 . S
H274 C257 0.930 . S
H275 C268 0.929 . S
Cu276 N277 1.999 . S
Cu276 O282 1.974 . S
Cu276 N287 1.985 . S
Cu276 O296 1.959 . S
N277 Cu276 1.999 . S
N277 C279 1.263 . S
N277 C281 1.389 . S
N278 C279 1.358 . S
N278 C280 1.400 . S
C279 N277 1.263 . S
C279 N278 1.358 . S
C279 H285 0.930 . S
C280 N278 1.400 . S
C280 C281 1.351 . S
C280 H297 0.930 . S
C281 N277 1.389 . S
C281 C280 1.351 . S
C281 H286 0.930 . S
O282 Cu276 1.974 . S
O282 C292 1.282 . S
C283 O284 1.261 . S
C283 O296 1.251 . S
O284 C283 1.261 . S
H285 C279 0.930 . S
H286 C281 0.930 . S
N287 Cu276 1.985 . S
N287 C289 1.335 . S
N287 C290 1.390 . S
N288 C289 1.345 . S
N288 C291 1.336 . S
C289 N287 1.335 . S
C289 N288 1.345 . S
C289 H294 0.930 . S
C290 N287 1.390 . S
C290 C291 1.346 . S
C290 H295 0.930 . S
C291 N288 1.336 . S
C291 C290 1.346 . S
C291 H298 0.929 . S
C292 O282 1.282 . S
C292 O293 1.216 . S
O293 C292 1.216 . S
H294 C289 0.930 . S
H295 C290 0.930 . S
O296 Cu276 1.959 . S
O296 C283 1.251 . S
H297 C280 0.930 . S
H298 C291 0.929 . S
Cu299 N300 1.999 . S
Cu299 O305 1.974 . S
Cu299 N310 1.985 . S
Cu299 O319 1.959 . S
N300 Cu299 1.999 . S
N300 C302 1.263 . S
N300 C304 1.389 . S
N301 C302 1.358 . S
N301 C303 1.400 . S
C302 N300 1.263 . S
C302 N301 1.358 . S
C302 H308 0.930 . S
C303 N301 1.400 . S
C303 C304 1.351 . S
C303 H320 0.930 . S
C304 N300 1.389 . S
C304 C303 1.351 . S
C304 H309 0.930 . S
O305 Cu299 1.974 . S
O305 C315 1.282 . S
C306 O307 1.261 . S
C306 O319 1.251 . S
O307 C306 1.261 . S
H308 C302 0.930 . S
H309 C304 0.930 . S
N310 Cu299 1.985 . S
N310 C312 1.335 . S
N310 C313 1.390 . S
N311 C312 1.345 . S
N311 C314 1.336 . S
C312 N310 1.335 . S
C312 N311 1.345 . S
C312 H317 0.930 . S
C313 N310 1.390 . S
C313 C314 1.346 . S
C313 H318 0.930 . S
C314 N311 1.336 . S
C314 C313 1.346 . S
C314 H321 0.929 . S
C315 O305 1.282 . S
C315 O316 1.216 . S
O316 C315 1.216 . S
H317 C312 0.930 . S
H318 C313 0.930 . S
O319 Cu299 1.959 . S
O319 C306 1.251 . S
H320 C303 0.930 . S
H321 C314 0.929 . S
Cu322 N323 1.999 . S
Cu322 O328 1.974 . S
Cu322 N333 1.985 . S
Cu322 O342 1.959 . S
N323 Cu322 1.999 . S
N323 C325 1.263 . S
N323 C327 1.389 . S
N324 C325 1.358 . S
N324 C326 1.400 . S
C325 N323 1.263 . S
C325 N324 1.358 . S
C325 H331 0.930 . S
C326 N324 1.400 . S
C326 C327 1.351 . S
C326 H343 0.930 . S
C327 N323 1.389 . S
C327 C326 1.351 . S
C327 H332 0.930 . S
O328 Cu322 1.974 . S
O328 C338 1.282 . S
C329 O330 1.261 . S
C329 O342 1.251 . S
O330 C329 1.261 . S
H331 C325 0.930 . S
H332 C327 0.930 . S
N333 Cu322 1.985 . S
N333 C335 1.335 . S
N333 C336 1.390 . S
N334 C335 1.345 . S
N334 C337 1.336 . S
C335 N333 1.335 . S
C335 N334 1.345 . S
C335 H340 0.930 . S
C336 N333 1.390 . S
C336 C337 1.346 . S
C336 H341 0.930 . S
C337 N334 1.336 . S
C337 C336 1.346 . S
C337 H344 0.929 . S
C338 O328 1.282 . S
C338 O339 1.216 . S
O339 C338 1.216 . S
H340 C335 0.930 . S
H341 C336 0.930 . S
O342 Cu322 1.959 . S
O342 C329 1.251 . S
H343 C326 0.930 . S
H344 C337 0.929 . S
Cu345 N346 1.999 . S
Cu345 O351 1.974 . S
Cu345 N356 1.985 . S
Cu345 O365 1.959 . S
N346 Cu345 1.999 . S
N346 C348 1.263 . S
N346 C350 1.389 . S
N347 C348 1.358 . S
N347 C349 1.400 . S
C348 N346 1.263 . S
C348 N347 1.358 . S
C348 H354 0.930 . S
C349 N347 1.400 . S
C349 C350 1.351 . S
C349 H366 0.930 . S
C350 N346 1.389 . S
C350 C349 1.351 . S
C350 H355 0.930 . S
O351 Cu345 1.974 . S
O351 C361 1.282 . S
C352 O353 1.261 . S
C352 O365 1.251 . S
O353 C352 1.261 . S
H354 C348 0.930 . S
H355 C350 0.930 . S
N356 Cu345 1.985 . S
N356 C358 1.335 . S
N356 C359 1.390 . S
N357 C358 1.345 . S
N357 C360 1.336 . S
C358 N356 1.335 . S
C358 N357 1.345 . S
C358 H363 0.930 . S
C359 N356 1.390 . S
C359 C360 1.346 . S
C359 H364 0.930 . S
C360 N357 1.336 . S
C360 C359 1.346 . S
C360 H367 0.929 . S
C361 O351 1.282 . S
C361 O362 1.216 . S
O362 C361 1.216 . S
H363 C358 0.930 . S
H364 C359 0.930 . S
O365 Cu345 1.959 . S
O365 C352 1.251 . S
H366 C349 0.930 . S
H367 C360 0.929 . S
Cu368 N369 1.999 . S
Cu368 O374 1.974 . S
Cu368 N379 1.985 . S
Cu368 O388 1.959 . S
N369 Cu368 1.999 . S
N369 C371 1.263 . S
N369 C373 1.389 . S
N370 C371 1.358 . S
N370 C372 1.400 . S
C371 N369 1.263 . S
C371 N370 1.358 . S
C371 H377 0.930 . S
C372 N370 1.400 . S
C372 C373 1.351 . S
C372 H389 0.930 . S
C373 N369 1.389 . S
C373 C372 1.351 . S
C373 H378 0.930 . S
O374 Cu368 1.974 . S
O374 C384 1.282 . S
C375 O376 1.261 . S
C375 O388 1.251 . S
O376 C375 1.261 . S
H377 C371 0.930 . S
H378 C373 0.930 . S
N379 Cu368 1.985 . S
N379 C381 1.335 . S
N379 C382 1.390 . S
N380 C381 1.345 . S
N380 C383 1.336 . S
C381 N379 1.335 . S
C381 N380 1.345 . S
C381 H386 0.930 . S
C382 N379 1.390 . S
C382 C383 1.346 . S
C382 H387 0.930 . S
C383 N380 1.336 . S
C383 C382 1.346 . S
C383 H390 0.929 . S
C384 O374 1.282 . S
C384 O385 1.216 . S
O385 C384 1.216 . S
H386 C381 0.930 . S
H387 C382 0.930 . S
O388 Cu368 1.959 . S
O388 C375 1.251 . S
H389 C372 0.930 . S
H390 C383 0.929 . S
Cu391 N392 1.999 . S
Cu391 O397 1.974 . S
Cu391 N402 1.985 . S
Cu391 O411 1.959 . S
N392 Cu391 1.999 . S
N392 C394 1.263 . S
N392 C396 1.389 . S
N393 C394 1.358 . S
N393 C395 1.400 . S
C394 N392 1.263 . S
C394 N393 1.358 . S
C394 H400 0.930 . S
C395 N393 1.400 . S
C395 C396 1.351 . S
C395 H412 0.930 . S
C396 N392 1.389 . S
C396 C395 1.351 . S
C396 H401 0.930 . S
O397 Cu391 1.974 . S
O397 C407 1.282 . S
C398 O399 1.261 . S
C398 O411 1.251 . S
O399 C398 1.261 . S
H400 C394 0.930 . S
H401 C396 0.930 . S
N402 Cu391 1.985 . S
N402 C404 1.335 . S
N402 C405 1.390 . S
N403 C404 1.345 . S
N403 C406 1.336 . S
C404 N402 1.335 . S
C404 N403 1.345 . S
C404 H409 0.930 . S
C405 N402 1.390 . S
C405 C406 1.346 . S
C405 H410 0.930 . S
C406 N403 1.336 . S
C406 C405 1.346 . S
C406 H413 0.929 . S
C407 O397 1.282 . S
C407 O408 1.216 . S
O408 C407 1.216 . S
H409 C404 0.930 . S
H410 C405 0.930 . S
O411 Cu391 1.959 . S
O411 C398 1.251 . S
H412 C395 0.930 . S
H413 C406 0.929 . S
Co414 O415 2.216 . S
Co414 O416 2.091 . S
Co414 O418 2.004 1_455 S
Co414 O424 2.021 . S
Co414 O426 2.137 . S
Co414 O427 2.244 . S
O415 Co414 2.216 . S
O415 C422 1.247 . S
O416 Co414 2.091 . S
O416 C422 1.261 . S
C417 O426 1.247 . S
C417 O427 1.272 . S
O418 Co414 2.004 1_655 S
O418 C423 1.259 . S
Co419 O420 2.061 1_455 S
Co419 O425 2.052 . S
Co419 O427 2.135 . S
O420 Co419 2.061 1_655 S
O420 C423 1.235 . S
C421 O424 1.238 . S
C421 O425 1.241 . S
C422 O415 1.247 . S
C422 O416 1.261 . S
C423 O418 1.259 . S
C423 O420 1.235 . S
O424 Co414 2.021 . S
O424 C421 1.238 . S
O425 Co419 2.052 . S
O425 C421 1.241 . S
O426 Co414 2.137 . S
O426 C417 1.247 . S
O427 Co414 2.244 . S
O427 C417 1.272 . S
O427 Co419 2.135 . S
Co428 O429 2.216 . S
Co428 O430 2.091 . S
Co428 O432 2.004 . S
Co428 O438 2.021 . S
Co428 O440 2.137 . S
Co428 O441 2.244 . S
O429 Co428 2.216 . S
O429 C436 1.247 . S
O430 Co428 2.091 . S
O430 C436 1.261 . S
C431 O440 1.247 . S
C431 O441 1.272 . S
O432 Co428 2.004 . S
O432 C437 1.259 . S
Co433 O434 2.061 . S
Co433 O439 2.052 . S
Co433 O441 2.135 . S
O434 Co433 2.061 . S
O434 C437 1.235 . S
C435 O438 1.238 . S
C435 O439 1.241 . S
C436 O429 1.247 . S
C436 O430 1.261 . S
C437 O432 1.259 . S
C437 O434 1.235 . S
O438 Co428 2.021 . S
O438 C435 1.238 . S
O439 Co433 2.052 . S
O439 C435 1.241 . S
O440 Co428 2.137 . S
O440 C431 1.247 . S
O441 Co428 2.244 . S
O441 C431 1.272 . S
O441 Co433 2.135 . S
Co442 O443 2.216 . S
Co442 O444 2.091 . S
Co442 O446 2.004 . S
Co442 O452 2.021 . S
Co442 O454 2.137 . S
Co442 O455 2.244 . S
O443 Co442 2.216 . S
O443 C450 1.247 . S
O444 Co442 2.091 . S
O444 C450 1.261 . S
C445 O454 1.247 . S
C445 O455 1.272 . S
O446 Co442 2.004 . S
O446 C451 1.259 . S
Co447 O448 2.061 . S
Co447 O453 2.052 . S
Co447 O455 2.135 . S
O448 Co447 2.061 . S
O448 C451 1.235 . S
C449 O452 1.238 . S
C449 O453 1.241 . S
C450 O443 1.247 . S
C450 O444 1.261 . S
C451 O446 1.259 . S
C451 O448 1.235 . S
O452 Co442 2.021 . S
O452 C449 1.238 . S
O453 Co447 2.052 . S
O453 C449 1.241 . S
O454 Co442 2.137 . S
O454 C445 1.247 . S
O455 Co442 2.244 . S
O455 C445 1.272 . S
O455 Co447 2.135 . S
Co456 O457 2.216 . S
Co456 O458 2.091 . S
Co456 O460 2.004 . S
Co456 O466 2.021 . S
Co456 O468 2.137 . S
Co456 O469 2.244 1_455 S
O457 Co456 2.216 . S
O457 C464 1.247 . S
O458 Co456 2.091 . S
O458 C464 1.261 . S
C459 O468 1.247 1_655 S
C459 O469 1.272 . S
O460 Co456 2.004 . S
O460 C465 1.259 . S
Co461 O462 2.061 . S
Co461 O467 2.052 . S
Co461 O469 2.135 1_455 S
O462 Co461 2.061 . S
O462 C465 1.235 . S
C463 O466 1.238 . S
C463 O467 1.241 . S
C464 O457 1.247 . S
C464 O458 1.261 . S
C465 O460 1.259 . S
C465 O462 1.235 . S
O466 Co456 2.021 . S
O466 C463 1.238 . S
O467 Co461 2.052 . S
O467 C463 1.241 . S
O468 Co456 2.137 . S
O468 C459 1.247 1_455 S
O469 Co456 2.244 1_655 S
O469 C459 1.272 . S
O469 Co461 2.135 1_655 S
Co470 O471 2.216 . S
Co470 O472 2.091 . S
Co470 O474 2.004 . S
Co470 O480 2.021 . S
Co470 O482 2.137 . S
Co470 O483 2.244 . S
O471 Co470 2.216 . S
O471 C478 1.247 . S
O472 Co470 2.091 . S
O472 C478 1.261 . S
C473 O482 1.247 . S
C473 O483 1.272 . S
O474 Co470 2.004 . S
O474 C479 1.259 . S
Co475 O476 2.061 . S
Co475 O481 2.052 . S
Co475 O483 2.135 . S
O476 Co475 2.061 . S
O476 C479 1.235 . S
C477 O480 1.238 . S
C477 O481 1.241 . S
C478 O471 1.247 . S
C478 O472 1.261 . S
C479 O474 1.259 . S
C479 O476 1.235 . S
O480 Co470 2.021 . S
O480 C477 1.238 . S
O481 Co475 2.052 . S
O481 C477 1.241 . S
O482 Co470 2.137 . S
O482 C473 1.247 . S
O483 Co470 2.244 . S
O483 C473 1.272 . S
O483 Co475 2.135 . S
Co484 O485 2.216 . S
Co484 O486 2.091 . S
Co484 O488 2.004 . S
Co484 O494 2.021 . S
Co484 O496 2.137 . S
Co484 O497 2.244 . S
O485 Co484 2.216 . S
O485 C492 1.247 . S
O486 Co484 2.091 . S
O486 C492 1.261 . S
C487 O496 1.247 . S
C487 O497 1.272 . S
O488 Co484 2.004 . S
O488 C493 1.259 . S
Co489 O490 2.061 . S
Co489 O495 2.052 . S
Co489 O497 2.135 . S
O490 Co489 2.061 . S
O490 C493 1.235 . S
C491 O494 1.238 . S
C491 O495 1.241 . S
C492 O485 1.247 . S
C492 O486 1.261 . S
C493 O488 1.259 . S
C493 O490 1.235 . S
O494 Co484 2.021 . S
O494 C491 1.238 . S
O495 Co489 2.052 . S
O495 C491 1.241 . S
O496 Co484 2.137 . S
O496 C487 1.247 . S
O497 Co484 2.244 . S
O497 C487 1.272 . S
O497 Co489 2.135 . S
Co498 O499 2.216 . S
Co498 O500 2.091 . S
Co498 O502 2.004 . S
Co498 O508 2.021 1_565 S
Co498 O510 2.137 . S
Co498 O511 2.244 . S
O499 Co498 2.216 . S
O499 C506 1.247 . S
O500 Co498 2.091 . S
O500 C506 1.261 . S
C501 O510 1.247 . S
C501 O511 1.329 . S
O502 Co498 2.004 . S
O502 C507 1.259 1_565 S
Co503 O504 2.061 . S
Co503 O509 2.052 . S
Co503 O511 2.073 1_545 S
O504 Co503 2.061 . S
O504 C507 1.235 . S
C505 O508 1.238 . S
C505 O509 1.241 . S
C506 O499 1.247 . S
C506 O500 1.261 . S
C507 O502 1.259 1_545 S
C507 O504 1.235 . S
O508 Co498 2.021 1_545 S
O508 C505 1.238 . S
O509 Co503 2.052 . S
O509 C505 1.241 . S
O510 Co498 2.137 . S
O510 C501 1.247 . S
O511 Co498 2.244 . S
O511 C501 1.329 . S
O511 Co503 2.073 1_565 S
Co512 O513 2.216 . S
Co512 O514 2.091 . S
Co512 O516 2.004 . S
Co512 O522 2.021 . S
Co512 O524 2.137 . S
Co512 O525 2.244 . S
O513 Co512 2.216 . S
O513 C520 1.247 . S
O514 Co512 2.091 . S
O514 C520 1.261 . S
C515 O524 1.247 . S
C515 O525 1.272 . S
O516 Co512 2.004 . S
O516 C521 1.259 . S
Co517 O518 2.061 . S
Co517 O523 2.052 . S
Co517 O525 2.135 . S
O518 Co517 2.061 . S
O518 C521 1.235 . S
C519 O522 1.238 . S
C519 O523 1.241 . S
C520 O513 1.247 . S
C520 O514 1.261 . S
C521 O516 1.259 . S
C521 O518 1.235 . S
O522 Co512 2.021 . S
O522 C519 1.238 . S
O523 Co517 2.052 . S
O523 C519 1.241 . S
O524 Co512 2.137 . S
O524 C515 1.247 . S
O525 Co512 2.244 . S
O525 C515 1.272 . S
O525 Co517 2.135 . S
Co526 O527 2.216 . S
Co526 O528 2.091 . S
Co526 O530 2.004 . S
Co526 O536 2.021 . S
Co526 O538 2.137 . S
Co526 O539 2.244 . S
O527 Co526 2.216 . S
O527 C534 1.247 . S
O528 Co526 2.091 . S
O528 C534 1.261 . S
C529 O538 1.247 . S
C529 O539 1.272 . S
O530 Co526 2.004 . S
O530 C535 1.259 . S
Co531 O532 2.061 . S
Co531 O537 2.052 . S
Co531 O539 2.135 . S
O532 Co531 2.061 . S
O532 C535 1.235 . S
C533 O536 1.238 . S
C533 O537 1.241 . S
C534 O527 1.247 . S
C534 O528 1.261 . S
C535 O530 1.259 . S
C535 O532 1.235 . S
O536 Co526 2.021 . S
O536 C533 1.238 . S
O537 Co531 2.052 . S
O537 C533 1.241 . S
O538 Co526 2.137 . S
O538 C529 1.247 . S
O539 Co526 2.244 . S
O539 C529 1.272 . S
O539 Co531 2.135 . S
Co540 O541 2.216 . S
Co540 O542 2.091 . S
Co540 O544 2.004 . S
Co540 O550 2.021 . S
Co540 O552 2.137 . S
Co540 O553 2.244 . S
O541 Co540 2.216 . S
O541 C548 1.247 . S
O542 Co540 2.091 . S
O542 C548 1.261 . S
C543 O552 1.247 . S
C543 O553 1.272 . S
O544 Co540 2.004 . S
O544 C549 1.259 . S
Co545 O546 2.061 . S
Co545 O551 2.052 . S
Co545 O553 2.135 . S
O546 Co545 2.061 . S
O546 C549 1.235 . S
C547 O550 1.238 . S
C547 O551 1.241 . S
C548 O541 1.247 . S
C548 O542 1.261 . S
C549 O544 1.259 . S
C549 O546 1.235 . S
O550 Co540 2.021 . S
O550 C547 1.238 . S
O551 Co545 2.052 . S
O551 C547 1.241 . S
O552 Co540 2.137 . S
O552 C543 1.247 . S
O553 Co540 2.244 . S
O553 C543 1.272 . S
O553 Co545 2.135 . S
Co554 O555 2.216 . S
Co554 O556 2.091 . S
Co554 O558 2.004 . S
Co554 O564 2.021 . S
Co554 O566 2.137 1_565 S
Co554 O567 2.244 1_565 S
O555 Co554 2.216 . S
O555 C562 1.247 . S
O556 Co554 2.091 . S
O556 C562 1.261 . S
C557 O566 1.247 . S
C557 O567 1.272 . S
O558 Co554 2.004 . S
O558 C563 1.259 1_565 S
Co559 O560 2.061 . S
Co559 O565 2.052 1_545 S
Co559 O567 2.135 . S
O560 Co559 2.061 . S
O560 C563 1.235 . S
C561 O564 1.238 . S
C561 O565 1.241 . S
C562 O555 1.247 . S
C562 O556 1.261 . S
C563 O558 1.259 1_545 S
C563 O560 1.235 . S
O564 Co554 2.021 . S
O564 C561 1.238 . S
O565 Co559 2.052 1_565 S
O565 C561 1.241 . S
O566 Co554 2.137 1_545 S
O566 C557 1.247 . S
O567 Co554 2.244 1_545 S
O567 C557 1.272 . S
O567 Co559 2.135 . S
Co568 O569 2.216 . S
Co568 O570 2.091 . S
Co568 O572 2.004 . S
Co568 O578 2.021 . S
Co568 O580 2.137 . S
Co568 O581 2.244 . S
O569 Co568 2.216 . S
O569 C576 1.247 . S
O570 Co568 2.091 . S
O570 C576 1.261 . S
C571 O580 1.247 . S
C571 O581 1.272 . S
O572 Co568 2.004 . S
O572 C577 1.259 . S
Co573 O574 2.061 . S
Co573 O579 2.052 . S
Co573 O581 2.135 . S
O574 Co573 2.061 . S
O574 C577 1.235 . S
C575 O578 1.238 . S
C575 O579 1.241 . S
C576 O569 1.247 . S
C576 O570 1.261 . S
C577 O572 1.259 . S
C577 O574 1.235 . S
O578 Co568 2.021 . S
O578 C575 1.238 . S
O579 Co573 2.052 . S
O579 C575 1.241 . S
O580 Co568 2.137 . S
O580 C571 1.247 . S
O581 Co568 2.244 . S
O581 C571 1.272 . S
O581 Co573 2.135 . S
Co582 O583 2.216 . S
Co582 O584 2.091 . S
Co582 O586 2.004 . S
Co582 O592 2.021 . S
Co582 O594 2.137 . S
Co582 O595 2.244 . S
O583 Co582 2.216 . S
O583 C590 1.247 . S
O584 Co582 2.091 . S
O584 C590 1.261 . S
C585 O594 1.247 . S
C585 O595 1.272 . S
O586 Co582 2.004 . S
O586 C591 1.259 . S
Co587 O588 2.061 . S
Co587 O593 2.052 . S
Co587 O595 2.135 . S
O588 Co587 2.061 . S
O588 C591 1.235 . S
C589 O592 1.238 . S
C589 O593 1.241 . S
C590 O583 1.247 . S
C590 O584 1.261 . S
C591 O586 1.259 . S
C591 O588 1.235 . S
O592 Co582 2.021 . S
O592 C589 1.238 . S
O593 Co587 2.052 . S
O593 C589 1.241 . S
O594 Co582 2.137 . S
O594 C585 1.247 . S
O595 Co582 2.244 . S
O595 C585 1.272 . S
O595 Co587 2.135 . S
Co596 O597 2.216 . S
Co596 O598 2.091 . S
Co596 O600 2.004 . S
Co596 O606 2.021 . S
Co596 O608 2.137 . S
Co596 O609 2.244 . S
O597 Co596 2.216 . S
O597 C604 1.247 . S
O598 Co596 2.091 . S
O598 C604 1.261 . S
C599 O608 1.247 . S
C599 O609 1.272 . S
O600 Co596 2.004 . S
O600 C605 1.259 . S
Co601 O602 2.061 . S
Co601 O607 2.052 . S
Co601 O609 2.135 . S
O602 Co601 2.061 . S
O602 C605 1.235 . S
C603 O606 1.238 . S
C603 O607 1.241 . S
C604 O597 1.247 . S
C604 O598 1.261 . S
C605 O600 1.259 . S
C605 O602 1.235 . S
O606 Co596 2.021 . S
O606 C603 1.238 . S
O607 Co601 2.052 . S
O607 C603 1.241 . S
O608 Co596 2.137 . S
O608 C599 1.247 . S
O609 Co596 2.244 . S
O609 C599 1.272 . S
O609 Co601 2.135 . S
Co610 O611 2.216 . S
Co610 O612 2.091 . S
Co610 O614 2.004 . S
Co610 O620 2.021 . S
Co610 O622 2.137 . S
Co610 O623 2.244 . S
O611 Co610 2.216 . S
O611 C618 1.247 . S
O612 Co610 2.091 . S
O612 C618 1.261 . S
C613 O622 1.247 . S
C613 O623 1.272 . S
O614 Co610 2.004 . S
O614 C619 1.259 1_655 S
Co615 O616 2.061 1_655 S
Co615 O621 2.052 . S
Co615 O623 2.135 . S
O616 Co615 2.061 1_455 S
O616 C619 1.235 . S
C617 O620 1.238 . S
C617 O621 1.241 . S
C618 O611 1.247 . S
C618 O612 1.261 . S
C619 O614 1.259 1_455 S
C619 O616 1.235 . S
O620 Co610 2.021 . S
O620 C617 1.238 . S
O621 Co615 2.052 . S
O621 C617 1.241 . S
O622 Co610 2.137 . S
O622 C613 1.247 . S
O623 Co610 2.244 . S
O623 C613 1.272 . S
O623 Co615 2.135 . S
Co624 O625 2.216 . S
Co624 O626 2.091 . S
Co624 O628 2.004 . S
Co624 O634 2.021 . S
Co624 O636 2.137 . S
Co624 O637 2.244 . S
O625 Co624 2.216 . S
O625 C632 1.247 . S
O626 Co624 2.091 . S
O626 C632 1.261 . S
C627 O636 1.247 . S
C627 O637 1.272 . S
O628 Co624 2.004 . S
O628 C633 1.259 . S
Co629 O630 2.061 . S
Co629 O635 2.052 . S
Co629 O637 2.135 . S
O630 Co629 2.061 . S
O630 C633 1.235 . S
C631 O634 1.238 . S
C631 O635 1.241 . S
C632 O625 1.247 . S
C632 O626 1.261 . S
C633 O628 1.259 . S
C633 O630 1.235 . S
O634 Co624 2.021 . S
O634 C631 1.238 . S
O635 Co629 2.052 . S
O635 C631 1.241 . S
O636 Co624 2.137 . S
O636 C627 1.247 . S
O637 Co624 2.244 . S
O637 C627 1.272 . S
O637 Co629 2.135 . S
Co638 O639 2.216 . S
Co638 O640 2.091 . S
Co638 O642 2.004 1_655 S
Co638 O648 2.021 . S
Co638 O650 2.137 . S
Co638 O651 2.244 . S
O639 Co638 2.216 . S
O639 C646 1.247 . S
O640 Co638 2.091 . S
O640 C646 1.261 . S
C641 O650 1.247 . S
C641 O651 1.272 . S
O642 Co638 2.004 1_455 S
O642 C647 1.259 . S
Co643 O644 2.061 1_655 S
Co643 O649 2.052 . S
Co643 O651 2.135 . S
O644 Co643 2.061 1_455 S
O644 C647 1.235 . S
C645 O648 1.238 . S
C645 O649 1.241 . S
C646 O639 1.247 . S
C646 O640 1.261 . S
C647 O642 1.259 . S
C647 O644 1.235 . S
O648 Co638 2.021 . S
O648 C645 1.238 . S
O649 Co643 2.052 . S
O649 C645 1.241 . S
O650 Co638 2.137 . S
O650 C641 1.247 . S
O651 Co638 2.244 . S
O651 C641 1.272 . S
O651 Co643 2.135 . S
Co652 O653 2.216 . S
Co652 O654 2.091 . S
Co652 O656 2.004 . S
Co652 O662 2.021 . S
Co652 O664 2.137 . S
Co652 O665 2.244 . S
O653 Co652 2.216 . S
O653 C660 1.247 . S
O654 Co652 2.091 . S
O654 C660 1.261 . S
C655 O664 1.247 . S
C655 O665 1.272 . S
O656 Co652 2.004 . S
O656 C661 1.259 . S
Co657 O658 2.061 . S
Co657 O663 2.052 . S
Co657 O665 2.135 . S
O658 Co657 2.061 . S
O658 C661 1.235 . S
C659 O662 1.238 . S
C659 O663 1.241 . S
C660 O653 1.247 . S
C660 O654 1.261 . S
C661 O656 1.259 . S
C661 O658 1.235 . S
O662 Co652 2.021 . S
O662 C659 1.238 . S
O663 Co657 2.052 . S
O663 C659 1.241 . S
O664 Co652 2.137 . S
O664 C655 1.247 . S
O665 Co652 2.244 . S
O665 C655 1.272 . S
O665 Co657 2.135 . S
H666 C672 0.930 . S
H667 C676 0.930 . S
H668 C681 0.929 . S
H669 C679 0.929 . S
H670 C674 0.929 . S
H671 C680 0.929 . S
C672 H666 0.930 . S
C672 C673 1.367 . S
C672 C680 1.378 . S
C673 C672 1.367 . S
C673 C681 1.433 . S
C674 H670 0.929 . S
C674 C676 1.378 . S
C674 C678 1.350 . S
C675 C678 1.463 . S
C675 C680 1.350 . S
C675 N683 1.427 . S
C676 H667 0.930 . S
C676 C674 1.378 . S
C676 C677 1.367 . S
C677 C676 1.367 . S
C677 C679 1.433 . S
C678 C674 1.350 . S
C678 C675 1.463 . S
C678 N682 1.427 . S
C679 H669 0.929 . S
C679 C677 1.433 . S
C679 N682 1.384 . S
C680 H671 0.929 . S
C680 C672 1.378 . S
C680 C675 1.350 . S
C681 H668 0.929 . S
C681 C673 1.433 . S
C681 N683 1.384 . S
N682 C678 1.427 . S
N682 C679 1.384 . S
N683 C675 1.427 . S
N683 C681 1.384 . S
H684 C690 0.930 . S
H685 C694 0.930 . S
H686 C699 0.929 . S
H687 C697 0.929 . S
H688 C692 0.929 . S
H689 C698 0.929 . S
C690 H684 0.930 . S
C690 C691 1.367 . S
C690 C698 1.378 . S
C691 C690 1.367 . S
C691 C699 1.433 . S
C692 H688 0.929 . S
C692 C694 1.378 . S
C692 C696 1.350 . S
C693 C696 1.463 . S
C693 C698 1.350 . S
C693 N701 1.427 . S
C694 H685 0.930 . S
C694 C692 1.378 . S
C694 C695 1.367 . S
C695 C694 1.367 . S
C695 C697 1.433 . S
C696 C692 1.350 . S
C696 C693 1.463 . S
C696 N700 1.427 . S
C697 H687 0.929 . S
C697 C695 1.433 . S
C697 N700 1.384 . S
C698 H689 0.929 . S
C698 C690 1.378 . S
C698 C693 1.350 . S
C699 H686 0.929 . S
C699 C691 1.433 . S
C699 N701 1.384 . S
N700 C696 1.427 . S
N700 C697 1.384 . S
N701 C693 1.427 . S
N701 C699 1.384 . S
H702 C708 0.893 1_565 S
H703 C712 0.930 . S
H704 C717 0.929 . S
H705 C715 0.929 . S
H706 C710 0.929 . S
H707 C716 0.935 . S
C708 H702 0.893 1_545 S
C708 C709 1.382 . S
C708 C716 1.418 1_545 S
C709 C708 1.382 . S
C709 C717 1.433 . S
C710 H706 0.929 . S
C710 C712 1.378 . S
C710 C714 1.350 . S
C711 C714 1.463 . S
C711 C716 1.333 1_545 S
C711 N719 1.427 . S
C712 H703 0.930 . S
C712 C710 1.378 . S
C712 C713 1.367 . S
C713 C712 1.367 . S
C713 C715 1.433 1_545 S
C714 C710 1.350 . S
C714 C711 1.463 . S
C714 N718 1.427 1_545 S
C715 H705 0.929 . S
C715 C713 1.433 1_565 S
C715 N718 1.384 . S
C716 H707 0.935 . S
C716 C708 1.418 1_565 S
C716 C711 1.333 1_565 S
C717 H704 0.929 . S
C717 C709 1.433 . S
C717 N719 1.384 . S
N718 C714 1.427 1_565 S
N718 C715 1.384 . S
N719 C711 1.427 . S
N719 C717 1.384 . S
H720 C726 0.930 . S
H721 C730 0.930 . S
H722 C735 0.929 . S
H723 C733 0.929 . S
H724 C728 0.929 . S
H725 C734 0.929 . S
C726 H720 0.930 . S
C726 C727 1.367 . S
C726 C734 1.378 . S
C727 C726 1.367 . S
C727 C735 1.433 . S
C728 H724 0.929 . S
C728 C730 1.378 . S
C728 C732 1.350 . S
C729 C732 1.463 . S
C729 C734 1.350 . S
C729 N737 1.427 . S
C730 H721 0.930 . S
C730 C728 1.378 . S
C730 C731 1.367 . S
C731 C730 1.367 . S
C731 C733 1.433 . S
C732 C728 1.350 . S
C732 C729 1.463 . S
C732 N736 1.427 . S
C733 H723 0.929 . S
C733 C731 1.433 . S
C733 N736 1.384 . S
C734 H725 0.929 . S
C734 C726 1.378 . S
C734 C729 1.350 . S
C735 H722 0.929 . S
C735 C727 1.433 . S
C735 N737 1.384 . S
N736 C732 1.427 . S
N736 C733 1.384 . S
N737 C729 1.427 . S
N737 C735 1.384 . S
H738 C744 0.930 . S
H739 C748 0.930 . S
H740 C753 0.929 . S
H741 C751 0.929 . S
H742 C746 0.929 . S
H743 C752 0.929 . S
C744 H738 0.930 . S
C744 C745 1.367 . S
C744 C752 1.378 . S
C745 C744 1.367 . S
C745 C753 1.433 . S
C746 H742 0.929 . S
C746 C748 1.378 . S
C746 C750 1.350 . S
C747 C750 1.463 . S
C747 C752 1.350 . S
C747 N755 1.427 . S
C748 H739 0.930 . S
C748 C746 1.378 . S
C748 C749 1.379 . S
C749 C748 1.379 . S
C749 C751 1.419 1_455 S
C750 C746 1.350 . S
C750 C747 1.463 . S
C750 N754 1.427 . S
C751 H741 0.929 . S
C751 C749 1.419 1_655 S
C751 N754 1.384 1_655 S
C752 H743 0.929 . S
C752 C744 1.378 . S
C752 C747 1.350 . S
C753 H740 0.929 . S
C753 C745 1.433 . S
C753 N755 1.384 . S
N754 C750 1.427 . S
N754 C751 1.384 1_455 S
N755 C747 1.427 . S
N755 C753 1.384 . S
H756 C762 0.930 . S
H757 C766 0.930 . S
H758 C771 0.929 . S
H759 C769 0.929 . S
H760 C764 0.929 . S
H761 C770 0.929 . S
C762 H756 0.930 . S
C762 C763 1.367 . S
C762 C770 1.378 . S
C763 C762 1.367 . S
C763 C771 1.433 . S
C764 H760 0.929 . S
C764 C766 1.378 . S
C764 C768 1.350 . S
C765 C768 1.463 . S
C765 C770 1.350 . S
C765 N773 1.427 . S
C766 H757 0.930 . S
C766 C764 1.378 . S
C766 C767 1.367 . S
C767 C766 1.367 . S
C767 C769 1.433 . S
C768 C764 1.350 . S
C768 C765 1.463 . S
C768 N772 1.427 . S
C769 H759 0.929 . S
C769 C767 1.433 . S
C769 N772 1.384 . S
C770 H761 0.929 . S
C770 C762 1.378 . S
C770 C765 1.350 . S
C771 H758 0.929 . S
C771 C763 1.433 . S
C771 N773 1.384 . S
N772 C768 1.427 . S
N772 C769 1.384 . S
N773 C765 1.427 . S
N773 C771 1.384 . S
H774 C780 0.930 1_554 S
H775 C784 0.930 . S
H776 C789 0.929 . S
H777 C787 0.929 . S
H778 C782 0.929 . S
H779 C788 0.929 . S
C780 H774 0.930 1_556 S
C780 C781 1.367 . S
C780 C788 1.378 . S
C781 C780 1.367 . S
C781 C789 1.433 . S
C782 H778 0.929 . S
C782 C784 1.378 . S
C782 C786 1.350 1_655 S
C783 C786 1.463 . S
C783 C788 1.350 . S
C783 N791 1.427 . S
C784 H775 0.930 . S
C784 C782 1.378 . S
C784 C785 1.367 . S
C785 C784 1.367 . S
C785 C787 1.433 1_655 S
C786 C782 1.350 1_455 S
C786 C783 1.463 . S
C786 N790 1.427 . S
C787 H777 0.929 . S
C787 C785 1.433 1_455 S
C787 N790 1.384 . S
C788 H779 0.929 . S
C788 C780 1.378 . S
C788 C783 1.350 . S
C789 H776 0.929 . S
C789 C781 1.433 . S
C789 N791 1.384 . S
N790 C786 1.427 . S
N790 C787 1.384 . S
N791 C783 1.427 . S
N791 C789 1.384 . S
H792 C798 0.930 1_554 S
H793 C802 0.930 . S
H794 C807 0.929 . S
H795 C805 0.929 . S
H796 C800 0.929 . S
H797 C806 0.929 . S
C798 H792 0.930 1_556 S
C798 C799 1.367 . S
C798 C806 1.378 . S
C799 C798 1.367 . S
C799 C807 1.433 . S
C800 H796 0.929 . S
C800 C802 1.378 . S
C800 C804 1.350 . S
C801 C804 1.463 . S
C801 C806 1.350 . S
C801 N809 1.427 . S
C802 H793 0.930 . S
C802 C800 1.378 . S
C802 C803 1.367 . S
C803 C802 1.367 . S
C803 C805 1.433 . S
C804 C800 1.350 . S
C804 C801 1.463 . S
C804 N808 1.427 . S
C805 H795 0.929 . S
C805 C803 1.433 . S
C805 N808 1.384 . S
C806 H797 0.929 . S
C806 C798 1.378 . S
C806 C801 1.350 . S
C807 H794 0.929 . S
C807 C799 1.433 . S
C807 N809 1.384 . S
N808 C804 1.427 . S
N808 C805 1.384 . S
N809 C801 1.427 . S
N809 C807 1.384 . S
H810 C816 0.930 . S
H811 C820 0.930 . S
H812 C825 0.929 . S
H813 C823 0.929 . S
H814 C818 0.888 1_554 S
H815 C824 0.929 . S
C816 H810 0.930 . S
C816 C817 1.367 . S
C816 C824 1.378 . S
C817 C816 1.367 . S
C817 C825 1.433 1_556 S
C818 H814 0.888 1_556 S
C818 C820 1.378 . S
C818 C822 1.350 . S
C819 C822 1.463 . S
C819 C824 1.350 . S
C819 N827 1.403 1_556 S
C820 H811 0.930 . S
C820 C818 1.378 . S
C820 C821 1.367 . S
C821 C820 1.367 . S
C821 C823 1.433 . S
C822 C818 1.350 . S
C822 C819 1.463 . S
C822 N826 1.427 . S
C823 H813 0.929 . S
C823 C821 1.433 . S
C823 N826 1.384 . S
C824 H815 0.929 . S
C824 C816 1.378 . S
C824 C819 1.350 . S
C825 H812 0.929 . S
C825 C817 1.433 1_554 S
C825 N827 1.392 . S
N826 C822 1.427 . S
N826 C823 1.384 . S
N827 C819 1.403 1_554 S
N827 C825 1.392 . S
H828 C834 0.930 . S
H829 C838 0.930 . S
H830 C843 0.929 . S
H831 C841 0.929 . S
H832 C836 0.929 . S
H833 C842 0.929 . S
C834 H828 0.930 . S
C834 C835 1.369 . S
C834 C842 1.378 . S
C835 C834 1.369 . S
C835 C843 1.433 1_565 S
C836 H832 0.929 . S
C836 C838 1.378 . S
C836 C840 1.350 . S
C837 C840 1.443 . S
C837 C842 1.350 1_545 S
C837 N845 1.448 . S
C838 H829 0.930 . S
C838 C836 1.378 . S
C838 C839 1.367 . S
C839 C838 1.367 . S
C839 C841 1.433 1_545 S
C840 C836 1.350 . S
C840 C837 1.443 . S
C840 N844 1.427 1_545 S
C841 H831 0.929 . S
C841 C839 1.433 1_565 S
C841 N844 1.384 . S
C842 H833 0.929 . S
C842 C834 1.378 . S
C842 C837 1.350 1_565 S
C843 H830 0.929 . S
C843 C835 1.433 1_545 S
C843 N845 1.384 . S
N844 C840 1.427 1_565 S
N844 C841 1.384 . S
N845 C837 1.448 . S
N845 C843 1.384 . S
H846 C852 0.930 . S
H847 C856 0.930 . S
H848 C861 0.929 . S
H849 C859 0.929 . S
H850 C854 0.929 . S
H851 C860 0.929 . S
C852 H846 0.930 . S
C852 C853 1.367 . S
C852 C860 1.378 . S
C853 C852 1.367 . S
C853 C861 1.433 . S
C854 H850 0.929 . S
C854 C856 1.378 . S
C854 C858 1.350 . S
C855 C858 1.463 . S
C855 C860 1.350 . S
C855 N863 1.427 . S
C856 H847 0.930 . S
C856 C854 1.378 . S
C856 C857 1.367 . S
C857 C856 1.367 . S
C857 C859 1.433 . S
C858 C854 1.350 . S
C858 C855 1.463 . S
C858 N862 1.427 . S
C859 H849 0.929 . S
C859 C857 1.433 . S
C859 N862 1.384 . S
C860 H851 0.929 . S
C860 C852 1.378 . S
C860 C855 1.350 . S
C861 H848 0.929 . S
C861 C853 1.433 . S
C861 N863 1.384 . S
N862 C858 1.427 . S
N862 C859 1.384 . S
N863 C855 1.427 . S
N863 C861 1.384 . S
H864 C870 0.930 . S
H865 C874 0.930 . S
H866 C879 0.929 . S
H867 C877 0.929 . S
H868 C872 0.929 . S
H869 C878 0.929 . S
C870 H864 0.930 . S
C870 C871 1.367 . S
C870 C878 1.378 . S
C871 C870 1.367 . S
C871 C879 1.433 . S
C872 H868 0.929 . S
C872 C874 1.378 . S
C872 C876 1.350 . S
C873 C876 1.463 . S
C873 C878 1.350 . S
C873 N881 1.427 . S
C874 H865 0.930 . S
C874 C872 1.378 . S
C874 C875 1.367 . S
C875 C874 1.367 . S
C875 C877 1.433 . S
C876 C872 1.350 . S
C876 C873 1.463 . S
C876 N880 1.427 . S
C877 H867 0.929 . S
C877 C875 1.433 . S
C877 N880 1.384 . S
C878 H869 0.929 . S
C878 C870 1.378 . S
C878 C873 1.350 . S
C879 H866 0.929 . S
C879 C871 1.433 . S
C879 N881 1.384 . S
N880 C876 1.427 . S
N880 C877 1.384 . S
N881 C873 1.427 . S
N881 C879 1.384 . S
H882 C888 0.930 . S
H883 C892 0.930 . S
H884 C897 0.929 . S
H885 C895 0.929 . S
H886 C890 0.929 . S
H887 C896 0.929 . S
C888 H882 0.930 . S
C888 C889 1.367 . S
C888 C896 1.378 . S
C889 C888 1.367 . S
C889 C897 1.433 . S
C890 H886 0.929 . S
C890 C892 1.378 . S
C890 C894 1.350 . S
C891 C894 1.463 . S
C891 C896 1.350 . S
C891 N899 1.427 . S
C892 H883 0.930 . S
C892 C890 1.378 . S
C892 C893 1.367 . S
C893 C892 1.367 . S
C893 C895 1.433 . S
C894 C890 1.350 . S
C894 C891 1.463 . S
C894 N898 1.427 . S
C895 H885 0.929 . S
C895 C893 1.433 . S
C895 N898 1.384 . S
C896 H887 0.929 . S
C896 C888 1.378 . S
C896 C891 1.350 . S
C897 H884 0.929 . S
C897 C889 1.433 . S
C897 N899 1.384 . S
N898 C894 1.427 . S
N898 C895 1.384 . S
N899 C891 1.427 . S
N899 C897 1.384 . S
H900 C906 0.930 . S
H901 C910 0.930 . S
H902 C915 0.929 . S
H903 C913 0.929 . S
H904 C908 0.929 . S
H905 C914 0.929 . S
C906 H900 0.930 . S
C906 C907 1.367 . S
C906 C914 1.378 1_565 S
C907 C906 1.367 . S
C907 C915 1.433 . S
C908 H904 0.929 . S
C908 C910 1.378 . S
C908 C912 1.350 . S
C909 C912 1.463 . S
C909 C914 1.350 . S
C909 N917 1.427 1_545 S
C910 H901 0.930 . S
C910 C908 1.378 . S
C910 C911 1.367 . S
C911 C910 1.367 . S
C911 C913 1.433 . S
C912 C908 1.350 . S
C912 C909 1.463 . S
C912 N916 1.427 . S
C913 H903 0.929 . S
C913 C911 1.433 . S
C913 N916 1.384 . S
C914 H905 0.929 . S
C914 C906 1.378 1_545 S
C914 C909 1.350 . S
C915 H902 0.929 . S
C915 C907 1.433 . S
C915 N917 1.384 . S
N916 C912 1.427 . S
N916 C913 1.384 . S
N917 C909 1.427 1_565 S
N917 C915 1.384 . S
H918 C924 0.930 . S
H919 C928 0.930 . S
H920 C933 0.929 . S
H921 C931 0.929 . S
H922 C926 0.929 . S
H923 C932 0.929 . S
C924 H918 0.930 . S
C924 C925 1.367 . S
C924 C932 1.378 . S
C925 C924 1.367 . S
C925 C933 1.433 . S
C926 H922 0.929 . S
C926 C928 1.378 . S
C926 C930 1.350 . S
C927 C930 1.463 . S
C927 C932 1.350 . S
C927 N935 1.427 . S
C928 H919 0.930 . S
C928 C926 1.378 . S
C928 C929 1.367 . S
C929 C928 1.367 . S
C929 C931 1.433 . S
C930 C926 1.350 . S
C930 C927 1.463 . S
C930 N934 1.427 . S
C931 H921 0.929 . S
C931 C929 1.433 . S
C931 N934 1.384 . S
C932 H923 0.929 . S
C932 C924 1.378 . S
C932 C927 1.350 . S
C933 H920 0.929 . S
C933 C925 1.433 . S
C933 N935 1.384 . S
N934 C930 1.427 . S
N934 C931 1.384 . S
N935 C927 1.427 . S
N935 C933 1.384 . S
H936 C942 0.930 . S
H937 C946 0.930 . S
H938 C951 0.929 . S
H939 C949 0.929 . S
H940 C944 0.929 . S
H941 C950 0.929 . S
C942 H936 0.930 . S
C942 C943 1.367 . S
C942 C950 1.378 . S
C943 C942 1.367 . S
C943 C951 1.433 . S
C944 H940 0.929 . S
C944 C946 1.378 . S
C944 C948 1.350 . S
C945 C948 1.463 . S
C945 C950 1.350 . S
C945 N953 1.427 . S
C946 H937 0.930 . S
C946 C944 1.378 . S
C946 C947 1.367 . S
C947 C946 1.367 . S
C947 C949 1.433 . S
C948 C944 1.350 . S
C948 C945 1.463 . S
C948 N952 1.427 . S
C949 H939 0.929 . S
C949 C947 1.433 . S
C949 N952 1.384 . S
C950 H941 0.929 . S
C950 C942 1.378 . S
C950 C945 1.350 . S
C951 H938 0.929 . S
C951 C943 1.433 . S
C951 N953 1.384 . S
N952 C948 1.427 . S
N952 C949 1.384 . S
N953 C945 1.427 . S
N953 C951 1.384 . S
H954 C960 0.930 . S
H955 C964 0.930 . S
H956 C969 0.929 . S
H957 C967 0.929 . S
H958 C962 0.929 . S
H959 C968 0.929 . S
C960 H954 0.930 . S
C960 C961 1.367 . S
C960 C968 1.378 . S
C961 C960 1.367 . S
C961 C969 1.433 . S
C962 H958 0.929 . S
C962 C964 1.378 . S
C962 C966 1.350 . S
C963 C966 1.463 . S
C963 C968 1.350 . S
C963 N971 1.427 . S
C964 H955 0.930 . S
C964 C962 1.378 . S
C964 C965 1.367 . S
C965 C964 1.367 . S
C965 C967 1.433 . S
C966 C962 1.350 . S
C966 C963 1.463 . S
C966 N970 1.427 . S
C967 H957 0.929 . S
C967 C965 1.433 . S
C967 N970 1.384 . S
C968 H959 0.929 . S
C968 C960 1.378 . S
C968 C963 1.350 . S
C969 H956 0.929 . S
C969 C961 1.433 . S
C969 N971 1.384 . S
N970 C966 1.427 . S
N970 C967 1.384 . S
N971 C963 1.427 . S
N971 C969 1.384 . S
H972 C978 0.930 . S
H973 C982 0.930 . S
H974 C987 0.929 . S
H975 C985 0.929 . S
H976 C980 0.929 . S
H977 C986 0.929 . S
C978 H972 0.930 . S
C978 C979 1.367 . S
C978 C986 1.378 . S
C979 C978 1.367 . S
C979 C987 1.433 . S
C980 H976 0.929 . S
C980 C982 1.378 . S
C980 C984 1.350 . S
C981 C984 1.463 . S
C981 C986 1.350 . S
C981 N989 1.427 . S
C982 H973 0.930 . S
C982 C980 1.378 . S
C982 C983 1.367 . S
C983 C982 1.367 . S
C983 C985 1.433 . S
C984 C980 1.350 . S
C984 C981 1.463 . S
C984 N988 1.427 . S
C985 H975 0.929 . S
C985 C983 1.433 . S
C985 N988 1.384 . S
C986 H977 0.929 . S
C986 C978 1.378 . S
C986 C981 1.350 . S
C987 H974 0.929 . S
C987 C979 1.433 . S
C987 N989 1.384 . S
N988 C984 1.427 . S
N988 C985 1.384 . S
N989 C981 1.427 . S
N989 C987 1.384 . S
H990 C996 0.930 . S
H991 C1000 0.930 . S
H992 C1005 0.929 . S
H993 C1003 0.929 . S
H994 C998 0.929 . S
H995 C1004 0.929 . S
C996 H990 0.930 . S
C996 C997 1.367 . S
C996 C1004 1.378 . S
C997 C996 1.367 . S
C997 C1005 1.433 . S
C998 H994 0.929 . S
C998 C1000 1.378 . S
C998 C1002 1.350 1_545 S
C999 C1002 1.463 . S
C999 C1004 1.350 . S
C999 N1007 1.427 . S
C1000 H991 0.930 . S
C1000 C998 1.378 . S
C1000 C1001 1.367 . S
C1001 C1000 1.367 . S
C1001 C1003 1.433 . S
C1002 C998 1.350 1_565 S
C1002 C999 1.463 . S
C1002 N1006 1.427 . S
C1003 H993 0.929 . S
C1003 C1001 1.433 . S
C1003 N1006 1.384 1_545 S
C1004 H995 0.929 . S
C1004 C996 1.378 . S
C1004 C999 1.350 . S
C1005 H992 0.929 . S
C1005 C997 1.433 . S
C1005 N1007 1.384 . S
N1006 C1002 1.427 . S
N1006 C1003 1.384 1_565 S
N1007 C999 1.427 . S
N1007 C1005 1.384 . S
H1008 C1014 0.930 . S
H1009 C1018 0.930 . S
H1010 C1023 0.929 . S
H1011 C1021 0.929 . S
H1012 C1016 0.929 . S
H1013 C1022 0.929 . S
C1014 H1008 0.930 . S
C1014 C1015 1.367 . S
C1014 C1022 1.378 . S
C1015 C1014 1.367 . S
C1015 C1023 1.433 . S
C1016 H1012 0.929 . S
C1016 C1018 1.378 . S
C1016 C1020 1.350 . S
C1017 C1020 1.463 . S
C1017 C1022 1.350 . S
C1017 N1025 1.427 . S
C1018 H1009 0.930 . S
C1018 C1016 1.378 . S
C1018 C1019 1.367 . S
C1019 C1018 1.367 . S
C1019 C1021 1.433 . S
C1020 C1016 1.350 . S
C1020 C1017 1.463 . S
C1020 N1024 1.427 . S
C1021 H1011 0.929 . S
C1021 C1019 1.433 . S
C1021 N1024 1.384 . S
C1022 H1013 0.929 . S
C1022 C1014 1.378 . S
C1022 C1017 1.350 . S
C1023 H1010 0.929 . S
C1023 C1015 1.433 . S
C1023 N1025 1.384 . S
N1024 C1020 1.427 . S
N1024 C1021 1.384 . S
N1025 C1017 1.427 . S
N1025 C1023 1.384 . S
H1026 C1032 0.930 . S
H1027 C1036 0.930 . S
H1028 C1041 0.929 . S
H1029 C1039 0.929 . S
H1030 C1034 0.929 . S
H1031 C1040 0.929 . S
C1032 H1026 0.930 . S
C1032 C1033 1.367 . S
C1032 C1040 1.378 . S
C1033 C1032 1.367 . S
C1033 C1041 1.433 . S
C1034 H1030 0.929 . S
C1034 C1036 1.378 . S
C1034 C1038 1.350 . S
C1035 C1038 1.463 . S
C1035 C1040 1.350 . S
C1035 N1043 1.427 . S
C1036 H1027 0.930 . S
C1036 C1034 1.378 . S
C1036 C1037 1.367 . S
C1037 C1036 1.367 . S
C1037 C1039 1.433 . S
C1038 C1034 1.350 . S
C1038 C1035 1.463 . S
C1038 N1042 1.427 . S
C1039 H1029 0.929 . S
C1039 C1037 1.433 . S
C1039 N1042 1.384 . S
C1040 H1031 0.929 . S
C1040 C1032 1.378 . S
C1040 C1035 1.350 . S
C1041 H1028 0.929 . S
C1041 C1033 1.433 . S
C1041 N1043 1.384 . S
N1042 C1038 1.427 . S
N1042 C1039 1.384 . S
N1043 C1035 1.427 . S
N1043 C1041 1.384 . S
H1044 C1050 0.930 . S
H1045 C1054 0.930 . S
H1046 C1059 0.929 . S
H1047 C1057 0.929 . S
H1048 C1052 0.929 . S
H1049 C1058 0.929 . S
C1050 H1044 0.930 . S
C1050 C1051 1.367 . S
C1050 C1058 1.378 . S
C1051 C1050 1.367 . S
C1051 C1059 1.433 . S
C1052 H1048 0.929 . S
C1052 C1054 1.378 . S
C1052 C1056 1.350 . S
C1053 C1056 1.463 . S
C1053 C1058 1.350 . S
C1053 N1061 1.427 . S
C1054 H1045 0.930 . S
C1054 C1052 1.378 . S
C1054 C1055 1.367 . S
C1055 C1054 1.367 . S
C1055 C1057 1.433 . S
C1056 C1052 1.350 . S
C1056 C1053 1.463 . S
C1056 N1060 1.427 . S
C1057 H1047 0.929 . S
C1057 C1055 1.433 . S
C1057 N1060 1.384 . S
C1058 H1049 0.929 . S
C1058 C1050 1.378 . S
C1058 C1053 1.350 . S
C1059 H1046 0.929 . S
C1059 C1051 1.433 . S
C1059 N1061 1.384 . S
N1060 C1056 1.427 . S
N1060 C1057 1.384 . S
N1061 C1053 1.427 . S
N1061 C1059 1.384 . S
H1062 C1068 0.930 . S
H1063 C1072 0.930 . S
H1064 C1077 0.929 . S
H1065 C1075 0.929 . S
H1066 C1070 0.929 . S
H1067 C1076 0.929 1_545 S
C1068 H1062 0.930 . S
C1068 C1069 1.367 . S
C1068 C1076 1.378 . S
C1069 C1068 1.367 . S
C1069 C1077 1.433 . S
C1070 H1066 0.929 . S
C1070 C1072 1.378 . S
C1070 C1074 1.350 . S
C1071 C1074 1.463 . S
C1071 C1076 1.350 1_545 S
C1071 N1079 1.427 1_545 S
C1072 H1063 0.930 . S
C1072 C1070 1.378 . S
C1072 C1073 1.367 . S
C1073 C1072 1.367 . S
C1073 C1075 1.433 . S
C1074 C1070 1.350 . S
C1074 C1071 1.463 . S
C1074 N1078 1.427 . S
C1075 H1065 0.929 . S
C1075 C1073 1.433 . S
C1075 N1078 1.384 . S
C1076 H1067 0.929 1_565 S
C1076 C1068 1.378 . S
C1076 C1071 1.350 1_565 S
C1077 H1064 0.929 . S
C1077 C1069 1.433 . S
C1077 N1079 1.384 . S
N1078 C1074 1.427 . S
N1078 C1075 1.384 . S
N1079 C1071 1.427 1_565 S
N1079 C1077 1.384 . S
H1080 C1086 0.930 . S
H1081 C1090 0.930 . S
H1082 C1095 0.929 . S
H1083 C1093 0.929 . S
H1084 C1088 0.929 . S
H1085 C1094 0.929 . S
C1086 H1080 0.930 . S
C1086 C1087 1.367 . S
C1086 C1094 1.378 . S
C1087 C1086 1.367 . S
C1087 C1095 1.433 . S
C1088 H1084 0.929 . S
C1088 C1090 1.378 . S
C1088 C1092 1.350 . S
C1089 C1092 1.463 . S
C1089 C1094 1.350 . S
C1089 N1097 1.427 . S
C1090 H1081 0.930 . S
C1090 C1088 1.378 . S
C1090 C1091 1.367 . S
C1091 C1090 1.367 . S
C1091 C1093 1.433 . S
C1092 C1088 1.350 . S
C1092 C1089 1.463 . S
C1092 N1096 1.427 . S
C1093 H1083 0.929 . S
C1093 C1091 1.433 . S
C1093 N1096 1.384 . S
C1094 H1085 0.929 . S
C1094 C1086 1.378 . S
C1094 C1089 1.350 . S
C1095 H1082 0.929 . S
C1095 C1087 1.433 . S
C1095 N1097 1.384 . S
N1096 C1092 1.427 . S
N1096 C1093 1.384 . S
N1097 C1089 1.427 . S
N1097 C1095 1.384 . S
H1098 C1104 0.930 . S
H1099 C1108 0.930 . S
H1100 C1113 0.929 . S
H1101 C1111 0.929 . S
H1102 C1106 0.929 . S
H1103 C1112 0.929 . S
C1104 H1098 0.930 . S
C1104 C1105 1.367 . S
C1104 C1112 1.378 . S
C1105 C1104 1.367 . S
C1105 C1113 1.433 . S
C1106 H1102 0.929 . S
C1106 C1108 1.378 . S
C1106 C1110 1.350 . S
C1107 C1110 1.463 . S
C1107 C1112 1.350 . S
C1107 N1115 1.427 . S
C1108 H1099 0.930 . S
C1108 C1106 1.378 . S
C1108 C1109 1.367 . S
C1109 C1108 1.367 . S
C1109 C1111 1.433 . S
C1110 C1106 1.350 . S
C1110 C1107 1.463 . S
C1110 N1114 1.427 . S
C1111 H1101 0.929 . S
C1111 C1109 1.433 . S
C1111 N1114 1.384 . S
C1112 H1103 0.929 . S
C1112 C1104 1.378 . S
C1112 C1107 1.350 . S
C1113 H1100 0.929 . S
C1113 C1105 1.433 . S
C1113 N1115 1.384 . S
N1114 C1110 1.427 . S
N1114 C1111 1.384 . S
N1115 C1107 1.427 . S
N1115 C1113 1.384 . S
H1116 C1122 0.930 . S
H1117 C1126 0.930 . S
H1118 C1131 0.929 . S
H1119 C1129 0.929 . S
H1120 C1124 0.929 . S
H1121 C1130 0.929 . S
C1122 H1116 0.930 . S
C1122 C1123 1.367 . S
C1122 C1130 1.378 . S
C1123 C1122 1.367 . S
C1123 C1131 1.433 . S
C1124 H1120 0.929 . S
C1124 C1126 1.378 . S
C1124 C1128 1.350 . S
C1125 C1128 1.463 . S
C1125 C1130 1.350 . S
C1125 N1133 1.427 . S
C1126 H1117 0.930 . S
C1126 C1124 1.378 . S
C1126 C1127 1.367 . S
C1127 C1126 1.367 . S
C1127 C1129 1.433 . S
C1128 C1124 1.350 . S
C1128 C1125 1.463 . S
C1128 N1132 1.427 . S
C1129 H1119 0.929 . S
C1129 C1127 1.433 . S
C1129 N1132 1.384 . S
C1130 H1121 0.929 . S
C1130 C1122 1.378 . S
C1130 C1125 1.350 . S
C1131 H1118 0.929 . S
C1131 C1123 1.433 . S
C1131 N1133 1.384 . S
N1132 C1128 1.427 . S
N1132 C1129 1.384 . S
N1133 C1125 1.427 . S
N1133 C1131 1.384 . S
H1134 C1140 0.930 . S
H1135 C1144 0.930 . S
H1136 C1149 0.929 . S
H1137 C1147 0.929 . S
H1138 C1142 0.929 . S
H1139 C1148 0.929 . S
C1140 H1134 0.930 . S
C1140 C1141 1.367 . S
C1140 C1148 1.378 . S
C1141 C1140 1.367 . S
C1141 C1149 1.433 . S
C1142 H1138 0.929 . S
C1142 C1144 1.378 . S
C1142 C1146 1.350 . S
C1143 C1146 1.463 . S
C1143 C1148 1.350 . S
C1143 N1151 1.427 . S
C1144 H1135 0.930 . S
C1144 C1142 1.378 . S
C1144 C1145 1.367 . S
C1145 C1144 1.367 . S
C1145 C1147 1.433 . S
C1146 C1142 1.350 . S
C1146 C1143 1.463 . S
C1146 N1150 1.427 . S
C1147 H1137 0.929 . S
C1147 C1145 1.433 . S
C1147 N1150 1.384 . S
C1148 H1139 0.929 . S
C1148 C1140 1.378 . S
C1148 C1143 1.350 . S
C1149 H1136 0.929 . S
C1149 C1141 1.433 . S
C1149 N1151 1.384 . S
N1150 C1146 1.427 . S
N1150 C1147 1.384 . S
N1151 C1143 1.427 . S
N1151 C1149 1.384 . S
H1152 C1158 0.930 . S
H1153 C1162 0.930 . S
H1154 C1167 0.929 . S
H1155 C1165 0.929 . S
H1156 C1160 0.929 . S
H1157 C1166 0.929 . S
C1158 H1152 0.930 . S
C1158 C1159 1.367 . S
C1158 C1166 1.378 . S
C1159 C1158 1.367 . S
C1159 C1167 1.433 . S
C1160 H1156 0.929 . S
C1160 C1162 1.378 . S
C1160 C1164 1.350 . S
C1161 C1164 1.463 . S
C1161 C1166 1.350 . S
C1161 N1169 1.427 . S
C1162 H1153 0.930 . S
C1162 C1160 1.378 . S
C1162 C1163 1.367 . S
C1163 C1162 1.367 . S
C1163 C1165 1.433 . S
C1164 C1160 1.350 . S
C1164 C1161 1.463 . S
C1164 N1168 1.427 . S
C1165 H1155 0.929 . S
C1165 C1163 1.433 . S
C1165 N1168 1.384 . S
C1166 H1157 0.929 . S
C1166 C1158 1.378 . S
C1166 C1161 1.350 . S
C1167 H1154 0.929 . S
C1167 C1159 1.433 . S
C1167 N1169 1.384 . S
N1168 C1164 1.427 . S
N1168 C1165 1.384 . S
N1169 C1161 1.427 . S
N1169 C1167 1.384 . S
H1170 C1176 0.930 . S
H1171 C1180 0.930 . S
H1172 C1185 0.929 . S
H1173 C1183 0.929 . S
H1174 C1178 0.929 . S
H1175 C1184 0.929 . S
C1176 H1170 0.930 . S
C1176 C1177 1.367 . S
C1176 C1184 1.378 . S
C1177 C1176 1.367 . S
C1177 C1185 1.433 . S
C1178 H1174 0.929 . S
C1178 C1180 1.378 . S
C1178 C1182 1.350 . S
C1179 C1182 1.463 . S
C1179 C1184 1.350 . S
C1179 N1187 1.427 . S
C1180 H1171 0.930 . S
C1180 C1178 1.378 . S
C1180 C1181 1.367 . S
C1181 C1180 1.367 . S
C1181 C1183 1.433 . S
C1182 C1178 1.350 . S
C1182 C1179 1.463 . S
C1182 N1186 1.427 . S
C1183 H1173 0.929 . S
C1183 C1181 1.433 . S
C1183 N1186 1.384 . S
C1184 H1175 0.929 . S
C1184 C1176 1.378 . S
C1184 C1179 1.350 . S
C1185 H1172 0.929 . S
C1185 C1177 1.433 . S
C1185 N1187 1.384 . S
N1186 C1182 1.427 . S
N1186 C1183 1.384 . S
N1187 C1179 1.427 . S
N1187 C1185 1.384 . S
H1188 C1194 0.930 . S
H1189 C1198 0.930 . S
H1190 C1203 0.929 . S
H1191 C1201 0.929 . S
H1192 C1196 0.929 . S
H1193 C1202 0.929 . S
C1194 H1188 0.930 . S
C1194 C1195 1.367 . S
C1194 C1202 1.378 . S
C1195 C1194 1.367 . S
C1195 C1203 1.433 . S
C1196 H1192 0.929 . S
C1196 C1198 1.378 . S
C1196 C1200 1.350 . S
C1197 C1200 1.463 . S
C1197 C1202 1.350 . S
C1197 N1205 1.427 . S
C1198 H1189 0.930 . S
C1198 C1196 1.378 . S
C1198 C1199 1.367 . S
C1199 C1198 1.367 . S
C1199 C1201 1.433 . S
C1200 C1196 1.350 . S
C1200 C1197 1.463 . S
C1200 N1204 1.427 . S
C1201 H1191 0.929 . S
C1201 C1199 1.433 . S
C1201 N1204 1.384 . S
C1202 H1193 0.929 . S
C1202 C1194 1.378 . S
C1202 C1197 1.350 . S
C1203 H1190 0.929 . S
C1203 C1195 1.433 . S
C1203 N1205 1.384 . S
N1204 C1200 1.427 . S
N1204 C1201 1.384 . S
N1205 C1197 1.427 . S
N1205 C1203 1.384 . S
H1206 C1212 0.930 . S
H1207 C1216 0.930 . S
H1208 C1221 0.929 . S
H1209 C1219 0.929 . S
H1210 C1214 0.929 . S
H1211 C1220 0.929 . S
C1212 H1206 0.930 . S
C1212 C1213 1.367 . S
C1212 C1220 1.378 . S
C1213 C1212 1.367 . S
C1213 C1221 1.433 . S
C1214 H1210 0.929 . S
C1214 C1216 1.378 . S
C1214 C1218 1.350 . S
C1215 C1218 1.463 . S
C1215 C1220 1.350 . S
C1215 N1223 1.427 . S
C1216 H1207 0.930 . S
C1216 C1214 1.378 . S
C1216 C1217 1.367 . S
C1217 C1216 1.367 . S
C1217 C1219 1.433 . S
C1218 C1214 1.350 . S
C1218 C1215 1.463 . S
C1218 N1222 1.427 . S
C1219 H1209 0.929 . S
C1219 C1217 1.433 . S
C1219 N1222 1.384 . S
C1220 H1211 0.929 . S
C1220 C1212 1.378 . S
C1220 C1215 1.350 . S
C1221 H1208 0.929 . S
C1221 C1213 1.433 . S
C1221 N1223 1.384 . S
N1222 C1218 1.427 . S
N1222 C1219 1.384 . S
N1223 C1215 1.427 . S
N1223 C1221 1.384 . S
H1224 C1230 0.930 . S
H1225 C1234 0.930 . S
H1226 C1239 0.929 . S
H1227 C1237 0.929 . S
H1228 C1232 0.929 . S
H1229 C1238 0.929 . S
C1230 H1224 0.930 . S
C1230 C1231 1.367 . S
C1230 C1238 1.378 . S
C1231 C1230 1.367 . S
C1231 C1239 1.433 . S
C1232 H1228 0.929 . S
C1232 C1234 1.378 . S
C1232 C1236 1.350 . S
C1233 C1236 1.463 . S
C1233 C1238 1.350 . S
C1233 N1241 1.427 . S
C1234 H1225 0.930 . S
C1234 C1232 1.378 . S
C1234 C1235 1.367 . S
C1235 C1234 1.367 . S
C1235 C1237 1.433 . S
C1236 C1232 1.350 . S
C1236 C1233 1.463 . S
C1236 N1240 1.427 . S
C1237 H1227 0.929 . S
C1237 C1235 1.433 . S
C1237 N1240 1.384 . S
C1238 H1229 0.929 . S
C1238 C1230 1.378 . S
C1238 C1233 1.350 . S
C1239 H1226 0.929 . S
C1239 C1231 1.433 . S
C1239 N1241 1.384 . S
N1240 C1236 1.427 . S
N1240 C1237 1.384 . S
N1241 C1233 1.427 . S
N1241 C1239 1.384 . S
H1242 C1248 0.930 . S
H1243 C1252 0.930 . S
H1244 C1257 0.929 . S
H1245 C1255 0.929 1_455 S
H1246 C1250 0.929 . S
H1247 C1256 0.929 . S
C1248 H1242 0.930 . S
C1248 C1249 1.367 . S
C1248 C1256 1.378 . S
C1249 C1248 1.367 . S
C1249 C1257 1.433 . S
C1250 H1246 0.929 . S
C1250 C1252 1.378 . S
C1250 C1254 1.350 . S
C1251 C1254 1.463 . S
C1251 C1256 1.350 . S
C1251 N1259 1.427 . S
C1252 H1243 0.930 . S
C1252 C1250 1.378 . S
C1252 C1253 1.367 1_655 S
C1253 C1252 1.367 1_455 S
C1253 C1255 1.433 1_455 S
C1254 C1250 1.350 . S
C1254 C1251 1.463 . S
C1254 N1258 1.427 . S
C1255 H1245 0.929 1_655 S
C1255 C1253 1.433 1_655 S
C1255 N1258 1.384 . S
C1256 H1247 0.929 . S
C1256 C1248 1.378 . S
C1256 C1251 1.350 . S
C1257 H1244 0.929 . S
C1257 C1249 1.433 . S
C1257 N1259 1.384 . S
N1258 C1254 1.427 . S
N1258 C1255 1.384 . S
N1259 C1251 1.427 . S
N1259 C1257 1.384 . S
H1260 C1266 0.930 . S
H1261 C1270 0.930 . S
H1262 C1275 0.929 . S
H1263 C1273 0.929 . S
H1264 C1268 0.929 . S
H1265 C1274 0.929 . S
C1266 H1260 0.930 . S
C1266 C1267 1.367 . S
C1266 C1274 1.378 . S
C1267 C1266 1.367 . S
C1267 C1275 1.433 . S
C1268 H1264 0.929 . S
C1268 C1270 1.378 . S
C1268 C1272 1.350 . S
C1269 C1272 1.463 . S
C1269 C1274 1.350 . S
C1269 N1277 1.427 . S
C1270 H1261 0.930 . S
C1270 C1268 1.378 . S
C1270 C1271 1.367 . S
C1271 C1270 1.367 . S
C1271 C1273 1.433 . S
C1272 C1268 1.350 . S
C1272 C1269 1.463 . S
C1272 N1276 1.427 . S
C1273 H1263 0.929 . S
C1273 C1271 1.433 . S
C1273 N1276 1.384 . S
C1274 H1265 0.929 . S
C1274 C1266 1.378 . S
C1274 C1269 1.350 . S
C1275 H1262 0.929 . S
C1275 C1267 1.433 . S
C1275 N1277 1.384 . S
N1276 C1272 1.427 . S
N1276 C1273 1.384 . S
N1277 C1269 1.427 . S
N1277 C1275 1.384 . S
H1278 C1284 0.930 . S
H1279 C1288 0.930 . S
H1280 C1293 0.929 . S
H1281 C1291 0.929 . S
H1282 C1286 0.929 . S
H1283 C1292 0.929 . S
C1284 H1278 0.930 . S
C1284 C1285 1.367 . S
C1284 C1292 1.378 . S
C1285 C1284 1.367 . S
C1285 C1293 1.433 . S
C1286 H1282 0.929 . S
C1286 C1288 1.378 . S
C1286 C1290 1.350 . S
C1287 C1290 1.463 . S
C1287 C1292 1.350 . S
C1287 N1295 1.427 . S
C1288 H1279 0.930 . S
C1288 C1286 1.378 . S
C1288 C1289 1.367 . S
C1289 C1288 1.367 . S
C1289 C1291 1.433 . S
C1290 C1286 1.350 . S
C1290 C1287 1.463 . S
C1290 N1294 1.427 . S
C1291 H1281 0.929 . S
C1291 C1289 1.433 . S
C1291 N1294 1.384 . S
C1292 H1283 0.929 . S
C1292 C1284 1.378 . S
C1292 C1287 1.350 . S
C1293 H1280 0.929 . S
C1293 C1285 1.433 . S
C1293 N1295 1.384 . S
N1294 C1290 1.427 . S
N1294 C1291 1.384 . S
N1295 C1287 1.427 . S
N1295 C1293 1.384 . S
H1296 C1302 0.930 . S
H1297 C1306 0.930 . S
H1298 C1311 0.929 . S
H1299 C1309 0.929 . S
H1300 C1304 0.929 . S
H1301 C1310 0.929 . S
C1302 H1296 0.930 . S
C1302 C1303 1.367 . S
C1302 C1310 1.378 . S
C1303 C1302 1.367 . S
C1303 C1311 1.433 . S
C1304 H1300 0.929 . S
C1304 C1306 1.378 . S
C1304 C1308 1.350 . S
C1305 C1308 1.463 . S
C1305 C1310 1.350 . S
C1305 N1313 1.427 . S
C1306 H1297 0.930 . S
C1306 C1304 1.378 . S
C1306 C1307 1.367 . S
C1307 C1306 1.367 . S
C1307 C1309 1.433 . S
C1308 C1304 1.350 . S
C1308 C1305 1.463 . S
C1308 N1312 1.427 . S
C1309 H1299 0.929 . S
C1309 C1307 1.433 . S
C1309 N1312 1.384 . S
C1310 H1301 0.929 . S
C1310 C1302 1.378 . S
C1310 C1305 1.350 . S
C1311 H1298 0.929 . S
C1311 C1303 1.433 . S
C1311 N1313 1.384 . S
N1312 C1308 1.427 . S
N1312 C1309 1.384 . S
N1313 C1305 1.427 . S
N1313 C1311 1.384 . S
H1314 C1320 0.930 . S
H1315 C1324 0.930 . S
H1316 C1329 0.929 . S
H1317 C1327 0.929 . S
H1318 C1322 0.929 . S
H1319 C1328 0.929 . S
C1320 H1314 0.930 . S
C1320 C1321 1.367 . S
C1320 C1328 1.378 . S
C1321 C1320 1.367 . S
C1321 C1329 1.433 . S
C1322 H1318 0.929 . S
C1322 C1324 1.378 . S
C1322 C1326 1.350 . S
C1323 C1326 1.463 . S
C1323 C1328 1.350 . S
C1323 N1331 1.427 . S
C1324 H1315 0.930 . S
C1324 C1322 1.378 . S
C1324 C1325 1.367 . S
C1325 C1324 1.367 . S
C1325 C1327 1.433 . S
C1326 C1322 1.350 . S
C1326 C1323 1.463 . S
C1326 N1330 1.427 . S
C1327 H1317 0.929 . S
C1327 C1325 1.433 . S
C1327 N1330 1.384 . S
C1328 H1319 0.929 . S
C1328 C1320 1.378 . S
C1328 C1323 1.350 . S
C1329 H1316 0.929 . S
C1329 C1321 1.433 . S
C1329 N1331 1.384 . S
N1330 C1326 1.427 . S
N1330 C1327 1.384 . S
N1331 C1323 1.427 . S
N1331 C1329 1.384 . S
H1332 C1338 0.930 . S
H1333 C1342 0.930 . S
H1334 C1347 0.929 . S
H1335 C1345 0.929 . S
H1336 C1340 0.929 . S
H1337 C1346 0.929 . S
C1338 H1332 0.930 . S
C1338 C1339 1.367 . S
C1338 C1346 1.378 . S
C1339 C1338 1.367 . S
C1339 C1347 1.433 . S
C1340 H1336 0.929 . S
C1340 C1342 1.378 . S
C1340 C1344 1.350 . S
C1341 C1344 1.463 . S
C1341 C1346 1.350 . S
C1341 N1349 1.427 . S
C1342 H1333 0.930 . S
C1342 C1340 1.378 . S
C1342 C1343 1.367 . S
C1343 C1342 1.367 . S
C1343 C1345 1.433 . S
C1344 C1340 1.350 . S
C1344 C1341 1.463 . S
C1344 N1348 1.427 . S
C1345 H1335 0.929 . S
C1345 C1343 1.433 . S
C1345 N1348 1.384 . S
C1346 H1337 0.929 . S
C1346 C1338 1.378 . S
C1346 C1341 1.350 . S
C1347 H1334 0.929 . S
C1347 C1339 1.433 . S
C1347 N1349 1.384 . S
N1348 C1344 1.427 . S
N1348 C1345 1.384 . S
N1349 C1341 1.427 . S
N1349 C1347 1.384 . S
H1350 C1356 0.930 . S
H1351 C1360 0.930 . S
H1352 C1365 0.929 . S
H1353 C1363 0.929 . S
H1354 C1358 0.929 . S
H1355 C1364 0.927 . S
C1356 H1350 0.930 . S
C1356 C1357 1.367 1_565 S
C1356 C1364 1.394 . S
C1357 C1356 1.367 1_545 S
C1357 C1365 1.433 . S
C1358 H1354 0.929 . S
C1358 C1360 1.378 . S
C1358 C1362 1.350 . S
C1359 C1362 1.463 . S
C1359 C1364 1.337 1_545 S
C1359 N1367 1.427 . S
C1360 H1351 0.930 . S
C1360 C1358 1.378 . S
C1360 C1361 1.367 . S
C1361 C1360 1.367 . S
C1361 C1363 1.433 . S
C1362 C1358 1.350 . S
C1362 C1359 1.463 . S
C1362 N1366 1.427 . S
C1363 H1353 0.929 . S
C1363 C1361 1.433 . S
C1363 N1366 1.384 . S
C1364 H1355 0.927 . S
C1364 C1356 1.394 . S
C1364 C1359 1.337 1_565 S
C1365 H1352 0.929 . S
C1365 C1357 1.433 . S
C1365 N1367 1.384 . S
N1366 C1362 1.427 . S
N1366 C1363 1.384 . S
N1367 C1359 1.427 . S
N1367 C1365 1.384 . S
H1368 C1374 0.930 1_565 S
H1369 C1378 0.930 . S
H1370 C1383 0.929 . S
H1371 C1381 0.960 . S
H1372 C1376 0.929 . S
H1373 C1382 0.929 1_565 S
C1374 H1368 0.930 1_545 S
C1374 C1375 1.367 . S
C1374 C1382 1.378 . S
C1375 C1374 1.367 . S
C1375 C1383 1.433 . S
C1376 H1372 0.929 . S
C1376 C1378 1.378 . S
C1376 C1380 1.350 . S
C1377 C1380 1.463 . S
C1377 C1382 1.350 . S
C1377 N1385 1.427 . S
C1378 H1369 0.930 . S
C1378 C1376 1.378 . S
C1378 C1379 1.367 . S
C1379 C1378 1.367 . S
C1379 C1381 1.433 . S
C1380 C1376 1.350 . S
C1380 C1377 1.463 . S
C1380 N1384 1.427 . S
C1381 H1371 0.960 . S
C1381 C1379 1.433 . S
C1381 N1384 1.384 . S
C1382 H1373 0.929 1_545 S
C1382 C1374 1.378 . S
C1382 C1377 1.350 . S
C1383 H1370 0.929 . S
C1383 C1375 1.433 . S
C1383 N1385 1.384 . S
N1384 C1380 1.427 . S
N1384 C1381 1.384 . S
N1385 C1377 1.427 . S
N1385 C1383 1.384 . S
H1386 C1392 0.930 . S
H1387 C1396 0.930 . S
H1388 C1401 0.929 . S
H1389 C1399 0.929 . S
H1390 C1394 0.929 . S
H1391 C1400 0.929 . S
C1392 H1386 0.930 . S
C1392 C1393 1.367 . S
C1392 C1400 1.378 . S
C1393 C1392 1.367 . S
C1393 C1401 1.433 . S
C1394 H1390 0.929 . S
C1394 C1396 1.378 . S
C1394 C1398 1.350 . S
C1395 C1398 1.463 . S
C1395 C1400 1.350 . S
C1395 N1403 1.427 . S
C1396 H1387 0.930 . S
C1396 C1394 1.378 . S
C1396 C1397 1.367 . S
C1397 C1396 1.367 . S
C1397 C1399 1.433 . S
C1398 C1394 1.350 . S
C1398 C1395 1.463 . S
C1398 N1402 1.427 . S
C1399 H1389 0.929 . S
C1399 C1397 1.433 . S
C1399 N1402 1.384 . S
C1400 H1391 0.929 . S
C1400 C1392 1.378 . S
C1400 C1395 1.350 . S
C1401 H1388 0.929 . S
C1401 C1393 1.433 . S
C1401 N1403 1.384 . S
N1402 C1398 1.427 . S
N1402 C1399 1.384 . S
N1403 C1395 1.427 . S
N1403 C1401 1.384 . S
H1404 C1410 0.930 . S
H1405 C1414 0.930 . S
H1406 C1419 0.929 . S
H1407 C1417 0.929 . S
H1408 C1412 0.929 . S
H1409 C1418 0.929 . S
C1410 H1404 0.930 . S
C1410 C1411 1.367 . S
C1410 C1418 1.378 . S
C1411 C1410 1.367 . S
C1411 C1419 1.433 . S
C1412 H1408 0.929 . S
C1412 C1414 1.378 . S
C1412 C1416 1.350 . S
C1413 C1416 1.463 . S
C1413 C1418 1.350 . S
C1413 N1421 1.427 . S
C1414 H1405 0.930 . S
C1414 C1412 1.378 . S
C1414 C1415 1.367 . S
C1415 C1414 1.367 . S
C1415 C1417 1.433 . S
C1416 C1412 1.350 . S
C1416 C1413 1.463 . S
C1416 N1420 1.427 . S
C1417 H1407 0.929 . S
C1417 C1415 1.433 . S
C1417 N1420 1.384 . S
C1418 H1409 0.929 . S
C1418 C1410 1.378 . S
C1418 C1413 1.350 . S
C1419 H1406 0.929 . S
C1419 C1411 1.433 . S
C1419 N1421 1.384 . S
N1420 C1416 1.427 . S
N1420 C1417 1.384 . S
N1421 C1413 1.427 . S
N1421 C1419 1.384 . S
H1422 C1428 0.930 . S
H1423 C1432 0.930 . S
H1424 C1437 0.929 . S
H1425 C1435 0.929 . S
H1426 C1430 0.929 . S
H1427 C1436 0.929 . S
C1428 H1422 0.930 . S
C1428 C1429 1.367 . S
C1428 C1436 1.378 . S
C1429 C1428 1.367 . S
C1429 C1437 1.433 . S
C1430 H1426 0.929 . S
C1430 C1432 1.378 . S
C1430 C1434 1.350 . S
C1431 C1434 1.463 . S
C1431 C1436 1.350 . S
C1431 N1439 1.427 . S
C1432 H1423 0.930 . S
C1432 C1430 1.378 . S
C1432 C1433 1.367 . S
C1433 C1432 1.367 . S
C1433 C1435 1.433 . S
C1434 C1430 1.350 . S
C1434 C1431 1.463 . S
C1434 N1438 1.427 . S
C1435 H1425 0.929 . S
C1435 C1433 1.433 . S
C1435 N1438 1.384 . S
C1436 H1427 0.929 . S
C1436 C1428 1.378 . S
C1436 C1431 1.350 . S
C1437 H1424 0.929 . S
C1437 C1429 1.433 . S
C1437 N1439 1.384 . S
N1438 C1434 1.427 . S
N1438 C1435 1.384 . S
N1439 C1431 1.427 . S
N1439 C1437 1.384 . S
H1440 C1446 0.930 . S
H1441 C1450 0.930 . S
H1442 C1455 0.929 . S
H1443 C1453 0.929 . S
H1444 C1448 0.929 . S
H1445 C1454 0.929 . S
C1446 H1440 0.930 . S
C1446 C1447 1.367 . S
C1446 C1454 1.378 . S
C1447 C1446 1.367 . S
C1447 C1455 1.433 . S
C1448 H1444 0.929 . S
C1448 C1450 1.378 . S
C1448 C1452 1.350 . S
C1449 C1452 1.463 . S
C1449 C1454 1.350 . S
C1449 N1457 1.427 . S
C1450 H1441 0.930 . S
C1450 C1448 1.378 . S
C1450 C1451 1.367 . S
C1451 C1450 1.367 . S
C1451 C1453 1.433 . S
C1452 C1448 1.350 . S
C1452 C1449 1.463 . S
C1452 N1456 1.427 . S
C1453 H1443 0.929 . S
C1453 C1451 1.433 . S
C1453 N1456 1.384 . S
C1454 H1445 0.929 . S
C1454 C1446 1.378 . S
C1454 C1449 1.350 . S
C1455 H1442 0.929 . S
C1455 C1447 1.433 . S
C1455 N1457 1.384 . S
N1456 C1452 1.427 . S
N1456 C1453 1.384 . S
N1457 C1449 1.427 . S
N1457 C1455 1.384 . S
H1458 C1464 0.930 . S
H1459 C1468 0.930 . S
H1460 C1473 0.929 . S
H1461 C1471 0.929 . S
H1462 C1466 0.929 . S
H1463 C1472 0.929 . S
C1464 H1458 0.930 . S
C1464 C1465 1.367 . S
C1464 C1472 1.378 . S
C1465 C1464 1.367 . S
C1465 C1473 1.433 . S
C1466 H1462 0.929 . S
C1466 C1468 1.378 . S
C1466 C1470 1.350 . S
C1467 C1470 1.463 . S
C1467 C1472 1.350 . S
C1467 N1475 1.427 . S
C1468 H1459 0.930 . S
C1468 C1466 1.378 . S
C1468 C1469 1.367 . S
C1469 C1468 1.367 . S
C1469 C1471 1.433 . S
C1470 C1466 1.350 . S
C1470 C1467 1.463 . S
C1470 N1474 1.427 . S
C1471 H1461 0.929 . S
C1471 C1469 1.433 . S
C1471 N1474 1.384 . S
C1472 H1463 0.929 . S
C1472 C1464 1.378 . S
C1472 C1467 1.350 . S
C1473 H1460 0.929 . S
C1473 C1465 1.433 . S
C1473 N1475 1.384 . S
N1474 C1470 1.427 . S
N1474 C1471 1.384 . S
N1475 C1467 1.427 . S
N1475 C1473 1.384 . S
H1476 C1482 0.930 . S
H1477 C1486 0.930 . S
H1478 C1491 0.926 . S
H1479 C1489 0.929 . S
H1480 C1484 0.929 . S
H1481 C1490 0.929 . S
C1482 H1476 0.930 . S
C1482 C1483 1.367 . S
C1482 C1490 1.378 . S
C1483 C1482 1.367 . S
C1483 C1491 1.433 . S
C1484 H1480 0.929 . S
C1484 C1486 1.378 . S
C1484 C1488 1.350 . S
C1485 C1488 1.463 . S
C1485 C1490 1.350 . S
C1485 N1493 1.427 . S
C1486 H1477 0.930 . S
C1486 C1484 1.378 . S
C1486 C1487 1.367 . S
C1487 C1486 1.367 . S
C1487 C1489 1.433 . S
C1488 C1484 1.350 . S
C1488 C1485 1.463 . S
C1488 N1492 1.427 . S
C1489 H1479 0.929 . S
C1489 C1487 1.433 . S
C1489 N1492 1.384 . S
C1490 H1481 0.929 . S
C1490 C1482 1.378 . S
C1490 C1485 1.350 . S
C1491 H1478 0.926 . S
C1491 C1483 1.433 . S
C1491 N1493 1.384 . S
N1492 C1488 1.427 . S
N1492 C1489 1.384 . S
N1493 C1485 1.427 . S
N1493 C1491 1.384 . S
H1494 C1500 0.930 . S
H1495 C1504 0.930 . S
H1496 C1509 0.929 . S
H1497 C1507 0.977 . S
H1498 C1502 0.929 . S
H1499 C1508 0.929 . S
C1500 H1494 0.930 . S
C1500 C1501 1.367 . S
C1500 C1508 1.378 . S
C1501 C1500 1.367 . S
C1501 C1509 1.433 . S
C1502 H1498 0.929 . S
C1502 C1504 1.378 . S
C1502 C1506 1.350 . S
C1503 C1506 1.463 . S
C1503 C1508 1.350 . S
C1503 N1511 1.427 . S
C1504 H1495 0.930 . S
C1504 C1502 1.378 . S
C1504 C1505 1.367 . S
C1505 C1504 1.367 . S
C1505 C1507 1.433 . S
C1506 C1502 1.350 . S
C1506 C1503 1.463 . S
C1506 N1510 1.427 . S
C1507 H1497 0.977 . S
C1507 C1505 1.433 . S
C1507 N1510 1.384 . S
C1508 H1499 0.929 . S
C1508 C1500 1.378 . S
C1508 C1503 1.350 . S
C1509 H1496 0.929 . S
C1509 C1501 1.433 . S
C1509 N1511 1.384 . S
N1510 C1506 1.427 . S
N1510 C1507 1.384 . S
N1511 C1503 1.427 . S
N1511 C1509 1.384 . S
H1512 C1518 0.930 . S
H1513 C1522 0.930 . S
H1514 C1527 0.929 . S
H1515 C1525 0.929 . S
H1516 C1520 0.929 . S
H1517 C1526 0.929 . S
C1518 H1512 0.930 . S
C1518 C1519 1.367 . S
C1518 C1526 1.378 . S
C1519 C1518 1.367 . S
C1519 C1527 1.433 . S
C1520 H1516 0.929 . S
C1520 C1522 1.378 . S
C1520 C1524 1.350 . S
C1521 C1524 1.463 . S
C1521 C1526 1.350 . S
C1521 N1529 1.427 . S
C1522 H1513 0.930 . S
C1522 C1520 1.378 . S
C1522 C1523 1.367 . S
C1523 C1522 1.367 . S
C1523 C1525 1.433 . S
C1524 C1520 1.350 . S
C1524 C1521 1.463 . S
C1524 N1528 1.427 . S
C1525 H1515 0.929 . S
C1525 C1523 1.433 . S
C1525 N1528 1.384 . S
C1526 H1517 0.929 . S
C1526 C1518 1.378 . S
C1526 C1521 1.350 . S
C1527 H1514 0.929 . S
C1527 C1519 1.433 . S
C1527 N1529 1.384 . S
N1528 C1524 1.427 . S
N1528 C1525 1.384 . S
N1529 C1521 1.427 . S
N1529 C1527 1.384 . S
H1530 C1536 0.930 . S
H1531 C1540 0.930 . S
H1532 C1545 0.929 . S
H1533 C1543 0.929 . S
H1534 C1538 0.929 . S
H1535 C1544 0.929 . S
C1536 H1530 0.930 . S
C1536 C1537 1.367 . S
C1536 C1544 1.378 . S
C1537 C1536 1.367 . S
C1537 C1545 1.433 . S
C1538 H1534 0.929 . S
C1538 C1540 1.378 . S
C1538 C1542 1.350 . S
C1539 C1542 1.463 . S
C1539 C1544 1.350 . S
C1539 N1547 1.427 . S
C1540 H1531 0.930 . S
C1540 C1538 1.378 . S
C1540 C1541 1.367 . S
C1541 C1540 1.367 . S
C1541 C1543 1.433 . S
C1542 C1538 1.350 . S
C1542 C1539 1.463 . S
C1542 N1546 1.427 . S
C1543 H1533 0.929 . S
C1543 C1541 1.433 . S
C1543 N1546 1.384 . S
C1544 H1535 0.929 . S
C1544 C1536 1.378 . S
C1544 C1539 1.350 . S
C1545 H1532 0.929 . S
C1545 C1537 1.433 . S
C1545 N1547 1.384 . S
N1546 C1542 1.427 . S
N1546 C1543 1.384 . S
N1547 C1539 1.427 . S
N1547 C1545 1.384 . S
H1548 C1554 0.930 . S
H1549 C1558 0.930 . S
H1550 C1563 0.929 . S
H1551 C1561 0.929 . S
H1552 C1556 0.929 . S
H1553 C1562 0.929 . S
C1554 H1548 0.930 . S
C1554 C1555 1.367 . S
C1554 C1562 1.378 . S
C1555 C1554 1.367 . S
C1555 C1563 1.433 . S
C1556 H1552 0.929 . S
C1556 C1558 1.378 . S
C1556 C1560 1.350 . S
C1557 C1560 1.463 . S
C1557 C1562 1.350 . S
C1557 N1565 1.427 . S
C1558 H1549 0.930 . S
C1558 C1556 1.378 . S
C1558 C1559 1.367 . S
C1559 C1558 1.367 . S
C1559 C1561 1.433 . S
C1560 C1556 1.350 . S
C1560 C1557 1.463 . S
C1560 N1564 1.427 . S
C1561 H1551 0.929 . S
C1561 C1559 1.433 . S
C1561 N1564 1.384 . S
C1562 H1553 0.929 . S
C1562 C1554 1.378 . S
C1562 C1557 1.350 . S
C1563 H1550 0.929 . S
C1563 C1555 1.433 . S
C1563 N1565 1.384 . S
N1564 C1560 1.427 . S
N1564 C1561 1.384 . S
N1565 C1557 1.427 . S
N1565 C1563 1.384 . S
H1566 C1572 0.930 . S
H1567 C1576 0.930 . S
H1568 C1581 0.929 . S
H1569 C1579 0.929 . S
H1570 C1574 0.929 . S
H1571 C1580 0.929 . S
C1572 H1566 0.930 . S
C1572 C1573 1.367 . S
C1572 C1580 1.378 . S
C1573 C1572 1.367 . S
C1573 C1581 1.433 . S
C1574 H1570 0.929 . S
C1574 C1576 1.378 . S
C1574 C1578 1.350 . S
C1575 C1578 1.463 . S
C1575 C1580 1.350 . S
C1575 N1583 1.427 . S
C1576 H1567 0.930 . S
C1576 C1574 1.378 . S
C1576 C1577 1.367 . S
C1577 C1576 1.367 . S
C1577 C1579 1.433 . S
C1578 C1574 1.350 . S
C1578 C1575 1.463 . S
C1578 N1582 1.427 . S
C1579 H1569 0.929 . S
C1579 C1577 1.433 . S
C1579 N1582 1.384 . S
C1580 H1571 0.929 . S
C1580 C1572 1.378 . S
C1580 C1575 1.350 . S
C1581 H1568 0.929 . S
C1581 C1573 1.433 . S
C1581 N1583 1.384 . S
N1582 C1578 1.427 . S
N1582 C1579 1.384 . S
N1583 C1575 1.427 . S
N1583 C1581 1.384 . S
H1584 C1590 0.930 . S
H1585 C1594 0.930 . S
H1586 C1599 0.929 . S
H1587 C1597 0.929 . S
H1588 C1592 0.940 . S
H1589 C1598 0.929 . S
C1590 H1584 0.930 . S
C1590 C1591 1.367 . S
C1590 C1598 1.378 . S
C1591 C1590 1.367 . S
C1591 C1599 1.433 . S
C1592 H1588 0.940 . S
C1592 C1594 1.366 1_556 S
C1592 C1596 1.351 . S
C1593 C1596 1.463 . S
C1593 C1598 1.350 . S
C1593 N1601 1.427 . S
C1594 H1585 0.930 . S
C1594 C1592 1.366 1_554 S
C1594 C1595 1.367 . S
C1595 C1594 1.367 . S
C1595 C1597 1.433 . S
C1596 C1592 1.351 . S
C1596 C1593 1.463 . S
C1596 N1600 1.427 1_556 S
C1597 H1587 0.929 . S
C1597 C1595 1.433 . S
C1597 N1600 1.384 . S
C1598 H1589 0.929 . S
C1598 C1590 1.378 . S
C1598 C1593 1.350 . S
C1599 H1586 0.929 . S
C1599 C1591 1.433 . S
C1599 N1601 1.384 . S
N1600 C1596 1.427 1_554 S
N1600 C1597 1.384 . S
N1601 C1593 1.427 . S
N1601 C1599 1.384 . S
H1602 C1608 0.930 . S
H1603 C1612 0.930 . S
H1604 C1617 0.929 . S
H1605 C1615 0.929 . S
H1606 C1610 0.929 . S
H1607 C1616 0.929 . S
C1608 H1602 0.930 . S
C1608 C1609 1.367 . S
C1608 C1616 1.378 . S
C1609 C1608 1.367 . S
C1609 C1617 1.433 . S
C1610 H1606 0.929 . S
C1610 C1612 1.378 1_556 S
C1610 C1614 1.350 . S
C1611 C1614 1.463 . S
C1611 C1616 1.350 . S
C1611 N1619 1.427 . S
C1612 H1603 0.930 . S
C1612 C1610 1.378 1_554 S
C1612 C1613 1.367 . S
C1613 C1612 1.367 . S
C1613 C1615 1.433 . S
C1614 C1610 1.350 . S
C1614 C1611 1.463 . S
C1614 N1618 1.427 . S
C1615 H1605 0.929 . S
C1615 C1613 1.433 . S
C1615 N1618 1.384 1_554 S
C1616 H1607 0.929 . S
C1616 C1608 1.378 . S
C1616 C1611 1.350 . S
C1617 H1604 0.929 . S
C1617 C1609 1.433 . S
C1617 N1619 1.384 . S
N1618 C1614 1.427 . S
N1618 C1615 1.384 1_556 S
N1619 C1611 1.427 . S
N1619 C1617 1.384 . S
H1620 C1626 0.930 . S
H1621 C1630 0.930 . S
H1622 C1635 0.929 . S
H1623 C1633 0.929 . S
H1624 C1628 0.929 . S
H1625 C1634 0.929 . S
C1626 H1620 0.930 . S
C1626 C1627 1.367 . S
C1626 C1634 1.378 . S
C1627 C1626 1.367 . S
C1627 C1635 1.433 . S
C1628 H1624 0.929 . S
C1628 C1630 1.378 . S
C1628 C1632 1.350 . S
C1629 C1632 1.463 1_556 S
C1629 C1634 1.350 . S
C1629 N1637 1.427 . S
C1630 H1621 0.930 . S
C1630 C1628 1.378 . S
C1630 C1631 1.367 . S
C1631 C1630 1.367 . S
C1631 C1633 1.433 . S
C1632 C1628 1.350 . S
C1632 C1629 1.463 1_554 S
C1632 N1636 1.427 . S
C1633 H1623 0.929 . S
C1633 C1631 1.433 . S
C1633 N1636 1.384 . S
C1634 H1625 0.929 . S
C1634 C1626 1.378 . S
C1634 C1629 1.350 . S
C1635 H1622 0.929 . S
C1635 C1627 1.433 . S
C1635 N1637 1.384 . S
N1636 C1632 1.427 . S
N1636 C1633 1.384 . S
N1637 C1629 1.427 . S
N1637 C1635 1.384 . S
H1638 C1644 0.930 . S
H1639 C1648 0.930 . S
H1640 C1653 0.929 . S
H1641 C1651 0.929 . S
H1642 C1646 0.929 . S
H1643 C1652 0.929 . S
C1644 H1638 0.930 . S
C1644 C1645 1.367 . S
C1644 C1652 1.378 . S
C1645 C1644 1.367 . S
C1645 C1653 1.433 . S
C1646 H1642 0.929 . S
C1646 C1648 1.378 . S
C1646 C1650 1.350 . S
C1647 C1650 1.463 . S
C1647 C1652 1.350 . S
C1647 N1655 1.427 . S
C1648 H1639 0.930 . S
C1648 C1646 1.378 . S
C1648 C1649 1.367 . S
C1649 C1648 1.367 . S
C1649 C1651 1.433 . S
C1650 C1646 1.350 . S
C1650 C1647 1.463 . S
C1650 N1654 1.427 . S
C1651 H1641 0.929 . S
C1651 C1649 1.433 . S
C1651 N1654 1.384 . S
C1652 H1643 0.929 . S
C1652 C1644 1.378 . S
C1652 C1647 1.350 . S
C1653 H1640 0.929 . S
C1653 C1645 1.433 . S
C1653 N1655 1.384 . S
N1654 C1650 1.427 . S
N1654 C1651 1.384 . S
N1655 C1647 1.427 . S
N1655 C1653 1.384 . S
H1656 C1662 0.930 . S
H1657 C1666 0.930 . S
H1658 C1671 0.929 . S
H1659 C1669 0.929 . S
H1660 C1664 0.929 . S
H1661 C1670 0.929 . S
C1662 H1656 0.930 . S
C1662 C1663 1.367 . S
C1662 C1670 1.378 . S
C1663 C1662 1.367 . S
C1663 C1671 1.433 . S
C1664 H1660 0.929 . S
C1664 C1666 1.378 . S
C1664 C1668 1.350 . S
C1665 C1668 1.463 . S
C1665 C1670 1.350 . S
C1665 N1673 1.427 . S
C1666 H1657 0.930 . S
C1666 C1664 1.378 . S
C1666 C1667 1.367 . S
C1667 C1666 1.367 . S
C1667 C1669 1.433 . S
C1668 C1664 1.350 . S
C1668 C1665 1.463 . S
C1668 N1672 1.427 . S
C1669 H1659 0.929 . S
C1669 C1667 1.433 . S
C1669 N1672 1.384 . S
C1670 H1661 0.929 . S
C1670 C1662 1.378 . S
C1670 C1665 1.350 . S
C1671 H1658 0.929 . S
C1671 C1663 1.433 . S
C1671 N1673 1.384 . S
N1672 C1668 1.427 . S
N1672 C1669 1.384 . S
N1673 C1665 1.427 . S
N1673 C1671 1.384 . S
H1674 C1680 0.930 . S
H1675 C1684 0.930 . S
H1676 C1689 0.929 . S
H1677 C1687 0.929 . S
H1678 C1682 0.929 . S
H1679 C1688 0.929 . S
C1680 H1674 0.930 . S
C1680 C1681 1.367 . S
C1680 C1688 1.378 . S
C1681 C1680 1.367 . S
C1681 C1689 1.433 . S
C1682 H1678 0.929 . S
C1682 C1684 1.378 . S
C1682 C1686 1.350 . S
C1683 C1686 1.463 . S
C1683 C1688 1.350 . S
C1683 N1691 1.427 . S
C1684 H1675 0.930 . S
C1684 C1682 1.378 . S
C1684 C1685 1.367 . S
C1685 C1684 1.367 . S
C1685 C1687 1.433 . S
C1686 C1682 1.350 . S
C1686 C1683 1.463 . S
C1686 N1690 1.427 . S
C1687 H1677 0.929 . S
C1687 C1685 1.433 . S
C1687 N1690 1.384 . S
C1688 H1679 0.929 . S
C1688 C1680 1.378 . S
C1688 C1683 1.350 . S
C1689 H1676 0.929 . S
C1689 C1681 1.433 . S
C1689 N1691 1.384 . S
N1690 C1686 1.427 . S
N1690 C1687 1.384 . S
N1691 C1683 1.427 . S
N1691 C1689 1.384 . S
H1692 C1698 0.930 . S
H1693 C1702 0.930 . S
H1694 C1707 0.929 . S
H1695 C1705 0.929 . S
H1696 C1700 0.929 . S
H1697 C1706 0.929 . S
C1698 H1692 0.930 . S
C1698 C1699 1.367 . S
C1698 C1706 1.378 . S
C1699 C1698 1.367 . S
C1699 C1707 1.433 . S
C1700 H1696 0.929 . S
C1700 C1702 1.378 . S
C1700 C1704 1.350 . S
C1701 C1704 1.463 . S
C1701 C1706 1.350 . S
C1701 N1709 1.427 . S
C1702 H1693 0.930 . S
C1702 C1700 1.378 . S
C1702 C1703 1.367 . S
C1703 C1702 1.367 . S
C1703 C1705 1.433 . S
C1704 C1700 1.350 . S
C1704 C1701 1.463 . S
C1704 N1708 1.427 . S
C1705 H1695 0.929 . S
C1705 C1703 1.433 . S
C1705 N1708 1.384 . S
C1706 H1697 0.929 . S
C1706 C1698 1.378 . S
C1706 C1701 1.350 . S
C1707 H1694 0.929 . S
C1707 C1699 1.433 . S
C1707 N1709 1.384 . S
N1708 C1704 1.427 . S
N1708 C1705 1.384 . S
N1709 C1701 1.427 . S
N1709 C1707 1.384 . S
H1710 C1716 0.930 . S
H1711 C1720 0.930 . S
H1712 C1725 0.929 . S
H1713 C1723 0.929 . S
H1714 C1718 0.929 . S
H1715 C1724 0.929 . S
C1716 H1710 0.930 . S
C1716 C1717 1.367 . S
C1716 C1724 1.378 . S
C1717 C1716 1.367 . S
C1717 C1725 1.433 . S
C1718 H1714 0.929 . S
C1718 C1720 1.378 . S
C1718 C1722 1.350 . S
C1719 C1722 1.463 . S
C1719 C1724 1.350 . S
C1719 N1727 1.427 . S
C1720 H1711 0.930 . S
C1720 C1718 1.378 . S
C1720 C1721 1.367 . S
C1721 C1720 1.367 . S
C1721 C1723 1.433 . S
C1722 C1718 1.350 . S
C1722 C1719 1.463 . S
C1722 N1726 1.427 . S
C1723 H1713 0.929 . S
C1723 C1721 1.433 . S
C1723 N1726 1.384 . S
C1724 H1715 0.929 . S
C1724 C1716 1.378 . S
C1724 C1719 1.350 . S
C1725 H1712 0.929 . S
C1725 C1717 1.433 . S
C1725 N1727 1.384 . S
N1726 C1722 1.427 . S
N1726 C1723 1.384 . S
N1727 C1719 1.427 . S
N1727 C1725 1.384 . S
H1728 C1734 0.930 . S
H1729 C1738 0.930 . S
H1730 C1743 0.929 . S
H1731 C1741 0.929 . S
H1732 C1736 0.929 . S
H1733 C1742 0.929 . S
C1734 H1728 0.930 . S
C1734 C1735 1.367 . S
C1734 C1742 1.378 . S
C1735 C1734 1.367 . S
C1735 C1743 1.433 . S
C1736 H1732 0.929 . S
C1736 C1738 1.378 . S
C1736 C1740 1.350 . S
C1737 C1740 1.463 . S
C1737 C1742 1.350 . S
C1737 N1745 1.427 . S
C1738 H1729 0.930 . S
C1738 C1736 1.378 . S
C1738 C1739 1.367 . S
C1739 C1738 1.367 . S
C1739 C1741 1.433 . S
C1740 C1736 1.350 . S
C1740 C1737 1.463 . S
C1740 N1744 1.427 . S
C1741 H1731 0.929 . S
C1741 C1739 1.433 . S
C1741 N1744 1.384 . S
C1742 H1733 0.929 . S
C1742 C1734 1.378 . S
C1742 C1737 1.350 . S
C1743 H1730 0.929 . S
C1743 C1735 1.433 . S
C1743 N1745 1.384 . S
N1744 C1740 1.427 . S
N1744 C1741 1.384 . S
N1745 C1737 1.427 . S
N1745 C1743 1.384 . S
H1746 C1752 0.930 . S
H1747 C1756 0.930 . S
H1748 C1761 0.929 . S
H1749 C1759 0.929 . S
H1750 C1754 0.929 . S
H1751 C1760 0.929 . S
C1752 H1746 0.930 . S
C1752 C1753 1.367 . S
C1752 C1760 1.378 . S
C1753 C1752 1.367 . S
C1753 C1761 1.433 . S
C1754 H1750 0.929 . S
C1754 C1756 1.378 . S
C1754 C1758 1.350 . S
C1755 C1758 1.463 . S
C1755 C1760 1.350 . S
C1755 N1763 1.427 . S
C1756 H1747 0.930 . S
C1756 C1754 1.378 . S
C1756 C1757 1.367 . S
C1757 C1756 1.367 . S
C1757 C1759 1.433 . S
C1758 C1754 1.350 . S
C1758 C1755 1.463 . S
C1758 N1762 1.427 . S
C1759 H1749 0.929 . S
C1759 C1757 1.433 . S
C1759 N1762 1.384 . S
C1760 H1751 0.929 . S
C1760 C1752 1.378 . S
C1760 C1755 1.350 . S
C1761 H1748 0.929 . S
C1761 C1753 1.433 . S
C1761 N1763 1.384 . S
N1762 C1758 1.427 . S
N1762 C1759 1.384 . S
N1763 C1755 1.427 . S
N1763 C1761 1.384 . S
H1764 C1770 0.930 . S
H1765 C1774 0.930 . S
H1766 C1779 0.929 . S
H1767 C1777 0.929 . S
H1768 C1772 0.929 . S
H1769 C1778 0.929 . S
C1770 H1764 0.930 . S
C1770 C1771 1.367 . S
C1770 C1778 1.378 . S
C1771 C1770 1.367 . S
C1771 C1779 1.433 . S
C1772 H1768 0.929 . S
C1772 C1774 1.378 . S
C1772 C1776 1.350 . S
C1773 C1776 1.463 . S
C1773 C1778 1.350 . S
C1773 N1781 1.427 . S
C1774 H1765 0.930 . S
C1774 C1772 1.378 . S
C1774 C1775 1.367 . S
C1775 C1774 1.367 . S
C1775 C1777 1.433 . S
C1776 C1772 1.350 . S
C1776 C1773 1.463 . S
C1776 N1780 1.427 . S
C1777 H1767 0.929 . S
C1777 C1775 1.433 . S
C1777 N1780 1.384 . S
C1778 H1769 0.929 . S
C1778 C1770 1.378 . S
C1778 C1773 1.350 . S
C1779 H1766 0.929 . S
C1779 C1771 1.433 . S
C1779 N1781 1.384 . S
N1780 C1776 1.427 . S
N1780 C1777 1.384 . S
N1781 C1773 1.427 . S
N1781 C1779 1.384 . S
H1782 C1788 0.930 . S
H1783 C1792 0.930 . S
H1784 C1797 0.929 . S
H1785 C1795 0.929 . S
H1786 C1790 0.929 . S
H1787 C1796 0.929 . S
C1788 H1782 0.930 . S
C1788 C1789 1.367 . S
C1788 C1796 1.378 . S
C1789 C1788 1.367 . S
C1789 C1797 1.433 . S
C1790 H1786 0.929 . S
C1790 C1792 1.378 . S
C1790 C1794 1.350 . S
C1791 C1794 1.463 . S
C1791 C1796 1.350 . S
C1791 N1799 1.427 . S
C1792 H1783 0.930 . S
C1792 C1790 1.378 . S
C1792 C1793 1.367 . S
C1793 C1792 1.367 . S
C1793 C1795 1.433 . S
C1794 C1790 1.350 . S
C1794 C1791 1.463 . S
C1794 N1798 1.427 . S
C1795 H1785 0.929 . S
C1795 C1793 1.433 . S
C1795 N1798 1.384 . S
C1796 H1787 0.929 . S
C1796 C1788 1.378 . S
C1796 C1791 1.350 . S
C1797 H1784 0.929 . S
C1797 C1789 1.433 . S
C1797 N1799 1.384 . S
N1798 C1794 1.427 . S
N1798 C1795 1.384 . S
N1799 C1791 1.427 . S
N1799 C1797 1.384 . S
H1800 C1806 0.930 . S
H1801 C1810 0.930 . S
H1802 C1815 0.929 . S
H1803 C1813 0.929 . S
H1804 C1808 0.929 . S
H1805 C1814 0.929 . S
C1806 H1800 0.930 . S
C1806 C1807 1.367 . S
C1806 C1814 1.378 . S
C1807 C1806 1.367 . S
C1807 C1815 1.433 . S
C1808 H1804 0.929 . S
C1808 C1810 1.378 . S
C1808 C1812 1.350 . S
C1809 C1812 1.463 . S
C1809 C1814 1.350 . S
C1809 N1817 1.427 . S
C1810 H1801 0.930 . S
C1810 C1808 1.378 . S
C1810 C1811 1.367 . S
C1811 C1810 1.367 . S
C1811 C1813 1.433 . S
C1812 C1808 1.350 . S
C1812 C1809 1.463 . S
C1812 N1816 1.427 . S
C1813 H1803 0.929 . S
C1813 C1811 1.433 . S
C1813 N1816 1.384 . S
C1814 H1805 0.929 . S
C1814 C1806 1.378 . S
C1814 C1809 1.350 . S
C1815 H1802 0.929 . S
C1815 C1807 1.433 . S
C1815 N1817 1.384 . S
N1816 C1812 1.427 . S
N1816 C1813 1.384 . S
N1817 C1809 1.427 . S
N1817 C1815 1.384 . S
H1818 C1824 0.930 . S
H1819 C1828 0.930 . S
H1820 C1833 0.929 . S
H1821 C1831 0.929 . S
H1822 C1826 0.929 . S
H1823 C1832 0.929 . S
C1824 H1818 0.930 . S
C1824 C1825 1.367 . S
C1824 C1832 1.378 . S
C1825 C1824 1.367 . S
C1825 C1833 1.433 . S
C1826 H1822 0.929 . S
C1826 C1828 1.378 . S
C1826 C1830 1.350 . S
C1827 C1830 1.463 . S
C1827 C1832 1.350 . S
C1827 N1835 1.427 . S
C1828 H1819 0.930 . S
C1828 C1826 1.378 . S
C1828 C1829 1.367 . S
C1829 C1828 1.367 . S
C1829 C1831 1.433 . S
C1830 C1826 1.350 . S
C1830 C1827 1.463 . S
C1830 N1834 1.427 . S
C1831 H1821 0.929 . S
C1831 C1829 1.433 . S
C1831 N1834 1.384 . S
C1832 H1823 0.929 . S
C1832 C1824 1.378 . S
C1832 C1827 1.350 . S
C1833 H1820 0.929 . S
C1833 C1825 1.433 . S
C1833 N1835 1.384 . S
N1834 C1830 1.427 . S
N1834 C1831 1.384 . S
N1835 C1827 1.427 . S
N1835 C1833 1.384 . S
H1836 C1842 0.930 . S
H1837 C1846 0.930 . S
H1838 C1851 0.929 . S
H1839 C1849 0.929 . S
H1840 C1844 0.929 . S
H1841 C1850 0.929 . S
C1842 H1836 0.930 . S
C1842 C1843 1.367 . S
C1842 C1850 1.378 . S
C1843 C1842 1.367 . S
C1843 C1851 1.433 . S
C1844 H1840 0.929 . S
C1844 C1846 1.378 . S
C1844 C1848 1.350 . S
C1845 C1848 1.463 . S
C1845 C1850 1.350 . S
C1845 N1853 1.427 . S
C1846 H1837 0.930 . S
C1846 C1844 1.378 . S
C1846 C1847 1.367 . S
C1847 C1846 1.367 . S
C1847 C1849 1.433 . S
C1848 C1844 1.350 . S
C1848 C1845 1.463 . S
C1848 N1852 1.427 . S
C1849 H1839 0.929 . S
C1849 C1847 1.433 . S
C1849 N1852 1.384 . S
C1850 H1841 0.929 . S
C1850 C1842 1.378 . S
C1850 C1845 1.350 . S
C1851 H1838 0.929 . S
C1851 C1843 1.433 . S
C1851 N1853 1.384 . S
N1852 C1848 1.427 . S
N1852 C1849 1.384 . S
N1853 C1845 1.427 . S
N1853 C1851 1.384 . S
H1854 C1860 0.930 . S
H1855 C1864 0.930 . S
H1856 C1869 0.929 . S
H1857 C1867 0.929 . S
H1858 C1862 0.929 . S
H1859 C1868 0.929 . S
C1860 H1854 0.930 . S
C1860 C1861 1.367 . S
C1860 C1868 1.378 . S
C1861 C1860 1.367 . S
C1861 C1869 1.433 . S
C1862 H1858 0.929 . S
C1862 C1864 1.378 . S
C1862 C1866 1.350 . S
C1863 C1866 1.463 . S
C1863 C1868 1.350 . S
C1863 N1871 1.427 . S
C1864 H1855 0.930 . S
C1864 C1862 1.378 . S
C1864 C1865 1.367 . S
C1865 C1864 1.367 . S
C1865 C1867 1.433 . S
C1866 C1862 1.350 . S
C1866 C1863 1.463 . S
C1866 N1870 1.427 . S
C1867 H1857 0.929 . S
C1867 C1865 1.433 . S
C1867 N1870 1.384 . S
C1868 H1859 0.929 . S
C1868 C1860 1.378 . S
C1868 C1863 1.350 . S
C1869 H1856 0.929 . S
C1869 C1861 1.433 . S
C1869 N1871 1.384 . S
N1870 C1866 1.427 . S
N1870 C1867 1.384 . S
N1871 C1863 1.427 . S
N1871 C1869 1.384 . S
H1872 C1878 0.930 . S
H1873 C1882 0.930 . S
H1874 C1887 0.929 . S
H1875 C1885 0.929 . S
H1876 C1880 0.929 . S
H1877 C1886 0.929 . S
C1878 H1872 0.930 . S
C1878 C1879 1.367 . S
C1878 C1886 1.378 . S
C1879 C1878 1.367 . S
C1879 C1887 1.433 . S
C1880 H1876 0.929 . S
C1880 C1882 1.378 . S
C1880 C1884 1.350 . S
C1881 C1884 1.463 . S
C1881 C1886 1.350 . S
C1881 N1889 1.427 . S
C1882 H1873 0.930 . S
C1882 C1880 1.378 . S
C1882 C1883 1.367 . S
C1883 C1882 1.367 . S
C1883 C1885 1.433 . S
C1884 C1880 1.350 . S
C1884 C1881 1.463 . S
C1884 N1888 1.427 . S
C1885 H1875 0.929 . S
C1885 C1883 1.433 . S
C1885 N1888 1.384 . S
C1886 H1877 0.929 . S
C1886 C1878 1.378 . S
C1886 C1881 1.350 . S
C1887 H1874 0.929 . S
C1887 C1879 1.433 . S
C1887 N1889 1.384 . S
N1888 C1884 1.427 . S
N1888 C1885 1.384 . S
N1889 C1881 1.427 . S
N1889 C1887 1.384 . S
H1890 C1896 0.930 . S
H1891 C1900 0.930 . S
H1892 C1905 0.929 . S
H1893 C1903 0.929 . S
H1894 C1898 0.929 . S
H1895 C1904 0.929 . S
C1896 H1890 0.930 . S
C1896 C1897 1.367 . S
C1896 C1904 1.378 . S
C1897 C1896 1.367 . S
C1897 C1905 1.433 . S
C1898 H1894 0.929 . S
C1898 C1900 1.378 . S
C1898 C1902 1.350 . S
C1899 C1902 1.463 . S
C1899 C1904 1.350 . S
C1899 N1907 1.427 . S
C1900 H1891 0.930 . S
C1900 C1898 1.378 . S
C1900 C1901 1.367 . S
C1901 C1900 1.367 . S
C1901 C1903 1.433 . S
C1902 C1898 1.350 . S
C1902 C1899 1.463 . S
C1902 N1906 1.427 . S
C1903 H1893 0.929 . S
C1903 C1901 1.433 . S
C1903 N1906 1.384 . S
C1904 H1895 0.929 . S
C1904 C1896 1.378 . S
C1904 C1899 1.350 . S
C1905 H1892 0.929 . S
C1905 C1897 1.433 . S
C1905 N1907 1.384 . S
N1906 C1902 1.427 . S
N1906 C1903 1.384 . S
N1907 C1899 1.427 . S
N1907 C1905 1.384 . S
H1908 C1914 0.930 . S
H1909 C1918 0.930 . S
H1910 C1923 0.929 . S
H1911 C1921 0.929 . S
H1912 C1916 0.929 . S
H1913 C1922 0.929 . S
C1914 H1908 0.930 . S
C1914 C1915 1.367 . S
C1914 C1922 1.378 . S
C1915 C1914 1.367 . S
C1915 C1923 1.433 . S
C1916 H1912 0.929 . S
C1916 C1918 1.378 . S
C1916 C1920 1.350 . S
C1917 C1920 1.463 . S
C1917 C1922 1.350 . S
C1917 N1925 1.427 . S
C1918 H1909 0.930 . S
C1918 C1916 1.378 . S
C1918 C1919 1.367 1_554 S
C1919 C1918 1.367 1_556 S
C1919 C1921 1.433 . S
C1920 C1916 1.350 . S
C1920 C1917 1.463 . S
C1920 N1924 1.426 1_554 S
C1921 H1911 0.929 . S
C1921 C1919 1.433 . S
C1921 N1924 1.385 . S
C1922 H1913 0.929 . S
C1922 C1914 1.378 . S
C1922 C1917 1.350 . S
C1923 H1910 0.929 . S
C1923 C1915 1.433 . S
C1923 N1925 1.384 . S
N1924 C1920 1.426 1_556 S
N1924 C1921 1.385 . S
N1925 C1917 1.427 . S
N1925 C1923 1.384 . S
H1926 C1932 0.930 . S
H1927 C1936 0.930 . S
H1928 C1941 0.929 . S
H1929 C1939 0.929 . S
H1930 C1934 0.929 . S
H1931 C1940 0.929 . S
C1932 H1926 0.930 . S
C1932 C1933 1.367 . S
C1932 C1940 1.378 . S
C1933 C1932 1.367 . S
C1933 C1941 1.433 . S
C1934 H1930 0.929 . S
C1934 C1936 1.378 . S
C1934 C1938 1.350 . S
C1935 C1938 1.463 . S
C1935 C1940 1.350 . S
C1935 N1943 1.427 . S
C1936 H1927 0.930 . S
C1936 C1934 1.378 . S
C1936 C1937 1.367 . S
C1937 C1936 1.367 . S
C1937 C1939 1.433 . S
C1938 C1934 1.350 . S
C1938 C1935 1.463 . S
C1938 N1942 1.427 . S
C1939 H1929 0.929 . S
C1939 C1937 1.433 . S
C1939 N1942 1.384 . S
C1940 H1931 0.929 . S
C1940 C1932 1.378 . S
C1940 C1935 1.350 . S
C1941 H1928 0.929 . S
C1941 C1933 1.433 . S
C1941 N1943 1.384 . S
N1942 C1938 1.427 . S
N1942 C1939 1.384 . S
N1943 C1935 1.427 . S
N1943 C1941 1.384 . S
H1944 C1950 0.930 . S
H1945 C1954 0.930 . S
H1946 C1959 0.929 . S
H1947 C1957 0.929 . S
H1948 C1952 0.929 . S
H1949 C1958 0.929 . S
C1950 H1944 0.930 . S
C1950 C1951 1.367 . S
C1950 C1958 1.378 . S
C1951 C1950 1.367 . S
C1951 C1959 1.433 . S
C1952 H1948 0.929 . S
C1952 C1954 1.378 1_554 S
C1952 C1956 1.350 . S
C1953 C1956 1.463 . S
C1953 C1958 1.350 . S
C1953 N1961 1.427 . S
C1954 H1945 0.930 . S
C1954 C1952 1.378 1_556 S
C1954 C1955 1.367 . S
C1955 C1954 1.367 . S
C1955 C1957 1.433 1_556 S
C1956 C1952 1.350 . S
C1956 C1953 1.463 . S
C1956 N1960 1.427 . S
C1957 H1947 0.929 . S
C1957 C1955 1.433 1_554 S
C1957 N1960 1.384 . S
C1958 H1949 0.929 . S
C1958 C1950 1.378 . S
C1958 C1953 1.350 . S
C1959 H1946 0.929 . S
C1959 C1951 1.433 . S
C1959 N1961 1.384 . S
N1960 C1956 1.427 . S
N1960 C1957 1.384 . S
N1961 C1953 1.427 . S
N1961 C1959 1.384 . S
C673 C7 1.500 . S
C677 C571 1.501 . S
C695 C543 1.774 . S
C691 C39 1.757 . S
C713 C563 1.563 . S
C709 C62 1.560 . S
C727 C76 1.821 . S
C731 C633 1.813 . S
C745 C108 1.505 . S
C749 C641 1.509 1_455 S
C763 N117 1.388 . S
C767 C661 1.384 . S
C785 C617 1.455 . S
C781 C16 1.472 . S
C799 C30 1.811 . S
C803 C589 1.771 . S
C821 C605 1.499 . S
C817 C53 1.511 . S
C835 C85 1.780 1_565 S
C839 C507 1.782 . S
C857 C519 1.649 . S
C853 C99 1.677 . S
C871 N127 1.326 . S
C875 C535 1.371 . S
C889 N150 1.213 . S
C893 C655 1.229 . S
C911 C627 1.548 . S
C907 N173 1.528 . S
C929 C647 1.413 . S
C925 C200 1.392 . S
C943 C214 1.643 . S
C947 C465 1.644 . S
C961 N232 1.558 . S
C965 C473 1.569 . S
C979 C260 1.535 . S
C983 C493 1.526 1_565 S
C1001 C449 1.303 . S
C997 N140 1.275 . S
C1015 N163 1.281 . S
C1019 C421 1.294 . S
C1037 C437 1.590 . S
C1033 C191 1.594 . S
C1055 C591 1.882 . S
C1051 C223 1.888 . S
C1073 C603 1.502 . S
C1069 N242 1.454 . S
C1091 C619 1.544 . S
C1087 C269 1.552 . S
C1105 N288 1.355 . S
C1109 C487 1.371 . S
C1123 C315 1.504 . S
C1127 C459 1.532 . S
C1141 C338 1.641 . S
C1145 C479 1.641 . S
C1159 C352 1.834 . S
C1163 C549 1.831 . S
C1181 C557 1.614 . S
C1177 N370 1.605 . S
C1199 C577 1.603 1_655 S
C1195 C398 1.602 . S
C1217 C533 1.265 . S
C1213 N278 1.223 . S
C1231 C306 1.713 . S
C1235 C505 1.679 . S
C1249 C329 1.615 . S
C1253 C521 1.611 . S
C1271 C423 1.534 . S
C1267 C361 1.539 . S
C1285 N380 1.495 . S
C1289 C435 1.521 . S
C1307 C451 1.512 . S
C1303 C407 1.516 . S
C1325 C463 1.390 . S
C1321 N12 1.369 . S
C1339 N25 1.536 . S
C1343 C478 1.549 . S
C1361 C491 1.328 . S
C1357 N48 1.337 . S
C1379 C492 1.367 . S
C1375 N81 1.350 . S
C1397 C464 1.523 . S
C1393 N94 1.471 . S
C1415 C477 1.560 . S
C1411 C131 1.587 . S
C1433 C417 1.411 . S
C1429 N2 1.396 . S
C1447 N35 1.457 . S
C1451 C436 1.502 . S
C1465 N58 1.323 . S
C1469 C445 1.359 . S
C1487 C450 1.333 . S
C1483 N71 1.280 . S
C1505 C422 1.367 . S
C1501 N104 1.339 . S
C1523 C431 1.606 . S
C1519 C122 1.602 . S
C1537 C145 1.997 . S
C1541 C547 1.967 . S
C1555 C168 1.695 . S
C1559 C562 1.698 . S
C1573 N186 1.443 . S
C1577 C575 1.438 . S
C1595 C576 1.392 . S
C1591 N219 1.378 . S
C1613 C548 1.758 . S
C1609 C246 1.745 . S
C1631 C561 1.474 . S
C1627 N265 1.491 . S
C1649 C501 1.909 . S
C1645 C154 1.908 . S
C1663 C177 1.804 . S
C1667 C520 1.791 . S
C1681 N196 1.306 . S
C1685 C529 1.343 . S
C1699 N209 1.197 . S
C1703 C534 1.253 . S
C1717 C237 1.786 . S
C1721 C506 1.783 . S
C1739 C515 1.454 . S
C1735 N255 1.405 . S
C1753 C283 1.771 . S
C1757 C631 1.730 . S
C1771 N301 1.413 . S
C1775 C646 1.431 . S
C1789 N324 1.333 . S
C1793 C659 1.323 . S
C1811 C660 1.210 . S
C1807 N357 1.187 . S
C1829 C632 1.726 . S
C1825 C384 1.724 . S
C1843 N403 1.344 . S
C1847 C645 1.329 . S
C1861 C292 1.863 . S
C1865 C585 1.865 . S
C1883 C604 1.367 . S
C1879 N311 1.336 . S
C1897 N334 1.417 . S
C1901 C613 1.461 . S
C1915 N347 1.337 . S
C1919 C618 1.370 . S
C1937 C590 1.827 1_554 S
C1933 C375 1.832 . S
C1951 N393 1.348 . S
C1955 C599 1.401 . S
