# Generated by pormake.
# Topology pto, (3,4)-cn, num edge types: 1
# Building blocks:
#     Node 0, Type 0, BuildingBlock: OLANEW_clean_sbu_2, # of connection points: 3
#     Node 1, Type 0, BuildingBlock: OLANEW_clean_sbu_2, # of connection points: 3
#     Node 2, Type 0, BuildingBlock: OLANEW_clean_sbu_2, # of connection points: 3
#     Node 3, Type 0, BuildingBlock: OLANEW_clean_sbu_2, # of connection points: 3
#     Node 4, Type 0, BuildingBlock: OLANEW_clean_sbu_2, # of connection points: 3
#     Node 5, Type 0, BuildingBlock: OLANEW_clean_sbu_2, # of connection points: 3
#     Node 6, Type 0, BuildingBlock: OLANEW_clean_sbu_2, # of connection points: 3
#     Node 7, Type 0, BuildingBlock: OLANEW_clean_sbu_2, # of connection points: 3
#     Node 8, Type 1, BuildingBlock: KOZSID_clean_sbu_0, # of connection points: 4
#     Node 9, Type 1, BuildingBlock: KOZSID_clean_sbu_0, # of connection points: 4
#     Node 10, Type 1, BuildingBlock: KOZSID_clean_sbu_0, # of connection points: 4
#     Node 11, Type 1, BuildingBlock: KOZSID_clean_sbu_0, # of connection points: 4
#     Node 12, Type 1, BuildingBlock: KOZSID_clean_sbu_0, # of connection points: 4
#     Node 13, Type 1, BuildingBlock: KOZSID_clean_sbu_0, # of connection points: 4
#     Edge 14, Type (0, 1), BuildingBlock: CIFDUS_clean_linker_0, # of connection points: 2
#     Edge 15, Type (0, 1), BuildingBlock: CIFDUS_clean_linker_0, # of connection points: 2
#     Edge 16, Type (0, 1), BuildingBlock: CIFDUS_clean_linker_0, # of connection points: 2
#     Edge 17, Type (0, 1), BuildingBlock: CIFDUS_clean_linker_0, # of connection points: 2
#     Edge 18, Type (0, 1), BuildingBlock: CIFDUS_clean_linker_0, # of connection points: 2
#     Edge 19, Type (0, 1), BuildingBlock: CIFDUS_clean_linker_0, # of connection points: 2
#     Edge 20, Type (0, 1), BuildingBlock: CIFDUS_clean_linker_0, # of connection points: 2
#     Edge 21, Type (0, 1), BuildingBlock: CIFDUS_clean_linker_0, # of connection points: 2
#     Edge 22, Type (0, 1), BuildingBlock: CIFDUS_clean_linker_0, # of connection points: 2
#     Edge 23, Type (0, 1), BuildingBlock: CIFDUS_clean_linker_0, # of connection points: 2
#     Edge 24, Type (0, 1), BuildingBlock: CIFDUS_clean_linker_0, # of connection points: 2
#     Edge 25, Type (0, 1), BuildingBlock: CIFDUS_clean_linker_0, # of connection points: 2
#     Edge 26, Type (0, 1), BuildingBlock: CIFDUS_clean_linker_0, # of connection points: 2
#     Edge 27, Type (0, 1), BuildingBlock: CIFDUS_clean_linker_0, # of connection points: 2
#     Edge 28, Type (0, 1), BuildingBlock: CIFDUS_clean_linker_0, # of connection points: 2
#     Edge 29, Type (0, 1), BuildingBlock: CIFDUS_clean_linker_0, # of connection points: 2
#     Edge 30, Type (0, 1), BuildingBlock: CIFDUS_clean_linker_0, # of connection points: 2
#     Edge 31, Type (0, 1), BuildingBlock: CIFDUS_clean_linker_0, # of connection points: 2
#     Edge 32, Type (0, 1), BuildingBlock: CIFDUS_clean_linker_0, # of connection points: 2
#     Edge 33, Type (0, 1), BuildingBlock: CIFDUS_clean_linker_0, # of connection points: 2
#     Edge 34, Type (0, 1), BuildingBlock: CIFDUS_clean_linker_0, # of connection points: 2
#     Edge 35, Type (0, 1), BuildingBlock: CIFDUS_clean_linker_0, # of connection points: 2
#     Edge 36, Type (0, 1), BuildingBlock: CIFDUS_clean_linker_0, # of connection points: 2
#     Edge 37, Type (0, 1), BuildingBlock: CIFDUS_clean_linker_0, # of connection points: 2
# Relax obj value: 0.009
# Max RMSD: 0.122
# Mean RMSD: 0.051
data_MOF--net-pto--node1-OLANEW_clean_sbu_2--node2-KOZSID_clean_sbu_0--edge1-CIFDUS_clean_linker_0
_symmetry_space_group_name_H-M    P1
_symmetry_Int_Tables_number       1
_symmetry_cell_setting            triclinic
loop_
_symmetry_equiv_pos_as_xyz
'x, y, z'
_cell_length_a     35.431124
_cell_length_b     49.507965
_cell_length_c     42.249271
_cell_angle_alpha  90.345357
_cell_angle_beta   86.790702
_cell_angle_gamma 108.97915
loop_
_atom_site_label
_atom_site_type_symbol
_atom_site_fract_x
_atom_site_fract_y
_atom_site_fract_z
_atom_type_partial_charge
O0 O 0.39279 0.35432 0.29064 0.0
Cd1 Cd 0.34819 0.34749 0.33824 0.0
O2 O 0.35731 0.3727 0.26144 0.0
Cd3 Cd 0.31267 0.37674 0.2973 0.0
O4 O 0.26714 0.39753 0.30546 0.0
C5 C 0.26773 0.41544 0.28382 0.0
O6 O 0.29473 0.41959 0.26011 0.0
C7 C 0.387 0.36396 0.26416 0.0
C8 C 0.36025 0.30656 0.3782 0.0
O9 O 0.33755 0.29924 0.35491 0.0
O10 O 0.37706 0.3333 0.3829 0.0
O11 O 0.30942 0.88053 0.78476 0.0
Cd12 Cd 0.26543 0.88069 0.74229 0.0
O13 O 0.35546 0.8731 0.75211 0.0
Cd14 Cd 0.31017 0.85533 0.718 0.0
O15 O 0.26122 0.81553 0.71192 0.0
C16 C 0.26341 0.79482 0.72854 0.0
O17 O 0.294 0.79915 0.74639 0.0
C18 C 0.34439 0.87903 0.77967 0.0
C19 C 0.2925 0.93274 0.70902 0.0
O20 O 0.26902 0.92933 0.73395 0.0
O21 O 0.30312 0.91147 0.69966 0.0
O22 O 0.76197 0.77495 0.38068 0.0
Cd23 Cd 0.73936 0.73439 0.34482 0.0
O24 O 0.75341 0.80377 0.34437 0.0
Cd25 Cd 0.73591 0.77398 0.30541 0.0
O26 O 0.71309 0.77189 0.25819 0.0
C27 C 0.70184 0.79309 0.25204 0.0
O28 O 0.70458 0.81253 0.27391 0.0
C29 C 0.76268 0.79972 0.37217 0.0
C30 C 0.78389 0.69701 0.34336 0.0
O31 O 0.79265 0.71836 0.3241 0.0
O32 O 0.75448 0.69363 0.36374 0.0
O33 O 0.80132 0.34953 0.64167 0.0
Cd34 Cd 0.75711 0.30467 0.6215 0.0
O35 O 0.79019 0.33346 0.69076 0.0
Cd36 Cd 0.79144 0.33989 0.74189 0.0
O37 O 0.77156 0.34459 0.79081 0.0
C38 C 0.73496 0.3425 0.79548 0.0
O39 O 0.7123 0.33782 0.77111 0.0
C40 C 0.80678 0.35365 0.67101 0.0
C41 C 0.78119 0.25666 0.62745 0.0
O42 O 0.79345 0.27372 0.60356 0.0
O43 O 0.75853 0.26281 0.64906 0.0
O44 O 0.72183 0.78253 0.612 0.0
Cd45 Cd 0.69978 0.73231 0.62866 0.0
O46 O 0.71248 0.79375 0.66124 0.0
Cd47 Cd 0.70626 0.81819 0.70362 0.0
O48 O 0.69817 0.83042 0.75282 0.0
C49 C 0.66409 0.83044 0.76393 0.0
O50 O 0.63424 0.82415 0.74509 0.0
C51 C 0.72243 0.80159 0.63245 0.0
C52 C 0.76121 0.70881 0.63167 0.0
O53 O 0.74222 0.707 0.60637 0.0
O54 O 0.75154 0.72212 0.65524 0.0
O55 O 0.93166 0.30021 0.33326 0.0
Cd56 Cd 0.94253 0.25443 0.32304 0.0
O57 O 0.88552 0.29112 0.29863 0.0
Cd58 Cd 0.84434 0.30046 0.26686 0.0
O59 O 0.79838 0.30505 0.23689 0.0
C60 C 0.80623 0.32469 0.21591 0.0
O61 O 0.8428 0.34275 0.21235 0.0
C62 C 0.90709 0.30825 0.31811 0.0
C63 C 0.89998 0.20774 0.36176 0.0
O64 O 0.93214 0.22624 0.37066 0.0
O65 O 0.88714 0.21185 0.33503 0.0
O66 O 0.26996 0.38021 0.84481 0.0
Cd67 Cd 0.21458 0.37064 0.80955 0.0
O68 O 0.29372 0.35879 0.80728 0.0
Cd69 Cd 0.33123 0.33603 0.7847 0.0
O70 O 0.34267 0.30457 0.7525 0.0
C71 C 0.31586 0.28018 0.75214 0.0
O72 O 0.2842 0.27503 0.77183 0.0
C73 C 0.29724 0.3705 0.8343 0.0
C74 C 0.18384 0.41472 0.79858 0.0
O75 O 0.17022 0.39718 0.82193 0.0
O76 O 0.21302 0.41199 0.78096 0.0
O77 O 0.44788 0.87123 0.28458 0.0
Cd78 Cd 0.43472 0.86749 0.34208 0.0
O79 O 0.39141 0.83614 0.28368 0.0
Cd80 Cd 0.34331 0.80149 0.26395 0.0
O81 O 0.28959 0.76443 0.26016 0.0
C82 C 0.28911 0.74011 0.27007 0.0
O83 O 0.3217 0.7376 0.28123 0.0
C84 C 0.42154 0.85363 0.26873 0.0
C85 C 0.42819 0.91699 0.37021 0.0
O86 O 0.46157 0.91203 0.36835 0.0
O87 O 0.39795 0.89873 0.35831 0.0
C88 C 0.08464 0.59246 0.32963 0.0
C89 C 0.09982 0.60918 0.35546 0.0
C90 C 0.07177 0.60008 0.38027 0.0
C91 C 0.04104 0.57842 0.36831 0.0
N92 N 0.04837 0.5733 0.3376 0.0
Co93 Co 0.01156 0.54485 0.31099 0.0
N94 N 0.98139 0.52341 0.34863 0.0
C95 C 0.98063 0.53328 0.37826 0.0
C96 C 0.95822 0.51235 0.39937 0.0
C97 C 0.94433 0.48798 0.3817 0.0
C98 C 0.95914 0.49555 0.35085 0.0
N99 N 0.97429 0.5164 0.28467 0.0
C100 C 0.95197 0.48927 0.29237 0.0
C101 C 0.93093 0.47573 0.26686 0.0
C102 C 0.94069 0.49545 0.24239 0.0
C103 C 0.96713 0.51977 0.2543 0.0
N104 N 0.04157 0.56613 0.27307 0.0
C105 C 0.02824 0.56426 0.24363 0.0
C106 C 0.05605 0.58139 0.22208 0.0
C107 C 0.08857 0.59504 0.23915 0.0
C108 C 0.07863 0.58561 0.27038 0.0
N109 N 0.04681 0.52165 0.3106 0.0
C110 C 0.09802 0.48889 0.31013 0.0
C111 C 0.08151 0.49375 0.28219 0.0
C112 C 0.05603 0.51016 0.28293 0.0
C113 C 0.08806 0.50063 0.33834 0.0
C114 C 0.06249 0.51693 0.33806 0.0
N115 N 0.97651 0.56831 0.31147 0.0
C116 C 0.96891 0.61463 0.30681 0.0
C117 C 0.92748 0.60276 0.31243 0.0
C118 C 0.91104 0.57318 0.3177 0.0
C119 C 0.93606 0.55632 0.31698 0.0
C120 C 0.99276 0.59715 0.30648 0.0
H121 H 0.92275 0.53357 0.32088 0.0
H122 H 0.02453 0.60712 0.3023 0.0
H123 H 0.04381 0.5136 0.2611 0.0
H124 H 0.05547 0.52579 0.3601 0.0
C125 C 0.00832 0.55965 0.38606 0.0
C126 C 0.10338 0.59717 0.29729 0.0
C127 C 0.95068 0.47647 0.32372 0.0
C128 C 0.9926 0.54296 0.23633 0.0
H129 H 0.12791 0.62644 0.3562 0.0
H130 H 0.0741 0.60778 0.40434 0.0
H131 H 0.95444 0.51407 0.42482 0.0
H132 H 0.92587 0.46708 0.3904 0.0
H133 H 0.91126 0.45391 0.26576 0.0
H134 H 0.93166 0.4918 0.21825 0.0
H135 H 0.05362 0.58302 0.19679 0.0
H136 H 0.11621 0.61032 0.22967 0.0
H137 H 0.08805 0.48481 0.2599 0.0
H138 H 0.10043 0.49768 0.36042 0.0
H139 H 0.98301 0.63742 0.30314 0.0
H140 H 0.8791 0.56311 0.32194 0.0
C141 C 0.05516 0.63734 0.73781 0.0
C142 C 0.05673 0.65029 0.76717 0.0
C143 C 0.02862 0.63155 0.78687 0.0
C144 C 0.01136 0.60842 0.76847 0.0
N145 N 0.02703 0.61105 0.73824 0.0
Co146 Co 0.00871 0.58329 0.70293 0.0
N147 N 0.96669 0.55598 0.73177 0.0
C148 C 0.96005 0.55886 0.76328 0.0
C149 C 0.92968 0.53652 0.7769 0.0
C150 C 0.91628 0.51809 0.75275 0.0
C151 C 0.93947 0.53026 0.72567 0.0
N152 N 0.98936 0.55619 0.6673 0.0
C153 C 0.95962 0.53069 0.6671 0.0
C154 C 0.95687 0.51858 0.63717 0.0
C155 C 0.98531 0.53723 0.61774 0.0
C156 C 0.00398 0.55948 0.63677 0.0
N157 N 0.05164 0.61002 0.67438 0.0
C158 C 0.06092 0.60585 0.64366 0.0
C159 C 0.09242 0.62757 0.63034 0.0
C160 C 0.10393 0.64693 0.65391 0.0
C161 C 0.07843 0.6359 0.68029 0.0
N162 N 0.04665 0.56315 0.71385 0.0
C163 C 0.09476 0.53035 0.73043 0.0
C164 C 0.08875 0.53471 0.69868 0.0
C165 C 0.06504 0.5512 0.69098 0.0
C166 C 0.07768 0.54378 0.75355 0.0
C167 C 0.05396 0.55981 0.74486 0.0
N168 N 0.97079 0.60337 0.69227 0.0
C169 C 0.94608 0.62992 0.65527 0.0
C170 C 0.92057 0.6354 0.67908 0.0
C171 C 0.9197 0.6237 0.7092 0.0
C172 C 0.94473 0.60793 0.7152 0.0
C173 C 0.97074 0.6139 0.66233 0.0
H174 H 0.94264 0.59989 0.73872 0.0
H175 H 0.98987 0.6106 0.64334 0.0
H176 H 0.06152 0.55355 0.66639 0.0
H177 H 0.04148 0.56892 0.76383 0.0
C178 C 0.98103 0.58366 0.77897 0.0
C179 C 0.08045 0.65108 0.71014 0.0
C180 C 0.9341 0.51673 0.69467 0.0
C181 C 0.03749 0.58248 0.62727 0.0
H182 H 0.07601 0.67121 0.77363 0.0
H183 H 0.02146 0.63451 0.81162 0.0
H184 H 0.9182 0.53414 0.80137 0.0
H185 H 0.89193 0.49807 0.75484 0.0
H186 H 0.93697 0.49811 0.63008 0.0
H187 H 0.99231 0.53452 0.5929 0.0
H188 H 0.10491 0.62943 0.60616 0.0
H189 H 0.12803 0.66709 0.65177 0.0
H190 H 0.1013 0.5248 0.67979 0.0
H191 H 0.08231 0.54182 0.77844 0.0
H192 H 0.94773 0.63846 0.63151 0.0
H193 H 0.89967 0.62664 0.72824 0.0
C194 C 0.3956 0.08241 0.57439 0.0
C195 C 0.43142 0.08076 0.58442 0.0
C196 C 0.46121 0.10195 0.56878 0.0
C197 C 0.44199 0.11532 0.55019 0.0
N198 N 0.40166 0.10419 0.55327 0.0
Co199 Co 0.36232 0.11632 0.52938 0.0
N200 N 0.40619 0.14789 0.50678 0.0
C201 C 0.44588 0.15514 0.51078 0.0
C202 C 0.46865 0.17821 0.49277 0.0
C203 C 0.44194 0.18644 0.47649 0.0
C204 C 0.40423 0.16783 0.48559 0.0
N205 N 0.32302 0.12762 0.50457 0.0
C206 C 0.32893 0.14894 0.48293 0.0
C207 C 0.29304 0.14942 0.47166 0.0
C208 C 0.26354 0.12753 0.4864 0.0
C209 C 0.28287 0.11504 0.50586 0.0
N210 N 0.31829 0.08565 0.55297 0.0
C211 C 0.27851 0.07944 0.55021 0.0
C212 C 0.25545 0.05714 0.56905 0.0
C213 C 0.282 0.04848 0.58489 0.0
C214 C 0.31999 0.06622 0.57485 0.0
N215 N 0.35919 0.14366 0.56316 0.0
C216 C 0.35564 0.1833 0.61045 0.0
C217 C 0.32119 0.16701 0.59595 0.0
C218 C 0.32362 0.14749 0.57251 0.0
C219 C 0.39177 0.17922 0.60106 0.0
C220 C 0.39284 0.15945 0.57767 0.0
N221 N 0.36574 0.08882 0.49571 0.0
C222 C 0.33557 0.04499 0.46765 0.0
C223 C 0.37286 0.04559 0.45424 0.0
C224 C 0.406 0.0692 0.46045 0.0
C225 C 0.40186 0.09024 0.48111 0.0
C226 C 0.33265 0.06684 0.4878 0.0
H227 H 0.42861 0.10711 0.48531 0.0
H228 H 0.30342 0.06509 0.49727 0.0
H229 H 0.29639 0.13584 0.56219 0.0
H230 H 0.42131 0.15736 0.57177 0.0
C231 C 0.46088 0.13903 0.53058 0.0
C232 C 0.35665 0.06287 0.58571 0.0
C233 C 0.36759 0.16973 0.47309 0.0
C234 C 0.26385 0.09322 0.52764 0.0
H235 H 0.43558 0.06578 0.60134 0.0
H236 H 0.49309 0.10708 0.57082 0.0
H237 H 0.50087 0.18777 0.49143 0.0
H238 H 0.44939 0.20405 0.45969 0.0
H239 H 0.2884 0.16439 0.455 0.0
H240 H 0.23167 0.12191 0.48393 0.0
H241 H 0.22322 0.04771 0.57035 0.0
H242 H 0.27407 0.03061 0.60135 0.0
H243 H 0.29252 0.1696 0.60226 0.0
H244 H 0.41917 0.19101 0.61196 0.0
H245 H 0.30879 0.02732 0.46356 0.0
H246 H 0.43537 0.07136 0.44978 0.0
C247 C 0.51013 0.88307 0.06679 0.0
C248 C 0.51662 0.91044 0.07819 0.0
C249 C 0.54486 0.92847 0.05788 0.0
C250 C 0.55379 0.91112 0.03528 0.0
N251 N 0.5322 0.88319 0.03955 0.0
Co252 Co 0.53656 0.85034 0.01348 0.0
N253 N 0.58348 0.8759 0.98729 0.0
C254 C 0.60199 0.90421 0.99116 0.0
C255 C 0.63193 0.91618 0.96847 0.0
C256 C 0.63197 0.89438 0.94853 0.0
C257 C 0.60194 0.87028 0.96029 0.0
N258 N 0.54024 0.81758 0.98685 0.0
C259 C 0.56241 0.81779 0.95962 0.0
C260 C 0.55429 0.79064 0.94713 0.0
C261 C 0.52499 0.77271 0.96669 0.0
C262 C 0.51703 0.78989 0.9899 0.0
N263 N 0.49038 0.82465 0.04031 0.0
C264 C 0.47283 0.79613 0.03724 0.0
C265 C 0.44453 0.78389 0.06094 0.0
C266 C 0.44481 0.80568 0.08091 0.0
C267 C 0.47322 0.83014 0.06803 0.0
N268 N 0.49957 0.85724 0.98326 0.0
C269 C 0.45027 0.86589 0.93713 0.0
C270 C 0.44096 0.8396 0.9527 0.0
C271 C 0.46601 0.83569 0.97532 0.0
C272 C 0.48399 0.888 0.94541 0.0
C273 C 0.50772 0.88337 0.96869 0.0
N274 N 0.57327 0.84348 0.04387 0.0
C275 C 0.58794 0.81176 0.08098 0.0
C276 C 0.61367 0.83495 0.09643 0.0
C277 C 0.6214 0.86222 0.08341 0.0
C278 C 0.60121 0.86595 0.05725 0.0
C279 C 0.56848 0.81647 0.05474 0.0
H280 H 0.60756 0.88734 0.04906 0.0
H281 H 0.54847 0.79803 0.04447 0.0
H282 H 0.45791 0.81489 0.9856 0.0
H283 H 0.53276 0.9012 0.97414 0.0
C284 C 0.5864 0.91966 0.01312 0.0
C285 C 0.48586 0.85747 0.08424 0.0
C286 C 0.58906 0.84335 0.94344 0.0
C287 C 0.48621 0.78109 0.0135 0.0
H288 H 0.50371 0.91648 0.09981 0.0
H289 H 0.55903 0.95124 0.06045 0.0
H290 H 0.64984 0.93846 0.9656 0.0
H291 H 0.65064 0.89638 0.92695 0.0
H292 H 0.56723 0.78468 0.92547 0.0
H293 H 0.51014 0.75007 0.96364 0.0
H294 H 0.42728 0.76151 0.0642 0.0
H295 H 0.42725 0.80339 0.10308 0.0
H296 H 0.41508 0.82186 0.94676 0.0
H297 H 0.49195 0.90881 0.93402 0.0
H298 H 0.58124 0.79016 0.08994 0.0
H299 H 0.64217 0.88079 0.09388 0.0
C300 C 0.82607 0.98726 0.59329 0.0
C301 C 0.8579 0.98283 0.60761 0.0
C302 C 0.89192 1.00057 0.59246 0.0
C303 C 0.87898 0.01475 0.56987 0.0
N304 N 0.83875 0.00753 0.57014 0.0
Co305 Co 0.80709 0.02208 0.54076 0.0
N306 N 0.85633 0.04318 0.51419 0.0
C307 C 0.89377 0.04254 0.51744 0.0
C308 C 0.9214 0.05905 0.4954 0.0
C309 C 0.90043 0.07136 0.47741 0.0
C310 C 0.86117 0.06182 0.48981 0.0
N311 N 0.77565 0.03804 0.51241 0.0
C312 C 0.78869 0.05887 0.48977 0.0
C313 C 0.75732 0.06638 0.47854 0.0
C314 C 0.72337 0.04998 0.49486 0.0
C315 C 0.73586 0.03365 0.51526 0.0
N316 N 0.75754 0.9995 0.56624 0.0
C317 C 0.71952 0.99813 0.56156 0.0
C318 C 0.6915 0.97875 0.58102 0.0
C319 C 0.71284 0.96636 0.59852 0.0
C320 C 0.75271 0.97905 0.58867 0.0
N321 N 0.81408 0.05609 0.56794 0.0
C322 C 0.82232 0.11066 0.59215 0.0
C323 C 0.78495 0.08946 0.59249 0.0
C324 C 0.78155 0.0625 0.58054 0.0
C325 C 0.85593 0.1032 0.58247 0.0
C326 C 0.8512 0.07578 0.57109 0.0
N327 N 0.8001 0.98837 0.51323 0.0
C328 C 0.76003 0.95356 0.47785 0.0
C329 C 0.79001 0.9411 0.47328 0.0
C330 C 0.82482 0.95224 0.48959 0.0
C331 C 0.82935 0.97586 0.50916 0.0
C332 C 0.76551 0.97683 0.4979 0.0
H333 H 0.85688 0.98375 0.52055 0.0
H334 H 0.74135 0.98515 0.50055 0.0
H335 H 0.75203 0.04774 0.58042 0.0
H336 H 0.87793 0.07145 0.5637 0.0
C337 C 0.90293 0.03013 0.54432 0.0
C338 C 0.78459 0.96959 0.59969 0.0
C339 C 0.8306 0.07332 0.47992 0.0
C340 C 0.71123 0.01475 0.53806 0.0
H341 H 0.85672 0.96734 0.62589 0.0
H342 H 0.92232 1.00141 0.59592 0.0
H343 H 0.95335 0.06301 0.49379 0.0
H344 H 0.91294 0.08674 0.45836 0.0
H345 H 0.75877 0.08263 0.46112 0.0
H346 H 0.69334 0.0506 0.49287 0.0
H347 H 0.65934 0.97361 0.58169 0.0
H348 H 0.70053 0.94931 0.61587 0.0
H349 H 0.75801 0.0941 0.60008 0.0
H350 H 0.88564 0.11871 0.58275 0.0
H351 H 0.7323 0.94532 0.466 0.0
H352 H 0.84889 0.94327 0.48661 0.0
C353 C 0.52776 0.39233 0.0786 0.0
C354 C 0.532 0.4199 0.08855 0.0
C355 C 0.55862 0.43798 0.06735 0.0
C356 C 0.56915 0.42053 0.0458 0.0
N357 N 0.55099 0.39235 0.05197 0.0
Co358 Co 0.55722 0.35969 0.02628 0.0
N359 N 0.59821 0.38637 0.99622 0.0
C360 C 0.61349 0.41513 -0.00177 0.0
C361 C 0.64138 0.42767 0.97436 0.0
C362 C 0.6441 0.40562 0.95589 0.0
C363 C 0.61755 0.3808 0.96966 0.0
N364 N 0.56209 0.32708 -0.00021 0.0
C365 C 0.58361 0.32724 0.9722 0.0
C366 C 0.57726 0.29981 0.96089 0.0
C367 C 0.55033 0.28168 0.98186 0.0
C368 C 0.54185 0.29898 0.00466 0.0
N369 N 0.51768 0.33292 0.0572 0.0
C370 C 0.50472 0.30402 0.05654 0.0
C371 C 0.47823 0.29139 0.08121 0.0
C372 C 0.47421 0.3135 0.09891 0.0
C373 C 0.4987 0.33847 0.08396 0.0
N374 N 0.5134 0.36176 -6e-05 0.0
C375 C 0.45154 0.36445 0.96232 0.0
C376 C 0.44838 0.33959 0.97909 0.0
C377 C 0.47961 0.33858 -0.00271 0.0
C378 C 0.486 0.38797 0.96456 0.0
C379 C 0.51613 0.38631 0.98371 0.0
N380 N 0.60098 0.35762 0.05261 0.0
C381 C 0.63422 0.32983 0.0801 0.0
C382 C 0.66179 0.35458 0.09143 0.0
C383 C 0.65864 0.3809 0.08269 0.0
C384 C 0.6283 0.38192 0.06345 0.0
C385 C 0.60438 0.33182 0.06088 0.0
H386 H 0.62743 0.40264 0.05787 0.0
H387 H 0.58439 0.31215 0.0531 0.0
H388 H 0.47571 0.31875 0.00889 0.0
H389 H 0.54127 0.40521 0.985 0.0
C390 C 0.59828 0.4299 0.02107 0.0
C391 C 0.50219 0.36689 0.09575 0.0
C392 C 0.61024 0.35268 0.95575 0.0
C393 C 0.51614 0.28943 0.03143 0.0
H394 H 0.51779 0.4263 0.10926 0.0
H395 H 0.5697 0.46108 0.06799 0.0
H396 H 0.65696 0.45022 0.97031 0.0
H397 H 0.66282 0.40768 0.93431 0.0
H398 H 0.59069 0.29357 0.93966 0.0
H399 H 0.53843 0.25862 0.98068 0.0
H400 H 0.46318 0.2688 0.08555 0.0
H401 H 0.45506 0.31141 0.12025 0.0
H402 H 0.42213 0.32083 0.97775 0.0
H403 H 0.48937 0.40772 0.95202 0.0
H404 H 0.63578 0.30893 0.08577 0.0
H405 H 0.67905 0.4007 0.09109 0.0
H406 H 0.20622 0.411 0.32781 0.0
H407 H 0.26389 0.45557 0.24156 0.0
H408 H 0.21643 0.48175 0.24197 0.0
H409 H 0.15903 0.49253 0.26683 0.0
H410 H 0.10039 0.44805 0.3527 0.0
H411 H 0.14787 0.42154 0.35254 0.0
C412 C 0.2084 0.42645 0.30913 0.0
C413 C 0.23864 0.43126 0.28471 0.0
C414 C 0.18087 0.44153 0.30944 0.0
C415 C 0.24097 0.45137 0.26067 0.0
C416 C 0.2138 0.4664 0.26084 0.0
C417 C 0.15635 0.4768 0.28533 0.0
C418 C 0.1262 0.47226 0.3097 0.0
C419 C 0.18364 0.46165 0.28506 0.0
C420 C 0.1236 0.45217 0.33382 0.0
C421 C 0.15063 0.43692 0.33368 0.0
H422 H 0.19215 0.77973 0.70024 0.0
H423 H 0.26466 0.74583 0.75671 0.0
H424 H 0.21396 0.69875 0.75692 0.0
H425 H 0.14937 0.66669 0.74027 0.0
H426 H 0.0765 0.70009 0.68419 0.0
H427 H 0.12672 0.74787 0.68466 0.0
C428 C 0.19686 0.76204 0.71256 0.0
C429 C 0.23225 0.76634 0.72833 0.0
C430 C 0.16741 0.73493 0.71275 0.0
C431 C 0.23775 0.74318 0.74434 0.0
C432 C 0.20875 0.7162 0.74451 0.0
C433 C 0.14454 0.68461 0.72848 0.0
C434 C 0.10956 0.68026 0.71238 0.0
C435 C 0.17354 0.7118 0.72877 0.0
C436 C 0.10335 0.70328 0.69684 0.0
C437 C 0.13204 0.73045 0.69704 0.0
H438 H 0.84276 0.69605 0.29973 0.0
H439 H 0.77588 0.65191 0.38325 0.0
H440 H 0.81321 0.61816 0.38041 0.0
H441 H 0.86604 0.6018 0.35481 0.0
H442 H 0.93219 0.64593 0.27107 0.0
H443 H 0.89397 0.67901 0.27343 0.0
C444 C 0.83634 0.67908 0.31736 0.0
C445 C 0.80667 0.67663 0.34174 0.0
C446 C 0.8578 0.65969 0.31554 0.0
C447 C 0.79862 0.65437 0.36425 0.0
C448 C 0.81993 0.63502 0.36264 0.0
C449 C 0.87171 0.61844 0.33687 0.0
C450 C 0.90207 0.62147 0.31291 0.0
C451 C 0.84965 0.6375 0.33841 0.0
C452 C 0.90937 0.64336 0.29003 0.0
C453 C 0.88745 0.66225 0.29129 0.0
H454 H 0.80351 0.40454 0.65158 0.0
H455 H 0.86373 0.36614 0.71448 0.0
H456 H 0.9076 0.41359 0.72887 0.0
H457 H 0.93167 0.46601 0.72042 0.0
H458 H 0.86814 0.50421 0.66034 0.0
H459 H 0.82238 0.45688 0.648 0.0
C460 C 0.82609 0.40667 0.66861 0.0
C461 C 0.8308 0.38208 0.6818 0.0
C462 C 0.85054 0.43392 0.67713 0.0
C463 C 0.85965 0.3849 0.70415 0.0
C464 C 0.88476 0.41197 0.71225 0.0
C465 C 0.90731 0.46384 0.70509 0.0
C466 C 0.90333 0.4883 0.69094 0.0
C467 C 0.88086 0.43661 0.69852 0.0
C468 C 0.87172 0.4855 0.67122 0.0
C469 C 0.84574 0.45851 0.66412 0.0
H470 H 0.34916 0.25092 0.36492 0.0
H471 H 0.38595 0.31339 0.43838 0.0
H472 H 0.3934 0.27682 0.47388 0.0
H473 H 0.38617 0.22632 0.48488 0.0
H474 H 0.35209 0.16454 0.41071 0.0
H475 H 0.34712 0.20155 0.37446 0.0
C476 C 0.35887 0.25653 0.38869 0.0
C477 C 0.36654 0.28474 0.39914 0.0
C478 C 0.36361 0.23551 0.40878 0.0
C479 C 0.37974 0.2918 0.42981 0.0
C480 C 0.38396 0.2709 0.45013 0.0
C481 C 0.3782 0.22122 0.46062 0.0
C482 C 0.36919 0.19292 0.45033 0.0
C483 C 0.3756 0.24262 0.43998 0.0
C484 C 0.35896 0.18628 0.41895 0.0
C485 C 0.356 0.20737 0.39835 0.0
H486 H 0.32164 0.86977 0.84192 0.0
H487 H 0.42571 0.89293 0.77688 0.0
H488 H 0.46822 0.8929 0.82058 0.0
H489 H 0.4751 0.88349 0.87682 0.0
H490 H 0.37022 0.85659 0.94072 0.0
H491 H 0.32853 0.86086 0.89795 0.0
C492 C 0.3537 0.87519 0.83738 0.0
C493 C 0.37058 0.88148 0.80628 0.0
C494 C 0.37767 0.87423 0.86238 0.0
C495 C 0.41206 0.88801 0.80065 0.0
C496 C 0.43633 0.88796 0.82559 0.0
C497 C 0.44317 0.8789 0.88132 0.0
C498 C 0.42558 0.86987 0.91171 0.0
C499 C 0.41938 0.88069 0.85646 0.0
C500 C 0.38418 0.86351 0.91738 0.0
C501 C 0.36045 0.86599 0.893 0.0
H502 H 0.75635 0.85204 0.36286 0.0
H503 H 0.79021 0.8017 0.4321 0.0
H504 H 0.80319 0.84145 0.4693 0.0
H505 H 0.80282 0.89025 0.48258 0.0
H506 H 0.76662 0.93903 0.41311 0.0
H507 H 0.75658 0.90005 0.37556 0.0
C508 C 0.7668 0.84969 0.386 0.0
C509 C 0.77233 0.82387 0.39461 0.0
C510 C 0.7736 0.87235 0.4073 0.0
C511 C 0.78567 0.82131 0.42483 0.0
C512 C 0.79308 0.84403 0.44612 0.0
C513 C 0.79304 0.89232 0.45911 0.0
C514 C 0.78531 0.9174 0.45062 0.0
C515 C 0.78687 0.86961 0.43767 0.0
C516 C 0.7723 0.9198 0.42028 0.0
C517 C 0.7667 0.89758 0.39878 0.0
H518 H 0.65832 0.33856 0.81238 0.0
H519 H 0.77331 0.35248 0.85101 0.0
H520 H 0.74484 0.35683 0.90409 0.0
H521 H 0.68694 0.35664 0.93967 0.0
H522 H 0.57247 0.3428 0.90084 0.0
H523 H 0.60092 0.33836 0.84758 0.0
C524 C 0.67722 0.34255 0.83237 0.0
C525 C 0.7179 0.34519 0.82769 0.0
C526 C 0.66069 0.34501 0.86276 0.0
C527 C 0.7419 0.35035 0.85392 0.0
C528 C 0.72566 0.35284 0.88429 0.0
C529 C 0.66849 0.35268 0.91939 0.0
C530 C 0.62791 0.35008 0.92373 0.0
C531 C 0.68511 0.35021 0.88899 0.0
C532 C 0.60385 0.34487 0.89768 0.0
C533 C 0.6201 0.34236 0.86738 0.0
H534 H 0.33395 0.94443 0.65167 0.0
H535 H 0.28173 0.98298 0.72653 0.0
H536 H 0.30097 0.02772 0.69631 0.0
H537 H 0.3287 0.05502 0.64706 0.0
H538 H 0.37729 0.01582 0.57101 0.0
H539 H 0.36427 0.97242 0.60337 0.0
C540 C 0.32704 0.96267 0.66148 0.0
C541 C 0.30619 0.96026 0.69125 0.0
C542 C 0.3377 0.98826 0.64377 0.0
C543 C 0.29749 0.98415 0.70359 0.0
C544 C 0.30854 0.00979 0.68636 0.0
C545 C 0.33688 0.03703 0.63791 0.0
C546 C 0.35382 0.03835 0.60689 0.0
C547 C 0.32812 0.01196 0.65625 0.0
C548 C 0.36432 0.0151 0.59496 0.0
C549 C 0.35662 0.99031 0.61335 0.0
H550 H 0.67385 0.83504 0.23406 0.0
H551 H 0.69543 0.7587 0.20002 0.0
H552 H 0.6707 0.7651 0.14857 0.0
H553 H 0.6432 0.79268 0.11324 0.0
H554 H 0.62034 0.86822 0.14869 0.0
H555 H 0.64594 0.862 0.19945 0.0
C556 C 0.67319 0.81975 0.21544 0.0
C557 C 0.6865 0.79643 0.22091 0.0
C558 C 0.65898 0.82353 0.18606 0.0
C559 C 0.68532 0.77683 0.19646 0.0
C560 C 0.67124 0.78049 0.16703 0.0
C561 C 0.64368 0.8077 0.13213 0.0
C562 C 0.63026 0.83106 0.12697 0.0
C563 C 0.65799 0.80379 0.16156 0.0
C564 C 0.63132 0.85042 0.15168 0.0
C565 C 0.64563 0.84676 0.18086 0.0
H566 H 0.83263 0.23986 0.58813 0.0
H567 H 0.75015 0.21245 0.66979 0.0
H568 H 0.75858 0.16544 0.66798 0.0
H569 H 0.78459 0.13076 0.64023 0.0
H570 H 0.86614 0.15806 0.55808 0.0
H571 H 0.86348 0.20653 0.56346 0.0
C572 C 0.81685 0.22372 0.60577 0.0
C573 C 0.79043 0.22959 0.62882 0.0
C574 C 0.82164 0.19666 0.60449 0.0
C575 C 0.77053 0.2085 0.65168 0.0
C576 C 0.77524 0.18155 0.65062 0.0
C577 C 0.80208 0.14742 0.62373 0.0
C578 C 0.82536 0.14077 0.59872 0.0
C579 C 0.79995 0.17518 0.62667 0.0
C580 C 0.84829 0.16265 0.57774 0.0
C581 C 0.8465 0.19034 0.58062 0.0
H582 H 0.38025 0.38025 0.20403 0.0
H583 H 0.45474 0.34853 0.26089 0.0
H584 H 0.49789 0.34774 0.21394 0.0
H585 H 0.51333 0.35474 0.15621 0.0
H586 H 0.4378 0.38517 0.09958 0.0
H587 H 0.39618 0.38801 0.14702 0.0
C588 C 0.406 0.37326 0.20627 0.0
C589 C 0.41413 0.3644 0.236 0.0
C590 C 0.43046 0.37265 0.17919 0.0
C591 C 0.44768 0.35542 0.23833 0.0
C592 C 0.47239 0.35494 0.21149 0.0
C593 C 0.48782 0.36211 0.15452 0.0
C594 C 0.47837 0.3698 0.12479 0.0
C595 C 0.46389 0.36331 0.18178 0.0
C596 C 0.4454 0.37927 0.12244 0.0
C597 C 0.42168 0.38081 0.14946 0.0
H598 H 0.81058 0.71323 0.67968 0.0
H599 H 0.78162 0.67326 0.58915 0.0
H600 H 0.82973 0.64797 0.59501 0.0
H601 H 0.8774 0.63517 0.62734 0.0
H602 H 0.90661 0.67599 0.71744 0.0
H603 H 0.86091 0.70281 0.71027 0.0
C604 C 0.81491 0.69911 0.66112 0.0
C605 C 0.79232 0.69502 0.63413 0.0
C606 C 0.84251 0.6846 0.66466 0.0
C607 C 0.79856 0.67678 0.61022 0.0
C608 C 0.82602 0.66225 0.61358 0.0
C609 C 0.87419 0.65024 0.64517 0.0
C610 C 0.89504 0.65325 0.67307 0.0
C611 C 0.84783 0.66573 0.64089 0.0
C612 C 0.8903 0.67277 0.69605 0.0
C613 C 0.86431 0.68825 0.69191 0.0
H614 H 0.96878 0.35455 0.33269 0.0
H615 H 0.84434 0.32869 0.31192 0.0
H616 H 0.84646 0.37853 0.3124 0.0
H617 H 0.88468 0.42992 0.31702 0.0
H618 H 0.00862 0.45527 0.33862 0.0
H619 H 0.00564 0.40523 0.34042 0.0
C620 C 0.942 0.35978 0.32853 0.0
C621 C 0.90678 0.338 0.32123 0.0
C622 C 0.94339 0.38843 0.32918 0.0
C623 C 0.87229 0.34511 0.31616 0.0
C624 C 0.87336 0.37361 0.31686 0.0
C625 C 0.91089 0.42431 0.32209 0.0
C626 C 0.94699 0.446 0.32723 0.0
C627 C 0.90892 0.39549 0.32284 0.0
C628 C 0.98066 0.43876 0.33446 0.0
C629 C 0.97895 0.41021 0.3354 0.0
H630 H 0.20456 0.45395 0.75019 0.0
H631 H 0.12022 0.42406 0.83038 0.0
H632 H 0.0858 0.45733 0.81649 0.0
H633 H 0.07774 0.49323 0.78049 0.0
H634 H 0.16257 0.52426 0.70086 0.0
H635 H 0.19821 0.49178 0.71534 0.0
C636 C 0.17883 0.45486 0.76477 0.0
C637 C 0.16498 0.43646 0.79126 0.0
C638 C 0.15898 0.474 0.75657 0.0
C639 C 0.13157 0.43794 0.80987 0.0
C640 C 0.11176 0.45692 0.8019 0.0
C641 C 0.10442 0.49331 0.76654 0.0
C642 C 0.11738 0.51126 0.7396 0.0
C643 C 0.12498 0.47484 0.77517 0.0
C644 C 0.15153 0.51046 0.72146 0.0
C645 C 0.17211 0.49201 0.72985 0.0
H646 H 0.27833 0.68547 0.28907 0.0
H647 H 0.21537 0.73944 0.2536 0.0
H648 H 0.15269 0.69976 0.25826 0.0
H649 H 0.11512 0.65025 0.27442 0.0
H650 H 0.17738 0.59599 0.30938 0.0
H651 H 0.24108 0.63532 0.30323 0.0
C652 C 0.25095 0.68854 0.28218 0.0
C653 C 0.2516 0.71547 0.27111 0.0
C654 C 0.21491 0.66561 0.28496 0.0
C655 C 0.21581 0.71898 0.26222 0.0
C656 C 0.17988 0.69632 0.26493 0.0
C657 C 0.14285 0.64706 0.28019 0.0
C658 C 0.14209 0.62037 0.2918 0.0
C659 C 0.17904 0.66965 0.27651 0.0
C660 C 0.17771 0.6164 0.30001 0.0
C661 C 0.21394 0.63883 0.29655 0.0
H662 H 0.75072 0.85014 0.66762 0.0
H663 H 0.71933 0.82113 0.57313 0.0
H664 H 0.73625 0.87041 0.55471 0.0
H665 H 0.75911 0.92187 0.56543 0.0
H666 H 0.78831 0.95121 0.6599 0.0
H667 H 0.7722 0.90166 0.6787 0.0
C668 C 0.74659 0.85449 0.64324 0.0
C669 C 0.73292 0.83182 0.62203 0.0
C670 C 0.75604 0.88297 0.63281 0.0
C671 C 0.72965 0.8381 0.59006 0.0
C672 C 0.7392 0.8663 0.57947 0.0
C673 C 0.76182 0.91724 0.59012 0.0
C674 C 0.77502 0.93981 0.61134 0.0
C675 C 0.75229 0.88887 0.60063 0.0
C676 C 0.77847 0.93393 0.64327 0.0
C677 C 0.76921 0.9057 0.65394 0.0
H678 H 0.81355 0.36292 0.16793 0.0
H679 H 0.72772 0.29127 0.21792 0.0
H680 H 0.67572 0.2943 0.18401 0.0
H681 H 0.65444 0.31723 0.14022 0.0
H682 H 0.74031 0.38836 0.0896 0.0
H683 H 0.79226 0.38578 0.12396 0.0
C684 C 0.78347 0.34797 0.17146 0.0
C685 C 0.77465 0.32688 0.19546 0.0
C686 C 0.75363 0.34978 0.15181 0.0
C687 C 0.73545 0.30771 0.19964 0.0
C688 C 0.70563 0.30941 0.18024 0.0
C689 C 0.68461 0.332 0.13649 0.0
C690 C 0.69342 0.35293 0.11232 0.0
C691 C 0.7144 0.33029 0.1562 0.0
C692 C 0.73255 0.37224 0.10824 0.0
C693 C 0.76235 0.37068 0.12777 0.0
H694 H 0.37327 0.28576 0.70465 0.0
H695 H 0.26474 0.2258 0.74682 0.0
H696 H 0.26748 0.19063 0.70684 0.0
H697 H 0.30015 0.17701 0.65949 0.0
H698 H 0.40801 0.23719 0.61681 0.0
H699 H 0.40618 0.27202 0.65752 0.0
C700 C 0.35031 0.26496 0.7052 0.0
C701 C 0.31883 0.25849 0.7287 0.0
C702 C 0.35188 0.24485 0.68201 0.0
C703 C 0.2893 0.23142 0.729 0.0
C704 C 0.29078 0.21126 0.70611 0.0
C705 C 0.32306 0.19784 0.65896 0.0
C706 C 0.35413 0.20447 0.63513 0.0
C707 C 0.32177 0.21781 0.68237 0.0
C708 C 0.38398 0.2314 0.63508 0.0
C709 C 0.38287 0.25139 0.65827 0.0
H710 H 0.49096 0.86513 0.23322 0.0
H711 H 0.36349 0.84204 0.22605 0.0
H712 H 0.37206 0.84187 0.16821 0.0
H713 H 0.41611 0.84858 0.11949 0.0
H714 H 0.54313 0.86927 0.12683 0.0
H715 H 0.53477 0.87072 0.18471 0.0
C716 C 0.46511 0.86007 0.21894 0.0
C717 C 0.42662 0.85325 0.23381 0.0
C718 C 0.47029 0.8598 0.18575 0.0
C719 C 0.39333 0.84668 0.21513 0.0
C720 C 0.39825 0.84685 0.18207 0.0
C721 C 0.44177 0.85318 0.13393 0.0
C722 C 0.48007 0.85857 0.11924 0.0
C723 C 0.43657 0.8533 0.16713 0.0
C724 C 0.51337 0.86501 0.13788 0.0
C725 C 0.50858 0.86576 0.17087 0.0
H726 H 0.90917 0.19806 0.42369 0.0
H727 H 0.8458 0.15831 0.34239 0.0
H728 H 0.81776 0.11329 0.37195 0.0
H729 H 0.81467 0.0843 0.41996 0.0
H730 H 0.87539 0.12456 0.50192 0.0
H731 H 0.90136 0.17026 0.47309 0.0
C732 C 0.88896 0.17961 0.41254 0.0
C733 C 0.87984 0.18148 0.38082 0.0
C734 C 0.87273 0.15383 0.42974 0.0
C735 C 0.85329 0.15746 0.36679 0.0
C736 C 0.83738 0.13165 0.38362 0.0
C737 C 0.83304 0.10327 0.43153 0.0
C738 C 0.84315 0.1013 0.46289 0.0
C739 C 0.84735 0.12947 0.41495 0.0
C740 C 0.86736 0.12577 0.47771 0.0
C741 C 0.88215 0.15181 0.46126 0.0
H742 H 0.29487 0.36406 0.89796 0.0
H743 H 0.37474 0.3787 0.81439 0.0
H744 H 0.43013 0.37924 0.8468 0.0
H745 H 0.4556 0.37479 0.89911 0.0
H746 H 0.3745 0.3567 0.98199 0.0
H747 H 0.31979 0.35834 0.94986 0.0
C748 C 0.32448 0.36749 0.88693 0.0
C749 C 0.3308 0.37127 0.85389 0.0
C750 C 0.35588 0.36713 0.90564 0.0
C751 C 0.36912 0.37539 0.83976 0.0
C752 C 0.4008 0.37584 0.85829 0.0
C753 C 0.42593 0.37135 0.91 0.0
C754 C 0.41889 0.3658 0.94275 0.0
C755 C 0.39449 0.3716 0.89124 0.0
C756 C 0.38037 0.36099 0.95675 0.0
C757 C 0.3492 0.36196 0.93843 0.0
H758 H 0.36649 0.93844 0.36928 0.0
H759 H 0.48157 0.95304 0.408 0.0
H760 H 0.47452 0.99397 0.43712 0.0
H761 H 0.43489 0.0244 0.45311 0.0
H762 H 0.32138 0.01187 0.4124 0.0
H763 H 0.32834 0.97096 0.38305 0.0
C764 C 0.39007 0.95064 0.38401 0.0
C765 C 0.42443 0.9426 0.38655 0.0
C766 C 0.38599 0.97436 0.40055 0.0
C767 C 0.45484 0.95876 0.40557 0.0
C768 C 0.4508 0.98214 0.42231 0.0
C769 C 0.41192 0.01317 0.43737 0.0
C770 C 0.37763 0.02137 0.4351 0.0
C771 C 0.41643 0.99003 0.42011 0.0
C772 C 0.34784 0.0059 0.4151 0.0
C773 C 0.3519 0.98257 0.3981 0.0
H774 H 0.59536 0.83214 0.7947 0.0
H775 H 0.7179 0.84 0.81014 0.0
H776 H 0.70591 0.84547 0.86692 0.0
H777 H 0.65971 0.8461 0.91274 0.0
H778 H 0.53759 0.83838 0.8972 0.0
H779 H 0.55012 0.83465 0.83995 0.0
C780 C 0.61954 0.8352 0.81042 0.0
C781 C 0.65743 0.83552 0.79811 0.0
C782 C 0.61242 0.83822 0.84309 0.0
C783 C 0.68841 0.83961 0.81891 0.0
C784 C 0.68158 0.84269 0.85144 0.0
C785 C 0.63613 0.84387 0.89662 0.0
C786 C 0.59792 0.84261 0.90878 0.0
C787 C 0.64362 0.84175 0.86383 0.0
C788 C 0.56724 0.83944 0.88804 0.0
C789 C 0.57441 0.83731 0.85544 0.0
loop_
_geom_bond_atom_site_label_1
_geom_bond_atom_site_label_2
_geom_bond_distance
_geom_bond_site_symmetry_2
_ccdc_geom_bond_type
O0 Cd1 2.300 . S
O0 C7 1.275 . S
Cd1 O0 2.300 . S
Cd1 O9 2.381 . S
Cd1 O10 2.378 . S
O2 Cd3 2.385 . S
O2 C7 1.255 . S
Cd3 O2 2.385 . S
Cd3 O4 2.317 . S
O4 Cd3 2.317 . S
O4 C5 1.232 . S
C5 O4 1.232 . S
C5 O6 1.218 . S
O6 C5 1.218 . S
C7 O0 1.275 . S
C7 O2 1.255 . S
C8 O9 1.258 . S
C8 O10 1.256 . S
O9 Cd1 2.381 . S
O9 C8 1.258 . S
O10 Cd1 2.378 . S
O10 C8 1.256 . S
O11 Cd12 2.300 . S
O11 C18 1.275 . S
Cd12 O11 2.300 . S
Cd12 O20 2.381 . S
Cd12 O21 2.378 . S
O13 Cd14 2.385 . S
O13 C18 1.255 . S
Cd14 O13 2.385 . S
Cd14 O15 2.317 . S
O15 Cd14 2.317 . S
O15 C16 1.232 . S
C16 O15 1.232 . S
C16 O17 1.218 . S
O17 C16 1.218 . S
C18 O11 1.275 . S
C18 O13 1.255 . S
C19 O20 1.258 . S
C19 O21 1.256 . S
O20 Cd12 2.381 . S
O20 C19 1.258 . S
O21 Cd12 2.378 . S
O21 C19 1.256 . S
O22 Cd23 2.300 . S
O22 C29 1.275 . S
Cd23 O22 2.300 . S
Cd23 O31 2.381 . S
Cd23 O32 2.378 . S
O24 Cd25 2.385 . S
O24 C29 1.255 . S
Cd25 O24 2.385 . S
Cd25 O26 2.317 . S
O26 Cd25 2.317 . S
O26 C27 1.232 . S
C27 O26 1.232 . S
C27 O28 1.218 . S
O28 C27 1.218 . S
C29 O22 1.275 . S
C29 O24 1.255 . S
C30 O31 1.258 . S
C30 O32 1.256 . S
O31 Cd23 2.381 . S
O31 C30 1.258 . S
O32 Cd23 2.378 . S
O32 C30 1.256 . S
O33 Cd34 2.300 . S
O33 C40 1.275 . S
Cd34 O33 2.300 . S
Cd34 O42 2.381 . S
Cd34 O43 2.378 . S
O35 Cd36 2.385 . S
O35 C40 1.255 . S
Cd36 O35 2.385 . S
Cd36 O37 2.317 . S
O37 Cd36 2.317 . S
O37 C38 1.232 . S
C38 O37 1.232 . S
C38 O39 1.218 . S
O39 C38 1.218 . S
C40 O33 1.275 . S
C40 O35 1.255 . S
C41 O42 1.258 . S
C41 O43 1.256 . S
O42 Cd34 2.381 . S
O42 C41 1.258 . S
O43 Cd34 2.378 . S
O43 C41 1.256 . S
O44 Cd45 2.300 . S
O44 C51 1.275 . S
Cd45 O44 2.300 . S
Cd45 O53 2.381 . S
Cd45 O54 2.378 . S
O46 Cd47 2.385 . S
O46 C51 1.255 . S
Cd47 O46 2.385 . S
Cd47 O48 2.317 . S
O48 Cd47 2.317 . S
O48 C49 1.232 . S
C49 O48 1.232 . S
C49 O50 1.218 . S
O50 C49 1.218 . S
C51 O44 1.275 . S
C51 O46 1.255 . S
C52 O53 1.258 . S
C52 O54 1.256 . S
O53 Cd45 2.381 . S
O53 C52 1.258 . S
O54 Cd45 2.378 . S
O54 C52 1.256 . S
O55 Cd56 2.300 . S
O55 C62 1.275 . S
Cd56 O55 2.300 . S
Cd56 O64 2.381 . S
Cd56 O65 2.378 . S
O57 Cd58 2.385 . S
O57 C62 1.255 . S
Cd58 O57 2.385 . S
Cd58 O59 2.317 . S
O59 Cd58 2.317 . S
O59 C60 1.232 . S
C60 O59 1.232 . S
C60 O61 1.218 . S
O61 C60 1.218 . S
C62 O55 1.275 . S
C62 O57 1.255 . S
C63 O64 1.258 . S
C63 O65 1.256 . S
O64 Cd56 2.381 . S
O64 C63 1.258 . S
O65 Cd56 2.378 . S
O65 C63 1.256 . S
O66 Cd67 2.300 . S
O66 C73 1.275 . S
Cd67 O66 2.300 . S
Cd67 O75 2.381 . S
Cd67 O76 2.378 . S
O68 Cd69 2.385 . S
O68 C73 1.255 . S
Cd69 O68 2.385 . S
Cd69 O70 2.317 . S
O70 Cd69 2.317 . S
O70 C71 1.232 . S
C71 O70 1.232 . S
C71 O72 1.218 . S
O72 C71 1.218 . S
C73 O66 1.275 . S
C73 O68 1.255 . S
C74 O75 1.258 . S
C74 O76 1.256 . S
O75 Cd67 2.381 . S
O75 C74 1.258 . S
O76 Cd67 2.378 . S
O76 C74 1.256 . S
O77 Cd78 2.300 . S
O77 C84 1.275 . S
Cd78 O77 2.300 . S
Cd78 O86 2.381 . S
Cd78 O87 2.378 . S
O79 Cd80 2.385 . S
O79 C84 1.255 . S
Cd80 O79 2.385 . S
Cd80 O81 2.317 . S
O81 Cd80 2.317 . S
O81 C82 1.232 . S
C82 O81 1.232 . S
C82 O83 1.218 . S
O83 C82 1.218 . S
C84 O77 1.275 . S
C84 O79 1.255 . S
C85 O86 1.258 . S
C85 O87 1.256 . S
O86 Cd78 2.381 . S
O86 C85 1.258 . S
O87 Cd78 2.378 . S
O87 C85 1.256 . S
C88 C89 1.443 . S
C88 N92 1.376 . S
C88 C126 1.389 . S
C89 C88 1.443 . S
C89 C90 1.340 . S
C89 H129 0.951 . S
C90 C89 1.340 . S
C90 C91 1.439 . S
C90 H130 0.950 . S
C91 C90 1.439 . S
C91 N92 1.374 . S
C91 C125 1.395 . S
N92 C88 1.376 . S
N92 C91 1.374 . S
N92 Co93 2.008 . S
Co93 N92 2.008 . S
Co93 N94 1.995 . S
Co93 N99 2.008 . S
Co93 N104 1.995 . S
Co93 N109 2.282 . S
Co93 N115 2.282 . S
N94 Co93 1.995 . S
N94 C95 1.376 . S
N94 C98 1.393 . S
C95 N94 1.376 . S
C95 C96 1.446 1_455 S
C95 C125 1.391 . S
C96 C95 1.446 1_655 S
C96 C97 1.339 . S
C96 H131 0.949 . S
C97 C96 1.339 . S
C97 C98 1.431 1_655 S
C97 H132 0.950 . S
C98 N94 1.393 . S
C98 C97 1.431 1_455 S
C98 C127 1.392 1_455 S
N99 Co93 2.008 . S
N99 C100 1.376 . S
N99 C103 1.374 . S
C100 N99 1.376 . S
C100 C101 1.443 . S
C100 C127 1.389 1_455 S
C101 C100 1.443 . S
C101 C102 1.340 . S
C101 H133 0.951 1_455 S
C102 C101 1.340 . S
C102 C103 1.439 . S
C102 H134 0.950 . S
C103 N99 1.374 . S
C103 C102 1.439 . S
C103 C128 1.395 . S
N104 Co93 1.995 . S
N104 C105 1.376 . S
N104 C108 1.383 . S
C105 N104 1.376 . S
C105 C106 1.446 . S
C105 C128 1.391 . S
C106 C105 1.446 . S
C106 C107 1.339 . S
C106 H135 0.949 . S
C107 C106 1.339 . S
C107 C108 1.439 . S
C107 H136 0.950 . S
C108 N104 1.383 . S
C108 C107 1.439 . S
C108 C126 1.392 . S
N109 Co93 2.282 . S
N109 C112 1.332 . S
N109 C114 1.332 . S
C110 C111 1.386 . S
C110 C113 1.388 . S
C111 C110 1.386 . S
C111 C112 1.382 . S
C111 H137 0.950 . S
C112 N109 1.332 . S
C112 C111 1.382 . S
C112 H123 0.952 . S
C113 C110 1.388 . S
C113 C114 1.382 . S
C113 H138 0.950 . S
C114 N109 1.332 . S
C114 C113 1.382 . S
C114 H124 0.948 . S
N115 Co93 2.282 . S
N115 C119 1.332 1_455 S
N115 C120 1.332 . S
C116 C117 1.388 . S
C116 C120 1.382 1_655 S
C116 H139 0.950 . S
C117 C116 1.388 . S
C117 C118 1.386 . S
C118 C117 1.386 . S
C118 C119 1.382 . S
C118 H140 0.950 . S
C119 N115 1.332 1_655 S
C119 C118 1.382 . S
C119 H121 0.952 . S
C120 N115 1.332 . S
C120 C116 1.382 1_455 S
C120 H122 0.948 . S
H121 C119 0.952 . S
H122 C120 0.948 . S
H123 C112 0.952 . S
H124 C114 0.948 . S
C125 C91 1.395 . S
C125 C95 1.391 . S
C126 C88 1.389 . S
C126 C108 1.392 . S
C127 C98 1.392 1_655 S
C127 C100 1.389 1_655 S
C128 C103 1.395 . S
C128 C105 1.391 . S
H129 C89 0.951 . S
H130 C90 0.950 . S
H131 C96 0.949 . S
H132 C97 0.950 . S
H133 C101 0.951 1_655 S
H134 C102 0.950 . S
H135 C106 0.949 . S
H136 C107 0.950 . S
H137 C111 0.950 . S
H138 C113 0.950 . S
H139 C116 0.950 . S
H140 C118 0.950 . S
C141 C142 1.443 . S
C141 N145 1.376 . S
C141 C179 1.389 . S
C142 C141 1.443 . S
C142 C143 1.340 . S
C142 H182 0.951 . S
C143 C142 1.340 . S
C143 C144 1.439 . S
C143 H183 0.950 . S
C144 C143 1.439 . S
C144 N145 1.374 . S
C144 C178 1.395 1_455 S
N145 C141 1.376 . S
N145 C144 1.374 . S
N145 Co146 2.008 . S
Co146 N145 2.008 . S
Co146 N147 1.995 1_455 S
Co146 N152 2.008 1_455 S
Co146 N157 1.995 . S
Co146 N162 2.282 . S
Co146 N168 2.282 1_455 S
N147 Co146 1.995 1_655 S
N147 C148 1.376 . S
N147 C151 1.383 . S
C148 N147 1.376 . S
C148 C149 1.446 . S
C148 C178 1.391 . S
C149 C148 1.446 . S
C149 C150 1.339 . S
C149 H184 0.949 . S
C150 C149 1.339 . S
C150 C151 1.439 . S
C150 H185 0.950 . S
C151 N147 1.383 . S
C151 C150 1.439 . S
C151 C180 1.392 . S
N152 Co146 2.008 1_655 S
N152 C153 1.376 . S
N152 C156 1.374 . S
C153 N152 1.376 . S
C153 C154 1.443 . S
C153 C180 1.389 . S
C154 C153 1.443 . S
C154 C155 1.340 . S
C154 H186 0.951 . S
C155 C154 1.340 . S
C155 C156 1.439 . S
C155 H187 0.950 . S
C156 N152 1.374 . S
C156 C155 1.439 . S
C156 C181 1.395 1_655 S
N157 Co146 1.995 . S
N157 C158 1.376 . S
N157 C161 1.383 . S
C158 N157 1.376 . S
C158 C159 1.446 . S
C158 C181 1.391 . S
C159 C158 1.446 . S
C159 C160 1.339 . S
C159 H188 0.949 . S
C160 C159 1.339 . S
C160 C161 1.439 . S
C160 H189 0.950 . S
C161 N157 1.383 . S
C161 C160 1.439 . S
C161 C179 1.392 . S
N162 Co146 2.282 . S
N162 C165 1.332 . S
N162 C167 1.332 . S
C163 C164 1.386 . S
C163 C166 1.388 . S
C164 C163 1.386 . S
C164 C165 1.382 . S
C164 H190 0.950 . S
C165 N162 1.332 . S
C165 C164 1.382 . S
C165 H176 0.952 . S
C166 C163 1.388 . S
C166 C167 1.382 . S
C166 H191 0.950 . S
C167 N162 1.332 . S
C167 C166 1.382 . S
C167 H177 0.948 . S
N168 Co146 2.282 1_655 S
N168 C172 1.332 . S
N168 C173 1.332 . S
C169 C170 1.388 . S
C169 C173 1.382 . S
C169 H192 0.950 . S
C170 C169 1.388 . S
C170 C171 1.386 . S
C171 C170 1.386 . S
C171 C172 1.382 . S
C171 H193 0.950 . S
C172 N168 1.332 . S
C172 C171 1.382 . S
C172 H174 0.952 . S
C173 N168 1.332 . S
C173 C169 1.382 . S
C173 H175 0.948 . S
H174 C172 0.952 . S
H175 C173 0.948 . S
H176 C165 0.952 . S
H177 C167 0.948 . S
C178 C144 1.395 1_655 S
C178 C148 1.391 . S
C179 C141 1.389 . S
C179 C161 1.392 . S
C180 C151 1.392 . S
C180 C153 1.389 . S
C181 C156 1.395 1_455 S
C181 C158 1.391 . S
H182 C142 0.951 . S
H183 C143 0.950 . S
H184 C149 0.949 . S
H185 C150 0.950 . S
H186 C154 0.951 . S
H187 C155 0.950 . S
H188 C159 0.949 . S
H189 C160 0.950 . S
H190 C164 0.950 . S
H191 C166 0.950 . S
H192 C169 0.950 . S
H193 C171 0.950 . S
C194 C195 1.443 . S
C194 N198 1.376 . S
C194 C232 1.389 . S
C195 C194 1.443 . S
C195 C196 1.340 . S
C195 H235 0.951 . S
C196 C195 1.340 . S
C196 C197 1.439 . S
C196 H236 0.950 . S
C197 C196 1.439 . S
C197 N198 1.374 . S
C197 C231 1.395 . S
N198 C194 1.376 . S
N198 C197 1.374 . S
N198 Co199 2.008 . S
Co199 N198 2.008 . S
Co199 N200 1.995 . S
Co199 N205 2.008 . S
Co199 N210 1.995 . S
Co199 N215 2.282 . S
Co199 N221 2.282 . S
N200 Co199 1.995 . S
N200 C201 1.376 . S
N200 C204 1.383 . S
C201 N200 1.376 . S
C201 C202 1.446 . S
C201 C231 1.391 . S
C202 C201 1.446 . S
C202 C203 1.339 . S
C202 H237 0.949 . S
C203 C202 1.339 . S
C203 C204 1.439 . S
C203 H238 0.950 . S
C204 N200 1.383 . S
C204 C203 1.439 . S
C204 C233 1.392 . S
N205 Co199 2.008 . S
N205 C206 1.376 . S
N205 C209 1.374 . S
C206 N205 1.376 . S
C206 C207 1.443 . S
C206 C233 1.389 . S
C207 C206 1.443 . S
C207 C208 1.340 . S
C207 H239 0.951 . S
C208 C207 1.340 . S
C208 C209 1.439 . S
C208 H240 0.950 . S
C209 N205 1.374 . S
C209 C208 1.439 . S
C209 C234 1.395 . S
N210 Co199 1.995 . S
N210 C211 1.376 . S
N210 C214 1.383 . S
C211 N210 1.376 . S
C211 C212 1.446 . S
C211 C234 1.391 . S
C212 C211 1.446 . S
C212 C213 1.339 . S
C212 H241 0.949 . S
C213 C212 1.339 . S
C213 C214 1.439 . S
C213 H242 0.950 . S
C214 N210 1.383 . S
C214 C213 1.439 . S
C214 C232 1.392 . S
N215 Co199 2.282 . S
N215 C218 1.332 . S
N215 C220 1.332 . S
C216 C217 1.386 . S
C216 C219 1.388 . S
C217 C216 1.386 . S
C217 C218 1.382 . S
C217 H243 0.950 . S
C218 N215 1.332 . S
C218 C217 1.382 . S
C218 H229 0.952 . S
C219 C216 1.388 . S
C219 C220 1.382 . S
C219 H244 0.950 . S
C220 N215 1.332 . S
C220 C219 1.382 . S
C220 H230 0.948 . S
N221 Co199 2.282 . S
N221 C225 1.332 . S
N221 C226 1.332 . S
C222 C223 1.388 . S
C222 C226 1.382 . S
C222 H245 0.950 . S
C223 C222 1.388 . S
C223 C224 1.386 . S
C224 C223 1.386 . S
C224 C225 1.382 . S
C224 H246 0.950 . S
C225 N221 1.332 . S
C225 C224 1.382 . S
C225 H227 0.952 . S
C226 N221 1.332 . S
C226 C222 1.382 . S
C226 H228 0.948 . S
H227 C225 0.952 . S
H228 C226 0.948 . S
H229 C218 0.952 . S
H230 C220 0.948 . S
C231 C197 1.395 . S
C231 C201 1.391 . S
C232 C194 1.389 . S
C232 C214 1.392 . S
C233 C204 1.392 . S
C233 C206 1.389 . S
C234 C209 1.395 . S
C234 C211 1.391 . S
H235 C195 0.951 . S
H236 C196 0.950 . S
H237 C202 0.949 . S
H238 C203 0.950 . S
H239 C207 0.951 . S
H240 C208 0.950 . S
H241 C212 0.949 . S
H242 C213 0.950 . S
H243 C217 0.950 . S
H244 C219 0.950 . S
H245 C222 0.950 . S
H246 C224 0.950 . S
C247 C248 1.443 . S
C247 N251 1.376 . S
C247 C285 1.389 . S
C248 C247 1.443 . S
C248 C249 1.340 . S
C248 H288 0.951 . S
C249 C248 1.340 . S
C249 C250 1.439 . S
C249 H289 0.950 . S
C250 C249 1.439 . S
C250 N251 1.374 . S
C250 C284 1.395 . S
N251 C247 1.376 . S
N251 C250 1.374 . S
N251 Co252 2.008 . S
Co252 N251 2.008 . S
Co252 N253 1.995 1_554 S
Co252 N258 2.008 1_554 S
Co252 N263 1.995 . S
Co252 N268 2.282 1_554 S
Co252 N274 2.282 . S
N253 Co252 1.995 1_556 S
N253 C254 1.379 . S
N253 C257 1.383 . S
C254 N253 1.379 . S
C254 C255 1.458 . S
C254 C284 1.379 1_556 S
C255 C254 1.458 . S
C255 C256 1.339 . S
C255 H290 0.949 . S
C256 C255 1.339 . S
C256 C257 1.439 . S
C256 H291 0.950 . S
C257 N253 1.383 . S
C257 C256 1.439 . S
C257 C286 1.392 . S
N258 Co252 2.008 1_556 S
N258 C259 1.376 . S
N258 C262 1.374 . S
C259 N258 1.376 . S
C259 C260 1.443 . S
C259 C286 1.389 . S
C260 C259 1.443 . S
C260 C261 1.340 . S
C260 H292 0.951 . S
C261 C260 1.340 . S
C261 C262 1.439 . S
C261 H293 0.950 . S
C262 N258 1.374 . S
C262 C261 1.439 . S
C262 C287 1.395 1_556 S
N263 Co252 1.995 . S
N263 C264 1.376 . S
N263 C267 1.383 . S
C264 N263 1.376 . S
C264 C265 1.446 . S
C264 C287 1.391 . S
C265 C264 1.446 . S
C265 C266 1.339 . S
C265 H294 0.949 . S
C266 C265 1.339 . S
C266 C267 1.439 . S
C266 H295 0.950 . S
C267 N263 1.383 . S
C267 C266 1.439 . S
C267 C285 1.392 . S
N268 Co252 2.282 1_556 S
N268 C271 1.332 . S
N268 C273 1.332 . S
C269 C270 1.386 . S
C269 C272 1.388 . S
C270 C269 1.386 . S
C270 C271 1.382 . S
C270 H296 0.950 . S
C271 N268 1.332 . S
C271 C270 1.382 . S
C271 H282 0.952 . S
C272 C269 1.388 . S
C272 C273 1.382 . S
C272 H297 0.950 . S
C273 N268 1.332 . S
C273 C272 1.382 . S
C273 H283 0.948 . S
N274 Co252 2.282 . S
N274 C278 1.332 . S
N274 C279 1.332 . S
C275 C276 1.388 . S
C275 C279 1.382 . S
C275 H298 0.950 . S
C276 C275 1.388 . S
C276 C277 1.386 . S
C277 C276 1.386 . S
C277 C278 1.382 . S
C277 H299 0.950 . S
C278 N274 1.332 . S
C278 C277 1.382 . S
C278 H280 0.952 . S
C279 N274 1.332 . S
C279 C275 1.382 . S
C279 H281 0.948 . S
H280 C278 0.952 . S
H281 C279 0.948 . S
H282 C271 0.952 . S
H283 C273 0.948 . S
C284 C250 1.395 . S
C284 C254 1.379 1_554 S
C285 C247 1.389 . S
C285 C267 1.392 . S
C286 C257 1.392 . S
C286 C259 1.389 . S
C287 C262 1.395 1_554 S
C287 C264 1.391 . S
H288 C248 0.951 . S
H289 C249 0.950 . S
H290 C255 0.949 . S
H291 C256 0.950 . S
H292 C260 0.951 . S
H293 C261 0.950 . S
H294 C265 0.949 . S
H295 C266 0.950 . S
H296 C270 0.950 . S
H297 C272 0.950 . S
H298 C275 0.950 . S
H299 C277 0.950 . S
C300 C301 1.443 . S
C300 N304 1.376 1_565 S
C300 C338 1.389 . S
C301 C300 1.443 . S
C301 C302 1.323 1_565 S
C301 H341 0.951 . S
C302 C301 1.323 1_545 S
C302 C303 1.467 . S
C302 H342 0.942 . S
C303 C302 1.467 . S
C303 N304 1.374 . S
C303 C337 1.395 . S
N304 C300 1.376 1_545 S
N304 C303 1.374 . S
N304 Co305 2.008 . S
Co305 N304 2.008 . S
Co305 N306 1.995 . S
Co305 N311 2.008 . S
Co305 N316 1.995 1_545 S
Co305 N321 2.282 . S
Co305 N327 2.282 1_545 S
N306 Co305 1.995 . S
N306 C307 1.376 . S
N306 C310 1.383 . S
C307 N306 1.376 . S
C307 C308 1.446 . S
C307 C337 1.391 . S
C308 C307 1.446 . S
C308 C309 1.339 . S
C308 H343 0.949 . S
C309 C308 1.339 . S
C309 C310 1.439 . S
C309 H344 0.950 . S
C310 N306 1.383 . S
C310 C309 1.439 . S
C310 C339 1.392 . S
N311 Co305 2.008 . S
N311 C312 1.376 . S
N311 C315 1.374 . S
C312 N311 1.376 . S
C312 C313 1.443 . S
C312 C339 1.389 . S
C313 C312 1.443 . S
C313 C314 1.340 . S
C313 H345 0.951 . S
C314 C313 1.340 . S
C314 C315 1.439 . S
C314 H346 0.950 . S
C315 N311 1.374 . S
C315 C314 1.439 . S
C315 C340 1.395 . S
N316 Co305 1.995 1_565 S
N316 C317 1.376 . S
N316 C320 1.383 . S
C317 N316 1.376 . S
C317 C318 1.446 . S
C317 C340 1.391 1_565 S
C318 C317 1.446 . S
C318 C319 1.339 . S
C318 H347 0.949 . S
C319 C318 1.339 . S
C319 C320 1.439 . S
C319 H348 0.950 . S
C320 N316 1.383 . S
C320 C319 1.439 . S
C320 C338 1.392 . S
N321 Co305 2.282 . S
N321 C324 1.332 . S
N321 C326 1.332 . S
C322 C323 1.386 . S
C322 C325 1.388 . S
C323 C322 1.386 . S
C323 C324 1.382 . S
C323 H349 0.950 . S
C324 N321 1.332 . S
C324 C323 1.382 . S
C324 H335 0.952 . S
C325 C322 1.388 . S
C325 C326 1.382 . S
C325 H350 0.950 . S
C326 N321 1.332 . S
C326 C325 1.382 . S
C326 H336 0.948 . S
N327 Co305 2.282 1_565 S
N327 C331 1.332 . S
N327 C332 1.332 . S
C328 C329 1.388 . S
C328 C332 1.382 . S
C328 H351 0.950 . S
C329 C328 1.388 . S
C329 C330 1.386 . S
C330 C329 1.386 . S
C330 C331 1.382 . S
C330 H352 0.950 . S
C331 N327 1.332 . S
C331 C330 1.382 . S
C331 H333 0.952 1_565 S
C332 N327 1.332 . S
C332 C328 1.382 . S
C332 H334 0.948 . S
H333 C331 0.952 1_545 S
H334 C332 0.948 . S
H335 C324 0.952 . S
H336 C326 0.948 . S
C337 C303 1.395 . S
C337 C307 1.391 . S
C338 C300 1.389 . S
C338 C320 1.392 . S
C339 C310 1.392 . S
C339 C312 1.389 . S
C340 C315 1.395 . S
C340 C317 1.391 1_545 S
H341 C301 0.951 . S
H342 C302 0.942 . S
H343 C308 0.949 . S
H344 C309 0.950 . S
H345 C313 0.951 . S
H346 C314 0.950 . S
H347 C318 0.949 . S
H348 C319 0.950 . S
H349 C323 0.950 . S
H350 C325 0.950 . S
H351 C328 0.950 . S
H352 C330 0.950 . S
C353 C354 1.443 . S
C353 N357 1.376 . S
C353 C391 1.389 . S
C354 C353 1.443 . S
C354 C355 1.340 . S
C354 H394 0.951 . S
C355 C354 1.340 . S
C355 C356 1.439 . S
C355 H395 0.950 . S
C356 C355 1.439 . S
C356 N357 1.374 . S
C356 C390 1.395 . S
N357 C353 1.376 . S
N357 C356 1.374 . S
N357 Co358 2.008 . S
Co358 N357 2.008 . S
Co358 N359 1.995 . S
Co358 N364 2.008 . S
Co358 N369 1.995 . S
Co358 N374 2.282 1_554 S
Co358 N380 2.282 . S
N359 Co358 1.995 . S
N359 C360 1.376 . S
N359 C363 1.383 1_554 S
C360 N359 1.376 . S
C360 C361 1.446 1_554 S
C360 C390 1.391 . S
C361 C360 1.446 1_556 S
C361 C362 1.339 . S
C361 H396 0.949 . S
C362 C361 1.339 . S
C362 C363 1.439 . S
C362 H397 0.950 . S
C363 N359 1.383 1_556 S
C363 C362 1.439 . S
C363 C392 1.392 . S
N364 Co358 2.008 . S
N364 C365 1.376 1_554 S
N364 C368 1.374 . S
C365 N364 1.376 1_556 S
C365 C366 1.443 . S
C365 C392 1.389 . S
C366 C365 1.443 . S
C366 C367 1.340 . S
C366 H398 0.951 . S
C367 C366 1.340 . S
C367 C368 1.439 1_556 S
C367 H399 0.950 . S
C368 N364 1.374 . S
C368 C367 1.439 1_554 S
C368 C393 1.395 . S
N369 Co358 1.995 . S
N369 C370 1.376 . S
N369 C373 1.383 . S
C370 N369 1.376 . S
C370 C371 1.446 . S
C370 C393 1.391 . S
C371 C370 1.446 . S
C371 C372 1.339 . S
C371 H400 0.949 . S
C372 C371 1.339 . S
C372 C373 1.439 . S
C372 H401 0.950 . S
C373 N369 1.383 . S
C373 C372 1.439 . S
C373 C391 1.392 . S
N374 Co358 2.282 1_556 S
N374 C377 1.332 . S
N374 C379 1.332 . S
C375 C376 1.386 . S
C375 C378 1.388 . S
C376 C375 1.386 . S
C376 C377 1.382 . S
C376 H402 0.950 . S
C377 N374 1.332 . S
C377 C376 1.382 . S
C377 H388 0.952 1_556 S
C378 C375 1.388 . S
C378 C379 1.382 . S
C378 H403 0.950 . S
C379 N374 1.332 . S
C379 C378 1.382 . S
C379 H389 0.948 . S
N380 Co358 2.282 . S
N380 C384 1.332 . S
N380 C385 1.332 . S
C381 C382 1.388 . S
C381 C385 1.382 . S
C381 H404 0.950 . S
C382 C381 1.388 . S
C382 C383 1.386 . S
C383 C382 1.386 . S
C383 C384 1.382 . S
C383 H405 0.950 . S
C384 N380 1.332 . S
C384 C383 1.382 . S
C384 H386 0.952 . S
C385 N380 1.332 . S
C385 C381 1.382 . S
C385 H387 0.948 . S
H386 C384 0.952 . S
H387 C385 0.948 . S
H388 C377 0.952 1_554 S
H389 C379 0.948 . S
C390 C356 1.395 . S
C390 C360 1.391 . S
C391 C353 1.389 . S
C391 C373 1.392 . S
C392 C363 1.392 . S
C392 C365 1.389 . S
C393 C368 1.395 . S
C393 C370 1.391 . S
H394 C354 0.951 . S
H395 C355 0.950 . S
H396 C361 0.949 . S
H397 C362 0.950 . S
H398 C366 0.951 . S
H399 C367 0.950 . S
H400 C371 0.949 . S
H401 C372 0.950 . S
H402 C376 0.950 . S
H403 C378 0.950 . S
H404 C381 0.950 . S
H405 C383 0.950 . S
H406 C412 0.930 . S
H407 C415 0.930 . S
H408 C416 0.930 . S
H409 C417 0.930 . S
H410 C420 0.930 . S
H411 C421 0.930 . S
C412 H406 0.930 . S
C412 C413 1.355 . S
C412 C414 1.415 . S
C413 C412 1.355 . S
C413 C415 1.419 . S
C414 C412 1.415 . S
C414 C419 1.425 . S
C414 C421 1.409 . S
C415 H407 0.930 . S
C415 C413 1.419 . S
C415 C416 1.362 . S
C416 H408 0.930 . S
C416 C415 1.362 . S
C416 C419 1.409 . S
C417 H409 0.930 . S
C417 C418 1.355 . S
C417 C419 1.415 . S
C418 C417 1.355 . S
C418 C420 1.419 . S
C419 C414 1.425 . S
C419 C416 1.409 . S
C419 C417 1.415 . S
C420 H410 0.930 . S
C420 C418 1.419 . S
C420 C421 1.362 . S
C421 H411 0.930 . S
C421 C414 1.409 . S
C421 C420 1.362 . S
H422 C428 0.930 . S
H423 C431 0.930 . S
H424 C432 0.930 . S
H425 C433 0.930 . S
H426 C436 0.930 . S
H427 C437 0.930 . S
C428 H422 0.930 . S
C428 C429 1.355 . S
C428 C430 1.415 . S
C429 C428 1.355 . S
C429 C431 1.419 . S
C430 C428 1.415 . S
C430 C435 1.425 . S
C430 C437 1.409 . S
C431 H423 0.930 . S
C431 C429 1.419 . S
C431 C432 1.362 . S
C432 H424 0.930 . S
C432 C431 1.362 . S
C432 C435 1.409 . S
C433 H425 0.930 . S
C433 C434 1.355 . S
C433 C435 1.415 . S
C434 C433 1.355 . S
C434 C436 1.419 . S
C435 C430 1.425 . S
C435 C432 1.409 . S
C435 C433 1.415 . S
C436 H426 0.930 . S
C436 C434 1.419 . S
C436 C437 1.362 . S
C437 H427 0.930 . S
C437 C430 1.409 . S
C437 C436 1.362 . S
H438 C444 0.930 . S
H439 C447 0.930 . S
H440 C448 0.930 . S
H441 C449 0.930 . S
H442 C452 0.930 . S
H443 C453 0.930 . S
C444 H438 0.930 . S
C444 C445 1.355 . S
C444 C446 1.415 . S
C445 C444 1.355 . S
C445 C447 1.419 . S
C446 C444 1.415 . S
C446 C451 1.425 . S
C446 C453 1.409 . S
C447 H439 0.930 . S
C447 C445 1.419 . S
C447 C448 1.362 . S
C448 H440 0.930 . S
C448 C447 1.362 . S
C448 C451 1.409 . S
C449 H441 0.930 . S
C449 C450 1.355 . S
C449 C451 1.415 . S
C450 C449 1.355 . S
C450 C452 1.419 . S
C451 C446 1.425 . S
C451 C448 1.409 . S
C451 C449 1.415 . S
C452 H442 0.930 . S
C452 C450 1.419 . S
C452 C453 1.362 . S
C453 H443 0.930 . S
C453 C446 1.409 . S
C453 C452 1.362 . S
H454 C460 0.930 . S
H455 C463 0.930 . S
H456 C464 0.930 . S
H457 C465 0.930 . S
H458 C468 0.930 . S
H459 C469 0.930 . S
C460 H454 0.930 . S
C460 C461 1.355 . S
C460 C462 1.415 . S
C461 C460 1.355 . S
C461 C463 1.419 . S
C462 C460 1.415 . S
C462 C467 1.425 . S
C462 C469 1.409 . S
C463 H455 0.930 . S
C463 C461 1.419 . S
C463 C464 1.362 . S
C464 H456 0.930 . S
C464 C463 1.362 . S
C464 C467 1.409 . S
C465 H457 0.930 . S
C465 C466 1.355 . S
C465 C467 1.415 . S
C466 C465 1.355 . S
C466 C468 1.419 . S
C467 C462 1.425 . S
C467 C464 1.409 . S
C467 C465 1.415 . S
C468 H458 0.930 . S
C468 C466 1.419 . S
C468 C469 1.362 . S
C469 H459 0.930 . S
C469 C462 1.409 . S
C469 C468 1.362 . S
H470 C476 0.930 . S
H471 C479 0.930 . S
H472 C480 0.930 . S
H473 C481 0.930 . S
H474 C484 0.930 . S
H475 C485 0.930 . S
C476 H470 0.930 . S
C476 C477 1.355 . S
C476 C478 1.415 . S
C477 C476 1.355 . S
C477 C479 1.419 . S
C478 C476 1.415 . S
C478 C483 1.425 . S
C478 C485 1.409 . S
C479 H471 0.930 . S
C479 C477 1.419 . S
C479 C480 1.362 . S
C480 H472 0.930 . S
C480 C479 1.362 . S
C480 C483 1.409 . S
C481 H473 0.930 . S
C481 C482 1.355 . S
C481 C483 1.415 . S
C482 C481 1.355 . S
C482 C484 1.419 . S
C483 C478 1.425 . S
C483 C480 1.409 . S
C483 C481 1.415 . S
C484 H474 0.930 . S
C484 C482 1.419 . S
C484 C485 1.362 . S
C485 H475 0.930 . S
C485 C478 1.409 . S
C485 C484 1.362 . S
H486 C492 0.930 . S
H487 C495 0.930 . S
H488 C496 0.930 . S
H489 C497 0.930 . S
H490 C500 0.930 . S
H491 C501 0.930 . S
C492 H486 0.930 . S
C492 C493 1.355 . S
C492 C494 1.415 . S
C493 C492 1.355 . S
C493 C495 1.419 . S
C494 C492 1.415 . S
C494 C499 1.425 . S
C494 C501 1.409 . S
C495 H487 0.930 . S
C495 C493 1.419 . S
C495 C496 1.362 . S
C496 H488 0.930 . S
C496 C495 1.362 . S
C496 C499 1.409 . S
C497 H489 0.930 . S
C497 C498 1.355 . S
C497 C499 1.415 . S
C498 C497 1.355 . S
C498 C500 1.419 . S
C499 C494 1.425 . S
C499 C496 1.409 . S
C499 C497 1.415 . S
C500 H490 0.930 . S
C500 C498 1.419 . S
C500 C501 1.362 . S
C501 H491 0.930 . S
C501 C494 1.409 . S
C501 C500 1.362 . S
H502 C508 0.930 . S
H503 C511 0.930 . S
H504 C512 0.930 . S
H505 C513 0.930 . S
H506 C516 0.930 . S
H507 C517 0.930 . S
C508 H502 0.930 . S
C508 C509 1.355 . S
C508 C510 1.415 . S
C509 C508 1.355 . S
C509 C511 1.419 . S
C510 C508 1.415 . S
C510 C515 1.425 . S
C510 C517 1.409 . S
C511 H503 0.930 . S
C511 C509 1.419 . S
C511 C512 1.362 . S
C512 H504 0.930 . S
C512 C511 1.362 . S
C512 C515 1.409 . S
C513 H505 0.930 . S
C513 C514 1.355 . S
C513 C515 1.415 . S
C514 C513 1.355 . S
C514 C516 1.419 . S
C515 C510 1.425 . S
C515 C512 1.409 . S
C515 C513 1.415 . S
C516 H506 0.930 . S
C516 C514 1.419 . S
C516 C517 1.362 . S
C517 H507 0.930 . S
C517 C510 1.409 . S
C517 C516 1.362 . S
H518 C524 0.930 . S
H519 C527 0.930 . S
H520 C528 0.930 . S
H521 C529 0.930 . S
H522 C532 0.930 . S
H523 C533 0.930 . S
C524 H518 0.930 . S
C524 C525 1.355 . S
C524 C526 1.415 . S
C525 C524 1.355 . S
C525 C527 1.419 . S
C526 C524 1.415 . S
C526 C531 1.425 . S
C526 C533 1.409 . S
C527 H519 0.930 . S
C527 C525 1.419 . S
C527 C528 1.362 . S
C528 H520 0.930 . S
C528 C527 1.362 . S
C528 C531 1.409 . S
C529 H521 0.930 . S
C529 C530 1.355 . S
C529 C531 1.415 . S
C530 C529 1.355 . S
C530 C532 1.419 . S
C531 C526 1.425 . S
C531 C528 1.409 . S
C531 C529 1.415 . S
C532 H522 0.930 . S
C532 C530 1.419 . S
C532 C533 1.362 . S
C533 H523 0.930 . S
C533 C526 1.409 . S
C533 C532 1.362 . S
H534 C540 0.930 . S
H535 C543 0.930 . S
H536 C544 0.930 . S
H537 C545 0.930 . S
H538 C548 0.930 . S
H539 C549 0.930 . S
C540 H534 0.930 . S
C540 C541 1.355 . S
C540 C542 1.415 . S
C541 C540 1.355 . S
C541 C543 1.419 . S
C542 C540 1.415 . S
C542 C547 1.425 1_565 S
C542 C549 1.409 . S
C543 H535 0.930 . S
C543 C541 1.419 . S
C543 C544 1.362 1_565 S
C544 H536 0.930 . S
C544 C543 1.362 1_545 S
C544 C547 1.409 . S
C545 H537 0.930 . S
C545 C546 1.355 . S
C545 C547 1.415 . S
C546 C545 1.355 . S
C546 C548 1.419 . S
C547 C542 1.425 1_545 S
C547 C544 1.409 . S
C547 C545 1.415 . S
C548 H538 0.930 . S
C548 C546 1.419 . S
C548 C549 1.362 1_545 S
C549 H539 0.930 . S
C549 C542 1.409 . S
C549 C548 1.362 1_565 S
H550 C556 0.930 . S
H551 C559 0.930 . S
H552 C560 0.930 . S
H553 C561 0.930 . S
H554 C564 0.930 . S
H555 C565 0.930 . S
C556 H550 0.930 . S
C556 C557 1.355 . S
C556 C558 1.415 . S
C557 C556 1.355 . S
C557 C559 1.419 . S
C558 C556 1.415 . S
C558 C563 1.425 . S
C558 C565 1.409 . S
C559 H551 0.930 . S
C559 C557 1.419 . S
C559 C560 1.362 . S
C560 H552 0.930 . S
C560 C559 1.362 . S
C560 C563 1.409 . S
C561 H553 0.930 . S
C561 C562 1.355 . S
C561 C563 1.415 . S
C562 C561 1.355 . S
C562 C564 1.419 . S
C563 C558 1.425 . S
C563 C560 1.409 . S
C563 C561 1.415 . S
C564 H554 0.930 . S
C564 C562 1.419 . S
C564 C565 1.362 . S
C565 H555 0.930 . S
C565 C558 1.409 . S
C565 C564 1.362 . S
H566 C572 0.930 . S
H567 C575 0.930 . S
H568 C576 0.930 . S
H569 C577 0.930 . S
H570 C580 0.930 . S
H571 C581 0.930 . S
C572 H566 0.930 . S
C572 C573 1.355 . S
C572 C574 1.415 . S
C573 C572 1.355 . S
C573 C575 1.419 . S
C574 C572 1.415 . S
C574 C579 1.425 . S
C574 C581 1.409 . S
C575 H567 0.930 . S
C575 C573 1.419 . S
C575 C576 1.362 . S
C576 H568 0.930 . S
C576 C575 1.362 . S
C576 C579 1.409 . S
C577 H569 0.930 . S
C577 C578 1.355 . S
C577 C579 1.415 . S
C578 C577 1.355 . S
C578 C580 1.419 . S
C579 C574 1.425 . S
C579 C576 1.409 . S
C579 C577 1.415 . S
C580 H570 0.930 . S
C580 C578 1.419 . S
C580 C581 1.362 . S
C581 H571 0.930 . S
C581 C574 1.409 . S
C581 C580 1.362 . S
H582 C588 0.930 . S
H583 C591 0.930 . S
H584 C592 0.930 . S
H585 C593 0.930 . S
H586 C596 0.930 . S
H587 C597 0.930 . S
C588 H582 0.930 . S
C588 C589 1.355 . S
C588 C590 1.415 . S
C589 C588 1.355 . S
C589 C591 1.419 . S
C590 C588 1.415 . S
C590 C595 1.425 . S
C590 C597 1.409 . S
C591 H583 0.930 . S
C591 C589 1.419 . S
C591 C592 1.362 . S
C592 H584 0.930 . S
C592 C591 1.362 . S
C592 C595 1.409 . S
C593 H585 0.930 . S
C593 C594 1.355 . S
C593 C595 1.415 . S
C594 C593 1.355 . S
C594 C596 1.419 . S
C595 C590 1.425 . S
C595 C592 1.409 . S
C595 C593 1.415 . S
C596 H586 0.930 . S
C596 C594 1.419 . S
C596 C597 1.362 . S
C597 H587 0.930 . S
C597 C590 1.409 . S
C597 C596 1.362 . S
H598 C604 0.930 . S
H599 C607 0.930 . S
H600 C608 0.930 . S
H601 C609 0.930 . S
H602 C612 0.930 . S
H603 C613 0.930 . S
C604 H598 0.930 . S
C604 C605 1.355 . S
C604 C606 1.415 . S
C605 C604 1.355 . S
C605 C607 1.419 . S
C606 C604 1.415 . S
C606 C611 1.425 . S
C606 C613 1.409 . S
C607 H599 0.930 . S
C607 C605 1.419 . S
C607 C608 1.362 . S
C608 H600 0.930 . S
C608 C607 1.362 . S
C608 C611 1.409 . S
C609 H601 0.930 . S
C609 C610 1.355 . S
C609 C611 1.415 . S
C610 C609 1.355 . S
C610 C612 1.419 . S
C611 C606 1.425 . S
C611 C608 1.409 . S
C611 C609 1.415 . S
C612 H602 0.930 . S
C612 C610 1.419 . S
C612 C613 1.362 . S
C613 H603 0.930 . S
C613 C606 1.409 . S
C613 C612 1.362 . S
H614 C620 0.930 . S
H615 C623 0.930 . S
H616 C624 0.930 . S
H617 C625 0.930 . S
H618 C628 0.930 1_455 S
H619 C629 0.930 . S
C620 H614 0.930 . S
C620 C621 1.355 . S
C620 C622 1.415 . S
C621 C620 1.355 . S
C621 C623 1.419 . S
C622 C620 1.415 . S
C622 C627 1.425 . S
C622 C629 1.409 . S
C623 H615 0.930 . S
C623 C621 1.419 . S
C623 C624 1.362 . S
C624 H616 0.930 . S
C624 C623 1.362 . S
C624 C627 1.409 . S
C625 H617 0.930 . S
C625 C626 1.355 . S
C625 C627 1.415 . S
C626 C625 1.355 . S
C626 C628 1.419 . S
C627 C622 1.425 . S
C627 C624 1.409 . S
C627 C625 1.415 . S
C628 H618 0.930 1_655 S
C628 C626 1.419 . S
C628 C629 1.362 . S
C629 H619 0.930 . S
C629 C622 1.409 . S
C629 C628 1.362 . S
H630 C636 0.930 . S
H631 C639 0.930 . S
H632 C640 0.930 . S
H633 C641 0.930 . S
H634 C644 0.930 . S
H635 C645 0.930 . S
C636 H630 0.930 . S
C636 C637 1.355 . S
C636 C638 1.415 . S
C637 C636 1.355 . S
C637 C639 1.419 . S
C638 C636 1.415 . S
C638 C643 1.425 . S
C638 C645 1.409 . S
C639 H631 0.930 . S
C639 C637 1.419 . S
C639 C640 1.362 . S
C640 H632 0.930 . S
C640 C639 1.362 . S
C640 C643 1.409 . S
C641 H633 0.930 . S
C641 C642 1.355 . S
C641 C643 1.415 . S
C642 C641 1.355 . S
C642 C644 1.419 . S
C643 C638 1.425 . S
C643 C640 1.409 . S
C643 C641 1.415 . S
C644 H634 0.930 . S
C644 C642 1.419 . S
C644 C645 1.362 . S
C645 H635 0.930 . S
C645 C638 1.409 . S
C645 C644 1.362 . S
H646 C652 0.930 . S
H647 C655 0.930 . S
H648 C656 0.930 . S
H649 C657 0.930 . S
H650 C660 0.930 . S
H651 C661 0.930 . S
C652 H646 0.930 . S
C652 C653 1.355 . S
C652 C654 1.415 . S
C653 C652 1.355 . S
C653 C655 1.419 . S
C654 C652 1.415 . S
C654 C659 1.425 . S
C654 C661 1.409 . S
C655 H647 0.930 . S
C655 C653 1.419 . S
C655 C656 1.362 . S
C656 H648 0.930 . S
C656 C655 1.362 . S
C656 C659 1.409 . S
C657 H649 0.930 . S
C657 C658 1.355 . S
C657 C659 1.415 . S
C658 C657 1.355 . S
C658 C660 1.419 . S
C659 C654 1.425 . S
C659 C656 1.409 . S
C659 C657 1.415 . S
C660 H650 0.930 . S
C660 C658 1.419 . S
C660 C661 1.362 . S
C661 H651 0.930 . S
C661 C654 1.409 . S
C661 C660 1.362 . S
H662 C668 0.930 . S
H663 C671 0.930 . S
H664 C672 0.930 . S
H665 C673 0.930 . S
H666 C676 0.930 . S
H667 C677 0.930 . S
C668 H662 0.930 . S
C668 C669 1.355 . S
C668 C670 1.415 . S
C669 C668 1.355 . S
C669 C671 1.419 . S
C670 C668 1.415 . S
C670 C675 1.425 . S
C670 C677 1.409 . S
C671 H663 0.930 . S
C671 C669 1.419 . S
C671 C672 1.362 . S
C672 H664 0.930 . S
C672 C671 1.362 . S
C672 C675 1.409 . S
C673 H665 0.930 . S
C673 C674 1.355 . S
C673 C675 1.415 . S
C674 C673 1.355 . S
C674 C676 1.419 . S
C675 C670 1.425 . S
C675 C672 1.409 . S
C675 C673 1.415 . S
C676 H666 0.930 . S
C676 C674 1.419 . S
C676 C677 1.362 . S
C677 H667 0.930 . S
C677 C670 1.409 . S
C677 C676 1.362 . S
H678 C684 0.930 . S
H679 C687 0.930 . S
H680 C688 0.930 . S
H681 C689 0.930 . S
H682 C692 0.930 . S
H683 C693 0.930 . S
C684 H678 0.930 . S
C684 C685 1.355 . S
C684 C686 1.415 . S
C685 C684 1.355 . S
C685 C687 1.419 . S
C686 C684 1.415 . S
C686 C691 1.425 . S
C686 C693 1.409 . S
C687 H679 0.930 . S
C687 C685 1.419 . S
C687 C688 1.362 . S
C688 H680 0.930 . S
C688 C687 1.362 . S
C688 C691 1.409 . S
C689 H681 0.930 . S
C689 C690 1.355 . S
C689 C691 1.415 . S
C690 C689 1.355 . S
C690 C692 1.419 . S
C691 C686 1.425 . S
C691 C688 1.409 . S
C691 C689 1.415 . S
C692 H682 0.930 . S
C692 C690 1.419 . S
C692 C693 1.362 . S
C693 H683 0.930 . S
C693 C686 1.409 . S
C693 C692 1.362 . S
H694 C700 0.930 . S
H695 C703 0.930 . S
H696 C704 0.930 . S
H697 C705 0.930 . S
H698 C708 0.930 . S
H699 C709 0.930 . S
C700 H694 0.930 . S
C700 C701 1.355 . S
C700 C702 1.415 . S
C701 C700 1.355 . S
C701 C703 1.419 . S
C702 C700 1.415 . S
C702 C707 1.425 . S
C702 C709 1.409 . S
C703 H695 0.930 . S
C703 C701 1.419 . S
C703 C704 1.362 . S
C704 H696 0.930 . S
C704 C703 1.362 . S
C704 C707 1.409 . S
C705 H697 0.930 . S
C705 C706 1.355 . S
C705 C707 1.415 . S
C706 C705 1.355 . S
C706 C708 1.419 . S
C707 C702 1.425 . S
C707 C704 1.409 . S
C707 C705 1.415 . S
C708 H698 0.930 . S
C708 C706 1.419 . S
C708 C709 1.362 . S
C709 H699 0.930 . S
C709 C702 1.409 . S
C709 C708 1.362 . S
H710 C716 0.930 . S
H711 C719 0.930 . S
H712 C720 0.930 . S
H713 C721 0.930 . S
H714 C724 0.930 . S
H715 C725 0.930 . S
C716 H710 0.930 . S
C716 C717 1.355 . S
C716 C718 1.415 . S
C717 C716 1.355 . S
C717 C719 1.419 . S
C718 C716 1.415 . S
C718 C723 1.425 . S
C718 C725 1.409 . S
C719 H711 0.930 . S
C719 C717 1.419 . S
C719 C720 1.362 . S
C720 H712 0.930 . S
C720 C719 1.362 . S
C720 C723 1.409 . S
C721 H713 0.930 . S
C721 C722 1.355 . S
C721 C723 1.415 . S
C722 C721 1.355 . S
C722 C724 1.419 . S
C723 C718 1.425 . S
C723 C720 1.409 . S
C723 C721 1.415 . S
C724 H714 0.930 . S
C724 C722 1.419 . S
C724 C725 1.362 . S
C725 H715 0.930 . S
C725 C718 1.409 . S
C725 C724 1.362 . S
H726 C732 0.930 . S
H727 C735 0.930 . S
H728 C736 0.930 . S
H729 C737 0.930 . S
H730 C740 0.930 . S
H731 C741 0.930 . S
C732 H726 0.930 . S
C732 C733 1.355 . S
C732 C734 1.415 . S
C733 C732 1.355 . S
C733 C735 1.419 . S
C734 C732 1.415 . S
C734 C739 1.425 . S
C734 C741 1.409 . S
C735 H727 0.930 . S
C735 C733 1.419 . S
C735 C736 1.362 . S
C736 H728 0.930 . S
C736 C735 1.362 . S
C736 C739 1.409 . S
C737 H729 0.930 . S
C737 C738 1.355 . S
C737 C739 1.415 . S
C738 C737 1.355 . S
C738 C740 1.419 . S
C739 C734 1.425 . S
C739 C736 1.409 . S
C739 C737 1.415 . S
C740 H730 0.930 . S
C740 C738 1.419 . S
C740 C741 1.362 . S
C741 H731 0.930 . S
C741 C734 1.409 . S
C741 C740 1.362 . S
H742 C748 0.930 . S
H743 C751 0.930 . S
H744 C752 0.930 . S
H745 C753 0.930 . S
H746 C756 0.930 . S
H747 C757 0.930 . S
C748 H742 0.930 . S
C748 C749 1.355 . S
C748 C750 1.415 . S
C749 C748 1.355 . S
C749 C751 1.419 . S
C750 C748 1.415 . S
C750 C755 1.425 . S
C750 C757 1.409 . S
C751 H743 0.930 . S
C751 C749 1.419 . S
C751 C752 1.362 . S
C752 H744 0.930 . S
C752 C751 1.362 . S
C752 C755 1.409 . S
C753 H745 0.930 . S
C753 C754 1.355 . S
C753 C755 1.415 . S
C754 C753 1.355 . S
C754 C756 1.419 . S
C755 C750 1.425 . S
C755 C752 1.409 . S
C755 C753 1.415 . S
C756 H746 0.930 . S
C756 C754 1.419 . S
C756 C757 1.362 . S
C757 H747 0.930 . S
C757 C750 1.409 . S
C757 C756 1.362 . S
H758 C764 0.930 . S
H759 C767 0.930 . S
H760 C768 0.930 . S
H761 C769 0.930 . S
H762 C772 0.930 . S
H763 C773 0.918 1_545 S
C764 H758 0.930 . S
C764 C765 1.355 . S
C764 C766 1.415 . S
C765 C764 1.355 . S
C765 C767 1.419 . S
C766 C764 1.415 . S
C766 C771 1.425 . S
C766 C773 1.444 . S
C767 H759 0.930 . S
C767 C765 1.419 . S
C767 C768 1.362 . S
C768 H760 0.930 . S
C768 C767 1.362 . S
C768 C771 1.409 . S
C769 H761 0.930 . S
C769 C770 1.355 1_565 S
C769 C771 1.415 . S
C770 C769 1.355 1_545 S
C770 C772 1.419 . S
C771 C766 1.425 . S
C771 C768 1.409 . S
C771 C769 1.415 . S
C772 H762 0.930 . S
C772 C770 1.419 . S
C772 C773 1.340 1_545 S
C773 H763 0.918 1_565 S
C773 C766 1.444 . S
C773 C772 1.340 1_565 S
H774 C780 0.930 . S
H775 C783 0.930 . S
H776 C784 0.930 . S
H777 C785 0.930 . S
H778 C788 0.930 . S
H779 C789 0.930 . S
C780 H774 0.930 . S
C780 C781 1.355 . S
C780 C782 1.415 . S
C781 C780 1.355 . S
C781 C783 1.419 . S
C782 C780 1.415 . S
C782 C787 1.425 . S
C782 C789 1.409 . S
C783 H775 0.930 . S
C783 C781 1.419 . S
C783 C784 1.362 . S
C784 H776 0.930 . S
C784 C783 1.362 . S
C784 C787 1.409 . S
C785 H777 0.930 . S
C785 C786 1.355 . S
C785 C787 1.415 . S
C786 C785 1.355 . S
C786 C788 1.419 . S
C787 C782 1.425 . S
C787 C784 1.409 . S
C787 C785 1.415 . S
C788 H778 0.930 . S
C788 C786 1.419 . S
C788 C789 1.362 . S
C789 H779 0.930 . S
C789 C782 1.409 . S
C789 C788 1.362 . S
C418 C110 1.542 . S
C413 C5 1.343 . S
C434 C179 1.497 . S
C429 C16 1.285 . S
C450 C117 1.683 . S
C445 C30 1.678 . S
C466 C180 1.600 . S
C461 C40 1.519 . S
C482 C233 1.443 . S
C477 C8 1.449 . S
C498 C269 1.481 . S
C493 C18 1.386 . S
C509 C29 1.692 . S
C514 C329 1.723 . S
C530 C392 1.550 . S
C525 C38 1.250 . S
C546 C232 1.436 . S
C541 C19 1.430 . S
C557 C27 1.526 . S
C562 C276 1.625 . S
C578 C322 1.598 . S
C573 C41 1.570 . S
C594 C391 1.542 . S
C589 C7 1.468 . S
C605 C52 1.549 . S
C610 C170 1.568 . S
C626 C127 1.598 . S
C621 C62 1.542 . S
C637 C74 1.417 . S
C642 C163 1.406 . S
C653 C82 1.143 . S
C658 C126 1.399 . S
C674 C338 1.799 . S
C669 C51 1.720 . S
C690 C382 1.586 . S
C685 C60 1.302 . S
C706 C216 1.546 . S
C701 C71 1.339 . S
C717 C84 1.389 . S
C722 C285 1.474 . S
C738 C339 1.654 . S
C733 C63 1.656 . S
C754 C375 1.488 . S
C749 C73 1.413 . S
C770 C223 1.509 . S
C765 C85 1.555 . S
C781 C49 1.279 . S
C786 C286 1.639 . S
