# Generated by pormake.
# Topology ocu, (6,8)-cn, num edge types: 1
# Building blocks:
#     Node 0, Type 0, BuildingBlock: KUMJIN_clean_sbu_0, # of connection points: 6
#     Node 1, Type 0, BuildingBlock: KUMJIN_clean_sbu_0, # of connection points: 6
#     Node 2, Type 0, BuildingBlock: KUMJIN_clean_sbu_0, # of connection points: 6
#     Node 3, Type 0, BuildingBlock: KUMJIN_clean_sbu_0, # of connection points: 6
#     Node 4, Type 0, BuildingBlock: KUMJIN_clean_sbu_0, # of connection points: 6
#     Node 5, Type 0, BuildingBlock: KUMJIN_clean_sbu_0, # of connection points: 6
#     Node 6, Type 0, BuildingBlock: KUMJIN_clean_sbu_0, # of connection points: 6
#     Node 7, Type 0, BuildingBlock: KUMJIN_clean_sbu_0, # of connection points: 6
#     Node 8, Type 1, BuildingBlock: GIZVER_clean_sbu_0, # of connection points: 8
#     Node 9, Type 1, BuildingBlock: GIZVER_clean_sbu_0, # of connection points: 8
#     Node 10, Type 1, BuildingBlock: GIZVER_clean_sbu_0, # of connection points: 8
#     Node 11, Type 1, BuildingBlock: GIZVER_clean_sbu_0, # of connection points: 8
#     Node 12, Type 1, BuildingBlock: GIZVER_clean_sbu_0, # of connection points: 8
#     Node 13, Type 1, BuildingBlock: GIZVER_clean_sbu_0, # of connection points: 8
#     Edge 14, Type (0, 1), BuildingBlock: AJUNOK_clean_linker_0, # of connection points: 2
#     Edge 15, Type (0, 1), BuildingBlock: AJUNOK_clean_linker_0, # of connection points: 2
#     Edge 16, Type (0, 1), BuildingBlock: AJUNOK_clean_linker_0, # of connection points: 2
#     Edge 17, Type (0, 1), BuildingBlock: AJUNOK_clean_linker_0, # of connection points: 2
#     Edge 18, Type (0, 1), BuildingBlock: AJUNOK_clean_linker_0, # of connection points: 2
#     Edge 19, Type (0, 1), BuildingBlock: AJUNOK_clean_linker_0, # of connection points: 2
#     Edge 20, Type (0, 1), BuildingBlock: AJUNOK_clean_linker_0, # of connection points: 2
#     Edge 21, Type (0, 1), BuildingBlock: AJUNOK_clean_linker_0, # of connection points: 2
#     Edge 22, Type (0, 1), BuildingBlock: AJUNOK_clean_linker_0, # of connection points: 2
#     Edge 23, Type (0, 1), BuildingBlock: AJUNOK_clean_linker_0, # of connection points: 2
#     Edge 24, Type (0, 1), BuildingBlock: AJUNOK_clean_linker_0, # of connection points: 2
#     Edge 25, Type (0, 1), BuildingBlock: AJUNOK_clean_linker_0, # of connection points: 2
#     Edge 26, Type (0, 1), BuildingBlock: AJUNOK_clean_linker_0, # of connection points: 2
#     Edge 27, Type (0, 1), BuildingBlock: AJUNOK_clean_linker_0, # of connection points: 2
#     Edge 28, Type (0, 1), BuildingBlock: AJUNOK_clean_linker_0, # of connection points: 2
#     Edge 29, Type (0, 1), BuildingBlock: AJUNOK_clean_linker_0, # of connection points: 2
#     Edge 30, Type (0, 1), BuildingBlock: AJUNOK_clean_linker_0, # of connection points: 2
#     Edge 31, Type (0, 1), BuildingBlock: AJUNOK_clean_linker_0, # of connection points: 2
#     Edge 32, Type (0, 1), BuildingBlock: AJUNOK_clean_linker_0, # of connection points: 2
#     Edge 33, Type (0, 1), BuildingBlock: AJUNOK_clean_linker_0, # of connection points: 2
#     Edge 34, Type (0, 1), BuildingBlock: AJUNOK_clean_linker_0, # of connection points: 2
#     Edge 35, Type (0, 1), BuildingBlock: AJUNOK_clean_linker_0, # of connection points: 2
#     Edge 36, Type (0, 1), BuildingBlock: AJUNOK_clean_linker_0, # of connection points: 2
#     Edge 37, Type (0, 1), BuildingBlock: AJUNOK_clean_linker_0, # of connection points: 2
#     Edge 38, Type (0, 1), BuildingBlock: AJUNOK_clean_linker_0, # of connection points: 2
#     Edge 39, Type (0, 1), BuildingBlock: AJUNOK_clean_linker_0, # of connection points: 2
#     Edge 40, Type (0, 1), BuildingBlock: AJUNOK_clean_linker_0, # of connection points: 2
#     Edge 41, Type (0, 1), BuildingBlock: AJUNOK_clean_linker_0, # of connection points: 2
#     Edge 42, Type (0, 1), BuildingBlock: AJUNOK_clean_linker_0, # of connection points: 2
#     Edge 43, Type (0, 1), BuildingBlock: AJUNOK_clean_linker_0, # of connection points: 2
#     Edge 44, Type (0, 1), BuildingBlock: AJUNOK_clean_linker_0, # of connection points: 2
#     Edge 45, Type (0, 1), BuildingBlock: AJUNOK_clean_linker_0, # of connection points: 2
#     Edge 46, Type (0, 1), BuildingBlock: AJUNOK_clean_linker_0, # of connection points: 2
#     Edge 47, Type (0, 1), BuildingBlock: AJUNOK_clean_linker_0, # of connection points: 2
#     Edge 48, Type (0, 1), BuildingBlock: AJUNOK_clean_linker_0, # of connection points: 2
#     Edge 49, Type (0, 1), BuildingBlock: AJUNOK_clean_linker_0, # of connection points: 2
#     Edge 50, Type (0, 1), BuildingBlock: AJUNOK_clean_linker_0, # of connection points: 2
#     Edge 51, Type (0, 1), BuildingBlock: AJUNOK_clean_linker_0, # of connection points: 2
#     Edge 52, Type (0, 1), BuildingBlock: AJUNOK_clean_linker_0, # of connection points: 2
#     Edge 53, Type (0, 1), BuildingBlock: AJUNOK_clean_linker_0, # of connection points: 2
#     Edge 54, Type (0, 1), BuildingBlock: AJUNOK_clean_linker_0, # of connection points: 2
#     Edge 55, Type (0, 1), BuildingBlock: AJUNOK_clean_linker_0, # of connection points: 2
#     Edge 56, Type (0, 1), BuildingBlock: AJUNOK_clean_linker_0, # of connection points: 2
#     Edge 57, Type (0, 1), BuildingBlock: AJUNOK_clean_linker_0, # of connection points: 2
#     Edge 58, Type (0, 1), BuildingBlock: AJUNOK_clean_linker_0, # of connection points: 2
#     Edge 59, Type (0, 1), BuildingBlock: AJUNOK_clean_linker_0, # of connection points: 2
#     Edge 60, Type (0, 1), BuildingBlock: AJUNOK_clean_linker_0, # of connection points: 2
#     Edge 61, Type (0, 1), BuildingBlock: AJUNOK_clean_linker_0, # of connection points: 2
# Relax obj value: 0.182
# Max RMSD: 0.290
# Mean RMSD: 0.215
data_MOF--net-ocu--node1-KUMJIN_clean_sbu_0--node2-GIZVER_clean_sbu_0--edge1-AJUNOK_clean_linker_0
_symmetry_space_group_name_H-M    P1
_symmetry_Int_Tables_number       1
_symmetry_cell_setting            triclinic
loop_
_symmetry_equiv_pos_as_xyz
'x, y, z'
_cell_length_a     33.565124
_cell_length_b     34.984625
_cell_length_c     27.468523
_cell_angle_alpha  75.957225
_cell_angle_beta   103.30829
_cell_angle_gamma 117.58548
loop_
_atom_site_label
_atom_site_type_symbol
_atom_site_fract_x
_atom_site_fract_y
_atom_site_fract_z
_atom_type_partial_charge
Eu0 Eu 0.26432 0.23826 0.19199 0.0
C1 C 0.40999 0.34364 0.3397 0.0
C2 C 0.417 0.28343 0.40056 0.0
C3 C 0.4829 0.35338 0.38986 0.0
C4 C 0.39067 0.30065 0.36301 0.0
C5 C 0.45565 0.37116 0.35503 0.0
C6 C 0.4637 0.30935 0.41213 0.0
C7 C 0.44175 0.43253 0.3068 0.0
N8 N 0.38279 0.35968 0.30605 0.0
C9 C 0.39701 0.40369 0.29162 0.0
C10 C 0.47165 0.41607 0.33724 0.0
Eu11 Eu 0.30783 0.30843 0.28356 0.0
N12 N 0.34524 0.27697 0.35241 0.0
C13 C 0.3231 0.23853 0.38246 0.0
C14 C 0.39508 0.24137 0.42685 0.0
C15 C 0.34772 0.21974 0.41957 0.0
H16 H 0.37399 0.41632 0.2675 0.0
H17 H 0.32996 0.18797 0.44098 0.0
H18 H 0.4847 0.29642 0.44025 0.0
H19 H 0.45322 0.46736 0.29462 0.0
H20 H 0.28665 0.22102 0.37605 0.0
H21 H 0.2774 0.37108 0.03054 0.0
H22 H 0.41434 0.22588 0.45345 0.0
H23 H 0.17267 0.13985 0.20917 0.0
H24 H 0.30644 0.32923 0.10094 0.0
H25 H 0.08985 0.10853 0.18481 0.0
H26 H 0.51834 0.37377 0.40134 0.0
H27 H 0.19492 0.34695 0.00613 0.0
H28 H 0.11608 0.29143 0.019 0.0
H29 H 0.50636 0.43844 0.34863 0.0
H30 H 0.06508 0.22071 0.06126 0.0
N31 N 0.24104 0.28073 0.11911 0.0
C32 C 0.27031 0.31743 0.0918 0.0
C33 C 0.2074 0.32792 0.03741 0.0
C34 C 0.17751 0.28927 0.06343 0.0
C35 C 0.25396 0.34163 0.05114 0.0
C36 C 0.19545 0.26571 0.10427 0.0
H37 H 0.05491 0.15234 0.12272 0.0
N38 N 0.18452 0.20274 0.16598 0.0
C39 C 0.11081 0.14185 0.16935 0.0
C40 C 0.16647 0.22592 0.12865 0.0
C41 C 0.15771 0.16007 0.18383 0.0
C42 C 0.09129 0.16662 0.13424 0.0
C43 C 0.11918 0.20865 0.11233 0.0
O44 O 0.31007 0.22834 0.15557 0.0
O45 O 0.31881 0.25386 0.26144 0.0
O46 O 0.36318 0.33905 0.23308 0.0
O47 O 0.33246 0.2928 0.17257 0.0
O48 O 0.27667 0.18859 0.25622 0.0
O49 O 0.23868 0.18723 0.14501 0.0
O50 O 0.29099 0.35956 0.29256 0.0
O51 O 0.25124 0.28939 0.21677 0.0
O52 O 0.22167 0.20011 0.2554 0.0
O53 O 0.24273 0.25196 0.3066 0.0
O54 O 0.2934 0.35531 0.21636 0.0
O55 O 0.2927 0.3106 0.35652 0.0
C56 C 0.31255 0.21406 0.28231 0.0
C57 C 0.28724 0.15479 0.1473 0.0
C58 C 0.32351 0.1151 0.12638 0.0
C59 C 0.31478 0.15221 0.11767 0.0
C60 C 0.30338 0.08033 0.16454 0.0
C61 C 0.26781 0.11965 0.18531 0.0
C62 C 0.27577 0.08266 0.19366 0.0
C63 C 0.3651 0.3272 0.19182 0.0
C64 C 0.27833 0.19381 0.13779 0.0
C65 C 0.1013 0.23312 0.07361 0.0
C66 C 0.13039 0.27336 0.04935 0.0
C67 C 0.25618 0.32811 0.194 0.0
C68 C 0.30539 0.3799 0.37302 0.0
C69 C 0.27698 0.39584 0.38325 0.0
C70 C 0.29497 0.43189 0.40944 0.0
C71 C 0.3421 0.45172 0.42467 0.0
C72 C 0.35171 0.39861 0.39171 0.0
C73 C 0.36997 0.43464 0.41679 0.0
C74 C 0.2164 0.21319 0.29355 0.0
C75 C 0.28636 0.34582 0.34016 0.0
H76 H 0.32903 0.17892 0.08768 0.0
H77 H 0.30965 0.05156 0.17254 0.0
H78 H 0.2462 0.12058 0.20839 0.0
H79 H 0.26064 0.05573 0.22304 0.0
H80 H 0.24083 0.37971 0.37112 0.0
H81 H 0.35737 0.48017 0.44338 0.0
H82 H 0.37388 0.38575 0.3866 0.0
H83 H 0.40599 0.44952 0.43005 0.0
Eu84 Eu 0.82055 0.24513 0.26822 0.0
C85 C 0.67026 0.26876 0.28659 0.0
C86 C 0.60229 0.23613 0.22826 0.0
C87 C 0.5967 0.22792 0.31706 0.0
C88 C 0.64986 0.25982 0.2384 0.0
C89 C 0.6436 0.25392 0.32621 0.0
C90 C 0.57606 0.21903 0.26813 0.0
C91 C 0.71074 0.29449 0.37999 0.0
N92 N 0.71576 0.29381 0.29419 0.0
C93 C 0.73572 0.30835 0.33973 0.0
C94 C 0.66465 0.26648 0.37358 0.0
Eu95 Eu 0.75641 0.30866 0.22531 0.0
N96 N 0.67609 0.27689 0.20072 0.0
C97 C 0.65614 0.27606 0.15124 0.0
C98 C 0.58231 0.2316 0.17809 0.0
C99 C 0.60927 0.25259 0.13926 0.0
H100 H 0.77104 0.33012 0.3465 0.0
H101 H 0.59401 0.25077 0.10012 0.0
H102 H 0.53962 0.20014 0.2612 0.0
H103 H 0.72731 0.30533 0.41607 0.0
H104 H 0.6767 0.29273 0.12088 0.0
H105 H 0.97271 0.28086 0.40923 0.0
H106 H 0.54599 0.21345 0.16886 0.0
H107 H 0.81096 0.23518 0.14318 0.0
H108 H 0.89036 0.25197 0.37885 0.0
H109 H 0.85961 0.25288 0.08138 0.0
H110 H 0.5759 0.21564 0.34722 0.0
H111 H 1.02751 0.31108 0.34773 0.0
H112 H 1.04128 0.32501 0.25784 0.0
H113 H 0.64545 0.2557 0.40498 0.0
H114 H 1.01051 0.31705 0.16872 0.0
N115 N 0.89873 0.26791 0.30091 0.0
C116 C 0.91421 0.26568 0.35174 0.0
C117 C 0.99147 0.29878 0.33424 0.0
C118 C 0.97532 0.29807 0.28258 0.0
C119 C 0.96069 0.28174 0.36906 0.0
C120 C 0.92802 0.28172 0.26689 0.0
H121 H 0.94333 0.2892 0.1031 0.0
N122 N 0.86475 0.25962 0.2032 0.0
C123 C 0.87476 0.26066 0.11894 0.0
C124 C 0.91058 0.27706 0.21675 0.0
C125 C 0.84678 0.25014 0.15517 0.0
C126 C 0.9217 0.28091 0.13145 0.0
C127 C 0.94024 0.28887 0.18097 0.0
O128 O 0.77596 0.17582 0.26616 0.0
O129 O 0.75549 0.24617 0.27425 0.0
O130 O 0.81291 0.34089 0.2853 0.0
O131 O 0.85466 0.30034 0.31655 0.0
O132 O 0.79472 0.23536 0.3416 0.0
O133 O 0.84219 0.19496 0.30998 0.0
O134 O 0.79188 0.37826 0.2312 0.0
O135 O 0.82183 0.30744 0.22144 0.0
O136 O 0.76551 0.215 0.20389 0.0
O137 O 0.72859 0.25992 0.17129 0.0
O138 O 0.78811 0.32409 0.15344 0.0
O139 O 0.73263 0.35528 0.17619 0.0
C140 C 0.75549 0.23476 0.32209 0.0
C141 C 0.78195 0.13365 0.34665 0.0
C142 C 0.79251 0.1037 0.43611 0.0
C143 C 0.81018 0.13129 0.39228 0.0
C144 C 0.74552 0.07833 0.43404 0.0
C145 C 0.73494 0.10796 0.34496 0.0
C146 C 0.71692 0.08061 0.38853 0.0
C147 C 0.84668 0.33434 0.31535 0.0
C148 C 0.80231 0.16309 0.30157 0.0
C149 C 0.98736 0.30726 0.19589 0.0
C150 C 1.00488 0.31187 0.2466 0.0
C151 C 0.82563 0.3216 0.17475 0.0
C152 C 0.79643 0.41732 0.14759 0.0
C153 C 0.77348 0.41951 0.09856 0.0
C154 C 0.79672 0.4384 0.05612 0.0
C155 C 0.84424 0.45824 0.06323 0.0
C156 C 0.84421 0.43688 0.15446 0.0
C157 C 0.86785 0.45756 0.11244 0.0
C158 C 0.73458 0.22522 0.17166 0.0
C159 C 0.76958 0.38887 0.18912 0.0
H160 H 0.84664 0.14926 0.39295 0.0
H161 H 0.73141 0.05571 0.46694 0.0
H162 H 0.71219 0.10875 0.31004 0.0
H163 H 0.68079 0.06037 0.38648 0.0
H164 H 0.73672 0.40571 0.09334 0.0
H165 H 0.86283 0.47448 0.0311 0.0
H166 H 0.86326 0.43535 0.19191 0.0
H167 H 0.90458 0.47266 0.11803 0.0
Eu168 Eu 0.75241 0.74428 0.30118 0.0
C169 C 0.87719 0.90079 0.17753 0.0
C170 C 0.82419 0.91656 0.10933 0.0
C171 C 0.8933 0.9761 0.1399 0.0
C172 C 0.8368 0.88635 0.14532 0.0
C173 C 0.90648 0.94577 0.17441 0.0
C174 C 0.8521 0.96151 0.10754 0.0
C175 C 0.96072 0.9273 0.23769 0.0
N176 N 0.8887 0.87069 0.21061 0.0
C177 C 0.93046 0.88311 0.23953 0.0
C178 C 0.94845 0.95884 0.20544 0.0
Eu179 Eu 0.83289 0.79702 0.2162 0.0
N180 N 0.81066 0.84271 0.1478 0.0
C181 C 0.77401 0.8271 0.11186 0.0
C182 C 0.78427 0.90064 0.07567 0.0
C183 C 0.75987 0.85576 0.07579 0.0
H184 H 0.93973 0.85889 0.26532 0.0
H185 H 0.7295 0.84309 0.04905 0.0
H186 H 0.84267 0.98517 0.08043 0.0
H187 H 0.99328 0.93701 0.26146 0.0
H188 H 0.75387 0.7926 0.11225 0.0
H189 H 0.83379 0.65558 0.44694 0.0
H190 H 0.77254 0.92276 0.04905 0.0
H191 H 0.6377 0.71081 0.2664 0.0
H192 H 0.82447 0.72065 0.39905 0.0
H193 H 0.56913 0.64166 0.26314 0.0
H194 H 0.91507 1.01081 0.13731 0.0
H195 H 0.7729 0.58189 0.43594 0.0
H196 H 0.69243 0.53624 0.40115 0.0
H197 H 0.97189 0.99307 0.20418 0.0
H198 H 0.61977 0.53257 0.35218 0.0
N199 N 0.76065 0.68482 0.3584 0.0
C200 C 0.79773 0.68899 0.39373 0.0
C201 C 0.76867 0.61054 0.41477 0.0
C202 C 0.72816 0.60668 0.38343 0.0
C203 C 0.80297 0.65199 0.42133 0.0
C204 C 0.72498 0.64502 0.35564 0.0
H205 H 0.57326 0.57173 0.30144 0.0
N206 N 0.68184 0.6808 0.30364 0.0
C207 C 0.60139 0.64149 0.28085 0.0
C208 C 0.68414 0.64294 0.328 0.0
C209 C 0.64076 0.68077 0.28226 0.0
C210 C 0.60384 0.60209 0.30263 0.0
C211 C 0.64537 0.6025 0.32747 0.0
O212 O 0.74824 0.79878 0.32284 0.0
O213 O 0.77296 0.80166 0.23624 0.0
O214 O 0.84952 0.83915 0.27595 0.0
O215 O 0.82104 0.78475 0.34197 0.0
O216 O 0.70503 0.76148 0.23475 0.0
O217 O 0.72631 0.73631 0.3709 0.0
O218 O 0.83026 0.76184 0.15832 0.0
O219 O 0.81154 0.73816 0.27913 0.0
O220 O 0.72567 0.69907 0.24308 0.0
O221 O 0.77067 0.74316 0.18037 0.0
O222 O 0.87964 0.7787 0.28214 0.0
O223 O 0.89469 0.80735 0.19023 0.0
C224 C 0.73354 0.79688 0.21148 0.0
C225 C 0.69317 0.78293 0.37503 0.0
C226 C 0.66727 0.82952 0.40031 0.0
C227 C 0.70205 0.8235 0.38723 0.0
C228 C 0.62373 0.7948 0.40094 0.0
C229 C 0.64922 0.74881 0.37601 0.0
C230 C 0.61484 0.75482 0.38885 0.0
C231 C 0.84861 0.82504 0.32491 0.0
C232 C 0.73035 0.77609 0.36365 0.0
C233 C 0.64903 0.56399 0.35275 0.0
C234 C 0.69042 0.56606 0.38055 0.0
C235 C 0.851 0.74195 0.30293 0.0
C236 C 0.89171 0.7428 0.1723 0.0
C237 C 0.88715 0.72019 0.13362 0.0
C238 C 0.90212 0.6869 0.14442 0.0
C239 C 0.92044 0.67582 0.1941 0.0
C240 C 0.91325 0.73286 0.22072 0.0
C241 C 0.92642 0.69902 0.23177 0.0
C242 C 0.7369 0.70673 0.19751 0.0
C243 C 0.87407 0.77633 0.16265 0.0
H244 H 0.73586 0.85005 0.38697 0.0
H245 H 0.59653 0.79867 0.4109 0.0
H246 H 0.64146 0.71732 0.36731 0.0
H247 H 0.58113 0.72827 0.38964 0.0
H248 H 0.87292 0.72891 0.09534 0.0
H249 H 0.93275 0.65088 0.20307 0.0
H250 H 0.92074 0.75152 0.25019 0.0
H251 H 0.94252 0.69156 0.26941 0.0
Eu252 Eu 0.32159 0.73627 0.27017 0.0
C253 C 0.25071 0.84654 0.09785 0.0
C254 C 0.318 0.91402 0.08308 0.0
C255 C 0.258 0.88899 0.01325 0.0
C256 C 0.29289 0.8765 0.11577 0.0
C257 C 0.23207 0.8531 0.04672 0.0
C258 C 0.30095 0.91941 0.03142 0.0
C259 C 0.16159 0.79175 0.06717 0.0
N260 N 0.22633 0.81289 0.13145 0.0
C261 C 0.18158 0.78681 0.11753 0.0
C262 C 0.18723 0.82455 0.03136 0.0
Eu263 Eu 0.26204 0.80602 0.21621 0.0
N264 N 0.30779 0.8707 0.16601 0.0
C265 C 0.34571 0.90295 0.1868 0.0
C266 C 0.3586 0.94574 0.10369 0.0
C267 C 0.37203 0.94057 0.15594 0.0
H268 H 0.16183 0.76123 0.14519 0.0
H269 H 0.40283 0.96537 0.17246 0.0
H270 H 0.31997 0.94776 0.00561 0.0
H271 H 0.12654 0.7702 0.056 0.0
H272 H 0.35672 0.89929 0.22705 0.0
H273 H 0.20386 0.579 0.36012 0.0
H274 H 0.37919 0.97476 0.07986 0.0
H275 H 0.43262 0.79067 0.31114 0.0
H276 H 0.2332 0.63913 0.29 0.0
H277 H 0.48527 0.79609 0.39161 0.0
H278 H 0.2445 0.89434 0.9737 0.0
H279 H 0.24605 0.58447 0.44674 0.0
H280 H 0.31608 0.62539 0.50394 0.0
H281 H 0.17164 0.82847 0.99242 0.0
H282 H 0.39309 0.68506 0.5126 0.0
N283 N 0.29035 0.67876 0.33641 0.0
C284 C 0.25176 0.64188 0.32754 0.0
C285 C 0.25895 0.61097 0.41606 0.0
C286 C 0.30029 0.64744 0.42417 0.0
C287 C 0.23513 0.60769 0.3672 0.0
C288 C 0.3158 0.68079 0.38273 0.0
H289 H 0.45694 0.74821 0.47058 0.0
N290 N 0.37496 0.74201 0.34509 0.0
C291 C 0.4499 0.77298 0.39103 0.0
C292 C 0.35945 0.71368 0.38731 0.0
C293 C 0.42016 0.76977 0.34562 0.0
C294 C 0.43373 0.74604 0.43555 0.0
C295 C 0.38833 0.71506 0.43383 0.0
O296 O 0.3766 0.72503 0.25567 0.0
O297 O 0.3277 0.80143 0.22407 0.0
O298 O 0.24782 0.76046 0.16084 0.0
O299 O 0.25583 0.70255 0.21716 0.0
O300 O 0.36322 0.77493 0.20542 0.0
O301 O 0.30652 0.67816 0.23982 0.0
O302 O 0.20131 0.81209 0.22209 0.0
O303 O 0.26332 0.74953 0.27622 0.0
O304 O 0.35164 0.79102 0.31999 0.0
O305 O 0.31305 0.83431 0.28304 0.0
O306 O 0.20011 0.74544 0.24358 0.0
O307 O 0.26744 0.85796 0.25147 0.0
C308 C 0.35265 0.80708 0.19196 0.0
C309 C 0.36256 0.65134 0.25858 0.0
C310 C 0.39607 0.60697 0.24336 0.0
C311 C 0.3859 0.64334 0.22851 0.0
C312 C 0.38318 0.57907 0.28894 0.0
C313 C 0.3505 0.62332 0.30427 0.0
C314 C 0.3608 0.58741 0.31929 0.0
C315 C 0.2387 0.71849 0.17282 0.0
C316 C 0.34917 0.68764 0.24046 0.0
C317 C 0.37164 0.68419 0.47636 0.0
C318 C 0.32774 0.65026 0.47147 0.0
C319 C 0.22095 0.72604 0.27777 0.0
C320 C 0.21115 0.88323 0.22427 0.0
C321 C 0.19952 0.89855 0.25885 0.0
C322 C 0.18764 0.9336 0.24314 0.0
C323 C 0.18737 0.95331 0.19212 0.0
C324 C 0.21146 0.90341 0.17347 0.0
C325 C 0.19958 0.93839 0.15753 0.0
C326 C 0.34304 0.82503 0.31801 0.0
C327 C 0.22418 0.84714 0.24308 0.0
H328 H 0.39517 0.66472 0.19303 0.0
H329 H 0.39072 0.55097 0.30119 0.0
H330 H 0.33271 0.62885 0.32804 0.0
H331 H 0.35111 0.56577 0.35443 0.0
H332 H 0.19915 0.88275 0.29809 0.0
H333 H 0.178 0.98024 0.17923 0.0
H334 H 0.22083 0.89222 0.14636 0.0
H335 H 0.19973 0.95389 0.1183 0.0
Eu336 Eu 0.34059 0.72662 0.77925 0.0
C337 C 0.18603 0.75778 0.79011 0.0
C338 C 0.12489 0.74619 0.71975 0.0
C339 C 0.10809 0.73071 0.80569 0.0
C340 C 0.17131 0.75864 0.73857 0.0
C341 C 0.15438 0.74389 0.82418 0.0
C342 C 0.09339 0.73192 0.7536 0.0
C343 C 0.21622 0.75675 0.89276 0.0
N344 N 0.23101 0.77005 0.80701 0.0
C345 C 0.2463 0.76989 0.8578 0.0
C346 C 0.17006 0.74347 0.87596 0.0
Eu347 Eu 0.27871 0.79099 0.74342 0.0
N348 N 0.2023 0.77206 0.70667 0.0
C349 C 0.18965 0.77619 0.65536 0.0
C350 C 0.11145 0.7485 0.66737 0.0
C351 C 0.14403 0.76383 0.63503 0.0
H352 H 0.28137 0.77838 0.87261 0.0
H353 H 0.13398 0.76609 0.59448 0.0
H354 H 0.0576 0.72191 0.73986 0.0
H355 H 0.22867 0.75622 0.93283 0.0
H356 H 0.21495 0.7886 0.63021 0.0
H357 H 0.50672 0.8514 0.72907 0.0
H358 H 0.07611 0.73899 0.65151 0.0
H359 H 0.29755 0.62062 0.77065 0.0
H360 H 0.44175 0.81655 0.77637 0.0
H361 H 0.30073 0.57384 0.71857 0.0
H362 H 0.08338 0.71968 0.83136 0.0
H363 H 0.51055 0.81508 0.66458 0.0
H364 H 0.47734 0.74826 0.62258 0.0
H365 H 0.14682 0.73285 0.90326 0.0
H366 H 0.4207 0.67202 0.61954 0.0
N367 N 0.40772 0.76053 0.73921 0.0
C368 C 0.44262 0.79972 0.74892 0.0
C369 C 0.48176 0.79941 0.68543 0.0
C370 C 0.44754 0.758 0.67804 0.0
C371 C 0.47982 0.81986 0.72198 0.0
C372 C 0.41091 0.73911 0.70636 0.0
H373 H 0.35516 0.60615 0.65626 0.0
N374 N 0.34778 0.67907 0.73634 0.0
C375 C 0.32294 0.60845 0.71397 0.0
C376 C 0.37965 0.69665 0.70486 0.0
C377 C 0.32116 0.63507 0.74333 0.0
C378 C 0.35357 0.62682 0.67873 0.0
C379 C 0.38331 0.67128 0.67477 0.0
O380 O 0.33168 0.67106 0.83984 0.0
O381 O 0.28322 0.735 0.79888 0.0
O382 O 0.32963 0.81718 0.81238 0.0
O383 O 0.37844 0.78553 0.82001 0.0
O384 O 0.27074 0.67236 0.79381 0.0
O385 O 0.39293 0.73048 0.8444 0.0
O386 O 0.32705 0.85901 0.74732 0.0
O387 O 0.34267 0.7902 0.73334 0.0
O388 O 0.29509 0.70393 0.70765 0.0
O389 O 0.24313 0.73341 0.69707 0.0
O390 O 0.30153 0.80022 0.66802 0.0
O391 O 0.25937 0.8444 0.70939 0.0
C392 C 0.25317 0.69525 0.80277 0.0
C393 C 0.35919 0.69369 0.91885 0.0
C394 C 0.36518 0.66627 0.00889 0.0
C395 C 0.37317 0.66896 0.95989 0.0
C396 C 0.34327 0.68949 0.01671 0.0
C397 C 0.33646 0.71647 0.92628 0.0
C398 C 0.32877 0.71455 0.97511 0.0
C399 C 0.36779 0.81345 0.83241 0.0
C400 C 0.36729 0.69339 0.86878 0.0
C401 C 0.41767 0.69071 0.64354 0.0
C402 C 0.44986 0.7341 0.64523 0.0
C403 C 0.34092 0.80057 0.68518 0.0
C404 C 0.32008 0.90439 0.67068 0.0
C405 C 0.29226 0.90376 0.6241 0.0
C406 C 0.30978 0.93182 0.58039 0.0
C407 C 0.35625 0.9597 0.58324 0.0
C408 C 0.36649 0.93311 0.67318 0.0
C409 C 0.38448 0.9602 0.62947 0.0
C410 C 0.25621 0.70574 0.68707 0.0
C411 C 0.30076 0.87446 0.71607 0.0
H412 H 0.39071 0.65165 0.95344 0.0
H413 H 0.33751 0.68822 0.0544 0.0
H414 H 0.32443 0.73531 0.89457 0.0
H415 H 0.3114 0.73234 0.98059 0.0
H416 H 0.25607 0.88335 0.62255 0.0
H417 H 0.36993 0.98245 0.55029 0.0
H418 H 0.38885 0.93442 0.70877 0.0
H419 H 0.42021 0.98233 0.63173 0.0
Eu420 Eu 0.26618 0.23942 0.7985 0.0
C421 C 0.39965 0.38096 0.65403 0.0
C422 C 0.35118 0.393 0.5778 0.0
C423 C 0.42675 0.45007 0.59682 0.0
C424 C 0.35842 0.36637 0.62321 0.0
C425 C 0.43441 0.42291 0.64107 0.0
C426 C 0.38529 0.43506 0.56515 0.0
C427 C 0.48264 0.40743 0.71528 0.0
N428 N 0.40628 0.35374 0.69602 0.0
C429 C 0.44734 0.36607 0.72632 0.0
C430 C 0.4761 0.43609 0.67256 0.0
Eu431 Eu 0.34515 0.28408 0.71268 0.0
N432 N 0.32595 0.32567 0.63664 0.0
C433 C 0.28575 0.30949 0.60531 0.0
C434 C 0.31023 0.37618 0.5459 0.0
C435 C 0.27731 0.33445 0.55981 0.0
H436 H 0.45272 0.34421 0.75957 0.0
H437 H 0.24546 0.3213 0.53528 0.0
H438 H 0.38012 0.45617 0.53085 0.0
H439 H 0.51481 0.41725 0.73978 0.0
H440 H 0.25927 0.27749 0.61471 0.0
H441 H 0.36535 0.18806 0.96848 0.0
H442 H 0.30386 0.39455 0.51001 0.0
H443 H 0.15338 0.1839 0.76241 0.0
H444 H 0.34568 0.24057 0.90382 0.0
H445 H 0.09466 0.10762 0.77064 0.0
H446 H 0.45292 0.48246 0.58635 0.0
H447 H 0.31684 0.10898 0.97114 0.0
H448 H 0.24454 0.04903 0.93909 0.0
H449 H 0.50354 0.4681 0.66399 0.0
H450 H 0.17037 0.02702 0.88551 0.0
N451 N 0.28677 0.19242 0.86764 0.0
C452 C 0.32369 0.20651 0.90389 0.0
C453 C 0.30782 0.13204 0.94238 0.0
C454 C 0.26787 0.11786 0.90827 0.0
C455 C 0.33518 0.17663 0.94107 0.0
C456 C 0.25771 0.14926 0.87136 0.0
H457 H 0.11373 0.04874 0.82385 0.0
N458 N 0.20549 0.16822 0.80953 0.0
C459 C 0.12865 0.11531 0.79051 0.0
C460 C 0.21581 0.1368 0.84138 0.0
C461 C 0.16188 0.15849 0.78623 0.0
C462 C 0.13961 0.08217 0.82038 0.0
C463 C 0.18326 0.09277 0.84723 0.0
O464 O 0.21807 0.22848 0.84834 0.0
O465 O 0.28809 0.29469 0.73156 0.0
O466 O 0.36464 0.33521 0.76229 0.0
O467 O 0.33385 0.28785 0.83239 0.0
O468 O 0.22 0.25592 0.72988 0.0
O469 O 0.26871 0.29317 0.82853 0.0
O470 O 0.40347 0.27884 0.69759 0.0
O471 O 0.32349 0.22921 0.77987 0.0
O472 O 0.2337 0.196 0.73845 0.0
O473 O 0.28179 0.2318 0.67733 0.0
O474 O 0.39159 0.27022 0.78211 0.0
O475 O 0.33613 0.23991 0.66235 0.0
C476 C 0.24903 0.29101 0.70665 0.0
C477 C 0.19807 0.28694 0.837 0.0
C478 C 0.16586 0.33133 0.85394 0.0
C479 C 0.1978 0.31381 0.86755 0.0
C480 C 0.13549 0.32315 0.80888 0.0
C481 C 0.16615 0.27784 0.79318 0.0
C482 C 0.1357 0.29655 0.77872 0.0
C483 C 0.36135 0.32668 0.81111 0.0
C484 C 0.23236 0.26963 0.8499 0.0
C485 C 0.19465 0.06107 0.88113 0.0
C486 C 0.2369 0.07359 0.9116 0.0
C487 C 0.36301 0.23463 0.80484 0.0
C488 C 0.39822 0.24939 0.62557 0.0
C489 C 0.39529 0.2098 0.61759 0.0
C490 C 0.41687 0.20939 0.57965 0.0
C491 C 0.44206 0.24913 0.55052 0.0
C492 C 0.42179 0.28847 0.59455 0.0
C493 C 0.44365 0.28823 0.55715 0.0
C494 C 0.24479 0.20007 0.6941 0.0
C495 C 0.37904 0.24907 0.6687 0.0
H496 H 0.22119 0.31986 0.9024 0.0
H497 H 0.1104 0.33609 0.79808 0.0
H498 H 0.1642 0.25594 0.77022 0.0
H499 H 0.1115 0.28957 0.74466 0.0
H500 H 0.37726 0.17954 0.64169 0.0
H501 H 0.46158 0.25005 0.52359 0.0
H502 H 0.42425 0.31915 0.60017 0.0
H503 H 0.46287 0.31856 0.53407 0.0
Eu504 Eu 0.83213 0.22772 0.77534 0.0
C505 C 0.77112 0.33308 0.60541 0.0
C506 C 0.83378 0.40519 0.59563 0.0
C507 C 0.78652 0.37423 0.52105 0.0
C508 C 0.80851 0.36635 0.62687 0.0
C509 C 0.75879 0.33761 0.5522 0.0
C510 C 0.82383 0.40812 0.54275 0.0
C511 C 0.68786 0.27442 0.5644 0.0
N512 N 0.74381 0.299 0.63653 0.0
C513 C 0.70101 0.27192 0.6167 0.0
C514 C 0.71735 0.30678 0.53192 0.0
Eu515 Eu 0.77239 0.29479 0.72532 0.0
N516 N 0.81733 0.36283 0.67819 0.0
C517 C 0.84625 0.39919 0.6999 0.0
C518 C 0.867 0.44073 0.61839 0.0
C519 C 0.87246 0.43804 0.67071 0.0
H520 H 0.67665 0.24801 0.64122 0.0
H521 H 0.89609 0.46621 0.68852 0.0
H522 H 0.84358 0.43725 0.51834 0.0
H523 H 0.65459 0.25189 0.54925 0.0
H524 H 0.84829 0.3994 0.73946 0.0
H525 H 0.68588 0.07156 0.81321 0.0
H526 H 0.88682 0.47112 0.59579 0.0
H527 H 0.93241 0.26693 0.84914 0.0
H528 H 0.73584 0.13702 0.76038 0.0
H529 H 0.96519 0.25399 0.93863 0.0
H530 H 0.77795 0.37775 0.48018 0.0
H531 H 0.70606 0.0614 0.90646 0.0
H532 H 0.76256 0.0879 0.98308 0.0
H533 H 0.7065 0.30936 0.49146 0.0
H534 H 0.83964 0.13677 0.01712 0.0
N535 N 0.78328 0.16362 0.82307 0.0
C536 C 0.74509 0.13262 0.80094 0.0
C537 C 0.72824 0.08994 0.8834 0.0
C538 C 0.76903 0.12051 0.90544 0.0
C539 C 0.71679 0.0955 0.83077 0.0
C540 C 0.79655 0.15711 0.87368 0.0
H541 H 0.91636 0.19717 1.00027 0.0
N542 N 0.86594 0.21818 0.8605 0.0
C543 C 0.92967 0.23459 0.92638 0.0
C544 C 0.83939 0.1852 0.89302 0.0
C545 C 0.91109 0.2418 0.87585 0.0
C546 C 0.90197 0.20257 0.96108 0.0
C547 C 0.85631 0.17711 0.9445 0.0
O548 O 0.89225 0.21956 0.77148 0.0
O549 O 0.83171 0.28475 0.71538 0.0
O550 O 0.73289 0.22845 0.6946 0.0
O551 O 0.79055 0.20887 0.69988 0.0
O552 O 0.89442 0.28998 0.75385 0.0
O553 O 0.82557 0.17364 0.74345 0.0
O554 O 0.71116 0.30626 0.7049 0.0
O555 O 0.76476 0.22893 0.77138 0.0
O556 O 0.84882 0.27281 0.83232 0.0
O557 O 0.83572 0.32969 0.77992 0.0
O558 O 0.7441 0.26419 0.80028 0.0
O559 O 0.76042 0.33204 0.76872 0.0
C560 C 0.87433 0.30944 0.71851 0.0
C561 C 0.88052 0.14695 0.77383 0.0
C562 C 0.90904 0.09831 0.76072 0.0
C563 C 0.90052 0.13534 0.7441 0.0
C564 C 0.89755 0.07284 0.80783 0.0
C565 C 0.86933 0.12157 0.82106 0.0
C566 C 0.87799 0.08469 0.83799 0.0
C567 C 0.74952 0.20539 0.68057 0.0
C568 C 0.86865 0.18355 0.75246 0.0
C569 C 0.82769 0.14285 0.97716 0.0
C570 C 0.78386 0.1149 0.95772 0.0
C571 C 0.74708 0.22792 0.80841 0.0
C572 C 0.71796 0.37113 0.72709 0.0
C573 C 0.69731 0.38036 0.75896 0.0
C574 C 0.69516 0.42078 0.75005 0.0
C575 C 0.71444 0.45216 0.709 0.0
C576 C 0.73634 0.40255 0.68574 0.0
C577 C 0.73464 0.4429 0.6769 0.0
C578 C 0.85465 0.31388 0.82265 0.0
C579 C 0.72286 0.32998 0.7403 0.0
H580 H 0.90854 0.15464 0.70725 0.0
H581 H 0.90406 0.04422 0.82134 0.0
H582 H 0.85346 0.12981 0.84437 0.0
H583 H 0.86926 0.06511 0.87437 0.0
H584 H 0.68358 0.35632 0.79132 0.0
H585 H 0.71324 0.48351 0.70136 0.0
H586 H 0.75237 0.39613 0.66072 0.0
H587 H 0.74914 0.46714 0.64512 0.0
Eu588 Eu 0.77965 0.72811 0.70287 0.0
C589 C 0.92264 0.84947 0.8474 0.0
C590 C 0.93825 0.79999 0.91909 0.0
C591 C 0.99673 0.87347 0.89897 0.0
C592 C 0.9086 0.80874 0.87733 0.0
C593 C 0.96665 0.8825 0.85833 0.0
C594 C 0.98257 0.83228 0.92928 0.0
C595 C 0.94741 0.93156 0.78936 0.0
N596 N 0.89288 0.85711 0.8082 0.0
C597 C 0.90417 0.89782 0.78003 0.0
C598 C 0.97895 0.92378 0.82843 0.0
Eu599 Eu 0.82093 0.79752 0.79393 0.0
N600 N 0.86559 0.7781 0.86659 0.0
C601 C 0.84912 0.73912 0.89813 0.0
C602 C 0.92233 0.7592 0.94982 0.0
C603 C 0.87739 0.72881 0.93978 0.0
H604 H 0.88024 0.9042 0.74959 0.0
H605 H 0.86458 0.69743 0.96397 0.0
H606 H 1.00592 0.82593 0.96096 0.0
H607 H 0.95638 0.9635 0.76637 0.0
H608 H 0.81444 0.71538 0.89068 0.0
H609 H 0.73949 0.82805 0.53181 0.0
H610 H 0.94438 0.75133 0.9817 0.0
H611 H 0.72736 0.61925 0.73077 0.0
H612 H 0.7867 0.81053 0.60697 0.0
H613 H 0.65351 0.55843 0.70855 0.0
H614 H 1.0308 0.89828 0.90769 0.0
H615 H 0.65856 0.77574 0.51281 0.0
H616 H 0.59568 0.70177 0.53382 0.0
H617 H 1.01246 0.94997 0.83557 0.0
H618 H 0.57207 0.62764 0.58274 0.0
N619 N 0.73438 0.74881 0.63171 0.0
C620 C 0.75178 0.78738 0.59979 0.0
C621 C 0.67946 0.76809 0.54642 0.0
C622 C 0.66242 0.72768 0.57773 0.0
C623 C 0.72475 0.79762 0.55693 0.0
C624 C 0.69137 0.71861 0.6202 0.0
H625 H 0.59398 0.57345 0.64694 0.0
N626 N 0.70923 0.66838 0.68376 0.0
C627 C 0.65975 0.59169 0.69153 0.0
C628 C 0.67823 0.67696 0.64735 0.0
C629 C 0.70153 0.62626 0.7041 0.0
C630 C 0.62619 0.60032 0.65689 0.0
C631 C 0.63564 0.64324 0.63322 0.0
O632 O 0.80296 0.68199 0.69212 0.0
O633 O 0.83382 0.74565 0.77203 0.0
O634 O 0.8798 0.81759 0.75231 0.0
O635 O 0.83672 0.79442 0.6779 0.0
O636 O 0.79336 0.68063 0.77015 0.0
O637 O 0.8069 0.73652 0.6337 0.0
O638 O 0.80466 0.84837 0.80465 0.0
O639 O 0.76585 0.77981 0.72501 0.0
O640 O 0.72226 0.69959 0.75041 0.0
O641 O 0.76212 0.73396 0.82065 0.0
O642 O 0.80787 0.84469 0.72626 0.0
O643 O 0.79255 0.79061 0.86143 0.0
C644 C 0.82864 0.70718 0.79541 0.0
C645 C 0.79661 0.67189 0.60834 0.0
C646 C 0.81012 0.62723 0.56325 0.0
C647 C 0.8253 0.65598 0.59887 0.0
C648 C 0.76503 0.61346 0.53906 0.0
C649 C 0.75255 0.65901 0.58194 0.0
C650 C 0.73679 0.62965 0.54791 0.0
C651 C 0.87564 0.81817 0.70342 0.0
C652 C 0.81263 0.70089 0.64673 0.0
C653 C 0.60516 0.65298 0.59372 0.0
C654 C 0.61859 0.69518 0.56589 0.0
C655 C 0.77177 0.81861 0.70165 0.0
C656 C 0.80417 0.85529 0.88784 0.0
C657 C 0.77391 0.87023 0.89492 0.0
C658 C 0.7855 0.89637 0.93229 0.0
C659 C 0.82807 0.90723 0.9626 0.0
C660 C 0.84645 0.8666 0.91824 0.0
C661 C 0.85827 0.89249 0.95544 0.0
C662 C 0.72551 0.7049 0.79748 0.0
C663 C 0.79067 0.82823 0.84824 0.0
H664 H 0.85914 0.66554 0.61983 0.0
H665 H 0.75158 0.59056 0.51269 0.0
H666 H 0.73022 0.67135 0.58784 0.0
H667 H 0.70247 0.61938 0.52824 0.0
H668 H 0.7413 0.86156 0.87115 0.0
H669 H 0.83775 0.92638 0.99249 0.0
H670 H 0.87013 0.85532 0.91341 0.0
H671 H 0.89083 0.90092 0.97911 0.0
Co672 Co 0.08638 0.96169 0.45308 0.0
Co673 Co 0.10376 0.95662 0.54663 0.0
Co674 Co 0.05015 1.0159 0.50305 0.0
O675 O 0.09803 1.00025 0.498 0.0
H676 H 0.127 0.02549 0.49576 0.0
O677 O 1.00206 0.03102 0.50917 0.0
Co678 Co 1.01573 0.0687 0.55609 0.0
Co679 Co 0.99611 0.07566 0.46364 0.0
H680 H 0.97306 1.00583 0.51148 0.0
O681 O 0.16104 0.9672 0.5695 0.0
O682 O 0.11396 0.92807 0.50691 0.0
O683 O 0.05742 0.92307 0.58991 0.0
O684 O 1.02216 0.96629 0.55874 0.0
O685 O 0.09491 0.05357 0.55429 0.0
O686 O 1.02515 0.10051 0.60152 0.0
O687 O 0.96467 0.03764 0.58615 0.0
O688 O 0.07145 0.10516 0.53226 0.0
O689 O 0.07703 0.06518 0.44632 0.0
O690 O 1.04319 0.11014 0.42117 0.0
O691 O 0.98642 0.10257 0.50593 0.0
O692 O 0.93806 0.06532 0.44271 0.0
C693 C 0.11863 0.96047 0.39951 0.0
C694 C 0.99793 0.93883 0.4537 0.0
C695 C 1.02553 0.93333 0.58859 0.0
C696 C 0.15423 0.94637 0.53274 0.0
C697 C 0.98622 0.06968 0.6126 0.0
C698 C 0.10223 0.09287 0.55361 0.0
C699 C 0.07361 0.09899 0.41855 0.0
C700 C 0.94569 0.08482 0.481 0.0
O701 O 0.07909 0.92935 0.40832 0.0
O702 O 0.13924 0.99178 0.42695 0.0
O703 O 1.00602 0.97849 0.45188 0.0
O704 O 1.02855 0.92583 0.4735 0.0
Co705 Co 0.60442 0.95205 0.00174 0.0
Co706 Co 0.601 0.95659 0.09014 0.0
Co707 Co 0.55103 0.01869 0.00426 0.0
O708 O 0.60232 0.99747 0.02978 0.0
H709 H 0.63161 0.02242 0.03106 0.0
O710 O 0.49985 0.03973 0.97964 0.0
Co711 Co 0.49893 0.08553 0.0082 0.0
Co712 Co 0.49992 0.07978 0.91953 0.0
H713 H 0.47054 1.01479 0.97909 0.0
O714 O 0.65451 0.95266 0.13247 0.0
O715 O 0.61214 0.91318 0.07137 0.0
O716 O 0.54213 0.93317 0.11413 0.0
O717 O 0.50956 0.97271 0.05704 0.0
O718 O 0.58305 0.06242 0.0529 0.0
O719 O 0.49333 0.12258 0.03741 0.0
O720 O 0.43836 0.06086 0.01091 0.0
O721 O 0.56384 0.11634 0.01221 0.0
O722 O 0.5923 0.06497 0.95096 0.0
O723 O 0.55809 0.10347 0.89448 0.0
O724 O 0.48913 0.12299 0.93888 0.0
O725 O 0.44545 0.08238 0.87902 0.0
C726 C 0.65367 0.9425 0.98003 0.0
C727 C 0.51202 0.93469 0.96383 0.0
C728 C 0.50848 0.9426 0.09592 0.0
C729 C 0.64583 0.92075 0.10945 0.0
C730 C 0.45073 0.09497 0.03229 0.0
C731 C 0.59125 0.10298 0.04337 0.0
C732 C 0.59232 0.09485 0.91197 0.0
C733 C 0.45434 0.11428 0.90216 0.0
O734 O 0.61101 0.91527 0.97299 0.0
O735 O 0.66536 0.97643 0.00142 0.0
O736 O 0.51874 0.97485 0.95551 0.0
O737 O 0.53957 0.92185 0.99555 0.0
Co738 Co 0.07694 0.43846 0.99383 0.0
Co739 Co 0.08795 0.45332 0.08156 0.0
Co740 Co 1.04253 0.51818 0.99668 0.0
O741 O 0.08953 0.4916 0.01873 0.0
H742 H 0.12004 0.51379 0.01518 0.0
O743 O 0.99564 0.54467 0.97506 0.0
Co744 Co 1.00413 0.59592 0.00172 0.0
Co745 Co 0.99748 0.58386 0.91355 0.0
H746 H 0.96514 0.52189 0.97682 0.0
O747 O 0.14217 0.44918 0.11929 0.0
O748 O 0.09196 0.40499 0.06511 0.0
O749 O 1.0307 0.43308 0.1084 0.0
O750 O 0.99999 0.47336 0.04995 0.0
O751 O 0.07894 0.56115 0.0457 0.0
O752 O 1.00816 0.63868 0.02862 0.0
O753 O 0.94521 0.57843 0.01009 0.0
O754 O 0.06903 0.61964 0.00184 0.0
O755 O 0.08484 0.56268 0.94278 0.0
O756 O 0.05378 0.60331 0.88554 0.0
O757 O 0.99164 0.63092 0.93051 0.0
O758 O 0.94324 0.58677 0.87528 0.0
C759 C 0.11071 0.41491 0.9652 0.0
C760 C 0.99265 0.43327 0.96006 0.0
C761 C 0.99758 0.4431 0.08926 0.0
C762 C 0.12937 0.41493 0.09861 0.0
C763 C 0.96473 0.61532 0.02805 0.0
C764 C 0.09161 0.60269 0.03682 0.0
C765 C 0.08657 0.59257 0.90316 0.0
C766 C 0.95487 0.62074 0.89606 0.0
O767 O 0.06767 0.39391 0.96828 0.0
O768 O 0.13396 0.45265 0.98132 0.0
O769 O 1.00595 0.47482 0.94786 0.0
O770 O 1.01413 0.41787 0.99816 0.0
Co771 Co 0.58001 0.45834 0.94304 0.0
Co772 Co 0.59756 0.44592 0.03721 0.0
Co773 Co 0.55341 0.51475 0.00378 0.0
O774 O 0.59725 0.49522 0.99313 0.0
H775 H 0.6275 0.51862 0.99204 0.0
O776 O 0.50921 0.53375 0.0145 0.0
Co777 Co 0.52507 0.56977 0.06509 0.0
Co778 Co 0.50277 0.57931 0.9679 0.0
H779 H 0.47964 0.50944 0.017 0.0
O780 O 0.65389 0.44898 0.05818 0.0
O781 O 0.60321 0.41945 0.99167 0.0
O782 O 0.54751 0.41111 0.07631 0.0
O783 O 0.52362 0.4636 0.05722 0.0
O784 O 0.60094 0.54702 0.05838 0.0
O785 O 0.5342 0.60053 0.11359 0.0
O786 O 0.47096 0.54318 0.08887 0.0
O787 O 0.58296 0.60202 0.0462 0.0
O788 O 0.5826 0.56603 0.94998 0.0
O789 O 0.54976 0.61196 0.92393 0.0
O790 O 0.507 0.61043 0.01489 0.0
O791 O 0.44619 0.58041 0.95811 0.0
C792 C 0.60892 0.45342 0.88759 0.0
C793 C 0.49545 0.44277 0.94662 0.0
C794 C 0.52109 0.42638 0.08099 0.0
C795 C 0.64427 0.43336 0.01628 0.0
C796 C 0.492 0.57335 0.11788 0.0
C797 C 0.61137 0.5862 0.06276 0.0
C798 C 0.58007 0.60026 0.92221 0.0
C799 C 0.46483 0.60057 0.99719 0.0
O800 O 0.5676 0.42655 0.89552 0.0
O801 O 0.63213 0.48486 0.91478 0.0
O802 O 0.50625 0.48236 0.94947 0.0
O803 O 0.52333 0.42639 0.96552 0.0
Co804 Co 0.13877 0.47113 0.56842 0.0
Co805 Co 0.13661 0.51255 0.48532 0.0
Co806 Co 0.05197 0.51915 0.50245 0.0
O807 O 0.08528 0.47824 0.51604 0.0
H808 H 0.06685 0.45236 0.50043 0.0
O809 O 1.01906 0.56061 0.48867 0.0
Co810 Co 0.96734 0.56811 0.43359 0.0
Co811 Co 0.96878 0.53134 0.52256 0.0
H812 H 1.03911 0.58785 0.50102 0.0
O813 O 0.14001 0.48864 0.43672 0.0
O814 O 0.18075 0.49511 0.51529 0.0
O815 O 0.15732 0.57475 0.46947 0.0
O816 O 0.08569 0.56119 0.44098 0.0
O817 O 1.00208 0.48034 0.45529 0.0
O818 O 0.92221 0.57875 0.38492 0.0
O819 O 0.97344 0.6258 0.43439 0.0
O820 O 0.95207 0.50991 0.42188 0.0
O821 O 1.018 0.47668 0.5636 0.0
O822 O 0.9473 0.46988 0.54311 0.0
O823 O 0.92405 0.54468 0.48386 0.0
O824 O 0.96127 0.56273 0.5611 0.0
C825 C 0.16888 0.42174 0.60189 0.0
C826 C 0.14001 0.55966 0.57569 0.0
C827 C 0.12863 0.58604 0.43951 0.0
C828 C 0.17337 0.4853 0.46963 0.0
C829 C 0.93754 0.61657 0.39925 0.0
C830 C 0.96468 0.47917 0.4286 0.0
C831 C 0.97504 0.45485 0.56763 0.0
C832 C 0.92939 0.56204 0.52355 0.0
O833 O 0.18544 0.46005 0.61551 0.0
O834 O 0.13248 0.41297 0.56744 0.0
O835 O 0.10199 0.55769 0.54984 0.0
O836 O 0.15399 0.52983 0.58131 0.0
Co837 Co 0.62779 0.96673 0.56083 0.0
Co838 Co 0.62379 1.00419 0.47614 0.0
Co839 Co 0.54356 0.01677 0.49662 0.0
O840 O 0.57422 0.97393 0.51026 0.0
H841 H 0.55391 0.9472 0.49695 0.0
O842 O 0.51228 0.05919 0.48192 0.0
Co843 Co 0.45656 0.06462 0.43275 0.0
Co844 Co 0.46369 0.02892 0.51787 0.0
H845 H 0.53261 0.08637 0.49426 0.0
O846 O 0.62002 0.97859 0.42568 0.0
O847 O 0.66347 0.98056 0.50318 0.0
O848 O 0.65029 0.06641 0.46366 0.0
O849 O 0.58101 0.0622 0.4388 0.0
O850 O 0.49439 0.98125 0.4457 0.0
O851 O 0.40715 0.07295 0.38881 0.0
O852 O 0.46594 0.12609 0.42348 0.0
O853 O 0.43616 1.00146 0.42841 0.0
O854 O 0.5068 0.97147 0.55497 0.0
O855 O 0.43704 0.9665 0.53384 0.0
O856 O 0.42457 0.05321 0.49253 0.0
O857 O 0.47118 0.05618 0.56776 0.0
C858 C 0.65572 0.91655 0.59808 0.0
C859 C 0.63337 0.05693 0.56775 0.0
C860 C 0.6246 0.08369 0.43869 0.0
C861 C 0.65007 0.9685 0.45785 0.0
C862 C 0.42626 0.11393 0.39429 0.0
C863 C 0.45281 0.97444 0.42839 0.0
C864 C 0.46362 0.94992 0.55775 0.0
C865 C 0.44175 0.06772 0.53645 0.0
O866 O 0.67493 0.95685 0.60612 0.0
O867 O 0.61715 0.90571 0.56688 0.0
O868 O 0.59279 0.05237 0.54796 0.0
O869 O 0.64851 0.02875 0.56821 0.0
C870 C 0.15948 0.2003 0.34781 0.0
C871 C 0.17902 0.18316 0.32371 0.0
C872 C 0.12439 0.17282 0.37708 0.0
C873 C 0.10803 0.12716 0.38409 0.0
H874 H 0.17126 0.23529 0.34395 0.0
H875 H 0.11083 0.18751 0.39543 0.0
S876 S 0.14639 0.06586 0.32752 0.0
N877 N 0.17864 0.11761 0.30802 0.0
N878 N 0.11265 0.06595 0.36275 0.0
C879 C 0.12683 0.10957 0.35969 0.0
C880 C 0.16228 0.13756 0.32954 0.0
C881 C 0.82418 0.05317 0.48385 0.0
C882 C 0.82495 0.09448 0.47792 0.0
C883 C 0.86479 0.04922 0.49152 0.0
C884 C 0.90678 0.08617 0.49502 0.0
H885 H 0.7929 0.02536 0.47384 0.0
H886 H 0.86324 0.01813 0.48887 0.0
S887 S 0.92548 0.19723 0.50358 0.0
N888 N 0.86975 0.16964 0.49241 0.0
N889 N 0.94657 0.16209 0.50738 0.0
C890 C 0.90767 0.12531 0.50051 0.0
C891 C 0.8662 0.12932 0.49258 0.0
C892 C 0.90248 0.89926 0.34649 0.0
C893 C 0.88327 0.85358 0.36092 0.0
C894 C 0.93816 0.92691 0.37789 0.0
C895 C 0.95644 0.90982 0.4245 0.0
H896 H 0.89039 0.91378 0.31022 0.0
H897 H 0.95277 0.96177 0.36455 0.0
S898 S 0.91665 0.79303 0.4816 0.0
N899 N 0.88382 0.79293 0.42669 0.0
N900 N 0.95121 0.84484 0.48502 0.0
C901 C 0.93668 0.86444 0.44016 0.0
C902 C 0.89996 0.83634 0.4086 0.0
C903 C 0.12884 0.94349 0.27306 0.0
C904 C 0.1733 0.94746 0.28016 0.0
C905 C 0.1119 0.94898 0.31168 0.0
C906 C 0.13918 0.95955 0.35811 0.0
H907 H 0.10634 0.93391 0.2385 0.0
H908 H 0.0769 0.94408 0.30555 0.0
S909 S 0.25835 0.97512 0.39435 0.0
N910 N 0.24469 0.96378 0.33614 0.0
N911 N 0.21303 0.97513 0.40824 0.0
C912 C 0.18427 0.96562 0.36468 0.0
C913 C 0.20129 0.95927 0.32577 0.0
C914 C 0.27658 0.98071 0.53203 0.0
C915 C 0.27712 0.93994 0.53814 0.0
C916 C 0.23538 0.98337 0.52431 0.0
C917 C 0.19406 0.94574 0.52038 0.0
H918 H 0.30726 1.00909 0.54194 0.0
H919 H 0.2359 1.0141 0.52663 0.0
S920 S 0.17917 0.83647 0.50964 0.0
N921 N 0.23464 0.86499 0.52229 0.0
N922 N 0.15643 0.87017 0.50652 0.0
C923 C 0.19455 0.90726 0.51478 0.0
C924 C 0.2367 0.90453 0.52309 0.0
C925 C 0.17051 0.17846 0.63987 0.0
C926 C 0.21015 0.17253 0.65798 0.0
C927 C 0.13683 0.15365 0.60479 0.0
C928 C 0.14071 0.12079 0.58763 0.0
H929 H 0.16568 0.20286 0.65255 0.0
H930 H 0.10716 0.15998 0.59181 0.0
S931 S 0.23965 0.09413 0.6225 0.0
N932 N 0.25323 0.13365 0.65483 0.0
N933 N 0.18879 0.08512 0.59042 0.0
C934 C 0.18069 0.1149 0.60526 0.0
C935 C 0.21568 0.14122 0.64008 0.0
C936 C 0.9712 0.11887 0.71147 0.0
C937 C 0.9301 0.08724 0.72796 0.0
C938 C 0.98929 0.11206 0.67521 0.0
C939 C 0.96675 0.07347 0.65347 0.0
H940 H 0.98901 0.14962 0.72593 0.0
H941 H 1.02075 0.13803 0.66333 0.0
S942 S 0.85896 0.97972 0.68629 0.0
N943 N 0.86806 1.01535 0.72216 0.0
N944 N 0.90196 1.00223 0.6533 0.0
C945 C 0.92622 0.0409 0.67092 0.0
C946 C 0.90796 0.04783 0.70841 0.0
C947 C 0.90709 0.86221 0.62319 0.0
C948 C 0.91476 0.84801 0.67554 0.0
C949 C 0.94323 0.8903 0.59569 0.0
C950 C 0.98848 0.90441 0.61918 0.0
H951 H 0.87286 0.85194 0.60323 0.0
H952 H 0.93573 0.9005 0.55547 0.0
S953 S 1.02737 0.87771 0.7551 0.0
N954 N 0.97148 0.85138 0.74992 0.0
N955 N 1.03931 0.90303 0.69754 0.0
C956 C 0.99685 0.89052 0.67127 0.0
C957 C 0.96001 0.86269 0.69964 0.0
C958 C 0.34274 0.07366 0.0793 0.0
C959 C 0.35456 0.11254 0.09733 0.0
C960 C 0.37324 0.06881 0.0565 0.0
C961 C 0.4171 0.10242 0.05136 0.0
H962 H 0.30976 0.04646 0.0834 0.0
H963 H 0.36265 0.03804 0.04404 0.0
S964 S 0.46356 0.21214 0.0886 0.0
N965 N 0.4124 0.1861 0.10594 0.0
N966 N 0.46939 0.17739 0.06276 0.0
C967 C 0.42862 0.14218 0.06726 0.0
C968 C 0.39748 0.14713 0.09027 0.0
C969 C 0.91148 0.37061 0.18403 0.0
C970 C 0.86971 0.35179 0.15287 0.0
C971 C 0.95218 0.40037 0.16346 0.0
C972 C 0.95304 0.41462 0.11069 0.0
H973 H 0.91286 0.36217 0.22481 0.0
H974 H 0.98335 0.41256 0.18932 0.0
S975 S 0.85308 0.37616 0.01214 0.0
N976 N 0.83247 0.34983 0.06591 0.0
N977 N 0.90756 0.40691 0.02795 0.0
C978 C 0.91133 0.39676 0.07925 0.0
C979 C 0.87025 0.36542 0.10007 0.0
C980 C 0.67406 0.81833 0.14815 0.0
C981 C 0.71618 0.83155 0.181 0.0
C982 C 0.65285 0.84692 0.12377 0.0
C983 C 0.67135 0.89094 0.13144 0.0
H984 H 0.6566 0.78475 0.14156 0.0
H985 H 0.62058 0.83367 0.09995 0.0
S986 S 0.78158 0.94378 0.21295 0.0
N987 N 0.77565 0.89341 0.21838 0.0
N988 N 0.73669 0.94615 0.17451 0.0
C989 C 0.71392 0.90482 0.16374 0.0
C990 C 0.73584 0.87576 0.18785 0.0
C991 C 0.19029 0.70392 0.08726 0.0
C992 C 0.20383 0.6877 0.13743 0.0
C993 C 0.15448 0.67655 0.05505 0.0
C994 C 0.13104 0.63121 0.07083 0.0
H995 H 0.20738 0.73829 0.07258 0.0
H996 H 0.14521 0.69115 0.01732 0.0
S997 S 0.15486 0.57097 0.19709 0.0
N998 N 0.19158 0.62225 0.20003 0.0
N999 N 0.12572 0.5711 0.13983 0.0
C1000 C 0.14547 0.61419 0.12013 0.0
C1001 C 0.18146 0.64219 0.15313 0.0
C1002 C 0.40588 0.88509 0.86742 0.0
C1003 C 0.40188 0.84285 0.86914 0.0
C1004 C 0.44085 0.91434 0.89853 0.0
C1005 C 0.47303 0.90246 0.93335 0.0
H1006 H 0.38278 0.89625 0.84066 0.0
H1007 H 0.443 0.94677 0.89464 0.0
S1008 S 0.47494 0.79399 0.95638 0.0
N1009 N 0.43215 0.79025 0.91102 0.0
N1010 N 0.49602 0.84376 0.96967 0.0
C1011 C 0.46808 0.85963 0.93682 0.0
C1012 C 0.43313 0.83034 0.90474 0.0
C1013 C 0.11745 0.32981 0.90987 0.0
C1014 C 0.15829 0.35217 0.8894 0.0
C1015 C 0.10406 0.35022 0.93626 0.0
C1016 C 0.1309 0.39408 0.94345 0.0
H1017 H 0.09473 0.29659 0.90377 0.0
H1018 H 0.07146 0.33138 0.94991 0.0
S1019 S 0.24365 0.46555 0.90138 0.0
N1020 N 0.2276 0.41919 0.88079 0.0
N1021 N 0.20248 0.45812 0.93124 0.0
C1022 C 0.17335 0.41618 0.92573 0.0
C1023 C 0.18703 0.39509 0.89844 0.0
C1024 C 0.71324 0.1803 0.88812 0.0
C1025 C 0.71058 0.18845 0.83473 0.0
C1026 C 0.67627 0.14767 0.91334 0.0
C1027 C 0.63426 0.12279 0.8862 0.0
H1028 H 0.74395 0.19992 0.91063 0.0
H1029 H 0.67985 0.14363 0.95424 0.0
S1030 S 0.60845 0.13229 0.74609 0.0
N1031 N 0.66164 0.16881 0.75608 0.0
N1032 N 0.59262 0.1091 0.80268 0.0
C1033 C 0.63128 0.13072 0.83293 0.0
C1034 C 0.66903 0.16318 0.80746 0.0
C1035 C 0.84829 0.64456 0.84602 0.0
C1036 C 0.86406 0.68997 0.8269 0.0
C1037 C 0.87759 0.62396 0.86957 0.0
C1038 C 0.92555 0.64691 0.87745 0.0
H1039 H 0.81214 0.62382 0.8414 0.0
H1040 H 0.8621 0.58887 0.88112 0.0
S1041 S 0.98699 0.76672 0.83614 0.0
N1042 N 0.93314 0.75726 0.81806 0.0
N1043 N 0.9874 0.71935 0.86405 0.0
C1044 C 0.94229 0.69273 0.86026 0.0
C1045 C 0.91214 0.71383 0.83487 0.0
C1046 C 0.23486 0.38823 0.1373 0.0
C1047 C 0.21994 0.34493 0.16446 0.0
C1048 C 0.20533 0.40887 0.11469 0.0
C1049 C 0.15786 0.38787 0.11632 0.0
H1050 H 0.27066 0.40723 0.13432 0.0
H1051 H 0.22037 0.44252 0.09634 0.0
S1052 S 0.09926 0.27487 0.1843 0.0
N1053 N 0.15269 0.28248 0.193 0.0
N1054 N 0.09769 0.32001 0.14935 0.0
C1055 C 0.1419 0.34416 0.1426 0.0
C1056 C 0.17241 0.32324 0.16669 0.0
C1057 C 0.21234 0.66196 0.88115 0.0
C1058 C 0.21036 0.6733 0.82785 0.0
C1059 C 0.17285 0.63514 0.90524 0.0
C1060 C 0.1291 0.61797 0.87726 0.0
H1061 H 0.24481 0.6733 0.90468 0.0
H1062 H 0.17664 0.62833 0.94624 0.0
S1063 S 0.10513 0.63311 0.73657 0.0
N1064 N 0.16075 0.66092 0.74814 0.0
N1065 N 0.08705 0.61296 0.79247 0.0
C1066 C 0.12678 0.62845 0.82389 0.0
C1067 C 0.16707 0.65497 0.79956 0.0
C1068 C 0.4238 0.2147 0.86621 0.0
C1069 C 0.38091 0.20055 0.83493 0.0
C1070 C 0.44603 0.18692 0.88931 0.0
C1071 C 0.42769 0.14292 0.88185 0.0
H1072 H 0.44116 0.24843 0.87224 0.0
H1073 H 0.47894 0.20079 0.91181 0.0
S1074 S 0.31518 0.08764 0.80537 0.0
N1075 N 0.32049 0.13779 0.80001 0.0
N1076 N 0.36143 0.08638 0.84162 0.0
C1077 C 0.38417 0.12798 0.85156 0.0
C1078 C 0.36122 0.15623 0.82873 0.0
C1079 C 0.91187 0.38937 0.84188 0.0
C1080 C 0.88727 0.34441 0.859 0.0
C1081 C 0.94485 0.41795 0.87478 0.0
C1082 C 0.95534 0.4029 0.92638 0.0
H1083 H 0.90682 0.4026 0.80236 0.0
H1084 H 0.96324 0.45193 0.85916 0.0
S1085 S 0.89771 0.28946 0.99157 0.0
N1086 N 0.87308 0.28744 0.93235 0.0
N1087 N 0.93616 0.34029 0.99345 0.0
C1088 C 0.93032 0.35829 0.94422 0.0
C1089 C 0.89617 0.3294 0.91087 0.0
C1090 C 0.70701 0.87949 0.94489 0.0
C1091 C 0.75226 0.91023 0.94128 0.0
C1092 C 0.67565 0.89058 0.95685 0.0
C1093 C 0.68807 0.9329 0.96593 0.0
H1094 H 0.69598 0.84609 0.93996 0.0
H1095 H 0.64152 0.86527 0.96006 0.0
S1096 S 0.80182 0.02625 0.95799 0.0
N1097 N 0.80733 0.98559 0.94459 0.0
N1098 N 0.74877 1.00617 0.96859 0.0
C1099 C 0.73302 0.96427 0.96139 0.0
C1100 C 0.76491 0.95305 0.94856 0.0
C1101 C 0.94064 0.69536 0.0732 0.0
C1102 C 0.90672 0.66838 0.10399 0.0
C1103 C 0.95662 0.67764 0.04573 0.0
C1104 C 0.93933 0.63216 0.04794 0.0
H1105 H 0.95751 0.73027 0.07351 0.0
H1106 H 0.9846 0.69981 0.02472 0.0
S1107 S 0.8466 0.54762 0.11922 0.0
N1108 N 0.85359 0.59421 0.13226 0.0
N1109 N 0.88334 0.5607 0.0801 0.0
C1110 C 0.90291 0.6049 0.07556 0.0
C1111 C 0.88682 0.62306 0.10392 0.0
C1112 C 0.38606 0.85872 0.1143 0.0
C1113 C 0.38712 0.84929 0.16749 0.0
C1114 C 0.42406 0.89151 0.09096 0.0
C1115 C 0.46554 0.91512 0.11989 0.0
H1116 H 0.3562 0.83933 0.09058 0.0
H1117 H 0.42187 0.8963 0.05014 0.0
S1118 S 0.4864 0.90343 0.26023 0.0
N1119 N 0.4332 0.86762 0.24786 0.0
N1120 N 0.50444 0.92734 0.20472 0.0
C1121 C 0.46662 0.90661 0.17291 0.0
C1122 C 0.42771 0.87416 0.19645 0.0
C1123 C 0.68639 0.14928 0.15058 0.0
C1124 C 0.7027 0.19479 0.13553 0.0
C1125 C 0.65148 0.11988 0.11994 0.0
C1126 C 0.63124 0.13473 0.07297 0.0
H1127 H 0.69928 0.13618 0.18731 0.0
H1128 H 0.63918 0.08524 0.13416 0.0
S1129 S 0.66681 0.25082 0.01274 0.0
N1130 N 0.69974 0.25315 0.06783 0.0
N1131 N 0.63393 0.19841 0.01087 0.0
C1132 C 0.64895 0.18022 0.05645 0.0
C1133 C 0.68464 0.21004 0.08751 0.0
C1134 C 0.6736 0.69744 0.85546 0.0
C1135 C 0.68653 0.6778 0.82657 0.0
C1136 C 0.63786 0.67254 0.88482 0.0
C1137 C 0.61445 0.62694 0.88723 0.0
H1138 H 0.69129 0.73238 0.85542 0.0
H1139 H 0.62951 0.68888 0.90702 0.0
S1140 S 0.63478 0.55982 0.8188 0.0
N1141 N 0.67287 0.61006 0.80269 0.0
N1142 N 0.60587 0.56336 0.85732 0.0
C1143 C 0.6268 0.60704 0.8583 0.0
C1144 C 0.66274 0.63243 0.82808 0.0
C1145 C 0.43072 0.66245 0.06121 0.0
C1146 C 0.3833 0.64055 0.05003 0.0
C1147 C 0.45796 0.64847 0.04541 0.0
C1148 C 0.43797 0.60999 0.02383 0.0
H1149 H 0.44616 0.69525 0.07021 0.0
H1150 H 0.49393 0.66957 0.0461 0.0
S1151 S 0.31833 0.52753 0.02325 0.0
N1152 N 0.32009 0.5696 0.04254 0.0
N1153 N 0.37072 0.54142 0.01447 0.0
C1154 C 0.39217 0.58183 0.02801 0.0
C1155 C 0.36509 0.59661 0.04417 0.0
C1156 C 0.39648 0.34592 0.89762 0.0
C1157 C 0.39177 0.35959 0.84477 0.0
C1158 C 0.42815 0.37424 0.93067 0.0
C1159 C 0.4556 0.41781 0.91256 0.0
H1160 H 0.37693 0.31254 0.91393 0.0
H1161 H 0.43242 0.36148 0.97067 0.0
S1162 S 0.45339 0.47218 0.77882 0.0
N1163 N 0.41476 0.42133 0.77651 0.0
N1164 N 0.47437 0.47472 0.83921 0.0
C1165 C 0.44953 0.43304 0.8604 0.0
C1166 C 0.41757 0.40391 0.82636 0.0
C1167 C 0.69547 0.46666 0.80814 0.0
C1168 C 0.67233 0.42983 0.78335 0.0
C1169 C 0.67473 0.47443 0.84139 0.0
C1170 C 0.62979 0.44605 0.8504 0.0
H1171 H 0.7302 0.48907 0.80268 0.0
H1172 H 0.69426 0.50265 0.86048 0.0
S1173 S 0.55396 0.34617 0.79194 0.0
N1174 N 0.60189 0.36571 0.76836 0.0
N1175 N 0.56252 0.38009 0.82988 0.0
C1176 C 0.60606 0.4096 0.82467 0.0
C1177 C 0.6274 0.40157 0.79142 0.0
C1178 C 0.73069 0.40278 0.99599 0.0
C1179 C 0.76922 0.44176 0.00632 0.0
C1180 C 0.68707 0.4002 0.99229 0.0
C1181 C 0.68226 0.4375 0.99434 0.0
H1182 H 0.73404 0.37244 0.00354 0.0
H1183 H 0.65833 0.36839 0.99519 0.0
S1184 S 0.77219 0.55109 0.98622 0.0
N1185 N 0.79936 0.52062 0.99293 0.0
N1186 N 0.71785 0.51682 0.98495 0.0
C1187 C 0.71998 0.47831 0.98879 0.0
C1188 C 0.76385 0.48044 0.99272 0.0
C1189 C 0.67601 0.63235 0.18188 0.0
C1190 C 0.70944 0.67331 0.16327 0.0
C1191 C 0.64709 0.60165 0.14974 0.0
C1192 C 0.65062 0.61056 0.09782 0.0
H1193 H 0.67092 0.62436 0.22125 0.0
H1194 H 0.61985 0.57198 0.16496 0.0
S1195 S 0.73398 0.71033 0.02988 0.0
N1196 N 0.74609 0.71899 0.08912 0.0
N1197 N 0.69086 0.66152 0.02933 0.0
C1198 C 0.685 0.65008 0.07904 0.0
C1199 C 0.71471 0.68133 0.1116 0.0
C1200 C 0.46414 0.62732 0.20224 0.0
C1201 C 0.41976 0.59767 0.21135 0.0
C1202 C 0.48756 0.61843 0.17337 0.0
C1203 C 0.46721 0.57991 0.15155 0.0
H1204 H 0.48107 0.65743 0.21801 0.0
H1205 H 0.52164 0.64251 0.16735 0.0
S1206 S 0.35067 0.49219 0.16369 0.0
N1207 N 0.35616 0.52835 0.19678 0.0
N1208 N 0.3991 0.5122 0.14092 0.0
C1209 C 0.42249 0.55016 0.1602 0.0
C1210 C 0.39908 0.55891 0.19045 0.0
C1211 C 0.4187 0.33235 0.13694 0.0
C1212 C 0.40645 0.3527 0.16575 0.0
C1213 C 0.45712 0.35566 0.11139 0.0
C1214 C 0.48453 0.40033 0.11333 0.0
H1215 H 0.3984 0.2981 0.13388 0.0
H1216 H 0.4645 0.33899 0.08865 0.0
S1217 S 0.46947 0.46853 0.18505 0.0
N1218 N 0.42598 0.42039 0.19447 0.0
N1219 N 0.49871 0.46336 0.14842 0.0
C1220 C 0.47344 0.42073 0.14278 0.0
C1221 C 0.43436 0.39717 0.16848 0.0
C1222 C 0.82443 0.56751 0.54479 0.0
C1223 C 0.8408 0.61147 0.55103 0.0
C1224 C 0.8526 0.55204 0.53325 0.0
C1225 C 0.89829 0.57981 0.52801 0.0
H1226 H 0.7898 0.54454 0.54994 0.0
H1227 H 0.839 0.51779 0.53031 0.0
S1228 S 0.95713 0.69816 0.53513 0.0
N1229 N 0.90516 0.68318 0.54611 0.0
N1230 N 0.95826 0.65342 0.52707 0.0
C1231 C 0.91493 0.62379 0.53299 0.0
C1232 C 0.88621 0.63978 0.54389 0.0
C1233 C 0.41584 0.87002 0.67629 0.0
C1234 C 0.38002 0.83334 0.65617 0.0
C1235 C 0.4466 0.90571 0.64555 0.0
C1236 C 0.44235 0.90716 0.59277 0.0
H1237 H 0.41853 0.87249 0.71556 0.0
H1238 H 0.47148 0.93396 0.66256 0.0
S1239 S 0.35467 0.82011 0.52073 0.0
N1240 N 0.34349 0.80109 0.57967 0.0
N1241 N 0.39929 0.86791 0.52242 0.0
C1242 C 0.40743 0.87028 0.57264 0.0
C1243 C 0.37684 0.83378 0.60395 0.0
C1244 C 0.18696 0.3136 0.65144 0.0
C1245 C 0.23273 0.32661 0.67576 0.0
C1246 C 0.16742 0.3436 0.62707 0.0
C1247 C 0.19163 0.38949 0.62571 0.0
H1248 H 0.16517 0.27909 0.65181 0.0
H1249 H 0.1322 0.33025 0.61022 0.0
S1250 S 0.31361 0.44299 0.68098 0.0
N1251 N 0.30208 0.39055 0.69421 0.0
N1252 N 0.26632 0.44601 0.65035 0.0
C1253 C 0.23784 0.40319 0.64917 0.0
C1254 C 0.25794 0.37246 0.67338 0.0
C1255 C 0.67291 0.15485 0.63735 0.0
C1256 C 0.72052 0.17039 0.64741 0.0
C1257 C 0.64533 0.11901 0.61101 0.0
C1258 C 0.66381 0.09661 0.5934 0.0
H1259 H 0.6565 0.16975 0.65089 0.0
H1260 H 0.60892 0.10813 0.60554 0.0
S1261 S 0.78691 0.12765 0.60298 0.0
N1262 N 0.78505 0.16267 0.63226 0.0
N1263 N 0.73358 0.09584 0.58396 0.0
C1264 C 0.71146 0.11296 0.60126 0.0
C1265 C 0.73956 0.14956 0.62774 0.0
C1266 C 0.88114 0.41231 0.32814 0.0
C1267 C 0.87803 0.36974 0.346 0.0
C1268 C 0.90874 0.44692 0.35527 0.0
C1269 C 0.93528 0.44106 0.40152 0.0
H1270 H 0.86231 0.41946 0.29236 0.0
H1271 H 0.90974 0.47882 0.33927 0.0
S1272 S 0.93822 0.33602 0.46723 0.0
N1273 N 0.90268 0.3235 0.41466 0.0
N1274 N 0.95583 0.38893 0.46519 0.0
C1275 C 0.93282 0.39879 0.42016 0.0
C1276 C 0.90404 0.36316 0.39256 0.0
C1277 C 0.68248 0.87675 0.46436 0.0
C1278 C 0.67486 0.87151 0.41339 0.0
C1279 C 0.67972 0.91142 0.47833 0.0
C1280 C 0.66673 0.94099 0.4421 0.0
H1281 H 0.68785 0.85254 0.49398 0.0
H1282 H 0.68457 0.913 0.51797 0.0
S1283 S 0.64918 0.94513 0.30246 0.0
N1284 N 0.65939 0.90187 0.32594 0.0
N1285 N 0.65226 0.96611 0.35175 0.0
C1286 C 0.66223 0.93796 0.39051 0.0
C1287 C 0.66633 0.90327 0.37633 0.0
C1288 C 0.21384 0.69233 0.37067 0.0
C1289 C 0.19679 0.69061 0.31895 0.0
C1290 C 0.19008 0.65974 0.4091 0.0
C1291 C 0.1476 0.62421 0.39802 0.0
H1292 H 0.24614 0.71867 0.38156 0.0
H1293 H 0.20585 0.6618 0.44809 0.0
S1294 S 0.0868 0.60603 0.26859 0.0
N1295 N 0.13348 0.65144 0.25894 0.0
N1296 N 0.08933 0.59079 0.33065 0.0
C1297 C 0.12937 0.62326 0.34652 0.0
C1298 C 0.15369 0.65629 0.30735 0.0
C1299 C 0.39351 0.21167 0.31754 0.0
C1300 C 0.3454 0.19381 0.31572 0.0
C1301 C 0.41996 0.18755 0.34404 0.0
C1302 C 0.40023 0.14348 0.36977 0.0
H1303 H 0.41095 0.24418 0.29731 0.0
H1304 H 0.45614 0.20325 0.34267 0.0
S1305 S 0.277 0.08307 0.38196 0.0
N1306 N 0.28116 0.12987 0.34693 0.0
N1307 N 0.32863 0.08574 0.39346 0.0
C1308 C 0.35259 0.12631 0.36892 0.0
C1309 C 0.32619 0.15077 0.34299 0.0
C1310 C 0.75618 0.88296 0.64977 0.0
C1311 C 0.73778 0.83779 0.67018 0.0
C1312 C 0.72957 0.90653 0.62712 0.0
C1313 C 0.68147 0.88694 0.6208 0.0
H1314 H 0.79259 0.90103 0.65207 0.0
H1315 H 0.74747 0.94119 0.61409 0.0
S1316 S 0.61315 0.76809 0.66277 0.0
N1317 N 0.66596 0.77383 0.68013 0.0
N1318 N 0.61621 0.81683 0.63513 0.0
C1319 C 0.66179 0.84096 0.63847 0.0
C1320 C 0.68945 0.81695 0.66336 0.0
C1321 C 0.71958 0.19558 0.40187 0.0
C1322 C 0.71485 0.20174 0.34853 0.0
C1323 C 0.68736 0.15967 0.42995 0.0
C1324 C 0.64818 0.12755 0.40658 0.0
H1325 H 0.7499 0.21768 0.42253 0.0
H1326 H 0.69475 0.15553 0.47092 0.0
S1327 S 0.61834 0.12799 0.26765 0.0
N1328 N 0.66654 0.17245 0.27321 0.0
N1329 N 0.60617 0.10538 0.32584 0.0
C1330 C 0.64165 0.13429 0.35305 0.0
C1331 C 0.6748 0.17107 0.3242 0.0
C1332 C 0.91023 0.71925 0.36413 0.0
C1333 C 0.86837 0.7069 0.33092 0.0
C1334 C 0.93152 0.69051 0.38639 0.0
C1335 C 0.91318 0.64718 0.3764 0.0
H1336 H 0.92737 0.75223 0.37273 0.0
H1337 H 0.96341 0.70293 0.41105 0.0
S1338 S 0.80397 0.59715 0.29208 0.0
N1339 N 0.80958 0.64698 0.28984 0.0
N1340 N 0.84853 0.59373 0.33022 0.0
C1341 C 0.87092 0.63421 0.34351 0.0
C1342 C 0.84906 0.66352 0.32126 0.0
C1343 C 0.41734 0.87372 0.36557 0.0
C1344 C 0.36989 0.85769 0.35382 0.0
C1345 C 0.44346 0.9107 0.39028 0.0
C1346 C 0.42344 0.9334 0.40484 0.0
H1347 H 0.43473 0.8589 0.35359 0.0
H1348 H 0.47998 0.92233 0.39661 0.0
S1349 S 0.29937 0.89835 0.39271 0.0
N1350 N 0.30344 0.86346 0.36532 0.0
N1351 N 0.35193 0.93208 0.41184 0.0
C1352 C 0.37567 0.91562 0.39639 0.0
C1353 C 0.3492 0.87813 0.37107 0.0
C1354 C 0.2726 0.4596 0.47112 0.0
C1355 C 0.26485 0.44775 0.42292 0.0
C1356 C 0.24294 0.47133 0.48608 0.0
C1357 C 0.20476 0.47298 0.45308 0.0
H1358 H 0.30153 0.4594 0.49819 0.0
H1359 H 0.25014 0.47916 0.5239 0.0
S1360 S 0.17341 0.4527 0.31936 0.0
N1361 N 0.21894 0.44366 0.34023 0.0
N1362 N 0.16347 0.46587 0.36759 0.0
C1363 C 0.19789 0.46346 0.40373 0.0
C1364 C 0.22784 0.45099 0.38883 0.0
C1365 C 0.39405 0.14934 0.52935 0.0
C1366 C 0.41705 0.16851 0.57316 0.0
C1367 C 0.40019 0.11523 0.51861 0.0
C1368 C 0.42933 0.09868 0.55168 0.0
H1369 H 0.37173 0.16127 0.50282 0.0
H1370 H 0.38303 0.10269 0.48355 0.0
S1371 S 0.49128 0.13321 0.67643 0.0
N1372 N 0.46574 0.16553 0.6526 0.0
N1373 N 0.4768 0.10092 0.63422 0.0
C1374 C 0.44961 0.11544 0.59793 0.0
C1375 C 0.44355 0.15039 0.60827 0.0
C1376 C 0.88897 0.34487 0.6276 0.0
C1377 C 0.9007 0.34638 0.67997 0.0
C1378 C 0.91531 0.37861 0.59182 0.0
C1379 C 0.95549 0.4149 0.60656 0.0
H1380 H 0.85874 0.31779 0.61402 0.0
H1381 H 0.90319 0.37701 0.5519 0.0
S1382 S 1.00317 0.43278 0.73935 0.0
N1383 N 0.95713 0.38605 0.74477 0.0
N1384 N 1.00605 0.44891 0.67799 0.0
C1385 C 0.96869 0.41564 0.65891 0.0
C1386 C 0.94169 0.3815 0.69531 0.0
C1387 C 0.21804 0.62695 0.67834 0.0
C1388 C 0.22386 0.66992 0.65773 0.0
C1389 C 0.19179 0.59201 0.65126 0.0
C1390 C 0.16854 0.59802 0.60269 0.0
H1391 H 0.23347 0.61997 0.71634 0.0
H1392 H 0.18894 0.55978 0.66909 0.0
S1393 S 0.16965 0.7036 0.53217 0.0
N1394 N 0.20292 0.71637 0.58602 0.0
N1395 N 0.1515 0.65042 0.53551 0.0
C1396 C 0.17232 0.64058 0.58215 0.0
C1397 C 0.20019 0.67652 0.6096 0.0
loop_
_geom_bond_atom_site_label_1
_geom_bond_atom_site_label_2
_geom_bond_distance
_geom_bond_site_symmetry_2
_ccdc_geom_bond_type
Eu0 N31 2.657 . S
Eu0 N38 2.609 . S
Eu0 O44 2.558 . S
Eu0 O45 2.612 . S
Eu0 O47 2.339 . S
Eu0 O48 2.563 . S
Eu0 O49 2.419 . S
Eu0 O51 2.380 . S
Eu0 O52 2.432 . S
Eu0 C64 2.848 . S
C1 C4 1.429 . S
C1 C5 1.411 . S
C1 N8 1.377 . S
C2 C4 1.420 . S
C2 C6 1.423 . S
C2 C14 1.392 . S
C3 C5 1.420 . S
C3 C6 1.351 . S
C3 H26 0.931 . S
C4 C1 1.429 . S
C4 C2 1.420 . S
C4 N12 1.362 . S
C5 C1 1.411 . S
C5 C3 1.420 . S
C5 C10 1.395 . S
C6 C2 1.423 . S
C6 C3 1.351 . S
C6 H18 0.930 . S
C7 C9 1.400 . S
C7 C10 1.386 . S
C7 H19 0.930 . S
N8 C1 1.377 . S
N8 C9 1.321 . S
N8 Eu11 2.609 . S
C9 C7 1.400 . S
C9 N8 1.321 . S
C9 H16 0.930 . S
C10 C5 1.395 . S
C10 C7 1.386 . S
C10 H29 0.930 . S
Eu11 N8 2.609 . S
Eu11 N12 2.657 . S
Eu11 O45 2.380 . S
Eu11 O46 2.432 . S
Eu11 O50 2.558 . S
Eu11 O51 2.612 . S
Eu11 O53 2.339 . S
Eu11 O54 2.563 . S
Eu11 O55 2.419 . S
Eu11 C75 2.848 . S
N12 C4 1.362 . S
N12 Eu11 2.657 . S
N12 C13 1.334 . S
C13 N12 1.334 . S
C13 C15 1.413 . S
C13 H20 0.929 . S
C14 C2 1.392 . S
C14 C15 1.367 . S
C14 H22 0.930 . S
C15 C13 1.413 . S
C15 C14 1.367 . S
C15 H17 0.930 . S
H16 C9 0.930 . S
H17 C15 0.930 . S
H18 C6 0.930 . S
H19 C7 0.930 . S
H20 C13 0.929 . S
H21 C35 0.930 . S
H22 C14 0.930 . S
H23 C41 0.930 . S
H24 C32 0.929 . S
H25 C39 0.930 . S
H26 C3 0.931 . S
H27 C33 0.930 1_556 S
H28 C66 0.930 1_556 S
H29 C10 0.930 . S
H30 C65 0.931 . S
N31 Eu0 2.657 . S
N31 C32 1.334 . S
N31 C36 1.362 . S
C32 H24 0.929 . S
C32 N31 1.334 . S
C32 C35 1.413 . S
C33 H27 0.930 1_554 S
C33 C34 1.392 . S
C33 C35 1.367 . S
C34 C33 1.392 . S
C34 C36 1.420 . S
C34 C66 1.423 . S
C35 H21 0.930 . S
C35 C32 1.413 . S
C35 C33 1.367 . S
C36 N31 1.362 . S
C36 C34 1.420 . S
C36 C40 1.429 . S
H37 C42 0.930 . S
N38 Eu0 2.609 . S
N38 C40 1.377 . S
N38 C41 1.321 . S
C39 H25 0.930 . S
C39 C41 1.400 . S
C39 C42 1.386 . S
C40 C36 1.429 . S
C40 N38 1.377 . S
C40 C43 1.411 . S
C41 H23 0.930 . S
C41 N38 1.321 . S
C41 C39 1.400 . S
C42 H37 0.930 . S
C42 C39 1.386 . S
C42 C43 1.395 . S
C43 C40 1.411 . S
C43 C42 1.395 . S
C43 C65 1.420 . S
O44 Eu0 2.558 . S
O44 C64 1.257 . S
O45 Eu0 2.612 . S
O45 Eu11 2.380 . S
O45 C56 1.276 . S
O46 Eu11 2.432 . S
O46 C63 1.264 . S
O47 Eu0 2.339 . S
O47 C63 1.254 . S
O48 Eu0 2.563 . S
O48 C56 1.235 . S
O49 Eu0 2.419 . S
O49 C64 1.249 . S
O50 Eu11 2.558 . S
O50 C75 1.257 . S
O51 Eu0 2.380 . S
O51 Eu11 2.612 . S
O51 C67 1.276 . S
O52 Eu0 2.432 . S
O52 C74 1.264 . S
O53 Eu11 2.339 . S
O53 C74 1.254 . S
O54 Eu11 2.563 . S
O54 C67 1.235 . S
O55 Eu11 2.419 . S
O55 C75 1.249 . S
C56 O45 1.276 . S
C56 O48 1.235 . S
C57 C59 1.393 . S
C57 C61 1.395 . S
C57 C64 1.492 . S
C58 C59 1.392 . S
C58 C60 1.386 . S
C59 C57 1.393 . S
C59 C58 1.392 . S
C59 H76 0.930 . S
C60 C58 1.386 . S
C60 C62 1.395 . S
C60 H77 0.930 . S
C61 C57 1.395 . S
C61 C62 1.379 . S
C61 H78 0.930 . S
C62 C60 1.395 . S
C62 C61 1.379 . S
C62 H79 0.930 . S
C63 O46 1.264 . S
C63 O47 1.254 . S
C64 Eu0 2.848 . S
C64 O44 1.257 . S
C64 O49 1.249 . S
C64 C57 1.492 . S
C65 H30 0.931 . S
C65 C43 1.420 . S
C65 C66 1.351 . S
C66 H28 0.930 1_554 S
C66 C34 1.423 . S
C66 C65 1.351 . S
C67 O51 1.276 . S
C67 O54 1.235 . S
C68 C69 1.393 . S
C68 C72 1.395 . S
C68 C75 1.492 . S
C69 C68 1.393 . S
C69 C70 1.392 . S
C69 H80 0.930 . S
C70 C69 1.392 . S
C70 C71 1.386 . S
C71 C70 1.386 . S
C71 C73 1.395 . S
C71 H81 0.930 . S
C72 C68 1.395 . S
C72 C73 1.379 . S
C72 H82 0.930 . S
C73 C71 1.395 . S
C73 C72 1.379 . S
C73 H83 0.930 . S
C74 O52 1.264 . S
C74 O53 1.254 . S
C75 Eu11 2.848 . S
C75 O50 1.257 . S
C75 O55 1.249 . S
C75 C68 1.492 . S
H76 C59 0.930 . S
H77 C60 0.930 . S
H78 C61 0.930 . S
H79 C62 0.930 . S
H80 C69 0.930 . S
H81 C71 0.930 . S
H82 C72 0.930 . S
H83 C73 0.930 . S
Eu84 N115 2.657 . S
Eu84 N122 2.609 . S
Eu84 O128 2.558 . S
Eu84 O129 2.612 . S
Eu84 O131 2.339 . S
Eu84 O132 2.563 . S
Eu84 O133 2.419 . S
Eu84 O135 2.380 . S
Eu84 O136 2.432 . S
Eu84 C148 2.848 . S
C85 C88 1.429 . S
C85 C89 1.411 . S
C85 N92 1.377 . S
C86 C88 1.420 . S
C86 C90 1.423 . S
C86 C98 1.392 . S
C87 C89 1.420 . S
C87 C90 1.351 . S
C87 H110 0.931 . S
C88 C85 1.429 . S
C88 C86 1.420 . S
C88 N96 1.362 . S
C89 C85 1.411 . S
C89 C87 1.420 . S
C89 C94 1.395 . S
C90 C86 1.423 . S
C90 C87 1.351 . S
C90 H102 0.930 . S
C91 C93 1.400 . S
C91 C94 1.386 . S
C91 H103 0.930 . S
N92 C85 1.377 . S
N92 C93 1.321 . S
N92 Eu95 2.609 . S
C93 C91 1.400 . S
C93 N92 1.321 . S
C93 H100 0.930 . S
C94 C89 1.395 . S
C94 C91 1.386 . S
C94 H113 0.930 . S
Eu95 N92 2.609 . S
Eu95 N96 2.657 . S
Eu95 O129 2.380 . S
Eu95 O130 2.432 . S
Eu95 O134 2.558 . S
Eu95 O135 2.612 . S
Eu95 O137 2.339 . S
Eu95 O138 2.563 . S
Eu95 O139 2.419 . S
Eu95 C159 2.848 . S
N96 C88 1.362 . S
N96 Eu95 2.657 . S
N96 C97 1.334 . S
C97 N96 1.334 . S
C97 C99 1.413 . S
C97 H104 0.929 . S
C98 C86 1.392 . S
C98 C99 1.367 . S
C98 H106 0.930 . S
C99 C97 1.413 . S
C99 C98 1.367 . S
C99 H101 0.930 . S
H100 C93 0.930 . S
H101 C99 0.930 . S
H102 C90 0.930 . S
H103 C91 0.930 . S
H104 C97 0.929 . S
H105 C119 0.930 . S
H106 C98 0.930 . S
H107 C125 0.930 . S
H108 C116 0.929 . S
H109 C123 0.930 . S
H110 C87 0.931 . S
H111 C117 0.930 . S
H112 C150 0.930 . S
H113 C94 0.930 . S
H114 C149 0.931 . S
N115 Eu84 2.657 . S
N115 C116 1.334 . S
N115 C120 1.362 . S
C116 H108 0.929 . S
C116 N115 1.334 . S
C116 C119 1.413 . S
C117 H111 0.930 . S
C117 C118 1.392 . S
C117 C119 1.367 . S
C118 C117 1.392 . S
C118 C120 1.420 . S
C118 C150 1.423 . S
C119 H105 0.930 . S
C119 C116 1.413 . S
C119 C117 1.367 . S
C120 N115 1.362 . S
C120 C118 1.420 . S
C120 C124 1.429 . S
H121 C126 0.930 . S
N122 Eu84 2.609 . S
N122 C124 1.377 . S
N122 C125 1.321 . S
C123 H109 0.930 . S
C123 C125 1.400 . S
C123 C126 1.386 . S
C124 C120 1.429 . S
C124 N122 1.377 . S
C124 C127 1.411 . S
C125 H107 0.930 . S
C125 N122 1.321 . S
C125 C123 1.400 . S
C126 H121 0.930 . S
C126 C123 1.386 . S
C126 C127 1.395 . S
C127 C124 1.411 . S
C127 C126 1.395 . S
C127 C149 1.420 . S
O128 Eu84 2.558 . S
O128 C148 1.257 . S
O129 Eu84 2.612 . S
O129 Eu95 2.380 . S
O129 C140 1.276 . S
O130 Eu95 2.432 . S
O130 C147 1.264 . S
O131 Eu84 2.339 . S
O131 C147 1.254 . S
O132 Eu84 2.563 . S
O132 C140 1.235 . S
O133 Eu84 2.419 . S
O133 C148 1.249 . S
O134 Eu95 2.558 . S
O134 C159 1.257 . S
O135 Eu84 2.380 . S
O135 Eu95 2.612 . S
O135 C151 1.276 . S
O136 Eu84 2.432 . S
O136 C158 1.264 . S
O137 Eu95 2.339 . S
O137 C158 1.254 . S
O138 Eu95 2.563 . S
O138 C151 1.235 . S
O139 Eu95 2.419 . S
O139 C159 1.249 . S
C140 O129 1.276 . S
C140 O132 1.235 . S
C141 C143 1.393 . S
C141 C145 1.395 . S
C141 C148 1.492 . S
C142 C143 1.392 . S
C142 C144 1.386 . S
C143 C141 1.393 . S
C143 C142 1.392 . S
C143 H160 0.930 . S
C144 C142 1.386 . S
C144 C146 1.395 . S
C144 H161 0.930 . S
C145 C141 1.395 . S
C145 C146 1.379 . S
C145 H162 0.930 . S
C146 C144 1.395 . S
C146 C145 1.379 . S
C146 H163 0.930 . S
C147 O130 1.264 . S
C147 O131 1.254 . S
C148 Eu84 2.848 . S
C148 O128 1.257 . S
C148 O133 1.249 . S
C148 C141 1.492 . S
C149 H114 0.931 . S
C149 C127 1.420 . S
C149 C150 1.351 . S
C150 H112 0.930 . S
C150 C118 1.423 . S
C150 C149 1.351 . S
C151 O135 1.276 . S
C151 O138 1.235 . S
C152 C153 1.393 . S
C152 C156 1.395 . S
C152 C159 1.492 . S
C153 C152 1.393 . S
C153 C154 1.392 . S
C153 H164 0.930 . S
C154 C153 1.392 . S
C154 C155 1.386 . S
C155 C154 1.386 . S
C155 C157 1.395 . S
C155 H165 0.930 . S
C156 C152 1.395 . S
C156 C157 1.379 . S
C156 H166 0.930 . S
C157 C155 1.395 . S
C157 C156 1.379 . S
C157 H167 0.930 . S
C158 O136 1.264 . S
C158 O137 1.254 . S
C159 Eu95 2.848 . S
C159 O134 1.257 . S
C159 O139 1.249 . S
C159 C152 1.492 . S
H160 C143 0.930 . S
H161 C144 0.930 . S
H162 C145 0.930 . S
H163 C146 0.930 . S
H164 C153 0.930 . S
H165 C155 0.930 . S
H166 C156 0.930 . S
H167 C157 0.930 . S
Eu168 N199 2.657 . S
Eu168 N206 2.609 . S
Eu168 O212 2.558 . S
Eu168 O213 2.612 . S
Eu168 O215 2.339 . S
Eu168 O216 2.563 . S
Eu168 O217 2.419 . S
Eu168 O219 2.380 . S
Eu168 O220 2.432 . S
Eu168 C232 2.848 . S
C169 C172 1.429 . S
C169 C173 1.411 . S
C169 N176 1.377 . S
C170 C172 1.420 . S
C170 C174 1.423 . S
C170 C182 1.392 . S
C171 C173 1.420 . S
C171 C174 1.351 . S
C171 H194 0.931 . S
C172 C169 1.429 . S
C172 C170 1.420 . S
C172 N180 1.362 . S
C173 C169 1.411 . S
C173 C171 1.420 . S
C173 C178 1.395 . S
C174 C170 1.423 . S
C174 C171 1.351 . S
C174 H186 0.930 1_554 S
C175 C177 1.400 . S
C175 C178 1.386 . S
C175 H187 0.930 . S
N176 C169 1.377 . S
N176 C177 1.321 . S
N176 Eu179 2.609 . S
C177 C175 1.400 . S
C177 N176 1.321 . S
C177 H184 0.930 . S
C178 C173 1.395 . S
C178 C175 1.386 . S
C178 H197 0.930 . S
Eu179 N176 2.609 . S
Eu179 N180 2.657 . S
Eu179 O213 2.380 . S
Eu179 O214 2.432 . S
Eu179 O218 2.558 . S
Eu179 O219 2.612 . S
Eu179 O221 2.339 . S
Eu179 O222 2.563 . S
Eu179 O223 2.419 . S
Eu179 C243 2.848 . S
N180 C172 1.362 . S
N180 Eu179 2.657 . S
N180 C181 1.334 . S
C181 N180 1.334 . S
C181 C183 1.413 . S
C181 H188 0.929 . S
C182 C170 1.392 . S
C182 C183 1.367 . S
C182 H190 0.930 1_554 S
C183 C181 1.413 . S
C183 C182 1.367 . S
C183 H185 0.930 . S
H184 C177 0.930 . S
H185 C183 0.930 . S
H186 C174 0.930 1_556 S
H187 C175 0.930 . S
H188 C181 0.929 . S
H189 C203 0.930 . S
H190 C182 0.930 1_556 S
H191 C209 0.930 . S
H192 C200 0.929 . S
H193 C207 0.930 . S
H194 C171 0.931 . S
H195 C201 0.930 . S
H196 C234 0.930 . S
H197 C178 0.930 . S
H198 C233 0.931 . S
N199 Eu168 2.657 . S
N199 C200 1.334 . S
N199 C204 1.362 . S
C200 H192 0.929 . S
C200 N199 1.334 . S
C200 C203 1.413 . S
C201 H195 0.930 . S
C201 C202 1.392 . S
C201 C203 1.367 . S
C202 C201 1.392 . S
C202 C204 1.420 . S
C202 C234 1.423 . S
C203 H189 0.930 . S
C203 C200 1.413 . S
C203 C201 1.367 . S
C204 N199 1.362 . S
C204 C202 1.420 . S
C204 C208 1.429 . S
H205 C210 0.930 . S
N206 Eu168 2.609 . S
N206 C208 1.377 . S
N206 C209 1.321 . S
C207 H193 0.930 . S
C207 C209 1.400 . S
C207 C210 1.386 . S
C208 C204 1.429 . S
C208 N206 1.377 . S
C208 C211 1.411 . S
C209 H191 0.930 . S
C209 N206 1.321 . S
C209 C207 1.400 . S
C210 H205 0.930 . S
C210 C207 1.386 . S
C210 C211 1.395 . S
C211 C208 1.411 . S
C211 C210 1.395 . S
C211 C233 1.420 . S
O212 Eu168 2.558 . S
O212 C232 1.257 . S
O213 Eu168 2.612 . S
O213 Eu179 2.380 . S
O213 C224 1.276 . S
O214 Eu179 2.432 . S
O214 C231 1.264 . S
O215 Eu168 2.339 . S
O215 C231 1.254 . S
O216 Eu168 2.563 . S
O216 C224 1.235 . S
O217 Eu168 2.419 . S
O217 C232 1.249 . S
O218 Eu179 2.558 . S
O218 C243 1.257 . S
O219 Eu168 2.380 . S
O219 Eu179 2.612 . S
O219 C235 1.276 . S
O220 Eu168 2.432 . S
O220 C242 1.264 . S
O221 Eu179 2.339 . S
O221 C242 1.254 . S
O222 Eu179 2.563 . S
O222 C235 1.235 . S
O223 Eu179 2.419 . S
O223 C243 1.249 . S
C224 O213 1.276 . S
C224 O216 1.235 . S
C225 C227 1.393 . S
C225 C229 1.395 . S
C225 C232 1.492 . S
C226 C227 1.392 . S
C226 C228 1.386 . S
C227 C225 1.393 . S
C227 C226 1.392 . S
C227 H244 0.930 . S
C228 C226 1.386 . S
C228 C230 1.395 . S
C228 H245 0.930 . S
C229 C225 1.395 . S
C229 C230 1.379 . S
C229 H246 0.930 . S
C230 C228 1.395 . S
C230 C229 1.379 . S
C230 H247 0.930 . S
C231 O214 1.264 . S
C231 O215 1.254 . S
C232 Eu168 2.848 . S
C232 O212 1.257 . S
C232 O217 1.249 . S
C232 C225 1.492 . S
C233 H198 0.931 . S
C233 C211 1.420 . S
C233 C234 1.351 . S
C234 H196 0.930 . S
C234 C202 1.423 . S
C234 C233 1.351 . S
C235 O219 1.276 . S
C235 O222 1.235 . S
C236 C237 1.393 . S
C236 C240 1.395 . S
C236 C243 1.492 . S
C237 C236 1.393 . S
C237 C238 1.392 . S
C237 H248 0.930 . S
C238 C237 1.392 . S
C238 C239 1.386 . S
C239 C238 1.386 . S
C239 C241 1.395 . S
C239 H249 0.930 . S
C240 C236 1.395 . S
C240 C241 1.379 . S
C240 H250 0.930 . S
C241 C239 1.395 . S
C241 C240 1.379 . S
C241 H251 0.930 . S
C242 O220 1.264 . S
C242 O221 1.254 . S
C243 Eu179 2.848 . S
C243 O218 1.257 . S
C243 O223 1.249 . S
C243 C236 1.492 . S
H244 C227 0.930 . S
H245 C228 0.930 . S
H246 C229 0.930 . S
H247 C230 0.930 . S
H248 C237 0.930 . S
H249 C239 0.930 . S
H250 C240 0.930 . S
H251 C241 0.930 . S
Eu252 N283 2.657 . S
Eu252 N290 2.609 . S
Eu252 O296 2.558 . S
Eu252 O297 2.612 . S
Eu252 O299 2.339 . S
Eu252 O300 2.563 . S
Eu252 O301 2.419 . S
Eu252 O303 2.380 . S
Eu252 O304 2.432 . S
Eu252 C316 2.848 . S
C253 C256 1.429 . S
C253 C257 1.411 . S
C253 N260 1.377 . S
C254 C256 1.420 . S
C254 C258 1.423 . S
C254 C266 1.392 . S
C255 C257 1.420 . S
C255 C258 1.351 . S
C255 H278 0.931 1_554 S
C256 C253 1.429 . S
C256 C254 1.420 . S
C256 N264 1.362 . S
C257 C253 1.411 . S
C257 C255 1.420 . S
C257 C262 1.395 . S
C258 C254 1.423 . S
C258 C255 1.351 . S
C258 H270 0.930 . S
C259 C261 1.400 . S
C259 C262 1.386 . S
C259 H271 0.930 . S
N260 C253 1.377 . S
N260 C261 1.321 . S
N260 Eu263 2.609 . S
C261 C259 1.400 . S
C261 N260 1.321 . S
C261 H268 0.930 . S
C262 C257 1.395 . S
C262 C259 1.386 . S
C262 H281 0.941 . S
Eu263 N260 2.609 . S
Eu263 N264 2.657 . S
Eu263 O297 2.380 . S
Eu263 O298 2.432 . S
Eu263 O302 2.558 . S
Eu263 O303 2.612 . S
Eu263 O305 2.339 . S
Eu263 O306 2.563 . S
Eu263 O307 2.419 . S
Eu263 C327 2.848 . S
N264 C256 1.362 . S
N264 Eu263 2.657 . S
N264 C265 1.334 . S
C265 N264 1.334 . S
C265 C267 1.413 . S
C265 H272 0.929 . S
C266 C254 1.392 . S
C266 C267 1.367 . S
C266 H274 0.930 . S
C267 C265 1.413 . S
C267 C266 1.367 . S
C267 H269 0.930 . S
H268 C261 0.930 . S
H269 C267 0.930 . S
H270 C258 0.930 . S
H271 C259 0.930 . S
H272 C265 0.929 . S
H273 C287 0.930 . S
H274 C266 0.930 . S
H275 C293 0.930 . S
H276 C284 0.929 . S
H277 C291 0.930 . S
H278 C255 0.931 1_556 S
H279 C285 0.930 . S
H280 C318 0.930 . S
H281 C262 0.941 . S
H282 C317 0.931 . S
N283 Eu252 2.657 . S
N283 C284 1.334 . S
N283 C288 1.362 . S
C284 H276 0.929 . S
C284 N283 1.334 . S
C284 C287 1.413 . S
C285 H279 0.930 . S
C285 C286 1.392 . S
C285 C287 1.367 . S
C286 C285 1.392 . S
C286 C288 1.420 . S
C286 C318 1.423 . S
C287 H273 0.930 . S
C287 C284 1.413 . S
C287 C285 1.367 . S
C288 N283 1.362 . S
C288 C286 1.420 . S
C288 C292 1.429 . S
H289 C294 0.930 . S
N290 Eu252 2.609 . S
N290 C292 1.377 . S
N290 C293 1.321 . S
C291 H277 0.930 . S
C291 C293 1.400 . S
C291 C294 1.386 . S
C292 C288 1.429 . S
C292 N290 1.377 . S
C292 C295 1.411 . S
C293 H275 0.930 . S
C293 N290 1.321 . S
C293 C291 1.400 . S
C294 H289 0.930 . S
C294 C291 1.386 . S
C294 C295 1.395 . S
C295 C292 1.411 . S
C295 C294 1.395 . S
C295 C317 1.420 . S
O296 Eu252 2.558 . S
O296 C316 1.257 . S
O297 Eu252 2.612 . S
O297 Eu263 2.380 . S
O297 C308 1.276 . S
O298 Eu263 2.432 . S
O298 C315 1.264 . S
O299 Eu252 2.339 . S
O299 C315 1.254 . S
O300 Eu252 2.563 . S
O300 C308 1.235 . S
O301 Eu252 2.419 . S
O301 C316 1.249 . S
O302 Eu263 2.558 . S
O302 C327 1.257 . S
O303 Eu252 2.380 . S
O303 Eu263 2.612 . S
O303 C319 1.276 . S
O304 Eu252 2.432 . S
O304 C326 1.264 . S
O305 Eu263 2.339 . S
O305 C326 1.254 . S
O306 Eu263 2.563 . S
O306 C319 1.235 . S
O307 Eu263 2.419 . S
O307 C327 1.249 . S
C308 O297 1.276 . S
C308 O300 1.235 . S
C309 C311 1.393 . S
C309 C313 1.395 . S
C309 C316 1.492 . S
C310 C311 1.392 . S
C310 C312 1.386 . S
C311 C309 1.393 . S
C311 C310 1.392 . S
C311 H328 0.930 . S
C312 C310 1.386 . S
C312 C314 1.395 . S
C312 H329 0.930 . S
C313 C309 1.395 . S
C313 C314 1.379 . S
C313 H330 0.930 . S
C314 C312 1.395 . S
C314 C313 1.379 . S
C314 H331 0.930 . S
C315 O298 1.264 . S
C315 O299 1.254 . S
C316 Eu252 2.848 . S
C316 O296 1.257 . S
C316 O301 1.249 . S
C316 C309 1.492 . S
C317 H282 0.931 . S
C317 C295 1.420 . S
C317 C318 1.351 . S
C318 H280 0.930 . S
C318 C286 1.423 . S
C318 C317 1.351 . S
C319 O303 1.276 . S
C319 O306 1.235 . S
C320 C321 1.393 . S
C320 C324 1.395 . S
C320 C327 1.492 . S
C321 C320 1.393 . S
C321 C322 1.392 . S
C321 H332 0.930 . S
C322 C321 1.392 . S
C322 C323 1.386 . S
C323 C322 1.386 . S
C323 C325 1.395 . S
C323 H333 0.930 . S
C324 C320 1.395 . S
C324 C325 1.379 . S
C324 H334 0.930 . S
C325 C323 1.395 . S
C325 C324 1.379 . S
C325 H335 0.930 . S
C326 O304 1.264 . S
C326 O305 1.254 . S
C327 Eu263 2.848 . S
C327 O302 1.257 . S
C327 O307 1.249 . S
C327 C320 1.492 . S
H328 C311 0.930 . S
H329 C312 0.930 . S
H330 C313 0.930 . S
H331 C314 0.930 . S
H332 C321 0.930 . S
H333 C323 0.930 . S
H334 C324 0.930 . S
H335 C325 0.930 . S
Eu336 N367 2.657 . S
Eu336 N374 2.609 . S
Eu336 O380 2.558 . S
Eu336 O381 2.612 . S
Eu336 O383 2.339 . S
Eu336 O384 2.563 . S
Eu336 O385 2.419 . S
Eu336 O387 2.380 . S
Eu336 O388 2.432 . S
Eu336 C400 2.848 . S
C337 C340 1.429 . S
C337 C341 1.411 . S
C337 N344 1.377 . S
C338 C340 1.420 . S
C338 C342 1.423 . S
C338 C350 1.392 . S
C339 C341 1.420 . S
C339 C342 1.351 . S
C339 H362 0.931 . S
C340 C337 1.429 . S
C340 C338 1.420 . S
C340 N348 1.362 . S
C341 C337 1.411 . S
C341 C339 1.420 . S
C341 C346 1.395 . S
C342 C338 1.423 . S
C342 C339 1.351 . S
C342 H354 0.930 . S
C343 C345 1.400 . S
C343 C346 1.386 . S
C343 H355 0.930 . S
N344 C337 1.377 . S
N344 C345 1.321 . S
N344 Eu347 2.609 . S
C345 C343 1.400 . S
C345 N344 1.321 . S
C345 H352 0.930 . S
C346 C341 1.395 . S
C346 C343 1.386 . S
C346 H365 0.930 . S
Eu347 N344 2.609 . S
Eu347 N348 2.657 . S
Eu347 O381 2.380 . S
Eu347 O382 2.432 . S
Eu347 O386 2.558 . S
Eu347 O387 2.612 . S
Eu347 O389 2.339 . S
Eu347 O390 2.563 . S
Eu347 O391 2.419 . S
Eu347 C411 2.848 . S
N348 C340 1.362 . S
N348 Eu347 2.657 . S
N348 C349 1.334 . S
C349 N348 1.334 . S
C349 C351 1.413 . S
C349 H356 0.929 . S
C350 C338 1.392 . S
C350 C351 1.367 . S
C350 H358 0.930 . S
C351 C349 1.413 . S
C351 C350 1.367 . S
C351 H353 0.930 . S
H352 C345 0.930 . S
H353 C351 0.930 . S
H354 C342 0.930 . S
H355 C343 0.930 . S
H356 C349 0.929 . S
H357 C371 0.930 . S
H358 C350 0.930 . S
H359 C377 0.930 . S
H360 C368 0.929 . S
H361 C375 0.930 . S
H362 C339 0.931 . S
H363 C369 0.930 . S
H364 C402 0.930 . S
H365 C346 0.930 . S
H366 C401 0.931 . S
N367 Eu336 2.657 . S
N367 C368 1.334 . S
N367 C372 1.362 . S
C368 H360 0.929 . S
C368 N367 1.334 . S
C368 C371 1.413 . S
C369 H363 0.930 . S
C369 C370 1.392 . S
C369 C371 1.367 . S
C370 C369 1.392 . S
C370 C372 1.420 . S
C370 C402 1.423 . S
C371 H357 0.930 . S
C371 C368 1.413 . S
C371 C369 1.367 . S
C372 N367 1.362 . S
C372 C370 1.420 . S
C372 C376 1.429 . S
H373 C378 0.930 . S
N374 Eu336 2.609 . S
N374 C376 1.377 . S
N374 C377 1.321 . S
C375 H361 0.930 . S
C375 C377 1.400 . S
C375 C378 1.386 . S
C376 C372 1.429 . S
C376 N374 1.377 . S
C376 C379 1.411 . S
C377 H359 0.930 . S
C377 N374 1.321 . S
C377 C375 1.400 . S
C378 H373 0.930 . S
C378 C375 1.386 . S
C378 C379 1.395 . S
C379 C376 1.411 . S
C379 C378 1.395 . S
C379 C401 1.420 . S
O380 Eu336 2.558 . S
O380 C400 1.257 . S
O381 Eu336 2.612 . S
O381 Eu347 2.380 . S
O381 C392 1.276 . S
O382 Eu347 2.432 . S
O382 C399 1.264 . S
O383 Eu336 2.339 . S
O383 C399 1.254 . S
O384 Eu336 2.563 . S
O384 C392 1.235 . S
O385 Eu336 2.419 . S
O385 C400 1.249 . S
O386 Eu347 2.558 . S
O386 C411 1.257 . S
O387 Eu336 2.380 . S
O387 Eu347 2.612 . S
O387 C403 1.276 . S
O388 Eu336 2.432 . S
O388 C410 1.264 . S
O389 Eu347 2.339 . S
O389 C410 1.254 . S
O390 Eu347 2.563 . S
O390 C403 1.235 . S
O391 Eu347 2.419 . S
O391 C411 1.249 . S
C392 O381 1.276 . S
C392 O384 1.235 . S
C393 C395 1.393 . S
C393 C397 1.395 . S
C393 C400 1.492 . S
C394 C395 1.392 . S
C394 C396 1.386 . S
C395 C393 1.393 . S
C395 C394 1.392 . S
C395 H412 0.930 . S
C396 C394 1.386 . S
C396 C398 1.395 . S
C396 H413 0.930 . S
C397 C393 1.395 . S
C397 C398 1.379 . S
C397 H414 0.930 . S
C398 C396 1.395 . S
C398 C397 1.379 . S
C398 H415 0.930 . S
C399 O382 1.264 . S
C399 O383 1.254 . S
C400 Eu336 2.848 . S
C400 O380 1.257 . S
C400 O385 1.249 . S
C400 C393 1.492 . S
C401 H366 0.931 . S
C401 C379 1.420 . S
C401 C402 1.351 . S
C402 H364 0.930 . S
C402 C370 1.423 . S
C402 C401 1.351 . S
C403 O387 1.276 . S
C403 O390 1.235 . S
C404 C405 1.393 . S
C404 C408 1.395 . S
C404 C411 1.492 . S
C405 C404 1.393 . S
C405 C406 1.392 . S
C405 H416 0.930 . S
C406 C405 1.392 . S
C406 C407 1.386 . S
C407 C406 1.386 . S
C407 C409 1.395 . S
C407 H417 0.930 . S
C408 C404 1.395 . S
C408 C409 1.379 . S
C408 H418 0.930 . S
C409 C407 1.395 . S
C409 C408 1.379 . S
C409 H419 0.930 . S
C410 O388 1.264 . S
C410 O389 1.254 . S
C411 Eu347 2.848 . S
C411 O386 1.257 . S
C411 O391 1.249 . S
C411 C404 1.492 . S
H412 C395 0.930 . S
H413 C396 0.930 . S
H414 C397 0.930 . S
H415 C398 0.930 . S
H416 C405 0.930 . S
H417 C407 0.930 . S
H418 C408 0.930 . S
H419 C409 0.930 . S
Eu420 N451 2.657 . S
Eu420 N458 2.609 . S
Eu420 O464 2.558 . S
Eu420 O465 2.612 . S
Eu420 O467 2.339 . S
Eu420 O468 2.563 . S
Eu420 O469 2.419 . S
Eu420 O471 2.380 . S
Eu420 O472 2.432 . S
Eu420 C484 2.848 . S
C421 C424 1.429 . S
C421 C425 1.411 . S
C421 N428 1.377 . S
C422 C424 1.420 . S
C422 C426 1.423 . S
C422 C434 1.392 . S
C423 C425 1.420 . S
C423 C426 1.351 . S
C423 H446 0.931 . S
C424 C421 1.429 . S
C424 C422 1.420 . S
C424 N432 1.362 . S
C425 C421 1.411 . S
C425 C423 1.420 . S
C425 C430 1.395 . S
C426 C422 1.423 . S
C426 C423 1.351 . S
C426 H438 0.930 . S
C427 C429 1.400 . S
C427 C430 1.386 . S
C427 H439 0.930 . S
N428 C421 1.377 . S
N428 C429 1.321 . S
N428 Eu431 2.609 . S
C429 C427 1.400 . S
C429 N428 1.321 . S
C429 H436 0.930 . S
C430 C425 1.395 . S
C430 C427 1.386 . S
C430 H449 0.930 . S
Eu431 N428 2.609 . S
Eu431 N432 2.657 . S
Eu431 O465 2.380 . S
Eu431 O466 2.432 . S
Eu431 O470 2.558 . S
Eu431 O471 2.612 . S
Eu431 O473 2.339 . S
Eu431 O474 2.563 . S
Eu431 O475 2.419 . S
Eu431 C495 2.848 . S
N432 C424 1.362 . S
N432 Eu431 2.657 . S
N432 C433 1.334 . S
C433 N432 1.334 . S
C433 C435 1.413 . S
C433 H440 0.929 . S
C434 C422 1.392 . S
C434 C435 1.367 . S
C434 H442 0.930 . S
C435 C433 1.413 . S
C435 C434 1.367 . S
C435 H437 0.930 . S
H436 C429 0.930 . S
H437 C435 0.930 . S
H438 C426 0.930 . S
H439 C427 0.930 . S
H440 C433 0.929 . S
H441 C455 0.930 . S
H442 C434 0.930 . S
H443 C461 0.930 . S
H444 C452 0.929 . S
H445 C459 0.930 . S
H446 C423 0.931 . S
H447 C453 0.930 1_554 S
H448 C486 0.930 1_554 S
H449 C430 0.930 . S
H450 C485 0.931 . S
N451 Eu420 2.657 . S
N451 C452 1.334 . S
N451 C456 1.362 . S
C452 H444 0.929 . S
C452 N451 1.334 . S
C452 C455 1.413 . S
C453 H447 0.930 1_556 S
C453 C454 1.392 . S
C453 C455 1.367 . S
C454 C453 1.392 . S
C454 C456 1.420 . S
C454 C486 1.423 . S
C455 H441 0.930 . S
C455 C452 1.413 . S
C455 C453 1.367 . S
C456 N451 1.362 . S
C456 C454 1.420 . S
C456 C460 1.429 . S
H457 C462 0.930 . S
N458 Eu420 2.609 . S
N458 C460 1.377 . S
N458 C461 1.321 . S
C459 H445 0.930 . S
C459 C461 1.400 . S
C459 C462 1.386 . S
C460 C456 1.429 . S
C460 N458 1.377 . S
C460 C463 1.411 . S
C461 H443 0.930 . S
C461 N458 1.321 . S
C461 C459 1.400 . S
C462 H457 0.930 . S
C462 C459 1.386 . S
C462 C463 1.395 . S
C463 C460 1.411 . S
C463 C462 1.395 . S
C463 C485 1.420 . S
O464 Eu420 2.558 . S
O464 C484 1.257 . S
O465 Eu420 2.612 . S
O465 Eu431 2.380 . S
O465 C476 1.276 . S
O466 Eu431 2.432 . S
O466 C483 1.264 . S
O467 Eu420 2.339 . S
O467 C483 1.254 . S
O468 Eu420 2.563 . S
O468 C476 1.235 . S
O469 Eu420 2.419 . S
O469 C484 1.249 . S
O470 Eu431 2.558 . S
O470 C495 1.257 . S
O471 Eu420 2.380 . S
O471 Eu431 2.612 . S
O471 C487 1.276 . S
O472 Eu420 2.432 . S
O472 C494 1.264 . S
O473 Eu431 2.339 . S
O473 C494 1.254 . S
O474 Eu431 2.563 . S
O474 C487 1.235 . S
O475 Eu431 2.419 . S
O475 C495 1.249 . S
C476 O465 1.276 . S
C476 O468 1.235 . S
C477 C479 1.393 . S
C477 C481 1.395 . S
C477 C484 1.492 . S
C478 C479 1.392 . S
C478 C480 1.386 . S
C479 C477 1.393 . S
C479 C478 1.392 . S
C479 H496 0.930 . S
C480 C478 1.386 . S
C480 C482 1.395 . S
C480 H497 0.930 . S
C481 C477 1.395 . S
C481 C482 1.379 . S
C481 H498 0.930 . S
C482 C480 1.395 . S
C482 C481 1.379 . S
C482 H499 0.930 . S
C483 O466 1.264 . S
C483 O467 1.254 . S
C484 Eu420 2.848 . S
C484 O464 1.257 . S
C484 O469 1.249 . S
C484 C477 1.492 . S
C485 H450 0.931 . S
C485 C463 1.420 . S
C485 C486 1.351 . S
C486 H448 0.930 1_556 S
C486 C454 1.423 . S
C486 C485 1.351 . S
C487 O471 1.276 . S
C487 O474 1.235 . S
C488 C489 1.393 . S
C488 C492 1.395 . S
C488 C495 1.492 . S
C489 C488 1.393 . S
C489 C490 1.392 . S
C489 H500 0.930 . S
C490 C489 1.392 . S
C490 C491 1.386 . S
C491 C490 1.386 . S
C491 C493 1.395 . S
C491 H501 0.930 . S
C492 C488 1.395 . S
C492 C493 1.379 . S
C492 H502 0.930 . S
C493 C491 1.395 . S
C493 C492 1.379 . S
C493 H503 0.930 . S
C494 O472 1.264 . S
C494 O473 1.254 . S
C495 Eu431 2.848 . S
C495 O470 1.257 . S
C495 O475 1.249 . S
C495 C488 1.492 . S
H496 C479 0.930 . S
H497 C480 0.930 . S
H498 C481 0.930 . S
H499 C482 0.930 . S
H500 C489 0.930 . S
H501 C491 0.930 . S
H502 C492 0.930 . S
H503 C493 0.930 . S
Eu504 N535 2.657 . S
Eu504 N542 2.609 . S
Eu504 O548 2.558 . S
Eu504 O549 2.612 . S
Eu504 O551 2.339 . S
Eu504 O552 2.563 . S
Eu504 O553 2.419 . S
Eu504 O555 2.380 . S
Eu504 O556 2.432 . S
Eu504 C568 2.848 . S
C505 C508 1.429 . S
C505 C509 1.411 . S
C505 N512 1.377 . S
C506 C508 1.420 . S
C506 C510 1.423 . S
C506 C518 1.392 . S
C507 C509 1.420 . S
C507 C510 1.351 . S
C507 H530 0.931 . S
C508 C505 1.429 . S
C508 C506 1.420 . S
C508 N516 1.362 . S
C509 C505 1.411 . S
C509 C507 1.420 . S
C509 C514 1.395 . S
C510 C506 1.423 . S
C510 C507 1.351 . S
C510 H522 0.930 . S
C511 C513 1.400 . S
C511 C514 1.386 . S
C511 H523 0.930 . S
N512 C505 1.377 . S
N512 C513 1.321 . S
N512 Eu515 2.609 . S
C513 C511 1.400 . S
C513 N512 1.321 . S
C513 H520 0.930 . S
C514 C509 1.395 . S
C514 C511 1.386 . S
C514 H533 0.930 . S
Eu515 N512 2.609 . S
Eu515 N516 2.657 . S
Eu515 O549 2.380 . S
Eu515 O550 2.432 . S
Eu515 O554 2.558 . S
Eu515 O555 2.612 . S
Eu515 O557 2.339 . S
Eu515 O558 2.563 . S
Eu515 O559 2.419 . S
Eu515 C579 2.848 . S
N516 C508 1.362 . S
N516 Eu515 2.657 . S
N516 C517 1.334 . S
C517 N516 1.334 . S
C517 C519 1.413 . S
C517 H524 0.929 . S
C518 C506 1.392 . S
C518 C519 1.367 . S
C518 H526 0.930 . S
C519 C517 1.413 . S
C519 C518 1.367 . S
C519 H521 0.930 . S
H520 C513 0.930 . S
H521 C519 0.930 . S
H522 C510 0.930 . S
H523 C511 0.930 . S
H524 C517 0.929 . S
H525 C539 0.930 . S
H526 C518 0.930 . S
H527 C545 0.930 . S
H528 C536 0.929 . S
H529 C543 0.930 . S
H530 C507 0.931 . S
H531 C537 0.930 . S
H532 C570 0.930 . S
H533 C514 0.930 . S
H534 C569 0.931 1_554 S
N535 Eu504 2.657 . S
N535 C536 1.334 . S
N535 C540 1.362 . S
C536 H528 0.929 . S
C536 N535 1.334 . S
C536 C539 1.413 . S
C537 H531 0.930 . S
C537 C538 1.392 . S
C537 C539 1.367 . S
C538 C537 1.392 . S
C538 C540 1.420 . S
C538 C570 1.423 . S
C539 H525 0.930 . S
C539 C536 1.413 . S
C539 C537 1.367 . S
C540 N535 1.362 . S
C540 C538 1.420 . S
C540 C544 1.429 . S
H541 C546 0.935 . S
N542 Eu504 2.609 . S
N542 C544 1.377 . S
N542 C545 1.321 . S
C543 H529 0.930 . S
C543 C545 1.400 . S
C543 C546 1.386 . S
C544 C540 1.429 . S
C544 N542 1.377 . S
C544 C547 1.411 . S
C545 H527 0.930 . S
C545 N542 1.321 . S
C545 C543 1.400 . S
C546 H541 0.935 . S
C546 C543 1.386 . S
C546 C547 1.395 . S
C547 C544 1.411 . S
C547 C546 1.395 . S
C547 C569 1.420 . S
O548 Eu504 2.558 . S
O548 C568 1.257 . S
O549 Eu504 2.612 . S
O549 Eu515 2.380 . S
O549 C560 1.276 . S
O550 Eu515 2.432 . S
O550 C567 1.264 . S
O551 Eu504 2.339 . S
O551 C567 1.254 . S
O552 Eu504 2.563 . S
O552 C560 1.235 . S
O553 Eu504 2.419 . S
O553 C568 1.249 . S
O554 Eu515 2.558 . S
O554 C579 1.257 . S
O555 Eu504 2.380 . S
O555 Eu515 2.612 . S
O555 C571 1.276 . S
O556 Eu504 2.432 . S
O556 C578 1.264 . S
O557 Eu515 2.339 . S
O557 C578 1.254 . S
O558 Eu515 2.563 . S
O558 C571 1.235 . S
O559 Eu515 2.419 . S
O559 C579 1.249 . S
C560 O549 1.276 . S
C560 O552 1.235 . S
C561 C563 1.393 . S
C561 C565 1.395 . S
C561 C568 1.492 . S
C562 C563 1.392 . S
C562 C564 1.386 . S
C563 C561 1.393 . S
C563 C562 1.392 . S
C563 H580 0.930 . S
C564 C562 1.386 . S
C564 C566 1.395 . S
C564 H581 0.930 . S
C565 C561 1.395 . S
C565 C566 1.379 . S
C565 H582 0.930 . S
C566 C564 1.395 . S
C566 C565 1.379 . S
C566 H583 0.930 . S
C567 O550 1.264 . S
C567 O551 1.254 . S
C568 Eu504 2.848 . S
C568 O548 1.257 . S
C568 O553 1.249 . S
C568 C561 1.492 . S
C569 H534 0.931 1_556 S
C569 C547 1.420 . S
C569 C570 1.351 . S
C570 H532 0.930 . S
C570 C538 1.423 . S
C570 C569 1.351 . S
C571 O555 1.276 . S
C571 O558 1.235 . S
C572 C573 1.393 . S
C572 C576 1.395 . S
C572 C579 1.492 . S
C573 C572 1.393 . S
C573 C574 1.392 . S
C573 H584 0.930 . S
C574 C573 1.392 . S
C574 C575 1.386 . S
C575 C574 1.386 . S
C575 C577 1.395 . S
C575 H585 0.930 . S
C576 C572 1.395 . S
C576 C577 1.379 . S
C576 H586 0.930 . S
C577 C575 1.395 . S
C577 C576 1.379 . S
C577 H587 0.930 . S
C578 O556 1.264 . S
C578 O557 1.254 . S
C579 Eu515 2.848 . S
C579 O554 1.257 . S
C579 O559 1.249 . S
C579 C572 1.492 . S
H580 C563 0.930 . S
H581 C564 0.930 . S
H582 C565 0.930 . S
H583 C566 0.930 . S
H584 C573 0.930 . S
H585 C575 0.930 . S
H586 C576 0.930 . S
H587 C577 0.930 . S
Eu588 N619 2.657 . S
Eu588 N626 2.609 . S
Eu588 O632 2.558 . S
Eu588 O633 2.612 . S
Eu588 O635 2.339 . S
Eu588 O636 2.563 . S
Eu588 O637 2.419 . S
Eu588 O639 2.380 . S
Eu588 O640 2.432 . S
Eu588 C652 2.848 . S
C589 C592 1.429 . S
C589 C593 1.411 . S
C589 N596 1.377 . S
C590 C592 1.420 . S
C590 C594 1.423 . S
C590 C602 1.392 . S
C591 C593 1.420 . S
C591 C594 1.351 . S
C591 H614 0.931 . S
C592 C589 1.429 . S
C592 C590 1.420 . S
C592 N600 1.362 . S
C593 C589 1.411 . S
C593 C591 1.420 . S
C593 C598 1.395 . S
C594 C590 1.423 . S
C594 C591 1.351 . S
C594 H606 0.930 1_556 S
C595 C597 1.400 . S
C595 C598 1.386 . S
C595 H607 0.930 . S
N596 C589 1.377 . S
N596 C597 1.321 . S
N596 Eu599 2.609 . S
C597 C595 1.400 . S
C597 N596 1.321 . S
C597 H604 0.930 . S
C598 C593 1.395 . S
C598 C595 1.386 . S
C598 H617 0.930 . S
Eu599 N596 2.609 . S
Eu599 N600 2.657 . S
Eu599 O633 2.380 . S
Eu599 O634 2.432 . S
Eu599 O638 2.558 . S
Eu599 O639 2.612 . S
Eu599 O641 2.339 . S
Eu599 O642 2.563 . S
Eu599 O643 2.419 . S
Eu599 C663 2.848 . S
N600 C592 1.362 . S
N600 Eu599 2.657 . S
N600 C601 1.334 . S
C601 N600 1.334 . S
C601 C603 1.413 . S
C601 H608 0.929 . S
C602 C590 1.392 . S
C602 C603 1.367 . S
C602 H610 0.930 1_556 S
C603 C601 1.413 . S
C603 C602 1.367 . S
C603 H605 0.930 . S
H604 C597 0.930 . S
H605 C603 0.930 . S
H606 C594 0.930 1_554 S
H607 C595 0.930 . S
H608 C601 0.929 . S
H609 C623 0.930 . S
H610 C602 0.930 1_554 S
H611 C629 0.930 . S
H612 C620 0.929 . S
H613 C627 0.930 . S
H614 C591 0.931 . S
H615 C621 0.930 . S
H616 C654 0.930 . S
H617 C598 0.930 . S
H618 C653 0.931 . S
N619 Eu588 2.657 . S
N619 C620 1.334 . S
N619 C624 1.362 . S
C620 H612 0.929 . S
C620 N619 1.334 . S
C620 C623 1.413 . S
C621 H615 0.930 . S
C621 C622 1.392 . S
C621 C623 1.367 . S
C622 C621 1.392 . S
C622 C624 1.420 . S
C622 C654 1.423 . S
C623 H609 0.930 . S
C623 C620 1.413 . S
C623 C621 1.367 . S
C624 N619 1.362 . S
C624 C622 1.420 . S
C624 C628 1.429 . S
H625 C630 0.930 . S
N626 Eu588 2.609 . S
N626 C628 1.377 . S
N626 C629 1.321 . S
C627 H613 0.930 . S
C627 C629 1.400 . S
C627 C630 1.386 . S
C628 C624 1.429 . S
C628 N626 1.377 . S
C628 C631 1.411 . S
C629 H611 0.930 . S
C629 N626 1.321 . S
C629 C627 1.400 . S
C630 H625 0.930 . S
C630 C627 1.386 . S
C630 C631 1.395 . S
C631 C628 1.411 . S
C631 C630 1.395 . S
C631 C653 1.420 . S
O632 Eu588 2.558 . S
O632 C652 1.257 . S
O633 Eu588 2.612 . S
O633 Eu599 2.380 . S
O633 C644 1.276 . S
O634 Eu599 2.432 . S
O634 C651 1.264 . S
O635 Eu588 2.339 . S
O635 C651 1.254 . S
O636 Eu588 2.563 . S
O636 C644 1.235 . S
O637 Eu588 2.419 . S
O637 C652 1.249 . S
O638 Eu599 2.558 . S
O638 C663 1.257 . S
O639 Eu588 2.380 . S
O639 Eu599 2.612 . S
O639 C655 1.276 . S
O640 Eu588 2.432 . S
O640 C662 1.264 . S
O641 Eu599 2.339 . S
O641 C662 1.254 . S
O642 Eu599 2.563 . S
O642 C655 1.235 . S
O643 Eu599 2.419 . S
O643 C663 1.249 . S
C644 O633 1.276 . S
C644 O636 1.235 . S
C645 C647 1.393 . S
C645 C649 1.395 . S
C645 C652 1.492 . S
C646 C647 1.392 . S
C646 C648 1.386 . S
C647 C645 1.393 . S
C647 C646 1.392 . S
C647 H664 0.930 . S
C648 C646 1.386 . S
C648 C650 1.395 . S
C648 H665 0.930 . S
C649 C645 1.395 . S
C649 C650 1.379 . S
C649 H666 0.930 . S
C650 C648 1.395 . S
C650 C649 1.379 . S
C650 H667 0.930 . S
C651 O634 1.264 . S
C651 O635 1.254 . S
C652 Eu588 2.848 . S
C652 O632 1.257 . S
C652 O637 1.249 . S
C652 C645 1.492 . S
C653 H618 0.931 . S
C653 C631 1.420 . S
C653 C654 1.351 . S
C654 H616 0.930 . S
C654 C622 1.423 . S
C654 C653 1.351 . S
C655 O639 1.276 . S
C655 O642 1.235 . S
C656 C657 1.393 . S
C656 C660 1.395 . S
C656 C663 1.492 . S
C657 C656 1.393 . S
C657 C658 1.392 . S
C657 H668 0.930 . S
C658 C657 1.392 . S
C658 C659 1.386 . S
C659 C658 1.386 . S
C659 C661 1.395 . S
C659 H669 0.930 . S
C660 C656 1.395 . S
C660 C661 1.379 . S
C660 H670 0.930 . S
C661 C659 1.395 . S
C661 C660 1.379 . S
C661 H671 0.930 . S
C662 O640 1.264 . S
C662 O641 1.254 . S
C663 Eu599 2.848 . S
C663 O638 1.257 . S
C663 O643 1.249 . S
C663 C656 1.492 . S
H664 C647 0.930 . S
H665 C648 0.930 . S
H666 C649 0.930 . S
H667 C650 0.930 . S
H668 C657 0.930 . S
H669 C659 0.930 . S
H670 C660 0.930 . S
H671 C661 0.930 . S
Co672 O675 2.042 . S
Co672 O682 2.264 . S
Co672 O701 2.286 . S
Co672 O702 2.069 . S
Co672 O704 2.015 1_455 S
Co673 O675 2.122 . S
Co673 O681 2.073 . S
Co673 O682 2.327 . S
Co673 O683 1.976 1_455 S
Co674 O675 2.077 1_545 S
Co674 O677 2.097 1_455 S
Co674 O684 2.109 1_445 S
Co674 O685 2.149 . S
Co674 O689 2.113 . S
Co674 O703 2.138 1_445 S
O675 Co672 2.042 . S
O675 Co673 2.122 . S
O675 Co674 2.077 1_565 S
O675 H676 0.980 . S
H676 O675 0.980 . S
O677 Co674 2.097 1_655 S
O677 Co678 2.042 . S
O677 Co679 2.122 . S
O677 H680 0.980 . S
Co678 O677 2.042 . S
Co678 O686 2.286 . S
Co678 O687 2.069 . S
Co678 O688 2.015 1_655 S
Co678 O691 2.264 . S
Co679 O677 2.122 . S
Co679 O690 1.976 1_655 S
Co679 O691 2.327 . S
Co679 O692 2.073 . S
H680 O677 0.980 . S
O681 Co673 2.073 . S
O681 C696 1.245 . S
O682 Co672 2.264 . S
O682 Co673 2.327 . S
O682 C696 1.257 . S
O683 Co673 1.976 1_655 S
O683 C695 1.251 . S
O684 Co674 2.109 1_665 S
O684 C695 1.274 . S
O685 Co674 2.149 . S
O685 C698 1.246 . S
O686 Co678 2.286 . S
O686 C697 1.259 . S
O687 Co678 2.069 . S
O687 C697 1.289 . S
O688 Co678 2.015 1_455 S
O688 C698 1.257 . S
O689 Co674 2.113 . S
O689 C699 1.274 . S
O690 Co679 1.976 1_455 S
O690 C699 1.251 . S
O691 Co678 2.264 . S
O691 Co679 2.327 . S
O691 C700 1.257 . S
O692 Co679 2.073 . S
O692 C700 1.245 . S
C693 O701 1.259 . S
C693 O702 1.289 . S
C694 O703 1.246 . S
C694 O704 1.257 . S
C695 O683 1.251 . S
C695 O684 1.274 . S
C696 O681 1.245 . S
C696 O682 1.257 . S
C697 O686 1.259 . S
C697 O687 1.289 . S
C698 O685 1.246 . S
C698 O688 1.257 . S
C699 O689 1.274 . S
C699 O690 1.251 . S
C700 O691 1.257 . S
C700 O692 1.245 . S
O701 Co672 2.286 . S
O701 C693 1.259 . S
O702 Co672 2.069 . S
O702 C693 1.289 . S
O703 Co674 2.138 1_665 S
O703 C694 1.246 . S
O704 Co672 2.015 1_655 S
O704 C694 1.257 . S
Co705 O708 2.042 1_556 S
Co705 O715 2.264 1_556 S
Co705 O734 2.286 . S
Co705 O735 2.069 . S
Co705 O737 2.015 . S
Co706 O708 2.122 . S
Co706 O714 2.073 . S
Co706 O715 2.327 . S
Co706 O716 1.976 . S
Co707 O708 2.077 1_545 S
Co707 O710 2.097 1_554 S
Co707 O717 2.110 1_545 S
Co707 O718 2.150 . S
Co707 O722 2.112 1_554 S
Co707 O736 2.137 1_544 S
O708 Co705 2.042 1_554 S
O708 Co706 2.122 . S
O708 Co707 2.077 1_565 S
O708 H709 0.980 . S
H709 O708 0.980 . S
O710 Co707 2.097 1_556 S
O710 Co711 2.042 1_556 S
O710 Co712 2.122 . S
O710 H713 0.980 . S
Co711 O710 2.042 1_554 S
Co711 O719 2.286 . S
Co711 O720 2.069 . S
Co711 O721 2.015 . S
Co711 O724 2.264 1_554 S
Co712 O710 2.122 . S
Co712 O723 1.976 . S
Co712 O724 2.327 . S
Co712 O725 2.073 . S
H713 O710 0.980 . S
O714 Co706 2.073 . S
O714 C729 1.245 . S
O715 Co705 2.264 1_554 S
O715 Co706 2.327 . S
O715 C729 1.257 . S
O716 Co706 1.976 . S
O716 C728 1.251 . S
O717 Co707 2.110 1_565 S
O717 C728 1.274 . S
O718 Co707 2.150 . S
O718 C731 1.246 . S
O719 Co711 2.286 . S
O719 C730 1.259 . S
O720 Co711 2.069 . S
O720 C730 1.289 . S
O721 Co711 2.015 . S
O721 C731 1.257 . S
O722 Co707 2.112 1_556 S
O722 C732 1.274 . S
O723 Co712 1.976 . S
O723 C732 1.251 . S
O724 Co711 2.264 1_556 S
O724 Co712 2.327 . S
O724 C733 1.257 . S
O725 Co712 2.073 . S
O725 C733 1.245 . S
C726 O734 1.259 . S
C726 O735 1.289 . S
C727 O736 1.246 . S
C727 O737 1.257 . S
C728 O716 1.251 . S
C728 O717 1.274 . S
C729 O714 1.245 . S
C729 O715 1.257 . S
C730 O719 1.259 . S
C730 O720 1.289 . S
C731 O718 1.246 . S
C731 O721 1.257 . S
C732 O722 1.274 . S
C732 O723 1.251 . S
C733 O724 1.257 . S
C733 O725 1.245 . S
O734 Co705 2.286 . S
O734 C726 1.259 . S
O735 Co705 2.069 . S
O735 C726 1.289 . S
O736 Co707 2.137 1_566 S
O736 C727 1.246 . S
O737 Co705 2.015 . S
O737 C727 1.257 . S
Co738 O741 2.042 1_556 S
Co738 O748 2.264 1_556 S
Co738 O767 2.286 . S
Co738 O768 2.069 . S
Co738 O770 2.015 1_455 S
Co739 O741 2.122 . S
Co739 O747 2.073 . S
Co739 O748 2.327 . S
Co739 O749 1.976 1_455 S
Co740 O741 2.087 . S
Co740 O743 2.087 1_454 S
Co740 O750 2.112 1_455 S
Co740 O751 2.144 . S
Co740 O755 2.110 1_554 S
Co740 O769 2.143 1_454 S
O741 Co738 2.042 1_554 S
O741 Co739 2.122 . S
O741 Co740 2.087 . S
O741 H742 0.980 . S
H742 O741 0.980 . S
O743 Co740 2.087 1_656 S
O743 Co744 2.042 1_556 S
O743 Co745 2.122 . S
O743 H746 0.980 . S
Co744 O743 2.042 1_554 S
Co744 O752 2.286 . S
Co744 O753 2.069 . S
Co744 O754 2.015 1_655 S
Co744 O757 2.264 1_554 S
Co745 O743 2.122 . S
Co745 O756 1.976 1_655 S
Co745 O757 2.327 . S
Co745 O758 2.073 . S
H746 O743 0.980 . S
O747 Co739 2.073 . S
O747 C762 1.245 . S
O748 Co738 2.264 1_554 S
O748 Co739 2.327 . S
O748 C762 1.257 . S
O749 Co739 1.976 1_655 S
O749 C761 1.251 . S
O750 Co740 2.112 1_655 S
O750 C761 1.274 . S
O751 Co740 2.144 . S
O751 C764 1.246 . S
O752 Co744 2.286 . S
O752 C763 1.259 . S
O753 Co744 2.069 . S
O753 C763 1.289 . S
O754 Co744 2.015 1_455 S
O754 C764 1.257 . S
O755 Co740 2.110 1_556 S
O755 C765 1.274 . S
O756 Co745 1.976 1_455 S
O756 C765 1.251 . S
O757 Co744 2.264 1_556 S
O757 Co745 2.327 . S
O757 C766 1.257 . S
O758 Co745 2.073 . S
O758 C766 1.245 . S
C759 O767 1.259 . S
C759 O768 1.289 . S
C760 O769 1.246 . S
C760 O770 1.257 . S
C761 O749 1.251 . S
C761 O750 1.274 . S
C762 O747 1.245 . S
C762 O748 1.257 . S
C763 O752 1.259 . S
C763 O753 1.289 . S
C764 O751 1.246 . S
C764 O754 1.257 . S
C765 O755 1.274 . S
C765 O756 1.251 . S
C766 O757 1.257 . S
C766 O758 1.245 . S
O767 Co738 2.286 . S
O767 C759 1.259 . S
O768 Co738 2.069 . S
O768 C759 1.289 . S
O769 Co740 2.143 1_656 S
O769 C760 1.246 . S
O770 Co738 2.015 1_655 S
O770 C760 1.257 . S
Co771 O774 2.042 1_556 S
Co771 O781 2.264 1_556 S
Co771 O800 2.286 . S
Co771 O801 2.069 . S
Co771 O803 2.015 . S
Co772 O774 2.122 . S
Co772 O780 2.073 . S
Co772 O781 2.327 . S
Co772 O782 1.976 . S
Co773 O774 2.087 . S
Co773 O776 2.087 1_554 S
Co773 O783 2.112 . S
Co773 O784 2.144 . S
Co773 O788 2.110 1_554 S
Co773 O802 2.143 1_554 S
O774 Co771 2.042 1_554 S
O774 Co772 2.122 . S
O774 Co773 2.087 . S
O774 H775 0.980 . S
H775 O774 0.980 . S
O776 Co773 2.087 1_556 S
O776 Co777 2.042 1_556 S
O776 Co778 2.122 . S
O776 H779 0.980 . S
Co777 O776 2.042 1_554 S
Co777 O785 2.286 . S
Co777 O786 2.069 . S
Co777 O787 2.015 . S
Co777 O790 2.264 1_554 S
Co778 O776 2.122 . S
Co778 O789 1.976 . S
Co778 O790 2.327 . S
Co778 O791 2.073 . S
H779 O776 0.980 . S
O780 Co772 2.073 . S
O780 C795 1.245 . S
O781 Co771 2.264 1_554 S
O781 Co772 2.327 . S
O781 C795 1.257 . S
O782 Co772 1.976 . S
O782 C794 1.251 . S
O783 Co773 2.112 . S
O783 C794 1.274 . S
O784 Co773 2.144 . S
O784 C797 1.246 . S
O785 Co777 2.286 . S
O785 C796 1.259 . S
O786 Co777 2.069 . S
O786 C796 1.289 . S
O787 Co777 2.015 . S
O787 C797 1.257 . S
O788 Co773 2.110 1_556 S
O788 C798 1.274 . S
O789 Co778 1.976 . S
O789 C798 1.251 . S
O790 Co777 2.264 1_556 S
O790 Co778 2.327 . S
O790 C799 1.257 . S
O791 Co778 2.073 . S
O791 C799 1.245 . S
C792 O800 1.259 . S
C792 O801 1.289 . S
C793 O802 1.246 . S
C793 O803 1.257 . S
C794 O782 1.251 . S
C794 O783 1.274 . S
C795 O780 1.245 . S
C795 O781 1.257 . S
C796 O785 1.259 . S
C796 O786 1.289 . S
C797 O784 1.246 . S
C797 O787 1.257 . S
C798 O788 1.274 . S
C798 O789 1.251 . S
C799 O790 1.257 . S
C799 O791 1.245 . S
O800 Co771 2.286 . S
O800 C792 1.259 . S
O801 Co771 2.069 . S
O801 C792 1.289 . S
O802 Co773 2.143 1_556 S
O802 C793 1.246 . S
O803 Co771 2.015 . S
O803 C793 1.257 . S
Co804 O807 2.042 . S
Co804 O814 2.264 . S
Co804 O833 2.286 . S
Co804 O834 2.069 . S
Co804 O836 2.015 . S
Co805 O807 2.122 . S
Co805 O813 2.073 . S
Co805 O814 2.327 . S
Co805 O815 1.976 . S
Co806 O807 2.087 . S
Co806 O809 2.087 1_455 S
Co806 O816 2.111 . S
Co806 O817 2.143 1_455 S
Co806 O821 2.111 1_455 S
Co806 O835 2.143 . S
O807 Co804 2.042 . S
O807 Co805 2.122 . S
O807 Co806 2.087 . S
O807 H808 0.980 . S
H808 O807 0.980 . S
O809 Co806 2.087 1_655 S
O809 Co810 2.042 . S
O809 Co811 2.122 . S
O809 H812 0.980 . S
Co810 O809 2.042 . S
Co810 O818 2.286 . S
Co810 O819 2.069 . S
Co810 O820 2.015 . S
Co810 O823 2.264 . S
Co811 O809 2.122 . S
Co811 O822 1.976 . S
Co811 O823 2.327 . S
Co811 O824 2.073 . S
H812 O809 0.980 . S
O813 Co805 2.073 . S
O813 C828 1.245 . S
O814 Co804 2.264 . S
O814 Co805 2.327 . S
O814 C828 1.257 . S
O815 Co805 1.976 . S
O815 C827 1.251 . S
O816 Co806 2.111 . S
O816 C827 1.274 . S
O817 Co806 2.143 1_655 S
O817 C830 1.246 . S
O818 Co810 2.286 . S
O818 C829 1.259 . S
O819 Co810 2.069 . S
O819 C829 1.289 . S
O820 Co810 2.015 . S
O820 C830 1.257 . S
O821 Co806 2.111 1_655 S
O821 C831 1.274 . S
O822 Co811 1.976 . S
O822 C831 1.251 . S
O823 Co810 2.264 . S
O823 Co811 2.327 . S
O823 C832 1.257 . S
O824 Co811 2.073 . S
O824 C832 1.245 . S
C825 O833 1.259 . S
C825 O834 1.289 . S
C826 O835 1.246 . S
C826 O836 1.257 . S
C827 O815 1.251 . S
C827 O816 1.274 . S
C828 O813 1.245 . S
C828 O814 1.257 . S
C829 O818 1.259 . S
C829 O819 1.289 . S
C830 O817 1.246 . S
C830 O820 1.257 . S
C831 O821 1.274 . S
C831 O822 1.251 . S
C832 O823 1.257 . S
C832 O824 1.245 . S
O833 Co804 2.286 . S
O833 C825 1.259 . S
O834 Co804 2.069 . S
O834 C825 1.289 . S
O835 Co806 2.143 . S
O835 C826 1.246 . S
O836 Co804 2.015 . S
O836 C826 1.257 . S
Co837 O840 2.042 . S
Co837 O847 2.264 . S
Co837 O866 2.286 . S
Co837 O867 2.069 . S
Co837 O869 2.015 1_565 S
Co838 O840 2.122 . S
Co838 O846 2.073 . S
Co838 O847 2.327 . S
Co838 O848 1.976 1_565 S
Co839 O840 2.077 1_545 S
Co839 O842 2.097 . S
Co839 O849 2.117 . S
Co839 O850 2.140 1_545 S
Co839 O854 2.106 1_545 S
Co839 O868 2.147 . S
O840 Co837 2.042 . S
O840 Co838 2.122 . S
O840 Co839 2.077 1_565 S
O840 H841 0.980 . S
H841 O840 0.980 . S
O842 Co839 2.097 . S
O842 Co843 2.042 . S
O842 Co844 2.122 . S
O842 H845 0.980 . S
Co843 O842 2.042 . S
Co843 O851 2.286 . S
Co843 O852 2.069 . S
Co843 O853 2.015 1_545 S
Co843 O856 2.264 . S
Co844 O842 2.122 . S
Co844 O855 1.976 1_545 S
Co844 O856 2.327 . S
Co844 O857 2.073 . S
H845 O842 0.980 . S
O846 Co838 2.073 . S
O846 C861 1.245 . S
O847 Co837 2.264 . S
O847 Co838 2.327 . S
O847 C861 1.257 . S
O848 Co838 1.976 1_545 S
O848 C860 1.251 . S
O849 Co839 2.117 . S
O849 C860 1.274 . S
O850 Co839 2.140 1_565 S
O850 C863 1.246 . S
O851 Co843 2.286 . S
O851 C862 1.259 . S
O852 Co843 2.069 . S
O852 C862 1.289 . S
O853 Co843 2.015 1_565 S
O853 C863 1.257 . S
O854 Co839 2.106 1_565 S
O854 C864 1.274 . S
O855 Co844 1.976 1_565 S
O855 C864 1.251 . S
O856 Co843 2.264 . S
O856 Co844 2.327 . S
O856 C865 1.257 . S
O857 Co844 2.073 . S
O857 C865 1.245 . S
C858 O866 1.259 . S
C858 O867 1.289 . S
C859 O868 1.246 . S
C859 O869 1.257 . S
C860 O848 1.251 . S
C860 O849 1.274 . S
C861 O846 1.245 . S
C861 O847 1.257 . S
C862 O851 1.259 . S
C862 O852 1.289 . S
C863 O850 1.246 . S
C863 O853 1.257 . S
C864 O854 1.274 . S
C864 O855 1.251 . S
C865 O856 1.257 . S
C865 O857 1.245 . S
O866 Co837 2.286 . S
O866 C858 1.259 . S
O867 Co837 2.069 . S
O867 C858 1.289 . S
O868 Co839 2.147 . S
O868 C859 1.246 . S
O869 Co837 2.015 1_545 S
O869 C859 1.257 . S
C870 C871 1.369 . S
C870 C872 1.419 . S
C870 H874 0.930 . S
C871 C870 1.369 . S
C871 C880 1.429 . S
C872 C870 1.419 . S
C872 C873 1.363 . S
C872 H875 0.929 . S
C873 C872 1.363 . S
C873 C879 1.428 . S
H874 C870 0.930 . S
H875 C872 0.929 . S
S876 N877 1.613 . S
S876 N878 1.610 . S
N877 S876 1.613 . S
N877 C880 1.350 . S
N878 S876 1.610 . S
N878 C879 1.351 . S
C879 C873 1.428 . S
C879 N878 1.351 . S
C879 C880 1.434 . S
C880 C871 1.429 . S
C880 N877 1.350 . S
C880 C879 1.434 . S
C881 C882 1.369 . S
C881 C883 1.419 . S
C881 H885 0.930 . S
C882 C881 1.369 . S
C882 C891 1.429 . S
C883 C881 1.419 . S
C883 C884 1.363 . S
C883 H886 0.929 . S
C884 C883 1.363 . S
C884 C890 1.428 . S
H885 C881 0.930 . S
H886 C883 0.929 . S
S887 N888 1.613 . S
S887 N889 1.610 . S
N888 S887 1.613 . S
N888 C891 1.350 . S
N889 S887 1.610 . S
N889 C890 1.351 . S
C890 C884 1.428 . S
C890 N889 1.351 . S
C890 C891 1.434 . S
C891 C882 1.429 . S
C891 N888 1.350 . S
C891 C890 1.434 . S
C892 C893 1.369 . S
C892 C894 1.419 . S
C892 H896 0.930 . S
C893 C892 1.369 . S
C893 C902 1.429 . S
C894 C892 1.419 . S
C894 C895 1.363 . S
C894 H897 0.929 . S
C895 C894 1.363 . S
C895 C901 1.428 . S
H896 C892 0.930 . S
H897 C894 0.929 . S
S898 N899 1.613 . S
S898 N900 1.610 . S
N899 S898 1.613 . S
N899 C902 1.350 . S
N900 S898 1.610 . S
N900 C901 1.351 . S
C901 C895 1.428 . S
C901 N900 1.351 . S
C901 C902 1.434 . S
C902 C893 1.429 . S
C902 N899 1.350 . S
C902 C901 1.434 . S
C903 C904 1.369 . S
C903 C905 1.419 . S
C903 H907 0.930 . S
C904 C903 1.369 . S
C904 C913 1.429 . S
C905 C903 1.419 . S
C905 C906 1.363 . S
C905 H908 0.929 . S
C906 C905 1.363 . S
C906 C912 1.428 . S
H907 C903 0.930 . S
H908 C905 0.929 . S
S909 N910 1.613 . S
S909 N911 1.610 . S
N910 S909 1.613 . S
N910 C913 1.350 . S
N911 S909 1.610 . S
N911 C912 1.351 . S
C912 C906 1.428 . S
C912 N911 1.351 . S
C912 C913 1.434 . S
C913 C904 1.429 . S
C913 N910 1.350 . S
C913 C912 1.434 . S
C914 C915 1.369 . S
C914 C916 1.419 . S
C914 H918 0.930 . S
C915 C914 1.369 . S
C915 C924 1.429 . S
C916 C914 1.419 . S
C916 C917 1.363 . S
C916 H919 0.929 . S
C917 C916 1.363 . S
C917 C923 1.428 . S
H918 C914 0.930 . S
H919 C916 0.929 . S
S920 N921 1.613 . S
S920 N922 1.610 . S
N921 S920 1.613 . S
N921 C924 1.350 . S
N922 S920 1.610 . S
N922 C923 1.351 . S
C923 C917 1.428 . S
C923 N922 1.351 . S
C923 C924 1.434 . S
C924 C915 1.429 . S
C924 N921 1.350 . S
C924 C923 1.434 . S
C925 C926 1.369 . S
C925 C927 1.419 . S
C925 H929 0.930 . S
C926 C925 1.369 . S
C926 C935 1.429 . S
C927 C925 1.419 . S
C927 C928 1.363 . S
C927 H930 0.929 . S
C928 C927 1.363 . S
C928 C934 1.428 . S
H929 C925 0.930 . S
H930 C927 0.929 . S
S931 N932 1.613 . S
S931 N933 1.610 . S
N932 S931 1.613 . S
N932 C935 1.350 . S
N933 S931 1.610 . S
N933 C934 1.351 . S
C934 C928 1.428 . S
C934 N933 1.351 . S
C934 C935 1.434 . S
C935 C926 1.429 . S
C935 N932 1.350 . S
C935 C934 1.434 . S
C936 C937 1.369 . S
C936 C938 1.419 . S
C936 H940 0.930 . S
C937 C936 1.369 . S
C937 C946 1.429 . S
C938 C936 1.419 . S
C938 C939 1.363 . S
C938 H941 0.929 . S
C939 C938 1.363 . S
C939 C945 1.428 . S
H940 C936 0.930 . S
H941 C938 0.929 . S
S942 N943 1.613 . S
S942 N944 1.610 . S
N943 S942 1.613 . S
N943 C946 1.350 . S
N944 S942 1.610 . S
N944 C945 1.351 . S
C945 C939 1.428 . S
C945 N944 1.351 . S
C945 C946 1.434 . S
C946 C937 1.429 . S
C946 N943 1.350 . S
C946 C945 1.434 . S
C947 C948 1.369 . S
C947 C949 1.419 . S
C947 H951 0.930 . S
C948 C947 1.369 . S
C948 C957 1.429 . S
C949 C947 1.419 . S
C949 C950 1.363 . S
C949 H952 0.929 . S
C950 C949 1.363 . S
C950 C956 1.428 . S
H951 C947 0.930 . S
H952 C949 0.929 . S
S953 N954 1.613 . S
S953 N955 1.610 . S
N954 S953 1.613 . S
N954 C957 1.350 . S
N955 S953 1.610 . S
N955 C956 1.351 . S
C956 C950 1.428 . S
C956 N955 1.351 . S
C956 C957 1.434 . S
C957 C948 1.429 . S
C957 N954 1.350 . S
C957 C956 1.434 . S
C958 C959 1.369 . S
C958 C960 1.419 . S
C958 H962 0.930 . S
C959 C958 1.369 . S
C959 C968 1.429 . S
C960 C958 1.419 . S
C960 C961 1.363 . S
C960 H963 0.929 . S
C961 C960 1.363 . S
C961 C967 1.428 . S
H962 C958 0.930 . S
H963 C960 0.929 . S
S964 N965 1.613 . S
S964 N966 1.610 . S
N965 S964 1.613 . S
N965 C968 1.350 . S
N966 S964 1.610 . S
N966 C967 1.351 . S
C967 C961 1.428 . S
C967 N966 1.351 . S
C967 C968 1.434 . S
C968 C959 1.429 . S
C968 N965 1.350 . S
C968 C967 1.434 . S
C969 C970 1.369 . S
C969 C971 1.419 . S
C969 H973 0.930 . S
C970 C969 1.369 . S
C970 C979 1.429 . S
C971 C969 1.419 . S
C971 C972 1.363 . S
C971 H974 0.929 . S
C972 C971 1.363 . S
C972 C978 1.428 . S
H973 C969 0.930 . S
H974 C971 0.929 . S
S975 N976 1.613 . S
S975 N977 1.610 . S
N976 S975 1.613 . S
N976 C979 1.350 . S
N977 S975 1.610 . S
N977 C978 1.351 . S
C978 C972 1.428 . S
C978 N977 1.351 . S
C978 C979 1.434 . S
C979 C970 1.429 . S
C979 N976 1.350 . S
C979 C978 1.434 . S
C980 C981 1.369 . S
C980 C982 1.419 . S
C980 H984 0.930 . S
C981 C980 1.369 . S
C981 C990 1.429 . S
C982 C980 1.419 . S
C982 C983 1.363 . S
C982 H985 0.929 . S
C983 C982 1.363 . S
C983 C989 1.428 . S
H984 C980 0.930 . S
H985 C982 0.929 . S
S986 N987 1.613 . S
S986 N988 1.610 . S
N987 S986 1.613 . S
N987 C990 1.350 . S
N988 S986 1.610 . S
N988 C989 1.351 . S
C989 C983 1.428 . S
C989 N988 1.351 . S
C989 C990 1.434 . S
C990 C981 1.429 . S
C990 N987 1.350 . S
C990 C989 1.434 . S
C991 C992 1.369 . S
C991 C993 1.419 . S
C991 H995 0.930 . S
C992 C991 1.369 . S
C992 C1001 1.429 . S
C993 C991 1.419 . S
C993 C994 1.363 . S
C993 H996 0.929 . S
C994 C993 1.363 . S
C994 C1000 1.428 . S
H995 C991 0.930 . S
H996 C993 0.929 . S
S997 N998 1.613 . S
S997 N999 1.610 . S
N998 S997 1.613 . S
N998 C1001 1.350 . S
N999 S997 1.610 . S
N999 C1000 1.351 . S
C1000 C994 1.428 . S
C1000 N999 1.351 . S
C1000 C1001 1.434 . S
C1001 C992 1.429 . S
C1001 N998 1.350 . S
C1001 C1000 1.434 . S
C1002 C1003 1.369 . S
C1002 C1004 1.419 . S
C1002 H1006 0.930 . S
C1003 C1002 1.369 . S
C1003 C1012 1.429 . S
C1004 C1002 1.419 . S
C1004 C1005 1.363 . S
C1004 H1007 0.929 . S
C1005 C1004 1.363 . S
C1005 C1011 1.428 . S
H1006 C1002 0.930 . S
H1007 C1004 0.929 . S
S1008 N1009 1.613 . S
S1008 N1010 1.610 . S
N1009 S1008 1.613 . S
N1009 C1012 1.350 . S
N1010 S1008 1.610 . S
N1010 C1011 1.351 . S
C1011 C1005 1.428 . S
C1011 N1010 1.351 . S
C1011 C1012 1.434 . S
C1012 C1003 1.429 . S
C1012 N1009 1.350 . S
C1012 C1011 1.434 . S
C1013 C1014 1.369 . S
C1013 C1015 1.419 . S
C1013 H1017 0.930 . S
C1014 C1013 1.369 . S
C1014 C1023 1.429 . S
C1015 C1013 1.419 . S
C1015 C1016 1.363 . S
C1015 H1018 0.929 1_556 S
C1016 C1015 1.363 . S
C1016 C1022 1.428 . S
H1017 C1013 0.930 . S
H1018 C1015 0.929 1_554 S
S1019 N1020 1.613 . S
S1019 N1021 1.610 . S
N1020 S1019 1.613 . S
N1020 C1023 1.350 . S
N1021 S1019 1.610 . S
N1021 C1022 1.351 . S
C1022 C1016 1.428 . S
C1022 N1021 1.351 . S
C1022 C1023 1.434 . S
C1023 C1014 1.429 . S
C1023 N1020 1.350 . S
C1023 C1022 1.434 . S
C1024 C1025 1.369 . S
C1024 C1026 1.419 . S
C1024 H1028 0.930 . S
C1025 C1024 1.369 . S
C1025 C1034 1.429 . S
C1026 C1024 1.419 . S
C1026 C1027 1.363 . S
C1026 H1029 0.929 . S
C1027 C1026 1.363 . S
C1027 C1033 1.428 . S
H1028 C1024 0.930 . S
H1029 C1026 0.929 . S
S1030 N1031 1.613 . S
S1030 N1032 1.610 . S
N1031 S1030 1.613 . S
N1031 C1034 1.350 . S
N1032 S1030 1.610 . S
N1032 C1033 1.351 . S
C1033 C1027 1.428 . S
C1033 N1032 1.351 . S
C1033 C1034 1.434 . S
C1034 C1025 1.429 . S
C1034 N1031 1.350 . S
C1034 C1033 1.434 . S
C1035 C1036 1.369 . S
C1035 C1037 1.419 . S
C1035 H1039 0.930 . S
C1036 C1035 1.369 . S
C1036 C1045 1.429 . S
C1037 C1035 1.419 . S
C1037 C1038 1.363 . S
C1037 H1040 0.929 . S
C1038 C1037 1.363 . S
C1038 C1044 1.428 . S
H1039 C1035 0.930 . S
H1040 C1037 0.929 . S
S1041 N1042 1.613 . S
S1041 N1043 1.610 . S
N1042 S1041 1.613 . S
N1042 C1045 1.350 . S
N1043 S1041 1.610 . S
N1043 C1044 1.351 . S
C1044 C1038 1.428 . S
C1044 N1043 1.351 . S
C1044 C1045 1.434 . S
C1045 C1036 1.429 . S
C1045 N1042 1.350 . S
C1045 C1044 1.434 . S
C1046 C1047 1.369 . S
C1046 C1048 1.419 . S
C1046 H1050 0.930 . S
C1047 C1046 1.369 . S
C1047 C1056 1.429 . S
C1048 C1046 1.419 . S
C1048 C1049 1.363 . S
C1048 H1051 0.929 . S
C1049 C1048 1.363 . S
C1049 C1055 1.428 . S
H1050 C1046 0.930 . S
H1051 C1048 0.929 . S
S1052 N1053 1.613 . S
S1052 N1054 1.610 . S
N1053 S1052 1.613 . S
N1053 C1056 1.350 . S
N1054 S1052 1.610 . S
N1054 C1055 1.351 . S
C1055 C1049 1.428 . S
C1055 N1054 1.351 . S
C1055 C1056 1.434 . S
C1056 C1047 1.429 . S
C1056 N1053 1.350 . S
C1056 C1055 1.434 . S
C1057 C1058 1.369 . S
C1057 C1059 1.419 . S
C1057 H1061 0.930 . S
C1058 C1057 1.369 . S
C1058 C1067 1.429 . S
C1059 C1057 1.419 . S
C1059 C1060 1.363 . S
C1059 H1062 0.929 . S
C1060 C1059 1.363 . S
C1060 C1066 1.428 . S
H1061 C1057 0.930 . S
H1062 C1059 0.929 . S
S1063 N1064 1.613 . S
S1063 N1065 1.610 . S
N1064 S1063 1.613 . S
N1064 C1067 1.350 . S
N1065 S1063 1.610 . S
N1065 C1066 1.351 . S
C1066 C1060 1.428 . S
C1066 N1065 1.351 . S
C1066 C1067 1.434 . S
C1067 C1058 1.429 . S
C1067 N1064 1.350 . S
C1067 C1066 1.434 . S
C1068 C1069 1.369 . S
C1068 C1070 1.419 . S
C1068 H1072 0.930 . S
C1069 C1068 1.369 . S
C1069 C1078 1.429 . S
C1070 C1068 1.419 . S
C1070 C1071 1.363 . S
C1070 H1073 0.929 . S
C1071 C1070 1.363 . S
C1071 C1077 1.428 . S
H1072 C1068 0.930 . S
H1073 C1070 0.929 . S
S1074 N1075 1.613 . S
S1074 N1076 1.610 . S
N1075 S1074 1.613 . S
N1075 C1078 1.350 . S
N1076 S1074 1.610 . S
N1076 C1077 1.351 . S
C1077 C1071 1.428 . S
C1077 N1076 1.351 . S
C1077 C1078 1.434 . S
C1078 C1069 1.429 . S
C1078 N1075 1.350 . S
C1078 C1077 1.434 . S
C1079 C1080 1.369 . S
C1079 C1081 1.419 . S
C1079 H1083 0.930 . S
C1080 C1079 1.369 . S
C1080 C1089 1.429 . S
C1081 C1079 1.419 . S
C1081 C1082 1.363 . S
C1081 H1084 0.929 . S
C1082 C1081 1.363 . S
C1082 C1088 1.428 . S
H1083 C1079 0.930 . S
H1084 C1081 0.929 . S
S1085 N1086 1.613 . S
S1085 N1087 1.610 . S
N1086 S1085 1.613 . S
N1086 C1089 1.350 . S
N1087 S1085 1.610 . S
N1087 C1088 1.351 . S
C1088 C1082 1.428 . S
C1088 N1087 1.351 . S
C1088 C1089 1.434 . S
C1089 C1080 1.429 . S
C1089 N1086 1.350 . S
C1089 C1088 1.434 . S
C1090 C1091 1.369 . S
C1090 C1092 1.419 . S
C1090 H1094 0.930 . S
C1091 C1090 1.369 . S
C1091 C1100 1.429 . S
C1092 C1090 1.419 . S
C1092 C1093 1.363 . S
C1092 H1095 0.929 . S
C1093 C1092 1.363 . S
C1093 C1099 1.428 . S
H1094 C1090 0.930 . S
H1095 C1092 0.929 . S
S1096 N1097 1.613 . S
S1096 N1098 1.610 . S
N1097 S1096 1.613 . S
N1097 C1100 1.350 . S
N1098 S1096 1.610 . S
N1098 C1099 1.351 . S
C1099 C1093 1.428 . S
C1099 N1098 1.351 . S
C1099 C1100 1.434 . S
C1100 C1091 1.429 . S
C1100 N1097 1.350 . S
C1100 C1099 1.434 . S
C1101 C1102 1.369 . S
C1101 C1103 1.419 . S
C1101 H1105 0.930 . S
C1102 C1101 1.369 . S
C1102 C1111 1.429 . S
C1103 C1101 1.419 . S
C1103 C1104 1.363 . S
C1103 H1106 0.929 . S
C1104 C1103 1.363 . S
C1104 C1110 1.428 . S
H1105 C1101 0.930 . S
H1106 C1103 0.929 . S
S1107 N1108 1.613 . S
S1107 N1109 1.610 . S
N1108 S1107 1.613 . S
N1108 C1111 1.350 . S
N1109 S1107 1.610 . S
N1109 C1110 1.351 . S
C1110 C1104 1.428 . S
C1110 N1109 1.351 . S
C1110 C1111 1.434 . S
C1111 C1102 1.429 . S
C1111 N1108 1.350 . S
C1111 C1110 1.434 . S
C1112 C1113 1.369 . S
C1112 C1114 1.419 . S
C1112 H1116 0.930 . S
C1113 C1112 1.369 . S
C1113 C1122 1.429 . S
C1114 C1112 1.419 . S
C1114 C1115 1.363 . S
C1114 H1117 0.929 . S
C1115 C1114 1.363 . S
C1115 C1121 1.428 . S
H1116 C1112 0.930 . S
H1117 C1114 0.929 . S
S1118 N1119 1.613 . S
S1118 N1120 1.610 . S
N1119 S1118 1.613 . S
N1119 C1122 1.350 . S
N1120 S1118 1.610 . S
N1120 C1121 1.351 . S
C1121 C1115 1.428 . S
C1121 N1120 1.351 . S
C1121 C1122 1.434 . S
C1122 C1113 1.429 . S
C1122 N1119 1.350 . S
C1122 C1121 1.434 . S
C1123 C1124 1.369 . S
C1123 C1125 1.419 . S
C1123 H1127 0.930 . S
C1124 C1123 1.369 . S
C1124 C1133 1.429 . S
C1125 C1123 1.419 . S
C1125 C1126 1.363 . S
C1125 H1128 0.929 . S
C1126 C1125 1.363 . S
C1126 C1132 1.428 . S
H1127 C1123 0.930 . S
H1128 C1125 0.929 . S
S1129 N1130 1.613 . S
S1129 N1131 1.610 . S
N1130 S1129 1.613 . S
N1130 C1133 1.350 . S
N1131 S1129 1.610 . S
N1131 C1132 1.351 . S
C1132 C1126 1.428 . S
C1132 N1131 1.351 . S
C1132 C1133 1.434 . S
C1133 C1124 1.429 . S
C1133 N1130 1.350 . S
C1133 C1132 1.434 . S
C1134 C1135 1.369 . S
C1134 C1136 1.419 . S
C1134 H1138 0.930 . S
C1135 C1134 1.369 . S
C1135 C1144 1.429 . S
C1136 C1134 1.419 . S
C1136 C1137 1.363 . S
C1136 H1139 0.929 . S
C1137 C1136 1.363 . S
C1137 C1143 1.428 . S
H1138 C1134 0.930 . S
H1139 C1136 0.929 . S
S1140 N1141 1.613 . S
S1140 N1142 1.610 . S
N1141 S1140 1.613 . S
N1141 C1144 1.350 . S
N1142 S1140 1.610 . S
N1142 C1143 1.351 . S
C1143 C1137 1.428 . S
C1143 N1142 1.351 . S
C1143 C1144 1.434 . S
C1144 C1135 1.429 . S
C1144 N1141 1.350 . S
C1144 C1143 1.434 . S
C1145 C1146 1.369 . S
C1145 C1147 1.419 . S
C1145 H1149 0.930 . S
C1146 C1145 1.369 . S
C1146 C1155 1.429 . S
C1147 C1145 1.419 . S
C1147 C1148 1.363 . S
C1147 H1150 0.929 . S
C1148 C1147 1.363 . S
C1148 C1154 1.428 . S
H1149 C1145 0.930 . S
H1150 C1147 0.929 . S
S1151 N1152 1.611 1_554 S
S1151 N1153 1.610 1_554 S
N1152 S1151 1.611 1_556 S
N1152 C1155 1.361 . S
N1153 S1151 1.610 1_556 S
N1153 C1154 1.351 . S
C1154 C1148 1.428 . S
C1154 N1153 1.351 . S
C1154 C1155 1.434 . S
C1155 C1146 1.429 . S
C1155 N1152 1.361 . S
C1155 C1154 1.434 . S
C1156 C1157 1.369 . S
C1156 C1158 1.419 . S
C1156 H1160 0.930 . S
C1157 C1156 1.369 . S
C1157 C1166 1.429 . S
C1158 C1156 1.419 . S
C1158 C1159 1.363 . S
C1158 H1161 0.929 . S
C1159 C1158 1.363 . S
C1159 C1165 1.428 . S
H1160 C1156 0.930 . S
H1161 C1158 0.929 . S
S1162 N1163 1.613 . S
S1162 N1164 1.610 . S
N1163 S1162 1.613 . S
N1163 C1166 1.350 . S
N1164 S1162 1.610 . S
N1164 C1165 1.351 . S
C1165 C1159 1.428 . S
C1165 N1164 1.351 . S
C1165 C1166 1.434 . S
C1166 C1157 1.429 . S
C1166 N1163 1.350 . S
C1166 C1165 1.434 . S
C1167 C1168 1.369 . S
C1167 C1169 1.419 . S
C1167 H1171 0.930 . S
C1168 C1167 1.369 . S
C1168 C1177 1.429 . S
C1169 C1167 1.419 . S
C1169 C1170 1.363 . S
C1169 H1172 0.929 . S
C1170 C1169 1.363 . S
C1170 C1176 1.428 . S
H1171 C1167 0.930 . S
H1172 C1169 0.929 . S
S1173 N1174 1.613 . S
S1173 N1175 1.610 . S
N1174 S1173 1.613 . S
N1174 C1177 1.350 . S
N1175 S1173 1.610 . S
N1175 C1176 1.351 . S
C1176 C1170 1.428 . S
C1176 N1175 1.351 . S
C1176 C1177 1.434 . S
C1177 C1168 1.429 . S
C1177 N1174 1.350 . S
C1177 C1176 1.434 . S
C1178 C1179 1.369 . S
C1178 C1180 1.419 . S
C1178 H1182 0.930 . S
C1179 C1178 1.369 . S
C1179 C1188 1.429 . S
C1180 C1178 1.419 . S
C1180 C1181 1.363 . S
C1180 H1183 0.929 . S
C1181 C1180 1.363 . S
C1181 C1187 1.428 . S
H1182 C1178 0.930 . S
H1183 C1180 0.929 . S
S1184 N1185 1.613 . S
S1184 N1186 1.610 . S
N1185 S1184 1.613 . S
N1185 C1188 1.350 . S
N1186 S1184 1.610 . S
N1186 C1187 1.351 . S
C1187 C1181 1.428 . S
C1187 N1186 1.351 . S
C1187 C1188 1.434 . S
C1188 C1179 1.429 . S
C1188 N1185 1.350 . S
C1188 C1187 1.434 . S
C1189 C1190 1.369 . S
C1189 C1191 1.419 . S
C1189 H1193 0.930 . S
C1190 C1189 1.369 . S
C1190 C1199 1.429 . S
C1191 C1189 1.419 . S
C1191 C1192 1.363 . S
C1191 H1194 0.929 . S
C1192 C1191 1.363 . S
C1192 C1198 1.428 . S
H1193 C1189 0.930 . S
H1194 C1191 0.929 . S
S1195 N1196 1.613 . S
S1195 N1197 1.610 . S
N1196 S1195 1.613 . S
N1196 C1199 1.350 . S
N1197 S1195 1.610 . S
N1197 C1198 1.351 . S
C1198 C1192 1.428 . S
C1198 N1197 1.351 . S
C1198 C1199 1.434 . S
C1199 C1190 1.429 . S
C1199 N1196 1.350 . S
C1199 C1198 1.434 . S
C1200 C1201 1.369 . S
C1200 C1202 1.419 . S
C1200 H1204 0.930 . S
C1201 C1200 1.369 . S
C1201 C1210 1.429 . S
C1202 C1200 1.419 . S
C1202 C1203 1.363 . S
C1202 H1205 0.929 . S
C1203 C1202 1.363 . S
C1203 C1209 1.428 . S
H1204 C1200 0.930 . S
H1205 C1202 0.929 . S
S1206 N1207 1.613 . S
S1206 N1208 1.610 . S
N1207 S1206 1.613 . S
N1207 C1210 1.350 . S
N1208 S1206 1.610 . S
N1208 C1209 1.351 . S
C1209 C1203 1.428 . S
C1209 N1208 1.351 . S
C1209 C1210 1.434 . S
C1210 C1201 1.429 . S
C1210 N1207 1.350 . S
C1210 C1209 1.434 . S
C1211 C1212 1.369 . S
C1211 C1213 1.419 . S
C1211 H1215 0.930 . S
C1212 C1211 1.369 . S
C1212 C1221 1.429 . S
C1213 C1211 1.419 . S
C1213 C1214 1.363 . S
C1213 H1216 0.929 . S
C1214 C1213 1.363 . S
C1214 C1220 1.428 . S
H1215 C1211 0.930 . S
H1216 C1213 0.929 . S
S1217 N1218 1.613 . S
S1217 N1219 1.610 . S
N1218 S1217 1.613 . S
N1218 C1221 1.350 . S
N1219 S1217 1.610 . S
N1219 C1220 1.351 . S
C1220 C1214 1.428 . S
C1220 N1219 1.351 . S
C1220 C1221 1.434 . S
C1221 C1212 1.429 . S
C1221 N1218 1.350 . S
C1221 C1220 1.434 . S
C1222 C1223 1.369 . S
C1222 C1224 1.419 . S
C1222 H1226 0.930 . S
C1223 C1222 1.369 . S
C1223 C1232 1.429 . S
C1224 C1222 1.419 . S
C1224 C1225 1.363 . S
C1224 H1227 0.929 . S
C1225 C1224 1.363 . S
C1225 C1231 1.428 . S
H1226 C1222 0.930 . S
H1227 C1224 0.929 . S
S1228 N1229 1.613 . S
S1228 N1230 1.610 . S
N1229 S1228 1.613 . S
N1229 C1232 1.350 . S
N1230 S1228 1.610 . S
N1230 C1231 1.351 . S
C1231 C1225 1.428 . S
C1231 N1230 1.351 . S
C1231 C1232 1.434 . S
C1232 C1223 1.429 . S
C1232 N1229 1.350 . S
C1232 C1231 1.434 . S
C1233 C1234 1.369 . S
C1233 C1235 1.419 . S
C1233 H1237 0.930 . S
C1234 C1233 1.369 . S
C1234 C1243 1.429 . S
C1235 C1233 1.419 . S
C1235 C1236 1.363 . S
C1235 H1238 0.929 . S
C1236 C1235 1.363 . S
C1236 C1242 1.428 . S
H1237 C1233 0.930 . S
H1238 C1235 0.929 . S
S1239 N1240 1.613 . S
S1239 N1241 1.610 . S
N1240 S1239 1.613 . S
N1240 C1243 1.350 . S
N1241 S1239 1.610 . S
N1241 C1242 1.351 . S
C1242 C1236 1.428 . S
C1242 N1241 1.351 . S
C1242 C1243 1.434 . S
C1243 C1234 1.429 . S
C1243 N1240 1.350 . S
C1243 C1242 1.434 . S
C1244 C1245 1.369 . S
C1244 C1246 1.419 . S
C1244 H1248 0.930 . S
C1245 C1244 1.369 . S
C1245 C1254 1.429 . S
C1246 C1244 1.419 . S
C1246 C1247 1.363 . S
C1246 H1249 0.929 . S
C1247 C1246 1.363 . S
C1247 C1253 1.428 . S
H1248 C1244 0.930 . S
H1249 C1246 0.929 . S
S1250 N1251 1.613 . S
S1250 N1252 1.610 . S
N1251 S1250 1.613 . S
N1251 C1254 1.350 . S
N1252 S1250 1.610 . S
N1252 C1253 1.351 . S
C1253 C1247 1.428 . S
C1253 N1252 1.351 . S
C1253 C1254 1.434 . S
C1254 C1245 1.429 . S
C1254 N1251 1.350 . S
C1254 C1253 1.434 . S
C1255 C1256 1.369 . S
C1255 C1257 1.419 . S
C1255 H1259 0.930 . S
C1256 C1255 1.369 . S
C1256 C1265 1.429 . S
C1257 C1255 1.419 . S
C1257 C1258 1.363 . S
C1257 H1260 0.929 . S
C1258 C1257 1.363 . S
C1258 C1264 1.428 . S
H1259 C1255 0.930 . S
H1260 C1257 0.929 . S
S1261 N1262 1.613 . S
S1261 N1263 1.610 . S
N1262 S1261 1.613 . S
N1262 C1265 1.350 . S
N1263 S1261 1.610 . S
N1263 C1264 1.351 . S
C1264 C1258 1.428 . S
C1264 N1263 1.351 . S
C1264 C1265 1.434 . S
C1265 C1256 1.429 . S
C1265 N1262 1.350 . S
C1265 C1264 1.434 . S
C1266 C1267 1.369 . S
C1266 C1268 1.419 . S
C1266 H1270 0.930 . S
C1267 C1266 1.369 . S
C1267 C1276 1.429 . S
C1268 C1266 1.419 . S
C1268 C1269 1.363 . S
C1268 H1271 0.929 . S
C1269 C1268 1.363 . S
C1269 C1275 1.428 . S
H1270 C1266 0.930 . S
H1271 C1268 0.929 . S
S1272 N1273 1.613 . S
S1272 N1274 1.610 . S
N1273 S1272 1.613 . S
N1273 C1276 1.350 . S
N1274 S1272 1.610 . S
N1274 C1275 1.351 . S
C1275 C1269 1.428 . S
C1275 N1274 1.351 . S
C1275 C1276 1.434 . S
C1276 C1267 1.429 . S
C1276 N1273 1.350 . S
C1276 C1275 1.434 . S
C1277 C1278 1.369 . S
C1277 C1279 1.419 . S
C1277 H1281 0.930 . S
C1278 C1277 1.369 . S
C1278 C1287 1.429 . S
C1279 C1277 1.419 . S
C1279 C1280 1.363 . S
C1279 H1282 0.929 . S
C1280 C1279 1.363 . S
C1280 C1286 1.428 . S
H1281 C1277 0.930 . S
H1282 C1279 0.929 . S
S1283 N1284 1.613 . S
S1283 N1285 1.610 . S
N1284 S1283 1.613 . S
N1284 C1287 1.350 . S
N1285 S1283 1.610 . S
N1285 C1286 1.351 . S
C1286 C1280 1.428 . S
C1286 N1285 1.351 . S
C1286 C1287 1.434 . S
C1287 C1278 1.429 . S
C1287 N1284 1.350 . S
C1287 C1286 1.434 . S
C1288 C1289 1.369 . S
C1288 C1290 1.419 . S
C1288 H1292 0.930 . S
C1289 C1288 1.369 . S
C1289 C1298 1.429 . S
C1290 C1288 1.419 . S
C1290 C1291 1.363 . S
C1290 H1293 0.929 . S
C1291 C1290 1.363 . S
C1291 C1297 1.428 . S
H1292 C1288 0.930 . S
H1293 C1290 0.929 . S
S1294 N1295 1.613 . S
S1294 N1296 1.610 . S
N1295 S1294 1.613 . S
N1295 C1298 1.350 . S
N1296 S1294 1.610 . S
N1296 C1297 1.351 . S
C1297 C1291 1.428 . S
C1297 N1296 1.351 . S
C1297 C1298 1.434 . S
C1298 C1289 1.429 . S
C1298 N1295 1.350 . S
C1298 C1297 1.434 . S
C1299 C1300 1.369 . S
C1299 C1301 1.419 . S
C1299 H1303 0.930 . S
C1300 C1299 1.369 . S
C1300 C1309 1.429 . S
C1301 C1299 1.419 . S
C1301 C1302 1.363 . S
C1301 H1304 0.929 . S
C1302 C1301 1.363 . S
C1302 C1308 1.428 . S
H1303 C1299 0.930 . S
H1304 C1301 0.929 . S
S1305 N1306 1.613 . S
S1305 N1307 1.610 . S
N1306 S1305 1.613 . S
N1306 C1309 1.350 . S
N1307 S1305 1.610 . S
N1307 C1308 1.351 . S
C1308 C1302 1.428 . S
C1308 N1307 1.351 . S
C1308 C1309 1.434 . S
C1309 C1300 1.429 . S
C1309 N1306 1.350 . S
C1309 C1308 1.434 . S
C1310 C1311 1.369 . S
C1310 C1312 1.419 . S
C1310 H1314 0.930 . S
C1311 C1310 1.369 . S
C1311 C1320 1.429 . S
C1312 C1310 1.419 . S
C1312 C1313 1.363 . S
C1312 H1315 0.929 . S
C1313 C1312 1.363 . S
C1313 C1319 1.428 . S
H1314 C1310 0.930 . S
H1315 C1312 0.929 . S
S1316 N1317 1.613 . S
S1316 N1318 1.610 . S
N1317 S1316 1.613 . S
N1317 C1320 1.350 . S
N1318 S1316 1.610 . S
N1318 C1319 1.351 . S
C1319 C1313 1.428 . S
C1319 N1318 1.351 . S
C1319 C1320 1.434 . S
C1320 C1311 1.429 . S
C1320 N1317 1.350 . S
C1320 C1319 1.434 . S
C1321 C1322 1.369 . S
C1321 C1323 1.419 . S
C1321 H1325 0.930 . S
C1322 C1321 1.369 . S
C1322 C1331 1.429 . S
C1323 C1321 1.419 . S
C1323 C1324 1.363 . S
C1323 H1326 0.929 . S
C1324 C1323 1.363 . S
C1324 C1330 1.428 . S
H1325 C1321 0.930 . S
H1326 C1323 0.929 . S
S1327 N1328 1.613 . S
S1327 N1329 1.610 . S
N1328 S1327 1.613 . S
N1328 C1331 1.350 . S
N1329 S1327 1.610 . S
N1329 C1330 1.351 . S
C1330 C1324 1.428 . S
C1330 N1329 1.351 . S
C1330 C1331 1.434 . S
C1331 C1322 1.429 . S
C1331 N1328 1.350 . S
C1331 C1330 1.434 . S
C1332 C1333 1.369 . S
C1332 C1334 1.419 . S
C1332 H1336 0.930 . S
C1333 C1332 1.369 . S
C1333 C1342 1.429 . S
C1334 C1332 1.419 . S
C1334 C1335 1.363 . S
C1334 H1337 0.929 . S
C1335 C1334 1.363 . S
C1335 C1341 1.428 . S
H1336 C1332 0.930 . S
H1337 C1334 0.929 . S
S1338 N1339 1.613 . S
S1338 N1340 1.610 . S
N1339 S1338 1.613 . S
N1339 C1342 1.350 . S
N1340 S1338 1.610 . S
N1340 C1341 1.351 . S
C1341 C1335 1.428 . S
C1341 N1340 1.351 . S
C1341 C1342 1.434 . S
C1342 C1333 1.429 . S
C1342 N1339 1.350 . S
C1342 C1341 1.434 . S
C1343 C1344 1.369 . S
C1343 C1345 1.419 . S
C1343 H1347 0.930 . S
C1344 C1343 1.369 . S
C1344 C1353 1.429 . S
C1345 C1343 1.419 . S
C1345 C1346 1.363 . S
C1345 H1348 0.929 . S
C1346 C1345 1.363 . S
C1346 C1352 1.428 . S
H1347 C1343 0.930 . S
H1348 C1345 0.929 . S
S1349 N1350 1.613 . S
S1349 N1351 1.610 . S
N1350 S1349 1.613 . S
N1350 C1353 1.350 . S
N1351 S1349 1.610 . S
N1351 C1352 1.351 . S
C1352 C1346 1.428 . S
C1352 N1351 1.351 . S
C1352 C1353 1.434 . S
C1353 C1344 1.429 . S
C1353 N1350 1.350 . S
C1353 C1352 1.434 . S
C1354 C1355 1.369 . S
C1354 C1356 1.419 . S
C1354 H1358 0.930 . S
C1355 C1354 1.369 . S
C1355 C1364 1.429 . S
C1356 C1354 1.419 . S
C1356 C1357 1.363 . S
C1356 H1359 0.929 . S
C1357 C1356 1.363 . S
C1357 C1363 1.428 . S
H1358 C1354 0.930 . S
H1359 C1356 0.929 . S
S1360 N1361 1.613 . S
S1360 N1362 1.610 . S
N1361 S1360 1.613 . S
N1361 C1364 1.350 . S
N1362 S1360 1.610 . S
N1362 C1363 1.351 . S
C1363 C1357 1.428 . S
C1363 N1362 1.351 . S
C1363 C1364 1.434 . S
C1364 C1355 1.429 . S
C1364 N1361 1.350 . S
C1364 C1363 1.434 . S
C1365 C1366 1.369 . S
C1365 C1367 1.419 . S
C1365 H1369 0.930 . S
C1366 C1365 1.369 . S
C1366 C1375 1.429 . S
C1367 C1365 1.419 . S
C1367 C1368 1.363 . S
C1367 H1370 0.929 . S
C1368 C1367 1.363 . S
C1368 C1374 1.428 . S
H1369 C1365 0.930 . S
H1370 C1367 0.929 . S
S1371 N1372 1.613 . S
S1371 N1373 1.610 . S
N1372 S1371 1.613 . S
N1372 C1375 1.350 . S
N1373 S1371 1.610 . S
N1373 C1374 1.351 . S
C1374 C1368 1.428 . S
C1374 N1373 1.351 . S
C1374 C1375 1.434 . S
C1375 C1366 1.429 . S
C1375 N1372 1.350 . S
C1375 C1374 1.434 . S
C1376 C1377 1.369 . S
C1376 C1378 1.419 . S
C1376 H1380 0.930 . S
C1377 C1376 1.369 . S
C1377 C1386 1.429 . S
C1378 C1376 1.419 . S
C1378 C1379 1.363 . S
C1378 H1381 0.929 . S
C1379 C1378 1.363 . S
C1379 C1385 1.428 . S
H1380 C1376 0.930 . S
H1381 C1378 0.929 . S
S1382 N1383 1.613 . S
S1382 N1384 1.610 . S
N1383 S1382 1.613 . S
N1383 C1386 1.350 . S
N1384 S1382 1.610 . S
N1384 C1385 1.351 . S
C1385 C1379 1.428 . S
C1385 N1384 1.351 . S
C1385 C1386 1.434 . S
C1386 C1377 1.429 . S
C1386 N1383 1.350 . S
C1386 C1385 1.434 . S
C1387 C1388 1.369 . S
C1387 C1389 1.419 . S
C1387 H1391 0.930 . S
C1388 C1387 1.369 . S
C1388 C1397 1.429 . S
C1389 C1387 1.419 . S
C1389 C1390 1.363 . S
C1389 H1392 0.929 . S
C1390 C1389 1.363 . S
C1390 C1396 1.428 . S
H1391 C1387 0.930 . S
H1392 C1389 0.929 . S
S1393 N1394 1.613 . S
S1393 N1395 1.610 . S
N1394 S1393 1.613 . S
N1394 C1397 1.350 . S
N1395 S1393 1.610 . S
N1395 C1396 1.351 . S
C1396 C1390 1.428 . S
C1396 N1395 1.351 . S
C1396 C1397 1.434 . S
C1397 C1388 1.429 . S
C1397 N1394 1.350 . S
C1397 C1396 1.434 . S
C873 C699 1.382 . S
C871 C74 1.443 . S
C884 C700 0.590 . S
C882 C142 0.789 . S
C895 C694 1.411 . S
C893 C231 1.336 . S
C904 C322 1.130 . S
C906 C693 1.157 . S
C915 C406 0.817 . S
C917 C696 0.586 . S
C928 C698 1.417 . S
C926 C494 1.344 . S
C937 C562 1.123 . S
C939 C697 1.154 . S
C948 C651 1.442 . S
C950 C695 1.382 . S
C961 C730 1.536 . S
C959 C58 1.451 . S
C970 C151 1.809 . S
C972 C761 1.761 . S
C983 C729 2.601 . S
C981 C224 2.457 . S
C994 C764 1.334 . S
C992 C315 1.298 . S
C1003 C399 1.581 . S
C1005 C727 1.588 . S
C1016 C759 1.473 . S
C1014 C478 1.403 . S
C1025 C571 1.384 . S
C1027 C732 1.457 . S
C1036 C644 2.487 . S
C1038 C766 2.561 . S
C1047 C67 2.492 . S
C1049 C762 2.564 . S
C1058 C392 1.803 . S
C1060 C765 1.756 . S
C1071 C733 2.601 . S
C1069 C487 2.457 . S
C1082 C760 1.332 . S
C1080 C578 1.309 . S
C1091 C658 1.441 . S
C1093 C726 1.536 . S
C1102 C238 1.402 . S
C1104 C763 1.473 . S
C1115 C728 1.457 . S
C1113 C308 1.384 . S
C1124 C158 1.582 . S
C1126 C731 1.587 . S
C1135 C662 1.412 . S
C1137 C798 1.342 . S
C1146 C394 1.045 . S
C1148 C799 0.127 . S
C1159 C793 1.555 . S
C1157 C483 1.519 . S
C1170 C792 1.377 . S
C1168 C574 1.248 . S
C1179 C154 1.027 . S
C1181 C795 0.133 . S
C1192 C797 1.562 . S
C1190 C242 1.517 . S
C1201 C310 1.250 . S
C1203 C796 1.379 . S
C1212 C63 1.415 . S
C1214 C794 1.337 . S
C1223 C646 1.471 . S
C1225 C832 1.549 . S
C1236 C864 1.345 . S
C1234 C403 1.396 . S
C1245 C476 2.347 . S
C1247 C825 2.486 . S
C1256 C567 1.643 . S
C1258 C859 1.703 . S
C1269 C830 1.554 . S
C1267 C147 1.400 . S
C1278 C226 1.638 . S
C1280 C861 1.644 . S
C1291 C827 1.607 . S
C1289 C319 1.656 . S
C1302 C862 2.559 . S
C1300 C56 2.285 . S
C1313 C858 2.559 . S
C1311 C655 2.292 . S
C1322 C140 1.392 . S
C1324 C860 1.343 . S
C1333 C235 2.347 . S
C1335 C829 2.486 . S
C1346 C863 1.700 . S
C1344 C326 1.638 . S
C1355 C70 1.461 . S
C1357 C828 1.543 . S
C1366 C490 1.631 . S
C1368 C865 1.645 . S
C1379 C831 1.601 . S
C1377 C560 1.655 . S
C1390 C826 1.552 . S
C1388 C410 1.387 . S
