# Generated by pormake.
# Topology ocu, (6,8)-cn, num edge types: 1
# Building blocks:
#     Node 0, Type 0, BuildingBlock: PAMTUU_clean_sbu_0, # of connection points: 6
#     Node 1, Type 0, BuildingBlock: PAMTUU_clean_sbu_0, # of connection points: 6
#     Node 2, Type 0, BuildingBlock: PAMTUU_clean_sbu_0, # of connection points: 6
#     Node 3, Type 0, BuildingBlock: PAMTUU_clean_sbu_0, # of connection points: 6
#     Node 4, Type 0, BuildingBlock: PAMTUU_clean_sbu_0, # of connection points: 6
#     Node 5, Type 0, BuildingBlock: PAMTUU_clean_sbu_0, # of connection points: 6
#     Node 6, Type 0, BuildingBlock: PAMTUU_clean_sbu_0, # of connection points: 6
#     Node 7, Type 0, BuildingBlock: PAMTUU_clean_sbu_0, # of connection points: 6
#     Node 8, Type 1, BuildingBlock: AJUNOK_clean_sbu_0, # of connection points: 8
#     Node 9, Type 1, BuildingBlock: AJUNOK_clean_sbu_0, # of connection points: 8
#     Node 10, Type 1, BuildingBlock: AJUNOK_clean_sbu_0, # of connection points: 8
#     Node 11, Type 1, BuildingBlock: AJUNOK_clean_sbu_0, # of connection points: 8
#     Node 12, Type 1, BuildingBlock: AJUNOK_clean_sbu_0, # of connection points: 8
#     Node 13, Type 1, BuildingBlock: AJUNOK_clean_sbu_0, # of connection points: 8
#     Edge 14, Type (0, 1), BuildingBlock: TEMPAE_clean_linker_10, # of connection points: 2
#     Edge 15, Type (0, 1), BuildingBlock: TEMPAE_clean_linker_10, # of connection points: 2
#     Edge 16, Type (0, 1), BuildingBlock: TEMPAE_clean_linker_10, # of connection points: 2
#     Edge 17, Type (0, 1), BuildingBlock: TEMPAE_clean_linker_10, # of connection points: 2
#     Edge 18, Type (0, 1), BuildingBlock: TEMPAE_clean_linker_10, # of connection points: 2
#     Edge 19, Type (0, 1), BuildingBlock: TEMPAE_clean_linker_10, # of connection points: 2
#     Edge 20, Type (0, 1), BuildingBlock: TEMPAE_clean_linker_10, # of connection points: 2
#     Edge 21, Type (0, 1), BuildingBlock: TEMPAE_clean_linker_10, # of connection points: 2
#     Edge 22, Type (0, 1), BuildingBlock: TEMPAE_clean_linker_10, # of connection points: 2
#     Edge 23, Type (0, 1), BuildingBlock: TEMPAE_clean_linker_10, # of connection points: 2
#     Edge 24, Type (0, 1), BuildingBlock: TEMPAE_clean_linker_10, # of connection points: 2
#     Edge 25, Type (0, 1), BuildingBlock: TEMPAE_clean_linker_10, # of connection points: 2
#     Edge 26, Type (0, 1), BuildingBlock: TEMPAE_clean_linker_10, # of connection points: 2
#     Edge 27, Type (0, 1), BuildingBlock: TEMPAE_clean_linker_10, # of connection points: 2
#     Edge 28, Type (0, 1), BuildingBlock: TEMPAE_clean_linker_10, # of connection points: 2
#     Edge 29, Type (0, 1), BuildingBlock: TEMPAE_clean_linker_10, # of connection points: 2
#     Edge 30, Type (0, 1), BuildingBlock: TEMPAE_clean_linker_10, # of connection points: 2
#     Edge 31, Type (0, 1), BuildingBlock: TEMPAE_clean_linker_10, # of connection points: 2
#     Edge 32, Type (0, 1), BuildingBlock: TEMPAE_clean_linker_10, # of connection points: 2
#     Edge 33, Type (0, 1), BuildingBlock: TEMPAE_clean_linker_10, # of connection points: 2
#     Edge 34, Type (0, 1), BuildingBlock: TEMPAE_clean_linker_10, # of connection points: 2
#     Edge 35, Type (0, 1), BuildingBlock: TEMPAE_clean_linker_10, # of connection points: 2
#     Edge 36, Type (0, 1), BuildingBlock: TEMPAE_clean_linker_10, # of connection points: 2
#     Edge 37, Type (0, 1), BuildingBlock: TEMPAE_clean_linker_10, # of connection points: 2
#     Edge 38, Type (0, 1), BuildingBlock: TEMPAE_clean_linker_10, # of connection points: 2
#     Edge 39, Type (0, 1), BuildingBlock: TEMPAE_clean_linker_10, # of connection points: 2
#     Edge 40, Type (0, 1), BuildingBlock: TEMPAE_clean_linker_10, # of connection points: 2
#     Edge 41, Type (0, 1), BuildingBlock: TEMPAE_clean_linker_10, # of connection points: 2
#     Edge 42, Type (0, 1), BuildingBlock: TEMPAE_clean_linker_10, # of connection points: 2
#     Edge 43, Type (0, 1), BuildingBlock: TEMPAE_clean_linker_10, # of connection points: 2
#     Edge 44, Type (0, 1), BuildingBlock: TEMPAE_clean_linker_10, # of connection points: 2
#     Edge 45, Type (0, 1), BuildingBlock: TEMPAE_clean_linker_10, # of connection points: 2
#     Edge 46, Type (0, 1), BuildingBlock: TEMPAE_clean_linker_10, # of connection points: 2
#     Edge 47, Type (0, 1), BuildingBlock: TEMPAE_clean_linker_10, # of connection points: 2
#     Edge 48, Type (0, 1), BuildingBlock: TEMPAE_clean_linker_10, # of connection points: 2
#     Edge 49, Type (0, 1), BuildingBlock: TEMPAE_clean_linker_10, # of connection points: 2
#     Edge 50, Type (0, 1), BuildingBlock: TEMPAE_clean_linker_10, # of connection points: 2
#     Edge 51, Type (0, 1), BuildingBlock: TEMPAE_clean_linker_10, # of connection points: 2
#     Edge 52, Type (0, 1), BuildingBlock: TEMPAE_clean_linker_10, # of connection points: 2
#     Edge 53, Type (0, 1), BuildingBlock: TEMPAE_clean_linker_10, # of connection points: 2
#     Edge 54, Type (0, 1), BuildingBlock: TEMPAE_clean_linker_10, # of connection points: 2
#     Edge 55, Type (0, 1), BuildingBlock: TEMPAE_clean_linker_10, # of connection points: 2
#     Edge 56, Type (0, 1), BuildingBlock: TEMPAE_clean_linker_10, # of connection points: 2
#     Edge 57, Type (0, 1), BuildingBlock: TEMPAE_clean_linker_10, # of connection points: 2
#     Edge 58, Type (0, 1), BuildingBlock: TEMPAE_clean_linker_10, # of connection points: 2
#     Edge 59, Type (0, 1), BuildingBlock: TEMPAE_clean_linker_10, # of connection points: 2
#     Edge 60, Type (0, 1), BuildingBlock: TEMPAE_clean_linker_10, # of connection points: 2
#     Edge 61, Type (0, 1), BuildingBlock: TEMPAE_clean_linker_10, # of connection points: 2
# Relax obj value: 0.177
# Max RMSD: 0.262
# Mean RMSD: 0.186
data_MOF--net-ocu--node1-PAMTUU_clean_sbu_0--node2-AJUNOK_clean_sbu_0--edge1-TEMPAE_clean_linker_10
_symmetry_space_group_name_H-M    P1
_symmetry_Int_Tables_number       1
_symmetry_cell_setting            triclinic
loop_
_symmetry_equiv_pos_as_xyz
'x, y, z'
_cell_length_a     43.874866
_cell_length_b     46.910358
_cell_length_c     38.473737
_cell_angle_alpha  92.227192
_cell_angle_beta   101.40617
_cell_angle_gamma 109.95083
loop_
_atom_site_label
_atom_site_type_symbol
_atom_site_fract_x
_atom_site_fract_y
_atom_site_fract_z
_atom_type_partial_charge
Tb0 Tb 0.2481 0.24337 0.23145 0.0
Tb1 Tb 0.30536 0.26597 0.30157 0.0
C2 C 0.24251 0.20867 0.29802 0.0
C3 C 0.17747 0.24371 0.16515 0.0
C4 C 0.13881 0.27734 0.13736 0.0
C5 C 0.13095 0.24731 0.12225 0.0
C6 C 0.15024 0.23035 0.13635 0.0
C7 C 0.18362 0.273 0.18145 0.0
C8 C 0.1642 0.2896 0.1679 0.0
C9 C 0.20186 0.2292 0.1761 0.0
O10 O 0.23598 0.28057 0.25927 0.0
O11 O 0.26999 0.28807 0.31481 0.0
O12 O 0.31442 0.30458 0.27159 0.0
O13 O 0.29042 0.27683 0.21735 0.0
O14 O 0.3214 0.27044 0.35723 0.0
O15 O 0.35634 0.28757 0.32369 0.0
O16 O 0.32358 0.23723 0.2675 0.0
O17 O 0.27591 0.21134 0.22558 0.0
O18 O 0.22674 0.21891 0.27214 0.0
O19 O 0.27487 0.22022 0.30829 0.0
C20 C 0.24515 0.29323 0.29318 0.0
O21 O 0.23233 0.24671 0.17726 0.0
O22 O 0.19957 0.21537 0.20461 0.0
C23 C 0.31062 0.30187 0.23713 0.0
C24 C 0.36989 0.25953 0.36821 0.0
C25 C 0.4014 0.21893 0.39121 0.0
C26 C 0.41478 0.24952 0.40666 0.0
C27 C 0.39899 0.26986 0.39512 0.0
C28 C 0.35723 0.22923 0.35216 0.0
C29 C 0.37292 0.2091 0.36346 0.0
C30 C 0.35256 0.27975 0.35515 0.0
C31 C 0.30741 0.21508 0.24045 0.0
H32 H 0.11163 0.23793 0.09817 0.0
H33 H 0.14527 0.20778 0.12347 0.0
H34 H 0.20505 0.28417 0.20277 0.0
H35 H 0.171 0.31306 0.1792 0.0
H36 H 0.43675 0.25736 0.42828 0.0
H37 H 0.40914 0.29332 0.40735 0.0
H38 H 0.33497 0.22099 0.33106 0.0
H39 H 0.36249 0.1857 0.35093 0.0
Tb40 Tb 0.75775 0.27745 0.27479 0.0
Tb41 Tb 0.79955 0.23298 0.26372 0.0
C42 C 0.81748 0.27549 0.33592 0.0
C43 C 0.72849 0.33559 0.24601 0.0
C44 C 0.71684 0.36462 0.18574 0.0
C45 C 0.71326 0.3757 0.21863 0.0
C46 C 0.71952 0.36133 0.24905 0.0
C47 C 0.73423 0.32623 0.21367 0.0
C48 C 0.72982 0.34141 0.18418 0.0
C49 C 0.73245 0.3178 0.27559 0.0
O50 O 0.78736 0.29452 0.23555 0.0
O51 O 0.82893 0.27482 0.24617 0.0
O52 O 0.76842 0.23339 0.21287 0.0
O53 O 0.72629 0.24094 0.23324 0.0
O54 O 0.84135 0.22043 0.26599 0.0
O55 O 0.79171 0.18891 0.2415 0.0
O56 O 0.76397 0.20975 0.29536 0.0
O57 O 0.73804 0.24311 0.30806 0.0
O58 O 0.79402 0.28636 0.32432 0.0
O59 O 0.8241 0.25556 0.31678 0.0
C60 C 0.81625 0.29424 0.23162 0.0
O61 O 0.71471 0.28868 0.26854 0.0
O62 O 0.76345 0.32263 0.29021 0.0
C63 C 0.73709 0.22993 0.20837 0.0
C64 C 0.82538 0.17067 0.28119 0.0
C65 C 0.82949 0.13041 0.33205 0.0
C66 C 0.82713 0.12161 0.29592 0.0
C67 C 0.82508 0.14174 0.27053 0.0
C68 C 0.82552 0.17862 0.31677 0.0
C69 C 0.82758 0.15868 0.34201 0.0
C70 C 0.82241 0.19194 0.25534 0.0
C71 C 0.74351 0.21746 0.31135 0.0
H72 H 0.70262 0.39332 0.22 0.0
H73 H 0.71539 0.36898 0.27404 0.0
H74 H 0.73965 0.30569 0.21029 0.0
H75 H 0.73184 0.33211 0.15884 0.0
H76 H 0.82857 0.09984 0.28774 0.0
H77 H 0.8239 0.135 0.2429 0.0
H78 H 0.82481 0.20059 0.3253 0.0
H79 H 0.82995 0.16631 0.36971 0.0
Tb80 Tb 0.80187 0.76687 0.24359 0.0
Tb81 Tb 0.75525 0.74314 0.29671 0.0
C82 C 0.81701 0.80271 0.31775 0.0
C83 C 0.85249 0.76486 0.18225 0.0
C84 C 0.87495 0.72607 0.14599 0.0
C85 C 0.88331 0.75683 0.13963 0.0
C86 C 0.87211 0.77624 0.15782 0.0
C87 C 0.84564 0.7346 0.18982 0.0
C88 C 0.85686 0.71536 0.17195 0.0
C89 C 0.83695 0.78316 0.19854 0.0
O90 O 0.82693 0.73666 0.27176 0.0
O91 O 0.78967 0.71543 0.30587 0.0
O92 O 0.72741 0.71597 0.24708 0.0
O93 O 0.77095 0.72028 0.22143 0.0
O94 O 0.75377 0.73668 0.35001 0.0
O95 O 0.70879 0.72057 0.30845 0.0
O96 O 0.73056 0.77396 0.26956 0.0
O97 O 0.7665 0.79369 0.23344 0.0
O98 O 0.82967 0.79368 0.29357 0.0
O99 O 0.78566 0.78993 0.31804 0.0
C100 C 0.81755 0.71729 0.29529 0.0
O101 O 0.80455 0.77201 0.19026 0.0
O102 O 0.84838 0.7909 0.23272 0.0
C103 C 0.73969 0.70724 0.22229 0.0
C104 C 0.70701 0.74536 0.36112 0.0
C105 C 0.67852 0.7815 0.39294 0.0
C106 C 0.66178 0.74978 0.38539 0.0
C107 C 0.67596 0.73177 0.36941 0.0
C108 C 0.72333 0.77713 0.36798 0.0
C109 C 0.70926 0.79503 0.38384 0.0
C110 C 0.72133 0.7271 0.34262 0.0
C111 C 0.73913 0.79243 0.24489 0.0
H112 H 0.89754 0.76549 0.11984 0.0
H113 H 0.87773 0.79964 0.15196 0.0
H114 H 0.83027 0.72534 0.20836 0.0
H115 H 0.84974 0.69166 0.17698 0.0
H116 H 0.63783 0.73901 0.3919 0.0
H117 H 0.66273 0.70737 0.36342 0.0
H118 H 0.74707 0.78822 0.36125 0.0
H119 H 0.72285 0.8194 0.38977 0.0
Tb120 Tb 0.30782 0.73525 0.26869 0.0
Tb121 Tb 0.25683 0.77058 0.26313 0.0
C122 C 0.254 0.72216 0.31319 0.0
C123 C 0.34793 0.68676 0.23994 0.0
C124 C 0.34019 0.64522 0.18177 0.0
C125 C 0.33588 0.63499 0.21492 0.0
C126 C 0.34004 0.65568 0.24389 0.0
C127 C 0.35171 0.69694 0.20666 0.0
C128 C 0.34806 0.67636 0.1779 0.0
C129 C 0.34732 0.70744 0.26893 0.0
O130 O 0.27007 0.71326 0.21941 0.0
O131 O 0.22802 0.72571 0.23516 0.0
O132 O 0.27197 0.77119 0.21365 0.0
O133 O 0.3236 0.77525 0.24111 0.0
O134 O 0.21099 0.77387 0.26587 0.0
O135 O 0.24869 0.80996 0.24755 0.0
O136 O 0.30358 0.80094 0.29777 0.0
O137 O 0.32454 0.7649 0.31852 0.0
O138 O 0.26776 0.71025 0.29238 0.0
O139 O 0.25498 0.7502 0.31221 0.0
C140 C 0.2382 0.70942 0.21481 0.0
O141 O 0.3547 0.73601 0.26349 0.0
O142 O 0.321 0.69754 0.28217 0.0
C143 C 0.30344 0.78058 0.21458 0.0
C144 C 0.22404 0.82429 0.28888 0.0
C145 C 0.23109 0.8668 0.34459 0.0
C146 C 0.22731 0.87447 0.30959 0.0
C147 C 0.22366 0.85311 0.28164 0.0
C148 C 0.23101 0.81778 0.32431 0.0
C149 C 0.23436 0.839 0.35214 0.0
C150 C 0.22185 0.80251 0.26006 0.0
C151 C 0.32396 0.79263 0.32155 0.0
H152 H 0.32957 0.61103 0.21851 0.0
H153 H 0.33633 0.64734 0.26918 0.0
H154 H 0.35718 0.72073 0.20258 0.0
H155 H 0.35228 0.68503 0.15291 0.0
H156 H 0.22414 0.89583 0.30369 0.0
H157 H 0.2197 0.85873 0.25446 0.0
H158 H 0.23282 0.796 0.33047 0.0
H159 H 0.23653 0.83272 0.37911 0.0
Tb160 Tb 0.25639 0.77207 0.7646 0.0
Tb161 Tb 0.29956 0.72971 0.77512 0.0
C162 C 0.32257 0.79279 0.82273 0.0
C163 C 0.23392 0.83332 0.73368 0.0
C164 C 0.24499 0.87936 0.68879 0.0
C165 C 0.23587 0.8836 0.72148 0.0
C166 C 0.23025 0.86055 0.74367 0.0
C167 C 0.24781 0.83094 0.7044 0.0
C168 C 0.2549 0.85443 0.6832 0.0
C169 C 0.22559 0.80794 0.7547 0.0
O170 O 0.28553 0.78178 0.72413 0.0
O171 O 0.32814 0.76577 0.74875 0.0
O172 O 0.26791 0.71616 0.72149 0.0
O173 O 0.22475 0.72788 0.73323 0.0
O174 O 0.33751 0.71553 0.80198 0.0
O175 O 0.30295 0.68924 0.75422 0.0
O176 O 0.25597 0.70854 0.79646 0.0
O177 O 0.24541 0.75103 0.81132 0.0
O178 O 0.30549 0.8012 0.79578 0.0
O179 O 0.31894 0.76369 0.82334 0.0
C180 C 0.31556 0.7813 0.72625 0.0
O181 O 0.21527 0.78105 0.73661 0.0
O182 O 0.24805 0.81068 0.78354 0.0
C183 C 0.23607 0.71159 0.71416 0.0
C184 C 0.31322 0.66273 0.8017 0.0
C185 C 0.30687 0.62171 0.85162 0.0
C186 C 0.31611 0.61509 0.82012 0.0
C187 C 0.32066 0.63654 0.7956 0.0
C188 C 0.2954 0.66422 0.8278 0.0
C189 C 0.29019 0.64235 0.85149 0.0
C190 C 0.3246 0.68908 0.78244 0.0
C191 C 0.24236 0.72281 0.81478 0.0
H192 H 0.22934 0.9029 0.72855 0.0
H193 H 0.22121 0.86328 0.76738 0.0
H194 H 0.25158 0.81026 0.69663 0.0
H195 H 0.26438 0.85104 0.66011 0.0
H196 H 0.327 0.59766 0.81855 0.0
H197 H 0.33274 0.63417 0.77426 0.0
H198 H 0.28943 0.68421 0.83271 0.0
H199 H 0.28154 0.64689 0.87487 0.0
Tb200 Tb 0.30146 0.25643 0.74118 0.0
Tb201 Tb 0.25276 0.25223 0.79753 0.0
C202 C 0.31985 0.30772 0.80336 0.0
C203 C 0.34983 0.23183 0.68471 0.0
C204 C 0.37815 0.19052 0.66287 0.0
C205 C 0.39855 0.21991 0.67922 0.0
C206 C 0.38449 0.24047 0.68976 0.0
C207 C 0.32939 0.2022 0.66851 0.0
C208 C 0.34348 0.18179 0.65745 0.0
C209 C 0.33569 0.25403 0.69638 0.0
O210 O 0.32403 0.24142 0.78958 0.0
O211 O 0.27787 0.21961 0.81251 0.0
O212 O 0.22524 0.22039 0.75037 0.0
O213 O 0.26876 0.20953 0.73773 0.0
O214 O 0.24636 0.25651 0.84994 0.0
O215 O 0.20415 0.24167 0.80536 0.0
O216 O 0.24542 0.28698 0.76405 0.0
O217 O 0.26317 0.27394 0.71535 0.0
O218 O 0.32031 0.30175 0.76993 0.0
O219 O 0.29906 0.28928 0.81982 0.0
C220 C 0.30897 0.22353 0.81136 0.0
O221 O 0.30336 0.24591 0.68837 0.0
O222 O 0.34849 0.26768 0.72886 0.0
C223 C 0.23689 0.20266 0.73447 0.0
C224 C 0.20256 0.27464 0.85191 0.0
C225 C 0.17776 0.31902 0.87265 0.0
C226 C 0.15709 0.28817 0.86547 0.0
C227 C 0.16947 0.2661 0.85531 0.0
C228 C 0.22316 0.30564 0.85885 0.0
C229 C 0.21088 0.32764 0.86944 0.0
C230 C 0.21468 0.25135 0.83924 0.0
C231 C 0.24635 0.28766 0.73005 0.0
H232 H 0.42537 0.22704 0.68348 0.0
H233 H 0.40073 0.26318 0.70199 0.0
H234 H 0.30256 0.19473 0.66436 0.0
H235 H 0.32739 0.15908 0.64509 0.0
H236 H 0.13142 0.28121 0.86779 0.0
H237 H 0.15311 0.24239 0.84971 0.0
H238 H 0.24864 0.31288 0.85582 0.0
H239 H 0.22706 0.35142 0.87467 0.0
Tb240 Tb 0.80037 0.2323 0.77969 0.0
Tb241 Tb 0.75271 0.27188 0.75747 0.0
C242 C 0.7368 0.22152 0.81077 0.0
C243 C 0.83679 0.17946 0.76095 0.0
C244 C 0.83818 0.14357 0.70216 0.0
C245 C 0.84771 0.13651 0.73695 0.0
C246 C 0.84691 0.15445 0.76641 0.0
C247 C 0.82677 0.18593 0.72619 0.0
C248 C 0.82735 0.16815 0.69707 0.0
C249 C 0.83305 0.1977 0.79012 0.0
O250 O 0.75949 0.20588 0.73695 0.0
O251 O 0.74402 0.24248 0.70893 0.0
O252 O 0.7981 0.29532 0.73964 0.0
O253 O 0.81721 0.25596 0.73476 0.0
O254 O 0.70524 0.27513 0.74375 0.0
O255 O 0.74965 0.31463 0.74834 0.0
O256 O 0.78006 0.28734 0.81258 0.0
O257 O 0.82614 0.27559 0.81093 0.0
O258 O 0.76832 0.22418 0.81799 0.0
O259 O 0.72476 0.2344 0.78428 0.0
C260 C 0.74571 0.21517 0.70851 0.0
O261 O 0.8469 0.2271 0.79014 0.0
O262 O 0.80246 0.19007 0.79353 0.0
C263 C 0.8174 0.28323 0.7274 0.0
C264 C 0.70819 0.32063 0.77333 0.0
C265 C 0.69257 0.35088 0.8275 0.0
C266 C 0.67745 0.35049 0.79148 0.0
C267 C 0.68541 0.33547 0.76436 0.0
C268 C 0.72308 0.32122 0.80914 0.0
C269 C 0.71592 0.33659 0.83585 0.0
C270 C 0.71774 0.30484 0.74638 0.0
C271 C 0.81159 0.29186 0.82443 0.0
H272 H 0.85633 0.1176 0.74131 0.0
H273 H 0.85402 0.14886 0.79314 0.0
H274 H 0.81787 0.20451 0.72137 0.0
H275 H 0.81934 0.17365 0.6705 0.0
H276 H 0.65925 0.36133 0.78437 0.0
H277 H 0.67377 0.33526 0.73671 0.0
H278 H 0.74049 0.30989 0.81669 0.0
H279 H 0.72875 0.3372 0.86315 0.0
Tb280 Tb 0.77766 0.77784 0.80004 0.0
Tb281 Tb 0.77358 0.72839 0.73137 0.0
C282 C 0.82719 0.79469 0.74644 0.0
C283 C 0.76163 0.83029 0.86561 0.0
C284 C 0.72757 0.86439 0.89277 0.0
C285 C 0.75407 0.8787 0.87666 0.0
C286 C 0.77109 0.86189 0.8635 0.0
C287 C 0.73486 0.81593 0.88149 0.0
C288 C 0.71809 0.83285 0.89501 0.0
C289 C 0.78119 0.81314 0.85344 0.0
O290 O 0.74328 0.78637 0.75725 0.0
O291 O 0.73937 0.75153 0.71028 0.0
O292 O 0.74443 0.70514 0.76796 0.0
O293 O 0.72869 0.74313 0.78803 0.0
O294 O 0.77269 0.71667 0.67778 0.0
O295 O 0.76299 0.68228 0.71391 0.0
O296 O 0.81758 0.73151 0.77071 0.0
O297 O 0.80325 0.74741 0.82047 0.0
O298 O 0.81478 0.80294 0.77186 0.0
O299 O 0.8171 0.76695 0.73016 0.0
C300 C 0.7317 0.77372 0.72398 0.0
O301 O 0.76914 0.78343 0.85135 0.0
O302 O 0.79446 0.82229 0.82652 0.0
C303 C 0.72451 0.71426 0.78287 0.0
C304 C 0.78825 0.67368 0.66771 0.0
C305 C 0.82567 0.64426 0.63859 0.0
C306 C 0.79375 0.62749 0.64351 0.0
C307 C 0.77527 0.64206 0.65778 0.0
C308 C 0.82025 0.69062 0.6633 0.0
C309 C 0.83875 0.67604 0.64879 0.0
C310 C 0.76758 0.68812 0.68214 0.0
C311 C 0.82053 0.73467 0.80537 0.0
H312 H 0.76204 0.90304 0.87488 0.0
H313 H 0.79196 0.87372 0.85202 0.0
H314 H 0.72706 0.79169 0.88384 0.0
H315 H 0.69754 0.82125 0.90707 0.0
H316 H 0.78312 0.60295 0.63675 0.0
H317 H 0.75071 0.62855 0.66112 0.0
H318 H 0.83089 0.71507 0.67088 0.0
H319 H 0.86313 0.68974 0.64518 0.0
Cd320 Cd 0.9884 0.9735 0.55164 0.0
Cd321 Cd 0.06417 0.03596 0.48506 0.0
C322 C 0.02672 0.9356 0.581 0.0
N323 N 0.0118 0.93814 0.54751 0.0
C324 C 0.0336 0.90454 0.52205 0.0
C325 C 0.05106 0.90343 0.55636 0.0
C326 C 0.04634 0.91791 0.58615 0.0
C327 C 0.01331 0.92206 0.51819 0.0
H328 H 0.02476 0.94878 0.60359 0.0
H329 H 1.00065 0.92433 0.49194 0.0
C330 C 0.99335 -0.01427 0.4621 0.0
C331 C 0.03006 0.07933 0.45798 0.0
C332 C 1.00742 0.09406 0.45583 0.0
C333 C 1.00016 0.10309 0.48739 0.0
C334 C 0.01998 0.10248 0.52043 0.0
C335 C 0.04283 0.0878 0.52131 0.0
N336 N 0.04513 0.07461 0.49034 0.0
H337 H 0.0329 0.06867 0.43397 0.0
H338 H 0.05588 0.08425 0.54658 0.0
C339 C 0.07098 0.97275 0.4843 0.0
N340 N 0.08881 0.00185 0.49936 0.0
C341 C 0.13973 -0.00628 0.50416 0.0
C342 C 0.12199 0.96473 0.48538 0.0
C343 C 0.08732 0.95343 0.47701 0.0
C344 C 0.12238 0.01232 0.51073 0.0
H345 H 0.0446 0.96578 0.47379 0.0
H346 H 0.13591 0.03611 0.52046 0.0
C347 C 0.05691 0.02947 0.57668 0.0
C348 C 0.94891 0.93875 0.59424 0.0
N349 N 0.95393 -0.00169 0.53162 0.0
C350 C 0.97014 0.02879 0.53916 0.0
C351 C 0.95259 0.04751 0.54383 0.0
C352 C 0.91812 0.03462 0.54001 0.0
C353 C 0.90144 0.00348 0.52797 0.0
C354 C 0.92023 -0.0147 0.52433 0.0
C355 C 0.11017 0.06796 0.44676 0.0
O356 O 1.00266 -0.01 0.49578 0.0
O357 O 0.01279 0.00234 0.44447 0.0
O358 O 0.05172 0.02415 0.54313 0.0
O359 O 0.03567 0.01261 0.5923 0.0
O360 O 0.94336 0.93008 0.56103 0.0
O361 O 0.97145 0.96456 0.6065 0.0
O362 O 0.11316 0.0772 0.47929 0.0
O363 O 0.08666 0.0432 0.4329 0.0
H364 H 0.99695 0.03798 0.54582 0.0
H365 H 0.90834 0.96073 0.51961 0.0
H366 H 0.03743 0.89382 0.49867 0.0
H367 H 0.06026 0.91798 0.61282 0.0
H368 H 0.99246 0.09448 0.42994 0.0
H369 H 0.01513 0.10986 0.54512 0.0
H370 H 0.16668 0.00298 0.50999 0.0
H371 H 0.07334 0.93134 0.46163 0.0
H372 H 0.966 0.07138 0.55357 0.0
H373 H 0.87487 -0.00715 0.52558 0.0
Cd374 Cd 0.50094 -0.00357 0.10609 0.0
Cd375 Cd 0.52852 0.05102 0.98893 0.0
C376 C 0.56721 0.97178 0.15867 0.0
N377 N 0.54349 0.96405 0.12702 0.0
C378 C 0.56168 0.91993 0.11757 0.0
C379 C 0.58639 0.9271 0.15029 0.0
C380 C 0.58819 0.95424 0.17034 0.0
C381 C 0.54113 0.93807 0.10681 0.0
H382 H 0.57018 -0.00818 0.17581 0.0
H383 H 0.52283 0.93068 0.08177 0.0
C384 C 0.47211 -0.02115 8e-05 0.0
C385 C 0.45877 0.05866 0.94571 0.0
C386 C 0.43689 0.07349 0.93152 0.0
C387 C 0.44406 0.1045 0.94295 0.0
C388 C 0.47311 0.11927 0.96973 0.0
C389 C 0.49428 0.10357 0.98322 0.0
N390 N 0.48708 0.07385 0.97089 0.0
H391 H 0.45356 0.0352 0.9358 0.0
H392 H 0.51717 0.1155 0.00274 0.0
C393 C 0.54486 -0.00423 0.95167 0.0
N394 N 0.55535 0.01679 0.98089 0.0
C395 C 0.60284 0.00275 0.00139 0.0
C396 C 0.59301 -0.01883 0.97118 0.0
C397 C 0.56332 0.97752 0.94636 0.0
C398 C 0.58357 0.02041 0.00568 0.0
H399 H 0.5226 -0.00631 0.93207 0.0
H400 H 0.59152 0.03757 0.02844 0.0
C401 C 0.55566 0.05565 0.08346 0.0
C402 C 0.45106 0.95252 0.12629 0.0
N403 N 0.47064 0.03557 0.12749 0.0
C404 C 0.48574 0.06676 0.1364 0.0
C405 C 0.46856 0.08599 0.14708 0.0
C406 C 0.43452 0.07437 0.14965 0.0
C407 C 0.41973 0.04216 0.14009 0.0
C408 C 0.43758 0.02379 0.12922 0.0
C409 C 0.57551 0.09067 0.95122 0.0
O410 O 0.48154 -0.01537 0.03459 0.0
O411 O 0.48388 -0.00094 0.97987 0.0
O412 O 0.53486 0.04684 0.05362 0.0
O413 O 0.5488 0.04213 0.11047 0.0
O414 O 0.44874 0.95722 0.09366 0.0
O415 O 0.47737 0.96831 0.14932 0.0
O416 O 0.58053 0.09409 0.9852 0.0
O417 O 0.54879 0.06938 0.935 0.0
H418 H 0.5116 0.07741 0.1354 0.0
H419 H 0.42415 -0.00041 0.122 0.0
H420 H 0.55754 0.89992 0.09979 0.0
H421 H 0.60594 0.96247 0.19559 0.0
H422 H 0.41472 0.06075 0.91142 0.0
H423 H 0.48025 0.14316 0.97928 0.0
H424 H 0.62534 0.00616 0.02135 0.0
H425 H 0.55503 0.96149 0.92243 0.0
H426 H 0.48253 0.11018 0.15386 0.0
H427 H 0.39381 0.03073 0.14036 0.0
Cd428 Cd 0.97888 0.48546 0.04288 0.0
Cd429 Cd 0.02152 0.54788 0.95917 0.0
C430 C 0.04456 0.47492 0.0295 0.0
N431 N 0.01251 0.45976 0.03129 0.0
C432 C 0.01981 0.41197 0.02668 0.0
C433 C 0.05344 0.42717 0.02687 0.0
C434 C 0.06579 0.45894 0.02767 0.0
C435 C 0.99987 0.42889 0.02972 0.0
H436 H 0.05422 0.49943 0.03128 0.0
H437 H 0.97451 0.4174 0.03181 0.0
C438 C 0.96029 0.49164 0.95161 0.0
C439 C 0.969 0.57066 0.9114 0.0
C440 C 0.94907 0.58764 0.90017 0.0
C441 C 0.94607 0.60884 0.92483 0.0
C442 C 0.96332 0.61214 0.96052 0.0
C443 C 0.98253 0.59416 0.97085 0.0
N444 N 0.98498 0.57399 0.94621 0.0
H445 H 0.97248 0.55535 0.89209 0.0
H446 H 0.99628 0.59695 -0.00183 0.0
C447 C 0.0271 0.48414 0.92702 0.0
N448 N 0.04387 0.51025 0.94975 0.0
C449 C 0.09286 0.49731 0.96156 0.0
C450 C 0.07585 0.46985 0.93899 0.0
C451 C 0.04255 0.46337 0.92164 0.0
C452 C 0.07622 0.5172 0.96672 0.0
H453 H 1.00201 0.47943 0.91228 0.0
H454 H 0.08913 0.53836 0.98417 0.0
C455 C 0.04295 0.54716 0.05784 0.0
C456 C 0.936 0.44199 0.07758 0.0
N457 N 0.94946 0.51722 0.03791 0.0
C458 C 0.9613 0.54064 0.06443 0.0
C459 C 0.94804 0.56345 0.06312 0.0
C460 C 0.92214 0.56189 0.03438 0.0
C461 C 0.90881 0.53658 0.00831 0.0
C462 C 0.923 0.51406 0.01074 0.0
C463 C 0.07013 0.58914 0.93058 0.0
O464 O 0.97709 0.49995 0.98332 0.0
O465 O 0.96933 0.50865 0.9281 0.0
O466 O 0.03111 0.54347 0.02428 0.0
O467 O 0.02839 0.52716 0.0765 0.0
O468 O 0.93171 0.43876 0.04374 0.0
O469 O 0.95993 0.46526 0.09476 0.0
O470 O 0.06908 0.59398 0.96301 0.0
O471 O 0.04815 0.56548 0.91199 0.0
H472 H 0.98126 0.54173 0.08653 0.0
H473 H 0.91326 0.49441 -0.00917 0.0
H474 H 1.00971 0.38748 0.02716 0.0
H475 H 0.09188 0.47126 0.02879 0.0
H476 H 0.93718 0.585 0.87214 0.0
H477 H 0.96235 0.62881 0.97999 0.0
H478 H 0.11857 0.50313 0.97547 0.0
H479 H 0.02884 0.44286 0.90322 0.0
H480 H 0.95796 0.58222 0.08438 0.0
H481 H 0.88827 0.5346 0.98628 0.0
Cd482 Cd 0.4948 0.47145 0.05106 0.0
Cd483 Cd 0.56512 0.54413 0.98631 0.0
C484 C 0.53606 0.44318 0.01371 0.0
N485 N 0.50689 0.43373 0.02434 0.0
C486 C 0.50414 0.38222 0.02033 0.0
C487 C 0.53665 0.39244 0.01499 0.0
C488 C 0.55105 0.42246 0.00778 0.0
C489 C 0.48952 0.4037 0.02519 0.0
H490 H 0.54962 0.46722 0.01405 0.0
H491 H 0.46625 0.39679 0.03359 0.0
C492 C 0.49877 0.48547 0.95999 0.0
C493 C 0.5111 0.5662 0.0024 0.0
C494 C 0.4924 0.58481 -0.0006 0.0
C495 C 0.50822 0.6162 -0.00051 0.0
C496 C 0.54293 0.62885 0.0059 0.0
C497 C 0.5609 0.60924 0.00923 0.0
N498 N 0.54441 0.57853 0.00597 0.0
H499 H 0.49876 0.5418 -0.00254 0.0
H500 H 0.5873 0.61823 0.01041 0.0
C501 C 0.59529 0.50306 0.95792 0.0
N502 N 0.59945 0.51669 -0.00895 0.0
C503 C 0.63341 0.48911 0.01664 0.0
C504 C 0.62763 0.4735 0.98278 0.0
C505 C 0.60938 0.48145 0.95309 0.0
C506 C 0.61873 0.51096 0.02027 0.0
H507 H 0.57984 0.50825 0.93536 0.0
H508 H 0.62168 0.52225 0.04632 0.0
C509 C 0.56457 0.52493 0.07373 0.0
C510 C 0.45584 0.43689 0.09504 0.0
N511 N 0.46595 0.50295 0.04036 0.0
C512 C 0.47662 0.52747 0.06531 0.0
C513 C 0.45916 0.54715 0.06419 0.0
C514 C 0.43055 0.54145 0.03693 0.0
C515 C 0.421 0.51668 0.01053 0.0
C516 C 0.43906 0.49731 0.013 0.0
C517 C 0.59773 0.58258 0.9419 0.0
O518 O 0.50431 0.48885 -0.00627 0.0
O519 O 0.5175 0.50588 0.94514 0.0
O520 O 0.55362 0.52239 0.04042 0.0
O521 O 0.54751 0.5055 0.09099 0.0
O522 O 0.44508 0.43327 0.06132 0.0
O523 O 0.48454 0.45667 0.10806 0.0
O524 O 0.61138 0.58528 0.975 0.0
O525 O 0.56914 0.56207 0.9304 0.0
H526 H 0.49802 0.53098 0.08681 0.0
H527 H 0.43097 0.4774 -0.00618 0.0
H528 H 0.49267 0.35916 0.02644 0.0
H529 H 0.57649 0.43115 0.00504 0.0
H530 H 0.46554 0.57451 -0.00786 0.0
H531 H 0.5555 0.65295 0.00471 0.0
H532 H 0.64763 0.48348 0.03995 0.0
H533 H 0.60512 0.47028 0.92646 0.0
H534 H 0.46701 0.56561 0.08555 0.0
H535 H 0.39912 0.51169 0.98913 0.0
Cd536 Cd 0.02246 0.45366 0.54602 0.0
Cd537 Cd 0.05205 0.51014 0.4313 0.0
C538 C 0.09506 0.44756 0.58423 0.0
N539 N 0.06416 0.43111 0.56418 0.0
C540 C 0.07595 0.38479 0.57029 0.0
C541 C 0.10791 0.40093 0.59186 0.0
C542 C 0.11736 0.43301 0.59802 0.0
C543 C 0.05462 0.40029 0.55675 0.0
H544 H 0.10223 0.47199 0.5903 0.0
H545 H 0.02982 0.38747 0.54122 0.0
C546 C 0.99993 0.44811 0.45131 0.0
C547 C 0.99058 0.53856 0.37682 0.0
C548 C 0.97013 0.55654 0.36517 0.0
C549 C 0.96693 0.57959 0.38817 0.0
C550 C 0.98604 0.5822 0.42371 0.0
C551 C 1.00626 0.56376 0.43435 0.0
N552 N 1.00887 0.54184 0.41127 0.0
H553 H 0.99189 0.52199 0.35735 0.0
H554 H 0.02037 0.56771 0.46167 0.0
C555 C 0.07231 0.45505 0.37632 0.0
N556 N 0.08272 0.47185 0.40946 0.0
C557 C 0.12831 0.45077 0.41997 0.0
C558 C 0.11838 0.4332 0.38577 0.0
C559 C 0.08925 0.43618 0.36437 0.0
C560 C 0.11072 0.46943 0.43092 0.0
H561 H 0.05056 0.45615 0.35826 0.0
H562 H 0.12021 0.48232 0.45714 0.0
C563 C 0.07807 0.52769 0.53738 0.0
C564 C 0.97527 0.41453 0.58404 0.0
N565 N 0.99725 0.48911 0.5549 0.0
C566 C 1.00101 0.50194 0.58849 0.0
C567 C 0.98283 0.52018 0.59469 0.0
C568 C 0.96069 0.52535 0.56604 0.0
C569 C 0.9583 0.51279 0.53144 0.0
C570 C 0.97676 0.49444 0.52649 0.0
C571 C 0.09689 0.55557 0.40664 0.0
O572 O 0.01879 0.45881 0.48191 0.0
O573 O 1.0065 0.46225 0.42462 0.0
O574 O 0.07111 0.5242 0.50271 0.0
O575 O 0.06468 0.50601 0.55512 0.0
O576 O 0.96942 0.4119 0.55 0.0
O577 O 1.00277 0.43485 0.60015 0.0
O578 O 0.10397 0.54937 0.43847 0.0
O579 O 0.06919 0.5395 0.38603 0.0
H580 H 0.01748 0.49733 0.61059 0.0
H581 H 0.97396 0.48367 0.5001 0.0
H582 H 0.06671 0.36018 0.56489 0.0
H583 H 0.14171 0.44698 0.61363 0.0
H584 H 0.95686 0.55196 0.33757 0.0
H585 H 0.98605 0.59888 0.44388 0.0
H586 H 0.15022 0.45073 0.43864 0.0
H587 H 0.07891 0.42375 0.33799 0.0
H588 H 0.98569 0.5298 0.6217 0.0
H589 H 0.94137 0.51609 0.5087 0.0
Cd590 Cd 0.53217 0.96054 0.57989 0.0
Cd591 Cd 0.5794 0.02243 0.49776 0.0
C592 C 0.59232 0.9418 0.62055 0.0
N593 N 0.57039 0.93595 0.5885 0.0
C594 C 0.58717 0.89536 0.57041 0.0
C595 C 0.60953 0.9004 0.60363 0.0
C596 C 0.6124 0.92437 0.62861 0.0
C597 C 0.56777 0.91359 0.56331 0.0
H598 H 0.59321 0.95913 0.64048 0.0
H599 H 0.54974 0.90922 0.53824 0.0
C600 C 0.51782 0.95783 0.4803 0.0
C601 C 0.51044 0.02899 0.49839 0.0
C602 C 0.48834 0.04427 0.49677 0.0
C603 C 0.50073 0.07561 0.50781 0.0
C604 C 0.53412 0.08989 0.52581 0.0
C605 C 0.55542 0.0735 0.52729 0.0
N606 N 0.54343 0.04418 0.51172 0.0
H607 H 0.50138 0.00585 0.4861 0.0
H608 H 0.58187 0.085 0.53751 0.0
C609 C 0.61131 -0.01969 0.47499 0.0
N610 N 0.61359 -0.00509 0.50694 0.0
C611 C 0.63839 0.9626 0.53824 0.0
C612 C 0.63266 0.94525 0.50567 0.0
C613 C 0.621 0.9553 0.47368 0.0
C614 C 0.62852 -0.01214 0.53829 0.0
H615 H 0.59935 -0.01339 0.45071 0.0
H616 H 0.63078 0.00017 0.56344 0.0
C617 C 0.58911 0.02112 0.5888 0.0
C618 C 0.48264 0.91797 0.60686 0.0
N619 N 0.50818 -0.00323 0.58814 0.0
C620 C 0.51938 0.01651 0.61865 0.0
C621 C 0.50526 0.03837 0.62337 0.0
C622 C 0.47818 0.03873 0.59741 0.0
C623 C 0.46546 0.01681 0.56741 0.0
C624 C 0.48123 -0.00398 0.56308 0.0
C625 C 0.61612 0.06779 0.45934 0.0
O626 O 0.52628 0.96222 0.5143 0.0
O627 O 0.5344 0.97754 0.46268 0.0
O628 O 0.57648 0.00975 0.55675 0.0
O629 O 0.57946 0.00475 0.61264 0.0
O630 O 0.4809 0.91748 0.57348 0.0
O631 O 0.50833 0.93734 0.62734 0.0
O632 O 0.62142 0.07166 0.49318 0.0
O633 O 0.59329 0.04323 0.44354 0.0
H634 H 0.539 0.01521 0.6397 0.0
H635 H 0.472 -0.02078 0.53982 0.0
H636 H 0.58419 0.8771 0.55048 0.0
H637 H 0.62874 0.92864 0.65484 0.0
H638 H 0.46257 0.03261 0.48309 0.0
H639 H 0.54442 0.11418 0.5345 0.0
H640 H 0.64794 0.95545 0.56322 0.0
H641 H 0.61715 0.9426 0.44806 0.0
H642 H 0.51482 0.05436 0.64745 0.0
H643 H 0.44403 0.01619 0.54735 0.0
C644 C 0.23778 0.1808 0.35156 0.0
C645 C 0.22324 0.18502 0.31728 0.0
C646 C 0.21897 0.16031 0.37147 0.0
C647 C 0.185 0.14339 0.35647 0.0
C648 C 0.17038 0.14683 0.32143 0.0
C649 C 0.1897 0.16779 0.30227 0.0
C650 C 0.23518 0.15744 0.40899 0.0
C651 C 0.13418 0.12915 0.30463 0.0
C652 C 0.14404 0.07432 0.40105 0.0
C653 C 0.13026 0.08702 0.42451 0.0
C654 C 0.1618 0.09238 0.37833 0.0
C655 C 0.16456 0.12335 0.37842 0.0
C656 C 0.14942 0.13581 0.40117 0.0
C657 C 0.133 0.11758 0.42454 0.0
C658 C 0.17797 0.07853 0.35464 0.0
C659 C 0.15067 0.16838 0.40098 0.0
H660 H 0.26363 0.19424 0.36335 0.0
H661 H 0.17841 0.17092 0.27566 0.0
H662 H 0.22298 0.16502 0.42831 0.0
H663 H 0.2319 0.13321 0.41199 0.0
H664 H 0.26219 0.1713 0.41617 0.0
H665 H 0.12731 0.13293 0.27626 0.0
H666 H 0.1285 0.10435 0.30602 0.0
H667 H 0.11824 0.13613 0.31964 0.0
H668 H 0.14134 0.05045 0.40092 0.0
H669 H 0.12137 0.12693 0.44213 0.0
H670 H 0.2053 0.09087 0.36153 0.0
H671 H 0.16893 0.08106 0.32631 0.0
H672 H 0.1729 0.05393 0.35728 0.0
H673 H 0.17664 0.18425 0.41139 0.0
H674 H 0.13466 0.17343 0.41755 0.0
H675 H 0.14253 0.1731 0.37332 0.0
C676 C 0.83015 0.11108 0.39172 0.0
C677 C 0.84197 0.11432 0.36022 0.0
C678 C 0.84877 0.1049 0.42258 0.0
C679 C 0.87984 0.10261 0.42154 0.0
C680 C 0.89032 0.10323 0.38887 0.0
C681 C 0.87092 0.10868 0.35853 0.0
C682 C 0.83593 0.10191 0.45636 0.0
C683 C 0.92326 0.10055 0.38622 0.0
C684 C 0.96044 0.13024 0.48591 0.0
C685 C 0.96658 0.10304 0.48495 0.0
C686 C 0.92864 0.13009 0.47056 0.0
C687 C 0.90334 0.10204 0.45434 0.0
C688 C 0.90816 0.07422 0.45976 0.0
C689 C 0.94026 0.07513 0.47375 0.0
C690 C 0.92419 0.16029 0.46579 0.0
C691 C 0.88142 0.04387 0.44421 0.0
H692 H 0.80738 0.11505 0.39268 0.0
H693 H 0.88018 0.11143 0.33427 0.0
H694 H 0.83235 0.07872 0.46425 0.0
H695 H 0.85431 0.11833 0.47864 0.0
H696 H 0.81189 0.10564 0.45307 0.0
H697 H 0.92785 0.10267 0.35889 0.0
H698 H 0.94406 0.11862 0.40482 0.0
H699 H 0.92392 0.07814 0.39362 0.0
H700 H 0.98105 0.15169 0.49468 0.0
H701 H 0.94541 0.05412 0.47255 0.0
H702 H 0.89874 0.15885 0.46724 0.0
H703 H 0.928 0.1667 0.43907 0.0
H704 H 0.94251 0.17867 0.48627 0.0
H705 H 0.85647 0.04397 0.44566 0.0
H706 H 0.88591 0.02495 0.45826 0.0
H707 H 0.88139 0.03923 0.4157 0.0
C708 C 0.82819 0.85084 0.3558 0.0
C709 C 0.83896 0.82785 0.34485 0.0
C710 C 0.8507 0.87688 0.37815 0.0
C711 C 0.88419 0.87923 0.39026 0.0
C712 C 0.8944 0.8549 0.38134 0.0
C713 C 0.87171 0.82965 0.3582 0.0
C714 C 0.8392 0.90256 0.38716 0.0
C715 C 0.92962 0.8561 0.39499 0.0
C716 C 0.95396 0.95574 0.40663 0.0
C717 C 0.96281 0.96054 0.44396 0.0
C718 C 0.92747 0.92983 0.38885 0.0
C719 C 0.90952 0.90824 0.40898 0.0
C720 C 0.9176 0.91342 0.44667 0.0
C721 C 0.94401 0.93977 0.46373 0.0
C722 C 0.91971 0.92486 0.34855 0.0
C723 C 0.89909 0.89081 0.469 0.0
H724 H 0.80273 0.8492 0.34538 0.0
H725 H 0.8797 0.81144 0.35009 0.0
H726 H 0.84571 0.90894 0.41645 0.0
H727 H 0.85221 0.92302 0.37501 0.0
H728 H 0.81194 0.89643 0.37736 0.0
H729 H 0.93246 0.83396 0.38864 0.0
H730 H 0.94688 0.87394 0.38282 0.0
H731 H 0.93732 0.86236 0.42435 0.0
H732 H 0.96838 0.97177 0.39122 0.0
H733 H 0.95079 0.94336 0.49258 0.0
H734 H 0.89281 0.91977 0.33759 0.0
H735 H 0.92556 0.90489 0.33977 0.0
H736 H 0.93422 0.94499 0.33689 0.0
H737 H 0.8741 0.89219 0.4672 0.0
H738 H 0.91229 0.89539 0.49754 0.0
H739 H 0.89549 0.8671 0.45907 0.0
C740 C 0.23961 0.90598 0.39413 0.0
C741 C 0.21865 0.88138 0.36919 0.0
C742 C 0.22589 0.92046 0.41579 0.0
C743 C 0.19089 0.90993 0.41126 0.0
C744 C 0.16991 0.88472 0.38625 0.0
C745 C 0.18426 0.87046 0.36572 0.0
C746 C 0.2485 0.94692 0.44316 0.0
C747 C 0.13237 0.8734 0.3803 0.0
C748 C 0.14522 0.92434 0.47794 0.0
C749 C 0.13941 0.95025 0.46678 0.0
C750 C 0.16514 0.91281 0.46216 0.0
C751 C 0.1756 0.92541 0.43196 0.0
C752 C 0.16747 0.95021 0.41881 0.0
C753 C 0.15026 0.96306 0.43729 0.0
C754 C 0.17439 0.88689 0.47728 0.0
C755 C 0.17569 0.96227 0.38465 0.0
H756 H 0.26627 0.91389 0.39634 0.0
H757 H 0.16858 0.85116 0.3461 0.0
H758 H 0.24325 0.9679 0.43695 0.0
H759 H 0.24363 0.94223 0.46999 0.0
H760 H 0.27523 0.95139 0.44416 0.0
H761 H 0.11993 0.85449 0.35821 0.0
H762 H 0.12462 0.86511 0.4049 0.0
H763 H 0.12322 0.89234 0.37398 0.0
H764 H 0.13462 0.91333 0.49901 0.0
H765 H 0.14441 -0.01739 0.42823 0.0
H766 H 0.20086 0.89056 0.47784 0.0
H767 H 0.15892 0.8651 0.46038 0.0
H768 H 0.17048 0.88458 0.50474 0.0
H769 H 0.20294 0.97029 0.38685 0.0
H770 H 0.16688 -0.01861 0.378 0.0
H771 H 0.16397 0.94367 0.36217 0.0
C772 C 0.22009 0.87522 0.62381 0.0
C773 C 0.23261 0.89315 0.65734 0.0
C774 C 0.19114 0.87541 0.6012 0.0
C775 C 0.1751 0.89439 0.61226 0.0
C776 C 0.19031 0.91558 0.64335 0.0
C777 C 0.22099 0.91682 0.66333 0.0
C778 C 0.17609 0.85232 0.56832 0.0
C779 C 0.17242 0.93406 0.65813 0.0
C780 C 0.10976 0.91765 0.55668 0.0
C781 C 0.0807 0.89543 0.5615 0.0
C782 C 0.1408 0.91615 0.57097 0.0
C783 C 0.14247 0.89249 0.59178 0.0
C784 C 0.11307 0.86924 0.5959 0.0
C785 C 0.08222 0.87088 0.58018 0.0
C786 C 0.17194 0.94038 0.56495 0.0
C787 C 0.11383 0.84349 0.61806 0.0
H788 H 0.22979 0.85807 0.61664 0.0
H789 H 0.23263 0.93303 0.68711 0.0
H790 H 0.16699 0.82908 0.57671 0.0
H791 H 0.15497 0.85575 0.55018 0.0
H792 H 0.19543 0.85292 0.55331 0.0
H793 H 0.18584 0.94596 0.68525 0.0
H794 H 0.16935 0.95146 0.64052 0.0
H795 H 0.14711 0.91885 0.65964 0.0
H796 H 0.10827 0.93743 0.544 0.0
H797 H 0.05949 0.85434 0.58466 0.0
H798 H 0.18632 0.92932 0.55223 0.0
H799 H 0.18855 0.95313 0.59039 0.0
H800 H 0.16628 0.95726 0.54802 0.0
H801 H 0.11446 0.8243 0.60078 0.0
H802 H 0.09119 0.83485 0.62906 0.0
H803 H 0.136 0.85042 0.64057 0.0
C804 C 0.19307 0.18529 0.67939 0.0
C805 C 0.21399 0.17826 0.70737 0.0
C806 C 0.16978 0.16227 0.6537 0.0
C807 C 0.16676 0.13159 0.65719 0.0
C808 C 0.18884 0.1246 0.68476 0.0
C809 C 0.21269 0.14826 0.70942 0.0
C810 C 0.14737 0.17074 0.62409 0.0
C811 C 0.18608 0.09204 0.68927 0.0
C812 C 0.08218 0.06973 0.62825 0.0
C813 C 0.08477 0.05606 0.59654 0.0
C814 C 0.10833 0.09525 0.6474 0.0
C815 C 0.13806 0.10659 0.63504 0.0
C816 C 0.14059 0.09326 0.60265 0.0
C817 C 0.11351 0.06839 0.5834 0.0
C818 C 0.10429 0.10984 0.68108 0.0
C819 C 0.17188 0.10498 0.58862 0.0
H820 H 0.19484 0.20883 0.67777 0.0
H821 H 0.22928 0.14323 0.73115 0.0
H822 H 0.14359 0.15714 0.59834 0.0
H823 H 0.12263 0.16579 0.63047 0.0
H824 H 0.15761 0.19538 0.62071 0.0
H825 H 0.20668 0.09067 0.71038 0.0
H826 H 0.16213 0.07958 0.69651 0.0
H827 H 0.18608 0.08015 0.66378 0.0
H828 H 0.0595 0.06071 0.63785 0.0
H829 H 0.11493 0.05829 0.55837 0.0
H830 H 0.10905 0.13447 0.67931 0.0
H831 H 0.12279 0.10806 0.70433 0.0
H832 H 0.07899 0.09902 0.68607 0.0
H833 H 0.17752 0.12933 0.58438 0.0
H834 H 0.16978 0.09181 0.56306 0.0
H835 H 0.19331 0.1037 0.60853 0.0
C836 C 0.82971 0.09499 0.66668 0.0
C837 C 0.84155 0.12688 0.67105 0.0
C838 C 0.83591 0.07927 0.6389 0.0
C839 C 0.85461 0.0961 0.61562 0.0
C840 C 0.86436 0.12819 0.61832 0.0
C841 C 0.85779 0.14328 0.64623 0.0
C842 C 0.82514 0.04492 0.63646 0.0
C843 C 0.88466 0.14678 0.59409 0.0
C844 C 0.91682 0.06497 0.59251 0.0
C845 C 0.90185 0.05176 0.55728 0.0
C846 C 0.90169 0.07976 0.61146 0.0
C847 C 0.87061 0.08114 0.59472 0.0
C848 C 0.85527 0.06804 0.55905 0.0
C849 C 0.87119 0.05327 0.54055 0.0
C850 C 0.91875 0.0933 0.64968 0.0
C851 C 0.82226 0.06961 0.54064 0.0
H852 H 0.81656 0.08245 0.68559 0.0
H853 H 0.86702 0.16803 0.6498 0.0
H854 H 0.81483 0.03456 0.60829 0.0
H855 H 0.84706 0.03847 0.64683 0.0
H856 H 0.80618 0.03507 0.65226 0.0
H857 H 0.88518 0.17064 0.59563 0.0
H858 H 0.91065 0.14743 0.60204 0.0
H859 H 0.87466 0.13622 0.56598 0.0
H860 H 0.94014 0.06299 0.60572 0.0
H861 H 0.8597 0.04279 0.51335 0.0
H862 H 0.90272 0.08221 0.66791 0.0
H863 H 0.92291 0.11803 0.65292 0.0
H864 H 0.94316 0.09046 0.65825 0.0
H865 H 0.80438 0.06381 0.5583 0.0
H866 H 0.81114 0.05397 0.51539 0.0
H867 H 0.82587 0.09328 0.53442 0.0
C868 C 0.87779 0.81491 0.72222 0.0
C869 C 0.84988 0.81866 0.73106 0.0
C870 C 0.89631 0.83533 0.70197 0.0
C871 C 0.88556 0.85903 0.68928 0.0
C872 C 0.85761 0.86306 0.6987 0.0
C873 C 0.84041 0.84307 0.72011 0.0
C874 C 0.92663 0.83101 0.69326 0.0
C875 C 0.84481 0.88746 0.68462 0.0
C876 C 0.94218 0.927 0.65533 0.0
C877 C 0.93194 0.91868 0.61831 0.0
C878 C 0.92791 0.90736 0.67886 0.0
C879 C 0.90258 0.87897 0.66493 0.0
C880 C 0.89217 0.87035 0.6276 0.0
C881 C 0.9071 0.89034 0.60467 0.0
C882 C 0.93983 0.91701 0.71858 0.0
C883 C 0.86502 0.84022 0.61188 0.0
H884 H 0.88469 0.79571 0.7306 0.0
H885 H 0.81822 0.84531 0.72636 0.0
H886 H 0.92231 0.82492 0.6641 0.0
H887 H 0.94838 0.85265 0.70075 0.0
H888 H 0.93289 0.81279 0.70729 0.0
H889 H 0.82295 0.88772 0.6949 0.0
H890 H 0.86471 0.91028 0.69207 0.0
H891 H 0.8375 0.88357 0.65502 0.0
H892 H 0.96169 0.94875 0.66603 0.0
H893 H 0.89936 0.88372 0.57608 0.0
H894 H 0.94729 0.89918 0.73214 0.0
H895 H 0.91929 0.91954 0.72969 0.0
H896 H 0.96125 0.93897 0.72512 0.0
H897 H 0.87179 0.82109 0.62274 0.0
H898 H 0.86032 0.83677 0.5823 0.0
H899 H 0.84156 0.83906 0.61951 0.0
C900 C 0.31344 0.17598 0.19252 0.0
C901 C 0.32539 0.19404 0.22639 0.0
C902 C 0.33013 0.15733 0.17913 0.0
C903 C 0.36 0.15468 0.19979 0.0
C904 C 0.37177 0.1724 0.23426 0.0
C905 C 0.35518 0.1916 0.2465 0.0
C906 C 0.31508 0.14019 0.14231 0.0
C907 C 0.40219 0.17076 0.25901 0.0
C908 C 0.38692 0.08331 0.17753 0.0
C909 C 0.41505 0.09497 0.16196 0.0
C910 C 0.3694 0.10176 0.18946 0.0
C911 C 0.37865 0.13382 0.18601 0.0
C912 C 0.40631 0.14557 0.16935 0.0
C913 C 0.42387 0.12675 0.15834 0.0
C914 C 0.34039 0.08651 0.20595 0.0
C915 C 0.41705 0.17844 0.16208 0.0
H916 H 0.29082 0.17668 0.17571 0.0
H917 H 0.36559 0.20455 0.27268 0.0
H918 H 0.33455 0.13886 0.12844 0.0
H919 H 0.29904 0.11657 0.14455 0.0
H920 H 0.29936 0.15102 0.12563 0.0
H921 H 0.4074 0.18358 0.2857 0.0
H922 H 0.39892 0.14657 0.2624 0.0
H923 H 0.42416 0.18022 0.24719 0.0
H924 H 0.37857 0.05933 0.18119 0.0
H925 H 0.4445 0.13722 0.14599 0.0
H926 H 0.31705 0.08583 0.1878 0.0
H927 H 0.34296 0.09982 0.23154 0.0
H928 H 0.33808 0.06278 0.21093 0.0
H929 H 0.39574 0.1827 0.14519 0.0
H930 H 0.43805 0.18468 0.14836 0.0
H931 H 0.42466 0.19366 0.18747 0.0
C932 C 0.86671 0.32258 0.20858 0.0
C933 C 0.83249 0.31409 0.20649 0.0
C934 C 0.88207 0.34222 0.18536 0.0
C935 C 0.86266 0.35326 0.15915 0.0
C936 C 0.82791 0.34389 0.15614 0.0
C937 C 0.81333 0.32461 0.17995 0.0
C938 C 0.91923 0.3518 0.18942 0.0
C939 C 0.8062 0.35481 0.12838 0.0
C940 C 0.90943 0.4288 0.12909 0.0
C941 C 0.91483 0.4194 0.09658 0.0
C942 C 0.89128 0.40756 0.14892 0.0
C943 C 0.87911 0.37605 0.13646 0.0
C944 C 0.88379 0.36648 0.10313 0.0
C945 C 0.90131 0.38837 0.08334 0.0
C946 C 0.88572 0.41883 0.1836 0.0
C947 C 0.87124 0.33312 0.08895 0.0
H948 H 0.88161 0.31445 0.2289 0.0
H949 H 0.78673 0.31764 0.17759 0.0
H950 H 0.92499 0.3467 0.16358 0.0
H951 H 0.93107 0.37682 0.1971 0.0
H952 H 0.93057 0.34014 0.20995 0.0
H953 H 0.77928 0.34232 0.12645 0.0
H954 H 0.81161 0.37948 0.13533 0.0
H955 H 0.8116 0.35206 0.10173 0.0
H956 H 0.9195 0.45286 0.13908 0.0
H957 H 0.90556 0.38111 0.05819 0.0
H958 H 0.89836 0.40993 0.20615 0.0
H959 H 0.85877 0.41017 0.18339 0.0
H960 H 0.89524 0.44415 0.18855 0.0
H961 H 0.88456 0.32108 0.10687 0.0
H962 H 0.87494 0.3296 0.06158 0.0
H963 H 0.84438 0.32237 0.08856 0.0
C964 C 0.72731 0.83667 0.20878 0.0
C965 C 0.71704 0.8122 0.22976 0.0
C966 C 0.70723 0.85479 0.19542 0.0
C967 C 0.6745 0.84915 0.20173 0.0
C968 C 0.66374 0.82401 0.2221 0.0
C969 C 0.68456 0.8067 0.23575 0.0
C970 C 0.72139 0.8804 0.17416 0.0
C971 C 0.62934 0.81482 0.22921 0.0
C972 C 0.63176 0.91302 0.19727 0.0
C973 C 0.60926 0.90706 0.16315 0.0
C974 C 0.65246 0.89521 0.20938 0.0
C975 C 0.65212 0.8693 0.18794 0.0
C976 C 0.62964 0.86301 0.15348 0.0
C977 C 0.60936 0.88136 0.14188 0.0
C978 C 0.67529 0.90449 0.24592 0.0
C979 C 0.62703 0.83663 0.12801 0.0
H980 H 0.75168 0.84212 0.20289 0.0
H981 H 0.67482 0.78818 0.25111 0.0
H982 H 0.70588 0.87551 0.14658 0.0
H983 H 0.72073 0.90203 0.18614 0.0
H984 H 0.74741 0.88369 0.17283 0.0
H985 H 0.62345 0.79461 0.24421 0.0
H986 H 0.62691 0.83409 0.24466 0.0
H987 H 0.61063 0.80949 0.20351 0.0
H988 H 0.63349 0.93196 0.21539 0.0
H989 H 0.59341 0.87518 0.1154 0.0
H990 H 0.70131 0.90883 0.24375 0.0
H991 H 0.66854 0.8856 0.26272 0.0
H992 H 0.67419 0.92529 0.25961 0.0
H993 H 0.64943 0.84295 0.11656 0.0
H994 H 0.60473 0.83044 0.10568 0.0
H995 H 0.62604 0.81624 0.14211 0.0
C996 C 0.1791 0.68463 0.18212 0.0
C997 C 0.2126 0.68771 0.18544 0.0
C998 C 0.15378 0.66385 0.15573 0.0
C999 C 0.16188 0.64536 0.13191 0.0
C1000 C 0.19573 0.64948 0.1336 0.0
C1001 C 0.22079 0.67057 0.16053 0.0
C1002 C 0.1181 0.66058 0.15468 0.0
C1003 C 0.20529 0.63088 0.10774 0.0
C1004 C 0.09328 0.56816 0.10736 0.0
C1005 C 0.07505 0.57153 0.07453 0.0
C1006 C 0.12286 0.59135 0.12498 0.0
C1007 C 0.13453 0.61883 0.10959 0.0
C1008 C 0.11707 0.62191 0.0756 0.0
C1009 C 0.08743 0.59814 0.05844 0.0
C1010 C 0.14066 0.58702 0.16111 0.0
C1011 C 0.12845 0.65078 0.05814 0.0
H1012 H 0.17232 0.69804 0.20073 0.0
H1013 H 0.24661 0.67325 0.16238 0.0
H1014 H 0.10519 0.66175 0.12722 0.0
H1015 H 0.10469 0.63795 0.1625 0.0
H1016 H 0.11623 0.67853 0.17296 0.0
H1017 H 0.2326 0.63919 0.10983 0.0
H1018 H 0.19696 0.60667 0.1131 0.0
H1019 H 0.19264 0.63156 0.07996 0.0
H1020 H 0.08415 0.54745 0.1197 0.0
H1021 H 0.07334 0.60089 0.03313 0.0
H1022 H 0.13887 0.60298 0.18201 0.0
H1023 H 0.16746 0.59234 0.16189 0.0
H1024 H 0.13003 0.56337 0.16791 0.0
H1025 H 0.11895 0.66762 0.06874 0.0
H1026 H 0.11872 0.64644 0.02874 0.0
H1027 H 0.15599 0.66119 0.06392 0.0
C1028 C 0.33807 0.81828 0.8863 0.0
C1029 C 0.34549 0.81682 0.85252 0.0
C1030 C 0.3571 0.84315 0.91306 0.0
C1031 C 0.38503 0.86702 0.90653 0.0
C1032 C 0.39303 0.86508 0.87265 0.0
C1033 C 0.37292 0.84052 0.84605 0.0
C1034 C 0.34642 0.8445 0.94783 0.0
C1035 C 0.42271 0.88928 0.86421 0.0
C1036 C 0.41894 0.9486 0.95577 0.0
C1037 C 0.44669 0.94885 0.98158 0.0
C1038 C 0.39782 0.92191 0.93279 0.0
C1039 C 0.40507 0.89462 0.93421 0.0
C1040 C 0.43273 0.89459 0.96079 0.0
C1041 C 0.45288 0.92145 0.98428 0.0
C1042 C 0.36828 0.92332 0.90608 0.0
C1043 C 0.44218 0.86658 0.96316 0.0
H1044 H 0.31646 0.80054 0.89132 0.0
H1045 H 0.37863 0.83989 0.81993 0.0
H1046 H 0.36745 0.84728 0.97069 0.0
H1047 H 0.33901 0.86472 0.95057 0.0
H1048 H 0.32516 0.82374 0.9496 0.0
H1049 H 0.42732 0.88335 0.83798 0.0
H1050 H 0.4187 0.91138 0.86381 0.0
H1051 H 0.44533 0.89264 0.88528 0.0
H1052 H 0.41414 0.96969 0.953 0.0
H1053 H 0.47468 0.9215 0.00337 0.0
H1054 H 0.34558 0.90362 0.90683 0.0
H1055 H 0.37264 0.92192 0.87874 0.0
H1056 H 0.36357 0.94476 0.91112 0.0
H1057 H 0.42062 0.84653 0.96587 0.0
H1058 H 0.46331 0.86954 0.98604 0.0
H1059 H 0.44925 0.86141 0.93815 0.0
C1060 C 0.17218 0.35417 0.9191 0.0
C1061 C 0.16464 0.34222 0.88327 0.0
C1062 C 0.159 0.3756 0.92974 0.0
C1063 C 0.13824 0.38546 0.90378 0.0
C1064 C 0.13116 0.37382 0.86739 0.0
C1065 C 0.14428 0.35208 0.8576 0.0
C1066 C 0.1669 0.38741 0.96874 0.0
C1067 C 0.10956 0.38417 0.8389 0.0
C1068 C 0.07649 0.41689 0.93146 0.0
C1069 C 0.09284 0.44842 0.93242 0.0
C1070 C 0.09124 0.39618 0.92271 0.0
C1071 C 0.1231 0.40728 0.91477 0.0
C1072 C 0.14007 0.43913 0.91651 0.0
C1073 C 0.12475 0.45934 0.92541 0.0
C1074 C 0.07254 0.36238 0.92143 0.0
C1075 C 0.17396 0.45182 0.90792 0.0
H1076 H 0.18797 0.34636 0.93879 0.0
H1077 H 0.13871 0.34277 0.82987 0.0
H1078 H 0.17915 0.4126 0.97249 0.0
H1079 H 0.14351 0.38203 0.97831 0.0
H1080 H 0.1835 0.37747 0.98551 0.0
H1081 H 0.10752 0.37379 0.81169 0.0
H1082 H 0.0842 0.37799 0.84399 0.0
H1083 H 0.11986 0.40938 0.83971 0.0
H1084 H 0.05201 0.40841 0.93738 0.0
H1085 H 0.13731 0.48369 0.92575 0.0
H1086 H 0.08751 0.35231 0.94029 0.0
H1087 H 0.06856 0.3508 0.89435 0.0
H1088 H 0.04793 0.35744 0.92822 0.0
H1089 H 0.19157 0.44301 0.92479 0.0
H1090 H 0.18441 0.47717 0.91202 0.0
H1091 H 0.17219 0.44415 0.8797 0.0
C1092 C 0.69021 0.21285 0.8433 0.0
C1093 C 0.71406 0.20293 0.83252 0.0
C1094 C 0.66853 0.19536 0.86365 0.0
C1095 C 0.66961 0.16652 0.87243 0.0
C1096 C 0.69339 0.15625 0.86107 0.0
C1097 C 0.71562 0.17475 0.84193 0.0
C1098 C 0.64444 0.20781 0.87588 0.0
C1099 C 0.69494 0.12536 0.86849 0.0
C1100 C 0.63111 0.13075 0.94935 0.0
C1101 C 0.59965 0.11023 0.93127 0.0
C1102 C 0.65407 0.14893 0.93069 0.0
C1103 C 0.64555 0.14694 0.89284 0.0
C1104 C 0.61381 0.12623 0.87449 0.0
C1105 C 0.59144 0.10821 0.89379 0.0
C1106 C 0.68754 0.17036 0.95158 0.0
C1107 C 0.6034 0.12306 0.8343 0.0
H1108 H 0.68891 0.23465 0.83633 0.0
H1109 H 0.73366 0.16671 0.83336 0.0
H1110 H 0.61851 0.19242 0.86414 0.0
H1111 H 0.64804 0.20871 0.90533 0.0
H1112 H 0.64752 0.23107 0.86825 0.0
H1113 H 0.71504 0.12078 0.85837 0.0
H1114 H 0.69905 0.12367 0.8976 0.0
H1115 H 0.67083 0.10724 0.85567 0.0
H1116 H 0.63796 0.13248 0.97822 0.0
H1117 H 0.56731 0.09251 0.87937 0.0
H1118 H 0.69083 0.19415 0.94611 0.0
H1119 H 0.70768 0.16468 0.94295 0.0
H1120 H 0.69054 0.1693 0.98081 0.0
H1121 H 0.60316 0.1452 0.82538 0.0
H1122 H 0.57831 0.10544 0.82385 0.0
H1123 H 0.62162 0.11691 0.82225 0.0
C1124 C 0.83284 0.70912 0.85934 0.0
C1125 C 0.84115 0.72019 0.8278 0.0
C1126 C 0.84968 0.69211 0.87875 0.0
C1127 C 0.87576 0.68655 0.86657 0.0
C1128 C 0.88521 0.69889 0.83565 0.0
C1129 C 0.86755 0.71532 0.81642 0.0
C1130 C 0.83863 0.679 0.91134 0.0
C1131 C 0.91324 0.69384 0.82214 0.0
C1132 C 0.93797 0.65935 0.92571 0.0
C1133 C 0.92628 0.62825 0.91275 0.0
C1134 C 0.92096 0.67842 0.91206 0.0
C1135 C 0.89181 0.66617 0.88455 0.0
C1136 C 0.87914 0.6346 0.87239 0.0
C1137 C 0.89642 0.61601 0.88677 0.0
C1138 C 0.93493 0.71191 0.92603 0.0
C1139 C 0.84792 0.62062 0.8433 0.0
H1140 H 0.81219 0.71257 0.86805 0.0
H1141 H 0.87414 0.72402 0.79218 0.0
H1142 H 0.82787 0.65372 0.90612 0.0
H1143 H 0.86021 0.68493 0.93441 0.0
H1144 H 0.81965 0.6873 0.9188 0.0
H1145 H 0.91906 0.70681 0.79927 0.0
H1146 H 0.93605 0.70076 0.84385 0.0
H1147 H 0.90642 0.66919 0.8135 0.0
H1148 H 0.96112 0.66911 0.94558 0.0
H1149 H 0.88677 0.59188 0.87723 0.0
H1150 H 0.91536 0.71908 0.93378 0.0
H1151 H 0.94354 0.72564 0.90466 0.0
H1152 H 0.95617 0.71733 0.94947 0.0
H1153 H 0.82704 0.62583 0.85068 0.0
H1154 H 0.84052 0.59545 0.83802 0.0
H1155 H 0.85188 0.63067 0.81819 0.0
C1156 C 0.14795 0.31575 0.09579 0.0
C1157 C 0.12749 0.29861 0.11681 0.0
C1158 C 0.14053 0.33898 0.07871 0.0
C1159 C 0.11178 0.3447 0.08261 0.0
C1160 C 0.09096 0.32736 0.10396 0.0
C1161 C 0.09924 0.30437 0.12112 0.0
C1162 C 0.16325 0.35717 0.05637 0.0
C1163 C 0.06022 0.33327 0.10886 0.0
C1164 C 0.10048 0.41921 0.06627 0.0
C1165 C 0.07606 0.41029 0.03443 0.0
C1166 C 0.11403 0.39845 0.0815 0.0
C1167 C 0.10306 0.36851 0.06393 0.0
C1168 C 0.08115 0.36053 0.02989 0.0
C1169 C 0.06783 0.38169 0.01543 0.0
C1170 C 0.13741 0.40764 0.1179 0.0
C1171 C 0.06951 0.32883 0.01036 0.0
H1172 H 0.17019 0.31131 0.09338 0.0
H1173 H 0.08412 0.29128 0.13822 0.0
H1174 H 0.15011 0.35133 0.02791 0.0
H1175 H 0.16965 0.38202 0.06324 0.0
H1176 H 0.18666 0.35228 0.05967 0.0
H1177 H 0.04687 0.31777 0.12645 0.0
H1178 H 0.06714 0.35721 0.1206 0.0
H1179 H 0.04292 0.33024 0.08256 0.0
H1180 H 0.10647 0.44129 0.0811 0.0
H1181 H 0.0488 0.37504 -0.00913 0.0
H1182 H 0.15889 0.40012 0.11869 0.0
H1183 H 0.1241 0.39633 0.13817 0.0
H1184 H 0.14689 0.43272 0.12556 0.0
H1185 H 0.09122 0.32326 0.00613 0.0
H1186 H 0.05235 0.32637 0.98408 0.0
H1187 H 0.05641 0.3118 0.02668 0.0
C1188 C 0.2271 0.68612 0.85856 0.0
C1189 C 0.21877 0.70552 0.83492 0.0
C1190 C 0.20368 0.66777 0.87585 0.0
C1191 C 0.17127 0.66891 0.86883 0.0
C1192 C 0.16298 0.68904 0.84552 0.0
C1193 C 0.18706 0.70738 0.82896 0.0
C1194 C 0.21335 0.64652 0.90059 0.0
C1195 C 0.12849 0.69057 0.83731 0.0
C1196 C 0.10056 0.60029 0.882 0.0
C1197 C 0.09608 0.60965 0.91506 0.0
C1198 C 0.12531 0.6193 0.86679 0.0
C1199 C 0.14564 0.64838 0.88501 0.0
C1200 C 0.14133 0.65795 0.91841 0.0
C1201 C 0.11657 0.63832 0.93321 0.0
C1202 C 0.12971 0.60829 0.83131 0.0
C1203 C 0.16288 0.68887 0.93844 0.0
H1204 H 0.25193 0.68547 0.86381 0.0
H1205 H 0.18079 0.7224 0.81039 0.0
H1206 H 0.20348 0.64646 0.92501 0.0
H1207 H 0.20255 0.62289 0.88678 0.0
H1208 H 0.24076 0.65284 0.90871 0.0
H1209 H 0.12653 0.70825 0.8195 0.0
H1210 H 0.11012 0.66812 0.8242 0.0
H1211 H 0.12149 0.6956 0.8624 0.0
H1212 H 0.0849 0.57795 0.8681 0.0
H1213 H 0.11309 0.64551 0.95879 0.0
H1214 H 0.15538 0.60834 0.83408 0.0
H1215 H 0.1262 0.62401 0.81136 0.0
H1216 H 0.11189 0.58488 0.82082 0.0
H1217 H 0.18943 0.69105 0.94385 0.0
H1218 H 0.15632 0.69276 0.96422 0.0
H1219 H 0.16031 0.70711 0.92187 0.0
C1220 C 0.36259 0.21614 0.83891 0.0
C1221 C 0.32784 0.20702 0.83428 0.0
C1222 C 0.38091 0.20031 0.85884 0.0
C1223 C 0.3643 0.1742 0.87442 0.0
C1224 C 0.32932 0.16529 0.87065 0.0
C1225 C 0.31161 0.18183 0.85091 0.0
C1226 C 0.41813 0.21126 0.86261 0.0
C1227 C 0.31044 0.13775 0.88678 0.0
C1228 C 0.40729 0.1154 0.88929 0.0
C1229 C 0.42235 0.12159 0.92598 0.0
C1230 C 0.38793 0.13181 0.8726 0.0
C1231 C 0.38332 0.15539 0.89273 0.0
C1232 C 0.39805 0.16159 0.92985 0.0
C1233 C 0.41726 0.14473 0.94592 0.0
C1234 C 0.37288 0.12424 0.83304 0.0
C1235 C 0.39414 0.18651 0.95257 0.0
H1236 H 0.37567 0.23576 0.82674 0.0
H1237 H 0.28488 0.17453 0.84777 0.0
H1238 H 0.43093 0.21455 0.89118 0.0
H1239 H 0.42483 0.19375 0.84892 0.0
H1240 H 0.42769 0.23306 0.8511 0.0
H1241 H 0.2836 0.13435 0.88273 0.0
H1242 H 0.31282 0.11698 0.87463 0.0
H1243 H 0.32123 0.14015 0.91584 0.0
H1244 H 0.41129 0.09812 0.87319 0.0
H1245 H 0.42824 0.1497 0.97429 0.0
H1246 H 0.38375 0.14418 0.81899 0.0
H1247 H 0.34568 0.11928 0.82787 0.0
H1248 H 0.3772 0.10429 0.82141 0.0
H1249 H 0.40738 0.20903 0.94441 0.0
H1250 H 0.40427 0.18663 0.98144 0.0
H1251 H 0.36753 0.18386 0.94852 0.0
C1252 C 0.82149 0.32711 0.87879 0.0
C1253 C 0.83236 0.31853 0.84965 0.0
C1254 C 0.84114 0.35392 0.90146 0.0
C1255 C 0.87108 0.37281 0.89333 0.0
C1256 C 0.88239 0.36369 0.86435 0.0
C1257 C 0.863 0.33634 0.8431 0.0
C1258 C 0.82991 0.36224 0.93375 0.0
C1259 C 0.91457 0.38311 0.85528 0.0
C1260 C 0.90569 0.45806 0.91492 0.0
C1261 C 0.9339 0.46184 0.94153 0.0
C1262 C 0.88325 0.42877 0.90099 0.0
C1263 C 0.89002 0.40306 0.9135 0.0
C1264 C 0.91792 0.40694 0.9414 0.0
C1265 C 0.93927 0.43649 0.95535 0.0
C1266 C 0.85378 0.42532 0.87103 0.0
C1267 C 0.92639 0.38032 0.95567 0.0
H1268 H 0.79786 0.31286 0.88383 0.0
H1269 H 0.87116 0.3295 0.82035 0.0
H1270 H 0.85021 0.36681 0.95797 0.0
H1271 H 0.82435 0.38349 0.93071 0.0
H1272 H 0.8074 0.3439 0.93789 0.0
H1273 H 0.91953 0.37264 0.83162 0.0
H1274 H 0.91375 0.40593 0.8498 0.0
H1275 H 0.93571 0.38663 0.87832 0.0
H1276 H 0.90182 0.47793 0.90426 0.0
H1277 H 0.96161 0.43982 0.97512 0.0
H1278 H 0.83066 0.40902 0.87667 0.0
H1279 H 0.85738 0.41587 0.84588 0.0
H1280 H 0.85035 0.44742 0.8668 0.0
H1281 H 0.91436 0.37351 0.97835 0.0
H1282 H 0.95366 0.38673 0.96573 0.0
H1283 H 0.91765 0.36013 0.9354 0.0
C1284 C 0.70542 0.88076 0.94222 0.0
C1285 C 0.70983 0.88234 0.90714 0.0
C1286 C 0.68836 0.89745 0.95598 0.0
C1287 C 0.67468 0.91549 0.93377 0.0
C1288 C 0.67935 0.91733 0.8984 0.0
C1289 C 0.69715 0.90096 0.88564 0.0
C1290 C 0.68468 0.89549 -0.0059 0.0
C1291 C 0.66492 0.93607 0.87376 0.0
C1292 C 0.59993 0.93271 0.95067 0.0
C1293 C 0.61432 0.9636 0.96461 0.0
C1294 C 0.61946 0.91653 0.94165 0.0
C1295 C 0.65429 0.93153 0.94677 0.0
C1296 C 0.66917 0.96236 0.96217 0.0
C1297 C 0.64901 0.97805 0.97081 0.0
C1298 C 0.60265 0.88362 0.92555 0.0
C1299 C 0.70627 -0.02092 0.96851 0.0
H1300 H 0.71559 0.86664 0.959 0.0
H1301 H 0.70046 0.9021 0.85847 0.0
H1302 H 0.69243 0.9187 0.00841 0.0
H1303 H 0.65817 0.88349 -0.00552 0.0
H1304 H 0.69966 0.88308 0.00889 0.0
H1305 H 0.67111 0.9354 0.84717 0.0
H1306 H 0.63743 0.92745 0.86996 0.0
H1307 H 0.67436 0.96019 0.8858 0.0
H1308 H 0.57324 0.92123 0.94644 0.0
H1309 H 0.66037 0.00197 0.98132 0.0
H1310 H 0.61416 0.869 0.94106 0.0
H1311 H 0.60614 0.88132 0.89792 0.0
H1312 H 0.57555 0.87488 0.92474 0.0
H1313 H 0.71982 0.96579 0.9838 0.0
H1314 H 0.71425 0.00217 0.98331 0.0
H1315 H 0.71375 -0.01845 0.94256 0.0
C1316 C 0.8939 0.68253 0.13823 0.0
C1317 C 0.88144 0.70407 0.12307 0.0
C1318 C 0.89654 0.65929 0.1166 0.0
C1319 C 0.88645 0.6578 0.07904 0.0
C1320 C 0.87395 0.67951 0.0636 0.0
C1321 C 0.87167 0.70257 0.08591 0.0
C1322 C 0.91025 0.63647 0.13393 0.0
C1323 C 0.86297 0.67827 0.02364 0.0
C1324 C 0.93187 0.61668 0.03808 0.0
C1325 C 0.90918 0.58673 0.03342 0.0
C1326 C 0.9232 0.64094 0.04882 0.0
C1327 C 0.89146 0.63467 0.05627 0.0
C1328 C 0.86726 0.60482 0.0481 0.0
C1329 C 0.87642 0.58098 0.03627 0.0
C1330 C 0.94961 0.67249 0.05685 0.0
C1331 C 0.83322 0.59734 0.056 0.0
H1332 H 0.90131 0.68376 0.16704 0.0
H1333 H 0.86132 0.71891 0.07436 0.0
H1334 H 0.89219 0.61291 0.12514 0.0
H1335 H 0.93349 0.63794 0.12555 0.0
H1336 H 0.91582 0.64031 0.16355 0.0
H1337 H 0.85256 0.69623 0.01598 0.0
H1338 H 0.88437 0.68114 0.01108 0.0
H1339 H 0.84384 0.65562 0.01249 0.0
H1340 H 0.95745 0.62077 0.0368 0.0
H1341 H 0.85911 0.55762 0.03296 0.0
H1342 H 0.96081 0.67715 0.08595 0.0
H1343 H 0.93886 0.69023 0.0494 0.0
H1344 H 0.96979 0.67459 0.04252 0.0
H1345 H 0.83503 0.5948 0.08482 0.0
H1346 H 0.81526 0.5756 0.04052 0.0
H1347 H 0.82335 0.61588 0.05 0.0
C1348 C 0.3237 0.80264 0.16311 0.0
C1349 C 0.31607 0.8065 0.19595 0.0
C1350 C 0.33909 0.82817 0.14704 0.0
C1351 C 0.34684 0.8576 0.16485 0.0
C1352 C 0.33591 0.8613 0.1963 0.0
C1353 C 0.32071 0.8354 0.21176 0.0
C1354 C 0.35027 0.82361 0.11325 0.0
C1355 C 0.34339 0.8924 0.21563 0.0
C1356 C 0.43174 0.91203 0.1636 0.0
C1357 C 0.42417 0.92943 0.13701 0.0
C1358 C 0.40646 0.88854 0.173 0.0
C1359 C 0.373 0.88329 0.15593 0.0
C1360 C 0.36514 0.90173 0.13008 0.0
C1361 C 0.39112 0.92448 0.12035 0.0
C1362 C 0.41564 0.86896 0.20055 0.0
C1363 C 0.32958 0.89727 0.11268 0.0
H1364 H 0.31909 0.77986 0.15098 0.0
H1365 H 0.31391 0.83778 0.23705 0.0
H1366 H 0.34624 0.84004 0.09454 0.0
H1367 H 0.37733 0.82773 0.12 0.0
H1368 H 0.33696 0.80006 0.09948 0.0
H1369 H 0.32689 0.89144 0.2344 0.0
H1370 H 0.36952 0.90119 0.23126 0.0
H1371 H 0.34063 0.90893 0.19651 0.0
H1372 H 0.45751 0.91614 0.17617 0.0
H1373 H 0.38568 0.93855 0.10006 0.0
H1374 H 0.40579 0.8447 0.18888 0.0
H1375 H 0.40433 0.87039 0.2236 0.0
H1376 H 0.44299 0.87595 0.21059 0.0
H1377 H 0.31734 0.8745 0.09683 0.0
H1378 H 0.32787 0.91498 0.09481 0.0
H1379 H 0.31537 0.89793 0.13338 0.0
C1380 C 0.72488 0.19624 0.15167 0.0
C1381 C 0.71339 0.20948 0.17732 0.0
C1382 C 0.70285 0.1721 0.12632 0.0
C1383 C 0.6688 0.16087 0.12718 0.0
C1384 C 0.65678 0.17576 0.15116 0.0
C1385 C 0.67925 0.20014 0.17571 0.0
C1386 C 0.71657 0.15744 0.10061 0.0
C1387 C 0.62056 0.16426 0.15318 0.0
C1388 C 0.59285 0.10417 0.06742 0.0
C1389 C 0.58842 0.07942 0.08739 0.0
C1390 C 0.62223 0.12984 0.07673 0.0
C1391 C 0.64628 0.13102 0.10778 0.0
C1392 C 0.64341 0.10467 0.1255 0.0
C1393 C 0.61455 0.07896 0.11468 0.0
C1394 C 0.62612 0.15681 0.05568 0.0
C1395 C 0.6687 0.10477 0.15852 0.0
H1396 H 0.75129 0.20365 0.15242 0.0
H1397 H 0.67022 0.21048 0.1952 0.0
H1398 H 0.72442 0.13943 0.11317 0.0
H1399 H 0.6978 0.14676 0.07545 0.0
H1400 H 0.73886 0.17443 0.0941 0.0
H1401 H 0.61524 0.17904 0.17262 0.0
H1402 H 0.60445 0.16309 0.12664 0.0
H1403 H 0.61352 0.14084 0.16127 0.0
H1404 H 0.57245 0.1045 0.04655 0.0
H1405 H 0.61137 0.0593 0.12944 0.0
H1406 H 0.65197 0.16654 0.05192 0.0
H1407 H 0.62127 0.17493 0.0706 0.0
H1408 H 0.60859 0.15048 0.02912 0.0
H1409 H 0.69407 0.11298 0.15339 0.0
H1410 H 0.66369 0.08174 0.16762 0.0
H1411 H 0.66836 0.12058 0.18055 0.0
C1412 C 0.71059 0.66847 0.8149 0.0
C1413 C 0.70215 0.69274 0.80135 0.0
C1414 C 0.69245 0.65021 0.837 0.0
C1415 C 0.66489 0.65607 0.84495 0.0
C1416 C 0.65534 0.67967 0.83004 0.0
C1417 C 0.67443 0.69806 0.80863 0.0
C1418 C 0.70356 0.62546 0.85294 0.0
C1419 C 0.62563 0.68603 0.83756 0.0
C1420 C 0.60377 0.5928 0.88049 0.0
C1421 C 0.61443 0.60196 0.91731 0.0
C1422 C 0.61978 0.61044 0.85649 0.0
C1423 C 0.64672 0.63798 0.86977 0.0
C1424 C 0.65719 0.64767 0.90688 0.0
C1425 C 0.64098 0.62934 0.93035 0.0
C1426 C 0.60833 0.59933 0.81707 0.0
C1427 C 0.68579 0.6771 0.92178 0.0
H1428 H 0.73236 0.66464 0.80966 0.0
H1429 H 0.66799 0.71685 0.79803 0.0
H1430 H 0.7109 0.63045 0.88245 0.0
H1431 H 0.68275 0.60313 0.84645 0.0
H1432 H 0.725 0.62336 0.84319 0.0
H1433 H 0.62038 0.704 0.82211 0.0
H1434 H 0.60321 0.66491 0.83099 0.0
H1435 H 0.63011 0.69351 0.86642 0.0
H1436 H 0.58329 0.5715 0.87042 0.0
H1437 H 0.64899 0.63647 0.95884 0.0
H1438 H 0.62868 0.59508 0.80719 0.0
H1439 H 0.60225 0.61708 0.80195 0.0
H1440 H 0.58614 0.57795 0.81106 0.0
H1441 H 0.70903 0.67586 0.91573 0.0
H1442 H 0.68972 0.68203 0.95114 0.0
H1443 H 0.68121 0.69648 0.90895 0.0
C1444 C 0.33707 0.60115 0.90024 0.0
C1445 C 0.33285 0.62592 0.8838 0.0
C1446 C 0.36725 0.60489 0.92389 0.0
C1447 C 0.39365 0.63357 0.92926 0.0
C1448 C 0.38873 0.65892 0.91416 0.0
C1449 C 0.35808 0.65492 0.89227 0.0
C1450 C 0.37173 0.57776 0.94103 0.0
C1451 C 0.41674 0.68939 0.9179 0.0
C1452 C 0.46909 0.64317 0.0015 0.0
C1453 C 0.48744 0.63232 0.98213 0.0
C1454 C 0.43912 0.64571 0.98405 0.0
C1455 C 0.42746 0.63626 0.94706 0.0
C1456 C 0.44771 0.62841 0.92696 0.0
C1457 C 0.47791 0.62697 0.94486 0.0
C1458 C 0.41873 0.65612 0.00541 0.0
C1459 C 0.43631 0.61908 0.88712 0.0
H1460 H 0.31762 0.57882 0.89324 0.0
H1461 H 0.35507 0.67402 0.87887 0.0
H1462 H 0.38865 0.56982 0.92865 0.0
H1463 H 0.38337 0.58433 0.96991 0.0
H1464 H 0.34773 0.55845 0.93788 0.0
H1465 H 0.4077 0.7076 0.90781 0.0
H1466 H 0.43039 0.6967 0.94611 0.0
H1467 H 0.43484 0.68719 0.90244 0.0
H1468 H 0.47684 0.64735 0.03034 0.0
H1469 H 0.49226 0.61827 0.93021 0.0
H1470 H 0.39868 0.63584 0.01053 0.0
H1471 H 0.40646 0.67054 -0.00935 0.0
H1472 H 0.4343 0.66943 0.03112 0.0
H1473 H 0.41543 0.59676 0.88162 0.0
H1474 H 0.45655 0.61683 0.87512 0.0
H1475 H 0.42699 0.63594 0.87362 0.0
C1476 C 0.37472 0.32857 0.8446 0.0
C1477 C 0.3468 0.33348 0.82526 0.0
C1478 C 0.39979 0.352 0.86848 0.0
C1479 C 0.39651 0.38082 0.87291 0.0
C1480 C 0.36799 0.38566 0.85358 0.0
C1481 C 0.3433 0.36175 0.82984 0.0
C1482 C 0.42978 0.34599 0.8887 0.0
C1483 C 0.36362 0.41606 0.85799 0.0
C1484 C 0.44983 0.43697 0.95379 0.0
C1485 C 0.47337 0.45782 0.93852 0.0
C1486 C 0.42447 0.4117 0.93281 0.0
C1487 C 0.42377 0.4065 0.89613 0.0
C1488 C 0.44875 0.42637 0.88113 0.0
C1489 C 0.47294 0.45207 0.90238 0.0
C1490 C 0.39803 0.39112 0.94967 0.0
C1491 C 0.44966 0.4207 0.84249 0.0
H1492 H 0.37672 0.30625 0.84124 0.0
H1493 H 0.32113 0.36499 0.81521 0.0
H1494 H 0.45259 0.36119 0.88135 0.0
H1495 H 0.43294 0.35123 0.91784 0.0
H1496 H 0.4278 0.32192 0.88314 0.0
H1497 H 0.3393 0.41562 0.84225 0.0
H1498 H 0.36552 0.42274 0.88655 0.0
H1499 H 0.38379 0.43397 0.84933 0.0
H1500 H 0.45085 0.44061 0.982 0.0
H1501 H 0.49167 0.46761 0.89062 0.0
H1502 H 0.39667 0.36716 0.94557 0.0
H1503 H 0.37335 0.39171 0.93662 0.0
H1504 H 0.4027 0.39798 0.97877 0.0
H1505 H 0.44975 0.39737 0.8367 0.0
H1506 H 0.47187 0.4374 0.83552 0.0
H1507 H 0.42701 0.42208 0.8249 0.0
C1508 C 0.68059 0.39392 0.85459 0.0
C1509 C 0.68421 0.36555 0.85693 0.0
C1510 C 0.67397 0.40831 0.88321 0.0
C1511 C 0.67163 0.39413 0.91499 0.0
C1512 C 0.67623 0.36591 0.91776 0.0
C1513 C 0.68157 0.3516 0.88834 0.0
C1514 C 0.66885 0.4384 0.87914 0.0
C1515 C 0.67472 0.35014 0.9511 0.0
C1516 C 0.67258 0.45221 0.98495 0.0
C1517 C 0.63871 0.44785 0.97718 0.0
C1518 C 0.68393 0.43203 0.96811 0.0
C1519 C 0.66066 0.40759 0.94319 0.0
C1520 C 0.62621 0.4007 0.93971 0.0
C1521 C 0.61563 0.42103 0.95685 0.0
C1522 C 0.72083 0.43896 0.97364 0.0
C1523 C 0.60055 0.37436 0.91411 0.0
H1524 H 0.68315 0.40494 0.83054 0.0
H1525 H 0.68367 0.32929 0.89001 0.0
H1526 H 0.64332 0.43596 0.88159 0.0
H1527 H 0.68656 0.45607 0.90069 0.0
H1528 H 0.67235 0.44661 0.853 0.0
H1529 H 0.69015 0.33551 0.95352 0.0
H1530 H 0.68345 0.36675 0.97542 0.0
H1531 H 0.64868 0.33505 0.9496 0.0
H1532 H 0.69032 0.47283 0.0011 0.0
H1533 H 0.58932 0.41755 0.95129 0.0
H1534 H 0.72993 0.45128 0.95154 0.0
H1535 H 0.7264 0.41759 0.9734 0.0
H1536 H 0.7347 0.45354 -0.00077 0.0
H1537 H 0.6001 0.38012 0.88634 0.0
H1538 H 0.57518 0.36931 0.91896 0.0
H1539 H 0.6069 0.35347 0.91634 0.0
C1540 C 0.701 0.39516 0.13829 0.0
C1541 C 0.69562 0.36757 0.15288 0.0
C1542 C 0.67749 0.39739 0.10901 0.0
C1543 C 0.64807 0.3717 0.09561 0.0
C1544 C 0.64393 0.34339 0.10898 0.0
C1545 C 0.66785 0.34171 0.13751 0.0
C1546 C 0.68286 0.42766 0.09436 0.0
C1547 C 0.61266 0.31567 0.09581 0.0
C1548 C 0.56719 0.38431 0.07112 0.0
C1549 C 0.56015 0.37953 0.0338 0.0
C1550 C 0.59651 0.38294 0.09137 0.0
C1551 C 0.61864 0.37554 0.07375 0.0
C1552 C 0.61088 0.36912 0.0362 0.0
C1553 C 0.5817 0.37165 0.01641 0.0
C1554 C 0.60415 0.39023 0.13151 0.0
C1555 C 0.63393 0.36086 0.01698 0.0
H1556 H 0.7228 0.41494 0.1503 0.0
H1557 H 0.66386 0.32044 0.14928 0.0
H1558 H 0.67382 0.42441 0.06491 0.0
H1559 H 0.66858 0.43959 0.10589 0.0
H1560 H 0.70955 0.44258 0.10124 0.0
H1561 H 0.61564 0.2945 0.10528 0.0
H1562 H 0.59191 0.31905 0.10575 0.0
H1563 H 0.60546 0.31243 0.06623 0.0
H1564 H 0.55095 0.39155 0.08435 0.0
H1565 H 0.57634 0.36878 0.98751 0.0
H1566 H 0.62826 0.40941 0.14067 0.0
H1567 H 0.60647 0.3702 0.14466 0.0
H1568 H 0.58464 0.39663 0.14069 0.0
H1569 H 0.65639 0.38141 0.01839 0.0
H1570 H 0.62181 0.35231 0.98856 0.0
H1571 H 0.64223 0.34316 0.02976 0.0
C1572 C 0.68297 0.67614 0.18832 0.0
C1573 C 0.71727 0.68204 0.19517 0.0
C1574 C 0.66054 0.65102 0.16483 0.0
C1575 C 0.67272 0.63098 0.14842 0.0
C1576 C 0.70742 0.63762 0.15379 0.0
C1577 C 0.72946 0.66335 0.17706 0.0
C1578 C 0.62375 0.64542 0.15846 0.0
C1579 C 0.72109 0.61698 0.13593 0.0
C1580 C 0.60881 0.55118 0.12811 0.0
C1581 C 0.59508 0.55032 0.09184 0.0
C1582 C 0.63579 0.57667 0.14631 0.0
C1583 C 0.64874 0.60205 0.12789 0.0
C1584 C 0.63604 0.60071 0.09089 0.0
C1585 C 0.60958 0.57466 0.07325 0.0
C1586 C 0.64932 0.57708 0.18567 0.0
C1587 C 0.6485 0.6274 0.07021 0.0
H1588 H 0.67356 0.69105 0.20165 0.0
H1589 H 0.75603 0.66815 0.18209 0.0
H1590 H 0.61262 0.64196 0.12939 0.0
H1591 H 0.61103 0.62434 0.16974 0.0
H1592 H 0.61867 0.66464 0.17083 0.0
H1593 H 0.74869 0.62637 0.14109 0.0
H1594 H 0.7132 0.59427 0.14583 0.0
H1595 H 0.71085 0.61343 0.10667 0.0
H1596 H 0.59804 0.53224 0.1425 0.0
H1597 H 0.5996 0.57387 0.04508 0.0
H1598 H 0.64253 0.59352 0.20118 0.0
H1599 H 0.67689 0.58479 0.19167 0.0
H1600 H 0.6394 0.55429 0.19496 0.0
H1601 H 0.63384 0.64241 0.07163 0.0
H1602 H 0.64521 0.6196 0.04164 0.0
H1603 H 0.6751 0.64128 0.08115 0.0
C1604 C 0.3287 0.6276 0.1169 0.0
C1605 C 0.34082 0.62445 0.15257 0.0
C1606 C 0.33661 0.61337 0.08917 0.0
C1607 C 0.35631 0.59523 0.09767 0.0
C1608 C 0.36584 0.58964 0.13334 0.0
C1609 C 0.35816 0.60456 0.16044 0.0
C1610 C 0.32645 0.61989 0.05136 0.0
C1611 C 0.38703 0.57037 0.14343 0.0
C1612 C 0.3746 0.5424 0.03709 0.0
C1613 C 0.40851 0.55857 0.03974 0.0
C1614 C 0.35557 0.55551 0.05254 0.0
C1615 C 0.37108 0.5853 0.07067 0.0
C1616 C 0.4041 0.60301 0.06945 0.0
C1617 C 0.42233 0.58946 0.0533 0.0
C1618 C 0.32073 0.53582 0.05431 0.0
C1619 C 0.4215 0.63475 0.08926 0.0
H1620 H 0.3147 0.64258 0.11084 0.0
H1621 H 0.36799 0.60239 0.18795 0.0
H1622 H 0.34835 0.63649 0.04379 0.0
H1623 H 0.31779 0.59887 0.03235 0.0
H1624 H 0.30646 0.62971 0.0484 0.0
H1625 H 0.38795 0.56472 0.17131 0.0
H1626 H 0.37747 0.54878 0.12526 0.0
H1627 H 0.41287 0.583 0.14103 0.0
H1628 H 0.36384 0.51842 0.02677 0.0
H1629 H 0.44843 0.60198 0.05477 0.0
H1630 H 0.30399 0.54916 0.05151 0.0
H1631 H 0.32133 0.52707 0.08075 0.0
H1632 H 0.31014 0.51594 0.03334 0.0
H1633 H 0.40603 0.649 0.08219 0.0
H1634 H 0.4464 0.64617 0.08356 0.0
H1635 H 0.42503 0.63358 0.11845 0.0
C1636 C 0.36729 0.33117 0.23049 0.0
C1637 C 0.33308 0.32526 0.22087 0.0
C1638 C 0.38894 0.35055 0.21201 0.0
C1639 C 0.37591 0.36496 0.18423 0.0
C1640 C 0.34148 0.36017 0.17579 0.0
C1641 C 0.32027 0.33973 0.19377 0.0
C1642 C 0.42528 0.35424 0.2209 0.0
C1643 C 0.32693 0.37595 0.14712 0.0
C1644 C 0.43522 0.43202 0.15094 0.0
C1645 C 0.43605 0.41855 0.1182 0.0
C1646 C 0.41567 0.41486 0.17287 0.0
C1647 C 0.39773 0.38335 0.16224 0.0
C1648 C 0.39961 0.36948 0.12976 0.0
C1649 C 0.41825 0.38746 0.10771 0.0
C1650 C 0.41349 0.43053 0.20685 0.0
C1651 C 0.38193 0.33567 0.1183 0.0
H1652 H 0.37683 0.31943 0.25128 0.0
H1653 H 0.29367 0.3349 0.18657 0.0
H1654 H 0.43149 0.34443 0.19771 0.0
H1655 H 0.4412 0.37875 0.22624 0.0
H1656 H 0.43165 0.34271 0.24447 0.0
H1657 H 0.30045 0.37233 0.14657 0.0
H1658 H 0.34138 0.40085 0.15134 0.0
H1659 H 0.32851 0.36713 0.12061 0.0
H1660 H 0.44909 0.45618 0.15884 0.0
H1661 H 0.41946 0.37711 0.08255 0.0
H1662 H 0.42157 0.41955 0.23015 0.0
H1663 H 0.38726 0.42812 0.20583 0.0
H1664 H 0.42903 0.45521 0.21124 0.0
H1665 H 0.389 0.32249 0.1398 0.0
H1666 H 0.38783 0.32816 0.09351 0.0
H1667 H 0.35463 0.3299 0.11359 0.0
C1668 C 0.82941 0.60407 0.59602 0.0
C1669 C 0.84525 0.62839 0.62349 0.0
C1670 C 0.84701 0.58743 0.58333 0.0
C1671 C 0.88144 0.59546 0.59816 0.0
C1672 C 0.89786 0.62067 0.62491 0.0
C1673 C 0.87958 0.63671 0.63735 0.0
C1674 C 0.82853 0.56066 0.55488 0.0
C1675 C 0.9346 0.63007 0.64125 0.0
C1676 C 0.9219 0.5356 0.60011 0.0
C1677 C 0.93913 0.54251 0.57268 0.0
C1678 C 0.90218 0.55201 0.60779 0.0
C1679 C 0.8999 0.57624 0.58785 0.0
C1680 C 0.91654 0.58284 0.55946 0.0
C1681 C 0.93581 0.56573 0.55204 0.0
C1682 C 0.88426 0.54373 0.63774 0.0
C1683 C 0.91468 0.60844 0.53755 0.0
H1684 H 0.80305 0.59782 0.58457 0.0
H1685 H 0.89206 0.6552 0.65878 0.0
H1686 H 0.84076 0.5632 0.53198 0.0
H1687 H 0.82923 0.53927 0.56574 0.0
H1688 H 0.8021 0.55824 0.54496 0.0
H1689 H 0.94412 0.65138 0.65999 0.0
H1690 H 0.93941 0.61161 0.65599 0.0
H1691 H 0.94889 0.63356 0.62 0.0
H1692 H 0.92382 0.51721 0.61559 0.0
H1693 H 0.94903 0.57106 0.53075 0.0
H1694 H 0.85739 0.53961 0.62806 0.0
H1695 H 0.89433 0.563 0.65942 0.0
H1696 H 0.88687 0.52305 0.64911 0.0
H1697 H 0.88835 0.60505 0.52559 0.0
H1698 H 0.92828 0.61012 0.51578 0.0
H1699 H 0.92537 0.63049 0.55501 0.0
C1700 C 0.36286 0.79254 0.69614 0.0
C1701 C 0.33614 0.79965 0.70352 0.0
C1702 C 0.38418 0.81116 0.67685 0.0
C1703 C 0.37872 0.83757 0.66507 0.0
C1704 C 0.35121 0.8444 0.67148 0.0
C1705 C 0.33013 0.82522 0.69059 0.0
C1706 C 0.41343 0.80333 0.67048 0.0
C1707 C 0.34487 0.87254 0.65937 0.0
C1708 C 0.45687 0.90119 0.65798 0.0
C1709 C 0.45547 0.8978 0.62131 0.0
C1710 C 0.43129 0.88237 0.67234 0.0
C1711 C 0.40386 0.85954 0.64942 0.0
C1712 C 0.40173 0.85663 0.61222 0.0
C1713 C 0.42771 0.87584 0.59854 0.0
C1714 C 0.43395 0.88651 0.71213 0.0
C1715 C 0.3725 0.83279 0.58704 0.0
H1716 H 0.36741 0.77267 0.70591 0.0
H1717 H 0.30986 0.83103 0.69675 0.0
H1718 H 0.41405 0.80317 0.64179 0.0
H1719 H 0.43693 0.82101 0.68561 0.0
H1720 H 0.41265 0.78075 0.67889 0.0
H1721 H 0.32324 0.87532 0.66789 0.0
H1722 H 0.36704 0.89328 0.67032 0.0
H1723 H 0.34034 0.8713 0.62985 0.0
H1724 H 0.47804 0.91851 0.67559 0.0
H1725 H 0.42641 0.87344 0.57009 0.0
H1726 H 0.43566 0.86573 0.72388 0.0
H1727 H 0.41134 0.88966 0.71761 0.0
H1728 H 0.45604 0.90645 0.7259 0.0
H1729 H 0.37264 0.80972 0.59214 0.0
H1730 H 0.37308 0.83556 0.55859 0.0
H1731 H 0.34877 0.83392 0.59171 0.0
C1732 C 0.23867 0.31959 0.67977 0.0
C1733 C 0.22671 0.30342 0.70721 0.0
C1734 C 0.22047 0.33502 0.65866 0.0
C1735 C 0.18886 0.33346 0.66413 0.0
C1736 C 0.17609 0.31592 0.69073 0.0
C1737 C 0.19535 0.30173 0.71231 0.0
C1738 C 0.23569 0.35392 0.63141 0.0
C1739 C 0.14196 0.31219 0.69652 0.0
C1740 C 0.15324 0.39645 0.64191 0.0
C1741 C 0.13034 0.38436 0.60899 0.0
C1742 C 0.17324 0.38077 0.65905 0.0
C1743 C 0.16995 0.35154 0.64389 0.0
C1744 C 0.14731 0.33923 0.61053 0.0
C1745 C 0.12831 0.35585 0.59336 0.0
C1746 C 0.19757 0.39534 0.69402 0.0
C1747 C 0.14251 0.30809 0.59326 0.0
H1748 H 0.2628 0.32096 0.67551 0.0
H1749 H 0.18554 0.28877 0.73289 0.0
H1750 H 0.21787 0.3481 0.60512 0.0
H1751 H 0.24154 0.37844 0.63991 0.0
H1752 H 0.25892 0.35069 0.62808 0.0
H1753 H 0.1343 0.29566 0.71586 0.0
H1754 H 0.14168 0.33454 0.70667 0.0
H1755 H 0.12325 0.30425 0.67082 0.0
H1756 H 0.15514 0.41798 0.65508 0.0
H1757 H 0.11167 0.34622 0.56763 0.0
H1758 H 0.22262 0.39522 0.69293 0.0
H1759 H 0.1896 0.38197 0.71587 0.0
H1760 H 0.19958 0.41925 0.70074 0.0
H1761 H 0.16629 0.30781 0.58778 0.0
H1762 H 0.12338 0.30129 0.56779 0.0
H1763 H 0.13493 0.29072 0.6117 0.0
C1764 C 0.70278 0.19491 0.65122 0.0
C1765 C 0.72883 0.19241 0.67709 0.0
C1766 C 0.68159 0.16943 0.62705 0.0
C1767 C 0.68657 0.14126 0.62979 0.0
C1768 C 0.71548 0.14 0.65254 0.0
C1769 C 0.7364 0.16574 0.67573 0.0
C1770 C 0.65217 0.17186 0.60113 0.0
C1771 C 0.72213 0.11053 0.65603 0.0
C1772 C 0.61393 0.06955 0.62881 0.0
C1773 C 0.61314 0.05237 0.59797 0.0
C1774 C 0.63645 0.09946 0.63813 0.0
C1775 C 0.65881 0.11226 0.61608 0.0
C1776 C 0.65752 0.09528 0.58436 0.0
C1777 C 0.63451 0.06538 0.57564 0.0
C1778 C 0.63728 0.11683 0.67246 0.0
C1779 C 0.68072 0.10851 0.5601 0.0
H1780 H 0.69742 0.21582 0.65154 0.0
H1781 H 0.75716 0.16402 0.69494 0.0
H1782 H 0.64697 0.15753 0.57548 0.0
H1783 H 0.62976 0.16354 0.61248 0.0
H1784 H 0.65636 0.19585 0.59581 0.0
H1785 H 0.74795 0.11452 0.67089 0.0
H1786 H 0.70463 0.09555 0.67064 0.0
H1787 H 0.71805 0.09807 0.62947 0.0
H1788 H 0.59696 0.05956 0.64574 0.0
H1789 H 0.63384 0.05188 0.55191 0.0
H1790 H 0.63412 0.13882 0.66706 0.0
H1791 H 0.66178 0.12215 0.69115 0.0
H1792 H 0.6175 0.1038 0.6859 0.0
H1793 H 0.67373 0.12671 0.54698 0.0
H1794 H 0.67977 0.091 0.53923 0.0
H1795 H 0.70681 0.11926 0.57546 0.0
C1796 C 0.83154 0.30781 0.39359 0.0
C1797 C 0.84057 0.29026 0.36996 0.0
C1798 C 0.85598 0.33057 0.41874 0.0
C1799 C 0.88975 0.336 0.41914 0.0
C1800 C 0.89865 0.31531 0.39914 0.0
C1801 C 0.87366 0.29215 0.3751 0.0
C1802 C 0.84574 0.35126 0.44123 0.0
C1803 C 0.93446 0.32062 0.39827 0.0
C1804 C 0.94464 0.41635 0.41549 0.0
C1805 C 0.96959 0.4212 0.44634 0.0
C1806 C 0.91741 0.38915 0.40727 0.0
C1807 C 0.91457 0.36677 0.43135 0.0
C1808 C 0.93832 0.37249 0.4639 0.0
C1809 C 0.96624 0.39951 0.47063 0.0
C1810 C 0.89308 0.38367 0.37162 0.0
C1811 C 0.93473 0.34952 0.49063 0.0
H1812 H 0.80569 0.30564 0.39038 0.0
H1813 H 0.88059 0.27817 0.35728 0.0
H1814 H 0.86341 0.35928 0.46759 0.0
H1815 H 0.8457 0.37163 0.42754 0.0
H1816 H 0.82026 0.33952 0.44535 0.0
H1817 H 0.93723 0.3002 0.38566 0.0
H1818 H 0.94356 0.33992 0.38262 0.0
H1819 H 0.95069 0.32679 0.42545 0.0
H1820 H 0.94709 0.43334 0.39687 0.0
H1821 H 0.98612 0.40306 0.4939 0.0
H1822 H 0.86773 0.37977 0.37569 0.0
H1823 H 0.89209 0.36298 0.35575 0.0
H1824 H 0.89986 0.40319 0.35565 0.0
H1825 H 0.91047 0.34465 0.49815 0.0
H1826 H 0.95508 0.35756 0.51503 0.0
H1827 H 0.93451 0.32756 0.47867 0.0
C1828 C 0.65549 0.79176 0.44404 0.0
C1829 C 0.66549 0.80054 0.41249 0.0
C1830 C 0.64773 0.81163 0.46579 0.0
C1831 C 0.65002 0.84068 0.45545 0.0
C1832 C 0.65874 0.84919 0.42282 0.0
C1833 C 0.66636 0.82889 0.40165 0.0
C1834 C 0.63828 0.80207 0.50037 0.0
C1835 C 0.66095 0.88001 0.41077 0.0
C1836 C 0.60761 0.89056 0.4852 0.0
C1837 C 0.63528 0.91512 0.50396 0.0
C1838 C 0.61138 0.86424 0.47198 0.0
C1839 C 0.64354 0.86265 0.47849 0.0
C1840 C 0.67063 0.88563 0.50182 0.0
C1841 C 0.66616 0.91199 0.51432 0.0
C1842 C 0.58192 0.84039 0.44706 0.0
C1843 C 0.70511 0.88418 0.50993 0.0
H1844 H 0.65519 0.76991 0.4525 0.0
H1845 H 0.67377 0.83544 0.37699 0.0
H1846 H 0.65718 0.81737 0.52319 0.0
H1847 H 0.61414 0.80436 0.5015 0.0
H1848 H 0.63631 0.77815 0.50377 0.0
H1849 H 0.66692 0.88249 0.38404 0.0
H1850 H 0.63707 0.88358 0.40973 0.0
H1851 H 0.68052 0.8984 0.43022 0.0
H1852 H 0.58358 0.89316 0.47799 0.0
H1853 H 0.68733 0.93112 0.5292 0.0
H1854 H 0.5821 0.81708 0.45036 0.0
H1855 H 0.58315 0.84453 0.41907 0.0
H1856 H 0.55799 0.84141 0.45137 0.0
H1857 H 0.70418 0.86063 0.51391 0.0
H1858 H 0.72118 0.89983 0.53409 0.0
H1859 H 0.71679 0.89103 0.48701 0.0
C1860 C 0.22844 0.70632 0.36437 0.0
C1861 C 0.22906 0.70127 0.32862 0.0
C1862 C 0.20551 0.68448 0.37917 0.0
C1863 C 0.18288 0.65787 0.35712 0.0
C1864 C 0.18235 0.65376 0.32043 0.0
C1865 C 0.2058 0.67555 0.30666 0.0
C1866 C 0.20639 0.68914 0.41845 0.0
C1867 C 0.1581 0.62579 0.29608 0.0
C1868 C 0.15193 0.58449 0.39663 0.0
C1869 C 0.11906 0.58185 0.39488 0.0
C1870 C 0.1734 0.60972 0.38492 0.0
C1871 C 0.16156 0.6329 0.37266 0.0
C1872 C 0.12857 0.63071 0.37216 0.0
C1873 C 0.10734 0.6047 0.38284 0.0
C1874 C 0.20819 0.61102 0.38438 0.0
C1875 C 0.11563 0.65544 0.35974 0.0
H1876 H 0.24657 0.72658 0.38086 0.0
H1877 H 0.20622 0.67236 0.27869 0.0
H1878 H 0.1811 0.68574 0.42251 0.0
H1879 H 0.21475 0.67193 0.43238 0.0
H1880 H 0.2235 0.71226 0.43105 0.0
H1881 H 0.15952 0.62751 0.26767 0.0
H1882 H 0.16343 0.60526 0.30432 0.0
H1883 H 0.13224 0.62226 0.29816 0.0
H1884 H 0.16043 0.56642 0.40613 0.0
H1885 H 0.08176 0.60232 0.38226 0.0
H1886 H 0.22679 0.63267 0.39929 0.0
H1887 H 0.21129 0.61059 0.35644 0.0
H1888 H 0.21373 0.59159 0.39615 0.0
H1889 H 0.13176 0.67771 0.37534 0.0
H1890 H 0.08967 0.65063 0.36254 0.0
H1891 H 0.1164 0.65782 0.33132 0.0
C1892 C 0.39419 0.1694 0.41474 0.0
C1893 C 0.41536 0.19654 0.40568 0.0
C1894 C 0.40691 0.1483 0.43028 0.0
C1895 C 0.44152 0.15471 0.4367 0.0
C1896 C 0.46291 0.18155 0.42643 0.0
C1897 C 0.4495 0.20241 0.41114 0.0
C1898 C 0.38352 0.11969 0.4408 0.0
C1899 C 0.49991 0.18844 0.43221 0.0
C1900 C 0.47953 0.11843 0.51056 0.0
C1901 C 0.48239 0.09416 0.49096 0.0
C1902 C 0.46584 0.13832 0.49306 0.0
C1903 C 0.45541 0.13374 0.45538 0.0
C1904 C 0.45807 0.10914 0.43555 0.0
C1905 C 0.47147 0.08954 0.45367 0.0
C1906 C 0.46308 0.16455 0.5146 0.0
C1907 C 0.44761 0.10398 0.39525 0.0
H1908 H 0.36775 0.16509 0.41056 0.0
H1909 H 0.46558 0.22329 0.40352 0.0
H1910 H 0.38668 0.09917 0.42909 0.0
H1911 H 0.38953 0.11997 0.47025 0.0
H1912 H 0.35703 0.11742 0.43201 0.0
H1913 H 0.51267 0.20945 0.42075 0.0
H1914 H 0.51112 0.19139 0.46121 0.0
H1915 H 0.5047 0.16905 0.41994 0.0
H1916 H 0.48849 0.12207 0.53927 0.0
H1917 H 0.47471 0.07126 0.43843 0.0
H1918 H 0.43668 0.16276 0.50994 0.0
H1919 H 0.47714 0.18653 0.5059 0.0
H1920 H 0.47276 0.16516 0.54361 0.0
H1921 H 0.42078 0.10036 0.38651 0.0
H1922 H 0.45201 0.08393 0.38397 0.0
H1923 H 0.46152 0.12445 0.38375 0.0
C1924 C 0.71189 0.79004 0.66538 0.0
C1925 C 0.70943 0.7861 0.70076 0.0
C1926 C 0.69471 0.80638 0.64504 0.0
C1927 C 0.67424 0.81845 0.66038 0.0
C1928 C 0.67011 0.8128 0.69536 0.0
C1929 C 0.68804 0.79696 0.71525 0.0
C1930 C 0.6999 0.81218 0.60795 0.0
C1931 C 0.64799 0.82472 0.71246 0.0
C1932 C 0.66069 0.89083 0.63364 0.0
C1933 C 0.62776 0.87938 0.61367 0.0
C1934 C 0.67665 0.87111 0.64761 0.0
C1935 C 0.65928 0.83916 0.64136 0.0
C1936 C 0.62668 0.8274 0.61962 0.0
C1937 C 0.61129 0.84766 0.60602 0.0
C1938 C 0.71155 0.88454 0.6705 0.0
C1939 C 0.60742 0.79348 0.61233 0.0
H1940 H 0.72866 0.78184 0.65429 0.0
H1941 H 0.68592 0.79365 0.74253 0.0
H1942 H 0.67564 0.80636 0.58871 0.0
H1943 H 0.71391 0.83681 0.6077 0.0
H1944 H 0.71397 0.79885 0.59863 0.0
H1945 H 0.64513 0.81595 0.73849 0.0
H1946 H 0.65871 0.85003 0.71694 0.0
H1947 H 0.62296 0.81822 0.69451 0.0
H1948 H 0.67373 0.9153 0.63912 0.0
H1949 H 0.58573 0.83863 0.59088 0.0
H1950 H 0.72792 0.87396 0.66097 0.0
H1951 H 0.71126 0.87954 0.69842 0.0
H1952 H 0.72251 0.90968 0.67052 0.0
H1953 H 0.62225 0.78158 0.60188 0.0
H1954 H 0.58328 0.78796 0.59285 0.0
H1955 H 0.60244 0.78426 0.6376 0.0
C1956 C 0.74176 0.17842 0.35413 0.0
C1957 C 0.7262 0.19626 0.3346 0.0
C1958 C 0.72575 0.1585 0.37669 0.0
C1959 C 0.69302 0.15572 0.37891 0.0
C1960 C 0.67726 0.17374 0.35923 0.0
C1961 C 0.69421 0.19408 0.33767 0.0
C1962 C 0.74376 0.14027 0.39787 0.0
C1963 C 0.6422 0.1711 0.36041 0.0
C1964 C 0.63589 0.08204 0.4037 0.0
C1965 C 0.63616 0.09034 0.43918 0.0
C1966 C 0.65494 0.10289 0.38415 0.0
C1967 C 0.67448 0.13294 0.40032 0.0
C1968 C 0.67507 0.14142 0.43627 0.0
C1969 C 0.65595 0.11997 0.45531 0.0
C1970 C 0.65385 0.09283 0.34602 0.0
C1971 C 0.69563 0.17321 0.45449 0.0
H1972 H 0.76669 0.18038 0.35218 0.0
H1973 H 0.68209 0.20777 0.32251 0.0
H1974 H 0.74325 0.14324 0.42648 0.0
H1975 H 0.73099 0.11562 0.38827 0.0
H1976 H 0.77009 0.14709 0.39561 0.0
H1977 H 0.63366 0.18703 0.34394 0.0
H1978 H 0.62487 0.14743 0.35057 0.0
H1979 H 0.64062 0.1759 0.38832 0.0
H1980 H 0.62091 0.05908 0.39119 0.0
H1981 H 0.65614 0.12655 0.48266 0.0
H1982 H 0.67936 0.09631 0.34264 0.0
H1983 H 0.64391 0.10695 0.32783 0.0
H1984 H 0.63813 0.06843 0.33771 0.0
H1985 H 0.72209 0.17864 0.4535 0.0
H1986 H 0.69404 0.17593 0.48282 0.0
H1987 H 0.68709 0.19017 0.44022 0.0
C1988 C 0.87392 0.70608 0.3111 0.0
C1989 C 0.83924 0.69716 0.31014 0.0
C1990 C 0.89432 0.68841 0.3248 0.0
C1991 C 0.88085 0.65931 0.33749 0.0
C1992 C 0.8458 0.65005 0.3364 0.0
C1993 C 0.82619 0.66872 0.32375 0.0
C1994 C 0.93107 0.70147 0.32622 0.0
C1995 C 0.82852 0.61981 0.34861 0.0
C1996 C 0.92876 0.59959 0.33904 0.0
C1997 C 0.94468 0.60013 0.37542 0.0
C1998 C 0.90863 0.6179 0.32699 0.0
C1999 C 0.90285 0.63878 0.35091 0.0
C2000 C 0.9187 0.6396 0.38763 0.0
C2001 C 0.93869 0.62097 0.39903 0.0
C2002 C 0.89312 0.61462 0.28777 0.0
C2003 C 0.91513 0.66095 0.41554 0.0
H2004 H 0.88569 0.72767 0.30158 0.0
H2005 H 0.79996 0.66045 0.3239 0.0
H2006 H 0.94526 0.70287 0.35393 0.0
H2007 H 0.93798 0.68617 0.30912 0.0
H2008 H 0.93878 0.72459 0.31727 0.0
H2009 H 0.80117 0.61404 0.34376 0.0
H2010 H 0.83362 0.60138 0.33458 0.0
H2011 H 0.83843 0.62039 0.37759 0.0
H2012 H 0.93197 0.58471 0.31906 0.0
H2013 H 0.94967 0.623 0.42717 0.0
H2014 H 0.90266 0.63682 0.27713 0.0
H2015 H 0.86576 0.60822 0.28377 0.0
H2016 H 0.89838 0.59717 0.27208 0.0
H2017 H 0.92924 0.68486 0.41195 0.0
H2018 H 0.92465 0.65674 0.44309 0.0
H2019 H 0.88871 0.65869 0.41243 0.0
C2020 C 0.34652 0.84437 0.35734 0.0
C2021 C 0.3481 0.81526 0.35119 0.0
C2022 C 0.37131 0.86684 0.38299 0.0
C2023 C 0.39859 0.86021 0.40249 0.0
C2024 C 0.39903 0.83028 0.39816 0.0
C2025 C 0.37379 0.80817 0.37267 0.0
C2026 C 0.36915 0.8981 0.38801 0.0
C2027 C 0.42724 0.82207 0.419 0.0
C2028 C 0.48288 0.92427 0.42456 0.0
C2029 C 0.48767 0.93214 0.46125 0.0
C2030 C 0.45391 0.9011 0.40537 0.0
C2031 C 0.42882 0.88538 0.42317 0.0
C2032 C 0.43333 0.89335 0.46025 0.0
C2033 C 0.46283 0.91653 0.47887 0.0
C2034 C 0.45023 0.89337 0.3659 0.0
C2035 C 0.40739 0.87737 0.48051 0.0
H2036 H 0.32636 0.84988 0.34152 0.0
H2037 H 0.37501 0.78563 0.36862 0.0
H2038 H 0.37445 0.90609 0.41685 0.0
H2039 H 0.38818 0.91462 0.37637 0.0
H2040 H 0.34427 0.89832 0.37498 0.0
H2041 H 0.42251 0.79722 0.41487 0.0
H2042 H 0.45057 0.83465 0.41066 0.0
H2043 H 0.43128 0.82899 0.44793 0.0
H2044 H 0.5019 0.93626 0.41072 0.0
H2045 H 0.46609 0.92291 0.50704 0.0
H2046 H 0.4276 0.89654 0.35058 0.0
H2047 H 0.44713 0.86905 0.36021 0.0
H2048 H 0.47201 0.90773 0.35607 0.0
H2049 H 0.38182 0.87167 0.4641 0.0
H2050 H 0.41002 0.89152 0.50554 0.0
H2051 H 0.41047 0.85572 0.48786 0.0
C2052 C 0.2407 0.34636 0.31214 0.0
C2053 C 0.22705 0.3139 0.30738 0.0
C2054 C 0.22423 0.36549 0.32484 0.0
C2055 C 0.19261 0.353 0.33442 0.0
C2056 C 0.17909 0.3202 0.33032 0.0
C2057 C 0.19578 0.30162 0.3169 0.0
C2058 C 0.24111 0.39962 0.3281 0.0
C2059 C 0.1466 0.30435 0.34066 0.0
C2060 C 0.1616 0.40375 0.39628 0.0
C2061 C 0.13768 0.41262 0.37278 0.0
C2062 C 0.179 0.38499 0.3847 0.0
C2063 C 0.17377 0.37375 0.34791 0.0
C2064 C 0.14996 0.3827 0.32406 0.0
C2065 C 0.13275 0.40128 0.33633 0.0
C2066 C 0.20348 0.37725 0.41248 0.0
C2067 C 0.14265 0.37269 0.28468 0.0
H2068 H 0.2646 0.35715 0.30554 0.0
H2069 H 0.1842 0.27699 0.31423 0.0
H2070 H 0.22365 0.41013 0.31418 0.0
H2071 H 0.24846 0.40903 0.35665 0.0
H2072 H 0.26368 0.40643 0.31686 0.0
H2073 H 0.13923 0.27911 0.33729 0.0
H2074 H 0.1486 0.31201 0.36896 0.0
H2075 H 0.12662 0.31067 0.32418 0.0
H2076 H 0.16682 0.41119 0.42448 0.0
H2077 H 0.11542 0.40724 0.31655 0.0
H2078 H 0.22908 0.3895 0.40915 0.0
H2079 H 0.19894 0.35244 0.40898 0.0
H2080 H 0.20218 0.38375 0.44007 0.0
H2081 H 0.16597 0.38104 0.27489 0.0
H2082 H 0.12418 0.38124 0.26889 0.0
H2083 H 0.133 0.34739 0.27983 0.0
C2084 C 0.38676 0.15806 0.61564 0.0
C2085 C 0.39314 0.16895 0.65172 0.0
C2086 C 0.40128 0.13787 0.6047 0.0
C2087 C 0.42159 0.12758 0.6307 0.0
C2088 C 0.42799 0.13851 0.66722 0.0
C2089 C 0.414 0.15944 0.67725 0.0
C2090 C 0.39466 0.12738 0.56542 0.0
C2091 C 0.44916 0.12774 0.69572 0.0
C2092 C 0.4302 0.05184 0.60756 0.0
C2093 C 0.46277 0.06137 0.60272 0.0
C2094 C 0.41643 0.07325 0.61658 0.0
C2095 C 0.43552 0.10481 0.61985 0.0
C2096 C 0.46813 0.11447 0.61371 0.0
C2097 C 0.48155 0.09253 0.60571 0.0
C2098 C 0.38202 0.06209 0.62403 0.0
C2099 C 0.48937 0.14784 0.61674 0.0
H2100 H 0.37078 0.16571 0.59598 0.0
H2101 H 0.41877 0.16796 0.70515 0.0
H2102 H 0.41767 0.12698 0.55793 0.0
H2103 H 0.37615 0.10379 0.55944 0.0
H2104 H 0.38471 0.14226 0.54846 0.0
H2105 H 0.45061 0.13755 0.72301 0.0
H2106 H 0.43888 0.10246 0.6942 0.0
H2107 H 0.47476 0.13424 0.69129 0.0
H2108 H 0.41603 0.02763 0.60568 0.0
H2109 H 0.50686 0.09968 0.60201 0.0
H2110 H 0.36552 0.07127 0.60596 0.0
H2111 H 0.38324 0.07057 0.6518 0.0
H2112 H 0.3706 0.03677 0.62055 0.0
H2113 H 0.47424 0.16178 0.60678 0.0
H2114 H 0.50938 0.15151 0.60181 0.0
H2115 H 0.50139 0.15632 0.6452 0.0
C2116 C 0.86619 0.29346 0.69743 0.0
C2117 C 0.83969 0.30126 0.70473 0.0
C2118 C 0.88789 0.31127 0.67727 0.0
C2119 C 0.88295 0.33743 0.6635 0.0
C2120 C 0.85582 0.34499 0.67019 0.0
C2121 C 0.83481 0.32706 0.69074 0.0
C2122 C 0.91647 0.30231 0.67109 0.0
C2123 C 0.84907 0.37228 0.65586 0.0
C2124 C 0.95712 0.40056 0.64152 0.0
C2125 C 0.95137 0.39494 0.60418 0.0
C2126 C 0.93507 0.38228 0.66095 0.0
C2127 C 0.90653 0.35729 0.64291 0.0
C2128 C 0.90049 0.35161 0.6052 0.0
C2129 C 0.92272 0.37055 0.5864 0.0
C2130 C 0.94233 0.38981 0.70092 0.0
C2131 C 0.87054 0.32539 0.58461 0.0
H2132 H 0.87038 0.27371 0.70802 0.0
H2133 H 0.81436 0.33334 0.6958 0.0
H2134 H 0.91508 0.29887 0.64205 0.0
H2135 H 0.94039 0.32099 0.68306 0.0
H2136 H 0.91665 0.28107 0.6828 0.0
H2137 H 0.82652 0.37473 0.66255 0.0
H2138 H 0.87068 0.39344 0.66694 0.0
H2139 H 0.84575 0.37028 0.62641 0.0
H2140 H 0.97889 0.41945 0.6557 0.0
H2141 H 0.91768 0.36611 0.55767 0.0
H2142 H 0.94513 0.37004 0.71433 0.0
H2143 H 0.92117 0.39429 0.70863 0.0
H2144 H 0.9653 0.41008 0.71105 0.0
H2145 H 0.87166 0.30352 0.59365 0.0
H2146 H 0.8689 0.32429 0.55536 0.0
H2147 H 0.84741 0.32753 0.5899 0.0
C2148 C 0.21818 0.65846 0.68291 0.0
C2149 C 0.21315 0.68641 0.68577 0.0
C2150 C 0.19683 0.63396 0.65701 0.0
C2151 C 0.1702 0.63754 0.63206 0.0
C2152 C 0.16566 0.66613 0.63415 0.0
C2153 C 0.18668 0.68991 0.6613 0.0
C2154 C 0.20226 0.60388 0.65706 0.0
C2155 C 0.13834 0.67151 0.60781 0.0
C2156 C 0.12846 0.57763 0.54865 0.0
C2157 C 0.10069 0.55751 0.55911 0.0
C2158 C 0.15107 0.60391 0.57172 0.0
C2159 C 0.14568 0.61067 0.60593 0.0
C2160 C 0.11709 0.59088 0.61594 0.0
C2161 C 0.09532 0.56478 0.59273 0.0
C2162 C 0.18123 0.62406 0.55984 0.0
C2163 C 0.10983 0.59678 0.65176 0.0
H2164 H 0.23841 0.65541 0.70179 0.0
H2165 H 0.18277 0.71147 0.66299 0.0
H2166 H 0.18021 0.58592 0.66263 0.0
H2167 H 0.2051 0.59677 0.63042 0.0
H2168 H 0.22459 0.60495 0.67739 0.0
H2169 H 0.13998 0.69568 0.61061 0.0
H2170 H 0.13948 0.66519 0.58012 0.0
H2171 H 0.11376 0.65677 0.61182 0.0
H2172 H 0.13315 0.57229 0.52302 0.0
H2173 H 0.07389 0.54973 0.60122 0.0
H2174 H 0.20411 0.62318 0.57746 0.0
H2175 H 0.18262 0.64815 0.56225 0.0
H2176 H 0.18097 0.61704 0.53184 0.0
H2177 H 0.13022 0.59591 0.67345 0.0
H2178 H 0.08599 0.5799 0.65513 0.0
H2179 H 0.10867 0.61996 0.65506 0.0
loop_
_geom_bond_atom_site_label_1
_geom_bond_atom_site_label_2
_geom_bond_distance
_geom_bond_site_symmetry_2
_ccdc_geom_bond_type
Tb0 C9 2.764 . S
Tb0 O10 2.325 . S
Tb0 O13 2.303 . S
Tb0 O17 2.322 . S
Tb0 O18 2.349 . S
Tb0 O21 2.415 . S
Tb0 O22 2.399 . S
Tb1 O11 2.322 . S
Tb1 O12 2.349 . S
Tb1 O14 2.415 . S
Tb1 O15 2.399 . S
Tb1 O16 2.325 . S
Tb1 O19 2.303 . S
Tb1 C30 2.764 . S
C2 O18 1.261 . S
C2 O19 1.257 . S
C3 C6 1.358 . S
C3 C7 1.332 . S
C3 C9 1.504 . S
C4 C5 1.373 . S
C4 C8 1.308 . S
C5 C4 1.373 . S
C5 C6 1.429 . S
C5 H32 0.932 . S
C6 C3 1.358 . S
C6 C5 1.429 . S
C6 H33 0.930 . S
C7 C3 1.332 . S
C7 C8 1.394 . S
C7 H34 0.932 . S
C8 C4 1.308 . S
C8 C7 1.394 . S
C8 H35 0.929 . S
C9 Tb0 2.764 . S
C9 C3 1.504 . S
C9 O21 1.239 . S
C9 O22 1.263 . S
O10 Tb0 2.325 . S
O10 C20 1.236 . S
O11 Tb1 2.322 . S
O11 C20 1.257 . S
O12 Tb1 2.349 . S
O12 C23 1.261 . S
O13 Tb0 2.303 . S
O13 C23 1.257 . S
O14 Tb1 2.415 . S
O14 C30 1.239 . S
O15 Tb1 2.399 . S
O15 C30 1.263 . S
O16 Tb1 2.325 . S
O16 C31 1.236 . S
O17 Tb0 2.322 . S
O17 C31 1.257 . S
O18 Tb0 2.349 . S
O18 C2 1.261 . S
O19 Tb1 2.303 . S
O19 C2 1.257 . S
C20 O10 1.236 . S
C20 O11 1.257 . S
O21 Tb0 2.415 . S
O21 C9 1.239 . S
O22 Tb0 2.399 . S
O22 C9 1.263 . S
C23 O12 1.261 . S
C23 O13 1.257 . S
C24 C27 1.358 . S
C24 C28 1.332 . S
C24 C30 1.504 . S
C25 C26 1.373 . S
C25 C29 1.308 . S
C26 C25 1.373 . S
C26 C27 1.429 . S
C26 H36 0.932 . S
C27 C24 1.358 . S
C27 C26 1.429 . S
C27 H37 0.930 . S
C28 C24 1.332 . S
C28 C29 1.394 . S
C28 H38 0.932 . S
C29 C25 1.308 . S
C29 C28 1.394 . S
C29 H39 0.929 . S
C30 Tb1 2.764 . S
C30 O14 1.239 . S
C30 O15 1.263 . S
C30 C24 1.504 . S
C31 O16 1.236 . S
C31 O17 1.257 . S
H32 C5 0.932 . S
H33 C6 0.930 . S
H34 C7 0.932 . S
H35 C8 0.929 . S
H36 C26 0.932 . S
H37 C27 0.930 . S
H38 C28 0.932 . S
H39 C29 0.929 . S
Tb40 C49 2.764 . S
Tb40 O50 2.325 . S
Tb40 O53 2.303 . S
Tb40 O57 2.322 . S
Tb40 O58 2.349 . S
Tb40 O61 2.415 . S
Tb40 O62 2.399 . S
Tb41 O51 2.322 . S
Tb41 O52 2.349 . S
Tb41 O54 2.415 . S
Tb41 O55 2.399 . S
Tb41 O56 2.325 . S
Tb41 O59 2.303 . S
Tb41 C70 2.764 . S
C42 O58 1.261 . S
C42 O59 1.257 . S
C43 C46 1.358 . S
C43 C47 1.332 . S
C43 C49 1.504 . S
C44 C45 1.373 . S
C44 C48 1.308 . S
C45 C44 1.373 . S
C45 C46 1.429 . S
C45 H72 0.932 . S
C46 C43 1.358 . S
C46 C45 1.429 . S
C46 H73 0.930 . S
C47 C43 1.332 . S
C47 C48 1.394 . S
C47 H74 0.932 . S
C48 C44 1.308 . S
C48 C47 1.394 . S
C48 H75 0.929 . S
C49 Tb40 2.764 . S
C49 C43 1.504 . S
C49 O61 1.239 . S
C49 O62 1.263 . S
O50 Tb40 2.325 . S
O50 C60 1.236 . S
O51 Tb41 2.322 . S
O51 C60 1.257 . S
O52 Tb41 2.349 . S
O52 C63 1.261 . S
O53 Tb40 2.303 . S
O53 C63 1.257 . S
O54 Tb41 2.415 . S
O54 C70 1.239 . S
O55 Tb41 2.399 . S
O55 C70 1.263 . S
O56 Tb41 2.325 . S
O56 C71 1.236 . S
O57 Tb40 2.322 . S
O57 C71 1.257 . S
O58 Tb40 2.349 . S
O58 C42 1.261 . S
O59 Tb41 2.303 . S
O59 C42 1.257 . S
C60 O50 1.236 . S
C60 O51 1.257 . S
O61 Tb40 2.415 . S
O61 C49 1.239 . S
O62 Tb40 2.399 . S
O62 C49 1.263 . S
C63 O52 1.261 . S
C63 O53 1.257 . S
C64 C67 1.358 . S
C64 C68 1.332 . S
C64 C70 1.504 . S
C65 C66 1.373 . S
C65 C69 1.308 . S
C66 C65 1.373 . S
C66 C67 1.429 . S
C66 H76 0.932 . S
C67 C64 1.358 . S
C67 C66 1.429 . S
C67 H77 0.930 . S
C68 C64 1.332 . S
C68 C69 1.394 . S
C68 H78 0.932 . S
C69 C65 1.308 . S
C69 C68 1.394 . S
C69 H79 0.929 . S
C70 Tb41 2.764 . S
C70 O54 1.239 . S
C70 O55 1.263 . S
C70 C64 1.504 . S
C71 O56 1.236 . S
C71 O57 1.257 . S
H72 C45 0.932 . S
H73 C46 0.930 . S
H74 C47 0.932 . S
H75 C48 0.929 . S
H76 C66 0.932 . S
H77 C67 0.930 . S
H78 C68 0.932 . S
H79 C69 0.929 . S
Tb80 C89 2.764 . S
Tb80 O90 2.325 . S
Tb80 O93 2.303 . S
Tb80 O97 2.322 . S
Tb80 O98 2.349 . S
Tb80 O101 2.415 . S
Tb80 O102 2.399 . S
Tb81 O91 2.322 . S
Tb81 O92 2.349 . S
Tb81 O94 2.415 . S
Tb81 O95 2.399 . S
Tb81 O96 2.325 . S
Tb81 O99 2.303 . S
Tb81 C110 2.764 . S
C82 O98 1.261 . S
C82 O99 1.257 . S
C83 C86 1.358 . S
C83 C87 1.332 . S
C83 C89 1.504 . S
C84 C85 1.373 . S
C84 C88 1.308 . S
C85 C84 1.373 . S
C85 C86 1.429 . S
C85 H112 0.932 . S
C86 C83 1.358 . S
C86 C85 1.429 . S
C86 H113 0.930 . S
C87 C83 1.332 . S
C87 C88 1.394 . S
C87 H114 0.932 . S
C88 C84 1.308 . S
C88 C87 1.394 . S
C88 H115 0.929 . S
C89 Tb80 2.764 . S
C89 C83 1.504 . S
C89 O101 1.239 . S
C89 O102 1.263 . S
O90 Tb80 2.325 . S
O90 C100 1.236 . S
O91 Tb81 2.322 . S
O91 C100 1.257 . S
O92 Tb81 2.349 . S
O92 C103 1.261 . S
O93 Tb80 2.303 . S
O93 C103 1.257 . S
O94 Tb81 2.415 . S
O94 C110 1.239 . S
O95 Tb81 2.399 . S
O95 C110 1.263 . S
O96 Tb81 2.325 . S
O96 C111 1.236 . S
O97 Tb80 2.322 . S
O97 C111 1.257 . S
O98 Tb80 2.349 . S
O98 C82 1.261 . S
O99 Tb81 2.303 . S
O99 C82 1.257 . S
C100 O90 1.236 . S
C100 O91 1.257 . S
O101 Tb80 2.415 . S
O101 C89 1.239 . S
O102 Tb80 2.399 . S
O102 C89 1.263 . S
C103 O92 1.261 . S
C103 O93 1.257 . S
C104 C107 1.358 . S
C104 C108 1.332 . S
C104 C110 1.504 . S
C105 C106 1.373 . S
C105 C109 1.308 . S
C106 C105 1.373 . S
C106 C107 1.429 . S
C106 H116 0.932 . S
C107 C104 1.358 . S
C107 C106 1.429 . S
C107 H117 0.930 . S
C108 C104 1.332 . S
C108 C109 1.394 . S
C108 H118 0.932 . S
C109 C105 1.308 . S
C109 C108 1.394 . S
C109 H119 0.929 . S
C110 Tb81 2.764 . S
C110 O94 1.239 . S
C110 O95 1.263 . S
C110 C104 1.504 . S
C111 O96 1.236 . S
C111 O97 1.257 . S
H112 C85 0.932 . S
H113 C86 0.930 . S
H114 C87 0.932 . S
H115 C88 0.929 . S
H116 C106 0.932 . S
H117 C107 0.930 . S
H118 C108 0.932 . S
H119 C109 0.929 . S
Tb120 C129 2.764 . S
Tb120 O130 2.325 . S
Tb120 O133 2.303 . S
Tb120 O137 2.322 . S
Tb120 O138 2.349 . S
Tb120 O141 2.415 . S
Tb120 O142 2.399 . S
Tb121 O131 2.322 . S
Tb121 O132 2.349 . S
Tb121 O134 2.415 . S
Tb121 O135 2.399 . S
Tb121 O136 2.325 . S
Tb121 O139 2.303 . S
Tb121 C150 2.764 . S
C122 O138 1.261 . S
C122 O139 1.257 . S
C123 C126 1.358 . S
C123 C127 1.332 . S
C123 C129 1.504 . S
C124 C125 1.373 . S
C124 C128 1.308 . S
C125 C124 1.373 . S
C125 C126 1.429 . S
C125 H152 0.932 . S
C126 C123 1.358 . S
C126 C125 1.429 . S
C126 H153 0.930 . S
C127 C123 1.332 . S
C127 C128 1.394 . S
C127 H154 0.932 . S
C128 C124 1.308 . S
C128 C127 1.394 . S
C128 H155 0.929 . S
C129 Tb120 2.764 . S
C129 C123 1.504 . S
C129 O141 1.239 . S
C129 O142 1.263 . S
O130 Tb120 2.325 . S
O130 C140 1.236 . S
O131 Tb121 2.322 . S
O131 C140 1.257 . S
O132 Tb121 2.349 . S
O132 C143 1.261 . S
O133 Tb120 2.303 . S
O133 C143 1.257 . S
O134 Tb121 2.415 . S
O134 C150 1.239 . S
O135 Tb121 2.399 . S
O135 C150 1.263 . S
O136 Tb121 2.325 . S
O136 C151 1.236 . S
O137 Tb120 2.322 . S
O137 C151 1.257 . S
O138 Tb120 2.349 . S
O138 C122 1.261 . S
O139 Tb121 2.303 . S
O139 C122 1.257 . S
C140 O130 1.236 . S
C140 O131 1.257 . S
O141 Tb120 2.415 . S
O141 C129 1.239 . S
O142 Tb120 2.399 . S
O142 C129 1.263 . S
C143 O132 1.261 . S
C143 O133 1.257 . S
C144 C147 1.358 . S
C144 C148 1.332 . S
C144 C150 1.504 . S
C145 C146 1.373 . S
C145 C149 1.308 . S
C146 C145 1.373 . S
C146 C147 1.429 . S
C146 H156 0.932 . S
C147 C144 1.358 . S
C147 C146 1.429 . S
C147 H157 0.930 . S
C148 C144 1.332 . S
C148 C149 1.394 . S
C148 H158 0.932 . S
C149 C145 1.308 . S
C149 C148 1.394 . S
C149 H159 0.929 . S
C150 Tb121 2.764 . S
C150 O134 1.239 . S
C150 O135 1.263 . S
C150 C144 1.504 . S
C151 O136 1.236 . S
C151 O137 1.257 . S
H152 C125 0.932 . S
H153 C126 0.930 . S
H154 C127 0.932 . S
H155 C128 0.929 . S
H156 C146 0.932 . S
H157 C147 0.930 . S
H158 C148 0.932 . S
H159 C149 0.929 . S
Tb160 C169 2.764 . S
Tb160 O170 2.325 . S
Tb160 O173 2.303 . S
Tb160 O177 2.322 . S
Tb160 O178 2.349 . S
Tb160 O181 2.415 . S
Tb160 O182 2.399 . S
Tb161 O171 2.322 . S
Tb161 O172 2.349 . S
Tb161 O174 2.415 . S
Tb161 O175 2.399 . S
Tb161 O176 2.325 . S
Tb161 O179 2.303 . S
Tb161 C190 2.764 . S
C162 O178 1.261 . S
C162 O179 1.257 . S
C163 C166 1.358 . S
C163 C167 1.332 . S
C163 C169 1.504 . S
C164 C165 1.373 . S
C164 C168 1.308 . S
C165 C164 1.373 . S
C165 C166 1.429 . S
C165 H192 0.932 . S
C166 C163 1.358 . S
C166 C165 1.429 . S
C166 H193 0.930 . S
C167 C163 1.332 . S
C167 C168 1.394 . S
C167 H194 0.932 . S
C168 C164 1.308 . S
C168 C167 1.394 . S
C168 H195 0.929 . S
C169 Tb160 2.764 . S
C169 C163 1.504 . S
C169 O181 1.239 . S
C169 O182 1.263 . S
O170 Tb160 2.325 . S
O170 C180 1.236 . S
O171 Tb161 2.322 . S
O171 C180 1.257 . S
O172 Tb161 2.349 . S
O172 C183 1.261 . S
O173 Tb160 2.303 . S
O173 C183 1.257 . S
O174 Tb161 2.415 . S
O174 C190 1.239 . S
O175 Tb161 2.399 . S
O175 C190 1.263 . S
O176 Tb161 2.325 . S
O176 C191 1.236 . S
O177 Tb160 2.322 . S
O177 C191 1.257 . S
O178 Tb160 2.349 . S
O178 C162 1.261 . S
O179 Tb161 2.303 . S
O179 C162 1.257 . S
C180 O170 1.236 . S
C180 O171 1.257 . S
O181 Tb160 2.415 . S
O181 C169 1.239 . S
O182 Tb160 2.399 . S
O182 C169 1.263 . S
C183 O172 1.261 . S
C183 O173 1.257 . S
C184 C187 1.358 . S
C184 C188 1.332 . S
C184 C190 1.504 . S
C185 C186 1.373 . S
C185 C189 1.308 . S
C186 C185 1.373 . S
C186 C187 1.429 . S
C186 H196 0.932 . S
C187 C184 1.358 . S
C187 C186 1.429 . S
C187 H197 0.930 . S
C188 C184 1.332 . S
C188 C189 1.394 . S
C188 H198 0.932 . S
C189 C185 1.308 . S
C189 C188 1.394 . S
C189 H199 0.929 . S
C190 Tb161 2.764 . S
C190 O174 1.239 . S
C190 O175 1.263 . S
C190 C184 1.504 . S
C191 O176 1.236 . S
C191 O177 1.257 . S
H192 C165 0.932 . S
H193 C166 0.930 . S
H194 C167 0.932 . S
H195 C168 0.929 . S
H196 C186 0.932 . S
H197 C187 0.930 . S
H198 C188 0.932 . S
H199 C189 0.929 . S
Tb200 C209 2.764 . S
Tb200 O210 2.325 . S
Tb200 O213 2.303 . S
Tb200 O217 2.322 . S
Tb200 O218 2.349 . S
Tb200 O221 2.415 . S
Tb200 O222 2.399 . S
Tb201 O211 2.322 . S
Tb201 O212 2.349 . S
Tb201 O214 2.415 . S
Tb201 O215 2.399 . S
Tb201 O216 2.325 . S
Tb201 O219 2.303 . S
Tb201 C230 2.764 . S
C202 O218 1.261 . S
C202 O219 1.257 . S
C203 C206 1.358 . S
C203 C207 1.332 . S
C203 C209 1.504 . S
C204 C205 1.373 . S
C204 C208 1.308 . S
C205 C204 1.373 . S
C205 C206 1.429 . S
C205 H232 0.932 . S
C206 C203 1.358 . S
C206 C205 1.429 . S
C206 H233 0.930 . S
C207 C203 1.332 . S
C207 C208 1.394 . S
C207 H234 0.932 . S
C208 C204 1.308 . S
C208 C207 1.394 . S
C208 H235 0.929 . S
C209 Tb200 2.764 . S
C209 C203 1.504 . S
C209 O221 1.239 . S
C209 O222 1.263 . S
O210 Tb200 2.325 . S
O210 C220 1.236 . S
O211 Tb201 2.322 . S
O211 C220 1.257 . S
O212 Tb201 2.349 . S
O212 C223 1.261 . S
O213 Tb200 2.303 . S
O213 C223 1.257 . S
O214 Tb201 2.415 . S
O214 C230 1.239 . S
O215 Tb201 2.399 . S
O215 C230 1.263 . S
O216 Tb201 2.325 . S
O216 C231 1.236 . S
O217 Tb200 2.322 . S
O217 C231 1.257 . S
O218 Tb200 2.349 . S
O218 C202 1.261 . S
O219 Tb201 2.303 . S
O219 C202 1.257 . S
C220 O210 1.236 . S
C220 O211 1.257 . S
O221 Tb200 2.415 . S
O221 C209 1.239 . S
O222 Tb200 2.399 . S
O222 C209 1.263 . S
C223 O212 1.261 . S
C223 O213 1.257 . S
C224 C227 1.358 . S
C224 C228 1.332 . S
C224 C230 1.504 . S
C225 C226 1.373 . S
C225 C229 1.308 . S
C226 C225 1.373 . S
C226 C227 1.429 . S
C226 H236 0.932 . S
C227 C224 1.358 . S
C227 C226 1.429 . S
C227 H237 0.930 . S
C228 C224 1.332 . S
C228 C229 1.394 . S
C228 H238 0.932 . S
C229 C225 1.308 . S
C229 C228 1.394 . S
C229 H239 0.929 . S
C230 Tb201 2.764 . S
C230 O214 1.239 . S
C230 O215 1.263 . S
C230 C224 1.504 . S
C231 O216 1.236 . S
C231 O217 1.257 . S
H232 C205 0.932 . S
H233 C206 0.930 . S
H234 C207 0.932 . S
H235 C208 0.929 . S
H236 C226 0.932 . S
H237 C227 0.930 . S
H238 C228 0.932 . S
H239 C229 0.929 . S
Tb240 C249 2.764 . S
Tb240 O250 2.325 . S
Tb240 O253 2.303 . S
Tb240 O257 2.322 . S
Tb240 O258 2.349 . S
Tb240 O261 2.415 . S
Tb240 O262 2.399 . S
Tb241 O251 2.322 . S
Tb241 O252 2.349 . S
Tb241 O254 2.415 . S
Tb241 O255 2.399 . S
Tb241 O256 2.325 . S
Tb241 O259 2.303 . S
Tb241 C270 2.764 . S
C242 O258 1.261 . S
C242 O259 1.257 . S
C243 C246 1.358 . S
C243 C247 1.332 . S
C243 C249 1.504 . S
C244 C245 1.373 . S
C244 C248 1.308 . S
C245 C244 1.373 . S
C245 C246 1.429 . S
C245 H272 0.932 . S
C246 C243 1.358 . S
C246 C245 1.429 . S
C246 H273 0.930 . S
C247 C243 1.332 . S
C247 C248 1.394 . S
C247 H274 0.932 . S
C248 C244 1.308 . S
C248 C247 1.394 . S
C248 H275 0.929 . S
C249 Tb240 2.764 . S
C249 C243 1.504 . S
C249 O261 1.239 . S
C249 O262 1.263 . S
O250 Tb240 2.325 . S
O250 C260 1.236 . S
O251 Tb241 2.322 . S
O251 C260 1.257 . S
O252 Tb241 2.349 . S
O252 C263 1.261 . S
O253 Tb240 2.303 . S
O253 C263 1.257 . S
O254 Tb241 2.415 . S
O254 C270 1.239 . S
O255 Tb241 2.399 . S
O255 C270 1.263 . S
O256 Tb241 2.325 . S
O256 C271 1.236 . S
O257 Tb240 2.322 . S
O257 C271 1.257 . S
O258 Tb240 2.349 . S
O258 C242 1.261 . S
O259 Tb241 2.303 . S
O259 C242 1.257 . S
C260 O250 1.236 . S
C260 O251 1.257 . S
O261 Tb240 2.415 . S
O261 C249 1.239 . S
O262 Tb240 2.399 . S
O262 C249 1.263 . S
C263 O252 1.261 . S
C263 O253 1.257 . S
C264 C267 1.358 . S
C264 C268 1.332 . S
C264 C270 1.504 . S
C265 C266 1.373 . S
C265 C269 1.308 . S
C266 C265 1.373 . S
C266 C267 1.429 . S
C266 H276 0.932 . S
C267 C264 1.358 . S
C267 C266 1.429 . S
C267 H277 0.930 . S
C268 C264 1.332 . S
C268 C269 1.394 . S
C268 H278 0.932 . S
C269 C265 1.308 . S
C269 C268 1.394 . S
C269 H279 0.929 . S
C270 Tb241 2.764 . S
C270 O254 1.239 . S
C270 O255 1.263 . S
C270 C264 1.504 . S
C271 O256 1.236 . S
C271 O257 1.257 . S
H272 C245 0.932 . S
H273 C246 0.930 . S
H274 C247 0.932 . S
H275 C248 0.929 . S
H276 C266 0.932 . S
H277 C267 0.930 . S
H278 C268 0.932 . S
H279 C269 0.929 . S
Tb280 C289 2.764 . S
Tb280 O290 2.325 . S
Tb280 O293 2.303 . S
Tb280 O297 2.322 . S
Tb280 O298 2.349 . S
Tb280 O301 2.415 . S
Tb280 O302 2.399 . S
Tb281 O291 2.322 . S
Tb281 O292 2.349 . S
Tb281 O294 2.415 . S
Tb281 O295 2.399 . S
Tb281 O296 2.325 . S
Tb281 O299 2.303 . S
Tb281 C310 2.764 . S
C282 O298 1.261 . S
C282 O299 1.257 . S
C283 C286 1.358 . S
C283 C287 1.332 . S
C283 C289 1.504 . S
C284 C285 1.373 . S
C284 C288 1.308 . S
C285 C284 1.373 . S
C285 C286 1.429 . S
C285 H312 0.932 . S
C286 C283 1.358 . S
C286 C285 1.429 . S
C286 H313 0.930 . S
C287 C283 1.332 . S
C287 C288 1.394 . S
C287 H314 0.932 . S
C288 C284 1.308 . S
C288 C287 1.394 . S
C288 H315 0.929 . S
C289 Tb280 2.764 . S
C289 C283 1.504 . S
C289 O301 1.239 . S
C289 O302 1.263 . S
O290 Tb280 2.325 . S
O290 C300 1.236 . S
O291 Tb281 2.322 . S
O291 C300 1.257 . S
O292 Tb281 2.349 . S
O292 C303 1.261 . S
O293 Tb280 2.303 . S
O293 C303 1.257 . S
O294 Tb281 2.415 . S
O294 C310 1.239 . S
O295 Tb281 2.399 . S
O295 C310 1.263 . S
O296 Tb281 2.325 . S
O296 C311 1.236 . S
O297 Tb280 2.322 . S
O297 C311 1.257 . S
O298 Tb280 2.349 . S
O298 C282 1.261 . S
O299 Tb281 2.303 . S
O299 C282 1.257 . S
C300 O290 1.236 . S
C300 O291 1.257 . S
O301 Tb280 2.415 . S
O301 C289 1.239 . S
O302 Tb280 2.399 . S
O302 C289 1.263 . S
C303 O292 1.261 . S
C303 O293 1.257 . S
C304 C307 1.358 . S
C304 C308 1.332 . S
C304 C310 1.504 . S
C305 C306 1.373 . S
C305 C309 1.308 . S
C306 C305 1.373 . S
C306 C307 1.429 . S
C306 H316 0.932 . S
C307 C304 1.358 . S
C307 C306 1.429 . S
C307 H317 0.930 . S
C308 C304 1.332 . S
C308 C309 1.394 . S
C308 H318 0.932 . S
C309 C305 1.308 . S
C309 C308 1.394 . S
C309 H319 0.929 . S
C310 Tb281 2.764 . S
C310 O294 1.239 . S
C310 O295 1.263 . S
C310 C304 1.504 . S
C311 O296 1.236 . S
C311 O297 1.257 . S
H312 C285 0.932 . S
H313 C286 0.930 . S
H314 C287 0.932 . S
H315 C288 0.929 . S
H316 C306 0.932 . S
H317 C307 0.930 . S
H318 C308 0.932 . S
H319 C309 0.929 . S
Cd320 N323 2.350 1_545 S
Cd320 N349 2.288 1_455 S
Cd320 O356 2.267 1_445 S
Cd320 O359 2.280 . S
Cd320 O360 2.409 1_445 S
Cd320 O361 2.325 1_445 S
Cd321 N336 2.304 . S
Cd321 N340 2.334 . S
Cd321 O357 2.272 1_445 S
Cd321 O358 2.268 . S
Cd321 O362 2.417 . S
Cd321 O363 2.330 . S
C322 N323 1.332 . S
C322 C326 1.381 . S
C322 H328 0.931 1_565 S
N323 Cd320 2.350 1_565 S
N323 C322 1.332 . S
N323 C327 1.328 . S
C324 C325 1.396 . S
C324 C327 1.378 . S
C324 H366 0.931 . S
C325 C324 1.396 . S
C325 C326 1.382 . S
C326 C322 1.381 . S
C326 C325 1.382 . S
C326 H367 0.930 . S
C327 N323 1.328 . S
C327 C324 1.378 . S
C327 H329 0.930 . S
H328 C322 0.931 1_545 S
H329 C327 0.930 . S
C330 O356 1.238 . S
C330 O357 1.254 . S
C331 C332 1.379 . S
C331 N336 1.337 1_655 S
C331 H337 0.929 . S
C332 C331 1.379 . S
C332 C333 1.380 . S
C332 H368 0.929 . S
C333 C332 1.380 . S
C333 C334 1.413 . S
C334 C333 1.413 . S
C334 C335 1.356 1_655 S
C334 H369 0.936 1_655 S
C335 C334 1.356 1_455 S
C335 N336 1.338 . S
C335 H338 0.930 . S
N336 Cd321 2.304 . S
N336 C331 1.337 1_455 S
N336 C335 1.338 . S
H337 C331 0.929 . S
H338 C335 0.930 . S
C339 N340 1.332 1_565 S
C339 C343 1.381 . S
C339 H345 0.931 . S
N340 Cd321 2.334 . S
N340 C339 1.332 1_545 S
N340 C344 1.328 . S
C341 C342 1.396 1_545 S
C341 C344 1.378 . S
C341 H370 0.931 . S
C342 C341 1.396 1_565 S
C342 C343 1.382 . S
C343 C339 1.381 . S
C343 C342 1.382 . S
C343 H371 0.930 . S
C344 N340 1.328 . S
C344 C341 1.378 . S
C344 H346 0.930 . S
H345 C339 0.931 . S
H346 C344 0.930 . S
C347 O358 1.238 . S
C347 O359 1.253 . S
C348 O360 1.239 . S
C348 O361 1.230 . S
N349 Cd320 2.288 1_655 S
N349 C350 1.337 . S
N349 C354 1.338 . S
C350 N349 1.337 . S
C350 C351 1.379 . S
C350 H364 0.929 . S
C351 C350 1.379 . S
C351 C352 1.380 . S
C351 H372 0.929 . S
C352 C351 1.380 . S
C352 C353 1.399 . S
C353 C352 1.399 . S
C353 C354 1.376 . S
C353 H373 0.931 . S
C354 N349 1.338 . S
C354 C353 1.376 . S
C354 H365 0.930 . S
C355 O362 1.239 . S
C355 O363 1.230 . S
O356 Cd320 2.267 1_665 S
O356 C330 1.238 . S
O357 Cd321 2.272 1_665 S
O357 C330 1.254 . S
O358 Cd321 2.268 . S
O358 C347 1.238 . S
O359 Cd320 2.280 . S
O359 C347 1.253 . S
O360 Cd320 2.409 1_665 S
O360 C348 1.239 . S
O361 Cd320 2.325 1_665 S
O361 C348 1.230 . S
O362 Cd321 2.417 . S
O362 C355 1.239 . S
O363 Cd321 2.330 . S
O363 C355 1.230 . S
H364 C350 0.929 . S
H365 C354 0.930 . S
H366 C324 0.931 . S
H367 C326 0.930 . S
H368 C332 0.929 . S
H369 C334 0.936 1_455 S
H370 C341 0.931 . S
H371 C343 0.930 . S
H372 C351 0.929 . S
H373 C353 0.931 . S
Cd374 N377 2.334 1_545 S
Cd374 N403 2.304 . S
Cd374 O410 2.268 1_545 S
Cd374 O413 2.273 . S
Cd374 O414 2.417 1_545 S
Cd374 O415 2.330 . S
Cd375 N390 2.304 . S
Cd375 N394 2.334 . S
Cd375 O411 2.273 1_554 S
Cd375 O412 2.268 . S
Cd375 O416 2.417 1_554 S
Cd375 O417 2.330 1_554 S
C376 N377 1.332 . S
C376 C380 1.381 . S
C376 H382 0.931 1_565 S
N377 Cd374 2.334 1_565 S
N377 C376 1.332 . S
N377 C381 1.328 . S
C378 C379 1.396 . S
C378 C381 1.378 . S
C378 H420 0.931 . S
C379 C378 1.396 . S
C379 C380 1.382 . S
C380 C376 1.381 . S
C380 C379 1.382 . S
C380 H421 0.930 . S
C381 N377 1.328 . S
C381 C378 1.378 . S
C381 H383 0.930 . S
H382 C376 0.931 1_545 S
H383 C381 0.930 . S
C384 O410 1.238 1_556 S
C384 O411 1.253 1_565 S
C385 C386 1.379 . S
C385 N390 1.337 1_556 S
C385 H391 0.929 . S
C386 C385 1.379 . S
C386 C387 1.380 1_556 S
C386 H422 0.929 . S
C387 C386 1.380 1_554 S
C387 C388 1.399 . S
C388 C387 1.399 . S
C388 C389 1.376 . S
C388 H423 0.931 . S
C389 C388 1.376 . S
C389 N390 1.338 . S
C389 H392 0.930 . S
N390 Cd375 2.304 . S
N390 C385 1.337 1_554 S
N390 C389 1.338 . S
H391 C385 0.929 . S
H392 C389 0.930 . S
C393 N394 1.332 1_556 S
C393 C397 1.381 1_545 S
C393 H399 0.931 1_545 S
N394 Cd375 2.334 . S
N394 C393 1.332 1_554 S
N394 C398 1.328 . S
C395 C396 1.396 1_545 S
C395 C398 1.378 . S
C395 H424 0.931 . S
C396 C395 1.396 1_565 S
C396 C397 1.382 1_554 S
C397 C393 1.381 1_565 S
C397 C396 1.382 1_556 S
C397 H425 0.930 . S
C398 N394 1.328 . S
C398 C395 1.378 . S
C398 H400 0.930 . S
H399 C393 0.931 1_565 S
H400 C398 0.930 . S
C401 O412 1.238 . S
C401 O413 1.253 . S
C402 O414 1.239 . S
C402 O415 1.231 1_565 S
N403 Cd374 2.304 . S
N403 C404 1.337 . S
N403 C408 1.338 . S
C404 N403 1.337 . S
C404 C405 1.379 . S
C404 H418 0.929 . S
C405 C404 1.379 . S
C405 C406 1.380 . S
C405 H426 0.929 . S
C406 C405 1.380 . S
C406 C407 1.399 . S
C407 C406 1.399 . S
C407 C408 1.376 . S
C407 H427 0.931 . S
C408 N403 1.338 . S
C408 C407 1.376 . S
C408 H419 0.930 . S
C409 O416 1.239 . S
C409 O417 1.230 . S
O410 Cd374 2.268 1_565 S
O410 C384 1.238 1_554 S
O411 Cd375 2.273 1_556 S
O411 C384 1.253 1_545 S
O412 Cd375 2.268 . S
O412 C401 1.238 . S
O413 Cd374 2.273 . S
O413 C401 1.253 . S
O414 Cd374 2.417 1_565 S
O414 C402 1.239 . S
O415 Cd374 2.330 . S
O415 C402 1.231 1_545 S
O416 Cd375 2.417 1_556 S
O416 C409 1.239 . S
O417 Cd375 2.330 1_556 S
O417 C409 1.230 . S
H418 C404 0.929 . S
H419 C408 0.930 . S
H420 C378 0.931 . S
H421 C380 0.930 . S
H422 C386 0.929 . S
H423 C388 0.931 . S
H424 C395 0.931 . S
H425 C397 0.930 . S
H426 C405 0.929 . S
H427 C407 0.931 . S
Cd428 N431 2.334 1_655 S
Cd428 N457 2.304 . S
Cd428 O464 2.268 1_554 S
Cd428 O467 2.273 1_655 S
Cd428 O468 2.417 . S
Cd428 O469 2.330 . S
Cd429 N444 2.304 1_455 S
Cd429 N448 2.334 . S
Cd429 O465 2.273 1_455 S
Cd429 O466 2.268 1_556 S
Cd429 O470 2.417 . S
Cd429 O471 2.330 . S
C430 N431 1.332 . S
C430 C434 1.381 . S
C430 H436 0.931 . S
N431 Cd428 2.334 1_455 S
N431 C430 1.332 . S
N431 C435 1.328 . S
C432 C433 1.396 . S
C432 C435 1.378 . S
C432 H474 0.931 1_554 S
C433 C432 1.396 . S
C433 C434 1.382 . S
C434 C430 1.381 . S
C434 C433 1.382 . S
C434 H475 0.930 . S
C435 N431 1.328 . S
C435 C432 1.378 . S
C435 H437 0.930 1_454 S
H436 C430 0.931 . S
H437 C435 0.930 1_656 S
C438 O464 1.238 . S
C438 O465 1.253 . S
C439 C440 1.379 . S
C439 N444 1.337 . S
C439 H445 0.929 . S
C440 C439 1.379 . S
C440 C441 1.380 . S
C440 H476 0.929 . S
C441 C440 1.380 . S
C441 C442 1.399 . S
C442 C441 1.399 . S
C442 C443 1.376 . S
C442 H477 0.931 1_556 S
C443 C442 1.376 . S
C443 N444 1.338 . S
C443 H446 0.930 1_656 S
N444 Cd429 2.304 1_655 S
N444 C439 1.337 . S
N444 C443 1.338 . S
H445 C439 0.929 . S
H446 C443 0.930 1_454 S
C447 N448 1.332 . S
C447 C451 1.381 . S
C447 H453 0.931 . S
N448 Cd429 2.334 . S
N448 C447 1.332 . S
N448 C452 1.328 . S
C449 C450 1.396 . S
C449 C452 1.378 . S
C449 H478 0.931 1_556 S
C450 C449 1.396 . S
C450 C451 1.382 . S
C451 C447 1.381 . S
C451 C450 1.382 . S
C451 H479 0.930 . S
C452 N448 1.328 . S
C452 C449 1.378 . S
C452 H454 0.930 1_556 S
H453 C447 0.931 . S
H454 C452 0.930 1_554 S
C455 O466 1.238 . S
C455 O467 1.253 . S
C456 O468 1.239 . S
C456 O469 1.230 . S
N457 Cd428 2.304 . S
N457 C458 1.337 . S
N457 C462 1.338 . S
C458 N457 1.337 . S
C458 C459 1.379 . S
C458 H472 0.929 . S
C459 C458 1.379 . S
C459 C460 1.380 . S
C459 H480 0.929 . S
C460 C459 1.380 . S
C460 C461 1.399 . S
C461 C460 1.399 . S
C461 C462 1.376 . S
C461 H481 0.931 1_554 S
C462 N457 1.338 . S
C462 C461 1.376 . S
C462 H473 0.930 1_554 S
C463 O470 1.239 . S
C463 O471 1.230 . S
O464 Cd428 2.268 1_556 S
O464 C438 1.238 . S
O465 Cd429 2.273 1_655 S
O465 C438 1.253 . S
O466 Cd429 2.268 1_554 S
O466 C455 1.238 . S
O467 Cd428 2.273 1_455 S
O467 C455 1.253 . S
O468 Cd428 2.417 . S
O468 C456 1.239 . S
O469 Cd428 2.330 . S
O469 C456 1.230 . S
O470 Cd429 2.417 . S
O470 C463 1.239 . S
O471 Cd429 2.330 . S
O471 C463 1.230 . S
H472 C458 0.929 . S
H473 C462 0.930 1_556 S
H474 C432 0.931 1_556 S
H475 C434 0.930 . S
H476 C440 0.929 . S
H477 C442 0.931 1_554 S
H478 C449 0.931 1_554 S
H479 C451 0.930 . S
H480 C459 0.929 . S
H481 C461 0.931 1_556 S
Cd482 N485 2.334 . S
Cd482 N511 2.304 . S
Cd482 O518 2.268 . S
Cd482 O521 2.273 . S
Cd482 O522 2.417 . S
Cd482 O523 2.330 . S
Cd483 N498 2.304 . S
Cd483 N502 2.334 . S
Cd483 O519 2.273 . S
Cd483 O520 2.268 1_556 S
Cd483 O524 2.417 . S
Cd483 O525 2.330 . S
C484 N485 1.332 . S
C484 C488 1.381 . S
C484 H490 0.931 . S
N485 Cd482 2.334 . S
N485 C484 1.332 . S
N485 C489 1.328 . S
C486 C487 1.396 . S
C486 C489 1.378 . S
C486 H528 0.931 . S
C487 C486 1.396 . S
C487 C488 1.382 . S
C488 C484 1.381 . S
C488 C487 1.382 . S
C488 H529 0.930 . S
C489 N485 1.328 . S
C489 C486 1.378 . S
C489 H491 0.930 . S
H490 C484 0.931 . S
H491 C489 0.930 . S
C492 O518 1.238 1_556 S
C492 O519 1.253 . S
C493 C494 1.379 . S
C493 N498 1.337 . S
C493 H499 0.929 . S
C494 C493 1.379 . S
C494 C495 1.380 . S
C494 H530 0.929 . S
C495 C494 1.380 . S
C495 C496 1.399 1_556 S
C496 C495 1.399 1_554 S
C496 C497 1.376 . S
C496 H531 0.931 . S
C497 C496 1.376 . S
C497 N498 1.338 1_554 S
C497 H500 0.930 . S
N498 Cd483 2.304 . S
N498 C493 1.337 . S
N498 C497 1.338 1_556 S
H499 C493 0.929 . S
H500 C497 0.930 . S
C501 N502 1.332 . S
C501 C505 1.381 . S
C501 H507 0.931 . S
N502 Cd483 2.334 . S
N502 C501 1.332 . S
N502 C506 1.328 1_556 S
C503 C504 1.396 1_554 S
C503 C506 1.378 . S
C503 H532 0.931 . S
C504 C503 1.396 1_556 S
C504 C505 1.382 . S
C505 C501 1.381 . S
C505 C504 1.382 . S
C505 H533 0.930 . S
C506 N502 1.328 1_554 S
C506 C503 1.378 . S
C506 H508 0.930 . S
H507 C501 0.931 . S
H508 C506 0.930 . S
C509 O520 1.238 . S
C509 O521 1.253 . S
C510 O522 1.239 . S
C510 O523 1.230 . S
N511 Cd482 2.304 . S
N511 C512 1.337 . S
N511 C516 1.338 . S
C512 N511 1.337 . S
C512 C513 1.379 . S
C512 H526 0.929 . S
C513 C512 1.379 . S
C513 C514 1.380 . S
C513 H534 0.929 . S
C514 C513 1.380 . S
C514 C515 1.399 . S
C515 C514 1.399 . S
C515 C516 1.376 . S
C515 H535 0.931 . S
C516 N511 1.338 . S
C516 C515 1.376 . S
C516 H527 0.930 . S
C517 O524 1.239 . S
C517 O525 1.230 . S
O518 Cd482 2.268 . S
O518 C492 1.238 1_554 S
O519 Cd483 2.273 . S
O519 C492 1.253 . S
O520 Cd483 2.268 1_554 S
O520 C509 1.238 . S
O521 Cd482 2.273 . S
O521 C509 1.253 . S
O522 Cd482 2.417 . S
O522 C510 1.239 . S
O523 Cd482 2.330 . S
O523 C510 1.230 . S
O524 Cd483 2.417 . S
O524 C517 1.239 . S
O525 Cd483 2.330 . S
O525 C517 1.230 . S
H526 C512 0.929 . S
H527 C516 0.930 . S
H528 C486 0.931 . S
H529 C488 0.930 . S
H530 C494 0.929 . S
H531 C496 0.931 . S
H532 C503 0.931 . S
H533 C505 0.930 . S
H534 C513 0.929 . S
H535 C515 0.931 . S
Cd536 N539 2.334 . S
Cd536 N565 2.304 1_455 S
Cd536 O572 2.268 1_455 S
Cd536 O575 2.273 . S
Cd536 O576 2.417 1_455 S
Cd536 O577 2.330 1_455 S
Cd537 N552 2.304 . S
Cd537 N556 2.334 . S
Cd537 O573 2.273 . S
Cd537 O574 2.268 . S
Cd537 O578 2.417 . S
Cd537 O579 2.330 . S
C538 N539 1.332 . S
C538 C542 1.381 . S
C538 H544 0.931 . S
N539 Cd536 2.334 . S
N539 C538 1.332 . S
N539 C543 1.328 . S
C540 C541 1.396 . S
C540 C543 1.378 . S
C540 H582 0.931 . S
C541 C540 1.396 . S
C541 C542 1.382 . S
C542 C538 1.381 . S
C542 C541 1.382 . S
C542 H583 0.930 . S
C543 N539 1.328 . S
C543 C540 1.378 . S
C543 H545 0.930 . S
H544 C538 0.931 . S
H545 C543 0.930 . S
C546 O572 1.238 . S
C546 O573 1.253 1_655 S
C547 C548 1.379 . S
C547 N552 1.337 1_655 S
C547 H553 0.929 . S
C548 C547 1.379 . S
C548 C549 1.380 . S
C548 H584 0.929 . S
C549 C548 1.380 . S
C549 C550 1.399 1_655 S
C550 C549 1.399 1_455 S
C550 C551 1.376 . S
C550 H585 0.931 . S
C551 C550 1.376 . S
C551 N552 1.338 . S
C551 H554 0.930 . S
N552 Cd537 2.304 . S
N552 C547 1.337 1_455 S
N552 C551 1.338 . S
H553 C547 0.929 . S
H554 C551 0.930 . S
C555 N556 1.332 . S
C555 C559 1.381 . S
C555 H561 0.931 . S
N556 Cd537 2.334 . S
N556 C555 1.332 . S
N556 C560 1.328 . S
C557 C558 1.396 . S
C557 C560 1.378 . S
C557 H586 0.931 . S
C558 C557 1.396 . S
C558 C559 1.382 . S
C559 C555 1.381 . S
C559 C558 1.382 . S
C559 H587 0.930 . S
C560 N556 1.328 . S
C560 C557 1.378 . S
C560 H562 0.930 . S
H561 C555 0.931 . S
H562 C560 0.930 . S
C563 O574 1.238 . S
C563 O575 1.253 . S
C564 O576 1.239 . S
C564 O577 1.230 . S
N565 Cd536 2.304 1_655 S
N565 C566 1.337 . S
N565 C570 1.338 . S
C566 N565 1.337 . S
C566 C567 1.379 . S
C566 H580 0.929 1_655 S
C567 C566 1.379 . S
C567 C568 1.380 . S
C567 H588 0.929 . S
C568 C567 1.380 . S
C568 C569 1.399 . S
C569 C568 1.399 . S
C569 C570 1.376 . S
C569 H589 0.931 . S
C570 N565 1.338 . S
C570 C569 1.376 . S
C570 H581 0.930 . S
C571 O578 1.239 . S
C571 O579 1.230 . S
O572 Cd536 2.268 1_655 S
O572 C546 1.238 . S
O573 Cd537 2.273 . S
O573 C546 1.253 1_455 S
O574 Cd537 2.268 . S
O574 C563 1.238 . S
O575 Cd536 2.273 . S
O575 C563 1.253 . S
O576 Cd536 2.417 1_655 S
O576 C564 1.239 . S
O577 Cd536 2.330 1_655 S
O577 C564 1.230 . S
O578 Cd537 2.417 . S
O578 C571 1.239 . S
O579 Cd537 2.330 . S
O579 C571 1.230 . S
H580 C566 0.929 1_455 S
H581 C570 0.930 . S
H582 C540 0.931 . S
H583 C542 0.930 . S
H584 C548 0.929 . S
H585 C550 0.931 . S
H586 C557 0.931 . S
H587 C559 0.930 . S
H588 C567 0.929 . S
H589 C569 0.931 . S
Cd590 N593 2.334 . S
Cd590 N619 2.304 1_565 S
Cd590 O626 2.268 . S
Cd590 O629 2.273 1_565 S
Cd590 O630 2.417 . S
Cd590 O631 2.330 . S
Cd591 N606 2.304 . S
Cd591 N610 2.334 . S
Cd591 O627 2.273 1_545 S
Cd591 O628 2.268 . S
Cd591 O632 2.417 . S
Cd591 O633 2.330 . S
C592 N593 1.332 . S
C592 C596 1.381 . S
C592 H598 0.931 . S
N593 Cd590 2.334 . S
N593 C592 1.332 . S
N593 C597 1.328 . S
C594 C595 1.396 . S
C594 C597 1.378 . S
C594 H636 0.931 . S
C595 C594 1.396 . S
C595 C596 1.382 . S
C596 C592 1.381 . S
C596 C595 1.382 . S
C596 H637 0.930 . S
C597 N593 1.328 . S
C597 C594 1.378 . S
C597 H599 0.930 . S
H598 C592 0.931 . S
H599 C597 0.930 . S
C600 O626 1.238 . S
C600 O627 1.253 . S
C601 C602 1.379 . S
C601 N606 1.337 . S
C601 H607 0.929 . S
C602 C601 1.379 . S
C602 C603 1.380 . S
C602 H638 0.929 . S
C603 C602 1.380 . S
C603 C604 1.399 . S
C604 C603 1.399 . S
C604 C605 1.376 . S
C604 H639 0.931 . S
C605 C604 1.376 . S
C605 N606 1.338 . S
C605 H608 0.930 . S
N606 Cd591 2.304 . S
N606 C601 1.337 . S
N606 C605 1.338 . S
H607 C601 0.929 . S
H608 C605 0.930 . S
C609 N610 1.332 1_565 S
C609 C613 1.381 . S
C609 H615 0.931 . S
N610 Cd591 2.334 . S
N610 C609 1.332 1_545 S
N610 C614 1.328 . S
C611 C612 1.396 . S
C611 C614 1.378 1_565 S
C611 H640 0.931 1_565 S
C612 C611 1.396 . S
C612 C613 1.382 . S
C613 C609 1.381 . S
C613 C612 1.382 . S
C613 H641 0.930 . S
C614 N610 1.328 . S
C614 C611 1.378 1_545 S
C614 H616 0.930 . S
H615 C609 0.931 . S
H616 C614 0.930 . S
C617 O628 1.238 . S
C617 O629 1.253 . S
C618 O630 1.239 . S
C618 O631 1.230 . S
N619 Cd590 2.304 1_545 S
N619 C620 1.337 . S
N619 C624 1.338 . S
C620 N619 1.337 . S
C620 C621 1.379 . S
C620 H634 0.929 . S
C621 C620 1.379 . S
C621 C622 1.380 . S
C621 H642 0.929 . S
C622 C621 1.380 . S
C622 C623 1.399 . S
C623 C622 1.399 . S
C623 C624 1.376 . S
C623 H643 0.931 . S
C624 N619 1.338 . S
C624 C623 1.376 . S
C624 H635 0.930 1_545 S
C625 O632 1.239 . S
C625 O633 1.230 . S
O626 Cd590 2.268 . S
O626 C600 1.238 . S
O627 Cd591 2.273 1_565 S
O627 C600 1.253 . S
O628 Cd591 2.268 . S
O628 C617 1.238 . S
O629 Cd590 2.273 1_545 S
O629 C617 1.253 . S
O630 Cd590 2.417 . S
O630 C618 1.239 . S
O631 Cd590 2.330 . S
O631 C618 1.230 . S
O632 Cd591 2.417 . S
O632 C625 1.239 . S
O633 Cd591 2.330 . S
O633 C625 1.230 . S
H634 C620 0.929 . S
H635 C624 0.930 1_565 S
H636 C594 0.931 . S
H637 C596 0.930 . S
H638 C602 0.929 . S
H639 C604 0.931 . S
H640 C611 0.931 1_545 S
H641 C613 0.930 . S
H642 C621 0.929 . S
H643 C623 0.931 . S
C644 C645 1.391 . S
C644 C646 1.394 . S
C644 H660 0.931 . S
C645 C644 1.391 . S
C645 C649 1.376 . S
C646 C644 1.394 . S
C646 C647 1.369 . S
C646 C650 1.531 . S
C647 C646 1.369 . S
C647 C648 1.410 . S
C647 C655 1.503 . S
C648 C647 1.410 . S
C648 C649 1.392 . S
C648 C651 1.511 . S
C649 C645 1.376 . S
C649 C648 1.392 . S
C649 H661 0.929 . S
C650 C646 1.531 . S
C650 H662 0.960 . S
C650 H663 0.962 . S
C650 H664 0.960 . S
C651 C648 1.511 . S
C651 H665 0.961 . S
C651 H666 0.961 . S
C651 H667 0.961 . S
C652 C653 1.370 . S
C652 C654 1.363 . S
C652 H668 0.931 . S
C653 C652 1.370 . S
C653 C657 1.408 . S
C654 C652 1.363 . S
C654 C655 1.370 . S
C654 C658 1.524 . S
C655 C647 1.503 . S
C655 C654 1.370 . S
C655 C656 1.403 . S
C656 C655 1.403 . S
C656 C657 1.404 . S
C656 C659 1.539 . S
C657 C653 1.408 . S
C657 C656 1.404 . S
C657 H669 0.930 . S
C658 C654 1.524 . S
C658 H670 0.956 . S
C658 H671 0.961 . S
C658 H672 0.961 . S
C659 C656 1.539 . S
C659 H673 0.958 . S
C659 H674 0.961 . S
C659 H675 0.960 . S
H660 C644 0.931 . S
H661 C649 0.929 . S
H662 C650 0.960 . S
H663 C650 0.962 . S
H664 C650 0.960 . S
H665 C651 0.961 . S
H666 C651 0.961 . S
H667 C651 0.961 . S
H668 C652 0.931 . S
H669 C657 0.930 . S
H670 C658 0.956 . S
H671 C658 0.961 . S
H672 C658 0.961 . S
H673 C659 0.958 . S
H674 C659 0.961 . S
H675 C659 0.960 . S
C676 C677 1.391 . S
C676 C678 1.394 . S
C676 H692 0.931 . S
C677 C676 1.391 . S
C677 C681 1.376 . S
C678 C676 1.394 . S
C678 C679 1.369 . S
C678 C682 1.531 . S
C679 C678 1.369 . S
C679 C680 1.410 . S
C679 C687 1.503 . S
C680 C679 1.410 . S
C680 C681 1.392 . S
C680 C683 1.511 . S
C681 C677 1.376 . S
C681 C680 1.392 . S
C681 H693 0.929 . S
C682 C678 1.531 . S
C682 H694 0.960 . S
C682 H695 0.962 . S
C682 H696 0.960 . S
C683 C680 1.511 . S
C683 H697 0.961 . S
C683 H698 0.961 . S
C683 H699 0.961 . S
C684 C685 1.370 . S
C684 C686 1.363 . S
C684 H700 0.931 . S
C685 C684 1.370 . S
C685 C689 1.408 . S
C686 C684 1.363 . S
C686 C687 1.370 . S
C686 C690 1.524 . S
C687 C679 1.503 . S
C687 C686 1.370 . S
C687 C688 1.403 . S
C688 C687 1.403 . S
C688 C689 1.404 . S
C688 C691 1.539 . S
C689 C685 1.408 . S
C689 C688 1.404 . S
C689 H701 0.930 . S
C690 C686 1.524 . S
C690 H702 0.956 . S
C690 H703 0.961 . S
C690 H704 0.961 . S
C691 C688 1.539 . S
C691 H705 0.958 . S
C691 H706 0.961 . S
C691 H707 0.960 . S
H692 C676 0.931 . S
H693 C681 0.929 . S
H694 C682 0.960 . S
H695 C682 0.962 . S
H696 C682 0.960 . S
H697 C683 0.961 . S
H698 C683 0.961 . S
H699 C683 0.961 . S
H700 C684 0.931 . S
H701 C689 0.930 . S
H702 C690 0.956 . S
H703 C690 0.961 . S
H704 C690 0.961 . S
H705 C691 0.958 . S
H706 C691 0.961 . S
H707 C691 0.960 . S
C708 C709 1.391 . S
C708 C710 1.394 . S
C708 H724 0.931 . S
C709 C708 1.391 . S
C709 C713 1.376 . S
C710 C708 1.394 . S
C710 C711 1.369 . S
C710 C714 1.531 . S
C711 C710 1.369 . S
C711 C712 1.410 . S
C711 C719 1.503 . S
C712 C711 1.410 . S
C712 C713 1.392 . S
C712 C715 1.511 . S
C713 C709 1.376 . S
C713 C712 1.392 . S
C713 H725 0.929 . S
C714 C710 1.531 . S
C714 H726 0.960 . S
C714 H727 0.962 . S
C714 H728 0.960 . S
C715 C712 1.511 . S
C715 H729 0.961 . S
C715 H730 0.961 . S
C715 H731 0.961 . S
C716 C717 1.370 . S
C716 C718 1.363 . S
C716 H732 0.931 . S
C717 C716 1.370 . S
C717 C721 1.408 . S
C718 C716 1.363 . S
C718 C719 1.370 . S
C718 C722 1.524 . S
C719 C711 1.503 . S
C719 C718 1.370 . S
C719 C720 1.403 . S
C720 C719 1.403 . S
C720 C721 1.404 . S
C720 C723 1.539 . S
C721 C717 1.408 . S
C721 C720 1.404 . S
C721 H733 0.930 . S
C722 C718 1.524 . S
C722 H734 0.956 . S
C722 H735 0.961 . S
C722 H736 0.961 . S
C723 C720 1.539 . S
C723 H737 0.958 . S
C723 H738 0.961 . S
C723 H739 0.960 . S
H724 C708 0.931 . S
H725 C713 0.929 . S
H726 C714 0.960 . S
H727 C714 0.962 . S
H728 C714 0.960 . S
H729 C715 0.961 . S
H730 C715 0.961 . S
H731 C715 0.961 . S
H732 C716 0.931 . S
H733 C721 0.930 . S
H734 C722 0.956 . S
H735 C722 0.961 . S
H736 C722 0.961 . S
H737 C723 0.958 . S
H738 C723 0.961 . S
H739 C723 0.960 . S
C740 C741 1.391 . S
C740 C742 1.394 . S
C740 H756 0.931 . S
C741 C740 1.391 . S
C741 C745 1.376 . S
C742 C740 1.394 . S
C742 C743 1.369 . S
C742 C746 1.531 . S
C743 C742 1.369 . S
C743 C744 1.410 . S
C743 C751 1.503 . S
C744 C743 1.410 . S
C744 C745 1.392 . S
C744 C747 1.511 . S
C745 C741 1.376 . S
C745 C744 1.392 . S
C745 H757 0.929 . S
C746 C742 1.531 . S
C746 H758 0.960 . S
C746 H759 0.962 . S
C746 H760 0.960 . S
C747 C744 1.511 . S
C747 H761 0.961 . S
C747 H762 0.961 . S
C747 H763 0.961 . S
C748 C749 1.370 . S
C748 C750 1.363 . S
C748 H764 0.931 . S
C749 C748 1.370 . S
C749 C753 1.408 . S
C750 C748 1.363 . S
C750 C751 1.370 . S
C750 C754 1.524 . S
C751 C743 1.503 . S
C751 C750 1.370 . S
C751 C752 1.403 . S
C752 C751 1.403 . S
C752 C753 1.404 . S
C752 C755 1.539 . S
C753 C749 1.408 . S
C753 C752 1.404 . S
C753 H765 0.930 . S
C754 C750 1.524 . S
C754 H766 0.956 . S
C754 H767 0.961 . S
C754 H768 0.961 . S
C755 C752 1.539 . S
C755 H769 0.958 . S
C755 H770 0.961 . S
C755 H771 0.960 . S
H756 C740 0.931 . S
H757 C745 0.929 . S
H758 C746 0.960 . S
H759 C746 0.962 . S
H760 C746 0.960 . S
H761 C747 0.961 . S
H762 C747 0.961 . S
H763 C747 0.961 . S
H764 C748 0.931 . S
H765 C753 0.930 . S
H766 C754 0.956 . S
H767 C754 0.961 . S
H768 C754 0.961 . S
H769 C755 0.958 . S
H770 C755 0.961 . S
H771 C755 0.960 . S
C772 C773 1.391 . S
C772 C774 1.394 . S
C772 H788 0.931 . S
C773 C772 1.391 . S
C773 C777 1.376 . S
C774 C772 1.394 . S
C774 C775 1.369 . S
C774 C778 1.531 . S
C775 C774 1.369 . S
C775 C776 1.410 . S
C775 C783 1.503 . S
C776 C775 1.410 . S
C776 C777 1.392 . S
C776 C779 1.511 . S
C777 C773 1.376 . S
C777 C776 1.392 . S
C777 H789 0.929 . S
C778 C774 1.531 . S
C778 H790 0.960 . S
C778 H791 0.962 . S
C778 H792 0.960 . S
C779 C776 1.511 . S
C779 H793 0.961 . S
C779 H794 0.961 . S
C779 H795 0.961 . S
C780 C781 1.370 . S
C780 C782 1.363 . S
C780 H796 0.931 . S
C781 C780 1.370 . S
C781 C785 1.408 . S
C782 C780 1.363 . S
C782 C783 1.370 . S
C782 C786 1.524 . S
C783 C775 1.503 . S
C783 C782 1.370 . S
C783 C784 1.403 . S
C784 C783 1.403 . S
C784 C785 1.404 . S
C784 C787 1.539 . S
C785 C781 1.408 . S
C785 C784 1.404 . S
C785 H797 0.930 . S
C786 C782 1.524 . S
C786 H798 0.956 . S
C786 H799 0.961 . S
C786 H800 0.961 . S
C787 C784 1.539 . S
C787 H801 0.958 . S
C787 H802 0.961 . S
C787 H803 0.960 . S
H788 C772 0.931 . S
H789 C777 0.929 . S
H790 C778 0.960 . S
H791 C778 0.962 . S
H792 C778 0.960 . S
H793 C779 0.961 . S
H794 C779 0.961 . S
H795 C779 0.961 . S
H796 C780 0.931 . S
H797 C785 0.930 . S
H798 C786 0.956 . S
H799 C786 0.961 . S
H800 C786 0.961 . S
H801 C787 0.958 . S
H802 C787 0.961 . S
H803 C787 0.960 . S
C804 C805 1.391 . S
C804 C806 1.394 . S
C804 H820 0.931 . S
C805 C804 1.391 . S
C805 C809 1.376 . S
C806 C804 1.394 . S
C806 C807 1.369 . S
C806 C810 1.531 . S
C807 C806 1.369 . S
C807 C808 1.410 . S
C807 C815 1.503 . S
C808 C807 1.410 . S
C808 C809 1.392 . S
C808 C811 1.511 . S
C809 C805 1.376 . S
C809 C808 1.392 . S
C809 H821 0.929 . S
C810 C806 1.531 . S
C810 H822 0.960 . S
C810 H823 0.962 . S
C810 H824 0.960 . S
C811 C808 1.511 . S
C811 H825 0.961 . S
C811 H826 0.961 . S
C811 H827 0.961 . S
C812 C813 1.370 . S
C812 C814 1.363 . S
C812 H828 0.931 . S
C813 C812 1.370 . S
C813 C817 1.408 . S
C814 C812 1.363 . S
C814 C815 1.370 . S
C814 C818 1.524 . S
C815 C807 1.503 . S
C815 C814 1.370 . S
C815 C816 1.403 . S
C816 C815 1.403 . S
C816 C817 1.404 . S
C816 C819 1.539 . S
C817 C813 1.408 . S
C817 C816 1.404 . S
C817 H829 0.930 . S
C818 C814 1.524 . S
C818 H830 0.956 . S
C818 H831 0.961 . S
C818 H832 0.961 . S
C819 C816 1.539 . S
C819 H833 0.958 . S
C819 H834 0.961 . S
C819 H835 0.960 . S
H820 C804 0.931 . S
H821 C809 0.929 . S
H822 C810 0.960 . S
H823 C810 0.962 . S
H824 C810 0.960 . S
H825 C811 0.961 . S
H826 C811 0.961 . S
H827 C811 0.961 . S
H828 C812 0.931 . S
H829 C817 0.930 . S
H830 C818 0.956 . S
H831 C818 0.961 . S
H832 C818 0.961 . S
H833 C819 0.958 . S
H834 C819 0.961 . S
H835 C819 0.960 . S
C836 C837 1.391 . S
C836 C838 1.394 . S
C836 H852 0.931 . S
C837 C836 1.391 . S
C837 C841 1.376 . S
C838 C836 1.394 . S
C838 C839 1.369 . S
C838 C842 1.531 . S
C839 C838 1.369 . S
C839 C840 1.410 . S
C839 C847 1.503 . S
C840 C839 1.410 . S
C840 C841 1.392 . S
C840 C843 1.511 . S
C841 C837 1.376 . S
C841 C840 1.392 . S
C841 H853 0.929 . S
C842 C838 1.531 . S
C842 H854 0.960 . S
C842 H855 0.962 . S
C842 H856 0.960 . S
C843 C840 1.511 . S
C843 H857 0.961 . S
C843 H858 0.961 . S
C843 H859 0.961 . S
C844 C845 1.370 . S
C844 C846 1.363 . S
C844 H860 0.931 . S
C845 C844 1.370 . S
C845 C849 1.408 . S
C846 C844 1.363 . S
C846 C847 1.370 . S
C846 C850 1.524 . S
C847 C839 1.503 . S
C847 C846 1.370 . S
C847 C848 1.403 . S
C848 C847 1.403 . S
C848 C849 1.404 . S
C848 C851 1.539 . S
C849 C845 1.408 . S
C849 C848 1.404 . S
C849 H861 0.930 . S
C850 C846 1.524 . S
C850 H862 0.956 . S
C850 H863 0.961 . S
C850 H864 0.961 . S
C851 C848 1.539 . S
C851 H865 0.958 . S
C851 H866 0.961 . S
C851 H867 0.960 . S
H852 C836 0.931 . S
H853 C841 0.929 . S
H854 C842 0.960 . S
H855 C842 0.962 . S
H856 C842 0.960 . S
H857 C843 0.961 . S
H858 C843 0.961 . S
H859 C843 0.961 . S
H860 C844 0.931 . S
H861 C849 0.930 . S
H862 C850 0.956 . S
H863 C850 0.961 . S
H864 C850 0.961 . S
H865 C851 0.958 . S
H866 C851 0.961 . S
H867 C851 0.960 . S
C868 C869 1.391 . S
C868 C870 1.394 . S
C868 H884 0.931 . S
C869 C868 1.391 . S
C869 C873 1.376 . S
C870 C868 1.394 . S
C870 C871 1.369 . S
C870 C874 1.531 . S
C871 C870 1.369 . S
C871 C872 1.410 . S
C871 C879 1.503 . S
C872 C871 1.410 . S
C872 C873 1.392 . S
C872 C875 1.511 . S
C873 C869 1.376 . S
C873 C872 1.392 . S
C873 H885 0.929 . S
C874 C870 1.531 . S
C874 H886 0.960 . S
C874 H887 0.962 . S
C874 H888 0.960 . S
C875 C872 1.511 . S
C875 H889 0.961 . S
C875 H890 0.961 . S
C875 H891 0.961 . S
C876 C877 1.370 . S
C876 C878 1.363 . S
C876 H892 0.931 . S
C877 C876 1.370 . S
C877 C881 1.408 . S
C878 C876 1.363 . S
C878 C879 1.370 . S
C878 C882 1.524 . S
C879 C871 1.503 . S
C879 C878 1.370 . S
C879 C880 1.403 . S
C880 C879 1.403 . S
C880 C881 1.404 . S
C880 C883 1.539 . S
C881 C877 1.408 . S
C881 C880 1.404 . S
C881 H893 0.930 . S
C882 C878 1.524 . S
C882 H894 0.956 . S
C882 H895 0.961 . S
C882 H896 0.961 . S
C883 C880 1.539 . S
C883 H897 0.958 . S
C883 H898 0.961 . S
C883 H899 0.960 . S
H884 C868 0.931 . S
H885 C873 0.929 . S
H886 C874 0.960 . S
H887 C874 0.962 . S
H888 C874 0.960 . S
H889 C875 0.961 . S
H890 C875 0.961 . S
H891 C875 0.961 . S
H892 C876 0.931 . S
H893 C881 0.930 . S
H894 C882 0.956 . S
H895 C882 0.961 . S
H896 C882 0.961 . S
H897 C883 0.958 . S
H898 C883 0.961 . S
H899 C883 0.960 . S
C900 C901 1.391 . S
C900 C902 1.394 . S
C900 H916 0.931 . S
C901 C900 1.391 . S
C901 C905 1.376 . S
C902 C900 1.394 . S
C902 C903 1.369 . S
C902 C906 1.531 . S
C903 C902 1.369 . S
C903 C904 1.410 . S
C903 C911 1.503 . S
C904 C903 1.410 . S
C904 C905 1.392 . S
C904 C907 1.511 . S
C905 C901 1.376 . S
C905 C904 1.392 . S
C905 H917 0.929 . S
C906 C902 1.531 . S
C906 H918 0.960 . S
C906 H919 0.962 . S
C906 H920 0.960 . S
C907 C904 1.511 . S
C907 H921 0.961 . S
C907 H922 0.961 . S
C907 H923 0.961 . S
C908 C909 1.370 . S
C908 C910 1.363 . S
C908 H924 0.931 . S
C909 C908 1.370 . S
C909 C913 1.408 . S
C910 C908 1.363 . S
C910 C911 1.370 . S
C910 C914 1.524 . S
C911 C903 1.503 . S
C911 C910 1.370 . S
C911 C912 1.403 . S
C912 C911 1.403 . S
C912 C913 1.404 . S
C912 C915 1.539 . S
C913 C909 1.408 . S
C913 C912 1.404 . S
C913 H925 0.930 . S
C914 C910 1.524 . S
C914 H926 0.956 . S
C914 H927 0.961 . S
C914 H928 0.961 . S
C915 C912 1.539 . S
C915 H929 0.958 . S
C915 H930 0.961 . S
C915 H931 0.960 . S
H916 C900 0.931 . S
H917 C905 0.929 . S
H918 C906 0.960 . S
H919 C906 0.962 . S
H920 C906 0.960 . S
H921 C907 0.961 . S
H922 C907 0.961 . S
H923 C907 0.961 . S
H924 C908 0.931 . S
H925 C913 0.930 . S
H926 C914 0.956 . S
H927 C914 0.961 . S
H928 C914 0.961 . S
H929 C915 0.958 . S
H930 C915 0.961 . S
H931 C915 0.960 . S
C932 C933 1.391 . S
C932 C934 1.394 . S
C932 H948 0.931 . S
C933 C932 1.391 . S
C933 C937 1.376 . S
C934 C932 1.394 . S
C934 C935 1.369 . S
C934 C938 1.531 . S
C935 C934 1.369 . S
C935 C936 1.410 . S
C935 C943 1.503 . S
C936 C935 1.410 . S
C936 C937 1.392 . S
C936 C939 1.511 . S
C937 C933 1.376 . S
C937 C936 1.392 . S
C937 H949 0.929 . S
C938 C934 1.531 . S
C938 H950 0.960 . S
C938 H951 0.962 . S
C938 H952 0.960 . S
C939 C936 1.511 . S
C939 H953 0.961 . S
C939 H954 0.961 . S
C939 H955 0.961 . S
C940 C941 1.370 . S
C940 C942 1.363 . S
C940 H956 0.931 . S
C941 C940 1.370 . S
C941 C945 1.408 . S
C942 C940 1.363 . S
C942 C943 1.370 . S
C942 C946 1.524 . S
C943 C935 1.503 . S
C943 C942 1.370 . S
C943 C944 1.403 . S
C944 C943 1.403 . S
C944 C945 1.404 . S
C944 C947 1.539 . S
C945 C941 1.408 . S
C945 C944 1.404 . S
C945 H957 0.930 . S
C946 C942 1.524 . S
C946 H958 0.956 . S
C946 H959 0.961 . S
C946 H960 0.961 . S
C947 C944 1.539 . S
C947 H961 0.958 . S
C947 H962 0.961 . S
C947 H963 0.960 . S
H948 C932 0.931 . S
H949 C937 0.929 . S
H950 C938 0.960 . S
H951 C938 0.962 . S
H952 C938 0.960 . S
H953 C939 0.961 . S
H954 C939 0.961 . S
H955 C939 0.961 . S
H956 C940 0.931 . S
H957 C945 0.930 . S
H958 C946 0.956 . S
H959 C946 0.961 . S
H960 C946 0.961 . S
H961 C947 0.958 . S
H962 C947 0.961 . S
H963 C947 0.960 . S
C964 C965 1.391 . S
C964 C966 1.394 . S
C964 H980 0.931 . S
C965 C964 1.391 . S
C965 C969 1.376 . S
C966 C964 1.394 . S
C966 C967 1.369 . S
C966 C970 1.531 . S
C967 C966 1.369 . S
C967 C968 1.410 . S
C967 C975 1.503 . S
C968 C967 1.410 . S
C968 C969 1.392 . S
C968 C971 1.511 . S
C969 C965 1.376 . S
C969 C968 1.392 . S
C969 H981 0.929 . S
C970 C966 1.531 . S
C970 H982 0.960 . S
C970 H983 0.962 . S
C970 H984 0.960 . S
C971 C968 1.511 . S
C971 H985 0.961 . S
C971 H986 0.961 . S
C971 H987 0.961 . S
C972 C973 1.370 . S
C972 C974 1.363 . S
C972 H988 0.931 . S
C973 C972 1.370 . S
C973 C977 1.408 . S
C974 C972 1.363 . S
C974 C975 1.370 . S
C974 C978 1.524 . S
C975 C967 1.503 . S
C975 C974 1.370 . S
C975 C976 1.403 . S
C976 C975 1.403 . S
C976 C977 1.404 . S
C976 C979 1.539 . S
C977 C973 1.408 . S
C977 C976 1.404 . S
C977 H989 0.930 . S
C978 C974 1.524 . S
C978 H990 0.956 . S
C978 H991 0.961 . S
C978 H992 0.961 . S
C979 C976 1.539 . S
C979 H993 0.958 . S
C979 H994 0.961 . S
C979 H995 0.960 . S
H980 C964 0.931 . S
H981 C969 0.929 . S
H982 C970 0.960 . S
H983 C970 0.962 . S
H984 C970 0.960 . S
H985 C971 0.961 . S
H986 C971 0.961 . S
H987 C971 0.961 . S
H988 C972 0.931 . S
H989 C977 0.930 . S
H990 C978 0.956 . S
H991 C978 0.961 . S
H992 C978 0.961 . S
H993 C979 0.958 . S
H994 C979 0.961 . S
H995 C979 0.960 . S
C996 C997 1.391 . S
C996 C998 1.394 . S
C996 H1012 0.931 . S
C997 C996 1.391 . S
C997 C1001 1.376 . S
C998 C996 1.394 . S
C998 C999 1.369 . S
C998 C1002 1.531 . S
C999 C998 1.369 . S
C999 C1000 1.410 . S
C999 C1007 1.503 . S
C1000 C999 1.410 . S
C1000 C1001 1.392 . S
C1000 C1003 1.511 . S
C1001 C997 1.376 . S
C1001 C1000 1.392 . S
C1001 H1013 0.929 . S
C1002 C998 1.531 . S
C1002 H1014 0.960 . S
C1002 H1015 0.962 . S
C1002 H1016 0.960 . S
C1003 C1000 1.511 . S
C1003 H1017 0.961 . S
C1003 H1018 0.961 . S
C1003 H1019 0.961 . S
C1004 C1005 1.370 . S
C1004 C1006 1.363 . S
C1004 H1020 0.931 . S
C1005 C1004 1.370 . S
C1005 C1009 1.408 . S
C1006 C1004 1.363 . S
C1006 C1007 1.370 . S
C1006 C1010 1.524 . S
C1007 C999 1.503 . S
C1007 C1006 1.370 . S
C1007 C1008 1.403 . S
C1008 C1007 1.403 . S
C1008 C1009 1.404 . S
C1008 C1011 1.539 . S
C1009 C1005 1.408 . S
C1009 C1008 1.404 . S
C1009 H1021 0.930 . S
C1010 C1006 1.524 . S
C1010 H1022 0.956 . S
C1010 H1023 0.961 . S
C1010 H1024 0.961 . S
C1011 C1008 1.539 . S
C1011 H1025 0.958 . S
C1011 H1026 0.961 . S
C1011 H1027 0.960 . S
H1012 C996 0.931 . S
H1013 C1001 0.929 . S
H1014 C1002 0.960 . S
H1015 C1002 0.962 . S
H1016 C1002 0.960 . S
H1017 C1003 0.961 . S
H1018 C1003 0.961 . S
H1019 C1003 0.961 . S
H1020 C1004 0.931 . S
H1021 C1009 0.930 . S
H1022 C1010 0.956 . S
H1023 C1010 0.961 . S
H1024 C1010 0.961 . S
H1025 C1011 0.958 . S
H1026 C1011 0.961 . S
H1027 C1011 0.960 . S
C1028 C1029 1.391 . S
C1028 C1030 1.394 . S
C1028 H1044 0.931 . S
C1029 C1028 1.391 . S
C1029 C1033 1.376 . S
C1030 C1028 1.394 . S
C1030 C1031 1.369 . S
C1030 C1034 1.531 . S
C1031 C1030 1.369 . S
C1031 C1032 1.410 . S
C1031 C1039 1.503 . S
C1032 C1031 1.410 . S
C1032 C1033 1.392 . S
C1032 C1035 1.511 . S
C1033 C1029 1.376 . S
C1033 C1032 1.392 . S
C1033 H1045 0.929 . S
C1034 C1030 1.531 . S
C1034 H1046 0.960 . S
C1034 H1047 0.962 . S
C1034 H1048 0.960 . S
C1035 C1032 1.511 . S
C1035 H1049 0.961 . S
C1035 H1050 0.961 . S
C1035 H1051 0.961 . S
C1036 C1037 1.370 . S
C1036 C1038 1.363 . S
C1036 H1052 0.931 . S
C1037 C1036 1.370 . S
C1037 C1041 1.408 . S
C1038 C1036 1.363 . S
C1038 C1039 1.370 . S
C1038 C1042 1.524 . S
C1039 C1031 1.503 . S
C1039 C1038 1.370 . S
C1039 C1040 1.403 . S
C1040 C1039 1.403 . S
C1040 C1041 1.404 . S
C1040 C1043 1.539 . S
C1041 C1037 1.408 . S
C1041 C1040 1.404 . S
C1041 H1053 0.928 1_556 S
C1042 C1038 1.524 . S
C1042 H1054 0.956 . S
C1042 H1055 0.961 . S
C1042 H1056 0.961 . S
C1043 C1040 1.539 . S
C1043 H1057 0.958 . S
C1043 H1058 0.961 . S
C1043 H1059 0.960 . S
H1044 C1028 0.931 . S
H1045 C1033 0.929 . S
H1046 C1034 0.960 . S
H1047 C1034 0.962 . S
H1048 C1034 0.960 . S
H1049 C1035 0.961 . S
H1050 C1035 0.961 . S
H1051 C1035 0.961 . S
H1052 C1036 0.931 . S
H1053 C1041 0.928 1_554 S
H1054 C1042 0.956 . S
H1055 C1042 0.961 . S
H1056 C1042 0.961 . S
H1057 C1043 0.958 . S
H1058 C1043 0.961 . S
H1059 C1043 0.960 . S
C1060 C1061 1.391 . S
C1060 C1062 1.394 . S
C1060 H1076 0.931 . S
C1061 C1060 1.391 . S
C1061 C1065 1.376 . S
C1062 C1060 1.394 . S
C1062 C1063 1.369 . S
C1062 C1066 1.531 . S
C1063 C1062 1.369 . S
C1063 C1064 1.410 . S
C1063 C1071 1.503 . S
C1064 C1063 1.410 . S
C1064 C1065 1.392 . S
C1064 C1067 1.511 . S
C1065 C1061 1.376 . S
C1065 C1064 1.392 . S
C1065 H1077 0.929 . S
C1066 C1062 1.531 . S
C1066 H1078 0.960 . S
C1066 H1079 0.962 . S
C1066 H1080 0.960 . S
C1067 C1064 1.511 . S
C1067 H1081 0.961 . S
C1067 H1082 0.961 . S
C1067 H1083 0.961 . S
C1068 C1069 1.370 . S
C1068 C1070 1.363 . S
C1068 H1084 0.931 . S
C1069 C1068 1.370 . S
C1069 C1073 1.408 . S
C1070 C1068 1.363 . S
C1070 C1071 1.370 . S
C1070 C1074 1.524 . S
C1071 C1063 1.503 . S
C1071 C1070 1.370 . S
C1071 C1072 1.403 . S
C1072 C1071 1.403 . S
C1072 C1073 1.404 . S
C1072 C1075 1.539 . S
C1073 C1069 1.408 . S
C1073 C1072 1.404 . S
C1073 H1085 0.930 . S
C1074 C1070 1.524 . S
C1074 H1086 0.956 . S
C1074 H1087 0.961 . S
C1074 H1088 0.961 . S
C1075 C1072 1.539 . S
C1075 H1089 0.958 . S
C1075 H1090 0.961 . S
C1075 H1091 0.960 . S
H1076 C1060 0.931 . S
H1077 C1065 0.929 . S
H1078 C1066 0.960 . S
H1079 C1066 0.962 . S
H1080 C1066 0.960 . S
H1081 C1067 0.961 . S
H1082 C1067 0.961 . S
H1083 C1067 0.961 . S
H1084 C1068 0.931 . S
H1085 C1073 0.930 . S
H1086 C1074 0.956 . S
H1087 C1074 0.961 . S
H1088 C1074 0.961 . S
H1089 C1075 0.958 . S
H1090 C1075 0.961 . S
H1091 C1075 0.960 . S
C1092 C1093 1.391 . S
C1092 C1094 1.394 . S
C1092 H1108 0.931 . S
C1093 C1092 1.391 . S
C1093 C1097 1.376 . S
C1094 C1092 1.394 . S
C1094 C1095 1.369 . S
C1094 C1098 1.531 . S
C1095 C1094 1.369 . S
C1095 C1096 1.410 . S
C1095 C1103 1.503 . S
C1096 C1095 1.410 . S
C1096 C1097 1.392 . S
C1096 C1099 1.511 . S
C1097 C1093 1.376 . S
C1097 C1096 1.392 . S
C1097 H1109 0.929 . S
C1098 C1094 1.531 . S
C1098 H1110 0.960 . S
C1098 H1111 0.962 . S
C1098 H1112 0.960 . S
C1099 C1096 1.511 . S
C1099 H1113 0.961 . S
C1099 H1114 0.961 . S
C1099 H1115 0.961 . S
C1100 C1101 1.370 . S
C1100 C1102 1.363 . S
C1100 H1116 0.931 . S
C1101 C1100 1.370 . S
C1101 C1105 1.408 . S
C1102 C1100 1.363 . S
C1102 C1103 1.370 . S
C1102 C1106 1.524 . S
C1103 C1095 1.503 . S
C1103 C1102 1.370 . S
C1103 C1104 1.403 . S
C1104 C1103 1.403 . S
C1104 C1105 1.404 . S
C1104 C1107 1.539 . S
C1105 C1101 1.408 . S
C1105 C1104 1.404 . S
C1105 H1117 0.930 . S
C1106 C1102 1.524 . S
C1106 H1118 0.956 . S
C1106 H1119 0.961 . S
C1106 H1120 0.961 . S
C1107 C1104 1.539 . S
C1107 H1121 0.958 . S
C1107 H1122 0.961 . S
C1107 H1123 0.960 . S
H1108 C1092 0.931 . S
H1109 C1097 0.929 . S
H1110 C1098 0.960 . S
H1111 C1098 0.962 . S
H1112 C1098 0.960 . S
H1113 C1099 0.961 . S
H1114 C1099 0.961 . S
H1115 C1099 0.961 . S
H1116 C1100 0.931 . S
H1117 C1105 0.930 . S
H1118 C1106 0.956 . S
H1119 C1106 0.961 . S
H1120 C1106 0.961 . S
H1121 C1107 0.958 . S
H1122 C1107 0.961 . S
H1123 C1107 0.960 . S
C1124 C1125 1.391 . S
C1124 C1126 1.394 . S
C1124 H1140 0.931 . S
C1125 C1124 1.391 . S
C1125 C1129 1.376 . S
C1126 C1124 1.394 . S
C1126 C1127 1.369 . S
C1126 C1130 1.531 . S
C1127 C1126 1.369 . S
C1127 C1128 1.410 . S
C1127 C1135 1.503 . S
C1128 C1127 1.410 . S
C1128 C1129 1.392 . S
C1128 C1131 1.511 . S
C1129 C1125 1.376 . S
C1129 C1128 1.392 . S
C1129 H1141 0.929 . S
C1130 C1126 1.531 . S
C1130 H1142 0.960 . S
C1130 H1143 0.962 . S
C1130 H1144 0.960 . S
C1131 C1128 1.511 . S
C1131 H1145 0.961 . S
C1131 H1146 0.961 . S
C1131 H1147 0.961 . S
C1132 C1133 1.370 . S
C1132 C1134 1.363 . S
C1132 H1148 0.931 . S
C1133 C1132 1.370 . S
C1133 C1137 1.408 . S
C1134 C1132 1.363 . S
C1134 C1135 1.370 . S
C1134 C1138 1.524 . S
C1135 C1127 1.503 . S
C1135 C1134 1.370 . S
C1135 C1136 1.403 . S
C1136 C1135 1.403 . S
C1136 C1137 1.404 . S
C1136 C1139 1.539 . S
C1137 C1133 1.408 . S
C1137 C1136 1.404 . S
C1137 H1149 0.930 . S
C1138 C1134 1.524 . S
C1138 H1150 0.956 . S
C1138 H1151 0.961 . S
C1138 H1152 0.961 . S
C1139 C1136 1.539 . S
C1139 H1153 0.958 . S
C1139 H1154 0.961 . S
C1139 H1155 0.960 . S
H1140 C1124 0.931 . S
H1141 C1129 0.929 . S
H1142 C1130 0.960 . S
H1143 C1130 0.962 . S
H1144 C1130 0.960 . S
H1145 C1131 0.961 . S
H1146 C1131 0.961 . S
H1147 C1131 0.961 . S
H1148 C1132 0.931 . S
H1149 C1137 0.930 . S
H1150 C1138 0.956 . S
H1151 C1138 0.961 . S
H1152 C1138 0.961 . S
H1153 C1139 0.958 . S
H1154 C1139 0.961 . S
H1155 C1139 0.960 . S
C1156 C1157 1.391 . S
C1156 C1158 1.394 . S
C1156 H1172 0.931 . S
C1157 C1156 1.391 . S
C1157 C1161 1.376 . S
C1158 C1156 1.394 . S
C1158 C1159 1.369 . S
C1158 C1162 1.531 . S
C1159 C1158 1.369 . S
C1159 C1160 1.410 . S
C1159 C1167 1.503 . S
C1160 C1159 1.410 . S
C1160 C1161 1.392 . S
C1160 C1163 1.511 . S
C1161 C1157 1.376 . S
C1161 C1160 1.392 . S
C1161 H1173 0.929 . S
C1162 C1158 1.531 . S
C1162 H1174 0.960 . S
C1162 H1175 0.962 . S
C1162 H1176 0.960 . S
C1163 C1160 1.511 . S
C1163 H1177 0.961 . S
C1163 H1178 0.961 . S
C1163 H1179 0.961 . S
C1164 C1165 1.370 . S
C1164 C1166 1.363 . S
C1164 H1180 0.931 . S
C1165 C1164 1.370 . S
C1165 C1169 1.408 . S
C1166 C1164 1.363 . S
C1166 C1167 1.370 . S
C1166 C1170 1.524 . S
C1167 C1159 1.503 . S
C1167 C1166 1.370 . S
C1167 C1168 1.403 . S
C1168 C1167 1.403 . S
C1168 C1169 1.404 . S
C1168 C1171 1.539 . S
C1169 C1165 1.408 . S
C1169 C1168 1.404 . S
C1169 H1181 0.930 . S
C1170 C1166 1.524 . S
C1170 H1182 0.956 . S
C1170 H1183 0.961 . S
C1170 H1184 0.961 . S
C1171 C1168 1.539 . S
C1171 H1185 0.958 . S
C1171 H1186 0.961 . S
C1171 H1187 0.960 . S
H1172 C1156 0.931 . S
H1173 C1161 0.929 . S
H1174 C1162 0.960 . S
H1175 C1162 0.962 . S
H1176 C1162 0.960 . S
H1177 C1163 0.961 . S
H1178 C1163 0.961 . S
H1179 C1163 0.961 . S
H1180 C1164 0.931 . S
H1181 C1169 0.930 . S
H1182 C1170 0.956 . S
H1183 C1170 0.961 . S
H1184 C1170 0.961 . S
H1185 C1171 0.958 . S
H1186 C1171 0.961 . S
H1187 C1171 0.960 . S
C1188 C1189 1.391 . S
C1188 C1190 1.394 . S
C1188 H1204 0.931 . S
C1189 C1188 1.391 . S
C1189 C1193 1.376 . S
C1190 C1188 1.394 . S
C1190 C1191 1.369 . S
C1190 C1194 1.531 . S
C1191 C1190 1.369 . S
C1191 C1192 1.410 . S
C1191 C1199 1.503 . S
C1192 C1191 1.410 . S
C1192 C1193 1.392 . S
C1192 C1195 1.511 . S
C1193 C1189 1.376 . S
C1193 C1192 1.392 . S
C1193 H1205 0.929 . S
C1194 C1190 1.531 . S
C1194 H1206 0.960 . S
C1194 H1207 0.962 . S
C1194 H1208 0.960 . S
C1195 C1192 1.511 . S
C1195 H1209 0.961 . S
C1195 H1210 0.961 . S
C1195 H1211 0.961 . S
C1196 C1197 1.370 . S
C1196 C1198 1.363 . S
C1196 H1212 0.931 . S
C1197 C1196 1.370 . S
C1197 C1201 1.408 . S
C1198 C1196 1.363 . S
C1198 C1199 1.370 . S
C1198 C1202 1.524 . S
C1199 C1191 1.503 . S
C1199 C1198 1.370 . S
C1199 C1200 1.403 . S
C1200 C1199 1.403 . S
C1200 C1201 1.404 . S
C1200 C1203 1.539 . S
C1201 C1197 1.408 . S
C1201 C1200 1.404 . S
C1201 H1213 0.930 . S
C1202 C1198 1.524 . S
C1202 H1214 0.956 . S
C1202 H1215 0.961 . S
C1202 H1216 0.961 . S
C1203 C1200 1.539 . S
C1203 H1217 0.958 . S
C1203 H1218 0.961 . S
C1203 H1219 0.960 . S
H1204 C1188 0.931 . S
H1205 C1193 0.929 . S
H1206 C1194 0.960 . S
H1207 C1194 0.962 . S
H1208 C1194 0.960 . S
H1209 C1195 0.961 . S
H1210 C1195 0.961 . S
H1211 C1195 0.961 . S
H1212 C1196 0.931 . S
H1213 C1201 0.930 . S
H1214 C1202 0.956 . S
H1215 C1202 0.961 . S
H1216 C1202 0.961 . S
H1217 C1203 0.958 . S
H1218 C1203 0.961 . S
H1219 C1203 0.960 . S
C1220 C1221 1.391 . S
C1220 C1222 1.394 . S
C1220 H1236 0.931 . S
C1221 C1220 1.391 . S
C1221 C1225 1.376 . S
C1222 C1220 1.394 . S
C1222 C1223 1.369 . S
C1222 C1226 1.531 . S
C1223 C1222 1.369 . S
C1223 C1224 1.410 . S
C1223 C1231 1.503 . S
C1224 C1223 1.410 . S
C1224 C1225 1.392 . S
C1224 C1227 1.511 . S
C1225 C1221 1.376 . S
C1225 C1224 1.392 . S
C1225 H1237 0.929 . S
C1226 C1222 1.531 . S
C1226 H1238 0.960 . S
C1226 H1239 0.962 . S
C1226 H1240 0.960 . S
C1227 C1224 1.511 . S
C1227 H1241 0.961 . S
C1227 H1242 0.961 . S
C1227 H1243 0.961 . S
C1228 C1229 1.370 . S
C1228 C1230 1.363 . S
C1228 H1244 0.931 . S
C1229 C1228 1.370 . S
C1229 C1233 1.408 . S
C1230 C1228 1.363 . S
C1230 C1231 1.370 . S
C1230 C1234 1.524 . S
C1231 C1223 1.503 . S
C1231 C1230 1.370 . S
C1231 C1232 1.403 . S
C1232 C1231 1.403 . S
C1232 C1233 1.404 . S
C1232 C1235 1.539 . S
C1233 C1229 1.408 . S
C1233 C1232 1.404 . S
C1233 H1245 0.930 1_556 S
C1234 C1230 1.524 . S
C1234 H1246 0.956 . S
C1234 H1247 0.961 . S
C1234 H1248 0.961 . S
C1235 C1232 1.539 . S
C1235 H1249 0.958 . S
C1235 H1250 0.961 1_556 S
C1235 H1251 0.960 . S
H1236 C1220 0.931 . S
H1237 C1225 0.929 . S
H1238 C1226 0.960 . S
H1239 C1226 0.962 . S
H1240 C1226 0.960 . S
H1241 C1227 0.961 . S
H1242 C1227 0.961 . S
H1243 C1227 0.961 . S
H1244 C1228 0.931 . S
H1245 C1233 0.930 1_554 S
H1246 C1234 0.956 . S
H1247 C1234 0.961 . S
H1248 C1234 0.961 . S
H1249 C1235 0.958 . S
H1250 C1235 0.961 1_554 S
H1251 C1235 0.960 . S
C1252 C1253 1.391 . S
C1252 C1254 1.394 . S
C1252 H1268 0.931 . S
C1253 C1252 1.391 . S
C1253 C1257 1.376 . S
C1254 C1252 1.394 . S
C1254 C1255 1.369 . S
C1254 C1258 1.531 . S
C1255 C1254 1.369 . S
C1255 C1256 1.410 . S
C1255 C1263 1.503 . S
C1256 C1255 1.410 . S
C1256 C1257 1.392 . S
C1256 C1259 1.511 . S
C1257 C1253 1.376 . S
C1257 C1256 1.392 . S
C1257 H1269 0.929 . S
C1258 C1254 1.531 . S
C1258 H1270 0.960 . S
C1258 H1271 0.962 . S
C1258 H1272 0.960 . S
C1259 C1256 1.511 . S
C1259 H1273 0.961 . S
C1259 H1274 0.961 . S
C1259 H1275 0.961 . S
C1260 C1261 1.370 . S
C1260 C1262 1.363 . S
C1260 H1276 0.931 . S
C1261 C1260 1.370 . S
C1261 C1265 1.408 . S
C1262 C1260 1.363 . S
C1262 C1263 1.370 . S
C1262 C1266 1.524 . S
C1263 C1255 1.503 . S
C1263 C1262 1.370 . S
C1263 C1264 1.403 . S
C1264 C1263 1.403 . S
C1264 C1265 1.404 . S
C1264 C1267 1.539 . S
C1265 C1261 1.408 . S
C1265 C1264 1.404 . S
C1265 H1277 0.930 . S
C1266 C1262 1.524 . S
C1266 H1278 0.956 . S
C1266 H1279 0.961 . S
C1266 H1280 0.961 . S
C1267 C1264 1.539 . S
C1267 H1281 0.958 . S
C1267 H1282 0.961 . S
C1267 H1283 0.960 . S
H1268 C1252 0.931 . S
H1269 C1257 0.929 . S
H1270 C1258 0.960 . S
H1271 C1258 0.962 . S
H1272 C1258 0.960 . S
H1273 C1259 0.961 . S
H1274 C1259 0.961 . S
H1275 C1259 0.961 . S
H1276 C1260 0.931 . S
H1277 C1265 0.930 . S
H1278 C1266 0.956 . S
H1279 C1266 0.961 . S
H1280 C1266 0.961 . S
H1281 C1267 0.958 . S
H1282 C1267 0.961 . S
H1283 C1267 0.960 . S
C1284 C1285 1.391 . S
C1284 C1286 1.394 . S
C1284 H1300 0.931 . S
C1285 C1284 1.391 . S
C1285 C1289 1.376 . S
C1286 C1284 1.394 . S
C1286 C1287 1.369 . S
C1286 C1290 1.531 1_556 S
C1287 C1286 1.369 . S
C1287 C1288 1.410 . S
C1287 C1295 1.503 . S
C1288 C1287 1.410 . S
C1288 C1289 1.392 . S
C1288 C1291 1.511 . S
C1289 C1285 1.376 . S
C1289 C1288 1.392 . S
C1289 H1301 0.929 . S
C1290 C1286 1.531 1_554 S
C1290 H1302 0.960 . S
C1290 H1303 0.962 . S
C1290 H1304 0.960 . S
C1291 C1288 1.511 . S
C1291 H1305 0.961 . S
C1291 H1306 0.961 . S
C1291 H1307 0.961 . S
C1292 C1293 1.370 1_556 S
C1292 C1294 1.363 . S
C1292 H1308 0.931 . S
C1293 C1292 1.370 1_554 S
C1293 C1297 1.408 . S
C1294 C1292 1.363 . S
C1294 C1295 1.370 . S
C1294 C1298 1.524 . S
C1295 C1287 1.503 . S
C1295 C1294 1.370 . S
C1295 C1296 1.403 . S
C1296 C1295 1.403 . S
C1296 C1297 1.404 1_556 S
C1296 C1299 1.539 1_565 S
C1297 C1293 1.408 . S
C1297 C1296 1.404 1_554 S
C1297 H1309 0.930 1_565 S
C1298 C1294 1.524 . S
C1298 H1310 0.956 . S
C1298 H1311 0.961 . S
C1298 H1312 0.961 . S
C1299 C1296 1.539 1_545 S
C1299 H1313 0.958 1_556 S
C1299 H1314 0.961 . S
C1299 H1315 0.960 . S
H1300 C1284 0.931 . S
H1301 C1289 0.929 . S
H1302 C1290 0.960 . S
H1303 C1290 0.962 . S
H1304 C1290 0.960 . S
H1305 C1291 0.961 . S
H1306 C1291 0.961 . S
H1307 C1291 0.961 . S
H1308 C1292 0.931 . S
H1309 C1297 0.930 1_545 S
H1310 C1298 0.956 . S
H1311 C1298 0.961 . S
H1312 C1298 0.961 . S
H1313 C1299 0.958 1_554 S
H1314 C1299 0.961 . S
H1315 C1299 0.960 . S
C1316 C1317 1.391 . S
C1316 C1318 1.394 . S
C1316 H1332 0.931 . S
C1317 C1316 1.391 . S
C1317 C1321 1.376 . S
C1318 C1316 1.394 . S
C1318 C1319 1.369 . S
C1318 C1322 1.531 . S
C1319 C1318 1.369 . S
C1319 C1320 1.410 . S
C1319 C1327 1.503 . S
C1320 C1319 1.410 . S
C1320 C1321 1.392 . S
C1320 C1323 1.511 . S
C1321 C1317 1.376 . S
C1321 C1320 1.392 . S
C1321 H1333 0.929 . S
C1322 C1318 1.531 . S
C1322 H1334 0.960 . S
C1322 H1335 0.962 . S
C1322 H1336 0.960 . S
C1323 C1320 1.511 . S
C1323 H1337 0.961 . S
C1323 H1338 0.961 . S
C1323 H1339 0.961 . S
C1324 C1325 1.370 . S
C1324 C1326 1.363 . S
C1324 H1340 0.931 . S
C1325 C1324 1.370 . S
C1325 C1329 1.408 . S
C1326 C1324 1.363 . S
C1326 C1327 1.370 . S
C1326 C1330 1.524 . S
C1327 C1319 1.503 . S
C1327 C1326 1.370 . S
C1327 C1328 1.403 . S
C1328 C1327 1.403 . S
C1328 C1329 1.404 . S
C1328 C1331 1.539 . S
C1329 C1325 1.408 . S
C1329 C1328 1.404 . S
C1329 H1341 0.930 . S
C1330 C1326 1.524 . S
C1330 H1342 0.956 . S
C1330 H1343 0.961 . S
C1330 H1344 0.961 . S
C1331 C1328 1.539 . S
C1331 H1345 0.958 . S
C1331 H1346 0.961 . S
C1331 H1347 0.960 . S
H1332 C1316 0.931 . S
H1333 C1321 0.929 . S
H1334 C1322 0.960 . S
H1335 C1322 0.962 . S
H1336 C1322 0.960 . S
H1337 C1323 0.961 . S
H1338 C1323 0.961 . S
H1339 C1323 0.961 . S
H1340 C1324 0.931 . S
H1341 C1329 0.930 . S
H1342 C1330 0.956 . S
H1343 C1330 0.961 . S
H1344 C1330 0.961 . S
H1345 C1331 0.958 . S
H1346 C1331 0.961 . S
H1347 C1331 0.960 . S
C1348 C1349 1.391 . S
C1348 C1350 1.394 . S
C1348 H1364 0.931 . S
C1349 C1348 1.391 . S
C1349 C1353 1.376 . S
C1350 C1348 1.394 . S
C1350 C1351 1.369 . S
C1350 C1354 1.531 . S
C1351 C1350 1.369 . S
C1351 C1352 1.410 . S
C1351 C1359 1.503 . S
C1352 C1351 1.410 . S
C1352 C1353 1.392 . S
C1352 C1355 1.511 . S
C1353 C1349 1.376 . S
C1353 C1352 1.392 . S
C1353 H1365 0.929 . S
C1354 C1350 1.531 . S
C1354 H1366 0.960 . S
C1354 H1367 0.962 . S
C1354 H1368 0.960 . S
C1355 C1352 1.511 . S
C1355 H1369 0.961 . S
C1355 H1370 0.961 . S
C1355 H1371 0.961 . S
C1356 C1357 1.370 . S
C1356 C1358 1.363 . S
C1356 H1372 0.931 . S
C1357 C1356 1.370 . S
C1357 C1361 1.408 . S
C1358 C1356 1.363 . S
C1358 C1359 1.370 . S
C1358 C1362 1.524 . S
C1359 C1351 1.503 . S
C1359 C1358 1.370 . S
C1359 C1360 1.403 . S
C1360 C1359 1.403 . S
C1360 C1361 1.404 . S
C1360 C1363 1.539 . S
C1361 C1357 1.408 . S
C1361 C1360 1.404 . S
C1361 H1373 0.930 . S
C1362 C1358 1.524 . S
C1362 H1374 0.956 . S
C1362 H1375 0.961 . S
C1362 H1376 0.961 . S
C1363 C1360 1.539 . S
C1363 H1377 0.958 . S
C1363 H1378 0.961 . S
C1363 H1379 0.960 . S
H1364 C1348 0.931 . S
H1365 C1353 0.929 . S
H1366 C1354 0.960 . S
H1367 C1354 0.962 . S
H1368 C1354 0.960 . S
H1369 C1355 0.961 . S
H1370 C1355 0.961 . S
H1371 C1355 0.961 . S
H1372 C1356 0.931 . S
H1373 C1361 0.930 . S
H1374 C1362 0.956 . S
H1375 C1362 0.961 . S
H1376 C1362 0.961 . S
H1377 C1363 0.958 . S
H1378 C1363 0.961 . S
H1379 C1363 0.960 . S
C1380 C1381 1.391 . S
C1380 C1382 1.394 . S
C1380 H1396 0.931 . S
C1381 C1380 1.391 . S
C1381 C1385 1.376 . S
C1382 C1380 1.394 . S
C1382 C1383 1.369 . S
C1382 C1386 1.531 . S
C1383 C1382 1.369 . S
C1383 C1384 1.410 . S
C1383 C1391 1.503 . S
C1384 C1383 1.410 . S
C1384 C1385 1.392 . S
C1384 C1387 1.511 . S
C1385 C1381 1.376 . S
C1385 C1384 1.392 . S
C1385 H1397 0.929 . S
C1386 C1382 1.531 . S
C1386 H1398 0.960 . S
C1386 H1399 0.962 . S
C1386 H1400 0.960 . S
C1387 C1384 1.511 . S
C1387 H1401 0.961 . S
C1387 H1402 0.961 . S
C1387 H1403 0.961 . S
C1388 C1389 1.370 . S
C1388 C1390 1.363 . S
C1388 H1404 0.931 . S
C1389 C1388 1.370 . S
C1389 C1393 1.408 . S
C1390 C1388 1.363 . S
C1390 C1391 1.370 . S
C1390 C1394 1.524 . S
C1391 C1383 1.503 . S
C1391 C1390 1.370 . S
C1391 C1392 1.403 . S
C1392 C1391 1.403 . S
C1392 C1393 1.404 . S
C1392 C1395 1.539 . S
C1393 C1389 1.408 . S
C1393 C1392 1.404 . S
C1393 H1405 0.930 . S
C1394 C1390 1.524 . S
C1394 H1406 0.956 . S
C1394 H1407 0.961 . S
C1394 H1408 0.961 . S
C1395 C1392 1.539 . S
C1395 H1409 0.958 . S
C1395 H1410 0.961 . S
C1395 H1411 0.960 . S
H1396 C1380 0.931 . S
H1397 C1385 0.929 . S
H1398 C1386 0.960 . S
H1399 C1386 0.962 . S
H1400 C1386 0.960 . S
H1401 C1387 0.961 . S
H1402 C1387 0.961 . S
H1403 C1387 0.961 . S
H1404 C1388 0.931 . S
H1405 C1393 0.930 . S
H1406 C1394 0.956 . S
H1407 C1394 0.961 . S
H1408 C1394 0.961 . S
H1409 C1395 0.958 . S
H1410 C1395 0.961 . S
H1411 C1395 0.960 . S
C1412 C1413 1.391 . S
C1412 C1414 1.394 . S
C1412 H1428 0.931 . S
C1413 C1412 1.391 . S
C1413 C1417 1.376 . S
C1414 C1412 1.394 . S
C1414 C1415 1.369 . S
C1414 C1418 1.531 . S
C1415 C1414 1.369 . S
C1415 C1416 1.410 . S
C1415 C1423 1.503 . S
C1416 C1415 1.410 . S
C1416 C1417 1.392 . S
C1416 C1419 1.511 . S
C1417 C1413 1.376 . S
C1417 C1416 1.392 . S
C1417 H1429 0.929 . S
C1418 C1414 1.531 . S
C1418 H1430 0.960 . S
C1418 H1431 0.962 . S
C1418 H1432 0.960 . S
C1419 C1416 1.511 . S
C1419 H1433 0.961 . S
C1419 H1434 0.961 . S
C1419 H1435 0.961 . S
C1420 C1421 1.370 . S
C1420 C1422 1.363 . S
C1420 H1436 0.931 . S
C1421 C1420 1.370 . S
C1421 C1425 1.408 . S
C1422 C1420 1.363 . S
C1422 C1423 1.370 . S
C1422 C1426 1.524 . S
C1423 C1415 1.503 . S
C1423 C1422 1.370 . S
C1423 C1424 1.403 . S
C1424 C1423 1.403 . S
C1424 C1425 1.404 . S
C1424 C1427 1.539 . S
C1425 C1421 1.408 . S
C1425 C1424 1.404 . S
C1425 H1437 0.930 . S
C1426 C1422 1.524 . S
C1426 H1438 0.956 . S
C1426 H1439 0.961 . S
C1426 H1440 0.961 . S
C1427 C1424 1.539 . S
C1427 H1441 0.958 . S
C1427 H1442 0.961 . S
C1427 H1443 0.960 . S
H1428 C1412 0.931 . S
H1429 C1417 0.929 . S
H1430 C1418 0.960 . S
H1431 C1418 0.962 . S
H1432 C1418 0.960 . S
H1433 C1419 0.961 . S
H1434 C1419 0.961 . S
H1435 C1419 0.961 . S
H1436 C1420 0.931 . S
H1437 C1425 0.930 . S
H1438 C1426 0.956 . S
H1439 C1426 0.961 . S
H1440 C1426 0.961 . S
H1441 C1427 0.958 . S
H1442 C1427 0.961 . S
H1443 C1427 0.960 . S
C1444 C1445 1.391 . S
C1444 C1446 1.394 . S
C1444 H1460 0.931 . S
C1445 C1444 1.391 . S
C1445 C1449 1.376 . S
C1446 C1444 1.394 . S
C1446 C1447 1.369 . S
C1446 C1450 1.531 . S
C1447 C1446 1.369 . S
C1447 C1448 1.410 . S
C1447 C1455 1.503 . S
C1448 C1447 1.410 . S
C1448 C1449 1.392 . S
C1448 C1451 1.511 . S
C1449 C1445 1.376 . S
C1449 C1448 1.392 . S
C1449 H1461 0.929 . S
C1450 C1446 1.531 . S
C1450 H1462 0.960 . S
C1450 H1463 0.962 . S
C1450 H1464 0.960 . S
C1451 C1448 1.511 . S
C1451 H1465 0.961 . S
C1451 H1466 0.961 . S
C1451 H1467 0.961 . S
C1452 C1453 1.370 1_554 S
C1452 C1454 1.363 1_554 S
C1452 H1468 0.931 . S
C1453 C1452 1.370 1_556 S
C1453 C1457 1.408 . S
C1454 C1452 1.363 1_556 S
C1454 C1455 1.370 . S
C1454 C1458 1.524 1_556 S
C1455 C1447 1.503 . S
C1455 C1454 1.370 . S
C1455 C1456 1.403 . S
C1456 C1455 1.403 . S
C1456 C1457 1.404 . S
C1456 C1459 1.539 . S
C1457 C1453 1.408 . S
C1457 C1456 1.404 . S
C1457 H1469 0.930 . S
C1458 C1454 1.524 1_554 S
C1458 H1470 0.956 . S
C1458 H1471 0.961 1_554 S
C1458 H1472 0.961 . S
C1459 C1456 1.539 . S
C1459 H1473 0.958 . S
C1459 H1474 0.961 . S
C1459 H1475 0.960 . S
H1460 C1444 0.931 . S
H1461 C1449 0.929 . S
H1462 C1450 0.960 . S
H1463 C1450 0.962 . S
H1464 C1450 0.960 . S
H1465 C1451 0.961 . S
H1466 C1451 0.961 . S
H1467 C1451 0.961 . S
H1468 C1452 0.931 . S
H1469 C1457 0.930 . S
H1470 C1458 0.956 . S
H1471 C1458 0.961 1_556 S
H1472 C1458 0.961 . S
H1473 C1459 0.958 . S
H1474 C1459 0.961 . S
H1475 C1459 0.960 . S
C1476 C1477 1.391 . S
C1476 C1478 1.394 . S
C1476 H1492 0.931 . S
C1477 C1476 1.391 . S
C1477 C1481 1.376 . S
C1478 C1476 1.394 . S
C1478 C1479 1.369 . S
C1478 C1482 1.531 . S
C1479 C1478 1.369 . S
C1479 C1480 1.410 . S
C1479 C1487 1.503 . S
C1480 C1479 1.410 . S
C1480 C1481 1.392 . S
C1480 C1483 1.511 . S
C1481 C1477 1.376 . S
C1481 C1480 1.392 . S
C1481 H1493 0.929 . S
C1482 C1478 1.531 . S
C1482 H1494 0.960 . S
C1482 H1495 0.962 . S
C1482 H1496 0.960 . S
C1483 C1480 1.511 . S
C1483 H1497 0.961 . S
C1483 H1498 0.961 . S
C1483 H1499 0.961 . S
C1484 C1485 1.370 . S
C1484 C1486 1.363 . S
C1484 H1500 0.931 . S
C1485 C1484 1.370 . S
C1485 C1489 1.408 . S
C1486 C1484 1.363 . S
C1486 C1487 1.370 . S
C1486 C1490 1.524 . S
C1487 C1479 1.503 . S
C1487 C1486 1.370 . S
C1487 C1488 1.403 . S
C1488 C1487 1.403 . S
C1488 C1489 1.404 . S
C1488 C1491 1.539 . S
C1489 C1485 1.408 . S
C1489 C1488 1.404 . S
C1489 H1501 0.930 . S
C1490 C1486 1.524 . S
C1490 H1502 0.956 . S
C1490 H1503 0.961 . S
C1490 H1504 0.961 . S
C1491 C1488 1.539 . S
C1491 H1505 0.958 . S
C1491 H1506 0.961 . S
C1491 H1507 0.960 . S
H1492 C1476 0.931 . S
H1493 C1481 0.929 . S
H1494 C1482 0.960 . S
H1495 C1482 0.962 . S
H1496 C1482 0.960 . S
H1497 C1483 0.961 . S
H1498 C1483 0.961 . S
H1499 C1483 0.961 . S
H1500 C1484 0.931 . S
H1501 C1489 0.930 . S
H1502 C1490 0.956 . S
H1503 C1490 0.961 . S
H1504 C1490 0.961 . S
H1505 C1491 0.958 . S
H1506 C1491 0.961 . S
H1507 C1491 0.960 . S
C1508 C1509 1.391 . S
C1508 C1510 1.394 . S
C1508 H1524 0.931 . S
C1509 C1508 1.391 . S
C1509 C1513 1.376 . S
C1510 C1508 1.394 . S
C1510 C1511 1.369 . S
C1510 C1514 1.531 . S
C1511 C1510 1.369 . S
C1511 C1512 1.410 . S
C1511 C1519 1.503 . S
C1512 C1511 1.410 . S
C1512 C1513 1.392 . S
C1512 C1515 1.511 . S
C1513 C1509 1.376 . S
C1513 C1512 1.392 . S
C1513 H1525 0.929 . S
C1514 C1510 1.531 . S
C1514 H1526 0.960 . S
C1514 H1527 0.962 . S
C1514 H1528 0.960 . S
C1515 C1512 1.511 . S
C1515 H1529 0.961 . S
C1515 H1530 0.961 . S
C1515 H1531 0.961 . S
C1516 C1517 1.370 . S
C1516 C1518 1.363 . S
C1516 H1532 0.931 1_556 S
C1517 C1516 1.370 . S
C1517 C1521 1.408 . S
C1518 C1516 1.363 . S
C1518 C1519 1.370 . S
C1518 C1522 1.524 . S
C1519 C1511 1.503 . S
C1519 C1518 1.370 . S
C1519 C1520 1.403 . S
C1520 C1519 1.403 . S
C1520 C1521 1.404 . S
C1520 C1523 1.539 . S
C1521 C1517 1.408 . S
C1521 C1520 1.404 . S
C1521 H1533 0.930 . S
C1522 C1518 1.524 . S
C1522 H1534 0.956 . S
C1522 H1535 0.961 . S
C1522 H1536 0.961 . S
C1523 C1520 1.539 . S
C1523 H1537 0.958 . S
C1523 H1538 0.961 . S
C1523 H1539 0.960 . S
H1524 C1508 0.931 . S
H1525 C1513 0.929 . S
H1526 C1514 0.960 . S
H1527 C1514 0.962 . S
H1528 C1514 0.960 . S
H1529 C1515 0.961 . S
H1530 C1515 0.961 . S
H1531 C1515 0.961 . S
H1532 C1516 0.931 1_554 S
H1533 C1521 0.930 . S
H1534 C1522 0.956 . S
H1535 C1522 0.961 . S
H1536 C1522 0.961 . S
H1537 C1523 0.958 . S
H1538 C1523 0.961 . S
H1539 C1523 0.960 . S
C1540 C1541 1.391 . S
C1540 C1542 1.394 . S
C1540 H1556 0.931 . S
C1541 C1540 1.391 . S
C1541 C1545 1.376 . S
C1542 C1540 1.394 . S
C1542 C1543 1.369 . S
C1542 C1546 1.531 . S
C1543 C1542 1.369 . S
C1543 C1544 1.410 . S
C1543 C1551 1.503 . S
C1544 C1543 1.410 . S
C1544 C1545 1.392 . S
C1544 C1547 1.511 . S
C1545 C1541 1.376 . S
C1545 C1544 1.392 . S
C1545 H1557 0.929 . S
C1546 C1542 1.531 . S
C1546 H1558 0.960 . S
C1546 H1559 0.962 . S
C1546 H1560 0.960 . S
C1547 C1544 1.511 . S
C1547 H1561 0.961 . S
C1547 H1562 0.961 . S
C1547 H1563 0.961 . S
C1548 C1549 1.370 . S
C1548 C1550 1.363 . S
C1548 H1564 0.931 . S
C1549 C1548 1.370 . S
C1549 C1553 1.408 . S
C1550 C1548 1.363 . S
C1550 C1551 1.370 . S
C1550 C1554 1.524 . S
C1551 C1543 1.503 . S
C1551 C1550 1.370 . S
C1551 C1552 1.403 . S
C1552 C1551 1.403 . S
C1552 C1553 1.404 . S
C1552 C1555 1.539 . S
C1553 C1549 1.408 . S
C1553 C1552 1.404 . S
C1553 H1565 0.930 . S
C1554 C1550 1.524 . S
C1554 H1566 0.956 . S
C1554 H1567 0.961 . S
C1554 H1568 0.961 . S
C1555 C1552 1.539 . S
C1555 H1569 0.958 . S
C1555 H1570 0.961 . S
C1555 H1571 0.960 . S
H1556 C1540 0.931 . S
H1557 C1545 0.929 . S
H1558 C1546 0.960 . S
H1559 C1546 0.962 . S
H1560 C1546 0.960 . S
H1561 C1547 0.961 . S
H1562 C1547 0.961 . S
H1563 C1547 0.961 . S
H1564 C1548 0.931 . S
H1565 C1553 0.930 . S
H1566 C1554 0.956 . S
H1567 C1554 0.961 . S
H1568 C1554 0.961 . S
H1569 C1555 0.958 . S
H1570 C1555 0.961 . S
H1571 C1555 0.960 . S
C1572 C1573 1.391 . S
C1572 C1574 1.394 . S
C1572 H1588 0.931 . S
C1573 C1572 1.391 . S
C1573 C1577 1.376 . S
C1574 C1572 1.394 . S
C1574 C1575 1.369 . S
C1574 C1578 1.531 . S
C1575 C1574 1.369 . S
C1575 C1576 1.410 . S
C1575 C1583 1.503 . S
C1576 C1575 1.410 . S
C1576 C1577 1.392 . S
C1576 C1579 1.511 . S
C1577 C1573 1.376 . S
C1577 C1576 1.392 . S
C1577 H1589 0.929 . S
C1578 C1574 1.531 . S
C1578 H1590 0.960 . S
C1578 H1591 0.962 . S
C1578 H1592 0.960 . S
C1579 C1576 1.511 . S
C1579 H1593 0.961 . S
C1579 H1594 0.961 . S
C1579 H1595 0.961 . S
C1580 C1581 1.370 . S
C1580 C1582 1.363 . S
C1580 H1596 0.931 . S
C1581 C1580 1.370 . S
C1581 C1585 1.408 . S
C1582 C1580 1.363 . S
C1582 C1583 1.370 . S
C1582 C1586 1.524 . S
C1583 C1575 1.503 . S
C1583 C1582 1.370 . S
C1583 C1584 1.403 . S
C1584 C1583 1.403 . S
C1584 C1585 1.404 . S
C1584 C1587 1.539 . S
C1585 C1581 1.408 . S
C1585 C1584 1.404 . S
C1585 H1597 0.930 . S
C1586 C1582 1.524 . S
C1586 H1598 0.956 . S
C1586 H1599 0.961 . S
C1586 H1600 0.961 . S
C1587 C1584 1.539 . S
C1587 H1601 0.958 . S
C1587 H1602 0.961 . S
C1587 H1603 0.960 . S
H1588 C1572 0.931 . S
H1589 C1577 0.929 . S
H1590 C1578 0.960 . S
H1591 C1578 0.962 . S
H1592 C1578 0.960 . S
H1593 C1579 0.961 . S
H1594 C1579 0.961 . S
H1595 C1579 0.961 . S
H1596 C1580 0.931 . S
H1597 C1585 0.930 . S
H1598 C1586 0.956 . S
H1599 C1586 0.961 . S
H1600 C1586 0.961 . S
H1601 C1587 0.958 . S
H1602 C1587 0.961 . S
H1603 C1587 0.960 . S
C1604 C1605 1.391 . S
C1604 C1606 1.394 . S
C1604 H1620 0.931 . S
C1605 C1604 1.391 . S
C1605 C1609 1.376 . S
C1606 C1604 1.394 . S
C1606 C1607 1.369 . S
C1606 C1610 1.531 . S
C1607 C1606 1.369 . S
C1607 C1608 1.410 . S
C1607 C1615 1.503 . S
C1608 C1607 1.410 . S
C1608 C1609 1.392 . S
C1608 C1611 1.511 . S
C1609 C1605 1.376 . S
C1609 C1608 1.392 . S
C1609 H1621 0.929 . S
C1610 C1606 1.531 . S
C1610 H1622 0.960 . S
C1610 H1623 0.962 . S
C1610 H1624 0.960 . S
C1611 C1608 1.511 . S
C1611 H1625 0.961 . S
C1611 H1626 0.961 . S
C1611 H1627 0.961 . S
C1612 C1613 1.370 . S
C1612 C1614 1.363 . S
C1612 H1628 0.931 . S
C1613 C1612 1.370 . S
C1613 C1617 1.408 . S
C1614 C1612 1.363 . S
C1614 C1615 1.370 . S
C1614 C1618 1.524 . S
C1615 C1607 1.503 . S
C1615 C1614 1.370 . S
C1615 C1616 1.403 . S
C1616 C1615 1.403 . S
C1616 C1617 1.404 . S
C1616 C1619 1.539 . S
C1617 C1613 1.408 . S
C1617 C1616 1.404 . S
C1617 H1629 0.930 . S
C1618 C1614 1.524 . S
C1618 H1630 0.956 . S
C1618 H1631 0.961 . S
C1618 H1632 0.961 . S
C1619 C1616 1.539 . S
C1619 H1633 0.958 . S
C1619 H1634 0.961 . S
C1619 H1635 0.960 . S
H1620 C1604 0.931 . S
H1621 C1609 0.929 . S
H1622 C1610 0.960 . S
H1623 C1610 0.962 . S
H1624 C1610 0.960 . S
H1625 C1611 0.961 . S
H1626 C1611 0.961 . S
H1627 C1611 0.961 . S
H1628 C1612 0.931 . S
H1629 C1617 0.930 . S
H1630 C1618 0.956 . S
H1631 C1618 0.961 . S
H1632 C1618 0.961 . S
H1633 C1619 0.958 . S
H1634 C1619 0.961 . S
H1635 C1619 0.960 . S
C1636 C1637 1.391 . S
C1636 C1638 1.394 . S
C1636 H1652 0.931 . S
C1637 C1636 1.391 . S
C1637 C1641 1.376 . S
C1638 C1636 1.394 . S
C1638 C1639 1.369 . S
C1638 C1642 1.531 . S
C1639 C1638 1.369 . S
C1639 C1640 1.410 . S
C1639 C1647 1.503 . S
C1640 C1639 1.410 . S
C1640 C1641 1.392 . S
C1640 C1643 1.511 . S
C1641 C1637 1.376 . S
C1641 C1640 1.392 . S
C1641 H1653 0.929 . S
C1642 C1638 1.531 . S
C1642 H1654 0.960 . S
C1642 H1655 0.962 . S
C1642 H1656 0.960 . S
C1643 C1640 1.511 . S
C1643 H1657 0.961 . S
C1643 H1658 0.961 . S
C1643 H1659 0.961 . S
C1644 C1645 1.370 . S
C1644 C1646 1.363 . S
C1644 H1660 0.931 . S
C1645 C1644 1.370 . S
C1645 C1649 1.408 . S
C1646 C1644 1.363 . S
C1646 C1647 1.370 . S
C1646 C1650 1.524 . S
C1647 C1639 1.503 . S
C1647 C1646 1.370 . S
C1647 C1648 1.403 . S
C1648 C1647 1.403 . S
C1648 C1649 1.404 . S
C1648 C1651 1.539 . S
C1649 C1645 1.408 . S
C1649 C1648 1.404 . S
C1649 H1661 0.930 . S
C1650 C1646 1.524 . S
C1650 H1662 0.956 . S
C1650 H1663 0.961 . S
C1650 H1664 0.961 . S
C1651 C1648 1.539 . S
C1651 H1665 0.958 . S
C1651 H1666 0.961 . S
C1651 H1667 0.960 . S
H1652 C1636 0.931 . S
H1653 C1641 0.929 . S
H1654 C1642 0.960 . S
H1655 C1642 0.962 . S
H1656 C1642 0.960 . S
H1657 C1643 0.961 . S
H1658 C1643 0.961 . S
H1659 C1643 0.961 . S
H1660 C1644 0.931 . S
H1661 C1649 0.930 . S
H1662 C1650 0.956 . S
H1663 C1650 0.961 . S
H1664 C1650 0.961 . S
H1665 C1651 0.958 . S
H1666 C1651 0.961 . S
H1667 C1651 0.960 . S
C1668 C1669 1.391 . S
C1668 C1670 1.394 . S
C1668 H1684 0.931 . S
C1669 C1668 1.391 . S
C1669 C1673 1.376 . S
C1670 C1668 1.394 . S
C1670 C1671 1.369 . S
C1670 C1674 1.531 . S
C1671 C1670 1.369 . S
C1671 C1672 1.410 . S
C1671 C1679 1.503 . S
C1672 C1671 1.410 . S
C1672 C1673 1.392 . S
C1672 C1675 1.511 . S
C1673 C1669 1.376 . S
C1673 C1672 1.392 . S
C1673 H1685 0.929 . S
C1674 C1670 1.531 . S
C1674 H1686 0.960 . S
C1674 H1687 0.962 . S
C1674 H1688 0.960 . S
C1675 C1672 1.511 . S
C1675 H1689 0.961 . S
C1675 H1690 0.961 . S
C1675 H1691 0.961 . S
C1676 C1677 1.370 . S
C1676 C1678 1.363 . S
C1676 H1692 0.931 . S
C1677 C1676 1.370 . S
C1677 C1681 1.408 . S
C1678 C1676 1.363 . S
C1678 C1679 1.370 . S
C1678 C1682 1.524 . S
C1679 C1671 1.503 . S
C1679 C1678 1.370 . S
C1679 C1680 1.403 . S
C1680 C1679 1.403 . S
C1680 C1681 1.404 . S
C1680 C1683 1.539 . S
C1681 C1677 1.408 . S
C1681 C1680 1.404 . S
C1681 H1693 0.930 . S
C1682 C1678 1.524 . S
C1682 H1694 0.956 . S
C1682 H1695 0.961 . S
C1682 H1696 0.961 . S
C1683 C1680 1.539 . S
C1683 H1697 0.958 . S
C1683 H1698 0.961 . S
C1683 H1699 0.960 . S
H1684 C1668 0.931 . S
H1685 C1673 0.929 . S
H1686 C1674 0.960 . S
H1687 C1674 0.962 . S
H1688 C1674 0.960 . S
H1689 C1675 0.961 . S
H1690 C1675 0.961 . S
H1691 C1675 0.961 . S
H1692 C1676 0.931 . S
H1693 C1681 0.930 . S
H1694 C1682 0.956 . S
H1695 C1682 0.961 . S
H1696 C1682 0.961 . S
H1697 C1683 0.958 . S
H1698 C1683 0.961 . S
H1699 C1683 0.960 . S
C1700 C1701 1.391 . S
C1700 C1702 1.394 . S
C1700 H1716 0.931 . S
C1701 C1700 1.391 . S
C1701 C1705 1.376 . S
C1702 C1700 1.394 . S
C1702 C1703 1.369 . S
C1702 C1706 1.531 . S
C1703 C1702 1.369 . S
C1703 C1704 1.410 . S
C1703 C1711 1.503 . S
C1704 C1703 1.410 . S
C1704 C1705 1.392 . S
C1704 C1707 1.511 . S
C1705 C1701 1.376 . S
C1705 C1704 1.392 . S
C1705 H1717 0.929 . S
C1706 C1702 1.531 . S
C1706 H1718 0.960 . S
C1706 H1719 0.962 . S
C1706 H1720 0.960 . S
C1707 C1704 1.511 . S
C1707 H1721 0.961 . S
C1707 H1722 0.961 . S
C1707 H1723 0.961 . S
C1708 C1709 1.370 . S
C1708 C1710 1.363 . S
C1708 H1724 0.931 . S
C1709 C1708 1.370 . S
C1709 C1713 1.408 . S
C1710 C1708 1.363 . S
C1710 C1711 1.370 . S
C1710 C1714 1.524 . S
C1711 C1703 1.503 . S
C1711 C1710 1.370 . S
C1711 C1712 1.403 . S
C1712 C1711 1.403 . S
C1712 C1713 1.404 . S
C1712 C1715 1.539 . S
C1713 C1709 1.408 . S
C1713 C1712 1.404 . S
C1713 H1725 0.930 . S
C1714 C1710 1.524 . S
C1714 H1726 0.956 . S
C1714 H1727 0.961 . S
C1714 H1728 0.961 . S
C1715 C1712 1.539 . S
C1715 H1729 0.958 . S
C1715 H1730 0.961 . S
C1715 H1731 0.960 . S
H1716 C1700 0.931 . S
H1717 C1705 0.929 . S
H1718 C1706 0.960 . S
H1719 C1706 0.962 . S
H1720 C1706 0.960 . S
H1721 C1707 0.961 . S
H1722 C1707 0.961 . S
H1723 C1707 0.961 . S
H1724 C1708 0.931 . S
H1725 C1713 0.930 . S
H1726 C1714 0.956 . S
H1727 C1714 0.961 . S
H1728 C1714 0.961 . S
H1729 C1715 0.958 . S
H1730 C1715 0.961 . S
H1731 C1715 0.960 . S
C1732 C1733 1.391 . S
C1732 C1734 1.394 . S
C1732 H1748 0.931 . S
C1733 C1732 1.391 . S
C1733 C1737 1.376 . S
C1734 C1732 1.394 . S
C1734 C1735 1.369 . S
C1734 C1738 1.531 . S
C1735 C1734 1.369 . S
C1735 C1736 1.410 . S
C1735 C1743 1.503 . S
C1736 C1735 1.410 . S
C1736 C1737 1.392 . S
C1736 C1739 1.511 . S
C1737 C1733 1.376 . S
C1737 C1736 1.392 . S
C1737 H1749 0.929 . S
C1738 C1734 1.531 . S
C1738 H1750 0.960 . S
C1738 H1751 0.962 . S
C1738 H1752 0.960 . S
C1739 C1736 1.511 . S
C1739 H1753 0.961 . S
C1739 H1754 0.961 . S
C1739 H1755 0.961 . S
C1740 C1741 1.370 . S
C1740 C1742 1.363 . S
C1740 H1756 0.931 . S
C1741 C1740 1.370 . S
C1741 C1745 1.408 . S
C1742 C1740 1.363 . S
C1742 C1743 1.370 . S
C1742 C1746 1.524 . S
C1743 C1735 1.503 . S
C1743 C1742 1.370 . S
C1743 C1744 1.403 . S
C1744 C1743 1.403 . S
C1744 C1745 1.404 . S
C1744 C1747 1.539 . S
C1745 C1741 1.408 . S
C1745 C1744 1.404 . S
C1745 H1757 0.930 . S
C1746 C1742 1.524 . S
C1746 H1758 0.956 . S
C1746 H1759 0.961 . S
C1746 H1760 0.961 . S
C1747 C1744 1.539 . S
C1747 H1761 0.958 . S
C1747 H1762 0.961 . S
C1747 H1763 0.960 . S
H1748 C1732 0.931 . S
H1749 C1737 0.929 . S
H1750 C1738 0.960 . S
H1751 C1738 0.962 . S
H1752 C1738 0.960 . S
H1753 C1739 0.961 . S
H1754 C1739 0.961 . S
H1755 C1739 0.961 . S
H1756 C1740 0.931 . S
H1757 C1745 0.930 . S
H1758 C1746 0.956 . S
H1759 C1746 0.961 . S
H1760 C1746 0.961 . S
H1761 C1747 0.958 . S
H1762 C1747 0.961 . S
H1763 C1747 0.960 . S
C1764 C1765 1.391 . S
C1764 C1766 1.394 . S
C1764 H1780 0.931 . S
C1765 C1764 1.391 . S
C1765 C1769 1.376 . S
C1766 C1764 1.394 . S
C1766 C1767 1.369 . S
C1766 C1770 1.531 . S
C1767 C1766 1.369 . S
C1767 C1768 1.410 . S
C1767 C1775 1.503 . S
C1768 C1767 1.410 . S
C1768 C1769 1.392 . S
C1768 C1771 1.511 . S
C1769 C1765 1.376 . S
C1769 C1768 1.392 . S
C1769 H1781 0.929 . S
C1770 C1766 1.531 . S
C1770 H1782 0.960 . S
C1770 H1783 0.962 . S
C1770 H1784 0.960 . S
C1771 C1768 1.511 . S
C1771 H1785 0.961 . S
C1771 H1786 0.961 . S
C1771 H1787 0.961 . S
C1772 C1773 1.370 . S
C1772 C1774 1.363 . S
C1772 H1788 0.931 . S
C1773 C1772 1.370 . S
C1773 C1777 1.408 . S
C1774 C1772 1.363 . S
C1774 C1775 1.370 . S
C1774 C1778 1.524 . S
C1775 C1767 1.503 . S
C1775 C1774 1.370 . S
C1775 C1776 1.403 . S
C1776 C1775 1.403 . S
C1776 C1777 1.404 . S
C1776 C1779 1.539 . S
C1777 C1773 1.408 . S
C1777 C1776 1.404 . S
C1777 H1789 0.930 . S
C1778 C1774 1.524 . S
C1778 H1790 0.956 . S
C1778 H1791 0.961 . S
C1778 H1792 0.961 . S
C1779 C1776 1.539 . S
C1779 H1793 0.958 . S
C1779 H1794 0.961 . S
C1779 H1795 0.960 . S
H1780 C1764 0.931 . S
H1781 C1769 0.929 . S
H1782 C1770 0.960 . S
H1783 C1770 0.962 . S
H1784 C1770 0.960 . S
H1785 C1771 0.961 . S
H1786 C1771 0.961 . S
H1787 C1771 0.961 . S
H1788 C1772 0.931 . S
H1789 C1777 0.930 . S
H1790 C1778 0.956 . S
H1791 C1778 0.961 . S
H1792 C1778 0.961 . S
H1793 C1779 0.958 . S
H1794 C1779 0.961 . S
H1795 C1779 0.960 . S
C1796 C1797 1.391 . S
C1796 C1798 1.394 . S
C1796 H1812 0.931 . S
C1797 C1796 1.391 . S
C1797 C1801 1.376 . S
C1798 C1796 1.394 . S
C1798 C1799 1.369 . S
C1798 C1802 1.531 . S
C1799 C1798 1.369 . S
C1799 C1800 1.410 . S
C1799 C1807 1.503 . S
C1800 C1799 1.410 . S
C1800 C1801 1.392 . S
C1800 C1803 1.511 . S
C1801 C1797 1.376 . S
C1801 C1800 1.392 . S
C1801 H1813 0.929 . S
C1802 C1798 1.531 . S
C1802 H1814 0.960 . S
C1802 H1815 0.962 . S
C1802 H1816 0.960 . S
C1803 C1800 1.511 . S
C1803 H1817 0.961 . S
C1803 H1818 0.961 . S
C1803 H1819 0.961 . S
C1804 C1805 1.370 . S
C1804 C1806 1.363 . S
C1804 H1820 0.931 . S
C1805 C1804 1.370 . S
C1805 C1809 1.408 . S
C1806 C1804 1.363 . S
C1806 C1807 1.370 . S
C1806 C1810 1.524 . S
C1807 C1799 1.503 . S
C1807 C1806 1.370 . S
C1807 C1808 1.403 . S
C1808 C1807 1.403 . S
C1808 C1809 1.404 . S
C1808 C1811 1.539 . S
C1809 C1805 1.408 . S
C1809 C1808 1.404 . S
C1809 H1821 0.930 . S
C1810 C1806 1.524 . S
C1810 H1822 0.956 . S
C1810 H1823 0.961 . S
C1810 H1824 0.961 . S
C1811 C1808 1.539 . S
C1811 H1825 0.958 . S
C1811 H1826 0.961 . S
C1811 H1827 0.960 . S
H1812 C1796 0.931 . S
H1813 C1801 0.929 . S
H1814 C1802 0.960 . S
H1815 C1802 0.962 . S
H1816 C1802 0.960 . S
H1817 C1803 0.961 . S
H1818 C1803 0.961 . S
H1819 C1803 0.961 . S
H1820 C1804 0.931 . S
H1821 C1809 0.930 . S
H1822 C1810 0.956 . S
H1823 C1810 0.961 . S
H1824 C1810 0.961 . S
H1825 C1811 0.958 . S
H1826 C1811 0.961 . S
H1827 C1811 0.960 . S
C1828 C1829 1.391 . S
C1828 C1830 1.394 . S
C1828 H1844 0.931 . S
C1829 C1828 1.391 . S
C1829 C1833 1.376 . S
C1830 C1828 1.394 . S
C1830 C1831 1.369 . S
C1830 C1834 1.531 . S
C1831 C1830 1.369 . S
C1831 C1832 1.410 . S
C1831 C1839 1.503 . S
C1832 C1831 1.410 . S
C1832 C1833 1.392 . S
C1832 C1835 1.511 . S
C1833 C1829 1.376 . S
C1833 C1832 1.392 . S
C1833 H1845 0.929 . S
C1834 C1830 1.531 . S
C1834 H1846 0.960 . S
C1834 H1847 0.962 . S
C1834 H1848 0.960 . S
C1835 C1832 1.511 . S
C1835 H1849 0.961 . S
C1835 H1850 0.961 . S
C1835 H1851 0.961 . S
C1836 C1837 1.370 . S
C1836 C1838 1.363 . S
C1836 H1852 0.931 . S
C1837 C1836 1.370 . S
C1837 C1841 1.408 . S
C1838 C1836 1.363 . S
C1838 C1839 1.370 . S
C1838 C1842 1.524 . S
C1839 C1831 1.503 . S
C1839 C1838 1.370 . S
C1839 C1840 1.403 . S
C1840 C1839 1.403 . S
C1840 C1841 1.404 . S
C1840 C1843 1.539 . S
C1841 C1837 1.408 . S
C1841 C1840 1.404 . S
C1841 H1853 0.930 . S
C1842 C1838 1.524 . S
C1842 H1854 0.956 . S
C1842 H1855 0.961 . S
C1842 H1856 0.961 . S
C1843 C1840 1.539 . S
C1843 H1857 0.958 . S
C1843 H1858 0.961 . S
C1843 H1859 0.960 . S
H1844 C1828 0.931 . S
H1845 C1833 0.929 . S
H1846 C1834 0.960 . S
H1847 C1834 0.962 . S
H1848 C1834 0.960 . S
H1849 C1835 0.961 . S
H1850 C1835 0.961 . S
H1851 C1835 0.961 . S
H1852 C1836 0.931 . S
H1853 C1841 0.930 . S
H1854 C1842 0.956 . S
H1855 C1842 0.961 . S
H1856 C1842 0.961 . S
H1857 C1843 0.958 . S
H1858 C1843 0.961 . S
H1859 C1843 0.960 . S
C1860 C1861 1.391 . S
C1860 C1862 1.394 . S
C1860 H1876 0.931 . S
C1861 C1860 1.391 . S
C1861 C1865 1.376 . S
C1862 C1860 1.394 . S
C1862 C1863 1.369 . S
C1862 C1866 1.531 . S
C1863 C1862 1.369 . S
C1863 C1864 1.410 . S
C1863 C1871 1.503 . S
C1864 C1863 1.410 . S
C1864 C1865 1.392 . S
C1864 C1867 1.511 . S
C1865 C1861 1.376 . S
C1865 C1864 1.392 . S
C1865 H1877 0.929 . S
C1866 C1862 1.531 . S
C1866 H1878 0.960 . S
C1866 H1879 0.962 . S
C1866 H1880 0.960 . S
C1867 C1864 1.511 . S
C1867 H1881 0.961 . S
C1867 H1882 0.961 . S
C1867 H1883 0.961 . S
C1868 C1869 1.370 . S
C1868 C1870 1.363 . S
C1868 H1884 0.931 . S
C1869 C1868 1.370 . S
C1869 C1873 1.408 . S
C1870 C1868 1.363 . S
C1870 C1871 1.370 . S
C1870 C1874 1.524 . S
C1871 C1863 1.503 . S
C1871 C1870 1.370 . S
C1871 C1872 1.403 . S
C1872 C1871 1.403 . S
C1872 C1873 1.404 . S
C1872 C1875 1.539 . S
C1873 C1869 1.408 . S
C1873 C1872 1.404 . S
C1873 H1885 0.930 . S
C1874 C1870 1.524 . S
C1874 H1886 0.956 . S
C1874 H1887 0.961 . S
C1874 H1888 0.961 . S
C1875 C1872 1.539 . S
C1875 H1889 0.958 . S
C1875 H1890 0.961 . S
C1875 H1891 0.960 . S
H1876 C1860 0.931 . S
H1877 C1865 0.929 . S
H1878 C1866 0.960 . S
H1879 C1866 0.962 . S
H1880 C1866 0.960 . S
H1881 C1867 0.961 . S
H1882 C1867 0.961 . S
H1883 C1867 0.961 . S
H1884 C1868 0.931 . S
H1885 C1873 0.930 . S
H1886 C1874 0.956 . S
H1887 C1874 0.961 . S
H1888 C1874 0.961 . S
H1889 C1875 0.958 . S
H1890 C1875 0.961 . S
H1891 C1875 0.960 . S
C1892 C1893 1.391 . S
C1892 C1894 1.394 . S
C1892 H1908 0.931 . S
C1893 C1892 1.391 . S
C1893 C1897 1.376 . S
C1894 C1892 1.394 . S
C1894 C1895 1.369 . S
C1894 C1898 1.531 . S
C1895 C1894 1.369 . S
C1895 C1896 1.410 . S
C1895 C1903 1.503 . S
C1896 C1895 1.410 . S
C1896 C1897 1.392 . S
C1896 C1899 1.511 . S
C1897 C1893 1.376 . S
C1897 C1896 1.392 . S
C1897 H1909 0.929 . S
C1898 C1894 1.531 . S
C1898 H1910 0.960 . S
C1898 H1911 0.962 . S
C1898 H1912 0.960 . S
C1899 C1896 1.511 . S
C1899 H1913 0.961 . S
C1899 H1914 0.961 . S
C1899 H1915 0.961 . S
C1900 C1901 1.370 . S
C1900 C1902 1.363 . S
C1900 H1916 0.931 . S
C1901 C1900 1.370 . S
C1901 C1905 1.408 . S
C1902 C1900 1.363 . S
C1902 C1903 1.370 . S
C1902 C1906 1.524 . S
C1903 C1895 1.503 . S
C1903 C1902 1.370 . S
C1903 C1904 1.403 . S
C1904 C1903 1.403 . S
C1904 C1905 1.404 . S
C1904 C1907 1.539 . S
C1905 C1901 1.408 . S
C1905 C1904 1.404 . S
C1905 H1917 0.930 . S
C1906 C1902 1.524 . S
C1906 H1918 0.956 . S
C1906 H1919 0.961 . S
C1906 H1920 0.961 . S
C1907 C1904 1.539 . S
C1907 H1921 0.958 . S
C1907 H1922 0.961 . S
C1907 H1923 0.960 . S
H1908 C1892 0.931 . S
H1909 C1897 0.929 . S
H1910 C1898 0.960 . S
H1911 C1898 0.962 . S
H1912 C1898 0.960 . S
H1913 C1899 0.961 . S
H1914 C1899 0.961 . S
H1915 C1899 0.961 . S
H1916 C1900 0.931 . S
H1917 C1905 0.930 . S
H1918 C1906 0.956 . S
H1919 C1906 0.961 . S
H1920 C1906 0.961 . S
H1921 C1907 0.958 . S
H1922 C1907 0.961 . S
H1923 C1907 0.960 . S
C1924 C1925 1.391 . S
C1924 C1926 1.394 . S
C1924 H1940 0.931 . S
C1925 C1924 1.391 . S
C1925 C1929 1.376 . S
C1926 C1924 1.394 . S
C1926 C1927 1.369 . S
C1926 C1930 1.531 . S
C1927 C1926 1.369 . S
C1927 C1928 1.410 . S
C1927 C1935 1.503 . S
C1928 C1927 1.410 . S
C1928 C1929 1.392 . S
C1928 C1931 1.511 . S
C1929 C1925 1.376 . S
C1929 C1928 1.392 . S
C1929 H1941 0.929 . S
C1930 C1926 1.531 . S
C1930 H1942 0.960 . S
C1930 H1943 0.962 . S
C1930 H1944 0.960 . S
C1931 C1928 1.511 . S
C1931 H1945 0.961 . S
C1931 H1946 0.961 . S
C1931 H1947 0.961 . S
C1932 C1933 1.370 . S
C1932 C1934 1.363 . S
C1932 H1948 0.931 . S
C1933 C1932 1.370 . S
C1933 C1937 1.408 . S
C1934 C1932 1.363 . S
C1934 C1935 1.370 . S
C1934 C1938 1.524 . S
C1935 C1927 1.503 . S
C1935 C1934 1.370 . S
C1935 C1936 1.403 . S
C1936 C1935 1.403 . S
C1936 C1937 1.404 . S
C1936 C1939 1.539 . S
C1937 C1933 1.408 . S
C1937 C1936 1.404 . S
C1937 H1949 0.930 . S
C1938 C1934 1.524 . S
C1938 H1950 0.956 . S
C1938 H1951 0.961 . S
C1938 H1952 0.961 . S
C1939 C1936 1.539 . S
C1939 H1953 0.958 . S
C1939 H1954 0.961 . S
C1939 H1955 0.960 . S
H1940 C1924 0.931 . S
H1941 C1929 0.929 . S
H1942 C1930 0.960 . S
H1943 C1930 0.962 . S
H1944 C1930 0.960 . S
H1945 C1931 0.961 . S
H1946 C1931 0.961 . S
H1947 C1931 0.961 . S
H1948 C1932 0.931 . S
H1949 C1937 0.930 . S
H1950 C1938 0.956 . S
H1951 C1938 0.961 . S
H1952 C1938 0.961 . S
H1953 C1939 0.958 . S
H1954 C1939 0.961 . S
H1955 C1939 0.960 . S
C1956 C1957 1.391 . S
C1956 C1958 1.394 . S
C1956 H1972 0.931 . S
C1957 C1956 1.391 . S
C1957 C1961 1.376 . S
C1958 C1956 1.394 . S
C1958 C1959 1.369 . S
C1958 C1962 1.531 . S
C1959 C1958 1.369 . S
C1959 C1960 1.410 . S
C1959 C1967 1.503 . S
C1960 C1959 1.410 . S
C1960 C1961 1.392 . S
C1960 C1963 1.511 . S
C1961 C1957 1.376 . S
C1961 C1960 1.392 . S
C1961 H1973 0.929 . S
C1962 C1958 1.531 . S
C1962 H1974 0.960 . S
C1962 H1975 0.962 . S
C1962 H1976 0.960 . S
C1963 C1960 1.511 . S
C1963 H1977 0.961 . S
C1963 H1978 0.961 . S
C1963 H1979 0.961 . S
C1964 C1965 1.370 . S
C1964 C1966 1.363 . S
C1964 H1980 0.931 . S
C1965 C1964 1.370 . S
C1965 C1969 1.408 . S
C1966 C1964 1.363 . S
C1966 C1967 1.370 . S
C1966 C1970 1.524 . S
C1967 C1959 1.503 . S
C1967 C1966 1.370 . S
C1967 C1968 1.403 . S
C1968 C1967 1.403 . S
C1968 C1969 1.404 . S
C1968 C1971 1.539 . S
C1969 C1965 1.408 . S
C1969 C1968 1.404 . S
C1969 H1981 0.930 . S
C1970 C1966 1.524 . S
C1970 H1982 0.956 . S
C1970 H1983 0.961 . S
C1970 H1984 0.961 . S
C1971 C1968 1.539 . S
C1971 H1985 0.958 . S
C1971 H1986 0.961 . S
C1971 H1987 0.960 . S
H1972 C1956 0.931 . S
H1973 C1961 0.929 . S
H1974 C1962 0.960 . S
H1975 C1962 0.962 . S
H1976 C1962 0.960 . S
H1977 C1963 0.961 . S
H1978 C1963 0.961 . S
H1979 C1963 0.961 . S
H1980 C1964 0.931 . S
H1981 C1969 0.930 . S
H1982 C1970 0.956 . S
H1983 C1970 0.961 . S
H1984 C1970 0.961 . S
H1985 C1971 0.958 . S
H1986 C1971 0.961 . S
H1987 C1971 0.960 . S
C1988 C1989 1.391 . S
C1988 C1990 1.394 . S
C1988 H2004 0.931 . S
C1989 C1988 1.391 . S
C1989 C1993 1.376 . S
C1990 C1988 1.394 . S
C1990 C1991 1.369 . S
C1990 C1994 1.531 . S
C1991 C1990 1.369 . S
C1991 C1992 1.410 . S
C1991 C1999 1.503 . S
C1992 C1991 1.410 . S
C1992 C1993 1.392 . S
C1992 C1995 1.511 . S
C1993 C1989 1.376 . S
C1993 C1992 1.392 . S
C1993 H2005 0.929 . S
C1994 C1990 1.531 . S
C1994 H2006 0.960 . S
C1994 H2007 0.962 . S
C1994 H2008 0.960 . S
C1995 C1992 1.511 . S
C1995 H2009 0.961 . S
C1995 H2010 0.961 . S
C1995 H2011 0.961 . S
C1996 C1997 1.370 . S
C1996 C1998 1.363 . S
C1996 H2012 0.931 . S
C1997 C1996 1.370 . S
C1997 C2001 1.408 . S
C1998 C1996 1.363 . S
C1998 C1999 1.370 . S
C1998 C2002 1.524 . S
C1999 C1991 1.503 . S
C1999 C1998 1.370 . S
C1999 C2000 1.403 . S
C2000 C1999 1.403 . S
C2000 C2001 1.404 . S
C2000 C2003 1.539 . S
C2001 C1997 1.408 . S
C2001 C2000 1.404 . S
C2001 H2013 0.930 . S
C2002 C1998 1.524 . S
C2002 H2014 0.956 . S
C2002 H2015 0.961 . S
C2002 H2016 0.961 . S
C2003 C2000 1.539 . S
C2003 H2017 0.958 . S
C2003 H2018 0.961 . S
C2003 H2019 0.960 . S
H2004 C1988 0.931 . S
H2005 C1993 0.929 . S
H2006 C1994 0.960 . S
H2007 C1994 0.962 . S
H2008 C1994 0.960 . S
H2009 C1995 0.961 . S
H2010 C1995 0.961 . S
H2011 C1995 0.961 . S
H2012 C1996 0.931 . S
H2013 C2001 0.930 . S
H2014 C2002 0.956 . S
H2015 C2002 0.961 . S
H2016 C2002 0.961 . S
H2017 C2003 0.958 . S
H2018 C2003 0.961 . S
H2019 C2003 0.960 . S
C2020 C2021 1.391 . S
C2020 C2022 1.394 . S
C2020 H2036 0.931 . S
C2021 C2020 1.391 . S
C2021 C2025 1.376 . S
C2022 C2020 1.394 . S
C2022 C2023 1.369 . S
C2022 C2026 1.531 . S
C2023 C2022 1.369 . S
C2023 C2024 1.410 . S
C2023 C2031 1.503 . S
C2024 C2023 1.410 . S
C2024 C2025 1.392 . S
C2024 C2027 1.511 . S
C2025 C2021 1.376 . S
C2025 C2024 1.392 . S
C2025 H2037 0.929 . S
C2026 C2022 1.531 . S
C2026 H2038 0.960 . S
C2026 H2039 0.962 . S
C2026 H2040 0.960 . S
C2027 C2024 1.511 . S
C2027 H2041 0.961 . S
C2027 H2042 0.961 . S
C2027 H2043 0.961 . S
C2028 C2029 1.370 . S
C2028 C2030 1.363 . S
C2028 H2044 0.931 . S
C2029 C2028 1.370 . S
C2029 C2033 1.408 . S
C2030 C2028 1.363 . S
C2030 C2031 1.370 . S
C2030 C2034 1.524 . S
C2031 C2023 1.503 . S
C2031 C2030 1.370 . S
C2031 C2032 1.403 . S
C2032 C2031 1.403 . S
C2032 C2033 1.404 . S
C2032 C2035 1.539 . S
C2033 C2029 1.408 . S
C2033 C2032 1.404 . S
C2033 H2045 0.930 . S
C2034 C2030 1.524 . S
C2034 H2046 0.956 . S
C2034 H2047 0.961 . S
C2034 H2048 0.961 . S
C2035 C2032 1.539 . S
C2035 H2049 0.958 . S
C2035 H2050 0.961 . S
C2035 H2051 0.960 . S
H2036 C2020 0.931 . S
H2037 C2025 0.929 . S
H2038 C2026 0.960 . S
H2039 C2026 0.962 . S
H2040 C2026 0.960 . S
H2041 C2027 0.961 . S
H2042 C2027 0.961 . S
H2043 C2027 0.961 . S
H2044 C2028 0.931 . S
H2045 C2033 0.930 . S
H2046 C2034 0.956 . S
H2047 C2034 0.961 . S
H2048 C2034 0.961 . S
H2049 C2035 0.958 . S
H2050 C2035 0.961 . S
H2051 C2035 0.960 . S
C2052 C2053 1.391 . S
C2052 C2054 1.394 . S
C2052 H2068 0.931 . S
C2053 C2052 1.391 . S
C2053 C2057 1.376 . S
C2054 C2052 1.394 . S
C2054 C2055 1.369 . S
C2054 C2058 1.531 . S
C2055 C2054 1.369 . S
C2055 C2056 1.410 . S
C2055 C2063 1.503 . S
C2056 C2055 1.410 . S
C2056 C2057 1.392 . S
C2056 C2059 1.511 . S
C2057 C2053 1.376 . S
C2057 C2056 1.392 . S
C2057 H2069 0.929 . S
C2058 C2054 1.531 . S
C2058 H2070 0.960 . S
C2058 H2071 0.962 . S
C2058 H2072 0.960 . S
C2059 C2056 1.511 . S
C2059 H2073 0.961 . S
C2059 H2074 0.961 . S
C2059 H2075 0.961 . S
C2060 C2061 1.370 . S
C2060 C2062 1.363 . S
C2060 H2076 0.931 . S
C2061 C2060 1.370 . S
C2061 C2065 1.408 . S
C2062 C2060 1.363 . S
C2062 C2063 1.370 . S
C2062 C2066 1.524 . S
C2063 C2055 1.503 . S
C2063 C2062 1.370 . S
C2063 C2064 1.403 . S
C2064 C2063 1.403 . S
C2064 C2065 1.404 . S
C2064 C2067 1.539 . S
C2065 C2061 1.408 . S
C2065 C2064 1.404 . S
C2065 H2077 0.930 . S
C2066 C2062 1.524 . S
C2066 H2078 0.956 . S
C2066 H2079 0.961 . S
C2066 H2080 0.961 . S
C2067 C2064 1.539 . S
C2067 H2081 0.958 . S
C2067 H2082 0.961 . S
C2067 H2083 0.960 . S
H2068 C2052 0.931 . S
H2069 C2057 0.929 . S
H2070 C2058 0.960 . S
H2071 C2058 0.962 . S
H2072 C2058 0.960 . S
H2073 C2059 0.961 . S
H2074 C2059 0.961 . S
H2075 C2059 0.961 . S
H2076 C2060 0.931 . S
H2077 C2065 0.930 . S
H2078 C2066 0.956 . S
H2079 C2066 0.961 . S
H2080 C2066 0.961 . S
H2081 C2067 0.958 . S
H2082 C2067 0.961 . S
H2083 C2067 0.960 . S
C2084 C2085 1.391 . S
C2084 C2086 1.394 . S
C2084 H2100 0.931 . S
C2085 C2084 1.391 . S
C2085 C2089 1.376 . S
C2086 C2084 1.394 . S
C2086 C2087 1.369 . S
C2086 C2090 1.531 . S
C2087 C2086 1.369 . S
C2087 C2088 1.410 . S
C2087 C2095 1.503 . S
C2088 C2087 1.410 . S
C2088 C2089 1.392 . S
C2088 C2091 1.511 . S
C2089 C2085 1.376 . S
C2089 C2088 1.392 . S
C2089 H2101 0.929 . S
C2090 C2086 1.531 . S
C2090 H2102 0.960 . S
C2090 H2103 0.962 . S
C2090 H2104 0.960 . S
C2091 C2088 1.511 . S
C2091 H2105 0.961 . S
C2091 H2106 0.961 . S
C2091 H2107 0.961 . S
C2092 C2093 1.370 . S
C2092 C2094 1.363 . S
C2092 H2108 0.931 . S
C2093 C2092 1.370 . S
C2093 C2097 1.408 . S
C2094 C2092 1.363 . S
C2094 C2095 1.370 . S
C2094 C2098 1.524 . S
C2095 C2087 1.503 . S
C2095 C2094 1.370 . S
C2095 C2096 1.403 . S
C2096 C2095 1.403 . S
C2096 C2097 1.404 . S
C2096 C2099 1.539 . S
C2097 C2093 1.408 . S
C2097 C2096 1.404 . S
C2097 H2109 0.930 . S
C2098 C2094 1.524 . S
C2098 H2110 0.956 . S
C2098 H2111 0.961 . S
C2098 H2112 0.961 . S
C2099 C2096 1.539 . S
C2099 H2113 0.958 . S
C2099 H2114 0.961 . S
C2099 H2115 0.960 . S
H2100 C2084 0.931 . S
H2101 C2089 0.929 . S
H2102 C2090 0.960 . S
H2103 C2090 0.962 . S
H2104 C2090 0.960 . S
H2105 C2091 0.961 . S
H2106 C2091 0.961 . S
H2107 C2091 0.961 . S
H2108 C2092 0.931 . S
H2109 C2097 0.930 . S
H2110 C2098 0.956 . S
H2111 C2098 0.961 . S
H2112 C2098 0.961 . S
H2113 C2099 0.958 . S
H2114 C2099 0.961 . S
H2115 C2099 0.960 . S
C2116 C2117 1.391 . S
C2116 C2118 1.394 . S
C2116 H2132 0.931 . S
C2117 C2116 1.391 . S
C2117 C2121 1.376 . S
C2118 C2116 1.394 . S
C2118 C2119 1.369 . S
C2118 C2122 1.531 . S
C2119 C2118 1.369 . S
C2119 C2120 1.410 . S
C2119 C2127 1.503 . S
C2120 C2119 1.410 . S
C2120 C2121 1.392 . S
C2120 C2123 1.511 . S
C2121 C2117 1.376 . S
C2121 C2120 1.392 . S
C2121 H2133 0.929 . S
C2122 C2118 1.531 . S
C2122 H2134 0.960 . S
C2122 H2135 0.962 . S
C2122 H2136 0.960 . S
C2123 C2120 1.511 . S
C2123 H2137 0.961 . S
C2123 H2138 0.961 . S
C2123 H2139 0.961 . S
C2124 C2125 1.370 . S
C2124 C2126 1.363 . S
C2124 H2140 0.931 . S
C2125 C2124 1.370 . S
C2125 C2129 1.408 . S
C2126 C2124 1.363 . S
C2126 C2127 1.370 . S
C2126 C2130 1.524 . S
C2127 C2119 1.503 . S
C2127 C2126 1.370 . S
C2127 C2128 1.403 . S
C2128 C2127 1.403 . S
C2128 C2129 1.404 . S
C2128 C2131 1.539 . S
C2129 C2125 1.408 . S
C2129 C2128 1.404 . S
C2129 H2141 0.930 . S
C2130 C2126 1.524 . S
C2130 H2142 0.956 . S
C2130 H2143 0.961 . S
C2130 H2144 0.961 . S
C2131 C2128 1.539 . S
C2131 H2145 0.958 . S
C2131 H2146 0.961 . S
C2131 H2147 0.960 . S
H2132 C2116 0.931 . S
H2133 C2121 0.929 . S
H2134 C2122 0.960 . S
H2135 C2122 0.962 . S
H2136 C2122 0.960 . S
H2137 C2123 0.961 . S
H2138 C2123 0.961 . S
H2139 C2123 0.961 . S
H2140 C2124 0.931 . S
H2141 C2129 0.930 . S
H2142 C2130 0.956 . S
H2143 C2130 0.961 . S
H2144 C2130 0.961 . S
H2145 C2131 0.958 . S
H2146 C2131 0.961 . S
H2147 C2131 0.960 . S
C2148 C2149 1.391 . S
C2148 C2150 1.394 . S
C2148 H2164 0.931 . S
C2149 C2148 1.391 . S
C2149 C2153 1.376 . S
C2150 C2148 1.394 . S
C2150 C2151 1.369 . S
C2150 C2154 1.531 . S
C2151 C2150 1.369 . S
C2151 C2152 1.410 . S
C2151 C2159 1.503 . S
C2152 C2151 1.410 . S
C2152 C2153 1.392 . S
C2152 C2155 1.511 . S
C2153 C2149 1.376 . S
C2153 C2152 1.392 . S
C2153 H2165 0.929 . S
C2154 C2150 1.531 . S
C2154 H2166 0.960 . S
C2154 H2167 0.962 . S
C2154 H2168 0.960 . S
C2155 C2152 1.511 . S
C2155 H2169 0.961 . S
C2155 H2170 0.961 . S
C2155 H2171 0.961 . S
C2156 C2157 1.370 . S
C2156 C2158 1.363 . S
C2156 H2172 0.931 . S
C2157 C2156 1.370 . S
C2157 C2161 1.408 . S
C2158 C2156 1.363 . S
C2158 C2159 1.370 . S
C2158 C2162 1.524 . S
C2159 C2151 1.503 . S
C2159 C2158 1.370 . S
C2159 C2160 1.403 . S
C2160 C2159 1.403 . S
C2160 C2161 1.404 . S
C2160 C2163 1.539 . S
C2161 C2157 1.408 . S
C2161 C2160 1.404 . S
C2161 H2173 0.930 . S
C2162 C2158 1.524 . S
C2162 H2174 0.956 . S
C2162 H2175 0.961 . S
C2162 H2176 0.961 . S
C2163 C2160 1.539 . S
C2163 H2177 0.958 . S
C2163 H2178 0.961 . S
C2163 H2179 0.960 . S
H2164 C2148 0.931 . S
H2165 C2153 0.929 . S
H2166 C2154 0.960 . S
H2167 C2154 0.962 . S
H2168 C2154 0.960 . S
H2169 C2155 0.961 . S
H2170 C2155 0.961 . S
H2171 C2155 0.961 . S
H2172 C2156 0.931 . S
H2173 C2161 0.930 . S
H2174 C2162 0.956 . S
H2175 C2162 0.961 . S
H2176 C2162 0.961 . S
H2177 C2163 0.958 . S
H2178 C2163 0.961 . S
H2179 C2163 0.960 . S
C653 C355 1.287 . S
C645 C2 1.236 . S
C685 C333 0.537 . S
C677 C65 0.583 . S
C717 C330 0.855 . S
C709 C82 0.854 . S
C741 C145 1.036 . S
C749 C342 0.970 . S
C773 C164 0.271 . S
C781 C325 0.370 . S
C813 C347 0.810 . S
C805 C223 0.829 . S
C837 C244 1.270 . S
C845 C352 1.259 . S
C869 C282 1.260 . S
C877 C348 1.273 . S
C909 C406 3.456 . S
C901 C31 3.470 . S
C933 C60 1.548 . S
C941 C456 1.563 . S
C973 C379 3.625 . S
C965 C111 3.616 . S
C1005 C455 1.032 . S
C997 C140 1.029 . S
C1029 C162 1.068 . S
C1037 C384 1.043 . S
C1069 C450 1.534 . S
C1061 C225 1.497 . S
C1093 C242 1.587 . S
C1101 C409 1.629 . S
C1125 C311 2.614 . S
C1133 C441 2.624 . S
C1157 C4 1.243 . S
C1165 C433 1.205 . S
C1189 C191 1.031 . S
C1197 C463 1.009 . S
C1229 C387 3.075 1_556 S
C1221 C220 3.097 . S
C1261 C438 0.643 . S
C1253 C271 0.703 . S
C1285 C284 1.825 . S
C1293 C396 1.780 . S
C1317 C84 1.055 . S
C1325 C460 1.092 . S
C1357 C402 1.037 . S
C1349 C143 1.003 . S
C1381 C63 0.642 . S
C1389 C401 0.688 . S
C1413 C303 1.259 . S
C1421 C517 1.272 . S
C1445 C185 0.340 . S
C1453 C495 0.342 . S
C1485 C492 0.784 . S
C1477 C202 0.775 . S
C1517 C504 1.229 . S
C1509 C265 1.291 . S
C1541 C44 0.491 . S
C1549 C487 0.598 . S
C1581 C509 0.852 . S
C1573 C103 0.833 . S
C1605 C124 1.008 . S
C1613 C514 0.998 . S
C1637 C23 1.247 . S
C1645 C510 1.281 . S
C1669 C305 1.794 . S
C1677 C568 1.789 . S
C1709 C618 0.996 . S
C1701 C180 1.034 . S
C1733 C231 3.083 . S
C1741 C541 3.057 . S
C1765 C260 0.704 . S
C1773 C617 0.648 . S
C1805 C546 0.686 . S
C1797 C42 0.743 . S
C1829 C105 1.053 . S
C1837 C612 1.080 . S
C1869 C571 1.029 . S
C1861 C122 1.038 . S
C1901 C603 1.185 . S
C1893 C25 1.197 . S
C1933 C595 2.627 . S
C1925 C300 2.640 . S
C1957 C71 1.563 . S
C1965 C625 1.574 . S
C1989 C100 3.630 . S
C1997 C549 3.640 . S
C2029 C600 1.045 . S
C2021 C151 1.057 . S
C2053 C20 3.482 . S
C2061 C558 3.448 . S
C2085 C204 1.569 . S
C2093 C622 1.546 . S
C2125 C564 1.631 . S
C2117 C263 1.627 . S
C2157 C563 1.046 . S
C2149 C183 1.027 . S
