# Generated by pormake.
# Topology ocu, (6,8)-cn, num edge types: 1
# Building blocks:
#     Node 0, Type 0, BuildingBlock: KUMBUR_clean_sbu_0, # of connection points: 6
#     Node 1, Type 0, BuildingBlock: KUMBUR_clean_sbu_0, # of connection points: 6
#     Node 2, Type 0, BuildingBlock: KUMBUR_clean_sbu_0, # of connection points: 6
#     Node 3, Type 0, BuildingBlock: KUMBUR_clean_sbu_0, # of connection points: 6
#     Node 4, Type 0, BuildingBlock: KUMBUR_clean_sbu_0, # of connection points: 6
#     Node 5, Type 0, BuildingBlock: KUMBUR_clean_sbu_0, # of connection points: 6
#     Node 6, Type 0, BuildingBlock: KUMBUR_clean_sbu_0, # of connection points: 6
#     Node 7, Type 0, BuildingBlock: KUMBUR_clean_sbu_0, # of connection points: 6
#     Node 8, Type 1, BuildingBlock: TAGTUT_clean_sbu_1, # of connection points: 8
#     Node 9, Type 1, BuildingBlock: TAGTUT_clean_sbu_1, # of connection points: 8
#     Node 10, Type 1, BuildingBlock: TAGTUT_clean_sbu_1, # of connection points: 8
#     Node 11, Type 1, BuildingBlock: TAGTUT_clean_sbu_1, # of connection points: 8
#     Node 12, Type 1, BuildingBlock: TAGTUT_clean_sbu_1, # of connection points: 8
#     Node 13, Type 1, BuildingBlock: TAGTUT_clean_sbu_1, # of connection points: 8
#     Edge 14, Type (0, 1), None
#     Edge 15, Type (0, 1), None
#     Edge 16, Type (0, 1), None
#     Edge 17, Type (0, 1), None
#     Edge 18, Type (0, 1), None
#     Edge 19, Type (0, 1), None
#     Edge 20, Type (0, 1), None
#     Edge 21, Type (0, 1), None
#     Edge 22, Type (0, 1), None
#     Edge 23, Type (0, 1), None
#     Edge 24, Type (0, 1), None
#     Edge 25, Type (0, 1), None
#     Edge 26, Type (0, 1), None
#     Edge 27, Type (0, 1), None
#     Edge 28, Type (0, 1), None
#     Edge 29, Type (0, 1), None
#     Edge 30, Type (0, 1), None
#     Edge 31, Type (0, 1), None
#     Edge 32, Type (0, 1), None
#     Edge 33, Type (0, 1), None
#     Edge 34, Type (0, 1), None
#     Edge 35, Type (0, 1), None
#     Edge 36, Type (0, 1), None
#     Edge 37, Type (0, 1), None
#     Edge 38, Type (0, 1), None
#     Edge 39, Type (0, 1), None
#     Edge 40, Type (0, 1), None
#     Edge 41, Type (0, 1), None
#     Edge 42, Type (0, 1), None
#     Edge 43, Type (0, 1), None
#     Edge 44, Type (0, 1), None
#     Edge 45, Type (0, 1), None
#     Edge 46, Type (0, 1), None
#     Edge 47, Type (0, 1), None
#     Edge 48, Type (0, 1), None
#     Edge 49, Type (0, 1), None
#     Edge 50, Type (0, 1), None
#     Edge 51, Type (0, 1), None
#     Edge 52, Type (0, 1), None
#     Edge 53, Type (0, 1), None
#     Edge 54, Type (0, 1), None
#     Edge 55, Type (0, 1), None
#     Edge 56, Type (0, 1), None
#     Edge 57, Type (0, 1), None
#     Edge 58, Type (0, 1), None
#     Edge 59, Type (0, 1), None
#     Edge 60, Type (0, 1), None
#     Edge 61, Type (0, 1), None
# Relax obj value: 0.213
# Max RMSD: 0.265
# Mean RMSD: 0.170
data_MOF--net-ocu--node1-KUMBUR_clean_sbu_0--node2-TAGTUT_clean_sbu_1--edge1-none
_symmetry_space_group_name_H-M    P1
_symmetry_Int_Tables_number       1
_symmetry_cell_setting            triclinic
loop_
_symmetry_equiv_pos_as_xyz
'x, y, z'
_cell_length_a     24.990885
_cell_length_b     22.298722
_cell_length_c     21.501741
_cell_angle_alpha  70.406156
_cell_angle_beta   106.32546
_cell_angle_gamma 126.16033
loop_
_atom_site_label
_atom_site_type_symbol
_atom_site_fract_x
_atom_site_fract_y
_atom_site_fract_z
_atom_type_partial_charge
Tb0 Tb 0.18743 0.12005 0.27728 0.0
C1 C 0.34803 0.41899 0.35407 0.0
C2 C 0.36943 0.39456 0.47267 0.0
C3 C 0.4283 0.52408 0.4088 0.0
C4 C 0.33317 0.36933 0.41387 0.0
C5 C 0.39733 0.49684 0.35032 0.0
C6 C 0.4145 0.47276 0.46995 0.0
C7 C 0.38697 0.51224 0.23268 0.0
N8 N 0.3153 0.39052 0.29899 0.0
C9 C 0.33256 0.43809 0.23772 0.0
C10 C 0.41469 0.54388 0.28807 0.0
Tb11 Tb 0.22571 0.26586 0.3151 0.0
N12 N 0.28808 0.29493 0.41396 0.0
C13 C 0.28551 0.24245 0.47025 0.0
C14 C 0.36118 0.34005 0.53172 0.0
C15 C 0.32337 0.26418 0.52918 0.0
H16 H 0.30598 0.41822 0.19277 0.0
H17 H 0.32074 0.2219 0.57342 0.0
H18 H 0.44175 0.49401 0.51428 0.0
H19 H 0.40807 0.54354 0.18648 0.0
H20 H 0.25321 0.18343 0.47139 0.0
H21 H 0.17454 0.2417 1.01284 0.0
H22 H 0.38959 0.35558 0.578 0.0
H23 H 0.10247 -0.06148 0.35746 0.0
H24 H 0.23432 0.21775 0.1151 0.0
H25 H 0.01313 0.82 0.31919 0.0
H26 H 0.46358 0.58378 0.40781 0.0
H27 H 0.05627 0.14358 0.99695 0.0
H28 H -0.04077 0.0299 1.03547 0.0
H29 H 0.45123 0.60333 0.28238 0.0
H30 H 0.92928 0.90162 0.11326 0.0
N31 N 0.14763 0.13428 0.16869 0.0
C32 C 0.18159 0.18749 0.11506 0.0
C33 C 0.0798 0.14808 0.046 0.0
C34 C 0.04746 0.08732 0.09713 0.0
C35 C 0.14756 0.19988 0.05473 0.0
C36 C 0.08267 0.08178 0.15931 0.0
H37 H -0.05071 0.82565 0.21008 0.0
N38 N 0.0918 0.00995 0.26587 0.0
C39 C 0.02655 0.874 0.28713 0.0
C40 C 0.05709 0.01379 0.20603 0.0
C41 C 0.07549 -0.05873 0.30862 0.0
C42 C -0.00985 0.87707 0.22579 0.0
C43 C 0.00516 -0.05259 0.18563 0.0
O44 O 0.20586 0.03321 0.30618 0.0
O45 O 0.26487 0.18766 0.34629 0.0
O46 O 0.31741 0.30782 0.27781 0.0
O47 O 0.26789 0.21741 0.22108 0.0
O48 O 0.19935 0.07381 0.38184 0.0
O49 O 0.25243 0.12817 0.22649 0.0
O50 O 0.19945 0.34305 0.26187 0.0
O51 O 0.14333 0.19046 0.25194 0.0
O52 O 0.10329 0.07212 0.33292 0.0
O53 O 0.15652 0.16717 0.38889 0.0
O54 O 0.20511 0.29293 0.20545 0.0
O55 O 0.16179 0.27473 0.35433 0.0
C56 C 0.25726 0.12963 0.39637 0.0
C57 C 0.22815 0.01395 0.21923 0.0
C58 C 0.27865 -0.0511 0.13355 0.0
C59 C 0.28652 0.0213 0.20144 0.0
C60 C 0.20676 0.89141 0.11446 0.0
C61 C 0.15755 -0.03945 0.19644 0.0
C62 C 0.13372 0.90494 0.15504 0.0
C63 C 0.31673 0.28493 0.22903 0.0
C64 C 0.24301 0.0632 0.25952 0.0
C65 C -0.02901 -0.0469 0.12452 0.0
C66 C -0.01236 0.02399 0.08254 0.0
C67 C 0.14376 0.23935 0.19616 0.0
C68 C 0.16678 0.39136 0.31074 0.0
C69 C 0.11205 0.37598 0.34389 0.0
C70 C 0.1312 0.42113 0.44276 0.0
C71 C 0.20653 0.47443 0.4599 0.0
C72 C 0.23769 0.44921 0.32345 0.0
C73 C 0.26763 0.48669 0.38047 0.0
C74 C 0.10558 0.0974 0.38172 0.0
C75 C 0.15975 0.32482 0.30165 0.0
H76 H 0.33066 0.06703 0.22489 0.0
H77 H 0.19531 0.84905 0.08955 0.0
H78 H 0.12079 -0.03909 0.20869 0.0
H79 H 0.07922 0.87158 0.15273 0.0
H80 H 0.06666 0.33354 0.31951 0.0
H81 H 0.22317 0.49965 0.50305 0.0
H82 H 0.27003 0.46777 0.28799 0.0
H83 H 0.32051 0.52516 0.37365 0.0
Tb84 Tb 0.72529 0.13629 0.30622 0.0
C85 C 0.56609 0.23985 0.3479 0.0
C86 C 0.45522 0.14411 0.32069 0.0
C87 C 0.47501 0.24411 0.3611 0.0
C88 C 0.52403 0.18444 0.31452 0.0
C89 C 0.54241 0.26869 0.37456 0.0
C90 C 0.43034 0.18042 0.3334 0.0
C91 C 0.64644 0.32378 0.44064 0.0
N92 N 0.62866 0.25538 0.36383 0.0
C93 C 0.66553 0.28823 0.41717 0.0
C94 C 0.58665 0.31842 0.41559 0.0
Tb95 Tb 0.66817 0.23942 0.28757 0.0
N96 N 0.55227 0.15352 0.30301 0.0
C97 C 0.5162 0.07527 0.31814 0.0
C98 C 0.42021 0.06556 0.33687 0.0
C99 C 0.45418 0.032 0.34368 0.0
H100 H 0.71217 0.29368 0.4374 0.0
H101 H 0.43065 -0.02826 0.36471 0.0
H102 H 0.3773 0.15377 0.33164 0.0
H103 H 0.6782 0.35801 0.47555 0.0
H104 H 0.53447 0.04389 0.31348 0.0
H105 H -0.04556 0.41574 0.22909 0.0
H106 H 0.37033 0.03115 0.35179 0.0
H107 H 0.673 0.08099 0.15276 0.0
H108 H 0.85469 0.33541 0.28831 0.0
H109 H 0.70549 0.01473 0.11562 0.0
H110 H 0.45621 0.26782 0.37828 0.0
H111 H 0.01379 0.36273 0.22196 0.0
H112 H 0.01147 0.24352 0.23614 0.0
H113 H 0.57434 0.35107 0.4288 0.0
H114 H 0.93301 0.12278 0.1975 0.0
N115 N 0.83802 0.22999 0.28449 0.0
C116 C 0.87374 0.3079 0.27718 0.0
C117 C -0.03411 0.32518 0.2414 0.0
C118 C 0.93293 0.24683 0.25387 0.0
C119 C 0.93317 0.35545 0.24707 0.0
C120 C 0.86566 0.20305 0.26545 0.0
H121 H 0.80998 0.02163 0.16698 0.0
N122 N 0.75884 0.12304 0.22409 0.0
C123 C 0.73837 0.05055 0.15001 0.0
C124 C 0.82274 0.14365 0.23606 0.0
C125 C 0.72005 0.08742 0.17246 0.0
C126 C 0.79913 0.05795 0.17508 0.0
C127 C 0.84576 0.11417 0.20988 0.0
O128 O 0.69029 0.02851 0.29452 0.0
O129 O 0.64401 0.12687 0.33777 0.0
O130 O 0.75432 0.26731 0.37406 0.0
O131 O 0.80032 0.20035 0.38218 0.0
O132 O 0.69984 0.09794 0.40929 0.0
O133 O 0.73406 0.05874 0.38881 0.0
O134 O 0.71433 0.34963 0.30362 0.0
O135 O 0.74753 0.24717 0.25392 0.0
O136 O 0.63588 0.09928 0.22549 0.0
O137 O 0.59611 0.17488 0.20902 0.0
O138 O 0.6904 0.27476 0.18295 0.0
O139 O 0.67313 0.32624 0.20688 0.0
C140 C 0.6474 0.09869 0.40132 0.0
C141 C 0.77066 0.00417 0.35297 0.0
C142 C 0.88799 0.05401 0.37474 0.0
C143 C 0.83521 0.05682 0.37699 0.0
C144 C 0.87728 0.00171 0.3441 0.0
C145 C 0.75983 -0.04745 0.32087 0.0
C146 C 0.81388 -0.04741 0.31507 0.0
C147 C 0.79909 0.24809 0.40478 0.0
C148 C 0.7183 0.01333 0.35261 0.0
C149 C 0.91424 0.14506 0.21653 0.0
C150 C -0.04134 0.2133 0.2381 0.0
C151 C 0.7428 0.27365 0.18991 0.0
C152 C 0.63946 0.3839 0.24226 0.0
C153 C 0.57603 0.3362 0.21286 0.0
C154 C 0.52256 0.33663 0.21719 0.0
C155 C 0.53284 0.39038 0.24561 0.0
C156 C 0.64804 0.43047 0.27888 0.0
C157 C 0.5939 0.43324 0.28046 0.0
C158 C 0.59546 0.123 0.19009 0.0
C159 C 0.68999 0.37012 0.24507 0.0
H160 H 0.84471 0.0977 0.40198 0.0
H161 H 0.91786 -0.00317 0.34795 0.0
H162 H 0.71055 0.91514 0.29855 0.0
H163 H 0.80602 0.91364 0.2895 0.0
H164 H 0.56679 0.29676 0.18638 0.0
H165 H 0.49444 0.40028 0.23904 0.0
H166 H 0.69522 0.4612 0.30758 0.0
H167 H 0.5972 0.4659 0.30973 0.0
Tb168 Tb 0.63653 0.67434 0.33175 0.0
C169 C 0.86097 0.85198 0.25892 0.0
C170 C 0.84739 0.9174 0.14947 0.0
C171 C 0.92793 -0.0108 0.2323 0.0
C172 C 0.82433 0.8512 0.19861 0.0
C173 C 0.91373 0.92022 0.27675 0.0
C174 C 0.89465 -0.01207 0.16793 0.0
C175 C -0.05701 0.84757 0.37448 0.0
N176 N 0.84979 0.78479 0.29639 0.0
C177 C 0.89434 0.78211 0.35028 0.0
C178 C -0.04788 0.91663 0.33715 0.0
Tb179 Tb 0.74491 0.68488 0.27129 0.0
N180 N 0.77488 0.78308 0.18448 0.0
C181 C 0.75157 0.77489 0.12098 0.0
C182 C 0.83223 0.90797 0.08415 0.0
C183 C 0.78368 0.83615 0.06975 0.0
H184 H 0.88443 0.7278 0.37986 0.0
H185 H 0.76737 0.82948 1.01916 0.0
H186 H 0.91261 0.04105 0.13149 0.0
H187 H -0.02561 0.84532 0.42032 0.0
H188 H 0.71066 0.72092 0.10997 0.0
H189 H 0.73083 0.68379 0.58846 0.0
H190 H 0.85478 -0.04414 0.04412 0.0
H191 H 0.4999 0.5105 0.2634 0.0
H192 H 0.71273 0.73922 0.47444 0.0
H193 H 0.43351 0.37857 0.30695 0.0
H194 H -0.03081 0.04287 0.24487 0.0
H195 H 0.63355 0.55874 0.6302 0.0
H196 H 0.52516 0.44069 0.60905 0.0
H197 H -0.00843 -0.03253 0.35268 0.0
H198 H 0.46658 0.35112 0.53588 0.0
N199 N 0.64605 0.63287 0.44388 0.0
C200 C 0.68839 0.6788 0.48796 0.0
C201 C 0.63747 0.57819 0.5784 0.0
C202 C 0.58808 0.53403 0.53485 0.0
C203 C 0.69188 0.64856 0.55496 0.0
C204 C 0.59701 0.5605 0.46705 0.0
H205 H 0.43214 0.32633 0.42577 0.0
N206 N 0.55768 0.5423 0.35699 0.0
C207 C 0.46857 0.41557 0.34003 0.0
C208 C 0.55433 0.51335 0.42335 0.0
C209 C 0.51064 0.49345 0.31557 0.0
C210 C 0.46797 0.38612 0.40712 0.0
C211 C 0.50798 0.43575 0.44919 0.0
O212 O 0.5917 0.68711 0.39287 0.0
O213 O 0.66913 0.7221 0.23337 0.0
O214 O 0.77753 0.72404 0.36703 0.0
O215 O 0.72583 0.77797 0.36422 0.0
O216 O 0.68438 0.79481 0.28257 0.0
O217 O 0.56161 0.69957 0.29112 0.0
O218 O 0.73368 0.60169 0.23172 0.0
O219 O 0.7154 0.63977 0.3706 0.0
O220 O 0.58873 0.6234 0.23854 0.0
O221 O 0.66349 0.61804 0.20327 0.0
O222 O 0.70152 0.56784 0.32481 0.0
O223 O 0.8279 0.68248 0.27205 0.0
C224 C 0.67359 0.78697 0.22276 0.0
C225 C 0.56245 0.77932 0.34769 0.0
C226 C 0.56903 0.85605 0.41579 0.0
C227 C 0.56424 0.7913 0.4089 0.0
C228 C 0.56562 0.906 0.35705 0.0
C229 C 0.55685 0.82977 0.29049 0.0
C230 C 0.55856 0.89224 0.29513 0.0
C231 C 0.77956 0.77729 0.38434 0.0
C232 C 0.55824 0.70901 0.3456 0.0
C233 C 0.50014 0.41021 0.51641 0.0
C234 C 0.5351 0.46097 0.55801 0.0
C235 C 0.7134 0.57572 0.38374 0.0
C236 C 0.82873 0.61794 0.20357 0.0
C237 C 0.79558 0.56239 0.16361 0.0
C238 C 0.82729 0.57281 0.11164 0.0
C239 C 0.8893 0.64291 0.09899 0.0
C240 C 0.89565 0.67593 0.19705 0.0
C241 C 0.92358 0.69172 0.14231 0.0
C242 C 0.60261 0.59797 0.19981 0.0
C243 C 0.79517 0.62212 0.24801 0.0
H244 H 0.5551 0.74498 0.44962 0.0
H245 H 0.56411 -0.04714 0.3587 0.0
H246 H 0.54813 0.81937 0.24228 0.0
H247 H 0.55314 0.9298 0.25026 0.0
H248 H 0.74599 0.51314 0.17192 0.0
H249 H 0.91585 0.65969 0.05883 0.0
H250 H 0.92516 0.71241 0.23198 0.0
H251 H -0.02802 0.74297 0.13297 0.0
Tb252 Tb 0.21616 0.64435 0.29022 0.0
C253 C 0.21701 0.89603 0.21691 0.0
C254 C 0.36878 -0.00415 0.21475 0.0
C255 C 0.30692 0.07575 0.09064 0.0
C256 C 0.29478 0.9145 0.24978 0.0
C257 C 0.22249 0.00297 0.10414 0.0
C258 C 0.37546 0.07254 0.14374 0.0
C259 C 0.09851 0.84988 0.06417 0.0
N260 N 0.15567 0.81242 0.20739 0.0
C261 C 0.10008 0.787 0.14206 0.0
C262 C 0.15707 -0.0475 0.04395 0.0
Tb263 Tb 0.17918 0.74253 0.29451 0.0
N264 N 0.29316 0.85088 0.2837 0.0
C265 C 0.35275 0.8551 0.29745 0.0
C266 C 0.41817 -0.01766 0.22768 0.0
C267 C 0.41062 0.91511 0.2677 0.0
H268 H 0.05824 0.72896 0.14506 0.0
H269 H 0.45211 0.90911 0.27677 0.0
H270 H 0.42467 0.11821 0.12991 0.0
H271 H 0.05718 0.82164 1.02994 0.0
H272 H 0.35662 0.80778 0.32516 0.0
H273 H -0.05621 0.47026 0.328 0.0
H274 H 0.46336 0.02461 0.20613 0.0
H275 H 0.34845 0.64653 0.42903 0.0
H276 H 0.03319 0.57587 0.26873 0.0
H277 H 0.36923 0.53596 0.50263 0.0
H278 H 0.31703 0.12362 0.0498 0.0
H279 H -0.05761 0.35626 0.39252 0.0
H280 H -0.01911 0.26087 0.43065 0.0
H281 H 0.15602 -0.01979 0.99368 0.0
H282 H 0.07885 0.24539 0.48488 0.0
N283 N 0.102 0.53953 0.30526 0.0
C284 C 0.04053 0.53063 0.29558 0.0
C285 C -0.01518 0.40231 0.36741 0.0
C286 C 0.03437 0.39302 0.36665 0.0
C287 C -0.01332 0.46821 0.33092 0.0
C288 C 0.10386 0.47856 0.33513 0.0
H289 H 0.2798 0.37851 0.51683 0.0
N290 N 0.24344 0.57401 0.37097 0.0
C291 C 0.31899 0.51501 0.4839 0.0
C292 C 0.18083 0.49638 0.35206 0.0
C293 C 0.30711 0.58853 0.42811 0.0
C294 C 0.26263 0.41369 0.48687 0.0
C295 C 0.18494 0.3754 0.43184 0.0
O296 O 0.29144 0.6299 0.29286 0.0
O297 O 0.21762 0.741 0.21435 0.0
O298 O 0.11631 0.67792 0.20618 0.0
O299 O 0.13966 0.59285 0.21363 0.0
O300 O 0.30269 0.7416 0.24033 0.0
O301 O 0.20324 0.58172 0.22438 0.0
O302 O 0.10431 0.76231 0.28078 0.0
O303 O 0.17716 0.64421 0.36987 0.0
O304 O 0.27477 0.69589 0.38631 0.0
O305 O 0.25461 0.78571 0.37575 0.0
O306 O 0.09507 0.64732 0.35179 0.0
O307 O 0.18803 0.80851 0.35347 0.0
C308 C 0.27575 0.77361 0.19618 0.0
C309 C 0.3056 0.61714 0.19445 0.0
C310 C 0.33239 0.59413 0.10597 0.0
C311 C 0.2847 0.5754 0.14474 0.0
C312 C 0.39951 0.65154 0.12104 0.0
C313 C 0.37277 0.6748 0.205 0.0
C314 C 0.41892 0.68897 0.17086 0.0
C315 C 0.10735 0.62395 0.18042 0.0
C316 C 0.26264 0.59487 0.24382 0.0
C317 C 0.09736 0.2972 0.44802 0.0
C318 C 0.02913 0.30827 0.41473 0.0
C319 C 0.12078 0.61142 0.39161 0.0
C320 C 0.08174 0.76144 0.38075 0.0
C321 C 0.09732 0.79487 0.43496 0.0
C322 C 0.0461 0.76694 0.47338 0.0
C323 C -0.01898 0.71055 0.45317 0.0
C324 C 0.01666 0.69897 0.36856 0.0
C325 C -0.03326 0.6752 0.40346 0.0
C326 C 0.2842 0.75122 0.4108 0.0
C327 C 0.12855 0.79423 0.33134 0.0
H328 H 0.2332 0.52927 0.13727 0.0
H329 H 0.43903 0.66521 0.09667 0.0
H330 H 0.39148 0.70664 0.24302 0.0
H331 H 0.47063 0.72896 0.18423 0.0
H332 H 0.14736 0.84202 0.44586 0.0
H333 H 0.93968 0.69359 0.47629 0.0
H334 H 0.00219 0.67157 0.32828 0.0
H335 H 0.91612 0.63078 0.39021 0.0
Tb336 Tb 0.22561 0.62779 0.80582 0.0
C337 C 0.06928 0.71977 0.8581 0.0
C338 C -0.04131 0.61924 0.83362 0.0
C339 C -0.02372 0.71265 0.88194 0.0
C340 C 0.0271 0.66379 0.82444 0.0
C341 C 0.04459 0.74305 0.88966 0.0
C342 C 0.93238 0.64977 0.85304 0.0
C343 C 0.15169 0.80589 0.95006 0.0
N344 N 0.13373 0.74177 0.86924 0.0
C345 C 0.17258 0.77612 0.92163 0.0
C346 C 0.08919 0.79424 0.92944 0.0
Tb347 Tb 0.1695 0.73214 0.78634 0.0
N348 N 0.05583 0.63797 0.80551 0.0
C349 C 0.0211 0.55994 0.81399 0.0
C350 C 0.92547 0.54106 0.84384 0.0
C351 C -0.03872 0.51199 0.84354 0.0
H352 H 0.22138 0.78675 0.93848 0.0
H353 H -0.05865 0.45197 0.86276 0.0
H354 H 0.87935 0.61924 0.85435 0.0
H355 H 0.184 0.83994 0.98566 0.0
H356 H 0.04087 0.53251 0.80413 0.0
H357 H 0.47319 0.8817 0.73868 0.0
H358 H 0.87608 0.50299 0.8602 0.0
H359 H 0.18197 0.60084 0.64004 0.0
H360 H 0.36489 0.81785 0.77885 0.0
H361 H 0.22248 0.56718 0.57422 0.0
H362 H -0.04261 0.73184 0.90457 0.0
H363 H 0.52191 0.80895 0.75135 0.0
H364 H 0.49963 0.67565 0.77037 0.0
H365 H 0.07552 0.82488 0.94296 0.0
H366 H 0.41737 0.58052 0.70273 0.0
N367 N 0.33994 0.70489 0.79067 0.0
C368 C 0.38069 0.78286 0.77711 0.0
C369 C 0.47164 0.7795 0.76361 0.0
C370 C 0.42993 0.70078 0.77555 0.0
C371 C 0.44409 0.82055 0.75648 0.0
C372 C 0.36189 0.66854 0.7772 0.0
H373 H 0.31644 0.5544 0.61611 0.0
N374 N 0.25804 0.61267 0.72213 0.0
C375 C 0.24557 0.57553 0.62312 0.0
C376 C 0.31677 0.61803 0.73901 0.0
C377 C 0.22427 0.59659 0.66124 0.0
C378 C 0.29976 0.56863 0.64697 0.0
C379 C 0.33768 0.5924 0.70491 0.0
O380 O 0.18313 0.51919 0.78916 0.0
O381 O 0.14668 0.62145 0.83871 0.0
O382 O 0.25938 0.76919 0.86692 0.0
O383 O 0.29874 0.69316 0.88374 0.0
O384 O 0.20249 0.59194 0.91004 0.0
O385 O 0.22108 0.5418 0.88688 0.0
O386 O 0.20592 0.84095 0.79895 0.0
O387 O 0.25268 0.74261 0.75723 0.0
O388 O 0.13794 0.59396 0.72336 0.0
O389 O 0.09758 0.66833 0.70764 0.0
O390 O 0.19526 0.76858 0.68422 0.0
O391 O 0.16017 0.81017 0.70524 0.0
C392 C 0.15081 0.59455 0.90259 0.0
C393 C 0.25221 0.48001 0.85528 0.0
C394 C 0.36824 0.52276 0.87738 0.0
C395 C 0.31771 0.53031 0.87841 0.0
C396 C 0.35262 0.4606 0.857 0.0
C397 C 0.23652 0.41994 0.83264 0.0
C398 C 0.28659 0.40888 0.83672 0.0
C399 C 0.29976 0.74539 0.90255 0.0
C400 C 0.2037 0.49705 0.84938 0.0
C401 C 0.40132 0.60438 0.72375 0.0
C402 C 0.44815 0.65851 0.76188 0.0
C403 C 0.24921 0.77048 0.69364 0.0
C404 C 0.12201 0.86225 0.74305 0.0
C405 C 0.05956 0.81547 0.71126 0.0
C406 C 0.00379 0.80949 0.71939 0.0
C407 C 0.00926 0.84895 0.76087 0.0
C408 C 0.12773 0.90204 0.78518 0.0
C409 C 0.0709 0.89484 0.79444 0.0
C410 C 0.09695 0.61681 0.68849 0.0
C411 C 0.1758 0.85514 0.74183 0.0
H412 H 0.33032 0.5765 0.89807 0.0
H413 H 0.38979 0.4484 0.86202 0.0
H414 H 0.18598 0.38225 0.81305 0.0
H415 H 0.27424 0.35924 0.82606 0.0
H416 H 0.05364 0.78449 0.6778 0.0
H417 H -0.03492 0.84287 0.76581 0.0
H418 H 0.17485 -0.06595 0.81361 0.0
H419 H 0.07444 0.92271 0.82907 0.0
Tb420 Tb 0.1354 0.1557 0.8422 0.0
C421 C 0.25352 0.26973 0.65952 0.0
C422 C 0.19399 0.19204 0.57933 0.0
C423 C 0.17974 0.29059 0.57429 0.0
C424 C 0.22931 0.20408 0.6399 0.0
C425 C 0.23193 0.31729 0.62344 0.0
C426 C 0.1723 0.23801 0.54418 0.0
C427 C 0.30007 0.39827 0.70153 0.0
N428 N 0.2818 0.27568 0.72163 0.0
C429 C 0.31142 0.34172 0.74164 0.0
C430 C 0.25788 0.38482 0.64248 0.0
Tb431 Tb 0.24134 0.15863 0.78519 0.0
N432 N 0.23176 0.14717 0.68318 0.0
C433 C 0.21651 0.08559 0.66321 0.0
C434 C 0.17785 0.13112 0.5575 0.0
C435 C 0.19523 0.08081 0.59766 0.0
H436 H 0.34291 0.351 0.78793 0.0
H437 H 0.18739 0.03569 0.58046 0.0
H438 H 0.15196 0.23065 0.49432 0.0
H439 H 0.32279 0.4507 0.7163 0.0
H440 H 0.21218 0.0359 0.69843 0.0
H441 H 0.0973 0.01151 0.09202 0.0
H442 H 0.15561 0.12728 0.50842 0.0
H443 H -0.00246 0.11393 0.73006 0.0
H444 H 0.15676 0.12001 1.00196 0.0
H445 H 0.90929 -0.00241 0.68699 0.0
H446 H 0.15579 0.3211 0.55503 0.0
H447 H 0.01264 0.8838 0.06789 0.0
H448 H -0.044 0.79891 0.98141 0.0
H449 H 0.24396 0.42456 0.61335 0.0
H450 H 0.90606 0.79757 0.86533 0.0
N451 N 0.09779 0.05678 0.92806 0.0
C452 C 0.11593 0.06603 0.99114 0.0
C453 C 0.03665 -0.06798 1.02811 0.0
C454 C 0.02303 0.9225 0.96305 0.0
C455 C 0.08216 0.00465 1.04181 0.0
C456 C 0.04981 -0.01155 0.91366 0.0
H457 H 0.89145 0.8742 0.75516 0.0
N458 N 0.03159 0.0557 0.8132 0.0
C459 C 0.93954 -0.00553 0.73362 0.0
C460 C 0.01791 -0.01199 0.85145 0.0
C461 C -0.01236 0.05933 0.75892 0.0
C462 C 0.92946 0.92493 0.77116 0.0
C463 C -0.03502 0.92029 0.83308 0.0
O464 O 0.14858 0.2427 0.87785 0.0
O465 O 0.16657 0.20261 0.74477 0.0
O466 O 0.30073 0.23248 0.86345 0.0
O467 O 0.22173 0.2195 0.91047 0.0
O468 O 0.1678 0.27029 0.7924 0.0
O469 O 0.0527 0.15652 0.84326 0.0
O470 O 0.27307 0.08498 0.79543 0.0
O471 O 0.215 0.12544 0.88212 0.0
O472 O 0.10472 0.12391 0.74115 0.0
O473 O 0.149 0.0626 0.7455 0.0
O474 O 0.18727 0.04175 0.84062 0.0
O475 O 0.34274 0.20218 0.78248 0.0
C476 C 0.16356 0.26406 0.73473 0.0
C477 C 0.05375 0.23437 0.89756 0.0
C478 C 0.05613 0.28742 0.98321 0.0
C479 C 0.08806 0.29277 0.93443 0.0
C480 C -0.00767 0.21947 0.99539 0.0
C481 C -0.01437 0.18019 0.90147 0.0
C482 C -0.04247 0.16852 0.9541 0.0
C483 C 0.28487 0.2533 0.90462 0.0
C484 C 0.08675 0.22122 0.86097 0.0
C485 C -0.05284 0.85094 0.87863 0.0
C486 C -0.02403 0.85189 0.94458 0.0
C487 C 0.21041 0.06118 0.89633 0.0
C488 C 0.35637 0.13476 0.7253 0.0
C489 C 0.32782 0.06848 0.69845 0.0
C490 C 0.34154 0.07673 0.634 0.0
C491 C 0.39085 0.15011 0.60467 0.0
C492 C 0.40871 0.20323 0.69479 0.0
C493 C 0.42457 0.21031 0.63544 0.0
C494 C 0.1012 0.0726 0.71912 0.0
C495 C 0.33242 0.13812 0.78125 0.0
H496 H 0.13856 0.34022 0.92633 0.0
H497 H -0.03445 0.20376 1.03484 0.0
H498 H -0.04376 0.14 0.86953 0.0
H499 H 0.90981 0.11722 0.96486 0.0
H500 H 0.29377 0.01227 0.72583 0.0
H501 H 0.41048 0.16135 0.56121 0.0
H502 H 0.43786 0.25215 0.71656 0.0
H503 H 0.46409 0.26316 0.6127 0.0
Tb504 Tb 0.71732 0.12857 0.79836 0.0
C505 C 0.69905 0.38813 0.70524 0.0
C506 C 0.84975 0.49984 0.69781 0.0
C507 C 0.77609 0.56544 0.57363 0.0
C508 C 0.77956 0.415 0.73565 0.0
C509 C 0.69411 0.48831 0.59164 0.0
C510 C 0.84889 0.57064 0.62416 0.0
C511 C 0.57426 0.33066 0.55732 0.0
N512 N 0.64138 0.30215 0.69914 0.0
C513 C 0.58289 0.27132 0.63649 0.0
C514 C 0.62763 0.4338 0.5343 0.0
Tb515 Tb 0.6759 0.24323 0.78983 0.0
N516 N 0.78413 0.35592 0.77121 0.0
C517 C 0.84515 0.3651 0.78025 0.0
C518 C 0.90475 0.49605 0.71296 0.0
C519 C 0.89975 0.42776 0.74629 0.0
H520 H 0.54356 0.21199 0.64345 0.0
H521 H -0.05696 0.42558 0.75171 0.0
H522 H 0.89643 0.61759 0.60701 0.0
H523 H 0.53301 0.30083 0.52227 0.0
H524 H 0.85217 0.32003 0.80793 0.0
H525 H 0.44579 -0.0256 0.81155 0.0
H526 H -0.05017 0.54357 0.69237 0.0
H527 H 0.83071 0.13977 0.95518 0.0
H528 H 0.55128 0.08067 0.78285 0.0
H529 H 0.82777 0.04452 0.07199 0.0
H530 H 0.78171 0.61072 0.53114 0.0
H531 H 0.42728 0.854 0.87665 0.0
H532 H 0.46155 0.75476 0.95447 0.0
H533 H 0.62882 0.46026 0.48234 0.0
H534 H 0.56369 0.74557 0.04256 0.0
N535 N 0.60429 0.02572 0.8127 0.0
C536 C 0.54835 0.02796 0.80179 0.0
C537 C 0.47418 0.89533 0.85766 0.0
C538 C 0.52281 0.87955 0.8742 0.0
C539 C 0.48596 -0.03429 0.82119 0.0
C540 C 0.59913 -0.04069 0.84249 0.0
H541 H 0.72316 0.88559 0.10682 0.0
N542 N 0.73711 0.05757 0.88971 0.0
C543 C 0.7877 0.01732 1.03622 0.0
C544 C 0.67538 -0.0255 0.879 0.0
C545 C 0.78998 0.08167 0.95685 0.0
C546 C 0.72627 0.91483 0.05569 0.0
C547 C 0.66308 0.86578 0.99345 0.0
O548 O 0.7836 0.09541 0.81395 0.0
O549 O 0.71976 0.22696 0.72428 0.0
O550 O 0.61763 0.17655 0.70354 0.0
O551 O 0.64277 0.08967 0.71435 0.0
O552 O 0.8035 0.22647 0.74478 0.0
O553 O 0.70412 0.06542 0.73423 0.0
O554 O 0.59466 0.25155 0.77825 0.0
O555 O 0.66535 0.1385 0.85613 0.0
O556 O 0.7821 0.19853 0.87998 0.0
O557 O 0.75407 0.28259 0.87075 0.0
O558 O 0.60964 0.16604 0.87016 0.0
O559 O 0.68426 0.31694 0.8398 0.0
C560 C 0.77708 0.26118 0.70304 0.0
C561 C 0.80699 0.09621 0.7145 0.0
C562 C 0.84189 0.08848 0.62284 0.0
C563 C 0.79051 0.06367 0.65946 0.0
C564 C 0.90777 0.1397 0.64626 0.0
C565 C 0.87284 0.15522 0.729 0.0
C566 C 0.92279 0.17488 0.69662 0.0
C567 C 0.60992 0.12121 0.68075 0.0
C568 C 0.75877 0.06795 0.7604 0.0
C569 C 0.57712 0.79517 1.0028 0.0
C570 C 0.51168 0.80138 0.94537 0.0
C571 C 0.62899 0.12129 0.90048 0.0
C572 C 0.57925 0.27206 0.87229 0.0
C573 C 0.60184 0.30869 0.92644 0.0
C574 C 0.55583 0.28541 0.96992 0.0
C575 C 0.48835 0.22849 0.95563 0.0
C576 C 0.51219 0.21216 0.86439 0.0
C577 C 0.46765 0.19128 0.90521 0.0
C578 C 0.78749 0.25152 0.90359 0.0
C579 C 0.62191 0.29491 0.82124 0.0
H580 H 0.73937 0.02053 0.64576 0.0
H581 H -0.05152 0.15363 0.62409 0.0
H582 H 0.88739 0.18308 0.76897 0.0
H583 H -0.02651 0.21653 0.71238 0.0
H584 H 0.65376 0.35344 0.93472 0.0
H585 H 0.45054 0.21028 0.98503 0.0
H586 H 0.49271 0.18181 0.82509 0.0
H587 H 0.4163 0.1461 0.89691 0.0
Tb588 Tb 0.66656 0.60903 0.771 0.0
C589 C 0.82514 0.83738 0.90322 0.0
C590 C 0.82221 0.7562 1.01192 0.0
C591 C 0.90185 0.88954 0.9932 0.0
C592 C 0.7949 0.76655 0.94606 0.0
C593 C 0.87607 0.90072 0.92876 0.0
C594 C 0.88032 0.817 1.03327 0.0
C595 C 0.86577 -0.01725 0.82747 0.0
N596 N 0.79548 0.84676 0.84141 0.0
C597 C 0.81624 0.91837 0.80206 0.0
C598 C 0.89712 -0.02606 0.89081 0.0
Tb599 Tb 0.6971 0.74166 0.82122 0.0
N600 N 0.73143 0.71524 0.92854 0.0
C601 C 0.69021 0.66172 0.97625 0.0
C602 C 0.78272 0.69321 0.05829 0.0
C603 C 0.71567 0.64492 1.04078 0.0
H604 H 0.79197 0.92622 0.75257 0.0
H605 H 0.68278 0.60296 0.07863 0.0
H606 H 0.90332 0.80837 0.0831 0.0
H607 H 0.88076 0.0387 0.79811 0.0
H608 H 0.6385 0.64006 0.96795 0.0
H609 H 0.61854 0.76173 0.53653 0.0
H610 H 0.79932 0.69294 0.10955 0.0
H611 H 0.57569 0.41955 0.84475 0.0
H612 H 0.68793 0.73198 0.62119 0.0
H613 H 0.46871 0.30731 0.81519 0.0
H614 H -0.0583 -0.06139 1.00866 0.0
H615 H 0.49207 0.66684 0.53064 0.0
H616 H 0.39722 0.54413 0.5961 0.0
H617 H 0.93667 0.02327 0.91077 0.0
H618 H 0.36907 0.41071 0.62679 0.0
N619 N 0.61004 0.62821 0.67101 0.0
C620 C 0.63626 0.68993 0.61961 0.0
C621 C 0.52598 0.65552 0.56829 0.0
C622 C 0.50108 0.58781 0.61578 0.0
C623 C 0.59512 0.70648 0.56945 0.0
C624 C 0.54499 0.57464 0.66524 0.0
H625 H 0.39865 0.32275 0.71136 0.0
N626 N 0.56505 0.49768 0.75929 0.0
C627 C 0.48399 0.36278 0.78437 0.0
C628 C 0.52303 0.50541 0.70748 0.0
C629 C 0.54451 0.42695 0.80057 0.0
C630 C 0.44357 0.3712 0.72741 0.0
C631 C 0.46049 0.4433 0.69183 0.0
O632 O 0.67687 0.51811 0.79155 0.0
O633 O 0.74637 0.67632 0.84167 0.0
O634 O 0.76752 0.80161 0.74411 0.0
O635 O 0.75357 0.70229 0.71756 0.0
O636 O 0.68481 0.5632 0.87575 0.0
O637 O 0.7287 0.61673 0.71617 0.0
O638 O 0.68506 0.83258 0.79746 0.0
O639 O 0.62091 0.67935 0.75074 0.0
O640 O 0.6063 0.54662 0.85132 0.0
O641 O 0.59737 0.64047 0.8524 0.0
O642 O 0.68934 0.79831 0.72124 0.0
O643 O 0.63659 0.73733 0.87577 0.0
C644 C 0.74271 0.61914 0.89061 0.0
C645 C 0.70166 0.5012 0.70645 0.0
C646 C 0.75761 0.4431 0.61951 0.0
C647 C 0.76139 0.51422 0.68604 0.0
C648 C 0.68536 0.38079 0.60275 0.0
C649 C 0.6312 0.44151 0.68891 0.0
C650 C 0.61013 0.38719 0.6473 0.0
C651 C 0.78402 0.77572 0.71045 0.0
C652 C 0.7159 0.54955 0.74674 0.0
C653 C 0.41681 0.45651 0.64203 0.0
C654 C 0.43422 0.53086 0.61499 0.0
C655 C 0.63014 0.74315 0.70842 0.0
C656 C 0.66202 0.85359 0.88123 0.0
C657 C 0.60351 0.84984 0.89377 0.0
C658 C 0.61001 0.92364 0.95859 0.0
C659 C 0.68168 -0.02066 0.98036 0.0
C660 C 0.73213 0.90526 0.90649 0.0
C661 C 0.75507 -0.03797 0.9463 0.0
C662 C 0.57681 0.56802 0.87064 0.0
C663 C 0.6473 0.8029 0.84306 0.0
H664 H 0.80473 0.56212 0.70807 0.0
H665 H 0.67516 0.33855 0.57866 0.0
H666 H 0.5922 0.43588 0.70636 0.0
H667 H 0.55615 0.35139 0.64686 0.0
H668 H 0.56001 0.80493 0.8693 0.0
H669 H 0.69339 0.02212 1.00458 0.0
H670 H 0.76834 0.90006 0.89954 0.0
H671 H 0.80966 -0.00653 0.95158 0.0
C672 C 0.83392 0.06737 0.55989 0.0
C673 C 0.93537 0.07006 0.43221 0.0
C674 C 0.82732 0.80407 0.44584 0.0
Mg675 Mg -0.02955 0.11053 0.53923 0.0
O676 O 0.90886 -0.0047 0.54671 0.0
Mg677 Mg 0.80792 0.92839 0.49938 0.0
Mg678 Mg -0.05592 -0.06811 0.54676 0.0
O679 O -0.02215 0.86685 0.54728 0.0
Mg680 Mg 0.9181 0.75137 0.55804 0.0
Mg681 Mg 0.0784 -0.06628 0.5907 0.0
C682 C 0.05857 0.05414 0.65295 0.0
C683 C 0.06804 0.03816 0.44134 0.0
O684 O 0.79344 -0.00167 0.55187 0.0
O685 O 0.88292 0.11466 0.52535 0.0
O686 O 0.91374 0.02091 0.48623 0.0
O687 O -0.01236 0.13529 0.4366 0.0
O688 O 0.03433 0.09553 0.62723 0.0
O689 O 0.04618 0.00484 0.62139 0.0
C690 C 0.81991 0.8283 0.64907 0.0
O691 O 0.87714 0.84595 0.64106 0.0
O692 O 0.78953 0.85402 0.60287 0.0
O693 O 0.09116 0.86223 0.53824 0.0
O694 O 0.00377 0.74526 0.56819 0.0
O695 O -0.02702 0.84218 0.60916 0.0
C696 C 0.05251 0.79207 0.53333 0.0
O697 O 0.90209 0.72718 0.66065 0.0
O698 O 0.85124 0.7627 0.47382 0.0
C699 C -0.04644 0.79345 0.66386 0.0
O700 O 0.84235 0.85803 0.47286 0.0
O701 O 0.01186 0.0207 0.45223 0.0
O702 O 0.09679 0.008 0.48438 0.0
C703 C 0.31866 -0.04273 0.08732 0.0
C704 C 0.26615 0.04298 0.93401 0.0
C705 C 0.35005 0.77967 0.96402 0.0
Mg706 Mg 0.41537 0.07215 1.01864 0.0
O707 O 0.40733 -0.00092 0.98011 0.0
Mg708 Mg 0.30804 0.90564 0.95677 0.0
Mg709 Mg 0.44898 -0.06382 0.04532 0.0
O710 O 0.48921 0.87168 0.11288 0.0
Mg711 Mg 0.48198 0.79998 0.07317 0.0
Mg712 Mg 0.58819 -0.03779 0.13951 0.0
C713 C 0.54611 0.08989 0.12814 0.0
C714 C 0.59486 0.05925 0.96384 0.0
O715 O 0.28792 0.92689 1.03769 0.0
O716 O 0.37968 -0.01317 0.09822 0.0
O717 O 0.25549 -0.02017 0.92951 0.0
O718 O 0.32428 0.08974 0.96236 0.0
O719 O 0.51164 0.11928 0.09361 0.0
O720 O 0.5339 0.03012 0.11321 0.0
C721 C 0.30501 0.81799 0.12794 0.0
O722 O 0.36895 0.85712 0.12822 0.0
O723 O 0.27013 0.82313 0.07125 0.0
O724 O 0.59975 -0.05522 0.05342 0.0
O725 O 0.50867 0.88582 0.9921 0.0
O726 O 0.6389 0.88109 0.17743 0.0
C727 C 0.56953 0.91616 1.003 0.0
O728 O 0.56952 0.77462 0.13948 0.0
O729 O 0.38367 0.74966 0.99975 0.0
C730 C 0.62558 0.81571 0.17463 0.0
O731 O 0.36346 0.8406 0.97789 0.0
O732 O 0.53051 0.02 0.96103 0.0
O733 O 0.62703 0.05177 1.02269 0.0
C734 C 0.81392 0.5072 0.08905 0.0
C735 C 0.79361 0.59296 0.92694 0.0
C736 C 0.84042 0.28685 0.96079 0.0
Mg737 Mg 0.91852 0.57939 1.02877 0.0
O738 O 0.90868 0.50595 0.99181 0.0
Mg739 Mg 0.80527 0.42551 0.97445 0.0
Mg740 Mg -0.05395 0.43521 0.04491 0.0
O741 O -0.01733 0.36408 0.09789 0.0
Mg742 Mg -0.02878 0.28947 0.06183 0.0
Mg743 Mg 0.086 0.44196 0.11623 0.0
C744 C 0.05271 0.58635 0.1255 0.0
C745 C 0.10122 0.54266 0.9597 0.0
O746 O 0.78358 0.49132 1.03151 0.0
O747 O 0.86144 0.4986 0.10917 0.0
O748 O 0.7695 0.5201 0.93843 0.0
O749 O 0.85409 0.63404 0.95448 0.0
O750 O 0.01651 0.61455 0.09644 0.0
O751 O 0.04029 0.52531 0.11084 0.0
C752 C 0.79162 0.32585 0.13192 0.0
O753 O 0.85512 0.35281 0.13346 0.0
O754 O 0.76449 0.34682 0.07688 0.0
O755 O 0.10474 0.37289 0.06077 0.0
O756 O 0.029 0.36946 0.98192 0.0
O757 O 0.12066 0.34388 0.14981 0.0
C758 C 0.07381 0.35646 1.00354 0.0
O759 O 0.03332 0.23073 0.13587 0.0
O760 O 0.87573 0.25765 0.99045 0.0
C761 C 0.09481 0.27013 0.16224 0.0
O762 O 0.85201 0.3459 0.97789 0.0
O763 O 0.03808 0.51757 0.95764 0.0
O764 O 0.12732 0.52002 1.01455 0.0
C765 C 0.32019 0.55872 0.0505 0.0
C766 C 0.42072 0.55057 0.92881 0.0
C767 C 0.33593 0.28847 0.96046 0.0
Mg768 Mg 0.45532 0.60549 1.02679 0.0
O769 O 0.40364 0.48864 0.04582 0.0
Mg770 Mg 0.30312 0.4083 1.01201 0.0
Mg771 Mg 0.44584 0.43084 0.04906 0.0
O772 O 0.48826 0.37304 0.05183 0.0
Mg773 Mg 0.43967 0.25664 0.06768 0.0
Mg774 Mg 0.58799 0.45219 0.08672 0.0
C775 C 0.55493 0.57009 0.1394 0.0
C776 C 0.54877 0.52079 0.93444 0.0
O777 O 0.28663 0.48571 0.05607 0.0
O778 O 0.36422 0.60239 1.01036 0.0
O779 O 0.40559 0.50721 0.98654 0.0
O780 O 0.46848 0.62012 0.92554 0.0
O781 O 0.52338 0.60339 0.11473 0.0
O782 O 0.54911 0.52315 0.10915 0.0
C783 C 0.34381 0.33947 0.16602 0.0
O784 O 0.39992 0.36255 0.15189 0.0
O785 O 0.30298 0.34959 0.12073 0.0
O786 O 0.60553 0.38281 1.03414 0.0
O787 O 0.53078 0.263 0.07535 0.0
O788 O 0.48375 0.35248 0.10943 0.0
C789 C 0.57211 0.3115 1.03312 0.0
O790 O 0.42535 0.23757 0.16948 0.0
O791 O 0.36982 0.25816 0.98359 0.0
C792 C 0.46927 0.3081 0.16692 0.0
O793 O 0.34191 0.33659 0.98961 0.0
O794 O 0.49311 0.50072 0.94691 0.0
O795 O 0.58681 0.50602 0.9796 0.0
C796 C 0.80093 0.44724 0.57995 0.0
C797 C 0.76667 0.55218 0.42607 0.0
C798 C 0.85085 0.28113 0.46546 0.0
Mg799 Mg 0.9106 0.56924 0.52001 0.0
O800 O 0.90411 0.49521 0.48533 0.0
Mg801 Mg 0.80563 0.40534 0.45772 0.0
Mg802 Mg -0.05083 0.43283 0.54512 0.0
O803 O -0.00471 0.37091 0.60187 0.0
Mg804 Mg -0.01741 0.28356 0.58184 0.0
Mg805 Mg 0.09399 0.45577 0.62801 0.0
C806 C 0.04639 0.58219 0.62782 0.0
C807 C 0.08901 0.55193 0.45622 0.0
O808 O 0.774 0.398 0.5455 0.0
O809 O 0.8624 0.48262 0.59158 0.0
O810 O 0.7552 0.48763 0.42318 0.0
O811 O 0.82463 0.59623 0.45677 0.0
O812 O 0.00836 0.60825 0.59639 0.0
O813 O 0.03916 0.52685 0.60923 0.0
C814 C 0.80676 0.31246 0.63431 0.0
O815 O 0.87093 0.352 0.63298 0.0
O816 O 0.77092 0.31947 0.57787 0.0
O817 O 0.11694 0.45798 0.52857 0.0
O818 O 0.05066 0.33858 0.52005 0.0
O819 O 0.13632 0.36437 0.67409 0.0
C820 C 0.09526 0.40563 0.49815 0.0
O821 O 0.05925 0.24887 0.65423 0.0
O822 O 0.88832 0.25408 0.49727 0.0
C823 C 0.11847 0.29389 0.68165 0.0
O824 O 0.86099 0.33871 0.48187 0.0
O825 O 0.02568 0.51625 0.45839 0.0
O826 O 0.12319 0.53541 0.50898 0.0
C827 C 0.32761 0.01312 0.60693 0.0
C828 C 0.30488 0.10005 0.43546 0.0
C829 C 0.33465 0.78312 0.46963 0.0
Mg830 Mg 0.42652 0.08397 0.53375 0.0
O831 O 0.4113 0.00777 0.49677 0.0
Mg832 Mg 0.30885 -0.06977 0.48366 0.0
Mg833 Mg 0.44707 -0.06373 0.54576 0.0
O834 O 0.48263 0.8644 0.59373 0.0
Mg835 Mg 0.45433 0.76735 0.5786 0.0
Mg836 Mg 0.58235 -0.06029 0.61454 0.0
C837 C 0.55811 0.08799 0.6226 0.0
C838 C 0.5965 0.04203 0.45641 0.0
O839 O 0.29552 -0.00059 0.54878 0.0
O840 O 0.37689 0.00807 0.62122 0.0
O841 O 0.27732 0.02633 0.45079 0.0
O842 O 0.36737 0.14103 0.45716 0.0
O843 O 0.52525 0.11986 0.59365 0.0
O844 O 0.5433 0.02722 0.60565 0.0
C845 C 0.29952 0.82779 0.63839 0.0
O846 O 0.36262 0.8538 0.63945 0.0
O847 O 0.27258 0.85152 0.58514 0.0
O848 O 0.58614 0.91425 0.50754 0.0
O849 O 0.50495 0.7938 0.5031 0.0
O850 O 0.60882 0.84274 0.65309 0.0
C851 C 0.55508 0.85592 0.47987 0.0
O852 O 0.51926 0.72501 0.65185 0.0
O853 O 0.36472 0.74831 0.50228 0.0
C854 C 0.58212 0.76965 0.66908 0.0
O855 O 0.35019 0.84558 0.48412 0.0
O856 O 0.53514 0.02153 0.45608 0.0
O857 O 0.61924 0.00961 0.50768 0.0
loop_
_geom_bond_atom_site_label_1
_geom_bond_atom_site_label_2
_geom_bond_distance
_geom_bond_site_symmetry_2
_ccdc_geom_bond_type
Tb0 N31 2.660 . S
Tb0 N38 2.600 . S
Tb0 O44 2.546 . S
Tb0 O45 2.610 . S
Tb0 O47 2.320 . S
Tb0 O48 2.552 . S
Tb0 O49 2.413 . S
Tb0 O51 2.362 . S
Tb0 O52 2.421 . S
Tb0 C64 2.833 . S
C1 C4 1.432 . S
C1 C5 1.414 . S
C1 N8 1.359 . S
C2 C4 1.417 . S
C2 C6 1.432 . S
C2 C14 1.410 . S
C3 C5 1.444 . S
C3 C6 1.317 . S
C3 H26 0.929 . S
C4 C1 1.432 . S
C4 C2 1.417 . S
C4 N12 1.360 . S
C5 C1 1.414 . S
C5 C3 1.444 . S
C5 C10 1.385 . S
C6 C2 1.432 . S
C6 C3 1.317 . S
C6 H18 0.930 . S
C7 C9 1.392 . S
C7 C10 1.370 . S
C7 H19 0.931 . S
N8 C1 1.359 . S
N8 C9 1.327 . S
N8 Tb11 2.600 . S
C9 C7 1.392 . S
C9 N8 1.327 . S
C9 H16 0.930 . S
C10 C5 1.385 . S
C10 C7 1.370 . S
C10 H29 0.930 . S
Tb11 N8 2.600 . S
Tb11 N12 2.660 . S
Tb11 O45 2.362 . S
Tb11 O46 2.421 . S
Tb11 O50 2.546 . S
Tb11 O51 2.610 . S
Tb11 O53 2.320 . S
Tb11 O54 2.552 . S
Tb11 O55 2.413 . S
Tb11 C75 2.833 . S
N12 C4 1.360 . S
N12 Tb11 2.660 . S
N12 C13 1.305 . S
C13 N12 1.305 . S
C13 C15 1.407 . S
C13 H20 0.930 . S
C14 C2 1.410 . S
C14 C15 1.345 . S
C14 H22 0.930 . S
C15 C13 1.407 . S
C15 C14 1.345 . S
C15 H17 0.930 . S
H16 C9 0.930 . S
H17 C15 0.930 . S
H18 C6 0.930 . S
H19 C7 0.931 . S
H20 C13 0.930 . S
H21 C35 0.930 1_556 S
H22 C14 0.930 . S
H23 C41 0.930 1_455 S
H24 C32 0.930 . S
H25 C39 0.931 . S
H26 C3 0.929 . S
H27 C33 0.930 . S
H28 C66 0.930 . S
H29 C10 0.930 . S
H30 C65 0.929 1_565 S
N31 Tb0 2.660 . S
N31 C32 1.305 . S
N31 C36 1.360 . S
C32 H24 0.930 . S
C32 N31 1.305 . S
C32 C35 1.407 . S
C33 H27 0.930 . S
C33 C34 1.410 1_556 S
C33 C35 1.345 1_556 S
C34 C33 1.410 1_554 S
C34 C36 1.417 . S
C34 C66 1.432 1_454 S
C35 H21 0.930 1_554 S
C35 C32 1.407 . S
C35 C33 1.345 1_554 S
C36 N31 1.360 . S
C36 C34 1.417 . S
C36 C40 1.432 . S
H37 C42 0.930 . S
N38 Tb0 2.600 . S
N38 C40 1.359 . S
N38 C41 1.327 1_445 S
C39 H25 0.931 . S
C39 C41 1.392 . S
C39 C42 1.370 . S
C40 C36 1.432 . S
C40 N38 1.359 . S
C40 C43 1.414 1_445 S
C41 H23 0.930 1_655 S
C41 N38 1.327 1_665 S
C41 C39 1.392 . S
C42 H37 0.930 . S
C42 C39 1.370 . S
C42 C43 1.385 . S
C43 C40 1.414 1_665 S
C43 C42 1.385 . S
C43 C65 1.444 1_565 S
O44 Tb0 2.546 . S
O44 C64 1.251 . S
O45 Tb0 2.610 . S
O45 Tb11 2.362 . S
O45 C56 1.283 . S
O46 Tb11 2.421 . S
O46 C63 1.262 . S
O47 Tb0 2.320 . S
O47 C63 1.260 . S
O48 Tb0 2.552 . S
O48 C56 1.243 . S
O49 Tb0 2.413 . S
O49 C64 1.256 . S
O50 Tb11 2.546 . S
O50 C75 1.251 . S
O51 Tb0 2.362 . S
O51 Tb11 2.610 . S
O51 C67 1.283 . S
O52 Tb0 2.421 . S
O52 C74 1.262 . S
O53 Tb11 2.320 . S
O53 C74 1.260 . S
O54 Tb11 2.552 . S
O54 C67 1.243 . S
O55 Tb11 2.413 . S
O55 C75 1.256 . S
C56 O45 1.283 . S
C56 O48 1.243 . S
C57 C59 1.382 1_565 S
C57 C61 1.393 . S
C57 C64 1.500 1_565 S
C58 C59 1.400 1_565 S
C58 C60 1.384 . S
C59 C57 1.382 1_545 S
C59 C58 1.400 1_545 S
C59 H76 0.930 . S
C60 C58 1.384 . S
C60 C62 1.392 . S
C60 H77 0.931 . S
C61 C57 1.393 . S
C61 C62 1.401 . S
C61 H78 0.930 . S
C62 C60 1.392 . S
C62 C61 1.401 . S
C62 H79 0.930 . S
C63 O46 1.262 . S
C63 O47 1.260 . S
C64 Tb0 2.833 . S
C64 O44 1.251 . S
C64 O49 1.256 . S
C64 C57 1.500 1_545 S
C65 H30 0.929 1_545 S
C65 C43 1.444 1_545 S
C65 C66 1.317 1_554 S
C66 H28 0.930 . S
C66 C34 1.432 1_656 S
C66 C65 1.317 1_556 S
C67 O51 1.283 . S
C67 O54 1.243 . S
C68 C69 1.382 . S
C68 C72 1.393 . S
C68 C75 1.500 . S
C69 C68 1.382 . S
C69 C70 1.400 . S
C69 H80 0.930 . S
C70 C69 1.400 . S
C70 C71 1.384 . S
C71 C70 1.384 . S
C71 C73 1.392 . S
C71 H81 0.931 . S
C72 C68 1.393 . S
C72 C73 1.401 . S
C72 H82 0.930 . S
C73 C71 1.392 . S
C73 C72 1.401 . S
C73 H83 0.930 . S
C74 O52 1.262 . S
C74 O53 1.260 . S
C75 Tb11 2.833 . S
C75 O50 1.251 . S
C75 O55 1.256 . S
C75 C68 1.500 . S
H76 C59 0.930 . S
H77 C60 0.931 . S
H78 C61 0.930 . S
H79 C62 0.930 . S
H80 C69 0.930 . S
H81 C71 0.931 . S
H82 C72 0.930 . S
H83 C73 0.930 . S
Tb84 N115 2.660 . S
Tb84 N122 2.600 . S
Tb84 O128 2.546 . S
Tb84 O129 2.610 . S
Tb84 O131 2.320 . S
Tb84 O132 2.552 . S
Tb84 O133 2.413 . S
Tb84 O135 2.362 . S
Tb84 O136 2.421 . S
Tb84 C148 2.833 . S
C85 C88 1.432 . S
C85 C89 1.414 . S
C85 N92 1.359 . S
C86 C88 1.417 . S
C86 C90 1.432 . S
C86 C98 1.410 . S
C87 C89 1.444 . S
C87 C90 1.317 . S
C87 H110 0.929 . S
C88 C85 1.432 . S
C88 C86 1.417 . S
C88 N96 1.360 . S
C89 C85 1.414 . S
C89 C87 1.444 . S
C89 C94 1.385 . S
C90 C86 1.432 . S
C90 C87 1.317 . S
C90 H102 0.930 . S
C91 C93 1.392 . S
C91 C94 1.370 . S
C91 H103 0.931 . S
N92 C85 1.359 . S
N92 C93 1.327 . S
N92 Tb95 2.600 . S
C93 C91 1.392 . S
C93 N92 1.327 . S
C93 H100 0.930 . S
C94 C89 1.385 . S
C94 C91 1.370 . S
C94 H113 0.930 . S
Tb95 N92 2.600 . S
Tb95 N96 2.660 . S
Tb95 O129 2.362 . S
Tb95 O130 2.421 . S
Tb95 O134 2.546 . S
Tb95 O135 2.610 . S
Tb95 O137 2.320 . S
Tb95 O138 2.552 . S
Tb95 O139 2.413 . S
Tb95 C159 2.833 . S
N96 C88 1.360 . S
N96 Tb95 2.660 . S
N96 C97 1.305 . S
C97 N96 1.305 . S
C97 C99 1.407 . S
C97 H104 0.930 . S
C98 C86 1.410 . S
C98 C99 1.345 . S
C98 H106 0.930 . S
C99 C97 1.407 . S
C99 C98 1.345 . S
C99 H101 0.930 1_545 S
H100 C93 0.930 . S
H101 C99 0.930 1_565 S
H102 C90 0.930 . S
H103 C91 0.931 . S
H104 C97 0.930 . S
H105 C119 0.930 . S
H106 C98 0.930 . S
H107 C125 0.930 . S
H108 C116 0.930 . S
H109 C123 0.931 . S
H110 C87 0.929 . S
H111 C117 0.930 . S
H112 C150 0.930 . S
H113 C94 0.930 . S
H114 C149 0.928 1_455 S
N115 Tb84 2.660 . S
N115 C116 1.305 . S
N115 C120 1.360 . S
C116 H108 0.930 . S
C116 N115 1.305 . S
C116 C119 1.407 1_655 S
C117 H111 0.930 . S
C117 C118 1.410 . S
C117 C119 1.345 . S
C118 C117 1.410 . S
C118 C120 1.417 1_455 S
C118 C150 1.432 . S
C119 H105 0.930 . S
C119 C116 1.407 1_455 S
C119 C117 1.345 . S
C120 N115 1.360 . S
C120 C118 1.417 1_655 S
C120 C124 1.432 . S
H121 C126 0.930 . S
N122 Tb84 2.600 . S
N122 C124 1.359 . S
N122 C125 1.327 . S
C123 H109 0.931 . S
C123 C125 1.392 . S
C123 C126 1.370 . S
C124 C120 1.432 . S
C124 N122 1.359 . S
C124 C127 1.414 . S
C125 H107 0.930 . S
C125 N122 1.327 . S
C125 C123 1.392 . S
C126 H121 0.930 . S
C126 C123 1.370 . S
C126 C127 1.385 . S
C127 C124 1.414 . S
C127 C126 1.385 . S
C127 C149 1.446 . S
O128 Tb84 2.546 . S
O128 C148 1.251 . S
O129 Tb84 2.610 . S
O129 Tb95 2.362 . S
O129 C140 1.283 . S
O130 Tb95 2.421 . S
O130 C147 1.262 . S
O131 Tb84 2.320 . S
O131 C147 1.260 . S
O132 Tb84 2.552 . S
O132 C140 1.243 . S
O133 Tb84 2.413 . S
O133 C148 1.256 . S
O134 Tb95 2.546 . S
O134 C159 1.251 . S
O135 Tb84 2.362 . S
O135 Tb95 2.610 . S
O135 C151 1.283 . S
O136 Tb84 2.421 . S
O136 C158 1.262 . S
O137 Tb95 2.320 . S
O137 C158 1.260 . S
O138 Tb95 2.552 . S
O138 C151 1.243 . S
O139 Tb95 2.413 . S
O139 C159 1.256 . S
C140 O129 1.283 . S
C140 O132 1.243 . S
C141 C143 1.382 . S
C141 C145 1.393 1_545 S
C141 C148 1.500 . S
C142 C143 1.400 . S
C142 C144 1.384 1_545 S
C143 C141 1.382 . S
C143 C142 1.400 . S
C143 H160 0.930 . S
C144 C142 1.384 1_565 S
C144 C146 1.392 . S
C144 H161 0.931 . S
C145 C141 1.393 1_565 S
C145 C146 1.401 . S
C145 H162 0.930 . S
C146 C144 1.392 . S
C146 C145 1.401 . S
C146 H163 0.930 . S
C147 O130 1.262 . S
C147 O131 1.260 . S
C148 Tb84 2.833 . S
C148 O128 1.251 . S
C148 O133 1.256 . S
C148 C141 1.500 . S
C149 H114 0.928 1_655 S
C149 C127 1.446 . S
C149 C150 1.317 1_655 S
C150 H112 0.930 . S
C150 C118 1.432 . S
C150 C149 1.317 1_455 S
C151 O135 1.283 . S
C151 O138 1.243 . S
C152 C153 1.382 . S
C152 C156 1.393 . S
C152 C159 1.500 . S
C153 C152 1.382 . S
C153 C154 1.400 . S
C153 H164 0.930 . S
C154 C153 1.400 . S
C154 C155 1.384 . S
C155 C154 1.384 . S
C155 C157 1.392 . S
C155 H165 0.931 . S
C156 C152 1.393 . S
C156 C157 1.401 . S
C156 H166 0.930 . S
C157 C155 1.392 . S
C157 C156 1.401 . S
C157 H167 0.930 . S
C158 O136 1.262 . S
C158 O137 1.260 . S
C159 Tb95 2.833 . S
C159 O134 1.251 . S
C159 O139 1.256 . S
C159 C152 1.500 . S
H160 C143 0.930 . S
H161 C144 0.931 . S
H162 C145 0.930 . S
H163 C146 0.930 . S
H164 C153 0.930 . S
H165 C155 0.931 . S
H166 C156 0.930 . S
H167 C157 0.930 . S
Tb168 N199 2.660 . S
Tb168 N206 2.600 . S
Tb168 O212 2.546 . S
Tb168 O213 2.610 . S
Tb168 O215 2.320 . S
Tb168 O216 2.552 . S
Tb168 O217 2.413 . S
Tb168 O219 2.362 . S
Tb168 O220 2.421 . S
Tb168 C232 2.833 . S
C169 C172 1.432 1_545 S
C169 C173 1.414 . S
C169 N176 1.359 1_545 S
C170 C172 1.417 . S
C170 C174 1.432 1_565 S
C170 C182 1.410 1_554 S
C171 C173 1.444 . S
C171 C174 1.317 . S
C171 H194 0.929 1_655 S
C172 C169 1.432 1_565 S
C172 C170 1.417 . S
C172 N180 1.360 . S
C173 C169 1.414 . S
C173 C171 1.444 . S
C173 C178 1.385 1_655 S
C174 C170 1.432 1_545 S
C174 C171 1.317 . S
C174 H186 0.930 1_554 S
C175 C177 1.392 . S
C175 C178 1.370 . S
C175 H187 0.931 . S
N176 C169 1.359 1_565 S
N176 C177 1.327 1_665 S
N176 Tb179 2.600 . S
C177 C175 1.392 . S
C177 N176 1.327 1_445 S
C177 H184 0.930 1_545 S
C178 C173 1.385 1_455 S
C178 C175 1.370 . S
C178 H197 0.930 . S
Tb179 N176 2.600 . S
Tb179 N180 2.660 . S
Tb179 O213 2.362 . S
Tb179 O214 2.421 . S
Tb179 O218 2.546 . S
Tb179 O219 2.610 . S
Tb179 O221 2.320 . S
Tb179 O222 2.552 . S
Tb179 O223 2.413 . S
Tb179 C243 2.833 . S
N180 C172 1.360 . S
N180 Tb179 2.660 . S
N180 C181 1.305 . S
C181 N180 1.305 . S
C181 C183 1.407 . S
C181 H188 0.930 . S
C182 C170 1.410 1_556 S
C182 C183 1.345 1_556 S
C182 H190 0.930 . S
C183 C181 1.407 . S
C183 C182 1.345 1_554 S
C183 H185 0.930 1_554 S
H184 C177 0.930 1_565 S
H185 C183 0.930 1_556 S
H186 C174 0.930 1_556 S
H187 C175 0.931 . S
H188 C181 0.930 . S
H189 C203 0.930 . S
H190 C182 0.930 . S
H191 C209 0.930 . S
H192 C200 0.930 . S
H193 C207 0.931 . S
H194 C171 0.929 1_455 S
H195 C201 0.930 . S
H196 C234 0.930 . S
H197 C178 0.930 . S
H198 C233 0.929 . S
N199 Tb168 2.660 . S
N199 C200 1.305 . S
N199 C204 1.360 . S
C200 H192 0.930 . S
C200 N199 1.305 . S
C200 C203 1.407 . S
C201 H195 0.930 . S
C201 C202 1.410 . S
C201 C203 1.345 . S
C202 C201 1.410 . S
C202 C204 1.417 . S
C202 C234 1.432 . S
C203 H189 0.930 . S
C203 C200 1.407 . S
C203 C201 1.345 . S
C204 N199 1.360 . S
C204 C202 1.417 . S
C204 C208 1.432 . S
H205 C210 0.930 . S
N206 Tb168 2.600 . S
N206 C208 1.359 . S
N206 C209 1.327 . S
C207 H193 0.931 . S
C207 C209 1.392 . S
C207 C210 1.370 . S
C208 C204 1.432 . S
C208 N206 1.359 . S
C208 C211 1.414 . S
C209 H191 0.930 . S
C209 N206 1.327 . S
C209 C207 1.392 . S
C210 H205 0.930 . S
C210 C207 1.370 . S
C210 C211 1.385 . S
C211 C208 1.414 . S
C211 C210 1.385 . S
C211 C233 1.444 . S
O212 Tb168 2.546 . S
O212 C232 1.251 . S
O213 Tb168 2.610 . S
O213 Tb179 2.362 . S
O213 C224 1.283 . S
O214 Tb179 2.421 . S
O214 C231 1.262 . S
O215 Tb168 2.320 . S
O215 C231 1.260 . S
O216 Tb168 2.552 . S
O216 C224 1.243 . S
O217 Tb168 2.413 . S
O217 C232 1.256 . S
O218 Tb179 2.546 . S
O218 C243 1.251 . S
O219 Tb168 2.362 . S
O219 Tb179 2.610 . S
O219 C235 1.283 . S
O220 Tb168 2.421 . S
O220 C242 1.262 . S
O221 Tb179 2.320 . S
O221 C242 1.260 . S
O222 Tb179 2.552 . S
O222 C235 1.243 . S
O223 Tb179 2.413 . S
O223 C243 1.256 . S
C224 O213 1.283 . S
C224 O216 1.243 . S
C225 C227 1.382 . S
C225 C229 1.393 . S
C225 C232 1.500 . S
C226 C227 1.400 . S
C226 C228 1.384 . S
C227 C225 1.382 . S
C227 C226 1.400 . S
C227 H244 0.930 . S
C228 C226 1.384 . S
C228 C230 1.392 . S
C228 H245 0.931 . S
C229 C225 1.393 . S
C229 C230 1.401 . S
C229 H246 0.930 . S
C230 C228 1.392 . S
C230 C229 1.401 . S
C230 H247 0.930 . S
C231 O214 1.262 . S
C231 O215 1.260 . S
C232 Tb168 2.833 . S
C232 O212 1.251 . S
C232 O217 1.256 . S
C232 C225 1.500 . S
C233 H198 0.929 . S
C233 C211 1.444 . S
C233 C234 1.317 . S
C234 H196 0.930 . S
C234 C202 1.432 . S
C234 C233 1.317 . S
C235 O219 1.283 . S
C235 O222 1.243 . S
C236 C237 1.382 . S
C236 C240 1.393 1_655 S
C236 C243 1.500 . S
C237 C236 1.382 . S
C237 C238 1.400 1_655 S
C237 H248 0.930 . S
C238 C237 1.400 1_455 S
C238 C239 1.384 . S
C239 C238 1.384 . S
C239 C241 1.392 . S
C239 H249 0.931 . S
C240 C236 1.393 1_455 S
C240 C241 1.401 . S
C240 H250 0.930 . S
C241 C239 1.392 . S
C241 C240 1.401 . S
C241 H251 0.930 . S
C242 O220 1.262 . S
C242 O221 1.260 . S
C243 Tb179 2.833 . S
C243 O218 1.251 . S
C243 O223 1.256 . S
C243 C236 1.500 . S
H244 C227 0.930 . S
H245 C228 0.931 . S
H246 C229 0.930 . S
H247 C230 0.930 . S
H248 C237 0.930 . S
H249 C239 0.931 . S
H250 C240 0.930 . S
H251 C241 0.930 . S
Tb252 N283 2.660 . S
Tb252 N290 2.600 . S
Tb252 O296 2.546 . S
Tb252 O297 2.610 . S
Tb252 O299 2.320 . S
Tb252 O300 2.552 . S
Tb252 O301 2.413 . S
Tb252 O303 2.362 . S
Tb252 O304 2.421 . S
Tb252 C316 2.833 . S
C253 C256 1.432 . S
C253 C257 1.414 . S
C253 N260 1.359 . S
C254 C256 1.417 1_545 S
C254 C258 1.432 . S
C254 C266 1.410 . S
C255 C257 1.444 1_545 S
C255 C258 1.317 . S
C255 H278 0.929 1_554 S
C256 C253 1.432 . S
C256 C254 1.417 1_565 S
C256 N264 1.360 . S
C257 C253 1.414 . S
C257 C255 1.444 1_565 S
C257 C262 1.385 . S
C258 C254 1.432 . S
C258 C255 1.317 . S
C258 H270 0.930 . S
C259 C261 1.392 . S
C259 C262 1.370 . S
C259 H271 0.931 . S
N260 C253 1.359 . S
N260 C261 1.327 . S
N260 Tb263 2.600 . S
C261 C259 1.392 . S
C261 N260 1.327 . S
C261 H268 0.930 . S
C262 C257 1.385 . S
C262 C259 1.370 . S
C262 H281 0.930 1_554 S
Tb263 N260 2.600 . S
Tb263 N264 2.660 . S
Tb263 O297 2.362 . S
Tb263 O298 2.421 . S
Tb263 O302 2.546 . S
Tb263 O303 2.610 . S
Tb263 O305 2.320 . S
Tb263 O306 2.552 . S
Tb263 O307 2.413 . S
Tb263 C327 2.833 . S
N264 C256 1.360 . S
N264 Tb263 2.660 . S
N264 C265 1.305 1_565 S
C265 N264 1.305 1_545 S
C265 C267 1.407 . S
C265 H272 0.930 1_545 S
C266 C254 1.410 . S
C266 C267 1.345 . S
C266 H274 0.930 . S
C267 C265 1.407 . S
C267 C266 1.345 . S
C267 H269 0.930 . S
H268 C261 0.930 . S
H269 C267 0.930 . S
H270 C258 0.930 . S
H271 C259 0.931 . S
H272 C265 0.930 1_565 S
H273 C287 0.935 . S
H274 C266 0.930 . S
H275 C293 0.930 . S
H276 C284 0.930 . S
H277 C291 0.931 . S
H278 C255 0.929 1_556 S
H279 C285 0.930 . S
H280 C318 0.930 . S
H281 C262 0.930 1_556 S
H282 C317 0.929 . S
N283 Tb252 2.660 . S
N283 C284 1.305 . S
N283 C288 1.360 . S
C284 H276 0.930 . S
C284 N283 1.305 . S
C284 C287 1.407 . S
C285 H279 0.930 . S
C285 C286 1.410 . S
C285 C287 1.345 . S
C286 C285 1.410 . S
C286 C288 1.417 . S
C286 C318 1.432 . S
C287 H273 0.935 . S
C287 C284 1.407 . S
C287 C285 1.345 . S
C288 N283 1.360 . S
C288 C286 1.417 . S
C288 C292 1.432 . S
H289 C294 0.930 . S
N290 Tb252 2.600 . S
N290 C292 1.359 . S
N290 C293 1.327 . S
C291 H277 0.931 . S
C291 C293 1.392 . S
C291 C294 1.370 . S
C292 C288 1.432 . S
C292 N290 1.359 . S
C292 C295 1.414 . S
C293 H275 0.930 . S
C293 N290 1.327 . S
C293 C291 1.392 . S
C294 H289 0.930 . S
C294 C291 1.370 . S
C294 C295 1.385 . S
C295 C292 1.414 . S
C295 C294 1.385 . S
C295 C317 1.444 . S
O296 Tb252 2.546 . S
O296 C316 1.251 . S
O297 Tb252 2.610 . S
O297 Tb263 2.362 . S
O297 C308 1.283 . S
O298 Tb263 2.421 . S
O298 C315 1.262 . S
O299 Tb252 2.320 . S
O299 C315 1.260 . S
O300 Tb252 2.552 . S
O300 C308 1.243 . S
O301 Tb252 2.413 . S
O301 C316 1.256 . S
O302 Tb263 2.546 . S
O302 C327 1.251 . S
O303 Tb252 2.362 . S
O303 Tb263 2.610 . S
O303 C319 1.283 . S
O304 Tb252 2.421 . S
O304 C326 1.262 . S
O305 Tb263 2.320 . S
O305 C326 1.260 . S
O306 Tb263 2.552 . S
O306 C319 1.243 . S
O307 Tb263 2.413 . S
O307 C327 1.256 . S
C308 O297 1.283 . S
C308 O300 1.243 . S
C309 C311 1.382 . S
C309 C313 1.393 . S
C309 C316 1.500 . S
C310 C311 1.400 . S
C310 C312 1.384 . S
C311 C309 1.382 . S
C311 C310 1.400 . S
C311 H328 0.930 . S
C312 C310 1.384 . S
C312 C314 1.392 . S
C312 H329 0.931 . S
C313 C309 1.393 . S
C313 C314 1.401 . S
C313 H330 0.930 . S
C314 C312 1.392 . S
C314 C313 1.401 . S
C314 H331 0.930 . S
C315 O298 1.262 . S
C315 O299 1.260 . S
C316 Tb252 2.833 . S
C316 O296 1.251 . S
C316 O301 1.256 . S
C316 C309 1.500 . S
C317 H282 0.929 . S
C317 C295 1.444 . S
C317 C318 1.317 . S
C318 H280 0.930 . S
C318 C286 1.432 . S
C318 C317 1.317 . S
C319 O303 1.283 . S
C319 O306 1.243 . S
C320 C321 1.382 . S
C320 C324 1.393 . S
C320 C327 1.500 . S
C321 C320 1.382 . S
C321 C322 1.400 . S
C321 H332 0.930 . S
C322 C321 1.400 . S
C322 C323 1.384 . S
C323 C322 1.384 . S
C323 C325 1.392 1_455 S
C323 H333 0.931 1_455 S
C324 C320 1.393 . S
C324 C325 1.401 1_455 S
C324 H334 0.930 . S
C325 C323 1.392 1_655 S
C325 C324 1.401 1_655 S
C325 H335 0.930 . S
C326 O304 1.262 . S
C326 O305 1.260 . S
C327 Tb263 2.833 . S
C327 O302 1.251 . S
C327 O307 1.256 . S
C327 C320 1.500 . S
H328 C311 0.930 . S
H329 C312 0.931 . S
H330 C313 0.930 . S
H331 C314 0.930 . S
H332 C321 0.930 . S
H333 C323 0.931 1_655 S
H334 C324 0.930 . S
H335 C325 0.930 . S
Tb336 N367 2.660 . S
Tb336 N374 2.600 . S
Tb336 O380 2.546 . S
Tb336 O381 2.610 . S
Tb336 O383 2.320 . S
Tb336 O384 2.552 . S
Tb336 O385 2.413 . S
Tb336 O387 2.362 . S
Tb336 O388 2.421 . S
Tb336 C400 2.833 . S
C337 C340 1.432 . S
C337 C341 1.414 . S
C337 N344 1.359 . S
C338 C340 1.417 1_655 S
C338 C342 1.432 . S
C338 C350 1.410 . S
C339 C341 1.444 . S
C339 C342 1.317 1_455 S
C339 H362 0.929 1_455 S
C340 C337 1.432 . S
C340 C338 1.417 1_455 S
C340 N348 1.360 . S
C341 C337 1.414 . S
C341 C339 1.444 . S
C341 C346 1.385 . S
C342 C338 1.432 . S
C342 C339 1.317 1_655 S
C342 H354 0.930 . S
C343 C345 1.392 . S
C343 C346 1.370 . S
C343 H355 0.931 . S
N344 C337 1.359 . S
N344 C345 1.327 . S
N344 Tb347 2.600 . S
C345 C343 1.392 . S
C345 N344 1.327 . S
C345 H352 0.930 . S
C346 C341 1.385 . S
C346 C343 1.370 . S
C346 H365 0.930 . S
Tb347 N344 2.600 . S
Tb347 N348 2.660 . S
Tb347 O381 2.362 . S
Tb347 O382 2.421 . S
Tb347 O386 2.546 . S
Tb347 O387 2.610 . S
Tb347 O389 2.320 . S
Tb347 O390 2.552 . S
Tb347 O391 2.413 . S
Tb347 C411 2.833 . S
N348 C340 1.360 . S
N348 Tb347 2.660 . S
N348 C349 1.305 . S
C349 N348 1.305 . S
C349 C351 1.407 1_455 S
C349 H356 0.930 . S
C350 C338 1.410 . S
C350 C351 1.345 . S
C350 H358 0.930 . S
C351 C349 1.407 1_655 S
C351 C350 1.345 . S
C351 H353 0.930 . S
H352 C345 0.930 . S
H353 C351 0.930 . S
H354 C342 0.930 . S
H355 C343 0.931 . S
H356 C349 0.930 . S
H357 C371 0.930 1_545 S
H358 C350 0.930 . S
H359 C377 0.930 . S
H360 C368 0.930 . S
H361 C375 0.931 . S
H362 C339 0.929 1_655 S
H363 C369 0.930 . S
H364 C402 0.930 . S
H365 C346 0.930 . S
H366 C401 0.929 . S
N367 Tb336 2.660 . S
N367 C368 1.305 . S
N367 C372 1.360 . S
C368 H360 0.930 . S
C368 N367 1.305 . S
C368 C371 1.407 . S
C369 H363 0.930 . S
C369 C370 1.410 . S
C369 C371 1.345 . S
C370 C369 1.410 . S
C370 C372 1.417 . S
C370 C402 1.432 . S
C371 H357 0.930 1_565 S
C371 C368 1.407 . S
C371 C369 1.345 . S
C372 N367 1.360 . S
C372 C370 1.417 . S
C372 C376 1.432 . S
H373 C378 0.930 . S
N374 Tb336 2.600 . S
N374 C376 1.359 . S
N374 C377 1.327 . S
C375 H361 0.931 . S
C375 C377 1.392 . S
C375 C378 1.370 . S
C376 C372 1.432 . S
C376 N374 1.359 . S
C376 C379 1.414 . S
C377 H359 0.930 . S
C377 N374 1.327 . S
C377 C375 1.392 . S
C378 H373 0.930 . S
C378 C375 1.370 . S
C378 C379 1.385 . S
C379 C376 1.414 . S
C379 C378 1.385 . S
C379 C401 1.444 . S
O380 Tb336 2.546 . S
O380 C400 1.251 . S
O381 Tb336 2.610 . S
O381 Tb347 2.362 . S
O381 C392 1.283 . S
O382 Tb347 2.421 . S
O382 C399 1.262 . S
O383 Tb336 2.320 . S
O383 C399 1.260 . S
O384 Tb336 2.552 . S
O384 C392 1.243 . S
O385 Tb336 2.413 . S
O385 C400 1.256 . S
O386 Tb347 2.546 . S
O386 C411 1.251 . S
O387 Tb336 2.362 . S
O387 Tb347 2.610 . S
O387 C403 1.283 . S
O388 Tb336 2.421 . S
O388 C410 1.262 . S
O389 Tb347 2.320 . S
O389 C410 1.260 . S
O390 Tb347 2.552 . S
O390 C403 1.243 . S
O391 Tb347 2.413 . S
O391 C411 1.256 . S
C392 O381 1.283 . S
C392 O384 1.243 . S
C393 C395 1.382 . S
C393 C397 1.393 . S
C393 C400 1.500 . S
C394 C395 1.400 . S
C394 C396 1.384 . S
C395 C393 1.382 . S
C395 C394 1.400 . S
C395 H412 0.930 . S
C396 C394 1.384 . S
C396 C398 1.392 . S
C396 H413 0.931 . S
C397 C393 1.393 . S
C397 C398 1.401 . S
C397 H414 0.930 . S
C398 C396 1.392 . S
C398 C397 1.401 . S
C398 H415 0.930 . S
C399 O382 1.262 . S
C399 O383 1.260 . S
C400 Tb336 2.833 . S
C400 O380 1.251 . S
C400 O385 1.256 . S
C400 C393 1.500 . S
C401 H366 0.929 . S
C401 C379 1.444 . S
C401 C402 1.317 . S
C402 H364 0.930 . S
C402 C370 1.432 . S
C402 C401 1.317 . S
C403 O387 1.283 . S
C403 O390 1.243 . S
C404 C405 1.382 . S
C404 C408 1.393 1_565 S
C404 C411 1.500 . S
C405 C404 1.382 . S
C405 C406 1.400 . S
C405 H416 0.930 . S
C406 C405 1.400 . S
C406 C407 1.384 1_565 S
C407 C406 1.384 1_545 S
C407 C409 1.392 . S
C407 H417 0.931 . S
C408 C404 1.393 1_545 S
C408 C409 1.401 . S
C408 H418 0.930 . S
C409 C407 1.392 . S
C409 C408 1.401 . S
C409 H419 0.930 . S
C410 O388 1.262 . S
C410 O389 1.260 . S
C411 Tb347 2.833 . S
C411 O386 1.251 . S
C411 O391 1.256 . S
C411 C404 1.500 . S
H412 C395 0.930 . S
H413 C396 0.931 . S
H414 C397 0.930 . S
H415 C398 0.930 . S
H416 C405 0.930 . S
H417 C407 0.931 . S
H418 C408 0.930 . S
H419 C409 0.930 . S
Tb420 N451 2.660 . S
Tb420 N458 2.600 . S
Tb420 O464 2.546 . S
Tb420 O465 2.610 . S
Tb420 O467 2.320 . S
Tb420 O468 2.552 . S
Tb420 O469 2.413 . S
Tb420 O471 2.362 . S
Tb420 O472 2.421 . S
Tb420 C484 2.833 . S
C421 C424 1.432 . S
C421 C425 1.414 . S
C421 N428 1.359 . S
C422 C424 1.417 . S
C422 C426 1.432 . S
C422 C434 1.410 . S
C423 C425 1.444 . S
C423 C426 1.317 . S
C423 H446 0.929 . S
C424 C421 1.432 . S
C424 C422 1.417 . S
C424 N432 1.360 . S
C425 C421 1.414 . S
C425 C423 1.444 . S
C425 C430 1.385 . S
C426 C422 1.432 . S
C426 C423 1.317 . S
C426 H438 0.930 . S
C427 C429 1.392 . S
C427 C430 1.370 . S
C427 H439 0.931 . S
N428 C421 1.359 . S
N428 C429 1.327 . S
N428 Tb431 2.600 . S
C429 C427 1.392 . S
C429 N428 1.327 . S
C429 H436 0.930 . S
C430 C425 1.385 . S
C430 C427 1.370 . S
C430 H449 0.930 . S
Tb431 N428 2.600 . S
Tb431 N432 2.660 . S
Tb431 O465 2.362 . S
Tb431 O466 2.421 . S
Tb431 O470 2.546 . S
Tb431 O471 2.610 . S
Tb431 O473 2.320 . S
Tb431 O474 2.552 . S
Tb431 O475 2.413 . S
Tb431 C495 2.833 . S
N432 C424 1.360 . S
N432 Tb431 2.660 . S
N432 C433 1.305 . S
C433 N432 1.305 . S
C433 C435 1.407 . S
C433 H440 0.930 . S
C434 C422 1.410 . S
C434 C435 1.345 . S
C434 H442 0.930 . S
C435 C433 1.407 . S
C435 C434 1.345 . S
C435 H437 0.930 . S
H436 C429 0.930 . S
H437 C435 0.930 . S
H438 C426 0.930 . S
H439 C427 0.931 . S
H440 C433 0.930 . S
H441 C455 0.930 1_554 S
H442 C434 0.930 . S
H443 C461 0.930 1_545 S
H444 C452 0.930 . S
H445 C459 0.931 . S
H446 C423 0.929 . S
H447 C453 0.930 . S
H448 C486 0.931 . S
H449 C430 0.930 . S
H450 C485 0.929 1_655 S
N451 Tb420 2.660 . S
N451 C452 1.305 . S
N451 C456 1.360 . S
C452 H444 0.930 . S
C452 N451 1.305 . S
C452 C455 1.407 . S
C453 H447 0.930 . S
C453 C454 1.410 1_554 S
C453 C455 1.345 1_554 S
C454 C453 1.410 1_556 S
C454 C456 1.417 . S
C454 C486 1.431 1_546 S
C455 H441 0.930 1_556 S
C455 C452 1.407 . S
C455 C453 1.345 1_556 S
C456 N451 1.360 . S
C456 C454 1.417 . S
C456 C460 1.430 1_545 S
H457 C462 0.930 . S
N458 Tb420 2.600 . S
N458 C460 1.352 1_545 S
N458 C461 1.327 1_445 S
C459 H445 0.931 . S
C459 C461 1.392 . S
C459 C462 1.370 . S
C460 C456 1.430 1_565 S
C460 N458 1.352 1_565 S
C460 C463 1.423 . S
C461 H443 0.930 1_565 S
C461 N458 1.327 1_665 S
C461 C459 1.392 . S
C462 H457 0.930 . S
C462 C459 1.370 . S
C462 C463 1.385 1_655 S
C463 C460 1.423 . S
C463 C462 1.385 1_455 S
C463 C485 1.444 . S
O464 Tb420 2.546 . S
O464 C484 1.251 . S
O465 Tb420 2.610 . S
O465 Tb431 2.362 . S
O465 C476 1.283 . S
O466 Tb431 2.421 . S
O466 C483 1.262 . S
O467 Tb420 2.320 . S
O467 C483 1.260 . S
O468 Tb420 2.552 . S
O468 C476 1.243 . S
O469 Tb420 2.413 . S
O469 C484 1.256 . S
O470 Tb431 2.546 . S
O470 C495 1.251 . S
O471 Tb420 2.362 . S
O471 Tb431 2.610 . S
O471 C487 1.283 . S
O472 Tb420 2.421 . S
O472 C494 1.262 . S
O473 Tb431 2.320 . S
O473 C494 1.260 . S
O474 Tb431 2.552 . S
O474 C487 1.243 . S
O475 Tb431 2.413 . S
O475 C495 1.256 . S
C476 O465 1.283 . S
C476 O468 1.243 . S
C477 C479 1.382 . S
C477 C481 1.393 1_455 S
C477 C484 1.500 . S
C478 C479 1.403 . S
C478 C480 1.382 1_455 S
C479 C477 1.382 . S
C479 C478 1.403 . S
C479 H496 0.930 . S
C480 C478 1.382 1_655 S
C480 C482 1.392 . S
C480 H497 0.931 . S
C481 C477 1.393 1_655 S
C481 C482 1.401 . S
C481 H498 0.930 . S
C482 C480 1.392 . S
C482 C481 1.401 . S
C482 H499 0.930 . S
C483 O466 1.262 . S
C483 O467 1.260 . S
C484 Tb420 2.833 . S
C484 O464 1.251 . S
C484 O469 1.256 . S
C484 C477 1.500 . S
C485 H450 0.929 1_455 S
C485 C463 1.444 . S
C485 C486 1.317 1_556 S
C486 H448 0.931 . S
C486 C454 1.431 1_564 S
C486 C485 1.317 1_554 S
C487 O471 1.283 . S
C487 O474 1.243 . S
C488 C489 1.382 . S
C488 C492 1.393 . S
C488 C495 1.500 . S
C489 C488 1.382 . S
C489 C490 1.400 . S
C489 H500 0.930 . S
C490 C489 1.400 . S
C490 C491 1.384 . S
C491 C490 1.384 . S
C491 C493 1.392 . S
C491 H501 0.931 . S
C492 C488 1.393 . S
C492 C493 1.401 . S
C492 H502 0.930 . S
C493 C491 1.392 . S
C493 C492 1.401 . S
C493 H503 0.930 . S
C494 O472 1.262 . S
C494 O473 1.260 . S
C495 Tb431 2.833 . S
C495 O470 1.251 . S
C495 O475 1.256 . S
C495 C488 1.500 . S
H496 C479 0.930 . S
H497 C480 0.931 . S
H498 C481 0.930 . S
H499 C482 0.930 . S
H500 C489 0.930 . S
H501 C491 0.931 . S
H502 C492 0.930 . S
H503 C493 0.930 . S
Tb504 N535 2.660 . S
Tb504 N542 2.600 . S
Tb504 O548 2.546 . S
Tb504 O549 2.610 . S
Tb504 O551 2.320 . S
Tb504 O552 2.552 . S
Tb504 O553 2.413 . S
Tb504 O555 2.362 . S
Tb504 O556 2.421 . S
Tb504 C568 2.833 . S
C505 C508 1.432 . S
C505 C509 1.414 . S
C505 N512 1.359 . S
C506 C508 1.417 . S
C506 C510 1.432 . S
C506 C518 1.410 . S
C507 C509 1.444 . S
C507 C510 1.317 . S
C507 H530 0.929 . S
C508 C505 1.432 . S
C508 C506 1.417 . S
C508 N516 1.360 . S
C509 C505 1.414 . S
C509 C507 1.444 . S
C509 C514 1.385 . S
C510 C506 1.432 . S
C510 C507 1.317 . S
C510 H522 0.930 . S
C511 C513 1.392 . S
C511 C514 1.370 . S
C511 H523 0.931 . S
N512 C505 1.359 . S
N512 C513 1.327 . S
N512 Tb515 2.600 . S
C513 C511 1.392 . S
C513 N512 1.327 . S
C513 H520 0.930 . S
C514 C509 1.385 . S
C514 C511 1.370 . S
C514 H533 0.930 . S
Tb515 N512 2.600 . S
Tb515 N516 2.660 . S
Tb515 O549 2.362 . S
Tb515 O550 2.421 . S
Tb515 O554 2.546 . S
Tb515 O555 2.610 . S
Tb515 O557 2.320 . S
Tb515 O558 2.552 . S
Tb515 O559 2.413 . S
Tb515 C579 2.833 . S
N516 C508 1.360 . S
N516 Tb515 2.660 . S
N516 C517 1.305 . S
C517 N516 1.305 . S
C517 C519 1.407 . S
C517 H524 0.930 . S
C518 C506 1.410 . S
C518 C519 1.345 . S
C518 H526 0.930 . S
C519 C517 1.407 . S
C519 C518 1.345 . S
C519 H521 0.930 1_655 S
H520 C513 0.930 . S
H521 C519 0.930 1_455 S
H522 C510 0.930 . S
H523 C511 0.931 . S
H524 C517 0.930 . S
H525 C539 0.930 . S
H526 C518 0.930 . S
H527 C545 0.930 . S
H528 C536 0.930 1_545 S
H529 C543 0.931 . S
H530 C507 0.929 . S
H531 C537 0.930 . S
H532 C570 0.930 . S
H533 C514 0.930 . S
H534 C569 0.929 1_554 S
N535 Tb504 2.660 . S
N535 C536 1.305 1_545 S
N535 C540 1.360 . S
C536 H528 0.930 1_565 S
C536 N535 1.305 1_565 S
C536 C539 1.407 . S
C537 H531 0.930 . S
C537 C538 1.410 . S
C537 C539 1.345 . S
C538 C537 1.410 . S
C538 C540 1.417 1_565 S
C538 C570 1.432 . S
C539 H525 0.930 . S
C539 C536 1.407 . S
C539 C537 1.345 . S
C540 N535 1.360 . S
C540 C538 1.417 1_545 S
C540 C544 1.432 . S
H541 C546 0.930 1_554 S
N542 Tb504 2.600 . S
N542 C544 1.359 . S
N542 C545 1.327 . S
C543 H529 0.931 . S
C543 C545 1.392 . S
C543 C546 1.370 . S
C544 C540 1.432 . S
C544 N542 1.359 . S
C544 C547 1.414 . S
C545 H527 0.930 . S
C545 N542 1.327 . S
C545 C543 1.392 . S
C546 H541 0.930 1_556 S
C546 C543 1.370 . S
C546 C547 1.385 . S
C547 C544 1.414 . S
C547 C546 1.385 . S
C547 C569 1.444 1_545 S
O548 Tb504 2.546 . S
O548 C568 1.251 . S
O549 Tb504 2.610 . S
O549 Tb515 2.362 . S
O549 C560 1.283 . S
O550 Tb515 2.421 . S
O550 C567 1.262 . S
O551 Tb504 2.320 . S
O551 C567 1.260 . S
O552 Tb504 2.552 . S
O552 C560 1.243 . S
O553 Tb504 2.413 . S
O553 C568 1.256 . S
O554 Tb515 2.546 . S
O554 C579 1.251 . S
O555 Tb504 2.362 . S
O555 Tb515 2.610 . S
O555 C571 1.283 . S
O556 Tb504 2.421 . S
O556 C578 1.262 . S
O557 Tb515 2.320 . S
O557 C578 1.260 . S
O558 Tb515 2.552 . S
O558 C571 1.243 . S
O559 Tb515 2.413 . S
O559 C579 1.256 . S
C560 O549 1.283 . S
C560 O552 1.243 . S
C561 C563 1.382 . S
C561 C565 1.393 . S
C561 C568 1.500 . S
C562 C563 1.400 . S
C562 C564 1.384 . S
C563 C561 1.382 . S
C563 C562 1.400 . S
C563 H580 0.930 . S
C564 C562 1.384 . S
C564 C566 1.392 1_655 S
C564 H581 0.931 1_655 S
C565 C561 1.393 . S
C565 C566 1.401 1_655 S
C565 H582 0.931 1_655 S
C566 C564 1.392 1_455 S
C566 C565 1.401 1_455 S
C566 H583 0.930 . S
C567 O550 1.262 . S
C567 O551 1.260 . S
C568 Tb504 2.833 . S
C568 O548 1.251 . S
C568 O553 1.256 . S
C568 C561 1.500 . S
C569 H534 0.929 1_556 S
C569 C547 1.444 1_565 S
C569 C570 1.317 . S
C570 H532 0.930 . S
C570 C538 1.432 . S
C570 C569 1.317 . S
C571 O555 1.283 . S
C571 O558 1.243 . S
C572 C573 1.382 . S
C572 C576 1.393 . S
C572 C579 1.500 . S
C573 C572 1.382 . S
C573 C574 1.400 . S
C573 H584 0.930 . S
C574 C573 1.400 . S
C574 C575 1.384 . S
C575 C574 1.384 . S
C575 C577 1.392 . S
C575 H585 0.931 . S
C576 C572 1.393 . S
C576 C577 1.401 . S
C576 H586 0.930 . S
C577 C575 1.392 . S
C577 C576 1.401 . S
C577 H587 0.930 . S
C578 O556 1.262 . S
C578 O557 1.260 . S
C579 Tb515 2.833 . S
C579 O554 1.251 . S
C579 O559 1.256 . S
C579 C572 1.500 . S
H580 C563 0.930 . S
H581 C564 0.931 1_455 S
H582 C565 0.931 1_455 S
H583 C566 0.930 . S
H584 C573 0.930 . S
H585 C575 0.931 . S
H586 C576 0.930 . S
H587 C577 0.930 . S
Tb588 N619 2.660 . S
Tb588 N626 2.600 . S
Tb588 O632 2.546 . S
Tb588 O633 2.610 . S
Tb588 O635 2.320 . S
Tb588 O636 2.552 . S
Tb588 O637 2.413 . S
Tb588 O639 2.362 . S
Tb588 O640 2.421 . S
Tb588 C652 2.833 . S
C589 C592 1.432 . S
C589 C593 1.414 1_665 S
C589 N596 1.359 . S
C590 C592 1.417 . S
C590 C594 1.432 1_656 S
C590 C602 1.410 1_556 S
C591 C593 1.444 1_565 S
C591 C594 1.317 1_556 S
C591 H614 0.935 1_565 S
C592 C589 1.432 . S
C592 C590 1.417 . S
C592 N600 1.360 . S
C593 C589 1.414 1_445 S
C593 C591 1.444 1_545 S
C593 C598 1.385 . S
C594 C590 1.432 1_454 S
C594 C591 1.317 1_554 S
C594 H606 0.930 . S
C595 C597 1.392 . S
C595 C598 1.370 . S
C595 H607 0.931 . S
N596 C589 1.359 . S
N596 C597 1.327 1_665 S
N596 Tb599 2.600 . S
C597 C595 1.392 . S
C597 N596 1.327 1_445 S
C597 H604 0.930 1_455 S
C598 C593 1.385 . S
C598 C595 1.370 . S
C598 H617 0.930 . S
Tb599 N596 2.600 . S
Tb599 N600 2.660 . S
Tb599 O633 2.362 . S
Tb599 O634 2.421 . S
Tb599 O638 2.546 . S
Tb599 O639 2.610 . S
Tb599 O641 2.320 . S
Tb599 O642 2.552 . S
Tb599 O643 2.413 . S
Tb599 C663 2.833 . S
N600 C592 1.360 . S
N600 Tb599 2.660 . S
N600 C601 1.305 . S
C601 N600 1.305 . S
C601 C603 1.407 1_556 S
C601 H608 0.930 . S
C602 C590 1.410 1_554 S
C602 C603 1.345 . S
C602 H610 0.930 . S
C603 C601 1.407 1_554 S
C603 C602 1.345 . S
C603 H605 0.930 . S
H604 C597 0.930 1_655 S
H605 C603 0.930 . S
H606 C594 0.930 . S
H607 C595 0.931 . S
H608 C601 0.930 . S
H609 C623 0.930 . S
H610 C602 0.930 . S
H611 C629 0.930 . S
H612 C620 0.930 . S
H613 C627 0.931 . S
H614 C591 0.935 1_545 S
H615 C621 0.930 . S
H616 C654 0.930 . S
H617 C598 0.930 . S
H618 C653 0.929 . S
N619 Tb588 2.660 . S
N619 C620 1.305 . S
N619 C624 1.360 . S
C620 H612 0.930 . S
C620 N619 1.305 . S
C620 C623 1.407 . S
C621 H615 0.930 . S
C621 C622 1.410 . S
C621 C623 1.345 . S
C622 C621 1.410 . S
C622 C624 1.417 . S
C622 C654 1.432 . S
C623 H609 0.930 . S
C623 C620 1.407 . S
C623 C621 1.345 . S
C624 N619 1.360 . S
C624 C622 1.417 . S
C624 C628 1.432 . S
H625 C630 0.930 . S
N626 Tb588 2.600 . S
N626 C628 1.359 . S
N626 C629 1.327 . S
C627 H613 0.931 . S
C627 C629 1.392 . S
C627 C630 1.370 . S
C628 C624 1.432 . S
C628 N626 1.359 . S
C628 C631 1.414 . S
C629 H611 0.930 . S
C629 N626 1.327 . S
C629 C627 1.392 . S
C630 H625 0.930 . S
C630 C627 1.370 . S
C630 C631 1.385 . S
C631 C628 1.414 . S
C631 C630 1.385 . S
C631 C653 1.444 . S
O632 Tb588 2.546 . S
O632 C652 1.251 . S
O633 Tb588 2.610 . S
O633 Tb599 2.362 . S
O633 C644 1.283 . S
O634 Tb599 2.421 . S
O634 C651 1.262 . S
O635 Tb588 2.320 . S
O635 C651 1.260 . S
O636 Tb588 2.552 . S
O636 C644 1.243 . S
O637 Tb588 2.413 . S
O637 C652 1.256 . S
O638 Tb599 2.546 . S
O638 C663 1.251 . S
O639 Tb588 2.362 . S
O639 Tb599 2.610 . S
O639 C655 1.283 . S
O640 Tb588 2.421 . S
O640 C662 1.262 . S
O641 Tb599 2.320 . S
O641 C662 1.260 . S
O642 Tb599 2.552 . S
O642 C655 1.243 . S
O643 Tb599 2.413 . S
O643 C663 1.256 . S
C644 O633 1.283 . S
C644 O636 1.243 . S
C645 C647 1.382 . S
C645 C649 1.393 . S
C645 C652 1.500 . S
C646 C647 1.400 . S
C646 C648 1.384 . S
C647 C645 1.382 . S
C647 C646 1.400 . S
C647 H664 0.930 . S
C648 C646 1.384 . S
C648 C650 1.392 . S
C648 H665 0.931 . S
C649 C645 1.393 . S
C649 C650 1.401 . S
C649 H666 0.930 . S
C650 C648 1.392 . S
C650 C649 1.401 . S
C650 H667 0.930 . S
C651 O634 1.262 . S
C651 O635 1.260 . S
C652 Tb588 2.833 . S
C652 O632 1.251 . S
C652 O637 1.256 . S
C652 C645 1.500 . S
C653 H618 0.929 . S
C653 C631 1.444 . S
C653 C654 1.317 . S
C654 H616 0.930 . S
C654 C622 1.432 . S
C654 C653 1.317 . S
C655 O639 1.283 . S
C655 O642 1.243 . S
C656 C657 1.382 1_545 S
C656 C660 1.393 . S
C656 C663 1.500 1_545 S
C657 C656 1.382 1_565 S
C657 C658 1.400 1_565 S
C657 H668 0.930 . S
C658 C657 1.400 1_545 S
C658 C659 1.384 . S
C659 C658 1.384 . S
C659 C661 1.392 . S
C659 H669 0.931 . S
C660 C656 1.393 . S
C660 C661 1.401 . S
C660 H670 0.930 . S
C661 C659 1.392 . S
C661 C660 1.401 . S
C661 H671 0.930 . S
C662 O640 1.262 . S
C662 O641 1.260 . S
C663 Tb599 2.833 . S
C663 O638 1.251 . S
C663 O643 1.256 . S
C663 C656 1.500 1_565 S
H664 C647 0.930 . S
H665 C648 0.931 . S
H666 C649 0.930 . S
H667 C650 0.930 . S
H668 C657 0.930 . S
H669 C659 0.931 . S
H670 C660 0.930 . S
H671 C661 0.930 . S
C672 O684 1.241 . S
C672 O685 1.280 . S
C673 O686 1.277 . S
C673 O687 1.245 . S
C674 O698 1.247 . S
C674 O700 1.289 . S
Mg675 O676 1.926 1_455 S
Mg675 O685 1.984 1_455 S
Mg675 O687 1.988 1_455 S
Mg675 O688 2.061 . S
O676 Mg675 1.926 1_655 S
O676 Mg677 1.986 1_545 S
O676 Mg678 1.917 1_655 S
Mg677 O676 1.986 1_565 S
Mg677 O684 2.042 1_565 S
Mg677 O686 2.041 1_565 S
Mg677 O692 2.038 . S
Mg677 O700 2.238 . S
Mg678 O676 1.917 1_455 S
Mg678 O679 1.917 1_545 S
Mg678 O689 2.106 . S
Mg678 O691 2.079 1_445 S
Mg678 O700 2.106 1_445 S
Mg678 O701 2.079 . S
O679 Mg678 1.917 1_565 S
O679 Mg680 1.926 1_455 S
O679 Mg681 1.986 1_565 S
Mg680 O679 1.926 1_655 S
Mg680 O694 1.984 1_655 S
Mg680 O697 1.988 1_655 S
Mg680 O698 2.061 . S
Mg681 O679 1.986 1_545 S
Mg681 O689 2.238 . S
Mg681 O693 2.042 1_545 S
Mg681 O695 2.041 1_545 S
Mg681 O702 2.038 . S
C682 O688 1.247 . S
C682 O689 1.289 . S
C683 O701 1.245 . S
C683 O702 1.274 . S
O684 C672 1.241 . S
O684 Mg677 2.042 1_545 S
O685 C672 1.280 . S
O685 Mg675 1.984 1_655 S
O686 C673 1.277 . S
O686 Mg677 2.041 1_545 S
O687 C673 1.245 . S
O687 Mg675 1.988 1_655 S
O688 Mg675 2.061 . S
O688 C682 1.247 . S
O689 Mg678 2.106 . S
O689 Mg681 2.238 . S
O689 C682 1.289 . S
C690 O691 1.245 . S
C690 O692 1.274 . S
O691 Mg678 2.079 1_665 S
O691 C690 1.245 . S
O692 Mg677 2.038 . S
O692 C690 1.274 . S
O693 Mg681 2.042 1_565 S
O693 C696 1.241 . S
O694 Mg680 1.984 1_455 S
O694 C696 1.280 . S
O695 Mg681 2.041 1_565 S
O695 C699 1.277 . S
C696 O693 1.241 . S
C696 O694 1.280 . S
O697 Mg680 1.988 1_455 S
O697 C699 1.245 . S
O698 C674 1.247 . S
O698 Mg680 2.061 . S
C699 O695 1.277 . S
C699 O697 1.245 . S
O700 C674 1.289 . S
O700 Mg677 2.238 . S
O700 Mg678 2.106 1_665 S
O701 Mg678 2.079 . S
O701 C683 1.245 . S
O702 Mg681 2.038 . S
O702 C683 1.274 . S
C703 O715 1.241 . S
C703 O716 1.280 . S
C704 O717 1.277 . S
C704 O718 1.245 . S
C705 O729 1.247 . S
C705 O731 1.289 . S
Mg706 O707 1.926 . S
Mg706 O716 1.984 . S
Mg706 O718 1.988 1_554 S
Mg706 O719 2.061 . S
O707 Mg706 1.926 . S
O707 Mg708 1.986 1_544 S
O707 Mg709 1.917 . S
Mg708 O707 1.986 1_566 S
Mg708 O715 2.042 1_566 S
Mg708 O717 2.041 1_565 S
Mg708 O723 2.038 1_556 S
Mg708 O731 2.238 . S
Mg709 O707 1.917 . S
Mg709 O710 1.917 1_544 S
Mg709 O720 2.106 . S
Mg709 O722 2.079 1_545 S
Mg709 O731 2.106 1_544 S
Mg709 O732 2.079 1_554 S
O710 Mg709 1.917 1_566 S
O710 Mg711 1.926 . S
O710 Mg712 1.986 1_566 S
Mg711 O710 1.926 . S
Mg711 O725 1.984 . S
Mg711 O728 1.988 1_556 S
Mg711 O729 2.061 . S
Mg712 O710 1.986 1_544 S
Mg712 O720 2.238 . S
Mg712 O724 2.042 1_544 S
Mg712 O726 2.041 1_545 S
Mg712 O733 2.038 1_554 S
C713 O719 1.247 . S
C713 O720 1.289 . S
C714 O732 1.245 . S
C714 O733 1.274 . S
O715 C703 1.241 . S
O715 Mg708 2.042 1_544 S
O716 C703 1.280 . S
O716 Mg706 1.984 . S
O717 C704 1.277 . S
O717 Mg708 2.041 1_545 S
O718 C704 1.245 . S
O718 Mg706 1.988 1_556 S
O719 Mg706 2.061 . S
O719 C713 1.247 . S
O720 Mg709 2.106 . S
O720 Mg712 2.238 . S
O720 C713 1.289 . S
C721 O722 1.245 . S
C721 O723 1.274 . S
O722 Mg709 2.079 1_565 S
O722 C721 1.245 . S
O723 Mg708 2.038 1_554 S
O723 C721 1.274 . S
O724 Mg712 2.042 1_566 S
O724 C727 1.241 . S
O725 Mg711 1.984 . S
O725 C727 1.280 . S
O726 Mg712 2.041 1_565 S
O726 C730 1.277 . S
C727 O724 1.241 . S
C727 O725 1.280 . S
O728 Mg711 1.988 1_554 S
O728 C730 1.245 . S
O729 C705 1.247 . S
O729 Mg711 2.061 . S
C730 O726 1.277 . S
C730 O728 1.245 . S
O731 C705 1.289 . S
O731 Mg708 2.238 . S
O731 Mg709 2.106 1_566 S
O732 Mg709 2.079 1_556 S
O732 C714 1.245 . S
O733 Mg712 2.038 1_556 S
O733 C714 1.274 . S
C734 O746 1.241 . S
C734 O747 1.280 . S
C735 O748 1.277 . S
C735 O749 1.245 . S
C736 O760 1.247 . S
C736 O762 1.289 . S
Mg737 O738 1.926 1_455 S
Mg737 O747 1.984 1_455 S
Mg737 O749 1.988 1_454 S
Mg737 O750 2.061 . S
O738 Mg737 1.926 1_655 S
O738 Mg739 1.986 1_554 S
O738 Mg740 1.917 1_655 S
Mg739 O738 1.986 1_556 S
Mg739 O746 2.042 1_556 S
Mg739 O748 2.041 . S
Mg739 O754 2.038 1_556 S
Mg739 O762 2.238 . S
Mg740 O738 1.917 1_455 S
Mg740 O741 1.917 1_554 S
Mg740 O751 2.106 . S
Mg740 O753 2.079 1_455 S
Mg740 O762 2.106 1_454 S
Mg740 O763 2.079 1_554 S
O741 Mg740 1.917 1_556 S
O741 Mg742 1.926 1_455 S
O741 Mg743 1.986 1_556 S
Mg742 O741 1.926 1_655 S
Mg742 O756 1.984 1_655 S
Mg742 O759 1.988 1_656 S
Mg742 O760 2.061 . S
Mg743 O741 1.986 1_554 S
Mg743 O751 2.238 . S
Mg743 O755 2.042 1_554 S
Mg743 O757 2.041 . S
Mg743 O764 2.038 1_554 S
C744 O750 1.247 . S
C744 O751 1.289 . S
C745 O763 1.245 . S
C745 O764 1.274 . S
O746 C734 1.241 . S
O746 Mg739 2.042 1_554 S
O747 C734 1.280 . S
O747 Mg737 1.984 1_655 S
O748 C735 1.277 . S
O748 Mg739 2.041 . S
O749 C735 1.245 . S
O749 Mg737 1.988 1_656 S
O750 Mg737 2.061 . S
O750 C744 1.247 . S
O751 Mg740 2.106 . S
O751 Mg743 2.238 . S
O751 C744 1.289 . S
C752 O753 1.245 . S
C752 O754 1.274 . S
O753 Mg740 2.079 1_655 S
O753 C752 1.245 . S
O754 Mg739 2.038 1_554 S
O754 C752 1.274 . S
O755 Mg743 2.042 1_556 S
O755 C758 1.241 . S
O756 Mg742 1.984 1_455 S
O756 C758 1.280 . S
O757 Mg743 2.041 . S
O757 C761 1.277 . S
C758 O755 1.241 . S
C758 O756 1.280 . S
O759 Mg742 1.988 1_454 S
O759 C761 1.245 . S
O760 C736 1.247 . S
O760 Mg742 2.061 . S
C761 O757 1.277 . S
C761 O759 1.245 . S
O762 C736 1.289 . S
O762 Mg739 2.238 . S
O762 Mg740 2.106 1_656 S
O763 Mg740 2.079 1_556 S
O763 C745 1.245 . S
O764 Mg743 2.038 1_556 S
O764 C745 1.274 . S
C765 O777 1.241 . S
C765 O778 1.280 . S
C766 O779 1.277 . S
C766 O780 1.245 . S
C767 O791 1.247 . S
C767 O793 1.289 . S
Mg768 O769 1.926 . S
Mg768 O778 1.984 . S
Mg768 O780 1.988 1_554 S
Mg768 O781 2.061 . S
O769 Mg768 1.926 . S
O769 Mg770 1.986 1_554 S
O769 Mg771 1.917 . S
Mg770 O769 1.986 1_556 S
Mg770 O777 2.042 1_556 S
Mg770 O779 2.041 . S
Mg770 O785 2.038 1_556 S
Mg770 O793 2.238 . S
Mg771 O769 1.917 . S
Mg771 O772 1.917 1_554 S
Mg771 O782 2.106 . S
Mg771 O784 2.079 . S
Mg771 O793 2.106 1_554 S
Mg771 O794 2.079 1_554 S
O772 Mg771 1.917 1_556 S
O772 Mg773 1.926 . S
O772 Mg774 1.986 1_556 S
Mg773 O772 1.926 . S
Mg773 O787 1.984 . S
Mg773 O790 1.988 1_556 S
Mg773 O791 2.061 . S
Mg774 O772 1.986 1_554 S
Mg774 O782 2.238 . S
Mg774 O786 2.042 1_554 S
Mg774 O788 2.041 . S
Mg774 O795 2.038 1_554 S
C775 O781 1.247 . S
C775 O782 1.289 . S
C776 O794 1.245 . S
C776 O795 1.274 . S
O777 C765 1.241 . S
O777 Mg770 2.042 1_554 S
O778 C765 1.280 . S
O778 Mg768 1.984 . S
O779 C766 1.277 . S
O779 Mg770 2.041 . S
O780 C766 1.245 . S
O780 Mg768 1.988 1_556 S
O781 Mg768 2.061 . S
O781 C775 1.247 . S
O782 Mg771 2.106 . S
O782 Mg774 2.238 . S
O782 C775 1.289 . S
C783 O784 1.245 . S
C783 O785 1.274 . S
O784 Mg771 2.079 . S
O784 C783 1.245 . S
O785 Mg770 2.038 1_554 S
O785 C783 1.274 . S
O786 Mg774 2.042 1_556 S
O786 C789 1.241 . S
O787 Mg773 1.984 . S
O787 C789 1.280 . S
O788 Mg774 2.041 . S
O788 C792 1.277 . S
C789 O786 1.241 . S
C789 O787 1.280 . S
O790 Mg773 1.988 1_554 S
O790 C792 1.245 . S
O791 C767 1.247 . S
O791 Mg773 2.061 . S
C792 O788 1.277 . S
C792 O790 1.245 . S
O793 C767 1.289 . S
O793 Mg770 2.238 . S
O793 Mg771 2.106 1_556 S
O794 Mg771 2.079 1_556 S
O794 C776 1.245 . S
O795 Mg774 2.038 1_556 S
O795 C776 1.274 . S
C796 O808 1.241 . S
C796 O809 1.280 . S
C797 O810 1.277 . S
C797 O811 1.245 . S
C798 O822 1.247 . S
C798 O824 1.289 . S
Mg799 O800 1.926 1_455 S
Mg799 O809 1.984 1_455 S
Mg799 O811 1.988 1_455 S
Mg799 O812 2.061 . S
O800 Mg799 1.926 1_655 S
O800 Mg801 1.986 . S
O800 Mg802 1.917 1_655 S
Mg801 O800 1.986 . S
Mg801 O808 2.042 . S
Mg801 O810 2.041 . S
Mg801 O816 2.038 . S
Mg801 O824 2.238 . S
Mg802 O800 1.917 1_455 S
Mg802 O803 1.917 . S
Mg802 O813 2.106 . S
Mg802 O815 2.079 1_455 S
Mg802 O824 2.106 1_455 S
Mg802 O825 2.079 . S
O803 Mg802 1.917 . S
O803 Mg804 1.926 1_455 S
O803 Mg805 1.986 . S
Mg804 O803 1.926 1_655 S
Mg804 O818 1.984 1_655 S
Mg804 O821 1.988 1_655 S
Mg804 O822 2.061 . S
Mg805 O803 1.986 . S
Mg805 O813 2.238 . S
Mg805 O817 2.042 . S
Mg805 O819 2.041 . S
Mg805 O826 2.038 . S
C806 O812 1.247 . S
C806 O813 1.289 . S
C807 O825 1.245 . S
C807 O826 1.274 . S
O808 C796 1.241 . S
O808 Mg801 2.042 . S
O809 C796 1.280 . S
O809 Mg799 1.984 1_655 S
O810 C797 1.277 . S
O810 Mg801 2.041 . S
O811 C797 1.245 . S
O811 Mg799 1.988 1_655 S
O812 Mg799 2.061 . S
O812 C806 1.247 . S
O813 Mg802 2.106 . S
O813 Mg805 2.238 . S
O813 C806 1.289 . S
C814 O815 1.245 . S
C814 O816 1.274 . S
O815 Mg802 2.079 1_655 S
O815 C814 1.245 . S
O816 Mg801 2.038 . S
O816 C814 1.274 . S
O817 Mg805 2.042 . S
O817 C820 1.241 . S
O818 Mg804 1.984 1_455 S
O818 C820 1.280 . S
O819 Mg805 2.041 . S
O819 C823 1.277 . S
C820 O817 1.241 . S
C820 O818 1.280 . S
O821 Mg804 1.988 1_455 S
O821 C823 1.245 . S
O822 C798 1.247 . S
O822 Mg804 2.061 . S
C823 O819 1.277 . S
C823 O821 1.245 . S
O824 C798 1.289 . S
O824 Mg801 2.238 . S
O824 Mg802 2.106 1_655 S
O825 Mg802 2.079 . S
O825 C807 1.245 . S
O826 Mg805 2.038 . S
O826 C807 1.274 . S
C827 O839 1.241 . S
C827 O840 1.280 . S
C828 O841 1.277 . S
C828 O842 1.245 . S
C829 O853 1.247 . S
C829 O855 1.289 . S
Mg830 O831 1.926 . S
Mg830 O840 1.984 . S
Mg830 O842 1.988 . S
Mg830 O843 2.061 . S
O831 Mg830 1.926 . S
O831 Mg832 1.986 1_545 S
O831 Mg833 1.917 . S
Mg832 O831 1.986 1_565 S
Mg832 O839 2.042 1_565 S
Mg832 O841 2.041 1_565 S
Mg832 O847 2.038 . S
Mg832 O855 2.238 . S
Mg833 O831 1.917 . S
Mg833 O834 1.917 1_545 S
Mg833 O844 2.106 . S
Mg833 O846 2.079 1_545 S
Mg833 O855 2.106 1_545 S
Mg833 O856 2.079 . S
O834 Mg833 1.917 1_565 S
O834 Mg835 1.926 . S
O834 Mg836 1.986 1_565 S
Mg835 O834 1.926 . S
Mg835 O849 1.984 . S
Mg835 O852 1.988 . S
Mg835 O853 2.061 . S
Mg836 O834 1.986 1_545 S
Mg836 O844 2.238 . S
Mg836 O848 2.042 1_545 S
Mg836 O850 2.041 1_545 S
Mg836 O857 2.038 . S
C837 O843 1.247 . S
C837 O844 1.289 . S
C838 O856 1.245 . S
C838 O857 1.274 . S
O839 C827 1.241 . S
O839 Mg832 2.042 1_545 S
O840 C827 1.280 . S
O840 Mg830 1.984 . S
O841 C828 1.277 . S
O841 Mg832 2.041 1_545 S
O842 C828 1.245 . S
O842 Mg830 1.988 . S
O843 Mg830 2.061 . S
O843 C837 1.247 . S
O844 Mg833 2.106 . S
O844 Mg836 2.238 . S
O844 C837 1.289 . S
C845 O846 1.245 . S
C845 O847 1.274 . S
O846 Mg833 2.079 1_565 S
O846 C845 1.245 . S
O847 Mg832 2.038 . S
O847 C845 1.274 . S
O848 Mg836 2.042 1_565 S
O848 C851 1.241 . S
O849 Mg835 1.984 . S
O849 C851 1.280 . S
O850 Mg836 2.041 1_565 S
O850 C854 1.277 . S
C851 O848 1.241 . S
C851 O849 1.280 . S
O852 Mg835 1.988 . S
O852 C854 1.245 . S
O853 C829 1.247 . S
O853 Mg835 2.061 . S
C854 O850 1.277 . S
C854 O852 1.245 . S
O855 C829 1.289 . S
O855 Mg832 2.238 . S
O855 Mg833 2.106 1_565 S
O856 Mg833 2.079 . S
O856 C838 1.245 . S
O857 Mg836 2.038 . S
O857 C838 1.274 . S
C683 C74 2.076 . S
C673 C142 2.522 . S
C674 C231 1.904 . S
C322 C696 1.869 . S
C406 C699 2.523 . S
C682 C494 1.904 . S
C562 C672 1.869 . S
C651 C690 2.075 . S
C703 C58 2.051 1_545 S
C151 C752 2.243 . S
C730 C224 3.594 . S
C744 C315 1.716 . S
C399 C705 1.738 . S
C758 C478 2.601 . S
C571 C714 1.969 . S
C644 C735 3.506 . S
C67 C761 3.506 . S
C392 C745 2.244 . S
C704 C487 3.595 . S
C736 C578 1.716 . S
C658 C727 2.050 1_545 S
C238 C734 2.600 1_455 S
C721 C308 1.970 . S
C158 C713 1.738 . S
C662 C776 2.076 . S
C394 C766 2.522 . S
C767 C483 1.904 . S
C789 C574 1.869 . S
C154 C792 2.523 . S
C775 C242 1.904 . S
C310 C765 1.869 . S
C63 C783 2.075 . S
C646 C796 2.050 . S
C845 C403 2.243 . S
C476 C823 3.594 . S
C567 C837 1.716 . S
C798 C147 1.738 . S
C226 C851 2.600 . S
C807 C319 1.970 . S
C828 C56 3.506 . S
C854 C655 3.506 . S
C140 C838 2.243 . S
C235 C797 3.595 . S
C829 C326 1.715 . S
C70 C820 2.050 . S
C490 C827 2.600 . S
C814 C560 1.969 . S
C806 C410 1.738 . S
