# Generated by pormake.
# Topology scu, (8,4)-cn, num edge types: 1
# Building blocks:
#     Node 0, Type 0, BuildingBlock: VETTIZ_charged_sbu_0, # of connection points: 8
#     Node 1, Type 1, BuildingBlock: ESEHIV_clean_sbu_0, # of connection points: 4
#     Node 2, Type 1, BuildingBlock: ESEHIV_clean_sbu_0, # of connection points: 4
#     Edge 3, Type (0, 1), BuildingBlock: MIFKUJ_clean_linker_0, # of connection points: 2
#     Edge 4, Type (0, 1), BuildingBlock: MIFKUJ_clean_linker_0, # of connection points: 2
#     Edge 5, Type (0, 1), BuildingBlock: MIFKUJ_clean_linker_0, # of connection points: 2
#     Edge 6, Type (0, 1), BuildingBlock: MIFKUJ_clean_linker_0, # of connection points: 2
#     Edge 7, Type (0, 1), BuildingBlock: MIFKUJ_clean_linker_0, # of connection points: 2
#     Edge 8, Type (0, 1), BuildingBlock: MIFKUJ_clean_linker_0, # of connection points: 2
#     Edge 9, Type (0, 1), BuildingBlock: MIFKUJ_clean_linker_0, # of connection points: 2
#     Edge 10, Type (0, 1), BuildingBlock: MIFKUJ_clean_linker_0, # of connection points: 2
# Relax obj value: 0.003
# Max RMSD: 0.097
# Mean RMSD: 0.073
data_MOF--net-scu--node1-VETTIZ_charged_sbu_0--node2-ESEHIV_clean_sbu_0--edge1-MIFKUJ_clean_linker_0
_symmetry_space_group_name_H-M    P1
_symmetry_Int_Tables_number       1
_symmetry_cell_setting            triclinic
loop_
_symmetry_equiv_pos_as_xyz
'x, y, z'
_cell_length_a     33.835376
_cell_length_b     33.89428
_cell_length_c     24.355235
_cell_angle_alpha  92.286269
_cell_angle_beta   92.013774
_cell_angle_gamma 91.555908
loop_
_atom_site_label
_atom_site_type_symbol
_atom_site_fract_x
_atom_site_fract_y
_atom_site_fract_z
_atom_type_partial_charge
Fe0 Fe 0.02565 0.05389 0.14356 0.0
O1 O 0.01831 0.0505 0.06335 0.0
Fe2 Fe 0.03289 0.99734 0.02239 0.0
Fe3 Fe 0.96705 0.06013 0.02336 0.0
O4 O 0.02151 0.04798 0.06296 0.0
O5 O 0.98118 1.0064 0.98314 0.0
O6 O 0.97844 1.00948 0.98286 0.0
Fe7 Fe 0.97461 1.00259 0.90257 0.0
C8 C 0.93609 0.03322 0.1309 0.0
O9 O 0.01668 0.11296 0.13165 0.0
O10 O 0.96203 0.11247 0.07231 0.0
O11 O 0.03445 1.00119 0.88918 0.0
O12 O 0.06394 0.02778 0.96519 0.0
O13 O 0.0868 0.9965 0.06951 0.0
O14 O 0.08494 0.05218 0.12746 0.0
O15 O 0.99741 0.09281 0.96798 0.0
O16 O 0.97568 0.06264 0.88908 0.0
C17 C 0.10349 0.02349 0.10345 0.0
O18 O 0.97965 0.9435 0.9176 0.0
O19 O 0.03619 0.94418 0.97416 0.0
O20 O 0.96577 0.049 0.15807 0.0
O21 O 0.93524 0.02893 0.07866 0.0
C22 C 0.9866 0.12976 0.10877 0.0
C23 C 0.9914 0.09243 0.91605 0.0
C24 C 0.89739 0.03781 0.93911 0.0
O25 O 0.91417 0.06324 0.97493 0.0
O26 O 0.9152 1.00833 0.9161 0.0
C27 C 0.06489 0.01649 0.9148 0.0
O28 O 1.0044 0.9643 0.07945 0.0
O29 O 0.0303 0.99431 0.15553 0.0
C30 C 1.00951 0.92642 0.94089 0.0
C31 C 0.01573 0.96362 0.12978 0.0
Cu32 Cu 0.04195 0.52394 0.51675 0.0
N33 N 0.07223 0.4875 0.55522 0.0
N34 N 0.08309 0.43506 0.60649 0.0
C35 C 0.05609 0.45553 0.57802 0.0
C36 C 0.11776 0.45504 0.60136 0.0
C37 C 0.111 0.48731 0.56972 0.0
O38 O 1.00359 0.49164 0.47195 0.0
C39 C 0.05027 0.58049 0.59766 0.0
O40 O 0.08671 0.57317 0.5844 0.0
H41 H 0.02473 0.44824 0.5751 0.0
H42 H 0.13275 0.50946 0.55942 0.0
N43 N 0.06956 0.55526 0.46813 0.0
N44 N 0.07895 0.60497 0.41174 0.0
C45 C 0.0524 0.58369 0.4392 0.0
C46 C 0.10839 0.55836 0.45812 0.0
C47 C 0.11429 0.58921 0.42358 0.0
C48 C 0.0212 0.4675 0.44034 0.0
O49 O 0.06006 0.46933 0.44034 0.0
H50 H 0.02118 0.58976 0.4403 0.0
H51 H 0.131 0.54027 0.47559 0.0
O52 O 0.0221 0.56091 0.57202 0.0
H53 H 0.146 0.44708 0.61932 0.0
H54 H 0.14239 0.59951 0.40877 0.0
Cu55 Cu 0.50386 0.97978 0.526 0.0
N56 N 0.47168 0.95235 0.57381 0.0
N57 N 0.42248 0.9434 0.63164 0.0
C58 C 0.44447 0.96985 0.60498 0.0
C59 C 0.43651 0.90778 0.61683 0.0
C60 C 0.46703 0.91339 0.58139 0.0
O61 O 0.46802 1.00106 0.47055 0.0
C62 C 0.5609 0.99997 0.60258 0.0
O63 O 0.55983 0.96116 0.60158 0.0
H64 H 0.4398 1.00134 0.60617 0.0
H65 H 0.48386 0.89058 0.56165 0.0
N66 N 0.54009 0.94885 0.48745 0.0
N67 N 0.59258 0.93692 0.43632 0.0
C68 C 0.57402 0.96368 0.468 0.0
C69 C 0.5373 0.91115 0.46763 0.0
C70 C 0.56953 0.9038 0.43583 0.0
C71 C 0.44804 0.97408 0.44299 0.0
O72 O 0.45299 0.93719 0.45553 0.0
H73 H 0.58397 0.99416 0.47491 0.0
H74 H 0.51294 0.89076 0.47395 0.0
O75 O 0.53637 0.01749 0.57166 0.0
H76 H 0.42529 0.87968 0.63024 0.0
H77 H 0.57525 0.87646 0.41338 0.0
H78 H 0.91901 0.17317 0.09485 0.0
H79 H 0.90399 0.23579 0.14366 0.0
H80 H 0.02043 0.23953 0.22148 0.0
H81 H 0.03608 0.17843 0.1728 0.0
H82 H 0.94401 0.24089 0.29185 0.0
H83 H 0.01768 0.29921 0.14116 0.0
H84 H 0.0255 0.3122 0.04313 0.0
H85 H 0.91099 0.36377 0.03586 0.0
H86 H 0.90234 0.35055 0.13379 0.0
H87 H 0.04799 0.39466 0.42149 0.0
H88 H 0.01956 0.342 0.36076 0.0
H89 H 0.91961 0.41369 0.32264 0.0
H90 H 0.94829 0.4673 0.38497 0.0
H91 H 0.95866 0.37741 0.22754 0.0
H92 H 0.89817 0.33779 0.38961 0.0
H93 H 0.89408 0.32594 0.48849 0.0
H94 H 0.98329 0.2387 0.47563 0.0
H95 H 0.9884 0.25041 0.37687 0.0
C96 C 0.94169 0.18782 0.12141 0.0
C97 C 0.97862 0.17037 0.13026 0.0
C98 C 0.93297 0.22346 0.14937 0.0
C99 C 0.96104 0.24192 0.18645 0.0
C100 C 0.99833 0.22555 0.19326 0.0
C101 C 1.00715 0.19048 0.16526 0.0
C102 C 0.95174 0.27669 0.22187 0.0
C103 C 0.94651 0.27082 0.27784 0.0
C104 C 0.9539 0.31556 0.20311 0.0
C105 C 0.9591 0.32333 0.14441 0.0
C106 C 0.99398 0.31287 0.11846 0.0
C107 C 0.99863 0.32039 0.06298 0.0
C108 C 0.96869 0.33865 0.03321 0.0
C109 C 0.9341 0.34952 0.05892 0.0
C110 C 0.92932 0.34203 0.11439 0.0
C111 C 0.01972 0.39922 0.40074 0.0
C112 C 1.00035 0.43507 0.40784 0.0
C113 C 1.00342 0.36899 0.36614 0.0
C114 C 0.9674 0.37381 0.33735 0.0
C115 C 0.94741 0.40939 0.34471 0.0
C116 C 0.9636 0.43978 0.38044 0.0
C117 C 0.95281 0.34158 0.29815 0.0
C118 C 0.95396 0.34771 0.24149 0.0
C119 C 0.94694 0.30278 0.31631 0.0
C120 C 0.94362 0.29501 0.37566 0.0
C121 C 0.91704 0.31618 0.40787 0.0
C122 C 0.91454 0.30949 0.46394 0.0
C123 C 0.93841 0.28159 0.48832 0.0
C124 C 0.96477 0.26026 0.45666 0.0
C125 C 0.9674 0.26684 0.40057 0.0
H126 H 0.93648 0.27649 0.53175 0.0
H127 H 0.97236 0.34449 0.99028 0.0
H128 H 0.86206 0.01019 0.08921 0.0
H129 H 0.80394 0.99162 0.1405 0.0
H130 H 0.87203 1.00921 0.29296 0.0
H131 H 0.93024 0.02754 0.24219 0.0
H132 H 0.82697 0.94378 0.29547 0.0
H133 H 0.80946 0.07684 0.25098 0.0
H134 H 0.80459 0.13465 0.19323 0.0
H135 H 0.70219 0.08197 0.10761 0.0
H136 H 0.70727 0.02295 0.16337 0.0
H137 H 0.65779 0.9804 0.46994 0.0
H138 H 0.71696 0.99343 0.4169 0.0
H139 H 0.66541 0.92316 0.27996 0.0
H140 H 0.60671 0.90917 0.33336 0.0
H141 H 0.70144 0.01435 0.27003 0.0
H142 H 0.72546 0.87799 0.31927 0.0
H143 H 0.73249 0.8254 0.38573 0.0
H144 H 0.82472 0.89354 0.47406 0.0
H145 H 0.81772 0.94685 0.40856 0.0
C146 C 0.86477 0.00996 0.13364 0.0
C147 C 0.90089 0.02064 0.1615 0.0
C148 C 0.83142 0.99947 0.16295 0.0
C149 C 0.83344 0.99937 0.2207 0.0
C150 C 0.86967 1.00909 0.24848 0.0
C151 C 0.90293 0.01978 0.21929 0.0
C152 C 0.79774 0.98973 0.25231 0.0
C153 C 0.79964 0.95943 0.28997 0.0
C154 C 0.76195 0.01011 0.24544 0.0
C155 C 0.75914 0.04512 0.21086 0.0
C156 C 0.78628 0.0772 0.2192 0.0
C157 C 0.78349 0.11019 0.18679 0.0
C158 C 0.75329 0.11178 0.14641 0.0
C159 C 0.72581 0.0804 0.13844 0.0
C160 C 0.72867 0.04714 0.17038 0.0
C161 C 0.65924 0.96762 0.42862 0.0
C162 C 0.62776 0.94366 0.40581 0.0
C163 C 0.693 0.97499 0.39847 0.0
C164 C 0.69552 0.95915 0.34463 0.0
C165 C 0.66405 0.93548 0.32156 0.0
C166 C 0.63069 0.92736 0.35214 0.0
C167 C 0.73069 0.96811 0.31205 0.0
C168 C 0.72872 0.99853 0.27472 0.0
C169 C 0.76664 0.9485 0.32001 0.0
C170 C 0.77062 0.91664 0.35955 0.0
C171 C 0.74684 0.88199 0.3533 0.0
C172 C 0.75092 0.85199 0.39067 0.0
C173 C 0.77892 0.85619 0.43423 0.0
C174 C 0.80297 0.89037 0.4404 0.0
C175 C 0.79895 0.92047 0.40316 0.0
H176 H 0.78207 0.83291 0.46309 0.0
H177 H 0.75105 0.13743 0.12151 0.0
H178 H 0.97794 0.89245 0.09909 0.0
H179 H 0.98436 0.82917 0.14445 0.0
H180 H 0.06381 0.88529 0.26776 0.0
H181 H 0.05726 0.94819 0.22391 0.0
H182 H 0.09059 0.81175 0.20828 0.0
H183 H 0.98324 0.86733 0.31012 0.0
H184 H 0.9171 0.89533 0.3185 0.0
H185 H 0.86373 0.78928 0.24318 0.0
H186 H 0.92968 0.7609 0.23349 0.0
H187 H 0.12438 0.67161 0.40892 0.0
H188 H 0.1101 0.73069 0.35826 0.0
H189 H 1.0021 0.67446 0.29073 0.0
H190 H 0.01558 0.61607 0.3439 0.0
H191 H 0.98687 0.74575 0.31389 0.0
H192 H 0.09124 0.68783 0.21401 0.0
H193 H 0.15643 0.659 0.19985 0.0
H194 H 0.21411 0.76673 0.26268 0.0
H195 H 0.14925 0.79597 0.27803 0.0
C196 C 0.99647 0.89134 0.13615 0.0
C197 C 0.01696 0.92549 0.15786 0.0
C198 C 1.00009 0.85522 0.16197 0.0
C199 C 0.0247 0.85263 0.20931 0.0
C200 C 0.04485 0.88665 0.23115 0.0
C201 C 0.0408 0.92269 0.20608 0.0
C202 C 0.03092 0.81438 0.23544 0.0
C203 C 0.06805 0.79732 0.23167 0.0
C204 C 1.00108 0.79517 0.26452 0.0
C205 C 0.96145 0.8122 0.27039 0.0
C206 C 0.95745 0.85015 0.29474 0.0
C207 C 0.91999 0.86606 0.29988 0.0
C208 C 0.88624 0.84415 0.28122 0.0
C209 C 0.8899 0.80625 0.25751 0.0
C210 C 0.92732 0.79024 0.25219 0.0
C211 C 0.0978 0.67181 0.38288 0.0
C212 C 0.07125 0.63916 0.38 0.0
C213 C 0.08965 0.70556 0.35366 0.0
C214 C 0.05537 0.707 0.31939 0.0
C215 C 0.02877 0.6743 0.31664 0.0
C216 C 0.0365 0.64087 0.3469 0.0
C217 C 0.047 0.74284 0.28743 0.0
C218 C 1.00944 0.75964 0.29004 0.0
C219 C 0.07632 0.76158 0.25641 0.0
C220 C 0.11538 0.74401 0.24745 0.0
C221 C 0.11783 0.70527 0.22514 0.0
C222 C 0.15472 0.68886 0.21687 0.0
C223 C 0.18939 0.71099 0.23042 0.0
C224 C 0.18724 0.74961 0.2522 0.0
C225 C 0.15042 0.76614 0.26063 0.0
H226 H 0.21792 0.69824 0.22398 0.0
H227 H 0.85726 0.8565 0.28531 0.0
H228 H 0.15142 0.95937 0.09055 0.0
H229 H 0.21699 0.95133 0.13424 0.0
H230 H 0.21574 0.07103 0.20123 0.0
H231 H 0.15142 0.0797 0.15674 0.0
H232 H 0.28851 0.05374 0.17495 0.0
H233 H 0.18328 0.99007 0.27387 0.0
H234 H 0.12739 0.9426 0.28203 0.0
H235 H 0.20248 0.84657 0.24046 0.0
H236 H 0.25867 0.89353 0.23143 0.0
H237 H 0.41189 0.04416 0.42055 0.0
H238 H 0.35897 0.05363 0.35082 0.0
H239 H 0.36684 0.93191 0.2943 0.0
H240 H 0.41856 0.9222 0.36374 0.0
H241 H 0.29325 0.94763 0.30924 0.0
H242 H 0.39987 1.00936 0.21781 0.0
H243 H 0.45619 0.05585 0.20754 0.0
H244 H 0.38024 0.15391 0.23266 0.0
H245 H 0.32353 0.10798 0.24385 0.0
C246 C 0.16552 0.98423 0.11354 0.0
C247 C 0.14571 0.01991 0.12096 0.0
C248 C 0.2029 0.97953 0.1388 0.0
C249 C 0.2209 0.01031 0.17219 0.0
C250 C 0.20243 0.04676 0.17611 0.0
C251 C 0.16537 0.05153 0.15081 0.0
C252 C 0.25705 1.00408 0.20701 0.0
C253 C 0.28952 0.03064 0.2045 0.0
C254 C 0.25871 0.97356 0.245 0.0
C255 C 0.22505 0.94533 0.25143 0.0
C256 C 0.1878 0.95884 0.26622 0.0
C257 C 0.15607 0.93203 0.271 0.0
C258 C 0.16135 0.8916 0.26162 0.0
C259 C 0.1984 0.87789 0.24765 0.0
C260 C 0.2302 0.90458 0.24272 0.0
C261 C 0.40259 0.01967 0.39273 0.0
C262 C 0.41917 0.98239 0.39801 0.0
C263 C 0.37242 0.02508 0.35282 0.0
C264 C 0.35883 0.99342 0.3172 0.0
C265 C 0.37647 0.95669 0.32145 0.0
C266 C 0.40616 0.95124 0.36129 0.0
C267 C 0.32481 0.99743 0.27749 0.0
C268 C 0.29257 0.97051 0.27934 0.0
C269 C 0.3235 0.0275 0.23884 0.0
C270 C 0.35753 0.05521 0.23222 0.0
C271 C 0.39524 0.04084 0.22162 0.0
C272 C 0.42722 0.06709 0.21554 0.0
C273 C 0.42182 0.10781 0.21959 0.0
C274 C 0.38439 0.12236 0.22961 0.0
C275 C 0.35231 0.09623 0.23578 0.0
H276 H 0.44662 0.12809 0.21485 0.0
H277 H 0.13679 0.87088 0.26531 0.0
H278 H 0.07873 0.88711 0.9284 0.0
H279 H 0.08599 0.82272 0.88052 0.0
H280 H 0.959 0.80809 0.8641 0.0
H281 H 0.95161 0.87185 0.91203 0.0
H282 H 0.99278 0.73797 0.88035 0.0
H283 H 1.01033 0.84916 0.76708 0.0
H284 H 0.04057 0.91176 0.73874 0.0
H285 H 0.15182 0.85567 0.72037 0.0
H286 H 0.12274 0.79312 0.75092 0.0
H287 H 0.97966 0.60865 0.63549 0.0
H288 H 0.97163 0.6634 0.70344 0.0
H289 H 0.09845 0.67762 0.72324 0.0
H290 H 0.1067 0.62385 0.65635 0.0
H291 H 0.06408 0.74717 0.70661 0.0
H292 H 0.04579 0.63575 0.82103 0.0
H293 H 0.01431 0.57325 0.8477 0.0
H294 H 0.90259 0.62967 0.85859 0.0
H295 H 0.93332 0.69242 0.83122 0.0
C296 C 0.05243 0.86958 0.91604 0.0
C297 C 0.0146 0.88466 0.92336 0.0
C298 C 0.05658 0.83295 0.88838 0.0
C299 C 0.02299 0.81094 0.86789 0.0
C300 C 0.9853 0.82458 0.87929 0.0
C301 C 0.98114 0.86114 0.90647 0.0
C302 C 0.02664 0.77605 0.82975 0.0
C303 C 1.00823 0.74 0.84223 0.0
C304 C 0.04679 0.77872 0.77996 0.0
C305 C 0.06447 0.81653 0.76217 0.0
C306 C 0.04142 0.8503 0.75789 0.0
C307 C 0.05837 0.88581 0.74147 0.0
C308 C 0.09817 0.88776 0.72813 0.0
C309 C 0.12108 0.8542 0.73117 0.0
C310 C 0.10442 0.81874 0.74824 0.0
C311 C 1.00572 0.62335 0.65467 0.0
C312 C 0.04376 0.61195 0.64023 0.0
C313 C 1.00114 0.65451 0.69353 0.0
C314 C 0.03451 0.67459 0.71839 0.0
C315 C 0.07231 0.66275 0.70446 0.0
C316 C 0.07689 0.63182 0.66609 0.0
C317 C 0.03079 0.70891 0.75755 0.0
C318 C 0.04894 0.74502 0.74496 0.0
C319 C 1.01026 0.70631 0.80693 0.0
C320 C 0.99177 0.66866 0.82349 0.0
C321 C 0.01444 0.63474 0.82864 0.0
C322 C 0.99675 0.59929 0.84398 0.0
C323 C 0.95645 0.59746 0.85468 0.0
C324 C 0.93379 0.63111 0.8502 0.0
C325 C 0.95133 0.66664 0.83482 0.0
H326 H 0.94281 0.56998 0.86656 0.0
H327 H 0.11117 0.91518 0.71502 0.0
H328 H 0.08123 0.97513 0.82038 0.0
H329 H 0.14513 0.96699 0.77901 0.0
H330 H 0.20019 0.04608 0.90364 0.0
H331 H 0.13597 0.05402 0.94665 0.0
H332 H 0.22167 0.05533 0.782 0.0
H333 H 0.21398 0.96178 0.92558 0.0
H334 H 0.17947 0.90982 0.97504 0.0
H335 H 0.17626 0.83369 0.82973 0.0
H336 H 0.20983 0.88568 0.77886 0.0
H337 H 0.41454 1.00622 0.70203 0.0
H338 H 0.35716 0.02157 0.75669 0.0
H339 H 0.29683 0.91541 0.69029 0.0
H340 H 0.35494 0.8993 0.63758 0.0
H341 H 0.28005 0.92287 0.79084 0.0
H342 H 0.27862 0.01317 0.64418 0.0
H343 H 0.30512 0.06473 0.58579 0.0
H344 H 0.3195 0.14492 0.72651 0.0
H345 H 0.29356 0.09363 0.78589 0.0
C346 C 0.10667 0.99135 0.83887 0.0
C347 C 0.10333 0.01532 0.88703 0.0
C348 C 0.14325 0.98648 0.8151 0.0
C349 C 0.17734 1.00575 0.83836 0.0
C350 C 0.17412 0.03098 0.88508 0.0
C351 C 0.13746 0.03542 0.90961 0.0
C352 C 0.21635 0.9976 0.81486 0.0
C353 C 0.23501 0.02669 0.7848 0.0
C354 C 0.23282 0.95974 0.81705 0.0
C355 C 0.21398 0.92787 0.84816 0.0
C356 C 0.20558 0.93413 0.90396 0.0
C357 C 0.18617 0.90466 0.93226 0.0
C358 C 0.17545 0.86856 0.90542 0.0
C359 C 0.18438 0.86176 0.85034 0.0
C360 C 0.2036 0.89123 0.82176 0.0
C361 C 0.38901 0.98619 0.69928 0.0
C362 C 0.38916 0.95166 0.66534 0.0
C363 C 0.35609 0.99504 0.73035 0.0
C364 C 0.32204 0.97015 0.72698 0.0
C365 C 0.32255 0.93521 0.69383 0.0
C366 C 0.3558 0.92596 0.66364 0.0
C367 C 0.28575 0.98061 0.75723 0.0
C368 C 0.26731 0.9518 0.78847 0.0
C369 C 0.26901 0.01854 0.75516 0.0
C370 C 0.28459 0.04942 0.71956 0.0
C371 C 0.28772 0.04171 0.66273 0.0
C372 C 0.30259 0.07089 0.62945 0.0
C373 C 0.3141 0.10804 0.65245 0.0
C374 C 0.31065 0.11611 0.70877 0.0
C375 C 0.29585 0.087 0.74225 0.0
H376 H 0.3256 0.1306 0.62662 0.0
H377 H 0.16037 0.8458 0.92735 0.0
H378 H 0.9582 0.11578 0.81943 0.0
H379 H 0.97507 0.17415 0.76875 0.0
H380 H 0.066 0.20769 0.89182 0.0
H381 H 0.04768 0.15015 0.94426 0.0
H382 H 0.03167 0.2703 0.86349 0.0
H383 H 0.08492 0.16282 0.75894 0.0
H384 H 0.08368 0.09812 0.70874 0.0
H385 H 0.99601 0.13853 0.5939 0.0
H386 H 0.99632 0.2033 0.64386 0.0
H387 H 0.12526 0.41116 0.69575 0.0
H388 H 0.11171 0.35303 0.74927 0.0
H389 H 1.01034 0.32212 0.64241 0.0
H390 H 0.02426 0.37957 0.58799 0.0
H391 H 0.05317 0.2582 0.66318 0.0
H392 H 1.00055 0.36602 0.77043 0.0
H393 H 1.00302 0.4303 0.82175 0.0
H394 H 0.09281 0.38857 0.93228 0.0
H395 H 0.09131 0.32422 0.88108 0.0
C396 C 0.98184 0.13555 0.8357 0.0
C397 C 1.0018 0.12816 0.88569 0.0
C398 C 0.99168 0.16888 0.80644 0.0
C399 C 0.02257 0.19505 0.8255 0.0
C400 C 0.04219 0.18799 0.87592 0.0
C401 C 0.03175 0.15503 0.90588 0.0
C402 C 0.034 0.2299 0.79315 0.0
C403 C 0.03703 0.26745 0.81987 0.0
C404 C 0.04036 0.22663 0.73588 0.0
C405 C 0.04043 0.18781 0.70543 0.0
C406 C 0.06522 0.15783 0.72316 0.0
C407 C 0.0647 0.12115 0.69473 0.0
C408 C 0.03973 0.11419 0.64823 0.0
C409 C 0.01532 0.14395 0.62996 0.0
C410 C 0.01568 0.18066 0.65828 0.0
C411 C 0.10029 0.39184 0.6833 0.0
C412 C 0.07575 0.40027 0.6376 0.0
C413 C 0.09235 0.35877 0.71431 0.0
C414 C 0.05967 0.3334 0.70039 0.0
C415 C 0.03559 0.34133 0.65421 0.0
C416 C 0.04343 0.37442 0.62333 0.0
C417 C 0.05062 0.29842 0.73352 0.0
C418 C 0.04806 0.26089 0.70689 0.0
C419 C 0.04511 0.30168 0.79091 0.0
C420 C 0.04614 0.34045 0.82151 0.0
C421 C 0.02109 0.37067 0.80535 0.0
C422 C 0.02227 0.4071 0.83448 0.0
C423 C 0.04814 0.41355 0.88014 0.0
C424 C 0.07284 0.38356 0.89684 0.0
C425 C 0.07183 0.34711 0.86778 0.0
H426 H 0.04899 0.44176 0.90266 0.0
H427 H 0.03935 0.08577 0.6263 0.0
H428 H 0.85133 0.10351 0.95367 0.0
H429 H 0.78783 0.11597 0.90565 0.0
H430 H 0.78816 0.99961 0.82784 0.0
H431 H 0.85016 0.98643 0.87582 0.0
H432 H 0.78468 0.08196 0.76045 0.0
H433 H 0.72797 0.99227 0.89556 0.0
H434 H 0.7132 0.97506 0.99027 0.0
H435 H 0.65607 0.08561 1.01533 0.0
H436 H 0.67121 0.10372 0.92092 0.0
H437 H 0.63616 0.97782 0.61309 0.0
H438 H 0.68816 1.00522 0.67608 0.0
H439 H 0.61027 0.09595 0.73193 0.0
H440 H 0.55755 0.06848 0.66735 0.0
H441 H 0.64824 0.05229 0.81821 0.0
H442 H 0.68601 0.12695 0.66693 0.0
H443 H 0.69909 0.13877 0.56992 0.0
H444 H 0.79203 0.05504 0.57316 0.0
H445 H 0.77917 0.04226 0.66993 0.0
C446 C 0.83738 0.08025 0.92737 0.0
C447 C 0.85624 0.0441 0.9183 0.0
C448 C 0.80121 0.0875 0.89989 0.0
C449 C 0.78354 0.05869 0.86317 0.0
C450 C 0.80137 0.02218 0.85605 0.0
C451 C 0.83699 0.01479 0.8836 0.0
C452 C 0.74848 0.06685 0.82777 0.0
C453 C 0.75472 0.07613 0.77311 0.0
C454 C 0.70951 0.06002 0.84475 0.0
C455 C 0.70132 0.04963 0.9017 0.0
C456 C 0.71284 0.01316 0.92159 0.0
C457 C 0.70426 1.00317 0.9751 0.0
C458 C 0.6838 0.02926 1.00884 0.0
C459 C 0.672 0.06547 0.98919 0.0
C460 C 0.68062 0.07563 0.93573 0.0
C461 C 0.63024 1.00404 0.63806 0.0
C462 C 0.59292 0.02109 0.63541 0.0
C463 C 0.66004 0.01976 0.67395 0.0
C464 C 0.65321 0.05275 0.70854 0.0
C465 C 0.61617 0.07058 0.70533 0.0
C466 C 0.58626 0.05511 0.66833 0.0
C467 C 0.68452 0.06588 0.75006 0.0
C468 C 0.67782 0.06018 0.80583 0.0
C469 C 0.72324 0.07572 0.73393 0.0
C470 C 0.73158 0.08365 0.67582 0.0
C471 C 0.70913 0.11092 0.64692 0.0
C472 C 0.71652 0.1178 0.59195 0.0
C473 C 0.74637 0.09768 0.5654 0.0
C474 C 0.76896 0.07067 0.59381 0.0
C475 C 0.76169 0.06367 0.64879 0.0
H476 H 0.75201 0.10301 0.52282 0.0
H477 H 0.67695 0.02133 0.05012 0.0
loop_
_geom_bond_atom_site_label_1
_geom_bond_atom_site_label_2
_geom_bond_distance
_geom_bond_site_symmetry_2
_ccdc_geom_bond_type
Fe0 O1 1.886 1_455 S
Fe0 O4 1.715 1_545 S
Fe0 O9 2.077 . S
Fe0 O14 1.935 . S
Fe0 O20 2.077 1_455 S
Fe0 O29 1.935 1_445 S
O1 Fe0 1.886 1_655 S
O1 Fe3 1.702 1_554 S
Fe2 O4 1.886 . S
Fe2 O5 1.715 1_554 S
Fe2 O12 1.935 1_554 S
Fe2 O13 2.077 . S
Fe2 O19 1.935 1_554 S
Fe2 O28 2.077 . S
Fe3 O1 1.702 1_556 S
Fe3 O6 1.898 . S
Fe3 O10 1.926 1_556 S
Fe3 O15 2.089 . S
Fe3 O21 1.925 1_556 S
Fe3 O25 2.088 . S
O4 Fe0 1.715 1_565 S
O4 Fe2 1.886 . S
O5 Fe2 1.715 1_556 S
O5 Fe7 1.881 1_565 S
O6 Fe3 1.898 . S
O6 Fe7 1.719 1_655 S
Fe7 O5 1.881 1_545 S
Fe7 O6 1.719 1_455 S
Fe7 O11 2.077 . S
Fe7 O16 1.943 . S
Fe7 O18 2.070 1_445 S
Fe7 O26 1.934 1_445 S
C8 O20 1.381 . S
C8 O21 1.421 . S
O9 Fe0 2.077 . S
O9 C22 1.381 1_455 S
O10 Fe3 1.926 1_554 S
O10 C22 1.421 . S
O11 Fe7 2.077 . S
O11 C27 1.381 1_545 S
O12 Fe2 1.935 1_556 S
O12 C27 1.421 . S
O13 Fe2 2.077 . S
O13 C17 1.381 . S
O14 Fe0 1.935 . S
O14 C17 1.421 1_545 S
O15 Fe3 2.089 . S
O15 C23 1.381 . S
O16 Fe7 1.943 . S
O16 C23 1.421 1_455 S
C17 O13 1.381 . S
C17 O14 1.421 1_565 S
O18 Fe7 2.070 1_665 S
O18 C30 1.381 1_655 S
O19 Fe2 1.935 1_556 S
O19 C30 1.421 . S
O20 Fe0 2.077 1_655 S
O20 C8 1.381 . S
O21 Fe3 1.925 1_554 S
O21 C8 1.421 . S
C22 O9 1.381 1_655 S
C22 O10 1.421 . S
C23 O15 1.381 . S
C23 O16 1.421 1_655 S
C24 O25 1.381 . S
C24 O26 1.421 1_545 S
O25 Fe3 2.088 . S
O25 C24 1.381 . S
O26 Fe7 1.934 1_665 S
O26 C24 1.421 1_565 S
C27 O11 1.381 1_565 S
C27 O12 1.421 . S
O28 Fe2 2.077 . S
O28 C31 1.381 . S
O29 Fe0 1.935 1_665 S
O29 C31 1.421 1_655 S
C30 O18 1.381 1_455 S
C30 O19 1.421 . S
C31 O28 1.381 . S
C31 O29 1.421 1_455 S
Cu32 N33 1.999 . S
Cu32 O38 1.974 . S
Cu32 N43 1.985 . S
Cu32 O52 1.959 . S
N33 Cu32 1.999 . S
N33 C35 1.263 . S
N33 C37 1.389 . S
N34 C35 1.358 . S
N34 C36 1.400 . S
C35 N33 1.263 . S
C35 N34 1.358 . S
C35 H41 0.930 1_655 S
C36 N34 1.400 . S
C36 C37 1.351 . S
C36 H53 0.930 . S
C37 N33 1.389 . S
C37 C36 1.351 . S
C37 H42 0.930 . S
O38 Cu32 1.974 . S
O38 C48 1.282 1_655 S
C39 O40 1.261 . S
C39 O52 1.251 1_455 S
O40 C39 1.261 . S
H41 C35 0.930 1_455 S
H42 C37 0.930 . S
N43 Cu32 1.985 . S
N43 C45 1.335 . S
N43 C46 1.390 1_655 S
N44 C45 1.345 . S
N44 C47 1.336 1_655 S
C45 N43 1.335 . S
C45 N44 1.345 . S
C45 H50 0.930 . S
C46 N43 1.390 1_455 S
C46 C47 1.346 . S
C46 H51 0.930 . S
C47 N44 1.336 1_455 S
C47 C46 1.346 . S
C47 H54 0.929 . S
C48 O38 1.282 1_455 S
C48 O49 1.216 . S
O49 C48 1.216 . S
H50 C45 0.930 . S
H51 C46 0.930 . S
O52 Cu32 1.959 . S
O52 C39 1.251 1_655 S
H53 C36 0.930 . S
H54 C47 0.929 . S
Cu55 N56 1.999 . S
Cu55 O61 1.974 . S
Cu55 N66 1.985 . S
Cu55 O75 1.959 . S
N56 Cu55 1.999 . S
N56 C58 1.263 . S
N56 C60 1.389 . S
N57 C58 1.358 . S
N57 C59 1.400 . S
C58 N56 1.263 . S
C58 N57 1.358 . S
C58 H64 0.930 1_545 S
C59 N57 1.400 . S
C59 C60 1.351 . S
C59 H76 0.930 . S
C60 N56 1.389 . S
C60 C59 1.351 . S
C60 H65 0.930 . S
O61 Cu55 1.974 . S
O61 C71 1.282 1_545 S
C62 O63 1.261 . S
C62 O75 1.251 1_565 S
O63 C62 1.261 . S
H64 C58 0.930 1_565 S
H65 C60 0.930 . S
N66 Cu55 1.985 . S
N66 C68 1.335 . S
N66 C69 1.390 1_545 S
N67 C68 1.345 . S
N67 C70 1.336 1_545 S
C68 N66 1.335 . S
C68 N67 1.345 . S
C68 H73 0.930 . S
C69 N66 1.390 1_565 S
C69 C70 1.346 . S
C69 H74 0.930 . S
C70 N67 1.336 1_565 S
C70 C69 1.346 . S
C70 H77 0.929 . S
C71 O61 1.282 1_565 S
C71 O72 1.216 . S
O72 C71 1.216 . S
H73 C68 0.930 . S
H74 C69 0.930 . S
O75 Cu55 1.959 . S
O75 C62 1.251 1_545 S
H76 C59 0.930 . S
H77 C70 0.929 . S
H78 C96 0.951 . S
H79 C98 0.951 . S
H80 C100 0.950 . S
H81 C101 0.950 . S
H82 C103 0.950 1_655 S
H83 C106 0.950 . S
H84 C107 0.950 . S
H85 C109 0.950 . S
H86 C110 0.950 1_655 S
H87 C111 0.951 . S
H88 C113 0.951 . S
H89 C115 0.950 . S
H90 C116 0.950 . S
H91 C118 0.950 . S
H92 C121 0.950 . S
H93 C122 0.950 . S
H94 C124 0.950 . S
H95 C125 0.950 . S
C96 H78 0.951 . S
C96 C97 1.366 1_655 S
C96 C98 1.388 . S
C97 C96 1.366 1_455 S
C97 C101 1.385 . S
C98 H79 0.951 . S
C98 C96 1.388 . S
C98 C99 1.366 1_655 S
C99 C98 1.366 1_455 S
C99 C100 1.414 . S
C99 C102 1.499 . S
C100 H80 0.950 . S
C100 C99 1.414 . S
C100 C101 1.374 . S
C101 H81 0.950 . S
C101 C97 1.385 . S
C101 C100 1.374 . S
C102 C99 1.499 . S
C102 C103 1.373 . S
C102 C104 1.389 . S
C103 H82 0.950 1_455 S
C103 C102 1.373 . S
C103 C119 1.376 1_455 S
C104 C102 1.389 . S
C104 C105 1.524 . S
C104 C118 1.377 . S
C105 C104 1.524 . S
C105 C106 1.397 . S
C105 C110 1.363 . S
C106 H83 0.950 . S
C106 C105 1.397 . S
C106 C107 1.334 . S
C107 H84 0.950 . S
C107 C106 1.334 . S
C107 C108 1.287 . S
C108 C107 1.287 . S
C108 C109 1.524 . S
C108 H127 0.913 . S
C109 H85 0.950 . S
C109 C108 1.524 . S
C109 C110 1.415 . S
C110 H86 0.950 1_455 S
C110 C105 1.363 . S
C110 C109 1.415 . S
C111 H87 0.951 . S
C111 C112 1.366 . S
C111 C113 1.388 . S
C112 C111 1.366 . S
C112 C116 1.385 1_455 S
C113 H88 0.951 . S
C113 C111 1.388 . S
C113 C114 1.366 . S
C114 C113 1.366 . S
C114 C115 1.414 1_455 S
C114 C117 1.499 . S
C115 H89 0.950 . S
C115 C114 1.414 1_655 S
C115 C116 1.374 . S
C116 H90 0.950 . S
C116 C112 1.385 1_655 S
C116 C115 1.374 . S
C117 C114 1.499 . S
C117 C118 1.373 . S
C117 C119 1.389 1_455 S
C118 H91 0.950 . S
C118 C104 1.377 . S
C118 C117 1.373 . S
C119 C103 1.376 1_655 S
C119 C117 1.389 1_655 S
C119 C120 1.526 . S
C120 C119 1.526 . S
C120 C121 1.397 . S
C120 C125 1.363 1_655 S
C121 H92 0.950 . S
C121 C120 1.397 . S
C121 C122 1.334 . S
C122 H93 0.950 . S
C122 C121 1.334 . S
C122 C123 1.287 . S
C123 C122 1.287 . S
C123 C124 1.524 . S
C123 H126 0.999 . S
C124 H94 0.950 . S
C124 C123 1.524 . S
C124 C125 1.415 1_655 S
C125 H95 0.950 . S
C125 C120 1.363 1_455 S
C125 C124 1.415 1_455 S
H126 C123 0.999 . S
H127 C108 0.913 . S
H128 C146 0.951 . S
H129 C148 0.951 . S
H130 C150 0.950 . S
H131 C151 0.950 . S
H132 C153 0.950 1_565 S
H133 C156 0.950 . S
H134 C157 0.950 . S
H135 C159 0.950 . S
H136 C160 0.950 1_565 S
H137 C161 0.951 . S
H138 C163 0.951 . S
H139 C165 0.950 . S
H140 C166 0.950 . S
H141 C168 0.950 . S
H142 C171 0.950 . S
H143 C172 0.950 . S
H144 C174 0.950 . S
H145 C175 0.950 . S
C146 H128 0.951 . S
C146 C147 1.366 1_565 S
C146 C148 1.388 . S
C147 C146 1.366 1_545 S
C147 C151 1.385 . S
C148 H129 0.951 . S
C148 C146 1.388 . S
C148 C149 1.366 1_565 S
C149 C148 1.366 1_545 S
C149 C150 1.414 . S
C149 C152 1.499 . S
C150 H130 0.950 . S
C150 C149 1.414 . S
C150 C151 1.374 . S
C151 H131 0.950 . S
C151 C147 1.385 . S
C151 C150 1.374 . S
C152 C149 1.499 . S
C152 C153 1.373 . S
C152 C154 1.389 . S
C153 H132 0.950 1_545 S
C153 C152 1.373 . S
C153 C169 1.376 1_545 S
C154 C152 1.389 . S
C154 C155 1.524 . S
C154 C168 1.377 . S
C155 C154 1.524 . S
C155 C156 1.397 . S
C155 C160 1.363 . S
C156 H133 0.950 . S
C156 C155 1.397 . S
C156 C157 1.334 . S
C157 H134 0.950 . S
C157 C156 1.334 . S
C157 C158 1.287 . S
C158 C157 1.287 . S
C158 C159 1.524 . S
C158 H177 0.913 . S
C159 H135 0.950 . S
C159 C158 1.524 . S
C159 C160 1.415 . S
C160 H136 0.950 1_545 S
C160 C155 1.363 . S
C160 C159 1.415 . S
C161 H137 0.951 . S
C161 C162 1.366 . S
C161 C163 1.388 . S
C162 C161 1.366 . S
C162 C166 1.385 1_545 S
C163 H138 0.951 . S
C163 C161 1.388 . S
C163 C164 1.366 . S
C164 C163 1.366 . S
C164 C165 1.414 1_545 S
C164 C167 1.499 . S
C165 H139 0.950 . S
C165 C164 1.414 1_565 S
C165 C166 1.374 . S
C166 H140 0.950 . S
C166 C162 1.385 1_565 S
C166 C165 1.374 . S
C167 C164 1.499 . S
C167 C168 1.373 . S
C167 C169 1.387 1_545 S
C168 H141 0.950 . S
C168 C154 1.377 . S
C168 C167 1.373 . S
C169 C153 1.376 1_565 S
C169 C167 1.387 1_565 S
C169 C170 1.528 . S
C170 C169 1.528 . S
C170 C171 1.397 . S
C170 C175 1.363 1_565 S
C171 H142 0.950 . S
C171 C170 1.397 . S
C171 C172 1.334 . S
C172 H143 0.950 . S
C172 C171 1.334 . S
C172 C173 1.287 . S
C173 C172 1.287 . S
C173 C174 1.524 . S
C173 H176 0.999 . S
C174 H144 0.950 . S
C174 C173 1.524 . S
C174 C175 1.415 1_565 S
C175 H145 0.950 . S
C175 C170 1.363 1_545 S
C175 C174 1.415 1_545 S
H176 C173 0.999 . S
H177 C158 0.913 . S
H178 C196 0.951 . S
H179 C198 0.951 . S
H180 C200 0.950 . S
H181 C201 0.950 . S
H182 C203 0.950 . S
H183 C206 0.950 . S
H184 C207 0.950 . S
H185 C209 0.950 . S
H186 C210 0.950 . S
H187 C211 0.951 . S
H188 C213 0.951 . S
H189 C215 0.950 . S
H190 C216 0.950 . S
H191 C218 0.950 . S
H192 C221 0.950 . S
H193 C222 0.950 . S
H194 C224 0.950 . S
H195 C225 0.950 . S
C196 H178 0.951 . S
C196 C197 1.366 1_655 S
C196 C198 1.388 . S
C197 C196 1.366 1_455 S
C197 C201 1.385 . S
C198 H179 0.951 . S
C198 C196 1.388 . S
C198 C199 1.366 1_655 S
C199 C198 1.366 1_455 S
C199 C200 1.413 . S
C199 C202 1.498 1_455 S
C200 H180 0.950 . S
C200 C199 1.413 . S
C200 C201 1.374 . S
C201 H181 0.950 . S
C201 C197 1.385 . S
C201 C200 1.374 . S
C202 C199 1.498 1_655 S
C202 C203 1.351 1_655 S
C202 C204 1.412 . S
C203 H182 0.950 . S
C203 C202 1.351 1_455 S
C203 C219 1.377 . S
C204 C202 1.412 . S
C204 C205 1.524 . S
C204 C218 1.377 . S
C205 C204 1.524 . S
C205 C206 1.397 . S
C205 C210 1.363 . S
C206 H183 0.950 . S
C206 C205 1.397 . S
C206 C207 1.334 . S
C207 H184 0.950 . S
C207 C206 1.334 . S
C207 C208 1.287 . S
C208 C207 1.287 . S
C208 C209 1.524 . S
C208 H227 0.913 . S
C209 H185 0.950 . S
C209 C208 1.524 . S
C209 C210 1.415 . S
C210 H186 0.950 . S
C210 C205 1.363 . S
C210 C209 1.415 . S
C211 H187 0.951 . S
C211 C212 1.366 1_455 S
C211 C213 1.388 . S
C212 C211 1.366 1_655 S
C212 C216 1.385 . S
C213 H188 0.951 . S
C213 C211 1.388 . S
C213 C214 1.366 1_455 S
C214 C213 1.366 1_655 S
C214 C215 1.414 . S
C214 C217 1.499 . S
C215 H189 0.950 . S
C215 C214 1.414 . S
C215 C216 1.374 . S
C216 H190 0.950 . S
C216 C212 1.385 . S
C216 C215 1.374 . S
C217 C214 1.499 . S
C217 C218 1.373 . S
C217 C219 1.389 1_655 S
C218 H191 0.950 . S
C218 C204 1.377 . S
C218 C217 1.373 . S
C219 C203 1.377 . S
C219 C217 1.389 1_455 S
C219 C220 1.524 . S
C220 C219 1.524 . S
C220 C221 1.397 . S
C220 C225 1.363 . S
C221 H192 0.950 . S
C221 C220 1.397 . S
C221 C222 1.334 . S
C222 H193 0.950 . S
C222 C221 1.334 . S
C222 C223 1.287 . S
C223 C222 1.287 . S
C223 C224 1.524 . S
C223 H226 0.999 . S
C224 H194 0.950 . S
C224 C223 1.524 . S
C224 C225 1.415 . S
C225 H195 0.950 . S
C225 C220 1.363 . S
C225 C224 1.415 . S
H226 C223 0.999 . S
H227 C208 0.913 . S
H228 C246 0.951 . S
H229 C248 0.951 . S
H230 C250 0.950 . S
H231 C251 0.950 . S
H232 C253 0.950 . S
H233 C256 0.965 . S
H234 C257 0.950 1_545 S
H235 C259 0.950 . S
H236 C260 0.950 . S
H237 C261 0.951 . S
H238 C263 0.951 . S
H239 C265 0.950 . S
H240 C266 0.950 . S
H241 C268 0.950 . S
H242 C271 0.950 . S
H243 C272 0.950 1_565 S
H244 C274 0.950 . S
H245 C275 0.950 . S
C246 H228 0.951 . S
C246 C247 1.366 1_565 S
C246 C248 1.388 . S
C247 C246 1.366 1_545 S
C247 C251 1.385 . S
C248 H229 0.951 . S
C248 C246 1.388 . S
C248 C249 1.366 1_565 S
C249 C248 1.366 1_545 S
C249 C250 1.414 . S
C249 C252 1.499 . S
C250 H230 0.950 . S
C250 C249 1.414 . S
C250 C251 1.374 . S
C251 H231 0.950 . S
C251 C247 1.385 . S
C251 C250 1.374 . S
C252 C249 1.499 . S
C252 C253 1.373 . S
C252 C254 1.389 1_545 S
C253 H232 0.950 . S
C253 C252 1.373 . S
C253 C269 1.377 . S
C254 C252 1.389 1_565 S
C254 C255 1.524 . S
C254 C268 1.377 . S
C255 C254 1.524 . S
C255 C256 1.385 1_565 S
C255 C260 1.363 . S
C256 H233 0.965 . S
C256 C255 1.385 1_545 S
C256 C257 1.331 1_545 S
C257 H234 0.950 1_565 S
C257 C256 1.331 1_565 S
C257 C258 1.287 . S
C258 C257 1.287 . S
C258 C259 1.524 . S
C258 H277 0.913 . S
C259 H235 0.950 . S
C259 C258 1.524 . S
C259 C260 1.415 . S
C260 H236 0.950 . S
C260 C255 1.363 . S
C260 C259 1.415 . S
C261 H237 0.951 . S
C261 C262 1.366 1_545 S
C261 C263 1.388 . S
C262 C261 1.366 1_565 S
C262 C266 1.385 . S
C263 H238 0.951 . S
C263 C261 1.388 . S
C263 C264 1.366 1_545 S
C264 C263 1.366 1_565 S
C264 C265 1.414 . S
C264 C267 1.499 . S
C265 H239 0.950 . S
C265 C264 1.414 . S
C265 C266 1.374 . S
C266 H240 0.950 . S
C266 C262 1.385 . S
C266 C265 1.374 . S
C267 C264 1.499 . S
C267 C268 1.373 . S
C267 C269 1.389 1_565 S
C268 H241 0.950 . S
C268 C254 1.377 . S
C268 C267 1.373 . S
C269 C253 1.377 . S
C269 C267 1.389 1_545 S
C269 C270 1.524 . S
C270 C269 1.524 . S
C270 C271 1.397 1_545 S
C270 C275 1.363 . S
C271 H242 0.950 . S
C271 C270 1.397 1_565 S
C271 C272 1.334 1_565 S
C272 H243 0.950 1_545 S
C272 C271 1.334 1_545 S
C272 C273 1.287 . S
C273 C272 1.287 . S
C273 C274 1.524 . S
C273 H276 0.999 . S
C274 H244 0.950 . S
C274 C273 1.524 . S
C274 C275 1.415 . S
C275 H245 0.950 . S
C275 C270 1.363 . S
C275 C274 1.415 . S
H276 C273 0.999 . S
H277 C258 0.913 . S
H278 C296 0.951 . S
H279 C298 0.951 . S
H280 C300 0.950 . S
H281 C301 0.950 . S
H282 C303 0.950 . S
H283 C306 0.950 . S
H284 C307 0.950 . S
H285 C309 0.950 . S
H286 C310 0.950 . S
H287 C311 0.951 . S
H288 C313 0.951 . S
H289 C315 0.950 . S
H290 C316 0.950 . S
H291 C318 0.950 . S
H292 C321 0.950 . S
H293 C322 0.950 . S
H294 C324 0.950 . S
H295 C325 0.950 . S
C296 H278 0.951 . S
C296 C297 1.366 . S
C296 C298 1.388 . S
C297 C296 1.366 . S
C297 C301 1.385 1_455 S
C298 H279 0.951 . S
C298 C296 1.388 . S
C298 C299 1.366 . S
C299 C298 1.366 . S
C299 C300 1.414 1_455 S
C299 C302 1.499 . S
C300 H280 0.950 . S
C300 C299 1.414 1_655 S
C300 C301 1.374 . S
C301 H281 0.950 . S
C301 C297 1.385 1_655 S
C301 C300 1.374 . S
C302 C299 1.499 . S
C302 C303 1.373 1_455 S
C302 C304 1.389 . S
C303 H282 0.950 . S
C303 C302 1.373 1_655 S
C303 C319 1.378 . S
C304 C302 1.389 . S
C304 C305 1.524 . S
C304 C318 1.377 . S
C305 C304 1.524 . S
C305 C306 1.397 1_455 S
C305 C310 1.363 . S
C306 H283 0.950 . S
C306 C305 1.397 1_655 S
C306 C307 1.334 . S
C307 H284 0.950 . S
C307 C306 1.334 . S
C307 C308 1.287 1_655 S
C308 C307 1.287 1_455 S
C308 C309 1.524 . S
C308 H327 0.913 . S
C309 H285 0.950 . S
C309 C308 1.524 . S
C309 C310 1.415 . S
C310 H286 0.950 . S
C310 C305 1.363 . S
C310 C309 1.415 . S
C311 H287 0.951 . S
C311 C312 1.366 1_655 S
C311 C313 1.388 . S
C312 C311 1.366 1_455 S
C312 C316 1.385 . S
C313 H288 0.951 . S
C313 C311 1.388 . S
C313 C314 1.366 1_655 S
C314 C313 1.366 1_455 S
C314 C315 1.414 . S
C314 C317 1.499 . S
C315 H289 0.950 . S
C315 C314 1.414 . S
C315 C316 1.374 . S
C316 H290 0.950 . S
C316 C312 1.385 . S
C316 C315 1.374 . S
C317 C314 1.499 . S
C317 C318 1.373 . S
C317 C319 1.386 1_455 S
C318 H291 0.950 . S
C318 C304 1.377 . S
C318 C317 1.373 . S
C319 C303 1.378 . S
C319 C317 1.386 1_655 S
C319 C320 1.526 . S
C320 C319 1.526 . S
C320 C321 1.397 1_655 S
C320 C325 1.363 . S
C321 H292 0.950 . S
C321 C320 1.397 1_455 S
C321 C322 1.334 . S
C322 H293 0.950 . S
C322 C321 1.334 . S
C322 C323 1.287 1_455 S
C323 C322 1.287 1_655 S
C323 C324 1.524 . S
C323 H326 0.999 . S
C324 H294 0.950 . S
C324 C323 1.524 . S
C324 C325 1.415 . S
C325 H295 0.950 . S
C325 C320 1.363 . S
C325 C324 1.415 . S
H326 C323 0.999 . S
H327 C308 0.913 . S
H328 C346 0.951 . S
H329 C348 0.951 . S
H330 C350 0.950 . S
H331 C351 0.950 . S
H332 C353 0.950 . S
H333 C356 0.950 . S
H334 C357 0.950 . S
H335 C359 0.950 . S
H336 C360 0.950 . S
H337 C361 0.951 . S
H338 C363 0.951 . S
H339 C365 0.950 . S
H340 C366 0.950 . S
H341 C368 0.950 . S
H342 C371 0.950 . S
H343 C372 0.950 . S
H344 C374 0.950 . S
H345 C375 0.950 . S
C346 H328 0.951 . S
C346 C347 1.366 1_565 S
C346 C348 1.388 . S
C347 C346 1.366 1_545 S
C347 C351 1.385 . S
C348 H329 0.951 . S
C348 C346 1.388 . S
C348 C349 1.366 1_565 S
C349 C348 1.366 1_545 S
C349 C350 1.414 . S
C349 C352 1.499 . S
C350 H330 0.950 . S
C350 C349 1.414 . S
C350 C351 1.374 . S
C351 H331 0.950 . S
C351 C347 1.385 . S
C351 C350 1.374 . S
C352 C349 1.499 . S
C352 C353 1.373 . S
C352 C354 1.389 1_545 S
C353 H332 0.950 . S
C353 C352 1.373 . S
C353 C369 1.377 . S
C354 C352 1.389 1_565 S
C354 C355 1.524 . S
C354 C368 1.377 . S
C355 C354 1.524 . S
C355 C356 1.397 . S
C355 C360 1.363 . S
C356 H333 0.950 . S
C356 C355 1.397 . S
C356 C357 1.334 . S
C357 H334 0.950 . S
C357 C356 1.334 . S
C357 C358 1.287 . S
C358 C357 1.287 . S
C358 C359 1.524 . S
C358 H377 0.913 . S
C359 H335 0.950 . S
C359 C358 1.524 . S
C359 C360 1.415 . S
C360 H336 0.950 . S
C360 C355 1.363 . S
C360 C359 1.415 . S
C361 H337 0.951 . S
C361 C362 1.366 . S
C361 C363 1.388 . S
C362 C361 1.366 . S
C362 C366 1.385 1_545 S
C363 H338 0.951 . S
C363 C361 1.388 . S
C363 C364 1.366 . S
C364 C363 1.366 . S
C364 C365 1.414 1_545 S
C364 C367 1.499 . S
C365 H339 0.950 . S
C365 C364 1.414 1_565 S
C365 C366 1.374 . S
C366 H340 0.950 . S
C366 C362 1.385 1_565 S
C366 C365 1.374 . S
C367 C364 1.499 . S
C367 C368 1.373 1_545 S
C367 C369 1.389 . S
C368 H341 0.950 . S
C368 C354 1.377 . S
C368 C367 1.373 1_565 S
C369 C353 1.377 . S
C369 C367 1.389 . S
C369 C370 1.524 . S
C370 C369 1.524 . S
C370 C371 1.397 . S
C370 C375 1.363 . S
C371 H342 0.950 . S
C371 C370 1.397 . S
C371 C372 1.334 . S
C372 H343 0.950 . S
C372 C371 1.334 . S
C372 C373 1.287 . S
C373 C372 1.287 . S
C373 C374 1.524 . S
C373 H376 0.999 . S
C374 H344 0.950 . S
C374 C373 1.524 . S
C374 C375 1.415 . S
C375 H345 0.950 . S
C375 C370 1.363 . S
C375 C374 1.415 . S
H376 C373 0.999 . S
H377 C358 0.913 . S
H378 C396 0.951 . S
H379 C398 0.951 . S
H380 C400 0.950 . S
H381 C401 0.950 . S
H382 C403 0.950 . S
H383 C406 0.950 . S
H384 C407 0.950 . S
H385 C409 0.950 . S
H386 C410 0.950 . S
H387 C411 0.951 . S
H388 C413 0.951 . S
H389 C415 0.950 . S
H390 C416 0.950 . S
H391 C418 0.950 . S
H392 C421 0.950 . S
H393 C422 0.950 . S
H394 C424 0.950 . S
H395 C425 0.950 . S
C396 H378 0.951 . S
C396 C397 1.351 1_655 S
C396 C398 1.388 . S
C397 C396 1.351 1_455 S
C397 C401 1.399 . S
C398 H379 0.951 . S
C398 C396 1.388 . S
C398 C399 1.366 . S
C399 C398 1.366 . S
C399 C400 1.414 1_655 S
C399 C402 1.499 . S
C400 H380 0.950 . S
C400 C399 1.414 1_455 S
C400 C401 1.374 . S
C401 H381 0.950 . S
C401 C397 1.399 . S
C401 C400 1.374 . S
C402 C399 1.499 . S
C402 C403 1.373 1_655 S
C402 C404 1.389 . S
C403 H382 0.950 . S
C403 C402 1.373 1_455 S
C403 C419 1.377 . S
C404 C402 1.389 . S
C404 C405 1.524 . S
C404 C418 1.377 . S
C405 C404 1.524 . S
C405 C406 1.397 . S
C405 C410 1.363 . S
C406 H383 0.950 . S
C406 C405 1.397 . S
C406 C407 1.334 . S
C407 H384 0.950 . S
C407 C406 1.334 . S
C407 C408 1.287 . S
C408 C407 1.287 . S
C408 C409 1.524 . S
C408 H427 0.913 . S
C409 H385 0.950 . S
C409 C408 1.524 . S
C409 C410 1.415 . S
C410 H386 0.950 . S
C410 C405 1.363 . S
C410 C409 1.415 . S
C411 H387 0.951 . S
C411 C412 1.366 1_455 S
C411 C413 1.388 . S
C412 C411 1.366 1_655 S
C412 C416 1.385 . S
C413 H388 0.951 . S
C413 C411 1.388 . S
C413 C414 1.366 1_455 S
C414 C413 1.366 1_655 S
C414 C415 1.414 . S
C414 C417 1.499 . S
C415 H389 0.950 . S
C415 C414 1.414 . S
C415 C416 1.374 . S
C416 H390 0.950 . S
C416 C412 1.385 . S
C416 C415 1.374 . S
C417 C414 1.499 . S
C417 C418 1.373 . S
C417 C419 1.389 1_655 S
C418 H391 0.950 . S
C418 C404 1.377 . S
C418 C417 1.373 . S
C419 C403 1.377 . S
C419 C417 1.389 1_455 S
C419 C420 1.524 . S
C420 C419 1.524 . S
C420 C421 1.397 . S
C420 C425 1.363 . S
C421 H392 0.950 . S
C421 C420 1.397 . S
C421 C422 1.334 . S
C422 H393 0.950 . S
C422 C421 1.334 . S
C422 C423 1.287 . S
C423 C422 1.287 . S
C423 C424 1.524 . S
C423 H426 0.999 . S
C424 H394 0.950 . S
C424 C423 1.524 . S
C424 C425 1.415 . S
C425 H395 0.950 . S
C425 C420 1.363 . S
C425 C424 1.415 . S
H426 C423 0.999 . S
H427 C408 0.913 . S
H428 C446 0.951 . S
H429 C448 0.951 . S
H430 C450 0.950 . S
H431 C451 0.950 . S
H432 C453 0.950 . S
H433 C456 0.950 . S
H434 C457 0.950 . S
H435 C459 0.950 . S
H436 C460 0.950 . S
H437 C461 0.951 . S
H438 C463 0.951 . S
H439 C465 0.950 . S
H440 C466 0.950 . S
H441 C468 0.950 . S
H442 C471 0.950 . S
H443 C472 0.936 1_545 S
H444 C474 0.950 . S
H445 C475 0.950 . S
C446 H428 0.951 . S
C446 C447 1.370 . S
C446 C448 1.388 . S
C447 C446 1.370 . S
C447 C451 1.381 1_545 S
C448 H429 0.951 . S
C448 C446 1.388 . S
C448 C449 1.366 1_545 S
C449 C448 1.366 1_565 S
C449 C450 1.414 . S
C449 C452 1.499 . S
C450 H430 0.950 . S
C450 C449 1.414 . S
C450 C451 1.374 . S
C451 H431 0.950 . S
C451 C447 1.381 1_565 S
C451 C450 1.374 . S
C452 C449 1.499 . S
C452 C453 1.373 . S
C452 C454 1.389 1_565 S
C453 H432 0.950 . S
C453 C452 1.373 . S
C453 C469 1.377 . S
C454 C452 1.389 1_545 S
C454 C455 1.524 . S
C454 C468 1.377 . S
C455 C454 1.524 . S
C455 C456 1.397 1_545 S
C455 C460 1.363 . S
C456 H433 0.950 . S
C456 C455 1.397 1_565 S
C456 C457 1.334 . S
C457 H434 0.950 . S
C457 C456 1.334 . S
C457 C458 1.287 1_565 S
C458 C457 1.287 1_545 S
C458 C459 1.524 . S
C458 H477 0.913 . S
C459 H435 0.950 . S
C459 C458 1.524 . S
C459 C460 1.415 . S
C460 H436 0.950 . S
C460 C455 1.363 . S
C460 C459 1.415 . S
C461 H437 0.951 . S
C461 C462 1.366 . S
C461 C463 1.388 . S
C462 C461 1.366 . S
C462 C466 1.385 1_565 S
C463 H438 0.951 . S
C463 C461 1.388 . S
C463 C464 1.366 . S
C464 C463 1.366 . S
C464 C465 1.414 1_565 S
C464 C467 1.499 . S
C465 H439 0.950 . S
C465 C464 1.414 1_545 S
C465 C466 1.374 . S
C466 H440 0.950 . S
C466 C462 1.385 1_545 S
C466 C465 1.374 . S
C467 C464 1.499 . S
C467 C468 1.373 1_565 S
C467 C469 1.389 . S
C468 H441 0.950 . S
C468 C454 1.377 . S
C468 C467 1.373 1_545 S
C469 C453 1.377 . S
C469 C467 1.389 . S
C469 C470 1.524 . S
C470 C469 1.524 . S
C470 C471 1.397 1_565 S
C470 C475 1.363 . S
C471 H442 0.950 . S
C471 C470 1.397 1_545 S
C471 C472 1.333 1_545 S
C472 H443 0.936 1_565 S
C472 C471 1.333 1_565 S
C472 C473 1.304 . S
C473 C472 1.304 . S
C473 C474 1.524 . S
C473 H476 0.999 . S
C474 H444 0.950 . S
C474 C473 1.524 . S
C474 C475 1.415 . S
C475 H445 0.950 . S
C475 C470 1.363 . S
C475 C474 1.415 . S
H476 C473 0.999 . S
H477 C458 0.913 . S
C97 C22 1.458 1_455 S
C112 C48 1.501 . S
C147 C8 1.349 . S
C162 N67 1.366 . S
C197 C31 1.356 . S
C212 N44 1.368 . S
C247 C17 1.451 1_545 S
C262 C71 1.504 . S
C297 C30 1.498 . S
C312 C39 1.558 . S
C347 C27 1.402 1_545 S
C362 N57 1.413 . S
C412 N34 1.410 . S
C397 C23 1.386 1_455 S
C447 C24 1.506 . S
C462 C62 1.556 . S
