# Generated by pormake.
# Topology iac, (4,6)-cn, num edge types: 1
# Building blocks:
#     Node 0, Type 0, BuildingBlock: AZAVOO_clean_sbu_0, # of connection points: 4
#     Node 1, Type 0, BuildingBlock: AZAVOO_clean_sbu_0, # of connection points: 4
#     Node 2, Type 0, BuildingBlock: AZAVOO_clean_sbu_0, # of connection points: 4
#     Node 3, Type 0, BuildingBlock: AZAVOO_clean_sbu_0, # of connection points: 4
#     Node 4, Type 0, BuildingBlock: AZAVOO_clean_sbu_0, # of connection points: 4
#     Node 5, Type 0, BuildingBlock: AZAVOO_clean_sbu_0, # of connection points: 4
#     Node 6, Type 0, BuildingBlock: AZAVOO_clean_sbu_0, # of connection points: 4
#     Node 7, Type 0, BuildingBlock: AZAVOO_clean_sbu_0, # of connection points: 4
#     Node 8, Type 0, BuildingBlock: AZAVOO_clean_sbu_0, # of connection points: 4
#     Node 9, Type 0, BuildingBlock: AZAVOO_clean_sbu_0, # of connection points: 4
#     Node 10, Type 0, BuildingBlock: AZAVOO_clean_sbu_0, # of connection points: 4
#     Node 11, Type 0, BuildingBlock: AZAVOO_clean_sbu_0, # of connection points: 4
#     Node 12, Type 0, BuildingBlock: AZAVOO_clean_sbu_0, # of connection points: 4
#     Node 13, Type 0, BuildingBlock: AZAVOO_clean_sbu_0, # of connection points: 4
#     Node 14, Type 0, BuildingBlock: AZAVOO_clean_sbu_0, # of connection points: 4
#     Node 15, Type 0, BuildingBlock: AZAVOO_clean_sbu_0, # of connection points: 4
#     Node 16, Type 0, BuildingBlock: AZAVOO_clean_sbu_0, # of connection points: 4
#     Node 17, Type 0, BuildingBlock: AZAVOO_clean_sbu_0, # of connection points: 4
#     Node 18, Type 0, BuildingBlock: AZAVOO_clean_sbu_0, # of connection points: 4
#     Node 19, Type 0, BuildingBlock: AZAVOO_clean_sbu_0, # of connection points: 4
#     Node 20, Type 0, BuildingBlock: AZAVOO_clean_sbu_0, # of connection points: 4
#     Node 21, Type 0, BuildingBlock: AZAVOO_clean_sbu_0, # of connection points: 4
#     Node 22, Type 0, BuildingBlock: AZAVOO_clean_sbu_0, # of connection points: 4
#     Node 23, Type 0, BuildingBlock: AZAVOO_clean_sbu_0, # of connection points: 4
#     Node 24, Type 1, BuildingBlock: JUFBIX_clean_sbu_0, # of connection points: 6
#     Node 25, Type 1, BuildingBlock: JUFBIX_clean_sbu_0, # of connection points: 6
#     Node 26, Type 1, BuildingBlock: JUFBIX_clean_sbu_0, # of connection points: 6
#     Node 27, Type 1, BuildingBlock: JUFBIX_clean_sbu_0, # of connection points: 6
#     Node 28, Type 1, BuildingBlock: JUFBIX_clean_sbu_0, # of connection points: 6
#     Node 29, Type 1, BuildingBlock: JUFBIX_clean_sbu_0, # of connection points: 6
#     Node 30, Type 1, BuildingBlock: JUFBIX_clean_sbu_0, # of connection points: 6
#     Node 31, Type 1, BuildingBlock: JUFBIX_clean_sbu_0, # of connection points: 6
#     Node 32, Type 1, BuildingBlock: JUFBIX_clean_sbu_0, # of connection points: 6
#     Node 33, Type 1, BuildingBlock: JUFBIX_clean_sbu_0, # of connection points: 6
#     Node 34, Type 1, BuildingBlock: JUFBIX_clean_sbu_0, # of connection points: 6
#     Node 35, Type 1, BuildingBlock: JUFBIX_clean_sbu_0, # of connection points: 6
#     Node 36, Type 1, BuildingBlock: JUFBIX_clean_sbu_0, # of connection points: 6
#     Node 37, Type 1, BuildingBlock: JUFBIX_clean_sbu_0, # of connection points: 6
#     Node 38, Type 1, BuildingBlock: JUFBIX_clean_sbu_0, # of connection points: 6
#     Node 39, Type 1, BuildingBlock: JUFBIX_clean_sbu_0, # of connection points: 6
#     Edge 40, Type (0, 1), BuildingBlock: XIVTED_clean_linker_0, # of connection points: 2
#     Edge 41, Type (0, 1), BuildingBlock: XIVTED_clean_linker_0, # of connection points: 2
#     Edge 42, Type (0, 1), BuildingBlock: XIVTED_clean_linker_0, # of connection points: 2
#     Edge 43, Type (0, 1), BuildingBlock: XIVTED_clean_linker_0, # of connection points: 2
#     Edge 44, Type (0, 1), BuildingBlock: XIVTED_clean_linker_0, # of connection points: 2
#     Edge 45, Type (0, 1), BuildingBlock: XIVTED_clean_linker_0, # of connection points: 2
#     Edge 46, Type (0, 1), BuildingBlock: XIVTED_clean_linker_0, # of connection points: 2
#     Edge 47, Type (0, 1), BuildingBlock: XIVTED_clean_linker_0, # of connection points: 2
#     Edge 48, Type (0, 1), BuildingBlock: XIVTED_clean_linker_0, # of connection points: 2
#     Edge 49, Type (0, 1), BuildingBlock: XIVTED_clean_linker_0, # of connection points: 2
#     Edge 50, Type (0, 1), BuildingBlock: XIVTED_clean_linker_0, # of connection points: 2
#     Edge 51, Type (0, 1), BuildingBlock: XIVTED_clean_linker_0, # of connection points: 2
#     Edge 52, Type (0, 1), BuildingBlock: XIVTED_clean_linker_0, # of connection points: 2
#     Edge 53, Type (0, 1), BuildingBlock: XIVTED_clean_linker_0, # of connection points: 2
#     Edge 54, Type (0, 1), BuildingBlock: XIVTED_clean_linker_0, # of connection points: 2
#     Edge 55, Type (0, 1), BuildingBlock: XIVTED_clean_linker_0, # of connection points: 2
#     Edge 56, Type (0, 1), BuildingBlock: XIVTED_clean_linker_0, # of connection points: 2
#     Edge 57, Type (0, 1), BuildingBlock: XIVTED_clean_linker_0, # of connection points: 2
#     Edge 58, Type (0, 1), BuildingBlock: XIVTED_clean_linker_0, # of connection points: 2
#     Edge 59, Type (0, 1), BuildingBlock: XIVTED_clean_linker_0, # of connection points: 2
#     Edge 60, Type (0, 1), BuildingBlock: XIVTED_clean_linker_0, # of connection points: 2
#     Edge 61, Type (0, 1), BuildingBlock: XIVTED_clean_linker_0, # of connection points: 2
#     Edge 62, Type (0, 1), BuildingBlock: XIVTED_clean_linker_0, # of connection points: 2
#     Edge 63, Type (0, 1), BuildingBlock: XIVTED_clean_linker_0, # of connection points: 2
#     Edge 64, Type (0, 1), BuildingBlock: XIVTED_clean_linker_0, # of connection points: 2
#     Edge 65, Type (0, 1), BuildingBlock: XIVTED_clean_linker_0, # of connection points: 2
#     Edge 66, Type (0, 1), BuildingBlock: XIVTED_clean_linker_0, # of connection points: 2
#     Edge 67, Type (0, 1), BuildingBlock: XIVTED_clean_linker_0, # of connection points: 2
#     Edge 68, Type (0, 1), BuildingBlock: XIVTED_clean_linker_0, # of connection points: 2
#     Edge 69, Type (0, 1), BuildingBlock: XIVTED_clean_linker_0, # of connection points: 2
#     Edge 70, Type (0, 1), BuildingBlock: XIVTED_clean_linker_0, # of connection points: 2
#     Edge 71, Type (0, 1), BuildingBlock: XIVTED_clean_linker_0, # of connection points: 2
#     Edge 72, Type (0, 1), BuildingBlock: XIVTED_clean_linker_0, # of connection points: 2
#     Edge 73, Type (0, 1), BuildingBlock: XIVTED_clean_linker_0, # of connection points: 2
#     Edge 74, Type (0, 1), BuildingBlock: XIVTED_clean_linker_0, # of connection points: 2
#     Edge 75, Type (0, 1), BuildingBlock: XIVTED_clean_linker_0, # of connection points: 2
#     Edge 76, Type (0, 1), BuildingBlock: XIVTED_clean_linker_0, # of connection points: 2
#     Edge 77, Type (0, 1), BuildingBlock: XIVTED_clean_linker_0, # of connection points: 2
#     Edge 78, Type (0, 1), BuildingBlock: XIVTED_clean_linker_0, # of connection points: 2
#     Edge 79, Type (0, 1), BuildingBlock: XIVTED_clean_linker_0, # of connection points: 2
#     Edge 80, Type (0, 1), BuildingBlock: XIVTED_clean_linker_0, # of connection points: 2
#     Edge 81, Type (0, 1), BuildingBlock: XIVTED_clean_linker_0, # of connection points: 2
#     Edge 82, Type (0, 1), BuildingBlock: XIVTED_clean_linker_0, # of connection points: 2
#     Edge 83, Type (0, 1), BuildingBlock: XIVTED_clean_linker_0, # of connection points: 2
#     Edge 84, Type (0, 1), BuildingBlock: XIVTED_clean_linker_0, # of connection points: 2
#     Edge 85, Type (0, 1), BuildingBlock: XIVTED_clean_linker_0, # of connection points: 2
#     Edge 86, Type (0, 1), BuildingBlock: XIVTED_clean_linker_0, # of connection points: 2
#     Edge 87, Type (0, 1), BuildingBlock: XIVTED_clean_linker_0, # of connection points: 2
#     Edge 88, Type (0, 1), BuildingBlock: XIVTED_clean_linker_0, # of connection points: 2
#     Edge 89, Type (0, 1), BuildingBlock: XIVTED_clean_linker_0, # of connection points: 2
#     Edge 90, Type (0, 1), BuildingBlock: XIVTED_clean_linker_0, # of connection points: 2
#     Edge 91, Type (0, 1), BuildingBlock: XIVTED_clean_linker_0, # of connection points: 2
#     Edge 92, Type (0, 1), BuildingBlock: XIVTED_clean_linker_0, # of connection points: 2
#     Edge 93, Type (0, 1), BuildingBlock: XIVTED_clean_linker_0, # of connection points: 2
#     Edge 94, Type (0, 1), BuildingBlock: XIVTED_clean_linker_0, # of connection points: 2
#     Edge 95, Type (0, 1), BuildingBlock: XIVTED_clean_linker_0, # of connection points: 2
#     Edge 96, Type (0, 1), BuildingBlock: XIVTED_clean_linker_0, # of connection points: 2
#     Edge 97, Type (0, 1), BuildingBlock: XIVTED_clean_linker_0, # of connection points: 2
#     Edge 98, Type (0, 1), BuildingBlock: XIVTED_clean_linker_0, # of connection points: 2
#     Edge 99, Type (0, 1), BuildingBlock: XIVTED_clean_linker_0, # of connection points: 2
#     Edge 100, Type (0, 1), BuildingBlock: XIVTED_clean_linker_0, # of connection points: 2
#     Edge 101, Type (0, 1), BuildingBlock: XIVTED_clean_linker_0, # of connection points: 2
#     Edge 102, Type (0, 1), BuildingBlock: XIVTED_clean_linker_0, # of connection points: 2
#     Edge 103, Type (0, 1), BuildingBlock: XIVTED_clean_linker_0, # of connection points: 2
#     Edge 104, Type (0, 1), BuildingBlock: XIVTED_clean_linker_0, # of connection points: 2
#     Edge 105, Type (0, 1), BuildingBlock: XIVTED_clean_linker_0, # of connection points: 2
#     Edge 106, Type (0, 1), BuildingBlock: XIVTED_clean_linker_0, # of connection points: 2
#     Edge 107, Type (0, 1), BuildingBlock: XIVTED_clean_linker_0, # of connection points: 2
#     Edge 108, Type (0, 1), BuildingBlock: XIVTED_clean_linker_0, # of connection points: 2
#     Edge 109, Type (0, 1), BuildingBlock: XIVTED_clean_linker_0, # of connection points: 2
#     Edge 110, Type (0, 1), BuildingBlock: XIVTED_clean_linker_0, # of connection points: 2
#     Edge 111, Type (0, 1), BuildingBlock: XIVTED_clean_linker_0, # of connection points: 2
#     Edge 112, Type (0, 1), BuildingBlock: XIVTED_clean_linker_0, # of connection points: 2
#     Edge 113, Type (0, 1), BuildingBlock: XIVTED_clean_linker_0, # of connection points: 2
#     Edge 114, Type (0, 1), BuildingBlock: XIVTED_clean_linker_0, # of connection points: 2
#     Edge 115, Type (0, 1), BuildingBlock: XIVTED_clean_linker_0, # of connection points: 2
#     Edge 116, Type (0, 1), BuildingBlock: XIVTED_clean_linker_0, # of connection points: 2
#     Edge 117, Type (0, 1), BuildingBlock: XIVTED_clean_linker_0, # of connection points: 2
#     Edge 118, Type (0, 1), BuildingBlock: XIVTED_clean_linker_0, # of connection points: 2
#     Edge 119, Type (0, 1), BuildingBlock: XIVTED_clean_linker_0, # of connection points: 2
#     Edge 120, Type (0, 1), BuildingBlock: XIVTED_clean_linker_0, # of connection points: 2
#     Edge 121, Type (0, 1), BuildingBlock: XIVTED_clean_linker_0, # of connection points: 2
#     Edge 122, Type (0, 1), BuildingBlock: XIVTED_clean_linker_0, # of connection points: 2
#     Edge 123, Type (0, 1), BuildingBlock: XIVTED_clean_linker_0, # of connection points: 2
#     Edge 124, Type (0, 1), BuildingBlock: XIVTED_clean_linker_0, # of connection points: 2
#     Edge 125, Type (0, 1), BuildingBlock: XIVTED_clean_linker_0, # of connection points: 2
#     Edge 126, Type (0, 1), BuildingBlock: XIVTED_clean_linker_0, # of connection points: 2
#     Edge 127, Type (0, 1), BuildingBlock: XIVTED_clean_linker_0, # of connection points: 2
#     Edge 128, Type (0, 1), BuildingBlock: XIVTED_clean_linker_0, # of connection points: 2
#     Edge 129, Type (0, 1), BuildingBlock: XIVTED_clean_linker_0, # of connection points: 2
#     Edge 130, Type (0, 1), BuildingBlock: XIVTED_clean_linker_0, # of connection points: 2
#     Edge 131, Type (0, 1), BuildingBlock: XIVTED_clean_linker_0, # of connection points: 2
#     Edge 132, Type (0, 1), BuildingBlock: XIVTED_clean_linker_0, # of connection points: 2
#     Edge 133, Type (0, 1), BuildingBlock: XIVTED_clean_linker_0, # of connection points: 2
#     Edge 134, Type (0, 1), BuildingBlock: XIVTED_clean_linker_0, # of connection points: 2
#     Edge 135, Type (0, 1), BuildingBlock: XIVTED_clean_linker_0, # of connection points: 2
# Relax obj value: 0.260
# Max RMSD: 0.230
# Mean RMSD: 0.173
data_MOF--net-iac--node1-AZAVOO_clean_sbu_0--node2-JUFBIX_clean_sbu_0--edge1-XIVTED_clean_linker_0
_symmetry_space_group_name_H-M    P1
_symmetry_Int_Tables_number       1
_symmetry_cell_setting            triclinic
loop_
_symmetry_equiv_pos_as_xyz
'x, y, z'
_cell_length_a     55.582788
_cell_length_b     54.236519
_cell_length_c     54.868504
_cell_angle_alpha  91.275319
_cell_angle_beta   87.898184
_cell_angle_gamma 89.562209
loop_
_atom_site_label
_atom_site_type_symbol
_atom_site_fract_x
_atom_site_fract_y
_atom_site_fract_z
_atom_type_partial_charge
Mg0 Mg 0.02074 0.2963 0.15595 0.0
O1 O 0.02109 0.26129 0.13005 0.0
O2 O 0.98817 0.26479 0.10811 0.0
Mg3 Mg 0.96613 0.29908 0.12017 0.0
C4 C 0.00723 0.25314 0.11356 0.0
C5 C 0.06523 0.28201 0.18653 0.0
O6 O 0.04724 0.27446 0.20058 0.0
O7 O 0.03048 0.32345 0.12494 0.0
O8 O 0.99539 0.32545 0.10633 0.0
O9 O 0.99798 0.27628 0.18447 0.0
O10 O 0.98318 0.29848 0.15551 0.0
C11 C 0.01702 0.33262 0.10888 0.0
C12 C 0.97928 0.28492 0.17406 0.0
O13 O 0.06063 0.2909 0.16587 0.0
Mg14 Mg 0.04075 0.7311 0.38458 0.0
O15 O 0.02175 0.76519 0.40196 0.0
O16 O 0.98443 0.75467 0.41396 0.0
Mg17 Mg 0.97986 0.71388 0.40461 0.0
C18 C 0.00117 0.77055 0.41189 0.0
C19 C 0.08006 0.7692 0.37243 0.0
O20 O 0.06207 0.77817 0.36042 0.0
O21 O 0.04546 0.71636 0.42204 0.0
O22 O 0.00809 0.70508 0.43316 0.0
O23 O 0.02736 0.73935 0.3483 0.0
O24 O 0.00786 0.71643 0.37529 0.0
C25 C 0.03048 0.70716 0.43736 0.0
C26 C 0.00839 0.72689 0.3544 0.0
O27 O 0.07664 0.75033 0.38536 0.0
Mg28 Mg 0.51842 0.79544 0.65959 0.0
O29 O 0.51848 0.76078 0.63326 0.0
O30 O 0.48454 0.76386 0.61278 0.0
Mg31 Mg 0.46183 0.79699 0.62689 0.0
C32 C 0.50417 0.75265 0.61716 0.0
C33 C 0.56558 0.77752 0.6843 0.0
O34 O 0.54942 0.76385 0.69552 0.0
O35 O 0.52569 0.82295 0.62853 0.0
O36 O 0.48942 0.82502 0.61235 0.0
O37 O 0.49876 0.77494 0.68957 0.0
O38 O 0.48072 0.79535 0.66114 0.0
C39 C 0.51109 0.8325 0.61379 0.0
C40 C 0.47895 0.78181 0.68001 0.0
O41 O 0.55888 0.79152 0.66743 0.0
Mg42 Mg 0.52743 0.23452 0.88809 0.0
O43 O 0.5035 0.2664 0.9023 0.0
O44 O 0.46913 0.25189 0.91833 0.0
Mg45 Mg 0.47084 0.21002 0.91299 0.0
C46 C 0.48303 0.26978 0.91314 0.0
C47 C 0.55526 0.2794 0.87085 0.0
O48 O 0.53402 0.2829 0.86171 0.0
O49 O 0.53583 0.22585 0.92687 0.0
O50 O 0.50133 0.20925 0.94057 0.0
O51 O 0.51225 0.23532 0.85182 0.0
O52 O 0.49712 0.21307 0.88197 0.0
C53 C 0.52312 0.21575 0.94362 0.0
C54 C 0.49574 0.2206 0.85991 0.0
O55 O 0.5585 0.26095 0.88428 0.0
Mg56 Mg 0.15493 0.97898 0.29361 0.0
O57 O 0.16993 0.01713 0.30291 0.0
O58 O 0.18299 0.01601 0.34089 0.0
Mg59 Mg 0.17668 0.97758 0.3557 0.0
C60 C 0.17959 0.02744 0.3212 0.0
C61 C 0.14203 0.00832 0.24792 0.0
O62 O 0.13429 0.02394 0.26516 0.0
O63 O 0.19313 0.96405 0.28845 0.0
O64 O 0.20454 0.96261 0.32709 0.0
O65 O 0.11909 0.99024 0.30987 0.0
O66 O 0.14786 0.9721 0.33003 0.0
C67 C 0.20872 0.95906 0.30421 0.0
C68 C 0.12685 0.98217 0.3302 0.0
O69 O 0.15277 0.9887 0.25383 0.0
Mg70 Mg 0.26002 0.90894 0.5772 0.0
O71 O 0.27137 0.89346 0.5391 0.0
O72 O 0.31111 0.88586 0.53949 0.0
Mg73 Mg 0.32372 0.89225 0.57791 0.0
C74 C 0.29127 0.88658 0.52854 0.0
C75 C 0.20745 0.90908 0.58903 0.0
O76 O 0.21797 0.9116 0.60999 0.0
O77 O 0.26013 0.87006 0.59003 0.0
O78 O 0.29921 0.86013 0.58995 0.0
O79 O 0.2703 0.94648 0.56593 0.0
O80 O 0.29478 0.9198 0.58269 0.0
C81 C 0.27701 0.85458 0.59313 0.0
C82 C 0.29183 0.94048 0.57203 0.0
O83 O 0.22051 0.90637 0.56966 0.0
Mg84 Mg 0.3846 0.06669 0.78018 0.0
O85 O 0.36937 0.02801 0.78587 0.0
O86 O 0.35259 0.02856 0.82363 0.0
Mg87 Mg 0.35949 0.0655 0.84259 0.0
C88 C 0.35747 0.01767 0.80314 0.0
C89 C 0.40467 0.04435 0.73232 0.0
O90 O 0.41361 0.02988 0.74867 0.0
O91 O 0.3465 0.08035 0.77755 0.0
O92 O 0.33254 0.08259 0.81632 0.0
O93 O 0.41996 0.05534 0.79272 0.0
O94 O 0.39061 0.07014 0.81727 0.0
C95 C 0.3299 0.08561 0.79351 0.0
C96 C 0.41183 0.06037 0.81466 0.0
O97 O 0.38909 0.06052 0.73922 0.0
Mg98 Mg 0.29115 0.14778 0.01221 0.0
O99 O 0.28891 0.17223 0.04801 0.0
O100 O 0.32177 0.19572 0.04622 0.0
Mg101 Mg 0.3459 0.1851 0.01257 0.0
C102 C 0.30227 0.18897 0.05714 0.0
C103 C 0.23976 0.13129 0.99718 0.0
O104 O 0.25075 0.13369 0.97576 0.0
O105 O 0.28319 0.17981 0.98596 0.0
O106 O 0.31908 0.198 0.98423 0.0
O107 O 0.3113 0.11814 0.03153 0.0
O108 O 0.32899 0.1487 0.01245 0.0
C109 C 0.29782 0.19538 0.97647 0.0
C110 C 0.33098 0.12937 0.02536 0.0
O111 O 0.25113 0.13676 0.01628 0.0
Mg112 Mg 0.75199 0.40933 0.05282 0.0
O113 O 0.76179 0.38776 0.01722 0.0
O114 O 0.79997 0.37495 0.02026 0.0
Mg115 Mg 0.81404 0.38733 0.0568 0.0
C116 C 0.78056 0.3763 0.0086 0.0
C117 C 0.7006 0.41267 0.06689 0.0
O118 O 0.71302 0.41473 0.08675 0.0
O119 O 0.74872 0.37308 0.07158 0.0
O120 O 0.7869 0.36054 0.07427 0.0
O121 O 0.76602 0.44392 0.0367 0.0
O122 O 0.78753 0.41736 0.05714 0.0
C123 C 0.7643 0.35735 0.07788 0.0
C124 C 0.7867 0.43697 0.04444 0.0
O125 O 0.71196 0.40926 0.04654 0.0
Mg126 Mg 0.89896 0.56916 0.2831 0.0
O127 O 0.88295 0.53031 0.28781 0.0
O128 O 0.8657 0.5312 0.32539 0.0
Mg129 Mg 0.87185 0.56804 0.34458 0.0
C130 C 0.87072 0.52013 0.30501 0.0
C131 C 0.90907 0.54592 0.22962 0.0
O132 O 0.90842 0.52434 0.24002 0.0
O133 O 0.86132 0.58311 0.27947 0.0
O134 O 0.84545 0.58475 0.3175 0.0
O135 O 0.93378 0.55723 0.29648 0.0
O136 O 0.9036 0.57209 0.32004 0.0
C137 C 0.8439 0.58795 0.29458 0.0
C138 C 0.92485 0.56232 0.31816 0.0
O139 O 0.90446 0.56536 0.24225 0.0
Mg140 Mg 0.79026 0.6467 0.50588 0.0
O141 O 0.78876 0.67383 0.5396 0.0
O142 O 0.82261 0.69574 0.53725 0.0
Mg143 Mg 0.84607 0.68244 0.50403 0.0
C144 C 0.80265 0.69043 0.54811 0.0
C145 C 0.73757 0.63113 0.49268 0.0
O146 O 0.74802 0.63223 0.47086 0.0
O147 O 0.78317 0.67718 0.47735 0.0
O148 O 0.81919 0.69516 0.47579 0.0
O149 O 0.81018 0.61893 0.52831 0.0
O150 O 0.82821 0.64649 0.50547 0.0
C151 C 0.798 0.69259 0.46783 0.0
C152 C 0.83004 0.6288 0.52049 0.0
O153 O 0.74972 0.63707 0.51116 0.0
Mg154 Mg 0.64705 0.49043 0.79982 0.0
O155 O 0.66038 0.52973 0.80666 0.0
O156 O 0.6769 0.53038 0.84323 0.0
Mg157 Mg 0.67354 0.49239 0.8599 0.0
C158 C 0.67113 0.54102 0.82373 0.0
C159 C 0.63185 0.51704 0.75278 0.0
O160 O 0.62461 0.53386 0.76908 0.0
O161 O 0.68563 0.47803 0.79274 0.0
O162 O 0.70015 0.47677 0.83014 0.0
O163 O 0.6112 0.49922 0.81721 0.0
O164 O 0.64247 0.48572 0.83705 0.0
C165 C 0.70258 0.47335 0.80704 0.0
C166 C 0.62056 0.49371 0.83768 0.0
O167 O 0.64243 0.49773 0.75974 0.0
Mg168 Mg 0.01068 0.7833 0.88564 0.0
O169 O 0.01203 0.82078 0.90671 0.0
O170 O 0.97654 0.82555 0.92672 0.0
Mg171 Mg 0.95297 0.79169 0.91882 0.0
C172 C 0.99756 0.83332 0.92085 0.0
C173 C 0.06063 0.76556 0.86668 0.0
O174 O 0.04733 0.74581 0.86405 0.0
O175 O 0.01542 0.76112 0.92048 0.0
O176 O 0.97828 0.76436 0.93736 0.0
O177 O 0.99343 0.80049 0.85339 0.0
O178 O 0.97312 0.78437 0.8842 0.0
C179 C -0.00043 0.75517 0.93678 0.0
C180 C 0.97283 0.79483 0.86342 0.0
O181 O 0.05105 0.78485 0.87657 0.0
Mg182 Mg 0.98058 0.28432 0.66472 0.0
O183 O 0.993 0.25608 0.63555 0.0
O184 O 0.96487 0.25373 0.60758 0.0
Mg185 Mg 0.93367 0.27933 0.61998 0.0
C186 C 0.98521 0.24732 0.61561 0.0
C187 C 0.0214 0.29155 0.70059 0.0
O188 O 0.00242 0.296 0.71505 0.0
O189 O 0.98806 0.31508 0.63871 0.0
O190 O 0.95772 0.31305 0.6131 0.0
O191 O 0.96242 0.25532 0.68635 0.0
O192 O 0.94505 0.27692 0.658 0.0
C193 C 0.9767 0.32333 0.62079 0.0
C194 C 0.94362 0.25972 0.6738 0.0
O195 O 0.01844 0.28607 0.6783 0.0
Mg196 Mg 0.5121 0.28217 0.38762 0.0
O197 O 0.51417 0.32023 0.40745 0.0
O198 O 0.48261 0.32272 0.43372 0.0
Mg199 Mg 0.45876 0.28872 0.4278 0.0
C200 C 0.50186 0.33174 0.42428 0.0
C201 C 0.56135 0.26571 0.36521 0.0
O202 O 0.54885 0.24527 0.36437 0.0
O203 O 0.52133 0.26035 0.42148 0.0
O204 O 0.48678 0.26241 0.44374 0.0
O205 O 0.49121 0.29834 0.35775 0.0
O206 O 0.47449 0.2818 0.39053 0.0
C207 C 0.50824 0.25415 0.43998 0.0
C208 C 0.47183 0.29213 0.36987 0.0
O209 O 0.5515 0.28502 0.37476 0.0
Mg210 Mg 0.50293 0.81292 0.14234 0.0
O211 O 0.50639 0.77619 0.12137 0.0
O212 O 0.4701 0.76763 0.10727 0.0
Mg213 Mg 0.44326 0.79726 0.1215 0.0
C214 C 0.49238 0.7624 0.10931 0.0
C215 C 0.55252 0.83473 0.15257 0.0
O216 O 0.53839 0.85272 0.16105 0.0
O217 O 0.49975 0.83302 0.1071 0.0
O218 O 0.46141 0.82678 0.09773 0.0
O219 O 0.49551 0.79342 0.17673 0.0
O220 O 0.46749 0.80505 0.15156 0.0
C221 C 0.48178 0.83704 0.09392 0.0
C222 C 0.47318 0.79344 0.17082 0.0
O223 O 0.54325 0.8165 0.14158 0.0
Mg224 Mg 0.86973 0.09159 0.75662 0.0
O225 O 0.86342 0.0509 0.76296 0.0
O226 O 0.85045 0.04557 0.80144 0.0
Mg227 Mg 0.84845 0.08358 0.81991 0.0
C228 C 0.85629 0.03704 0.78017 0.0
C229 C 0.89246 0.09343 0.70644 0.0
O230 O 0.90239 0.11146 0.71881 0.0
O231 O 0.8293 0.09711 0.75509 0.0
O232 O 0.81809 0.09374 0.79444 0.0
O233 O 0.907 0.08818 0.76874 0.0
O234 O 0.87585 0.09731 0.79365 0.0
C235 C 0.81311 0.0975 0.77224 0.0
C236 C 0.89848 0.09215 0.79074 0.0
O237 O 0.87477 0.08227 0.71631 0.0
Mg238 Mg 0.80859 0.1659 0.48833 0.0
O239 O 0.8079 0.18288 0.52609 0.0
O240 O 0.8404 0.206 0.53111 0.0
Mg241 Mg 0.865 0.19838 0.49716 0.0
C242 C 0.82008 0.19782 0.53873 0.0
C243 C 0.76116 0.13766 0.48864 0.0
O244 O 0.77572 0.12215 0.47656 0.0
O245 O 0.80262 0.20368 0.47325 0.0
O246 O 0.83885 0.22132 0.47502 0.0
O247 O 0.82539 0.132 0.50106 0.0
O248 O 0.84574 0.16413 0.48721 0.0
C249 C 0.81689 0.2215 0.4688 0.0
C250 C 0.84589 0.14239 0.49625 0.0
O251 O 0.76886 0.15883 0.49459 0.0
Mg252 Mg 0.66616 0.97188 0.31246 0.0
O253 O 0.67634 0.01229 0.31601 0.0
O254 O 0.69242 0.0194 0.35217 0.0
Mg255 Mg 0.69092 0.98308 0.37249 0.0
C256 C 0.68606 0.0267 0.33139 0.0
C257 C 0.64549 0.96463 0.26191 0.0
O258 O 0.63492 0.94681 0.27398 0.0
O259 O 0.70548 0.96285 0.30741 0.0
O260 O 0.71967 0.96692 0.34494 0.0
O261 O 0.62995 0.97999 0.32764 0.0
O262 O 0.66103 0.97038 0.34995 0.0
C263 C 0.72259 0.96156 0.3222 0.0
C264 C 0.63892 0.97765 0.34892 0.0
O265 O 0.66148 0.97726 0.27225 0.0
Mg266 Mg 0.79185 0.91521 0.01759 0.0
O267 O 0.79019 0.89297 0.98078 0.0
O268 O 0.82286 0.86876 0.97868 0.0
Mg269 Mg 0.84678 0.8782 0.01104 0.0
C270 C 0.80317 0.8762 0.96991 0.0
C271 C 0.7424 0.936 0.03535 0.0
O272 O 0.75525 0.93764 0.05494 0.0
O273 O 0.78366 0.88109 0.0411 0.0
O274 O 0.81938 0.8618 0.03876 0.0
O275 O 0.81205 0.9463 -0.00026 0.0
O276 O 0.8297 0.91489 0.01662 0.0
C277 C 0.79784 0.86392 0.04765 0.0
C278 C 0.8318 0.93557 0.0057 0.0
O279 O 0.75201 0.92624 0.01601 0.0
Mg280 Mg 0.30147 0.67334 0.98217 0.0
O281 O 0.30467 0.68496 0.02165 0.0
O282 O 0.34091 0.70091 0.02746 0.0
Mg283 Mg 0.36196 0.69705 0.99079 0.0
C284 C 0.31988 0.69508 0.03537 0.0
C285 C 0.25177 0.65132 0.98007 0.0
O286 O 0.26451 0.63783 0.96405 0.0
O287 O 0.29909 0.71322 0.97226 0.0
O288 O 0.33724 0.72592 0.97362 0.0
O289 O 0.31434 0.63612 0.98971 0.0
O290 O 0.33835 0.66673 0.97878 0.0
C291 C 0.31514 0.72963 0.96894 0.0
C292 C 0.33593 0.64425 0.98565 0.0
O293 O 0.26145 0.67003 0.98978 0.0
Mg294 Mg 0.17342 0.4687 0.81267 0.0
O295 O 0.18458 0.50816 0.82194 0.0
O296 O 0.19889 0.5087 0.85957 0.0
Mg297 Mg 0.19442 0.47042 0.8751 0.0
C298 C 0.19402 0.51942 0.83986 0.0
C299 C 0.15373 0.46629 0.76331 0.0
O300 O 0.14417 0.44794 0.77544 0.0
O301 O 0.2127 0.45818 0.80863 0.0
O302 O 0.22389 0.45667 0.84731 0.0
O303 O 0.13668 0.47669 0.82614 0.0
O304 O 0.16549 0.46321 0.84948 0.0
C305 C 0.22847 0.45403 0.82439 0.0
C306 C 0.14392 0.47188 0.84768 0.0
O307 O 0.17046 0.47844 0.77301 0.0
Mg308 Mg 0.28888 0.41372 0.52596 0.0
O309 O 0.28683 0.39142 0.48907 0.0
O310 O 0.32131 0.37011 0.48486 0.0
Mg311 Mg 0.34436 0.37773 0.51832 0.0
C312 C 0.30089 0.37646 0.47695 0.0
C313 C 0.24033 0.43528 0.54468 0.0
O314 O 0.2545 0.43875 0.56307 0.0
O315 O 0.28138 0.37952 0.54907 0.0
O316 O 0.31701 0.36016 0.54578 0.0
O317 O 0.30848 0.44519 0.50793 0.0
O318 O 0.32684 0.41406 0.52451 0.0
C319 C 0.29558 0.36217 0.55504 0.0
C320 C 0.32849 0.43475 0.51355 0.0
O321 O 0.24883 0.42419 0.52551 0.0
Mg322 Mg 0.35101 0.5538 0.26876 0.0
O323 O 0.37053 0.5182 0.27553 0.0
O324 O 0.36614 0.50686 0.31433 0.0
Mg325 Mg 0.34326 0.53727 0.33426 0.0
C326 C 0.37437 0.50312 0.29245 0.0
C327 C 0.36873 0.56177 0.21657 0.0
O328 O 0.37271 0.58312 0.2274 0.0
O329 O 0.3168 0.53109 0.27169 0.0
O330 O 0.31238 0.52454 0.31022 0.0
O331 O 0.38389 0.57396 0.27843 0.0
O332 O 0.35566 0.56376 0.30584 0.0
C333 C 0.30642 0.537 0.29199 0.0
C334 C 0.37695 0.57208 0.30108 0.0
O335 O 0.35704 0.54558 0.22831 0.0
Co336 Co 0.02707 0.05119 0.99446 0.0
C337 C 0.02356 0.08312 0.03531 0.0
Co338 Co 0.03483 0.03324 0.02879 0.0
C339 C 0.0054 0.06198 0.94898 0.0
C340 C 0.03308 0.08755 0.95784 0.0
N341 N 0.02159 0.06732 0.96597 0.0
N342 N 0.00645 0.07801 0.93056 0.0
C343 C 0.02389 0.09408 0.93598 0.0
H344 H 0.99315 0.04658 0.95003 0.0
H345 H 0.04705 0.09714 0.96735 0.0
C346 C 0.03747 0.00139 0.9878 0.0
N347 N 0.04078 0.01727 0.05724 0.0
C348 C 0.05515 0.02472 0.0752 0.0
C349 C 0.03326 0.99465 0.0636 0.0
N350 N 0.05717 0.0075 0.09236 0.0
C351 C 0.04338 0.98855 0.08518 0.0
C352 C 0.98663 0.02985 0.0157 0.0
O353 O 0.03197 0.02083 0.97665 0.0
O354 O 0.04098 0.00294 0.01057 0.0
O355 O 0.00157 0.02428 0.03177 0.0
O356 O 0.99369 0.04317 0.9981 0.0
O357 O 0.02857 0.06374 0.04687 0.0
H358 H 0.02165 0.9831 0.05291 0.0
H359 H 0.06472 0.04203 0.07516 0.0
O360 O 0.02174 0.08145 0.01231 0.0
O361 O 0.06063 0.05885 0.99087 0.0
O362 O 0.06802 0.042 0.02563 0.0
C363 C 0.07546 0.05381 0.00715 0.0
H364 H 0.02914 0.10979 0.92523 0.0
H365 H 0.04095 0.97145 0.09473 0.0
Co366 Co 0.29805 0.76669 0.30966 0.0
C367 C 0.2846 0.71911 0.29803 0.0
Co368 Co 0.28137 0.76313 0.27399 0.0
C369 C 0.30565 0.78942 0.35582 0.0
C370 C 0.32294 0.754 0.35301 0.0
N371 N 0.31027 0.7703 0.34023 0.0
N372 N 0.31463 0.78563 0.37783 0.0
C373 C 0.32542 0.76333 0.37635 0.0
H374 H 0.29469 0.80524 0.35158 0.0
H375 H 0.32912 0.73613 0.34612 0.0
C376 C 0.2947 0.8107 0.28503 0.0
N377 N 0.26901 0.75961 0.24337 0.0
C378 C 0.27824 0.74514 0.22502 0.0
C379 C 0.25107 0.77245 0.23349 0.0
N380 N 0.26724 0.74878 0.20394 0.0
C381 C 0.2499 0.76576 0.20918 0.0
C382 C 0.24804 0.77325 0.31056 0.0
O383 O 0.30152 0.80116 0.30458 0.0
O384 O 0.28546 0.79702 0.26889 0.0
O385 O 0.25037 0.76952 0.28768 0.0
O386 O 0.26651 0.77238 0.32347 0.0
O387 O 0.2773 0.7292 0.27898 0.0
H388 H 0.24033 0.78659 0.24302 0.0
H389 H 0.29333 0.73268 0.2269 0.0
O390 O 0.29443 0.73227 0.31425 0.0
O391 O 0.32948 0.76108 0.29592 0.0
O392 O 0.31256 0.75692 0.26066 0.0
C393 C 0.33133 0.75677 0.27309 0.0
H394 H 0.33399 0.7543 0.39119 0.0
H395 H 0.23821 0.77381 0.19609 0.0
Co396 Co 0.5068 0.04526 0.52805 0.0
C397 C 0.52131 0.09318 0.52229 0.0
Co398 Co 0.54025 0.05286 0.54699 0.0
C399 C 0.4604 0.0249 0.52535 0.0
C400 C 0.46882 0.04514 0.49319 0.0
N401 N 0.47783 0.03827 0.51454 0.0
N402 N 0.44084 0.023 0.51175 0.0
C403 C 0.44588 0.03583 0.49148 0.0
H404 H 0.46186 0.01719 0.54327 0.0
H405 H 0.47824 0.0563 0.47988 0.0
C406 C 0.52602 0.00451 0.55203 0.0
N407 N 0.56955 0.06023 0.56006 0.0
C408 C 0.5882 0.06942 0.54693 0.0
C409 C 0.57776 0.05786 0.58275 0.0
N410 N 0.60781 0.07257 0.56018 0.0
C411 C 0.60143 0.06562 0.5829 0.0
C412 C 0.50089 0.06114 0.57694 0.0
O413 O 0.50894 0.01217 0.53929 0.0
O414 O 0.54241 0.01955 0.55791 0.0
O415 O 0.52373 0.062 0.57654 0.0
O416 O 0.4903 0.05508 0.55761 0.0
O417 O 0.53802 0.08633 0.53591 0.0
H418 H 0.56737 0.0507 0.59803 0.0
H419 H 0.58746 0.07383 0.52782 0.0
O420 O 0.50515 0.0779 0.51663 0.0
O421 O 0.52297 0.03539 0.49888 0.0
O422 O 0.55646 0.04299 0.51725 0.0
C423 C 0.54575 0.03587 0.49839 0.0
H424 H 0.43396 0.03816 0.47652 0.0
H425 H 0.61316 0.0655 0.59821 0.0
Co426 Co 0.29352 0.26211 0.7571 0.0
C427 C 0.2723 0.28035 0.71606 0.0
Co428 Co 0.25598 0.27409 0.76463 0.0
C429 C 0.3358 0.23276 0.76321 0.0
C430 C 0.34112 0.25899 0.73501 0.0
N431 N 0.32434 0.25025 0.75084 0.0
N432 N 0.35927 0.23069 0.7563 0.0
C433 C 0.3626 0.24702 0.73832 0.0
H434 H 0.32731 0.22259 0.77786 0.0
H435 H 0.33833 0.27414 0.7229 0.0
C436 C 0.27748 0.25616 0.8059 0.0
N437 N 0.22525 0.28607 0.77104 0.0
C438 C 0.20574 0.28272 0.75753 0.0
C439 C 0.21752 0.30032 0.79024 0.0
N440 N 0.18605 0.29432 0.76751 0.0
C441 C 0.19342 0.3054 0.78814 0.0
C442 C 0.259 0.22564 0.75087 0.0
O443 O 0.2954 0.25369 0.79092 0.0
O444 O 0.25792 0.26487 0.79824 0.0
O445 O 0.2437 0.24227 0.75726 0.0
O446 O 0.28125 0.23075 0.74972 0.0
O447 O 0.25419 0.28342 0.73078 0.0
H448 H 0.22874 0.3067 0.80475 0.0
H449 H 0.20599 0.27171 0.74083 0.0
O450 O 0.29134 0.27072 0.7239 0.0
O451 O 0.30594 0.29356 0.7644 0.0
O452 O 0.26855 0.30558 0.7722 0.0
C453 C 0.2909 0.31029 0.77086 0.0
H454 H 0.37972 0.25152 0.72956 0.0
H455 H 0.18232 0.3167 0.80064 0.0
Co456 Co 0.00933 0.9928 0.53069 0.0
C457 C 0.9984 0.01683 0.57421 0.0
Co458 Co 0.03235 0.02519 0.53665 0.0
C459 C -0.00028 0.9445 0.51243 0.0
C460 C 0.96787 0.96084 0.52904 0.0
N461 N 0.99148 0.96493 0.52452 0.0
N462 N 0.98226 0.92781 0.50887 0.0
C463 C 0.96213 0.93801 0.51942 0.0
H464 H 0.01812 0.94244 0.50554 0.0
H465 H 0.95554 0.97384 0.53818 0.0
C466 C 0.04262 0.0026 0.49271 0.0
N467 N 0.05004 0.05327 0.54251 0.0
C468 C 0.04035 0.07579 0.54699 0.0
C469 C 0.07407 0.05665 0.54299 0.0
N470 N 0.05716 0.09317 0.54994 0.0
C471 C 0.07851 0.08131 0.54778 0.0
C472 C 0.05191 0.98266 0.55358 0.0
O473 O 0.02587 0.98837 0.49983 0.0
O474 O 0.04888 0.02033 0.50646 0.0
O475 O 0.05525 0.00571 0.55199 0.0
O476 O 0.03299 0.97312 0.5453 0.0
O477 O 0.01553 0.03038 0.56671 0.0
H478 H 0.08744 0.04221 0.53992 0.0
H479 H 0.02117 0.07942 0.54842 0.0
O480 O 0.99274 0.998 0.56149 0.0
O481 O 0.9858 0.01245 0.51616 0.0
O482 O 0.00914 0.04431 0.5213 0.0
C483 C 0.98959 0.03536 0.51408 0.0
H484 H 0.94445 0.9298 0.51993 0.0
H485 H 0.09595 0.08988 0.54915 0.0
Co486 Co 0.26725 0.78765 0.7665 0.0
C487 C 0.22478 0.76655 0.78372 0.0
Co488 Co 0.26959 0.74727 0.76907 0.0
C489 C 0.28167 0.8381 0.76717 0.0
C490 C 0.24539 0.83426 0.75591 0.0
N491 N 0.26468 0.82119 0.76268 0.0
N492 N 0.27372 0.86121 0.76368 0.0
C493 C 0.25085 0.85898 0.7567 0.0
H494 H 0.29928 0.83362 0.77372 0.0
H495 H 0.22834 0.82636 0.75111 0.0
C496 C 0.31215 0.76849 0.75215 0.0
N497 N 0.27214 0.71361 0.7729 0.0
C498 C 0.2586 0.69954 0.78791 0.0
C499 C 0.2877 0.69769 0.76126 0.0
N500 N 0.26511 0.67562 0.7861 0.0
C501 C 0.28349 0.67428 0.76948 0.0
C502 C 0.25514 0.76092 0.72473 0.0
O503 O 0.29976 0.78826 0.75384 0.0
O504 O 0.30259 0.74837 0.75857 0.0
O505 O 0.26113 0.74207 0.73638 0.0
O506 O 0.25622 0.78223 0.73472 0.0
O507 O 0.23647 0.74661 0.77944 0.0
H508 H 0.301 0.70265 0.74738 0.0
H509 H 0.24422 0.70661 0.8 0.0
O510 O 0.23499 0.78693 0.7794 0.0
O511 O 0.27807 0.79287 0.79829 0.0
O512 O 0.27792 0.75261 0.80199 0.0
C513 C 0.28085 0.77405 0.81119 0.0
H514 H 0.23897 0.87413 0.75261 0.0
H515 H 0.29261 0.65749 0.76316 0.0
Co516 Co 0.54051 0.04149 0.0197 0.0
C517 C 0.58211 0.02381 0.03817 0.0
Co518 Co 0.53994 0.04584 0.05971 0.0
C519 C 0.52 0.0362 0.97301 0.0
C520 C 0.55767 0.04388 0.96968 0.0
N521 N 0.53968 0.03978 0.98621 0.0
N522 N 0.52482 0.03829 0.94892 0.0
C523 C 0.54858 0.04292 0.94667 0.0
H524 H 0.50231 0.03266 0.981 0.0
H525 H 0.57598 0.04822 0.97412 0.0
C526 C 0.49808 0.06295 0.04113 0.0
N527 N 0.541 0.04761 0.09319 0.0
C528 C 0.55093 0.03063 0.10739 0.0
C529 C 0.53545 0.06692 0.10831 0.0
N530 N 0.55236 0.03873 0.13065 0.0
C531 C 0.54258 0.06156 0.1314 0.0
C532 C 0.55844 0.08614 0.03677 0.0
O533 O 0.50879 0.05583 0.02132 0.0
O534 O 0.50868 0.06062 0.06108 0.0
O535 O 0.55371 0.07761 0.05773 0.0
O536 O 0.55409 0.07323 0.01788 0.0
O537 O 0.57157 0.0309 0.0581 0.0
H538 H 0.5279 0.08423 0.10264 0.0
H539 H 0.55855 0.01333 0.10041 0.0
O540 O 0.57164 0.02708 0.01834 0.0
O541 O 0.52714 0.00985 0.02153 0.0
O542 O 0.52568 0.01414 0.06147 0.0
C543 C 0.52168 0.00138 0.04234 0.0
H544 H 0.55841 0.04659 0.92977 0.0
H545 H 0.54152 0.07381 0.14725 0.0
Co546 Co 0.26869 0.26194 0.27995 0.0
C547 C 0.31671 0.27415 0.28359 0.0
Co548 Co 0.27774 0.2967 0.26201 0.0
C549 C 0.24941 0.21275 0.28981 0.0
C550 C 0.26742 0.22971 0.31959 0.0
N551 N 0.26095 0.23354 0.29652 0.0
N552 N 0.24861 0.19615 0.30789 0.0
C553 C 0.25981 0.20698 0.32663 0.0
H554 H 0.24227 0.20969 0.27192 0.0
H555 H 0.27735 0.24258 0.33062 0.0
C556 C 0.22961 0.28467 0.25857 0.0
N557 N 0.28736 0.32509 0.24663 0.0
C558 C 0.30319 0.34066 0.25651 0.0
C559 C 0.28664 0.3314 0.22303 0.0
N560 N 0.31332 0.35578 0.24004 0.0
C561 C 0.3026 0.35042 0.21892 0.0
C562 C 0.2814 0.25525 0.23055 0.0
O563 O 0.23611 0.26633 0.27098 0.0
O564 O 0.24503 0.30112 0.25298 0.0
O565 O 0.28395 0.27843 0.23265 0.0
O566 O 0.27504 0.24324 0.24946 0.0
O567 O 0.31015 0.29202 0.27091 0.0
H568 H 0.27675 0.32156 0.20932 0.0
H569 H 0.30834 0.33973 0.27528 0.0
O570 O 0.30141 0.25776 0.28907 0.0
O571 O 0.26245 0.28096 0.30993 0.0
O572 O 0.27187 0.31519 0.29186 0.0
C573 C 0.26601 0.30406 0.31129 0.0
H574 H 0.26228 0.19913 0.34433 0.0
H575 H 0.30707 0.35845 0.20147 0.0
Co576 Co 0.49482 0.49076 0.03303 0.0
C577 C 0.48162 0.51088 0.07832 0.0
Co578 Co 0.51622 0.52315 0.04319 0.0
C579 C 0.48411 0.44426 0.00981 0.0
C580 C 0.45338 0.45988 0.02924 0.0
N581 N 0.477 0.46358 0.02425 0.0
N582 N 0.46584 0.42872 0.00538 0.0
C583 C 0.44648 0.43843 0.01773 0.0
H584 H 0.50234 0.44183 0.00248 0.0
H585 H 0.44174 0.47239 0.03994 0.0
C586 C 0.52889 0.50417 0.99765 0.0
N587 N 0.53332 0.55095 0.05164 0.0
C588 C 0.52327 0.57297 0.05783 0.0
C589 C 0.55726 0.55498 0.05084 0.0
N590 N 0.53978 0.59078 0.06042 0.0
C591 C 0.5613 0.57955 0.05634 0.0
C592 C 0.53678 0.47939 0.05629 0.0
O593 O 0.51165 0.4895 0.00213 0.0
O594 O 0.53433 0.52024 0.01363 0.0
O595 O 0.53868 0.5027 0.05813 0.0
O596 O 0.51878 0.47009 0.04588 0.0
O597 O 0.49795 0.52619 0.0727 0.0
H598 H 0.57079 0.5412 0.04571 0.0
H599 H 0.50403 0.576 0.0599 0.0
O600 O 0.47791 0.49271 0.06395 0.0
O601 O 0.47126 0.51131 0.02007 0.0
O602 O 0.49355 0.54335 0.02793 0.0
C603 C 0.47456 0.53438 0.01939 0.0
H604 H 0.42843 0.43108 0.01773 0.0
H605 H 0.57858 0.58862 0.05625 0.0
Co606 Co 0.76826 0.2939 0.26651 0.0
C607 C 0.72525 0.27294 0.28211 0.0
Co608 Co 0.76895 0.25342 0.26413 0.0
C609 C 0.78552 0.3435 0.27219 0.0
C610 C 0.74829 0.3426 0.26346 0.0
N611 N 0.76741 0.32792 0.26734 0.0
N612 N 0.77839 0.36727 0.27166 0.0
C613 C 0.75495 0.36684 0.26627 0.0
H614 H 0.80345 0.33752 0.27657 0.0
H615 H 0.73061 0.33609 0.25896 0.0
C616 C 0.81214 0.27429 0.24883 0.0
N617 N 0.76954 0.21948 0.26289 0.0
C618 C 0.75776 0.20397 0.27792 0.0
C619 C 0.77995 0.2049 0.24521 0.0
N620 N 0.76006 0.18031 0.2701 0.0
C621 C 0.77407 0.18078 0.24956 0.0
C622 C 0.7538 0.27406 0.2225 0.0
O623 O 0.80029 0.29425 0.25261 0.0
O624 O 0.80203 0.25393 0.25354 0.0
O625 O 0.75972 0.25363 0.23138 0.0
O626 O 0.75585 0.29384 0.23502 0.0
O627 O 0.73589 0.25312 0.27493 0.0
H628 H 0.79039 0.21148 0.22968 0.0
H629 H 0.74669 0.21003 0.29359 0.0
O630 O 0.73641 0.2932 0.28036 0.0
O631 O 0.7803 0.29381 0.2983 0.0
O632 O 0.77779 0.25338 0.29687 0.0
C633 C 0.78192 0.27322 0.30868 0.0
H634 H 0.74354 0.38289 0.26436 0.0
H635 H 0.77925 0.16489 0.23821 0.0
Co636 Co 0.03285 0.52802 0.53333 0.0
C637 C 0.07582 0.51459 0.55244 0.0
Co638 Co 0.03419 0.53896 0.5722 0.0
C639 C 0.02001 0.53292 0.48378 0.0
C640 C 0.03895 0.49908 0.48907 0.0
N641 N 0.03117 0.51996 0.50073 0.0
N642 N 0.0201 0.52083 0.46206 0.0
C643 C 0.0322 0.49959 0.46521 0.0
H644 H 0.01147 0.55067 0.48749 0.0
H645 H 0.04812 0.48406 0.49759 0.0
C646 C 0.99111 0.55235 0.55181 0.0
N647 N 0.03587 0.54629 0.60541 0.0
C648 C 0.05559 0.54501 0.61902 0.0
C649 C 0.01723 0.54814 0.62185 0.0
N650 N 0.04999 0.545 0.64311 0.0
C651 C 0.02585 0.54725 0.645 0.0
C652 C 0.05085 0.57493 0.54211 0.0
O653 O 0.00155 0.54239 0.53309 0.0
O654 O 0.0019 0.55259 0.57188 0.0
O655 O 0.04657 0.57023 0.56442 0.0
O656 O 0.0465 0.55883 0.52568 0.0
O657 O 0.0665 0.52505 0.57155 0.0
H658 H 0.99844 0.54784 0.61743 0.0
H659 H 0.0736 0.54157 0.61155 0.0
O660 O 0.06381 0.51387 0.5333 0.0
O661 O 0.01935 0.4972 0.54132 0.0
O662 O 0.02182 0.50775 0.57993 0.0
C663 C 0.01654 0.49191 0.56365 0.0
H664 H 0.03488 0.48494 0.45165 0.0
H665 H 0.01507 0.54629 0.66178 0.0
Co666 Co 0.79792 0.76817 0.25127 0.0
C667 C 0.77631 0.7826 0.20883 0.0
Co668 Co 0.75888 0.7743 0.25654 0.0
C669 C 0.84454 0.74701 0.2587 0.0
C670 C 0.84582 0.77522 0.23205 0.0
N671 N 0.83051 0.76264 0.24667 0.0
N672 N 0.8681 0.74962 0.25253 0.0
C673 C 0.86891 0.76726 0.23559 0.0
H674 H 0.83761 0.73459 0.27236 0.0
H675 H 0.84067 0.7901 0.22047 0.0
C676 C 0.78069 0.75984 0.29914 0.0
N677 N 0.72627 0.77991 0.2608 0.0
C678 C 0.71274 0.79573 0.24842 0.0
C679 C 0.71037 0.76628 0.27374 0.0
N680 N 0.68904 0.79203 0.25254 0.0
C681 C 0.68741 0.77357 0.26851 0.0
C682 C 0.77063 0.72648 0.24351 0.0
O683 O 0.79945 0.75974 0.28511 0.0
O684 O 0.76069 0.76615 0.29048 0.0
O685 O 0.75295 0.74069 0.24902 0.0
O686 O 0.79186 0.73501 0.24299 0.0
O687 O 0.7573 0.78243 0.22244 0.0
H688 H 0.71513 0.75084 0.2848 0.0
H689 H 0.72003 0.80817 0.23493 0.0
O690 O 0.79613 0.77656 0.21787 0.0
O691 O 0.80403 0.80138 0.2596 0.0
O692 O 0.765 0.80776 0.26415 0.0
C693 C 0.78639 0.81579 0.26442 0.0
H694 H 0.88508 0.77511 0.22752 0.0
H695 H 0.67086 0.76488 0.27463 0.0
Co696 Co 0.75285 0.27575 0.78237 0.0
C697 C 0.72743 0.23543 0.76577 0.0
Co698 Co 0.73676 0.28117 0.74686 0.0
C699 C 0.76196 0.28838 0.83157 0.0
C700 C 0.77682 0.2528 0.82202 0.0
N701 N 0.76449 0.27185 0.81299 0.0
N702 N 0.77208 0.2805 0.85193 0.0
C703 C 0.78162 0.25814 0.84604 0.0
H704 H 0.7531 0.30609 0.83005 0.0
H705 H 0.78188 0.23614 0.81184 0.0
C706 C 0.76238 0.32147 0.76347 0.0
N707 N 0.72548 0.28519 0.71602 0.0
C708 C 0.72951 0.26871 0.69763 0.0
C709 C 0.7181 0.30591 0.70527 0.0
N710 N 0.726 0.27843 0.6757 0.0
C711 C 0.7187 0.30187 0.68033 0.0
C712 C 0.70648 0.29627 0.7844 0.0
O713 O 0.76653 0.3076 0.78119 0.0
O714 O 0.74955 0.31343 0.74641 0.0
O715 O 0.70747 0.29385 0.76128 0.0
O716 O 0.72429 0.28944 0.79645 0.0
O717 O 0.72419 0.24874 0.74742 0.0
H718 H 0.71489 0.32344 0.71467 0.0
H719 H 0.73785 0.25085 0.70004 0.0
O720 O 0.73912 0.24403 0.78347 0.0
O721 O 0.78139 0.26199 0.76821 0.0
O722 O 0.76622 0.26847 0.73267 0.0
C723 C 0.78331 0.26055 0.74514 0.0
H724 H 0.79105 0.24638 0.85828 0.0
H725 H 0.71601 0.31562 0.66666 0.0
Co726 Co 0.77381 0.76505 0.76906 0.0
C727 C 0.82098 0.782 0.77099 0.0
Co728 Co 0.77888 0.80173 0.7537 0.0
C729 C 0.75328 0.71718 0.78011 0.0
C730 C 0.78228 0.72731 0.80284 0.0
N731 N 0.76994 0.7348 0.78356 0.0
N732 N 0.75464 0.69924 0.7967 0.0
C733 C 0.77301 0.7055 0.81086 0.0
H734 H 0.73967 0.71814 0.76654 0.0
H735 H 0.79646 0.73759 0.81128 0.0
C736 C 0.73162 0.78509 0.75201 0.0
N737 N 0.78322 0.83211 0.74022 0.0
C738 C 0.79526 0.85082 0.75048 0.0
C739 C 0.77604 0.84067 0.71876 0.0
N740 N 0.79591 0.87084 0.73643 0.0
C741 C 0.7839 0.86458 0.71633 0.0
C742 C 0.78416 0.76291 0.71911 0.0
O743 O 0.74013 0.76686 0.76321 0.0
O744 O 0.74553 0.80276 0.74641 0.0
O745 O 0.78578 0.78612 0.72256 0.0
O746 O 0.77908 0.74947 0.73734 0.0
O747 O 0.81224 0.80077 0.76101 0.0
H748 H 0.76577 0.83022 0.70578 0.0
H749 H 0.80374 0.84959 0.76786 0.0
O750 O 0.80745 0.76362 0.7748 0.0
O751 O 0.76877 0.78068 0.80064 0.0
O752 O 0.77212 0.81729 0.78517 0.0
C753 C 0.7693 0.80395 0.8038 0.0
H754 H 0.77901 0.69531 0.82628 0.0
H755 H 0.78069 0.8765 0.70121 0.0
Co756 Co 0.52299 0.55198 0.49352 0.0
C757 C 0.51898 0.58477 0.53439 0.0
Co758 Co 0.53163 0.53574 0.52854 0.0
C759 C 0.50043 0.5598 0.44776 0.0
C760 C 0.52129 0.59076 0.45912 0.0
N761 N 0.51548 0.56747 0.46508 0.0
N762 N 0.49633 0.57756 0.4316 0.0
C763 C 0.50932 0.5971 0.43865 0.0
H764 H 0.49149 0.54213 0.44787 0.0
H765 H 0.53258 0.60277 0.46969 0.0
C766 C 0.53512 0.50267 0.4882 0.0
N767 N 0.53895 0.52038 0.557 0.0
C768 C 0.55312 0.52847 0.57489 0.0
C769 C 0.53209 0.49761 0.56361 0.0
N770 N 0.55558 0.51151 0.59226 0.0
C771 C 0.54235 0.49208 0.58525 0.0
C772 C 0.48353 0.52982 0.5165 0.0
O773 O 0.52923 0.52128 0.4759 0.0
O774 O 0.53815 0.50565 0.51092 0.0
O775 O 0.49872 0.5257 0.53274 0.0
O776 O 0.4901 0.54228 0.4981 0.0
O777 O 0.52501 0.56595 0.54622 0.0
H778 H 0.52063 0.48567 0.55318 0.0
H779 H 0.562 0.54617 0.57481 0.0
O780 O 0.51655 0.58242 0.51149 0.0
O781 O 0.55605 0.56147 0.48895 0.0
O782 O 0.56451 0.54568 0.52405 0.0
C783 C 0.57129 0.55732 0.50516 0.0
H784 H 0.50955 0.61485 0.43 0.0
H785 H 0.54019 0.47512 0.59509 0.0
Co786 Co 0.00622 0.54271 0.02058 0.0
C787 C 0.0176 0.59202 0.01648 0.0
Co788 Co 0.03864 0.55245 0.04025 0.0
C789 C 0.96032 0.52078 0.01526 0.0
C790 C 0.97016 0.54227 0.98431 0.0
N791 N 0.97823 0.53444 0.00569 0.0
N792 N 0.94104 0.52002 0.00101 0.0
C793 C 0.94727 0.53345 0.98138 0.0
H794 H 0.96145 0.51198 0.03267 0.0
H795 H 0.97997 0.55426 0.97206 0.0
C796 C 0.02738 0.50298 0.04408 0.0
N797 N 0.06707 0.56145 0.05423 0.0
C798 C 0.08488 0.57259 0.04151 0.0
C799 C 0.07552 0.55892 0.07679 0.0
N800 N 0.10427 0.57679 0.05482 0.0
C801 C 0.09854 0.56851 0.07724 0.0
C802 C 0.99809 0.55703 0.06939 0.0
O803 O 0.01074 0.50925 0.03005 0.0
O804 O 0.04187 0.51937 0.05149 0.0
O805 O 0.0206 0.56116 0.06931 0.0
O806 O 0.98864 0.54927 0.05001 0.0
O807 O 0.03539 0.58556 0.02881 0.0
H808 H 0.06577 0.55039 0.09176 0.0
H809 H 0.08368 0.57759 0.02259 0.0
O810 O 0.00193 0.57604 0.01128 0.0
O811 O 0.02368 0.53579 0.99133 0.0
O812 O 0.05633 0.54305 0.0112 0.0
C813 C 0.04641 0.53649 0.9917 0.0
H814 H 0.93589 0.53744 0.96636 0.0
H815 H 0.11034 0.56871 0.0925 0.0
H816 H 0.9903 0.23638 0.0702 0.0
H817 H 0.03558 0.09664 0.08219 0.0
H818 H 0.03447 0.21379 0.12889 0.0
H819 H 0.00645 0.12603 0.01695 0.0
H820 H 0.03332 0.1382 0.10114 0.0
H821 H 0.99451 0.19523 0.05177 0.0
C822 C 0.00106 0.2228 0.07918 0.0
C823 C 0.01206 0.22871 0.10119 0.0
C824 C 0.02742 0.13549 0.08269 0.0
C825 C 0.0167 0.18098 0.08015 0.0
C826 C 0.02854 0.11173 0.07191 0.0
C827 C 0.02111 0.10772 0.04792 0.0
C828 C 0.01858 0.15536 0.06949 0.0
C829 C 0.01237 0.12811 0.03546 0.0
C830 C 0.00345 0.19921 0.0686 0.0
C831 C 0.0258 0.21019 0.11185 0.0
N832 N 0.01129 0.15088 0.04637 0.0
N833 N 0.02756 0.18712 0.10135 0.0
H834 H 0.09609 0.79847 0.3354 0.0
H835 H 0.23473 0.77176 0.35899 0.0
H836 H 0.12049 0.75863 0.39726 0.0
H837 H 0.20691 0.78628 0.28823 0.0
H838 H 0.19407 0.77725 0.37713 0.0
H839 H 0.13803 0.8051 0.32238 0.0
C840 C 0.11025 0.79156 0.34653 0.0
C841 C 0.10484 0.77758 0.3672 0.0
C842 C 0.19697 0.77945 0.35767 0.0
C843 C 0.15268 0.78505 0.35237 0.0
C844 C 0.22011 0.77632 0.34732 0.0
C845 C 0.22407 0.77819 0.32203 0.0
C846 C 0.1778 0.78478 0.34265 0.0
C847 C 0.20456 0.7843 0.30776 0.0
C848 C 0.13415 0.79524 0.339 0.0
C849 C 0.1239 0.76917 0.38098 0.0
N850 N 0.18221 0.78727 0.31827 0.0
N851 N 0.14703 0.77282 0.37317 0.0
H852 H 0.4889 0.85226 0.57503 0.0
H853 H 0.55804 0.98145 0.58164 0.0
H854 H 0.54791 0.86517 0.62253 0.0
H855 H 0.49525 0.96761 0.53956 0.0
H856 H 0.55762 0.93817 0.59404 0.0
H857 H 0.49468 0.89309 0.55835 0.0
C858 C 0.50335 0.86353 0.58174 0.0
C859 C 0.51781 0.8552 0.60039 0.0
C860 C 0.54402 0.94463 0.58201 0.0
C861 C 0.5243 0.90257 0.58151 0.0
C862 C 0.54422 0.96935 0.57494 0.0
C863 C 0.52659 0.97831 0.55959 0.0
C864 C 0.52612 0.9287 0.57359 0.0
C865 C 0.50917 0.96169 0.55147 0.0
C866 C 0.50656 0.887 0.57225 0.0
C867 C 0.53633 0.87074 0.60816 0.0
N868 N 0.50938 0.93784 0.55858 0.0
N869 N 0.53886 0.89377 0.5989 0.0
H870 H 0.4512 0.20236 0.87339 0.0
H871 H 0.40384 0.21702 0.73898 0.0
H872 H 0.49507 0.22302 0.81071 0.0
H873 H 0.3576 0.2175 0.80399 0.0
H874 H 0.43784 0.20615 0.7637 0.0
H875 H 0.41734 0.19563 0.84668 0.0
C876 C 0.4538 0.20519 0.85403 0.0
C877 C 0.47575 0.21382 0.8443 0.0
C878 C 0.42013 0.20823 0.77243 0.0
C879 C 0.43745 0.20584 0.81376 0.0
C880 C 0.40075 0.21449 0.75835 0.0
C881 C 0.37794 0.21889 0.76946 0.0
C882 C 0.41666 0.20639 0.7978 0.0
C883 C 0.37482 0.21457 0.79456 0.0
C884 C 0.43452 0.20131 0.83881 0.0
C885 C 0.47826 0.21691 0.81903 0.0
N886 N 0.39408 0.20899 0.80796 0.0
N887 N 0.45928 0.21311 0.80466 0.0
H888 H 0.95866 0.79151 0.42925 0.0
H889 H 0.02341 0.90172 0.49791 0.0
H890 H 0.03487 0.80571 0.42129 0.0
H891 H 0.94668 0.9013 0.48778 0.0
H892 H 0.02756 0.8648 0.47221 0.0
H893 H 0.95349 0.83035 0.4524 0.0
C894 C 0.97427 0.80287 0.43217 0.0
C895 C 0.99727 0.79524 0.42341 0.0
C896 C 0.00982 0.87284 0.47554 0.0
C897 C 0.99147 0.8395 0.45017 0.0
C898 C 0.00739 0.89404 0.49022 0.0
C899 C 0.98465 0.90498 0.49493 0.0
C900 C 0.98935 0.86218 0.46564 0.0
C901 C 0.96455 0.89355 0.48488 0.0
C902 C 0.97129 0.82503 0.44539 0.0
C903 C 0.01682 0.8108 0.42768 0.0
N904 N 0.96737 0.87275 0.47072 0.0
N905 N 0.0135 0.83205 0.44097 0.0
H906 H 0.46629 0.78231 0.72831 0.0
H907 H 0.33403 0.73436 0.72147 0.0
H908 H 0.43764 0.7691 0.65728 0.0
H909 H 0.34677 0.80303 0.75978 0.0
H910 H 0.37537 0.73554 0.70376 0.0
H911 H 0.42548 0.77818 0.74669 0.0
C912 C 0.45148 0.77806 0.71667 0.0
C913 C 0.45521 0.77606 0.69128 0.0
C914 C 0.36904 0.7502 0.71616 0.0
C915 C 0.40897 0.77097 0.71211 0.0
C916 C 0.34563 0.74953 0.72631 0.0
C917 C 0.3371 0.76866 0.74204 0.0
C918 C 0.38418 0.76968 0.72252 0.0
C919 C 0.35271 0.78801 0.74763 0.0
C920 C 0.4283 0.77593 0.72712 0.0
C921 C 0.43541 0.77088 0.67692 0.0
N922 N 0.37567 0.7879 0.73809 0.0
N923 N 0.41309 0.7683 0.68756 0.0
H924 H 0.57121 0.2087 0.95005 0.0
H925 H 0.54023 0.12539 0.06319 0.0
H926 H 0.5019 0.20511 0.9879 0.0
H927 H 0.5891 0.10583 0.00291 0.0
H928 H 0.5385 0.16769 0.04844 0.0
H929 H 0.58875 0.18499 0.98246 0.0
C930 C 0.55982 0.20367 0.96556 0.0
C931 C 0.53489 0.20811 0.96593 0.0
C932 C 0.5504 0.15437 0.0391 0.0
C933 C 0.55492 0.18135 0.00298 0.0
C934 C 0.5515 0.13032 0.04754 0.0
C935 C 0.56446 0.11219 0.03386 0.0
C936 C 0.56258 0.16011 0.01711 0.0
C937 C 0.57861 0.11934 0.01365 0.0
C938 C 0.56989 0.19017 0.98403 0.0
C939 C 0.52108 0.2014 0.9866 0.0
N940 N 0.57697 0.14272 0.00559 0.0
N941 N 0.5312 0.18791 0.00412 0.0
H942 H 0.10577 0.30517 0.16794 0.0
H943 H 0.19097 0.25625 0.27174 0.0
H944 H 0.0813 0.25892 0.22667 0.0
H945 H 0.21194 0.3145 0.22325 0.0
H946 H 0.15145 0.25537 0.25374 0.0
H947 H 0.14567 0.30672 0.18574 0.0
C948 C 0.10881 0.29519 0.18444 0.0
C949 C 0.09008 0.2819 0.1958 0.0
C950 C 0.16461 0.26846 0.24709 0.0
C951 C 0.13569 0.28367 0.21633 0.0
C952 C 0.18722 0.26901 0.25742 0.0
C953 C 0.20486 0.28556 0.24911 0.0
C954 C 0.15951 0.28437 0.22804 0.0
C955 C 0.19889 0.30156 0.23039 0.0
C956 C 0.13155 0.29621 0.19468 0.0
C957 C 0.09509 0.26945 0.21726 0.0
N958 N 0.1768 0.30047 0.2204 0.0
N959 N 0.11733 0.27062 0.22675 0.0
H960 H 0.11874 0.04762 0.2285 0.0
H961 H 0.08036 0.96948 0.11254 0.0
H962 H 0.14754 0.97518 0.20981 0.0
H963 H 0.0681 0.04796 0.11949 0.0
H964 H 0.10487 0.97138 0.14855 0.0
H965 H 0.10063 0.04884 0.18857 0.0
C966 C 0.12155 0.03213 0.21589 0.0
C967 C 0.13442 0.01114 0.22262 0.0
C968 C 0.09697 0.98824 0.14213 0.0
C969 C 0.11349 0.01229 0.17715 0.0
C970 C 0.0828 0.9871 0.12173 0.0
C971 C 0.07206 0.00856 0.11321 0.0
C972 C 0.10016 0.01096 0.15431 0.0
C973 C 0.07616 0.03102 0.12548 0.0
C974 C 0.11119 0.03284 0.19312 0.0
C975 C 0.1376 0.99167 0.2055 0.0
N976 N 0.08971 0.03162 0.14561 0.0
N977 N 0.12692 0.99258 0.18369 0.0
H978 H 0.32366 0.89502 0.49145 0.0
H979 H 0.29866 0.77178 0.42235 0.0
H980 H 0.25979 0.85377 0.50993 0.0
H981 H 0.32098 0.83468 0.38093 0.0
H982 H 0.28966 0.7993 0.45784 0.0
H983 H 0.32783 0.87157 0.45269 0.0
C984 C 0.31029 0.88135 0.48705 0.0
C985 C 0.29129 0.8763 0.50363 0.0
C986 C 0.2965 0.807 0.44093 0.0
C987 C 0.29648 0.84902 0.46026 0.0
C988 C 0.30187 0.79137 0.42094 0.0
C989 C 0.31069 0.80116 0.39902 0.0
C990 C 0.30062 0.83239 0.439 0.0
C991 C 0.31425 0.82665 0.3977 0.0
C992 C 0.31269 0.86803 0.46508 0.0
C993 C 0.27451 0.85831 0.49738 0.0
N994 N 0.30949 0.84146 0.41759 0.0
N995 N 0.27777 0.84487 0.47632 0.0
H996 H 0.3892 0.06833 0.69211 0.0
H997 H 0.51729 0.05781 0.62302 0.0
H998 H 0.44804 0.02449 0.71749 0.0
H999 H 0.45234 0.06847 0.58359 0.0
H1000 H 0.49279 0.0539 0.66064 0.0
H1001 H 0.41258 0.07507 0.654 0.0
C1002 C 0.40688 0.05992 0.68957 0.0
C1003 C 0.41669 0.04582 0.70798 0.0
C1004 C 0.48396 0.05732 0.64376 0.0
C1005 C 0.44359 0.05407 0.66502 0.0
C1006 C 0.49792 0.05984 0.62236 0.0
C1007 C 0.4868 0.06336 0.60017 0.0
C1008 C 0.45877 0.05867 0.64299 0.0
C1009 C 0.46159 0.06565 0.60034 0.0
C1010 C 0.42019 0.06386 0.66792 0.0
C1011 C 0.4397 0.0354 0.70378 0.0
N1012 N 0.44837 0.06321 0.62146 0.0
N1013 N 0.45248 0.03998 0.68287 0.0
H1014 H 0.2556 0.19402 0.95078 0.0
H1015 H 0.31853 0.24806 0.83074 0.0
H1016 H 0.32685 0.22524 0.94878 0.0
H1017 H 0.24116 0.24733 0.84023 0.0
H1018 H 0.32187 0.2357 0.87307 0.0
H1019 H 0.24947 0.21028 0.90988 0.0
C1020 C 0.26981 0.20455 0.94202 0.0
C1021 C 0.29182 0.20813 0.95346 0.0
C1022 C 0.30414 0.23833 0.86597 0.0
C1023 C 0.28509 0.22622 0.90632 0.0
C1024 C 0.30221 0.24532 0.84171 0.0
C1025 C 0.27952 0.24886 0.83183 0.0
C1026 C 0.28325 0.23433 0.88055 0.0
C1027 C 0.25903 0.24496 0.84708 0.0
C1028 C 0.26631 0.21375 0.91861 0.0
C1029 C 0.30957 0.22185 0.94092 0.0
N1030 N 0.26136 0.23771 0.87058 0.0
N1031 N 0.30593 0.23004 0.91808 0.0
H1032 H 0.0951 0.01922 0.34372 0.0
H1033 H 0.04946 0.95945 0.46689 0.0
H1034 H 0.12691 0.952 0.36882 0.0
H1035 H 0.06147 0.03783 0.46329 0.0
H1036 H 0.06892 0.95418 0.42616 0.0
H1037 H 0.07329 0.02427 0.38343 0.0
C1038 C 0.09728 0.00547 0.35751 0.0
C1039 C 0.1128 0.98524 0.35323 0.0
C1040 C 0.06718 0.97249 0.43437 0.0
C1041 C 0.08783 0.9906 0.39791 0.0
C1042 C 0.05611 0.97551 0.45746 0.0
C1043 C 0.05412 -0.00094 0.46838 0.0
C1044 C 0.0756 0.99326 0.42201 0.0
C1045 C 0.06296 0.01934 0.4555 0.0
C1046 C 0.08499 0.00841 0.38005 0.0
C1047 C 0.11519 0.96794 0.3716 0.0
N1048 N 0.07319 0.01601 0.43281 0.0
N1049 N 0.10266 0.97089 0.39315 0.0
H1050 H 0.30724 0.81646 0.60423 0.0
H1051 H 0.21697 0.77966 0.70203 0.0
H1052 H 0.23194 0.8364 0.6026 0.0
H1053 H 0.28361 0.73973 0.68891 0.0
H1054 H 0.21758 0.79112 0.65936 0.0
H1055 H 0.29637 0.78033 0.62769 0.0
C1056 C 0.28838 0.81302 0.60841 0.0
C1057 C 0.27057 0.83008 0.60243 0.0
C1058 C 0.2317 0.77911 0.66543 0.0
C1059 C 0.25801 0.78885 0.62933 0.0
C1060 C 0.23123 0.77251 0.68978 0.0
C1061 C 0.25046 0.75918 0.69878 0.0
C1062 C 0.25218 0.77334 0.65052 0.0
C1063 C 0.26857 0.75025 0.68245 0.0
C1064 C 0.28214 0.79223 0.62166 0.0
C1065 C 0.24639 0.82425 0.60765 0.0
N1066 N 0.26949 0.75825 0.65916 0.0
N1067 N 0.24086 0.80446 0.62136 0.0
H1068 H 0.40214 0.07044 0.86342 0.0
H1069 H 0.53264 0.02548 0.90132 0.0
H1070 H 0.45527 0.03701 0.81337 0.0
H1071 H 0.47781 0.05214 0.95328 0.0
H1072 H 0.50381 0.02853 0.86897 0.0
H1073 H 0.42879 0.06258 0.89705 0.0
C1074 C 0.41928 0.06128 0.85954 0.0
C1075 C 0.42656 0.0545 0.83558 0.0
C1076 C 0.49802 0.03355 0.88748 0.0
C1077 C 0.4571 0.04563 0.87376 0.0
C1078 C 0.51452 0.03191 0.9059 0.0
C1079 C 0.50764 0.03859 0.92997 0.0
C1080 C 0.47451 0.04214 0.89316 0.0
C1081 C 0.48382 0.04653 0.93501 0.0
C1082 C 0.43449 0.05683 0.87871 0.0
C1083 C 0.44897 0.04272 0.83154 0.0
N1084 N 0.46814 0.04825 0.91672 0.0
N1085 N 0.46348 0.0388 0.8504 0.0
H1086 H 0.31965 0.23131 0.07763 0.0
H1087 H 0.26653 0.20923 0.21365 0.0
H1088 H 0.27295 0.1703 0.09426 0.0
H1089 H 0.30363 0.27474 0.19049 0.0
H1090 H 0.26995 0.19293 0.17125 0.0
H1091 H 0.31461 0.24617 0.11968 0.0
C1092 C 0.30812 0.22109 0.09007 0.0
C1093 C 0.29669 0.19948 0.08218 0.0
C1094 C 0.27737 0.21084 0.17556 0.0
C1095 C 0.29107 0.21639 0.13108 0.0
C1096 C 0.27559 0.22006 0.19979 0.0
C1097 C 0.28483 0.24342 0.20578 0.0
C1098 C 0.28864 0.22499 0.15724 0.0
C1099 C 0.29617 0.2567 0.18692 0.0
C1100 C 0.30529 0.2296 0.11423 0.0
C1101 C 0.28198 0.18714 0.09938 0.0
N1102 N 0.29773 0.24734 0.16373 0.0
N1103 N 0.27974 0.19565 0.12303 0.0
H1104 H 0.20895 0.12321 0.96013 0.0
H1105 H 0.10948 0.05386 0.04226 0.0
H1106 H 0.21454 0.11466 0.03773 0.0
H1107 H 0.09824 0.07638 0.96857 0.0
H1108 H 0.14931 0.07295 0.04023 0.0
H1109 H 0.16954 0.10363 0.96234 0.0
C1110 C 0.20187 0.1173 0.97769 0.0
C1111 C 0.21516 0.12065 0.99879 0.0
C1112 C 0.13815 0.07364 0.02448 0.0
C1113 C 0.16991 0.09787 0.0014 0.0
C1114 C 0.11545 0.06259 0.02556 0.0
C1115 C 0.10044 0.06344 0.00553 0.0
C1116 C 0.14604 0.0855 0.00315 0.0
C1117 C 0.10914 0.07521 0.98446 0.0
C1118 C 0.17932 0.10609 0.97892 0.0
C1119 C 0.20495 0.11258 0.021 0.0
N1120 N 0.13131 0.08573 0.98383 0.0
N1121 N 0.18302 0.10146 0.0217 0.0
H1122 H 0.67354 0.43036 0.10589 0.0
H1123 H 0.55041 0.43487 0.03596 0.0
H1124 H 0.66784 0.40469 0.03126 0.0
H1125 H 0.56987 0.48878 0.09066 0.0
H1126 H 0.58892 0.41351 0.04109 0.0
H1127 H 0.63091 0.44161 0.10696 0.0
C1128 C 0.66327 0.42678 0.0898 0.0
C1129 C 0.67433 0.41691 0.0683 0.0
C1130 C 0.58447 0.42975 0.05225 0.0
C1131 C 0.62555 0.4295 0.06962 0.0
C1132 C 0.56249 0.4418 0.04952 0.0
C1133 C 0.55712 0.46368 0.06283 0.0
C1134 C 0.60084 0.43943 0.06872 0.0
C1135 C 0.57346 0.47205 0.07996 0.0
C1136 C 0.63897 0.43324 0.09047 0.0
C1137 C 0.66007 0.41255 0.0481 0.0
N1138 N 0.59467 0.45996 0.08235 0.0
N1139 N 0.63635 0.41902 0.04919 0.0
H1140 H 0.88099 0.48613 0.2678 0.0
H1141 H 0.76368 0.40855 0.29623 0.0
H1142 H 0.83515 0.49859 0.33228 0.0
H1143 H 0.82522 0.37461 0.25856 0.0
H1144 H 0.7879 0.44496 0.30486 0.0
H1145 H 0.85945 0.44749 0.2598 0.0
C1146 C 0.86659 0.48069 0.28034 0.0
C1147 C 0.85984 0.49568 0.3007 0.0
C1148 C 0.79614 0.42952 0.29475 0.0
C1149 C 0.83506 0.45203 0.29141 0.0
C1150 C 0.78229 0.40889 0.2897 0.0
C1151 C 0.79254 0.38868 0.27671 0.0
C1152 C 0.82029 0.43013 0.28637 0.0
C1153 C 0.81681 0.38984 0.26881 0.0
C1154 C 0.85439 0.45869 0.27578 0.0
C1155 C 0.84106 0.4877 0.31637 0.0
N1156 N 0.8299 0.41038 0.27358 0.0
N1157 N 0.82917 0.46662 0.31123 0.0
H1158 H 0.87371 0.6384 0.49868 0.0
H1159 H 0.95549 0.56218 0.58735 0.0
H1160 H 0.84122 0.59816 0.55814 0.0
H1161 H 0.97246 0.5703 0.51061 0.0
H1162 H 0.91596 0.58193 0.58159 0.0
H1163 H 0.91284 0.62081 0.50786 0.0
C1164 C 0.87481 0.62608 0.51388 0.0
C1165 C 0.85406 0.61969 0.52759 0.0
C1166 C 0.92844 0.57934 0.56611 0.0
C1167 C 0.89905 0.59952 0.53828 0.0
C1168 C 0.95096 0.56818 0.56938 0.0
C1169 C 0.96726 0.56446 0.54941 0.0
C1170 C 0.92252 0.58739 0.54287 0.0
C1171 C 0.96045 0.57258 0.5265 0.0
C1172 C 0.89717 0.61594 0.51901 0.0
C1173 C 0.85672 0.6035 0.54702 0.0
N1174 N 0.93877 0.58378 0.52392 0.0
N1175 N 0.87882 0.59399 0.55184 0.0
H1176 H 0.20612 0.05328 0.35377 0.0
H1177 H 0.21276 0.17821 0.2799 0.0
H1178 H 0.1731 0.06002 0.28412 0.0
H1179 H 0.26185 0.15789 0.33539 0.0
H1180 H 0.19474 0.13702 0.28243 0.0
H1181 H 0.22246 0.09441 0.34948 0.0
C1182 C 0.20218 0.06343 0.33759 0.0
C1183 C 0.1883 0.05305 0.31922 0.0
C1184 C 0.20949 0.14172 0.29397 0.0
C1185 C 0.20715 0.10036 0.31415 0.0
C1186 C 0.21984 0.16513 0.29247 0.0
C1187 C 0.23862 0.17171 0.30773 0.0
C1188 C 0.21793 0.12499 0.31094 0.0
C1189 C 0.24701 0.15403 0.32375 0.0
C1190 C 0.21164 0.08693 0.3351 0.0
C1191 C 0.18382 0.06724 0.29869 0.0
N1192 N 0.23653 0.13163 0.32502 0.0
N1193 N 0.19324 0.09024 0.29668 0.0
H1194 H 0.29371 0.97758 0.53885 0.0
H1195 H 0.43719 0.98236 0.53893 0.0
H1196 H 0.33782 0.93594 0.58665 0.0
H1197 H 0.39509 0.03461 0.49998 0.0
H1198 H 0.40035 0.96329 0.55398 0.0
H1199 H 0.33001 0.99792 0.52275 0.0
C1200 C 0.31098 0.97288 0.54609 0.0
C1201 C 0.31285 0.95484 0.56389 0.0
C1202 C 0.39906 0.97894 0.54216 0.0
C1203 C 0.3542 0.97769 0.54543 0.0
C1204 C 0.42011 0.98984 0.53359 0.0
C1205 C 0.41913 0.0103 0.5185 0.0
C1206 C 0.37674 0.98848 0.53558 0.0
C1207 C 0.39655 0.01883 0.51157 0.0
C1208 C 0.33165 0.98438 0.53681 0.0
C1209 C 0.3356 0.9494 0.57263 0.0
N1210 N 0.37613 0.00793 0.52031 0.0
N1211 N 0.35538 0.96068 0.56321 0.0
H1212 H 0.80656 0.61132 0.32018 0.0
H1213 H 0.73951 0.69933 0.27121 0.0
H1214 H 0.83116 0.58999 0.24712 0.0
H1215 H 0.79573 0.6929 0.21512 0.0
H1216 H 0.74626 0.65611 0.28127 0.0
H1217 H 0.77616 0.63777 0.30311 0.0
C1218 C 0.80511 0.61164 0.30056 0.0
C1219 C 0.82199 0.5992 0.28505 0.0
C1220 C 0.75669 0.66398 0.26637 0.0
C1221 C 0.78701 0.6291 0.2653 0.0
C1222 C 0.7526 0.68851 0.26036 0.0
C1223 C 0.76762 0.69967 0.2428 0.0
C1224 C 0.7759 0.65093 0.25464 0.0
C1225 C 0.7842 0.68498 0.22918 0.0
C1226 C 0.78751 0.62658 0.29075 0.0
C1227 C 0.81904 0.59998 0.25977 0.0
N1228 N 0.78824 0.66141 0.23571 0.0
N1229 N 0.80234 0.61523 0.25068 0.0
H1230 H 0.71548 0.46387 0.75899 0.0
H1231 H 0.78332 0.34674 0.80082 0.0
H1232 H 0.73911 0.45242 0.83202 0.0
H1233 H 0.7555 0.35643 0.72919 0.0
H1234 H 0.78148 0.39129 0.80773 0.0
H1235 H 0.74377 0.43209 0.74383 0.0
C1236 C 0.727 0.45508 0.7718 0.0
C1237 C 0.72417 0.46005 0.79697 0.0
C1238 C 0.77639 0.38375 0.79024 0.0
C1239 C 0.75631 0.42341 0.77975 0.0
C1240 C 0.77747 0.35827 0.78626 0.0
C1241 C 0.76863 0.34783 0.76477 0.0
C1242 C 0.76612 0.39871 0.77272 0.0
C1243 C 0.76176 0.36368 0.74636 0.0
C1244 C 0.74319 0.43692 0.76311 0.0
C1245 C 0.7401 0.44863 0.81255 0.0
N1246 N 0.76004 0.38831 0.751 0.0
N1247 N 0.75503 0.43033 0.80378 0.0
H1248 H 0.96895 0.87395 0.92919 0.0
H1249 H 0.05935 0.95757 0.99928 0.0
H1250 H 0.04261 0.84924 0.93311 0.0
H1251 H 0.0104 0.98897 0.949 0.0
H1252 H 0.05135 0.91634 0.9817 0.0
H1253 H 0.98092 0.91504 0.94357 0.0
C1254 C 0.98763 0.87713 0.93321 0.0
C1255 C 0.00481 0.85812 0.92993 0.0
C1256 C 0.04266 0.93236 0.97438 0.0
C1257 C 0.01851 0.90503 0.94679 0.0
C1258 C 0.04722 0.95585 0.98434 0.0
C1259 C 0.03571 0.97681 0.97545 0.0
C1260 C 0.02584 0.92975 0.95602 0.0
C1261 C 0.01992 0.97342 0.95624 0.0
C1262 C 0.99445 0.90061 0.94126 0.0
C1263 C 0.02881 0.8634 0.93529 0.0
N1264 N 0.01515 0.95036 0.94748 0.0
N1265 N 0.03493 0.88629 0.94377 0.0
H1266 H 0.90301 0.25975 0.64713 0.0
H1267 H 0.82285 0.24084 0.76604 0.0
H1268 H 0.93101 0.23377 0.71433 0.0
H1269 H 0.79434 0.25806 0.69619 0.0
H1270 H 0.86141 0.23019 0.74565 0.0
H1271 H 0.86246 0.25051 0.66224 0.0
C1272 C 0.90069 0.2516 0.66487 0.0
C1273 C 0.92033 0.24813 0.67976 0.0
C1274 C 0.84662 0.23593 0.73473 0.0
C1275 C 0.8739 0.23802 0.69743 0.0
C1276 C 0.82463 0.24213 0.74638 0.0
C1277 C 0.80558 0.25097 0.73285 0.0
C1278 C 0.84963 0.23888 0.70943 0.0
C1279 C 0.80872 0.25181 0.7074 0.0
C1280 C 0.87748 0.24633 0.67353 0.0
C1281 C 0.91629 0.2371 0.70241 0.0
N1282 N 0.83047 0.24626 0.69656 0.0
N1283 N 0.89343 0.23298 0.71083 0.0
H1284 H 0.49786 0.2462 0.48851 0.0
H1285 H 0.50927 0.10481 0.47647 0.0
H1286 H 0.53521 0.21405 0.42509 0.0
H1287 H 0.53432 0.13754 0.54313 0.0
H1288 H 0.51056 0.14546 0.45776 0.0
H1289 H 0.50419 0.20753 0.51022 0.0
C1290 C 0.50784 0.23123 0.47935 0.0
C1291 C 0.51615 0.23339 0.455 0.0
C1292 C 0.5158 0.14369 0.47647 0.0
C1293 C 0.52248 0.18907 0.47931 0.0
C1294 C 0.51488 0.12062 0.4872 0.0
C1295 C 0.52164 0.11789 0.51138 0.0
C1296 C 0.52276 0.16435 0.49022 0.0
C1297 C 0.52901 0.13893 0.52442 0.0
C1298 C 0.51138 0.20925 0.49172 0.0
C1299 C 0.52873 0.2133 0.44391 0.0
N1300 N 0.52901 0.16145 0.5138 0.0
N1301 N 0.531 0.19179 0.45594 0.0
H1302 H 0.58376 0.79612 0.14444 0.0
H1303 H 0.68137 0.83883 0.23849 0.0
H1304 H 0.57736 0.86735 0.18107 0.0
H1305 H 0.6553 0.7645 0.23139 0.0
H1306 H 0.65094 0.85235 0.20981 0.0
H1307 H 0.61962 0.78759 0.16715 0.0
C1308 C 0.59015 0.81021 0.15686 0.0
C1309 C 0.57719 0.83226 0.16132 0.0
C1310 C 0.65197 0.83313 0.21466 0.0
C1311 C 0.61816 0.82248 0.18729 0.0
C1312 C 0.66911 0.82549 0.23097 0.0
C1313 C 0.6704 0.80067 0.23746 0.0
C1314 C 0.63673 0.81557 0.20436 0.0
C1315 C 0.65447 0.78388 0.22717 0.0
C1316 C 0.61052 0.80523 0.1699 0.0
C1317 C 0.5866 0.84995 0.1774 0.0
N1318 N 0.63839 0.7916 0.21096 0.0
N1319 N 0.60644 0.84455 0.19011 0.0
H1320 H 0.97598 0.22538 0.57153 0.0
H1321 H 0.07992 0.12392 0.58101 0.0
H1322 H 0.02771 0.22597 0.62842 0.0
H1323 H 0.0231 0.12065 0.52972 0.0
H1324 H 0.06624 0.16564 0.59373 0.0
H1325 H 0.99804 0.19128 0.55131 0.0
C1326 C 0.99207 0.21847 0.57971 0.0
C1327 C -0.00026 0.2283 0.60195 0.0
C1328 C 0.05701 0.15591 0.57943 0.0
C1329 C 0.02508 0.18911 0.57889 0.0
C1330 C 0.06491 0.13225 0.57211 0.0
C1331 C 0.05231 0.11887 0.55465 0.0
C1332 C 0.03651 0.16608 0.56903 0.0
C1333 C 0.03293 0.13029 0.54363 0.0
C1334 C 0.0047 0.19899 0.56812 0.0
C1335 C 0.02094 0.21878 0.61146 0.0
N1336 N 0.02548 0.15313 0.55117 0.0
N1337 N 0.03273 0.1995 0.60002 0.0
H1338 H 0.58772 0.22737 0.34456 0.0
H1339 H 0.69801 0.31178 0.30063 0.0
H1340 H 0.59088 0.30574 0.35951 0.0
H1341 H 0.6967 0.23269 0.29004 0.0
H1342 H 0.65838 0.31013 0.3213 0.0
H1343 H 0.62736 0.22911 0.32404 0.0
C1344 C 0.59678 0.24496 0.34361 0.0
C1345 C 0.58591 0.26646 0.35377 0.0
C1346 C 0.66673 0.29314 0.31442 0.0
C1347 C 0.63136 0.26859 0.33012 0.0
C1348 C 0.68935 0.29407 0.30254 0.0
C1349 C 0.70072 0.27233 0.29354 0.0
C1350 C 0.65532 0.27032 0.31734 0.0
C1351 C 0.68862 0.24992 0.29662 0.0
C1352 C 0.61943 0.24593 0.33185 0.0
C1353 C 0.59856 0.2887 0.35197 0.0
N1354 N 0.66661 0.2495 0.30826 0.0
N1355 N 0.62057 0.28919 0.34031 0.0
H1356 H 0.44579 0.86764 0.08029 0.0
H1357 H 0.48797 0.98611 0.07562 0.0
H1358 H 0.52195 0.85325 0.06917 0.0
H1359 H 0.53229 0.96083 0.01373 0.0
H1360 H 0.47325 0.94398 0.08062 0.0
H1361 H 0.45125 0.90788 0.06154 0.0
C1362 C 0.46351 0.87258 0.07318 0.0
C1363 C 0.48358 0.85739 0.07669 0.0
C1364 C 0.48577 0.94782 0.06561 0.0
C1365 C 0.48978 0.90306 0.05547 0.0
C1366 C 0.49435 0.97168 0.06296 0.0
C1367 C 0.51135 0.97671 0.04432 0.0
C1368 C 0.49481 0.92888 0.04992 0.0
C1369 C 0.5191 0.95753 0.02828 0.0
C1370 C 0.46658 0.89556 0.06271 0.0
C1371 C 0.50612 0.86468 0.06716 0.0
N1372 N 0.51122 0.93419 0.03183 0.0
N1373 N 0.50869 0.88722 0.05717 0.0
H1374 H 0.96466 0.81839 0.8204 0.0
H1375 H 0.8407 0.74935 0.80192 0.0
H1376 H 0.92945 0.77456 0.87565 0.0
H1377 H 0.85602 0.81733 0.76517 0.0
H1378 H 0.87745 0.7543 0.82439 0.0
H1379 H 0.9283 0.81552 0.7962 0.0
C1380 C 0.94922 0.80848 0.8276 0.0
C1381 C 0.95013 0.79672 0.85012 0.0
C1382 C 0.87285 0.76807 0.8113 0.0
C1383 C 0.90896 0.79277 0.82226 0.0
C1384 C 0.85196 0.76514 0.79826 0.0
C1385 C 0.84515 0.78298 0.78163 0.0
C1386 C 0.88736 0.78881 0.80754 0.0
C1387 C 0.86055 0.80312 0.77781 0.0
C1388 C 0.92856 0.80678 0.81374 0.0
C1389 C 0.92962 0.784 0.85847 0.0
N1390 N 0.88097 0.8055 0.79067 0.0
N1391 N 0.91006 0.78211 0.84443 0.0
H1392 H 0.88554 0.0936 0.83957 0.0
H1393 H 0.01933 0.09095 0.88473 0.0
H1394 H 0.9471 0.08492 0.78968 0.0
H1395 H 0.95917 0.0669 0.92973 0.0
H1396 H 0.99281 0.09374 0.85018 0.0
H1397 H 0.91201 0.08869 0.87369 0.0
C1398 C 0.90455 0.09051 0.83574 0.0
C1399 C 0.91407 0.08941 0.8117 0.0
C1400 C 0.98547 0.08772 0.86759 0.0
C1401 C 0.94444 0.0843 0.85066 0.0
C1402 C 0.00052 0.08626 0.88726 0.0
C1403 C 0.99133 0.0787 0.90998 0.0
C1404 C 0.961 0.08201 0.87087 0.0
C1405 C 0.96691 0.0726 0.91239 0.0
C1406 C 0.91964 0.08772 0.85524 0.0
C1407 C 0.93896 0.08576 0.80792 0.0
N1408 N 0.95247 0.0746 0.89309 0.0
N1409 N 0.95333 0.08348 0.82721 0.0
H1410 H 0.78485 0.177 0.56695 0.0
H1411 H 0.75347 0.30174 0.64176 0.0
H1412 H 0.82762 0.24282 0.56075 0.0
H1413 H 0.72301 0.23136 0.65983 0.0
H1414 H 0.7777 0.2816 0.60869 0.0
H1415 H 0.7602 0.19726 0.59924 0.0
C1416 C 0.78928 0.19562 0.57267 0.0
C1417 C 0.8083 0.20827 0.56117 0.0
C1418 C 0.76552 0.27062 0.61973 0.0
C1419 C 0.77979 0.23177 0.59773 0.0
C1420 C 0.75142 0.28215 0.63828 0.0
C1421 C 0.73617 0.26811 0.65332 0.0
C1422 C 0.76417 0.24494 0.6162 0.0
C1423 C 0.73456 0.24272 0.6485 0.0
C1424 C 0.77511 0.20722 0.59101 0.0
C1425 C 0.81323 0.23236 0.56928 0.0
N1426 N 0.74847 0.23191 0.63041 0.0
N1427 N 0.79886 0.24346 0.58693 0.0
H1428 H 0.59261 0.99453 0.35175 0.0
H1429 H 0.59432 0.0285 0.49351 0.0
H1430 H 0.65283 0.97796 0.39636 0.0
H1431 H 0.52895 0.02438 0.45343 0.0
H1432 H 0.61707 0.01365 0.45714 0.0
H1433 H 0.56976 0.00877 0.38819 0.0
C1434 C 0.60104 0.99387 0.36921 0.0
C1435 C 0.62477 0.98529 0.37101 0.0
C1436 C 0.59775 0.01595 0.45635 0.0
C1437 C 0.59876 0.00165 0.41267 0.0
C1438 C 0.58477 0.02453 0.47704 0.0
C1439 C 0.55972 0.02761 0.47644 0.0
C1440 C 0.58559 0.01068 0.43492 0.0
C1441 C 0.54824 0.02218 0.45466 0.0
C1442 C 0.58797 0.00197 0.38999 0.0
C1443 C 0.63473 0.98473 0.39409 0.0
N1444 N 0.56131 0.01401 0.4347 0.0
N1445 N 0.6217 0.99296 0.41406 0.0
H1446 H 0.82117 0.82277 0.06294 0.0
H1447 H 0.74077 0.80856 0.18628 0.0
H1448 H 0.75844 0.86821 0.07996 0.0
H1449 H 0.81142 0.77646 0.17304 0.0
H1450 H 0.74298 0.82563 0.14507 0.0
H1451 H 0.81344 0.80041 0.10035 0.0
C1452 C 0.80555 0.82791 0.07437 0.0
C1453 C 0.79059 0.84768 0.06825 0.0
C1454 C 0.75788 0.81466 0.15116 0.0
C1455 C 0.78173 0.82203 0.11166 0.0
C1456 C 0.75659 0.80482 0.17463 0.0
C1457 C 0.77599 0.79111 0.18322 0.0
C1458 C 0.77859 0.81054 0.13607 0.0
C1459 C 0.79608 0.787 0.16733 0.0
C1460 C 0.8012 0.81513 0.09587 0.0
C1461 C 0.77051 0.85318 0.08387 0.0
N1462 N 0.79685 0.79667 0.14467 0.0
N1463 N 0.7668 0.8406 0.10496 0.0
H1464 H 0.88236 0.05079 0.68074 0.0
H1465 H 0.00845 0.05377 0.60642 0.0
H1466 H 0.93219 0.11144 0.68265 0.0
H1467 H 0.95406 -2e-05 0.59029 0.0
H1468 H 0.98139 0.07255 0.63733 0.0
H1469 H 0.90817 0.03045 0.64899 0.0
C1470 C 0.89849 0.06001 0.67424 0.0
C1471 C 0.90522 0.0828 0.6845 0.0
C1472 C 0.97533 0.05658 0.62715 0.0
C1473 C 0.93494 0.05942 0.64867 0.0
C1474 C 0.99088 0.04568 0.60959 0.0
C1475 C 0.98348 0.02531 0.59565 0.0
C1476 C 0.95211 0.0471 0.63095 0.0
C1477 C 0.96051 0.01563 0.60068 0.0
C1478 C 0.91327 0.0483 0.65625 0.0
C1479 C 0.92634 0.09384 0.67543 0.0
N1480 N 0.94552 0.02672 0.61789 0.0
N1481 N 0.94051 0.08195 0.65823 0.0
H1482 H 0.84431 0.25549 0.4442 0.0
H1483 H 0.75828 0.24345 0.33956 0.0
H1484 H 0.77098 0.23128 0.45554 0.0
H1485 H 0.81094 0.30144 0.33749 0.0
H1486 H 0.76256 0.24076 0.38332 0.0
H1487 H 0.83241 0.27664 0.40761 0.0
C1488 C 0.82556 0.25526 0.43948 0.0
C1489 C 0.80878 0.24074 0.45233 0.0
C1490 C 0.77301 0.25433 0.37346 0.0
C1491 C 0.79529 0.26458 0.41058 0.0
C1492 C 0.77084 0.25558 0.34844 0.0
C1493 C 0.7847 0.2723 0.33504 0.0
C1494 C 0.7897 0.2694 0.3851 0.0
C1495 C 0.80024 0.28808 0.34736 0.0
C1496 C 0.81881 0.26736 0.41858 0.0
C1497 C 0.78469 0.2415 0.44565 0.0
N1498 N 0.80279 0.28587 0.3718 0.0
N1499 N 0.77878 0.25263 0.42482 0.0
H1500 H 0.65508 0.00771 0.23868 0.0
H1501 H 0.5555 0.98985 0.13885 0.0
H1502 H 0.6121 0.9419 0.23377 0.0
H1503 H 0.57987 0.06086 0.16425 0.0
H1504 H 0.58061 0.97 0.16876 0.0
H1505 H 0.63294 0.02514 0.20547 0.0
C1506 C 0.64126 0.99674 0.23036 0.0
C1507 C 0.63524 0.9734 0.23919 0.0
C1508 C 0.58036 0.98992 0.1678 0.0
C1509 C 0.60976 0.99337 0.20133 0.0
C1510 C 0.56609 0.00121 0.15081 0.0
C1511 C 0.56554 0.02699 0.14927 0.0
C1512 C 0.59446 0.00455 0.18302 0.0
C1513 C 0.57951 0.04096 0.16514 0.0
C1514 C 0.6285 0.00681 0.21156 0.0
C1515 C 0.61717 0.96005 0.22766 0.0
N1516 N 0.59353 0.02954 0.18127 0.0
N1517 N 0.60495 0.97029 0.20936 0.0
H1518 H 0.81546 0.83093 0.94997 0.0
H1519 H 0.76479 0.85289 0.81851 0.0
H1520 H 0.77396 0.89619 0.93559 0.0
H1521 H 0.77637 0.78022 0.84652 0.0
H1522 H 0.77074 0.8705 0.85955 0.0
H1523 H 0.80456 0.8134 0.91046 0.0
C1524 C 0.80401 0.8416 0.93853 0.0
C1525 C 0.79563 0.86512 0.94623 0.0
C1526 C 0.77169 0.85069 0.85672 0.0
C1527 C 0.78331 0.84515 0.90054 0.0
C1528 C 0.76826 0.8406 0.8333 0.0
C1529 C 0.76994 0.81497 0.82897 0.0
C1530 C 0.7774 0.83512 0.87587 0.0
C1531 C 0.77471 0.80004 0.8489 0.0
C1532 C 0.79771 0.83151 0.91597 0.0
C1533 C 0.78075 0.87796 0.93052 0.0
N1534 N 0.77855 0.81032 0.87129 0.0
N1535 N 0.7753 0.86795 0.90833 0.0
H1536 H 0.84279 0.9785 0.98205 0.0
H1537 H 0.96956 0.99327 0.04514 0.0
H1538 H 0.87429 0.92253 0.02587 0.0
H1539 H 0.94932 0.03809 0.98506 0.0
H1540 H 0.93255 0.96979 0.04106 0.0
H1541 H 0.88003 0.00234 0.98451 0.0
C1542 C 0.85763 0.97104 0.9919 0.0
C1543 C 0.85535 0.94841 0.00373 0.0
C1544 C 0.93612 0.98484 0.02884 0.0
C1545 C 0.89782 0.97595 0.00715 0.0
C1546 C 0.95718 0.99846 0.03131 0.0
C1547 C 0.96262 0.01783 0.01549 0.0
C1548 C 0.92011 0.99065 0.01054 0.0
C1549 C 0.94588 0.02341 0.99774 0.0
C1550 C 0.87884 0.98473 0.99339 0.0
C1551 C 0.87518 0.93979 0.01636 0.0
N1552 N 0.9254 0.00992 0.99576 0.0
N1553 N 0.89541 0.95365 0.01793 0.0
H1554 H 0.3356 0.59542 0.99569 0.0
H1555 H 0.47623 0.58442 0.01414 0.0
H1556 H 0.38387 0.65625 0.98317 0.0
H1557 H 0.42976 0.52162 0.00521 0.0
H1558 H 0.44292 0.61156 0.0039 0.0
H1559 H 0.37013 0.56855 0.00106 0.0
C1560 C 0.35348 0.60317 0.99414 0.0
C1561 C 0.35688 0.62816 0.98917 0.0
C1562 C 0.44015 0.59182 0.00394 0.0
C1563 C 0.39651 0.59744 0.99522 0.0
C1564 C 0.45911 0.57633 0.00977 0.0
C1565 C 0.45567 0.55075 0.01067 0.0
C1566 C 0.41761 0.58162 0.99926 0.0
C1567 C 0.43317 0.54123 0.00482 0.0
C1568 C 0.3732 0.58776 0.99706 0.0
C1569 C 0.38046 0.63713 0.98717 0.0
N1570 N 0.41492 0.55671 -0.00041 0.0
N1571 N 0.39944 0.62177 0.99037 0.0
H1572 H 0.23072 0.54292 0.86204 0.0
H1573 H 0.21729 0.669 0.79245 0.0
H1574 H 0.17523 0.55399 0.81023 0.0
H1575 H 0.28634 0.6364 0.80593 0.0
H1576 H 0.19749 0.63257 0.80966 0.0
H1577 H 0.24693 0.58355 0.85239 0.0
C1578 C 0.22167 0.5541 0.849 0.0
C1579 C 0.20175 0.54507 0.83672 0.0
C1580 C 0.21696 0.6336 0.80905 0.0
C1581 C 0.22003 0.59135 0.8259 0.0
C1582 C 0.22819 0.65429 0.7994 0.0
C1583 C 0.25338 0.6554 0.79775 0.0
C1584 C 0.2311 0.61433 0.81757 0.0
C1585 C 0.26686 0.63594 0.80675 0.0
C1586 C 0.23102 0.57713 0.84344 0.0
C1587 C 0.19078 0.56023 0.81989 0.0
N1588 N 0.25553 0.61612 0.81638 0.0
N1589 N 0.20011 0.58271 0.81492 0.0
H1590 H 0.20678 0.43486 0.50906 0.0
H1591 H 0.10754 0.51197 0.58981 0.0
H1592 H 0.21719 0.45931 0.5833 0.0
H1593 H 0.09931 0.49025 0.51442 0.0
H1594 H 0.14725 0.49181 0.5884 0.0
H1595 H 0.16663 0.45376 0.51133 0.0
C1596 C 0.2006 0.44409 0.52587 0.0
C1597 C 0.21545 0.44552 0.54598 0.0
C1598 C 0.13673 0.49148 0.57217 0.0
C1599 C 0.16946 0.46734 0.54872 0.0
C1600 C 0.11407 0.50302 0.57298 0.0
C1601 C 0.10005 0.50288 0.5522 0.0
C1602 C 0.14541 0.47968 0.55046 0.0
C1603 C 0.10944 0.49091 0.53089 0.0
C1604 C 0.17767 0.45495 0.52716 0.0
C1605 C 0.20643 0.45777 0.5673 0.0
N1606 N 0.13146 0.47983 0.53059 0.0
N1607 N 0.18409 0.46823 0.56809 0.0
H1608 H 0.84284 0.00078 0.81173 0.0
H1609 H 0.8146 0.90412 0.70488 0.0
H1610 H 0.86003 0.01333 0.73559 0.0
H1611 H 0.80219 0.89047 0.78149 0.0
H1612 H 0.8331 0.94351 0.71566 0.0
H1613 H 0.83063 0.95899 0.80104 0.0
C1614 C 0.84431 0.99468 0.7928 0.0
C1615 C 0.8522 0.0107 0.77451 0.0
C1616 C 0.82645 0.93179 0.73009 0.0
C1617 C 0.83797 0.96296 0.7621 0.0
C1618 C 0.81573 0.90944 0.72393 0.0
C1619 C 0.80686 0.89402 0.7423 0.0
C1620 C 0.82812 0.93878 0.75478 0.0
C1621 C 0.80907 0.90161 0.76673 0.0
C1622 C 0.83728 0.97081 0.78669 0.0
C1623 C 0.8539 0.00169 0.7503 0.0
N1624 N 0.81938 0.92349 0.77225 0.0
N1625 N 0.84656 0.97849 0.74476 0.0
H1626 H 0.73282 0.159 0.52527 0.0
H1627 H 0.6291 0.05916 0.51711 0.0
H1628 H 0.73629 0.09679 0.47474 0.0
H1629 H 0.63857 0.10416 0.58169 0.0
H1630 H 0.6664 0.07547 0.49924 0.0
H1631 H 0.69579 0.14241 0.54378 0.0
C1632 C 0.72565 0.142 0.51788 0.0
C1633 C 0.73762 0.12924 0.4984 0.0
C1634 C 0.66046 0.08171 0.51738 0.0
C1635 C 0.69547 0.11019 0.51958 0.0
C1636 C 0.63919 0.07246 0.52753 0.0
C1637 C 0.63084 0.08047 0.55081 0.0
C1638 C 0.67334 0.09939 0.53047 0.0
C1639 C 0.64459 0.0975 0.56374 0.0
C1640 C 0.70467 0.13245 0.52862 0.0
C1641 C 0.72766 0.1072 0.48973 0.0
N1642 N 0.66513 0.10665 0.55327 0.0
N1643 N 0.70712 0.0984 0.50035 0.0
H1644 H 0.26348 0.43402 0.85207 0.0
H1645 H 0.29614 0.34806 0.73989 0.0
H1646 H 0.24638 0.44789 0.77745 0.0
H1647 H 0.30175 0.32881 0.81518 0.0
H1648 H 0.29536 0.39178 0.75208 0.0
H1649 H 0.29428 0.40448 0.83744 0.0
C1650 C 0.2666 0.43137 0.83259 0.0
C1651 C 0.25154 0.44251 0.81596 0.0
C1652 C 0.29765 0.37808 0.76589 0.0
C1653 C 0.28654 0.40863 0.79921 0.0
C1654 C 0.29819 0.35321 0.7589 0.0
C1655 C 0.29874 0.33521 0.7767 0.0
C1656 C 0.29697 0.38464 0.79084 0.0
C1657 C 0.30116 0.34243 0.80107 0.0
C1658 C 0.28424 0.4145 0.82425 0.0
C1659 C 0.25691 0.43892 0.79095 0.0
N1660 N 0.29964 0.36669 0.80755 0.0
N1661 N 0.27356 0.42177 0.78332 0.0
H1662 H 0.30518 0.56534 0.33486 0.0
H1663 H 0.26555 0.68634 0.26596 0.0
H1664 H 0.29451 0.56904 0.25743 0.0
H1665 H 0.30096 0.69035 0.33471 0.0
H1666 H 0.26799 0.6416 0.26678 0.0
H1667 H 0.2967 0.60982 0.3387 0.0
C1668 C 0.30115 0.57544 0.3187 0.0
C1669 C 0.30116 0.56359 0.29566 0.0
C1670 C 0.2751 0.65225 0.28178 0.0
C1671 C 0.29072 0.61395 0.30011 0.0
C1672 C 0.27364 0.67781 0.28138 0.0
C1673 C 0.28337 0.6921 0.30014 0.0
C1674 C 0.28634 0.64081 0.30107 0.0
C1675 C 0.29343 0.67999 0.31976 0.0
C1676 C 0.29626 0.60075 0.32093 0.0
C1677 C 0.29524 0.5775 0.27545 0.0
N1678 N 0.29485 0.65494 0.31964 0.0
N1679 N 0.29029 0.60188 0.27816 0.0
H1680 H 0.53368 0.71421 0.6302 0.0
H1681 H 0.50044 0.62725 0.51611 0.0
H1682 H 0.48536 0.73585 0.57458 0.0
H1683 H 0.53235 0.59898 0.58045 0.0
H1684 H 0.49842 0.66825 0.53558 0.0
H1685 H 0.53763 0.67322 0.61026 0.0
C1686 C 0.52416 0.7105 0.61366 0.0
C1687 C 0.50913 0.72859 0.60413 0.0
C1688 C 0.5058 0.65308 0.5455 0.0
C1689 C 0.51349 0.68166 0.58127 0.0
C1690 C 0.50692 0.62961 0.53439 0.0
C1691 C 0.51643 0.6095 0.54668 0.0
C1692 C 0.51452 0.65674 0.56904 0.0
C1693 C 0.52468 0.61384 0.57033 0.0
C1694 C 0.52627 0.68702 0.6024 0.0
C1695 C 0.49707 0.72254 0.58273 0.0
N1696 N 0.52363 0.63696 0.58068 0.0
N1697 N 0.49952 0.69972 0.57208 0.0
H1698 H 0.55842 0.30704 0.82985 0.0
H1699 H 0.70121 0.30751 0.83289 0.0
H1700 H 0.59972 0.28289 0.89015 0.0
H1701 H 0.66168 0.30491 0.76656 0.0
H1702 H 0.66352 0.31387 0.85629 0.0
H1703 H 0.59553 0.32139 0.80964 0.0
C1704 C 0.5752 0.30534 0.83914 0.0
C1705 C 0.57616 0.29323 0.86144 0.0
C1706 C 0.66315 0.31235 0.83659 0.0
C1707 C 0.6184 0.30964 0.8385 0.0
C1708 C 0.68462 0.30866 0.82318 0.0
C1709 C 0.68446 0.30495 0.79778 0.0
C1710 C 0.64136 0.31228 0.82453 0.0
C1711 C 0.66253 0.30722 0.78616 0.0
C1712 C 0.59633 0.31345 0.82754 0.0
C1713 C 0.5983 0.29167 0.87273 0.0
N1714 N 0.64171 0.31031 0.79971 0.0
N1715 N 0.61864 0.29948 0.86097 0.0
H1716 H 1e-05 0.34853 0.06594 0.0
H1717 H 0.05768 0.48318 0.07743 0.0
H1718 H 0.05063 0.36776 0.12085 0.0
H1719 H 0.00194 0.46313 0.02816 0.0
H1720 H 0.05942 0.44019 0.09053 0.0
H1721 H 0.00548 0.38896 0.04824 0.0
C1722 C 0.01265 0.36111 0.07405 0.0
C1723 C 0.02474 0.3547 0.09506 0.0
C1724 C 0.04693 0.44521 0.07675 0.0
C1725 C 0.03074 0.40161 0.07504 0.0
C1726 C 0.0459 0.46976 0.06926 0.0
C1727 C 0.02952 0.4769 0.05174 0.0
C1728 C 0.03156 0.4276 0.06657 0.0
C1729 C 0.01476 0.45863 0.0418 0.0
C1730 C 0.01566 0.38434 0.06398 0.0
C1731 C 0.04097 0.37183 0.10462 0.0
N1732 N 0.0161 0.43497 0.04938 0.0
N1733 N 0.04326 0.39463 0.09474 0.0
H1734 H 0.96397 0.70652 0.36347 0.0
H1735 H 0.9143 0.74539 0.23503 0.0
H1736 H 0.00623 0.74389 0.3082 0.0
H1737 H 0.86836 0.73106 0.29828 0.0
H1738 H 0.9493 0.73523 0.25857 0.0
H1739 H 0.9298 0.70649 0.33666 0.0
C1740 C 0.96609 0.71471 0.34574 0.0
C1741 C 0.98782 0.72567 0.33825 0.0
C1742 C 0.93149 0.73408 0.26715 0.0
C1743 C 0.94907 0.72522 0.30739 0.0
C1744 C 0.91151 0.73993 0.25376 0.0
C1745 C 0.88833 0.73963 0.26478 0.0
C1746 C 0.92826 0.72775 0.29169 0.0
C1747 C 0.8858 0.73166 0.28894 0.0
C1748 C 0.94662 0.71458 0.33042 0.0
C1749 C 0.98969 0.73556 0.31486 0.0
N1750 N 0.90557 0.7263 0.30168 0.0
N1751 N 0.97052 0.73518 0.30028 0.0
H1752 H 0.44432 0.28412 0.94278 0.0
H1753 H 0.49671 0.41897 0.96677 0.0
H1754 H 0.50749 0.31268 0.90524 0.0
H1755 H 0.43643 0.38901 0.00783 0.0
H1756 H 0.49829 0.3817 0.94111 0.0
H1757 H 0.43796 0.32429 0.96309 0.0
C1758 C 0.45666 0.2989 0.93851 0.0
C1759 C 0.47665 0.29488 0.92249 0.0
C1760 C 0.48465 0.3833 0.95568 0.0
C1761 C 0.46959 0.34083 0.94589 0.0
C1762 C 0.48387 0.40452 0.9705 0.0
C1763 C 0.46658 0.40704 0.9897 0.0
C1764 C 0.46805 0.36438 0.96008 0.0
C1765 C 0.45 0.38793 0.9932 0.0
C1766 C 0.45307 0.32181 0.95022 0.0
C1767 C 0.49197 0.3148 0.91764 0.0
N1768 N 0.45124 0.36734 0.97863 0.0
N1769 N 0.48824 0.33682 0.92947 0.0
H1770 H 0.93863 0.30893 0.16132 0.0
H1771 H 0.84634 0.23741 0.24813 0.0
H1772 H 0.96311 0.25257 0.20912 0.0
H1773 H 0.83473 0.31212 0.22544 0.0
H1774 H 0.88722 0.2385 0.22954 0.0
H1775 H 0.89818 0.30559 0.17954 0.0
C1776 C 0.93547 0.29559 0.17546 0.0
C1777 C 0.95436 0.28099 0.18369 0.0
C1778 C 0.87569 0.25463 0.22874 0.0
C1779 C 0.90787 0.27718 0.20474 0.0
C1780 C 0.85237 0.25403 0.23926 0.0
C1781 C 0.83709 0.27473 0.23835 0.0
C1782 C 0.88356 0.27588 0.21679 0.0
C1783 C 0.84588 0.29577 0.22667 0.0
C1784 C 0.91236 0.29386 0.18599 0.0
C1785 C 0.94909 0.26419 0.20224 0.0
N1786 N 0.86842 0.29572 0.21619 0.0
N1787 N 0.92629 0.26269 0.21214 0.0
H1788 H 0.07629 0.69123 0.44478 0.0
H1789 H 0.03497 0.61828 0.56295 0.0
H1790 H 0.00577 0.69777 0.48015 0.0
H1791 H 0.08036 0.588 0.50408 0.0
H1792 H 0.03627 0.65854 0.54339 0.0
H1793 H 0.08898 0.66493 0.47768 0.0
C1794 C 0.06367 0.68771 0.45979 0.0
C1795 C 0.03973 0.6961 0.45947 0.0
C1796 C 0.04661 0.64324 0.53529 0.0
C1797 C 0.05429 0.66651 0.49709 0.0
C1798 C 0.04599 0.62038 0.54644 0.0
C1799 C 0.05729 0.5999 0.53479 0.0
C1800 C 0.05896 0.64548 0.51271 0.0
C1801 C 0.07116 0.60339 0.51335 0.0
C1802 C 0.07096 0.67275 0.47851 0.0
C1803 C 0.02421 0.69114 0.47945 0.0
N1804 N 0.07139 0.62575 0.50279 0.0
N1805 N 0.03167 0.67634 0.49736 0.0
H1806 H 0.60231 0.80885 0.67091 0.0
H1807 H 0.69651 0.75096 0.76175 0.0
H1808 H 0.58592 0.748 0.71791 0.0
H1809 H 0.70958 0.81788 0.72242 0.0
H1810 H 0.65644 0.74881 0.74485 0.0
H1811 H 0.64242 0.81123 0.6879 0.0
C1812 C 0.60717 0.79587 0.68465 0.0
C1813 C 0.59063 0.77821 0.69297 0.0
C1814 C 0.66801 0.76405 0.74001 0.0
C1815 C 0.63656 0.78093 0.71265 0.0
C1816 C 0.6909 0.76533 0.74973 0.0
C1817 C 0.70649 0.78468 0.7436 0.0
C1818 C 0.6606 0.78213 0.72384 0.0
C1819 C 0.69819 0.80268 0.72779 0.0
C1820 C 0.63006 0.79733 0.69445 0.0
C1821 C 0.59799 0.76196 0.71093 0.0
N1822 N 0.67591 0.8009 0.71839 0.0
N1823 N 0.62033 0.76372 0.72013 0.0
H1824 H 0.60902 0.55541 0.73118 0.0
H1825 H 0.57921 0.4746 0.61371 0.0
H1826 H 0.63856 0.48257 0.71601 0.0
H1827 H 0.56424 0.55268 0.61938 0.0
H1828 H 0.60136 0.47753 0.65123 0.0
H1829 H 0.59326 0.55555 0.69012 0.0
C1830 C 0.61243 0.53957 0.71915 0.0
C1831 C 0.62488 0.51883 0.72715 0.0
C1832 C 0.59341 0.49409 0.64421 0.0
C1833 C 0.60673 0.5188 0.68033 0.0
C1834 C 0.58061 0.49237 0.62291 0.0
C1835 C 0.56972 0.51339 0.61361 0.0
C1836 C 0.59508 0.51695 0.65653 0.0
C1837 C 0.57245 0.53607 0.62596 0.0
C1838 C 0.60343 0.53968 0.69572 0.0
C1839 C 0.62889 0.49889 0.71072 0.0
N1840 N 0.58466 0.53723 0.64698 0.0
N1841 N 0.6196 0.49926 0.68821 0.0
H1842 H 0.8158 0.34758 0.98613 0.0
H1843 H 0.73851 0.31267 0.87077 0.0
H1844 H 0.74326 0.3742 0.97708 0.0
H1845 H 0.80661 0.27843 0.88546 0.0
H1846 H 0.74054 0.33668 0.90876 0.0
H1847 H 0.81349 0.32383 0.9482 0.0
C1848 C 0.79938 0.34856 0.97613 0.0
C1849 C 0.77965 0.36294 0.98489 0.0
C1850 C 0.75502 0.32388 0.90372 0.0
C1851 C 0.77692 0.33557 0.94136 0.0
C1852 C 0.75394 0.31027 0.88199 0.0
C1853 C 0.77253 0.29367 0.87491 0.0
C1854 C 0.77491 0.32098 0.91844 0.0
C1855 C 0.79185 0.2909 0.89035 0.0
C1856 C 0.79808 0.33486 0.95449 0.0
C1857 C 0.7589 0.36338 0.97107 0.0
N1858 N 0.79261 0.30454 0.91135 0.0
N1859 N 0.75808 0.34987 0.94997 0.0
H1860 H 0.91226 0.51084 0.19279 0.0
H1861 H 0.00663 0.58291 0.11174 0.0
H1862 H 0.92973 0.58656 0.20994 0.0
H1863 H 0.95627 0.53301 0.07902 0.0
H1864 H 0.98283 0.5813 0.15032 0.0
H1865 H 0.9326 0.51509 0.15258 0.0
C1866 C 0.92019 0.52834 0.18803 0.0
C1867 C 0.91927 0.54837 0.20463 0.0
C1868 C 0.97698 0.57092 0.13455 0.0
C1869 C 0.94287 0.55313 0.15929 0.0
C1870 C 0.99051 0.57181 0.11264 0.0
C1871 C 0.98332 0.55819 0.09222 0.0
C1872 C 0.95661 0.55578 0.13606 0.0
C1873 C 0.96234 0.54397 0.09431 0.0
C1874 C 0.93172 0.53077 0.16517 0.0
C1875 C 0.92989 0.57068 0.19762 0.0
N1876 N 0.94987 0.54287 0.11596 0.0
N1877 N 0.94155 0.57237 0.17558 0.0
H1878 H 0.75691 0.69007 0.44029 0.0
H1879 H 0.82089 0.7552 0.32616 0.0
H1880 H 0.82644 0.72484 0.44243 0.0
H1881 H 0.74387 0.746 0.331 0.0
H1882 H 0.82334 0.74101 0.36798 0.0
H1883 H 0.7514 0.70794 0.39993 0.0
C1884 C 0.77086 0.70167 0.43254 0.0
C1885 C 0.79223 0.70577 0.44498 0.0
C1886 C 0.80585 0.74221 0.35999 0.0
C1887 C 0.78622 0.72583 0.39849 0.0
C1888 C 0.80445 0.75027 0.33603 0.0
C1889 C 0.78213 0.75195 0.32497 0.0
C1890 C 0.78484 0.73526 0.3731 0.0
C1891 C 0.76146 0.74519 0.3388 0.0
C1892 C 0.76772 0.7118 0.40944 0.0
C1893 C 0.80968 0.72093 0.43375 0.0
N1894 N 0.76332 0.73696 0.36203 0.0
N1895 N 0.8064 0.73008 0.41122 0.0
H1896 H 0.5718 0.49263 0.84469 0.0
H1897 H 0.57303 0.52339 0.98691 0.0
H1898 H 0.63746 0.50132 0.88344 0.0
H1899 H 0.51555 0.48212 0.95491 0.0
H1900 H 0.59517 0.5217 0.94759 0.0
H1901 H 0.54889 0.49529 0.88375 0.0
C1902 C 0.58137 0.49525 0.86139 0.0
C1903 C 0.60658 0.49659 0.86089 0.0
C1904 C 0.57773 0.513 0.94922 0.0
C1905 C 0.58061 0.49979 0.90531 0.0
C1906 C 0.56506 0.514 0.97158 0.0
C1907 C 0.54246 0.50284 0.97411 0.0
C1908 C 0.56753 0.50112 0.92917 0.0
C1909 C 0.53299 0.49086 0.95371 0.0
C1910 C 0.56833 0.49659 0.8836 0.0
C1911 C 0.61813 0.49988 0.88299 0.0
N1912 N 0.54553 0.49044 0.93198 0.0
N1913 N 0.60503 0.50149 0.90433 0.0
H1914 H 0.71929 0.349 0.09769 0.0
H1915 H 0.77167 0.24759 0.18305 0.0
H1916 H 0.79028 0.31626 0.08898 0.0
H1917 H 0.71978 0.30409 0.2049 0.0
H1918 H 0.76702 0.25857 0.14028 0.0
H1919 H 0.70866 0.318 0.12769 0.0
C1920 C 0.73248 0.33498 0.10164 0.0
C1921 C 0.75604 0.33577 0.09159 0.0
C1922 C 0.75606 0.26792 0.15442 0.0
C1923 C 0.74385 0.30032 0.1256 0.0
C1924 C 0.75867 0.26167 0.17871 0.0
C1925 C 0.74651 0.27548 0.19726 0.0
C1926 C 0.741 0.28779 0.14898 0.0
C1927 C 0.72985 0.29348 0.19095 0.0
C1928 C 0.72633 0.31726 0.11868 0.0
C1929 C 0.77218 0.31681 0.09697 0.0
N1930 N 0.72782 0.2994 0.16728 0.0
N1931 N 0.76593 0.30009 0.11404 0.0
H1932 H 0.91331 0.57372 0.36607 0.0
H1933 H 0.03117 0.50833 0.41491 0.0
H1934 H 0.96755 0.53753 0.31928 0.0
H1935 H 0.9795 0.54877 0.4612 0.0
H1936 H 0.00786 0.51855 0.37954 0.0
H1937 H 0.93702 0.56423 0.40136 0.0
C1938 C 0.93013 0.56368 0.36324 0.0
C1939 C 0.93845 0.55632 0.33976 0.0
C1940 C 0.00168 0.52528 0.39744 0.0
C1941 C 0.96569 0.54557 0.3799 0.0
C1942 C 0.01494 0.51937 0.4176 0.0
C1943 C 0.00729 0.52773 0.44098 0.0
C1944 C 0.98055 0.53952 0.40075 0.0
C1945 C 0.98627 0.54223 0.44347 0.0
C1946 C 0.94371 0.55836 0.38336 0.0
C1947 C 0.96046 0.54354 0.33709 0.0
N1948 N 0.97357 0.54758 0.4236 0.0
N1949 N 0.97331 0.53855 0.35693 0.0
H1950 H 0.77194 0.67443 0.58507 0.0
H1951 H 0.80267 0.78496 0.6782 0.0
H1952 H 0.82113 0.73307 0.56732 0.0
H1953 H 0.77159 0.7166 0.70217 0.0
H1954 H 0.80553 0.76814 0.63649 0.0
H1955 H 0.76703 0.69181 0.62673 0.0
C1956 C 0.78143 0.69114 0.58977 0.0
C1957 C 0.79699 0.70226 0.57253 0.0
C1958 C 0.79814 0.75676 0.65085 0.0
C1959 C 0.79152 0.72218 0.62034 0.0
C1960 C 0.79651 0.76635 0.67474 0.0
C1961 C 0.787 0.75216 0.69388 0.0
C1962 C 0.78991 0.73282 0.64576 0.0
C1963 C 0.77924 0.72817 0.6881 0.0
C1964 C 0.77878 0.70092 0.61364 0.0
C1965 C 0.80899 0.72377 0.5799 0.0
N1966 N 0.78074 0.71931 0.66458 0.0
N1967 N 0.80599 0.73298 0.60312 0.0
H1968 H 0.71277 0.61717 0.53461 0.0
H1969 H 0.59322 0.57901 0.46551 0.0
H1970 H 0.70541 0.62253 0.45689 0.0
H1971 H 0.60596 0.55915 0.53967 0.0
H1972 H 0.63322 0.59749 0.46281 0.0
H1973 H 0.67253 0.59886 0.53777 0.0
C1974 C 0.70267 0.61468 0.51824 0.0
C1975 C 0.7126 0.62142 0.49544 0.0
C1976 C 0.62733 0.58901 0.47966 0.0
C1977 C 0.66645 0.60039 0.49893 0.0
C1978 C 0.60445 0.5784 0.4812 0.0
C1979 C 0.59615 0.56736 0.50282 0.0
C1980 C 0.64208 0.58889 0.49994 0.0
C1981 C 0.6116 0.56729 0.52258 0.0
C1982 C 0.67973 0.60409 0.52004 0.0
C1983 C 0.69862 0.6176 0.47486 0.0
N1984 N 0.6337 0.57797 0.5207 0.0
N1985 N 0.67635 0.60741 0.4771 0.0
H1986 H 0.17731 0.93011 0.62397 0.0
H1987 H 0.06338 0.93517 0.54021 0.0
H1988 H 0.17831 0.89831 0.55108 0.0
H1989 H 0.08351 0.99483 0.58845 0.0
H1990 H 0.09883 0.91168 0.5523 0.0
H1991 H 0.13572 0.94355 0.61909 0.0
C1992 C 0.16864 0.92551 0.60712 0.0
C1993 C 0.18136 0.91346 0.58771 0.0
C1994 C 0.09514 0.92973 0.5605 0.0
C1995 C 0.1339 0.92853 0.58224 0.0
C1996 C 0.07497 0.94305 0.55374 0.0
C1997 C 0.0708 0.96699 0.56325 0.0
C1998 C 0.11073 0.94028 0.57725 0.0
C1999 C 0.08634 0.97651 0.58057 0.0
C2000 C 0.14498 0.93325 0.60438 0.0
C2001 C 0.16921 0.9079 0.56633 0.0
N2002 N 0.10571 0.96312 0.58701 0.0
N2003 N 0.14611 0.91566 0.56407 0.0
H2004 H 0.3197 0.99686 0.82789 0.0
H2005 H 0.32091 0.86963 0.75398 0.0
H2006 H 0.3707 0.98304 0.76774 0.0
H2007 H 0.25572 0.90331 0.78443 0.0
H2008 H 0.34289 0.90749 0.764 0.0
H2009 H 0.2997 0.95826 0.81791 0.0
C2010 C 0.3269 0.98557 0.81276 0.0
C2011 C 0.34688 0.99321 0.79856 0.0
C2012 C 0.32376 0.90655 0.76836 0.0
C2013 C 0.32402 0.94907 0.78714 0.0
C2014 C 0.3113 0.88505 0.76275 0.0
C2015 C 0.28654 0.88355 0.76838 0.0
C2016 C 0.31141 0.92633 0.78016 0.0
C2017 C 0.27476 0.90394 0.77961 0.0
C2018 C 0.31533 0.96367 0.80699 0.0
C2019 C 0.35528 0.97787 0.77907 0.0
N2020 N 0.28736 0.92445 0.78537 0.0
N2021 N 0.34382 0.95641 0.77394 0.0
H2022 H 0.34447 0.0812 0.02796 0.0
H2023 H 0.47748 0.09952 0.07047 0.0
H2024 H 0.37189 0.15498 0.03596 0.0
H2025 H 0.46241 0.04925 0.01108 0.0
H2026 H 0.43615 0.11621 0.06878 0.0
H2027 H 0.38527 0.06482 0.03315 0.0
C2028 C 0.35899 0.09392 0.03124 0.0
C2029 C 0.35487 0.11947 0.03142 0.0
C2030 C 0.442 0.10147 0.05624 0.0
C2031 C 0.40127 0.10087 0.03774 0.0
C2032 C 0.46542 0.09192 0.05723 0.0
C2033 C 0.47331 0.07307 0.04082 0.0
C2034 C 0.42621 0.09146 0.03932 0.0
C2035 C 0.45705 0.06389 0.02393 0.0
C2036 C 0.38221 0.08457 0.03401 0.0
C2037 C 0.37437 0.13517 0.0355 0.0
N2038 N 0.43418 0.07297 0.0238 0.0
N2039 N 0.39676 0.12562 0.03866 0.0
H2040 H 0.68652 0.5736 0.85827 0.0
H2041 H 0.73071 0.67362 0.76214 0.0
H2042 H 0.67296 0.5672 0.7814 0.0
H2043 H 0.74198 0.67833 0.83946 0.0
H2044 H 0.70592 0.6369 0.76876 0.0
H2045 H 0.70315 0.61434 0.85179 0.0
C2046 C 0.68689 0.58084 0.84002 0.0
C2047 C 0.67862 0.56682 0.8203 0.0
C2048 C 0.71372 0.64611 0.78426 0.0
C2049 C 0.6979 0.61354 0.81266 0.0
C2050 C 0.72779 0.66705 0.78049 0.0
C2051 C 0.73875 0.67873 0.80022 0.0
C2052 C 0.71059 0.63697 0.80794 0.0
C2053 C 0.73442 0.66952 0.82364 0.0
C2054 C 0.69639 0.60416 0.83632 0.0
C2055 C 0.67927 0.57733 0.79711 0.0
N2056 N 0.72082 0.64915 0.82681 0.0
N2057 N 0.68904 0.59999 0.79386 0.0
H2058 H 0.82902 0.43462 0.06726 0.0
H2059 H 0.90472 0.5105 0.96996 0.0
H2060 H 0.79508 0.4687 0.00685 0.0
H2061 H 0.92441 0.50364 0.04508 0.0
H2062 H 0.86617 0.49123 0.98026 0.0
H2063 H 0.86641 0.45537 0.05618 0.0
C2064 C 0.82947 0.44648 0.05161 0.0
C2065 C 0.809 0.45 0.03792 0.0
C2066 C 0.87905 0.49407 0.99438 0.0
C2067 C 0.85172 0.47367 0.0251 0.0
C2068 C 0.90108 0.5051 0.98857 0.0
C2069 C 0.91818 0.50864 0.00657 0.0
C2070 C 0.87427 0.48626 0.01823 0.0
C2071 C 0.91231 0.50094 0.03033 0.0
C2072 C 0.85077 0.45838 0.04538 0.0
C2073 C 0.81051 0.46565 0.01792 0.0
N2074 N 0.89095 0.49 0.03539 0.0
N2075 N 0.83166 0.47685 0.01195 0.0
H2076 H 0.31166 0.08315 0.74795 0.0
H2077 H 0.27205 0.19254 0.71522 0.0
H2078 H 0.2971 0.11414 0.82014 0.0
H2079 H 0.23315 0.1998 0.78432 0.0
H2080 H 0.27808 0.14904 0.72213 0.0
H2081 H 0.28005 0.10931 0.73248 0.0
C2082 C 0.30168 0.09538 0.76058 0.0
C2083 C 0.30767 0.09727 0.78518 0.0
C2084 C 0.26713 0.15956 0.73539 0.0
C2085 C 0.2722 0.12797 0.76743 0.0
C2086 C 0.26365 0.18454 0.7313 0.0
C2087 C 0.25239 0.19962 0.74937 0.0
C2088 C 0.25991 0.14992 0.7581 0.0
C2089 C 0.24201 0.18861 0.77001 0.0
C2090 C 0.2837 0.11041 0.75171 0.0
C2091 C 0.29352 0.11261 0.80091 0.0
N2092 N 0.24681 0.16452 0.77428 0.0
N2093 N 0.27683 0.12786 0.79164 0.0
H2094 H 0.24843 0.95055 0.33092 0.0
H2095 H 0.2826 0.8367 0.24511 0.0
H2096 H 0.22018 0.93738 0.25956 0.0
H2097 H 0.30501 0.84626 0.31922 0.0
H2098 H 0.27121 0.88018 0.24489 0.0
H2099 H 0.28003 0.92011 0.32143 0.0
C2100 C 0.24913 0.94162 0.31305 0.0
C2101 C 0.23111 0.94586 0.29632 0.0
C2102 C 0.27913 0.87292 0.26102 0.0
C2103 C 0.26712 0.91082 0.28548 0.0
C2104 C 0.28565 0.84808 0.26117 0.0
C2105 C 0.29403 0.8377 0.2825 0.0
C2106 C 0.28075 0.88735 0.28244 0.0
C2107 C 0.2981 0.8534 0.30256 0.0
C2108 C 0.26723 0.92424 0.30764 0.0
C2109 C 0.23335 0.93426 0.27324 0.0
N2110 N 0.29088 0.87735 0.30224 0.0
N2111 N 0.25068 0.9168 0.26871 0.0
H2112 H 0.52723 0.36681 0.3987 0.0
H2113 H 0.53705 0.45944 0.51254 0.0
H2114 H 0.49399 0.35337 0.46937 0.0
H2115 H 0.53189 0.48738 0.43984 0.0
H2116 H 0.53095 0.41781 0.49646 0.0
H2117 H 0.53791 0.40855 0.41311 0.0
C2118 C 0.52239 0.37253 0.41728 0.0
C2119 C 0.50965 0.35656 0.43285 0.0
C2120 C 0.53138 0.43301 0.48398 0.0
C2121 C 0.52215 0.404 0.44946 0.0
C2122 C 0.53504 0.45686 0.49309 0.0
C2123 C 0.53493 0.47714 0.47755 0.0
C2124 C 0.52796 0.42909 0.45901 0.0
C2125 C 0.5321 0.47237 0.45251 0.0
C2126 C 0.52836 0.39636 0.42541 0.0
C2127 C 0.50369 0.36504 0.4567 0.0
N2128 N 0.52873 0.44882 0.44399 0.0
N2129 N 0.51013 0.38804 0.46429 0.0
H2130 H 0.43088 0.7737 0.15632 0.0
H2131 H 0.37609 0.76674 0.29033 0.0
H2132 H 0.47411 0.78412 0.21936 0.0
H2133 H 0.3402 0.73978 0.22669 0.0
H2134 H 0.41372 0.76878 0.26578 0.0
H2135 H 0.39882 0.75721 0.18232 0.0
C2136 C 0.43364 0.77245 0.17564 0.0
C2137 C 0.4549 0.78076 0.1858 0.0
C2138 C 0.39768 0.76197 0.25735 0.0
C2139 C 0.41828 0.76197 0.21581 0.0
C2140 C 0.37624 0.76079 0.27135 0.0
C2141 C 0.35494 0.75367 0.26035 0.0
C2142 C 0.39759 0.75611 0.23227 0.0
C2143 C 0.35611 0.74596 0.23576 0.0
C2144 C 0.4154 0.76282 0.19051 0.0
C2145 C 0.45782 0.77807 0.2109 0.0
N2146 N 0.37698 0.74776 0.22246 0.0
N2147 N 0.43948 0.76931 0.22519 0.0
H2148 H 0.04235 0.72991 0.94284 0.0
H2149 H 0.97696 0.61577 0.00271 0.0
H2150 H 0.96769 0.73199 0.96762 0.0
H2151 H 0.05322 0.62642 0.00992 0.0
H2152 H 0.97368 0.65732 0.98666 0.0
H2153 H 0.04757 0.6914 0.96491 0.0
C2154 C 0.02716 0.72257 0.95318 0.0
C2155 C 0.0045 0.73428 0.95317 0.0
C2156 C 0.99112 0.65065 0.99191 0.0
C2157 C 0.01028 0.68994 0.97795 0.0
C2158 C 0.99302 0.62689 0.00098 0.0
C2159 C 0.01539 0.61761 0.0077 0.0
C2160 C 0.01181 0.66517 0.98898 0.0
C2161 C 0.0356 0.63291 0.00507 0.0
C2162 C 0.03017 0.70055 0.96573 0.0
C2163 C 0.9855 0.72374 0.96692 0.0
N2164 N 0.0334 0.65584 0.99565 0.0
N2165 N 0.98874 0.70207 0.97839 0.0
H2166 H 0.06434 0.28433 0.67535 0.0
H2167 H 0.14373 0.30164 0.79311 0.0
H2168 H 0.03423 0.30125 0.74752 0.0
H2169 H 0.17375 0.28796 0.72034 0.0
H2170 H 0.1035 0.30191 0.77677 0.0
H2171 H 0.1046 0.28569 0.69156 0.0
C2172 C 0.06618 0.28836 0.69462 0.0
C2173 C 0.04588 0.29264 0.71013 0.0
C2174 C 0.1189 0.29887 0.76438 0.0
C2175 C 0.09195 0.29419 0.72881 0.0
C2176 C 0.14191 0.29884 0.77368 0.0
C2177 C 0.16221 0.29471 0.7581 0.0
C2178 C 0.11612 0.29473 0.73929 0.0
C2179 C 0.15866 0.29083 0.73311 0.0
C2180 C 0.0892 0.28914 0.70386 0.0
C2181 C 0.04938 0.29781 0.73491 0.0
N2182 N 0.13607 0.29092 0.72449 0.0
N2183 N 0.07199 0.29839 0.74349 0.0
H2184 H 0.53693 0.74127 0.11462 0.0
H2185 H 0.50112 0.61626 0.04573 0.0
H2186 H 0.4693 0.72946 0.07996 0.0
H2187 H 0.5672 0.62447 0.08385 0.0
H2188 H 0.49135 0.65931 0.0548 0.0
H2189 H 0.55049 0.70037 0.10005 0.0
C2190 C 0.52501 0.73022 0.10376 0.0
C2191 C 0.50182 0.73877 0.09871 0.0
C2192 C 0.50803 0.6518 0.06118 0.0
C2193 C 0.51724 0.69194 0.08208 0.0
C2194 C 0.51355 0.62713 0.05615 0.0
C2195 C 0.53481 0.61665 0.06447 0.0
C2196 C 0.52382 0.66624 0.07473 0.0
C2197 C 0.5506 0.63185 0.07719 0.0
C2198 C 0.53276 0.70684 0.0955 0.0
C2199 C 0.48722 0.72362 0.08451 0.0
N2200 N 0.54469 0.65589 0.08215 0.0
N2201 N 0.49513 0.70093 0.07684 0.0
H2202 H 0.09103 0.80503 0.86215 0.0
H2203 H 0.19718 0.72622 0.79428 0.0
H2204 H 0.08691 0.7268 0.84676 0.0
H2205 H 0.19659 0.80577 0.79966 0.0
H2206 H 0.15768 0.72584 0.81536 0.0
H2207 H 0.13095 0.80535 0.84181 0.0
C2208 C 0.09857 0.78789 0.85467 0.0
C2209 C 0.08554 0.76586 0.85612 0.0
C2210 C 0.16615 0.74338 0.81185 0.0
C2211 C 0.1312 0.76613 0.8327 0.0
C2212 C 0.1887 0.74362 0.79976 0.0
C2213 C 0.20022 0.76607 0.79512 0.0
C2214 C 0.15505 0.76574 0.81954 0.0
C2215 C 0.18836 0.78803 0.80276 0.0
C2216 C 0.12133 0.78811 0.84294 0.0
C2217 C 0.09624 0.74423 0.84602 0.0
N2218 N 0.16649 0.7873 0.81466 0.0
N2219 N 0.11839 0.74492 0.83474 0.0
H2220 H 0.01051 0.35496 0.63775 0.0
H2221 H 0.99787 0.45502 0.53512 0.0
H2222 H 0.96087 0.34525 0.57955 0.0
H2223 H 0.01957 0.47189 0.60839 0.0
H2224 H 0.98916 0.41263 0.5474 0.0
H2225 H 0.02027 0.39565 0.62263 0.0
C2226 C 0.00182 0.36125 0.62164 0.0
C2227 C 0.98464 0.34675 0.61005 0.0
C2228 C 0.99572 0.42574 0.56071 0.0
C2229 C 0.99573 0.3934 0.59276 0.0
C2230 C 0.00066 0.44985 0.55377 0.0
C2231 C 0.00939 0.46696 0.57079 0.0
C2232 C 2e-05 0.41875 0.58464 0.0
C2233 C 0.01275 0.45935 0.5947 0.0
C2234 C 0.0073 0.38456 0.61313 0.0
C2235 C 0.97405 0.35591 0.58918 0.0
N2236 N 0.00823 0.43575 0.60085 0.0
N2237 N 0.97973 0.37876 0.58119 0.0
H2238 H 0.45984 0.31439 0.32756 0.0
H2239 H 0.33271 0.24661 0.3212 0.0
H2240 H 0.4299 0.27054 0.38573 0.0
H2241 H 0.35475 0.304 0.27212 0.0
H2242 H 0.36991 0.2525 0.34311 0.0
H2243 H 0.42244 0.30947 0.30583 0.0
C2244 C 0.44528 0.30404 0.33594 0.0
C2245 C 0.44804 0.29287 0.35852 0.0
C2246 C 0.36665 0.2637 0.32746 0.0
C2247 C 0.40537 0.28664 0.33344 0.0
C2248 C 0.34554 0.26015 0.31477 0.0
C2249 C 0.34061 0.27476 0.29472 0.0
C2250 C 0.38307 0.28187 0.31997 0.0
C2251 C 0.35779 0.29227 0.28744 0.0
C2252 C 0.42397 0.30111 0.32345 0.0
C2253 C 0.42857 0.27955 0.36842 0.0
N2254 N 0.37821 0.29534 0.30005 0.0
N2255 N 0.40818 0.2766 0.35572 0.0
H2256 H 0.36814 0.58627 0.34872 0.0
H2257 H 0.49295 0.54301 0.39591 0.0
H2258 H 0.42516 0.56331 0.29754 0.0
H2259 H 0.46081 0.61048 0.42485 0.0
H2260 H 0.46351 0.54253 0.36335 0.0
H2261 H 0.39762 0.58828 0.38115 0.0
C2262 C 0.38685 0.58179 0.34434 0.0
C2263 C 0.39437 0.57487 0.32049 0.0
C2264 C 0.46298 0.55741 0.37687 0.0
C2265 C 0.42763 0.5763 0.35728 0.0
C2266 C 0.4796 0.55761 0.39534 0.0
C2267 C 0.47921 0.5769 0.41272 0.0
C2268 C 0.44552 0.5762 0.37641 0.0
C2269 C 0.46166 0.59549 0.41148 0.0
C2270 C 0.40356 0.58295 0.36274 0.0
C2271 C 0.41875 0.56905 0.31567 0.0
N2272 N 0.44526 0.59458 0.39373 0.0
N2273 N 0.4345 0.56957 0.33401 0.0
H2274 H 0.27455 0.69259 0.0561 0.0
H2275 H 0.31288 0.73767 0.18829 0.0
H2276 H 0.34759 0.71152 0.07279 0.0
H2277 H 0.23945 0.73887 0.16545 0.0
H2278 H 0.32601 0.72291 0.1476 0.0
H2279 H 0.26163 0.70436 0.09766 0.0
C2280 C 0.28794 0.6991 0.06852 0.0
C2281 C 0.31223 0.70115 0.06088 0.0
C2282 C 0.30702 0.72633 0.1515 0.0
C2283 C 0.29744 0.71464 0.10854 0.0
C2284 C 0.29948 0.73454 0.17477 0.0
C2285 C 0.27499 0.73935 0.18024 0.0
C2286 C 0.28995 0.72273 0.1336 0.0
C2287 C 0.25848 0.73549 0.16188 0.0
C2288 C 0.28048 0.70591 0.09223 0.0
C2289 C 0.32869 0.70974 0.07784 0.0
N2290 N 0.26625 0.72732 0.13934 0.0
N2291 N 0.32098 0.71617 0.10091 0.0
H2292 H 0.09783 0.48903 0.84833 0.0
H2293 H 0.095 0.52838 0.9889 0.0
H2294 H 0.15541 0.4717 0.89603 0.0
H2295 H 0.03135 0.52495 0.94609 0.0
H2296 H 0.11866 0.51127 0.95404 0.0
H2297 H 0.07403 0.50502 0.88335 0.0
C2298 C 0.10548 0.48849 0.8662 0.0
C2299 C 0.12882 0.47931 0.86922 0.0
C2300 C 0.09952 0.51427 0.95233 0.0
C2301 C 0.1017 0.4978 0.90932 0.0
C2302 C 0.08604 0.52418 0.97212 0.0
C2303 C 0.06118 0.52802 0.97034 0.0
C2304 C 0.08807 0.50841 0.93061 0.0
C2305 C 0.05047 0.52222 0.94823 0.0
C2306 C 0.09185 0.49763 0.88617 0.0
C2307 C 0.13768 0.4789 0.8928 0.0
N2308 N 0.06401 0.51271 0.92918 0.0
N2309 N 0.12416 0.48825 0.91198 0.0
H2310 H 0.31946 0.32145 0.57097 0.0
H2311 H 0.23863 0.30972 0.69445 0.0
H2312 H 0.25585 0.36596 0.58678 0.0
H2313 H 0.30601 0.27135 0.67936 0.0
H2314 H 0.24146 0.32686 0.65333 0.0
H2315 H 0.31135 0.29907 0.60836 0.0
C2316 C 0.30357 0.32636 0.5821 0.0
C2317 C 0.28845 0.34585 0.57563 0.0
C2318 C 0.2555 0.31452 0.65898 0.0
C2319 C 0.27916 0.32026 0.61904 0.0
C2320 C 0.25386 0.30466 0.68244 0.0
C2321 C 0.27217 0.28914 0.69052 0.0
C2322 C 0.27553 0.30873 0.64341 0.0
C2323 C 0.2915 0.28332 0.6741 0.0
C2324 C 0.299 0.31357 0.6036 0.0
C2325 C 0.26807 0.35114 0.59094 0.0
N2326 N 0.2927 0.29315 0.65151 0.0
N2327 N 0.26417 0.33861 0.61201 0.0
H2328 H 0.3986 0.59075 0.18923 0.0
H2329 H 0.44336 0.48356 0.09562 0.0
H2330 H 0.37008 0.51697 0.19203 0.0
H2331 H 0.48209 0.55096 0.10909 0.0
H2332 H 0.41379 0.49601 0.12799 0.0
H2333 H 0.42574 0.57756 0.15553 0.0
C2334 C 0.39781 0.57183 0.18256 0.0
C2335 C 0.38217 0.5549 0.19364 0.0
C2336 C 0.42888 0.50793 0.12389 0.0
C2337 C 0.41349 0.53957 0.15516 0.0
C2338 C 0.44582 0.5008 0.10555 0.0
C2339 C 0.46526 0.51622 0.09966 0.0
C2340 C 0.43131 0.53074 0.13615 0.0
C2341 C 0.46745 0.53843 0.11299 0.0
C2342 C 0.41347 0.56426 0.16342 0.0
C2343 C 0.38191 0.53063 0.18409 0.0
N2344 N 0.45061 0.54507 0.13046 0.0
N2345 N 0.39748 0.52363 0.16546 0.0
H2346 H 0.27015 0.74781 0.96132 0.0
H2347 H 0.31374 0.80278 0.83438 0.0
H2348 H 0.3452 0.75992 0.94266 0.0
H2349 H 0.25514 0.75251 0.84706 0.0
H2350 H 0.32016 0.80446 0.87874 0.0
H2351 H 0.25929 0.77008 0.92516 0.0
C2352 C 0.28434 0.7559 0.95011 0.0
C2353 C 0.30864 0.75104 0.95433 0.0
C2354 C 0.30562 0.79354 0.87171 0.0
C2355 C 0.2963 0.77621 0.91303 0.0
C2356 C 0.30208 0.79244 0.84659 0.0
C2357 C 0.28432 0.77699 0.83736 0.0
C2358 C 0.29069 0.77975 0.88736 0.0
C2359 C 0.2694 0.76413 0.85361 0.0
C2360 C 0.2781 0.76854 0.92947 0.0
C2361 C 0.32623 0.7626 0.93963 0.0
N2362 N 0.27295 0.76575 0.87786 0.0
N2363 N 0.31975 0.77405 0.91906 0.0
H2364 H 0.11368 0.44797 0.7425 0.0
H2365 H 0.09722 0.55531 0.64779 0.0
H2366 H 0.16488 0.50723 0.73645 0.0
H2367 H 0.03861 0.51355 0.67919 0.0
H2368 H 0.12479 0.53525 0.67547 0.0
H2369 H 0.08897 0.4681 0.71296 0.0
C2370 C 0.11994 0.46504 0.73471 0.0
C2371 C 0.14127 0.47607 0.7422 0.0
C2372 C 0.10583 0.53073 0.6764 0.0
C2373 C 0.11286 0.49931 0.70847 0.0
C2374 C 0.09016 0.54218 0.66074 0.0
C2375 C 0.06562 0.53621 0.66139 0.0
C2376 C 0.09689 0.51285 0.69238 0.0
C2377 C 0.05729 0.519 0.67836 0.0
C2378 C 0.10568 0.47663 0.71799 0.0
C2379 C 0.14849 0.49816 0.7313 0.0
N2380 N 0.07294 0.50776 0.693 0.0
N2381 N 0.13421 0.50918 0.71503 0.0
H2382 H 0.33046 0.36833 0.43678 0.0
H2383 H 0.24313 0.29246 0.35506 0.0
H2384 H 0.25609 0.36285 0.46108 0.0
H2385 H 0.29272 0.34439 0.32307 0.0
H2386 H 0.2497 0.31147 0.39553 0.0
H2387 H 0.31979 0.35258 0.39639 0.0
C2388 C 0.31188 0.36373 0.43365 0.0
C2389 C 0.29414 0.36698 0.45239 0.0
C2390 C 0.25886 0.31883 0.37955 0.0
C2391 C 0.28192 0.34838 0.40618 0.0
C2392 C 0.25512 0.30803 0.35647 0.0
C2393 C 0.26719 0.31698 0.33553 0.0
C2394 C 0.27543 0.33812 0.38183 0.0
C2395 C 0.28277 0.33705 0.33858 0.0
C2396 C 0.3058 0.35486 0.41055 0.0
C2397 C 0.27031 0.36077 0.44715 0.0
N2398 N 0.28674 0.34662 0.36124 0.0
N2399 N 0.26493 0.35144 0.42464 0.0
H2400 H 0.33865 0.47737 0.48901 0.0
H2401 H 0.46778 0.49359 0.54713 0.0
H2402 H 0.3716 0.42234 0.53286 0.0
H2403 H 0.44519 0.53695 0.48694 0.0
H2404 H 0.43063 0.46991 0.54495 0.0
H2405 H 0.37596 0.50125 0.48978 0.0
C2406 C 0.3538 0.47013 0.49853 0.0
C2407 C 0.35193 0.44773 0.51084 0.0
C2408 C 0.43373 0.48468 0.53228 0.0
C2409 C 0.39454 0.47534 0.5123 0.0
C2410 C 0.45487 0.4984 0.53367 0.0
C2411 C 0.45967 0.51744 0.51726 0.0
C2412 C 0.417 0.49006 0.51451 0.0
C2413 C 0.44228 0.52253 0.50003 0.0
C2414 C 0.37507 0.48385 0.49905 0.0
C2415 C 0.37218 0.43941 0.523 0.0
N2416 N 0.42174 0.50898 0.49913 0.0
N2417 N 0.39247 0.45329 0.52362 0.0
H2418 H 0.89162 0.15752 0.48456 0.0
H2419 H 0.99228 0.08504 0.50779 0.0
H2420 H 0.85167 0.0962 0.51376 0.0
H2421 H 0.943 0.02395 0.50459 0.0
H2422 H 0.95883 0.11339 0.50295 0.0
H2423 H 0.92841 0.13288 0.48523 0.0
C2424 C 0.89068 0.13904 0.49158 0.0
C2425 C 0.8686 0.12893 0.49929 0.0
C2426 C 0.95534 0.0938 0.50259 0.0
C2427 C 0.91061 0.10066 0.50029 0.0
C2428 C 0.97448 0.07755 0.50546 0.0
C2429 C 0.97039 0.05209 0.50665 0.0
C2430 C 0.93197 0.08446 0.50083 0.0
C2431 C 0.94696 0.04343 0.50373 0.0
C2432 C 0.91173 0.12496 0.49201 0.0
C2433 C 0.86833 0.10476 0.50779 0.0
N2434 N 0.92857 0.05965 0.50125 0.0
N2435 N 0.88902 0.0914 0.50793 0.0
H2436 H 0.68042 0.04689 0.28673 0.0
H2437 H 0.74888 0.17203 0.31768 0.0
H2438 H 0.7067 0.06376 0.35831 0.0
H2439 H 0.74278 0.14127 0.24503 0.0
H2440 H 0.72732 0.13627 0.334 0.0
H2441 H 0.69631 0.08593 0.27251 0.0
C2442 C 0.68926 0.05891 0.29958 0.0
C2443 C 0.6925 0.05183 0.32371 0.0
C2444 C 0.73072 0.13742 0.3145 0.0
C2445 C 0.71086 0.09655 0.30739 0.0
C2446 C 0.74293 0.15777 0.30521 0.0
C2447 C 0.74777 0.15941 0.28002 0.0
C2448 C 0.72302 0.11887 0.29839 0.0
C2449 C 0.73979 0.14048 0.26459 0.0
C2450 C 0.69845 0.08115 0.29137 0.0
C2451 C 0.704 0.06833 0.3395 0.0
N2452 N 0.72775 0.12102 0.27402 0.0
N2453 N 0.71293 0.0899 0.33101 0.0
H2454 H 0.71255 0.9415 0.99687 0.0
H2455 H 0.60967 0.01352 0.07725 0.0
H2456 H 0.71655 0.95641 0.07421 0.0
H2457 H 0.60846 0.00454 0.99893 0.0
H2458 H 0.64807 0.99117 0.07668 0.0
H2459 H 0.67339 0.96259 0.9975 0.0
C2460 C 0.70515 0.94905 0.01401 0.0
C2461 C 0.71794 0.94722 0.0355 0.0
C2462 C 0.63943 0.99412 0.05961 0.0
C2463 C 0.67314 0.9715 0.03634 0.0
C2464 C 0.6175 0.00694 0.05992 0.0
C2465 C 0.60581 0.01101 0.0381 0.0
C2466 C 0.64977 0.98518 0.03733 0.0
C2467 C 0.61682 0.00191 0.0162 0.0
C2468 C 0.68282 0.96118 0.01434 0.0
C2469 C 0.70743 0.95742 0.05716 0.0
N2470 N 0.63813 0.98942 0.01639 0.0
N2471 N 0.68572 0.96913 0.05701 0.0
H2472 H 0.39133 0.48774 0.2471 0.0
H2473 H 0.34614 0.35325 0.27567 0.0
H2474 H 0.37633 0.46118 0.31968 0.0
H2475 H 0.3264 0.39574 0.21369 0.0
H2476 H 0.37448 0.3852 0.28678 0.0
H2477 H 0.38686 0.44593 0.23085 0.0
C2478 C 0.38802 0.47302 0.25979 0.0
C2479 C 0.38291 0.47817 0.28471 0.0
C2480 C 0.36427 0.3872 0.27048 0.0
C2481 C 0.37811 0.43047 0.26612 0.0
C2482 C 0.34775 0.3692 0.26427 0.0
C2483 C 0.33296 0.37234 0.24426 0.0
C2484 C 0.36632 0.40831 0.25642 0.0
C2485 C 0.33702 0.39277 0.2295 0.0
C2486 C 0.3854 0.44918 0.2504 0.0
C2487 C 0.37955 0.45821 0.30026 0.0
N2488 N 0.35306 0.41023 0.23612 0.0
N2489 N 0.37651 0.43522 0.29061 0.0
H2490 H 0.22425 0.61482 0.96102 0.0
H2491 H 0.1339 0.60864 0.07779 0.0
H2492 H 0.22686 0.66641 0.02192 0.0
H2493 H 0.12516 0.56756 0.01059 0.0
H2494 H 0.1698 0.62827 0.05931 0.0
H2495 H 0.18871 0.59621 0.98003 0.0
C2496 C 0.21718 0.62241 0.97828 0.0
C2497 C 0.22852 0.64218 0.98989 0.0
C2498 C 0.15998 0.61493 0.04867 0.0
C2499 C 0.18803 0.6207 0.01203 0.0
C2500 C 0.13973 0.60362 0.05928 0.0
C2501 C 0.12657 0.5867 0.04557 0.0
C2502 C 0.16708 0.60896 0.02436 0.0
C2503 C 0.13464 0.58083 0.02161 0.0
C2504 C 0.19693 0.61172 0.9892 0.0
C2505 C 0.21859 0.65125 0.01228 0.0
N2506 N 0.15432 0.59195 0.01178 0.0
N2507 N 0.19899 0.6403 0.02274 0.0
H2508 H 0.75701 0.93864 0.34842 0.0
H2509 H 0.77868 0.85371 0.23475 0.0
H2510 H 0.73999 0.95803 0.27513 0.0
H2511 H 0.80263 0.83635 0.30616 0.0
H2512 H 0.77676 0.89732 0.24675 0.0
H2513 H 0.78609 0.90825 0.33173 0.0
C2514 C 0.75994 0.93707 0.32881 0.0
C2515 C 0.74533 0.95 0.31308 0.0
C2516 C 0.78302 0.88417 0.25971 0.0
C2517 C 0.77813 0.9151 0.29393 0.0
C2518 C 0.78405 0.85934 0.25282 0.0
C2519 C 0.7904 0.8418 0.26973 0.0
C2520 C 0.78746 0.89119 0.28397 0.0
C2521 C 0.79739 0.84962 0.29283 0.0
C2522 C 0.77652 0.91964 0.31927 0.0
C2523 C 0.75023 0.94765 0.28789 0.0
N2524 N 0.79515 0.8738 0.29955 0.0
N2525 N 0.76578 0.93 0.27906 0.0
H2526 H 0.79581 0.11266 0.72867 0.0
H2527 H 0.71917 0.20452 0.80361 0.0
H2528 H 0.77407 0.10202 0.80404 0.0
H2529 H 0.72572 0.20575 0.7251 0.0
H2530 H 0.7272 0.16032 0.80195 0.0
H2531 H 0.7602 0.13832 0.72405 0.0
C2532 C 0.78325 0.11518 0.74411 0.0
C2533 C 0.78856 0.10618 0.7671 0.0
C2534 C 0.72615 0.16999 0.78496 0.0
C2535 C 0.74795 0.13585 0.76204 0.0
C2536 C 0.72149 0.19527 0.78596 0.0
C2537 C 0.72263 0.20882 0.76453 0.0
C2538 C 0.7329 0.15854 0.76247 0.0
C2539 C 0.72524 0.19598 0.74211 0.0
C2540 C 0.76281 0.12983 0.74145 0.0
C2541 C 0.77123 0.10943 0.7862 0.0
N2542 N 0.73117 0.17163 0.74168 0.0
N2543 N 0.75207 0.12461 0.78345 0.0
loop_
_geom_bond_atom_site_label_1
_geom_bond_atom_site_label_2
_geom_bond_distance
_geom_bond_site_symmetry_2
_ccdc_geom_bond_type
Mg0 O1 2.028 . S
Mg0 O7 1.986 . S
Mg0 O9 2.114 . S
Mg0 O10 2.251 1_455 S
Mg0 O13 2.010 . S
O1 Mg0 2.028 . S
O1 C4 1.250 . S
O2 Mg3 2.028 1_455 S
O2 C4 1.248 . S
Mg3 O2 2.028 1_655 S
Mg3 O8 2.032 1_655 S
Mg3 O10 2.079 . S
C4 O1 1.250 . S
C4 O2 1.248 . S
C5 O6 1.264 . S
C5 O13 1.249 . S
O6 C5 1.264 . S
O7 Mg0 1.986 . S
O7 C11 1.246 . S
O8 Mg3 2.032 1_455 S
O8 C11 1.259 . S
O9 Mg0 2.114 . S
O9 C12 1.252 1_455 S
O10 Mg0 2.251 1_655 S
O10 Mg3 2.079 . S
O10 C12 1.273 . S
C11 O7 1.246 . S
C11 O8 1.259 . S
C12 O9 1.252 1_655 S
C12 O10 1.273 . S
O13 Mg0 2.010 . S
O13 C5 1.249 . S
Mg14 O15 2.028 . S
Mg14 O21 1.986 . S
Mg14 O23 2.114 . S
Mg14 O24 2.251 . S
Mg14 O27 2.010 . S
O15 Mg14 2.028 . S
O15 C18 1.250 . S
O16 Mg17 2.037 . S
O16 C18 1.248 . S
Mg17 O16 2.037 . S
Mg17 O22 2.041 . S
Mg17 O24 2.082 . S
C18 O15 1.250 . S
C18 O16 1.248 . S
C19 O20 1.264 . S
C19 O27 1.249 . S
O20 C19 1.264 . S
O21 Mg14 1.986 . S
O21 C25 1.246 . S
O22 Mg17 2.041 . S
O22 C25 1.259 . S
O23 Mg14 2.114 . S
O23 C26 1.252 . S
O24 Mg14 2.251 . S
O24 Mg17 2.082 . S
O24 C26 1.273 . S
C25 O21 1.246 . S
C25 O22 1.259 . S
C26 O23 1.252 . S
C26 O24 1.273 . S
O27 Mg14 2.010 . S
O27 C19 1.249 . S
Mg28 O29 2.028 . S
Mg28 O35 1.986 . S
Mg28 O37 2.114 . S
Mg28 O38 2.251 . S
Mg28 O41 2.010 . S
O29 Mg28 2.028 . S
O29 C32 1.250 . S
O30 Mg31 2.028 . S
O30 C32 1.248 . S
Mg31 O30 2.028 . S
Mg31 O36 2.032 . S
Mg31 O38 2.079 . S
C32 O29 1.250 . S
C32 O30 1.248 . S
C33 O34 1.264 . S
C33 O41 1.249 . S
O34 C33 1.264 . S
O35 Mg28 1.986 . S
O35 C39 1.246 . S
O36 Mg31 2.032 . S
O36 C39 1.259 . S
O37 Mg28 2.114 . S
O37 C40 1.252 . S
O38 Mg28 2.251 . S
O38 Mg31 2.079 . S
O38 C40 1.273 . S
C39 O35 1.246 . S
C39 O36 1.259 . S
C40 O37 1.252 . S
C40 O38 1.273 . S
O41 Mg28 2.010 . S
O41 C33 1.249 . S
Mg42 O43 2.028 . S
Mg42 O49 1.986 . S
Mg42 O51 2.114 . S
Mg42 O52 2.251 . S
Mg42 O55 2.010 . S
O43 Mg42 2.028 . S
O43 C46 1.250 . S
O44 Mg45 2.028 . S
O44 C46 1.248 . S
Mg45 O44 2.028 . S
Mg45 O50 2.032 . S
Mg45 O52 2.079 . S
C46 O43 1.250 . S
C46 O44 1.248 . S
C47 O48 1.264 . S
C47 O55 1.249 . S
O48 C47 1.264 . S
O49 Mg42 1.986 . S
O49 C53 1.246 . S
O50 Mg45 2.032 . S
O50 C53 1.259 . S
O51 Mg42 2.114 . S
O51 C54 1.252 . S
O52 Mg42 2.251 . S
O52 Mg45 2.079 . S
O52 C54 1.273 . S
C53 O49 1.246 . S
C53 O50 1.259 . S
C54 O51 1.252 . S
C54 O52 1.273 . S
O55 Mg42 2.010 . S
O55 C47 1.249 . S
Mg56 O57 2.028 1_565 S
Mg56 O63 1.986 . S
Mg56 O65 2.114 1_565 S
Mg56 O66 2.254 . S
Mg56 O69 2.010 . S
O57 Mg56 2.028 1_545 S
O57 C60 1.250 . S
O58 Mg59 2.028 . S
O58 C60 1.248 . S
Mg59 O58 2.028 . S
Mg59 O64 2.032 1_545 S
Mg59 O66 2.075 1_545 S
C60 O57 1.250 . S
C60 O58 1.248 . S
C61 O62 1.282 . S
C61 O69 1.256 . S
O62 C61 1.282 . S
O63 Mg56 1.986 . S
O63 C67 1.246 . S
O64 Mg59 2.032 1_565 S
O64 C67 1.259 . S
O65 Mg56 2.114 1_545 S
O65 C68 1.252 . S
O66 Mg56 2.254 . S
O66 Mg59 2.075 1_565 S
O66 C68 1.259 1_565 S
C67 O63 1.246 . S
C67 O64 1.259 . S
C68 O65 1.252 . S
C68 O66 1.259 1_545 S
O69 Mg56 2.010 . S
O69 C61 1.256 . S
Mg70 O71 2.028 . S
Mg70 O77 1.986 . S
Mg70 O79 2.114 . S
Mg70 O80 2.251 . S
Mg70 O83 2.010 . S
O71 Mg70 2.028 . S
O71 C74 1.250 . S
O72 Mg73 2.028 . S
O72 C74 1.248 . S
Mg73 O72 2.028 . S
Mg73 O78 2.032 . S
Mg73 O80 2.079 . S
C74 O71 1.250 . S
C74 O72 1.248 . S
C75 O76 1.264 . S
C75 O83 1.249 . S
O76 C75 1.264 . S
O77 Mg70 1.986 . S
O77 C81 1.246 . S
O78 Mg73 2.032 . S
O78 C81 1.259 . S
O79 Mg70 2.114 . S
O79 C82 1.252 . S
O80 Mg70 2.251 . S
O80 Mg73 2.079 . S
O80 C82 1.273 . S
C81 O77 1.246 . S
C81 O78 1.259 . S
C82 O79 1.252 . S
C82 O80 1.273 . S
O83 Mg70 2.010 . S
O83 C75 1.249 . S
Mg84 O85 2.028 . S
Mg84 O91 1.986 . S
Mg84 O93 2.114 . S
Mg84 O94 2.251 . S
Mg84 O97 2.010 . S
O85 Mg84 2.028 . S
O85 C88 1.250 . S
O86 Mg87 2.028 . S
O86 C88 1.248 . S
Mg87 O86 2.028 . S
Mg87 O92 2.032 . S
Mg87 O94 2.079 . S
C88 O85 1.250 . S
C88 O86 1.248 . S
C89 O90 1.264 . S
C89 O97 1.249 . S
O90 C89 1.264 . S
O91 Mg84 1.986 . S
O91 C95 1.246 . S
O92 Mg87 2.032 . S
O92 C95 1.259 . S
O93 Mg84 2.114 . S
O93 C96 1.252 . S
O94 Mg84 2.251 . S
O94 Mg87 2.079 . S
O94 C96 1.273 . S
C95 O91 1.246 . S
C95 O92 1.259 . S
C96 O93 1.252 . S
C96 O94 1.273 . S
O97 Mg84 2.010 . S
O97 C89 1.249 . S
Mg98 O99 2.028 . S
Mg98 O105 1.975 1_554 S
Mg98 O107 2.114 . S
Mg98 O108 2.251 . S
Mg98 O111 2.010 . S
O99 Mg98 2.028 . S
O99 C102 1.250 . S
O100 Mg101 2.028 . S
O100 C102 1.248 . S
Mg101 O100 2.028 . S
Mg101 O106 2.032 . S
Mg101 O108 2.079 . S
C102 O99 1.250 . S
C102 O100 1.248 . S
C103 O104 1.264 . S
C103 O111 1.249 . S
O104 C103 1.264 . S
O105 Mg98 1.975 1_556 S
O105 C109 1.251 . S
O106 Mg101 2.032 . S
O106 C109 1.259 1_554 S
O107 Mg98 2.114 . S
O107 C110 1.252 . S
O108 Mg98 2.251 . S
O108 Mg101 2.079 . S
O108 C110 1.273 . S
C109 O105 1.251 . S
C109 O106 1.259 1_556 S
C110 O107 1.252 . S
C110 O108 1.273 . S
O111 Mg98 2.010 . S
O111 C103 1.249 . S
Mg112 O113 2.028 . S
Mg112 O119 1.986 . S
Mg112 O121 2.114 . S
Mg112 O122 2.251 . S
Mg112 O125 2.010 . S
O113 Mg112 2.028 . S
O113 C116 1.250 . S
O114 Mg115 2.028 . S
O114 C116 1.248 . S
Mg115 O114 2.028 . S
Mg115 O120 2.032 . S
Mg115 O122 2.079 . S
C116 O113 1.250 . S
C116 O114 1.248 . S
C117 O118 1.264 . S
C117 O125 1.249 . S
O118 C117 1.264 . S
O119 Mg112 1.986 . S
O119 C123 1.246 . S
O120 Mg115 2.032 . S
O120 C123 1.259 . S
O121 Mg112 2.114 . S
O121 C124 1.252 . S
O122 Mg112 2.251 . S
O122 Mg115 2.079 . S
O122 C124 1.273 . S
C123 O119 1.246 . S
C123 O120 1.259 . S
C124 O121 1.252 . S
C124 O122 1.273 . S
O125 Mg112 2.010 . S
O125 C117 1.249 . S
Mg126 O127 2.028 . S
Mg126 O133 1.986 . S
Mg126 O135 2.114 . S
Mg126 O136 2.251 . S
Mg126 O139 2.010 . S
O127 Mg126 2.028 . S
O127 C130 1.250 . S
O128 Mg129 2.028 . S
O128 C130 1.248 . S
Mg129 O128 2.028 . S
Mg129 O134 2.032 . S
Mg129 O136 2.079 . S
C130 O127 1.250 . S
C130 O128 1.248 . S
C131 O132 1.264 . S
C131 O139 1.249 . S
O132 C131 1.264 . S
O133 Mg126 1.986 . S
O133 C137 1.246 . S
O134 Mg129 2.032 . S
O134 C137 1.259 . S
O135 Mg126 2.114 . S
O135 C138 1.252 . S
O136 Mg126 2.251 . S
O136 Mg129 2.079 . S
O136 C138 1.273 . S
C137 O133 1.246 . S
C137 O134 1.259 . S
C138 O135 1.252 . S
C138 O136 1.273 . S
O139 Mg126 2.010 . S
O139 C131 1.249 . S
Mg140 O141 2.028 . S
Mg140 O147 1.986 . S
Mg140 O149 2.114 . S
Mg140 O150 2.251 . S
Mg140 O153 2.010 . S
O141 Mg140 2.028 . S
O141 C144 1.250 . S
O142 Mg143 2.028 . S
O142 C144 1.248 . S
Mg143 O142 2.028 . S
Mg143 O148 2.032 . S
Mg143 O150 2.079 . S
C144 O141 1.250 . S
C144 O142 1.248 . S
C145 O146 1.264 . S
C145 O153 1.249 . S
O146 C145 1.264 . S
O147 Mg140 1.986 . S
O147 C151 1.246 . S
O148 Mg143 2.032 . S
O148 C151 1.259 . S
O149 Mg140 2.114 . S
O149 C152 1.252 . S
O150 Mg140 2.251 . S
O150 Mg143 2.079 . S
O150 C152 1.273 . S
C151 O147 1.246 . S
C151 O148 1.259 . S
C152 O149 1.252 . S
C152 O150 1.273 . S
O153 Mg140 2.010 . S
O153 C145 1.249 . S
Mg154 O155 2.028 . S
Mg154 O161 1.986 . S
Mg154 O163 2.114 . S
Mg154 O164 2.251 . S
Mg154 O167 2.010 . S
O155 Mg154 2.028 . S
O155 C158 1.250 . S
O156 Mg157 2.028 . S
O156 C158 1.248 . S
Mg157 O156 2.028 . S
Mg157 O162 2.032 . S
Mg157 O164 2.079 . S
C158 O155 1.250 . S
C158 O156 1.248 . S
C159 O160 1.264 . S
C159 O167 1.249 . S
O160 C159 1.264 . S
O161 Mg154 1.986 . S
O161 C165 1.246 . S
O162 Mg157 2.032 . S
O162 C165 1.259 . S
O163 Mg154 2.114 . S
O163 C166 1.252 . S
O164 Mg154 2.251 . S
O164 Mg157 2.079 . S
O164 C166 1.273 . S
C165 O161 1.246 . S
C165 O162 1.259 . S
C166 O163 1.252 . S
C166 O164 1.273 . S
O167 Mg154 2.010 . S
O167 C159 1.249 . S
Mg168 O169 2.028 . S
Mg168 O175 1.986 . S
Mg168 O177 2.114 . S
Mg168 O178 2.251 1_455 S
Mg168 O181 2.010 . S
O169 Mg168 2.028 . S
O169 C172 1.250 . S
O170 Mg171 2.028 . S
O170 C172 1.248 1_655 S
Mg171 O170 2.028 . S
Mg171 O176 2.032 . S
Mg171 O178 2.079 . S
C172 O169 1.250 . S
C172 O170 1.248 1_455 S
C173 O174 1.264 . S
C173 O181 1.249 . S
O174 C173 1.264 . S
O175 Mg168 1.986 . S
O175 C179 1.246 . S
O176 Mg171 2.032 . S
O176 C179 1.259 1_655 S
O177 Mg168 2.114 . S
O177 C180 1.252 1_455 S
O178 Mg168 2.251 1_655 S
O178 Mg171 2.079 . S
O178 C180 1.273 . S
C179 O175 1.246 . S
C179 O176 1.259 1_455 S
C180 O177 1.252 1_655 S
C180 O178 1.273 . S
O181 Mg168 2.010 . S
O181 C173 1.249 . S
Mg182 O183 2.037 . S
Mg182 O189 1.995 . S
Mg182 O191 2.088 1_455 S
Mg182 O192 2.205 1_455 S
Mg182 O195 2.052 . S
O183 Mg182 2.037 . S
O183 C186 1.250 1_455 S
O184 Mg185 2.028 . S
O184 C186 1.248 . S
Mg185 O184 2.028 . S
Mg185 O190 2.032 . S
Mg185 O192 2.079 . S
C186 O183 1.250 1_655 S
C186 O184 1.248 . S
C187 O188 1.264 . S
C187 O195 1.249 . S
O188 C187 1.264 . S
O189 Mg182 1.995 . S
O189 C193 1.246 1_455 S
O190 Mg185 2.032 . S
O190 C193 1.259 . S
O191 Mg182 2.088 1_655 S
O191 C194 1.252 . S
O192 Mg182 2.205 1_655 S
O192 Mg185 2.079 . S
O192 C194 1.273 . S
C193 O189 1.246 1_655 S
C193 O190 1.259 . S
C194 O191 1.252 . S
C194 O192 1.273 . S
O195 Mg182 2.052 . S
O195 C187 1.249 . S
Mg196 O197 2.028 . S
Mg196 O203 1.986 . S
Mg196 O205 2.114 . S
Mg196 O206 2.251 . S
Mg196 O209 2.010 . S
O197 Mg196 2.028 . S
O197 C200 1.250 . S
O198 Mg199 2.028 . S
O198 C200 1.248 . S
Mg199 O198 2.028 . S
Mg199 O204 2.032 . S
Mg199 O206 2.079 . S
C200 O197 1.250 . S
C200 O198 1.248 . S
C201 O202 1.264 . S
C201 O209 1.249 . S
O202 C201 1.264 . S
O203 Mg196 1.986 . S
O203 C207 1.246 . S
O204 Mg199 2.032 . S
O204 C207 1.259 . S
O205 Mg196 2.114 . S
O205 C208 1.252 . S
O206 Mg196 2.251 . S
O206 Mg199 2.079 . S
O206 C208 1.273 . S
C207 O203 1.246 . S
C207 O204 1.259 . S
C208 O205 1.252 . S
C208 O206 1.273 . S
O209 Mg196 2.010 . S
O209 C201 1.249 . S
Mg210 O211 2.028 . S
Mg210 O217 1.986 . S
Mg210 O219 2.114 . S
Mg210 O220 2.251 . S
Mg210 O223 2.010 . S
O211 Mg210 2.028 . S
O211 C214 1.250 . S
O212 Mg213 2.028 . S
O212 C214 1.248 . S
Mg213 O212 2.028 . S
Mg213 O218 2.032 . S
Mg213 O220 2.079 . S
C214 O211 1.250 . S
C214 O212 1.248 . S
C215 O216 1.264 . S
C215 O223 1.249 . S
O216 C215 1.264 . S
O217 Mg210 1.986 . S
O217 C221 1.246 . S
O218 Mg213 2.032 . S
O218 C221 1.259 . S
O219 Mg210 2.114 . S
O219 C222 1.252 . S
O220 Mg210 2.251 . S
O220 Mg213 2.079 . S
O220 C222 1.273 . S
C221 O217 1.246 . S
C221 O218 1.259 . S
C222 O219 1.252 . S
C222 O220 1.273 . S
O223 Mg210 2.010 . S
O223 C215 1.249 . S
Mg224 O225 2.028 . S
Mg224 O231 1.986 . S
Mg224 O233 2.114 . S
Mg224 O234 2.251 . S
Mg224 O237 2.010 . S
O225 Mg224 2.028 . S
O225 C228 1.250 . S
O226 Mg227 2.028 . S
O226 C228 1.248 . S
Mg227 O226 2.028 . S
Mg227 O232 2.032 . S
Mg227 O234 2.079 . S
C228 O225 1.250 . S
C228 O226 1.248 . S
C229 O230 1.264 . S
C229 O237 1.249 . S
O230 C229 1.264 . S
O231 Mg224 1.986 . S
O231 C235 1.246 . S
O232 Mg227 2.032 . S
O232 C235 1.259 . S
O233 Mg224 2.114 . S
O233 C236 1.252 . S
O234 Mg224 2.251 . S
O234 Mg227 2.079 . S
O234 C236 1.273 . S
C235 O231 1.246 . S
C235 O232 1.259 . S
C236 O233 1.252 . S
C236 O234 1.273 . S
O237 Mg224 2.010 . S
O237 C229 1.249 . S
Mg238 O239 2.028 . S
Mg238 O245 1.986 . S
Mg238 O247 2.114 . S
Mg238 O248 2.251 . S
Mg238 O251 2.010 . S
O239 Mg238 2.028 . S
O239 C242 1.250 . S
O240 Mg241 2.028 . S
O240 C242 1.248 . S
Mg241 O240 2.028 . S
Mg241 O246 2.032 . S
Mg241 O248 2.079 . S
C242 O239 1.250 . S
C242 O240 1.248 . S
C243 O244 1.264 . S
C243 O251 1.249 . S
O244 C243 1.264 . S
O245 Mg238 1.986 . S
O245 C249 1.246 . S
O246 Mg241 2.032 . S
O246 C249 1.259 . S
O247 Mg238 2.114 . S
O247 C250 1.252 . S
O248 Mg238 2.251 . S
O248 Mg241 2.079 . S
O248 C250 1.273 . S
C249 O245 1.246 . S
C249 O246 1.259 . S
C250 O247 1.252 . S
C250 O248 1.273 . S
O251 Mg238 2.010 . S
O251 C243 1.249 . S
Mg252 O253 2.028 1_565 S
Mg252 O259 1.986 . S
Mg252 O261 2.114 1_565 S
Mg252 O262 2.251 1_565 S
Mg252 O265 2.010 . S
O253 Mg252 2.028 1_545 S
O253 C256 1.250 . S
O254 Mg255 2.028 . S
O254 C256 1.248 . S
Mg255 O254 2.028 . S
Mg255 O260 2.032 1_545 S
Mg255 O262 2.081 . S
C256 O253 1.250 . S
C256 O254 1.248 . S
C257 O258 1.244 1_545 S
C257 O265 1.243 1_545 S
O258 C257 1.244 1_565 S
O259 Mg252 1.986 . S
O259 C263 1.246 . S
O260 Mg255 2.032 1_565 S
O260 C263 1.259 . S
O261 Mg252 2.114 1_545 S
O261 C264 1.252 . S
O262 Mg252 2.251 1_545 S
O262 Mg255 2.081 . S
O262 C264 1.282 . S
C263 O259 1.246 . S
C263 O260 1.259 . S
C264 O261 1.252 . S
C264 O262 1.282 . S
O265 Mg252 2.010 . S
O265 C257 1.243 1_565 S
Mg266 O267 2.028 . S
Mg266 O273 1.986 . S
Mg266 O275 2.114 . S
Mg266 O276 2.251 . S
Mg266 O279 2.010 . S
O267 Mg266 2.028 . S
O267 C270 1.250 1_554 S
O268 Mg269 2.028 1_556 S
O268 C270 1.248 . S
Mg269 O268 2.028 1_554 S
Mg269 O274 2.032 . S
Mg269 O276 2.079 . S
C270 O267 1.250 1_556 S
C270 O268 1.248 . S
C271 O272 1.264 . S
C271 O279 1.249 . S
O272 C271 1.264 . S
O273 Mg266 1.986 . S
O273 C277 1.246 . S
O274 Mg269 2.032 . S
O274 C277 1.259 . S
O275 Mg266 2.114 . S
O275 C278 1.252 . S
O276 Mg266 2.251 . S
O276 Mg269 2.079 . S
O276 C278 1.273 . S
C277 O273 1.246 . S
C277 O274 1.259 . S
C278 O275 1.252 . S
C278 O276 1.273 . S
O279 Mg266 2.010 . S
O279 C271 1.249 . S
Mg280 O281 2.028 1_556 S
Mg280 O287 1.986 . S
Mg280 O289 2.114 1_556 S
Mg280 O290 2.251 . S
Mg280 O293 2.010 . S
O281 Mg280 2.028 1_554 S
O281 C284 1.250 . S
O282 Mg283 2.028 1_554 S
O282 C284 1.248 . S
Mg283 O282 2.028 1_556 S
Mg283 O288 2.032 . S
Mg283 O290 2.079 . S
C284 O281 1.250 . S
C284 O282 1.248 . S
C285 O286 1.264 . S
C285 O293 1.249 . S
O286 C285 1.264 . S
O287 Mg280 1.986 . S
O287 C291 1.246 . S
O288 Mg283 2.032 . S
O288 C291 1.259 . S
O289 Mg280 2.114 1_554 S
O289 C292 1.263 . S
O290 Mg280 2.251 . S
O290 Mg283 2.079 . S
O290 C292 1.258 1_556 S
C291 O287 1.246 . S
C291 O288 1.259 . S
C292 O289 1.263 . S
C292 O290 1.258 1_554 S
O293 Mg280 2.010 . S
O293 C285 1.249 . S
Mg294 O295 2.028 . S
Mg294 O301 1.986 . S
Mg294 O303 2.114 . S
Mg294 O304 2.251 . S
Mg294 O307 2.010 . S
O295 Mg294 2.028 . S
O295 C298 1.250 . S
O296 Mg297 2.028 . S
O296 C298 1.248 . S
Mg297 O296 2.028 . S
Mg297 O302 2.032 . S
Mg297 O304 2.079 . S
C298 O295 1.250 . S
C298 O296 1.248 . S
C299 O300 1.264 . S
C299 O307 1.249 . S
O300 C299 1.264 . S
O301 Mg294 1.986 . S
O301 C305 1.246 . S
O302 Mg297 2.032 . S
O302 C305 1.259 . S
O303 Mg294 2.114 . S
O303 C306 1.252 . S
O304 Mg294 2.251 . S
O304 Mg297 2.079 . S
O304 C306 1.273 . S
C305 O301 1.246 . S
C305 O302 1.259 . S
C306 O303 1.252 . S
C306 O304 1.273 . S
O307 Mg294 2.010 . S
O307 C299 1.249 . S
Mg308 O309 2.028 . S
Mg308 O315 1.986 . S
Mg308 O317 2.114 . S
Mg308 O318 2.251 . S
Mg308 O321 2.010 . S
O309 Mg308 2.028 . S
O309 C312 1.250 . S
O310 Mg311 2.028 . S
O310 C312 1.248 . S
Mg311 O310 2.028 . S
Mg311 O316 2.032 . S
Mg311 O318 2.079 . S
C312 O309 1.250 . S
C312 O310 1.248 . S
C313 O314 1.264 . S
C313 O321 1.249 . S
O314 C313 1.264 . S
O315 Mg308 1.986 . S
O315 C319 1.246 . S
O316 Mg311 2.032 . S
O316 C319 1.259 . S
O317 Mg308 2.114 . S
O317 C320 1.252 . S
O318 Mg308 2.251 . S
O318 Mg311 2.079 . S
O318 C320 1.273 . S
C319 O315 1.246 . S
C319 O316 1.259 . S
C320 O317 1.252 . S
C320 O318 1.273 . S
O321 Mg308 2.010 . S
O321 C313 1.249 . S
Mg322 O323 2.028 . S
Mg322 O329 1.986 . S
Mg322 O331 2.114 . S
Mg322 O332 2.251 . S
Mg322 O335 2.010 . S
O323 Mg322 2.028 . S
O323 C326 1.250 . S
O324 Mg325 2.028 . S
O324 C326 1.248 . S
Mg325 O324 2.028 . S
Mg325 O330 2.032 . S
Mg325 O332 2.079 . S
C326 O323 1.250 . S
C326 O324 1.248 . S
C327 O328 1.264 . S
C327 O335 1.249 . S
O328 C327 1.264 . S
O329 Mg322 1.986 . S
O329 C333 1.246 . S
O330 Mg325 2.032 . S
O330 C333 1.259 . S
O331 Mg322 2.114 . S
O331 C334 1.252 . S
O332 Mg322 2.251 . S
O332 Mg325 2.079 . S
O332 C334 1.273 . S
C333 O329 1.246 . S
C333 O330 1.259 . S
C334 O331 1.252 . S
C334 O332 1.273 . S
O335 Mg322 2.010 . S
O335 C327 1.249 . S
Co336 N341 2.057 1_554 S
Co336 O353 2.021 1_554 S
Co336 O356 2.062 1_455 S
Co336 O360 2.117 . S
Co336 O361 2.020 . S
C337 O357 1.259 . S
C337 O360 1.258 . S
Co338 N347 2.057 . S
Co338 O354 2.117 1_545 S
Co338 O355 2.020 1_455 S
Co338 O357 2.021 . S
Co338 O362 2.062 . S
C339 N341 1.316 1_655 S
C339 N342 1.347 . S
C339 H344 0.931 . S
C340 N341 1.375 1_655 S
C340 C343 1.350 . S
C340 H345 0.930 . S
N341 Co336 2.057 1_556 S
N341 C339 1.316 1_455 S
N341 C340 1.375 1_455 S
N342 C339 1.347 . S
N342 C343 1.373 . S
C343 C340 1.350 . S
C343 N342 1.373 . S
C343 H364 0.931 . S
H344 C339 0.931 . S
H345 C340 0.930 . S
C346 O353 1.259 1_564 S
C346 O354 1.258 . S
N347 Co338 2.057 . S
N347 C348 1.316 . S
N347 C349 1.375 1_545 S
C348 N347 1.316 . S
C348 N350 1.369 . S
C348 H359 0.931 . S
C349 N347 1.375 1_565 S
C349 C351 1.350 . S
C349 H358 0.930 . S
N350 C348 1.369 . S
N350 C351 1.344 1_545 S
C351 C349 1.350 . S
C351 N350 1.344 1_565 S
C351 H365 0.931 . S
C352 O355 1.256 . S
C352 O356 1.255 . S
O353 Co336 2.021 1_556 S
O353 C346 1.259 1_546 S
O354 Co338 2.117 1_565 S
O354 C346 1.258 . S
O355 Co338 2.020 1_655 S
O355 C352 1.256 . S
O356 Co336 2.062 1_655 S
O356 C352 1.255 . S
O357 C337 1.259 . S
O357 Co338 2.021 . S
H358 C349 0.930 . S
H359 C348 0.931 . S
O360 Co336 2.117 . S
O360 C337 1.258 . S
O361 Co336 2.020 . S
O361 C363 1.256 . S
O362 Co338 2.062 . S
O362 C363 1.255 . S
C363 O361 1.256 . S
C363 O362 1.255 . S
H364 C343 0.931 . S
H365 C351 0.931 . S
Co366 N371 2.057 . S
Co366 O383 2.021 . S
Co366 O386 2.062 . S
Co366 O390 2.117 . S
Co366 O391 2.020 . S
C367 O387 1.259 . S
C367 O390 1.258 . S
Co368 N377 2.057 . S
Co368 O384 2.117 . S
Co368 O385 2.020 . S
Co368 O387 2.021 . S
Co368 O392 2.062 . S
C369 N371 1.316 . S
C369 N372 1.347 . S
C369 H374 0.931 . S
C370 N371 1.375 . S
C370 C373 1.350 . S
C370 H375 0.930 . S
N371 Co366 2.057 . S
N371 C369 1.316 . S
N371 C370 1.375 . S
N372 C369 1.347 . S
N372 C373 1.373 . S
C373 C370 1.350 . S
C373 N372 1.373 . S
C373 H394 0.931 . S
H374 C369 0.931 . S
H375 C370 0.930 . S
C376 O383 1.259 . S
C376 O384 1.258 . S
N377 Co368 2.057 . S
N377 C378 1.316 . S
N377 C379 1.375 . S
C378 N377 1.316 . S
C378 N380 1.347 . S
C378 H389 0.931 . S
C379 N377 1.375 . S
C379 C381 1.350 . S
C379 H388 0.930 . S
N380 C378 1.347 . S
N380 C381 1.373 . S
C381 C379 1.350 . S
C381 N380 1.373 . S
C381 H395 0.931 . S
C382 O385 1.256 . S
C382 O386 1.255 . S
O383 Co366 2.021 . S
O383 C376 1.259 . S
O384 Co368 2.117 . S
O384 C376 1.258 . S
O385 Co368 2.020 . S
O385 C382 1.256 . S
O386 Co366 2.062 . S
O386 C382 1.255 . S
O387 C367 1.259 . S
O387 Co368 2.021 . S
H388 C379 0.930 . S
H389 C378 0.931 . S
O390 Co366 2.117 . S
O390 C367 1.258 . S
O391 Co366 2.020 . S
O391 C393 1.256 . S
O392 Co368 2.062 . S
O392 C393 1.255 . S
C393 O391 1.256 . S
C393 O392 1.255 . S
H394 C373 0.931 . S
H395 C381 0.931 . S
Co396 N401 2.057 . S
Co396 O413 2.021 1_545 S
Co396 O416 2.062 . S
Co396 O420 2.117 . S
Co396 O421 2.020 . S
C397 O417 1.259 . S
C397 O420 1.258 . S
Co398 N407 2.057 . S
Co398 O414 2.117 . S
Co398 O415 2.020 . S
Co398 O417 2.021 . S
Co398 O422 2.062 . S
C399 N401 1.316 1_565 S
C399 N402 1.347 . S
C399 H404 0.931 . S
C400 N401 1.375 . S
C400 C403 1.350 . S
C400 H405 0.930 . S
N401 Co396 2.057 . S
N401 C399 1.316 1_545 S
N401 C400 1.375 . S
N402 C399 1.347 . S
N402 C403 1.373 1_565 S
C403 C400 1.350 . S
C403 N402 1.373 1_545 S
C403 H424 0.931 . S
H404 C399 0.931 . S
H405 C400 0.930 . S
C406 O413 1.259 . S
C406 O414 1.258 1_565 S
N407 Co398 2.057 . S
N407 C408 1.316 . S
N407 C409 1.375 . S
C408 N407 1.316 . S
C408 N410 1.347 . S
C408 H419 0.931 . S
C409 N407 1.375 . S
C409 C411 1.350 . S
C409 H418 0.930 . S
N410 C408 1.347 . S
N410 C411 1.373 . S
C411 C409 1.350 . S
C411 N410 1.373 . S
C411 H425 0.931 . S
C412 O415 1.256 . S
C412 O416 1.255 . S
O413 Co396 2.021 1_565 S
O413 C406 1.259 . S
O414 Co398 2.117 . S
O414 C406 1.258 1_545 S
O415 Co398 2.020 . S
O415 C412 1.256 . S
O416 Co396 2.062 . S
O416 C412 1.255 . S
O417 C397 1.259 . S
O417 Co398 2.021 . S
H418 C409 0.930 . S
H419 C408 0.931 . S
O420 Co396 2.117 . S
O420 C397 1.258 . S
O421 Co396 2.020 . S
O421 C423 1.256 . S
O422 Co398 2.062 . S
O422 C423 1.255 . S
C423 O421 1.256 . S
C423 O422 1.255 . S
H424 C403 0.931 . S
H425 C411 0.931 . S
Co426 N431 2.057 . S
Co426 O443 2.021 . S
Co426 O446 2.062 . S
Co426 O450 2.117 . S
Co426 O451 2.020 . S
C427 O447 1.259 . S
C427 O450 1.258 . S
Co428 N437 2.057 . S
Co428 O444 2.117 . S
Co428 O445 2.020 . S
Co428 O447 2.021 . S
Co428 O452 2.062 . S
C429 N431 1.316 . S
C429 N432 1.347 . S
C429 H434 0.931 . S
C430 N431 1.375 . S
C430 C433 1.350 . S
C430 H435 0.930 . S
N431 Co426 2.057 . S
N431 C429 1.316 . S
N431 C430 1.375 . S
N432 C429 1.347 . S
N432 C433 1.373 . S
C433 C430 1.350 . S
C433 N432 1.373 . S
C433 H454 0.931 . S
H434 C429 0.931 . S
H435 C430 0.930 . S
C436 O443 1.259 . S
C436 O444 1.258 . S
N437 Co428 2.057 . S
N437 C438 1.316 . S
N437 C439 1.375 . S
C438 N437 1.316 . S
C438 N440 1.347 . S
C438 H449 0.931 . S
C439 N437 1.375 . S
C439 C441 1.350 . S
C439 H448 0.930 . S
N440 C438 1.347 . S
N440 C441 1.373 . S
C441 C439 1.350 . S
C441 N440 1.373 . S
C441 H455 0.931 . S
C442 O445 1.256 . S
C442 O446 1.255 . S
O443 Co426 2.021 . S
O443 C436 1.259 . S
O444 Co428 2.117 . S
O444 C436 1.258 . S
O445 Co428 2.020 . S
O445 C442 1.256 . S
O446 Co426 2.062 . S
O446 C442 1.255 . S
O447 C427 1.259 . S
O447 Co428 2.021 . S
H448 C439 0.930 . S
H449 C438 0.931 . S
O450 Co426 2.117 . S
O450 C427 1.258 . S
O451 Co426 2.020 . S
O451 C453 1.256 . S
O452 Co428 2.062 . S
O452 C453 1.255 . S
C453 O451 1.256 . S
C453 O452 1.255 . S
H454 C433 0.931 . S
H455 C441 0.931 . S
Co456 N461 2.057 1_545 S
Co456 O473 2.021 . S
Co456 O476 2.053 1_545 S
Co456 O480 2.117 . S
Co456 O481 2.020 1_455 S
C457 O477 1.259 . S
C457 O480 1.258 . S
Co458 N467 2.057 . S
Co458 O474 2.117 . S
Co458 O475 2.020 . S
Co458 O477 2.021 . S
Co458 O482 2.062 1_455 S
C459 N461 1.316 . S
C459 N462 1.347 . S
C459 H464 0.931 . S
C460 N461 1.375 1_655 S
C460 C463 1.350 . S
C460 H465 0.930 . S
N461 Co456 2.057 1_565 S
N461 C459 1.316 . S
N461 C460 1.375 1_455 S
N462 C459 1.347 . S
N462 C463 1.373 1_455 S
C463 C460 1.350 . S
C463 N462 1.373 1_655 S
C463 H484 0.931 . S
H464 C459 0.931 . S
H465 C460 0.930 . S
C466 O473 1.259 . S
C466 O474 1.258 . S
N467 Co458 2.057 . S
N467 C468 1.316 . S
N467 C469 1.375 . S
C468 N467 1.316 . S
C468 N470 1.347 . S
C468 H479 0.931 . S
C469 N467 1.375 . S
C469 C471 1.350 . S
C469 H478 0.930 . S
N470 C468 1.347 . S
N470 C471 1.373 . S
C471 C469 1.350 . S
C471 N470 1.373 . S
C471 H485 0.931 . S
C472 O475 1.256 . S
C472 O476 1.230 1_545 S
O473 Co456 2.021 . S
O473 C466 1.259 . S
O474 Co458 2.117 . S
O474 C466 1.258 . S
O475 Co458 2.020 . S
O475 C472 1.256 . S
O476 Co456 2.053 1_565 S
O476 C472 1.230 1_565 S
O477 C457 1.259 . S
O477 Co458 2.021 . S
H478 C469 0.930 . S
H479 C468 0.931 . S
O480 Co456 2.117 . S
O480 C457 1.258 . S
O481 Co456 2.020 1_655 S
O481 C483 1.256 . S
O482 Co458 2.062 1_655 S
O482 C483 1.255 . S
C483 O481 1.256 . S
C483 O482 1.255 . S
H484 C463 0.931 . S
H485 C471 0.931 . S
Co486 N491 2.057 . S
Co486 O503 2.021 . S
Co486 O506 2.062 . S
Co486 O510 2.117 . S
Co486 O511 2.020 . S
C487 O507 1.259 . S
C487 O510 1.258 . S
Co488 N497 2.057 . S
Co488 O504 2.117 . S
Co488 O505 2.020 . S
Co488 O507 2.021 . S
Co488 O512 2.062 . S
C489 N491 1.316 . S
C489 N492 1.347 . S
C489 H494 0.931 . S
C490 N491 1.375 . S
C490 C493 1.350 . S
C490 H495 0.930 . S
N491 Co486 2.057 . S
N491 C489 1.316 . S
N491 C490 1.375 . S
N492 C489 1.347 . S
N492 C493 1.373 . S
C493 C490 1.350 . S
C493 N492 1.373 . S
C493 H514 0.931 . S
H494 C489 0.931 . S
H495 C490 0.930 . S
C496 O503 1.259 . S
C496 O504 1.258 . S
N497 Co488 2.057 . S
N497 C498 1.316 . S
N497 C499 1.375 . S
C498 N497 1.316 . S
C498 N500 1.347 . S
C498 H509 0.931 . S
C499 N497 1.375 . S
C499 C501 1.350 . S
C499 H508 0.930 . S
N500 C498 1.347 . S
N500 C501 1.373 . S
C501 C499 1.350 . S
C501 N500 1.373 . S
C501 H515 0.931 . S
C502 O505 1.256 . S
C502 O506 1.255 . S
O503 Co486 2.021 . S
O503 C496 1.259 . S
O504 Co488 2.117 . S
O504 C496 1.258 . S
O505 Co488 2.020 . S
O505 C502 1.256 . S
O506 Co486 2.062 . S
O506 C502 1.255 . S
O507 C487 1.259 . S
O507 Co488 2.021 . S
H508 C499 0.930 . S
H509 C498 0.931 . S
O510 Co486 2.117 . S
O510 C487 1.258 . S
O511 Co486 2.020 . S
O511 C513 1.256 . S
O512 Co488 2.062 . S
O512 C513 1.255 . S
C513 O511 1.256 . S
C513 O512 1.255 . S
H514 C493 0.931 . S
H515 C501 0.931 . S
Co516 N521 2.057 1_554 S
Co516 O533 2.021 . S
Co516 O536 2.062 1_554 S
Co516 O540 2.117 . S
Co516 O541 2.020 1_545 S
C517 O537 1.259 . S
C517 O540 1.258 . S
Co518 N527 2.057 . S
Co518 O534 2.117 . S
Co518 O535 2.020 . S
Co518 O537 2.021 . S
Co518 O542 2.062 . S
C519 N521 1.316 . S
C519 N522 1.347 . S
C519 H524 0.931 . S
C520 N521 1.380 . S
C520 C523 1.349 1_545 S
C520 H525 0.925 1_545 S
N521 Co516 2.057 1_556 S
N521 C519 1.316 . S
N521 C520 1.380 . S
N522 C519 1.347 . S
N522 C523 1.355 1_545 S
C523 C520 1.349 1_565 S
C523 N522 1.355 1_565 S
C523 H544 0.949 . S
H524 C519 0.931 . S
H525 C520 0.925 1_565 S
C526 O533 1.259 . S
C526 O534 1.258 . S
N527 Co518 2.057 . S
N527 C528 1.316 . S
N527 C529 1.375 . S
C528 N527 1.316 . S
C528 N530 1.347 . S
C528 H539 0.931 . S
C529 N527 1.375 . S
C529 C531 1.350 . S
C529 H538 0.930 . S
N530 C528 1.347 . S
N530 C531 1.373 . S
C531 C529 1.350 . S
C531 N530 1.373 . S
C531 H545 0.931 . S
C532 O535 1.256 . S
C532 O536 1.255 1_554 S
O533 Co516 2.021 . S
O533 C526 1.259 . S
O534 Co518 2.117 . S
O534 C526 1.258 . S
O535 Co518 2.020 . S
O535 C532 1.256 . S
O536 Co516 2.062 1_556 S
O536 C532 1.255 1_556 S
O537 C517 1.259 . S
O537 Co518 2.021 . S
H538 C529 0.930 . S
H539 C528 0.931 . S
O540 Co516 2.117 . S
O540 C517 1.258 . S
O541 Co516 2.020 1_565 S
O541 C543 1.256 . S
O542 Co518 2.062 . S
O542 C543 1.255 1_545 S
C543 O541 1.256 . S
C543 O542 1.255 1_565 S
H544 C523 0.949 . S
H545 C531 0.931 . S
Co546 N551 2.057 . S
Co546 O563 2.021 . S
Co546 O566 2.062 . S
Co546 O570 2.117 . S
Co546 O571 2.020 . S
C547 O567 1.259 . S
C547 O570 1.258 . S
Co548 N557 2.057 . S
Co548 O564 2.117 . S
Co548 O565 2.020 . S
Co548 O567 2.021 . S
Co548 O572 2.062 . S
C549 N551 1.316 . S
C549 N552 1.347 . S
C549 H554 0.931 . S
C550 N551 1.375 . S
C550 C553 1.350 . S
C550 H555 0.930 . S
N551 Co546 2.057 . S
N551 C549 1.316 . S
N551 C550 1.375 . S
N552 C549 1.347 . S
N552 C553 1.373 . S
C553 C550 1.350 . S
C553 N552 1.373 . S
C553 H574 0.931 . S
H554 C549 0.931 . S
H555 C550 0.930 . S
C556 O563 1.259 . S
C556 O564 1.258 . S
N557 Co548 2.057 . S
N557 C558 1.316 . S
N557 C559 1.375 . S
C558 N557 1.316 . S
C558 N560 1.347 . S
C558 H569 0.931 . S
C559 N557 1.375 . S
C559 C561 1.350 . S
C559 H568 0.930 . S
N560 C558 1.347 . S
N560 C561 1.373 . S
C561 C559 1.350 . S
C561 N560 1.373 . S
C561 H575 0.931 . S
C562 O565 1.256 . S
C562 O566 1.255 . S
O563 Co546 2.021 . S
O563 C556 1.259 . S
O564 Co548 2.117 . S
O564 C556 1.258 . S
O565 Co548 2.020 . S
O565 C562 1.256 . S
O566 Co546 2.062 . S
O566 C562 1.255 . S
O567 C547 1.259 . S
O567 Co548 2.021 . S
H568 C559 0.930 . S
H569 C558 0.931 . S
O570 Co546 2.117 . S
O570 C547 1.258 . S
O571 Co546 2.020 . S
O571 C573 1.256 . S
O572 Co548 2.062 . S
O572 C573 1.255 . S
C573 O571 1.256 . S
C573 O572 1.255 . S
H574 C553 0.931 . S
H575 C561 0.931 . S
Co576 N581 2.057 . S
Co576 O593 2.021 1_554 S
Co576 O596 2.062 . S
Co576 O600 2.117 . S
Co576 O601 2.020 . S
C577 O597 1.259 . S
C577 O600 1.258 . S
Co578 N587 2.057 . S
Co578 O594 2.117 1_554 S
Co578 O595 2.020 . S
Co578 O597 2.021 . S
Co578 O602 2.062 . S
C579 N581 1.316 1_556 S
C579 N582 1.347 . S
C579 H584 0.931 . S
C580 N581 1.375 . S
C580 C583 1.350 . S
C580 H585 0.930 . S
N581 Co576 2.057 . S
N581 C579 1.316 1_554 S
N581 C580 1.375 . S
N582 C579 1.347 . S
N582 C583 1.373 1_556 S
C583 C580 1.350 . S
C583 N582 1.373 1_554 S
C583 H604 0.931 . S
H584 C579 0.931 . S
H585 C580 0.930 . S
C586 O593 1.259 . S
C586 O594 1.258 . S
N587 Co578 2.057 . S
N587 C588 1.316 . S
N587 C589 1.375 . S
C588 N587 1.316 . S
C588 N590 1.347 . S
C588 H599 0.931 . S
C589 N587 1.375 . S
C589 C591 1.350 . S
C589 H598 0.930 . S
N590 C588 1.347 . S
N590 C591 1.373 . S
C591 C589 1.350 . S
C591 N590 1.373 . S
C591 H605 0.931 . S
C592 O595 1.256 . S
C592 O596 1.255 . S
O593 Co576 2.021 1_556 S
O593 C586 1.259 . S
O594 Co578 2.117 1_556 S
O594 C586 1.258 . S
O595 Co578 2.020 . S
O595 C592 1.256 . S
O596 Co576 2.062 . S
O596 C592 1.255 . S
O597 C577 1.259 . S
O597 Co578 2.021 . S
H598 C589 0.930 . S
H599 C588 0.931 . S
O600 Co576 2.117 . S
O600 C577 1.258 . S
O601 Co576 2.020 . S
O601 C603 1.256 . S
O602 Co578 2.062 . S
O602 C603 1.255 . S
C603 O601 1.256 . S
C603 O602 1.255 . S
H604 C583 0.931 . S
H605 C591 0.931 . S
Co606 N611 2.057 . S
Co606 O623 2.021 . S
Co606 O626 2.062 . S
Co606 O630 2.117 . S
Co606 O631 2.020 . S
C607 O627 1.259 . S
C607 O630 1.258 . S
Co608 N617 2.057 . S
Co608 O624 2.117 . S
Co608 O625 2.020 . S
Co608 O627 2.021 . S
Co608 O632 2.062 . S
C609 N611 1.316 . S
C609 N612 1.347 . S
C609 H614 0.931 . S
C610 N611 1.375 . S
C610 C613 1.350 . S
C610 H615 0.930 . S
N611 Co606 2.057 . S
N611 C609 1.316 . S
N611 C610 1.375 . S
N612 C609 1.347 . S
N612 C613 1.373 . S
C613 C610 1.350 . S
C613 N612 1.373 . S
C613 H634 0.931 . S
H614 C609 0.931 . S
H615 C610 0.930 . S
C616 O623 1.259 . S
C616 O624 1.258 . S
N617 Co608 2.057 . S
N617 C618 1.316 . S
N617 C619 1.375 . S
C618 N617 1.316 . S
C618 N620 1.347 . S
C618 H629 0.931 . S
C619 N617 1.375 . S
C619 C621 1.350 . S
C619 H628 0.930 . S
N620 C618 1.347 . S
N620 C621 1.373 . S
C621 C619 1.350 . S
C621 N620 1.373 . S
C621 H635 0.931 . S
C622 O625 1.256 . S
C622 O626 1.255 . S
O623 Co606 2.021 . S
O623 C616 1.259 . S
O624 Co608 2.117 . S
O624 C616 1.258 . S
O625 Co608 2.020 . S
O625 C622 1.256 . S
O626 Co606 2.062 . S
O626 C622 1.255 . S
O627 C607 1.259 . S
O627 Co608 2.021 . S
H628 C619 0.930 . S
H629 C618 0.931 . S
O630 Co606 2.117 . S
O630 C607 1.258 . S
O631 Co606 2.020 . S
O631 C633 1.256 . S
O632 Co608 2.062 . S
O632 C633 1.255 . S
C633 O631 1.256 . S
C633 O632 1.255 . S
H634 C613 0.931 . S
H635 C621 0.931 . S
Co636 N641 2.057 . S
Co636 O653 2.021 1_455 S
Co636 O656 2.062 . S
Co636 O660 2.117 . S
Co636 O661 2.020 . S
C637 O657 1.259 . S
C637 O660 1.258 . S
Co638 N647 2.057 . S
Co638 O654 2.117 1_455 S
Co638 O655 2.020 . S
Co638 O657 2.021 . S
Co638 O662 2.062 . S
C639 N641 1.316 1_655 S
C639 N642 1.347 . S
C639 H644 0.931 . S
C640 N641 1.375 . S
C640 C643 1.350 . S
C640 H645 0.930 . S
N641 Co636 2.057 . S
N641 C639 1.316 1_455 S
N641 C640 1.375 . S
N642 C639 1.347 . S
N642 C643 1.373 1_655 S
C643 C640 1.350 . S
C643 N642 1.373 1_455 S
C643 H664 0.931 . S
H644 C639 0.931 . S
H645 C640 0.930 . S
C646 O653 1.259 . S
C646 O654 1.258 . S
N647 Co638 2.057 . S
N647 C648 1.316 . S
N647 C649 1.375 . S
C648 N647 1.316 . S
C648 N650 1.347 . S
C648 H659 0.931 . S
C649 N647 1.375 . S
C649 C651 1.350 . S
C649 H658 0.930 . S
N650 C648 1.347 . S
N650 C651 1.373 . S
C651 C649 1.350 . S
C651 N650 1.373 . S
C651 H665 0.931 . S
C652 O655 1.256 . S
C652 O656 1.255 . S
O653 Co636 2.021 1_655 S
O653 C646 1.259 . S
O654 Co638 2.117 1_655 S
O654 C646 1.258 . S
O655 Co638 2.020 . S
O655 C652 1.256 . S
O656 Co636 2.062 . S
O656 C652 1.255 . S
O657 C637 1.259 . S
O657 Co638 2.021 . S
H658 C649 0.930 . S
H659 C648 0.931 . S
O660 Co636 2.117 . S
O660 C637 1.258 . S
O661 Co636 2.020 . S
O661 C663 1.256 . S
O662 Co638 2.062 . S
O662 C663 1.255 . S
C663 O661 1.256 . S
C663 O662 1.255 . S
H664 C643 0.931 . S
H665 C651 0.931 . S
Co666 N671 2.057 . S
Co666 O683 2.021 . S
Co666 O686 2.062 . S
Co666 O690 2.117 . S
Co666 O691 2.020 . S
C667 O687 1.259 . S
C667 O690 1.258 . S
Co668 N677 2.057 . S
Co668 O684 2.117 . S
Co668 O685 2.020 . S
Co668 O687 2.021 . S
Co668 O692 2.062 . S
C669 N671 1.316 . S
C669 N672 1.347 . S
C669 H674 0.931 . S
C670 N671 1.375 . S
C670 C673 1.350 . S
C670 H675 0.930 . S
N671 Co666 2.057 . S
N671 C669 1.316 . S
N671 C670 1.375 . S
N672 C669 1.347 . S
N672 C673 1.373 . S
C673 C670 1.350 . S
C673 N672 1.373 . S
C673 H694 0.931 . S
H674 C669 0.931 . S
H675 C670 0.930 . S
C676 O683 1.259 . S
C676 O684 1.258 . S
N677 Co668 2.057 . S
N677 C678 1.316 . S
N677 C679 1.375 . S
C678 N677 1.316 . S
C678 N680 1.347 . S
C678 H689 0.931 . S
C679 N677 1.375 . S
C679 C681 1.350 . S
C679 H688 0.930 . S
N680 C678 1.347 . S
N680 C681 1.373 . S
C681 C679 1.350 . S
C681 N680 1.373 . S
C681 H695 0.931 . S
C682 O685 1.256 . S
C682 O686 1.255 . S
O683 Co666 2.021 . S
O683 C676 1.259 . S
O684 Co668 2.117 . S
O684 C676 1.258 . S
O685 Co668 2.020 . S
O685 C682 1.256 . S
O686 Co666 2.062 . S
O686 C682 1.255 . S
O687 C667 1.259 . S
O687 Co668 2.021 . S
H688 C679 0.930 . S
H689 C678 0.931 . S
O690 Co666 2.117 . S
O690 C667 1.258 . S
O691 Co666 2.020 . S
O691 C693 1.256 . S
O692 Co668 2.062 . S
O692 C693 1.255 . S
C693 O691 1.256 . S
C693 O692 1.255 . S
H694 C673 0.931 . S
H695 C681 0.931 . S
Co696 N701 2.057 . S
Co696 O713 2.021 . S
Co696 O716 2.062 . S
Co696 O720 2.117 . S
Co696 O721 2.020 . S
C697 O717 1.259 . S
C697 O720 1.258 . S
Co698 N707 2.057 . S
Co698 O714 2.117 . S
Co698 O715 2.020 . S
Co698 O717 2.021 . S
Co698 O722 2.062 . S
C699 N701 1.316 . S
C699 N702 1.347 . S
C699 H704 0.931 . S
C700 N701 1.375 . S
C700 C703 1.350 . S
C700 H705 0.930 . S
N701 Co696 2.057 . S
N701 C699 1.316 . S
N701 C700 1.375 . S
N702 C699 1.347 . S
N702 C703 1.373 . S
C703 C700 1.350 . S
C703 N702 1.373 . S
C703 H724 0.931 . S
H704 C699 0.931 . S
H705 C700 0.930 . S
C706 O713 1.259 . S
C706 O714 1.258 . S
N707 Co698 2.057 . S
N707 C708 1.316 . S
N707 C709 1.375 . S
C708 N707 1.316 . S
C708 N710 1.347 . S
C708 H719 0.931 . S
C709 N707 1.375 . S
C709 C711 1.350 . S
C709 H718 0.930 . S
N710 C708 1.347 . S
N710 C711 1.373 . S
C711 C709 1.350 . S
C711 N710 1.373 . S
C711 H725 0.931 . S
C712 O715 1.256 . S
C712 O716 1.255 . S
O713 Co696 2.021 . S
O713 C706 1.259 . S
O714 Co698 2.117 . S
O714 C706 1.258 . S
O715 Co698 2.020 . S
O715 C712 1.256 . S
O716 Co696 2.062 . S
O716 C712 1.255 . S
O717 C697 1.259 . S
O717 Co698 2.021 . S
H718 C709 0.930 . S
H719 C708 0.931 . S
O720 Co696 2.117 . S
O720 C697 1.258 . S
O721 Co696 2.020 . S
O721 C723 1.256 . S
O722 Co698 2.062 . S
O722 C723 1.255 . S
C723 O721 1.256 . S
C723 O722 1.255 . S
H724 C703 0.931 . S
H725 C711 0.931 . S
Co726 N731 2.057 . S
Co726 O743 2.021 . S
Co726 O746 2.062 . S
Co726 O750 2.117 . S
Co726 O751 2.020 . S
C727 O747 1.259 . S
C727 O750 1.258 . S
Co728 N737 2.057 . S
Co728 O744 2.117 . S
Co728 O745 2.020 . S
Co728 O747 2.021 . S
Co728 O752 2.062 . S
C729 N731 1.316 . S
C729 N732 1.347 . S
C729 H734 0.931 . S
C730 N731 1.375 . S
C730 C733 1.350 . S
C730 H735 0.930 . S
N731 Co726 2.057 . S
N731 C729 1.316 . S
N731 C730 1.375 . S
N732 C729 1.347 . S
N732 C733 1.373 . S
C733 C730 1.350 . S
C733 N732 1.373 . S
C733 H754 0.931 . S
H734 C729 0.931 . S
H735 C730 0.930 . S
C736 O743 1.259 . S
C736 O744 1.258 . S
N737 Co728 2.057 . S
N737 C738 1.316 . S
N737 C739 1.375 . S
C738 N737 1.316 . S
C738 N740 1.347 . S
C738 H749 0.931 . S
C739 N737 1.375 . S
C739 C741 1.350 . S
C739 H748 0.930 . S
N740 C738 1.347 . S
N740 C741 1.373 . S
C741 C739 1.350 . S
C741 N740 1.373 . S
C741 H755 0.931 . S
C742 O745 1.256 . S
C742 O746 1.255 . S
O743 Co726 2.021 . S
O743 C736 1.259 . S
O744 Co728 2.117 . S
O744 C736 1.258 . S
O745 Co728 2.020 . S
O745 C742 1.256 . S
O746 Co726 2.062 . S
O746 C742 1.255 . S
O747 C727 1.259 . S
O747 Co728 2.021 . S
H748 C739 0.930 . S
H749 C738 0.931 . S
O750 Co726 2.117 . S
O750 C727 1.258 . S
O751 Co726 2.020 . S
O751 C753 1.256 . S
O752 Co728 2.062 . S
O752 C753 1.255 . S
C753 O751 1.256 . S
C753 O752 1.255 . S
H754 C733 0.931 . S
H755 C741 0.931 . S
Co756 N761 2.057 . S
Co756 O773 2.021 . S
Co756 O776 2.062 . S
Co756 O780 2.117 . S
Co756 O781 2.020 . S
C757 O777 1.259 . S
C757 O780 1.258 . S
Co758 N767 2.057 . S
Co758 O774 2.117 . S
Co758 O775 2.020 . S
Co758 O777 2.021 . S
Co758 O782 2.062 . S
C759 N761 1.316 . S
C759 N762 1.347 . S
C759 H764 0.931 . S
C760 N761 1.375 . S
C760 C763 1.350 . S
C760 H765 0.930 . S
N761 Co756 2.057 . S
N761 C759 1.316 . S
N761 C760 1.375 . S
N762 C759 1.347 . S
N762 C763 1.373 . S
C763 C760 1.350 . S
C763 N762 1.373 . S
C763 H784 0.931 . S
H764 C759 0.931 . S
H765 C760 0.930 . S
C766 O773 1.259 . S
C766 O774 1.258 . S
N767 Co758 2.057 . S
N767 C768 1.316 . S
N767 C769 1.375 . S
C768 N767 1.316 . S
C768 N770 1.347 . S
C768 H779 0.931 . S
C769 N767 1.375 . S
C769 C771 1.350 . S
C769 H778 0.930 . S
N770 C768 1.347 . S
N770 C771 1.373 . S
C771 C769 1.350 . S
C771 N770 1.373 . S
C771 H785 0.931 . S
C772 O775 1.256 . S
C772 O776 1.255 . S
O773 Co756 2.021 . S
O773 C766 1.259 . S
O774 Co758 2.117 . S
O774 C766 1.258 . S
O775 Co758 2.020 . S
O775 C772 1.256 . S
O776 Co756 2.062 . S
O776 C772 1.255 . S
O777 C757 1.259 . S
O777 Co758 2.021 . S
H778 C769 0.930 . S
H779 C768 0.931 . S
O780 Co756 2.117 . S
O780 C757 1.258 . S
O781 Co756 2.020 . S
O781 C783 1.256 . S
O782 Co758 2.062 . S
O782 C783 1.255 . S
C783 O781 1.256 . S
C783 O782 1.255 . S
H784 C763 0.931 . S
H785 C771 0.931 . S
Co786 N791 2.030 1_455 S
Co786 O803 2.029 . S
Co786 O806 2.056 1_455 S
Co786 O810 2.117 . S
Co786 O811 2.033 1_554 S
C787 O807 1.259 . S
C787 O810 1.273 . S
Co788 N797 2.057 . S
Co788 O804 2.117 . S
Co788 O805 2.020 . S
Co788 O807 2.021 . S
Co788 O812 2.062 1_554 S
C789 N791 1.316 . S
C789 N792 1.347 . S
C789 H794 0.931 . S
C790 N791 1.375 1_556 S
C790 C793 1.350 . S
C790 H795 0.930 . S
N791 Co786 2.030 1_655 S
N791 C789 1.316 . S
N791 C790 1.375 1_554 S
N792 C789 1.347 . S
N792 C793 1.373 1_554 S
C793 C790 1.350 . S
C793 N792 1.373 1_556 S
C793 H814 0.931 . S
H794 C789 0.931 . S
H795 C790 0.930 . S
C796 O803 1.259 . S
C796 O804 1.258 . S
N797 Co788 2.057 . S
N797 C798 1.316 . S
N797 C799 1.375 . S
C798 N797 1.316 . S
C798 N800 1.347 . S
C798 H809 0.931 . S
C799 N797 1.375 . S
C799 C801 1.350 . S
C799 H808 0.930 . S
N800 C798 1.347 . S
N800 C801 1.373 . S
C801 C799 1.350 . S
C801 N800 1.373 . S
C801 H815 0.931 . S
C802 O805 1.256 . S
C802 O806 1.255 1_455 S
O803 Co786 2.029 . S
O803 C796 1.259 . S
O804 Co788 2.117 . S
O804 C796 1.258 . S
O805 Co788 2.020 . S
O805 C802 1.256 . S
O806 Co786 2.056 1_655 S
O806 C802 1.255 1_655 S
O807 C787 1.259 . S
O807 Co788 2.021 . S
H808 C799 0.930 . S
H809 C798 0.931 . S
O810 Co786 2.117 . S
O810 C787 1.273 . S
O811 Co786 2.033 1_556 S
O811 C813 1.256 . S
O812 Co788 2.062 1_556 S
O812 C813 1.255 . S
C813 O811 1.256 . S
C813 O812 1.255 . S
H814 C793 0.931 . S
H815 C801 0.931 . S
H816 C822 0.930 . S
H817 C826 0.930 1_655 S
H818 C831 0.929 . S
H819 C829 0.929 . S
H820 C824 0.929 . S
H821 C830 0.929 . S
C822 H816 0.930 . S
C822 C823 1.367 . S
C822 C830 1.378 . S
C823 C822 1.367 . S
C823 C831 1.433 . S
C824 H820 0.929 . S
C824 C826 1.378 . S
C824 C828 1.350 . S
C825 C828 1.463 . S
C825 C830 1.350 . S
C825 N833 1.427 . S
C826 H817 0.930 1_455 S
C826 C824 1.378 . S
C826 C827 1.367 . S
C827 C826 1.367 . S
C827 C829 1.433 . S
C828 C824 1.350 . S
C828 C825 1.463 . S
C828 N832 1.427 . S
C829 H819 0.929 . S
C829 C827 1.433 . S
C829 N832 1.384 . S
C830 H821 0.929 . S
C830 C822 1.378 . S
C830 C825 1.350 . S
C831 H818 0.929 . S
C831 C823 1.433 . S
C831 N833 1.384 . S
N832 C828 1.427 . S
N832 C829 1.384 . S
N833 C825 1.427 . S
N833 C831 1.384 . S
H834 C840 0.930 . S
H835 C844 0.930 . S
H836 C849 0.929 . S
H837 C847 0.929 . S
H838 C842 0.929 . S
H839 C848 0.929 . S
C840 H834 0.930 . S
C840 C841 1.367 . S
C840 C848 1.378 . S
C841 C840 1.367 . S
C841 C849 1.433 . S
C842 H838 0.929 . S
C842 C844 1.378 . S
C842 C846 1.350 . S
C843 C846 1.463 . S
C843 C848 1.350 . S
C843 N851 1.427 . S
C844 H835 0.930 . S
C844 C842 1.378 . S
C844 C845 1.367 . S
C845 C844 1.367 . S
C845 C847 1.433 . S
C846 C842 1.350 . S
C846 C843 1.463 . S
C846 N850 1.427 . S
C847 H837 0.929 . S
C847 C845 1.433 . S
C847 N850 1.384 . S
C848 H839 0.929 . S
C848 C840 1.378 . S
C848 C843 1.350 . S
C849 H836 0.929 . S
C849 C841 1.433 . S
C849 N851 1.384 . S
N850 C846 1.427 . S
N850 C847 1.384 . S
N851 C843 1.427 . S
N851 C849 1.384 . S
H852 C858 0.930 . S
H853 C862 0.930 . S
H854 C867 0.929 . S
H855 C865 0.929 . S
H856 C860 0.929 . S
H857 C866 0.929 . S
C858 H852 0.930 . S
C858 C859 1.367 . S
C858 C866 1.378 . S
C859 C858 1.367 . S
C859 C867 1.433 . S
C860 H856 0.929 . S
C860 C862 1.378 . S
C860 C864 1.350 . S
C861 C864 1.463 . S
C861 C866 1.350 . S
C861 N869 1.427 . S
C862 H853 0.930 . S
C862 C860 1.378 . S
C862 C863 1.367 . S
C863 C862 1.367 . S
C863 C865 1.433 . S
C864 C860 1.350 . S
C864 C861 1.463 . S
C864 N868 1.427 . S
C865 H855 0.929 . S
C865 C863 1.433 . S
C865 N868 1.384 . S
C866 H857 0.929 . S
C866 C858 1.378 . S
C866 C861 1.350 . S
C867 H854 0.929 . S
C867 C859 1.433 . S
C867 N869 1.384 . S
N868 C864 1.427 . S
N868 C865 1.384 . S
N869 C861 1.427 . S
N869 C867 1.384 . S
H870 C876 0.930 . S
H871 C880 0.930 . S
H872 C885 0.929 . S
H873 C883 0.929 . S
H874 C878 0.929 . S
H875 C884 0.929 . S
C876 H870 0.930 . S
C876 C877 1.367 . S
C876 C884 1.378 . S
C877 C876 1.367 . S
C877 C885 1.433 . S
C878 H874 0.929 . S
C878 C880 1.378 . S
C878 C882 1.350 . S
C879 C882 1.463 . S
C879 C884 1.350 . S
C879 N887 1.427 . S
C880 H871 0.930 . S
C880 C878 1.378 . S
C880 C881 1.367 . S
C881 C880 1.367 . S
C881 C883 1.433 . S
C882 C878 1.350 . S
C882 C879 1.463 . S
C882 N886 1.427 . S
C883 H873 0.929 . S
C883 C881 1.433 . S
C883 N886 1.384 . S
C884 H875 0.929 . S
C884 C876 1.378 . S
C884 C879 1.350 . S
C885 H872 0.929 . S
C885 C877 1.433 . S
C885 N887 1.384 . S
N886 C882 1.427 . S
N886 C883 1.384 . S
N887 C879 1.427 . S
N887 C885 1.384 . S
H888 C894 0.930 . S
H889 C898 0.930 . S
H890 C903 0.929 . S
H891 C901 0.929 . S
H892 C896 0.929 . S
H893 C902 0.929 . S
C894 H888 0.930 . S
C894 C895 1.367 . S
C894 C902 1.378 . S
C895 C894 1.367 . S
C895 C903 1.433 . S
C896 H892 0.929 . S
C896 C898 1.378 . S
C896 C900 1.350 . S
C897 C900 1.463 . S
C897 C902 1.350 . S
C897 N905 1.427 . S
C898 H889 0.930 . S
C898 C896 1.378 . S
C898 C899 1.367 . S
C899 C898 1.367 . S
C899 C901 1.433 1_455 S
C900 C896 1.350 . S
C900 C897 1.463 . S
C900 N904 1.427 . S
C901 H891 0.929 . S
C901 C899 1.433 1_655 S
C901 N904 1.384 1_655 S
C902 H893 0.929 . S
C902 C894 1.378 . S
C902 C897 1.350 . S
C903 H890 0.929 . S
C903 C895 1.433 . S
C903 N905 1.384 . S
N904 C900 1.427 . S
N904 C901 1.384 1_455 S
N905 C897 1.427 . S
N905 C903 1.384 . S
H906 C912 0.930 . S
H907 C916 0.930 . S
H908 C921 0.929 . S
H909 C919 0.929 . S
H910 C914 0.929 . S
H911 C920 0.929 . S
C912 H906 0.930 . S
C912 C913 1.367 . S
C912 C920 1.378 . S
C913 C912 1.367 . S
C913 C921 1.433 . S
C914 H910 0.929 . S
C914 C916 1.378 . S
C914 C918 1.350 . S
C915 C918 1.463 . S
C915 C920 1.350 . S
C915 N923 1.427 . S
C916 H907 0.930 . S
C916 C914 1.378 . S
C916 C917 1.367 . S
C917 C916 1.367 . S
C917 C919 1.433 . S
C918 C914 1.350 . S
C918 C915 1.463 . S
C918 N922 1.427 . S
C919 H909 0.929 . S
C919 C917 1.433 . S
C919 N922 1.384 . S
C920 H911 0.929 . S
C920 C912 1.378 . S
C920 C915 1.350 . S
C921 H908 0.929 . S
C921 C913 1.433 . S
C921 N923 1.384 . S
N922 C918 1.427 . S
N922 C919 1.384 . S
N923 C915 1.427 . S
N923 C921 1.384 . S
H924 C930 0.930 . S
H925 C934 0.930 . S
H926 C939 0.929 . S
H927 C937 0.929 . S
H928 C932 0.929 . S
H929 C938 0.929 . S
C930 H924 0.930 . S
C930 C931 1.367 . S
C930 C938 1.378 . S
C931 C930 1.367 . S
C931 C939 1.433 . S
C932 H928 0.929 . S
C932 C934 1.378 1_556 S
C932 C936 1.350 . S
C933 C936 1.463 . S
C933 C938 1.350 . S
C933 N941 1.427 . S
C934 H925 0.930 . S
C934 C932 1.378 1_554 S
C934 C935 1.371 . S
C935 C934 1.371 . S
C935 C937 1.417 1_554 S
C936 C932 1.350 . S
C936 C933 1.463 . S
C936 N940 1.427 . S
C937 H927 0.929 . S
C937 C935 1.417 1_556 S
C937 N940 1.384 . S
C938 H929 0.929 . S
C938 C930 1.378 . S
C938 C933 1.350 . S
C939 H926 0.929 . S
C939 C931 1.433 . S
C939 N941 1.384 . S
N940 C936 1.427 . S
N940 C937 1.384 . S
N941 C933 1.427 . S
N941 C939 1.384 . S
H942 C948 0.930 . S
H943 C952 0.930 . S
H944 C957 0.929 . S
H945 C955 0.929 . S
H946 C950 0.929 . S
H947 C956 0.929 . S
C948 H942 0.930 . S
C948 C949 1.367 . S
C948 C956 1.378 . S
C949 C948 1.367 . S
C949 C957 1.433 . S
C950 H946 0.929 . S
C950 C952 1.378 . S
C950 C954 1.350 . S
C951 C954 1.463 . S
C951 C956 1.350 . S
C951 N959 1.427 . S
C952 H943 0.930 . S
C952 C950 1.378 . S
C952 C953 1.367 . S
C953 C952 1.367 . S
C953 C955 1.433 . S
C954 C950 1.350 . S
C954 C951 1.463 . S
C954 N958 1.427 . S
C955 H945 0.929 . S
C955 C953 1.433 . S
C955 N958 1.384 . S
C956 H947 0.929 . S
C956 C948 1.378 . S
C956 C951 1.350 . S
C957 H944 0.929 . S
C957 C949 1.433 . S
C957 N959 1.384 . S
N958 C954 1.427 . S
N958 C955 1.384 . S
N959 C951 1.427 . S
N959 C957 1.384 . S
H960 C966 0.930 . S
H961 C970 0.930 . S
H962 C975 0.929 . S
H963 C973 0.929 . S
H964 C968 0.929 . S
H965 C974 0.929 . S
C966 H960 0.930 . S
C966 C967 1.367 . S
C966 C974 1.378 . S
C967 C966 1.367 . S
C967 C975 1.433 1_545 S
C968 H964 0.929 . S
C968 C970 1.378 . S
C968 C972 1.350 1_565 S
C969 C972 1.463 . S
C969 C974 1.350 . S
C969 N977 1.427 1_545 S
C970 H961 0.930 . S
C970 C968 1.378 . S
C970 C971 1.367 1_565 S
C971 C970 1.367 1_545 S
C971 C973 1.433 . S
C972 C968 1.350 1_545 S
C972 C969 1.463 . S
C972 N976 1.427 . S
C973 H963 0.929 . S
C973 C971 1.433 . S
C973 N976 1.384 . S
C974 H965 0.929 . S
C974 C966 1.378 . S
C974 C969 1.350 . S
C975 H962 0.929 . S
C975 C967 1.433 1_565 S
C975 N977 1.384 . S
N976 C972 1.427 . S
N976 C973 1.384 . S
N977 C969 1.427 1_565 S
N977 C975 1.384 . S
H978 C984 0.930 . S
H979 C988 0.930 . S
H980 C993 0.929 . S
H981 C991 0.929 . S
H982 C986 0.929 . S
H983 C992 0.929 . S
C984 H978 0.930 . S
C984 C985 1.367 . S
C984 C992 1.378 . S
C985 C984 1.367 . S
C985 C993 1.433 . S
C986 H982 0.929 . S
C986 C988 1.378 . S
C986 C990 1.350 . S
C987 C990 1.463 . S
C987 C992 1.350 . S
C987 N995 1.427 . S
C988 H979 0.930 . S
C988 C986 1.378 . S
C988 C989 1.367 . S
C989 C988 1.367 . S
C989 C991 1.433 . S
C990 C986 1.350 . S
C990 C987 1.463 . S
C990 N994 1.427 . S
C991 H981 0.929 . S
C991 C989 1.433 . S
C991 N994 1.384 . S
C992 H983 0.929 . S
C992 C984 1.378 . S
C992 C987 1.350 . S
C993 H980 0.929 . S
C993 C985 1.433 . S
C993 N995 1.384 . S
N994 C990 1.427 . S
N994 C991 1.384 . S
N995 C987 1.427 . S
N995 C993 1.384 . S
H996 C1002 0.930 . S
H997 C1006 0.930 . S
H998 C1011 0.929 . S
H999 C1009 0.929 . S
H1000 C1004 0.929 . S
H1001 C1010 0.929 . S
C1002 H996 0.930 . S
C1002 C1003 1.367 . S
C1002 C1010 1.378 . S
C1003 C1002 1.367 . S
C1003 C1011 1.433 . S
C1004 H1000 0.929 . S
C1004 C1006 1.378 . S
C1004 C1008 1.350 . S
C1005 C1008 1.463 . S
C1005 C1010 1.350 . S
C1005 N1013 1.427 . S
C1006 H997 0.930 . S
C1006 C1004 1.378 . S
C1006 C1007 1.367 . S
C1007 C1006 1.367 . S
C1007 C1009 1.433 . S
C1008 C1004 1.350 . S
C1008 C1005 1.463 . S
C1008 N1012 1.427 . S
C1009 H999 0.929 . S
C1009 C1007 1.433 . S
C1009 N1012 1.384 . S
C1010 H1001 0.929 . S
C1010 C1002 1.378 . S
C1010 C1005 1.350 . S
C1011 H998 0.929 . S
C1011 C1003 1.433 . S
C1011 N1013 1.384 . S
N1012 C1008 1.427 . S
N1012 C1009 1.384 . S
N1013 C1005 1.427 . S
N1013 C1011 1.384 . S
H1014 C1020 0.930 . S
H1015 C1024 0.930 . S
H1016 C1029 0.929 . S
H1017 C1027 0.929 . S
H1018 C1022 0.929 . S
H1019 C1028 0.929 . S
C1020 H1014 0.930 . S
C1020 C1021 1.367 . S
C1020 C1028 1.378 . S
C1021 C1020 1.367 . S
C1021 C1029 1.433 . S
C1022 H1018 0.929 . S
C1022 C1024 1.378 . S
C1022 C1026 1.350 . S
C1023 C1026 1.463 . S
C1023 C1028 1.350 . S
C1023 N1031 1.427 . S
C1024 H1015 0.930 . S
C1024 C1022 1.378 . S
C1024 C1025 1.367 . S
C1025 C1024 1.367 . S
C1025 C1027 1.433 . S
C1026 C1022 1.350 . S
C1026 C1023 1.463 . S
C1026 N1030 1.427 . S
C1027 H1017 0.929 . S
C1027 C1025 1.433 . S
C1027 N1030 1.384 . S
C1028 H1019 0.929 . S
C1028 C1020 1.378 . S
C1028 C1023 1.350 . S
C1029 H1016 0.929 . S
C1029 C1021 1.433 . S
C1029 N1031 1.384 . S
N1030 C1026 1.427 . S
N1030 C1027 1.384 . S
N1031 C1023 1.427 . S
N1031 C1029 1.384 . S
H1032 C1038 0.930 . S
H1033 C1042 0.930 . S
H1034 C1047 0.929 . S
H1035 C1045 0.929 . S
H1036 C1040 0.929 1_565 S
H1037 C1046 0.929 . S
C1038 H1032 0.930 . S
C1038 C1039 1.367 . S
C1038 C1046 1.378 . S
C1039 C1038 1.367 . S
C1039 C1047 1.433 1_545 S
C1040 H1036 0.929 1_545 S
C1040 C1042 1.378 . S
C1040 C1044 1.350 . S
C1041 C1044 1.463 . S
C1041 C1046 1.350 . S
C1041 N1049 1.427 1_545 S
C1042 H1033 0.930 . S
C1042 C1040 1.378 . S
C1042 C1043 1.367 . S
C1043 C1042 1.367 . S
C1043 C1045 1.433 . S
C1044 C1040 1.350 . S
C1044 C1041 1.463 . S
C1044 N1048 1.427 . S
C1045 H1035 0.929 . S
C1045 C1043 1.433 . S
C1045 N1048 1.384 . S
C1046 H1037 0.929 . S
C1046 C1038 1.378 . S
C1046 C1041 1.350 . S
C1047 H1034 0.929 . S
C1047 C1039 1.433 1_565 S
C1047 N1049 1.384 . S
N1048 C1044 1.427 . S
N1048 C1045 1.384 . S
N1049 C1041 1.427 1_565 S
N1049 C1047 1.384 . S
H1050 C1056 0.930 . S
H1051 C1060 0.930 . S
H1052 C1065 0.929 . S
H1053 C1063 0.929 . S
H1054 C1058 0.929 . S
H1055 C1064 0.929 . S
C1056 H1050 0.930 . S
C1056 C1057 1.367 . S
C1056 C1064 1.378 . S
C1057 C1056 1.367 . S
C1057 C1065 1.433 . S
C1058 H1054 0.929 . S
C1058 C1060 1.378 . S
C1058 C1062 1.350 . S
C1059 C1062 1.463 . S
C1059 C1064 1.350 . S
C1059 N1067 1.427 . S
C1060 H1051 0.930 . S
C1060 C1058 1.378 . S
C1060 C1061 1.367 . S
C1061 C1060 1.367 . S
C1061 C1063 1.433 . S
C1062 C1058 1.350 . S
C1062 C1059 1.463 . S
C1062 N1066 1.427 . S
C1063 H1053 0.929 . S
C1063 C1061 1.433 . S
C1063 N1066 1.384 . S
C1064 H1055 0.929 . S
C1064 C1056 1.378 . S
C1064 C1059 1.350 . S
C1065 H1052 0.929 . S
C1065 C1057 1.433 . S
C1065 N1067 1.384 . S
N1066 C1062 1.427 . S
N1066 C1063 1.384 . S
N1067 C1059 1.427 . S
N1067 C1065 1.384 . S
H1068 C1074 0.930 . S
H1069 C1078 0.930 1_565 S
H1070 C1083 0.929 . S
H1071 C1081 0.929 . S
H1072 C1076 0.927 . S
H1073 C1082 0.929 . S
C1074 H1068 0.930 . S
C1074 C1075 1.367 . S
C1074 C1082 1.378 . S
C1075 C1074 1.367 . S
C1075 C1083 1.433 . S
C1076 H1072 0.927 . S
C1076 C1078 1.378 . S
C1076 C1080 1.350 . S
C1077 C1080 1.463 . S
C1077 C1082 1.350 . S
C1077 N1085 1.427 . S
C1078 H1069 0.930 1_545 S
C1078 C1076 1.378 . S
C1078 C1079 1.367 . S
C1079 C1078 1.367 . S
C1079 C1081 1.433 . S
C1080 C1076 1.350 . S
C1080 C1077 1.463 . S
C1080 N1084 1.427 . S
C1081 H1071 0.929 . S
C1081 C1079 1.433 . S
C1081 N1084 1.384 . S
C1082 H1073 0.929 . S
C1082 C1074 1.378 . S
C1082 C1077 1.350 . S
C1083 H1070 0.929 . S
C1083 C1075 1.433 . S
C1083 N1085 1.384 . S
N1084 C1080 1.427 . S
N1084 C1081 1.384 . S
N1085 C1077 1.427 . S
N1085 C1083 1.384 . S
H1086 C1092 0.930 . S
H1087 C1096 0.930 . S
H1088 C1101 0.929 . S
H1089 C1099 0.929 . S
H1090 C1094 0.929 . S
H1091 C1100 0.929 . S
C1092 H1086 0.930 . S
C1092 C1093 1.367 . S
C1092 C1100 1.378 . S
C1093 C1092 1.367 . S
C1093 C1101 1.433 . S
C1094 H1090 0.929 . S
C1094 C1096 1.378 . S
C1094 C1098 1.350 . S
C1095 C1098 1.463 . S
C1095 C1100 1.350 . S
C1095 N1103 1.427 . S
C1096 H1087 0.930 . S
C1096 C1094 1.378 . S
C1096 C1097 1.367 . S
C1097 C1096 1.367 . S
C1097 C1099 1.433 . S
C1098 C1094 1.350 . S
C1098 C1095 1.463 . S
C1098 N1102 1.427 . S
C1099 H1089 0.929 . S
C1099 C1097 1.433 . S
C1099 N1102 1.384 . S
C1100 H1091 0.929 . S
C1100 C1092 1.378 . S
C1100 C1095 1.350 . S
C1101 H1088 0.929 . S
C1101 C1093 1.433 . S
C1101 N1103 1.384 . S
N1102 C1098 1.427 . S
N1102 C1099 1.384 . S
N1103 C1095 1.427 . S
N1103 C1101 1.384 . S
H1104 C1110 0.930 1_556 S
H1105 C1114 0.930 . S
H1106 C1119 0.929 . S
H1107 C1117 0.929 . S
H1108 C1112 0.929 . S
H1109 C1118 0.929 1_556 S
C1110 H1104 0.930 1_554 S
C1110 C1111 1.367 . S
C1110 C1118 1.378 . S
C1111 C1110 1.367 . S
C1111 C1119 1.433 . S
C1112 H1108 0.929 . S
C1112 C1114 1.378 . S
C1112 C1116 1.350 . S
C1113 C1116 1.463 . S
C1113 C1118 1.350 . S
C1113 N1121 1.427 . S
C1114 H1105 0.930 . S
C1114 C1112 1.378 . S
C1114 C1115 1.367 . S
C1115 C1114 1.367 . S
C1115 C1117 1.433 1_554 S
C1116 C1112 1.350 . S
C1116 C1113 1.463 . S
C1116 N1120 1.427 . S
C1117 H1107 0.929 . S
C1117 C1115 1.433 1_556 S
C1117 N1120 1.384 1_556 S
C1118 H1109 0.929 1_554 S
C1118 C1110 1.378 . S
C1118 C1113 1.350 . S
C1119 H1106 0.929 . S
C1119 C1111 1.433 . S
C1119 N1121 1.384 . S
N1120 C1116 1.427 . S
N1120 C1117 1.384 1_554 S
N1121 C1113 1.427 . S
N1121 C1119 1.384 . S
H1122 C1128 0.930 . S
H1123 C1132 0.930 . S
H1124 C1137 0.929 . S
H1125 C1135 0.929 . S
H1126 C1130 0.929 . S
H1127 C1136 0.929 . S
C1128 H1122 0.930 . S
C1128 C1129 1.367 . S
C1128 C1136 1.378 . S
C1129 C1128 1.367 . S
C1129 C1137 1.433 . S
C1130 H1126 0.929 . S
C1130 C1132 1.378 . S
C1130 C1134 1.350 . S
C1131 C1134 1.463 . S
C1131 C1136 1.350 . S
C1131 N1139 1.427 . S
C1132 H1123 0.930 . S
C1132 C1130 1.378 . S
C1132 C1133 1.367 . S
C1133 C1132 1.367 . S
C1133 C1135 1.433 . S
C1134 C1130 1.350 . S
C1134 C1131 1.463 . S
C1134 N1138 1.427 . S
C1135 H1125 0.929 . S
C1135 C1133 1.433 . S
C1135 N1138 1.384 . S
C1136 H1127 0.929 . S
C1136 C1128 1.378 . S
C1136 C1131 1.350 . S
C1137 H1124 0.929 . S
C1137 C1129 1.433 . S
C1137 N1139 1.384 . S
N1138 C1134 1.427 . S
N1138 C1135 1.384 . S
N1139 C1131 1.427 . S
N1139 C1137 1.384 . S
H1140 C1146 0.930 . S
H1141 C1150 0.930 . S
H1142 C1155 0.929 . S
H1143 C1153 0.929 . S
H1144 C1148 0.929 . S
H1145 C1154 0.929 . S
C1146 H1140 0.930 . S
C1146 C1147 1.367 . S
C1146 C1154 1.378 . S
C1147 C1146 1.367 . S
C1147 C1155 1.433 . S
C1148 H1144 0.929 . S
C1148 C1150 1.378 . S
C1148 C1152 1.350 . S
C1149 C1152 1.463 . S
C1149 C1154 1.350 . S
C1149 N1157 1.427 . S
C1150 H1141 0.930 . S
C1150 C1148 1.378 . S
C1150 C1151 1.367 . S
C1151 C1150 1.367 . S
C1151 C1153 1.433 . S
C1152 C1148 1.350 . S
C1152 C1149 1.463 . S
C1152 N1156 1.427 . S
C1153 H1143 0.929 . S
C1153 C1151 1.433 . S
C1153 N1156 1.384 . S
C1154 H1145 0.929 . S
C1154 C1146 1.378 . S
C1154 C1149 1.350 . S
C1155 H1142 0.929 . S
C1155 C1147 1.433 . S
C1155 N1157 1.384 . S
N1156 C1152 1.427 . S
N1156 C1153 1.384 . S
N1157 C1149 1.427 . S
N1157 C1155 1.384 . S
H1158 C1164 0.930 . S
H1159 C1168 0.930 . S
H1160 C1173 0.929 . S
H1161 C1171 0.929 . S
H1162 C1166 0.929 . S
H1163 C1172 0.929 . S
C1164 H1158 0.930 . S
C1164 C1165 1.367 . S
C1164 C1172 1.378 . S
C1165 C1164 1.367 . S
C1165 C1173 1.433 . S
C1166 H1162 0.929 . S
C1166 C1168 1.378 . S
C1166 C1170 1.350 . S
C1167 C1170 1.463 . S
C1167 C1172 1.350 . S
C1167 N1175 1.427 . S
C1168 H1159 0.930 . S
C1168 C1166 1.378 . S
C1168 C1169 1.367 . S
C1169 C1168 1.367 . S
C1169 C1171 1.433 . S
C1170 C1166 1.350 . S
C1170 C1167 1.463 . S
C1170 N1174 1.427 . S
C1171 H1161 0.929 . S
C1171 C1169 1.433 . S
C1171 N1174 1.384 . S
C1172 H1163 0.929 . S
C1172 C1164 1.378 . S
C1172 C1167 1.350 . S
C1173 H1160 0.929 . S
C1173 C1165 1.433 . S
C1173 N1175 1.384 . S
N1174 C1170 1.427 . S
N1174 C1171 1.384 . S
N1175 C1167 1.427 . S
N1175 C1173 1.384 . S
H1176 C1182 0.930 . S
H1177 C1186 0.930 . S
H1178 C1191 0.929 . S
H1179 C1189 0.929 . S
H1180 C1184 0.929 . S
H1181 C1190 0.929 . S
C1182 H1176 0.930 . S
C1182 C1183 1.367 . S
C1182 C1190 1.378 . S
C1183 C1182 1.367 . S
C1183 C1191 1.433 . S
C1184 H1180 0.929 . S
C1184 C1186 1.378 . S
C1184 C1188 1.350 . S
C1185 C1188 1.463 . S
C1185 C1190 1.350 . S
C1185 N1193 1.427 . S
C1186 H1177 0.930 . S
C1186 C1184 1.378 . S
C1186 C1187 1.367 . S
C1187 C1186 1.367 . S
C1187 C1189 1.433 . S
C1188 C1184 1.350 . S
C1188 C1185 1.463 . S
C1188 N1192 1.427 . S
C1189 H1179 0.929 . S
C1189 C1187 1.433 . S
C1189 N1192 1.384 . S
C1190 H1181 0.929 . S
C1190 C1182 1.378 . S
C1190 C1185 1.350 . S
C1191 H1178 0.929 . S
C1191 C1183 1.433 . S
C1191 N1193 1.384 . S
N1192 C1188 1.427 . S
N1192 C1189 1.384 . S
N1193 C1185 1.427 . S
N1193 C1191 1.384 . S
H1194 C1200 0.930 . S
H1195 C1204 0.930 . S
H1196 C1209 0.929 . S
H1197 C1207 0.929 . S
H1198 C1202 0.929 . S
H1199 C1208 0.929 . S
C1200 H1194 0.930 . S
C1200 C1201 1.367 . S
C1200 C1208 1.378 . S
C1201 C1200 1.367 . S
C1201 C1209 1.433 . S
C1202 H1198 0.929 . S
C1202 C1204 1.378 . S
C1202 C1206 1.350 . S
C1203 C1206 1.463 . S
C1203 C1208 1.350 . S
C1203 N1211 1.427 . S
C1204 H1195 0.930 . S
C1204 C1202 1.378 . S
C1204 C1205 1.367 . S
C1205 C1204 1.367 . S
C1205 C1207 1.433 1_565 S
C1206 C1202 1.350 . S
C1206 C1203 1.463 . S
C1206 N1210 1.427 . S
C1207 H1197 0.929 . S
C1207 C1205 1.433 1_545 S
C1207 N1210 1.384 1_545 S
C1208 H1199 0.929 . S
C1208 C1200 1.378 . S
C1208 C1203 1.350 . S
C1209 H1196 0.929 . S
C1209 C1201 1.433 . S
C1209 N1211 1.384 . S
N1210 C1206 1.427 . S
N1210 C1207 1.384 1_565 S
N1211 C1203 1.427 . S
N1211 C1209 1.384 . S
H1212 C1218 0.930 . S
H1213 C1222 0.930 . S
H1214 C1227 0.929 . S
H1215 C1225 0.929 . S
H1216 C1220 0.929 . S
H1217 C1226 0.929 . S
C1218 H1212 0.930 . S
C1218 C1219 1.367 . S
C1218 C1226 1.378 . S
C1219 C1218 1.367 . S
C1219 C1227 1.433 . S
C1220 H1216 0.929 . S
C1220 C1222 1.378 . S
C1220 C1224 1.350 . S
C1221 C1224 1.463 . S
C1221 C1226 1.350 . S
C1221 N1229 1.427 . S
C1222 H1213 0.930 . S
C1222 C1220 1.378 . S
C1222 C1223 1.367 . S
C1223 C1222 1.367 . S
C1223 C1225 1.433 . S
C1224 C1220 1.350 . S
C1224 C1221 1.463 . S
C1224 N1228 1.427 . S
C1225 H1215 0.929 . S
C1225 C1223 1.433 . S
C1225 N1228 1.384 . S
C1226 H1217 0.929 . S
C1226 C1218 1.378 . S
C1226 C1221 1.350 . S
C1227 H1214 0.929 . S
C1227 C1219 1.433 . S
C1227 N1229 1.384 . S
N1228 C1224 1.427 . S
N1228 C1225 1.384 . S
N1229 C1221 1.427 . S
N1229 C1227 1.384 . S
H1230 C1236 0.930 . S
H1231 C1240 0.930 . S
H1232 C1245 0.929 . S
H1233 C1243 0.929 . S
H1234 C1238 0.929 . S
H1235 C1244 0.929 . S
C1236 H1230 0.930 . S
C1236 C1237 1.367 . S
C1236 C1244 1.378 . S
C1237 C1236 1.367 . S
C1237 C1245 1.433 . S
C1238 H1234 0.929 . S
C1238 C1240 1.378 . S
C1238 C1242 1.350 . S
C1239 C1242 1.463 . S
C1239 C1244 1.350 . S
C1239 N1247 1.427 . S
C1240 H1231 0.930 . S
C1240 C1238 1.378 . S
C1240 C1241 1.367 . S
C1241 C1240 1.367 . S
C1241 C1243 1.433 . S
C1242 C1238 1.350 . S
C1242 C1239 1.463 . S
C1242 N1246 1.427 . S
C1243 H1233 0.929 . S
C1243 C1241 1.433 . S
C1243 N1246 1.384 . S
C1244 H1235 0.929 . S
C1244 C1236 1.378 . S
C1244 C1239 1.350 . S
C1245 H1232 0.929 . S
C1245 C1237 1.433 . S
C1245 N1247 1.384 . S
N1246 C1242 1.427 . S
N1246 C1243 1.384 . S
N1247 C1239 1.427 . S
N1247 C1245 1.384 . S
H1248 C1254 0.887 1_655 S
H1249 C1258 0.930 . S
H1250 C1263 0.929 . S
H1251 C1261 0.929 1_655 S
H1252 C1256 0.929 . S
H1253 C1262 0.929 1_655 S
C1254 H1248 0.887 1_455 S
C1254 C1255 1.406 . S
C1254 C1262 1.384 . S
C1255 C1254 1.406 . S
C1255 C1263 1.433 . S
C1256 H1252 0.929 . S
C1256 C1258 1.378 . S
C1256 C1260 1.350 . S
C1257 C1260 1.463 . S
C1257 C1262 1.350 . S
C1257 N1265 1.427 . S
C1258 H1249 0.930 . S
C1258 C1256 1.378 . S
C1258 C1259 1.367 . S
C1259 C1258 1.367 . S
C1259 C1261 1.433 . S
C1260 C1256 1.350 . S
C1260 C1257 1.463 . S
C1260 N1264 1.427 . S
C1261 H1251 0.929 1_455 S
C1261 C1259 1.433 . S
C1261 N1264 1.384 . S
C1262 H1253 0.929 1_455 S
C1262 C1254 1.384 . S
C1262 C1257 1.350 . S
C1263 H1250 0.929 . S
C1263 C1255 1.433 . S
C1263 N1265 1.384 . S
N1264 C1260 1.427 . S
N1264 C1261 1.384 . S
N1265 C1257 1.427 . S
N1265 C1263 1.384 . S
H1266 C1272 0.930 . S
H1267 C1276 0.930 . S
H1268 C1281 0.929 . S
H1269 C1279 0.929 . S
H1270 C1274 0.929 . S
H1271 C1280 0.929 . S
C1272 H1266 0.930 . S
C1272 C1273 1.367 . S
C1272 C1280 1.378 . S
C1273 C1272 1.367 . S
C1273 C1281 1.433 . S
C1274 H1270 0.929 . S
C1274 C1276 1.378 . S
C1274 C1278 1.350 . S
C1275 C1278 1.463 . S
C1275 C1280 1.350 . S
C1275 N1283 1.427 . S
C1276 H1267 0.930 . S
C1276 C1274 1.378 . S
C1276 C1277 1.367 . S
C1277 C1276 1.367 . S
C1277 C1279 1.433 . S
C1278 C1274 1.350 . S
C1278 C1275 1.463 . S
C1278 N1282 1.427 . S
C1279 H1269 0.929 . S
C1279 C1277 1.433 . S
C1279 N1282 1.384 . S
C1280 H1271 0.929 . S
C1280 C1272 1.378 . S
C1280 C1275 1.350 . S
C1281 H1268 0.929 . S
C1281 C1273 1.433 . S
C1281 N1283 1.384 . S
N1282 C1278 1.427 . S
N1282 C1279 1.384 . S
N1283 C1275 1.427 . S
N1283 C1281 1.384 . S
H1284 C1290 0.930 . S
H1285 C1294 0.930 . S
H1286 C1299 0.929 . S
H1287 C1297 0.929 . S
H1288 C1292 0.929 . S
H1289 C1298 0.929 . S
C1290 H1284 0.930 . S
C1290 C1291 1.367 . S
C1290 C1298 1.378 . S
C1291 C1290 1.367 . S
C1291 C1299 1.433 . S
C1292 H1288 0.929 . S
C1292 C1294 1.378 . S
C1292 C1296 1.350 . S
C1293 C1296 1.463 . S
C1293 C1298 1.350 . S
C1293 N1301 1.427 . S
C1294 H1285 0.930 . S
C1294 C1292 1.378 . S
C1294 C1295 1.367 . S
C1295 C1294 1.367 . S
C1295 C1297 1.433 . S
C1296 C1292 1.350 . S
C1296 C1293 1.463 . S
C1296 N1300 1.427 . S
C1297 H1287 0.929 . S
C1297 C1295 1.433 . S
C1297 N1300 1.384 . S
C1298 H1289 0.929 . S
C1298 C1290 1.378 . S
C1298 C1293 1.350 . S
C1299 H1286 0.929 . S
C1299 C1291 1.433 . S
C1299 N1301 1.384 . S
N1300 C1296 1.427 . S
N1300 C1297 1.384 . S
N1301 C1293 1.427 . S
N1301 C1299 1.384 . S
H1302 C1308 0.930 . S
H1303 C1312 0.930 . S
H1304 C1317 0.929 . S
H1305 C1315 0.929 . S
H1306 C1310 0.929 . S
H1307 C1316 0.929 . S
C1308 H1302 0.930 . S
C1308 C1309 1.367 . S
C1308 C1316 1.378 . S
C1309 C1308 1.367 . S
C1309 C1317 1.433 . S
C1310 H1306 0.929 . S
C1310 C1312 1.378 . S
C1310 C1314 1.350 . S
C1311 C1314 1.463 . S
C1311 C1316 1.350 . S
C1311 N1319 1.427 . S
C1312 H1303 0.930 . S
C1312 C1310 1.378 . S
C1312 C1313 1.367 . S
C1313 C1312 1.367 . S
C1313 C1315 1.433 . S
C1314 C1310 1.350 . S
C1314 C1311 1.463 . S
C1314 N1318 1.427 . S
C1315 H1305 0.929 . S
C1315 C1313 1.433 . S
C1315 N1318 1.384 . S
C1316 H1307 0.929 . S
C1316 C1308 1.378 . S
C1316 C1311 1.350 . S
C1317 H1304 0.929 . S
C1317 C1309 1.433 . S
C1317 N1319 1.384 . S
N1318 C1314 1.427 . S
N1318 C1315 1.384 . S
N1319 C1311 1.427 . S
N1319 C1317 1.384 . S
H1320 C1326 0.930 . S
H1321 C1330 0.930 . S
H1322 C1335 0.929 . S
H1323 C1333 0.929 . S
H1324 C1328 0.929 . S
H1325 C1334 0.941 . S
C1326 H1320 0.930 . S
C1326 C1327 1.367 1_655 S
C1326 C1334 1.378 1_655 S
C1327 C1326 1.367 1_455 S
C1327 C1335 1.433 . S
C1328 H1324 0.929 . S
C1328 C1330 1.378 . S
C1328 C1332 1.350 . S
C1329 C1332 1.463 . S
C1329 C1334 1.350 . S
C1329 N1337 1.427 . S
C1330 H1321 0.930 . S
C1330 C1328 1.378 . S
C1330 C1331 1.367 . S
C1331 C1330 1.367 . S
C1331 C1333 1.433 . S
C1332 C1328 1.350 . S
C1332 C1329 1.463 . S
C1332 N1336 1.427 . S
C1333 H1323 0.929 . S
C1333 C1331 1.433 . S
C1333 N1336 1.384 . S
C1334 H1325 0.941 . S
C1334 C1326 1.378 1_455 S
C1334 C1329 1.350 . S
C1335 H1322 0.929 . S
C1335 C1327 1.433 . S
C1335 N1337 1.384 . S
N1336 C1332 1.427 . S
N1336 C1333 1.384 . S
N1337 C1329 1.427 . S
N1337 C1335 1.384 . S
H1338 C1344 0.930 . S
H1339 C1348 0.930 . S
H1340 C1353 0.929 . S
H1341 C1351 0.929 . S
H1342 C1346 0.929 . S
H1343 C1352 0.929 . S
C1344 H1338 0.930 . S
C1344 C1345 1.367 . S
C1344 C1352 1.378 . S
C1345 C1344 1.367 . S
C1345 C1353 1.433 . S
C1346 H1342 0.929 . S
C1346 C1348 1.378 . S
C1346 C1350 1.350 . S
C1347 C1350 1.463 . S
C1347 C1352 1.350 . S
C1347 N1355 1.427 . S
C1348 H1339 0.930 . S
C1348 C1346 1.378 . S
C1348 C1349 1.367 . S
C1349 C1348 1.367 . S
C1349 C1351 1.433 . S
C1350 C1346 1.350 . S
C1350 C1347 1.463 . S
C1350 N1354 1.427 . S
C1351 H1341 0.929 . S
C1351 C1349 1.433 . S
C1351 N1354 1.384 . S
C1352 H1343 0.929 . S
C1352 C1344 1.378 . S
C1352 C1347 1.350 . S
C1353 H1340 0.929 . S
C1353 C1345 1.433 . S
C1353 N1355 1.384 . S
N1354 C1350 1.427 . S
N1354 C1351 1.384 . S
N1355 C1347 1.427 . S
N1355 C1353 1.384 . S
H1356 C1362 0.930 . S
H1357 C1366 0.930 . S
H1358 C1371 0.929 . S
H1359 C1369 0.929 . S
H1360 C1364 0.929 . S
H1361 C1370 0.929 . S
C1362 H1356 0.930 . S
C1362 C1363 1.367 . S
C1362 C1370 1.378 . S
C1363 C1362 1.367 . S
C1363 C1371 1.433 . S
C1364 H1360 0.929 . S
C1364 C1366 1.378 . S
C1364 C1368 1.350 . S
C1365 C1368 1.463 . S
C1365 C1370 1.350 . S
C1365 N1373 1.427 . S
C1366 H1357 0.930 . S
C1366 C1364 1.378 . S
C1366 C1367 1.367 . S
C1367 C1366 1.367 . S
C1367 C1369 1.433 . S
C1368 C1364 1.350 . S
C1368 C1365 1.463 . S
C1368 N1372 1.427 . S
C1369 H1359 0.929 . S
C1369 C1367 1.433 . S
C1369 N1372 1.384 . S
C1370 H1361 0.929 . S
C1370 C1362 1.378 . S
C1370 C1365 1.350 . S
C1371 H1358 0.929 . S
C1371 C1363 1.433 . S
C1371 N1373 1.384 . S
N1372 C1368 1.427 . S
N1372 C1369 1.384 . S
N1373 C1365 1.427 . S
N1373 C1371 1.384 . S
H1374 C1380 0.930 . S
H1375 C1384 0.930 . S
H1376 C1389 0.929 . S
H1377 C1387 0.929 . S
H1378 C1382 0.929 . S
H1379 C1388 0.929 . S
C1380 H1374 0.930 . S
C1380 C1381 1.367 . S
C1380 C1388 1.378 . S
C1381 C1380 1.367 . S
C1381 C1389 1.433 . S
C1382 H1378 0.929 . S
C1382 C1384 1.378 . S
C1382 C1386 1.350 . S
C1383 C1386 1.463 . S
C1383 C1388 1.350 . S
C1383 N1391 1.427 . S
C1384 H1375 0.930 . S
C1384 C1382 1.378 . S
C1384 C1385 1.367 . S
C1385 C1384 1.367 . S
C1385 C1387 1.433 . S
C1386 C1382 1.350 . S
C1386 C1383 1.463 . S
C1386 N1390 1.427 . S
C1387 H1377 0.929 . S
C1387 C1385 1.433 . S
C1387 N1390 1.384 . S
C1388 H1379 0.929 . S
C1388 C1380 1.378 . S
C1388 C1383 1.350 . S
C1389 H1376 0.929 . S
C1389 C1381 1.433 . S
C1389 N1391 1.384 . S
N1390 C1386 1.427 . S
N1390 C1387 1.384 . S
N1391 C1383 1.427 . S
N1391 C1389 1.384 . S
H1392 C1398 0.930 . S
H1393 C1402 0.930 1_455 S
H1394 C1407 0.929 . S
H1395 C1405 0.929 . S
H1396 C1400 0.929 . S
H1397 C1406 0.929 . S
C1398 H1392 0.930 . S
C1398 C1399 1.367 . S
C1398 C1406 1.378 . S
C1399 C1398 1.367 . S
C1399 C1407 1.433 . S
C1400 H1396 0.929 . S
C1400 C1402 1.378 . S
C1400 C1404 1.350 . S
C1401 C1404 1.463 . S
C1401 C1406 1.350 . S
C1401 N1409 1.427 . S
C1402 H1393 0.930 1_655 S
C1402 C1400 1.378 . S
C1402 C1403 1.367 . S
C1403 C1402 1.367 . S
C1403 C1405 1.433 . S
C1404 C1400 1.350 . S
C1404 C1401 1.463 . S
C1404 N1408 1.427 . S
C1405 H1395 0.929 . S
C1405 C1403 1.433 . S
C1405 N1408 1.384 . S
C1406 H1397 0.929 . S
C1406 C1398 1.378 . S
C1406 C1401 1.350 . S
C1407 H1394 0.929 . S
C1407 C1399 1.433 . S
C1407 N1409 1.384 . S
N1408 C1404 1.427 . S
N1408 C1405 1.384 . S
N1409 C1401 1.427 . S
N1409 C1407 1.384 . S
H1410 C1416 0.930 . S
H1411 C1420 0.930 . S
H1412 C1425 0.929 . S
H1413 C1423 0.929 . S
H1414 C1418 0.929 . S
H1415 C1424 0.929 . S
C1416 H1410 0.930 . S
C1416 C1417 1.367 . S
C1416 C1424 1.378 . S
C1417 C1416 1.367 . S
C1417 C1425 1.433 . S
C1418 H1414 0.929 . S
C1418 C1420 1.378 . S
C1418 C1422 1.350 . S
C1419 C1422 1.463 . S
C1419 C1424 1.350 . S
C1419 N1427 1.427 . S
C1420 H1411 0.930 . S
C1420 C1418 1.378 . S
C1420 C1421 1.367 . S
C1421 C1420 1.367 . S
C1421 C1423 1.433 . S
C1422 C1418 1.350 . S
C1422 C1419 1.463 . S
C1422 N1426 1.427 . S
C1423 H1413 0.929 . S
C1423 C1421 1.433 . S
C1423 N1426 1.384 . S
C1424 H1415 0.929 . S
C1424 C1416 1.378 . S
C1424 C1419 1.350 . S
C1425 H1412 0.929 . S
C1425 C1417 1.433 . S
C1425 N1427 1.384 . S
N1426 C1422 1.427 . S
N1426 C1423 1.384 . S
N1427 C1419 1.427 . S
N1427 C1425 1.384 . S
H1428 C1434 0.930 . S
H1429 C1438 0.930 . S
H1430 C1443 0.929 . S
H1431 C1441 0.929 . S
H1432 C1436 0.929 . S
H1433 C1442 0.929 . S
C1434 H1428 0.930 . S
C1434 C1435 1.367 1_565 S
C1434 C1442 1.378 . S
C1435 C1434 1.367 1_545 S
C1435 C1443 1.433 . S
C1436 H1432 0.929 . S
C1436 C1438 1.378 . S
C1436 C1440 1.350 . S
C1437 C1440 1.463 . S
C1437 C1442 1.350 1_545 S
C1437 N1445 1.427 . S
C1438 H1429 0.930 . S
C1438 C1436 1.378 . S
C1438 C1439 1.367 . S
C1439 C1438 1.367 . S
C1439 C1441 1.433 1_545 S
C1440 C1436 1.350 . S
C1440 C1437 1.463 . S
C1440 N1444 1.427 1_545 S
C1441 H1431 0.929 . S
C1441 C1439 1.433 1_565 S
C1441 N1444 1.384 . S
C1442 H1433 0.929 . S
C1442 C1434 1.378 . S
C1442 C1437 1.350 1_565 S
C1443 H1430 0.929 . S
C1443 C1435 1.433 . S
C1443 N1445 1.384 . S
N1444 C1440 1.427 1_565 S
N1444 C1441 1.384 . S
N1445 C1437 1.427 . S
N1445 C1443 1.384 . S
H1446 C1452 0.930 . S
H1447 C1456 0.930 . S
H1448 C1461 0.929 . S
H1449 C1459 0.929 . S
H1450 C1454 0.929 . S
H1451 C1460 0.929 . S
C1452 H1446 0.930 . S
C1452 C1453 1.367 . S
C1452 C1460 1.378 . S
C1453 C1452 1.367 . S
C1453 C1461 1.433 . S
C1454 H1450 0.929 . S
C1454 C1456 1.378 . S
C1454 C1458 1.350 . S
C1455 C1458 1.463 . S
C1455 C1460 1.350 . S
C1455 N1463 1.427 . S
C1456 H1447 0.930 . S
C1456 C1454 1.378 . S
C1456 C1457 1.367 . S
C1457 C1456 1.367 . S
C1457 C1459 1.433 . S
C1458 C1454 1.350 . S
C1458 C1455 1.463 . S
C1458 N1462 1.427 . S
C1459 H1449 0.929 . S
C1459 C1457 1.433 . S
C1459 N1462 1.384 . S
C1460 H1451 0.929 . S
C1460 C1452 1.378 . S
C1460 C1455 1.350 . S
C1461 H1448 0.929 . S
C1461 C1453 1.433 . S
C1461 N1463 1.384 . S
N1462 C1458 1.427 . S
N1462 C1459 1.384 . S
N1463 C1455 1.427 . S
N1463 C1461 1.384 . S
H1464 C1470 0.930 . S
H1465 C1474 0.930 . S
H1466 C1479 0.929 . S
H1467 C1477 0.929 1_565 S
H1468 C1472 0.929 . S
H1469 C1478 0.929 . S
C1470 H1464 0.930 . S
C1470 C1471 1.367 . S
C1470 C1478 1.378 . S
C1471 C1470 1.367 . S
C1471 C1479 1.433 . S
C1472 H1468 0.929 . S
C1472 C1474 1.378 1_655 S
C1472 C1476 1.350 . S
C1473 C1476 1.463 . S
C1473 C1478 1.350 . S
C1473 N1481 1.427 . S
C1474 H1465 0.930 . S
C1474 C1472 1.378 1_455 S
C1474 C1475 1.367 1_455 S
C1475 C1474 1.367 1_655 S
C1475 C1477 1.433 . S
C1476 C1472 1.350 . S
C1476 C1473 1.463 . S
C1476 N1480 1.427 . S
C1477 H1467 0.929 1_545 S
C1477 C1475 1.433 . S
C1477 N1480 1.384 . S
C1478 H1469 0.929 . S
C1478 C1470 1.378 . S
C1478 C1473 1.350 . S
C1479 H1466 0.929 . S
C1479 C1471 1.433 . S
C1479 N1481 1.384 . S
N1480 C1476 1.427 . S
N1480 C1477 1.384 . S
N1481 C1473 1.427 . S
N1481 C1479 1.384 . S
H1482 C1488 0.930 . S
H1483 C1492 0.930 . S
H1484 C1497 0.929 . S
H1485 C1495 0.929 . S
H1486 C1490 0.929 . S
H1487 C1496 0.929 . S
C1488 H1482 0.930 . S
C1488 C1489 1.367 . S
C1488 C1496 1.378 . S
C1489 C1488 1.367 . S
C1489 C1497 1.433 . S
C1490 H1486 0.929 . S
C1490 C1492 1.378 . S
C1490 C1494 1.350 . S
C1491 C1494 1.463 . S
C1491 C1496 1.350 . S
C1491 N1499 1.427 . S
C1492 H1483 0.930 . S
C1492 C1490 1.378 . S
C1492 C1493 1.367 . S
C1493 C1492 1.367 . S
C1493 C1495 1.433 . S
C1494 C1490 1.350 . S
C1494 C1491 1.463 . S
C1494 N1498 1.427 . S
C1495 H1485 0.929 . S
C1495 C1493 1.433 . S
C1495 N1498 1.384 . S
C1496 H1487 0.929 . S
C1496 C1488 1.378 . S
C1496 C1491 1.350 . S
C1497 H1484 0.929 . S
C1497 C1489 1.433 . S
C1497 N1499 1.384 . S
N1498 C1494 1.427 . S
N1498 C1495 1.384 . S
N1499 C1491 1.427 . S
N1499 C1497 1.384 . S
H1500 C1506 0.930 . S
H1501 C1510 0.930 . S
H1502 C1515 0.929 . S
H1503 C1513 0.929 . S
H1504 C1508 0.946 . S
H1505 C1514 0.929 . S
C1506 H1500 0.930 . S
C1506 C1507 1.367 . S
C1506 C1514 1.378 . S
C1507 C1506 1.367 . S
C1507 C1515 1.433 1_545 S
C1508 H1504 0.946 . S
C1508 C1510 1.378 . S
C1508 C1512 1.350 . S
C1509 C1512 1.463 . S
C1509 C1514 1.350 . S
C1509 N1517 1.427 . S
C1510 H1501 0.930 . S
C1510 C1508 1.378 . S
C1510 C1511 1.367 . S
C1511 C1510 1.367 . S
C1511 C1513 1.433 . S
C1512 C1508 1.350 . S
C1512 C1509 1.463 . S
C1512 N1516 1.427 . S
C1513 H1503 0.929 . S
C1513 C1511 1.433 . S
C1513 N1516 1.384 . S
C1514 H1505 0.929 . S
C1514 C1506 1.378 . S
C1514 C1509 1.350 . S
C1515 H1502 0.929 . S
C1515 C1507 1.433 1_565 S
C1515 N1517 1.384 1_565 S
N1516 C1512 1.427 . S
N1516 C1513 1.384 . S
N1517 C1509 1.427 . S
N1517 C1515 1.384 1_545 S
H1518 C1524 0.930 . S
H1519 C1528 0.930 . S
H1520 C1533 0.929 . S
H1521 C1531 0.929 . S
H1522 C1526 0.929 . S
H1523 C1532 0.929 . S
C1524 H1518 0.930 . S
C1524 C1525 1.367 . S
C1524 C1532 1.378 . S
C1525 C1524 1.367 . S
C1525 C1533 1.433 . S
C1526 H1522 0.929 . S
C1526 C1528 1.378 . S
C1526 C1530 1.350 . S
C1527 C1530 1.463 . S
C1527 C1532 1.350 . S
C1527 N1535 1.427 . S
C1528 H1519 0.930 . S
C1528 C1526 1.378 . S
C1528 C1529 1.367 . S
C1529 C1528 1.367 . S
C1529 C1531 1.433 . S
C1530 C1526 1.350 . S
C1530 C1527 1.463 . S
C1530 N1534 1.427 . S
C1531 H1521 0.929 . S
C1531 C1529 1.433 . S
C1531 N1534 1.384 . S
C1532 H1523 0.929 . S
C1532 C1524 1.378 . S
C1532 C1527 1.350 . S
C1533 H1520 0.929 . S
C1533 C1525 1.433 . S
C1533 N1535 1.384 . S
N1534 C1530 1.427 . S
N1534 C1531 1.384 . S
N1535 C1527 1.427 . S
N1535 C1533 1.384 . S
H1536 C1542 0.930 . S
H1537 C1546 0.930 . S
H1538 C1551 0.929 . S
H1539 C1549 0.929 . S
H1540 C1544 0.929 . S
H1541 C1550 0.929 1_545 S
C1542 H1536 0.930 . S
C1542 C1543 1.367 . S
C1542 C1550 1.378 . S
C1543 C1542 1.367 . S
C1543 C1551 1.433 . S
C1544 H1540 0.929 . S
C1544 C1546 1.378 . S
C1544 C1548 1.350 . S
C1545 C1548 1.463 . S
C1545 C1550 1.350 . S
C1545 N1553 1.427 . S
C1546 H1537 0.930 . S
C1546 C1544 1.378 . S
C1546 C1547 1.367 1_565 S
C1547 C1546 1.367 1_545 S
C1547 C1549 1.433 . S
C1548 C1544 1.350 . S
C1548 C1545 1.463 . S
C1548 N1552 1.427 1_565 S
C1549 H1539 0.929 . S
C1549 C1547 1.433 . S
C1549 N1552 1.384 . S
C1550 H1541 0.929 1_565 S
C1550 C1542 1.378 . S
C1550 C1545 1.350 . S
C1551 H1538 0.929 . S
C1551 C1543 1.433 . S
C1551 N1553 1.384 . S
N1552 C1548 1.427 1_545 S
N1552 C1549 1.384 . S
N1553 C1545 1.427 . S
N1553 C1551 1.384 . S
H1554 C1560 0.930 . S
H1555 C1564 0.930 . S
H1556 C1569 0.929 . S
H1557 C1567 0.929 . S
H1558 C1562 0.929 . S
H1559 C1568 0.929 . S
C1560 H1554 0.930 . S
C1560 C1561 1.367 . S
C1560 C1568 1.378 . S
C1561 C1560 1.367 . S
C1561 C1569 1.433 1_554 S
C1562 H1558 0.929 . S
C1562 C1564 1.378 . S
C1562 C1566 1.350 1_556 S
C1563 C1566 1.463 . S
C1563 C1568 1.350 . S
C1563 N1571 1.427 1_554 S
C1564 H1555 0.930 . S
C1564 C1562 1.378 . S
C1564 C1565 1.367 1_556 S
C1565 C1564 1.367 1_554 S
C1565 C1567 1.433 . S
C1566 C1562 1.350 1_554 S
C1566 C1563 1.463 . S
C1566 N1570 1.427 . S
C1567 H1557 0.929 . S
C1567 C1565 1.433 . S
C1567 N1570 1.384 . S
C1568 H1559 0.929 . S
C1568 C1560 1.378 . S
C1568 C1563 1.350 . S
C1569 H1556 0.929 . S
C1569 C1561 1.433 1_556 S
C1569 N1571 1.384 . S
N1570 C1566 1.427 . S
N1570 C1567 1.384 . S
N1571 C1563 1.427 1_556 S
N1571 C1569 1.384 . S
H1572 C1578 0.930 . S
H1573 C1582 0.930 . S
H1574 C1587 0.929 . S
H1575 C1585 0.929 . S
H1576 C1580 0.929 . S
H1577 C1586 0.929 . S
C1578 H1572 0.930 . S
C1578 C1579 1.367 . S
C1578 C1586 1.378 . S
C1579 C1578 1.367 . S
C1579 C1587 1.433 . S
C1580 H1576 0.929 . S
C1580 C1582 1.378 . S
C1580 C1584 1.350 . S
C1581 C1584 1.463 . S
C1581 C1586 1.350 . S
C1581 N1589 1.427 . S
C1582 H1573 0.930 . S
C1582 C1580 1.378 . S
C1582 C1583 1.367 . S
C1583 C1582 1.367 . S
C1583 C1585 1.433 . S
C1584 C1580 1.350 . S
C1584 C1581 1.463 . S
C1584 N1588 1.427 . S
C1585 H1575 0.929 . S
C1585 C1583 1.433 . S
C1585 N1588 1.384 . S
C1586 H1577 0.929 . S
C1586 C1578 1.378 . S
C1586 C1581 1.350 . S
C1587 H1574 0.929 . S
C1587 C1579 1.433 . S
C1587 N1589 1.384 . S
N1588 C1584 1.427 . S
N1588 C1585 1.384 . S
N1589 C1581 1.427 . S
N1589 C1587 1.384 . S
H1590 C1596 0.930 . S
H1591 C1600 0.930 . S
H1592 C1605 0.929 . S
H1593 C1603 0.929 . S
H1594 C1598 0.929 . S
H1595 C1604 0.929 . S
C1596 H1590 0.930 . S
C1596 C1597 1.367 . S
C1596 C1604 1.378 . S
C1597 C1596 1.367 . S
C1597 C1605 1.433 . S
C1598 H1594 0.929 . S
C1598 C1600 1.378 . S
C1598 C1602 1.350 . S
C1599 C1602 1.463 . S
C1599 C1604 1.350 . S
C1599 N1607 1.427 . S
C1600 H1591 0.930 . S
C1600 C1598 1.378 . S
C1600 C1601 1.367 . S
C1601 C1600 1.367 . S
C1601 C1603 1.433 . S
C1602 C1598 1.350 . S
C1602 C1599 1.463 . S
C1602 N1606 1.427 . S
C1603 H1593 0.929 . S
C1603 C1601 1.433 . S
C1603 N1606 1.384 . S
C1604 H1595 0.929 . S
C1604 C1596 1.378 . S
C1604 C1599 1.350 . S
C1605 H1592 0.929 . S
C1605 C1597 1.433 . S
C1605 N1607 1.384 . S
N1606 C1602 1.427 . S
N1606 C1603 1.384 . S
N1607 C1599 1.427 . S
N1607 C1605 1.384 . S
H1608 C1614 0.930 . S
H1609 C1618 0.930 . S
H1610 C1623 0.929 1_545 S
H1611 C1621 0.929 . S
H1612 C1616 0.929 . S
H1613 C1622 0.929 . S
C1614 H1608 0.930 . S
C1614 C1615 1.367 1_565 S
C1614 C1622 1.378 . S
C1615 C1614 1.367 1_545 S
C1615 C1623 1.433 1_545 S
C1616 H1612 0.929 . S
C1616 C1618 1.378 . S
C1616 C1620 1.350 . S
C1617 C1620 1.463 . S
C1617 C1622 1.350 . S
C1617 N1625 1.427 . S
C1618 H1609 0.930 . S
C1618 C1616 1.378 . S
C1618 C1619 1.367 . S
C1619 C1618 1.367 . S
C1619 C1621 1.433 . S
C1620 C1616 1.350 . S
C1620 C1617 1.463 . S
C1620 N1624 1.427 . S
C1621 H1611 0.929 . S
C1621 C1619 1.433 . S
C1621 N1624 1.384 . S
C1622 H1613 0.929 . S
C1622 C1614 1.378 . S
C1622 C1617 1.350 . S
C1623 H1610 0.929 1_565 S
C1623 C1615 1.433 1_565 S
C1623 N1625 1.384 . S
N1624 C1620 1.427 . S
N1624 C1621 1.384 . S
N1625 C1617 1.427 . S
N1625 C1623 1.384 . S
H1626 C1632 0.930 . S
H1627 C1636 0.930 . S
H1628 C1641 0.929 . S
H1629 C1639 0.929 . S
H1630 C1634 0.929 . S
H1631 C1640 0.929 . S
C1632 H1626 0.930 . S
C1632 C1633 1.367 . S
C1632 C1640 1.378 . S
C1633 C1632 1.367 . S
C1633 C1641 1.433 . S
C1634 H1630 0.929 . S
C1634 C1636 1.378 . S
C1634 C1638 1.350 . S
C1635 C1638 1.463 . S
C1635 C1640 1.350 . S
C1635 N1643 1.427 . S
C1636 H1627 0.930 . S
C1636 C1634 1.378 . S
C1636 C1637 1.367 . S
C1637 C1636 1.367 . S
C1637 C1639 1.433 . S
C1638 C1634 1.350 . S
C1638 C1635 1.463 . S
C1638 N1642 1.427 . S
C1639 H1629 0.929 . S
C1639 C1637 1.433 . S
C1639 N1642 1.384 . S
C1640 H1631 0.929 . S
C1640 C1632 1.378 . S
C1640 C1635 1.350 . S
C1641 H1628 0.929 . S
C1641 C1633 1.433 . S
C1641 N1643 1.384 . S
N1642 C1638 1.427 . S
N1642 C1639 1.384 . S
N1643 C1635 1.427 . S
N1643 C1641 1.384 . S
H1644 C1650 0.930 . S
H1645 C1654 0.930 . S
H1646 C1659 0.929 . S
H1647 C1657 0.929 . S
H1648 C1652 0.929 . S
H1649 C1658 0.929 . S
C1650 H1644 0.930 . S
C1650 C1651 1.367 . S
C1650 C1658 1.378 . S
C1651 C1650 1.367 . S
C1651 C1659 1.433 . S
C1652 H1648 0.929 . S
C1652 C1654 1.378 . S
C1652 C1656 1.350 . S
C1653 C1656 1.463 . S
C1653 C1658 1.350 . S
C1653 N1661 1.427 . S
C1654 H1645 0.930 . S
C1654 C1652 1.378 . S
C1654 C1655 1.367 . S
C1655 C1654 1.367 . S
C1655 C1657 1.433 . S
C1656 C1652 1.350 . S
C1656 C1653 1.463 . S
C1656 N1660 1.427 . S
C1657 H1647 0.929 . S
C1657 C1655 1.433 . S
C1657 N1660 1.384 . S
C1658 H1649 0.929 . S
C1658 C1650 1.378 . S
C1658 C1653 1.350 . S
C1659 H1646 0.929 . S
C1659 C1651 1.433 . S
C1659 N1661 1.384 . S
N1660 C1656 1.427 . S
N1660 C1657 1.384 . S
N1661 C1653 1.427 . S
N1661 C1659 1.384 . S
H1662 C1668 0.930 . S
H1663 C1672 0.930 . S
H1664 C1677 0.929 . S
H1665 C1675 0.929 . S
H1666 C1670 0.929 . S
H1667 C1676 0.929 . S
C1668 H1662 0.930 . S
C1668 C1669 1.367 . S
C1668 C1676 1.378 . S
C1669 C1668 1.367 . S
C1669 C1677 1.433 . S
C1670 H1666 0.929 . S
C1670 C1672 1.378 . S
C1670 C1674 1.350 . S
C1671 C1674 1.463 . S
C1671 C1676 1.350 . S
C1671 N1679 1.427 . S
C1672 H1663 0.930 . S
C1672 C1670 1.378 . S
C1672 C1673 1.367 . S
C1673 C1672 1.367 . S
C1673 C1675 1.433 . S
C1674 C1670 1.350 . S
C1674 C1671 1.463 . S
C1674 N1678 1.427 . S
C1675 H1665 0.929 . S
C1675 C1673 1.433 . S
C1675 N1678 1.384 . S
C1676 H1667 0.929 . S
C1676 C1668 1.378 . S
C1676 C1671 1.350 . S
C1677 H1664 0.929 . S
C1677 C1669 1.433 . S
C1677 N1679 1.384 . S
N1678 C1674 1.427 . S
N1678 C1675 1.384 . S
N1679 C1671 1.427 . S
N1679 C1677 1.384 . S
H1680 C1686 0.930 . S
H1681 C1690 0.930 . S
H1682 C1695 0.929 . S
H1683 C1693 0.929 . S
H1684 C1688 0.929 . S
H1685 C1694 0.929 . S
C1686 H1680 0.930 . S
C1686 C1687 1.367 . S
C1686 C1694 1.378 . S
C1687 C1686 1.367 . S
C1687 C1695 1.433 . S
C1688 H1684 0.929 . S
C1688 C1690 1.378 . S
C1688 C1692 1.350 . S
C1689 C1692 1.463 . S
C1689 C1694 1.350 . S
C1689 N1697 1.427 . S
C1690 H1681 0.930 . S
C1690 C1688 1.378 . S
C1690 C1691 1.367 . S
C1691 C1690 1.367 . S
C1691 C1693 1.433 . S
C1692 C1688 1.350 . S
C1692 C1689 1.463 . S
C1692 N1696 1.427 . S
C1693 H1683 0.929 . S
C1693 C1691 1.433 . S
C1693 N1696 1.384 . S
C1694 H1685 0.929 . S
C1694 C1686 1.378 . S
C1694 C1689 1.350 . S
C1695 H1682 0.929 . S
C1695 C1687 1.433 . S
C1695 N1697 1.384 . S
N1696 C1692 1.427 . S
N1696 C1693 1.384 . S
N1697 C1689 1.427 . S
N1697 C1695 1.384 . S
H1698 C1704 0.930 . S
H1699 C1708 0.930 . S
H1700 C1713 0.929 . S
H1701 C1711 0.929 . S
H1702 C1706 0.929 . S
H1703 C1712 0.929 . S
C1704 H1698 0.930 . S
C1704 C1705 1.367 . S
C1704 C1712 1.378 . S
C1705 C1704 1.367 . S
C1705 C1713 1.433 . S
C1706 H1702 0.929 . S
C1706 C1708 1.378 . S
C1706 C1710 1.350 . S
C1707 C1710 1.463 . S
C1707 C1712 1.350 . S
C1707 N1715 1.427 . S
C1708 H1699 0.930 . S
C1708 C1706 1.378 . S
C1708 C1709 1.367 . S
C1709 C1708 1.367 . S
C1709 C1711 1.433 . S
C1710 C1706 1.350 . S
C1710 C1707 1.463 . S
C1710 N1714 1.427 . S
C1711 H1701 0.929 . S
C1711 C1709 1.433 . S
C1711 N1714 1.384 . S
C1712 H1703 0.929 . S
C1712 C1704 1.378 . S
C1712 C1707 1.350 . S
C1713 H1700 0.929 . S
C1713 C1705 1.433 . S
C1713 N1715 1.384 . S
N1714 C1710 1.427 . S
N1714 C1711 1.384 . S
N1715 C1707 1.427 . S
N1715 C1713 1.384 . S
H1716 C1722 0.930 . S
H1717 C1726 0.930 . S
H1718 C1731 0.929 . S
H1719 C1729 0.929 . S
H1720 C1724 0.929 . S
H1721 C1730 0.929 . S
C1722 H1716 0.930 . S
C1722 C1723 1.367 . S
C1722 C1730 1.378 . S
C1723 C1722 1.367 . S
C1723 C1731 1.433 . S
C1724 H1720 0.929 . S
C1724 C1726 1.378 . S
C1724 C1728 1.350 . S
C1725 C1728 1.463 . S
C1725 C1730 1.350 . S
C1725 N1733 1.427 . S
C1726 H1717 0.930 . S
C1726 C1724 1.378 . S
C1726 C1727 1.367 . S
C1727 C1726 1.367 . S
C1727 C1729 1.433 . S
C1728 C1724 1.350 . S
C1728 C1725 1.463 . S
C1728 N1732 1.427 . S
C1729 H1719 0.929 . S
C1729 C1727 1.433 . S
C1729 N1732 1.384 . S
C1730 H1721 0.929 . S
C1730 C1722 1.378 . S
C1730 C1725 1.350 . S
C1731 H1718 0.929 . S
C1731 C1723 1.433 . S
C1731 N1733 1.384 . S
N1732 C1728 1.427 . S
N1732 C1729 1.384 . S
N1733 C1725 1.427 . S
N1733 C1731 1.384 . S
H1734 C1740 0.961 . S
H1735 C1744 0.930 . S
H1736 C1749 0.929 . S
H1737 C1747 0.929 . S
H1738 C1742 0.929 . S
H1739 C1748 0.929 . S
C1740 H1734 0.961 . S
C1740 C1741 1.367 . S
C1740 C1748 1.378 . S
C1741 C1740 1.367 . S
C1741 C1749 1.433 . S
C1742 H1738 0.929 . S
C1742 C1744 1.378 . S
C1742 C1746 1.350 . S
C1743 C1746 1.463 . S
C1743 C1748 1.350 . S
C1743 N1751 1.427 . S
C1744 H1735 0.930 . S
C1744 C1742 1.378 . S
C1744 C1745 1.367 . S
C1745 C1744 1.367 . S
C1745 C1747 1.433 . S
C1746 C1742 1.350 . S
C1746 C1743 1.463 . S
C1746 N1750 1.427 . S
C1747 H1737 0.929 . S
C1747 C1745 1.433 . S
C1747 N1750 1.384 . S
C1748 H1739 0.929 . S
C1748 C1740 1.378 . S
C1748 C1743 1.350 . S
C1749 H1736 0.929 . S
C1749 C1741 1.433 . S
C1749 N1751 1.384 . S
N1750 C1746 1.427 . S
N1750 C1747 1.384 . S
N1751 C1743 1.427 . S
N1751 C1749 1.384 . S
H1752 C1758 0.930 . S
H1753 C1762 0.930 1_554 S
H1754 C1767 0.929 . S
H1755 C1765 0.929 . S
H1756 C1760 0.929 . S
H1757 C1766 0.929 . S
C1758 H1752 0.930 . S
C1758 C1759 1.367 . S
C1758 C1766 1.378 . S
C1759 C1758 1.367 . S
C1759 C1767 1.433 . S
C1760 H1756 0.929 . S
C1760 C1762 1.378 . S
C1760 C1764 1.350 . S
C1761 C1764 1.463 . S
C1761 C1766 1.350 . S
C1761 N1769 1.427 . S
C1762 H1753 0.930 1_556 S
C1762 C1760 1.378 . S
C1762 C1763 1.367 . S
C1763 C1762 1.367 . S
C1763 C1765 1.433 . S
C1764 C1760 1.350 . S
C1764 C1761 1.463 . S
C1764 N1768 1.427 . S
C1765 H1755 0.929 . S
C1765 C1763 1.433 . S
C1765 N1768 1.384 . S
C1766 H1757 0.929 . S
C1766 C1758 1.378 . S
C1766 C1761 1.350 . S
C1767 H1754 0.929 . S
C1767 C1759 1.433 . S
C1767 N1769 1.384 . S
N1768 C1764 1.427 . S
N1768 C1765 1.384 . S
N1769 C1761 1.427 . S
N1769 C1767 1.384 . S
H1770 C1776 0.930 . S
H1771 C1780 0.930 . S
H1772 C1785 0.929 . S
H1773 C1783 0.929 . S
H1774 C1778 0.929 . S
H1775 C1784 0.929 . S
C1776 H1770 0.930 . S
C1776 C1777 1.367 . S
C1776 C1784 1.378 . S
C1777 C1776 1.367 . S
C1777 C1785 1.433 . S
C1778 H1774 0.929 . S
C1778 C1780 1.378 . S
C1778 C1782 1.350 . S
C1779 C1782 1.463 . S
C1779 C1784 1.350 . S
C1779 N1787 1.427 . S
C1780 H1771 0.930 . S
C1780 C1778 1.378 . S
C1780 C1781 1.367 . S
C1781 C1780 1.367 . S
C1781 C1783 1.433 . S
C1782 C1778 1.350 . S
C1782 C1779 1.463 . S
C1782 N1786 1.427 . S
C1783 H1773 0.929 . S
C1783 C1781 1.433 . S
C1783 N1786 1.384 . S
C1784 H1775 0.929 . S
C1784 C1776 1.378 . S
C1784 C1779 1.350 . S
C1785 H1772 0.929 . S
C1785 C1777 1.433 . S
C1785 N1787 1.384 . S
N1786 C1782 1.427 . S
N1786 C1783 1.384 . S
N1787 C1779 1.427 . S
N1787 C1785 1.384 . S
H1788 C1794 0.930 . S
H1789 C1798 0.930 . S
H1790 C1803 0.929 . S
H1791 C1801 0.929 . S
H1792 C1796 0.929 . S
H1793 C1802 0.929 . S
C1794 H1788 0.930 . S
C1794 C1795 1.367 . S
C1794 C1802 1.378 . S
C1795 C1794 1.367 . S
C1795 C1803 1.433 . S
C1796 H1792 0.929 . S
C1796 C1798 1.378 . S
C1796 C1800 1.350 . S
C1797 C1800 1.463 . S
C1797 C1802 1.350 . S
C1797 N1805 1.427 . S
C1798 H1789 0.930 . S
C1798 C1796 1.378 . S
C1798 C1799 1.367 . S
C1799 C1798 1.367 . S
C1799 C1801 1.433 . S
C1800 C1796 1.350 . S
C1800 C1797 1.463 . S
C1800 N1804 1.427 . S
C1801 H1791 0.929 . S
C1801 C1799 1.433 . S
C1801 N1804 1.384 . S
C1802 H1793 0.929 . S
C1802 C1794 1.378 . S
C1802 C1797 1.350 . S
C1803 H1790 0.929 . S
C1803 C1795 1.433 . S
C1803 N1805 1.384 . S
N1804 C1800 1.427 . S
N1804 C1801 1.384 . S
N1805 C1797 1.427 . S
N1805 C1803 1.384 . S
H1806 C1812 0.930 . S
H1807 C1816 0.930 . S
H1808 C1821 0.929 . S
H1809 C1819 0.929 . S
H1810 C1814 0.929 . S
H1811 C1820 0.929 . S
C1812 H1806 0.930 . S
C1812 C1813 1.367 . S
C1812 C1820 1.378 . S
C1813 C1812 1.367 . S
C1813 C1821 1.433 . S
C1814 H1810 0.929 . S
C1814 C1816 1.378 . S
C1814 C1818 1.350 . S
C1815 C1818 1.463 . S
C1815 C1820 1.350 . S
C1815 N1823 1.427 . S
C1816 H1807 0.930 . S
C1816 C1814 1.378 . S
C1816 C1817 1.367 . S
C1817 C1816 1.367 . S
C1817 C1819 1.433 . S
C1818 C1814 1.350 . S
C1818 C1815 1.463 . S
C1818 N1822 1.427 . S
C1819 H1809 0.929 . S
C1819 C1817 1.433 . S
C1819 N1822 1.384 . S
C1820 H1811 0.929 . S
C1820 C1812 1.378 . S
C1820 C1815 1.350 . S
C1821 H1808 0.929 . S
C1821 C1813 1.433 . S
C1821 N1823 1.384 . S
N1822 C1818 1.427 . S
N1822 C1819 1.384 . S
N1823 C1815 1.427 . S
N1823 C1821 1.384 . S
H1824 C1830 0.930 . S
H1825 C1834 0.930 . S
H1826 C1839 0.929 . S
H1827 C1837 0.929 . S
H1828 C1832 0.929 . S
H1829 C1838 0.929 . S
C1830 H1824 0.930 . S
C1830 C1831 1.367 . S
C1830 C1838 1.378 . S
C1831 C1830 1.367 . S
C1831 C1839 1.433 . S
C1832 H1828 0.929 . S
C1832 C1834 1.378 . S
C1832 C1836 1.350 . S
C1833 C1836 1.463 . S
C1833 C1838 1.350 . S
C1833 N1841 1.427 . S
C1834 H1825 0.930 . S
C1834 C1832 1.378 . S
C1834 C1835 1.367 . S
C1835 C1834 1.367 . S
C1835 C1837 1.433 . S
C1836 C1832 1.350 . S
C1836 C1833 1.463 . S
C1836 N1840 1.427 . S
C1837 H1827 0.929 . S
C1837 C1835 1.433 . S
C1837 N1840 1.384 . S
C1838 H1829 0.929 . S
C1838 C1830 1.378 . S
C1838 C1833 1.350 . S
C1839 H1826 0.929 . S
C1839 C1831 1.433 . S
C1839 N1841 1.384 . S
N1840 C1836 1.427 . S
N1840 C1837 1.384 . S
N1841 C1833 1.427 . S
N1841 C1839 1.384 . S
H1842 C1848 0.930 . S
H1843 C1852 0.930 . S
H1844 C1857 0.924 1_554 S
H1845 C1855 0.929 . S
H1846 C1850 0.929 . S
H1847 C1856 0.929 . S
C1848 H1842 0.930 . S
C1848 C1849 1.367 1_556 S
C1848 C1856 1.378 . S
C1849 C1848 1.367 1_554 S
C1849 C1857 1.433 1_554 S
C1850 H1846 0.929 . S
C1850 C1852 1.378 . S
C1850 C1854 1.350 . S
C1851 C1854 1.463 . S
C1851 C1856 1.350 . S
C1851 N1859 1.427 . S
C1852 H1843 0.930 . S
C1852 C1850 1.378 . S
C1852 C1853 1.367 . S
C1853 C1852 1.367 . S
C1853 C1855 1.433 . S
C1854 C1850 1.350 . S
C1854 C1851 1.463 . S
C1854 N1858 1.427 . S
C1855 H1845 0.929 . S
C1855 C1853 1.433 . S
C1855 N1858 1.384 . S
C1856 H1847 0.929 . S
C1856 C1848 1.378 . S
C1856 C1851 1.350 . S
C1857 H1844 0.924 1_556 S
C1857 C1849 1.433 1_556 S
C1857 N1859 1.384 . S
N1858 C1854 1.427 . S
N1858 C1855 1.384 . S
N1859 C1851 1.427 . S
N1859 C1857 1.384 . S
H1860 C1866 0.930 . S
H1861 C1870 0.930 1_455 S
H1862 C1875 0.929 . S
H1863 C1873 0.929 . S
H1864 C1868 0.929 . S
H1865 C1874 0.929 . S
C1866 H1860 0.930 . S
C1866 C1867 1.367 . S
C1866 C1874 1.378 . S
C1867 C1866 1.367 . S
C1867 C1875 1.433 . S
C1868 H1864 0.929 . S
C1868 C1870 1.378 . S
C1868 C1872 1.350 . S
C1869 C1872 1.463 . S
C1869 C1874 1.350 . S
C1869 N1877 1.427 . S
C1870 H1861 0.930 1_655 S
C1870 C1868 1.378 . S
C1870 C1871 1.367 . S
C1871 C1870 1.367 . S
C1871 C1873 1.433 . S
C1872 C1868 1.350 . S
C1872 C1869 1.463 . S
C1872 N1876 1.427 . S
C1873 H1863 0.929 . S
C1873 C1871 1.433 . S
C1873 N1876 1.384 . S
C1874 H1865 0.929 . S
C1874 C1866 1.378 . S
C1874 C1869 1.350 . S
C1875 H1862 0.929 . S
C1875 C1867 1.433 . S
C1875 N1877 1.384 . S
N1876 C1872 1.427 . S
N1876 C1873 1.384 . S
N1877 C1869 1.427 . S
N1877 C1875 1.384 . S
H1878 C1884 0.930 . S
H1879 C1888 0.930 . S
H1880 C1893 0.929 . S
H1881 C1891 0.929 . S
H1882 C1886 0.929 . S
H1883 C1892 0.929 . S
C1884 H1878 0.930 . S
C1884 C1885 1.367 . S
C1884 C1892 1.378 . S
C1885 C1884 1.367 . S
C1885 C1893 1.433 . S
C1886 H1882 0.929 . S
C1886 C1888 1.378 . S
C1886 C1890 1.350 . S
C1887 C1890 1.463 . S
C1887 C1892 1.350 . S
C1887 N1895 1.427 . S
C1888 H1879 0.930 . S
C1888 C1886 1.378 . S
C1888 C1889 1.367 . S
C1889 C1888 1.367 . S
C1889 C1891 1.433 . S
C1890 C1886 1.350 . S
C1890 C1887 1.463 . S
C1890 N1894 1.427 . S
C1891 H1881 0.929 . S
C1891 C1889 1.433 . S
C1891 N1894 1.384 . S
C1892 H1883 0.929 . S
C1892 C1884 1.378 . S
C1892 C1887 1.350 . S
C1893 H1880 0.929 . S
C1893 C1885 1.433 . S
C1893 N1895 1.384 . S
N1894 C1890 1.427 . S
N1894 C1891 1.384 . S
N1895 C1887 1.427 . S
N1895 C1893 1.384 . S
H1896 C1902 0.930 . S
H1897 C1906 0.930 . S
H1898 C1911 0.929 . S
H1899 C1909 0.929 . S
H1900 C1904 0.929 . S
H1901 C1910 0.929 . S
C1902 H1896 0.930 . S
C1902 C1903 1.367 . S
C1902 C1910 1.378 . S
C1903 C1902 1.367 . S
C1903 C1911 1.433 . S
C1904 H1900 0.929 . S
C1904 C1906 1.378 . S
C1904 C1908 1.350 . S
C1905 C1908 1.463 . S
C1905 C1910 1.350 . S
C1905 N1913 1.427 . S
C1906 H1897 0.930 . S
C1906 C1904 1.378 . S
C1906 C1907 1.367 . S
C1907 C1906 1.367 . S
C1907 C1909 1.433 . S
C1908 C1904 1.350 . S
C1908 C1905 1.463 . S
C1908 N1912 1.427 . S
C1909 H1899 0.929 . S
C1909 C1907 1.433 . S
C1909 N1912 1.384 . S
C1910 H1901 0.929 . S
C1910 C1902 1.378 . S
C1910 C1905 1.350 . S
C1911 H1898 0.929 . S
C1911 C1903 1.433 . S
C1911 N1913 1.384 . S
N1912 C1908 1.427 . S
N1912 C1909 1.384 . S
N1913 C1905 1.427 . S
N1913 C1911 1.384 . S
H1914 C1920 0.930 . S
H1915 C1924 0.930 . S
H1916 C1929 0.929 . S
H1917 C1927 0.929 . S
H1918 C1922 0.929 . S
H1919 C1928 0.929 . S
C1920 H1914 0.930 . S
C1920 C1921 1.367 . S
C1920 C1928 1.378 . S
C1921 C1920 1.367 . S
C1921 C1929 1.433 . S
C1922 H1918 0.929 . S
C1922 C1924 1.378 . S
C1922 C1926 1.350 . S
C1923 C1926 1.463 . S
C1923 C1928 1.350 . S
C1923 N1931 1.427 . S
C1924 H1915 0.930 . S
C1924 C1922 1.378 . S
C1924 C1925 1.367 . S
C1925 C1924 1.367 . S
C1925 C1927 1.433 . S
C1926 C1922 1.350 . S
C1926 C1923 1.463 . S
C1926 N1930 1.427 . S
C1927 H1917 0.929 . S
C1927 C1925 1.433 . S
C1927 N1930 1.384 . S
C1928 H1919 0.929 . S
C1928 C1920 1.378 . S
C1928 C1923 1.350 . S
C1929 H1916 0.929 . S
C1929 C1921 1.433 . S
C1929 N1931 1.384 . S
N1930 C1926 1.427 . S
N1930 C1927 1.384 . S
N1931 C1923 1.427 . S
N1931 C1929 1.384 . S
H1932 C1938 0.930 . S
H1933 C1942 0.930 1_455 S
H1934 C1947 0.929 . S
H1935 C1945 0.929 . S
H1936 C1940 0.929 . S
H1937 C1946 0.929 . S
C1938 H1932 0.930 . S
C1938 C1939 1.367 . S
C1938 C1946 1.378 . S
C1939 C1938 1.367 . S
C1939 C1947 1.433 . S
C1940 H1936 0.929 . S
C1940 C1942 1.378 . S
C1940 C1944 1.350 . S
C1941 C1944 1.463 . S
C1941 C1946 1.350 . S
C1941 N1949 1.427 . S
C1942 H1933 0.930 1_655 S
C1942 C1940 1.378 . S
C1942 C1943 1.367 . S
C1943 C1942 1.367 . S
C1943 C1945 1.433 . S
C1944 C1940 1.350 . S
C1944 C1941 1.463 . S
C1944 N1948 1.427 . S
C1945 H1935 0.929 . S
C1945 C1943 1.433 . S
C1945 N1948 1.384 . S
C1946 H1937 0.929 . S
C1946 C1938 1.378 . S
C1946 C1941 1.350 . S
C1947 H1934 0.929 . S
C1947 C1939 1.433 . S
C1947 N1949 1.384 . S
N1948 C1944 1.427 . S
N1948 C1945 1.384 . S
N1949 C1941 1.427 . S
N1949 C1947 1.384 . S
H1950 C1956 0.930 . S
H1951 C1960 0.930 . S
H1952 C1965 0.929 . S
H1953 C1963 0.929 . S
H1954 C1958 0.929 . S
H1955 C1964 0.929 . S
C1956 H1950 0.930 . S
C1956 C1957 1.367 . S
C1956 C1964 1.378 . S
C1957 C1956 1.367 . S
C1957 C1965 1.433 . S
C1958 H1954 0.929 . S
C1958 C1960 1.378 . S
C1958 C1962 1.350 . S
C1959 C1962 1.463 . S
C1959 C1964 1.350 . S
C1959 N1967 1.427 . S
C1960 H1951 0.930 . S
C1960 C1958 1.378 . S
C1960 C1961 1.367 . S
C1961 C1960 1.367 . S
C1961 C1963 1.433 . S
C1962 C1958 1.350 . S
C1962 C1959 1.463 . S
C1962 N1966 1.427 . S
C1963 H1953 0.929 . S
C1963 C1961 1.433 . S
C1963 N1966 1.384 . S
C1964 H1955 0.929 . S
C1964 C1956 1.378 . S
C1964 C1959 1.350 . S
C1965 H1952 0.929 . S
C1965 C1957 1.433 . S
C1965 N1967 1.384 . S
N1966 C1962 1.427 . S
N1966 C1963 1.384 . S
N1967 C1959 1.427 . S
N1967 C1965 1.384 . S
H1968 C1974 0.930 . S
H1969 C1978 0.930 . S
H1970 C1983 0.929 . S
H1971 C1981 0.929 . S
H1972 C1976 0.929 . S
H1973 C1982 0.929 . S
C1974 H1968 0.930 . S
C1974 C1975 1.367 . S
C1974 C1982 1.378 . S
C1975 C1974 1.367 . S
C1975 C1983 1.433 . S
C1976 H1972 0.929 . S
C1976 C1978 1.378 . S
C1976 C1980 1.350 . S
C1977 C1980 1.463 . S
C1977 C1982 1.350 . S
C1977 N1985 1.427 . S
C1978 H1969 0.930 . S
C1978 C1976 1.378 . S
C1978 C1979 1.367 . S
C1979 C1978 1.367 . S
C1979 C1981 1.433 . S
C1980 C1976 1.350 . S
C1980 C1977 1.463 . S
C1980 N1984 1.427 . S
C1981 H1971 0.929 . S
C1981 C1979 1.433 . S
C1981 N1984 1.384 . S
C1982 H1973 0.929 . S
C1982 C1974 1.378 . S
C1982 C1977 1.350 . S
C1983 H1970 0.929 . S
C1983 C1975 1.433 . S
C1983 N1985 1.384 . S
N1984 C1980 1.427 . S
N1984 C1981 1.384 . S
N1985 C1977 1.427 . S
N1985 C1983 1.384 . S
H1986 C1992 0.930 . S
H1987 C1996 0.930 . S
H1988 C2001 0.929 . S
H1989 C1999 0.929 . S
H1990 C1994 0.929 . S
H1991 C2000 0.929 . S
C1992 H1986 0.930 . S
C1992 C1993 1.367 . S
C1992 C2000 1.378 . S
C1993 C1992 1.367 . S
C1993 C2001 1.433 . S
C1994 H1990 0.929 . S
C1994 C1996 1.378 . S
C1994 C1998 1.350 . S
C1995 C1998 1.463 . S
C1995 C2000 1.350 . S
C1995 N2003 1.427 . S
C1996 H1987 0.930 . S
C1996 C1994 1.378 . S
C1996 C1997 1.367 1_565 S
C1997 C1996 1.367 1_545 S
C1997 C1999 1.433 . S
C1998 C1994 1.350 . S
C1998 C1995 1.463 . S
C1998 N2002 1.427 1_565 S
C1999 H1989 0.929 . S
C1999 C1997 1.433 . S
C1999 N2002 1.384 . S
C2000 H1991 0.929 . S
C2000 C1992 1.378 . S
C2000 C1995 1.350 . S
C2001 H1988 0.929 . S
C2001 C1993 1.433 . S
C2001 N2003 1.384 . S
N2002 C1998 1.427 1_545 S
N2002 C1999 1.384 . S
N2003 C1995 1.427 . S
N2003 C2001 1.384 . S
H2004 C2010 0.915 1_545 S
H2005 C2014 0.930 . S
H2006 C2019 0.929 . S
H2007 C2017 0.929 . S
H2008 C2012 0.929 . S
H2009 C2018 0.929 . S
C2010 H2004 0.915 1_565 S
C2010 C2011 1.361 1_565 S
C2010 C2018 1.400 . S
C2011 C2010 1.361 1_545 S
C2011 C2019 1.433 1_545 S
C2012 H2008 0.929 . S
C2012 C2014 1.378 . S
C2012 C2016 1.350 . S
C2013 C2016 1.463 . S
C2013 C2018 1.350 . S
C2013 N2021 1.427 . S
C2014 H2005 0.930 . S
C2014 C2012 1.378 . S
C2014 C2015 1.367 . S
C2015 C2014 1.367 . S
C2015 C2017 1.433 . S
C2016 C2012 1.350 . S
C2016 C2013 1.463 . S
C2016 N2020 1.427 . S
C2017 H2007 0.929 . S
C2017 C2015 1.433 . S
C2017 N2020 1.384 . S
C2018 H2009 0.929 . S
C2018 C2010 1.400 . S
C2018 C2013 1.350 . S
C2019 H2006 0.929 . S
C2019 C2011 1.433 1_565 S
C2019 N2021 1.384 . S
N2020 C2016 1.427 . S
N2020 C2017 1.384 . S
N2021 C2013 1.427 . S
N2021 C2019 1.384 . S
H2022 C2028 0.930 . S
H2023 C2032 0.930 . S
H2024 C2037 0.929 . S
H2025 C2035 0.929 . S
H2026 C2030 0.929 . S
H2027 C2036 0.929 . S
C2028 H2022 0.930 . S
C2028 C2029 1.367 . S
C2028 C2036 1.378 . S
C2029 C2028 1.367 . S
C2029 C2037 1.433 . S
C2030 H2026 0.929 . S
C2030 C2032 1.378 . S
C2030 C2034 1.350 . S
C2031 C2034 1.463 . S
C2031 C2036 1.350 . S
C2031 N2039 1.427 . S
C2032 H2023 0.930 . S
C2032 C2030 1.378 . S
C2032 C2033 1.367 . S
C2033 C2032 1.367 . S
C2033 C2035 1.433 . S
C2034 C2030 1.350 . S
C2034 C2031 1.463 . S
C2034 N2038 1.427 . S
C2035 H2025 0.929 . S
C2035 C2033 1.433 . S
C2035 N2038 1.384 . S
C2036 H2027 0.929 . S
C2036 C2028 1.378 . S
C2036 C2031 1.350 . S
C2037 H2024 0.929 . S
C2037 C2029 1.433 . S
C2037 N2039 1.384 . S
N2038 C2034 1.427 . S
N2038 C2035 1.384 . S
N2039 C2031 1.427 . S
N2039 C2037 1.384 . S
H2040 C2046 0.930 . S
H2041 C2050 0.930 . S
H2042 C2055 0.929 . S
H2043 C2053 0.929 . S
H2044 C2048 0.929 . S
H2045 C2054 0.929 . S
C2046 H2040 0.930 . S
C2046 C2047 1.367 . S
C2046 C2054 1.378 . S
C2047 C2046 1.367 . S
C2047 C2055 1.433 . S
C2048 H2044 0.929 . S
C2048 C2050 1.378 . S
C2048 C2052 1.350 . S
C2049 C2052 1.463 . S
C2049 C2054 1.350 . S
C2049 N2057 1.427 . S
C2050 H2041 0.930 . S
C2050 C2048 1.378 . S
C2050 C2051 1.367 . S
C2051 C2050 1.367 . S
C2051 C2053 1.433 . S
C2052 C2048 1.350 . S
C2052 C2049 1.463 . S
C2052 N2056 1.427 . S
C2053 H2043 0.929 . S
C2053 C2051 1.433 . S
C2053 N2056 1.384 . S
C2054 H2045 0.929 . S
C2054 C2046 1.378 . S
C2054 C2049 1.350 . S
C2055 H2042 0.929 . S
C2055 C2047 1.433 . S
C2055 N2057 1.384 . S
N2056 C2052 1.427 . S
N2056 C2053 1.384 . S
N2057 C2049 1.427 . S
N2057 C2055 1.384 . S
H2058 C2064 0.930 . S
H2059 C2068 0.930 . S
H2060 C2073 0.929 . S
H2061 C2071 0.929 . S
H2062 C2066 0.929 1_556 S
H2063 C2072 0.929 . S
C2064 H2058 0.930 . S
C2064 C2065 1.367 . S
C2064 C2072 1.378 . S
C2065 C2064 1.367 . S
C2065 C2073 1.433 . S
C2066 H2062 0.929 1_554 S
C2066 C2068 1.378 1_554 S
C2066 C2070 1.350 . S
C2067 C2070 1.463 . S
C2067 C2072 1.350 . S
C2067 N2075 1.427 . S
C2068 H2059 0.930 . S
C2068 C2066 1.378 1_556 S
C2068 C2069 1.367 1_556 S
C2069 C2068 1.367 1_554 S
C2069 C2071 1.433 . S
C2070 C2066 1.350 . S
C2070 C2067 1.463 . S
C2070 N2074 1.427 . S
C2071 H2061 0.929 . S
C2071 C2069 1.433 . S
C2071 N2074 1.384 . S
C2072 H2063 0.929 . S
C2072 C2064 1.378 . S
C2072 C2067 1.350 . S
C2073 H2060 0.929 . S
C2073 C2065 1.433 . S
C2073 N2075 1.384 . S
N2074 C2070 1.427 . S
N2074 C2071 1.384 . S
N2075 C2067 1.427 . S
N2075 C2073 1.384 . S
H2076 C2082 0.930 . S
H2077 C2086 0.930 . S
H2078 C2091 0.929 . S
H2079 C2089 0.929 . S
H2080 C2084 0.929 . S
H2081 C2090 0.929 . S
C2082 H2076 0.930 . S
C2082 C2083 1.367 . S
C2082 C2090 1.378 . S
C2083 C2082 1.367 . S
C2083 C2091 1.433 . S
C2084 H2080 0.929 . S
C2084 C2086 1.378 . S
C2084 C2088 1.350 . S
C2085 C2088 1.463 . S
C2085 C2090 1.350 . S
C2085 N2093 1.427 . S
C2086 H2077 0.930 . S
C2086 C2084 1.378 . S
C2086 C2087 1.367 . S
C2087 C2086 1.367 . S
C2087 C2089 1.433 . S
C2088 C2084 1.350 . S
C2088 C2085 1.463 . S
C2088 N2092 1.427 . S
C2089 H2079 0.929 . S
C2089 C2087 1.433 . S
C2089 N2092 1.384 . S
C2090 H2081 0.929 . S
C2090 C2082 1.378 . S
C2090 C2085 1.350 . S
C2091 H2078 0.929 . S
C2091 C2083 1.433 . S
C2091 N2093 1.384 . S
N2092 C2088 1.427 . S
N2092 C2089 1.384 . S
N2093 C2085 1.427 . S
N2093 C2091 1.384 . S
H2094 C2100 0.930 . S
H2095 C2104 0.930 . S
H2096 C2109 0.929 . S
H2097 C2107 0.929 . S
H2098 C2102 0.929 . S
H2099 C2108 0.929 . S
C2100 H2094 0.930 . S
C2100 C2101 1.367 . S
C2100 C2108 1.378 . S
C2101 C2100 1.367 . S
C2101 C2109 1.433 . S
C2102 H2098 0.929 . S
C2102 C2104 1.378 . S
C2102 C2106 1.350 . S
C2103 C2106 1.463 . S
C2103 C2108 1.350 . S
C2103 N2111 1.427 . S
C2104 H2095 0.930 . S
C2104 C2102 1.378 . S
C2104 C2105 1.367 . S
C2105 C2104 1.367 . S
C2105 C2107 1.433 . S
C2106 C2102 1.350 . S
C2106 C2103 1.463 . S
C2106 N2110 1.427 . S
C2107 H2097 0.929 . S
C2107 C2105 1.433 . S
C2107 N2110 1.384 . S
C2108 H2099 0.929 . S
C2108 C2100 1.378 . S
C2108 C2103 1.350 . S
C2109 H2096 0.929 . S
C2109 C2101 1.433 . S
C2109 N2111 1.384 . S
N2110 C2106 1.427 . S
N2110 C2107 1.384 . S
N2111 C2103 1.427 . S
N2111 C2109 1.384 . S
H2112 C2118 0.930 . S
H2113 C2122 0.930 . S
H2114 C2127 0.929 . S
H2115 C2125 0.929 . S
H2116 C2120 0.929 . S
H2117 C2126 0.929 . S
C2118 H2112 0.930 . S
C2118 C2119 1.367 . S
C2118 C2126 1.378 . S
C2119 C2118 1.367 . S
C2119 C2127 1.433 . S
C2120 H2116 0.929 . S
C2120 C2122 1.378 . S
C2120 C2124 1.350 . S
C2121 C2124 1.463 . S
C2121 C2126 1.350 . S
C2121 N2129 1.427 . S
C2122 H2113 0.930 . S
C2122 C2120 1.378 . S
C2122 C2123 1.367 . S
C2123 C2122 1.367 . S
C2123 C2125 1.433 . S
C2124 C2120 1.350 . S
C2124 C2121 1.463 . S
C2124 N2128 1.427 . S
C2125 H2115 0.929 . S
C2125 C2123 1.433 . S
C2125 N2128 1.384 . S
C2126 H2117 0.929 . S
C2126 C2118 1.378 . S
C2126 C2121 1.350 . S
C2127 H2114 0.929 . S
C2127 C2119 1.433 . S
C2127 N2129 1.384 . S
N2128 C2124 1.427 . S
N2128 C2125 1.384 . S
N2129 C2121 1.427 . S
N2129 C2127 1.384 . S
H2130 C2136 0.930 . S
H2131 C2140 0.930 . S
H2132 C2145 0.929 . S
H2133 C2143 0.929 . S
H2134 C2138 0.929 . S
H2135 C2144 0.929 . S
C2136 H2130 0.930 . S
C2136 C2137 1.367 . S
C2136 C2144 1.378 . S
C2137 C2136 1.367 . S
C2137 C2145 1.433 . S
C2138 H2134 0.929 . S
C2138 C2140 1.378 . S
C2138 C2142 1.350 . S
C2139 C2142 1.463 . S
C2139 C2144 1.350 . S
C2139 N2147 1.427 . S
C2140 H2131 0.930 . S
C2140 C2138 1.378 . S
C2140 C2141 1.367 . S
C2141 C2140 1.367 . S
C2141 C2143 1.433 . S
C2142 C2138 1.350 . S
C2142 C2139 1.463 . S
C2142 N2146 1.427 . S
C2143 H2133 0.929 . S
C2143 C2141 1.433 . S
C2143 N2146 1.384 . S
C2144 H2135 0.929 . S
C2144 C2136 1.378 . S
C2144 C2139 1.350 . S
C2145 H2132 0.929 . S
C2145 C2137 1.433 . S
C2145 N2147 1.384 . S
N2146 C2142 1.427 . S
N2146 C2143 1.384 . S
N2147 C2139 1.427 . S
N2147 C2145 1.384 . S
H2148 C2154 0.930 . S
H2149 C2158 0.930 . S
H2150 C2163 0.929 1_655 S
H2151 C2161 0.929 . S
H2152 C2156 0.928 1_554 S
H2153 C2162 0.929 . S
C2154 H2148 0.930 . S
C2154 C2155 1.367 . S
C2154 C2162 1.378 . S
C2155 C2154 1.367 . S
C2155 C2163 1.433 . S
C2156 H2152 0.928 1_556 S
C2156 C2158 1.378 1_556 S
C2156 C2160 1.350 1_655 S
C2157 C2160 1.463 . S
C2157 C2162 1.350 . S
C2157 N2165 1.426 1_455 S
C2158 H2149 0.930 . S
C2158 C2156 1.378 1_554 S
C2158 C2159 1.367 1_654 S
C2159 C2158 1.367 1_456 S
C2159 C2161 1.433 . S
C2160 C2156 1.350 1_455 S
C2160 C2157 1.463 . S
C2160 N2164 1.427 . S
C2161 H2151 0.929 . S
C2161 C2159 1.433 . S
C2161 N2164 1.384 . S
C2162 H2153 0.929 . S
C2162 C2154 1.378 . S
C2162 C2157 1.350 . S
C2163 H2150 0.929 1_455 S
C2163 C2155 1.433 . S
C2163 N2165 1.383 1_455 S
N2164 C2160 1.427 . S
N2164 C2161 1.384 . S
N2165 C2157 1.426 1_655 S
N2165 C2163 1.383 1_655 S
H2166 C2172 0.930 . S
H2167 C2176 0.930 . S
H2168 C2181 0.929 . S
H2169 C2179 0.929 . S
H2170 C2174 0.929 . S
H2171 C2180 0.929 . S
C2172 H2166 0.930 . S
C2172 C2173 1.367 . S
C2172 C2180 1.378 . S
C2173 C2172 1.367 . S
C2173 C2181 1.433 . S
C2174 H2170 0.929 . S
C2174 C2176 1.378 . S
C2174 C2178 1.350 . S
C2175 C2178 1.463 . S
C2175 C2180 1.350 . S
C2175 N2183 1.427 . S
C2176 H2167 0.930 . S
C2176 C2174 1.378 . S
C2176 C2177 1.367 . S
C2177 C2176 1.367 . S
C2177 C2179 1.433 . S
C2178 C2174 1.350 . S
C2178 C2175 1.463 . S
C2178 N2182 1.427 . S
C2179 H2169 0.929 . S
C2179 C2177 1.433 . S
C2179 N2182 1.384 . S
C2180 H2171 0.929 . S
C2180 C2172 1.378 . S
C2180 C2175 1.350 . S
C2181 H2168 0.929 . S
C2181 C2173 1.433 . S
C2181 N2183 1.384 . S
N2182 C2178 1.427 . S
N2182 C2179 1.384 . S
N2183 C2175 1.427 . S
N2183 C2181 1.384 . S
H2184 C2190 0.930 . S
H2185 C2194 0.930 . S
H2186 C2199 0.929 . S
H2187 C2197 0.929 . S
H2188 C2192 0.929 . S
H2189 C2198 0.929 . S
C2190 H2184 0.930 . S
C2190 C2191 1.367 . S
C2190 C2198 1.378 . S
C2191 C2190 1.367 . S
C2191 C2199 1.433 . S
C2192 H2188 0.929 . S
C2192 C2194 1.378 . S
C2192 C2196 1.350 . S
C2193 C2196 1.463 . S
C2193 C2198 1.350 . S
C2193 N2201 1.427 . S
C2194 H2185 0.930 . S
C2194 C2192 1.378 . S
C2194 C2195 1.367 . S
C2195 C2194 1.367 . S
C2195 C2197 1.433 . S
C2196 C2192 1.350 . S
C2196 C2193 1.463 . S
C2196 N2200 1.427 . S
C2197 H2187 0.929 . S
C2197 C2195 1.433 . S
C2197 N2200 1.384 . S
C2198 H2189 0.929 . S
C2198 C2190 1.378 . S
C2198 C2193 1.350 . S
C2199 H2186 0.929 . S
C2199 C2191 1.433 . S
C2199 N2201 1.384 . S
N2200 C2196 1.427 . S
N2200 C2197 1.384 . S
N2201 C2193 1.427 . S
N2201 C2199 1.384 . S
H2202 C2208 0.930 . S
H2203 C2212 0.930 . S
H2204 C2217 0.929 . S
H2205 C2215 0.929 . S
H2206 C2210 0.929 . S
H2207 C2216 0.929 . S
C2208 H2202 0.930 . S
C2208 C2209 1.367 . S
C2208 C2216 1.378 . S
C2209 C2208 1.367 . S
C2209 C2217 1.433 . S
C2210 H2206 0.929 . S
C2210 C2212 1.378 . S
C2210 C2214 1.350 . S
C2211 C2214 1.463 . S
C2211 C2216 1.350 . S
C2211 N2219 1.427 . S
C2212 H2203 0.930 . S
C2212 C2210 1.378 . S
C2212 C2213 1.367 . S
C2213 C2212 1.367 . S
C2213 C2215 1.433 . S
C2214 C2210 1.350 . S
C2214 C2211 1.463 . S
C2214 N2218 1.427 . S
C2215 H2205 0.929 . S
C2215 C2213 1.433 . S
C2215 N2218 1.384 . S
C2216 H2207 0.929 . S
C2216 C2208 1.378 . S
C2216 C2211 1.350 . S
C2217 H2204 0.929 . S
C2217 C2209 1.433 . S
C2217 N2219 1.384 . S
N2218 C2214 1.427 . S
N2218 C2215 1.384 . S
N2219 C2211 1.427 . S
N2219 C2217 1.384 . S
H2220 C2226 0.930 . S
H2221 C2230 0.930 . S
H2222 C2235 0.929 . S
H2223 C2233 0.929 . S
H2224 C2228 0.929 . S
H2225 C2234 0.929 . S
C2226 H2220 0.930 . S
C2226 C2227 1.367 1_455 S
C2226 C2234 1.378 . S
C2227 C2226 1.367 1_655 S
C2227 C2235 1.433 . S
C2228 H2224 0.929 . S
C2228 C2230 1.378 . S
C2228 C2232 1.350 1_655 S
C2229 C2232 1.463 . S
C2229 C2234 1.350 . S
C2229 N2237 1.427 1_455 S
C2230 H2221 0.930 . S
C2230 C2228 1.378 . S
C2230 C2231 1.367 1_655 S
C2231 C2230 1.367 1_455 S
C2231 C2233 1.433 . S
C2232 C2228 1.350 1_455 S
C2232 C2229 1.463 . S
C2232 N2236 1.427 . S
C2233 H2223 0.929 . S
C2233 C2231 1.433 . S
C2233 N2236 1.384 . S
C2234 H2225 0.929 . S
C2234 C2226 1.378 . S
C2234 C2229 1.350 . S
C2235 H2222 0.929 . S
C2235 C2227 1.433 . S
C2235 N2237 1.384 . S
N2236 C2232 1.427 . S
N2236 C2233 1.384 . S
N2237 C2229 1.427 1_655 S
N2237 C2235 1.384 . S
H2238 C2244 0.930 . S
H2239 C2248 0.930 . S
H2240 C2253 0.929 . S
H2241 C2251 0.929 . S
H2242 C2246 0.929 . S
H2243 C2252 0.929 . S
C2244 H2238 0.930 . S
C2244 C2245 1.367 . S
C2244 C2252 1.378 . S
C2245 C2244 1.367 . S
C2245 C2253 1.433 . S
C2246 H2242 0.929 . S
C2246 C2248 1.378 . S
C2246 C2250 1.350 . S
C2247 C2250 1.463 . S
C2247 C2252 1.350 . S
C2247 N2255 1.427 . S
C2248 H2239 0.930 . S
C2248 C2246 1.378 . S
C2248 C2249 1.367 . S
C2249 C2248 1.367 . S
C2249 C2251 1.433 . S
C2250 C2246 1.350 . S
C2250 C2247 1.463 . S
C2250 N2254 1.427 . S
C2251 H2241 0.929 . S
C2251 C2249 1.433 . S
C2251 N2254 1.384 . S
C2252 H2243 0.929 . S
C2252 C2244 1.378 . S
C2252 C2247 1.350 . S
C2253 H2240 0.929 . S
C2253 C2245 1.433 . S
C2253 N2255 1.384 . S
N2254 C2250 1.427 . S
N2254 C2251 1.384 . S
N2255 C2247 1.427 . S
N2255 C2253 1.384 . S
H2256 C2262 0.930 . S
H2257 C2266 0.930 . S
H2258 C2271 0.929 . S
H2259 C2269 0.929 . S
H2260 C2264 0.929 . S
H2261 C2270 0.929 . S
C2262 H2256 0.930 . S
C2262 C2263 1.367 . S
C2262 C2270 1.378 . S
C2263 C2262 1.367 . S
C2263 C2271 1.433 . S
C2264 H2260 0.929 . S
C2264 C2266 1.378 . S
C2264 C2268 1.350 . S
C2265 C2268 1.463 . S
C2265 C2270 1.350 . S
C2265 N2273 1.427 . S
C2266 H2257 0.930 . S
C2266 C2264 1.378 . S
C2266 C2267 1.367 . S
C2267 C2266 1.367 . S
C2267 C2269 1.433 . S
C2268 C2264 1.350 . S
C2268 C2265 1.463 . S
C2268 N2272 1.427 . S
C2269 H2259 0.929 . S
C2269 C2267 1.433 . S
C2269 N2272 1.384 . S
C2270 H2261 0.929 . S
C2270 C2262 1.378 . S
C2270 C2265 1.350 . S
C2271 H2258 0.929 . S
C2271 C2263 1.433 . S
C2271 N2273 1.384 . S
N2272 C2268 1.427 . S
N2272 C2269 1.384 . S
N2273 C2265 1.427 . S
N2273 C2271 1.384 . S
H2274 C2280 0.930 . S
H2275 C2284 0.930 . S
H2276 C2289 0.929 . S
H2277 C2287 0.929 . S
H2278 C2282 0.929 . S
H2279 C2288 0.929 . S
C2280 H2274 0.930 . S
C2280 C2281 1.367 . S
C2280 C2288 1.378 . S
C2281 C2280 1.367 . S
C2281 C2289 1.433 . S
C2282 H2278 0.929 . S
C2282 C2284 1.378 . S
C2282 C2286 1.350 . S
C2283 C2286 1.463 . S
C2283 C2288 1.350 . S
C2283 N2291 1.427 . S
C2284 H2275 0.930 . S
C2284 C2282 1.378 . S
C2284 C2285 1.367 . S
C2285 C2284 1.367 . S
C2285 C2287 1.433 . S
C2286 C2282 1.350 . S
C2286 C2283 1.463 . S
C2286 N2290 1.427 . S
C2287 H2277 0.929 . S
C2287 C2285 1.433 . S
C2287 N2290 1.384 . S
C2288 H2279 0.929 . S
C2288 C2280 1.378 . S
C2288 C2283 1.350 . S
C2289 H2276 0.929 . S
C2289 C2281 1.433 . S
C2289 N2291 1.384 . S
N2290 C2286 1.427 . S
N2290 C2287 1.384 . S
N2291 C2283 1.427 . S
N2291 C2289 1.384 . S
H2292 C2298 0.930 . S
H2293 C2302 0.930 . S
H2294 C2307 0.929 . S
H2295 C2305 0.929 . S
H2296 C2300 0.929 . S
H2297 C2306 0.929 . S
C2298 H2292 0.930 . S
C2298 C2299 1.367 . S
C2298 C2306 1.378 . S
C2299 C2298 1.367 . S
C2299 C2307 1.433 . S
C2300 H2296 0.929 . S
C2300 C2302 1.378 . S
C2300 C2304 1.350 . S
C2301 C2304 1.463 . S
C2301 C2306 1.350 . S
C2301 N2309 1.427 . S
C2302 H2293 0.930 . S
C2302 C2300 1.378 . S
C2302 C2303 1.367 . S
C2303 C2302 1.367 . S
C2303 C2305 1.433 . S
C2304 C2300 1.350 . S
C2304 C2301 1.463 . S
C2304 N2308 1.427 . S
C2305 H2295 0.929 . S
C2305 C2303 1.433 . S
C2305 N2308 1.384 . S
C2306 H2297 0.929 . S
C2306 C2298 1.378 . S
C2306 C2301 1.350 . S
C2307 H2294 0.929 . S
C2307 C2299 1.433 . S
C2307 N2309 1.384 . S
N2308 C2304 1.427 . S
N2308 C2305 1.384 . S
N2309 C2301 1.427 . S
N2309 C2307 1.384 . S
H2310 C2316 0.930 . S
H2311 C2320 0.930 . S
H2312 C2325 0.929 . S
H2313 C2323 0.929 . S
H2314 C2318 0.929 . S
H2315 C2324 0.929 . S
C2316 H2310 0.930 . S
C2316 C2317 1.367 . S
C2316 C2324 1.378 . S
C2317 C2316 1.367 . S
C2317 C2325 1.433 . S
C2318 H2314 0.929 . S
C2318 C2320 1.378 . S
C2318 C2322 1.350 . S
C2319 C2322 1.463 . S
C2319 C2324 1.350 . S
C2319 N2327 1.427 . S
C2320 H2311 0.930 . S
C2320 C2318 1.378 . S
C2320 C2321 1.367 . S
C2321 C2320 1.367 . S
C2321 C2323 1.433 . S
C2322 C2318 1.350 . S
C2322 C2319 1.463 . S
C2322 N2326 1.427 . S
C2323 H2313 0.929 . S
C2323 C2321 1.433 . S
C2323 N2326 1.384 . S
C2324 H2315 0.929 . S
C2324 C2316 1.378 . S
C2324 C2319 1.350 . S
C2325 H2312 0.929 . S
C2325 C2317 1.433 . S
C2325 N2327 1.384 . S
N2326 C2322 1.427 . S
N2326 C2323 1.384 . S
N2327 C2319 1.427 . S
N2327 C2325 1.384 . S
H2328 C2334 0.930 . S
H2329 C2338 0.930 . S
H2330 C2343 0.929 . S
H2331 C2341 0.929 . S
H2332 C2336 0.929 . S
H2333 C2342 0.929 . S
C2334 H2328 0.930 . S
C2334 C2335 1.367 . S
C2334 C2342 1.378 . S
C2335 C2334 1.367 . S
C2335 C2343 1.433 . S
C2336 H2332 0.929 . S
C2336 C2338 1.378 . S
C2336 C2340 1.350 . S
C2337 C2340 1.463 . S
C2337 C2342 1.350 . S
C2337 N2345 1.427 . S
C2338 H2329 0.930 . S
C2338 C2336 1.378 . S
C2338 C2339 1.367 . S
C2339 C2338 1.367 . S
C2339 C2341 1.433 . S
C2340 C2336 1.350 . S
C2340 C2337 1.463 . S
C2340 N2344 1.427 . S
C2341 H2331 0.929 . S
C2341 C2339 1.433 . S
C2341 N2344 1.384 . S
C2342 H2333 0.929 . S
C2342 C2334 1.378 . S
C2342 C2337 1.350 . S
C2343 H2330 0.929 . S
C2343 C2335 1.433 . S
C2343 N2345 1.384 . S
N2344 C2340 1.427 . S
N2344 C2341 1.384 . S
N2345 C2337 1.427 . S
N2345 C2343 1.384 . S
H2346 C2352 0.930 . S
H2347 C2356 0.930 . S
H2348 C2361 0.929 . S
H2349 C2359 0.929 . S
H2350 C2354 0.929 . S
H2351 C2360 0.929 . S
C2352 H2346 0.930 . S
C2352 C2353 1.367 . S
C2352 C2360 1.378 . S
C2353 C2352 1.367 . S
C2353 C2361 1.433 . S
C2354 H2350 0.929 . S
C2354 C2356 1.378 . S
C2354 C2358 1.350 . S
C2355 C2358 1.463 . S
C2355 C2360 1.350 . S
C2355 N2363 1.427 . S
C2356 H2347 0.930 . S
C2356 C2354 1.378 . S
C2356 C2357 1.367 . S
C2357 C2356 1.367 . S
C2357 C2359 1.433 . S
C2358 C2354 1.350 . S
C2358 C2355 1.463 . S
C2358 N2362 1.427 . S
C2359 H2349 0.929 . S
C2359 C2357 1.433 . S
C2359 N2362 1.384 . S
C2360 H2351 0.929 . S
C2360 C2352 1.378 . S
C2360 C2355 1.350 . S
C2361 H2348 0.929 . S
C2361 C2353 1.433 . S
C2361 N2363 1.384 . S
N2362 C2358 1.427 . S
N2362 C2359 1.384 . S
N2363 C2355 1.427 . S
N2363 C2361 1.384 . S
H2364 C2370 0.930 . S
H2365 C2374 0.930 . S
H2366 C2379 0.929 . S
H2367 C2377 0.929 . S
H2368 C2372 0.929 . S
H2369 C2378 0.929 . S
C2370 H2364 0.930 . S
C2370 C2371 1.367 . S
C2370 C2378 1.378 . S
C2371 C2370 1.367 . S
C2371 C2379 1.433 . S
C2372 H2368 0.929 . S
C2372 C2374 1.378 . S
C2372 C2376 1.350 . S
C2373 C2376 1.463 . S
C2373 C2378 1.350 . S
C2373 N2381 1.427 . S
C2374 H2365 0.930 . S
C2374 C2372 1.378 . S
C2374 C2375 1.367 . S
C2375 C2374 1.367 . S
C2375 C2377 1.433 . S
C2376 C2372 1.350 . S
C2376 C2373 1.463 . S
C2376 N2380 1.427 . S
C2377 H2367 0.929 . S
C2377 C2375 1.433 . S
C2377 N2380 1.384 . S
C2378 H2369 0.929 . S
C2378 C2370 1.378 . S
C2378 C2373 1.350 . S
C2379 H2366 0.929 . S
C2379 C2371 1.433 . S
C2379 N2381 1.384 . S
N2380 C2376 1.427 . S
N2380 C2377 1.384 . S
N2381 C2373 1.427 . S
N2381 C2379 1.384 . S
H2382 C2388 0.930 . S
H2383 C2392 0.930 . S
H2384 C2397 0.929 . S
H2385 C2395 0.929 . S
H2386 C2390 0.929 . S
H2387 C2396 0.929 . S
C2388 H2382 0.930 . S
C2388 C2389 1.367 . S
C2388 C2396 1.378 . S
C2389 C2388 1.367 . S
C2389 C2397 1.433 . S
C2390 H2386 0.929 . S
C2390 C2392 1.378 . S
C2390 C2394 1.350 . S
C2391 C2394 1.463 . S
C2391 C2396 1.350 . S
C2391 N2399 1.427 . S
C2392 H2383 0.930 . S
C2392 C2390 1.378 . S
C2392 C2393 1.367 . S
C2393 C2392 1.367 . S
C2393 C2395 1.433 . S
C2394 C2390 1.350 . S
C2394 C2391 1.463 . S
C2394 N2398 1.427 . S
C2395 H2385 0.929 . S
C2395 C2393 1.433 . S
C2395 N2398 1.384 . S
C2396 H2387 0.929 . S
C2396 C2388 1.378 . S
C2396 C2391 1.350 . S
C2397 H2384 0.929 . S
C2397 C2389 1.433 . S
C2397 N2399 1.384 . S
N2398 C2394 1.427 . S
N2398 C2395 1.384 . S
N2399 C2391 1.427 . S
N2399 C2397 1.384 . S
H2400 C2406 0.930 . S
H2401 C2410 0.930 . S
H2402 C2415 0.929 . S
H2403 C2413 0.929 . S
H2404 C2408 0.929 . S
H2405 C2414 0.929 . S
C2406 H2400 0.930 . S
C2406 C2407 1.367 . S
C2406 C2414 1.378 . S
C2407 C2406 1.367 . S
C2407 C2415 1.433 . S
C2408 H2404 0.929 . S
C2408 C2410 1.378 . S
C2408 C2412 1.350 . S
C2409 C2412 1.463 . S
C2409 C2414 1.350 . S
C2409 N2417 1.427 . S
C2410 H2401 0.930 . S
C2410 C2408 1.378 . S
C2410 C2411 1.367 . S
C2411 C2410 1.367 . S
C2411 C2413 1.433 . S
C2412 C2408 1.350 . S
C2412 C2409 1.463 . S
C2412 N2416 1.427 . S
C2413 H2403 0.929 . S
C2413 C2411 1.433 . S
C2413 N2416 1.384 . S
C2414 H2405 0.929 . S
C2414 C2406 1.378 . S
C2414 C2409 1.350 . S
C2415 H2402 0.929 . S
C2415 C2407 1.433 . S
C2415 N2417 1.384 . S
N2416 C2412 1.427 . S
N2416 C2413 1.384 . S
N2417 C2409 1.427 . S
N2417 C2415 1.384 . S
H2418 C2424 0.930 . S
H2419 C2428 0.930 . S
H2420 C2433 0.929 . S
H2421 C2431 0.929 . S
H2422 C2426 0.929 . S
H2423 C2432 0.929 . S
C2424 H2418 0.930 . S
C2424 C2425 1.367 . S
C2424 C2432 1.378 . S
C2425 C2424 1.367 . S
C2425 C2433 1.433 . S
C2426 H2422 0.929 . S
C2426 C2428 1.378 . S
C2426 C2430 1.350 . S
C2427 C2430 1.463 . S
C2427 C2432 1.350 . S
C2427 N2435 1.427 . S
C2428 H2419 0.930 . S
C2428 C2426 1.378 . S
C2428 C2429 1.367 . S
C2429 C2428 1.367 . S
C2429 C2431 1.433 . S
C2430 C2426 1.350 . S
C2430 C2427 1.463 . S
C2430 N2434 1.427 . S
C2431 H2421 0.929 . S
C2431 C2429 1.433 . S
C2431 N2434 1.384 . S
C2432 H2423 0.929 . S
C2432 C2424 1.378 . S
C2432 C2427 1.350 . S
C2433 H2420 0.929 . S
C2433 C2425 1.433 . S
C2433 N2435 1.384 . S
N2434 C2430 1.427 . S
N2434 C2431 1.384 . S
N2435 C2427 1.427 . S
N2435 C2433 1.384 . S
H2436 C2442 0.930 . S
H2437 C2446 0.930 . S
H2438 C2451 0.929 . S
H2439 C2449 0.929 . S
H2440 C2444 0.929 . S
H2441 C2450 0.929 . S
C2442 H2436 0.930 . S
C2442 C2443 1.367 . S
C2442 C2450 1.378 . S
C2443 C2442 1.367 . S
C2443 C2451 1.433 . S
C2444 H2440 0.929 . S
C2444 C2446 1.378 . S
C2444 C2448 1.350 . S
C2445 C2448 1.463 . S
C2445 C2450 1.350 . S
C2445 N2453 1.427 . S
C2446 H2437 0.930 . S
C2446 C2444 1.378 . S
C2446 C2447 1.367 . S
C2447 C2446 1.367 . S
C2447 C2449 1.433 . S
C2448 C2444 1.350 . S
C2448 C2445 1.463 . S
C2448 N2452 1.427 . S
C2449 H2439 0.929 . S
C2449 C2447 1.433 . S
C2449 N2452 1.384 . S
C2450 H2441 0.929 . S
C2450 C2442 1.378 . S
C2450 C2445 1.350 . S
C2451 H2438 0.929 . S
C2451 C2443 1.433 . S
C2451 N2453 1.384 . S
N2452 C2448 1.427 . S
N2452 C2449 1.384 . S
N2453 C2445 1.427 . S
N2453 C2451 1.384 . S
H2454 C2460 0.937 . S
H2455 C2464 0.930 . S
H2456 C2469 0.929 . S
H2457 C2467 0.929 . S
H2458 C2462 0.929 1_545 S
H2459 C2468 0.929 . S
C2460 H2454 0.937 . S
C2460 C2461 1.360 1_556 S
C2460 C2468 1.379 . S
C2461 C2460 1.360 1_554 S
C2461 C2469 1.433 . S
C2462 H2458 0.929 1_565 S
C2462 C2464 1.378 1_565 S
C2462 C2466 1.350 . S
C2463 C2466 1.463 . S
C2463 C2468 1.350 1_554 S
C2463 N2471 1.427 . S
C2464 H2455 0.930 . S
C2464 C2462 1.378 1_545 S
C2464 C2465 1.367 . S
C2465 C2464 1.367 . S
C2465 C2467 1.433 1_544 S
C2466 C2462 1.350 . S
C2466 C2463 1.463 . S
C2466 N2470 1.427 1_554 S
C2467 H2457 0.929 . S
C2467 C2465 1.433 1_566 S
C2467 N2470 1.384 . S
C2468 H2459 0.929 . S
C2468 C2460 1.379 . S
C2468 C2463 1.350 1_556 S
C2469 H2456 0.929 . S
C2469 C2461 1.433 . S
C2469 N2471 1.384 . S
N2470 C2466 1.427 1_556 S
N2470 C2467 1.384 . S
N2471 C2463 1.427 . S
N2471 C2469 1.384 . S
H2472 C2478 0.930 . S
H2473 C2482 0.930 . S
H2474 C2487 0.929 . S
H2475 C2485 0.929 . S
H2476 C2480 0.929 . S
H2477 C2486 0.929 . S
C2478 H2472 0.930 . S
C2478 C2479 1.367 . S
C2478 C2486 1.378 . S
C2479 C2478 1.367 . S
C2479 C2487 1.433 . S
C2480 H2476 0.929 . S
C2480 C2482 1.378 . S
C2480 C2484 1.350 . S
C2481 C2484 1.463 . S
C2481 C2486 1.350 . S
C2481 N2489 1.427 . S
C2482 H2473 0.930 . S
C2482 C2480 1.378 . S
C2482 C2483 1.367 . S
C2483 C2482 1.367 . S
C2483 C2485 1.433 . S
C2484 C2480 1.350 . S
C2484 C2481 1.463 . S
C2484 N2488 1.427 . S
C2485 H2475 0.929 . S
C2485 C2483 1.433 . S
C2485 N2488 1.384 . S
C2486 H2477 0.929 . S
C2486 C2478 1.378 . S
C2486 C2481 1.350 . S
C2487 H2474 0.929 . S
C2487 C2479 1.433 . S
C2487 N2489 1.384 . S
N2488 C2484 1.427 . S
N2488 C2485 1.384 . S
N2489 C2481 1.427 . S
N2489 C2487 1.384 . S
H2490 C2496 0.930 . S
H2491 C2500 0.930 . S
H2492 C2505 0.929 . S
H2493 C2503 0.929 . S
H2494 C2498 0.929 . S
H2495 C2504 0.929 . S
C2496 H2490 0.930 . S
C2496 C2497 1.367 1_556 S
C2496 C2504 1.378 . S
C2497 C2496 1.367 1_554 S
C2497 C2505 1.433 . S
C2498 H2494 0.929 . S
C2498 C2500 1.378 . S
C2498 C2502 1.350 . S
C2499 C2502 1.463 . S
C2499 C2504 1.350 1_554 S
C2499 N2507 1.427 . S
C2500 H2491 0.930 . S
C2500 C2498 1.378 . S
C2500 C2501 1.367 . S
C2501 C2500 1.367 . S
C2501 C2503 1.433 . S
C2502 C2498 1.350 . S
C2502 C2499 1.463 . S
C2502 N2506 1.427 . S
C2503 H2493 0.929 . S
C2503 C2501 1.433 . S
C2503 N2506 1.384 . S
C2504 H2495 0.929 . S
C2504 C2496 1.378 . S
C2504 C2499 1.350 1_556 S
C2505 H2492 0.929 . S
C2505 C2497 1.433 . S
C2505 N2507 1.384 . S
N2506 C2502 1.427 . S
N2506 C2503 1.384 . S
N2507 C2499 1.427 . S
N2507 C2505 1.384 . S
H2508 C2514 0.930 . S
H2509 C2518 0.930 . S
H2510 C2523 0.929 . S
H2511 C2521 0.929 . S
H2512 C2516 0.929 . S
H2513 C2522 0.929 . S
C2514 H2508 0.930 . S
C2514 C2515 1.367 . S
C2514 C2522 1.378 . S
C2515 C2514 1.367 . S
C2515 C2523 1.433 . S
C2516 H2512 0.929 . S
C2516 C2518 1.378 . S
C2516 C2520 1.350 . S
C2517 C2520 1.463 . S
C2517 C2522 1.350 . S
C2517 N2525 1.427 . S
C2518 H2509 0.930 . S
C2518 C2516 1.378 . S
C2518 C2519 1.367 . S
C2519 C2518 1.367 . S
C2519 C2521 1.433 . S
C2520 C2516 1.350 . S
C2520 C2517 1.463 . S
C2520 N2524 1.427 . S
C2521 H2511 0.929 . S
C2521 C2519 1.433 . S
C2521 N2524 1.384 . S
C2522 H2513 0.929 . S
C2522 C2514 1.378 . S
C2522 C2517 1.350 . S
C2523 H2510 0.929 . S
C2523 C2515 1.433 . S
C2523 N2525 1.384 . S
N2524 C2520 1.427 . S
N2524 C2521 1.384 . S
N2525 C2517 1.427 . S
N2525 C2523 1.384 . S
H2526 C2532 0.930 . S
H2527 C2536 0.930 . S
H2528 C2541 0.929 . S
H2529 C2539 0.929 . S
H2530 C2534 0.929 . S
H2531 C2540 0.929 . S
C2532 H2526 0.930 . S
C2532 C2533 1.367 . S
C2532 C2540 1.378 . S
C2533 C2532 1.367 . S
C2533 C2541 1.433 . S
C2534 H2530 0.929 . S
C2534 C2536 1.378 . S
C2534 C2538 1.350 . S
C2535 C2538 1.463 . S
C2535 C2540 1.350 . S
C2535 N2543 1.427 . S
C2536 H2527 0.930 . S
C2536 C2534 1.378 . S
C2536 C2537 1.367 . S
C2537 C2536 1.367 . S
C2537 C2539 1.433 . S
C2538 C2534 1.350 . S
C2538 C2535 1.463 . S
C2538 N2542 1.427 . S
C2539 H2529 0.929 . S
C2539 C2537 1.433 . S
C2539 N2542 1.384 . S
C2540 H2531 0.929 . S
C2540 C2532 1.378 . S
C2540 C2535 1.350 . S
C2541 H2528 0.929 . S
C2541 C2533 1.433 . S
C2541 N2543 1.384 . S
N2542 C2538 1.427 . S
N2542 C2539 1.384 . S
N2543 C2535 1.427 . S
N2543 C2541 1.384 . S
C827 C337 1.708 . S
C823 C4 1.682 . S
C841 C19 0.815 . S
C845 C382 0.878 . S
C859 C39 1.553 . S
C863 C406 1.538 . S
C881 N432 0.969 . S
C877 C54 0.968 . S
C895 C18 0.984 . S
C899 N462 1.039 . S
C917 C496 1.539 . S
C913 C40 1.562 . S
C935 C532 1.012 . S
C931 C53 1.000 . S
C949 C5 1.366 . S
C953 C556 1.644 . S
C967 C61 0.781 1_545 S
C971 N350 0.824 . S
C985 C74 1.039 . S
C989 N372 1.093 . S
C1007 C412 0.802 . S
C1003 C89 0.763 . S
C1025 C436 1.691 . S
C1021 C109 1.719 . S
C1039 C68 1.064 . S
C1043 C466 1.033 . S
C1061 C502 1.039 . S
C1057 C81 1.020 . S
C1079 N522 0.979 . S
C1075 C96 0.979 . S
C1097 C562 1.735 . S
C1093 C102 1.699 . S
C1115 C363 1.542 . S
C1111 C103 1.256 . S
C1133 C592 0.909 . S
C1129 C117 0.820 . S
C1147 C130 1.042 . S
C1151 N612 1.080 . S
C1169 C646 1.531 . S
C1165 C152 1.552 . S
C1183 C60 0.914 . S
C1187 N552 0.936 . S
C1205 N402 0.972 . S
C1201 C82 0.968 . S
C1219 C137 0.886 . S
C1223 C682 0.901 . S
C1241 C706 0.903 . S
C1237 C165 0.929 . S
C1255 C172 1.744 . S
C1259 C346 1.746 1_556 S
C1277 C723 0.928 . S
C1273 C194 0.935 . S
C1291 C207 1.558 . S
C1295 C397 1.552 . S
C1309 C215 0.930 . S
C1313 N680 0.978 . S
C1331 N470 1.094 . S
C1327 C186 1.087 1_455 S
C1349 C607 1.540 . S
C1345 C201 1.343 . S
C1367 C543 1.008 . S
C1363 C221 1.009 . S
C1385 C727 1.680 . S
C1381 C180 1.707 . S
C1403 N342 0.876 . S
C1399 C236 0.877 . S
C1417 C242 1.154 . S
C1421 N710 1.153 . S
C1439 C423 0.918 . S
C1435 C264 0.929 . S
C1453 C277 1.757 . S
C1457 C667 1.748 . S
C1471 C229 0.932 . S
C1475 C457 0.978 1_655 S
C1489 C249 1.007 . S
C1493 C633 1.005 . S
C1511 N530 0.983 . S
C1507 C257 0.957 . S
C1525 C270 1.749 . S
C1529 C753 1.750 . S
C1543 C278 1.578 . S
C1547 C352 1.564 . S
C1561 C292 0.977 . S
C1565 C603 0.969 . S
C1579 C298 1.174 . S
C1583 N500 1.178 . S
C1597 C313 1.405 . S
C1601 C637 1.568 . S
C1619 N740 0.947 . S
C1615 C228 0.937 . S
C1637 N410 0.937 . S
C1633 C243 0.900 . S
C1655 C453 0.915 . S
C1651 C305 0.915 . S
C1673 C367 0.851 . S
C1669 C333 0.852 . S
C1687 C32 1.678 . S
C1691 C757 1.709 . S
C1709 C712 0.881 . S
C1705 C47 0.827 . S
C1727 C796 1.539 . S
C1723 C11 1.552 . S
C1741 C26 0.964 1_655 S
C1745 N672 0.970 . S
C1759 C46 0.989 . S
C1763 N582 1.038 . S
C1781 C616 1.536 . S
C1777 C12 1.559 . S
C1799 C652 1.004 . S
C1795 C25 0.994 . S
C1817 C736 1.645 . S
C1813 C33 1.369 . S
C1835 N770 0.819 . S
C1831 C159 0.805 . S
C1849 C116 1.034 . S
C1853 N702 1.093 . S
C1867 C131 0.801 . S
C1871 C802 0.813 1_655 S
C1889 C676 1.691 . S
C1885 C151 1.719 . S
C1907 C586 1.046 . S
C1903 C166 1.068 . S
C1921 C123 1.022 . S
C1925 C622 1.041 . S
C1943 N642 0.978 . S
C1939 C138 0.977 . S
C1957 C144 1.709 . S
C1961 C742 1.741 . S
C1979 C783 1.550 . S
C1975 C145 1.285 . S
C1997 C472 0.911 . S
C1993 C75 0.822 . S
C2015 N492 1.078 . S
C2011 C88 1.017 . S
C2029 C110 1.553 . S
C2033 C526 1.532 . S
C2051 N732 0.934 . S
C2047 C158 0.912 . S
C2065 C124 0.969 . S
C2069 N792 0.968 . S
C2087 C442 0.891 . S
C2083 C95 0.899 . S
C2105 C376 0.912 . S
C2101 C67 0.928 . S
C2119 C200 1.747 . S
C2123 C766 1.746 . S
C2141 C393 0.935 . S
C2137 C222 0.935 . S
C2159 C787 1.553 1_556 S
C2155 C179 1.559 . S
C2173 C187 0.901 . S
C2177 N440 0.980 . S
C2191 C214 1.092 . S
C2195 N590 1.093 . S
C2209 C173 1.363 . S
C2213 C487 1.533 . S
C2227 C193 1.016 . S
C2231 C663 1.016 . S
C2245 C208 1.705 . S
C2249 C547 1.675 . S
C2267 N762 0.880 . S
C2263 C334 0.875 . S
C2281 C284 1.155 . S
C2285 N380 1.148 . S
C2303 C813 0.929 . S
C2299 C306 0.931 . S
C2317 C319 1.758 . S
C2321 C427 1.750 . S
C2335 C327 0.894 . S
C2339 C577 0.993 . S
C2357 C513 1.012 . S
C2353 C291 1.016 . S
C2371 C299 0.922 . S
C2375 N650 0.985 . S
C2393 C573 1.753 . S
C2389 C312 1.748 . S
C2411 C772 1.567 . S
C2407 C320 1.579 . S
C2429 C483 0.962 . S
C2425 C250 0.973 . S
C2443 C256 1.176 . S
C2447 N620 1.177 . S
C2465 C517 1.568 . S
C2461 C271 1.405 . S
C2483 N560 0.957 . S
C2479 C326 0.948 . S
C2497 C285 0.862 1_554 S
C2501 N800 0.942 . S
C2519 C693 0.915 . S
C2515 C263 0.915 . S
C2537 C697 0.871 . S
C2533 C235 0.872 . S
