# Generated by pormake.
# Topology eea, (3,6)-cn, num edge types: 1
# Building blocks:
#     Node 0, Type 0, BuildingBlock: WUSLED_clean_sbu_0, # of connection points: 3
#     Node 1, Type 0, BuildingBlock: WUSLED_clean_sbu_0, # of connection points: 3
#     Node 2, Type 0, BuildingBlock: WUSLED_clean_sbu_0, # of connection points: 3
#     Node 3, Type 0, BuildingBlock: WUSLED_clean_sbu_0, # of connection points: 3
#     Node 4, Type 0, BuildingBlock: WUSLED_clean_sbu_0, # of connection points: 3
#     Node 5, Type 0, BuildingBlock: WUSLED_clean_sbu_0, # of connection points: 3
#     Node 6, Type 0, BuildingBlock: WUSLED_clean_sbu_0, # of connection points: 3
#     Node 7, Type 0, BuildingBlock: WUSLED_clean_sbu_0, # of connection points: 3
#     Node 8, Type 0, BuildingBlock: WUSLED_clean_sbu_0, # of connection points: 3
#     Node 9, Type 0, BuildingBlock: WUSLED_clean_sbu_0, # of connection points: 3
#     Node 10, Type 0, BuildingBlock: WUSLED_clean_sbu_0, # of connection points: 3
#     Node 11, Type 0, BuildingBlock: WUSLED_clean_sbu_0, # of connection points: 3
#     Node 12, Type 0, BuildingBlock: WUSLED_clean_sbu_0, # of connection points: 3
#     Node 13, Type 0, BuildingBlock: WUSLED_clean_sbu_0, # of connection points: 3
#     Node 14, Type 0, BuildingBlock: WUSLED_clean_sbu_0, # of connection points: 3
#     Node 15, Type 0, BuildingBlock: WUSLED_clean_sbu_0, # of connection points: 3
#     Node 16, Type 0, BuildingBlock: WUSLED_clean_sbu_0, # of connection points: 3
#     Node 17, Type 0, BuildingBlock: WUSLED_clean_sbu_0, # of connection points: 3
#     Node 18, Type 1, BuildingBlock: NUHQIS_clean_sbu_0, # of connection points: 6
#     Node 19, Type 1, BuildingBlock: NUHQIS_clean_sbu_0, # of connection points: 6
#     Node 20, Type 1, BuildingBlock: NUHQIS_clean_sbu_0, # of connection points: 6
#     Node 21, Type 1, BuildingBlock: NUHQIS_clean_sbu_0, # of connection points: 6
#     Node 22, Type 1, BuildingBlock: NUHQIS_clean_sbu_0, # of connection points: 6
#     Node 23, Type 1, BuildingBlock: NUHQIS_clean_sbu_0, # of connection points: 6
#     Node 24, Type 1, BuildingBlock: NUHQIS_clean_sbu_0, # of connection points: 6
#     Node 25, Type 1, BuildingBlock: NUHQIS_clean_sbu_0, # of connection points: 6
#     Node 26, Type 1, BuildingBlock: NUHQIS_clean_sbu_0, # of connection points: 6
#     Edge 27, Type (0, 1), BuildingBlock: KIFKEQ_clean_linker_1, # of connection points: 2
#     Edge 28, Type (0, 1), BuildingBlock: KIFKEQ_clean_linker_1, # of connection points: 2
#     Edge 29, Type (0, 1), BuildingBlock: KIFKEQ_clean_linker_1, # of connection points: 2
#     Edge 30, Type (0, 1), BuildingBlock: KIFKEQ_clean_linker_1, # of connection points: 2
#     Edge 31, Type (0, 1), BuildingBlock: KIFKEQ_clean_linker_1, # of connection points: 2
#     Edge 32, Type (0, 1), BuildingBlock: KIFKEQ_clean_linker_1, # of connection points: 2
#     Edge 33, Type (0, 1), BuildingBlock: KIFKEQ_clean_linker_1, # of connection points: 2
#     Edge 34, Type (0, 1), BuildingBlock: KIFKEQ_clean_linker_1, # of connection points: 2
#     Edge 35, Type (0, 1), BuildingBlock: KIFKEQ_clean_linker_1, # of connection points: 2
#     Edge 36, Type (0, 1), BuildingBlock: KIFKEQ_clean_linker_1, # of connection points: 2
#     Edge 37, Type (0, 1), BuildingBlock: KIFKEQ_clean_linker_1, # of connection points: 2
#     Edge 38, Type (0, 1), BuildingBlock: KIFKEQ_clean_linker_1, # of connection points: 2
#     Edge 39, Type (0, 1), BuildingBlock: KIFKEQ_clean_linker_1, # of connection points: 2
#     Edge 40, Type (0, 1), BuildingBlock: KIFKEQ_clean_linker_1, # of connection points: 2
#     Edge 41, Type (0, 1), BuildingBlock: KIFKEQ_clean_linker_1, # of connection points: 2
#     Edge 42, Type (0, 1), BuildingBlock: KIFKEQ_clean_linker_1, # of connection points: 2
#     Edge 43, Type (0, 1), BuildingBlock: KIFKEQ_clean_linker_1, # of connection points: 2
#     Edge 44, Type (0, 1), BuildingBlock: KIFKEQ_clean_linker_1, # of connection points: 2
#     Edge 45, Type (0, 1), BuildingBlock: KIFKEQ_clean_linker_1, # of connection points: 2
#     Edge 46, Type (0, 1), BuildingBlock: KIFKEQ_clean_linker_1, # of connection points: 2
#     Edge 47, Type (0, 1), BuildingBlock: KIFKEQ_clean_linker_1, # of connection points: 2
#     Edge 48, Type (0, 1), BuildingBlock: KIFKEQ_clean_linker_1, # of connection points: 2
#     Edge 49, Type (0, 1), BuildingBlock: KIFKEQ_clean_linker_1, # of connection points: 2
#     Edge 50, Type (0, 1), BuildingBlock: KIFKEQ_clean_linker_1, # of connection points: 2
#     Edge 51, Type (0, 1), BuildingBlock: KIFKEQ_clean_linker_1, # of connection points: 2
#     Edge 52, Type (0, 1), BuildingBlock: KIFKEQ_clean_linker_1, # of connection points: 2
#     Edge 53, Type (0, 1), BuildingBlock: KIFKEQ_clean_linker_1, # of connection points: 2
#     Edge 54, Type (0, 1), BuildingBlock: KIFKEQ_clean_linker_1, # of connection points: 2
#     Edge 55, Type (0, 1), BuildingBlock: KIFKEQ_clean_linker_1, # of connection points: 2
#     Edge 56, Type (0, 1), BuildingBlock: KIFKEQ_clean_linker_1, # of connection points: 2
#     Edge 57, Type (0, 1), BuildingBlock: KIFKEQ_clean_linker_1, # of connection points: 2
#     Edge 58, Type (0, 1), BuildingBlock: KIFKEQ_clean_linker_1, # of connection points: 2
#     Edge 59, Type (0, 1), BuildingBlock: KIFKEQ_clean_linker_1, # of connection points: 2
#     Edge 60, Type (0, 1), BuildingBlock: KIFKEQ_clean_linker_1, # of connection points: 2
#     Edge 61, Type (0, 1), BuildingBlock: KIFKEQ_clean_linker_1, # of connection points: 2
#     Edge 62, Type (0, 1), BuildingBlock: KIFKEQ_clean_linker_1, # of connection points: 2
#     Edge 63, Type (0, 1), BuildingBlock: KIFKEQ_clean_linker_1, # of connection points: 2
#     Edge 64, Type (0, 1), BuildingBlock: KIFKEQ_clean_linker_1, # of connection points: 2
#     Edge 65, Type (0, 1), BuildingBlock: KIFKEQ_clean_linker_1, # of connection points: 2
#     Edge 66, Type (0, 1), BuildingBlock: KIFKEQ_clean_linker_1, # of connection points: 2
#     Edge 67, Type (0, 1), BuildingBlock: KIFKEQ_clean_linker_1, # of connection points: 2
#     Edge 68, Type (0, 1), BuildingBlock: KIFKEQ_clean_linker_1, # of connection points: 2
#     Edge 69, Type (0, 1), BuildingBlock: KIFKEQ_clean_linker_1, # of connection points: 2
#     Edge 70, Type (0, 1), BuildingBlock: KIFKEQ_clean_linker_1, # of connection points: 2
#     Edge 71, Type (0, 1), BuildingBlock: KIFKEQ_clean_linker_1, # of connection points: 2
#     Edge 72, Type (0, 1), BuildingBlock: KIFKEQ_clean_linker_1, # of connection points: 2
#     Edge 73, Type (0, 1), BuildingBlock: KIFKEQ_clean_linker_1, # of connection points: 2
#     Edge 74, Type (0, 1), BuildingBlock: KIFKEQ_clean_linker_1, # of connection points: 2
#     Edge 75, Type (0, 1), BuildingBlock: KIFKEQ_clean_linker_1, # of connection points: 2
#     Edge 76, Type (0, 1), BuildingBlock: KIFKEQ_clean_linker_1, # of connection points: 2
#     Edge 77, Type (0, 1), BuildingBlock: KIFKEQ_clean_linker_1, # of connection points: 2
#     Edge 78, Type (0, 1), BuildingBlock: KIFKEQ_clean_linker_1, # of connection points: 2
#     Edge 79, Type (0, 1), BuildingBlock: KIFKEQ_clean_linker_1, # of connection points: 2
#     Edge 80, Type (0, 1), BuildingBlock: KIFKEQ_clean_linker_1, # of connection points: 2
# Relax obj value: 0.035
# Max RMSD: 0.128
# Mean RMSD: 0.075
data_MOF--net-eea--node1-WUSLED_clean_sbu_0--node2-NUHQIS_clean_sbu_0--edge1-KIFKEQ_clean_linker_1
_symmetry_space_group_name_H-M    P1
_symmetry_Int_Tables_number       1
_symmetry_cell_setting            triclinic
loop_
_symmetry_equiv_pos_as_xyz
'x, y, z'
_cell_length_a     67.896019
_cell_length_b     68.201792
_cell_length_c     92.465512
_cell_angle_alpha  92.771023
_cell_angle_beta   93.990118
_cell_angle_gamma 120.03877
loop_
_atom_site_label
_atom_site_type_symbol
_atom_site_fract_x
_atom_site_fract_y
_atom_site_fract_z
_atom_type_partial_charge
C0 C 0.24397 0.1623 0.40872 0.0
C1 C 0.23213 0.1704 0.41664 0.0
C2 C 0.23332 0.19397 0.39743 0.0
C3 C 0.22673 0.18596 0.41101 0.0
C4 C 0.24545 0.18612 0.3896 0.0
C5 C 0.25062 0.17032 0.39518 0.0
U6 U 0.26645 0.14207 0.4399 0.0
O7 O 0.25296 0.10808 0.44751 0.0
O8 O 0.28736 0.12573 0.44032 0.0
C9 C 0.27093 0.10678 0.44451 0.0
C10 C 0.2496 0.14569 0.41447 0.0
C11 C 0.26569 0.08566 0.43607 0.0
C12 C 0.25531 0.06223 0.4131 0.0
C13 C 0.26128 0.08293 0.42084 0.0
C14 C 0.25813 0.04692 0.43576 0.0
C15 C 0.25353 0.04392 0.42049 0.0
C16 C 0.26418 0.06761 0.44346 0.0
C17 C 0.28704 0.17585 0.47678 0.0
C18 C 0.29435 0.1593 0.49767 0.0
C19 C 0.30488 0.19901 0.49978 0.0
C20 C 0.29653 0.1968 0.48517 0.0
C21 C 0.30381 0.18025 0.50622 0.0
C22 C 0.28612 0.15715 0.48307 0.0
C23 C 0.27813 0.1735 0.46148 0.0
O24 O 0.27151 0.15316 0.41777 0.0
O25 O 0.23681 0.13341 0.42427 0.0
O26 O 0.25702 0.15671 0.45796 0.0
O27 O 0.2921 0.17478 0.45193 0.0
H28 H 0.22703 0.16474 0.42721 0.0
H29 H 0.21767 0.19199 0.41737 0.0
H30 H 0.25066 0.19197 0.37909 0.0
H31 H 0.25982 0.16434 0.38891 0.0
H32 H 0.25212 0.06059 0.40134 0.0
H33 H 0.26227 0.09671 0.41497 0.0
H34 H 0.25651 0.0331 0.44184 0.0
H35 H 0.26734 0.0694 0.45524 0.0
H36 H 0.29294 0.14443 0.50231 0.0
H37 H 0.31236 0.21546 0.50598 0.0
H38 H 0.29749 0.21143 0.48043 0.0
H39 H 0.27888 0.14084 0.47671 0.0
C40 C 0.95003 0.17341 0.41805 0.0
C41 C 0.97017 0.18679 0.42749 0.0
C42 C 0.9907 0.20554 0.40704 0.0
C43 C 0.99031 0.20266 0.42203 0.0
C44 C 0.97029 0.19243 0.39772 0.0
C45 C 0.95022 0.17653 0.40317 0.0
U46 U 0.90682 0.14779 0.44647 0.0
O47 O 0.86916 0.1273 0.44284 0.0
O48 O 0.88882 0.11277 0.4526 0.0
C49 C 0.86865 0.10904 0.44726 0.0
C50 C 0.92895 0.15543 0.42325 0.0
C51 C 0.85386 0.08754 0.43793 0.0
C52 C 0.84767 0.05302 0.42445 0.0
C53 C 0.86247 0.0742 0.43223 0.0
C54 C 0.81557 0.05849 0.42754 0.0
C55 C 0.82401 0.04482 0.42215 0.0
C56 C 0.83033 0.07958 0.43539 0.0
C57 C 0.91384 0.17872 0.48342 0.0
C58 C 0.89158 0.15921 0.50297 0.0
C59 C 0.91288 0.2004 0.50474 0.0
C60 C 0.92056 0.19965 0.49117 0.0
C61 C 0.89835 0.18018 0.51086 0.0
C62 C 0.89918 0.15849 0.48937 0.0
C63 C 0.92203 0.17817 0.46914 0.0
O64 O 0.93169 0.14474 0.43398 0.0
O65 O 0.91258 0.16014 0.42467 0.0
O66 O 0.9091 0.17812 0.45786 0.0
O67 O 0.92911 0.1636 0.46702 0.0
H68 H 0.97045 0.18471 0.43903 0.0
H69 H 1.00572 0.21226 0.42952 0.0
H70 H 0.96979 0.19444 0.38618 0.0
H71 H 0.93484 0.16643 0.39571 0.0
H72 H 0.85473 0.043 0.42028 0.0
H73 H 0.88056 0.07992 0.43395 0.0
H74 H 0.79742 0.05258 0.42609 0.0
H75 H 0.82327 0.08949 0.43976 0.0
H76 H 0.88067 0.1433 0.50737 0.0
H77 H 0.91813 0.21685 0.51035 0.0
H78 H 0.93171 0.21544 0.4867 0.0
H79 H 0.89368 0.14213 0.48352 0.0
C80 C 0.87552 0.80014 0.42297 0.0
C81 C 0.85543 0.79049 0.42993 0.0
C82 C 0.83926 0.80739 0.4138 0.0
C83 C 0.83741 0.79402 0.42534 0.0
C84 C 0.85949 0.81701 0.40692 0.0
C85 C 0.8774 0.8134 0.41147 0.0
U86 U 0.90846 0.78301 0.45011 0.0
O87 O 0.92606 0.76387 0.4459 0.0
O88 O 0.94561 0.79908 0.45594 0.0
C89 C 0.9464 0.78144 0.45031 0.0
C90 C 0.8947 0.79663 0.42745 0.0
C91 C 0.96429 0.78642 0.44053 0.0
C92 C 0.9851 0.80515 0.42025 0.0
C93 C 0.96758 0.80032 0.42915 0.0
C94 C 0.99598 0.782 0.4339 0.0
C95 C 0.99953 0.79603 0.42251 0.0
C96 C 0.97857 0.77727 0.44279 0.0
C97 C 0.88422 0.76323 0.48698 0.0
C98 C 0.8859 0.73659 0.50296 0.0
C99 C 0.87671 0.7645 0.51227 0.0
C100 C 0.87878 0.77294 0.49863 0.0
C101 C 0.87997 0.74603 0.5146 0.0
C102 C 0.88805 0.74512 0.48929 0.0
C103 C 0.88421 0.77139 0.47242 0.0
O104 O 0.90925 0.81067 0.43833 0.0
O105 O 0.88946 0.77542 0.42838 0.0
O106 O 0.8804 0.75715 0.46104 0.0
O107 O 0.90013 0.79242 0.47103 0.0
H108 H 0.85371 0.78027 0.43889 0.0
H109 H 0.82217 0.78655 0.43096 0.0
H110 H 0.86139 0.8271 0.39787 0.0
H111 H 0.89275 0.82093 0.40594 0.0
H112 H 0.9872 0.81583 0.41151 0.0
H113 H 0.95666 0.80749 0.42719 0.0
H114 H 1.00694 0.77496 0.43613 0.0
H115 H 0.97637 0.76657 0.45153 0.0
H116 H 0.88881 0.72255 0.50441 0.0
H117 H 0.87183 0.77202 0.52087 0.0
H118 H 0.87559 0.7868 0.49708 0.0
H119 H 0.89233 0.73733 0.48051 0.0
C120 C 0.07707 0.22686 0.63495 0.0
C121 C 0.05784 0.22137 0.62518 0.0
C122 C 0.03584 0.2192 0.64551 0.0
C123 C 0.03742 0.21756 0.63042 0.0
C124 C 0.05536 0.22518 0.65518 0.0
C125 C 0.0757 0.22893 0.64995 0.0
U126 U 0.12217 0.24306 0.60743 0.0
O127 O 0.15974 0.26107 0.61193 0.0
O128 O 0.14114 0.22601 0.60159 0.0
C129 C 0.161 0.24331 0.60718 0.0
C130 C 0.09848 0.22974 0.62992 0.0
C131 C 0.1758 0.23787 0.6165 0.0
C132 C 0.18194 0.21805 0.63594 0.0
C133 C 0.16744 0.2233 0.62757 0.0
C134 C 0.21326 0.24213 0.62237 0.0
C135 C 0.20505 0.2274 0.63342 0.0
C136 C 0.19878 0.24728 0.61402 0.0
C137 C 0.11664 0.26541 0.57107 0.0
C138 C 0.13857 0.26747 0.55086 0.0
C139 C 0.11876 0.28871 0.55147 0.0
C140 C 0.11079 0.28027 0.56465 0.0
C141 C 0.13272 0.28239 0.54437 0.0
C142 C 0.1307 0.25915 0.56412 0.0
C143 C 0.10803 0.2568 0.58502 0.0
O144 O 0.0963 0.21573 0.61883 0.0
O145 O 0.11496 0.25078 0.62921 0.0
O146 O 0.1201 0.2703 0.59678 0.0
O147 O 0.10144 0.23532 0.58633 0.0
H148 H 0.05851 0.2197 0.61354 0.0
H149 H 0.02272 0.21282 0.62264 0.0
H150 H 0.05498 0.22703 0.66684 0.0
H151 H 0.09036 0.23324 0.65767 0.0
H152 H 0.17512 0.20684 0.64444 0.0
H153 H 0.14973 0.21593 0.62969 0.0
H154 H 0.23082 0.24935 0.61995 0.0
H155 H 0.20552 0.2585 0.60549 0.0
H156 H 0.14949 0.26247 0.54578 0.0
H157 H 0.11371 0.29995 0.54671 0.0
H158 H 0.09998 0.28532 0.56984 0.0
H159 H 0.13561 0.24785 0.56894 0.0
C160 C 0.77876 0.85388 0.65009 0.0
C161 C 0.77055 0.83287 0.64197 0.0
C162 C 0.78989 0.82199 0.66027 0.0
C163 C 0.77602 0.81702 0.64703 0.0
C164 C 0.79787 0.84302 0.66843 0.0
C165 C 0.79233 0.85883 0.66337 0.0
U166 U 0.75621 0.87431 0.61926 0.0
O167 O 0.73706 0.89253 0.61934 0.0
O168 O 0.77071 0.90795 0.61108 0.0
C169 C 0.75376 0.91069 0.6146 0.0
C170 C 0.77413 0.87106 0.64444 0.0
C171 C 0.76061 0.93243 0.62287 0.0
C172 C 0.78335 0.96145 0.64283 0.0
C173 C 0.77601 0.94007 0.63557 0.0
C174 C 0.75944 0.96738 0.62496 0.0
C175 C 0.77536 0.97548 0.63749 0.0
C176 C 0.75218 0.94606 0.61772 0.0
C177 C 0.73213 0.83956 0.58289 0.0
C178 C 0.72531 0.85682 0.56223 0.0
C179 C 0.71469 0.81708 0.55963 0.0
C180 C 0.72269 0.81881 0.57426 0.0
C181 C 0.71619 0.83616 0.55342 0.0
C182 C 0.73315 0.85848 0.57685 0.0
C183 C 0.74155 0.84174 0.59804 0.0
O184 O 0.78642 0.88175 0.63402 0.0
O185 O 0.75237 0.86471 0.64171 0.0
O186 O 0.72863 0.84185 0.60796 0.0
O187 O 0.76316 0.85764 0.60104 0.0
H188 H 0.76021 0.82889 0.63161 0.0
H189 H 0.76987 0.80112 0.6404 0.0
H190 H 0.80838 0.84723 0.67873 0.0
H191 H 0.79883 0.87503 0.66974 0.0
H192 H 0.79574 0.96724 0.65237 0.0
H193 H 0.78265 0.92967 0.63971 0.0
H194 H 0.75262 0.97756 0.62073 0.0
H195 H 0.74017 0.94033 0.60797 0.0
H196 H 0.72638 0.8717 0.55781 0.0
H197 H 0.70788 0.801 0.55308 0.0
H198 H 0.7218 0.80406 0.57878 0.0
H199 H 0.74028 0.87461 0.58341 0.0
C200 C 0.07821 0.84869 0.63714 0.0
C201 C 0.05798 0.83497 0.62784 0.0
C202 C 0.03809 0.81613 0.64847 0.0
C203 C 0.03811 0.81888 0.63346 0.0
C204 C 0.0586 0.82959 0.65764 0.0
C205 C 0.07839 0.84569 0.65203 0.0
U206 U 0.12064 0.87476 0.60833 0.0
O207 O 0.13825 0.90984 0.60226 0.0
O208 O 0.1583 0.89544 0.6116 0.0
C209 C 0.15858 0.91368 0.60733 0.0
C210 C 0.09902 0.86685 0.63178 0.0
C211 C 0.17359 0.93521 0.6166 0.0
C212 C 0.1804 0.97019 0.6298 0.0
C213 C 0.16535 0.94904 0.62205 0.0
C214 C 0.212 0.96376 0.62715 0.0
C215 C 0.20393 0.97787 0.63233 0.0
C216 C 0.197 0.94271 0.61932 0.0
C217 C 0.11318 0.84384 0.57128 0.0
C218 C 0.13505 0.86335 0.55159 0.0
C219 C 0.11408 0.82216 0.54993 0.0
C220 C 0.10653 0.8229 0.56355 0.0
C221 C 0.12837 0.84238 0.54376 0.0
C222 C 0.12762 0.86408 0.56525 0.0
C223 C 0.10523 0.84438 0.58565 0.0
O224 O 0.11552 0.86241 0.63014 0.0
O225 O 0.09586 0.87742 0.62114 0.0
O226 O 0.09807 0.85886 0.58788 0.0
O227 O 0.11841 0.84454 0.59681 0.0
H228 H 0.05743 0.83695 0.61629 0.0
H229 H 0.02262 0.80901 0.62607 0.0
H230 H 0.05939 0.82769 0.66919 0.0
H231 H 0.09385 0.85605 0.65939 0.0
H232 H 0.17361 0.98055 0.6338 0.0
H233 H 0.14738 0.94372 0.62016 0.0
H234 H 0.23005 0.96927 0.62877 0.0
H235 H 0.2038 0.93245 0.61514 0.0
H236 H 0.14627 0.87922 0.54724 0.0
H237 H 0.10847 0.80574 0.54414 0.0
H238 H 0.09546 0.80711 0.56804 0.0
H239 H 0.13316 0.88044 0.57111 0.0
C240 C 0.91301 0.49869 0.74237 0.0
C241 C 0.8923 0.49097 0.73365 0.0
C242 C 0.90119 0.52999 0.73189 0.0
C243 C 0.88639 0.50646 0.72849 0.0
C244 C 0.92211 0.53771 0.74046 0.0
C245 C 0.92792 0.52218 0.74574 0.0
U246 U 0.93742 0.4789 0.773 0.0
O247 O 0.92343 0.44537 0.78127 0.0
O248 O 0.95643 0.46055 0.77217 0.0
C249 C 0.9399 0.44238 0.77702 0.0
C250 C 0.91826 0.48195 0.74825 0.0
C251 C 0.93248 0.42063 0.76845 0.0
C252 C 0.90455 0.38842 0.75174 0.0
C253 C 0.91185 0.40962 0.75922 0.0
C254 C 0.93882 0.38939 0.76216 0.0
C255 C 0.91788 0.37802 0.75322 0.0
C256 C 0.946 0.41049 0.76975 0.0
C257 C 0.96313 0.51409 0.80924 0.0
C258 C 0.97066 0.49728 0.82991 0.0
C259 C 0.98147 0.53706 0.83225 0.0
C260 C 0.97294 0.53501 0.8177 0.0
C261 C 0.98021 0.51814 0.83858 0.0
C262 C 0.96226 0.4953 0.81537 0.0
C263 C 0.95307 0.51163 0.79421 0.0
O264 O 0.94005 0.4882 0.75048 0.0
O265 O 0.90654 0.4715 0.75893 0.0
O266 O 0.9314 0.49572 0.79159 0.0
O267 O 0.96548 0.51137 0.78399 0.0
H268 H 0.88056 0.47291 0.73096 0.0
H269 H 0.87024 0.50005 0.72181 0.0
H270 H 0.93372 0.55573 0.74339 0.0
H271 H 0.9439 0.52854 0.75259 0.0
H272 H 0.88848 0.38015 0.74478 0.0
H273 H 0.90126 0.41727 0.75791 0.0
H274 H 0.94935 0.38169 0.76357 0.0
H275 H 0.96199 0.41876 0.7768 0.0
H276 H 0.96911 0.48229 0.83445 0.0
H277 H 0.98903 0.55345 0.83853 0.0
H278 H 0.9738 0.5497 0.81309 0.0
H279 H 0.9547 0.47898 0.80896 0.0
C280 C 0.61693 0.50095 0.75152 0.0
C281 C 0.63085 0.52257 0.75907 0.0
C282 C 0.65764 0.53313 0.74064 0.0
C283 C 0.65102 0.53855 0.75366 0.0
C284 C 0.64354 0.51139 0.73316 0.0
C285 C 0.62342 0.4955 0.73856 0.0
U286 U 0.57393 0.47803 0.78019 0.0
O287 O 0.53625 0.45888 0.77683 0.0
O288 O 0.55476 0.44324 0.78664 0.0
C289 C 0.53483 0.44043 0.78163 0.0
C290 C 0.59564 0.48376 0.75688 0.0
C291 C 0.51924 0.41895 0.77265 0.0
C292 C 0.51132 0.39023 0.75293 0.0
C293 C 0.52643 0.41118 0.76093 0.0
C294 C 0.4817 0.38491 0.76815 0.0
C295 C 0.48878 0.3768 0.75649 0.0
C296 C 0.49679 0.40576 0.77613 0.0
C297 C 0.5822 0.51025 0.81678 0.0
C298 C 0.55819 0.49166 0.83584 0.0
C299 C 0.58329 0.53258 0.83845 0.0
C300 C 0.59088 0.53132 0.82492 0.0
C301 C 0.56692 0.51275 0.84411 0.0
C302 C 0.56568 0.49044 0.82228 0.0
C303 C 0.59031 0.50906 0.80256 0.0
O304 O 0.59815 0.4734 0.76787 0.0
O305 O 0.57992 0.48941 0.75823 0.0
O306 O 0.57772 0.50932 0.79119 0.0
O307 O 0.5965 0.49375 0.80066 0.0
H308 H 0.62614 0.52705 0.76914 0.0
H309 H 0.66158 0.55503 0.75978 0.0
H310 H 0.6479 0.50672 0.72301 0.0
H311 H 0.61284 0.4789 0.73256 0.0
H312 H 0.51724 0.3846 0.74393 0.0
H313 H 0.54371 0.42122 0.75805 0.0
H314 H 0.46461 0.3749 0.77134 0.0
H315 H 0.49097 0.41147 0.78517 0.0
H316 H 0.54534 0.47611 0.83978 0.0
H317 H 0.59051 0.54905 0.84459 0.0
H318 H 0.6036 0.54679 0.82084 0.0
H319 H 0.55859 0.47401 0.81609 0.0
C320 C 0.54037 0.13121 0.75557 0.0
C321 C 0.52745 0.13417 0.76576 0.0
C322 C 0.50298 0.13662 0.74616 0.0
C323 C 0.50897 0.13693 0.7611 0.0
C324 C 0.5159 0.13341 0.73602 0.0
C325 C 0.5344 0.13076 0.7407 0.0
U326 U 0.575 0.11685 0.78324 0.0
O327 O 0.59344 0.09841 0.77956 0.0
O328 O 0.61225 0.13397 0.78899 0.0
C329 C 0.61357 0.11645 0.78373 0.0
C330 C 0.5602 0.12877 0.76017 0.0
C331 C 0.63147 0.12143 0.77395 0.0
C332 C 0.65254 0.14044 0.75382 0.0
C333 C 0.63502 0.13564 0.76272 0.0
C334 C 0.66287 0.11664 0.76716 0.0
C335 C 0.66669 0.13097 0.75593 0.0
C336 C 0.64547 0.11195 0.77605 0.0
C337 C 0.55085 0.09778 0.82032 0.0
C338 C 0.5506 0.07067 0.83668 0.0
C339 C 0.54395 0.10057 0.84563 0.0
C340 C 0.54652 0.10869 0.83188 0.0
C341 C 0.54553 0.08119 0.84817 0.0
C342 C 0.55321 0.07885 0.82289 0.0
C343 C 0.5508 0.10537 0.80558 0.0
O344 O 0.57468 0.14344 0.77086 0.0
O345 O 0.55572 0.10787 0.76146 0.0
O346 O 0.5474 0.09093 0.79442 0.0
O347 O 0.56629 0.12648 0.80395 0.0
H348 H 0.5317 0.13442 0.77731 0.0
H349 H 0.49923 0.13911 0.76918 0.0
H350 H 0.51198 0.13336 0.72446 0.0
H351 H 0.54418 0.12852 0.73267 0.0
H352 H 0.65485 0.15137 0.7452 0.0
H353 H 0.62431 0.14306 0.76086 0.0
H354 H 0.67361 0.10932 0.76926 0.0
H355 H 0.64306 0.101 0.78468 0.0
H356 H 0.55179 0.05564 0.83819 0.0
H357 H 0.54051 0.10938 0.85425 0.0
H358 H 0.54459 0.12328 0.83018 0.0
H359 H 0.55649 0.07003 0.81418 0.0
C360 C 0.74455 0.55708 0.96851 0.0
C361 C 0.73186 0.56565 0.96147 0.0
C362 C 0.70368 0.55049 0.97902 0.0
C363 C 0.7116 0.56237 0.96667 0.0
C364 C 0.71646 0.54182 0.98591 0.0
C365 C 0.73666 0.5451 0.98072 0.0
U366 U 0.78968 0.57554 0.94111 0.0
O367 O 0.82726 0.59358 0.94552 0.0
O368 O 0.80876 0.55909 0.93428 0.0
C369 C 0.8286 0.57618 0.94008 0.0
C370 C 0.76608 0.56048 0.96349 0.0
C371 C 0.84344 0.5702 0.94885 0.0
C372 C 0.8502 0.55075 0.96829 0.0
C373 C 0.83577 0.55668 0.96048 0.0
C374 C 0.88009 0.57207 0.95303 0.0
C375 C 0.87249 0.55822 0.96455 0.0
C376 C 0.8657 0.57795 0.94527 0.0
C377 C 0.78329 0.59934 0.90558 0.0
C378 C 0.80552 0.6029 0.88529 0.0
C379 C 0.78332 0.62172 0.88588 0.0
C380 C 0.776 0.61313 0.89915 0.0
C381 C 0.79807 0.61661 0.87869 0.0
C382 C 0.79826 0.59441 0.89861 0.0
C383 C 0.77502 0.59017 0.91946 0.0
O384 O 0.76398 0.54718 0.952 0.0
O385 O 0.7824 0.58172 0.96316 0.0
O386 O 0.78728 0.60322 0.93133 0.0
O387 O 0.76859 0.56863 0.92028 0.0
H388 H 0.7377 0.57496 0.95201 0.0
H389 H 0.70234 0.56946 0.96116 0.0
H390 H 0.71074 0.53224 0.99527 0.0
H391 H 0.74616 0.53827 0.98626 0.0
H392 H 0.84374 0.53995 0.97704 0.0
H393 H 0.81861 0.55055 0.96342 0.0
H394 H 0.89725 0.57851 0.95002 0.0
H395 H 0.87196 0.58851 0.93638 0.0
H396 H 0.81666 0.59838 0.88005 0.0
H397 H 0.77755 0.63254 0.88132 0.0
H398 H 0.76458 0.61726 0.9044 0.0
H399 H 0.80418 0.58385 0.90342 0.0
C400 C 0.44632 0.18858 0.98228 0.0
C401 C 0.45291 0.17686 0.97268 0.0
C402 C 0.45641 0.15579 0.99225 0.0
C403 C 0.45807 0.16079 0.97764 0.0
C404 C 0.44947 0.16736 1.00177 0.0
C405 C 0.44453 0.18366 0.99683 0.0
U406 U 0.42339 0.2099 0.95225 0.0
O407 O 0.40422 0.22804 0.95267 0.0
O408 O 0.43779 0.2437 0.94429 0.0
C409 C 0.42081 0.24629 0.94791 0.0
C410 C 0.44126 0.20585 0.97716 0.0
C411 C 0.4278 0.2681 0.95613 0.0
C412 C 0.44032 0.29257 0.97881 0.0
C413 C 0.43235 0.27116 0.97137 0.0
C414 C 0.43918 0.30789 0.95585 0.0
C415 C 0.4441 0.3112 0.97109 0.0
C416 C 0.43108 0.28651 0.94845 0.0
C417 C 0.39989 0.17629 0.91554 0.0
C418 C 0.39341 0.19422 0.89515 0.0
C419 C 0.38146 0.15415 0.8923 0.0
C420 C 0.38971 0.15555 0.90683 0.0
C421 C 0.38344 0.17354 0.88628 0.0
C422 C 0.40148 0.19556 0.90968 0.0
C423 C 0.40918 0.17799 0.93066 0.0
O424 O 0.45359 0.21765 0.96704 0.0
O425 O 0.41942 0.1992 0.9745 0.0
O426 O 0.39609 0.17764 0.94058 0.0
O427 O 0.43074 0.19392 0.93384 0.0
H428 H 0.45426 0.18027 0.96136 0.0
H429 H 0.46372 0.15255 0.97003 0.0
H430 H 0.44764 0.1637 1.01303 0.0
H431 H 0.43929 0.19241 1.00435 0.0
H432 H 0.44412 0.2947 0.99055 0.0
H433 H 0.43009 0.25711 0.97745 0.0
H434 H 0.44163 0.32186 0.94964 0.0
H435 H 0.42768 0.28442 0.93668 0.0
H436 H 0.39487 0.20935 0.89088 0.0
H437 H 0.374 0.13803 0.88568 0.0
H438 H 0.38834 0.14052 0.91122 0.0
H439 H 0.40916 0.21169 0.91631 0.0
C440 C 0.7443 0.18391 0.96986 0.0
C441 C 0.72417 0.16962 0.96061 0.0
C442 C 0.70444 0.1513 0.98141 0.0
C443 C 0.70443 0.15352 0.96633 0.0
C444 C 0.72487 0.1653 0.99054 0.0
C445 C 0.74454 0.18144 0.98482 0.0
U446 U 0.78605 0.20929 0.94071 0.0
O447 O 0.80252 0.244 0.93384 0.0
O448 O 0.82355 0.23081 0.94342 0.0
C449 C 0.82318 0.24843 0.93855 0.0
C450 C 0.76489 0.20213 0.96432 0.0
C451 C 0.83793 0.27051 0.94716 0.0
C452 C 0.85478 0.29387 0.97026 0.0
C453 C 0.8399 0.2727 0.96244 0.0
C454 C 0.86549 0.31086 0.94759 0.0
C455 C 0.8678 0.3132 0.96291 0.0
C456 C 0.85072 0.28974 0.93982 0.0
C457 C 0.77846 0.177 0.90424 0.0
C458 C 0.80061 0.19607 0.88456 0.0
C459 C 0.77862 0.1549 0.88287 0.0
C460 C 0.77123 0.15593 0.8965 0.0
C461 C 0.79337 0.17497 0.87668 0.0
C462 C 0.7933 0.19707 0.89822 0.0
C463 C 0.77069 0.17789 0.91862 0.0
O464 O 0.78169 0.19809 0.96285 0.0
O465 O 0.76128 0.21207 0.95344 0.0
O466 O 0.76306 0.19203 0.92057 0.0
O467 O 0.78433 0.17893 0.92981 0.0
H468 H 0.72357 0.17118 0.949 0.0
H469 H 0.68899 0.14323 0.95896 0.0
H470 H 0.72569 0.16382 1.00215 0.0
H471 H 0.75992 0.19223 0.99214 0.0
H472 H 0.85598 0.29514 0.98205 0.0
H473 H 0.83006 0.25805 0.96832 0.0
H474 H 0.87547 0.32528 0.94158 0.0
H475 H 0.84948 0.28836 0.92802 0.0
H476 H 0.8117 0.21188 0.8801 0.0
H477 H 0.77299 0.13835 0.87726 0.0
H478 H 0.75993 0.14026 0.90103 0.0
H479 H 0.79916 0.21352 0.90406 0.0
C480 C 0.58401 0.83582 0.07523 0.0
C481 C 0.59798 0.85882 0.08047 0.0
C482 C 0.57437 0.86875 0.06499 0.0
C483 C 0.59329 0.87516 0.07533 0.0
C484 C 0.56065 0.84568 0.05962 0.0
C485 C 0.56548 0.8294 0.06469 0.0
U486 U 0.60311 0.81363 0.10692 0.0
O487 O 0.58657 0.77947 0.11459 0.0
O488 O 0.62125 0.79452 0.10788 0.0
C489 C 0.60356 0.77632 0.11185 0.0
C490 C 0.5876 0.81817 0.08129 0.0
C491 C 0.59691 0.75454 0.1036 0.0
C492 C 0.59389 0.73231 0.08135 0.0
C493 C 0.60019 0.75327 0.08884 0.0
C494 C 0.58051 0.71368 0.10321 0.0
C495 C 0.58401 0.71225 0.08846 0.0
C496 C 0.58698 0.73463 0.1107 0.0
C497 C 0.62567 0.84715 0.14368 0.0
C498 C 0.62976 0.82863 0.1645 0.0
C499 C 0.6453 0.86943 0.16671 0.0
C500 C 0.63742 0.86817 0.15211 0.0
C501 C 0.64148 0.84965 0.17311 0.0
C502 C 0.62203 0.82742 0.14992 0.0
C503 C 0.61725 0.84574 0.12838 0.0
O504 O 0.60901 0.82366 0.08467 0.0
O505 O 0.57425 0.80754 0.09129 0.0
O506 O 0.59558 0.83039 0.1248 0.0
O507 O 0.63064 0.84553 0.11884 0.0
H508 H 0.6123 0.86413 0.0887 0.0
H509 H 0.60442 0.89278 0.07955 0.0
H510 H 0.54574 0.84005 0.05184 0.0
H511 H 0.55438 0.81168 0.06063 0.0
H512 H 0.59704 0.73188 0.07005 0.0
H513 H 0.60773 0.76844 0.08311 0.0
H514 H 0.57254 0.69857 0.10896 0.0
H515 H 0.58415 0.73528 0.12206 0.0
H516 H 0.62621 0.81302 0.16909 0.0
H517 H 0.65456 0.88594 0.17295 0.0
H518 H 0.64051 0.88358 0.14742 0.0
H519 H 0.61303 0.81103 0.14353 0.0
C520 C 0.2844 0.83435 0.08505 0.0
C521 C 0.29842 0.85577 0.09283 0.0
C522 C 0.32519 0.86678 0.07436 0.0
C523 C 0.31863 0.87187 0.08752 0.0
C524 C 0.31096 0.84525 0.06665 0.0
C525 C 0.2908 0.82924 0.07195 0.0
U526 U 0.24115 0.81067 0.11357 0.0
O527 O 0.20348 0.79137 0.11005 0.0
O528 O 0.22205 0.77569 0.11971 0.0
C529 C 0.20212 0.77287 0.11469 0.0
C530 C 0.26309 0.81701 0.09032 0.0
C531 C 0.18664 0.7515 0.10557 0.0
C532 C 0.17912 0.72277 0.08595 0.0
C533 C 0.19412 0.74366 0.09405 0.0
C534 C 0.149 0.71765 0.10066 0.0
C535 C 0.15638 0.70947 0.08921 0.0
C536 C 0.16399 0.73844 0.10874 0.0
C537 C 0.24888 0.84206 0.15041 0.0
C538 C 0.22599 0.82289 0.16981 0.0
C539 C 0.24816 0.86406 0.17165 0.0
C540 C 0.25597 0.86309 0.15816 0.0
C541 C 0.23311 0.84396 0.1777 0.0
C542 C 0.23371 0.82196 0.15628 0.0
C543 C 0.25715 0.84123 0.13618 0.0
O544 O 0.26557 0.80647 0.10121 0.0
O545 O 0.24731 0.82256 0.09173 0.0
O546 O 0.24464 0.84167 0.12484 0.0
O547 O 0.26353 0.82609 0.13413 0.0
H548 H 0.29377 0.85999 0.10301 0.0
H549 H 0.32928 0.88818 0.09382 0.0
H550 H 0.31525 0.84084 0.05639 0.0
H551 H 0.28014 0.81281 0.06577 0.0
H552 H 0.18527 0.71708 0.07711 0.0
H553 H 0.21156 0.75359 0.0914 0.0
H554 H 0.13175 0.70775 0.10361 0.0
H555 H 0.15794 0.7442 0.11762 0.0
H556 H 0.21468 0.80706 0.17415 0.0
H557 H 0.25372 0.88059 0.17725 0.0
H558 H 0.26752 0.87879 0.15374 0.0
H559 H 0.22791 0.80552 0.15044 0.0
C560 C 0.20684 0.46175 0.08781 0.0
C561 C 0.19402 0.46472 0.09807 0.0
C562 C 0.1694 0.46716 0.07858 0.0
C563 C 0.17551 0.4675 0.0935 0.0
C564 C 0.18218 0.46388 0.06837 0.0
C565 C 0.20072 0.46124 0.07296 0.0
U566 U 0.2414 0.44714 0.11529 0.0
O567 O 0.26063 0.42959 0.11162 0.0
O568 O 0.27862 0.46487 0.12159 0.0
C569 C 0.28049 0.44773 0.11626 0.0
C570 C 0.22681 0.45948 0.09234 0.0
C571 C 0.2992 0.45354 0.10702 0.0
C572 C 0.31378 0.45738 0.08334 0.0
C573 C 0.2957 0.45242 0.09177 0.0
C574 C 0.33905 0.46505 0.10532 0.0
C575 C 0.33566 0.46354 0.09001 0.0
C576 C 0.32102 0.46007 0.11369 0.0
C577 C 0.21698 0.42694 0.15206 0.0
C578 C 0.21634 0.39937 0.16816 0.0
C579 C 0.21169 0.43033 0.17765 0.0
C580 C 0.21382 0.43838 0.16389 0.0
C581 C 0.21251 0.41048 0.17994 0.0
C582 C 0.21853 0.40749 0.15436 0.0
C583 C 0.21673 0.43467 0.13738 0.0
O584 O 0.24103 0.47394 0.1032 0.0
O585 O 0.22258 0.4386 0.09337 0.0
O586 O 0.21378 0.42056 0.12612 0.0
O587 O 0.23186 0.45596 0.1359 0.0
H588 H 0.19839 0.46502 0.10961 0.0
H589 H 0.16588 0.46972 0.10163 0.0
H590 H 0.17815 0.46381 0.05682 0.0
H591 H 0.21042 0.45899 0.06488 0.0
H592 H 0.3105 0.45592 0.07159 0.0
H593 H 0.27897 0.44749 0.08639 0.0
H594 H 0.35572 0.47021 0.11089 0.0
H595 H 0.32413 0.46121 0.12544 0.0
H596 H 0.21689 0.38395 0.16946 0.0
H597 H 0.20921 0.4396 0.1865 0.0
H598 H 0.21252 0.45337 0.16241 0.0
H599 H 0.2209 0.39823 0.14545 0.0
C600 C 0.41063 0.8938 0.30201 0.0
C601 C 0.39149 0.88864 0.29226 0.0
C602 C 0.36956 0.88657 0.31259 0.0
C603 C 0.37115 0.88504 0.2975 0.0
C604 C 0.38902 0.8923 0.32226 0.0
C605 C 0.40927 0.89582 0.31702 0.0
U606 U 0.45592 0.91027 0.27471 0.0
O607 O 0.49328 0.92633 0.2792 0.0
O608 O 0.47331 0.892 0.26779 0.0
C609 C 0.49347 0.90824 0.2738 0.0
C610 C 0.43181 0.89616 0.29695 0.0
C611 C 0.50709 0.90087 0.28265 0.0
C612 C 0.52196 0.89567 0.30598 0.0
C613 C 0.50804 0.90193 0.29791 0.0
C614 C 0.53371 0.88684 0.28362 0.0
C615 C 0.53502 0.88811 0.29892 0.0
C616 C 0.51991 0.89317 0.2756 0.0
C617 C 0.45167 0.93556 0.23932 0.0
C618 C 0.47252 0.93726 0.21858 0.0
C619 C 0.45445 0.96006 0.22035 0.0
C620 C 0.44664 0.95136 0.23352 0.0
C621 C 0.46741 0.95306 0.21268 0.0
C622 C 0.46482 0.92868 0.23181 0.0
C623 C 0.44299 0.92646 0.25314 0.0
O624 O 0.42926 0.88264 0.28545 0.0
O625 O 0.44895 0.91705 0.29679 0.0
O626 O 0.45556 0.93905 0.26507 0.0
O627 O 0.43537 0.90464 0.25384 0.0
H628 H 0.39214 0.88701 0.28062 0.0
H629 H 0.3565 0.88048 0.28973 0.0
H630 H 0.38863 0.89407 0.33392 0.0
H631 H 0.42386 0.89988 0.32473 0.0
H632 H 0.52239 0.89663 0.31774 0.0
H633 H 0.49818 0.90773 0.30358 0.0
H634 H 0.54375 0.88143 0.27782 0.0
H635 H 0.51947 0.89231 0.26384 0.0
H636 H 0.48269 0.93173 0.21304 0.0
H637 H 0.44999 0.97199 0.21606 0.0
H638 H 0.43653 0.9569 0.23914 0.0
H639 H 0.46908 0.91663 0.23615 0.0
C640 C 0.11406 0.51944 0.31612 0.0
C641 C 0.13503 0.52708 0.3245 0.0
C642 C 0.12612 0.48802 0.32604 0.0
C643 C 0.14106 0.51153 0.32938 0.0
C644 C 0.10494 0.48037 0.31782 0.0
C645 C 0.09901 0.49595 0.31281 0.0
U646 U 0.09017 0.54025 0.28583 0.0
O647 O 0.07053 0.5579 0.28674 0.0
O648 O 0.10412 0.57434 0.2784 0.0
C649 C 0.08702 0.57654 0.2823 0.0
C650 C 0.10867 0.53627 0.31053 0.0
C651 C 0.09363 0.59773 0.29119 0.0
C652 C 0.11604 0.62558 0.31177 0.0
C653 C 0.10909 0.60477 0.30383 0.0
C654 C 0.09165 0.63214 0.2947 0.0
C655 C 0.1075 0.63956 0.30723 0.0
C656 C 0.08481 0.61141 0.28675 0.0
C657 C 0.066 0.50695 0.24897 0.0
C658 C 0.05785 0.52459 0.22902 0.0
C659 C 0.04911 0.4855 0.22536 0.0
C660 C 0.05736 0.48676 0.23987 0.0
C661 C 0.04946 0.50448 0.21971 0.0
C662 C 0.06599 0.52578 0.24352 0.0
C663 C 0.0757 0.50866 0.26398 0.0
O664 O 0.12074 0.54748 0.30017 0.0
O665 O 0.08684 0.52978 0.30807 0.0
O666 O 0.06283 0.50801 0.27414 0.0
O667 O 0.09723 0.52477 0.267 0.0
H668 H 0.14688 0.54513 0.32714 0.0
H669 H 0.15741 0.51789 0.3358 0.0
H670 H 0.09321 0.46236 0.31495 0.0
H671 H 0.08281 0.48964 0.30622 0.0
H672 H 0.12807 0.63072 0.32145 0.0
H673 H 0.11597 0.5943 0.30744 0.0
H674 H 0.08498 0.64264 0.29082 0.0
H675 H 0.07288 0.60621 0.277 0.0
H676 H 0.05867 0.53961 0.22502 0.0
H677 H 0.04246 0.46966 0.21856 0.0
H678 H 0.05719 0.47205 0.24394 0.0
H679 H 0.07265 0.54154 0.25043 0.0
C680 C 0.41144 0.51952 0.30293 0.0
C681 C 0.39646 0.49879 0.29462 0.0
C682 C 0.37099 0.48695 0.31385 0.0
C683 C 0.37641 0.48261 0.30005 0.0
C684 C 0.38626 0.50771 0.32212 0.0
C685 C 0.40625 0.52379 0.31671 0.0
U686 U 0.45379 0.54386 0.27395 0.0
O687 O 0.4714 0.57881 0.26748 0.0
O688 O 0.49136 0.56441 0.27697 0.0
C689 C 0.49172 0.58257 0.27245 0.0
C690 C 0.43232 0.53716 0.29743 0.0
C691 C 0.50681 0.60446 0.28134 0.0
C692 C 0.53185 0.62662 0.30324 0.0
C693 C 0.51633 0.60555 0.29556 0.0
C694 C 0.52814 0.64581 0.28278 0.0
C695 C 0.53814 0.64703 0.29689 0.0
C696 C 0.51274 0.62478 0.27509 0.0
C697 C 0.44643 0.51257 0.23727 0.0
C698 C 0.47167 0.53214 0.21897 0.0
C699 C 0.44481 0.49161 0.21477 0.0
C700 C 0.43699 0.4921 0.22834 0.0
C701 C 0.46223 0.51165 0.20989 0.0
C702 C 0.46388 0.53257 0.23253 0.0
C703 C 0.43816 0.51301 0.25152 0.0
O704 O 0.44854 0.53227 0.29592 0.0
O705 O 0.42909 0.54721 0.28649 0.0
O706 O 0.4311 0.5276 0.25358 0.0
O707 O 0.45122 0.51326 0.2628 0.0
H708 H 0.40018 0.49524 0.28392 0.0
H709 H 0.36494 0.4669 0.29334 0.0
H710 H 0.38286 0.51148 0.33286 0.0
H711 H 0.41766 0.53968 0.32328 0.0
H712 H 0.53935 0.62688 0.31403 0.0
H713 H 0.5121 0.59015 0.30067 0.0
H714 H 0.5322 0.66113 0.27763 0.0
H715 H 0.50564 0.62438 0.26414 0.0
H716 H 0.48487 0.54794 0.21552 0.0
H717 H 0.43738 0.47547 0.2082 0.0
H718 H 0.4236 0.47646 0.23186 0.0
H719 H 0.47142 0.54856 0.23931 0.0
Tb720 Tb 0.50663 1.00067 1.01284 0.0
Eu721 Eu 0.52391 0.02464 0.0469 0.0
C722 C 0.52578 0.9808 0.0364 0.0
C723 C 0.4733 0.98183 0.0371 0.0
C724 C 0.50051 0.99533 0.97232 0.0
C725 C 0.49812 0.99086 0.9459 0.0
C726 C 0.49298 0.98133 0.95918 0.0
C727 C 0.51313 0.01904 0.97203 0.0
C728 C 0.51831 0.0286 0.95876 0.0
C729 C 0.51098 0.01463 0.9455 0.0
C730 C 0.49607 0.98504 0.98626 0.0
O731 O 0.49278 0.02311 1.01611 0.0
O732 O 0.51946 0.04943 0.03395 0.0
O733 O 0.55536 0.03845 0.0348 0.0
O734 O 0.53732 0.03339 1.01188 0.0
C735 C 0.50302 0.04339 1.02337 0.0
O736 O 0.51993 0.04198 0.06601 0.0
O737 O 0.54692 0.03374 0.06689 0.0
O738 O 0.52002 0.99007 0.04677 0.0
O739 O 0.52624 0.98662 1.02304 0.0
O740 O 0.48053 0.97652 0.02549 0.0
O741 O 0.48565 1.00154 0.04495 0.0
C742 C 0.55601 0.04268 1.02105 0.0
O743 O 0.51404 0.98783 0.9942 0.0
O744 O 0.48275 0.98859 0.99411 0.0
C745 C 0.52925 0.03172 0.08838 0.0
C746 C 0.51624 0.01429 0.11545 0.0
C747 C 0.5261 0.03774 0.11405 0.0
C748 C 0.53256 0.04635 0.10065 0.0
C749 C 0.51935 1.00829 0.08967 0.0
C750 C 0.513 0.99967 0.10309 0.0
C751 C 0.53574 0.04101 0.07428 0.0
H752 H 0.49188 0.97958 0.93592 0.0
H753 H 0.48325 0.96299 0.95918 0.0
H754 H 0.51922 0.03014 0.98209 0.0
H755 H 0.52846 0.04694 0.95892 0.0
H756 H 0.52906 0.04949 0.12337 0.0
H757 H 0.54012 0.06446 0.09987 0.0
H758 H 0.51644 0.99666 0.08028 0.0
H759 H 0.5052 0.98151 0.10373 0.0
Tb760 Tb 0.02752 0.51534 1.01387 0.0
Eu761 Eu 1.00074 0.50225 0.04344 0.0
C762 C 0.04447 0.5513 0.04107 0.0
C763 C 0.04508 0.49827 0.04025 0.0
C764 C 0.04036 0.52454 0.97547 0.0
C765 C 0.05049 0.53761 0.9517 0.0
C766 C 0.05681 0.53796 0.96646 0.0
C767 C 0.01743 0.51083 0.96961 0.0
C768 C 1.0111 0.51037 0.95482 0.0
C769 C 0.02757 0.52374 0.94567 0.0
C770 C 0.04736 0.5252 0.99095 0.0
O771 O 0.9949 0.48453 1.00703 0.0
O772 O 0.98795 0.46973 0.02904 0.0
O773 O 0.97708 0.50554 0.02673 0.0
O774 O 1.00411 0.52852 1.01229 0.0
C775 C 0.9843 0.46724 1.01477 0.0
O776 O 0.98598 0.47857 0.05987 0.0
O777 O 0.98403 0.50934 0.06061 0.0
O778 O 0.02415 0.54028 0.04567 0.0
O779 O 0.0505 0.54195 0.03083 0.0
O780 O 0.04062 0.49687 0.02604 0.0
O781 O 0.03461 0.5045 0.0492 0.0
C782 C 0.98348 0.5196 1.01653 0.0
O783 O 0.04591 0.53986 0.99971 0.0
O784 O 0.03954 0.50556 0.99622 0.0
C785 C 0.98737 0.49531 0.08294 0.0
C786 C 1.00097 0.50009 0.11302 0.0
C787 C 0.97841 0.48407 0.10721 0.0
C788 C 0.9717 0.48173 0.09231 0.0
C789 C 1.00982 0.51151 0.08864 0.0
C790 C 0.01655 0.51393 0.10357 0.0
C791 C 0.98041 0.49153 0.06721 0.0
H792 H 0.06355 0.54842 0.94505 0.0
H793 H 0.07456 0.54878 0.97085 0.0
H794 H 1.00446 0.50041 0.97645 0.0
H795 H 0.99335 0.4993 0.95053 0.0
H796 H 0.96607 0.47289 0.11412 0.0
H797 H 0.95436 0.469 0.08804 0.0
H798 H 0.02218 0.52207 0.08151 0.0
H799 H 0.03396 0.52662 0.10769 0.0
Tb800 Tb 0.52439 0.50775 0.04339 0.0
Eu801 Eu 0.50737 0.51867 1.01186 0.0
C802 C 0.50187 0.47054 1.0165 0.0
C803 C 0.5566 0.52217 1.01839 0.0
C804 C 0.52993 0.50345 0.0831 0.0
C805 C 0.52727 0.49441 0.10824 0.0
C806 C 0.53352 0.49226 0.0944 0.0
C807 C 0.52028 0.51709 0.08583 0.0
C808 C 0.51403 0.51927 0.09967 0.0
C809 C 0.51724 0.50777 0.11103 0.0
C810 C 0.53463 0.49938 0.06829 0.0
O811 O 0.54058 0.54463 0.04369 0.0
O812 O 0.51437 0.54736 0.02822 0.0
O813 O 0.47614 0.5016 1.02421 0.0
O814 O 0.49529 0.51164 0.04718 0.0
C815 C 0.53123 0.55618 0.03874 0.0
O816 O 0.51264 0.54227 0.99538 0.0
O817 O 0.48373 0.50781 0.99201 0.0
O818 O 0.50793 0.48644 1.0076 0.0
O819 O 0.50264 0.47506 0.03056 0.0
O820 O 0.54907 0.50902 0.02906 0.0
O821 O 0.54515 0.53109 1.01235 0.0
C822 C 0.47634 0.50401 0.03844 0.0
O823 O 0.51668 0.4851 0.05951 0.0
O824 O 0.54819 0.51726 0.06196 0.0
C825 C 0.50207 0.52448 0.97139 0.0
C826 C 0.51516 0.52156 0.94336 0.0
C827 C 0.50862 0.53753 0.94724 0.0
C828 C 0.5021 0.53893 0.96111 0.0
C829 C 0.50864 0.50854 0.96761 0.0
C830 C 0.515 0.50701 0.95371 0.0
C831 C 0.49605 0.52673 0.98616 0.0
H832 H 0.52969 0.48505 0.11663 0.0
H833 H 0.5407 0.48145 0.09244 0.0
H834 H 0.51726 0.52577 0.0772 0.0
H835 H 0.50663 0.52993 0.10145 0.0
H836 H 0.50836 0.54884 0.93949 0.0
H837 H 0.4972 0.55142 0.96385 0.0
H838 H 0.50903 0.49739 0.97544 0.0
H839 H 0.52024 0.49474 0.95115 0.0
Tb840 Tb 0.17427 0.33161 0.34484 0.0
Eu841 Eu 0.19209 0.35503 0.379 0.0
C842 C 0.19491 0.31178 0.36697 0.0
C843 C 0.14209 0.3125 0.37004 0.0
C844 C 0.1688 0.32617 0.30444 0.0
C845 C 0.1659 0.32165 0.278 0.0
C846 C 0.15996 0.31226 0.29126 0.0
C847 C 0.18382 0.34962 0.30424 0.0
C848 C 0.18972 0.35905 0.29099 0.0
C849 C 0.18078 0.34518 0.27768 0.0
C850 C 0.16225 0.31614 0.31832 0.0
O851 O 0.17799 0.36512 0.3451 0.0
O852 O 0.17103 0.36876 0.3686 0.0
O853 O 0.21861 0.37955 0.36559 0.0
O854 O 0.21133 0.35386 0.34599 0.0
C855 C 0.17153 0.3742 0.35516 0.0
O856 O 0.18662 0.3705 0.39838 0.0
O857 O 0.2156 0.36539 0.39895 0.0
O858 O 0.20586 0.33161 0.37474 0.0
O859 O 0.1782 0.30686 0.35678 0.0
O860 O 0.1436 0.31763 0.35643 0.0
O861 O 0.16016 0.32147 0.37968 0.0
C862 C 0.22449 0.37376 0.35354 0.0
O863 O 0.17813 0.31506 0.3264 0.0
O864 O 0.1514 0.32342 0.32602 0.0
C865 C 0.19775 0.36165 0.42065 0.0
C866 C 0.18457 0.34378 0.4476 0.0
C867 C 0.19379 0.36717 0.44623 0.0
C868 C 0.20032 0.37598 0.4329 0.0
C869 C 0.18871 0.33832 0.42193 0.0
C870 C 0.1823 0.32948 0.4353 0.0
C871 C 0.20341 0.3711 0.40651 0.0
H872 H 0.15847 0.31051 0.26799 0.0
H873 H 0.14833 0.29413 0.29121 0.0
H874 H 0.19093 0.36063 0.31433 0.0
H875 H 0.20145 0.37717 0.29117 0.0
H876 H 0.19602 0.3787 0.4555 0.0
H877 H 0.20715 0.39401 0.43211 0.0
H878 H 0.18633 0.3269 0.41255 0.0
H879 H 0.17504 0.31138 0.43593 0.0
Tb880 Tb 0.69418 0.85109 0.34767 0.0
Eu881 Eu 0.66778 0.83738 0.37732 0.0
C882 C 0.7105 0.88633 0.37545 0.0
C883 C 0.7131 0.83462 0.37351 0.0
C884 C 0.70684 0.85901 0.30911 0.0
C885 C 0.71546 0.87129 0.28502 0.0
C886 C 0.72239 0.87299 0.29983 0.0
C887 C 0.68432 0.84297 0.30343 0.0
C888 C 0.67739 0.84115 0.28858 0.0
C889 C 0.69284 0.85551 0.27926 0.0
C890 C 0.71399 0.86247 0.3248 0.0
O891 O 0.67201 0.8141 0.34482 0.0
O892 O 0.64477 0.80988 0.35971 0.0
O893 O 0.65325 0.85535 0.36428 0.0
O894 O 0.661 0.84763 0.34166 0.0
C895 C 0.65149 0.80202 0.34908 0.0
O896 O 0.64963 0.81237 0.39252 0.0
O897 O 0.65463 0.84635 0.39577 0.0
O898 O 0.70112 0.86972 0.3838 0.0
O899 O 0.70533 0.88269 0.36126 0.0
O900 O 0.71811 0.84903 0.36354 0.0
O901 O 0.69292 0.82483 0.37842 0.0
C902 C 0.64981 0.85385 0.35 0.0
O903 O 0.70799 0.87484 0.33236 0.0
O904 O 0.71055 0.84456 0.33119 0.0
C905 C 0.65483 0.82792 0.41672 0.0
C906 C 0.66796 0.82904 0.44651 0.0
C907 C 0.64621 0.8121 0.43996 0.0
C908 C 0.63971 0.8116 0.42521 0.0
C909 C 0.67661 0.84476 0.42313 0.0
C910 C 0.68307 0.84538 0.4379 0.0
C911 C 0.64777 0.8269 0.40118 0.0
H912 H 0.7278 0.88237 0.27807 0.0
H913 H 0.73981 0.88552 0.30408 0.0
H914 H 0.67203 0.8322 0.31052 0.0
H915 H 0.6598 0.82899 0.28447 0.0
H916 H 0.63428 0.79903 0.44618 0.0
H917 H 0.62291 0.79836 0.4204 0.0
H918 H 0.6886 0.85746 0.41673 0.0
H919 H 0.69983 0.85883 0.44261 0.0
Tb920 Tb 0.1883 0.8379 0.37662 0.0
Eu921 Eu 0.17128 0.84856 0.34497 0.0
C922 C 0.16498 0.79984 0.35073 0.0
C923 C 0.21995 0.85192 0.35095 0.0
C924 C 0.19306 0.83259 0.4162 0.0
C925 C 0.18883 0.82133 0.44085 0.0
C926 C 0.19549 0.82002 0.42701 0.0
C927 C 0.18388 0.84654 0.4194 0.0
C928 C 0.17736 0.84798 0.43326 0.0
C929 C 0.17968 0.83532 0.44414 0.0
C930 C 0.19944 0.83048 0.40155 0.0
O931 O 0.18775 0.86919 0.38082 0.0
O932 O 0.19423 0.88204 0.35829 0.0
O933 O 0.14584 0.84663 0.36018 0.0
O934 O 0.15162 0.82478 0.37619 0.0
C935 C 0.19489 0.88583 0.3724 0.0
O936 O 0.17783 0.8718 0.32814 0.0
O937 O 0.14734 0.83851 0.32527 0.0
O938 O 0.15536 0.81065 0.345 0.0
O939 O 0.18196 0.80976 0.36121 0.0
O940 O 0.21886 0.85403 0.36507 0.0
O941 O 0.20197 0.84532 0.34147 0.0
C942 C 0.13942 0.83341 0.37088 0.0
O943 O 0.18309 0.81487 0.39228 0.0
O944 O 0.2113 0.84944 0.39567 0.0
C945 C 0.16569 0.85374 0.30434 0.0
C946 C 0.1788 0.85046 0.27638 0.0
C947 C 0.17028 0.86501 0.2797 0.0
C948 C 0.16378 0.8666 0.29354 0.0
C949 C 0.17399 0.83905 0.30108 0.0
C950 C 0.18038 0.83734 0.28721 0.0
C951 C 0.16044 0.85689 0.31917 0.0
H952 H 0.19104 0.81153 0.44902 0.0
H953 H 0.20246 0.8091 0.42473 0.0
H954 H 0.18161 0.85619 0.41114 0.0
H955 H 0.1701 0.85868 0.43538 0.0
H956 H 0.16863 0.87516 0.27157 0.0
H957 H 0.15755 0.87814 0.29588 0.0
H958 H 0.17588 0.8292 0.30934 0.0
H959 H 0.18712 0.8262 0.28508 0.0
Tb960 Tb 0.83979 0.66575 0.67913 0.0
Eu961 Eu 0.85666 0.68949 0.7133 0.0
C962 C 0.85777 0.64522 0.70289 0.0
C963 C 0.80583 0.64742 0.70315 0.0
C964 C 0.83387 0.66014 0.63861 0.0
C965 C 0.83187 0.65543 0.61221 0.0
C966 C 0.82683 0.64603 0.62553 0.0
C967 C 0.84591 0.68385 0.6382 0.0
C968 C 0.851 0.69329 0.62488 0.0
C969 C 0.84414 0.6792 0.6117 0.0
C970 C 0.82961 0.64999 0.65259 0.0
O971 O 0.82701 0.68919 0.68177 0.0
O972 O 0.85241 0.71454 0.70055 0.0
O973 O 0.8883 0.70327 0.70136 0.0
O974 O 0.87063 0.69835 0.67834 0.0
C975 C 0.83686 0.70913 0.68946 0.0
O976 O 0.85271 0.70675 0.73248 0.0
O977 O 0.87942 0.69813 0.73336 0.0
O978 O 0.8519 0.65456 0.71314 0.0
O979 O 0.85891 0.65136 0.68958 0.0
O980 O 0.81312 0.64196 0.69163 0.0
O981 O 0.81833 0.66703 0.71106 0.0
C982 C 0.88918 0.70756 0.68762 0.0
O983 O 0.84772 0.65323 0.66059 0.0
O984 O 0.81599 0.6532 0.66036 0.0
C985 C 0.86159 0.69607 0.75483 0.0
C986 C 0.84808 0.67848 0.7818 0.0
C987 C 0.85606 0.70158 0.78009 0.0
C988 C 0.86278 0.71027 0.76675 0.0
C989 C 0.85356 0.67298 0.75644 0.0
C990 C 0.84698 0.66429 0.76981 0.0
C991 C 0.86829 0.70546 0.74076 0.0
H992 H 0.82658 0.64404 0.60234 0.0
H993 H 0.81769 0.62769 0.62564 0.0
H994 H 0.85153 0.69504 0.6482 0.0
H995 H 0.86021 0.71164 0.62491 0.0
H996 H 0.85735 0.71302 0.78913 0.0
H997 H 0.86887 0.72812 0.76572 0.0
H998 H 0.85226 0.66163 0.74733 0.0
H999 H 0.84064 0.64638 0.77069 0.0
Tb1000 Tb 0.35965 0.18291 0.68087 0.0
Eu1001 Eu 0.33308 0.16945 0.71042 0.0
C1002 C 0.37669 0.21877 0.70816 0.0
C1003 C 0.37798 0.16648 0.70734 0.0
C1004 C 0.37117 0.19153 0.64234 0.0
C1005 C 0.3799 0.20409 0.6183 0.0
C1006 C 0.387 0.20487 0.63298 0.0
C1007 C 0.34808 0.17745 0.63692 0.0
C1008 C 0.34097 0.17656 0.62223 0.0
C1009 C 0.35681 0.18986 0.61273 0.0
C1010 C 0.37889 0.19266 0.65774 0.0
O1011 O 0.32713 0.15185 0.67422 0.0
O1012 O 0.32162 0.13709 0.6962 0.0
O1013 O 0.3092 0.17239 0.6937 0.0
O1014 O 0.33627 0.19614 0.67961 0.0
C1015 C 0.31742 0.13446 0.68198 0.0
O1016 O 0.31803 0.14532 0.72657 0.0
O1017 O 0.31618 0.17615 0.72762 0.0
O1018 O 0.35648 0.20751 0.71291 0.0
O1019 O 0.38266 0.20971 0.69771 0.0
O1020 O 0.37362 0.16519 0.69312 0.0
O1021 O 0.36715 0.17225 0.71629 0.0
C1022 C 0.31556 0.18686 0.68375 0.0
O1023 O 0.37744 0.20731 0.66651 0.0
O1024 O 0.37162 0.1732 0.66316 0.0
C1025 C 0.31897 0.16137 0.74977 0.0
C1026 C 0.33205 0.16518 0.77981 0.0
C1027 C 0.31027 0.1479 0.7736 0.0
C1028 C 0.3038 0.14604 0.75871 0.0
C1029 C 0.34066 0.17881 0.7559 0.0
C1030 C 0.34711 0.18077 0.77083 0.0
C1031 C 0.31238 0.15811 0.73402 0.0
H1032 H 0.39248 0.21484 0.61137 0.0
H1033 H 0.40486 0.21597 0.63703 0.0
H1034 H 0.33558 0.1671 0.64403 0.0
H1035 H 0.32312 0.16521 0.61828 0.0
H1036 H 0.29824 0.1358 0.78028 0.0
H1037 H 0.28703 0.13243 0.75412 0.0
H1038 H 0.35269 0.19064 0.7491 0.0
H1039 H 0.36409 0.1941 0.77529 0.0
Tb1040 Tb 0.85496 0.17173 0.70997 0.0
Eu1041 Eu 0.83871 0.18363 0.67864 0.0
C1042 C 0.83173 0.13439 0.6836 0.0
C1043 C 0.88677 0.18575 0.68434 0.0
C1044 C 0.8591 0.16565 0.74945 0.0
C1045 C 0.85408 0.15371 0.77392 0.0
C1046 C 0.86095 0.15259 0.76012 0.0
C1047 C 0.85028 0.17989 0.75273 0.0
C1048 C 0.84356 0.18115 0.76655 0.0
C1049 C 0.8453 0.16801 0.7773 0.0
C1050 C 0.86568 0.16375 0.73482 0.0
O1051 O 0.85428 0.20293 0.71444 0.0
O1052 O 0.86247 0.21656 0.69228 0.0
O1053 O 0.81327 0.18157 0.6939 0.0
O1054 O 0.81827 0.15866 0.70933 0.0
C1055 C 0.86224 0.21995 0.70631 0.0
O1056 O 0.84597 0.2074 0.66208 0.0
O1057 O 0.81472 0.17472 0.65909 0.0
O1058 O 0.82253 0.14564 0.67798 0.0
O1059 O 0.84834 0.14369 0.69434 0.0
O1060 O 0.88566 0.18767 0.69848 0.0
O1061 O 0.8689 0.17966 0.67488 0.0
C1062 C 0.80642 0.16779 0.70428 0.0
O1063 O 0.84939 0.14834 0.72543 0.0
O1064 O 0.87775 0.18281 0.7291 0.0
C1065 C 0.83311 0.18984 0.63819 0.0
C1066 C 0.84547 0.18637 0.61004 0.0
C1067 C 0.83685 0.20078 0.61347 0.0
C1068 C 0.83072 0.20248 0.62742 0.0
C1069 C 0.84148 0.17525 0.63482 0.0
C1070 C 0.84751 0.17345 0.62084 0.0
C1071 C 0.82825 0.19306 0.65311 0.0
H1072 H 0.85583 0.14354 0.78199 0.0
H1073 H 0.86761 0.14143 0.75777 0.0
H1074 H 0.84845 0.18992 0.74457 0.0
H1075 H 0.8366 0.19209 0.76874 0.0
H1076 H 0.83483 0.21077 0.60536 0.0
H1077 H 0.82441 0.21392 0.62986 0.0
H1078 H 0.84371 0.16555 0.64306 0.0
H1079 H 0.85434 0.16241 0.61862 0.0
H1080 H 0.35643 0.85922 0.06168 0.0
H1081 H 0.34274 0.91277 0.07405 0.0
H1082 H 0.39148 0.88681 0.0522 0.0
H1083 H 0.37776 0.94038 0.06451 0.0
H1084 H 0.45424 0.9865 0.06117 0.0
H1085 H 0.41862 0.95887 0.06983 0.0
H1086 H 0.40579 0.91137 0.0328 0.0
H1087 H 0.44188 0.93897 1.02424 0.0
C1088 C 0.36077 0.87685 0.06226 0.0
C1089 C 0.34672 0.88374 0.06865 0.0
C1090 C 0.38088 0.89269 0.05678 0.0
C1091 C 0.3875 0.91587 0.05755 0.0
C1092 C 0.37341 0.92274 0.06392 0.0
C1093 C 0.35331 0.9069 0.06941 0.0
C1094 C 0.44385 0.97021 0.0548 0.0
C1095 C 0.45102 0.96502 0.04197 0.0
C1096 C 0.42328 0.95437 0.05975 0.0
C1097 C 0.40923 0.93285 0.05202 0.0
C1098 C 0.4163 0.92767 0.03913 0.0
C1099 C 0.43694 0.94356 0.03417 0.0
H1100 H 0.1364 0.44423 0.05556 0.0
H1101 H 0.15858 0.49783 0.09033 0.0
H1102 H 0.10575 0.45085 0.04676 0.0
H1103 H 0.12805 0.50464 0.08145 0.0
H1104 H 0.05821 0.49761 0.06891 0.0
H1105 H 0.08715 0.48906 0.07858 0.0
H1106 H 0.10083 0.47874 0.03478 0.0
H1107 H 0.07163 0.48673 0.02512 0.0
C1108 C 0.1348 0.45751 0.06129 0.0
C1109 C 0.15004 0.47056 0.07362 0.0
C1110 C 0.11723 0.46135 0.05623 0.0
C1111 C 0.11446 0.4784 0.06332 0.0
C1112 C 0.12945 0.49118 0.07581 0.0
C1113 C 0.147 0.48728 0.08091 0.0
C1114 C 0.06733 0.49344 0.06134 0.0
C1115 C 0.06251 0.49283 0.04622 0.0
C1116 C 0.08405 0.48866 0.06689 0.0
C1117 C 0.09637 0.48316 0.05748 0.0
C1118 C 0.09146 0.48252 0.04237 0.0
C1119 C 0.07476 0.48726 0.03682 0.0
H1120 H 0.56462 0.69629 0.06025 0.0
H1121 H 0.58834 0.67754 0.09886 0.0
H1122 H 0.55335 0.65948 0.04757 0.0
H1123 H 0.57577 0.6403 0.08652 0.0
H1124 H 0.57049 0.58301 0.05687 0.0
H1125 H 0.58435 0.6213 0.06807 0.0
H1126 H 0.52489 0.62034 0.04711 0.0
H1127 H 0.51148 0.58237 0.03548 0.0
C1128 C 0.5675 0.68437 0.06603 0.0
C1129 C 0.57735 0.6899 0.0806 0.0
C1130 C 0.56074 0.66311 0.05882 0.0
C1131 C 0.56355 0.64684 0.06603 0.0
C1132 C 0.57358 0.65248 0.08055 0.0
C1133 C 0.58049 0.67376 0.08772 0.0
C1134 C 0.56041 0.59101 0.0546 0.0
C1135 C 0.53986 0.57963 0.0453 0.0
C1136 C 0.5683 0.61293 0.06109 0.0
C1137 C 0.5557 0.62392 0.05857 0.0
C1138 C 0.53523 0.61257 0.04914 0.0
C1139 C 0.52746 0.59072 0.04253 0.0
H1140 H 0.87512 0.35512 0.95696 0.0
H1141 H 0.89745 0.32215 0.98729 0.0
H1142 H 0.90305 0.39211 0.96958 0.0
H1143 H 0.92552 0.35918 0.99989 0.0
H1144 H 0.95767 0.42798 0.02721 0.0
H1145 H 0.92908 0.39094 1.01503 0.0
H1146 H 0.94398 0.4178 0.97327 0.0
H1147 H 0.97224 0.45501 0.98544 0.0
C1148 C 0.88608 0.35578 0.96629 0.0
C1149 C 0.88409 0.33567 0.97108 0.0
C1150 C 0.90214 0.377 0.97351 0.0
C1151 C 0.91667 0.37867 0.98571 0.0
C1152 C 0.91444 0.35853 0.99064 0.0
C1153 C 0.89833 0.33728 0.98343 0.0
C1154 C 0.95489 0.42602 1.01542 0.0
C1155 C 0.96727 0.44454 1.00732 0.0
C1156 C 0.93855 0.40471 1.00843 0.0
C1157 C 0.93417 0.40135 0.99316 0.0
C1158 C 0.94665 0.41984 0.98505 0.0
C1159 C 0.96298 0.44117 0.99204 0.0
H1160 H 0.66314 0.54047 0.96356 0.0
H1161 H 0.69559 0.55279 1.00753 0.0
H1162 H 0.6279 0.53393 0.97305 0.0
H1163 H 0.66038 0.54617 1.01699 0.0
H1164 H 0.58638 0.50849 0.02848 0.0
H1165 H 0.62167 0.51551 1.01889 0.0
H1166 H 0.61163 0.55344 0.98598 0.0
H1167 H 0.57617 0.54613 0.99538 0.0
C1168 C 0.66286 0.54202 0.97525 0.0
C1169 C 0.68225 0.54708 0.98476 0.0
C1170 C 0.64262 0.53824 0.9807 0.0
C1171 C 0.64121 0.53941 0.99581 0.0
C1172 C 0.66067 0.5447 1.00531 0.0
C1173 C 0.6809 0.5485 0.99986 0.0
C1174 C 0.59167 0.51834 1.0192 0.0
C1175 C 0.57836 0.52675 1.01274 0.0
C1176 C 0.61202 0.52248 1.01374 0.0
C1177 C 0.61956 0.53507 1.00165 0.0
C1178 C 0.60623 0.54345 0.99519 0.0
C1179 C 0.58594 0.53938 1.00067 0.0
H1180 H 0.47835 0.15705 1.01869 0.0
H1181 H 0.44746 0.11578 0.97763 0.0
H1182 H 0.4883 0.12944 0.02693 0.0
H1183 H 0.45888 0.08914 0.98543 0.0
H1184 H 0.4633 0.03403 1.00766 0.0
H1185 H 0.45101 0.06061 1.00106 0.0
H1186 H 0.51402 0.11628 1.02328 0.0
H1187 H 0.52582 0.08945 0.03043 0.0
C1188 C 0.47361 0.14208 1.01142 0.0
C1189 C 0.46213 0.13872 0.99746 0.0
C1190 C 0.47964 0.12639 1.01608 0.0
C1191 C 0.47452 0.10706 1.00684 0.0
C1192 C 0.46287 0.10364 0.99294 0.0
C1193 C 0.45662 0.11916 0.98835 0.0
C1194 C 0.47451 0.05194 1.01117 0.0
C1195 C 0.49556 0.05964 1.01954 0.0
C1196 C 0.46751 0.06723 1.00731 0.0
C1197 C 0.48156 0.09067 1.01154 0.0
C1198 C 0.50258 0.09834 1.02001 0.0
C1199 C 0.50944 0.08297 1.02404 0.0
H1200 H 0.68885 0.15719 1.00695 0.0
H1201 H 0.67159 0.10813 0.96997 0.0
H1202 H 0.65368 0.13079 1.01684 0.0
H1203 H 0.63628 0.08186 0.9798 0.0
H1204 H 0.56374 0.05307 0.99307 0.0
H1205 H 0.59971 0.07884 0.98391 0.0
H1206 H 0.63469 0.09398 0.02734 0.0
H1207 H 0.59848 0.06827 0.03663 0.0
C1208 C 0.67772 0.14068 1.00099 0.0
C1209 C 0.68314 0.13487 0.98762 0.0
C1210 C 0.65751 0.12554 1.00668 0.0
C1211 C 0.6421 0.10422 0.99911 0.0
C1212 C 0.64759 0.09829 0.98581 0.0
C1213 C 0.66785 0.11339 0.98016 0.0
C1214 C 0.57905 0.06187 1.00072 0.0
C1215 C 0.57814 0.05857 1.01563 0.0
C1216 C 0.59975 0.07656 0.99542 0.0
C1217 C 0.62013 0.08843 1.00486 0.0
C1218 C 0.61926 0.08524 1.01978 0.0
C1219 C 0.59851 0.07042 0.0251 0.0
H1220 H 0.87868 0.55549 0.99396 0.0
H1221 H 0.90098 0.5456 0.95302 0.0
H1222 H 0.90506 0.54599 1.0068 0.0
H1223 H 0.92728 0.53621 0.9658 0.0
H1224 H 0.98975 0.54618 0.99408 0.0
H1225 H 0.96261 0.55509 0.98199 0.0
H1226 H 0.91233 0.51465 1.01034 0.0
H1227 H 0.93967 0.50599 1.02267 0.0
C1228 C 0.88902 0.55108 0.98768 0.0
C1229 C 0.88782 0.55153 0.97246 0.0
C1230 C 0.90416 0.54564 0.99504 0.0
C1231 C 0.91847 0.54053 0.98735 0.0
C1232 C 0.91691 0.54054 0.97211 0.0
C1233 C 0.9018 0.54594 0.96477 0.0
C1234 C 0.97296 0.53922 0.99781 0.0
C1235 C 0.96695 0.52534 1.00937 0.0
C1236 C 0.9573 0.54421 0.99078 0.0
C1237 C 0.93521 0.5355 0.99512 0.0
C1238 C 0.92926 0.52182 1.00679 0.0
C1239 C 0.94492 0.51676 1.01382 0.0
H1240 H 0.47869 0.35104 0.96362 0.0
H1241 H 0.43113 0.32325 0.99582 0.0
H1242 H 0.49332 0.38924 0.97525 0.0
H1243 H 0.44547 0.36166 1.00739 0.0
H1244 H 0.49137 0.43321 0.03134 0.0
H1245 H 0.4783 0.39446 1.02107 0.0
H1246 H 0.48018 0.41579 0.97768 0.0
H1247 H 0.49374 0.45441 0.98787 0.0
C1248 C 0.47129 0.35315 0.97316 0.0
C1249 C 0.45362 0.33422 0.97873 0.0
C1250 C 0.47962 0.37504 0.97981 0.0
C1251 C 0.47038 0.37855 0.99215 0.0
C1252 C 0.4531 0.35953 0.99797 0.0
C1253 C 0.44484 0.33756 0.99134 0.0
C1254 C 0.48902 0.4296 1.01961 0.0
C1255 C 0.4937 0.44694 1.01043 0.0
C1256 C 0.48142 0.40738 1.01373 0.0
C1257 C 0.47832 0.40204 0.99856 0.0
C1258 C 0.48282 0.41938 0.98942 0.0
C1259 C 0.49048 0.44154 0.99528 0.0
H1260 H 0.16562 0.67626 0.08026 0.0
H1261 H 0.11104 0.69151 0.07967 0.0
H1262 H 0.13888 0.63835 0.06826 0.0
H1263 H 0.08433 0.65366 0.06768 0.0
H1264 H 0.03853 0.57613 0.0627 0.0
H1265 H 0.06583 0.61447 0.07365 0.0
H1266 H 0.1154 0.61801 0.04544 0.0
H1267 H 0.08823 0.57947 0.03462 0.0
C1268 C 0.14799 0.67165 0.07739 0.0
C1269 C 0.14046 0.6869 0.08102 0.0
C1270 C 0.13264 0.6499 0.07052 0.0
C1271 C 0.10939 0.64287 0.0671 0.0
C1272 C 0.102 0.65833 0.07042 0.0
C1273 C 0.11733 0.68005 0.07728 0.0
C1274 C 0.05524 0.58504 0.05881 0.0
C1275 C 0.06115 0.57466 0.04776 0.0
C1276 C 0.07086 0.60712 0.06504 0.0
C1277 C 0.0928 0.61939 0.06039 0.0
C1278 C 0.09874 0.60898 0.04938 0.0
C1279 C 0.0831 0.5869 0.04313 0.0
H1280 H 0.34709 0.48633 0.06532 0.0
H1281 H 0.36789 0.45101 0.09465 0.0
H1282 H 0.38016 0.49564 0.05198 0.0
H1283 H 0.40083 0.46047 0.08148 0.0
H1284 H 0.47113 0.50556 0.06737 0.0
H1285 H 0.43659 0.49534 0.07873 0.0
H1286 H 0.39811 0.47894 0.03638 0.0
H1287 H 0.4331 0.48948 0.02481 0.0
C1288 C 0.35853 0.48034 0.06884 0.0
C1289 C 0.35495 0.46818 0.08121 0.0
C1290 C 0.37749 0.48568 0.06119 0.0
C1291 C 0.39332 0.47906 0.06577 0.0
C1292 C 0.38928 0.46629 0.07784 0.0
C1293 C 0.37038 0.4609 0.08543 0.0
C1294 C 0.4554 0.49985 0.06038 0.0
C1295 C 0.45498 0.49829 0.04511 0.0
C1296 C 0.43549 0.49382 0.06695 0.0
C1297 C 0.41449 0.48608 0.05849 0.0
C1298 C 0.41403 0.48492 0.04321 0.0
C1299 C 0.43406 0.49087 0.03658 0.0
H1300 H 0.57713 0.90449 0.08167 0.0
H1301 H 0.55772 0.87168 0.03772 0.0
H1302 H 0.56627 0.93177 0.07432 0.0
H1303 H 0.54551 0.8982 0.03056 0.0
H1304 H 0.54634 0.96351 1.01965 0.0
H1305 H 0.55898 0.93706 0.02628 0.0
H1306 H 0.53252 0.93312 0.06789 0.0
H1307 H 0.52062 0.96004 0.06148 0.0
C1308 C 0.57067 0.90314 0.07041 0.0
C1309 C 0.56833 0.88584 0.0603 0.0
C1310 C 0.56408 0.91861 0.06624 0.0
C1311 C 0.55479 0.91709 0.05187 0.0
C1312 C 0.55275 0.9 0.04169 0.0
C1313 C 0.55949 0.8846 0.04585 0.0
C1314 C 0.54319 0.95695 0.03019 0.0
C1315 C 0.53258 0.96398 0.04005 0.0
C1316 C 0.55035 0.9417 0.03398 0.0
C1317 C 0.54691 0.93304 0.04766 0.0
C1318 C 0.53591 0.9398 0.05739 0.0
C1319 C 0.52893 0.95515 0.05366 0.0
H1320 H 0.02434 0.24791 0.41914 0.0
H1321 H 1.0063 0.19987 0.38144 0.0
H1322 H 0.06031 0.27371 0.4098 0.0
H1323 H 0.04217 0.22582 0.37205 0.0
H1324 H 0.10004 0.28859 0.35371 0.0
H1325 H 0.06302 0.26322 0.36227 0.0
H1326 H 0.09619 0.27506 0.40597 0.0
H1327 H 0.1329 0.30044 0.39756 0.0
C1328 C 0.02805 0.24278 0.4089 0.0
C1329 C 1.01237 0.22172 0.4011 0.0
C1330 C 0.04868 0.2576 0.40353 0.0
C1331 C 0.05418 0.25181 0.39019 0.0
C1332 C 0.03836 0.23095 0.38226 0.0
C1333 C 0.01776 0.21607 0.38766 0.0
C1334 C 0.09942 0.28575 0.36514 0.0
C1335 C 0.1195 0.29661 0.37492 0.0
C1336 C 0.07821 0.27115 0.37003 0.0
C1337 C 0.07661 0.2672 0.38483 0.0
C1338 C 0.09672 0.27799 0.39456 0.0
C1339 C 0.11785 0.29245 0.38968 0.0
H1340 H 0.79305 0.77666 0.41008 0.0
H1341 H 0.84243 0.8471 0.40629 0.0
H1342 H 0.76225 0.78288 0.40074 0.0
H1343 H 0.81176 0.85337 0.39706 0.0
H1344 H 0.75601 0.85043 0.36528 0.0
H1345 H 0.78573 0.84353 0.37542 0.0
H1346 H 0.74109 0.80197 0.40613 0.0
H1347 H 0.71101 0.8085 0.39575 0.0
C1348 C 0.79731 0.79354 0.40743 0.0
C1349 C 0.82025 0.81133 0.40883 0.0
C1350 C 0.77965 0.79712 0.40207 0.0
C1351 C 0.7845 0.81859 0.39801 0.0
C1352 C 0.8074 0.83648 0.39976 0.0
C1353 C 0.82502 0.8329 0.40507 0.0
C1354 C 0.75244 0.83979 0.37419 0.0
C1355 C 0.73106 0.83006 0.37969 0.0
C1356 C 0.7696 0.83595 0.38008 0.0
C1357 C 0.76593 0.82231 0.39168 0.0
C1358 C 0.74447 0.8124 0.39712 0.0
C1359 C 0.72724 0.81623 0.3912 0.0
H1360 H 0.22074 0.02198 0.39718 0.0
H1361 H 0.26982 0.0151 0.42558 0.0
H1362 H 0.20726 0.98421 0.38501 0.0
H1363 H 0.25598 0.9772 0.41359 0.0
H1364 H 0.20457 0.90099 0.4013 0.0
H1365 H 0.21958 0.9397 0.41223 0.0
H1366 H 0.22052 0.96266 0.36944 0.0
H1367 H 0.20538 0.92385 0.35842 0.0
C1368 C 0.22887 0.01258 0.40071 0.0
C1369 C 0.24628 0.02155 0.41244 0.0
C1370 C 0.2211 0.99091 0.39375 0.0
C1371 C 0.23045 0.97771 0.39844 0.0
C1372 C 0.24818 0.98685 0.40992 0.0
C1373 C 0.25607 1.00855 0.4168 0.0
C1374 C 0.20793 0.91425 0.3942 0.0
C1375 C 0.20376 0.90932 0.37898 0.0
C1376 C 0.21668 0.93646 0.40047 0.0
C1377 C 0.2213 0.9542 0.39168 0.0
C1378 C 0.21698 0.94928 0.37647 0.0
C1379 C 0.2084 0.92708 0.37018 0.0
H1380 H 0.54328 0.66091 0.32599 0.0
H1381 H 0.57203 0.6841 0.28571 0.0
H1382 H 0.57138 0.69767 0.33879 0.0
H1383 H 0.59929 0.72118 0.29835 0.0
H1384 H 0.65949 0.77825 0.32775 0.0
H1385 H 0.63276 0.74051 0.31557 0.0
H1386 H 0.58002 0.73633 0.34105 0.0
H1387 H 0.60683 0.77368 0.35349 0.0
C1388 C 0.5556 0.67381 0.31985 0.0
C1389 C 0.55529 0.66949 0.30479 0.0
C1390 C 0.57156 0.69502 0.32717 0.0
C1391 C 0.58759 0.71249 0.31961 0.0
C1392 C 0.58739 0.7081 0.30457 0.0
C1393 C 0.5715 0.68688 0.29727 0.0
C1394 C 0.64221 0.76926 0.33078 0.0
C1395 C 0.63536 0.77903 0.34162 0.0
C1396 C 0.62682 0.74764 0.32374 0.0
C1397 C 0.60419 0.73531 0.32731 0.0
C1398 C 0.59739 0.74512 0.33817 0.0
C1399 C 0.61278 0.76666 0.34525 0.0
H1400 H 0.33856 0.89851 0.30196 0.0
H1401 H 0.35075 0.8636 0.33611 0.0
H1402 H 0.30275 0.89044 0.31127 0.0
H1403 H 0.31507 0.85566 0.34544 0.0
H1404 H 0.26119 0.86543 0.36679 0.0
H1405 H 0.29731 0.87427 0.35761 0.0
H1406 H 0.26471 0.8588 0.31347 0.0
H1407 H 0.22877 0.85034 0.32259 0.0
C1408 C 0.33356 0.88898 0.31139 0.0
C1409 C 0.34766 0.88177 0.31828 0.0
C1410 C 0.313 0.88436 0.31674 0.0
C1411 C 0.30599 0.87241 0.32914 0.0
C1412 C 0.32009 0.86523 0.33603 0.0
C1413 C 0.3406 0.86981 0.33066 0.0
C1414 C 0.26171 0.86392 0.35513 0.0
C1415 C 0.242 0.85715 0.34546 0.0
C1416 C 0.28242 0.86888 0.34986 0.0
C1417 C 0.28398 0.86727 0.33478 0.0
C1418 C 0.26426 0.86054 0.32513 0.0
C1419 C 0.24356 0.85553 0.33039 0.0
H1420 H 0.167 0.49014 0.32403 0.0
H1421 H 0.1005 0.44877 0.33869 0.0
H1422 H 0.17815 0.46289 0.33151 0.0
H1423 H 0.1116 0.42135 0.34606 0.0
H1424 H 0.15074 0.39179 0.37141 0.0
H1425 H 0.13977 0.41952 0.36467 0.0
H1426 H 0.16658 0.42252 0.32332 0.0
H1427 H 0.17755 0.3949 0.32999 0.0
C1428 C 0.15483 0.47528 0.32894 0.0
C1429 C 0.13289 0.47157 0.3308 0.0
C1430 C 0.16114 0.4596 0.3331 0.0
C1431 C 0.14573 0.43999 0.33934 0.0
C1432 C 0.12388 0.4364 0.34137 0.0
C1433 C 0.11747 0.45198 0.33705 0.0
C1434 C 0.15433 0.39841 0.3609 0.0
C1435 C 0.16504 0.39116 0.35125 0.0
C1436 C 0.14793 0.41417 0.35702 0.0
C1437 C 0.15236 0.42318 0.34349 0.0
C1438 C 0.16317 0.41603 0.33388 0.0
C1439 C 0.16934 0.40011 0.33769 0.0
H1440 H 0.35138 0.44048 0.31225 0.0
H1441 H 0.3418 0.49523 0.32849 0.0
H1442 H 0.31652 0.4131 0.3221 0.0
H1443 H 0.30695 0.46792 0.33826 0.0
H1444 H 0.25815 0.41551 0.36654 0.0
H1445 H 0.29364 0.44245 0.35713 0.0
H1446 H 0.27552 0.39624 0.31844 0.0
H1447 H 0.24037 0.36917 0.32793 0.0
C1448 C 0.34174 0.44666 0.31781 0.0
C1449 C 0.34947 0.47009 0.31961 0.0
C1450 C 0.32173 0.43096 0.32346 0.0
C1451 C 0.3089 0.43827 0.33104 0.0
C1452 C 0.31659 0.46169 0.33275 0.0
C1453 C 0.33659 0.47737 0.32712 0.0
C1454 C 0.26177 0.41105 0.35605 0.0
C1455 C 0.24638 0.3901 0.34805 0.0
C1456 C 0.28208 0.42657 0.35061 0.0
C1457 C 0.2875 0.42157 0.337 0.0
C1458 C 0.27213 0.40056 0.32904 0.0
C1459 C 0.25186 0.38505 0.33449 0.0
H1460 H 0.56329 0.9101 0.32417 0.0
H1461 H 0.54157 0.85223 0.29277 0.0
H1462 H 0.59035 0.90148 0.33696 0.0
H1463 H 0.5685 0.84359 0.30554 0.0
H1464 H 0.63777 0.8518 0.32089 0.0
H1465 H 0.60947 0.85955 0.30929 0.0
H1466 H 0.5938 0.87421 0.35154 0.0
H1467 H 0.62253 0.86682 0.36323 0.0
C1468 C 0.56404 0.89535 0.32011 0.0
C1469 C 0.55037 0.88197 0.30736 0.0
C1470 C 0.57957 0.89041 0.32745 0.0
C1471 C 0.58179 0.87196 0.32221 0.0
C1472 C 0.56763 0.85823 0.3097 0.0
C1473 C 0.55215 0.86317 0.30238 0.0
C1474 C 0.62833 0.85667 0.32775 0.0
C1475 C 0.63247 0.85865 0.34302 0.0
C1476 C 0.61194 0.86097 0.32108 0.0
C1477 C 0.59921 0.86738 0.32947 0.0
C1478 C 0.60342 0.8695 0.34474 0.0
C1479 C 0.61983 0.86515 0.35144 0.0
H1480 H 0.15135 0.67155 0.3179 0.0
H1481 H 0.08203 0.65871 0.31438 0.0
H1482 H 0.16508 0.70984 0.32924 0.0
H1483 H 0.09571 0.69693 0.3258 0.0
H1484 H 0.13148 0.77455 0.32849 0.0
H1485 H 0.11754 0.73545 0.31907 0.0
H1486 H 0.16485 0.73156 0.35092 0.0
H1487 H 0.1792 0.771 0.36022 0.0
C1488 C 0.139 0.67678 0.31977 0.0
C1489 C 0.11562 0.66217 0.31516 0.0
C1490 C 0.14687 0.69873 0.32628 0.0
C1491 C 0.13151 0.70651 0.32832 0.0
C1492 C 0.10804 0.69162 0.32411 0.0
C1493 C 0.10019 0.66972 0.31759 0.0
C1494 C 0.13893 0.76541 0.33353 0.0
C1495 C 0.15649 0.77595 0.34512 0.0
C1496 C 0.1308 0.74289 0.32818 0.0
C1497 C 0.13999 0.73033 0.33429 0.0
C1498 C 0.15755 0.74085 0.34589 0.0
C1499 C 0.16571 0.76342 0.35125 0.0
H1500 H 0.78783 0.03217 0.40146 0.0
H1501 H 0.82396 1.0053 0.426 0.0
H1502 H 0.76044 0.99392 0.39012 0.0
H1503 H 0.79688 0.96716 0.41444 0.0
H1504 H 0.72832 0.89993 0.40403 0.0
H1505 H 0.75606 0.93827 0.41491 0.0
H1506 H 0.75846 0.96392 0.37288 0.0
H1507 H 0.73059 0.92564 0.36198 0.0
C1508 C 0.78995 0.0181 0.4044 0.0
C1509 C 0.80805 0.02177 0.41464 0.0
C1510 C 0.77438 0.99623 0.39782 0.0
C1511 C 0.77644 0.97749 0.40142 0.0
C1512 C 0.79467 0.9812 0.41155 0.0
C1513 C 0.81034 1.00309 0.41805 0.0
C1514 C 0.73472 0.91373 0.3971 0.0
C1515 C 0.72718 0.90967 0.38212 0.0
C1516 C 0.75074 0.93569 0.40333 0.0
C1517 C 0.7595 0.95413 0.39476 0.0
C1518 C 0.75188 0.95011 0.37981 0.0
C1519 C 0.73597 0.92813 0.37355 0.0
H1520 H 0.0292 0.83687 0.41245 0.0
H1521 H 1.01271 0.76688 0.41153 0.0
H1522 H 0.0619 0.84573 0.39891 0.0
H1523 H 0.04526 0.77569 0.39805 0.0
H1524 H 0.1208 0.80554 0.39231 0.0
H1525 H 0.08643 0.79668 0.40352 0.0
H1526 H 0.07439 0.83934 0.37553 0.0
H1527 H 0.10932 0.84859 0.36431 0.0
C1528 C 0.03233 0.8233 0.40918 0.0
C1529 C 0.01844 0.80121 0.41325 0.0
C1530 C 0.05109 0.82838 0.40141 0.0
C1531 C 0.05642 0.8115 0.39752 0.0
C1532 C 0.04201 0.78925 0.40114 0.0
C1533 C 0.02331 0.78419 0.40889 0.0
C1534 C 0.11087 0.81302 0.38843 0.0
C1535 C 0.11789 0.82775 0.37731 0.0
C1536 C 0.09099 0.80779 0.39484 0.0
C1537 C 0.07747 0.81713 0.39038 0.0
C1538 C 0.08446 0.83194 0.37929 0.0
C1539 C 0.10442 0.83714 0.3728 0.0
H1540 H 0.19219 0.19216 0.39603 0.0
H1541 H 0.26164 0.2333 0.38575 0.0
H1542 H 0.18319 0.22046 0.38758 0.0
H1543 H 0.25259 0.2616 0.3772 0.0
H1544 H 0.23299 0.31787 0.38329 0.0
H1545 H 0.24238 0.28892 0.38947 0.0
H1546 H 0.18011 0.23729 0.36426 0.0
H1547 H 0.17063 0.26622 0.35802 0.0
C1548 C 0.20549 0.20723 0.39191 0.0
C1549 C 0.22763 0.2106 0.39159 0.0
C1550 C 0.2003 0.22332 0.38697 0.0
C1551 C 0.2172 0.24322 0.38175 0.0
C1552 C 0.23928 0.24647 0.38126 0.0
C1553 C 0.2444 0.23023 0.38604 0.0
C1554 C 0.22133 0.30036 0.379 0.0
C1555 C 0.20102 0.29433 0.3702 0.0
C1556 C 0.2268 0.28383 0.38247 0.0
C1557 C 0.21197 0.26088 0.37735 0.0
C1558 C 0.19177 0.25485 0.36844 0.0
C1559 C 0.18641 0.27143 0.36482 0.0
H1560 H 0.67482 0.57896 0.73968 0.0
H1561 H 0.6891 0.52549 0.72835 0.0
H1562 H 0.70977 0.60641 0.73 0.0
H1563 H 0.72409 0.55292 0.71872 0.0
H1564 H 0.77453 0.60438 0.69049 0.0
H1565 H 0.73835 0.57695 0.69905 0.0
H1566 H 0.75064 0.6252 0.73548 0.0
H1567 H 0.78634 0.65265 0.72683 0.0
C1568 C 0.68551 0.57308 0.73524 0.0
C1569 C 0.67911 0.54999 0.73482 0.0
C1570 C 0.70557 0.58883 0.72967 0.0
C1571 C 0.71981 0.58192 0.72355 0.0
C1572 C 0.71337 0.55881 0.7231 0.0
C1573 C 0.6933 0.54307 0.72866 0.0
C1574 C 0.76944 0.60918 0.70028 0.0
C1575 C 0.7834 0.63078 0.70793 0.0
C1576 C 0.74875 0.59339 0.70524 0.0
C1577 C 0.74152 0.59883 0.71798 0.0
C1578 C 0.75543 0.6205 0.72553 0.0
C1579 C 0.77604 0.63625 0.72058 0.0
H1580 H 0.47029 0.11369 0.72298 0.0
H1581 H 0.49177 0.16704 0.75783 0.0
H1582 H 0.43959 0.12013 0.71401 0.0
H1583 H 0.46116 0.17365 0.74879 0.0
H1584 H 0.39101 0.16582 0.73602 0.0
H1585 H 0.42018 0.15765 0.74576 0.0
H1586 H 0.43453 0.14799 0.70203 0.0
H1587 H 0.40508 0.15562 0.69229 0.0
C1588 C 0.46854 0.12689 0.72869 0.0
C1589 C 0.48359 0.13992 0.74109 0.0
C1590 C 0.45093 0.13062 0.72353 0.0
C1591 C 0.44793 0.14752 0.7306 0.0
C1592 C 0.46275 0.16029 0.74316 0.0
C1593 C 0.48033 0.15651 0.74835 0.0
C1594 C 0.40033 0.16188 0.72847 0.0
C1595 C 0.39562 0.16135 0.71335 0.0
C1596 C 0.41718 0.15732 0.73407 0.0
C1597 C 0.42975 0.15212 0.7247 0.0
C1598 C 0.42497 0.15156 0.70959 0.0
C1599 C 0.40813 0.15609 0.70399 0.0
H1600 H 0.9419 0.36361 0.73771 0.0
H1601 H 0.87529 0.34062 0.75219 0.0
H1602 H 0.92846 0.32534 0.72619 0.0
H1603 H 0.86182 0.30246 0.74059 0.0
H1604 H 0.85693 0.23253 0.73361 0.0
H1605 H 0.8704 0.27095 0.74464 0.0
H1606 H 0.89971 0.29847 0.7053 0.0
H1607 H 0.88624 0.26006 0.6942 0.0
C1608 C 0.9244 0.35037 0.73841 0.0
C1609 C 0.90963 0.35506 0.74583 0.0
C1610 C 0.91668 0.32855 0.73174 0.0
C1611 C 0.89412 0.31095 0.73254 0.0
C1612 C 0.87935 0.31567 0.73992 0.0
C1613 C 0.88699 0.33753 0.74644 0.0
C1614 C 0.86625 0.24676 0.7273 0.0
C1615 C 0.87049 0.24324 0.71302 0.0
C1616 C 0.87385 0.26873 0.7336 0.0
C1617 C 0.88605 0.28766 0.72581 0.0
C1618 C 0.89047 0.28419 0.71158 0.0
C1619 C 0.88265 0.26218 0.70522 0.0
H1620 H 0.20519 0.01802 0.62853 0.0
H1621 H 0.23948 0.98955 0.65331 0.0
H1622 H 0.23245 0.05579 0.64058 0.0
H1623 H 0.26705 0.02738 0.6651 0.0
H1624 H 0.29624 0.09428 0.69437 0.0
H1625 H 0.2686 0.05662 0.68255 0.0
H1626 H 0.27347 0.08475 0.64121 0.0
H1627 H 0.30103 0.12257 0.65305 0.0
C1628 C 0.21847 0.01981 0.63661 0.0
C1629 C 0.22015 1.00077 0.63998 0.0
C1630 C 0.23424 0.04149 0.64339 0.0
C1631 C 0.25197 0.04461 0.65376 0.0
C1632 C 0.2535 0.02553 0.65724 0.0
C1633 C 0.23782 1.00388 0.65039 0.0
C1634 C 0.29147 0.09249 0.68275 0.0
C1635 C 0.30088 0.1115 0.67467 0.0
C1636 C 0.27568 0.07085 0.67597 0.0
C1637 C 0.26882 0.06767 0.66094 0.0
C1638 C 0.27821 0.08666 0.65284 0.0
C1639 C 0.29412 0.10832 0.65961 0.0
H1640 H 1.00468 0.23091 0.63482 0.0
H1641 H 0.01717 0.19643 0.66913 0.0
H1642 H 0.96902 0.22307 0.64426 0.0
H1643 H 0.98161 0.18868 0.67857 0.0
H1644 H 0.92803 0.19885 0.70007 0.0
H1645 H 0.96397 0.20729 0.69076 0.0
H1646 H 0.93105 0.19189 0.64671 0.0
H1647 H 0.89533 0.18388 0.65595 0.0
C1648 C 0.99977 0.22151 0.6443 0.0
C1649 C 1.01392 0.21438 0.6512 0.0
C1650 C 0.97929 0.21702 0.64973 0.0
C1651 C 0.9724 0.20527 0.66222 0.0
C1652 C 0.98653 0.19812 0.6691 0.0
C1653 C 1.00698 0.20258 0.66367 0.0
C1654 C 0.92844 0.19727 0.6884 0.0
C1655 C 0.90871 0.19068 0.67879 0.0
C1656 C 0.94905 0.202 0.68305 0.0
C1657 C 0.95048 0.20031 0.66796 0.0
C1658 C 0.93073 0.19371 0.65838 0.0
C1659 C 0.91014 0.18895 0.66371 0.0
H1660 H 0.76275 0.77581 0.65986 0.0
H1661 H 0.83199 0.83095 0.672 0.0
H1662 H 0.77394 0.74865 0.66734 0.0
H1663 H 0.84324 0.8038 0.67938 0.0
H1664 H 0.85004 0.75052 0.70398 0.0
H1665 H 0.83826 0.77766 0.69754 0.0
H1666 H 0.79674 0.73284 0.65941 0.0
H1667 H 0.80808 0.70552 0.66598 0.0
C1668 C 0.78038 0.78211 0.66407 0.0
C1669 C 0.79649 0.80552 0.66532 0.0
C1670 C 0.78681 0.76655 0.66833 0.0
C1671 C 0.80951 0.77404 0.67391 0.0
C1672 C 0.82555 0.79748 0.67532 0.0
C1673 C 0.8191 0.81305 0.67109 0.0
C1674 C 0.83839 0.74644 0.69423 0.0
C1675 C 0.82997 0.7258 0.68553 0.0
C1676 C 0.83172 0.76206 0.6905 0.0
C1677 C 0.81651 0.75741 0.67798 0.0
C1678 C 0.80817 0.7368 0.66926 0.0
C1679 C 0.81479 0.72118 0.673 0.0
H1680 H 0.02275 0.82164 0.6742 0.0
H1681 H 1.00483 0.77339 0.63665 0.0
H1682 H 0.98748 0.79522 0.68399 0.0
H1683 H 0.96945 0.74708 0.6464 0.0
H1684 H 0.89711 0.71853 0.65976 0.0
H1685 H 0.93317 0.74427 0.65073 0.0
H1686 H 0.96801 0.75823 0.69412 0.0
H1687 H 0.93167 0.73256 0.70329 0.0
C1688 C 1.01145 0.8053 0.6681 0.0
C1689 C 0.0167 0.79971 0.6546 0.0
C1690 C 0.99118 0.79014 0.67373 0.0
C1691 C 0.97557 0.76904 0.66598 0.0
C1692 C 0.98091 0.76334 0.65255 0.0
C1693 C 1.00121 0.77846 0.64694 0.0
C1694 C 0.9124 0.72706 0.66744 0.0
C1695 C 0.91141 0.72345 0.6823 0.0
C1696 C 0.93316 0.74173 0.6622 0.0
C1697 C 0.95354 0.75327 0.67167 0.0
C1698 C 0.9526 0.74976 0.68655 0.0
C1699 C 0.93177 0.73497 0.6918 0.0
H1700 H 0.19556 0.18583 0.64202 0.0
H1701 H 0.24983 0.25597 0.64428 0.0
H1702 H 0.22186 0.17612 0.65468 0.0
H1703 H 0.27606 0.24629 0.6569 0.0
H1704 H 0.32247 0.21594 0.66275 0.0
H1705 H 0.29544 0.22559 0.65135 0.0
H1706 H 0.24415 0.18134 0.67792 0.0
H1707 H 0.27112 0.17135 0.68921 0.0
C1708 C 0.213 0.19924 0.64539 0.0
C1709 C 0.2206 0.22166 0.64201 0.0
C1710 C 0.2281 0.19367 0.65265 0.0
C1711 C 0.25116 0.21038 0.65671 0.0
C1712 C 0.25856 0.23289 0.65366 0.0
C1713 C 0.2435 0.23845 0.64643 0.0
C1714 C 0.30546 0.20827 0.66621 0.0
C1715 C 0.29905 0.19288 0.67694 0.0
C1716 C 0.28997 0.21392 0.65972 0.0
C1717 C 0.26761 0.20433 0.66375 0.0
C1718 C 0.26115 0.18889 0.67445 0.0
C1719 C 0.27668 0.18326 0.68098 0.0
H1720 H 0.78341 0.98931 0.66675 0.0
H1721 H 0.78721 0.01433 0.62439 0.0
H1722 H 0.79729 0.0276 0.6783 0.0
H1723 H 0.80088 0.0524 0.6359 0.0
H1724 H 0.79923 0.11064 0.6606 0.0
H1725 H 0.78575 0.07218 0.65001 0.0
H1726 H 0.83193 0.06614 0.68158 0.0
H1727 H 0.8453 0.1047 0.69242 0.0
C1728 C 0.78735 1.00299 0.65991 0.0
C1729 C 0.78402 0.99872 0.64465 0.0
C1730 C 0.7953 0.0249 0.66653 0.0
C1731 C 0.80003 0.04298 0.65801 0.0
C1732 C 0.79696 0.03874 0.64276 0.0
C1733 C 0.78909 0.01691 0.63617 0.0
C1734 C 0.80653 0.10117 0.66535 0.0
C1735 C 0.82342 0.11082 0.67735 0.0
C1736 C 0.79887 0.07913 0.6592 0.0
C1737 C 0.80787 0.06617 0.6649 0.0
C1738 C 0.82454 0.07566 0.67702 0.0
C1739 C 0.83229 0.09779 0.68317 0.0
H1740 H 0.49802 0.3438 0.74705 0.0
H1741 H 0.44318 0.35856 0.7476 0.0
H1742 H 0.47119 0.30591 0.73506 0.0
H1743 H 0.41638 0.32072 0.73562 0.0
H1744 H 0.37097 0.24312 0.73024 0.0
H1745 H 0.39827 0.2814 0.74131 0.0
H1746 H 0.4473 0.2858 0.71235 0.0
H1747 H 0.42016 0.24735 0.70142 0.0
C1748 C 0.48031 0.33909 0.74443 0.0
C1749 C 0.47275 0.3542 0.74837 0.0
C1750 C 0.46491 0.31734 0.73757 0.0
C1751 C 0.44158 0.31019 0.73447 0.0
C1752 C 0.43413 0.32549 0.73811 0.0
C1753 C 0.44951 0.34721 0.74497 0.0
C1754 C 0.38756 0.25222 0.72621 0.0
C1755 C 0.39333 0.2421 0.71492 0.0
C1756 C 0.40318 0.27426 0.73251 0.0
C1757 C 0.42497 0.28674 0.72769 0.0
C1758 C 0.43076 0.27659 0.71643 0.0
C1759 C 0.41513 0.25456 0.71011 0.0
H1760 H 0.67925 0.10158 0.74451 0.0
H1761 H 0.69694 0.17198 0.74632 0.0
H1762 H 0.71175 0.11026 0.731 0.0
H1763 H 0.72962 0.18072 0.73278 0.0
H1764 H 0.77697 0.18389 0.69813 0.0
H1765 H 0.74209 0.17479 0.70935 0.0
H1766 H 0.75285 0.13047 0.73648 0.0
H1767 H 0.78716 0.13917 0.72525 0.0
C1768 C 0.69011 0.11895 0.74206 0.0
C1769 C 0.68558 0.13612 0.74667 0.0
C1770 C 0.70878 0.12394 0.7343 0.0
C1771 C 0.72352 0.14626 0.73093 0.0
C1772 C 0.71855 0.16331 0.73508 0.0
C1773 C 0.6998 0.1583 0.74285 0.0
C1774 C 0.7718 0.1721 0.70643 0.0
C1775 C 0.7849 0.1622 0.7107 0.0
C1776 C 0.75187 0.16699 0.71292 0.0
C1777 C 0.74453 0.15177 0.72377 0.0
C1778 C 0.75767 0.14192 0.72798 0.0
C1779 C 0.77752 0.14705 0.72156 0.0
H1780 H 0.92725 0.56939 0.7195 0.0
H1781 H 0.86004 0.52759 0.73309 0.0
H1782 H 0.91636 0.59689 0.71194 0.0
H1783 H 0.84912 0.55492 0.72542 0.0
H1784 H 0.85039 0.62334 0.7276 0.0
H1785 H 0.86068 0.59515 0.73402 0.0
H1786 H 0.8888 0.59931 0.69305 0.0
H1787 H 0.87851 0.62763 0.68655 0.0
C1788 C 0.91016 0.56609 0.72084 0.0
C1789 C 0.89449 0.54637 0.72688 0.0
C1790 C 0.90388 0.58171 0.71641 0.0
C1791 C 0.88191 0.57803 0.71811 0.0
C1792 C 0.86622 0.55826 0.72408 0.0
C1793 C 0.87241 0.54254 0.72836 0.0
C1794 C 0.85873 0.61825 0.71993 0.0
C1795 C 0.86364 0.62775 0.70656 0.0
C1796 C 0.8645 0.602 0.72358 0.0
C1797 C 0.87551 0.59503 0.71403 0.0
C1798 C 0.88046 0.60451 0.70066 0.0
C1799 C 0.87445 0.62061 0.69692 0.0
H1800 H 0.46711 0.92962 0.18764 0.0
H1801 H 0.48567 0.99696 0.20567 0.0
H1802 H 0.47892 0.94418 0.16426 0.0
H1803 H 0.49782 0.01164 0.18241 0.0
H1804 H 0.49422 0.02581 0.1349 0.0
H1805 H 0.48281 0.01103 0.15823 0.0
H1806 H 0.51126 0.96741 0.15177 0.0
H1807 H 0.52235 0.98202 0.12831 0.0
C1808 C 0.47397 0.94759 0.18666 0.0
C1809 C 0.47535 0.96209 0.19853 0.0
C1810 C 0.48079 0.95598 0.17325 0.0
C1811 C 0.48928 0.97912 0.17136 0.0
C1812 C 0.49094 0.99365 0.18332 0.0
C1813 C 0.48402 0.98524 0.1967 0.0
C1814 C 0.49819 0.01318 0.1385 0.0
C1815 C 0.50925 1.00514 0.12972 0.0
C1816 C 0.49168 1.00471 0.15192 0.0
C1817 C 0.49615 0.98804 0.15698 0.0
C1818 C 0.5072 0.97998 0.14817 0.0
C1819 C 0.5136 0.98838 0.13471 0.0
H1820 H 0.02483 0.5229 0.20802 0.0
H1821 H 0.05673 0.48417 0.19604 0.0
H1822 H 1.0138 0.52293 0.18239 0.0
H1823 H 0.04468 0.48319 0.17048 0.0
H1824 H 0.04162 0.5062 0.1256 0.0
H1825 H 0.05329 0.50791 0.15134 0.0
H1826 H 0.98814 0.49817 0.16186 0.0
H1827 H 0.97692 0.49763 0.13617 0.0
C1828 C 0.02946 0.51435 0.19993 0.0
C1829 C 0.04173 0.50358 0.20411 0.0
C1830 C 0.02289 0.51414 0.18523 0.0
C1831 C 0.02838 0.5031 0.17435 0.0
C1832 C 0.04044 0.49213 0.17855 0.0
C1833 C 0.04707 0.4924 0.19323 0.0
C1834 C 0.02992 0.5048 0.13342 0.0
C1835 C 1.00832 0.50178 0.12879 0.0
C1836 C 0.03648 0.50545 0.14817 0.0
C1837 C 0.0216 0.50302 0.15868 0.0
C1838 C 1.00011 0.50029 0.15408 0.0
C1839 C 0.99357 0.49971 0.13932 0.0
H1840 H 0.43691 0.48736 0.18422 0.0
H1841 H 0.50627 0.53499 0.20265 0.0
H1842 H 0.4504 0.48648 0.1606 0.0
H1843 H 0.51961 0.53496 0.17888 0.0
H1844 H 0.53877 0.51076 0.13799 0.0
H1845 H 0.52542 0.51132 0.16171 0.0
H1846 H 0.46545 0.50943 0.14087 0.0
H1847 H 0.47825 0.50776 0.11712 0.0
C1848 C 0.45505 0.49763 0.18326 0.0
C1849 C 0.47048 0.51122 0.19539 0.0
C1850 C 0.46276 0.49736 0.16964 0.0
C1851 C 0.48611 0.51071 0.16777 0.0
C1852 C 0.50155 0.52428 0.17991 0.0
C1853 C 0.49384 0.52451 0.19354 0.0
C1854 C 0.52264 0.51027 0.13845 0.0
C1855 C 0.50959 0.50916 0.1256 0.0
C1856 C 0.5151 0.51086 0.15208 0.0
C1857 C 0.49432 0.51041 0.15325 0.0
C1858 C 0.48138 0.50951 0.1404 0.0
C1859 C 0.4889 0.50888 0.12677 0.0
H1860 H 0.97528 0.54162 0.86159 0.0
H1861 H 1.00311 0.49855 0.8511 0.0
H1862 H 0.98752 0.5438 0.88728 0.0
H1863 H 1.01423 0.49972 0.87687 0.0
H1864 H 0.05121 0.52446 0.92267 0.0
H1865 H 0.04074 0.52438 0.89694 0.0
H1866 H 0.97781 0.52052 0.90715 0.0
H1867 H 0.98888 0.52187 0.93296 0.0
C1868 C 0.98411 0.5327 0.86474 0.0
C1869 C 0.98821 0.51992 0.85425 0.0
C1870 C 0.99084 0.53368 0.87951 0.0
C1871 C 1.00176 0.52183 0.88418 0.0
C1872 C 1.00606 0.50924 0.87367 0.0
C1873 C 0.99943 0.50834 0.85889 0.0
C1874 C 0.03528 0.5239 0.91946 0.0
C1875 C 0.02093 0.52324 0.92992 0.0
C1876 C 0.02913 0.52355 0.90467 0.0
C1877 C 1.00842 0.52242 0.89994 0.0
C1878 C 0.99403 0.5217 0.9104 0.0
C1879 C 1.00023 0.52215 0.9252 0.0
H1880 H 0.56031 0.48483 0.86582 0.0
H1881 H 0.5558 0.54351 0.85521 0.0
H1882 H 0.54779 0.48699 0.88961 0.0
H1883 H 0.54288 0.54549 0.8789 0.0
H1884 H 0.54327 0.55673 0.92813 0.0
H1885 H 0.55565 0.55462 0.90428 0.0
H1886 H 0.51545 0.4812 0.90138 0.0
H1887 H 0.50345 0.48339 0.92536 0.0
C1888 C 0.55641 0.49806 0.86851 0.0
C1889 C 0.55908 0.514 0.8586 0.0
C1890 C 0.54917 0.49928 0.88216 0.0
C1891 C 0.54426 0.51641 0.88624 0.0
C1892 C 0.54686 0.5323 0.87628 0.0
C1893 C 0.55424 0.53116 0.86266 0.0
C1894 C 0.53695 0.54015 0.92235 0.0
C1895 C 0.52238 0.52023 0.92867 0.0
C1896 C 0.54401 0.53892 0.90863 0.0
C1897 C 0.53659 0.51773 0.90083 0.0
C1898 C 0.52187 0.49781 0.90714 0.0
C1899 C 0.51493 0.49905 0.9209 0.0
H1900 H 0.5127 0.0772 0.86537 0.0
H1901 H 0.56792 0.06319 0.86358 0.0
H1902 H 0.50504 0.06157 0.88877 0.0
H1903 H 0.56023 0.0475 0.88709 0.0
H1904 H 0.52364 0.99938 0.92183 0.0
H1905 H 0.53211 0.01535 0.8985 0.0
H1906 H 0.52087 0.06939 0.91391 0.0
H1907 H 0.5115 0.05291 0.93702 0.0
C1908 C 0.52342 0.07104 0.87004 0.0
C1909 C 0.54105 0.07162 0.86257 0.0
C1910 C 0.519 0.06205 0.8835 0.0
C1911 C 0.53206 0.05333 0.8899 0.0
C1912 C 0.54964 0.0538 0.88242 0.0
C1913 C 0.55406 0.06282 0.86892 0.0
C1914 C 0.52275 0.01455 0.92021 0.0
C1915 C 0.51675 0.02476 0.93133 0.0
C1916 C 0.52791 0.02388 0.90687 0.0
C1917 C 0.52717 0.04367 0.90426 0.0
C1918 C 0.52135 0.05399 0.91544 0.0
C1919 C 0.51622 0.04467 0.92878 0.0
H1920 H 0.14963 0.32588 0.53687 0.0
H1921 H 0.13471 0.25921 0.51994 0.0
H1922 H 0.16246 0.34046 0.51371 0.0
H1923 H 0.14717 0.27365 0.49663 0.0
H1924 H 0.19141 0.31233 0.46106 0.0
H1925 H 0.17955 0.29759 0.48442 0.0
H1926 H 0.14826 0.33894 0.48925 0.0
H1927 H 0.16047 0.35389 0.46609 0.0
C1928 C 0.14891 0.31427 0.52815 0.0
C1929 C 0.14105 0.29134 0.53027 0.0
C1930 C 0.15623 0.32262 0.51483 0.0
C1931 C 0.15576 0.30825 0.50319 0.0
C1932 C 0.1481 0.28534 0.50537 0.0
C1933 C 0.1409 0.27702 0.51874 0.0
C1934 C 0.18189 0.31816 0.46709 0.0
C1935 C 0.17702 0.3344 0.46173 0.0
C1936 C 0.17504 0.30968 0.48049 0.0
C1937 C 0.163 0.31711 0.48883 0.0
C1938 C 0.15792 0.33316 0.48334 0.0
C1939 C 0.16489 0.34172 0.47002 0.0
H1940 H 0.6771 0.80269 0.53746 0.0
H1941 H 0.73879 0.86648 0.53396 0.0
H1942 H 0.66532 0.8005 0.51154 0.0
H1943 H 0.72685 0.86448 0.50817 0.0
H1944 H 0.70992 0.8391 0.45948 0.0
H1945 H 0.72135 0.84062 0.48528 0.0
H1946 H 0.65303 0.82137 0.49496 0.0
H1947 H 0.64162 0.82029 0.46919 0.0
C1948 C 0.68814 0.8162 0.53114 0.0
C1949 C 0.70884 0.83477 0.53773 0.0
C1950 C 0.68132 0.81504 0.51635 0.0
C1951 C 0.69518 0.83232 0.50784 0.0
C1952 C 0.71591 0.85082 0.51443 0.0
C1953 C 0.72263 0.85207 0.52922 0.0
C1954 C 0.69737 0.83544 0.4671 0.0
C1955 C 0.67485 0.82964 0.46223 0.0
C1956 C 0.70393 0.83625 0.48188 0.0
C1957 C 0.68808 0.83112 0.49213 0.0
C1958 C 0.66553 0.82512 0.48728 0.0
C1959 C 0.659 0.82447 0.47251 0.0
H1960 H 0.14421 0.81518 0.53334 0.0
H1961 H 0.13032 0.86779 0.52129 0.0
H1962 H 0.15698 0.81377 0.50951 0.0
H1963 H 0.14266 0.86614 0.49735 0.0
H1964 H 0.1873 0.87314 0.46096 0.0
H1965 H 0.17543 0.87509 0.48503 0.0
H1966 H 0.14319 0.80199 0.48443 0.0
H1967 H 0.15546 0.80018 0.46051 0.0
C1968 C 0.14369 0.8263 0.52554 0.0
C1969 C 0.13623 0.84158 0.52922 0.0
C1970 C 0.15097 0.82548 0.51185 0.0
C1971 C 0.15084 0.83981 0.50143 0.0
C1972 C 0.14339 0.85511 0.50514 0.0
C1973 C 0.13625 0.85603 0.51887 0.0
C1974 C 0.17758 0.85749 0.46595 0.0
C1975 C 0.17237 0.83651 0.45882 0.0
C1976 C 0.17071 0.85858 0.47975 0.0
C1977 C 0.15832 0.8387 0.48674 0.0
C1978 C 0.15306 0.81771 0.47955 0.0
C1979 C 0.16006 0.81665 0.4658 0.0
H1980 H 0.66008 0.8259 0.18533 0.0
H1981 H 0.64084 0.87595 0.19624 0.0
H1982 H 0.67212 0.82704 0.21097 0.0
H1983 H 0.65333 0.87736 0.22184 0.0
H1984 H 0.70165 0.89116 0.26337 0.0
H1985 H 0.68956 0.88983 0.23769 0.0
H1986 H 0.65444 0.81639 0.2343 0.0
H1987 H 0.6669 0.81774 0.25998 0.0
C1988 C 0.65828 0.83705 0.19318 0.0
C1989 C 0.64944 0.85081 0.1887 0.0
C1990 C 0.66521 0.83771 0.20787 0.0
C1991 C 0.66364 0.85226 0.2184 0.0
C1992 C 0.655 0.86617 0.21394 0.0
C1993 C 0.64792 0.8654 0.19926 0.0
C1994 C 0.69149 0.87474 0.25711 0.0
C1995 C 0.68529 0.85455 0.26367 0.0
C1996 C 0.68439 0.87398 0.24245 0.0
C1997 C 0.67106 0.85301 0.23399 0.0
C1998 C 0.66487 0.8328 0.24053 0.0
C1999 C 0.67183 0.83356 0.25524 0.0
H2000 H 0.25725 0.87359 0.202 0.0
H2001 H 0.19046 0.81654 0.18632 0.0
H2002 H 0.24395 0.87516 0.22561 0.0
H2003 H 0.17737 0.8179 0.21004 0.0
H2004 H 0.17086 0.81268 0.2593 0.0
H2005 H 0.18401 0.81111 0.23556 0.0
H2006 H 0.217 0.88426 0.23666 0.0
H2007 H 0.20426 0.88587 0.2605 0.0
C2008 C 0.23967 0.8615 0.20351 0.0
C2009 C 0.22496 0.84495 0.19217 0.0
C2010 C 0.23207 0.86238 0.21708 0.0
C2011 C 0.2096 0.84665 0.21973 0.0
C2012 C 0.19488 0.83007 0.20843 0.0
C2013 C 0.20243 0.82928 0.19482 0.0
C2014 C 0.18102 0.82843 0.25451 0.0
C2015 C 0.18649 0.8494 0.2618 0.0
C2016 C 0.18838 0.82751 0.24084 0.0
C2017 C 0.20155 0.84756 0.2342 0.0
C2018 C 0.20705 0.86852 0.24152 0.0
C2019 C 0.19955 0.86942 0.25512 0.0
H2020 H 0.23417 0.39094 0.1944 0.0
H2021 H 0.18163 0.40842 0.19824 0.0
H2022 H 0.22733 0.37551 0.21803 0.0
H2023 H 0.17494 0.39318 0.2218 0.0
H2024 H 0.18429 0.38499 0.26988 0.0
H2025 H 0.19304 0.40111 0.24661 0.0
H2026 H 0.19843 0.34394 0.2299 0.0
H2027 H 0.19042 0.32817 0.25336 0.0
C2028 C 0.22108 0.3914 0.20023 0.0
C2029 C 0.20857 0.40108 0.19441 0.0
C2030 C 0.21717 0.38255 0.21379 0.0
C2031 C 0.20065 0.38319 0.22188 0.0
C2032 C 0.1881 0.39279 0.21603 0.0
C2033 C 0.19198 0.40157 0.20249 0.0
C2034 C 0.18762 0.37598 0.26131 0.0
C2035 C 0.18661 0.35524 0.26352 0.0
C2036 C 0.19239 0.3851 0.2479 0.0
C2037 C 0.19634 0.37378 0.23632 0.0
C2038 C 0.19566 0.35321 0.23859 0.0
C2039 C 0.1908 0.34404 0.252 0.0
H2040 H 0.77272 0.62108 0.856 0.0
H2041 H 0.84021 0.63207 0.86877 0.0
H2042 H 0.78485 0.63592 0.83278 0.0
H2043 H 0.85218 0.64658 0.8454 0.0
H2044 H 0.85728 0.64901 0.7959 0.0
H2045 H 0.84513 0.63375 0.81912 0.0
H2046 H 0.81062 0.67213 0.82318 0.0
H2047 H 0.82234 0.68697 0.79985 0.0
C2048 C 0.79021 0.62683 0.85394 0.0
C2049 C 0.80548 0.62542 0.86436 0.0
C2050 C 0.79715 0.6353 0.84058 0.0
C2051 C 0.81951 0.64249 0.83722 0.0
C2052 C 0.83474 0.64092 0.84756 0.0
C2053 C 0.82785 0.63256 0.86097 0.0
C2054 C 0.84696 0.65406 0.8017 0.0
C2055 C 0.84078 0.66922 0.796 0.0
C2056 C 0.84018 0.64549 0.81508 0.0
C2057 C 0.8269 0.65171 0.82303 0.0
C2058 C 0.82066 0.66681 0.81729 0.0
C2059 C 0.82758 0.6755 0.80398 0.0
H2060 H 0.40579 0.20352 0.86658 0.0
H2061 H 0.34333 0.14093 0.8709 0.0
H2062 H 0.39317 0.20157 0.84096 0.0
H2063 H 0.33041 0.13914 0.84532 0.0
H2064 H 0.32632 0.13035 0.79568 0.0
H2065 H 0.3385 0.13242 0.82139 0.0
H2066 H 0.36587 0.20515 0.82519 0.0
H2067 H 0.35404 0.20304 0.79936 0.0
C2068 C 0.38923 0.18947 0.86207 0.0
C2069 C 0.37554 0.17238 0.87073 0.0
C2070 C 0.38195 0.18838 0.8474 0.0
C2071 C 0.36075 0.17022 0.84106 0.0
C2072 C 0.347 0.15317 0.84978 0.0
C2073 C 0.35436 0.1542 0.86444 0.0
C2074 C 0.33479 0.14674 0.80205 0.0
C2075 C 0.33921 0.16653 0.79552 0.0
C2076 C 0.34173 0.14794 0.8168 0.0
C2077 C 0.35314 0.16895 0.82539 0.0
C2078 C 0.35745 0.18874 0.81885 0.0
C2079 C 0.35063 0.18755 0.80407 0.0
H2080 H 0.76861 0.14527 0.85253 0.0
H2081 H 0.83572 0.20225 0.86766 0.0
H2082 H 0.78127 0.14352 0.82872 0.0
H2083 H 0.84818 0.2007 0.84374 0.0
H2084 H 0.85348 0.20578 0.79443 0.0
H2085 H 0.84086 0.20743 0.81834 0.0
H2086 H 0.80791 0.13429 0.81729 0.0
H2087 H 0.82014 0.1326 0.79326 0.0
C2088 C 0.78611 0.15731 0.85085 0.0
C2089 C 0.80111 0.1739 0.86208 0.0
C2090 C 0.79335 0.15633 0.83716 0.0
C2091 C 0.81573 0.17198 0.83432 0.0
C2092 C 0.83073 0.18859 0.84551 0.0
C2093 C 0.82354 0.1895 0.85923 0.0
C2094 C 0.84342 0.19004 0.79927 0.0
C2095 C 0.83781 0.16906 0.79194 0.0
C2096 C 0.83637 0.19101 0.81303 0.0
C2097 C 0.82339 0.17099 0.81973 0.0
C2098 C 0.81772 0.15 0.81237 0.0
C2099 C 0.82492 0.14905 0.79867 0.0
H2100 H 0.29928 0.20398 0.52928 0.0
H2101 H 0.32747 0.16132 0.51853 0.0
H2102 H 0.31284 0.20717 0.55484 0.0
H2103 H 0.33991 0.16349 0.54418 0.0
H2104 H 0.37933 0.19033 0.58916 0.0
H2105 H 0.36732 0.18921 0.56357 0.0
H2106 H 0.30471 0.18473 0.57515 0.0
H2107 H 0.31729 0.18712 0.6008 0.0
C2108 C 0.30843 0.19533 0.53235 0.0
C2109 C 0.31228 0.18239 0.52183 0.0
C2110 C 0.31593 0.19691 0.54705 0.0
C2111 C 0.32739 0.18552 0.5516 0.0
C2112 C 0.33136 0.17269 0.54106 0.0
C2113 C 0.32395 0.1712 0.52636 0.0
C2114 C 0.36314 0.18942 0.58628 0.0
C2115 C 0.34931 0.18887 0.59707 0.0
C2116 C 0.35611 0.18847 0.57157 0.0
C2117 C 0.33502 0.18683 0.56727 0.0
C2118 C 0.32118 0.18627 0.57806 0.0
C2119 C 0.32826 0.18732 0.59278 0.0
H2120 H 0.92256 0.20999 0.53505 0.0
H2121 H 0.85607 0.15215 0.51977 0.0
H2122 H 0.90954 0.21139 0.55878 0.0
H2123 H 0.84325 0.15337 0.54361 0.0
H2124 H 0.83764 0.14859 0.593 0.0
H2125 H 0.85042 0.147 0.56913 0.0
H2126 H 0.88244 0.22005 0.56994 0.0
H2127 H 0.87011 0.22169 0.59391 0.0
C2128 C 0.90511 0.19768 0.53668 0.0
C2129 C 0.89039 0.18098 0.52542 0.0
C2130 C 0.89766 0.19847 0.55032 0.0
C2131 C 0.87535 0.1825 0.5531 0.0
C2132 C 0.86064 0.16574 0.54189 0.0
C2133 C 0.86804 0.16502 0.52822 0.0
C2134 C 0.84751 0.16431 0.58811 0.0
C2135 C 0.85283 0.18526 0.59536 0.0
C2136 C 0.85465 0.16338 0.57437 0.0
C2137 C 0.86746 0.1834 0.56762 0.0
C2138 C 0.87279 0.20434 0.57489 0.0
C2139 C 0.86551 0.20525 0.58856 0.0
H2140 H 0.85864 0.70103 0.51975 0.0
H2141 H 0.89281 0.7688 0.54198 0.0
H2142 H 0.85097 0.68499 0.5431 0.0
H2143 H 0.88441 0.75276 0.5653 0.0
H2144 H 0.88422 0.71614 0.60566 0.0
H2145 H 0.89381 0.7321 0.58239 0.0
H2146 H 0.82687 0.68076 0.56222 0.0
H2147 H 0.81727 0.66483 0.58547 0.0
C2148 C 0.86469 0.71253 0.52962 0.0
C2149 C 0.87632 0.73624 0.52894 0.0
C2150 C 0.86002 0.70332 0.54302 0.0
C2151 C 0.86691 0.71755 0.55612 0.0
C2152 C 0.87897 0.74126 0.55546 0.0
C2153 C 0.88359 0.75047 0.54206 0.0
C2154 C 0.87145 0.70837 0.5963 0.0
C2155 C 0.84995 0.68916 0.59749 0.0
C2156 C 0.87698 0.71752 0.58293 0.0
C2157 C 0.86116 0.70771 0.57037 0.0
C2158 C 0.83965 0.68853 0.57158 0.0
C2159 C 0.83412 0.67939 0.58494 0.0
loop_
_geom_bond_atom_site_label_1
_geom_bond_atom_site_label_2
_geom_bond_distance
_geom_bond_site_symmetry_2
_ccdc_geom_bond_type
C0 C1 1.264 . S
C0 C5 1.479 . S
C0 C10 1.465 . S
C1 C0 1.264 . S
C1 C3 1.339 . S
C1 H28 0.931 . S
C2 C3 1.395 . S
C2 C4 1.320 . S
C3 C1 1.339 . S
C3 C2 1.395 . S
C3 H29 0.929 . S
C4 C2 1.320 . S
C4 C5 1.405 . S
C4 H30 0.930 . S
C5 C0 1.479 . S
C5 C4 1.405 . S
C5 H31 0.931 . S
U6 O7 2.454 . S
U6 O8 2.458 . S
U6 C9 2.984 . S
U6 C10 2.847 . S
U6 C23 2.882 . S
U6 O24 2.441 . S
U6 O25 2.420 . S
U6 O26 2.455 . S
U6 O27 2.449 . S
O7 U6 2.454 . S
O7 C9 1.353 . S
O8 U6 2.458 . S
O8 C9 1.286 . S
C9 U6 2.984 . S
C9 O7 1.353 . S
C9 O8 1.286 . S
C9 C11 1.363 . S
C10 C0 1.465 . S
C10 U6 2.847 . S
C10 O24 1.249 . S
C10 O25 1.202 . S
C11 C9 1.363 . S
C11 C13 1.408 . S
C11 C16 1.342 . S
C12 C13 1.310 . S
C12 C15 1.461 . S
C12 H32 0.932 . S
C13 C11 1.408 . S
C13 C12 1.310 . S
C13 H33 0.930 . S
C14 C15 1.474 . S
C14 C16 1.285 . S
C14 H34 0.929 . S
C15 C12 1.461 . S
C15 C14 1.474 . S
C16 C11 1.342 . S
C16 C14 1.285 . S
C16 H35 0.930 . S
C17 C20 1.424 . S
C17 C22 1.245 . S
C17 C23 1.428 . S
C18 C21 1.260 . S
C18 C22 1.477 . S
C18 H36 0.932 . S
C19 C20 1.384 . S
C19 C21 1.479 . S
C19 H37 0.929 . S
C20 C17 1.424 . S
C20 C19 1.384 . S
C20 H38 0.928 . S
C21 C18 1.260 . S
C21 C19 1.479 . S
C22 C17 1.245 . S
C22 C18 1.477 . S
C22 H39 0.932 . S
C23 U6 2.882 . S
C23 C17 1.428 . S
C23 O26 1.301 . S
C23 O27 1.282 . S
O24 U6 2.441 . S
O24 C10 1.249 . S
O25 U6 2.420 . S
O25 C10 1.202 . S
O26 U6 2.455 . S
O26 C23 1.301 . S
O27 U6 2.449 . S
O27 C23 1.282 . S
H28 C1 0.931 . S
H29 C3 0.929 . S
H30 C4 0.930 . S
H31 C5 0.931 . S
H32 C12 0.932 . S
H33 C13 0.930 . S
H34 C14 0.929 . S
H35 C16 0.930 . S
H36 C18 0.932 . S
H37 C19 0.929 . S
H38 C20 0.928 . S
H39 C22 0.932 . S
C40 C41 1.264 . S
C40 C45 1.479 . S
C40 C50 1.465 . S
C41 C40 1.264 . S
C41 C43 1.339 . S
C41 H68 0.931 . S
C42 C43 1.395 . S
C42 C44 1.320 . S
C43 C41 1.339 . S
C43 C42 1.395 . S
C43 H69 0.929 . S
C44 C42 1.320 . S
C44 C45 1.405 . S
C44 H70 0.930 . S
C45 C40 1.479 . S
C45 C44 1.405 . S
C45 H71 0.931 . S
U46 O47 2.454 . S
U46 O48 2.458 . S
U46 C49 2.984 . S
U46 C50 2.847 . S
U46 C63 2.882 . S
U46 O64 2.441 . S
U46 O65 2.420 . S
U46 O66 2.455 . S
U46 O67 2.449 . S
O47 U46 2.454 . S
O47 C49 1.353 . S
O48 U46 2.458 . S
O48 C49 1.286 . S
C49 U46 2.984 . S
C49 O47 1.353 . S
C49 O48 1.286 . S
C49 C51 1.363 . S
C50 C40 1.465 . S
C50 U46 2.847 . S
C50 O64 1.249 . S
C50 O65 1.202 . S
C51 C49 1.363 . S
C51 C53 1.408 . S
C51 C56 1.342 . S
C52 C53 1.310 . S
C52 C55 1.461 . S
C52 H72 0.932 . S
C53 C51 1.408 . S
C53 C52 1.310 . S
C53 H73 0.930 . S
C54 C55 1.474 . S
C54 C56 1.285 . S
C54 H74 0.929 . S
C55 C52 1.461 . S
C55 C54 1.474 . S
C56 C51 1.342 . S
C56 C54 1.285 . S
C56 H75 0.930 . S
C57 C60 1.424 . S
C57 C62 1.245 . S
C57 C63 1.428 . S
C58 C61 1.260 . S
C58 C62 1.477 . S
C58 H76 0.932 . S
C59 C60 1.384 . S
C59 C61 1.479 . S
C59 H77 0.929 . S
C60 C57 1.424 . S
C60 C59 1.384 . S
C60 H78 0.928 . S
C61 C58 1.260 . S
C61 C59 1.479 . S
C62 C57 1.245 . S
C62 C58 1.477 . S
C62 H79 0.932 . S
C63 U46 2.882 . S
C63 C57 1.428 . S
C63 O66 1.301 . S
C63 O67 1.282 . S
O64 U46 2.441 . S
O64 C50 1.249 . S
O65 U46 2.420 . S
O65 C50 1.202 . S
O66 U46 2.455 . S
O66 C63 1.301 . S
O67 U46 2.449 . S
O67 C63 1.282 . S
H68 C41 0.931 . S
H69 C43 0.929 . S
H70 C44 0.930 . S
H71 C45 0.931 . S
H72 C52 0.932 . S
H73 C53 0.930 . S
H74 C54 0.929 . S
H75 C56 0.930 . S
H76 C58 0.932 . S
H77 C59 0.929 . S
H78 C60 0.928 . S
H79 C62 0.932 . S
C80 C81 1.264 . S
C80 C85 1.479 . S
C80 C90 1.465 . S
C81 C80 1.264 . S
C81 C83 1.339 . S
C81 H108 0.931 . S
C82 C83 1.395 . S
C82 C84 1.320 . S
C83 C81 1.339 . S
C83 C82 1.395 . S
C83 H109 0.929 . S
C84 C82 1.320 . S
C84 C85 1.405 . S
C84 H110 0.930 . S
C85 C80 1.479 . S
C85 C84 1.405 . S
C85 H111 0.931 . S
U86 O87 2.454 . S
U86 O88 2.458 . S
U86 C89 2.984 . S
U86 C90 2.847 . S
U86 C103 2.882 . S
U86 O104 2.441 . S
U86 O105 2.420 . S
U86 O106 2.455 . S
U86 O107 2.449 . S
O87 U86 2.454 . S
O87 C89 1.353 . S
O88 U86 2.458 . S
O88 C89 1.286 . S
C89 U86 2.984 . S
C89 O87 1.353 . S
C89 O88 1.286 . S
C89 C91 1.363 . S
C90 C80 1.465 . S
C90 U86 2.847 . S
C90 O104 1.249 . S
C90 O105 1.202 . S
C91 C89 1.363 . S
C91 C93 1.408 . S
C91 C96 1.342 . S
C92 C93 1.310 . S
C92 C95 1.461 . S
C92 H112 0.932 . S
C93 C91 1.408 . S
C93 C92 1.310 . S
C93 H113 0.930 . S
C94 C95 1.474 . S
C94 C96 1.285 . S
C94 H114 0.929 . S
C95 C92 1.461 . S
C95 C94 1.474 . S
C96 C91 1.342 . S
C96 C94 1.285 . S
C96 H115 0.930 . S
C97 C100 1.424 . S
C97 C102 1.245 . S
C97 C103 1.428 . S
C98 C101 1.260 . S
C98 C102 1.477 . S
C98 H116 0.932 . S
C99 C100 1.384 . S
C99 C101 1.479 . S
C99 H117 0.929 . S
C100 C97 1.424 . S
C100 C99 1.384 . S
C100 H118 0.928 . S
C101 C98 1.260 . S
C101 C99 1.479 . S
C102 C97 1.245 . S
C102 C98 1.477 . S
C102 H119 0.932 . S
C103 U86 2.882 . S
C103 C97 1.428 . S
C103 O106 1.301 . S
C103 O107 1.282 . S
O104 U86 2.441 . S
O104 C90 1.249 . S
O105 U86 2.420 . S
O105 C90 1.202 . S
O106 U86 2.455 . S
O106 C103 1.301 . S
O107 U86 2.449 . S
O107 C103 1.282 . S
H108 C81 0.931 . S
H109 C83 0.929 . S
H110 C84 0.930 . S
H111 C85 0.931 . S
H112 C92 0.932 . S
H113 C93 0.930 . S
H114 C94 0.929 . S
H115 C96 0.930 . S
H116 C98 0.932 . S
H117 C99 0.929 . S
H118 C100 0.928 . S
H119 C102 0.932 . S
C120 C121 1.264 . S
C120 C125 1.479 . S
C120 C130 1.465 . S
C121 C120 1.264 . S
C121 C123 1.339 . S
C121 H148 0.931 . S
C122 C123 1.395 . S
C122 C124 1.320 . S
C123 C121 1.339 . S
C123 C122 1.395 . S
C123 H149 0.929 . S
C124 C122 1.320 . S
C124 C125 1.405 . S
C124 H150 0.930 . S
C125 C120 1.479 . S
C125 C124 1.405 . S
C125 H151 0.931 . S
U126 O127 2.454 . S
U126 O128 2.458 . S
U126 C129 2.984 . S
U126 C130 2.847 . S
U126 C143 2.882 . S
U126 O144 2.441 . S
U126 O145 2.420 . S
U126 O146 2.455 . S
U126 O147 2.449 . S
O127 U126 2.454 . S
O127 C129 1.353 . S
O128 U126 2.458 . S
O128 C129 1.286 . S
C129 U126 2.984 . S
C129 O127 1.353 . S
C129 O128 1.286 . S
C129 C131 1.363 . S
C130 C120 1.465 . S
C130 U126 2.847 . S
C130 O144 1.249 . S
C130 O145 1.202 . S
C131 C129 1.363 . S
C131 C133 1.408 . S
C131 C136 1.342 . S
C132 C133 1.310 . S
C132 C135 1.461 . S
C132 H152 0.932 . S
C133 C131 1.408 . S
C133 C132 1.310 . S
C133 H153 0.930 . S
C134 C135 1.474 . S
C134 C136 1.285 . S
C134 H154 0.929 . S
C135 C132 1.461 . S
C135 C134 1.474 . S
C136 C131 1.342 . S
C136 C134 1.285 . S
C136 H155 0.930 . S
C137 C140 1.424 . S
C137 C142 1.245 . S
C137 C143 1.428 . S
C138 C141 1.260 . S
C138 C142 1.477 . S
C138 H156 0.932 . S
C139 C140 1.384 . S
C139 C141 1.479 . S
C139 H157 0.929 . S
C140 C137 1.424 . S
C140 C139 1.384 . S
C140 H158 0.928 . S
C141 C138 1.260 . S
C141 C139 1.479 . S
C142 C137 1.245 . S
C142 C138 1.477 . S
C142 H159 0.932 . S
C143 U126 2.882 . S
C143 C137 1.428 . S
C143 O146 1.301 . S
C143 O147 1.282 . S
O144 U126 2.441 . S
O144 C130 1.249 . S
O145 U126 2.420 . S
O145 C130 1.202 . S
O146 U126 2.455 . S
O146 C143 1.301 . S
O147 U126 2.449 . S
O147 C143 1.282 . S
H148 C121 0.931 . S
H149 C123 0.929 . S
H150 C124 0.930 . S
H151 C125 0.931 . S
H152 C132 0.932 . S
H153 C133 0.930 . S
H154 C134 0.929 . S
H155 C136 0.930 . S
H156 C138 0.932 . S
H157 C139 0.929 . S
H158 C140 0.928 . S
H159 C142 0.932 . S
C160 C161 1.264 . S
C160 C165 1.479 . S
C160 C170 1.465 . S
C161 C160 1.264 . S
C161 C163 1.339 . S
C161 H188 0.931 . S
C162 C163 1.395 . S
C162 C164 1.320 . S
C163 C161 1.339 . S
C163 C162 1.395 . S
C163 H189 0.929 . S
C164 C162 1.320 . S
C164 C165 1.405 . S
C164 H190 0.930 . S
C165 C160 1.479 . S
C165 C164 1.405 . S
C165 H191 0.931 . S
U166 O167 2.454 . S
U166 O168 2.458 . S
U166 C169 2.984 . S
U166 C170 2.847 . S
U166 C183 2.882 . S
U166 O184 2.441 . S
U166 O185 2.420 . S
U166 O186 2.455 . S
U166 O187 2.449 . S
O167 U166 2.454 . S
O167 C169 1.353 . S
O168 U166 2.458 . S
O168 C169 1.286 . S
C169 U166 2.984 . S
C169 O167 1.353 . S
C169 O168 1.286 . S
C169 C171 1.363 . S
C170 C160 1.465 . S
C170 U166 2.847 . S
C170 O184 1.249 . S
C170 O185 1.202 . S
C171 C169 1.363 . S
C171 C173 1.408 . S
C171 C176 1.342 . S
C172 C173 1.310 . S
C172 C175 1.461 . S
C172 H192 0.932 . S
C173 C171 1.408 . S
C173 C172 1.310 . S
C173 H193 0.930 . S
C174 C175 1.474 . S
C174 C176 1.285 . S
C174 H194 0.929 . S
C175 C172 1.461 . S
C175 C174 1.474 . S
C176 C171 1.342 . S
C176 C174 1.285 . S
C176 H195 0.930 . S
C177 C180 1.424 . S
C177 C182 1.245 . S
C177 C183 1.428 . S
C178 C181 1.260 . S
C178 C182 1.477 . S
C178 H196 0.932 . S
C179 C180 1.384 . S
C179 C181 1.479 . S
C179 H197 0.929 . S
C180 C177 1.424 . S
C180 C179 1.384 . S
C180 H198 0.928 . S
C181 C178 1.260 . S
C181 C179 1.479 . S
C182 C177 1.245 . S
C182 C178 1.477 . S
C182 H199 0.932 . S
C183 U166 2.882 . S
C183 C177 1.428 . S
C183 O186 1.301 . S
C183 O187 1.282 . S
O184 U166 2.441 . S
O184 C170 1.249 . S
O185 U166 2.420 . S
O185 C170 1.202 . S
O186 U166 2.455 . S
O186 C183 1.301 . S
O187 U166 2.449 . S
O187 C183 1.282 . S
H188 C161 0.931 . S
H189 C163 0.929 . S
H190 C164 0.930 . S
H191 C165 0.931 . S
H192 C172 0.932 . S
H193 C173 0.930 . S
H194 C174 0.929 . S
H195 C176 0.930 . S
H196 C178 0.932 . S
H197 C179 0.929 . S
H198 C180 0.928 . S
H199 C182 0.932 . S
C200 C201 1.264 . S
C200 C205 1.479 . S
C200 C210 1.465 . S
C201 C200 1.264 . S
C201 C203 1.339 . S
C201 H228 0.931 . S
C202 C203 1.395 . S
C202 C204 1.320 . S
C203 C201 1.339 . S
C203 C202 1.395 . S
C203 H229 0.929 . S
C204 C202 1.320 . S
C204 C205 1.405 . S
C204 H230 0.930 . S
C205 C200 1.479 . S
C205 C204 1.405 . S
C205 H231 0.931 . S
U206 O207 2.454 . S
U206 O208 2.458 . S
U206 C209 2.984 . S
U206 C210 2.847 . S
U206 C223 2.882 . S
U206 O224 2.441 . S
U206 O225 2.420 . S
U206 O226 2.455 . S
U206 O227 2.449 . S
O207 U206 2.454 . S
O207 C209 1.353 . S
O208 U206 2.458 . S
O208 C209 1.286 . S
C209 U206 2.984 . S
C209 O207 1.353 . S
C209 O208 1.286 . S
C209 C211 1.363 . S
C210 C200 1.465 . S
C210 U206 2.847 . S
C210 O224 1.249 . S
C210 O225 1.202 . S
C211 C209 1.363 . S
C211 C213 1.408 . S
C211 C216 1.342 . S
C212 C213 1.310 . S
C212 C215 1.461 . S
C212 H232 0.932 . S
C213 C211 1.408 . S
C213 C212 1.310 . S
C213 H233 0.930 . S
C214 C215 1.474 . S
C214 C216 1.285 . S
C214 H234 0.929 . S
C215 C212 1.461 . S
C215 C214 1.474 . S
C216 C211 1.342 . S
C216 C214 1.285 . S
C216 H235 0.930 . S
C217 C220 1.424 . S
C217 C222 1.245 . S
C217 C223 1.428 . S
C218 C221 1.260 . S
C218 C222 1.477 . S
C218 H236 0.932 . S
C219 C220 1.384 . S
C219 C221 1.479 . S
C219 H237 0.929 . S
C220 C217 1.424 . S
C220 C219 1.384 . S
C220 H238 0.928 . S
C221 C218 1.260 . S
C221 C219 1.479 . S
C222 C217 1.245 . S
C222 C218 1.477 . S
C222 H239 0.932 . S
C223 U206 2.882 . S
C223 C217 1.428 . S
C223 O226 1.301 . S
C223 O227 1.282 . S
O224 U206 2.441 . S
O224 C210 1.249 . S
O225 U206 2.420 . S
O225 C210 1.202 . S
O226 U206 2.455 . S
O226 C223 1.301 . S
O227 U206 2.449 . S
O227 C223 1.282 . S
H228 C201 0.931 . S
H229 C203 0.929 . S
H230 C204 0.930 . S
H231 C205 0.931 . S
H232 C212 0.932 . S
H233 C213 0.930 . S
H234 C214 0.929 . S
H235 C216 0.930 . S
H236 C218 0.932 . S
H237 C219 0.929 . S
H238 C220 0.928 . S
H239 C222 0.932 . S
C240 C241 1.264 . S
C240 C245 1.479 . S
C240 C250 1.465 . S
C241 C240 1.264 . S
C241 C243 1.339 . S
C241 H268 0.931 . S
C242 C243 1.395 . S
C242 C244 1.320 . S
C243 C241 1.339 . S
C243 C242 1.395 . S
C243 H269 0.929 . S
C244 C242 1.320 . S
C244 C245 1.405 . S
C244 H270 0.930 . S
C245 C240 1.479 . S
C245 C244 1.405 . S
C245 H271 0.931 . S
U246 O247 2.454 . S
U246 O248 2.458 . S
U246 C249 2.984 . S
U246 C250 2.847 . S
U246 C263 2.882 . S
U246 O264 2.441 . S
U246 O265 2.420 . S
U246 O266 2.455 . S
U246 O267 2.449 . S
O247 U246 2.454 . S
O247 C249 1.353 . S
O248 U246 2.458 . S
O248 C249 1.286 . S
C249 U246 2.984 . S
C249 O247 1.353 . S
C249 O248 1.286 . S
C249 C251 1.363 . S
C250 C240 1.465 . S
C250 U246 2.847 . S
C250 O264 1.249 . S
C250 O265 1.202 . S
C251 C249 1.363 . S
C251 C253 1.408 . S
C251 C256 1.342 . S
C252 C253 1.310 . S
C252 C255 1.461 . S
C252 H272 0.932 . S
C253 C251 1.408 . S
C253 C252 1.310 . S
C253 H273 0.930 . S
C254 C255 1.474 . S
C254 C256 1.285 . S
C254 H274 0.929 . S
C255 C252 1.461 . S
C255 C254 1.474 . S
C256 C251 1.342 . S
C256 C254 1.285 . S
C256 H275 0.930 . S
C257 C260 1.424 . S
C257 C262 1.245 . S
C257 C263 1.428 . S
C258 C261 1.260 . S
C258 C262 1.477 . S
C258 H276 0.932 . S
C259 C260 1.384 . S
C259 C261 1.479 . S
C259 H277 0.929 . S
C260 C257 1.424 . S
C260 C259 1.384 . S
C260 H278 0.928 . S
C261 C258 1.260 . S
C261 C259 1.479 . S
C262 C257 1.245 . S
C262 C258 1.477 . S
C262 H279 0.932 . S
C263 U246 2.882 . S
C263 C257 1.428 . S
C263 O266 1.301 . S
C263 O267 1.282 . S
O264 U246 2.441 . S
O264 C250 1.249 . S
O265 U246 2.420 . S
O265 C250 1.202 . S
O266 U246 2.455 . S
O266 C263 1.301 . S
O267 U246 2.449 . S
O267 C263 1.282 . S
H268 C241 0.931 . S
H269 C243 0.929 . S
H270 C244 0.930 . S
H271 C245 0.931 . S
H272 C252 0.932 . S
H273 C253 0.930 . S
H274 C254 0.929 . S
H275 C256 0.930 . S
H276 C258 0.932 . S
H277 C259 0.929 . S
H278 C260 0.928 . S
H279 C262 0.932 . S
C280 C281 1.264 . S
C280 C285 1.479 . S
C280 C290 1.465 . S
C281 C280 1.264 . S
C281 C283 1.339 . S
C281 H308 0.931 . S
C282 C283 1.395 . S
C282 C284 1.320 . S
C283 C281 1.339 . S
C283 C282 1.395 . S
C283 H309 0.929 . S
C284 C282 1.320 . S
C284 C285 1.405 . S
C284 H310 0.930 . S
C285 C280 1.479 . S
C285 C284 1.405 . S
C285 H311 0.931 . S
U286 O287 2.454 . S
U286 O288 2.458 . S
U286 C289 2.984 . S
U286 C290 2.847 . S
U286 C303 2.882 . S
U286 O304 2.441 . S
U286 O305 2.420 . S
U286 O306 2.455 . S
U286 O307 2.449 . S
O287 U286 2.454 . S
O287 C289 1.353 . S
O288 U286 2.458 . S
O288 C289 1.286 . S
C289 U286 2.984 . S
C289 O287 1.353 . S
C289 O288 1.286 . S
C289 C291 1.363 . S
C290 C280 1.465 . S
C290 U286 2.847 . S
C290 O304 1.249 . S
C290 O305 1.202 . S
C291 C289 1.363 . S
C291 C293 1.408 . S
C291 C296 1.342 . S
C292 C293 1.310 . S
C292 C295 1.461 . S
C292 H312 0.932 . S
C293 C291 1.408 . S
C293 C292 1.310 . S
C293 H313 0.930 . S
C294 C295 1.474 . S
C294 C296 1.285 . S
C294 H314 0.929 . S
C295 C292 1.461 . S
C295 C294 1.474 . S
C296 C291 1.342 . S
C296 C294 1.285 . S
C296 H315 0.930 . S
C297 C300 1.424 . S
C297 C302 1.245 . S
C297 C303 1.428 . S
C298 C301 1.260 . S
C298 C302 1.477 . S
C298 H316 0.932 . S
C299 C300 1.384 . S
C299 C301 1.479 . S
C299 H317 0.929 . S
C300 C297 1.424 . S
C300 C299 1.384 . S
C300 H318 0.928 . S
C301 C298 1.260 . S
C301 C299 1.479 . S
C302 C297 1.245 . S
C302 C298 1.477 . S
C302 H319 0.932 . S
C303 U286 2.882 . S
C303 C297 1.428 . S
C303 O306 1.301 . S
C303 O307 1.282 . S
O304 U286 2.441 . S
O304 C290 1.249 . S
O305 U286 2.420 . S
O305 C290 1.202 . S
O306 U286 2.455 . S
O306 C303 1.301 . S
O307 U286 2.449 . S
O307 C303 1.282 . S
H308 C281 0.931 . S
H309 C283 0.929 . S
H310 C284 0.930 . S
H311 C285 0.931 . S
H312 C292 0.932 . S
H313 C293 0.930 . S
H314 C294 0.929 . S
H315 C296 0.930 . S
H316 C298 0.932 . S
H317 C299 0.929 . S
H318 C300 0.928 . S
H319 C302 0.932 . S
C320 C321 1.264 . S
C320 C325 1.479 . S
C320 C330 1.465 . S
C321 C320 1.264 . S
C321 C323 1.339 . S
C321 H348 0.931 . S
C322 C323 1.395 . S
C322 C324 1.320 . S
C323 C321 1.339 . S
C323 C322 1.395 . S
C323 H349 0.929 . S
C324 C322 1.320 . S
C324 C325 1.405 . S
C324 H350 0.930 . S
C325 C320 1.479 . S
C325 C324 1.405 . S
C325 H351 0.931 . S
U326 O327 2.454 . S
U326 O328 2.458 . S
U326 C329 2.984 . S
U326 C330 2.847 . S
U326 C343 2.882 . S
U326 O344 2.441 . S
U326 O345 2.420 . S
U326 O346 2.455 . S
U326 O347 2.449 . S
O327 U326 2.454 . S
O327 C329 1.353 . S
O328 U326 2.458 . S
O328 C329 1.286 . S
C329 U326 2.984 . S
C329 O327 1.353 . S
C329 O328 1.286 . S
C329 C331 1.363 . S
C330 C320 1.465 . S
C330 U326 2.847 . S
C330 O344 1.249 . S
C330 O345 1.202 . S
C331 C329 1.363 . S
C331 C333 1.408 . S
C331 C336 1.342 . S
C332 C333 1.310 . S
C332 C335 1.461 . S
C332 H352 0.932 . S
C333 C331 1.408 . S
C333 C332 1.310 . S
C333 H353 0.930 . S
C334 C335 1.474 . S
C334 C336 1.285 . S
C334 H354 0.929 . S
C335 C332 1.461 . S
C335 C334 1.474 . S
C336 C331 1.342 . S
C336 C334 1.285 . S
C336 H355 0.930 . S
C337 C340 1.424 . S
C337 C342 1.245 . S
C337 C343 1.428 . S
C338 C341 1.260 . S
C338 C342 1.477 . S
C338 H356 0.932 . S
C339 C340 1.384 . S
C339 C341 1.479 . S
C339 H357 0.929 . S
C340 C337 1.424 . S
C340 C339 1.384 . S
C340 H358 0.928 . S
C341 C338 1.260 . S
C341 C339 1.479 . S
C342 C337 1.245 . S
C342 C338 1.477 . S
C342 H359 0.932 . S
C343 U326 2.882 . S
C343 C337 1.428 . S
C343 O346 1.301 . S
C343 O347 1.282 . S
O344 U326 2.441 . S
O344 C330 1.249 . S
O345 U326 2.420 . S
O345 C330 1.202 . S
O346 U326 2.455 . S
O346 C343 1.301 . S
O347 U326 2.449 . S
O347 C343 1.282 . S
H348 C321 0.931 . S
H349 C323 0.929 . S
H350 C324 0.930 . S
H351 C325 0.931 . S
H352 C332 0.932 . S
H353 C333 0.930 . S
H354 C334 0.929 . S
H355 C336 0.930 . S
H356 C338 0.932 . S
H357 C339 0.929 . S
H358 C340 0.928 . S
H359 C342 0.932 . S
C360 C361 1.264 . S
C360 C365 1.479 . S
C360 C370 1.465 . S
C361 C360 1.264 . S
C361 C363 1.339 . S
C361 H388 0.931 . S
C362 C363 1.395 . S
C362 C364 1.320 . S
C363 C361 1.339 . S
C363 C362 1.395 . S
C363 H389 0.929 . S
C364 C362 1.320 . S
C364 C365 1.405 . S
C364 H390 0.930 . S
C365 C360 1.479 . S
C365 C364 1.405 . S
C365 H391 0.931 . S
U366 O367 2.454 . S
U366 O368 2.458 . S
U366 C369 2.984 . S
U366 C370 2.847 . S
U366 C383 2.882 . S
U366 O384 2.441 . S
U366 O385 2.420 . S
U366 O386 2.455 . S
U366 O387 2.449 . S
O367 U366 2.454 . S
O367 C369 1.353 . S
O368 U366 2.458 . S
O368 C369 1.286 . S
C369 U366 2.984 . S
C369 O367 1.353 . S
C369 O368 1.286 . S
C369 C371 1.363 . S
C370 C360 1.465 . S
C370 U366 2.847 . S
C370 O384 1.249 . S
C370 O385 1.202 . S
C371 C369 1.363 . S
C371 C373 1.408 . S
C371 C376 1.342 . S
C372 C373 1.310 . S
C372 C375 1.461 . S
C372 H392 0.932 . S
C373 C371 1.408 . S
C373 C372 1.310 . S
C373 H393 0.930 . S
C374 C375 1.474 . S
C374 C376 1.285 . S
C374 H394 0.929 . S
C375 C372 1.461 . S
C375 C374 1.474 . S
C376 C371 1.342 . S
C376 C374 1.285 . S
C376 H395 0.930 . S
C377 C380 1.424 . S
C377 C382 1.245 . S
C377 C383 1.428 . S
C378 C381 1.260 . S
C378 C382 1.477 . S
C378 H396 0.932 . S
C379 C380 1.384 . S
C379 C381 1.479 . S
C379 H397 0.929 . S
C380 C377 1.424 . S
C380 C379 1.384 . S
C380 H398 0.928 . S
C381 C378 1.260 . S
C381 C379 1.479 . S
C382 C377 1.245 . S
C382 C378 1.477 . S
C382 H399 0.932 . S
C383 U366 2.882 . S
C383 C377 1.428 . S
C383 O386 1.301 . S
C383 O387 1.282 . S
O384 U366 2.441 . S
O384 C370 1.249 . S
O385 U366 2.420 . S
O385 C370 1.202 . S
O386 U366 2.455 . S
O386 C383 1.301 . S
O387 U366 2.449 . S
O387 C383 1.282 . S
H388 C361 0.931 . S
H389 C363 0.929 . S
H390 C364 0.930 . S
H391 C365 0.931 . S
H392 C372 0.932 . S
H393 C373 0.930 . S
H394 C374 0.929 . S
H395 C376 0.930 . S
H396 C378 0.932 . S
H397 C379 0.929 . S
H398 C380 0.928 . S
H399 C382 0.932 . S
C400 C401 1.264 . S
C400 C405 1.479 . S
C400 C410 1.465 . S
C401 C400 1.264 . S
C401 C403 1.339 . S
C401 H428 0.931 . S
C402 C403 1.395 . S
C402 C404 1.320 . S
C403 C401 1.339 . S
C403 C402 1.395 . S
C403 H429 0.929 . S
C404 C402 1.320 . S
C404 C405 1.405 . S
C404 H430 0.930 . S
C405 C400 1.479 . S
C405 C404 1.405 . S
C405 H431 0.931 . S
U406 O407 2.454 . S
U406 O408 2.458 . S
U406 C409 2.984 . S
U406 C410 2.847 . S
U406 C423 2.882 . S
U406 O424 2.441 . S
U406 O425 2.420 . S
U406 O426 2.455 . S
U406 O427 2.449 . S
O407 U406 2.454 . S
O407 C409 1.353 . S
O408 U406 2.458 . S
O408 C409 1.286 . S
C409 U406 2.984 . S
C409 O407 1.353 . S
C409 O408 1.286 . S
C409 C411 1.363 . S
C410 C400 1.465 . S
C410 U406 2.847 . S
C410 O424 1.249 . S
C410 O425 1.202 . S
C411 C409 1.363 . S
C411 C413 1.408 . S
C411 C416 1.342 . S
C412 C413 1.310 . S
C412 C415 1.461 . S
C412 H432 0.932 . S
C413 C411 1.408 . S
C413 C412 1.310 . S
C413 H433 0.930 . S
C414 C415 1.474 . S
C414 C416 1.285 . S
C414 H434 0.929 . S
C415 C412 1.461 . S
C415 C414 1.474 . S
C416 C411 1.342 . S
C416 C414 1.285 . S
C416 H435 0.930 . S
C417 C420 1.424 . S
C417 C422 1.245 . S
C417 C423 1.428 . S
C418 C421 1.260 . S
C418 C422 1.477 . S
C418 H436 0.932 . S
C419 C420 1.384 . S
C419 C421 1.479 . S
C419 H437 0.929 . S
C420 C417 1.424 . S
C420 C419 1.384 . S
C420 H438 0.928 . S
C421 C418 1.260 . S
C421 C419 1.479 . S
C422 C417 1.245 . S
C422 C418 1.477 . S
C422 H439 0.932 . S
C423 U406 2.882 . S
C423 C417 1.428 . S
C423 O426 1.301 . S
C423 O427 1.282 . S
O424 U406 2.441 . S
O424 C410 1.249 . S
O425 U406 2.420 . S
O425 C410 1.202 . S
O426 U406 2.455 . S
O426 C423 1.301 . S
O427 U406 2.449 . S
O427 C423 1.282 . S
H428 C401 0.931 . S
H429 C403 0.929 . S
H430 C404 0.930 . S
H431 C405 0.931 . S
H432 C412 0.932 . S
H433 C413 0.930 . S
H434 C414 0.929 . S
H435 C416 0.930 . S
H436 C418 0.932 . S
H437 C419 0.929 . S
H438 C420 0.928 . S
H439 C422 0.932 . S
C440 C441 1.264 . S
C440 C445 1.479 . S
C440 C450 1.465 . S
C441 C440 1.264 . S
C441 C443 1.339 . S
C441 H468 0.931 . S
C442 C443 1.395 . S
C442 C444 1.320 . S
C443 C441 1.339 . S
C443 C442 1.395 . S
C443 H469 0.929 . S
C444 C442 1.320 . S
C444 C445 1.405 . S
C444 H470 0.930 . S
C445 C440 1.479 . S
C445 C444 1.405 . S
C445 H471 0.931 . S
U446 O447 2.454 . S
U446 O448 2.458 . S
U446 C449 2.984 . S
U446 C450 2.847 . S
U446 C463 2.882 . S
U446 O464 2.441 . S
U446 O465 2.420 . S
U446 O466 2.455 . S
U446 O467 2.449 . S
O447 U446 2.454 . S
O447 C449 1.353 . S
O448 U446 2.458 . S
O448 C449 1.286 . S
C449 U446 2.984 . S
C449 O447 1.353 . S
C449 O448 1.286 . S
C449 C451 1.363 . S
C450 C440 1.465 . S
C450 U446 2.847 . S
C450 O464 1.249 . S
C450 O465 1.202 . S
C451 C449 1.363 . S
C451 C453 1.408 . S
C451 C456 1.342 . S
C452 C453 1.310 . S
C452 C455 1.461 . S
C452 H472 0.932 . S
C453 C451 1.408 . S
C453 C452 1.310 . S
C453 H473 0.930 . S
C454 C455 1.474 . S
C454 C456 1.285 . S
C454 H474 0.929 . S
C455 C452 1.461 . S
C455 C454 1.474 . S
C456 C451 1.342 . S
C456 C454 1.285 . S
C456 H475 0.930 . S
C457 C460 1.424 . S
C457 C462 1.245 . S
C457 C463 1.428 . S
C458 C461 1.260 . S
C458 C462 1.477 . S
C458 H476 0.932 . S
C459 C460 1.384 . S
C459 C461 1.479 . S
C459 H477 0.929 . S
C460 C457 1.424 . S
C460 C459 1.384 . S
C460 H478 0.928 . S
C461 C458 1.260 . S
C461 C459 1.479 . S
C462 C457 1.245 . S
C462 C458 1.477 . S
C462 H479 0.932 . S
C463 U446 2.882 . S
C463 C457 1.428 . S
C463 O466 1.301 . S
C463 O467 1.282 . S
O464 U446 2.441 . S
O464 C450 1.249 . S
O465 U446 2.420 . S
O465 C450 1.202 . S
O466 U446 2.455 . S
O466 C463 1.301 . S
O467 U446 2.449 . S
O467 C463 1.282 . S
H468 C441 0.931 . S
H469 C443 0.929 . S
H470 C444 0.930 . S
H471 C445 0.931 . S
H472 C452 0.932 . S
H473 C453 0.930 . S
H474 C454 0.929 . S
H475 C456 0.930 . S
H476 C458 0.932 . S
H477 C459 0.929 . S
H478 C460 0.928 . S
H479 C462 0.932 . S
C480 C481 1.264 . S
C480 C485 1.479 . S
C480 C490 1.465 . S
C481 C480 1.264 . S
C481 C483 1.339 . S
C481 H508 0.931 . S
C482 C483 1.395 . S
C482 C484 1.320 . S
C483 C481 1.339 . S
C483 C482 1.395 . S
C483 H509 0.929 . S
C484 C482 1.320 . S
C484 C485 1.405 . S
C484 H510 0.930 . S
C485 C480 1.479 . S
C485 C484 1.405 . S
C485 H511 0.931 . S
U486 O487 2.454 . S
U486 O488 2.458 . S
U486 C489 2.984 . S
U486 C490 2.847 . S
U486 C503 2.882 . S
U486 O504 2.441 . S
U486 O505 2.420 . S
U486 O506 2.455 . S
U486 O507 2.449 . S
O487 U486 2.454 . S
O487 C489 1.353 . S
O488 U486 2.458 . S
O488 C489 1.286 . S
C489 U486 2.984 . S
C489 O487 1.353 . S
C489 O488 1.286 . S
C489 C491 1.363 . S
C490 C480 1.465 . S
C490 U486 2.847 . S
C490 O504 1.249 . S
C490 O505 1.202 . S
C491 C489 1.363 . S
C491 C493 1.408 . S
C491 C496 1.342 . S
C492 C493 1.310 . S
C492 C495 1.461 . S
C492 H512 0.932 . S
C493 C491 1.408 . S
C493 C492 1.310 . S
C493 H513 0.930 . S
C494 C495 1.474 . S
C494 C496 1.285 . S
C494 H514 0.929 . S
C495 C492 1.461 . S
C495 C494 1.474 . S
C496 C491 1.342 . S
C496 C494 1.285 . S
C496 H515 0.930 . S
C497 C500 1.424 . S
C497 C502 1.245 . S
C497 C503 1.428 . S
C498 C501 1.260 . S
C498 C502 1.477 . S
C498 H516 0.932 . S
C499 C500 1.384 . S
C499 C501 1.479 . S
C499 H517 0.929 . S
C500 C497 1.424 . S
C500 C499 1.384 . S
C500 H518 0.928 . S
C501 C498 1.260 . S
C501 C499 1.479 . S
C502 C497 1.245 . S
C502 C498 1.477 . S
C502 H519 0.932 . S
C503 U486 2.882 . S
C503 C497 1.428 . S
C503 O506 1.301 . S
C503 O507 1.282 . S
O504 U486 2.441 . S
O504 C490 1.249 . S
O505 U486 2.420 . S
O505 C490 1.202 . S
O506 U486 2.455 . S
O506 C503 1.301 . S
O507 U486 2.449 . S
O507 C503 1.282 . S
H508 C481 0.931 . S
H509 C483 0.929 . S
H510 C484 0.930 . S
H511 C485 0.931 . S
H512 C492 0.932 . S
H513 C493 0.930 . S
H514 C494 0.929 . S
H515 C496 0.930 . S
H516 C498 0.932 . S
H517 C499 0.929 . S
H518 C500 0.928 . S
H519 C502 0.932 . S
C520 C521 1.264 . S
C520 C525 1.479 . S
C520 C530 1.465 . S
C521 C520 1.264 . S
C521 C523 1.339 . S
C521 H548 0.931 . S
C522 C523 1.395 . S
C522 C524 1.320 . S
C523 C521 1.339 . S
C523 C522 1.395 . S
C523 H549 0.929 . S
C524 C522 1.320 . S
C524 C525 1.405 . S
C524 H550 0.930 . S
C525 C520 1.479 . S
C525 C524 1.405 . S
C525 H551 0.931 . S
U526 O527 2.454 . S
U526 O528 2.458 . S
U526 C529 2.984 . S
U526 C530 2.847 . S
U526 C543 2.882 . S
U526 O544 2.441 . S
U526 O545 2.420 . S
U526 O546 2.455 . S
U526 O547 2.449 . S
O527 U526 2.454 . S
O527 C529 1.353 . S
O528 U526 2.458 . S
O528 C529 1.286 . S
C529 U526 2.984 . S
C529 O527 1.353 . S
C529 O528 1.286 . S
C529 C531 1.363 . S
C530 C520 1.465 . S
C530 U526 2.847 . S
C530 O544 1.249 . S
C530 O545 1.202 . S
C531 C529 1.363 . S
C531 C533 1.408 . S
C531 C536 1.342 . S
C532 C533 1.310 . S
C532 C535 1.461 . S
C532 H552 0.932 . S
C533 C531 1.408 . S
C533 C532 1.310 . S
C533 H553 0.930 . S
C534 C535 1.474 . S
C534 C536 1.285 . S
C534 H554 0.929 . S
C535 C532 1.461 . S
C535 C534 1.474 . S
C536 C531 1.342 . S
C536 C534 1.285 . S
C536 H555 0.930 . S
C537 C540 1.424 . S
C537 C542 1.245 . S
C537 C543 1.428 . S
C538 C541 1.260 . S
C538 C542 1.477 . S
C538 H556 0.932 . S
C539 C540 1.384 . S
C539 C541 1.479 . S
C539 H557 0.929 . S
C540 C537 1.424 . S
C540 C539 1.384 . S
C540 H558 0.928 . S
C541 C538 1.260 . S
C541 C539 1.479 . S
C542 C537 1.245 . S
C542 C538 1.477 . S
C542 H559 0.932 . S
C543 U526 2.882 . S
C543 C537 1.428 . S
C543 O546 1.301 . S
C543 O547 1.282 . S
O544 U526 2.441 . S
O544 C530 1.249 . S
O545 U526 2.420 . S
O545 C530 1.202 . S
O546 U526 2.455 . S
O546 C543 1.301 . S
O547 U526 2.449 . S
O547 C543 1.282 . S
H548 C521 0.931 . S
H549 C523 0.929 . S
H550 C524 0.930 . S
H551 C525 0.931 . S
H552 C532 0.932 . S
H553 C533 0.930 . S
H554 C534 0.929 . S
H555 C536 0.930 . S
H556 C538 0.932 . S
H557 C539 0.929 . S
H558 C540 0.928 . S
H559 C542 0.932 . S
C560 C561 1.264 . S
C560 C565 1.479 . S
C560 C570 1.465 . S
C561 C560 1.264 . S
C561 C563 1.339 . S
C561 H588 0.931 . S
C562 C563 1.395 . S
C562 C564 1.320 . S
C563 C561 1.339 . S
C563 C562 1.395 . S
C563 H589 0.929 . S
C564 C562 1.320 . S
C564 C565 1.405 . S
C564 H590 0.930 . S
C565 C560 1.479 . S
C565 C564 1.405 . S
C565 H591 0.931 . S
U566 O567 2.454 . S
U566 O568 2.458 . S
U566 C569 2.984 . S
U566 C570 2.847 . S
U566 C583 2.882 . S
U566 O584 2.441 . S
U566 O585 2.420 . S
U566 O586 2.455 . S
U566 O587 2.449 . S
O567 U566 2.454 . S
O567 C569 1.353 . S
O568 U566 2.458 . S
O568 C569 1.286 . S
C569 U566 2.984 . S
C569 O567 1.353 . S
C569 O568 1.286 . S
C569 C571 1.363 . S
C570 C560 1.465 . S
C570 U566 2.847 . S
C570 O584 1.249 . S
C570 O585 1.202 . S
C571 C569 1.363 . S
C571 C573 1.408 . S
C571 C576 1.342 . S
C572 C573 1.310 . S
C572 C575 1.461 . S
C572 H592 0.932 . S
C573 C571 1.408 . S
C573 C572 1.310 . S
C573 H593 0.930 . S
C574 C575 1.474 . S
C574 C576 1.285 . S
C574 H594 0.929 . S
C575 C572 1.461 . S
C575 C574 1.474 . S
C576 C571 1.342 . S
C576 C574 1.285 . S
C576 H595 0.930 . S
C577 C580 1.424 . S
C577 C582 1.245 . S
C577 C583 1.428 . S
C578 C581 1.260 . S
C578 C582 1.477 . S
C578 H596 0.932 . S
C579 C580 1.384 . S
C579 C581 1.479 . S
C579 H597 0.929 . S
C580 C577 1.424 . S
C580 C579 1.384 . S
C580 H598 0.928 . S
C581 C578 1.260 . S
C581 C579 1.479 . S
C582 C577 1.245 . S
C582 C578 1.477 . S
C582 H599 0.932 . S
C583 U566 2.882 . S
C583 C577 1.428 . S
C583 O586 1.301 . S
C583 O587 1.282 . S
O584 U566 2.441 . S
O584 C570 1.249 . S
O585 U566 2.420 . S
O585 C570 1.202 . S
O586 U566 2.455 . S
O586 C583 1.301 . S
O587 U566 2.449 . S
O587 C583 1.282 . S
H588 C561 0.931 . S
H589 C563 0.929 . S
H590 C564 0.930 . S
H591 C565 0.931 . S
H592 C572 0.932 . S
H593 C573 0.930 . S
H594 C574 0.929 . S
H595 C576 0.930 . S
H596 C578 0.932 . S
H597 C579 0.929 . S
H598 C580 0.928 . S
H599 C582 0.932 . S
C600 C601 1.264 . S
C600 C605 1.479 . S
C600 C610 1.465 . S
C601 C600 1.264 . S
C601 C603 1.339 . S
C601 H628 0.931 . S
C602 C603 1.395 . S
C602 C604 1.320 . S
C603 C601 1.339 . S
C603 C602 1.395 . S
C603 H629 0.929 . S
C604 C602 1.320 . S
C604 C605 1.405 . S
C604 H630 0.930 . S
C605 C600 1.479 . S
C605 C604 1.405 . S
C605 H631 0.931 . S
U606 O607 2.454 . S
U606 O608 2.458 . S
U606 C609 2.984 . S
U606 C610 2.847 . S
U606 C623 2.882 . S
U606 O624 2.441 . S
U606 O625 2.420 . S
U606 O626 2.455 . S
U606 O627 2.449 . S
O607 U606 2.454 . S
O607 C609 1.353 . S
O608 U606 2.458 . S
O608 C609 1.286 . S
C609 U606 2.984 . S
C609 O607 1.353 . S
C609 O608 1.286 . S
C609 C611 1.363 . S
C610 C600 1.465 . S
C610 U606 2.847 . S
C610 O624 1.249 . S
C610 O625 1.202 . S
C611 C609 1.363 . S
C611 C613 1.408 . S
C611 C616 1.342 . S
C612 C613 1.310 . S
C612 C615 1.461 . S
C612 H632 0.932 . S
C613 C611 1.408 . S
C613 C612 1.310 . S
C613 H633 0.930 . S
C614 C615 1.474 . S
C614 C616 1.285 . S
C614 H634 0.929 . S
C615 C612 1.461 . S
C615 C614 1.474 . S
C616 C611 1.342 . S
C616 C614 1.285 . S
C616 H635 0.930 . S
C617 C620 1.424 . S
C617 C622 1.245 . S
C617 C623 1.428 . S
C618 C621 1.260 . S
C618 C622 1.477 . S
C618 H636 0.932 . S
C619 C620 1.384 . S
C619 C621 1.479 . S
C619 H637 0.929 . S
C620 C617 1.424 . S
C620 C619 1.384 . S
C620 H638 0.928 . S
C621 C618 1.260 . S
C621 C619 1.479 . S
C622 C617 1.245 . S
C622 C618 1.477 . S
C622 H639 0.932 . S
C623 U606 2.882 . S
C623 C617 1.428 . S
C623 O626 1.301 . S
C623 O627 1.282 . S
O624 U606 2.441 . S
O624 C610 1.249 . S
O625 U606 2.420 . S
O625 C610 1.202 . S
O626 U606 2.455 . S
O626 C623 1.301 . S
O627 U606 2.449 . S
O627 C623 1.282 . S
H628 C601 0.931 . S
H629 C603 0.929 . S
H630 C604 0.930 . S
H631 C605 0.931 . S
H632 C612 0.932 . S
H633 C613 0.930 . S
H634 C614 0.929 . S
H635 C616 0.930 . S
H636 C618 0.932 . S
H637 C619 0.929 . S
H638 C620 0.928 . S
H639 C622 0.932 . S
C640 C641 1.264 . S
C640 C645 1.479 . S
C640 C650 1.465 . S
C641 C640 1.264 . S
C641 C643 1.339 . S
C641 H668 0.931 . S
C642 C643 1.395 . S
C642 C644 1.320 . S
C643 C641 1.339 . S
C643 C642 1.395 . S
C643 H669 0.929 . S
C644 C642 1.320 . S
C644 C645 1.405 . S
C644 H670 0.930 . S
C645 C640 1.479 . S
C645 C644 1.405 . S
C645 H671 0.931 . S
U646 O647 2.454 . S
U646 O648 2.458 . S
U646 C649 2.984 . S
U646 C650 2.847 . S
U646 C663 2.882 . S
U646 O664 2.441 . S
U646 O665 2.420 . S
U646 O666 2.455 . S
U646 O667 2.449 . S
O647 U646 2.454 . S
O647 C649 1.353 . S
O648 U646 2.458 . S
O648 C649 1.286 . S
C649 U646 2.984 . S
C649 O647 1.353 . S
C649 O648 1.286 . S
C649 C651 1.363 . S
C650 C640 1.465 . S
C650 U646 2.847 . S
C650 O664 1.249 . S
C650 O665 1.202 . S
C651 C649 1.363 . S
C651 C653 1.408 . S
C651 C656 1.342 . S
C652 C653 1.310 . S
C652 C655 1.461 . S
C652 H672 0.932 . S
C653 C651 1.408 . S
C653 C652 1.310 . S
C653 H673 0.930 . S
C654 C655 1.474 . S
C654 C656 1.285 . S
C654 H674 0.929 . S
C655 C652 1.461 . S
C655 C654 1.474 . S
C656 C651 1.342 . S
C656 C654 1.285 . S
C656 H675 0.930 . S
C657 C660 1.424 . S
C657 C662 1.245 . S
C657 C663 1.428 . S
C658 C661 1.260 . S
C658 C662 1.477 . S
C658 H676 0.940 . S
C659 C660 1.384 . S
C659 C661 1.479 . S
C659 H677 0.929 . S
C660 C657 1.424 . S
C660 C659 1.384 . S
C660 H678 0.928 . S
C661 C658 1.260 . S
C661 C659 1.479 . S
C662 C657 1.245 . S
C662 C658 1.477 . S
C662 H679 0.932 . S
C663 U646 2.882 . S
C663 C657 1.428 . S
C663 O666 1.301 . S
C663 O667 1.282 . S
O664 U646 2.441 . S
O664 C650 1.249 . S
O665 U646 2.420 . S
O665 C650 1.202 . S
O666 U646 2.455 . S
O666 C663 1.301 . S
O667 U646 2.449 . S
O667 C663 1.282 . S
H668 C641 0.931 . S
H669 C643 0.929 . S
H670 C644 0.930 . S
H671 C645 0.931 . S
H672 C652 0.932 . S
H673 C653 0.930 . S
H674 C654 0.929 . S
H675 C656 0.930 . S
H676 C658 0.940 . S
H677 C659 0.929 . S
H678 C660 0.928 . S
H679 C662 0.932 . S
C680 C681 1.264 . S
C680 C685 1.479 . S
C680 C690 1.465 . S
C681 C680 1.264 . S
C681 C683 1.339 . S
C681 H708 0.931 . S
C682 C683 1.395 . S
C682 C684 1.320 . S
C683 C681 1.339 . S
C683 C682 1.395 . S
C683 H709 0.929 . S
C684 C682 1.320 . S
C684 C685 1.405 . S
C684 H710 0.930 . S
C685 C680 1.479 . S
C685 C684 1.405 . S
C685 H711 0.931 . S
U686 O687 2.454 . S
U686 O688 2.458 . S
U686 C689 2.984 . S
U686 C690 2.847 . S
U686 C703 2.882 . S
U686 O704 2.441 . S
U686 O705 2.420 . S
U686 O706 2.455 . S
U686 O707 2.449 . S
O687 U686 2.454 . S
O687 C689 1.353 . S
O688 U686 2.458 . S
O688 C689 1.286 . S
C689 U686 2.984 . S
C689 O687 1.353 . S
C689 O688 1.286 . S
C689 C691 1.363 . S
C690 C680 1.465 . S
C690 U686 2.847 . S
C690 O704 1.249 . S
C690 O705 1.202 . S
C691 C689 1.363 . S
C691 C693 1.408 . S
C691 C696 1.342 . S
C692 C693 1.310 . S
C692 C695 1.461 . S
C692 H712 0.932 . S
C693 C691 1.408 . S
C693 C692 1.310 . S
C693 H713 0.930 . S
C694 C695 1.474 . S
C694 C696 1.285 . S
C694 H714 0.929 . S
C695 C692 1.461 . S
C695 C694 1.474 . S
C696 C691 1.342 . S
C696 C694 1.285 . S
C696 H715 0.930 . S
C697 C700 1.424 . S
C697 C702 1.245 . S
C697 C703 1.428 . S
C698 C701 1.260 . S
C698 C702 1.477 . S
C698 H716 0.932 . S
C699 C700 1.384 . S
C699 C701 1.479 . S
C699 H717 0.929 . S
C700 C697 1.424 . S
C700 C699 1.384 . S
C700 H718 0.928 . S
C701 C698 1.260 . S
C701 C699 1.479 . S
C702 C697 1.245 . S
C702 C698 1.477 . S
C702 H719 0.932 . S
C703 U686 2.882 . S
C703 C697 1.428 . S
C703 O706 1.301 . S
C703 O707 1.282 . S
O704 U686 2.441 . S
O704 C690 1.249 . S
O705 U686 2.420 . S
O705 C690 1.202 . S
O706 U686 2.455 . S
O706 C703 1.301 . S
O707 U686 2.449 . S
O707 C703 1.282 . S
H708 C681 0.931 . S
H709 C683 0.929 . S
H710 C684 0.930 . S
H711 C685 0.931 . S
H712 C692 0.932 . S
H713 C693 0.930 . S
H714 C694 0.929 . S
H715 C696 0.930 . S
H716 C698 0.932 . S
H717 C699 0.929 . S
H718 C700 0.928 . S
H719 C702 0.932 . S
Tb720 C730 2.825 . S
Tb720 O731 2.347 1_565 S
Tb720 O734 2.366 1_565 S
Tb720 O739 2.418 . S
Tb720 O740 2.384 1_556 S
Tb720 O743 2.479 . S
Tb720 O744 2.471 1_565 S
Eu721 O732 2.418 . S
Eu721 O733 2.384 . S
Eu721 O736 2.479 . S
Eu721 O737 2.471 1_545 S
Eu721 O738 2.347 1_545 S
Eu721 O741 2.366 1_545 S
Eu721 C751 2.825 . S
C722 O738 1.259 . S
C722 O739 1.265 1_554 S
C723 O740 1.255 . S
C723 O741 1.265 . S
C724 C726 1.380 . S
C724 C727 1.374 1_565 S
C724 C730 1.507 . S
C725 C726 1.384 . S
C725 C729 1.387 1_565 S
C725 H752 0.930 . S
C726 C724 1.380 . S
C726 C725 1.384 . S
C726 H753 0.931 . S
C727 C724 1.374 1_545 S
C727 C728 1.390 . S
C727 H754 0.930 . S
C728 C727 1.390 . S
C728 C729 1.391 . S
C728 H755 0.930 . S
C729 C725 1.387 1_545 S
C729 C728 1.391 . S
C730 Tb720 2.825 . S
C730 C724 1.507 . S
C730 O743 1.238 . S
C730 O744 1.247 1_565 S
O731 Tb720 2.347 1_545 S
O731 C735 1.259 1_556 S
O732 Eu721 2.418 . S
O732 C735 1.265 . S
O733 Eu721 2.384 . S
O733 C742 1.255 1_554 S
O734 Tb720 2.366 1_545 S
O734 C742 1.265 . S
C735 O731 1.259 1_554 S
C735 O732 1.265 . S
O736 Eu721 2.479 . S
O736 C751 1.238 . S
O737 Eu721 2.471 1_565 S
O737 C751 1.247 1_565 S
O738 Eu721 2.347 1_565 S
O738 C722 1.259 . S
O739 Tb720 2.418 . S
O739 C722 1.265 1_556 S
O740 Tb720 2.384 1_554 S
O740 C723 1.255 . S
O741 Eu721 2.366 1_565 S
O741 C723 1.265 . S
C742 O733 1.255 1_556 S
C742 O734 1.265 . S
O743 Tb720 2.479 . S
O743 C730 1.238 . S
O744 Tb720 2.471 1_545 S
O744 C730 1.247 1_545 S
C745 C748 1.380 . S
C745 C749 1.374 1_545 S
C745 C751 1.507 . S
C746 C747 1.387 1_565 S
C746 C750 1.391 . S
C747 C746 1.387 1_545 S
C747 C748 1.384 . S
C747 H756 0.930 . S
C748 C745 1.380 . S
C748 C747 1.384 . S
C748 H757 0.931 . S
C749 C745 1.374 1_565 S
C749 C750 1.390 . S
C749 H758 0.930 . S
C750 C746 1.391 . S
C750 C749 1.390 . S
C750 H759 0.930 . S
C751 Eu721 2.825 . S
C751 O736 1.238 . S
C751 O737 1.247 1_545 S
C751 C745 1.507 . S
H752 C725 0.930 . S
H753 C726 0.931 . S
H754 C727 0.930 . S
H755 C728 0.930 . S
H756 C747 0.930 . S
H757 C748 0.931 . S
H758 C749 0.930 . S
H759 C750 0.930 . S
Tb760 C770 2.825 . S
Tb760 O771 2.347 1_455 S
Tb760 O774 2.366 1_455 S
Tb760 O779 2.418 . S
Tb760 O780 2.384 1_556 S
Tb760 O783 2.479 . S
Tb760 O784 2.471 1_455 S
Eu761 O772 2.418 . S
Eu761 O773 2.384 . S
Eu761 O776 2.479 . S
Eu761 O777 2.471 1_655 S
Eu761 O778 2.347 1_655 S
Eu761 O781 2.366 1_655 S
Eu761 C791 2.825 . S
C762 O778 1.259 . S
C762 O779 1.265 1_554 S
C763 O780 1.255 . S
C763 O781 1.265 . S
C764 C766 1.380 . S
C764 C767 1.374 1_455 S
C764 C770 1.507 . S
C765 C766 1.384 . S
C765 C769 1.387 1_455 S
C765 H792 0.930 . S
C766 C764 1.380 . S
C766 C765 1.384 . S
C766 H793 0.931 . S
C767 C764 1.374 1_655 S
C767 C768 1.390 . S
C767 H794 0.930 . S
C768 C767 1.390 . S
C768 C769 1.391 . S
C768 H795 0.930 . S
C769 C765 1.387 1_655 S
C769 C768 1.391 . S
C770 Tb760 2.825 . S
C770 C764 1.507 . S
C770 O783 1.238 . S
C770 O784 1.247 1_455 S
O771 Tb760 2.347 1_655 S
O771 C775 1.283 . S
O772 Eu761 2.418 . S
O772 C775 1.209 1_554 S
O773 Eu761 2.384 . S
O773 C782 1.255 1_554 S
O774 Tb760 2.366 1_655 S
O774 C782 1.265 . S
C775 O771 1.283 . S
C775 O772 1.209 1_556 S
O776 Eu761 2.479 . S
O776 C791 1.238 . S
O777 Eu761 2.471 1_455 S
O777 C791 1.247 1_455 S
O778 Eu761 2.347 1_455 S
O778 C762 1.259 . S
O779 Tb760 2.418 . S
O779 C762 1.265 1_556 S
O780 Tb760 2.384 1_554 S
O780 C763 1.255 . S
O781 Eu761 2.366 1_455 S
O781 C763 1.265 . S
C782 O773 1.255 1_556 S
C782 O774 1.265 . S
O783 Tb760 2.479 . S
O783 C770 1.238 . S
O784 Tb760 2.471 1_655 S
O784 C770 1.247 1_655 S
C785 C788 1.372 1_455 S
C785 C789 1.389 . S
C785 C791 1.500 1_455 S
C786 C787 1.387 1_455 S
C786 C790 1.391 . S
C787 C786 1.387 1_655 S
C787 C788 1.384 . S
C787 H796 0.930 . S
C788 C785 1.372 1_655 S
C788 C787 1.384 . S
C788 H797 0.931 . S
C789 C785 1.389 . S
C789 C790 1.390 . S
C789 H798 0.930 . S
C790 C786 1.391 . S
C790 C789 1.390 . S
C790 H799 0.930 . S
C791 Eu761 2.825 . S
C791 O776 1.238 . S
C791 O777 1.247 1_655 S
C791 C785 1.500 1_655 S
H792 C765 0.930 . S
H793 C766 0.931 . S
H794 C767 0.930 . S
H795 C768 0.930 . S
H796 C787 0.930 . S
H797 C788 0.931 . S
H798 C789 0.930 . S
H799 C790 0.930 . S
Tb800 C810 2.825 . S
Tb800 O811 2.347 . S
Tb800 O814 2.366 . S
Tb800 O819 2.418 . S
Tb800 O820 2.384 . S
Tb800 O823 2.479 . S
Tb800 O824 2.471 . S
Eu801 O812 2.418 . S
Eu801 O813 2.384 1_556 S
Eu801 O816 2.479 . S
Eu801 O817 2.471 . S
Eu801 O818 2.347 . S
Eu801 O821 2.366 . S
Eu801 C831 2.825 . S
C802 O818 1.262 1_554 S
C802 O819 1.258 . S
C803 O820 1.255 1_556 S
C803 O821 1.265 . S
C804 C806 1.380 . S
C804 C807 1.374 . S
C804 C810 1.507 . S
C805 C806 1.384 . S
C805 C809 1.387 . S
C805 H832 0.930 . S
C806 C804 1.380 . S
C806 C805 1.384 . S
C806 H833 0.931 . S
C807 C804 1.374 . S
C807 C808 1.390 . S
C807 H834 0.930 . S
C808 C807 1.390 . S
C808 C809 1.391 . S
C808 H835 0.930 . S
C809 C805 1.387 . S
C809 C808 1.391 . S
C810 Tb800 2.825 . S
C810 C804 1.507 . S
C810 O823 1.238 . S
C810 O824 1.247 . S
O811 Tb800 2.347 . S
O811 C815 1.259 . S
O812 Eu801 2.418 . S
O812 C815 1.265 1_556 S
O813 Eu801 2.384 1_554 S
O813 C822 1.255 . S
O814 Tb800 2.366 . S
O814 C822 1.265 . S
C815 O811 1.259 . S
C815 O812 1.265 1_554 S
O816 Eu801 2.479 . S
O816 C831 1.238 . S
O817 Eu801 2.471 . S
O817 C831 1.247 . S
O818 Eu801 2.347 . S
O818 C802 1.262 1_556 S
O819 Tb800 2.418 . S
O819 C802 1.258 . S
O820 Tb800 2.384 . S
O820 C803 1.255 1_554 S
O821 Eu801 2.366 . S
O821 C803 1.265 . S
C822 O813 1.255 . S
C822 O814 1.265 . S
O823 Tb800 2.479 . S
O823 C810 1.238 . S
O824 Tb800 2.471 . S
O824 C810 1.247 . S
C825 C828 1.380 . S
C825 C829 1.374 . S
C825 C831 1.507 . S
C826 C827 1.387 . S
C826 C830 1.391 . S
C827 C826 1.387 . S
C827 C828 1.384 . S
C827 H836 0.930 . S
C828 C825 1.380 . S
C828 C827 1.384 . S
C828 H837 0.931 . S
C829 C825 1.374 . S
C829 C830 1.390 . S
C829 H838 0.930 . S
C830 C826 1.391 . S
C830 C829 1.390 . S
C830 H839 0.930 . S
C831 Eu801 2.825 . S
C831 O816 1.238 . S
C831 O817 1.247 . S
C831 C825 1.507 . S
H832 C805 0.930 . S
H833 C806 0.931 . S
H834 C807 0.930 . S
H835 C808 0.930 . S
H836 C827 0.930 . S
H837 C828 0.931 . S
H838 C829 0.930 . S
H839 C830 0.930 . S
Tb840 C850 2.825 . S
Tb840 O851 2.347 . S
Tb840 O854 2.366 . S
Tb840 O859 2.418 . S
Tb840 O860 2.384 . S
Tb840 O863 2.479 . S
Tb840 O864 2.471 . S
Eu841 O852 2.418 . S
Eu841 O853 2.384 . S
Eu841 O856 2.479 . S
Eu841 O857 2.471 . S
Eu841 O858 2.347 . S
Eu841 O861 2.366 . S
Eu841 C871 2.825 . S
C842 O858 1.259 . S
C842 O859 1.265 . S
C843 O860 1.255 . S
C843 O861 1.265 . S
C844 C846 1.380 . S
C844 C847 1.374 . S
C844 C850 1.507 . S
C845 C846 1.384 . S
C845 C849 1.387 . S
C845 H872 0.930 . S
C846 C844 1.380 . S
C846 C845 1.384 . S
C846 H873 0.931 . S
C847 C844 1.374 . S
C847 C848 1.390 . S
C847 H874 0.930 . S
C848 C847 1.390 . S
C848 C849 1.391 . S
C848 H875 0.930 . S
C849 C845 1.387 . S
C849 C848 1.391 . S
C850 Tb840 2.825 . S
C850 C844 1.507 . S
C850 O863 1.238 . S
C850 O864 1.247 . S
O851 Tb840 2.347 . S
O851 C855 1.259 . S
O852 Eu841 2.418 . S
O852 C855 1.265 . S
O853 Eu841 2.384 . S
O853 C862 1.255 . S
O854 Tb840 2.366 . S
O854 C862 1.265 . S
C855 O851 1.259 . S
C855 O852 1.265 . S
O856 Eu841 2.479 . S
O856 C871 1.238 . S
O857 Eu841 2.471 . S
O857 C871 1.247 . S
O858 Eu841 2.347 . S
O858 C842 1.259 . S
O859 Tb840 2.418 . S
O859 C842 1.265 . S
O860 Tb840 2.384 . S
O860 C843 1.255 . S
O861 Eu841 2.366 . S
O861 C843 1.265 . S
C862 O853 1.255 . S
C862 O854 1.265 . S
O863 Tb840 2.479 . S
O863 C850 1.238 . S
O864 Tb840 2.471 . S
O864 C850 1.247 . S
C865 C868 1.380 . S
C865 C869 1.374 . S
C865 C871 1.507 . S
C866 C867 1.387 . S
C866 C870 1.391 . S
C867 C866 1.387 . S
C867 C868 1.384 . S
C867 H876 0.930 . S
C868 C865 1.380 . S
C868 C867 1.384 . S
C868 H877 0.931 . S
C869 C865 1.374 . S
C869 C870 1.390 . S
C869 H878 0.930 . S
C870 C866 1.391 . S
C870 C869 1.390 . S
C870 H879 0.930 . S
C871 Eu841 2.825 . S
C871 O856 1.238 . S
C871 O857 1.247 . S
C871 C865 1.507 . S
H872 C845 0.930 . S
H873 C846 0.931 . S
H874 C847 0.930 . S
H875 C848 0.930 . S
H876 C867 0.930 . S
H877 C868 0.931 . S
H878 C869 0.930 . S
H879 C870 0.930 . S
Tb880 C890 2.825 . S
Tb880 O891 2.347 . S
Tb880 O894 2.366 . S
Tb880 O899 2.418 . S
Tb880 O900 2.384 . S
Tb880 O903 2.479 . S
Tb880 O904 2.471 . S
Eu881 O892 2.418 . S
Eu881 O893 2.384 . S
Eu881 O896 2.479 . S
Eu881 O897 2.471 . S
Eu881 O898 2.347 . S
Eu881 O901 2.366 . S
Eu881 C911 2.825 . S
C882 O898 1.259 . S
C882 O899 1.265 . S
C883 O900 1.255 . S
C883 O901 1.265 . S
C884 C886 1.380 . S
C884 C887 1.374 . S
C884 C890 1.507 . S
C885 C886 1.384 . S
C885 C889 1.387 . S
C885 H912 0.930 . S
C886 C884 1.380 . S
C886 C885 1.384 . S
C886 H913 0.931 . S
C887 C884 1.374 . S
C887 C888 1.390 . S
C887 H914 0.930 . S
C888 C887 1.390 . S
C888 C889 1.391 . S
C888 H915 0.930 . S
C889 C885 1.387 . S
C889 C888 1.391 . S
C890 Tb880 2.825 . S
C890 C884 1.507 . S
C890 O903 1.238 . S
C890 O904 1.247 . S
O891 Tb880 2.347 . S
O891 C895 1.259 . S
O892 Eu881 2.418 . S
O892 C895 1.265 . S
O893 Eu881 2.384 . S
O893 C902 1.255 . S
O894 Tb880 2.366 . S
O894 C902 1.265 . S
C895 O891 1.259 . S
C895 O892 1.265 . S
O896 Eu881 2.479 . S
O896 C911 1.238 . S
O897 Eu881 2.471 . S
O897 C911 1.247 . S
O898 Eu881 2.347 . S
O898 C882 1.259 . S
O899 Tb880 2.418 . S
O899 C882 1.265 . S
O900 Tb880 2.384 . S
O900 C883 1.255 . S
O901 Eu881 2.366 . S
O901 C883 1.265 . S
C902 O893 1.255 . S
C902 O894 1.265 . S
O903 Tb880 2.479 . S
O903 C890 1.238 . S
O904 Tb880 2.471 . S
O904 C890 1.247 . S
C905 C908 1.380 . S
C905 C909 1.374 . S
C905 C911 1.507 . S
C906 C907 1.387 . S
C906 C910 1.391 . S
C907 C906 1.387 . S
C907 C908 1.384 . S
C907 H916 0.930 . S
C908 C905 1.380 . S
C908 C907 1.384 . S
C908 H917 0.931 . S
C909 C905 1.374 . S
C909 C910 1.390 . S
C909 H918 0.930 . S
C910 C906 1.391 . S
C910 C909 1.390 . S
C910 H919 0.930 . S
C911 Eu881 2.825 . S
C911 O896 1.238 . S
C911 O897 1.247 . S
C911 C905 1.507 . S
H912 C885 0.930 . S
H913 C886 0.931 . S
H914 C887 0.930 . S
H915 C888 0.930 . S
H916 C907 0.930 . S
H917 C908 0.931 . S
H918 C909 0.930 . S
H919 C910 0.930 . S
Tb920 C930 2.825 . S
Tb920 O931 2.347 . S
Tb920 O934 2.366 . S
Tb920 O939 2.418 . S
Tb920 O940 2.384 . S
Tb920 O943 2.479 . S
Tb920 O944 2.471 . S
Eu921 O932 2.418 . S
Eu921 O933 2.384 . S
Eu921 O936 2.479 . S
Eu921 O937 2.471 . S
Eu921 O938 2.347 . S
Eu921 O941 2.366 . S
Eu921 C951 2.825 . S
C922 O938 1.259 . S
C922 O939 1.265 . S
C923 O940 1.255 . S
C923 O941 1.265 . S
C924 C926 1.380 . S
C924 C927 1.374 . S
C924 C930 1.507 . S
C925 C926 1.384 . S
C925 C929 1.387 . S
C925 H952 0.930 . S
C926 C924 1.380 . S
C926 C925 1.384 . S
C926 H953 0.931 . S
C927 C924 1.374 . S
C927 C928 1.390 . S
C927 H954 0.930 . S
C928 C927 1.390 . S
C928 C929 1.391 . S
C928 H955 0.930 . S
C929 C925 1.387 . S
C929 C928 1.391 . S
C930 Tb920 2.825 . S
C930 C924 1.507 . S
C930 O943 1.238 . S
C930 O944 1.247 . S
O931 Tb920 2.347 . S
O931 C935 1.259 . S
O932 Eu921 2.418 . S
O932 C935 1.265 . S
O933 Eu921 2.384 . S
O933 C942 1.255 . S
O934 Tb920 2.366 . S
O934 C942 1.265 . S
C935 O931 1.259 . S
C935 O932 1.265 . S
O936 Eu921 2.479 . S
O936 C951 1.238 . S
O937 Eu921 2.471 . S
O937 C951 1.247 . S
O938 Eu921 2.347 . S
O938 C922 1.259 . S
O939 Tb920 2.418 . S
O939 C922 1.265 . S
O940 Tb920 2.384 . S
O940 C923 1.255 . S
O941 Eu921 2.366 . S
O941 C923 1.265 . S
C942 O933 1.255 . S
C942 O934 1.265 . S
O943 Tb920 2.479 . S
O943 C930 1.238 . S
O944 Tb920 2.471 . S
O944 C930 1.247 . S
C945 C948 1.380 . S
C945 C949 1.374 . S
C945 C951 1.507 . S
C946 C947 1.387 . S
C946 C950 1.391 . S
C947 C946 1.387 . S
C947 C948 1.384 . S
C947 H956 0.930 . S
C948 C945 1.380 . S
C948 C947 1.384 . S
C948 H957 0.931 . S
C949 C945 1.374 . S
C949 C950 1.390 . S
C949 H958 0.930 . S
C950 C946 1.391 . S
C950 C949 1.390 . S
C950 H959 0.930 . S
C951 Eu921 2.825 . S
C951 O936 1.238 . S
C951 O937 1.247 . S
C951 C945 1.507 . S
H952 C925 0.930 . S
H953 C926 0.931 . S
H954 C927 0.930 . S
H955 C928 0.930 . S
H956 C947 0.930 . S
H957 C948 0.931 . S
H958 C949 0.930 . S
H959 C950 0.930 . S
Tb960 C970 2.825 . S
Tb960 O971 2.347 . S
Tb960 O974 2.366 . S
Tb960 O979 2.418 . S
Tb960 O980 2.384 . S
Tb960 O983 2.479 . S
Tb960 O984 2.471 . S
Eu961 O972 2.418 . S
Eu961 O973 2.384 . S
Eu961 O976 2.479 . S
Eu961 O977 2.471 . S
Eu961 O978 2.347 . S
Eu961 O981 2.366 . S
Eu961 C991 2.825 . S
C962 O978 1.259 . S
C962 O979 1.265 . S
C963 O980 1.255 . S
C963 O981 1.265 . S
C964 C966 1.380 . S
C964 C967 1.374 . S
C964 C970 1.507 . S
C965 C966 1.384 . S
C965 C969 1.387 . S
C965 H992 0.930 . S
C966 C964 1.380 . S
C966 C965 1.384 . S
C966 H993 0.931 . S
C967 C964 1.374 . S
C967 C968 1.390 . S
C967 H994 0.930 . S
C968 C967 1.390 . S
C968 C969 1.391 . S
C968 H995 0.930 . S
C969 C965 1.387 . S
C969 C968 1.391 . S
C970 Tb960 2.825 . S
C970 C964 1.507 . S
C970 O983 1.238 . S
C970 O984 1.247 . S
O971 Tb960 2.347 . S
O971 C975 1.259 . S
O972 Eu961 2.418 . S
O972 C975 1.265 . S
O973 Eu961 2.384 . S
O973 C982 1.255 . S
O974 Tb960 2.366 . S
O974 C982 1.265 . S
C975 O971 1.259 . S
C975 O972 1.265 . S
O976 Eu961 2.479 . S
O976 C991 1.238 . S
O977 Eu961 2.471 . S
O977 C991 1.247 . S
O978 Eu961 2.347 . S
O978 C962 1.259 . S
O979 Tb960 2.418 . S
O979 C962 1.265 . S
O980 Tb960 2.384 . S
O980 C963 1.255 . S
O981 Eu961 2.366 . S
O981 C963 1.265 . S
C982 O973 1.255 . S
C982 O974 1.265 . S
O983 Tb960 2.479 . S
O983 C970 1.238 . S
O984 Tb960 2.471 . S
O984 C970 1.247 . S
C985 C988 1.380 . S
C985 C989 1.374 . S
C985 C991 1.507 . S
C986 C987 1.387 . S
C986 C990 1.391 . S
C987 C986 1.387 . S
C987 C988 1.384 . S
C987 H996 0.930 . S
C988 C985 1.380 . S
C988 C987 1.384 . S
C988 H997 0.931 . S
C989 C985 1.374 . S
C989 C990 1.390 . S
C989 H998 0.930 . S
C990 C986 1.391 . S
C990 C989 1.390 . S
C990 H999 0.930 . S
C991 Eu961 2.825 . S
C991 O976 1.238 . S
C991 O977 1.247 . S
C991 C985 1.507 . S
H992 C965 0.930 . S
H993 C966 0.931 . S
H994 C967 0.930 . S
H995 C968 0.930 . S
H996 C987 0.930 . S
H997 C988 0.931 . S
H998 C989 0.930 . S
H999 C990 0.930 . S
Tb1000 C1010 2.825 . S
Tb1000 O1011 2.347 . S
Tb1000 O1014 2.366 . S
Tb1000 O1019 2.418 . S
Tb1000 O1020 2.384 . S
Tb1000 O1023 2.479 . S
Tb1000 O1024 2.471 . S
Eu1001 O1012 2.418 . S
Eu1001 O1013 2.384 . S
Eu1001 O1016 2.479 . S
Eu1001 O1017 2.471 . S
Eu1001 O1018 2.347 . S
Eu1001 O1021 2.366 . S
Eu1001 C1031 2.825 . S
C1002 O1018 1.259 . S
C1002 O1019 1.265 . S
C1003 O1020 1.255 . S
C1003 O1021 1.265 . S
C1004 C1006 1.380 . S
C1004 C1007 1.374 . S
C1004 C1010 1.507 . S
C1005 C1006 1.384 . S
C1005 C1009 1.387 . S
C1005 H1032 0.930 . S
C1006 C1004 1.380 . S
C1006 C1005 1.384 . S
C1006 H1033 0.931 . S
C1007 C1004 1.374 . S
C1007 C1008 1.390 . S
C1007 H1034 0.930 . S
C1008 C1007 1.390 . S
C1008 C1009 1.391 . S
C1008 H1035 0.930 . S
C1009 C1005 1.387 . S
C1009 C1008 1.391 . S
C1010 Tb1000 2.825 . S
C1010 C1004 1.507 . S
C1010 O1023 1.238 . S
C1010 O1024 1.247 . S
O1011 Tb1000 2.347 . S
O1011 C1015 1.259 . S
O1012 Eu1001 2.418 . S
O1012 C1015 1.265 . S
O1013 Eu1001 2.384 . S
O1013 C1022 1.255 . S
O1014 Tb1000 2.366 . S
O1014 C1022 1.265 . S
C1015 O1011 1.259 . S
C1015 O1012 1.265 . S
O1016 Eu1001 2.479 . S
O1016 C1031 1.238 . S
O1017 Eu1001 2.471 . S
O1017 C1031 1.247 . S
O1018 Eu1001 2.347 . S
O1018 C1002 1.259 . S
O1019 Tb1000 2.418 . S
O1019 C1002 1.265 . S
O1020 Tb1000 2.384 . S
O1020 C1003 1.255 . S
O1021 Eu1001 2.366 . S
O1021 C1003 1.265 . S
C1022 O1013 1.255 . S
C1022 O1014 1.265 . S
O1023 Tb1000 2.479 . S
O1023 C1010 1.238 . S
O1024 Tb1000 2.471 . S
O1024 C1010 1.247 . S
C1025 C1028 1.380 . S
C1025 C1029 1.374 . S
C1025 C1031 1.507 . S
C1026 C1027 1.387 . S
C1026 C1030 1.391 . S
C1027 C1026 1.387 . S
C1027 C1028 1.384 . S
C1027 H1036 0.930 . S
C1028 C1025 1.380 . S
C1028 C1027 1.384 . S
C1028 H1037 0.931 . S
C1029 C1025 1.374 . S
C1029 C1030 1.390 . S
C1029 H1038 0.930 . S
C1030 C1026 1.391 . S
C1030 C1029 1.390 . S
C1030 H1039 0.930 . S
C1031 Eu1001 2.825 . S
C1031 O1016 1.238 . S
C1031 O1017 1.247 . S
C1031 C1025 1.507 . S
H1032 C1005 0.930 . S
H1033 C1006 0.931 . S
H1034 C1007 0.930 . S
H1035 C1008 0.930 . S
H1036 C1027 0.930 . S
H1037 C1028 0.931 . S
H1038 C1029 0.930 . S
H1039 C1030 0.930 . S
Tb1040 C1050 2.825 . S
Tb1040 O1051 2.347 . S
Tb1040 O1054 2.366 . S
Tb1040 O1059 2.418 . S
Tb1040 O1060 2.384 . S
Tb1040 O1063 2.479 . S
Tb1040 O1064 2.471 . S
Eu1041 O1052 2.418 . S
Eu1041 O1053 2.384 . S
Eu1041 O1056 2.479 . S
Eu1041 O1057 2.471 . S
Eu1041 O1058 2.347 . S
Eu1041 O1061 2.366 . S
Eu1041 C1071 2.825 . S
C1042 O1058 1.259 . S
C1042 O1059 1.265 . S
C1043 O1060 1.255 . S
C1043 O1061 1.265 . S
C1044 C1046 1.380 . S
C1044 C1047 1.374 . S
C1044 C1050 1.507 . S
C1045 C1046 1.384 . S
C1045 C1049 1.387 . S
C1045 H1072 0.930 . S
C1046 C1044 1.380 . S
C1046 C1045 1.384 . S
C1046 H1073 0.931 . S
C1047 C1044 1.374 . S
C1047 C1048 1.390 . S
C1047 H1074 0.930 . S
C1048 C1047 1.390 . S
C1048 C1049 1.391 . S
C1048 H1075 0.930 . S
C1049 C1045 1.387 . S
C1049 C1048 1.391 . S
C1050 Tb1040 2.825 . S
C1050 C1044 1.507 . S
C1050 O1063 1.238 . S
C1050 O1064 1.247 . S
O1051 Tb1040 2.347 . S
O1051 C1055 1.259 . S
O1052 Eu1041 2.418 . S
O1052 C1055 1.265 . S
O1053 Eu1041 2.384 . S
O1053 C1062 1.255 . S
O1054 Tb1040 2.366 . S
O1054 C1062 1.265 . S
C1055 O1051 1.259 . S
C1055 O1052 1.265 . S
O1056 Eu1041 2.479 . S
O1056 C1071 1.238 . S
O1057 Eu1041 2.471 . S
O1057 C1071 1.247 . S
O1058 Eu1041 2.347 . S
O1058 C1042 1.259 . S
O1059 Tb1040 2.418 . S
O1059 C1042 1.265 . S
O1060 Tb1040 2.384 . S
O1060 C1043 1.255 . S
O1061 Eu1041 2.366 . S
O1061 C1043 1.265 . S
C1062 O1053 1.255 . S
C1062 O1054 1.265 . S
O1063 Tb1040 2.479 . S
O1063 C1050 1.238 . S
O1064 Tb1040 2.471 . S
O1064 C1050 1.247 . S
C1065 C1068 1.380 . S
C1065 C1069 1.374 . S
C1065 C1071 1.507 . S
C1066 C1067 1.387 . S
C1066 C1070 1.391 . S
C1067 C1066 1.387 . S
C1067 C1068 1.384 . S
C1067 H1076 0.930 . S
C1068 C1065 1.380 . S
C1068 C1067 1.384 . S
C1068 H1077 0.931 . S
C1069 C1065 1.374 . S
C1069 C1070 1.390 . S
C1069 H1078 0.930 . S
C1070 C1066 1.391 . S
C1070 C1069 1.390 . S
C1070 H1079 0.930 . S
C1071 Eu1041 2.825 . S
C1071 O1056 1.238 . S
C1071 O1057 1.247 . S
C1071 C1065 1.507 . S
H1072 C1045 0.930 . S
H1073 C1046 0.931 . S
H1074 C1047 0.930 . S
H1075 C1048 0.930 . S
H1076 C1067 0.930 . S
H1077 C1068 0.931 . S
H1078 C1069 0.930 . S
H1079 C1070 0.930 . S
H1080 C1088 0.950 . S
H1081 C1093 0.950 . S
H1082 C1090 0.950 . S
H1083 C1092 0.950 . S
H1084 C1094 0.950 . S
H1085 C1096 0.950 . S
H1086 C1098 0.950 . S
H1087 C1099 0.950 . S
C1088 H1080 0.950 . S
C1088 C1089 1.386 . S
C1088 C1090 1.391 . S
C1089 C1088 1.386 . S
C1089 C1093 1.393 . S
C1090 H1082 0.950 . S
C1090 C1088 1.391 . S
C1090 C1091 1.400 . S
C1091 C1090 1.400 . S
C1091 C1092 1.398 . S
C1091 C1097 1.491 . S
C1092 H1083 0.950 . S
C1092 C1091 1.398 . S
C1092 C1093 1.391 . S
C1093 H1081 0.950 . S
C1093 C1089 1.393 . S
C1093 C1092 1.391 . S
C1094 H1084 0.950 . S
C1094 C1095 1.386 . S
C1094 C1096 1.391 . S
C1095 C1094 1.386 . S
C1095 C1099 1.393 . S
C1096 H1085 0.950 . S
C1096 C1094 1.391 . S
C1096 C1097 1.400 . S
C1097 C1091 1.491 . S
C1097 C1096 1.400 . S
C1097 C1098 1.398 . S
C1098 H1086 0.950 . S
C1098 C1097 1.398 . S
C1098 C1099 1.391 . S
C1099 H1087 0.950 . S
C1099 C1095 1.393 . S
C1099 C1098 1.391 . S
H1100 C1108 0.950 . S
H1101 C1113 0.950 . S
H1102 C1110 0.950 . S
H1103 C1112 0.950 . S
H1104 C1114 0.950 . S
H1105 C1116 0.950 . S
H1106 C1118 0.950 . S
H1107 C1119 0.950 . S
C1108 H1100 0.950 . S
C1108 C1109 1.386 . S
C1108 C1110 1.391 . S
C1109 C1108 1.386 . S
C1109 C1113 1.393 . S
C1110 H1102 0.950 . S
C1110 C1108 1.391 . S
C1110 C1111 1.400 . S
C1111 C1110 1.400 . S
C1111 C1112 1.398 . S
C1111 C1117 1.491 . S
C1112 H1103 0.950 . S
C1112 C1111 1.398 . S
C1112 C1113 1.391 . S
C1113 H1101 0.950 . S
C1113 C1109 1.393 . S
C1113 C1112 1.391 . S
C1114 H1104 0.950 . S
C1114 C1115 1.386 . S
C1114 C1116 1.391 . S
C1115 C1114 1.386 . S
C1115 C1119 1.393 . S
C1116 H1105 0.950 . S
C1116 C1114 1.391 . S
C1116 C1117 1.400 . S
C1117 C1111 1.491 . S
C1117 C1116 1.400 . S
C1117 C1118 1.398 . S
C1118 H1106 0.950 . S
C1118 C1117 1.398 . S
C1118 C1119 1.391 . S
C1119 H1107 0.950 . S
C1119 C1115 1.393 . S
C1119 C1118 1.391 . S
H1120 C1128 0.950 . S
H1121 C1133 0.950 . S
H1122 C1130 0.950 . S
H1123 C1132 0.950 . S
H1124 C1134 0.950 . S
H1125 C1136 0.950 . S
H1126 C1138 0.950 . S
H1127 C1139 0.950 . S
C1128 H1120 0.950 . S
C1128 C1129 1.386 . S
C1128 C1130 1.391 . S
C1129 C1128 1.386 . S
C1129 C1133 1.393 . S
C1130 H1122 0.950 . S
C1130 C1128 1.391 . S
C1130 C1131 1.400 . S
C1131 C1130 1.400 . S
C1131 C1132 1.398 . S
C1131 C1137 1.491 . S
C1132 H1123 0.950 . S
C1132 C1131 1.398 . S
C1132 C1133 1.391 . S
C1133 H1121 0.950 . S
C1133 C1129 1.393 . S
C1133 C1132 1.391 . S
C1134 H1124 0.950 . S
C1134 C1135 1.386 . S
C1134 C1136 1.391 . S
C1135 C1134 1.386 . S
C1135 C1139 1.393 . S
C1136 H1125 0.950 . S
C1136 C1134 1.391 . S
C1136 C1137 1.400 . S
C1137 C1131 1.491 . S
C1137 C1136 1.400 . S
C1137 C1138 1.398 . S
C1138 H1126 0.950 . S
C1138 C1137 1.398 . S
C1138 C1139 1.391 . S
C1139 H1127 0.950 . S
C1139 C1135 1.393 . S
C1139 C1138 1.391 . S
H1140 C1148 0.950 . S
H1141 C1153 0.950 . S
H1142 C1150 0.950 . S
H1143 C1152 0.950 1_554 S
H1144 C1154 0.950 . S
H1145 C1156 0.949 . S
H1146 C1158 0.950 . S
H1147 C1159 0.950 . S
C1148 H1140 0.950 . S
C1148 C1149 1.386 . S
C1148 C1150 1.391 . S
C1149 C1148 1.386 . S
C1149 C1153 1.393 . S
C1150 H1142 0.950 . S
C1150 C1148 1.391 . S
C1150 C1151 1.400 . S
C1151 C1150 1.400 . S
C1151 C1152 1.398 . S
C1151 C1157 1.491 . S
C1152 H1143 0.950 1_556 S
C1152 C1151 1.398 . S
C1152 C1153 1.391 . S
C1153 H1141 0.950 . S
C1153 C1149 1.393 . S
C1153 C1152 1.391 . S
C1154 H1144 0.950 . S
C1154 C1155 1.386 1_554 S
C1154 C1156 1.391 . S
C1155 C1154 1.386 1_556 S
C1155 C1159 1.393 . S
C1156 H1145 0.949 . S
C1156 C1154 1.391 . S
C1156 C1157 1.401 1_554 S
C1157 C1151 1.491 . S
C1157 C1156 1.401 1_556 S
C1157 C1158 1.398 . S
C1158 H1146 0.950 . S
C1158 C1157 1.398 . S
C1158 C1159 1.391 . S
C1159 H1147 0.950 . S
C1159 C1155 1.393 . S
C1159 C1158 1.391 . S
H1160 C1168 0.950 . S
H1161 C1173 0.950 . S
H1162 C1170 0.950 . S
H1163 C1172 0.950 . S
H1164 C1174 0.950 . S
H1165 C1176 0.950 . S
H1166 C1178 0.950 . S
H1167 C1179 0.950 . S
C1168 H1160 0.950 . S
C1168 C1169 1.386 . S
C1168 C1170 1.391 . S
C1169 C1168 1.386 . S
C1169 C1173 1.393 . S
C1170 H1162 0.950 . S
C1170 C1168 1.391 . S
C1170 C1171 1.400 . S
C1171 C1170 1.400 . S
C1171 C1172 1.398 . S
C1171 C1177 1.491 . S
C1172 H1163 0.950 . S
C1172 C1171 1.398 . S
C1172 C1173 1.391 . S
C1173 H1161 0.950 . S
C1173 C1169 1.393 . S
C1173 C1172 1.391 . S
C1174 H1164 0.950 . S
C1174 C1175 1.386 . S
C1174 C1176 1.391 . S
C1175 C1174 1.386 . S
C1175 C1179 1.393 . S
C1176 H1165 0.950 . S
C1176 C1174 1.391 . S
C1176 C1177 1.400 . S
C1177 C1171 1.491 . S
C1177 C1176 1.400 . S
C1177 C1178 1.398 . S
C1178 H1166 0.950 . S
C1178 C1177 1.398 . S
C1178 C1179 1.391 . S
C1179 H1167 0.950 . S
C1179 C1175 1.393 . S
C1179 C1178 1.391 . S
H1180 C1188 0.950 . S
H1181 C1193 0.950 . S
H1182 C1190 0.950 . S
H1183 C1192 0.950 . S
H1184 C1194 0.950 . S
H1185 C1196 0.950 . S
H1186 C1198 0.950 . S
H1187 C1199 0.950 . S
C1188 H1180 0.950 . S
C1188 C1189 1.386 . S
C1188 C1190 1.391 . S
C1189 C1188 1.386 . S
C1189 C1193 1.393 . S
C1190 H1182 0.950 . S
C1190 C1188 1.391 . S
C1190 C1191 1.400 . S
C1191 C1190 1.400 . S
C1191 C1192 1.398 . S
C1191 C1197 1.491 . S
C1192 H1183 0.950 . S
C1192 C1191 1.398 . S
C1192 C1193 1.391 . S
C1193 H1181 0.950 . S
C1193 C1189 1.393 . S
C1193 C1192 1.391 . S
C1194 H1184 0.950 . S
C1194 C1195 1.386 . S
C1194 C1196 1.391 . S
C1195 C1194 1.386 . S
C1195 C1199 1.393 . S
C1196 H1185 0.950 . S
C1196 C1194 1.391 . S
C1196 C1197 1.400 . S
C1197 C1191 1.491 . S
C1197 C1196 1.400 . S
C1197 C1198 1.398 . S
C1198 H1186 0.950 . S
C1198 C1197 1.398 . S
C1198 C1199 1.391 . S
C1199 H1187 0.950 . S
C1199 C1195 1.393 . S
C1199 C1198 1.391 . S
H1200 C1208 0.950 . S
H1201 C1213 0.950 . S
H1202 C1210 0.950 . S
H1203 C1212 0.950 . S
H1204 C1214 0.950 . S
H1205 C1216 0.950 . S
H1206 C1218 0.950 . S
H1207 C1219 0.950 1_554 S
C1208 H1200 0.950 . S
C1208 C1209 1.386 . S
C1208 C1210 1.391 . S
C1209 C1208 1.386 . S
C1209 C1213 1.393 . S
C1210 H1202 0.950 . S
C1210 C1208 1.391 . S
C1210 C1211 1.400 . S
C1211 C1210 1.400 . S
C1211 C1212 1.398 . S
C1211 C1217 1.491 . S
C1212 H1203 0.950 . S
C1212 C1211 1.398 . S
C1212 C1213 1.391 . S
C1213 H1201 0.950 . S
C1213 C1209 1.393 . S
C1213 C1212 1.391 . S
C1214 H1204 0.950 . S
C1214 C1215 1.386 . S
C1214 C1216 1.391 . S
C1215 C1214 1.386 . S
C1215 C1219 1.393 . S
C1216 H1205 0.950 . S
C1216 C1214 1.391 . S
C1216 C1217 1.400 . S
C1217 C1211 1.491 . S
C1217 C1216 1.400 . S
C1217 C1218 1.398 . S
C1218 H1206 0.950 . S
C1218 C1217 1.398 . S
C1218 C1219 1.391 . S
C1219 H1207 0.950 1_556 S
C1219 C1215 1.393 . S
C1219 C1218 1.391 . S
H1220 C1228 0.950 . S
H1221 C1233 0.950 . S
H1222 C1230 0.950 . S
H1223 C1232 0.950 . S
H1224 C1234 0.950 . S
H1225 C1236 0.950 . S
H1226 C1238 0.950 . S
H1227 C1239 0.996 . S
C1228 H1220 0.950 . S
C1228 C1229 1.386 . S
C1228 C1230 1.391 . S
C1229 C1228 1.386 . S
C1229 C1233 1.393 . S
C1230 H1222 0.950 . S
C1230 C1228 1.391 . S
C1230 C1231 1.400 . S
C1231 C1230 1.400 . S
C1231 C1232 1.398 . S
C1231 C1237 1.491 . S
C1232 H1223 0.950 . S
C1232 C1231 1.398 . S
C1232 C1233 1.391 . S
C1233 H1221 0.950 . S
C1233 C1229 1.393 . S
C1233 C1232 1.391 . S
C1234 H1224 0.950 . S
C1234 C1235 1.386 . S
C1234 C1236 1.391 . S
C1235 C1234 1.386 . S
C1235 C1239 1.393 . S
C1236 H1225 0.950 . S
C1236 C1234 1.391 . S
C1236 C1237 1.400 . S
C1237 C1231 1.491 . S
C1237 C1236 1.400 . S
C1237 C1238 1.398 . S
C1238 H1226 0.950 . S
C1238 C1237 1.398 . S
C1238 C1239 1.391 . S
C1239 H1227 0.996 . S
C1239 C1235 1.393 . S
C1239 C1238 1.391 . S
H1240 C1248 0.950 . S
H1241 C1253 0.950 1_554 S
H1242 C1250 0.950 . S
H1243 C1252 0.920 1_554 S
H1244 C1254 0.950 . S
H1245 C1256 0.950 . S
H1246 C1258 0.950 . S
H1247 C1259 0.950 . S
C1248 H1240 0.950 . S
C1248 C1249 1.386 . S
C1248 C1250 1.391 . S
C1249 C1248 1.386 . S
C1249 C1253 1.393 . S
C1250 H1242 0.950 . S
C1250 C1248 1.391 . S
C1250 C1251 1.400 . S
C1251 C1250 1.400 . S
C1251 C1252 1.428 . S
C1251 C1257 1.491 . S
C1252 H1243 0.920 1_556 S
C1252 C1251 1.428 . S
C1252 C1253 1.392 . S
C1253 H1241 0.950 1_556 S
C1253 C1249 1.393 . S
C1253 C1252 1.392 . S
C1254 H1244 0.950 . S
C1254 C1255 1.386 1_554 S
C1254 C1256 1.391 . S
C1255 C1254 1.386 1_556 S
C1255 C1259 1.393 . S
C1256 H1245 0.950 . S
C1256 C1254 1.391 . S
C1256 C1257 1.400 1_554 S
C1257 C1251 1.491 . S
C1257 C1256 1.400 1_556 S
C1257 C1258 1.398 . S
C1258 H1246 0.950 . S
C1258 C1257 1.398 . S
C1258 C1259 1.391 . S
C1259 H1247 0.950 . S
C1259 C1255 1.393 . S
C1259 C1258 1.391 . S
H1260 C1268 0.950 . S
H1261 C1273 0.950 . S
H1262 C1270 0.950 . S
H1263 C1272 0.950 . S
H1264 C1274 0.950 . S
H1265 C1276 0.950 . S
H1266 C1278 0.950 . S
H1267 C1279 0.950 . S
C1268 H1260 0.950 . S
C1268 C1269 1.386 . S
C1268 C1270 1.391 . S
C1269 C1268 1.386 . S
C1269 C1273 1.393 . S
C1270 H1262 0.950 . S
C1270 C1268 1.391 . S
C1270 C1271 1.400 . S
C1271 C1270 1.400 . S
C1271 C1272 1.398 . S
C1271 C1277 1.491 . S
C1272 H1263 0.950 . S
C1272 C1271 1.398 . S
C1272 C1273 1.391 . S
C1273 H1261 0.950 . S
C1273 C1269 1.393 . S
C1273 C1272 1.391 . S
C1274 H1264 0.950 . S
C1274 C1275 1.386 . S
C1274 C1276 1.391 . S
C1275 C1274 1.386 . S
C1275 C1279 1.393 . S
C1276 H1265 0.950 . S
C1276 C1274 1.391 . S
C1276 C1277 1.400 . S
C1277 C1271 1.491 . S
C1277 C1276 1.400 . S
C1277 C1278 1.398 . S
C1278 H1266 0.950 . S
C1278 C1277 1.398 . S
C1278 C1279 1.391 . S
C1279 H1267 0.950 . S
C1279 C1275 1.393 . S
C1279 C1278 1.391 . S
H1280 C1288 0.950 . S
H1281 C1293 0.950 . S
H1282 C1290 0.950 . S
H1283 C1292 0.950 . S
H1284 C1294 0.950 . S
H1285 C1296 0.950 . S
H1286 C1298 0.950 . S
H1287 C1299 0.950 . S
C1288 H1280 0.950 . S
C1288 C1289 1.386 . S
C1288 C1290 1.391 . S
C1289 C1288 1.386 . S
C1289 C1293 1.393 . S
C1290 H1282 0.950 . S
C1290 C1288 1.391 . S
C1290 C1291 1.400 . S
C1291 C1290 1.400 . S
C1291 C1292 1.398 . S
C1291 C1297 1.491 . S
C1292 H1283 0.950 . S
C1292 C1291 1.398 . S
C1292 C1293 1.391 . S
C1293 H1281 0.950 . S
C1293 C1289 1.393 . S
C1293 C1292 1.391 . S
C1294 H1284 0.950 . S
C1294 C1295 1.386 . S
C1294 C1296 1.391 . S
C1295 C1294 1.386 . S
C1295 C1299 1.393 . S
C1296 H1285 0.950 . S
C1296 C1294 1.391 . S
C1296 C1297 1.400 . S
C1297 C1291 1.491 . S
C1297 C1296 1.400 . S
C1297 C1298 1.398 . S
C1298 H1286 0.950 . S
C1298 C1297 1.398 . S
C1298 C1299 1.391 . S
C1299 H1287 0.950 . S
C1299 C1295 1.393 . S
C1299 C1298 1.391 . S
H1300 C1308 0.950 . S
H1301 C1313 0.950 . S
H1302 C1310 0.950 . S
H1303 C1312 0.950 . S
H1304 C1314 0.950 1_556 S
H1305 C1316 0.950 . S
H1306 C1318 0.950 . S
H1307 C1319 0.950 . S
C1308 H1300 0.950 . S
C1308 C1309 1.386 . S
C1308 C1310 1.391 . S
C1309 C1308 1.386 . S
C1309 C1313 1.393 . S
C1310 H1302 0.950 . S
C1310 C1308 1.391 . S
C1310 C1311 1.400 . S
C1311 C1310 1.400 . S
C1311 C1312 1.398 . S
C1311 C1317 1.491 . S
C1312 H1303 0.950 . S
C1312 C1311 1.398 . S
C1312 C1313 1.391 . S
C1313 H1301 0.950 . S
C1313 C1309 1.393 . S
C1313 C1312 1.391 . S
C1314 H1304 0.950 1_554 S
C1314 C1315 1.386 . S
C1314 C1316 1.391 . S
C1315 C1314 1.386 . S
C1315 C1319 1.393 . S
C1316 H1305 0.950 . S
C1316 C1314 1.391 . S
C1316 C1317 1.400 . S
C1317 C1311 1.491 . S
C1317 C1316 1.400 . S
C1317 C1318 1.398 . S
C1318 H1306 0.950 . S
C1318 C1317 1.398 . S
C1318 C1319 1.391 . S
C1319 H1307 0.950 . S
C1319 C1315 1.393 . S
C1319 C1318 1.391 . S
H1320 C1328 0.940 1_655 S
H1321 C1333 0.950 . S
H1322 C1330 0.950 . S
H1323 C1332 0.950 . S
H1324 C1334 0.950 . S
H1325 C1336 0.950 . S
H1326 C1338 0.950 . S
H1327 C1339 0.950 . S
C1328 H1320 0.940 1_455 S
C1328 C1329 1.386 1_455 S
C1328 C1330 1.391 . S
C1329 C1328 1.386 1_655 S
C1329 C1333 1.393 . S
C1330 H1322 0.950 . S
C1330 C1328 1.391 . S
C1330 C1331 1.400 . S
C1331 C1330 1.400 . S
C1331 C1332 1.398 . S
C1331 C1337 1.491 . S
C1332 H1323 0.950 . S
C1332 C1331 1.398 . S
C1332 C1333 1.391 1_455 S
C1333 H1321 0.950 . S
C1333 C1329 1.393 . S
C1333 C1332 1.391 1_655 S
C1334 H1324 0.950 . S
C1334 C1335 1.386 . S
C1334 C1336 1.391 . S
C1335 C1334 1.386 . S
C1335 C1339 1.393 . S
C1336 H1325 0.950 . S
C1336 C1334 1.391 . S
C1336 C1337 1.400 . S
C1337 C1331 1.491 . S
C1337 C1336 1.400 . S
C1337 C1338 1.398 . S
C1338 H1326 0.950 . S
C1338 C1337 1.398 . S
C1338 C1339 1.391 . S
C1339 H1327 0.950 . S
C1339 C1335 1.393 . S
C1339 C1338 1.391 . S
H1340 C1348 0.950 . S
H1341 C1353 0.950 . S
H1342 C1350 0.950 . S
H1343 C1352 0.950 . S
H1344 C1354 0.950 . S
H1345 C1356 0.950 . S
H1346 C1358 0.950 . S
H1347 C1359 0.950 . S
C1348 H1340 0.950 . S
C1348 C1349 1.386 . S
C1348 C1350 1.391 . S
C1349 C1348 1.386 . S
C1349 C1353 1.393 . S
C1350 H1342 0.950 . S
C1350 C1348 1.391 . S
C1350 C1351 1.400 . S
C1351 C1350 1.400 . S
C1351 C1352 1.398 . S
C1351 C1357 1.491 . S
C1352 H1343 0.950 . S
C1352 C1351 1.398 . S
C1352 C1353 1.391 . S
C1353 H1341 0.950 . S
C1353 C1349 1.393 . S
C1353 C1352 1.391 . S
C1354 H1344 0.950 . S
C1354 C1355 1.386 . S
C1354 C1356 1.391 . S
C1355 C1354 1.386 . S
C1355 C1359 1.393 . S
C1356 H1345 0.950 . S
C1356 C1354 1.391 . S
C1356 C1357 1.400 . S
C1357 C1351 1.491 . S
C1357 C1356 1.400 . S
C1357 C1358 1.398 . S
C1358 H1346 0.950 . S
C1358 C1357 1.398 . S
C1358 C1359 1.391 . S
C1359 H1347 0.950 . S
C1359 C1355 1.393 . S
C1359 C1358 1.391 . S
H1360 C1368 0.950 . S
H1361 C1373 0.950 . S
H1362 C1370 0.950 . S
H1363 C1372 0.950 . S
H1364 C1374 0.950 . S
H1365 C1376 0.950 . S
H1366 C1378 0.950 . S
H1367 C1379 0.950 . S
C1368 H1360 0.950 . S
C1368 C1369 1.386 . S
C1368 C1370 1.391 1_545 S
C1369 C1368 1.386 . S
C1369 C1373 1.393 . S
C1370 H1362 0.950 . S
C1370 C1368 1.391 1_565 S
C1370 C1371 1.400 . S
C1371 C1370 1.400 . S
C1371 C1372 1.398 . S
C1371 C1377 1.491 . S
C1372 H1363 0.950 . S
C1372 C1371 1.398 . S
C1372 C1373 1.391 1_565 S
C1373 H1361 0.950 . S
C1373 C1369 1.393 . S
C1373 C1372 1.391 1_545 S
C1374 H1364 0.950 . S
C1374 C1375 1.386 . S
C1374 C1376 1.391 . S
C1375 C1374 1.386 . S
C1375 C1379 1.393 . S
C1376 H1365 0.950 . S
C1376 C1374 1.391 . S
C1376 C1377 1.400 . S
C1377 C1371 1.491 . S
C1377 C1376 1.400 . S
C1377 C1378 1.398 . S
C1378 H1366 0.950 . S
C1378 C1377 1.398 . S
C1378 C1379 1.391 . S
C1379 H1367 0.950 . S
C1379 C1375 1.393 . S
C1379 C1378 1.391 . S
H1380 C1388 0.950 . S
H1381 C1393 0.950 . S
H1382 C1390 0.950 . S
H1383 C1392 0.950 . S
H1384 C1394 0.950 . S
H1385 C1396 0.950 . S
H1386 C1398 0.950 . S
H1387 C1399 0.950 . S
C1388 H1380 0.950 . S
C1388 C1389 1.386 . S
C1388 C1390 1.391 . S
C1389 C1388 1.386 . S
C1389 C1393 1.393 . S
C1390 H1382 0.950 . S
C1390 C1388 1.391 . S
C1390 C1391 1.400 . S
C1391 C1390 1.400 . S
C1391 C1392 1.398 . S
C1391 C1397 1.491 . S
C1392 H1383 0.950 . S
C1392 C1391 1.398 . S
C1392 C1393 1.391 . S
C1393 H1381 0.950 . S
C1393 C1389 1.393 . S
C1393 C1392 1.391 . S
C1394 H1384 0.950 . S
C1394 C1395 1.386 . S
C1394 C1396 1.391 . S
C1395 C1394 1.386 . S
C1395 C1399 1.393 . S
C1396 H1385 0.950 . S
C1396 C1394 1.391 . S
C1396 C1397 1.400 . S
C1397 C1391 1.491 . S
C1397 C1396 1.400 . S
C1397 C1398 1.398 . S
C1398 H1386 0.950 . S
C1398 C1397 1.398 . S
C1398 C1399 1.391 . S
C1399 H1387 0.950 . S
C1399 C1395 1.393 . S
C1399 C1398 1.391 . S
H1400 C1408 0.950 . S
H1401 C1413 0.950 . S
H1402 C1410 0.950 . S
H1403 C1412 0.950 . S
H1404 C1414 0.950 . S
H1405 C1416 0.950 . S
H1406 C1418 0.950 . S
H1407 C1419 0.950 . S
C1408 H1400 0.950 . S
C1408 C1409 1.386 . S
C1408 C1410 1.391 . S
C1409 C1408 1.386 . S
C1409 C1413 1.393 . S
C1410 H1402 0.950 . S
C1410 C1408 1.391 . S
C1410 C1411 1.400 . S
C1411 C1410 1.400 . S
C1411 C1412 1.398 . S
C1411 C1417 1.491 . S
C1412 H1403 0.950 . S
C1412 C1411 1.398 . S
C1412 C1413 1.391 . S
C1413 H1401 0.950 . S
C1413 C1409 1.393 . S
C1413 C1412 1.391 . S
C1414 H1404 0.950 . S
C1414 C1415 1.386 . S
C1414 C1416 1.391 . S
C1415 C1414 1.386 . S
C1415 C1419 1.393 . S
C1416 H1405 0.950 . S
C1416 C1414 1.391 . S
C1416 C1417 1.400 . S
C1417 C1411 1.491 . S
C1417 C1416 1.400 . S
C1417 C1418 1.398 . S
C1418 H1406 0.950 . S
C1418 C1417 1.398 . S
C1418 C1419 1.391 . S
C1419 H1407 0.950 . S
C1419 C1415 1.393 . S
C1419 C1418 1.391 . S
H1420 C1428 0.950 . S
H1421 C1433 0.950 . S
H1422 C1430 0.950 . S
H1423 C1432 0.950 . S
H1424 C1434 0.950 . S
H1425 C1436 0.950 . S
H1426 C1438 0.950 . S
H1427 C1439 0.950 . S
C1428 H1420 0.950 . S
C1428 C1429 1.386 . S
C1428 C1430 1.391 . S
C1429 C1428 1.386 . S
C1429 C1433 1.393 . S
C1430 H1422 0.950 . S
C1430 C1428 1.391 . S
C1430 C1431 1.400 . S
C1431 C1430 1.400 . S
C1431 C1432 1.398 . S
C1431 C1437 1.491 . S
C1432 H1423 0.950 . S
C1432 C1431 1.398 . S
C1432 C1433 1.391 . S
C1433 H1421 0.950 . S
C1433 C1429 1.393 . S
C1433 C1432 1.391 . S
C1434 H1424 0.950 . S
C1434 C1435 1.386 . S
C1434 C1436 1.391 . S
C1435 C1434 1.386 . S
C1435 C1439 1.393 . S
C1436 H1425 0.950 . S
C1436 C1434 1.391 . S
C1436 C1437 1.400 . S
C1437 C1431 1.491 . S
C1437 C1436 1.400 . S
C1437 C1438 1.398 . S
C1438 H1426 0.950 . S
C1438 C1437 1.398 . S
C1438 C1439 1.391 . S
C1439 H1427 0.950 . S
C1439 C1435 1.393 . S
C1439 C1438 1.391 . S
H1440 C1448 0.950 . S
H1441 C1453 0.950 . S
H1442 C1450 0.950 . S
H1443 C1452 0.950 . S
H1444 C1454 0.950 . S
H1445 C1456 0.950 . S
H1446 C1458 0.950 . S
H1447 C1459 0.950 . S
C1448 H1440 0.950 . S
C1448 C1449 1.386 . S
C1448 C1450 1.391 . S
C1449 C1448 1.386 . S
C1449 C1453 1.393 . S
C1450 H1442 0.950 . S
C1450 C1448 1.391 . S
C1450 C1451 1.400 . S
C1451 C1450 1.400 . S
C1451 C1452 1.398 . S
C1451 C1457 1.491 . S
C1452 H1443 0.950 . S
C1452 C1451 1.398 . S
C1452 C1453 1.391 . S
C1453 H1441 0.950 . S
C1453 C1449 1.393 . S
C1453 C1452 1.391 . S
C1454 H1444 0.950 . S
C1454 C1455 1.386 . S
C1454 C1456 1.391 . S
C1455 C1454 1.386 . S
C1455 C1459 1.393 . S
C1456 H1445 0.950 . S
C1456 C1454 1.391 . S
C1456 C1457 1.400 . S
C1457 C1451 1.491 . S
C1457 C1456 1.400 . S
C1457 C1458 1.398 . S
C1458 H1446 0.950 . S
C1458 C1457 1.398 . S
C1458 C1459 1.391 . S
C1459 H1447 0.950 . S
C1459 C1455 1.393 . S
C1459 C1458 1.391 . S
H1460 C1468 0.950 . S
H1461 C1473 0.950 . S
H1462 C1470 0.950 . S
H1463 C1472 0.950 . S
H1464 C1474 0.950 . S
H1465 C1476 0.950 . S
H1466 C1478 0.950 . S
H1467 C1479 0.950 . S
C1468 H1460 0.950 . S
C1468 C1469 1.386 . S
C1468 C1470 1.391 . S
C1469 C1468 1.386 . S
C1469 C1473 1.393 . S
C1470 H1462 0.950 . S
C1470 C1468 1.391 . S
C1470 C1471 1.400 . S
C1471 C1470 1.400 . S
C1471 C1472 1.398 . S
C1471 C1477 1.491 . S
C1472 H1463 0.950 . S
C1472 C1471 1.398 . S
C1472 C1473 1.391 . S
C1473 H1461 0.950 . S
C1473 C1469 1.393 . S
C1473 C1472 1.391 . S
C1474 H1464 0.950 . S
C1474 C1475 1.386 . S
C1474 C1476 1.391 . S
C1475 C1474 1.386 . S
C1475 C1479 1.393 . S
C1476 H1465 0.950 . S
C1476 C1474 1.391 . S
C1476 C1477 1.400 . S
C1477 C1471 1.491 . S
C1477 C1476 1.400 . S
C1477 C1478 1.398 . S
C1478 H1466 0.950 . S
C1478 C1477 1.398 . S
C1478 C1479 1.391 . S
C1479 H1467 0.950 . S
C1479 C1475 1.393 . S
C1479 C1478 1.391 . S
H1480 C1488 0.950 . S
H1481 C1493 0.950 . S
H1482 C1490 0.950 . S
H1483 C1492 0.950 . S
H1484 C1494 0.950 . S
H1485 C1496 0.950 . S
H1486 C1498 0.950 . S
H1487 C1499 0.950 . S
C1488 H1480 0.950 . S
C1488 C1489 1.386 . S
C1488 C1490 1.391 . S
C1489 C1488 1.386 . S
C1489 C1493 1.393 . S
C1490 H1482 0.950 . S
C1490 C1488 1.391 . S
C1490 C1491 1.400 . S
C1491 C1490 1.400 . S
C1491 C1492 1.398 . S
C1491 C1497 1.491 . S
C1492 H1483 0.950 . S
C1492 C1491 1.398 . S
C1492 C1493 1.391 . S
C1493 H1481 0.950 . S
C1493 C1489 1.393 . S
C1493 C1492 1.391 . S
C1494 H1484 0.950 . S
C1494 C1495 1.386 . S
C1494 C1496 1.391 . S
C1495 C1494 1.386 . S
C1495 C1499 1.393 . S
C1496 H1485 0.950 . S
C1496 C1494 1.391 . S
C1496 C1497 1.400 . S
C1497 C1491 1.491 . S
C1497 C1496 1.400 . S
C1497 C1498 1.398 . S
C1498 H1486 0.950 . S
C1498 C1497 1.398 . S
C1498 C1499 1.391 . S
C1499 H1487 0.950 . S
C1499 C1495 1.393 . S
C1499 C1498 1.391 . S
H1500 C1508 0.950 . S
H1501 C1513 0.950 . S
H1502 C1510 0.950 . S
H1503 C1512 0.950 . S
H1504 C1514 0.950 . S
H1505 C1516 0.950 . S
H1506 C1518 0.950 . S
H1507 C1519 0.950 . S
C1508 H1500 0.950 . S
C1508 C1509 1.386 . S
C1508 C1510 1.391 1_545 S
C1509 C1508 1.386 . S
C1509 C1513 1.393 . S
C1510 H1502 0.950 . S
C1510 C1508 1.391 1_565 S
C1510 C1511 1.400 . S
C1511 C1510 1.400 . S
C1511 C1512 1.398 . S
C1511 C1517 1.491 . S
C1512 H1503 0.950 . S
C1512 C1511 1.398 . S
C1512 C1513 1.391 1_565 S
C1513 H1501 0.950 . S
C1513 C1509 1.393 . S
C1513 C1512 1.391 1_545 S
C1514 H1504 0.950 . S
C1514 C1515 1.386 . S
C1514 C1516 1.391 . S
C1515 C1514 1.386 . S
C1515 C1519 1.393 . S
C1516 H1505 0.950 . S
C1516 C1514 1.391 . S
C1516 C1517 1.400 . S
C1517 C1511 1.491 . S
C1517 C1516 1.400 . S
C1517 C1518 1.398 . S
C1518 H1506 0.950 . S
C1518 C1517 1.398 . S
C1518 C1519 1.391 . S
C1519 H1507 0.950 . S
C1519 C1515 1.393 . S
C1519 C1518 1.391 . S
H1520 C1528 0.950 . S
H1521 C1533 0.950 . S
H1522 C1530 0.950 . S
H1523 C1532 0.950 . S
H1524 C1534 0.950 . S
H1525 C1536 0.950 . S
H1526 C1538 0.950 . S
H1527 C1539 0.950 . S
C1528 H1520 0.950 . S
C1528 C1529 1.386 . S
C1528 C1530 1.391 . S
C1529 C1528 1.386 . S
C1529 C1533 1.393 . S
C1530 H1522 0.950 . S
C1530 C1528 1.391 . S
C1530 C1531 1.400 . S
C1531 C1530 1.400 . S
C1531 C1532 1.398 . S
C1531 C1537 1.491 . S
C1532 H1523 0.950 . S
C1532 C1531 1.398 . S
C1532 C1533 1.391 . S
C1533 H1521 0.950 . S
C1533 C1529 1.393 . S
C1533 C1532 1.391 . S
C1534 H1524 0.950 . S
C1534 C1535 1.386 . S
C1534 C1536 1.391 . S
C1535 C1534 1.386 . S
C1535 C1539 1.393 . S
C1536 H1525 0.950 . S
C1536 C1534 1.391 . S
C1536 C1537 1.400 . S
C1537 C1531 1.491 . S
C1537 C1536 1.400 . S
C1537 C1538 1.398 . S
C1538 H1526 0.950 . S
C1538 C1537 1.398 . S
C1538 C1539 1.391 . S
C1539 H1527 0.950 . S
C1539 C1535 1.393 . S
C1539 C1538 1.391 . S
H1540 C1548 0.950 . S
H1541 C1553 0.950 . S
H1542 C1550 0.950 . S
H1543 C1552 0.950 . S
H1544 C1554 0.950 . S
H1545 C1556 0.950 . S
H1546 C1558 0.950 . S
H1547 C1559 0.950 . S
C1548 H1540 0.950 . S
C1548 C1549 1.386 . S
C1548 C1550 1.391 . S
C1549 C1548 1.386 . S
C1549 C1553 1.393 . S
C1550 H1542 0.950 . S
C1550 C1548 1.391 . S
C1550 C1551 1.400 . S
C1551 C1550 1.400 . S
C1551 C1552 1.398 . S
C1551 C1557 1.491 . S
C1552 H1543 0.950 . S
C1552 C1551 1.398 . S
C1552 C1553 1.391 . S
C1553 H1541 0.950 . S
C1553 C1549 1.393 . S
C1553 C1552 1.391 . S
C1554 H1544 0.950 . S
C1554 C1555 1.386 . S
C1554 C1556 1.391 . S
C1555 C1554 1.386 . S
C1555 C1559 1.393 . S
C1556 H1545 0.950 . S
C1556 C1554 1.391 . S
C1556 C1557 1.400 . S
C1557 C1551 1.491 . S
C1557 C1556 1.400 . S
C1557 C1558 1.398 . S
C1558 H1546 0.950 . S
C1558 C1557 1.398 . S
C1558 C1559 1.391 . S
C1559 H1547 0.950 . S
C1559 C1555 1.393 . S
C1559 C1558 1.391 . S
H1560 C1568 0.950 . S
H1561 C1573 0.950 . S
H1562 C1570 0.950 . S
H1563 C1572 0.950 . S
H1564 C1574 0.950 . S
H1565 C1576 0.950 . S
H1566 C1578 0.950 . S
H1567 C1579 0.950 . S
C1568 H1560 0.950 . S
C1568 C1569 1.386 . S
C1568 C1570 1.391 . S
C1569 C1568 1.386 . S
C1569 C1573 1.393 . S
C1570 H1562 0.950 . S
C1570 C1568 1.391 . S
C1570 C1571 1.400 . S
C1571 C1570 1.400 . S
C1571 C1572 1.398 . S
C1571 C1577 1.491 . S
C1572 H1563 0.950 . S
C1572 C1571 1.398 . S
C1572 C1573 1.391 . S
C1573 H1561 0.950 . S
C1573 C1569 1.393 . S
C1573 C1572 1.391 . S
C1574 H1564 0.950 . S
C1574 C1575 1.386 . S
C1574 C1576 1.391 . S
C1575 C1574 1.386 . S
C1575 C1579 1.393 . S
C1576 H1565 0.950 . S
C1576 C1574 1.391 . S
C1576 C1577 1.400 . S
C1577 C1571 1.491 . S
C1577 C1576 1.400 . S
C1577 C1578 1.398 . S
C1578 H1566 0.950 . S
C1578 C1577 1.398 . S
C1578 C1579 1.391 . S
C1579 H1567 0.950 . S
C1579 C1575 1.393 . S
C1579 C1578 1.391 . S
H1580 C1588 0.950 . S
H1581 C1593 0.950 . S
H1582 C1590 0.950 . S
H1583 C1592 0.950 . S
H1584 C1594 0.950 . S
H1585 C1596 0.950 . S
H1586 C1598 0.950 . S
H1587 C1599 0.950 . S
C1588 H1580 0.950 . S
C1588 C1589 1.386 . S
C1588 C1590 1.391 . S
C1589 C1588 1.386 . S
C1589 C1593 1.393 . S
C1590 H1582 0.950 . S
C1590 C1588 1.391 . S
C1590 C1591 1.400 . S
C1591 C1590 1.400 . S
C1591 C1592 1.398 . S
C1591 C1597 1.491 . S
C1592 H1583 0.950 . S
C1592 C1591 1.398 . S
C1592 C1593 1.391 . S
C1593 H1581 0.950 . S
C1593 C1589 1.393 . S
C1593 C1592 1.391 . S
C1594 H1584 0.950 . S
C1594 C1595 1.386 . S
C1594 C1596 1.391 . S
C1595 C1594 1.386 . S
C1595 C1599 1.393 . S
C1596 H1585 0.950 . S
C1596 C1594 1.391 . S
C1596 C1597 1.400 . S
C1597 C1591 1.491 . S
C1597 C1596 1.400 . S
C1597 C1598 1.398 . S
C1598 H1586 0.950 . S
C1598 C1597 1.398 . S
C1598 C1599 1.391 . S
C1599 H1587 0.950 . S
C1599 C1595 1.393 . S
C1599 C1598 1.391 . S
H1600 C1608 0.950 . S
H1601 C1613 0.950 . S
H1602 C1610 0.950 . S
H1603 C1612 0.950 . S
H1604 C1614 0.950 . S
H1605 C1616 0.950 . S
H1606 C1618 0.950 . S
H1607 C1619 0.950 . S
C1608 H1600 0.950 . S
C1608 C1609 1.386 . S
C1608 C1610 1.391 . S
C1609 C1608 1.386 . S
C1609 C1613 1.393 . S
C1610 H1602 0.950 . S
C1610 C1608 1.391 . S
C1610 C1611 1.400 . S
C1611 C1610 1.400 . S
C1611 C1612 1.398 . S
C1611 C1617 1.491 . S
C1612 H1603 0.950 . S
C1612 C1611 1.398 . S
C1612 C1613 1.391 . S
C1613 H1601 0.950 . S
C1613 C1609 1.393 . S
C1613 C1612 1.391 . S
C1614 H1604 0.950 . S
C1614 C1615 1.386 . S
C1614 C1616 1.391 . S
C1615 C1614 1.386 . S
C1615 C1619 1.393 . S
C1616 H1605 0.950 . S
C1616 C1614 1.391 . S
C1616 C1617 1.400 . S
C1617 C1611 1.491 . S
C1617 C1616 1.400 . S
C1617 C1618 1.398 . S
C1618 H1606 0.950 . S
C1618 C1617 1.398 . S
C1618 C1619 1.391 . S
C1619 H1607 0.950 . S
C1619 C1615 1.393 . S
C1619 C1618 1.391 . S
H1620 C1628 0.950 . S
H1621 C1633 0.950 . S
H1622 C1630 0.950 . S
H1623 C1632 0.950 . S
H1624 C1634 0.950 . S
H1625 C1636 0.950 . S
H1626 C1638 0.950 . S
H1627 C1639 0.950 . S
C1628 H1620 0.950 . S
C1628 C1629 1.386 . S
C1628 C1630 1.391 1_565 S
C1629 C1628 1.386 . S
C1629 C1633 1.393 . S
C1630 H1622 0.950 . S
C1630 C1628 1.391 1_545 S
C1630 C1631 1.400 . S
C1631 C1630 1.400 . S
C1631 C1632 1.398 . S
C1631 C1637 1.491 . S
C1632 H1623 0.950 . S
C1632 C1631 1.398 . S
C1632 C1633 1.391 1_545 S
C1633 H1621 0.950 . S
C1633 C1629 1.393 . S
C1633 C1632 1.391 1_565 S
C1634 H1624 0.950 . S
C1634 C1635 1.386 . S
C1634 C1636 1.391 . S
C1635 C1634 1.386 . S
C1635 C1639 1.393 . S
C1636 H1625 0.950 . S
C1636 C1634 1.391 . S
C1636 C1637 1.400 . S
C1637 C1631 1.491 . S
C1637 C1636 1.400 . S
C1637 C1638 1.398 . S
C1638 H1626 0.950 . S
C1638 C1637 1.398 . S
C1638 C1639 1.391 . S
C1639 H1627 0.950 . S
C1639 C1635 1.393 . S
C1639 C1638 1.391 . S
H1640 C1648 0.950 . S
H1641 C1653 0.950 . S
H1642 C1650 0.950 . S
H1643 C1652 0.950 . S
H1644 C1654 0.950 . S
H1645 C1656 0.950 . S
H1646 C1658 0.950 . S
H1647 C1659 0.950 . S
C1648 H1640 0.950 . S
C1648 C1649 1.386 . S
C1648 C1650 1.391 . S
C1649 C1648 1.386 . S
C1649 C1653 1.393 . S
C1650 H1642 0.950 . S
C1650 C1648 1.391 . S
C1650 C1651 1.400 . S
C1651 C1650 1.400 . S
C1651 C1652 1.398 . S
C1651 C1657 1.491 . S
C1652 H1643 0.950 . S
C1652 C1651 1.398 . S
C1652 C1653 1.391 . S
C1653 H1641 0.950 . S
C1653 C1649 1.393 . S
C1653 C1652 1.391 . S
C1654 H1644 0.950 . S
C1654 C1655 1.386 . S
C1654 C1656 1.391 . S
C1655 C1654 1.386 . S
C1655 C1659 1.393 . S
C1656 H1645 0.950 . S
C1656 C1654 1.391 . S
C1656 C1657 1.400 . S
C1657 C1651 1.491 . S
C1657 C1656 1.400 . S
C1657 C1658 1.398 . S
C1658 H1646 0.950 . S
C1658 C1657 1.398 . S
C1658 C1659 1.391 . S
C1659 H1647 0.950 . S
C1659 C1655 1.393 . S
C1659 C1658 1.391 . S
H1660 C1668 0.950 . S
H1661 C1673 0.950 . S
H1662 C1670 0.950 . S
H1663 C1672 0.950 . S
H1664 C1674 0.950 . S
H1665 C1676 0.950 . S
H1666 C1678 0.950 . S
H1667 C1679 0.950 . S
C1668 H1660 0.950 . S
C1668 C1669 1.386 . S
C1668 C1670 1.391 . S
C1669 C1668 1.386 . S
C1669 C1673 1.393 . S
C1670 H1662 0.950 . S
C1670 C1668 1.391 . S
C1670 C1671 1.400 . S
C1671 C1670 1.400 . S
C1671 C1672 1.398 . S
C1671 C1677 1.491 . S
C1672 H1663 0.950 . S
C1672 C1671 1.398 . S
C1672 C1673 1.391 . S
C1673 H1661 0.950 . S
C1673 C1669 1.393 . S
C1673 C1672 1.391 . S
C1674 H1664 0.950 . S
C1674 C1675 1.386 . S
C1674 C1676 1.391 . S
C1675 C1674 1.386 . S
C1675 C1679 1.393 . S
C1676 H1665 0.950 . S
C1676 C1674 1.391 . S
C1676 C1677 1.400 . S
C1677 C1671 1.491 . S
C1677 C1676 1.400 . S
C1677 C1678 1.398 . S
C1678 H1666 0.950 . S
C1678 C1677 1.398 . S
C1678 C1679 1.391 . S
C1679 H1667 0.950 . S
C1679 C1675 1.393 . S
C1679 C1678 1.391 . S
H1680 C1688 0.950 . S
H1681 C1693 0.946 . S
H1682 C1690 0.950 . S
H1683 C1692 0.950 . S
H1684 C1694 0.950 . S
H1685 C1696 0.950 . S
H1686 C1698 0.950 . S
H1687 C1699 0.950 . S
C1688 H1680 0.950 . S
C1688 C1689 1.386 . S
C1688 C1690 1.391 1_455 S
C1689 C1688 1.386 . S
C1689 C1693 1.393 1_455 S
C1690 H1682 0.950 . S
C1690 C1688 1.391 1_655 S
C1690 C1691 1.400 . S
C1691 C1690 1.400 . S
C1691 C1692 1.398 . S
C1691 C1697 1.491 . S
C1692 H1683 0.950 . S
C1692 C1691 1.398 . S
C1692 C1693 1.391 . S
C1693 H1681 0.946 . S
C1693 C1689 1.393 1_655 S
C1693 C1692 1.391 . S
C1694 H1684 0.950 . S
C1694 C1695 1.386 . S
C1694 C1696 1.391 . S
C1695 C1694 1.386 . S
C1695 C1699 1.393 . S
C1696 H1685 0.950 . S
C1696 C1694 1.391 . S
C1696 C1697 1.400 . S
C1697 C1691 1.491 . S
C1697 C1696 1.400 . S
C1697 C1698 1.398 . S
C1698 H1686 0.950 . S
C1698 C1697 1.398 . S
C1698 C1699 1.391 . S
C1699 H1687 0.950 . S
C1699 C1695 1.393 . S
C1699 C1698 1.391 . S
H1700 C1708 0.950 . S
H1701 C1713 0.950 . S
H1702 C1710 0.950 . S
H1703 C1712 0.950 . S
H1704 C1714 0.950 . S
H1705 C1716 0.950 . S
H1706 C1718 0.950 . S
H1707 C1719 0.950 . S
C1708 H1700 0.950 . S
C1708 C1709 1.386 . S
C1708 C1710 1.391 . S
C1709 C1708 1.386 . S
C1709 C1713 1.393 . S
C1710 H1702 0.950 . S
C1710 C1708 1.391 . S
C1710 C1711 1.400 . S
C1711 C1710 1.400 . S
C1711 C1712 1.398 . S
C1711 C1717 1.491 . S
C1712 H1703 0.950 . S
C1712 C1711 1.398 . S
C1712 C1713 1.391 . S
C1713 H1701 0.950 . S
C1713 C1709 1.393 . S
C1713 C1712 1.391 . S
C1714 H1704 0.950 . S
C1714 C1715 1.386 . S
C1714 C1716 1.391 . S
C1715 C1714 1.386 . S
C1715 C1719 1.393 . S
C1716 H1705 0.950 . S
C1716 C1714 1.391 . S
C1716 C1717 1.400 . S
C1717 C1711 1.491 . S
C1717 C1716 1.400 . S
C1717 C1718 1.398 . S
C1718 H1706 0.950 . S
C1718 C1717 1.398 . S
C1718 C1719 1.391 . S
C1719 H1707 0.950 . S
C1719 C1715 1.393 . S
C1719 C1718 1.391 . S
H1720 C1728 0.950 . S
H1721 C1733 0.950 . S
H1722 C1730 0.950 . S
H1723 C1732 0.950 . S
H1724 C1734 0.950 . S
H1725 C1736 0.950 . S
H1726 C1738 0.950 . S
H1727 C1739 0.950 . S
C1728 H1720 0.950 . S
C1728 C1729 1.386 . S
C1728 C1730 1.391 1_565 S
C1729 C1728 1.386 . S
C1729 C1733 1.393 . S
C1730 H1722 0.950 . S
C1730 C1728 1.391 1_545 S
C1730 C1731 1.400 . S
C1731 C1730 1.400 . S
C1731 C1732 1.398 . S
C1731 C1737 1.491 . S
C1732 H1723 0.950 . S
C1732 C1731 1.398 . S
C1732 C1733 1.391 1_545 S
C1733 H1721 0.950 . S
C1733 C1729 1.393 . S
C1733 C1732 1.391 1_565 S
C1734 H1724 0.950 . S
C1734 C1735 1.386 . S
C1734 C1736 1.391 . S
C1735 C1734 1.386 . S
C1735 C1739 1.393 . S
C1736 H1725 0.950 . S
C1736 C1734 1.391 . S
C1736 C1737 1.400 . S
C1737 C1731 1.491 . S
C1737 C1736 1.400 . S
C1737 C1738 1.398 . S
C1738 H1726 0.950 . S
C1738 C1737 1.398 . S
C1738 C1739 1.391 . S
C1739 H1727 0.950 . S
C1739 C1735 1.393 . S
C1739 C1738 1.391 . S
H1740 C1748 0.950 . S
H1741 C1753 0.950 . S
H1742 C1750 0.950 . S
H1743 C1752 0.950 . S
H1744 C1754 0.950 . S
H1745 C1756 0.950 . S
H1746 C1758 0.950 . S
H1747 C1759 0.950 . S
C1748 H1740 0.950 . S
C1748 C1749 1.386 . S
C1748 C1750 1.391 . S
C1749 C1748 1.386 . S
C1749 C1753 1.393 . S
C1750 H1742 0.950 . S
C1750 C1748 1.391 . S
C1750 C1751 1.400 . S
C1751 C1750 1.400 . S
C1751 C1752 1.398 . S
C1751 C1757 1.491 . S
C1752 H1743 0.950 . S
C1752 C1751 1.398 . S
C1752 C1753 1.391 . S
C1753 H1741 0.950 . S
C1753 C1749 1.393 . S
C1753 C1752 1.391 . S
C1754 H1744 0.950 . S
C1754 C1755 1.386 . S
C1754 C1756 1.391 . S
C1755 C1754 1.386 . S
C1755 C1759 1.393 . S
C1756 H1745 0.950 . S
C1756 C1754 1.391 . S
C1756 C1757 1.400 . S
C1757 C1751 1.491 . S
C1757 C1756 1.400 . S
C1757 C1758 1.398 . S
C1758 H1746 0.950 . S
C1758 C1757 1.398 . S
C1758 C1759 1.391 . S
C1759 H1747 0.950 . S
C1759 C1755 1.393 . S
C1759 C1758 1.391 . S
H1760 C1768 0.950 . S
H1761 C1773 0.950 . S
H1762 C1770 0.950 . S
H1763 C1772 0.950 . S
H1764 C1774 0.950 . S
H1765 C1776 0.950 . S
H1766 C1778 0.950 . S
H1767 C1779 0.950 . S
C1768 H1760 0.950 . S
C1768 C1769 1.386 . S
C1768 C1770 1.391 . S
C1769 C1768 1.386 . S
C1769 C1773 1.393 . S
C1770 H1762 0.950 . S
C1770 C1768 1.391 . S
C1770 C1771 1.400 . S
C1771 C1770 1.400 . S
C1771 C1772 1.398 . S
C1771 C1777 1.491 . S
C1772 H1763 0.950 . S
C1772 C1771 1.398 . S
C1772 C1773 1.391 . S
C1773 H1761 0.950 . S
C1773 C1769 1.393 . S
C1773 C1772 1.391 . S
C1774 H1764 0.950 . S
C1774 C1775 1.386 . S
C1774 C1776 1.391 . S
C1775 C1774 1.386 . S
C1775 C1779 1.393 . S
C1776 H1765 0.950 . S
C1776 C1774 1.391 . S
C1776 C1777 1.400 . S
C1777 C1771 1.491 . S
C1777 C1776 1.400 . S
C1777 C1778 1.398 . S
C1778 H1766 0.950 . S
C1778 C1777 1.398 . S
C1778 C1779 1.391 . S
C1779 H1767 0.950 . S
C1779 C1775 1.393 . S
C1779 C1778 1.391 . S
H1780 C1788 0.950 . S
H1781 C1793 0.950 . S
H1782 C1790 0.950 . S
H1783 C1792 0.950 . S
H1784 C1794 0.950 . S
H1785 C1796 0.950 . S
H1786 C1798 0.950 . S
H1787 C1799 0.950 . S
C1788 H1780 0.950 . S
C1788 C1789 1.386 . S
C1788 C1790 1.391 . S
C1789 C1788 1.386 . S
C1789 C1793 1.393 . S
C1790 H1782 0.950 . S
C1790 C1788 1.391 . S
C1790 C1791 1.400 . S
C1791 C1790 1.400 . S
C1791 C1792 1.398 . S
C1791 C1797 1.491 . S
C1792 H1783 0.950 . S
C1792 C1791 1.398 . S
C1792 C1793 1.391 . S
C1793 H1781 0.950 . S
C1793 C1789 1.393 . S
C1793 C1792 1.391 . S
C1794 H1784 0.950 . S
C1794 C1795 1.386 . S
C1794 C1796 1.391 . S
C1795 C1794 1.386 . S
C1795 C1799 1.393 . S
C1796 H1785 0.950 . S
C1796 C1794 1.391 . S
C1796 C1797 1.400 . S
C1797 C1791 1.491 . S
C1797 C1796 1.400 . S
C1797 C1798 1.398 . S
C1798 H1786 0.950 . S
C1798 C1797 1.398 . S
C1798 C1799 1.391 . S
C1799 H1787 0.950 . S
C1799 C1795 1.393 . S
C1799 C1798 1.391 . S
H1800 C1808 0.950 . S
H1801 C1813 0.950 . S
H1802 C1810 0.950 . S
H1803 C1812 0.946 . S
H1804 C1814 0.950 . S
H1805 C1816 0.950 1_545 S
H1806 C1818 0.950 . S
H1807 C1819 0.950 . S
C1808 H1800 0.950 . S
C1808 C1809 1.386 . S
C1808 C1810 1.391 . S
C1809 C1808 1.386 . S
C1809 C1813 1.393 . S
C1810 H1802 0.950 . S
C1810 C1808 1.391 . S
C1810 C1811 1.400 . S
C1811 C1810 1.400 . S
C1811 C1812 1.398 . S
C1811 C1817 1.491 . S
C1812 H1803 0.946 . S
C1812 C1811 1.398 . S
C1812 C1813 1.391 . S
C1813 H1801 0.950 . S
C1813 C1809 1.393 . S
C1813 C1812 1.391 . S
C1814 H1804 0.950 . S
C1814 C1815 1.386 1_545 S
C1814 C1816 1.391 1_545 S
C1815 C1814 1.386 1_565 S
C1815 C1819 1.393 . S
C1816 H1805 0.950 1_565 S
C1816 C1814 1.391 1_565 S
C1816 C1817 1.400 . S
C1817 C1811 1.491 . S
C1817 C1816 1.400 . S
C1817 C1818 1.398 . S
C1818 H1806 0.950 . S
C1818 C1817 1.398 . S
C1818 C1819 1.391 . S
C1819 H1807 0.950 . S
C1819 C1815 1.393 . S
C1819 C1818 1.391 . S
H1820 C1828 0.950 . S
H1821 C1833 0.950 . S
H1822 C1830 0.950 . S
H1823 C1832 0.950 . S
H1824 C1834 0.950 . S
H1825 C1836 0.950 . S
H1826 C1838 0.950 . S
H1827 C1839 0.950 . S
C1828 H1820 0.950 . S
C1828 C1829 1.386 1_655 S
C1828 C1830 1.391 . S
C1829 C1828 1.386 1_455 S
C1829 C1833 1.393 . S
C1830 H1822 0.950 . S
C1830 C1828 1.391 . S
C1830 C1831 1.400 1_655 S
C1831 C1830 1.400 1_455 S
C1831 C1832 1.398 . S
C1831 C1837 1.491 . S
C1832 H1823 0.950 . S
C1832 C1831 1.398 . S
C1832 C1833 1.391 . S
C1833 H1821 0.950 . S
C1833 C1829 1.393 . S
C1833 C1832 1.391 . S
C1834 H1824 0.950 . S
C1834 C1835 1.386 . S
C1834 C1836 1.391 . S
C1835 C1834 1.386 . S
C1835 C1839 1.393 1_455 S
C1836 H1825 0.950 . S
C1836 C1834 1.391 . S
C1836 C1837 1.400 . S
C1837 C1831 1.491 . S
C1837 C1836 1.400 . S
C1837 C1838 1.398 1_455 S
C1838 H1826 0.950 . S
C1838 C1837 1.398 1_655 S
C1838 C1839 1.391 . S
C1839 H1827 0.950 . S
C1839 C1835 1.393 1_655 S
C1839 C1838 1.391 . S
H1840 C1848 0.950 . S
H1841 C1853 0.950 . S
H1842 C1850 0.950 . S
H1843 C1852 0.950 . S
H1844 C1854 0.950 . S
H1845 C1856 0.950 . S
H1846 C1858 0.950 . S
H1847 C1859 0.950 . S
C1848 H1840 0.950 . S
C1848 C1849 1.386 . S
C1848 C1850 1.391 . S
C1849 C1848 1.386 . S
C1849 C1853 1.393 . S
C1850 H1842 0.950 . S
C1850 C1848 1.391 . S
C1850 C1851 1.400 . S
C1851 C1850 1.400 . S
C1851 C1852 1.398 . S
C1851 C1857 1.491 . S
C1852 H1843 0.950 . S
C1852 C1851 1.398 . S
C1852 C1853 1.391 . S
C1853 H1841 0.950 . S
C1853 C1849 1.393 . S
C1853 C1852 1.391 . S
C1854 H1844 0.950 . S
C1854 C1855 1.386 . S
C1854 C1856 1.391 . S
C1855 C1854 1.386 . S
C1855 C1859 1.393 . S
C1856 H1845 0.950 . S
C1856 C1854 1.391 . S
C1856 C1857 1.400 . S
C1857 C1851 1.491 . S
C1857 C1856 1.400 . S
C1857 C1858 1.398 . S
C1858 H1846 0.950 . S
C1858 C1857 1.398 . S
C1858 C1859 1.391 . S
C1859 H1847 0.950 . S
C1859 C1855 1.393 . S
C1859 C1858 1.391 . S
H1860 C1868 0.950 . S
H1861 C1873 0.950 . S
H1862 C1870 0.950 . S
H1863 C1872 0.950 . S
H1864 C1874 0.950 . S
H1865 C1876 0.950 . S
H1866 C1878 0.950 . S
H1867 C1879 0.950 . S
C1868 H1860 0.950 . S
C1868 C1869 1.386 . S
C1868 C1870 1.391 . S
C1869 C1868 1.386 . S
C1869 C1873 1.393 1_655 S
C1870 H1862 0.950 . S
C1870 C1868 1.391 . S
C1870 C1871 1.400 . S
C1871 C1870 1.400 . S
C1871 C1872 1.398 1_655 S
C1871 C1877 1.491 . S
C1872 H1863 0.950 . S
C1872 C1871 1.398 1_455 S
C1872 C1873 1.391 . S
C1873 H1861 0.950 . S
C1873 C1869 1.393 1_455 S
C1873 C1872 1.391 . S
C1874 H1864 0.950 . S
C1874 C1875 1.386 1_455 S
C1874 C1876 1.391 . S
C1875 C1874 1.386 1_655 S
C1875 C1879 1.393 . S
C1876 H1865 0.950 . S
C1876 C1874 1.391 . S
C1876 C1877 1.400 1_455 S
C1877 C1871 1.491 . S
C1877 C1876 1.400 1_655 S
C1877 C1878 1.398 . S
C1878 H1866 0.950 . S
C1878 C1877 1.398 . S
C1878 C1879 1.391 . S
C1879 H1867 0.950 . S
C1879 C1875 1.393 . S
C1879 C1878 1.391 . S
H1880 C1888 0.950 . S
H1881 C1893 0.950 . S
H1882 C1890 0.950 . S
H1883 C1892 0.950 . S
H1884 C1894 0.950 . S
H1885 C1896 0.950 . S
H1886 C1898 0.950 . S
H1887 C1899 0.950 . S
C1888 H1880 0.950 . S
C1888 C1889 1.386 . S
C1888 C1890 1.391 . S
C1889 C1888 1.386 . S
C1889 C1893 1.393 . S
C1890 H1882 0.950 . S
C1890 C1888 1.391 . S
C1890 C1891 1.400 . S
C1891 C1890 1.400 . S
C1891 C1892 1.398 . S
C1891 C1897 1.491 . S
C1892 H1883 0.950 . S
C1892 C1891 1.398 . S
C1892 C1893 1.391 . S
C1893 H1881 0.950 . S
C1893 C1889 1.393 . S
C1893 C1892 1.391 . S
C1894 H1884 0.950 . S
C1894 C1895 1.386 . S
C1894 C1896 1.391 . S
C1895 C1894 1.386 . S
C1895 C1899 1.393 . S
C1896 H1885 0.950 . S
C1896 C1894 1.391 . S
C1896 C1897 1.400 . S
C1897 C1891 1.491 . S
C1897 C1896 1.400 . S
C1897 C1898 1.398 . S
C1898 H1886 0.950 . S
C1898 C1897 1.398 . S
C1898 C1899 1.391 . S
C1899 H1887 0.950 . S
C1899 C1895 1.393 . S
C1899 C1898 1.391 . S
H1900 C1908 0.950 . S
H1901 C1913 0.950 . S
H1902 C1910 0.950 . S
H1903 C1912 0.950 . S
H1904 C1914 0.950 . S
H1905 C1916 0.950 . S
H1906 C1918 0.950 . S
H1907 C1919 0.950 . S
C1908 H1900 0.950 . S
C1908 C1909 1.386 . S
C1908 C1910 1.391 . S
C1909 C1908 1.386 . S
C1909 C1913 1.393 . S
C1910 H1902 0.950 . S
C1910 C1908 1.391 . S
C1910 C1911 1.400 . S
C1911 C1910 1.400 . S
C1911 C1912 1.398 . S
C1911 C1917 1.491 . S
C1912 H1903 0.950 . S
C1912 C1911 1.398 . S
C1912 C1913 1.391 . S
C1913 H1901 0.950 . S
C1913 C1909 1.393 . S
C1913 C1912 1.391 . S
C1914 H1904 0.950 . S
C1914 C1915 1.386 . S
C1914 C1916 1.391 . S
C1915 C1914 1.386 . S
C1915 C1919 1.393 . S
C1916 H1905 0.950 . S
C1916 C1914 1.391 . S
C1916 C1917 1.400 . S
C1917 C1911 1.491 . S
C1917 C1916 1.400 . S
C1917 C1918 1.398 . S
C1918 H1906 0.950 . S
C1918 C1917 1.398 . S
C1918 C1919 1.391 . S
C1919 H1907 0.950 . S
C1919 C1915 1.393 . S
C1919 C1918 1.391 . S
H1920 C1928 0.950 . S
H1921 C1933 0.950 . S
H1922 C1930 0.950 . S
H1923 C1932 0.950 . S
H1924 C1934 0.950 . S
H1925 C1936 0.950 . S
H1926 C1938 0.950 . S
H1927 C1939 0.950 . S
C1928 H1920 0.950 . S
C1928 C1929 1.386 . S
C1928 C1930 1.391 . S
C1929 C1928 1.386 . S
C1929 C1933 1.393 . S
C1930 H1922 0.950 . S
C1930 C1928 1.391 . S
C1930 C1931 1.400 . S
C1931 C1930 1.400 . S
C1931 C1932 1.398 . S
C1931 C1937 1.491 . S
C1932 H1923 0.950 . S
C1932 C1931 1.398 . S
C1932 C1933 1.391 . S
C1933 H1921 0.950 . S
C1933 C1929 1.393 . S
C1933 C1932 1.391 . S
C1934 H1924 0.950 . S
C1934 C1935 1.386 . S
C1934 C1936 1.391 . S
C1935 C1934 1.386 . S
C1935 C1939 1.393 . S
C1936 H1925 0.950 . S
C1936 C1934 1.391 . S
C1936 C1937 1.400 . S
C1937 C1931 1.491 . S
C1937 C1936 1.400 . S
C1937 C1938 1.398 . S
C1938 H1926 0.950 . S
C1938 C1937 1.398 . S
C1938 C1939 1.391 . S
C1939 H1927 0.950 . S
C1939 C1935 1.393 . S
C1939 C1938 1.391 . S
H1940 C1948 0.950 . S
H1941 C1953 0.950 . S
H1942 C1950 0.950 . S
H1943 C1952 0.950 . S
H1944 C1954 0.950 . S
H1945 C1956 0.950 . S
H1946 C1958 0.950 . S
H1947 C1959 0.950 . S
C1948 H1940 0.950 . S
C1948 C1949 1.386 . S
C1948 C1950 1.391 . S
C1949 C1948 1.386 . S
C1949 C1953 1.393 . S
C1950 H1942 0.950 . S
C1950 C1948 1.391 . S
C1950 C1951 1.400 . S
C1951 C1950 1.400 . S
C1951 C1952 1.398 . S
C1951 C1957 1.491 . S
C1952 H1943 0.950 . S
C1952 C1951 1.398 . S
C1952 C1953 1.391 . S
C1953 H1941 0.950 . S
C1953 C1949 1.393 . S
C1953 C1952 1.391 . S
C1954 H1944 0.950 . S
C1954 C1955 1.386 . S
C1954 C1956 1.391 . S
C1955 C1954 1.386 . S
C1955 C1959 1.393 . S
C1956 H1945 0.950 . S
C1956 C1954 1.391 . S
C1956 C1957 1.400 . S
C1957 C1951 1.491 . S
C1957 C1956 1.400 . S
C1957 C1958 1.398 . S
C1958 H1946 0.950 . S
C1958 C1957 1.398 . S
C1958 C1959 1.391 . S
C1959 H1947 0.950 . S
C1959 C1955 1.393 . S
C1959 C1958 1.391 . S
H1960 C1968 0.950 . S
H1961 C1973 0.950 . S
H1962 C1970 0.950 . S
H1963 C1972 0.950 . S
H1964 C1974 0.950 . S
H1965 C1976 0.950 . S
H1966 C1978 0.950 . S
H1967 C1979 0.950 . S
C1968 H1960 0.950 . S
C1968 C1969 1.386 . S
C1968 C1970 1.391 . S
C1969 C1968 1.386 . S
C1969 C1973 1.393 . S
C1970 H1962 0.950 . S
C1970 C1968 1.391 . S
C1970 C1971 1.400 . S
C1971 C1970 1.400 . S
C1971 C1972 1.398 . S
C1971 C1977 1.491 . S
C1972 H1963 0.950 . S
C1972 C1971 1.398 . S
C1972 C1973 1.391 . S
C1973 H1961 0.950 . S
C1973 C1969 1.393 . S
C1973 C1972 1.391 . S
C1974 H1964 0.950 . S
C1974 C1975 1.386 . S
C1974 C1976 1.391 . S
C1975 C1974 1.386 . S
C1975 C1979 1.393 . S
C1976 H1965 0.950 . S
C1976 C1974 1.391 . S
C1976 C1977 1.400 . S
C1977 C1971 1.491 . S
C1977 C1976 1.400 . S
C1977 C1978 1.398 . S
C1978 H1966 0.950 . S
C1978 C1977 1.398 . S
C1978 C1979 1.391 . S
C1979 H1967 0.950 . S
C1979 C1975 1.393 . S
C1979 C1978 1.391 . S
H1980 C1988 0.950 . S
H1981 C1993 0.950 . S
H1982 C1990 0.950 . S
H1983 C1992 0.950 . S
H1984 C1994 0.950 . S
H1985 C1996 0.950 . S
H1986 C1998 0.950 . S
H1987 C1999 0.950 . S
C1988 H1980 0.950 . S
C1988 C1989 1.386 . S
C1988 C1990 1.391 . S
C1989 C1988 1.386 . S
C1989 C1993 1.393 . S
C1990 H1982 0.950 . S
C1990 C1988 1.391 . S
C1990 C1991 1.400 . S
C1991 C1990 1.400 . S
C1991 C1992 1.398 . S
C1991 C1997 1.491 . S
C1992 H1983 0.950 . S
C1992 C1991 1.398 . S
C1992 C1993 1.391 . S
C1993 H1981 0.950 . S
C1993 C1989 1.393 . S
C1993 C1992 1.391 . S
C1994 H1984 0.950 . S
C1994 C1995 1.386 . S
C1994 C1996 1.391 . S
C1995 C1994 1.386 . S
C1995 C1999 1.393 . S
C1996 H1985 0.950 . S
C1996 C1994 1.391 . S
C1996 C1997 1.400 . S
C1997 C1991 1.491 . S
C1997 C1996 1.400 . S
C1997 C1998 1.398 . S
C1998 H1986 0.950 . S
C1998 C1997 1.398 . S
C1998 C1999 1.391 . S
C1999 H1987 0.950 . S
C1999 C1995 1.393 . S
C1999 C1998 1.391 . S
H2000 C2008 0.950 . S
H2001 C2013 0.950 . S
H2002 C2010 0.950 . S
H2003 C2012 0.950 . S
H2004 C2014 0.950 . S
H2005 C2016 0.950 . S
H2006 C2018 0.950 . S
H2007 C2019 0.950 . S
C2008 H2000 0.950 . S
C2008 C2009 1.386 . S
C2008 C2010 1.391 . S
C2009 C2008 1.386 . S
C2009 C2013 1.393 . S
C2010 H2002 0.950 . S
C2010 C2008 1.391 . S
C2010 C2011 1.400 . S
C2011 C2010 1.400 . S
C2011 C2012 1.398 . S
C2011 C2017 1.491 . S
C2012 H2003 0.950 . S
C2012 C2011 1.398 . S
C2012 C2013 1.391 . S
C2013 H2001 0.950 . S
C2013 C2009 1.393 . S
C2013 C2012 1.391 . S
C2014 H2004 0.950 . S
C2014 C2015 1.386 . S
C2014 C2016 1.391 . S
C2015 C2014 1.386 . S
C2015 C2019 1.393 . S
C2016 H2005 0.950 . S
C2016 C2014 1.391 . S
C2016 C2017 1.400 . S
C2017 C2011 1.491 . S
C2017 C2016 1.400 . S
C2017 C2018 1.398 . S
C2018 H2006 0.950 . S
C2018 C2017 1.398 . S
C2018 C2019 1.391 . S
C2019 H2007 0.950 . S
C2019 C2015 1.393 . S
C2019 C2018 1.391 . S
H2020 C2028 0.950 . S
H2021 C2033 0.950 . S
H2022 C2030 0.950 . S
H2023 C2032 0.950 . S
H2024 C2034 0.950 . S
H2025 C2036 0.950 . S
H2026 C2038 0.950 . S
H2027 C2039 0.950 . S
C2028 H2020 0.950 . S
C2028 C2029 1.386 . S
C2028 C2030 1.391 . S
C2029 C2028 1.386 . S
C2029 C2033 1.393 . S
C2030 H2022 0.950 . S
C2030 C2028 1.391 . S
C2030 C2031 1.400 . S
C2031 C2030 1.400 . S
C2031 C2032 1.398 . S
C2031 C2037 1.491 . S
C2032 H2023 0.950 . S
C2032 C2031 1.398 . S
C2032 C2033 1.391 . S
C2033 H2021 0.950 . S
C2033 C2029 1.393 . S
C2033 C2032 1.391 . S
C2034 H2024 0.950 . S
C2034 C2035 1.386 . S
C2034 C2036 1.391 . S
C2035 C2034 1.386 . S
C2035 C2039 1.393 . S
C2036 H2025 0.950 . S
C2036 C2034 1.391 . S
C2036 C2037 1.400 . S
C2037 C2031 1.491 . S
C2037 C2036 1.400 . S
C2037 C2038 1.398 . S
C2038 H2026 0.950 . S
C2038 C2037 1.398 . S
C2038 C2039 1.391 . S
C2039 H2027 0.950 . S
C2039 C2035 1.393 . S
C2039 C2038 1.391 . S
H2040 C2048 0.950 . S
H2041 C2053 0.950 . S
H2042 C2050 0.950 . S
H2043 C2052 0.950 . S
H2044 C2054 0.950 . S
H2045 C2056 0.950 . S
H2046 C2058 0.950 . S
H2047 C2059 0.950 . S
C2048 H2040 0.950 . S
C2048 C2049 1.386 . S
C2048 C2050 1.391 . S
C2049 C2048 1.386 . S
C2049 C2053 1.393 . S
C2050 H2042 0.950 . S
C2050 C2048 1.391 . S
C2050 C2051 1.400 . S
C2051 C2050 1.400 . S
C2051 C2052 1.398 . S
C2051 C2057 1.491 . S
C2052 H2043 0.950 . S
C2052 C2051 1.398 . S
C2052 C2053 1.391 . S
C2053 H2041 0.950 . S
C2053 C2049 1.393 . S
C2053 C2052 1.391 . S
C2054 H2044 0.950 . S
C2054 C2055 1.386 . S
C2054 C2056 1.391 . S
C2055 C2054 1.386 . S
C2055 C2059 1.393 . S
C2056 H2045 0.950 . S
C2056 C2054 1.391 . S
C2056 C2057 1.400 . S
C2057 C2051 1.491 . S
C2057 C2056 1.400 . S
C2057 C2058 1.398 . S
C2058 H2046 0.950 . S
C2058 C2057 1.398 . S
C2058 C2059 1.391 . S
C2059 H2047 0.950 . S
C2059 C2055 1.393 . S
C2059 C2058 1.391 . S
H2060 C2068 0.950 . S
H2061 C2073 0.950 . S
H2062 C2070 0.950 . S
H2063 C2072 0.950 . S
H2064 C2074 0.950 . S
H2065 C2076 0.950 . S
H2066 C2078 0.950 . S
H2067 C2079 0.950 . S
C2068 H2060 0.950 . S
C2068 C2069 1.386 . S
C2068 C2070 1.391 . S
C2069 C2068 1.386 . S
C2069 C2073 1.393 . S
C2070 H2062 0.950 . S
C2070 C2068 1.391 . S
C2070 C2071 1.400 . S
C2071 C2070 1.400 . S
C2071 C2072 1.398 . S
C2071 C2077 1.491 . S
C2072 H2063 0.950 . S
C2072 C2071 1.398 . S
C2072 C2073 1.391 . S
C2073 H2061 0.950 . S
C2073 C2069 1.393 . S
C2073 C2072 1.391 . S
C2074 H2064 0.950 . S
C2074 C2075 1.386 . S
C2074 C2076 1.391 . S
C2075 C2074 1.386 . S
C2075 C2079 1.393 . S
C2076 H2065 0.950 . S
C2076 C2074 1.391 . S
C2076 C2077 1.400 . S
C2077 C2071 1.491 . S
C2077 C2076 1.400 . S
C2077 C2078 1.398 . S
C2078 H2066 0.950 . S
C2078 C2077 1.398 . S
C2078 C2079 1.391 . S
C2079 H2067 0.950 . S
C2079 C2075 1.393 . S
C2079 C2078 1.391 . S
H2080 C2088 0.950 . S
H2081 C2093 0.950 . S
H2082 C2090 0.950 . S
H2083 C2092 0.950 . S
H2084 C2094 0.950 . S
H2085 C2096 0.950 . S
H2086 C2098 0.950 . S
H2087 C2099 0.950 . S
C2088 H2080 0.950 . S
C2088 C2089 1.386 . S
C2088 C2090 1.391 . S
C2089 C2088 1.386 . S
C2089 C2093 1.393 . S
C2090 H2082 0.950 . S
C2090 C2088 1.391 . S
C2090 C2091 1.400 . S
C2091 C2090 1.400 . S
C2091 C2092 1.398 . S
C2091 C2097 1.491 . S
C2092 H2083 0.950 . S
C2092 C2091 1.398 . S
C2092 C2093 1.391 . S
C2093 H2081 0.950 . S
C2093 C2089 1.393 . S
C2093 C2092 1.391 . S
C2094 H2084 0.950 . S
C2094 C2095 1.386 . S
C2094 C2096 1.391 . S
C2095 C2094 1.386 . S
C2095 C2099 1.393 . S
C2096 H2085 0.950 . S
C2096 C2094 1.391 . S
C2096 C2097 1.400 . S
C2097 C2091 1.491 . S
C2097 C2096 1.400 . S
C2097 C2098 1.398 . S
C2098 H2086 0.950 . S
C2098 C2097 1.398 . S
C2098 C2099 1.391 . S
C2099 H2087 0.950 . S
C2099 C2095 1.393 . S
C2099 C2098 1.391 . S
H2100 C2108 0.950 . S
H2101 C2113 0.950 . S
H2102 C2110 0.950 . S
H2103 C2112 0.950 . S
H2104 C2114 0.950 . S
H2105 C2116 0.950 . S
H2106 C2118 0.950 . S
H2107 C2119 0.950 . S
C2108 H2100 0.950 . S
C2108 C2109 1.386 . S
C2108 C2110 1.391 . S
C2109 C2108 1.386 . S
C2109 C2113 1.393 . S
C2110 H2102 0.950 . S
C2110 C2108 1.391 . S
C2110 C2111 1.400 . S
C2111 C2110 1.400 . S
C2111 C2112 1.398 . S
C2111 C2117 1.491 . S
C2112 H2103 0.950 . S
C2112 C2111 1.398 . S
C2112 C2113 1.391 . S
C2113 H2101 0.950 . S
C2113 C2109 1.393 . S
C2113 C2112 1.391 . S
C2114 H2104 0.950 . S
C2114 C2115 1.386 . S
C2114 C2116 1.391 . S
C2115 C2114 1.386 . S
C2115 C2119 1.393 . S
C2116 H2105 0.950 . S
C2116 C2114 1.391 . S
C2116 C2117 1.400 . S
C2117 C2111 1.491 . S
C2117 C2116 1.400 . S
C2117 C2118 1.398 . S
C2118 H2106 0.950 . S
C2118 C2117 1.398 . S
C2118 C2119 1.391 . S
C2119 H2107 0.950 . S
C2119 C2115 1.393 . S
C2119 C2118 1.391 . S
H2120 C2128 0.950 . S
H2121 C2133 0.950 . S
H2122 C2130 0.950 . S
H2123 C2132 0.950 . S
H2124 C2134 0.950 . S
H2125 C2136 0.950 . S
H2126 C2138 0.950 . S
H2127 C2139 0.950 . S
C2128 H2120 0.950 . S
C2128 C2129 1.386 . S
C2128 C2130 1.391 . S
C2129 C2128 1.386 . S
C2129 C2133 1.393 . S
C2130 H2122 0.950 . S
C2130 C2128 1.391 . S
C2130 C2131 1.400 . S
C2131 C2130 1.400 . S
C2131 C2132 1.398 . S
C2131 C2137 1.491 . S
C2132 H2123 0.950 . S
C2132 C2131 1.398 . S
C2132 C2133 1.391 . S
C2133 H2121 0.950 . S
C2133 C2129 1.393 . S
C2133 C2132 1.391 . S
C2134 H2124 0.950 . S
C2134 C2135 1.386 . S
C2134 C2136 1.391 . S
C2135 C2134 1.386 . S
C2135 C2139 1.393 . S
C2136 H2125 0.950 . S
C2136 C2134 1.391 . S
C2136 C2137 1.400 . S
C2137 C2131 1.491 . S
C2137 C2136 1.400 . S
C2137 C2138 1.398 . S
C2138 H2126 0.950 . S
C2138 C2137 1.398 . S
C2138 C2139 1.391 . S
C2139 H2127 0.950 . S
C2139 C2135 1.393 . S
C2139 C2138 1.391 . S
H2140 C2148 0.950 . S
H2141 C2153 0.950 . S
H2142 C2150 0.950 . S
H2143 C2152 0.950 . S
H2144 C2154 0.950 . S
H2145 C2156 0.950 . S
H2146 C2158 0.950 . S
H2147 C2159 0.950 . S
C2148 H2140 0.950 . S
C2148 C2149 1.386 . S
C2148 C2150 1.391 . S
C2149 C2148 1.386 . S
C2149 C2153 1.393 . S
C2150 H2142 0.950 . S
C2150 C2148 1.391 . S
C2150 C2151 1.400 . S
C2151 C2150 1.400 . S
C2151 C2152 1.398 . S
C2151 C2157 1.491 . S
C2152 H2143 0.950 . S
C2152 C2151 1.398 . S
C2152 C2153 1.391 . S
C2153 H2141 0.950 . S
C2153 C2149 1.393 . S
C2153 C2152 1.391 . S
C2154 H2144 0.950 . S
C2154 C2155 1.386 . S
C2154 C2156 1.391 . S
C2155 C2154 1.386 . S
C2155 C2159 1.393 . S
C2156 H2145 0.950 . S
C2156 C2154 1.391 . S
C2156 C2157 1.400 . S
C2157 C2151 1.491 . S
C2157 C2156 1.400 . S
C2157 C2158 1.398 . S
C2158 H2146 0.950 . S
C2158 C2157 1.398 . S
C2158 C2159 1.391 . S
C2159 H2147 0.950 . S
C2159 C2155 1.393 . S
C2159 C2158 1.391 . S
C1089 C522 1.751 . S
C1095 C723 1.750 . S
C1109 C562 1.836 . S
C1115 C763 1.829 . S
C1129 C495 1.817 . S
C1135 C815 1.843 . S
C1149 C455 1.600 . S
C1155 C775 1.633 . S
C1175 C803 1.487 . S
C1169 C362 1.475 . S
C1189 C402 1.506 . S
C1195 C735 1.503 1_556 S
C1215 C742 1.766 . S
C1209 C442 1.678 . S
C1235 C782 1.798 . S
C1229 C375 1.795 . S
C1249 C415 1.832 . S
C1255 C802 1.841 1_556 S
C1269 C535 1.607 . S
C1275 C762 1.603 . S
C1289 C575 1.450 . S
C1295 C822 1.457 . S
C1315 C722 1.520 . S
C1309 C482 1.447 . S
C1335 C843 1.740 . S
C1329 C42 1.748 . S
C1349 C82 1.835 . S
C1355 C883 1.822 . S
C1369 C15 1.821 . S
C1375 C935 1.839 . S
C1389 C695 1.611 . S
C1395 C895 1.621 . S
C1409 C602 1.484 . S
C1415 C923 1.484 . S
C1429 C642 1.494 . S
C1435 C855 1.487 . S
C1449 C682 1.693 . S
C1455 C862 1.775 . S
C1469 C615 1.791 . S
C1475 C902 1.794 . S
C1495 C922 1.827 . S
C1489 C655 1.819 . S
C1509 C55 1.614 . S
C1515 C882 1.619 . S
C1535 C942 1.457 . S
C1529 C95 1.451 1_455 S
C1549 C2 1.436 . S
C1555 C842 1.515 . S
C1575 C963 1.740 . S
C1569 C282 1.749 . S
C1589 C322 1.837 . S
C1595 C1003 1.828 . S
C1615 C1055 1.827 . S
C1609 C255 1.809 . S
C1635 C1015 1.621 . S
C1629 C215 1.609 . S
C1655 C1043 1.486 . S
C1649 C122 1.486 1_655 S
C1669 C162 1.499 . S
C1675 C975 1.483 . S
C1689 C202 1.682 . S
C1695 C982 1.768 . S
C1709 C135 1.794 . S
C1715 C1022 1.795 . S
C1735 C1042 1.831 . S
C1729 C175 1.813 . S
C1749 C295 1.606 . S
C1755 C1002 1.602 . S
C1769 C335 1.453 . S
C1775 C1062 1.461 . S
C1789 C242 1.421 . S
C1795 C962 1.512 . S
C1809 C621 1.278 . S
C1815 C746 1.265 . S
C1835 C786 1.914 . S
C1829 C661 1.946 . S
C1849 C701 1.569 . S
C1855 C809 1.621 . S
C1869 C261 1.870 . S
C1875 C769 1.930 . S
C1889 C301 1.610 . S
C1895 C826 1.596 . S
C1915 C729 1.266 . S
C1909 C341 1.268 . S
C1929 C141 1.272 . S
C1935 C866 1.275 . S
C1949 C181 1.947 . S
C1955 C906 1.916 . S
C1969 C221 1.572 . S
C1975 C929 1.619 . S
C1989 C501 1.889 . S
C1995 C889 1.937 . S
C2015 C946 1.606 . S
C2009 C541 1.611 . S
C2029 C581 1.276 . S
C2035 C849 1.267 . S
C2049 C381 1.272 . S
C2055 C986 1.269 . S
C2069 C421 1.945 . S
C2075 C1026 1.905 . S
C2095 C1049 1.621 . S
C2089 C461 1.569 . S
C2109 C21 1.870 . S
C2115 C1009 1.930 . S
C2129 C61 1.611 . S
C2135 C1066 1.606 . S
C2149 C101 1.275 . S
C2155 C969 1.261 . S
