# Generated by pormake.
# Topology zzz, (3,6)-cn, num edge types: 1
# Building blocks:
#     Node 0, Type 0, BuildingBlock: WUSLED_clean_sbu_0, # of connection points: 3
#     Node 1, Type 0, BuildingBlock: WUSLED_clean_sbu_0, # of connection points: 3
#     Node 2, Type 0, BuildingBlock: WUSLED_clean_sbu_0, # of connection points: 3
#     Node 3, Type 0, BuildingBlock: WUSLED_clean_sbu_0, # of connection points: 3
#     Node 4, Type 0, BuildingBlock: WUSLED_clean_sbu_0, # of connection points: 3
#     Node 5, Type 0, BuildingBlock: WUSLED_clean_sbu_0, # of connection points: 3
#     Node 6, Type 0, BuildingBlock: WUSLED_clean_sbu_0, # of connection points: 3
#     Node 7, Type 0, BuildingBlock: WUSLED_clean_sbu_0, # of connection points: 3
#     Node 8, Type 1, BuildingBlock: FUNLAD_clean_sbu_0, # of connection points: 6
#     Node 9, Type 1, BuildingBlock: FUNLAD_clean_sbu_0, # of connection points: 6
#     Node 10, Type 1, BuildingBlock: FUNLAD_clean_sbu_0, # of connection points: 6
#     Node 11, Type 1, BuildingBlock: FUNLAD_clean_sbu_0, # of connection points: 6
#     Edge 12, Type (0, 1), BuildingBlock: CIFDUS_clean_linker_0, # of connection points: 2
#     Edge 13, Type (0, 1), BuildingBlock: CIFDUS_clean_linker_0, # of connection points: 2
#     Edge 14, Type (0, 1), BuildingBlock: CIFDUS_clean_linker_0, # of connection points: 2
#     Edge 15, Type (0, 1), BuildingBlock: CIFDUS_clean_linker_0, # of connection points: 2
#     Edge 16, Type (0, 1), BuildingBlock: CIFDUS_clean_linker_0, # of connection points: 2
#     Edge 17, Type (0, 1), BuildingBlock: CIFDUS_clean_linker_0, # of connection points: 2
#     Edge 18, Type (0, 1), BuildingBlock: CIFDUS_clean_linker_0, # of connection points: 2
#     Edge 19, Type (0, 1), BuildingBlock: CIFDUS_clean_linker_0, # of connection points: 2
#     Edge 20, Type (0, 1), BuildingBlock: CIFDUS_clean_linker_0, # of connection points: 2
#     Edge 21, Type (0, 1), BuildingBlock: CIFDUS_clean_linker_0, # of connection points: 2
#     Edge 22, Type (0, 1), BuildingBlock: CIFDUS_clean_linker_0, # of connection points: 2
#     Edge 23, Type (0, 1), BuildingBlock: CIFDUS_clean_linker_0, # of connection points: 2
#     Edge 24, Type (0, 1), BuildingBlock: CIFDUS_clean_linker_0, # of connection points: 2
#     Edge 25, Type (0, 1), BuildingBlock: CIFDUS_clean_linker_0, # of connection points: 2
#     Edge 26, Type (0, 1), BuildingBlock: CIFDUS_clean_linker_0, # of connection points: 2
#     Edge 27, Type (0, 1), BuildingBlock: CIFDUS_clean_linker_0, # of connection points: 2
#     Edge 28, Type (0, 1), BuildingBlock: CIFDUS_clean_linker_0, # of connection points: 2
#     Edge 29, Type (0, 1), BuildingBlock: CIFDUS_clean_linker_0, # of connection points: 2
#     Edge 30, Type (0, 1), BuildingBlock: CIFDUS_clean_linker_0, # of connection points: 2
#     Edge 31, Type (0, 1), BuildingBlock: CIFDUS_clean_linker_0, # of connection points: 2
#     Edge 32, Type (0, 1), BuildingBlock: CIFDUS_clean_linker_0, # of connection points: 2
#     Edge 33, Type (0, 1), BuildingBlock: CIFDUS_clean_linker_0, # of connection points: 2
#     Edge 34, Type (0, 1), BuildingBlock: CIFDUS_clean_linker_0, # of connection points: 2
#     Edge 35, Type (0, 1), BuildingBlock: CIFDUS_clean_linker_0, # of connection points: 2
# Relax obj value: 0.260
# Max RMSD: 0.219
# Mean RMSD: 0.185
data_MOF--net-zzz--node1-WUSLED_clean_sbu_0--node2-FUNLAD_clean_sbu_0--edge1-CIFDUS_clean_linker_0
_symmetry_space_group_name_H-M    P1
_symmetry_Int_Tables_number       1
_symmetry_cell_setting            triclinic
loop_
_symmetry_equiv_pos_as_xyz
'x, y, z'
_cell_length_a     56.43834
_cell_length_b     61.143122
_cell_length_c     21.881312
_cell_angle_alpha  87.026905
_cell_angle_beta   86.683275
_cell_angle_gamma 91.669205
loop_
_atom_site_label
_atom_site_type_symbol
_atom_site_fract_x
_atom_site_fract_y
_atom_site_fract_z
_atom_type_partial_charge
C0 C 0.8356 0.45609 0.37158 0.0
C1 C 0.85833 0.46093 0.34348 0.0
C2 C 0.87514 0.46101 0.44339 0.0
C3 C 0.8779 0.46356 0.37918 0.0
C4 C 0.85259 0.45531 0.47122 0.0
C5 C 0.83295 0.45302 0.43557 0.0
U6 U 0.80606 0.44645 0.22236 0.0
O7 O 0.78108 0.46749 0.17553 0.0
O8 O 0.77009 0.43362 0.20619 0.0
C9 C 0.76416 0.45215 0.17874 0.0
C10 C 0.81441 0.45553 0.33522 0.0
C11 C 0.74834 0.45117 0.12733 0.0
C12 C 0.70749 0.44754 0.09862 0.0
C13 C 0.72461 0.44449 0.14156 0.0
C14 C 0.73781 0.46255 0.02409 0.0
C15 C 0.71374 0.45721 0.04007 0.0
C16 C 0.75502 0.45972 0.06764 0.0
C17 C 0.85001 0.4277 0.09222 0.0
C18 C 0.85721 0.4403 0.98584 0.0
C19 C 0.8826 0.41338 0.03107 0.0
C20 C 0.86877 0.41331 0.086 0.0
C21 C 0.87786 0.42801 0.98216 0.0
C22 C 0.84328 0.44014 0.04073 0.0
C23 C 0.84192 0.43306 0.15436 0.0
O24 O 0.81445 0.47041 0.28972 0.0
O25 O 0.80674 0.4361 0.3205 0.0
O26 O 0.82672 0.4194 0.18545 0.0
O27 O 0.83781 0.45382 0.16214 0.0
H28 H 0.86084 0.46317 0.29406 0.0
H29 H 0.89518 0.46769 0.35673 0.0
H30 H 0.85003 0.45331 0.52067 0.0
H31 H 0.81559 0.4493 0.45807 0.0
H32 H 0.68913 0.44309 0.112 0.0
H33 H 0.719 0.43799 0.18731 0.0
H34 H 0.74308 0.47006 0.97926 0.0
H35 H 0.77322 0.46511 0.05558 0.0
H36 H 0.85328 0.4517 0.94846 0.0
H37 H 0.89857 0.40394 0.02947 0.0
H38 H 0.87424 0.40367 0.1254 0.0
H39 H 0.82876 0.45129 0.04459 0.0
C40 C 0.94479 0.82098 0.22151 0.0
C41 C 0.94228 0.8429 0.20038 0.0
C42 C 0.95431 0.85583 0.29804 0.0
C43 C 0.94686 0.86019 0.23849 0.0
C44 C 0.95596 0.83387 0.31955 0.0
C45 C 0.95117 0.81665 0.28178 0.0
U46 U 0.93276 0.80036 0.06483 0.0
O47 O 0.95555 0.7814 1.00248 0.0
O48 O 0.91911 0.76928 0.0319 0.0
C49 C 0.93852 0.76662 0.9971 0.0
C50 C 0.94332 0.80275 0.17966 0.0
C51 C 0.94416 0.74459 0.97737 0.0
C52 C 0.9456 0.70504 0.99448 0.0
C53 C 0.94189 0.72582 0.0172 0.0
C54 C 0.95399 0.72172 0.89238 0.0
C55 C 0.95164 0.70281 0.93175 0.0
C56 C 0.95025 0.74235 0.91499 0.0
C57 C 0.9169 0.84182 0.94104 0.0
C58 C 0.94076 0.84572 0.84533 0.0
C59 C 0.91319 0.87366 0.87277 0.0
C60 C 0.90542 0.86112 0.92563 0.0
C61 C 0.9332 0.86731 0.83736 0.0
C62 C 0.93247 0.83289 0.89715 0.0
C63 C 0.91886 0.83557 0.00615 0.0
O64 O 0.92202 0.79679 0.16372 0.0
O65 O 0.95928 0.80405 0.13337 0.0
O66 O 0.94082 0.83271 0.02081 0.0
O67 O 0.90372 0.8206 0.03167 0.0
H68 H 0.9376 0.84666 0.15374 0.0
H69 H 0.94572 0.87694 0.22046 0.0
H70 H 0.96161 0.83003 0.36524 0.0
H71 H 0.95331 0.79993 0.29897 0.0
H72 H 0.94385 0.69074 0.02593 0.0
H73 H 0.93705 0.72719 0.06543 0.0
H74 H 0.95825 0.72051 0.84377 0.0
H75 H 0.95166 0.75662 0.8833 0.0
H76 H 0.95573 0.84008 0.81787 0.0
H77 H 0.90638 0.88994 0.86586 0.0
H78 H 0.89292 0.868 0.95823 0.0
H79 H 0.94106 0.81763 0.9076 0.0
C80 C 0.71333 0.00577 0.29564 0.0
C81 C 0.69243 0.01628 0.28047 0.0
C82 C 0.67346 0.00499 0.3814 0.0
C83 C 0.67257 0.01576 0.32294 0.0
C84 C 0.69416 0.99388 0.39484 0.0
C85 C 0.71373 0.9943 0.35269 0.0
U86 U 0.75906 0.00931 0.14893 0.0
O87 O 0.79321 0.99289 0.14672 0.0
O88 O 0.79273 0.02877 0.14159 0.0
C89 C 0.80566 0.01135 0.13669 0.0
C90 C 0.73593 0.00776 0.25723 0.0
C91 C 0.8235 0.01207 0.08438 0.0
C92 C 0.86375 0.02118 0.04372 0.0
C93 C 0.8462 0.02103 0.09157 0.0
C94 C 0.83606 1.0036 0.97989 0.0
C95 C 0.85912 0.01212 0.98746 0.0
C96 C 0.81841 1.00363 0.02784 0.0
C97 C 0.71299 0.00787 0.02508 0.0
C98 C 0.68811 0.00606 0.93899 0.0
C99 C 0.67058 0.01205 0.04046 0.0
C100 C 0.69301 0.01121 0.06414 0.0
C101 C 0.66806 0.00974 0.97759 0.0
C102 C 0.71044 0.00508 0.96271 0.0
C103 C 0.73686 0.00837 0.04719 0.0
O104 O 0.74331 0.99024 0.23041 0.0
O105 O 0.7412 0.02616 0.22479 0.0
O106 O 0.74321 0.99058 0.07752 0.0
O107 O 0.74334 0.02661 0.07173 0.0
H108 H 0.69165 0.02529 0.23673 0.0
H109 H 0.65692 0.02448 0.31097 0.0
H110 H 0.69543 0.98505 0.43868 0.0
H111 H 0.72962 0.98611 0.36561 0.0
H112 H 0.88101 0.02843 0.05104 0.0
H113 H 0.85045 0.02781 0.13455 0.0
H114 H 0.83178 0.9964 0.93757 0.0
H115 H 0.80089 0.99677 0.02108 0.0
H116 H 0.68649 0.00392 0.89054 0.0
H117 H 0.6553 0.01497 0.07088 0.0
H118 H 0.69483 0.01349 0.11244 0.0
H119 H 0.72579 1.00246 0.93216 0.0
C120 C 0.57591 0.6762 0.31648 0.0
C121 C 0.57252 0.65654 0.2871 0.0
C122 C 0.5734 0.63553 0.38498 0.0
C123 C 0.5713 0.63637 0.32105 0.0
C124 C 0.57737 0.6553 0.41365 0.0
C125 C 0.57857 0.67538 0.37976 0.0
U126 U 0.57781 0.71129 0.16642 0.0
O127 O 0.55576 0.73928 0.14357 0.0
O128 O 0.59467 0.74366 0.13985 0.0
C129 C 0.57417 0.75282 0.13229 0.0
C130 C 0.57579 0.6977 0.2826 0.0
C131 C 0.57272 0.76951 0.08167 0.0
C132 C 0.56394 0.80711 0.05273 0.0
C133 C 0.56644 0.79051 0.09765 0.0
C134 C 0.57438 0.78214 0.97386 0.0
C135 C 0.56752 0.80317 0.99021 0.0
C136 C 0.57687 0.76532 0.01942 0.0
C137 C 0.58269 0.66744 0.03573 0.0
C138 C 0.57508 0.66163 0.92984 0.0
C139 C 0.58055 0.63074 1.00121 0.0
C140 C 0.58455 0.64495 0.04703 0.0
C141 C 0.57512 0.63877 0.94228 0.0
C142 C 0.57857 0.67594 0.97675 0.0
C143 C 0.58149 0.6807 0.08897 0.0
O144 O 0.59569 0.70417 0.25193 0.0
O145 O 0.55691 0.70127 0.25162 0.0
O146 O 0.56085 0.68757 0.10969 0.0
O147 O 0.60032 0.69126 0.10659 0.0
H148 H 0.57039 0.65682 0.23816 0.0
H149 H 0.568 0.62153 0.29754 0.0
H150 H 0.57944 0.65529 0.46255 0.0
H151 H 0.58126 0.69035 0.40322 0.0
H152 H 0.5592 0.82317 0.0672 0.0
H153 H 0.56329 0.79409 0.14539 0.0
H154 H 0.57729 0.7786 0.92608 0.0
H155 H 0.58175 0.74916 0.00617 0.0
H156 H 0.57135 0.66842 0.88487 0.0
H157 H 0.58009 0.61339 0.01402 0.0
H158 H 0.58743 0.63819 0.09273 0.0
H159 H 0.57704 0.69341 0.96776 0.0
C160 C 0.20868 0.54167 0.05074 0.0
C161 C 0.1876 0.55032 0.07509 0.0
C162 C 0.16548 0.53487 0.99383 0.0
C163 C 0.16622 0.54707 0.04669 0.0
C164 C 0.18682 0.52643 0.96967 0.0
C165 C 0.20814 0.52988 0.9977 0.0
U166 U 0.24125 0.55157 0.19472 0.0
O167 O 0.26815 0.53083 0.23449 0.0
O168 O 0.27685 0.56554 0.20959 0.0
C169 C 0.28419 0.54688 0.23317 0.0
C170 C 0.23086 0.54296 0.08289 0.0
C171 C 0.29885 0.54759 0.28665 0.0
C172 C 0.33655 0.53922 0.32933 0.0
C173 C 0.32239 0.54103 0.27923 0.0
C174 C 0.30408 0.5512 0.39546 0.0
C175 C 0.32748 0.54403 0.38791 0.0
C176 C 0.28977 0.55297 0.34496 0.0
C177 C 0.19869 0.56725 0.3322 0.0
C178 C 0.18763 0.55253 0.43514 0.0
C179 C 0.16895 0.58501 0.39501 0.0
C180 C 0.18319 0.58449 0.34088 0.0
C181 C 0.17002 0.56817 0.44054 0.0
C182 C 0.20203 0.55212 0.38123 0.0
C183 C 0.2061 0.5625 0.26899 0.0
O184 O 0.23804 0.56252 0.09797 0.0
O185 O 0.23241 0.52781 0.12705 0.0
O186 O 0.21121 0.5421 0.25898 0.0
O187 O 0.21975 0.57712 0.23654 0.0
H188 H 0.18761 0.55927 0.11656 0.0
H189 H 0.15031 0.55408 0.06634 0.0
H190 H 0.18704 0.51655 0.93003 0.0
H191 H 0.22416 0.52279 0.97881 0.0
H192 H 0.35443 0.53342 0.3227 0.0
H193 H 0.32963 0.53664 0.23473 0.0
H194 H 0.29671 0.55477 0.44053 0.0
H195 H 0.27157 0.55794 0.35165 0.0
H196 H 0.18853 0.53932 0.46984 0.0
H197 H 0.15523 0.59701 0.39811 0.0
H198 H 0.18027 0.59624 0.30347 0.0
H199 H 0.21398 0.53872 0.37576 0.0
C200 C 0.10712 0.18594 0.20133 0.0
C201 C 0.10651 0.16485 0.23031 0.0
C202 C 0.09861 0.14853 0.13398 0.0
C203 C 0.10216 0.14635 0.19706 0.0
C204 C 0.10036 0.16959 0.10453 0.0
C205 C 0.10444 0.18815 0.13805 0.0
U206 U 0.11941 0.20985 0.35166 0.0
O207 O 0.13187 0.24235 0.37846 0.0
O208 O 0.09604 0.22891 0.41216 0.0
C209 C 0.11205 0.24498 0.41165 0.0
C210 C 0.10831 0.20548 0.23813 0.0
C211 C 0.10792 0.26501 0.44465 0.0
C212 C 0.10203 0.30421 0.44281 0.0
C213 C 0.1071 0.28526 0.412 0.0
C214 C 0.09949 0.283 0.53977 0.0
C215 C 0.09804 0.30328 0.507 0.0
C216 C 0.10417 0.26397 0.50872 0.0
C217 C 0.13734 0.16616 0.47204 0.0
C218 C 0.11516 0.16154 0.57016 0.0
C219 C 0.13549 0.13092 0.5276 0.0
C220 C 0.14486 0.14459 0.47864 0.0
C221 C 0.11875 0.13894 0.57005 0.0
C222 C 0.12453 0.17523 0.52103 0.0
C223 C 0.13445 0.1748 0.40944 0.0
O224 O 0.09255 0.20503 0.28475 0.0
O225 O 0.12959 0.21218 0.25235 0.0
O226 O 0.14908 0.19053 0.38576 0.0
O227 O 0.11219 0.17782 0.39787 0.0
H228 H 0.1086 0.16273 0.27914 0.0
H229 H 0.10117 0.13035 0.22092 0.0
H230 H 0.09755 0.1718 0.05608 0.0
H231 H 0.10474 0.20426 0.11491 0.0
H232 H 0.10121 0.31962 0.4164 0.0
H233 H 0.10992 0.28636 0.36252 0.0
H234 H 0.09638 0.28177 0.58916 0.0
H235 H 0.10478 0.24843 0.53467 0.0
H236 H 0.10237 0.168 0.60282 0.0
H237 H 0.13862 0.11352 0.52728 0.0
H238 H 0.15487 0.13738 0.44143 0.0
H239 H 0.11866 0.19192 0.51671 0.0
C240 C 0.33142 0.01023 0.12003 0.0
C241 C 0.35448 0.01031 0.14121 0.0
C242 C 0.37166 0.01324 0.03517 0.0
C243 C 0.37447 0.0117 0.09902 0.0
C244 C 0.34846 0.01266 0.01493 0.0
C245 C 0.32872 0.0112 0.05669 0.0
U246 U 0.28593 0.00939 0.26837 0.0
O247 O 0.25183 0.02605 0.26934 0.0
O248 O 0.2522 0.99019 0.27363 0.0
C249 C 0.23929 0.0076 0.27853 0.0
C250 C 0.30944 0.00944 0.16076 0.0
C251 C 0.22145 0.00661 0.33079 0.0
C252 C 0.18034 1.00105 0.36902 0.0
C253 C 0.19759 1.00228 0.32035 0.0
C254 C 0.21058 0.00843 0.43993 0.0
C255 C 0.18647 0.00434 0.42953 0.0
C256 C 0.22791 0.00951 0.39101 0.0
C257 C 0.32918 0.0096 0.40143 0.0
C258 C 0.34947 0.01156 0.49561 0.0
C259 C 0.36907 0.99643 0.40641 0.0
C260 C 0.34918 1.00051 0.37302 0.0
C261 C 0.36914 1.0014 0.46851 0.0
C262 C 0.32962 0.01558 0.46227 0.0
C263 C 0.30657 0.01019 0.37239 0.0
O264 O 0.30373 0.99142 0.19452 0.0
O265 O 0.30301 0.02744 0.18672 0.0
O266 O 0.30191 0.02811 0.34004 0.0
O267 O 0.29997 0.99204 0.3476 0.0
H268 H 0.35702 0.00952 0.18996 0.0
H269 H 0.39206 0.01212 0.11629 0.0
H270 H 0.34549 0.01333 0.96642 0.0
H271 H 0.31113 0.01099 0.03923 0.0
H272 H 0.16215 0.99729 0.35902 0.0
H273 H 0.19227 0.99975 0.27438 0.0
H274 H 0.21604 0.01117 0.48561 0.0
H275 H 0.24633 0.01272 0.40011 0.0
H276 H 0.34923 0.01603 0.54291 0.0
H277 H 0.38395 0.98853 0.38435 0.0
H278 H 0.349 0.99571 0.32607 0.0
H279 H 0.31421 0.02256 0.4848 0.0
C280 C 0.45626 0.33003 0.10258 0.0
C281 C 0.45003 0.3501 0.12661 0.0
C282 C 0.46068 0.36924 0.02788 0.0
C283 C 0.45209 0.36953 0.08948 0.0
C284 C 0.46638 0.34898 1.00387 0.0
C285 C 0.46421 0.32959 0.0409 0.0
U286 U 0.45315 0.30419 0.26242 0.0
O287 O 0.43895 0.2723 0.30304 0.0
O288 O 0.47721 0.28164 0.30862 0.0
C289 C 0.45981 0.26712 0.32237 0.0
C290 C 0.45664 0.30996 0.14279 0.0
C291 C 0.46356 0.24616 0.35615 0.0
C292 C 0.45958 0.20645 0.36423 0.0
C293 C 0.45635 0.22642 0.33219 0.0
C294 C 0.47663 0.22575 0.44587 0.0
C295 C 0.46956 0.20575 0.42194 0.0
C296 C 0.47387 0.24572 0.41299 0.0
C297 C 0.44707 0.34461 0.38847 0.0
C298 C 0.47153 0.34301 0.47593 0.0
C299 C 0.44825 0.37496 0.45456 0.0
C300 C 0.43905 0.36504 0.40481 0.0
C301 C 0.46578 0.36459 0.48763 0.0
C302 C 0.46194 0.33291 0.42684 0.0
C303 C 0.4455 0.33885 0.3249 0.0
O304 O 0.47515 0.30892 0.17639 0.0
O305 O 0.43655 0.30406 0.17369 0.0
O306 O 0.42823 0.32522 0.31235 0.0
O307 O 0.46612 0.33459 0.29808 0.0
H308 H 0.44418 0.35082 0.17449 0.0
H309 H 0.44784 0.38487 0.10956 0.0
H310 H 0.47282 0.34816 0.95648 0.0
H311 H 0.4693 0.31431 0.02171 0.0
H312 H 0.45443 0.19154 0.3432 0.0
H313 H 0.44846 0.22643 0.28821 0.0
H314 H 0.48396 0.22608 0.49045 0.0
H315 H 0.47933 0.26085 0.43256 0.0
H316 H 0.48484 0.33473 0.50144 0.0
H317 H 0.4436 0.39167 0.46284 0.0
H318 H 0.42765 0.37428 0.37552 0.0
H319 H 0.46818 0.317 0.41481 0.0
C320 C 0.02449 0.96507 0.77058 0.0
N321 N 0.99937 0.98378 0.60098 0.0
C322 C 0.00986 0.96429 0.59249 0.0
C323 C 1.00157 0.94973 0.55105 0.0
C324 C 0.98286 0.95533 0.51404 0.0
C325 C 0.9728 0.97602 0.522 0.0
C326 C 0.98114 0.98989 0.56632 0.0
Zn327 Zn 0.01329 1.00103 0.67235 0.0
C328 C 0.97998 0.00849 0.77534 0.0
N329 N 0.04881 0.02655 0.82345 0.0
C330 C 0.07166 0.02437 0.83937 0.0
C331 C 0.03518 0.04245 0.84746 0.0
C332 C 0.04423 0.05679 0.88855 0.0
C333 C 0.06784 0.05537 0.90417 0.0
C334 C 0.08165 0.03883 0.87945 0.0
Zn335 Zn 0.03442 0.0096 0.75317 0.0
O336 O 0.01524 0.97096 0.72121 0.0
C337 C 0.06765 1.00222 0.65009 0.0
O338 O 0.03628 0.9789 0.79907 0.0
H339 H 0.01746 0.04485 0.83278 0.0
H340 H 0.02469 0.9596 0.61878 0.0
H341 H 0.08246 0.01198 0.81929 0.0
O342 O 0.04753 0.99839 0.62887 0.0
O343 O 0.06869 0.00691 0.70594 0.0
H344 H 0.97299 0.00545 0.57299 0.0
O345 O 0.03173 0.03968 0.70752 0.0
O346 O 0.01233 0.03235 0.62636 0.0
O347 O 1.00026 0.0115 0.79642 0.0
O348 O 0.97871 0.00438 0.71899 0.0
C349 C 0.02334 0.04607 0.65741 0.0
H350 H 0.00977 0.93401 0.5496 0.0
H351 H 0.95865 0.98162 0.49446 0.0
H352 H 0.03318 0.0696 0.90567 0.0
H353 H 0.10003 0.03733 0.8903 0.0
C354 C 0.48864 0.99155 0.63127 0.0
N355 N 0.5139 0.05489 0.66011 0.0
C356 C 0.50952 0.05777 0.59967 0.0
C357 C 0.50498 0.07851 0.57412 0.0
C358 C 0.50544 0.09671 0.61055 0.0
C359 C 0.5104 0.09345 0.67252 0.0
C360 C 0.51438 0.07226 0.69665 0.0
Zn361 Zn 0.51985 0.02336 0.69353 0.0
C362 C 0.48682 0.00823 0.80109 0.0
N363 N 0.53041 0.95619 0.75393 0.0
C364 C 0.53376 0.93862 0.71886 0.0
C365 C 0.53089 0.95396 0.81609 0.0
C366 C 0.53407 0.93358 0.8454 0.0
C367 C 0.53695 0.91506 0.81084 0.0
C368 C 0.53722 0.91776 0.74659 0.0
Zn369 Zn 0.52435 0.98759 0.71908 0.0
O370 O 0.49447 0.01142 0.63783 0.0
C371 C 0.55708 1.00257 0.61183 0.0
O372 O 0.49823 0.97626 0.66164 0.0
H373 H 0.52856 0.96803 0.84348 0.0
H374 H 0.50964 0.04396 0.57078 0.0
H375 H 0.53346 0.94069 0.66952 0.0
O376 O 0.54671 0.0204 0.62119 0.0
O377 O 0.55145 0.98551 0.64618 0.0
H378 H 0.51789 0.0697 0.74452 0.0
O379 O 0.54998 0.99959 0.77503 0.0
O380 O 0.54625 0.03456 0.74956 0.0
O381 O 0.49742 0.99061 0.79073 0.0
O382 O 0.49242 0.02544 0.76719 0.0
C383 C 0.55621 0.0195 0.77982 0.0
H384 H 0.50159 0.08036 0.52593 0.0
H385 H 0.51087 0.10708 0.70214 0.0
H386 H 0.53407 0.9323 0.89497 0.0
H387 H 0.53933 0.90383 0.71837 0.0
C388 C 0.51779 0.46821 0.63547 0.0
N389 N 0.46899 0.516 0.68633 0.0
C390 C 0.45622 0.50139 0.65534 0.0
C391 C 0.43636 0.50772 0.62457 0.0
C392 C 0.42835 0.52921 0.62727 0.0
C393 C 0.44075 0.54361 0.66339 0.0
C394 C 0.46124 0.53678 0.69167 0.0
Zn395 Zn 0.50343 0.50771 0.71074 0.0
C396 C 0.50631 0.47092 0.80065 0.0
N397 N 0.57555 0.48862 0.73261 0.0
C398 C 0.58166 0.4673 0.74072 0.0
C399 C 0.59002 0.5051 0.75032 0.0
C400 C 0.61049 0.5004 0.78103 0.0
C401 C 0.61672 0.47857 0.79183 0.0
C402 C 0.60244 0.46192 0.76956 0.0
Zn403 Zn 0.54132 0.49613 0.70894 0.0
O404 O 0.50311 0.48258 0.65042 0.0
C405 C 0.53862 0.53312 0.61982 0.0
O406 O 0.53929 0.47027 0.64912 0.0
H407 H 0.58516 0.52198 0.74346 0.0
H408 H 0.46179 0.48488 0.6513 0.0
H409 H 0.56985 0.45434 0.72762 0.0
O410 O 0.51732 0.53078 0.64204 0.0
O411 O 0.55412 0.51968 0.6369 0.0
H412 H 0.47142 0.54848 0.71568 0.0
O413 O 0.54193 0.52079 0.77017 0.0
O414 O 0.50546 0.53255 0.77338 0.0
O415 O 0.52765 0.47372 0.77904 0.0
O416 O 0.4905 0.48378 0.78194 0.0
C417 C 0.52657 0.53368 0.79044 0.0
H418 H 0.42815 0.49589 0.59666 0.0
H419 H 0.43518 0.56022 0.66858 0.0
H420 H 0.62113 0.51371 0.79724 0.0
H421 H 0.60663 0.44486 0.77733 0.0
C422 C 0.05189 0.52227 0.61884 0.0
N423 N 0.03737 0.45658 0.67286 0.0
C424 C 0.03908 0.4543 0.61125 0.0
C425 C 0.04588 0.43464 0.58737 0.0
C426 C 0.05056 0.41666 0.62691 0.0
C427 C 0.04905 0.41944 0.69049 0.0
C428 C 0.0424 0.43969 0.71262 0.0
Zn429 Zn 0.02635 0.48668 0.69985 0.0
C430 C 0.05697 0.50708 0.78796 0.0
N431 N 1.00432 0.55134 0.74162 0.0
C432 C 1.0048 0.56852 0.6993 0.0
C433 C 0.9975 0.55409 0.80143 0.0
C434 C 0.99091 0.5746 0.82063 0.0
C435 C 0.99191 0.59269 0.77834 0.0
C436 C 0.9989 0.58947 0.71689 0.0
Zn437 Zn 0.01552 0.52091 0.7171 0.0
O438 O 0.04845 0.50178 0.62876 0.0
C439 C 0.98507 0.50041 0.62837 0.0
O440 O 0.04029 0.53543 0.65097 0.0
H441 H 0.99762 0.54046 0.83488 0.0
H442 H 0.03493 0.46775 0.5801 0.0
H443 H 0.01013 0.56612 0.65194 0.0
O444 O 0.99791 0.48439 0.64216 0.0
O445 O 0.98904 0.51892 0.65069 0.0
H446 H 0.04093 0.44179 0.76146 0.0
O447 O 0.99123 0.5055 0.78254 0.0
O448 O 1.00371 0.47214 0.77108 0.0
O449 O 0.04214 0.52221 0.78205 0.0
O450 O 0.05488 0.48983 0.75829 0.0
C451 C 0.98961 0.48511 0.79703 0.0
H452 H 0.04733 0.43356 0.53806 0.0
H453 H 0.05237 0.40602 0.72278 0.0
H454 H 0.98591 0.57646 0.86858 0.0
H455 H 0.99981 0.60302 0.68283 0.0
H456 H 0.14163 0.01923 0.42553 0.0
H457 H 0.18867 0.98825 0.54972 0.0
H458 H 0.15683 0.98602 0.63098 0.0
H459 H 0.11437 0.99126 0.66538 0.0
H460 H 0.0678 0.01962 0.53531 0.0
H461 H 0.10046 0.02406 0.45806 0.0
C462 C 0.14498 0.01167 0.46999 0.0
C463 C 0.16758 1.00369 0.48074 0.0
C464 C 0.12647 0.00983 0.51578 0.0
C465 C 0.17156 0.99469 0.53977 0.0
C466 C 0.15326 0.99325 0.58631 0.0
C467 C 0.11151 0.99842 0.62013 0.0
C468 C 0.0886 0.00484 0.60594 0.0
C469 C 0.13048 1.00054 0.5747 0.0
C470 C 0.08514 0.01416 0.54714 0.0
C471 C 0.10384 0.01682 0.50287 0.0
H472 H 0.50471 0.19407 0.49839 0.0
H473 H 0.44058 0.16875 0.42489 0.0
H474 H 0.4462 0.13315 0.47566 0.0
H475 H 0.46946 0.10877 0.54003 0.0
H476 H 0.53187 0.13443 0.61965 0.0
H477 H 0.52628 0.17045 0.56915 0.0
C478 C 0.49168 0.18096 0.49411 0.0
C479 C 0.47243 0.18428 0.45658 0.0
C480 C 0.49462 0.16051 0.52498 0.0
C481 C 0.45599 0.16675 0.45161 0.0
C482 C 0.45903 0.14633 0.48125 0.0
C483 C 0.4818 0.12228 0.54635 0.0
C484 C 0.50113 0.11892 0.58321 0.0
C485 C 0.47837 0.14296 0.51761 0.0
C486 C 0.51679 0.13664 0.59175 0.0
C487 C 0.51367 0.1572 0.56261 0.0
H488 H 0.35775 0.57173 0.44155 0.0
H489 H 0.33036 0.50512 0.44995 0.0
H490 H 0.35769 0.495 0.52881 0.0
H491 H 0.3903 0.50468 0.59169 0.0
H492 H 0.42067 0.57062 0.57647 0.0
H493 H 0.39047 0.58162 0.50713 0.0
C494 C 0.35756 0.55514 0.46174 0.0
C495 C 0.34191 0.53921 0.44102 0.0
C496 C 0.37372 0.54936 0.50626 0.0
C497 C 0.34202 0.51765 0.46624 0.0
C498 C 0.35771 0.51188 0.51101 0.0
C499 C 0.39072 0.52144 0.57289 0.0
C500 C 0.40829 0.53659 0.58948 0.0
C501 C 0.37388 0.52752 0.53073 0.0
C502 C 0.40749 0.55844 0.56576 0.0
C503 C 0.39029 0.56478 0.52521 0.0
H504 H 0.0651 0.33236 0.47555 0.0
H505 H 0.11605 0.3189 0.61076 0.0
H506 H 0.10558 0.35247 0.66141 0.0
H507 H 0.08266 0.38643 0.66474 0.0
H508 H 0.03062 0.39824 0.53058 0.0
H509 H 0.04109 0.36481 0.48176 0.0
C510 C 0.07401 0.33684 0.51593 0.0
C511 C 0.09148 0.32331 0.53899 0.0
C512 C 0.0678 0.35598 0.54487 0.0
C513 C 0.10251 0.32906 0.59216 0.0
C514 C 0.09657 0.34828 0.62099 0.0
C515 C 0.07341 0.38156 0.6253 0.0
C516 C 0.05615 0.39518 0.6009 0.0
C517 C 0.07929 0.36195 0.59756 0.0
C518 C 0.04443 0.38851 0.54956 0.0
C519 C 0.05027 0.36926 0.5217 0.0
H520 H 0.90566 0.00428 1.00187 0.0
H521 H 0.85653 0.01719 0.86149 0.0
H522 H 0.889 0.0162 0.78244 0.0
H523 H 0.93228 0.01304 0.75338 0.0
H524 H 0.98032 1.00225 0.89799 0.0
H525 H 0.94755 1.00156 0.97435 0.0
C526 C 0.90195 0.00725 0.95413 0.0
C527 C 0.87858 0.01108 0.93819 0.0
C528 C 0.9207 0.00717 0.90917 0.0
C529 C 0.87426 0.01408 0.87554 0.0
C530 C 0.89289 0.01366 0.83016 0.0
C531 C 0.93548 0.01053 0.80157 0.0
C532 C 0.95888 0.00794 0.81953 0.0
C533 C 0.91632 0.0104 0.8464 0.0
C534 C 0.96265 0.00462 0.8824 0.0
C535 C 0.94386 0.00412 0.92647 0.0
H536 H 0.53118 0.83102 0.99044 0.0
H537 H 0.59502 0.81598 0.88527 0.0
H538 H 0.59041 0.84851 0.81676 0.0
H539 H 0.56966 0.88313 0.79224 0.0
H540 H 0.50691 0.89791 0.90265 0.0
H541 H 0.50987 0.86384 0.96401 0.0
C542 C 0.54415 0.83482 0.95256 0.0
C543 C 0.56359 0.82122 0.94361 0.0
C544 C 0.54167 0.85369 0.91454 0.0
C545 C 0.57985 0.82613 0.89323 0.0
C546 C 0.57731 0.84483 0.85432 0.0
C547 C 0.55651 0.87867 0.82921 0.0
C548 C 0.53817 0.89313 0.84316 0.0
C549 C 0.5585 0.859 0.86523 0.0
C550 C 0.52132 0.88721 0.89145 0.0
C551 C 0.52297 0.8677 0.92651 0.0
H552 H 0.70895 0.44737 0.9203 0.0
H553 H 0.67565 0.48135 0.06851 0.0
H554 H 0.64325 0.49154 1.00462 0.0
H555 H 0.62381 0.49034 0.90713 0.0
H556 H 0.65521 0.45452 0.76038 0.0
H557 H 0.68882 0.44556 0.82252 0.0
C558 C 0.69463 0.4571 0.93824 0.0
C559 C 0.69468 0.46359 0.99904 0.0
C560 C 0.67568 0.46255 0.90145 0.0
C561 C 0.67592 0.47604 0.022 0.0
C562 C 0.6574 0.48191 0.98546 0.0
C563 C 0.63811 0.48067 0.88875 0.0
C564 C 0.63718 0.47321 0.82918 0.0
C565 C 0.65702 0.47519 0.92524 0.0
C566 C 0.65558 0.46041 0.80617 0.0
C567 C 0.67479 0.45532 0.84166 0.0
H568 H 0.98808 0.69081 0.85528 0.0
H569 H 0.92338 0.66578 0.95186 0.0
H570 H 0.92955 0.6297 0.91108 0.0
H571 H 0.95401 0.60498 0.84999 0.0
H572 H 0.01874 0.63018 0.75384 0.0
H573 H 0.01189 0.66646 0.79213 0.0
C574 C 0.97529 0.67746 0.86717 0.0
C575 C 0.95541 0.6809 0.90699 0.0
C576 C 0.979 0.65679 0.8437 0.0
C577 C 0.93903 0.66343 0.9222 0.0
C578 C 0.9425 0.64285 0.89864 0.0
C579 C 0.96656 0.61845 0.83744 0.0
C580 C 0.98683 0.61493 0.79907 0.0
C581 C 0.96253 0.63927 0.85981 0.0
C582 C 1.00287 0.63255 0.78267 0.0
C583 C 0.99903 0.65326 0.80485 0.0
H584 H 0.08874 0.11511 0.50913 0.0
H585 H 0.10603 0.13023 0.69187 0.0
H586 H 0.07314 0.10583 0.73486 0.0
H587 H 0.04182 0.07866 0.71959 0.0
H588 H 0.02698 0.06105 0.5367 0.0
H589 H 0.05557 0.08945 0.49382 0.0
C590 C 0.08531 0.1129 0.55842 0.0
C591 C 0.09991 0.12386 0.59774 0.0
C592 C 0.06644 0.09913 0.58221 0.0
C593 C 0.09512 0.12157 0.66126 0.0
C594 C 0.07627 0.10785 0.68552 0.0
C595 C 0.04439 0.08135 0.67019 0.0
C596 C 0.03251 0.06757 0.63125 0.0
C597 C 0.06201 0.09645 0.64631 0.0
C598 C 0.03577 0.07147 0.56756 0.0
C599 C 0.05248 0.08738 0.54316 0.0
H600 H 0.41593 0.00569 0.43377 0.0
H601 H 0.3676 0.98369 0.58608 0.0
H602 H 0.40106 0.97497 0.64795 0.0
H603 H 0.44414 0.97646 0.66104 0.0
H604 H 0.49195 0.99981 0.5097 0.0
H605 H 0.45867 0.00421 0.44391 0.0
C606 C 0.41271 0.99858 0.48007 0.0
C607 C 0.38938 0.99546 0.50536 0.0
C608 C 0.43195 0.99349 0.51511 0.0
C609 C 0.38546 0.98663 0.5659 0.0
C610 C 0.40455 0.98142 0.60111 0.0
C611 C 0.44717 0.98161 0.61294 0.0
C612 C 0.47022 0.98728 0.58924 0.0
C613 C 0.42788 0.98503 0.57641 0.0
C614 C 0.47422 0.99483 0.52783 0.0
C615 C 0.45522 0.99766 0.49067 0.0
H616 H 0.45178 0.38873 0.58146 0.0
H617 H 0.51357 0.3711 0.47256 0.0
H618 H 0.53682 0.40121 0.51178 0.0
H619 H 0.53747 0.43609 0.5658 0.0
H620 H 0.47527 0.45148 0.67768 0.0
H621 H 0.45434 0.41919 0.64797 0.0
C622 C 0.47051 0.39117 0.56782 0.0
C623 C 0.48098 0.37802 0.52427 0.0
C624 C 0.4835 0.40864 0.58933 0.0
C625 C 0.50526 0.3811 0.50665 0.0
C626 C 0.51845 0.39847 0.52834 0.0
C627 C 0.51942 0.43223 0.58358 0.0
C628 C 0.50736 0.44701 0.62004 0.0
C629 C 0.50745 0.41297 0.56773 0.0
C630 C 0.48433 0.44133 0.64534 0.0
C631 C 0.47242 0.42254 0.62962 0.0
H632 H 0.14015 0.53438 0.43351 0.0
H633 H 0.15229 0.59149 0.53597 0.0
H634 H 0.11496 0.58332 0.59798 0.0
H635 H 0.07947 0.55911 0.62342 0.0
H636 H 0.06808 0.50231 0.51825 0.0
H637 H 0.10438 0.51148 0.45521 0.0
C638 C 0.13469 0.54485 0.47001 0.0
C639 C 0.14893 0.56312 0.48175 0.0
C640 C 0.11325 0.54034 0.50375 0.0
C641 C 0.14159 0.5771 0.52745 0.0
C642 C 0.12027 0.57251 0.56229 0.0
C643 C 0.08476 0.54906 0.58585 0.0
C644 C 0.07126 0.53012 0.57513 0.0
C645 C 0.10595 0.55416 0.5507 0.0
C646 C 0.07832 0.51696 0.52711 0.0
C647 C 0.09909 0.5221 0.49141 0.0
H648 H 0.94598 0.90374 0.89185 0.0
H649 H 0.96152 0.86793 0.73013 0.0
H650 H 0.99559 0.89298 0.70156 0.0
H651 H 0.01962 0.92598 0.7213 0.0
H652 H 1.00345 0.96094 0.88389 0.0
H653 H 0.97104 0.93473 0.91462 0.0
C654 C 0.95638 0.90164 0.84942 0.0
C655 C 0.95081 0.88434 0.8122 0.0
C656 C 0.97623 0.91544 0.83482 0.0
C657 C 0.96515 0.88141 0.75878 0.0
C658 C 0.98478 0.89551 0.743 0.0
C659 C 0.00969 0.92712 0.76495 0.0
C660 C 0.0142 0.94494 0.80117 0.0
C661 C 0.99054 0.91246 0.78102 0.0
C662 C 1.0009 0.94683 0.85669 0.0
C663 C 0.98194 0.93222 0.87329 0.0
H664 H 0.65646 0.03516 0.8797 0.0
H665 H 0.62738 0.98758 0.01845 0.0
H666 H 0.58892 0.98826 0.97241 0.0
H667 H 0.56474 1.00031 0.8885 0.0
H668 H 0.59323 0.04825 0.75027 0.0
H669 H 0.63091 0.0498 0.80063 0.0
C670 C 0.6416 0.02506 0.89984 0.0
C671 C 0.64459 0.01122 0.95192 0.0
C672 C 0.61959 0.02571 0.87349 0.0
C673 C 0.62531 0.99837 0.97839 0.0
C674 C 0.60342 0.99873 0.95208 0.0
C675 C 0.57907 0.01145 0.8704 0.0
C676 C 0.57644 0.02422 0.81632 0.0
C677 C 0.6005 0.01211 0.89925 0.0
C678 C 0.59493 0.03858 0.79263 0.0
C679 C 0.61648 0.03925 0.82094 0.0
H680 H 0.58949 0.5973 0.92747 0.0
H681 H 0.54127 0.64468 0.85695 0.0
H682 H 0.52104 0.61601 0.80418 0.0
H683 H 0.51461 0.57651 0.78673 0.0
H684 H 0.55918 0.52945 0.87369 0.0
H685 H 0.58172 0.55878 0.91679 0.0
C686 C 0.57425 0.60144 0.90171 0.0
C687 C 0.56652 0.62306 0.89826 0.0
C688 C 0.56125 0.58472 0.87689 0.0
C689 C 0.54772 0.62821 0.86091 0.0
C690 C 0.53574 0.61172 0.83172 0.0
C691 C 0.52877 0.57277 0.81673 0.0
C692 C 0.53514 0.55099 0.82782 0.0
C693 C 0.54174 0.58978 0.84154 0.0
C694 C 0.55391 0.5462 0.86523 0.0
C695 C 0.56702 0.56292 0.88907 0.0
H696 H 0.89658 0.46837 0.96453 0.0
H697 H 0.90396 0.40281 0.90427 0.0
H698 H 0.94047 0.41449 0.8429 0.0
H699 H 0.97061 0.44351 0.80915 0.0
H700 H 0.96308 0.50843 0.87556 0.0
H701 H 0.9264 0.49668 0.93309 0.0
C702 C 0.90589 0.45675 0.93678 0.0
C703 C 0.89745 0.43496 0.93738 0.0
C704 C 0.92706 0.46335 0.90413 0.0
C705 C 0.91005 0.4198 0.90327 0.0
C706 C 0.93096 0.42642 0.86889 0.0
C707 C 0.96109 0.45494 0.837 0.0
C708 C 0.96953 0.47677 0.83826 0.0
C709 C 0.93981 0.44812 0.86975 0.0
C710 C 0.95693 0.49152 0.8739 0.0
C711 C 0.93588 0.48489 0.90649 0.0
H712 H 0.11659 0.13612 0.02276 0.0
H713 H 0.06444 0.11736 0.16934 0.0
H714 H 0.05086 0.08646 0.11258 0.0
H715 H 0.05256 0.06559 0.01895 0.0
H716 H 0.10566 0.08323 0.87408 0.0
H717 H 0.1201 0.11366 0.93206 0.0
C718 C 0.10229 0.12522 0.0422 0.0
C719 C 0.09149 0.1291 0.1001 0.0
C720 C 0.09472 0.10727 0.00952 0.0
C721 C 0.07317 0.11467 0.12508 0.0
C722 C 0.06531 0.09704 0.09251 0.0
C723 C 0.06747 0.07598 1.00057 0.0
C724 C 0.07813 0.07217 0.94254 0.0
C725 C 0.0758 0.09328 0.03447 0.0
C726 C 0.09741 0.08571 0.91902 0.0
C727 C 0.10554 0.10318 0.95198 0.0
H728 H 0.41398 0.99179 0.03255 0.0
H729 H 0.37602 0.04088 0.93272 0.0
H730 H 0.40821 0.04437 0.85326 0.0
H731 H 0.44708 0.033 0.80985 0.0
H732 H 0.48425 0.98274 0.90702 0.0
H733 H 0.45299 0.98055 0.98939 0.0
C734 C 0.41288 1.00345 0.99382 0.0
C735 C 0.39243 0.016 0.98897 0.0
C736 C 0.4315 0.00526 0.94745 0.0
C737 C 0.39132 0.0308 0.93769 0.0
C738 C 0.40983 0.0329 0.89213 0.0
C739 C 0.44843 0.02175 0.84938 0.0
C740 C 0.46811 0.00816 0.85223 0.0
C741 C 0.42999 0.02015 0.89619 0.0
C742 C 0.46933 0.99339 0.90343 0.0
C743 C 0.45141 0.99211 0.9507 0.0
H744 H 0.49958 0.38063 0.95414 0.0
H745 H 0.43188 0.40468 0.01666 0.0
H746 H 0.43958 0.43851 0.95225 0.0
H747 H 0.46579 0.46112 0.87603 0.0
H748 H 0.53378 0.43599 0.81789 0.0
H749 H 0.52552 0.40284 0.88168 0.0
C750 C 0.48636 0.39316 0.95326 0.0
C751 C 0.46507 0.38999 0.98954 0.0
C752 C 0.49097 0.41249 0.91666 0.0
C753 C 0.44844 0.4067 0.9891 0.0
C754 C 0.45281 0.42602 0.9521 0.0
C755 C 0.47877 0.44841 0.87762 0.0
C756 C 0.50044 0.45127 0.84229 0.0
C757 C 0.47404 0.42911 0.9154 0.0
C758 C 0.51705 0.43453 0.84492 0.0
C759 C 0.51235 0.4154 0.88132 0.0
H760 H 0.15836 0.53191 0.87197 0.0
H761 H 0.1208 0.52741 0.05007 0.0
H762 H 0.08379 0.51894 1.00258 0.0
H763 H 0.06197 0.51198 0.90979 0.0
H764 H 0.10069 0.51307 0.73409 0.0
H765 H 0.1374 0.52327 0.78128 0.0
C766 C 0.14222 0.52878 0.90079 0.0
C767 C 0.1426 0.53035 0.96475 0.0
C768 C 0.12114 0.52312 0.87348 0.0
C769 C 0.12117 0.52676 1.00068 0.0
C770 C 0.09995 0.52167 0.9736 0.0
C771 C 0.07856 0.51425 0.88232 0.0
C772 C 0.07889 0.51154 0.81894 0.0
C773 C 0.09972 0.51968 0.91005 0.0
C774 C 0.10028 0.5147 0.78324 0.0
C775 C 0.12118 0.52066 0.81011 0.0
H776 H 0.93039 0.89175 0.3371 0.0
H777 H 0.99758 0.86018 0.34332 0.0
H778 H 0.01271 0.88874 0.40595 0.0
H779 H 0.00716 0.92235 0.45825 0.0
H780 H 0.9384 0.9519 0.46541 0.0
H781 H 0.92418 0.92525 0.39594 0.0
C782 C 0.94835 0.89124 0.35214 0.0
C783 C 0.96286 0.87383 0.33555 0.0
C784 C 0.95681 0.90754 0.38991 0.0
C785 C 0.98603 0.8733 0.35569 0.0
C786 C 0.99472 0.88968 0.39138 0.0
C787 C 0.98882 0.92292 0.44661 0.0
C788 C 0.97403 0.93942 0.46891 0.0
C789 C 0.98024 0.90679 0.40911 0.0
C790 C 0.95063 0.93988 0.44932 0.0
C791 C 0.94227 0.92436 0.40978 0.0
H792 H 0.62499 1.00063 0.37089 0.0
H793 H 0.67756 0.01198 0.50232 0.0
H794 H 0.64662 0.01147 0.58465 0.0
H795 H 0.60448 0.00745 0.62081 0.0
H796 H 0.55139 0.99723 0.49088 0.0
H797 H 0.58236 0.99767 0.40702 0.0
C798 C 0.62964 1.00317 0.41744 0.0
C799 C 0.65375 0.00601 0.43013 0.0
C800 C 0.61158 1.00291 0.46519 0.0
C801 C 0.65931 0.00925 0.49104 0.0
C802 C 0.64157 0.00907 0.53836 0.0
C803 C 0.59981 0.00518 0.5741 0.0
C804 C 0.57584 1.00201 0.56186 0.0
C805 C 0.61768 0.00571 0.52622 0.0
C806 C 0.56983 0.99945 0.50122 0.0
C807 C 0.58752 0.99978 0.45334 0.0
H808 H 0.54907 0.62812 0.49503 0.0
H809 H 0.59071 0.59516 0.35854 0.0
H810 H 0.58499 0.56053 0.42 0.0
H811 H 0.56718 0.53928 0.5129 0.0
H812 H 0.52469 0.57318 0.64577 0.0
H813 H 0.5323 0.6077 0.58653 0.0
C814 C 0.55723 0.61346 0.47897 0.0
C815 C 0.57042 0.61436 0.42233 0.0
C816 C 0.55378 0.59367 0.51426 0.0
C817 C 0.58032 0.59498 0.40176 0.0
C818 C 0.57716 0.57516 0.43708 0.0
C819 C 0.5598 0.55429 0.52878 0.0
C820 C 0.54526 0.55367 0.58336 0.0
C821 C 0.5638 0.57424 0.49344 0.0
C822 C 0.53569 0.57321 0.60347 0.0
C823 C 0.54004 0.59298 0.56969 0.0
H824 H 0.90354 0.49759 0.44222 0.0
H825 H 0.89196 0.43322 0.53066 0.0
H826 H 0.92535 0.43966 0.59487 0.0
H827 H 0.9577 0.46366 0.62584 0.0
H828 H 0.96748 0.52916 0.54376 0.0
H829 H 0.93493 0.52232 0.47682 0.0
C830 C 0.90849 0.48498 0.47537 0.0
C831 C 0.89556 0.46489 0.48148 0.0
C832 C 0.92729 0.48905 0.51314 0.0
C833 C 0.90176 0.44877 0.52522 0.0
C834 C 0.92081 0.45245 0.56181 0.0
C835 C 0.95271 0.47641 0.59314 0.0
C836 C 0.96503 0.49682 0.58915 0.0
C837 C 0.93368 0.47252 0.55617 0.0
C838 C 0.95818 0.51335 0.54755 0.0
C839 C 0.93965 0.50941 0.50926 0.0
loop_
_geom_bond_atom_site_label_1
_geom_bond_atom_site_label_2
_geom_bond_distance
_geom_bond_site_symmetry_2
_ccdc_geom_bond_type
C0 C1 1.264 . S
C0 C5 1.479 . S
C0 C10 1.465 . S
C1 C0 1.264 . S
C1 C3 1.339 . S
C1 H28 0.931 . S
C2 C3 1.395 . S
C2 C4 1.320 . S
C3 C1 1.339 . S
C3 C2 1.395 . S
C3 H29 0.929 . S
C4 C2 1.320 . S
C4 C5 1.405 . S
C4 H30 0.930 . S
C5 C0 1.479 . S
C5 C4 1.405 . S
C5 H31 0.931 . S
U6 O7 2.454 . S
U6 O8 2.458 . S
U6 C9 2.984 . S
U6 C10 2.847 . S
U6 C23 2.882 . S
U6 O24 2.441 . S
U6 O25 2.420 . S
U6 O26 2.455 . S
U6 O27 2.449 . S
O7 U6 2.454 . S
O7 C9 1.353 . S
O8 U6 2.458 . S
O8 C9 1.286 . S
C9 U6 2.984 . S
C9 O7 1.353 . S
C9 O8 1.286 . S
C9 C11 1.363 . S
C10 C0 1.465 . S
C10 U6 2.847 . S
C10 O24 1.249 . S
C10 O25 1.202 . S
C11 C9 1.363 . S
C11 C13 1.408 . S
C11 C16 1.342 . S
C12 C13 1.310 . S
C12 C15 1.461 . S
C12 H32 0.932 . S
C13 C11 1.408 . S
C13 C12 1.310 . S
C13 H33 0.930 . S
C14 C15 1.474 . S
C14 C16 1.285 . S
C14 H34 0.929 1_554 S
C15 C12 1.461 . S
C15 C14 1.474 . S
C16 C11 1.342 . S
C16 C14 1.285 . S
C16 H35 0.930 . S
C17 C20 1.424 . S
C17 C22 1.245 1_554 S
C17 C23 1.428 . S
C18 C21 1.260 . S
C18 C22 1.477 . S
C18 H36 0.932 . S
C19 C20 1.384 1_556 S
C19 C21 1.479 . S
C19 H37 0.929 . S
C20 C17 1.424 . S
C20 C19 1.384 1_554 S
C20 H38 0.928 . S
C21 C18 1.260 . S
C21 C19 1.479 . S
C22 C17 1.245 1_556 S
C22 C18 1.477 . S
C22 H39 0.932 . S
C23 U6 2.882 . S
C23 C17 1.428 . S
C23 O26 1.301 . S
C23 O27 1.282 . S
O24 U6 2.441 . S
O24 C10 1.249 . S
O25 U6 2.420 . S
O25 C10 1.202 . S
O26 U6 2.455 . S
O26 C23 1.301 . S
O27 U6 2.449 . S
O27 C23 1.282 . S
H28 C1 0.931 . S
H29 C3 0.929 . S
H30 C4 0.930 . S
H31 C5 0.931 . S
H32 C12 0.932 . S
H33 C13 0.930 . S
H34 C14 0.929 1_556 S
H35 C16 0.930 . S
H36 C18 0.932 . S
H37 C19 0.929 . S
H38 C20 0.928 . S
H39 C22 0.932 . S
C40 C41 1.264 . S
C40 C45 1.479 . S
C40 C50 1.465 . S
C41 C40 1.264 . S
C41 C43 1.339 . S
C41 H68 0.931 . S
C42 C43 1.395 . S
C42 C44 1.320 . S
C43 C41 1.339 . S
C43 C42 1.395 . S
C43 H69 0.929 . S
C44 C42 1.320 . S
C44 C45 1.405 . S
C44 H70 0.930 . S
C45 C40 1.479 . S
C45 C44 1.405 . S
C45 H71 0.931 . S
U46 O47 2.454 . S
U46 O48 2.458 1_554 S
U46 C49 2.984 1_554 S
U46 C50 2.847 . S
U46 C63 2.882 1_554 S
U46 O64 2.441 . S
U46 O65 2.420 . S
U46 O66 2.455 1_554 S
U46 O67 2.449 1_554 S
O47 U46 2.454 . S
O47 C49 1.353 1_554 S
O48 U46 2.458 1_556 S
O48 C49 1.286 . S
C49 U46 2.984 1_556 S
C49 O47 1.353 1_556 S
C49 O48 1.286 . S
C49 C51 1.363 . S
C50 C40 1.465 . S
C50 U46 2.847 . S
C50 O64 1.249 . S
C50 O65 1.202 . S
C51 C49 1.363 . S
C51 C53 1.408 1_556 S
C51 C56 1.342 . S
C52 C53 1.310 1_556 S
C52 C55 1.461 . S
C52 H72 0.932 1_556 S
C53 C51 1.408 1_554 S
C53 C52 1.310 1_554 S
C53 H73 0.930 . S
C54 C55 1.474 . S
C54 C56 1.285 . S
C54 H74 0.929 . S
C55 C52 1.461 . S
C55 C54 1.474 . S
C56 C51 1.342 . S
C56 C54 1.285 . S
C56 H75 0.930 . S
C57 C60 1.424 . S
C57 C62 1.245 . S
C57 C63 1.428 . S
C58 C61 1.260 . S
C58 C62 1.477 . S
C58 H76 0.932 . S
C59 C60 1.384 . S
C59 C61 1.479 . S
C59 H77 0.929 . S
C60 C57 1.424 . S
C60 C59 1.384 . S
C60 H78 0.928 . S
C61 C58 1.260 . S
C61 C59 1.479 . S
C62 C57 1.245 . S
C62 C58 1.477 . S
C62 H79 0.932 . S
C63 U46 2.882 1_556 S
C63 C57 1.428 . S
C63 O66 1.301 . S
C63 O67 1.282 . S
O64 U46 2.441 . S
O64 C50 1.249 . S
O65 U46 2.420 . S
O65 C50 1.202 . S
O66 U46 2.455 1_556 S
O66 C63 1.301 . S
O67 U46 2.449 1_556 S
O67 C63 1.282 . S
H68 C41 0.931 . S
H69 C43 0.929 . S
H70 C44 0.930 . S
H71 C45 0.931 . S
H72 C52 0.932 1_554 S
H73 C53 0.930 . S
H74 C54 0.929 . S
H75 C56 0.930 . S
H76 C58 0.932 . S
H77 C59 0.929 . S
H78 C60 0.928 . S
H79 C62 0.932 . S
C80 C81 1.264 . S
C80 C85 1.479 . S
C80 C90 1.465 . S
C81 C80 1.264 . S
C81 C83 1.339 . S
C81 H108 0.931 . S
C82 C83 1.395 . S
C82 C84 1.320 . S
C83 C81 1.339 . S
C83 C82 1.395 . S
C83 H109 0.929 . S
C84 C82 1.320 . S
C84 C85 1.405 . S
C84 H110 0.922 1_545 S
C85 C80 1.479 . S
C85 C84 1.405 . S
C85 H111 0.931 . S
U86 O87 2.454 . S
U86 O88 2.458 . S
U86 C89 2.984 . S
U86 C90 2.847 . S
U86 C103 2.882 1_554 S
U86 O104 2.441 . S
U86 O105 2.420 . S
U86 O106 2.455 1_554 S
U86 O107 2.449 . S
O87 U86 2.454 . S
O87 C89 1.353 . S
O88 U86 2.458 . S
O88 C89 1.286 . S
C89 U86 2.984 . S
C89 O87 1.353 . S
C89 O88 1.286 . S
C89 C91 1.363 . S
C90 C80 1.465 . S
C90 U86 2.847 . S
C90 O104 1.249 . S
C90 O105 1.202 . S
C91 C89 1.363 . S
C91 C93 1.408 . S
C91 C96 1.342 1_554 S
C92 C93 1.310 . S
C92 C95 1.480 . S
C92 H112 0.932 . S
C93 C91 1.408 . S
C93 C92 1.310 . S
C93 H113 0.930 . S
C94 C95 1.461 1_566 S
C94 C96 1.284 1_565 S
C94 H114 0.931 . S
C95 C92 1.480 . S
C95 C94 1.461 1_544 S
C96 C91 1.342 1_556 S
C96 C94 1.284 1_545 S
C96 H115 0.933 . S
C97 C100 1.424 . S
C97 C102 1.245 . S
C97 C103 1.428 . S
C98 C101 1.260 . S
C98 C102 1.477 . S
C98 H116 0.932 . S
C99 C100 1.384 . S
C99 C101 1.479 . S
C99 H117 0.929 . S
C100 C97 1.424 . S
C100 C99 1.384 . S
C100 H118 0.928 1_556 S
C101 C98 1.260 . S
C101 C99 1.479 . S
C102 C97 1.245 . S
C102 C98 1.477 . S
C102 H119 0.932 . S
C103 U86 2.882 1_556 S
C103 C97 1.428 . S
C103 O106 1.301 . S
C103 O107 1.282 1_556 S
O104 U86 2.441 . S
O104 C90 1.249 . S
O105 U86 2.420 . S
O105 C90 1.202 . S
O106 U86 2.455 1_556 S
O106 C103 1.301 . S
O107 U86 2.449 . S
O107 C103 1.282 1_554 S
H108 C81 0.931 . S
H109 C83 0.929 . S
H110 C84 0.922 1_565 S
H111 C85 0.931 . S
H112 C92 0.932 . S
H113 C93 0.930 . S
H114 C94 0.931 . S
H115 C96 0.933 . S
H116 C98 0.932 . S
H117 C99 0.929 . S
H118 C100 0.928 1_554 S
H119 C102 0.932 . S
C120 C121 1.264 . S
C120 C125 1.479 . S
C120 C130 1.465 . S
C121 C120 1.264 . S
C121 C123 1.339 . S
C121 H148 0.931 . S
C122 C123 1.395 . S
C122 C124 1.320 . S
C123 C121 1.339 . S
C123 C122 1.395 . S
C123 H149 0.929 . S
C124 C122 1.320 . S
C124 C125 1.405 . S
C124 H150 0.930 . S
C125 C120 1.479 . S
C125 C124 1.405 . S
C125 H151 0.931 . S
U126 O127 2.454 . S
U126 O128 2.458 . S
U126 C129 2.984 . S
U126 C130 2.847 . S
U126 C143 2.882 . S
U126 O144 2.441 . S
U126 O145 2.420 . S
U126 O146 2.455 1_554 S
U126 O147 2.449 . S
O127 U126 2.454 . S
O127 C129 1.353 . S
O128 U126 2.458 . S
O128 C129 1.286 . S
C129 U126 2.984 . S
C129 O127 1.353 . S
C129 O128 1.286 . S
C129 C131 1.363 . S
C130 C120 1.465 . S
C130 U126 2.847 . S
C130 O144 1.249 . S
C130 O145 1.202 . S
C131 C129 1.363 . S
C131 C133 1.408 . S
C131 C136 1.342 1_554 S
C132 C133 1.310 . S
C132 C135 1.461 . S
C132 H152 0.932 . S
C133 C131 1.408 . S
C133 C132 1.310 . S
C133 H153 0.930 . S
C134 C135 1.474 1_556 S
C134 C136 1.285 . S
C134 H154 0.929 . S
C135 C132 1.461 . S
C135 C134 1.474 1_554 S
C136 C131 1.342 1_556 S
C136 C134 1.285 . S
C136 H155 0.930 . S
C137 C140 1.424 . S
C137 C142 1.245 . S
C137 C143 1.428 1_556 S
C138 C141 1.260 . S
C138 C142 1.477 . S
C138 H156 0.932 . S
C139 C140 1.384 . S
C139 C141 1.479 . S
C139 H157 0.929 . S
C140 C137 1.424 . S
C140 C139 1.384 . S
C140 H158 0.928 1_556 S
C141 C138 1.260 . S
C141 C139 1.479 . S
C142 C137 1.245 . S
C142 C138 1.477 . S
C142 H159 0.932 . S
C143 U126 2.882 . S
C143 C137 1.428 1_554 S
C143 O146 1.301 1_554 S
C143 O147 1.282 . S
O144 U126 2.441 . S
O144 C130 1.249 . S
O145 U126 2.420 . S
O145 C130 1.202 . S
O146 U126 2.455 1_556 S
O146 C143 1.301 1_556 S
O147 U126 2.449 . S
O147 C143 1.282 . S
H148 C121 0.931 . S
H149 C123 0.929 . S
H150 C124 0.930 . S
H151 C125 0.931 . S
H152 C132 0.932 . S
H153 C133 0.930 . S
H154 C134 0.929 . S
H155 C136 0.930 . S
H156 C138 0.932 . S
H157 C139 0.929 . S
H158 C140 0.928 1_554 S
H159 C142 0.932 . S
C160 C161 1.264 . S
C160 C165 1.479 . S
C160 C170 1.465 . S
C161 C160 1.264 . S
C161 C163 1.339 . S
C161 H188 0.931 . S
C162 C163 1.395 1_556 S
C162 C164 1.320 . S
C163 C161 1.339 . S
C163 C162 1.395 1_554 S
C163 H189 0.929 . S
C164 C162 1.320 . S
C164 C165 1.405 1_556 S
C164 H190 0.930 . S
C165 C160 1.479 . S
C165 C164 1.405 1_554 S
C165 H191 0.931 . S
U166 O167 2.454 . S
U166 O168 2.458 . S
U166 C169 2.984 . S
U166 C170 2.847 . S
U166 C183 2.882 . S
U166 O184 2.441 . S
U166 O185 2.420 . S
U166 O186 2.455 . S
U166 O187 2.449 . S
O167 U166 2.454 . S
O167 C169 1.353 . S
O168 U166 2.458 . S
O168 C169 1.286 . S
C169 U166 2.984 . S
C169 O167 1.353 . S
C169 O168 1.286 . S
C169 C171 1.363 . S
C170 C160 1.465 . S
C170 U166 2.847 . S
C170 O184 1.249 . S
C170 O185 1.202 . S
C171 C169 1.363 . S
C171 C173 1.408 . S
C171 C176 1.342 . S
C172 C173 1.310 . S
C172 C175 1.461 . S
C172 H192 0.932 . S
C173 C171 1.408 . S
C173 C172 1.310 . S
C173 H193 0.930 . S
C174 C175 1.474 . S
C174 C176 1.285 . S
C174 H194 0.929 . S
C175 C172 1.461 . S
C175 C174 1.474 . S
C176 C171 1.342 . S
C176 C174 1.285 . S
C176 H195 0.930 . S
C177 C180 1.424 . S
C177 C182 1.245 . S
C177 C183 1.428 . S
C178 C181 1.260 . S
C178 C182 1.477 . S
C178 H196 0.932 . S
C179 C180 1.384 . S
C179 C181 1.479 . S
C179 H197 0.929 . S
C180 C177 1.424 . S
C180 C179 1.384 . S
C180 H198 0.928 . S
C181 C178 1.260 . S
C181 C179 1.479 . S
C182 C177 1.245 . S
C182 C178 1.477 . S
C182 H199 0.932 . S
C183 U166 2.882 . S
C183 C177 1.428 . S
C183 O186 1.301 . S
C183 O187 1.282 . S
O184 U166 2.441 . S
O184 C170 1.249 . S
O185 U166 2.420 . S
O185 C170 1.202 . S
O186 U166 2.455 . S
O186 C183 1.301 . S
O187 U166 2.449 . S
O187 C183 1.282 . S
H188 C161 0.931 . S
H189 C163 0.929 . S
H190 C164 0.930 . S
H191 C165 0.931 . S
H192 C172 0.932 . S
H193 C173 0.930 . S
H194 C174 0.929 . S
H195 C176 0.930 . S
H196 C178 0.932 . S
H197 C179 0.929 . S
H198 C180 0.928 . S
H199 C182 0.932 . S
C200 C201 1.264 . S
C200 C205 1.479 . S
C200 C210 1.465 . S
C201 C200 1.264 . S
C201 C203 1.339 . S
C201 H228 0.931 . S
C202 C203 1.395 . S
C202 C204 1.320 . S
C203 C201 1.339 . S
C203 C202 1.395 . S
C203 H229 0.929 . S
C204 C202 1.320 . S
C204 C205 1.405 . S
C204 H230 0.930 . S
C205 C200 1.479 . S
C205 C204 1.405 . S
C205 H231 0.931 . S
U206 O207 2.454 . S
U206 O208 2.458 . S
U206 C209 2.984 . S
U206 C210 2.847 . S
U206 C223 2.882 . S
U206 O224 2.441 . S
U206 O225 2.420 . S
U206 O226 2.455 . S
U206 O227 2.449 . S
O207 U206 2.454 . S
O207 C209 1.353 . S
O208 U206 2.458 . S
O208 C209 1.286 . S
C209 U206 2.984 . S
C209 O207 1.353 . S
C209 O208 1.286 . S
C209 C211 1.363 . S
C210 C200 1.465 . S
C210 U206 2.847 . S
C210 O224 1.249 . S
C210 O225 1.202 . S
C211 C209 1.363 . S
C211 C213 1.408 . S
C211 C216 1.342 . S
C212 C213 1.310 . S
C212 C215 1.461 . S
C212 H232 0.932 . S
C213 C211 1.408 . S
C213 C212 1.310 . S
C213 H233 0.930 . S
C214 C215 1.474 . S
C214 C216 1.285 . S
C214 H234 0.929 . S
C215 C212 1.461 . S
C215 C214 1.474 . S
C216 C211 1.342 . S
C216 C214 1.285 . S
C216 H235 0.930 . S
C217 C220 1.424 . S
C217 C222 1.245 . S
C217 C223 1.428 . S
C218 C221 1.260 . S
C218 C222 1.477 . S
C218 H236 0.932 . S
C219 C220 1.384 . S
C219 C221 1.479 . S
C219 H237 0.929 . S
C220 C217 1.424 . S
C220 C219 1.384 . S
C220 H238 0.928 . S
C221 C218 1.260 . S
C221 C219 1.479 . S
C222 C217 1.245 . S
C222 C218 1.477 . S
C222 H239 0.932 . S
C223 U206 2.882 . S
C223 C217 1.428 . S
C223 O226 1.301 . S
C223 O227 1.282 . S
O224 U206 2.441 . S
O224 C210 1.249 . S
O225 U206 2.420 . S
O225 C210 1.202 . S
O226 U206 2.455 . S
O226 C223 1.301 . S
O227 U206 2.449 . S
O227 C223 1.282 . S
H228 C201 0.931 . S
H229 C203 0.929 . S
H230 C204 0.930 . S
H231 C205 0.931 . S
H232 C212 0.932 . S
H233 C213 0.930 . S
H234 C214 0.929 . S
H235 C216 0.930 . S
H236 C218 0.932 . S
H237 C219 0.929 . S
H238 C220 0.928 . S
H239 C222 0.932 . S
C240 C241 1.264 . S
C240 C245 1.479 . S
C240 C250 1.465 . S
C241 C240 1.264 . S
C241 C243 1.339 . S
C241 H268 0.931 . S
C242 C243 1.395 . S
C242 C244 1.320 . S
C243 C241 1.339 . S
C243 C242 1.395 . S
C243 H269 0.929 . S
C244 C242 1.320 . S
C244 C245 1.405 . S
C244 H270 0.922 1_544 S
C245 C240 1.479 . S
C245 C244 1.405 . S
C245 H271 0.931 . S
U246 O247 2.454 . S
U246 O248 2.458 . S
U246 C249 2.984 . S
U246 C250 2.847 . S
U246 C263 2.882 . S
U246 O264 2.441 . S
U246 O265 2.420 . S
U246 O266 2.455 . S
U246 O267 2.449 . S
O247 U246 2.454 . S
O247 C249 1.353 . S
O248 U246 2.458 . S
O248 C249 1.286 . S
C249 U246 2.984 . S
C249 O247 1.353 . S
C249 O248 1.286 . S
C249 C251 1.363 . S
C250 C240 1.465 . S
C250 U246 2.847 . S
C250 O264 1.249 . S
C250 O265 1.202 . S
C251 C249 1.363 . S
C251 C253 1.408 . S
C251 C256 1.342 . S
C252 C253 1.310 . S
C252 C255 1.461 . S
C252 H272 0.932 . S
C253 C251 1.408 . S
C253 C252 1.310 . S
C253 H273 0.930 . S
C254 C255 1.474 1_565 S
C254 C256 1.286 1_565 S
C254 H274 0.929 . S
C255 C252 1.461 . S
C255 C254 1.474 1_545 S
C256 C251 1.342 . S
C256 C254 1.286 1_545 S
C256 H275 0.933 . S
C257 C260 1.424 . S
C257 C262 1.245 . S
C257 C263 1.428 . S
C258 C261 1.260 . S
C258 C262 1.477 . S
C258 H276 0.932 . S
C259 C260 1.384 . S
C259 C261 1.479 . S
C259 H277 0.929 . S
C260 C257 1.424 . S
C260 C259 1.384 . S
C260 H278 0.928 . S
C261 C258 1.260 . S
C261 C259 1.479 . S
C262 C257 1.245 . S
C262 C258 1.477 . S
C262 H279 0.932 . S
C263 U246 2.882 . S
C263 C257 1.428 . S
C263 O266 1.301 . S
C263 O267 1.282 . S
O264 U246 2.441 . S
O264 C250 1.249 . S
O265 U246 2.420 . S
O265 C250 1.202 . S
O266 U246 2.455 . S
O266 C263 1.301 . S
O267 U246 2.449 . S
O267 C263 1.282 . S
H268 C241 0.931 . S
H269 C243 0.929 . S
H270 C244 0.922 1_566 S
H271 C245 0.931 . S
H272 C252 0.932 . S
H273 C253 0.930 . S
H274 C254 0.929 . S
H275 C256 0.933 . S
H276 C258 0.932 . S
H277 C259 0.929 . S
H278 C260 0.928 . S
H279 C262 0.932 . S
C280 C281 1.264 . S
C280 C285 1.479 . S
C280 C290 1.465 . S
C281 C280 1.264 . S
C281 C283 1.339 . S
C281 H308 0.931 . S
C282 C283 1.395 . S
C282 C284 1.320 . S
C283 C281 1.339 . S
C283 C282 1.395 . S
C283 H309 0.929 . S
C284 C282 1.320 . S
C284 C285 1.405 . S
C284 H310 0.930 1_554 S
C285 C280 1.479 . S
C285 C284 1.405 . S
C285 H311 0.931 . S
U286 O287 2.454 . S
U286 O288 2.458 . S
U286 C289 2.984 . S
U286 C290 2.847 . S
U286 C303 2.882 . S
U286 O304 2.441 . S
U286 O305 2.420 . S
U286 O306 2.455 . S
U286 O307 2.449 . S
O287 U286 2.454 . S
O287 C289 1.353 . S
O288 U286 2.458 . S
O288 C289 1.286 . S
C289 U286 2.984 . S
C289 O287 1.353 . S
C289 O288 1.286 . S
C289 C291 1.363 . S
C290 C280 1.465 . S
C290 U286 2.847 . S
C290 O304 1.249 . S
C290 O305 1.202 . S
C291 C289 1.363 . S
C291 C293 1.408 . S
C291 C296 1.342 . S
C292 C293 1.310 . S
C292 C295 1.461 . S
C292 H312 0.932 . S
C293 C291 1.408 . S
C293 C292 1.310 . S
C293 H313 0.930 . S
C294 C295 1.474 . S
C294 C296 1.285 . S
C294 H314 0.929 . S
C295 C292 1.461 . S
C295 C294 1.474 . S
C296 C291 1.342 . S
C296 C294 1.285 . S
C296 H315 0.930 . S
C297 C300 1.424 . S
C297 C302 1.245 . S
C297 C303 1.428 . S
C298 C301 1.260 . S
C298 C302 1.477 . S
C298 H316 0.932 . S
C299 C300 1.384 . S
C299 C301 1.479 . S
C299 H317 0.929 . S
C300 C297 1.424 . S
C300 C299 1.384 . S
C300 H318 0.928 . S
C301 C298 1.260 . S
C301 C299 1.479 . S
C302 C297 1.245 . S
C302 C298 1.477 . S
C302 H319 0.932 . S
C303 U286 2.882 . S
C303 C297 1.428 . S
C303 O306 1.301 . S
C303 O307 1.282 . S
O304 U286 2.441 . S
O304 C290 1.249 . S
O305 U286 2.420 . S
O305 C290 1.202 . S
O306 U286 2.455 . S
O306 C303 1.301 . S
O307 U286 2.449 . S
O307 C303 1.282 . S
H308 C281 0.931 . S
H309 C283 0.929 . S
H310 C284 0.930 1_556 S
H311 C285 0.931 . S
H312 C292 0.932 . S
H313 C293 0.930 . S
H314 C294 0.929 . S
H315 C296 0.930 . S
H316 C298 0.932 . S
H317 C299 0.929 . S
H318 C300 0.928 . S
H319 C302 0.932 . S
C320 O336 1.251 . S
C320 O338 1.254 . S
N321 C322 1.333 . S
N321 C326 1.307 . S
N321 Zn327 2.020 1_655 S
C322 N321 1.333 . S
C322 C323 1.379 . S
C322 H340 0.952 1_655 S
C323 C322 1.379 . S
C323 C324 1.390 . S
C323 H350 0.949 . S
C324 C323 1.390 . S
C324 C325 1.357 . S
C325 C324 1.357 . S
C325 C326 1.370 . S
C325 H351 0.950 . S
C326 N321 1.307 . S
C326 C325 1.370 . S
C326 H344 0.951 . S
Zn327 N321 2.020 1_455 S
Zn327 O336 2.039 . S
Zn327 O342 2.034 . S
Zn327 O346 2.025 1_565 S
Zn327 O348 2.040 1_455 S
C328 O347 1.246 . S
C328 O348 1.228 1_545 S
N329 C330 1.307 . S
N329 C331 1.333 . S
N329 Zn335 2.020 . S
C330 N329 1.307 . S
C330 C334 1.370 . S
C330 H341 0.963 . S
C331 N329 1.333 . S
C331 C332 1.379 . S
C331 H339 0.952 . S
C332 C331 1.379 . S
C332 C333 1.390 . S
C332 H352 0.949 . S
C333 C332 1.390 . S
C333 C334 1.357 . S
C334 C330 1.370 . S
C334 C333 1.357 . S
C334 H353 0.950 . S
Zn335 N329 2.020 . S
Zn335 O338 2.025 1_545 S
Zn335 O343 2.024 . S
Zn335 O345 2.039 . S
Zn335 O347 2.034 1_455 S
O336 C320 1.251 . S
O336 Zn327 2.039 . S
C337 O342 1.246 . S
C337 O343 1.249 1_565 S
O338 C320 1.254 . S
O338 Zn335 2.025 1_565 S
H339 C331 0.952 . S
H340 C322 0.952 1_455 S
H341 C330 0.963 . S
O342 Zn327 2.034 . S
O342 C337 1.246 . S
O343 Zn335 2.024 . S
O343 C337 1.249 1_545 S
H344 C326 0.951 . S
O345 Zn335 2.039 . S
O345 C349 1.251 . S
O346 Zn327 2.025 1_545 S
O346 C349 1.254 . S
O347 C328 1.246 . S
O347 Zn335 2.034 1_655 S
O348 Zn327 2.040 1_655 S
O348 C328 1.228 1_565 S
C349 O345 1.251 . S
C349 O346 1.254 . S
H350 C323 0.949 . S
H351 C325 0.950 . S
H352 C332 0.949 . S
H353 C334 0.950 . S
C354 O370 1.251 1_565 S
C354 O372 1.254 . S
N355 C356 1.333 . S
N355 C360 1.307 . S
N355 Zn361 2.020 . S
C356 N355 1.333 . S
C356 C357 1.379 . S
C356 H374 0.952 . S
C357 C356 1.379 . S
C357 C358 1.390 . S
C357 H384 0.949 . S
C358 C357 1.390 . S
C358 C359 1.357 . S
C359 C358 1.357 . S
C359 C360 1.370 . S
C359 H385 0.950 . S
C360 N355 1.307 . S
C360 C359 1.370 . S
C360 H378 0.948 . S
Zn361 N355 2.020 . S
Zn361 O370 2.039 . S
Zn361 O376 2.034 . S
Zn361 O380 2.025 . S
Zn361 O382 2.024 . S
C362 O381 1.246 1_545 S
C362 O382 1.249 . S
N363 C364 1.307 . S
N363 C365 1.333 . S
N363 Zn369 2.020 . S
C364 N363 1.307 . S
C364 C368 1.370 . S
C364 H375 0.948 . S
C365 N363 1.333 . S
C365 C366 1.379 . S
C365 H373 0.952 . S
C366 C365 1.379 . S
C366 C367 1.390 . S
C366 H386 0.949 . S
C367 C366 1.390 . S
C367 C368 1.357 . S
C368 C364 1.370 . S
C368 C367 1.357 . S
C368 H387 0.950 . S
Zn369 N363 2.020 . S
Zn369 O372 2.025 . S
Zn369 O377 2.024 . S
Zn369 O379 2.039 . S
Zn369 O381 2.034 . S
O370 C354 1.251 1_545 S
O370 Zn361 2.039 . S
C371 O376 1.246 1_565 S
C371 O377 1.249 . S
O372 C354 1.254 . S
O372 Zn369 2.025 . S
H373 C365 0.952 . S
H374 C356 0.952 . S
H375 C364 0.948 . S
O376 Zn361 2.034 . S
O376 C371 1.246 1_545 S
O377 Zn369 2.024 . S
O377 C371 1.249 . S
H378 C360 0.948 . S
O379 Zn369 2.039 . S
O379 C383 1.251 1_565 S
O380 Zn361 2.025 . S
O380 C383 1.254 . S
O381 C362 1.246 1_565 S
O381 Zn369 2.034 . S
O382 Zn361 2.024 . S
O382 C362 1.249 . S
C383 O379 1.251 1_545 S
C383 O380 1.254 . S
H384 C357 0.949 . S
H385 C359 0.950 . S
H386 C366 0.949 . S
H387 C368 0.950 . S
C388 O404 1.251 . S
C388 O406 1.254 . S
N389 C390 1.333 . S
N389 C394 1.307 . S
N389 Zn395 2.020 . S
C390 N389 1.333 . S
C390 C391 1.379 . S
C390 H408 0.952 . S
C391 C390 1.379 . S
C391 C392 1.390 . S
C391 H418 0.949 . S
C392 C391 1.390 . S
C392 C393 1.357 . S
C393 C392 1.357 . S
C393 C394 1.370 . S
C393 H419 0.950 . S
C394 N389 1.307 . S
C394 C393 1.370 . S
C394 H412 0.948 . S
Zn395 N389 2.020 . S
Zn395 O404 2.039 . S
Zn395 O410 2.034 . S
Zn395 O414 2.025 . S
Zn395 O416 2.024 . S
C396 O415 1.246 . S
C396 O416 1.249 . S
N397 C398 1.307 . S
N397 C399 1.333 . S
N397 Zn403 2.020 . S
C398 N397 1.307 . S
C398 C402 1.370 . S
C398 H409 0.948 . S
C399 N397 1.333 . S
C399 C400 1.379 . S
C399 H407 0.952 . S
C400 C399 1.379 . S
C400 C401 1.390 . S
C400 H420 0.949 . S
C401 C400 1.390 . S
C401 C402 1.357 . S
C402 C398 1.370 . S
C402 C401 1.357 . S
C402 H421 0.950 . S
Zn403 N397 2.020 . S
Zn403 O406 2.025 . S
Zn403 O411 2.024 . S
Zn403 O413 2.039 . S
Zn403 O415 2.034 . S
O404 C388 1.251 . S
O404 Zn395 2.039 . S
C405 O410 1.246 . S
C405 O411 1.249 . S
O406 C388 1.254 . S
O406 Zn403 2.025 . S
H407 C399 0.952 . S
H408 C390 0.952 . S
H409 C398 0.948 . S
O410 Zn395 2.034 . S
O410 C405 1.246 . S
O411 Zn403 2.024 . S
O411 C405 1.249 . S
H412 C394 0.948 . S
O413 Zn403 2.039 . S
O413 C417 1.251 . S
O414 Zn395 2.025 . S
O414 C417 1.254 . S
O415 C396 1.246 . S
O415 Zn403 2.034 . S
O416 Zn395 2.024 . S
O416 C396 1.249 . S
C417 O413 1.251 . S
C417 O414 1.254 . S
H418 C391 0.949 . S
H419 C393 0.950 . S
H420 C400 0.949 . S
H421 C402 0.950 . S
C422 O438 1.251 . S
C422 O440 1.254 . S
N423 C424 1.333 . S
N423 C428 1.307 . S
N423 Zn429 2.020 . S
C424 N423 1.333 . S
C424 C425 1.379 . S
C424 H442 0.952 . S
C425 C424 1.379 . S
C425 C426 1.390 . S
C425 H452 0.949 . S
C426 C425 1.390 . S
C426 C427 1.357 . S
C427 C426 1.357 . S
C427 C428 1.370 . S
C427 H453 0.950 . S
C428 N423 1.307 . S
C428 C427 1.370 . S
C428 H446 0.948 . S
Zn429 N423 2.020 . S
Zn429 O438 2.039 . S
Zn429 O444 2.034 1_455 S
Zn429 O448 2.025 1_455 S
Zn429 O450 2.024 . S
C430 O449 1.246 . S
C430 O450 1.249 . S
N431 C432 1.307 . S
N431 C433 1.333 1_455 S
N431 Zn437 2.020 . S
C432 N431 1.307 . S
C432 C436 1.370 1_455 S
C432 H443 0.948 . S
C433 N431 1.333 1_655 S
C433 C434 1.379 . S
C433 H441 0.952 . S
C434 C433 1.379 . S
C434 C435 1.390 . S
C434 H454 0.949 . S
C435 C434 1.390 . S
C435 C436 1.357 . S
C436 C432 1.370 1_655 S
C436 C435 1.357 . S
C436 H455 0.949 1_655 S
Zn437 N431 2.020 . S
Zn437 O440 2.025 . S
Zn437 O445 2.024 1_455 S
Zn437 O447 2.039 1_455 S
Zn437 O449 2.034 . S
O438 C422 1.251 . S
O438 Zn429 2.039 . S
C439 O444 1.246 . S
C439 O445 1.249 . S
O440 C422 1.254 . S
O440 Zn437 2.025 . S
H441 C433 0.952 . S
H442 C424 0.952 . S
H443 C432 0.948 . S
O444 Zn429 2.034 1_655 S
O444 C439 1.246 . S
O445 Zn437 2.024 1_655 S
O445 C439 1.249 . S
H446 C428 0.948 . S
O447 Zn437 2.039 1_655 S
O447 C451 1.251 . S
O448 Zn429 2.025 1_655 S
O448 C451 1.254 . S
O449 C430 1.246 . S
O449 Zn437 2.034 . S
O450 Zn429 2.024 . S
O450 C430 1.249 . S
C451 O447 1.251 . S
C451 O448 1.254 . S
H452 C425 0.949 . S
H453 C427 0.950 . S
H454 C434 0.949 . S
H455 C436 0.949 1_455 S
H456 C462 0.930 . S
H457 C465 0.930 . S
H458 C466 0.930 . S
H459 C467 0.930 . S
H460 C470 0.930 . S
H461 C471 0.930 . S
C462 H456 0.930 . S
C462 C463 1.355 1_545 S
C462 C464 1.418 . S
C463 C462 1.355 1_565 S
C463 C465 1.419 . S
C464 C462 1.418 . S
C464 C469 1.415 1_545 S
C464 C471 1.417 . S
C465 H457 0.930 . S
C465 C463 1.419 . S
C465 C466 1.362 . S
C466 H458 0.930 . S
C466 C465 1.362 . S
C466 C469 1.409 . S
C467 H459 0.930 . S
C467 C468 1.355 . S
C467 C469 1.415 . S
C468 C467 1.355 . S
C468 C470 1.419 1_565 S
C469 C464 1.415 1_565 S
C469 C466 1.409 . S
C469 C467 1.415 . S
C470 H460 0.930 . S
C470 C468 1.419 1_545 S
C470 C471 1.362 . S
C471 H461 0.930 . S
C471 C464 1.417 . S
C471 C470 1.362 . S
H472 C478 0.930 . S
H473 C481 0.930 . S
H474 C482 0.930 . S
H475 C483 0.930 . S
H476 C486 0.930 . S
H477 C487 0.930 . S
C478 H472 0.930 . S
C478 C479 1.355 . S
C478 C480 1.415 . S
C479 C478 1.355 . S
C479 C481 1.419 . S
C480 C478 1.415 . S
C480 C485 1.425 . S
C480 C487 1.409 . S
C481 H473 0.930 . S
C481 C479 1.419 . S
C481 C482 1.362 . S
C482 H474 0.930 . S
C482 C481 1.362 . S
C482 C485 1.409 . S
C483 H475 0.930 . S
C483 C484 1.355 . S
C483 C485 1.415 . S
C484 C483 1.355 . S
C484 C486 1.419 . S
C485 C480 1.425 . S
C485 C482 1.409 . S
C485 C483 1.415 . S
C486 H476 0.930 . S
C486 C484 1.419 . S
C486 C487 1.362 . S
C487 H477 0.930 . S
C487 C480 1.409 . S
C487 C486 1.362 . S
H488 C494 0.930 . S
H489 C497 0.930 . S
H490 C498 0.930 . S
H491 C499 0.930 . S
H492 C502 0.930 . S
H493 C503 0.930 . S
C494 H488 0.930 . S
C494 C495 1.355 . S
C494 C496 1.415 . S
C495 C494 1.355 . S
C495 C497 1.419 . S
C496 C494 1.415 . S
C496 C501 1.425 . S
C496 C503 1.409 . S
C497 H489 0.930 . S
C497 C495 1.419 . S
C497 C498 1.362 . S
C498 H490 0.930 . S
C498 C497 1.362 . S
C498 C501 1.409 . S
C499 H491 0.930 . S
C499 C500 1.355 . S
C499 C501 1.415 . S
C500 C499 1.355 . S
C500 C502 1.419 . S
C501 C496 1.425 . S
C501 C498 1.409 . S
C501 C499 1.415 . S
C502 H492 0.930 . S
C502 C500 1.419 . S
C502 C503 1.362 . S
C503 H493 0.930 . S
C503 C496 1.409 . S
C503 C502 1.362 . S
H504 C510 0.930 . S
H505 C513 0.930 . S
H506 C514 0.930 . S
H507 C515 0.930 . S
H508 C518 0.930 . S
H509 C519 0.930 . S
C510 H504 0.930 . S
C510 C511 1.355 . S
C510 C512 1.415 . S
C511 C510 1.355 . S
C511 C513 1.419 . S
C512 C510 1.415 . S
C512 C517 1.425 . S
C512 C519 1.409 . S
C513 H505 0.930 . S
C513 C511 1.419 . S
C513 C514 1.362 . S
C514 H506 0.930 . S
C514 C513 1.362 . S
C514 C517 1.409 . S
C515 H507 0.930 . S
C515 C516 1.355 . S
C515 C517 1.415 . S
C516 C515 1.355 . S
C516 C518 1.419 . S
C517 C512 1.425 . S
C517 C514 1.409 . S
C517 C515 1.415 . S
C518 H508 0.930 . S
C518 C516 1.419 . S
C518 C519 1.362 . S
C519 H509 0.930 . S
C519 C512 1.409 . S
C519 C518 1.362 . S
H520 C526 0.927 1_565 S
H521 C529 0.930 . S
H522 C530 0.930 . S
H523 C531 0.930 . S
H524 C534 0.930 1_565 S
H525 C535 0.940 . S
C526 H520 0.927 1_545 S
C526 C527 1.358 . S
C526 C528 1.415 . S
C527 C526 1.358 . S
C527 C529 1.419 . S
C528 C526 1.415 . S
C528 C533 1.425 . S
C528 C535 1.403 1_545 S
C529 H521 0.930 . S
C529 C527 1.419 . S
C529 C530 1.362 . S
C530 H522 0.930 . S
C530 C529 1.362 . S
C530 C533 1.409 . S
C531 H523 0.930 . S
C531 C532 1.355 . S
C531 C533 1.415 . S
C532 C531 1.355 . S
C532 C534 1.419 . S
C533 C528 1.425 . S
C533 C530 1.409 . S
C533 C531 1.415 . S
C534 H524 0.930 1_545 S
C534 C532 1.419 . S
C534 C535 1.362 1_545 S
C535 H525 0.940 . S
C535 C528 1.403 1_565 S
C535 C534 1.362 1_565 S
H536 C542 0.930 1_554 S
H537 C545 0.930 . S
H538 C546 0.930 . S
H539 C547 0.930 . S
H540 C550 0.930 . S
H541 C551 0.930 . S
C542 H536 0.930 1_556 S
C542 C543 1.355 . S
C542 C544 1.415 . S
C543 C542 1.355 . S
C543 C545 1.419 . S
C544 C542 1.415 . S
C544 C549 1.425 . S
C544 C551 1.409 . S
C545 H537 0.930 . S
C545 C543 1.419 . S
C545 C546 1.362 . S
C546 H538 0.930 . S
C546 C545 1.362 . S
C546 C549 1.409 . S
C547 H539 0.930 . S
C547 C548 1.355 . S
C547 C549 1.415 . S
C548 C547 1.355 . S
C548 C550 1.419 . S
C549 C544 1.425 . S
C549 C546 1.409 . S
C549 C547 1.415 . S
C550 H540 0.930 . S
C550 C548 1.419 . S
C550 C551 1.362 . S
C551 H541 0.930 . S
C551 C544 1.409 . S
C551 C550 1.362 . S
H552 C558 0.930 . S
H553 C561 0.930 . S
H554 C562 0.930 1_554 S
H555 C563 0.930 . S
H556 C566 0.930 . S
H557 C567 0.930 . S
C558 H552 0.930 . S
C558 C559 1.355 1_556 S
C558 C560 1.415 . S
C559 C558 1.355 1_554 S
C559 C561 1.419 . S
C560 C558 1.415 . S
C560 C565 1.425 . S
C560 C567 1.409 . S
C561 H553 0.930 . S
C561 C559 1.419 . S
C561 C562 1.362 1_554 S
C562 H554 0.930 1_556 S
C562 C561 1.362 1_556 S
C562 C565 1.409 . S
C563 H555 0.930 . S
C563 C564 1.355 . S
C563 C565 1.415 . S
C564 C563 1.355 . S
C564 C566 1.419 . S
C565 C560 1.425 . S
C565 C562 1.409 . S
C565 C563 1.415 . S
C566 H556 0.930 . S
C566 C564 1.419 . S
C566 C567 1.362 . S
C567 H557 0.930 . S
C567 C560 1.409 . S
C567 C566 1.362 . S
H568 C574 0.930 . S
H569 C577 0.930 . S
H570 C578 0.930 . S
H571 C579 0.930 . S
H572 C582 0.930 1_455 S
H573 C583 0.930 . S
C574 H568 0.930 . S
C574 C575 1.355 . S
C574 C576 1.415 . S
C575 C574 1.355 . S
C575 C577 1.419 . S
C576 C574 1.415 . S
C576 C581 1.425 . S
C576 C583 1.409 . S
C577 H569 0.930 . S
C577 C575 1.419 . S
C577 C578 1.362 . S
C578 H570 0.930 . S
C578 C577 1.362 . S
C578 C581 1.409 . S
C579 H571 0.930 . S
C579 C580 1.355 . S
C579 C581 1.415 . S
C580 C579 1.355 . S
C580 C582 1.419 . S
C581 C576 1.425 . S
C581 C578 1.409 . S
C581 C579 1.415 . S
C582 H572 0.930 1_655 S
C582 C580 1.419 . S
C582 C583 1.362 . S
C583 H573 0.930 . S
C583 C576 1.409 . S
C583 C582 1.362 . S
H584 C590 0.930 . S
H585 C593 0.930 . S
H586 C594 0.930 . S
H587 C595 0.930 . S
H588 C598 0.930 . S
H589 C599 0.930 . S
C590 H584 0.930 . S
C590 C591 1.355 . S
C590 C592 1.415 . S
C591 C590 1.355 . S
C591 C593 1.419 . S
C592 C590 1.415 . S
C592 C597 1.425 . S
C592 C599 1.409 . S
C593 H585 0.930 . S
C593 C591 1.419 . S
C593 C594 1.362 . S
C594 H586 0.930 . S
C594 C593 1.362 . S
C594 C597 1.409 . S
C595 H587 0.930 . S
C595 C596 1.355 . S
C595 C597 1.415 . S
C596 C595 1.355 . S
C596 C598 1.419 . S
C597 C592 1.425 . S
C597 C594 1.409 . S
C597 C595 1.415 . S
C598 H588 0.930 . S
C598 C596 1.419 . S
C598 C599 1.362 . S
C599 H589 0.930 . S
C599 C592 1.409 . S
C599 C598 1.362 . S
H600 C606 0.930 . S
H601 C609 0.930 . S
H602 C610 0.930 . S
H603 C611 0.930 . S
H604 C614 0.930 . S
H605 C615 0.930 . S
C606 H600 0.930 . S
C606 C607 1.355 1_545 S
C606 C608 1.415 . S
C607 C606 1.355 1_565 S
C607 C609 1.419 . S
C608 C606 1.415 . S
C608 C613 1.425 1_545 S
C608 C615 1.409 . S
C609 H601 0.930 . S
C609 C607 1.419 . S
C609 C610 1.362 . S
C610 H602 0.930 . S
C610 C609 1.362 . S
C610 C613 1.409 . S
C611 H603 0.930 . S
C611 C612 1.355 . S
C611 C613 1.415 . S
C612 C611 1.355 . S
C612 C614 1.419 1_565 S
C613 C608 1.425 1_565 S
C613 C610 1.409 . S
C613 C611 1.415 . S
C614 H604 0.930 . S
C614 C612 1.419 1_545 S
C614 C615 1.362 . S
C615 H605 0.930 . S
C615 C608 1.409 . S
C615 C614 1.362 . S
H616 C622 0.930 . S
H617 C625 0.930 . S
H618 C626 0.930 . S
H619 C627 0.930 . S
H620 C630 0.930 . S
H621 C631 0.930 . S
C622 H616 0.930 . S
C622 C623 1.355 . S
C622 C624 1.415 . S
C623 C622 1.355 . S
C623 C625 1.419 . S
C624 C622 1.415 . S
C624 C629 1.425 . S
C624 C631 1.409 . S
C625 H617 0.930 . S
C625 C623 1.419 . S
C625 C626 1.362 . S
C626 H618 0.930 . S
C626 C625 1.362 . S
C626 C629 1.409 . S
C627 H619 0.930 . S
C627 C628 1.355 . S
C627 C629 1.415 . S
C628 C627 1.355 . S
C628 C630 1.419 . S
C629 C624 1.425 . S
C629 C626 1.409 . S
C629 C627 1.415 . S
C630 H620 0.930 . S
C630 C628 1.419 . S
C630 C631 1.362 . S
C631 H621 0.930 . S
C631 C624 1.409 . S
C631 C630 1.362 . S
H632 C638 0.930 . S
H633 C641 0.930 . S
H634 C642 0.930 . S
H635 C643 0.930 . S
H636 C646 0.930 . S
H637 C647 0.930 . S
C638 H632 0.930 . S
C638 C639 1.355 . S
C638 C640 1.415 . S
C639 C638 1.355 . S
C639 C641 1.419 . S
C640 C638 1.415 . S
C640 C645 1.425 . S
C640 C647 1.409 . S
C641 H633 0.930 . S
C641 C639 1.419 . S
C641 C642 1.362 . S
C642 H634 0.930 . S
C642 C641 1.362 . S
C642 C645 1.409 . S
C643 H635 0.930 . S
C643 C644 1.355 . S
C643 C645 1.415 . S
C644 C643 1.355 . S
C644 C646 1.419 . S
C645 C640 1.425 . S
C645 C642 1.409 . S
C645 C643 1.415 . S
C646 H636 0.930 . S
C646 C644 1.419 . S
C646 C647 1.362 . S
C647 H637 0.930 . S
C647 C640 1.409 . S
C647 C646 1.362 . S
H648 C654 0.930 . S
H649 C657 0.930 . S
H650 C658 0.930 . S
H651 C659 0.930 1_455 S
H652 C662 0.930 . S
H653 C663 0.930 . S
C654 H648 0.930 . S
C654 C655 1.355 . S
C654 C656 1.415 . S
C655 C654 1.355 . S
C655 C657 1.419 . S
C656 C654 1.415 . S
C656 C661 1.425 . S
C656 C663 1.409 . S
C657 H649 0.930 . S
C657 C655 1.419 . S
C657 C658 1.362 . S
C658 H650 0.930 . S
C658 C657 1.362 . S
C658 C661 1.409 . S
C659 H651 0.930 1_655 S
C659 C660 1.350 1_655 S
C659 C661 1.415 . S
C660 C659 1.350 1_455 S
C660 C662 1.389 1_455 S
C661 C656 1.425 . S
C661 C658 1.409 . S
C661 C659 1.415 . S
C662 H652 0.930 . S
C662 C660 1.389 1_655 S
C662 C663 1.362 . S
C663 H653 0.930 . S
C663 C656 1.409 . S
C663 C662 1.362 . S
H664 C670 0.930 . S
H665 C673 0.930 . S
H666 C674 0.930 . S
H667 C675 0.930 . S
H668 C678 0.930 . S
H669 C679 0.917 1_565 S
C670 H664 0.930 . S
C670 C671 1.352 1_565 S
C670 C672 1.415 1_565 S
C671 C670 1.352 1_545 S
C671 C673 1.430 . S
C672 C670 1.415 1_545 S
C672 C677 1.425 . S
C672 C679 1.415 . S
C673 H665 0.930 . S
C673 C671 1.430 . S
C673 C674 1.362 . S
C674 H666 0.930 . S
C674 C673 1.362 . S
C674 C677 1.409 . S
C675 H667 0.930 . S
C675 C676 1.355 . S
C675 C677 1.415 . S
C676 C675 1.355 . S
C676 C678 1.419 . S
C677 C672 1.425 . S
C677 C674 1.409 . S
C677 C675 1.415 . S
C678 H668 0.930 . S
C678 C676 1.419 . S
C678 C679 1.373 . S
C679 H669 0.917 1_545 S
C679 C672 1.415 . S
C679 C678 1.373 . S
H680 C686 0.930 . S
H681 C689 0.930 . S
H682 C690 0.930 . S
H683 C691 0.930 . S
H684 C694 0.930 . S
H685 C695 0.930 . S
C686 H680 0.930 . S
C686 C687 1.355 . S
C686 C688 1.415 . S
C687 C686 1.355 . S
C687 C689 1.419 . S
C688 C686 1.415 . S
C688 C693 1.425 . S
C688 C695 1.409 . S
C689 H681 0.930 . S
C689 C687 1.419 . S
C689 C690 1.362 . S
C690 H682 0.930 . S
C690 C689 1.362 . S
C690 C693 1.409 . S
C691 H683 0.930 . S
C691 C692 1.355 . S
C691 C693 1.415 . S
C692 C691 1.355 . S
C692 C694 1.419 . S
C693 C688 1.425 . S
C693 C690 1.409 . S
C693 C691 1.415 . S
C694 H684 0.930 . S
C694 C692 1.419 . S
C694 C695 1.362 . S
C695 H685 0.930 . S
C695 C688 1.409 . S
C695 C694 1.362 . S
H696 C702 0.930 . S
H697 C705 0.930 . S
H698 C706 0.930 . S
H699 C707 0.930 . S
H700 C710 0.930 . S
H701 C711 0.930 . S
C702 H696 0.930 . S
C702 C703 1.355 . S
C702 C704 1.415 . S
C703 C702 1.355 . S
C703 C705 1.419 . S
C704 C702 1.415 . S
C704 C709 1.425 . S
C704 C711 1.409 . S
C705 H697 0.930 . S
C705 C703 1.419 . S
C705 C706 1.362 . S
C706 H698 0.930 . S
C706 C705 1.362 . S
C706 C709 1.409 . S
C707 H699 0.930 . S
C707 C708 1.355 . S
C707 C709 1.415 . S
C708 C707 1.355 . S
C708 C710 1.419 . S
C709 C704 1.425 . S
C709 C706 1.409 . S
C709 C707 1.415 . S
C710 H700 0.930 . S
C710 C708 1.419 . S
C710 C711 1.362 . S
C711 H701 0.930 . S
C711 C704 1.409 . S
C711 C710 1.362 . S
H712 C718 0.930 1_556 S
H713 C721 0.930 . S
H714 C722 0.930 . S
H715 C723 0.930 . S
H716 C726 0.930 . S
H717 C727 0.930 . S
C718 H712 0.930 1_554 S
C718 C719 1.355 . S
C718 C720 1.415 1_554 S
C719 C718 1.355 . S
C719 C721 1.419 . S
C720 C718 1.415 1_556 S
C720 C725 1.425 1_556 S
C720 C727 1.409 . S
C721 H713 0.930 . S
C721 C719 1.419 . S
C721 C722 1.362 . S
C722 H714 0.930 . S
C722 C721 1.362 . S
C722 C725 1.409 . S
C723 H715 0.930 . S
C723 C724 1.355 1_554 S
C723 C725 1.415 . S
C724 C723 1.355 1_556 S
C724 C726 1.419 . S
C725 C720 1.425 1_554 S
C725 C722 1.409 . S
C725 C723 1.415 . S
C726 H716 0.930 . S
C726 C724 1.419 . S
C726 C727 1.362 . S
C727 H717 0.930 . S
C727 C720 1.409 . S
C727 C726 1.362 . S
H728 C734 0.930 1_554 S
H729 C737 0.930 . S
H730 C738 0.930 . S
H731 C739 0.930 . S
H732 C742 0.930 . S
H733 C743 0.930 . S
C734 H728 0.930 1_556 S
C734 C735 1.355 1_565 S
C734 C736 1.415 . S
C735 C734 1.355 1_545 S
C735 C737 1.419 . S
C736 C734 1.415 . S
C736 C741 1.425 1_565 S
C736 C743 1.409 . S
C737 H729 0.930 . S
C737 C735 1.419 . S
C737 C738 1.362 . S
C738 H730 0.930 . S
C738 C737 1.362 . S
C738 C741 1.409 . S
C739 H731 0.930 . S
C739 C740 1.355 . S
C739 C741 1.415 . S
C740 C739 1.355 . S
C740 C742 1.419 1_545 S
C741 C736 1.425 1_545 S
C741 C738 1.409 . S
C741 C739 1.415 . S
C742 H732 0.930 . S
C742 C740 1.419 1_565 S
C742 C743 1.362 . S
C743 H733 0.930 . S
C743 C736 1.409 . S
C743 C742 1.362 . S
H744 C750 0.930 . S
H745 C753 0.930 . S
H746 C754 0.930 . S
H747 C755 0.930 . S
H748 C758 0.930 . S
H749 C759 0.930 . S
C750 H744 0.930 . S
C750 C751 1.355 . S
C750 C752 1.415 . S
C751 C750 1.355 . S
C751 C753 1.419 . S
C752 C750 1.415 . S
C752 C757 1.425 . S
C752 C759 1.409 . S
C753 H745 0.930 . S
C753 C751 1.419 . S
C753 C754 1.362 . S
C754 H746 0.930 . S
C754 C753 1.362 . S
C754 C757 1.409 . S
C755 H747 0.930 . S
C755 C756 1.355 . S
C755 C757 1.415 . S
C756 C755 1.355 . S
C756 C758 1.419 . S
C757 C752 1.425 . S
C757 C754 1.409 . S
C757 C755 1.415 . S
C758 H748 0.930 . S
C758 C756 1.419 . S
C758 C759 1.362 . S
C759 H749 0.930 . S
C759 C752 1.409 . S
C759 C758 1.362 . S
H760 C766 0.930 . S
H761 C769 0.930 1_554 S
H762 C770 0.930 . S
H763 C771 0.930 . S
H764 C774 0.930 . S
H765 C775 0.930 . S
C766 H760 0.930 . S
C766 C767 1.355 . S
C766 C768 1.415 . S
C767 C766 1.355 . S
C767 C769 1.419 . S
C768 C766 1.415 . S
C768 C773 1.425 . S
C768 C775 1.409 . S
C769 H761 0.930 1_556 S
C769 C767 1.419 . S
C769 C770 1.362 . S
C770 H762 0.930 . S
C770 C769 1.362 . S
C770 C773 1.409 . S
C771 H763 0.930 . S
C771 C772 1.355 . S
C771 C773 1.415 . S
C772 C771 1.355 . S
C772 C774 1.419 . S
C773 C768 1.425 . S
C773 C770 1.409 . S
C773 C771 1.415 . S
C774 H764 0.930 . S
C774 C772 1.419 . S
C774 C775 1.362 . S
C775 H765 0.930 . S
C775 C768 1.409 . S
C775 C774 1.362 . S
H776 C782 0.930 . S
H777 C785 0.930 . S
H778 C786 0.930 . S
H779 C787 0.930 . S
H780 C790 0.930 . S
H781 C791 0.930 . S
C782 H776 0.930 . S
C782 C783 1.355 . S
C782 C784 1.415 . S
C783 C782 1.355 . S
C783 C785 1.419 . S
C784 C782 1.415 . S
C784 C789 1.425 . S
C784 C791 1.409 . S
C785 H777 0.930 . S
C785 C783 1.419 . S
C785 C786 1.362 . S
C786 H778 0.930 . S
C786 C785 1.362 . S
C786 C789 1.409 . S
C787 H779 0.930 . S
C787 C788 1.355 . S
C787 C789 1.415 . S
C788 C787 1.355 . S
C788 C790 1.419 . S
C789 C784 1.425 . S
C789 C786 1.409 . S
C789 C787 1.415 . S
C790 H780 0.930 . S
C790 C788 1.419 . S
C790 C791 1.362 . S
C791 H781 0.930 . S
C791 C784 1.409 . S
C791 C790 1.362 . S
H792 C798 0.929 . S
H793 C801 0.933 . S
H794 C802 0.934 . S
H795 C803 0.930 . S
H796 C806 0.930 . S
H797 C807 0.930 . S
C798 H792 0.929 . S
C798 C799 1.354 1_565 S
C798 C800 1.415 . S
C799 C798 1.354 1_545 S
C799 C801 1.416 . S
C800 C798 1.415 . S
C800 C805 1.425 . S
C800 C807 1.409 . S
C801 H793 0.933 . S
C801 C799 1.416 . S
C801 C802 1.364 . S
C802 H794 0.934 . S
C802 C801 1.364 . S
C802 C805 1.408 1_545 S
C803 H795 0.930 . S
C803 C804 1.355 . S
C803 C805 1.415 . S
C804 C803 1.355 . S
C804 C806 1.419 . S
C805 C800 1.425 . S
C805 C802 1.408 1_565 S
C805 C803 1.415 . S
C806 H796 0.930 . S
C806 C804 1.419 . S
C806 C807 1.362 . S
C807 H797 0.930 . S
C807 C800 1.409 . S
C807 C806 1.362 . S
H808 C814 0.930 . S
H809 C817 0.930 . S
H810 C818 0.930 . S
H811 C819 0.930 . S
H812 C822 0.930 . S
H813 C823 0.930 . S
C814 H808 0.930 . S
C814 C815 1.355 . S
C814 C816 1.415 . S
C815 C814 1.355 . S
C815 C817 1.419 . S
C816 C814 1.415 . S
C816 C821 1.425 . S
C816 C823 1.409 . S
C817 H809 0.930 . S
C817 C815 1.419 . S
C817 C818 1.362 . S
C818 H810 0.930 . S
C818 C817 1.362 . S
C818 C821 1.409 . S
C819 H811 0.930 . S
C819 C820 1.355 . S
C819 C821 1.415 . S
C820 C819 1.355 . S
C820 C822 1.419 . S
C821 C816 1.425 . S
C821 C818 1.409 . S
C821 C819 1.415 . S
C822 H812 0.930 . S
C822 C820 1.419 . S
C822 C823 1.362 . S
C823 H813 0.930 . S
C823 C816 1.409 . S
C823 C822 1.362 . S
H824 C830 0.930 . S
H825 C833 0.930 . S
H826 C834 0.930 . S
H827 C835 0.930 . S
H828 C838 0.930 . S
H829 C839 0.930 . S
C830 H824 0.930 . S
C830 C831 1.355 . S
C830 C832 1.415 . S
C831 C830 1.355 . S
C831 C833 1.419 . S
C832 C830 1.415 . S
C832 C837 1.425 . S
C832 C839 1.409 . S
C833 H825 0.930 . S
C833 C831 1.419 . S
C833 C834 1.362 . S
C834 H826 0.930 . S
C834 C833 1.362 . S
C834 C837 1.409 . S
C835 H827 0.930 . S
C835 C836 1.355 . S
C835 C837 1.415 . S
C836 C835 1.355 . S
C836 C838 1.419 . S
C837 C832 1.425 . S
C837 C834 1.409 . S
C837 C835 1.415 . S
C838 H828 0.930 . S
C838 C836 1.419 . S
C838 C839 1.362 . S
C839 H829 0.930 . S
C839 C832 1.409 . S
C839 C838 1.362 . S
C463 C255 1.899 1_565 S
C468 C337 1.930 . S
C484 C358 1.850 . S
C479 C295 1.817 . S
C500 C392 1.683 . S
C495 C175 1.640 . S
C516 C426 1.784 . S
C511 C215 1.755 . S
C532 C328 1.929 . S
C527 C95 1.888 1_556 S
C543 C135 1.770 1_556 S
C548 C367 1.817 . S
C559 C15 1.683 . S
C564 C401 1.714 . S
C575 C55 1.756 . S
C580 C435 1.791 . S
C596 C349 1.028 . S
C591 C221 1.023 . S
C612 C354 0.595 . S
C607 C261 0.682 1_565 S
C628 C388 0.739 . S
C623 C301 0.739 . S
C639 C181 0.686 . S
C644 C422 0.395 . S
C655 C61 0.750 . S
C660 C320 0.933 . S
C676 C383 0.526 . S
C671 C101 0.526 . S
C692 C417 0.795 . S
C687 C141 0.792 . S
C703 C21 0.456 . S
C708 C451 0.395 . S
C719 C202 1.846 . S
C724 C333 1.904 . S
C735 C242 2.187 1_556 S
C740 C362 2.291 . S
C756 C396 2.030 . S
C751 C282 1.945 1_556 S
C772 C430 2.103 . S
C767 C162 1.921 . S
C783 C42 1.745 . S
C788 C324 1.921 . S
C804 C371 2.297 . S
C799 C82 2.209 . S
C820 C405 2.030 . S
C815 C122 1.886 . S
C831 C2 2.042 . S
C836 C439 2.126 . S
