# Generated by pormake.
# Topology hwx, (6,3)-cn, num edge types: 1
# Building blocks:
#     Node 0, Type 0, BuildingBlock: OJICUG_clean_sbu_0, # of connection points: 6
#     Node 1, Type 0, BuildingBlock: OJICUG_clean_sbu_0, # of connection points: 6
#     Node 2, Type 0, BuildingBlock: OJICUG_clean_sbu_0, # of connection points: 6
#     Node 3, Type 0, BuildingBlock: OJICUG_clean_sbu_0, # of connection points: 6
#     Node 4, Type 1, BuildingBlock: WUSLED_clean_sbu_0, # of connection points: 3
#     Node 5, Type 1, BuildingBlock: WUSLED_clean_sbu_0, # of connection points: 3
#     Node 6, Type 1, BuildingBlock: WUSLED_clean_sbu_0, # of connection points: 3
#     Node 7, Type 1, BuildingBlock: WUSLED_clean_sbu_0, # of connection points: 3
#     Node 8, Type 1, BuildingBlock: WUSLED_clean_sbu_0, # of connection points: 3
#     Node 9, Type 1, BuildingBlock: WUSLED_clean_sbu_0, # of connection points: 3
#     Node 10, Type 1, BuildingBlock: WUSLED_clean_sbu_0, # of connection points: 3
#     Node 11, Type 1, BuildingBlock: WUSLED_clean_sbu_0, # of connection points: 3
#     Edge 12, Type (0, 1), BuildingBlock: XIVTED_clean_linker_0, # of connection points: 2
#     Edge 13, Type (0, 1), BuildingBlock: XIVTED_clean_linker_0, # of connection points: 2
#     Edge 14, Type (0, 1), BuildingBlock: XIVTED_clean_linker_0, # of connection points: 2
#     Edge 15, Type (0, 1), BuildingBlock: XIVTED_clean_linker_0, # of connection points: 2
#     Edge 16, Type (0, 1), BuildingBlock: XIVTED_clean_linker_0, # of connection points: 2
#     Edge 17, Type (0, 1), BuildingBlock: XIVTED_clean_linker_0, # of connection points: 2
#     Edge 18, Type (0, 1), BuildingBlock: XIVTED_clean_linker_0, # of connection points: 2
#     Edge 19, Type (0, 1), BuildingBlock: XIVTED_clean_linker_0, # of connection points: 2
#     Edge 20, Type (0, 1), BuildingBlock: XIVTED_clean_linker_0, # of connection points: 2
#     Edge 21, Type (0, 1), BuildingBlock: XIVTED_clean_linker_0, # of connection points: 2
#     Edge 22, Type (0, 1), BuildingBlock: XIVTED_clean_linker_0, # of connection points: 2
#     Edge 23, Type (0, 1), BuildingBlock: XIVTED_clean_linker_0, # of connection points: 2
#     Edge 24, Type (0, 1), BuildingBlock: XIVTED_clean_linker_0, # of connection points: 2
#     Edge 25, Type (0, 1), BuildingBlock: XIVTED_clean_linker_0, # of connection points: 2
#     Edge 26, Type (0, 1), BuildingBlock: XIVTED_clean_linker_0, # of connection points: 2
#     Edge 27, Type (0, 1), BuildingBlock: XIVTED_clean_linker_0, # of connection points: 2
#     Edge 28, Type (0, 1), BuildingBlock: XIVTED_clean_linker_0, # of connection points: 2
#     Edge 29, Type (0, 1), BuildingBlock: XIVTED_clean_linker_0, # of connection points: 2
#     Edge 30, Type (0, 1), BuildingBlock: XIVTED_clean_linker_0, # of connection points: 2
#     Edge 31, Type (0, 1), BuildingBlock: XIVTED_clean_linker_0, # of connection points: 2
#     Edge 32, Type (0, 1), BuildingBlock: XIVTED_clean_linker_0, # of connection points: 2
#     Edge 33, Type (0, 1), BuildingBlock: XIVTED_clean_linker_0, # of connection points: 2
#     Edge 34, Type (0, 1), BuildingBlock: XIVTED_clean_linker_0, # of connection points: 2
#     Edge 35, Type (0, 1), BuildingBlock: XIVTED_clean_linker_0, # of connection points: 2
# Relax obj value: 0.072
# Max RMSD: 0.099
# Mean RMSD: 0.090
data_MOF--net-hwx--node1-OJICUG_clean_sbu_0--node2-WUSLED_clean_sbu_0--edge1-XIVTED_clean_linker_0
_symmetry_space_group_name_H-M    P1
_symmetry_Int_Tables_number       1
_symmetry_cell_setting            triclinic
loop_
_symmetry_equiv_pos_as_xyz
'x, y, z'
_cell_length_a     65.331554
_cell_length_b     65.391865
_cell_length_c     29.364087
_cell_angle_alpha  90.409981
_cell_angle_beta   90.435046
_cell_angle_gamma 90.004119
loop_
_atom_site_label
_atom_site_type_symbol
_atom_site_fract_x
_atom_site_fract_y
_atom_site_fract_z
_atom_type_partial_charge
Sc0 Sc 0.23072 0.23369 0.06387 0.0
Sc1 Sc 0.20021 0.20035 0.99664 0.0
Sc2 Sc 0.23365 0.23526 0.94423 0.0
O3 O 0.22152 0.22308 0.0016 0.0
C4 C 0.22862 0.27513 0.00664 0.0
C5 C 0.18274 0.22736 0.07916 0.0
C6 C 0.18659 0.22978 0.91543 0.0
C7 C 0.2272 0.1855 0.08143 0.0
C8 C 0.273 0.23295 0.00942 0.0
C9 C 0.23095 0.18791 0.91689 0.0
O10 O 0.22853 0.26538 0.04398 0.0
O11 O 0.18069 0.21426 0.0472 0.0
O12 O 0.20413 0.23802 0.91161 0.0
O13 O 0.23385 0.2033 0.09127 0.0
O14 O 0.26452 0.23388 0.97035 0.0
O15 O 0.21703 0.18367 0.94536 0.0
O16 O 0.26281 0.23261 0.0462 0.0
O17 O 0.21526 0.18201 0.04781 0.0
O18 O 0.23854 0.20572 0.91325 0.0
O19 O 0.19976 0.2359 0.08864 0.0
O20 O 0.23023 0.26629 0.96815 0.0
O21 O 0.18278 0.21607 0.94473 0.0
Sc22 Sc 0.27041 0.73595 0.44323 0.0
Sc23 Sc 0.30294 0.7026 0.50411 0.0
Sc24 Sc 0.26801 0.73418 0.56297 0.0
O25 O 0.28046 0.72424 0.50344 0.0
C26 C 0.27128 0.77583 0.50654 0.0
C27 C 0.31868 0.7322 0.42585 0.0
C28 C 0.31528 0.7303 0.59032 0.0
C29 C 0.27595 0.68878 0.41768 0.0
C30 C 0.22849 0.73217 0.49856 0.0
C31 C 0.27308 0.68618 0.58142 0.0
O32 O 0.27205 0.7671 0.46773 0.0
O33 O 0.3218 0.71921 0.45717 0.0
O34 O 0.29749 0.73786 0.59512 0.0
O35 O 0.26761 0.70617 0.41227 0.0
O36 O 0.23702 0.73178 0.53761 0.0
O37 O 0.28666 0.6835 0.55116 0.0
O38 O 0.23857 0.73375 0.46187 0.0
O39 O 0.28912 0.68529 0.44884 0.0
O40 O 0.26503 0.70355 0.58952 0.0
O41 O 0.30102 0.73941 0.41684 0.0
O42 O 0.26967 0.76594 0.54351 0.0
O43 O 0.31952 0.71728 0.55939 0.0
Sc44 Sc 0.7703 0.77098 0.94147 0.0
Sc45 Sc 0.80162 0.80331 0.00924 0.0
Sc46 Sc 0.76787 0.76857 0.06115 0.0
O47 O 0.77994 0.78096 0.00394 0.0
C48 C 0.72829 0.77181 0.99696 0.0
C49 C 0.77446 0.81915 0.9254 0.0
C50 C 0.77128 0.81579 0.0896 0.0
C51 C 0.81843 0.77665 0.92576 0.0
C52 C 0.7722 0.7291 0.99693 0.0
C53 C 0.81497 0.77328 0.0897 0.0
O54 O 0.73836 0.77194 0.96002 0.0
O55 O 0.78704 0.82203 0.95812 0.0
O56 O 0.76377 0.79795 0.09354 0.0
O57 O 0.80111 0.76889 0.91561 0.0
O58 O 0.77064 0.73768 0.03575 0.0
O59 O 0.81876 0.78732 0.06121 0.0
O60 O 0.77244 0.73913 0.95996 0.0
O61 O 0.82094 0.78911 0.95881 0.0
O62 O 0.79745 0.76494 0.09297 0.0
O63 O 0.76704 0.80165 0.91568 0.0
O64 O 0.73688 0.77084 0.03591 0.0
O65 O 0.78487 0.8201 0.06039 0.0
Sc66 Sc 0.7316 0.26976 0.56593 0.0
Sc67 Sc 0.70056 0.30486 0.50613 0.0
Sc68 Sc 0.73385 0.27189 0.44641 0.0
O69 O 0.72198 0.28219 0.50616 0.0
C70 C 0.77354 0.27241 0.5098 0.0
C71 C 0.72858 0.31706 0.59221 0.0
C72 C 0.73035 0.3201 0.42797 0.0
C73 C 0.68357 0.27581 0.58402 0.0
C74 C 0.72928 0.23019 0.50259 0.0
C75 C 0.68677 0.27743 0.42021 0.0
O76 O 0.76348 0.27018 0.54641 0.0
O77 O 0.71519 0.32125 0.56194 0.0
O78 O 0.73711 0.30229 0.41884 0.0
O79 O 0.70094 0.26794 0.59307 0.0
O80 O 0.73196 0.24013 0.46601 0.0
O81 O 0.68338 0.29115 0.45025 0.0
O82 O 0.72802 0.23885 0.54136 0.0
O83 O 0.68097 0.28885 0.55259 0.0
O84 O 0.70403 0.26868 0.41586 0.0
O85 O 0.73625 0.29931 0.59673 0.0
O86 O 0.76493 0.27405 0.47101 0.0
O87 O 0.71765 0.32353 0.45972 0.0
C88 C 0.24147 0.54055 0.86405 0.0
C89 C 0.24276 0.56116 0.87733 0.0
C90 C 0.24473 0.57149 0.79794 0.0
C91 C 0.24435 0.57648 0.84463 0.0
C92 C 0.24336 0.55077 0.78482 0.0
C93 C 0.24174 0.53543 0.81765 0.0
U94 U 0.24187 0.52649 0.98793 0.0
O95 O 0.22346 0.5049 0.02747 0.0
O96 O 0.25689 0.50149 0.02526 0.0
C97 C 0.23943 0.49376 0.03889 0.0
C98 C 0.24024 0.52451 0.89875 0.0
C99 C 0.23717 0.47151 0.03326 0.0
C100 C 0.22684 0.44154 0.98933 0.0
C101 C 0.22912 0.46279 0.99315 0.0
C102 C 0.24088 0.4376 0.06537 0.0
C103 C 0.23261 0.42868 0.02554 0.0
C104 C 0.24309 0.45878 0.06916 0.0
C105 C 0.24838 0.57117 0.07352 0.0
C106 C 0.26917 0.5886 0.13098 0.0
C107 C 0.23298 0.58349 0.14383 0.0
C108 C 0.23121 0.5735 0.10171 0.0
C109 C 0.25192 0.59137 0.15869 0.0
C110 C 0.26739 0.57871 0.08879 0.0
C111 C 0.24649 0.56245 0.02697 0.0
O112 O 0.25719 0.52163 0.92226 0.0
O113 O 0.22384 0.52525 0.92438 0.0
O114 O 0.22856 0.5549 0.01502 0.0
O115 O 0.26194 0.55126 0.01276 0.0
H116 H 0.24271 0.56537 0.91309 0.0
H117 H 0.24571 0.59221 0.85602 0.0
H118 H 0.24341 0.54641 0.74917 0.0
H119 H 0.24075 0.51958 0.80683 0.0
H120 H 0.22027 0.43522 0.95833 0.0
H121 H 0.22449 0.47241 0.965 0.0
H122 H 0.24588 0.4282 0.09355 0.0
H123 H 0.24945 0.46525 0.10026 0.0
H124 H 0.28392 0.59476 0.14109 0.0
H125 H 0.21945 0.58523 0.16459 0.0
H126 H 0.2163 0.56798 0.09096 0.0
H127 H 0.28083 0.5774 0.06758 0.0
C128 C 0.96552 0.74716 0.64342 0.0
C129 C 0.96308 0.76559 0.66768 0.0
C130 C 0.93505 0.75097 0.71106 0.0
C131 C 0.94799 0.76751 0.70098 0.0
C132 C 0.93796 0.73232 0.68783 0.0
C133 C 0.953 0.73043 0.65444 0.0
U134 U 0.97721 0.7451 0.51697 0.0
O135 O 1.00109 0.76016 0.47659 0.0
O136 O 0.99885 0.72665 0.47717 0.0
C137 C 0.00943 0.74269 0.46436 0.0
C138 C 0.98062 0.7458 0.606 0.0
C139 C 0.03177 0.74127 0.4705 0.0
C140 C 0.06176 0.7313 0.51456 0.0
C141 C 0.04048 0.73299 0.51014 0.0
C142 C 0.06583 0.74654 0.44022 0.0
C143 C 0.07473 0.73796 0.47952 0.0
C144 C 0.04458 0.74812 0.43577 0.0
C145 C 0.93038 0.74715 0.43649 0.0
C146 C 0.93118 0.75286 0.3548 0.0
C147 C 0.89939 0.74351 0.39119 0.0
C148 C 0.90946 0.74277 0.43322 0.0
C149 C 0.91007 0.74866 0.35146 0.0
C150 C 0.94128 0.75205 0.39702 0.0
C151 C 0.94023 0.74697 0.48162 0.0
O152 O 0.98059 0.72878 0.58183 0.0
O153 O 0.98237 0.76225 0.58081 0.0
O154 O 0.95109 0.76323 0.49248 0.0
O155 O 0.94904 0.72971 0.49337 0.0
H156 H 0.97259 0.77871 0.66023 0.0
H157 H 0.94609 0.78215 0.71787 0.0
H158 H 0.92856 0.71915 0.69535 0.0
H159 H 0.95457 0.7159 0.6369 0.0
H160 H 0.06803 0.72445 0.5451 0.0
H161 H 0.03082 0.72767 0.53745 0.0
H162 H 0.0753 0.7522 0.41294 0.0
H163 H 0.03813 0.75468 0.40506 0.0
H164 H 0.93988 0.7567 0.3248 0.0
H165 H 0.88308 0.74054 0.39006 0.0
H166 H 0.90081 0.73903 0.46339 0.0
H167 H 0.95751 0.75541 0.39896 0.0
C168 C 0.76423 0.4655 0.1451 0.0
C169 C 0.77719 0.44833 0.14474 0.0
C170 C 0.76012 0.43458 0.21141 0.0
C171 C 0.77524 0.43314 0.17765 0.0
C172 C 0.7474 0.45197 0.21213 0.0
C173 C 0.74948 0.46727 0.17938 0.0
U174 U 0.76478 0.47777 0.01963 0.0
O175 O 0.74954 0.50163 0.97939 0.0
O176 O 0.78309 0.49938 0.97966 0.0
C177 C 0.76693 0.50989 0.96677 0.0
C178 C 0.76513 0.48095 0.10862 0.0
C179 C 0.76857 0.53224 0.9719 0.0
C180 C 0.76162 0.56391 0.01285 0.0
C181 C 0.76042 0.54256 0.00973 0.0
C182 C 0.77953 0.56476 0.94095 0.0
C183 C 0.77106 0.5753 0.97828 0.0
C184 C 0.77824 0.54347 0.9378 0.0
C185 C 0.76131 0.43129 0.93876 0.0
C186 C 0.75395 0.43243 0.85754 0.0
C187 C 0.76406 0.40052 0.89265 0.0
C188 C 0.76565 0.4104 0.93479 0.0
C189 C 0.75807 0.41136 0.85353 0.0
C190 C 0.75562 0.44234 0.89987 0.0
C191 C 0.76222 0.44091 0.98408 0.0
O192 O 0.78188 0.48105 0.08402 0.0
O193 O 0.74834 0.48279 0.08403 0.0
O194 O 0.74616 0.45183 0.99566 0.0
O195 O 0.7797 0.44957 0.99537 0.0
H196 H 0.78868 0.44644 0.11865 0.0
H197 H 0.78556 0.4202 0.17643 0.0
H198 H 0.7354 0.45351 0.23716 0.0
H199 H 0.73924 0.4803 0.18021 0.0
H200 H 0.75476 0.5715 0.04185 0.0
H201 H 0.75295 0.53415 0.03657 0.0
H202 H 0.78726 0.57295 0.91416 0.0
H203 H 0.78474 0.53575 0.90851 0.0
H204 H 0.74948 0.44124 0.828 0.0
H205 H 0.76701 0.38423 0.89099 0.0
H206 H 0.76999 0.40163 0.96453 0.0
H207 H 0.75227 0.45854 0.90235 0.0
C208 C 0.03587 0.2569 0.36198 0.0
C209 C 0.04086 0.2375 0.34431 0.0
C210 C 0.06595 0.25262 0.29358 0.0
C211 C 0.05576 0.23538 0.31063 0.0
C212 C 0.06048 0.27208 0.31017 0.0
C213 C 0.04558 0.2742 0.34383 0.0
U214 U 0.02476 0.2606 0.48868 0.0
O215 O 0.00361 0.2802 0.52747 0.0
O216 O 1.00087 0.24677 0.53083 0.0
C217 C 0.99292 0.26457 0.54207 0.0
C218 C 0.02097 0.259 0.39974 0.0
C219 C 0.97057 0.26632 0.53697 0.0
C220 C 0.93903 0.26067 0.4942 0.0
C221 C 0.9604 0.25941 0.49751 0.0
C222 C 0.93789 0.27617 0.56933 0.0
C223 C 0.92749 0.26894 0.53026 0.0
C224 C 0.9592 0.27483 0.57262 0.0
C225 C 0.07177 0.25824 0.56851 0.0
C226 C 0.07135 0.25226 0.65013 0.0
C227 C 0.10283 0.2624 0.61342 0.0
C228 C 0.09261 0.26307 0.57154 0.0
C229 C 0.09238 0.25687 0.6532 0.0
C230 C 0.0611 0.253 0.60808 0.0
C231 C 0.06181 0.25821 0.52347 0.0
O232 O 0.01879 0.24292 0.42592 0.0
O233 O 0.02163 0.27628 0.42296 0.0
O234 O 0.05338 0.27554 0.51095 0.0
O235 O 0.05053 0.24211 0.51354 0.0
H236 H 0.03353 0.22386 0.35709 0.0
H237 H 0.05968 0.22015 0.29888 0.0
H238 H 0.06773 0.28571 0.29716 0.0
H239 H 0.04188 0.28942 0.35601 0.0
H240 H 0.93155 0.25478 0.46381 0.0
H241 H 0.96895 0.25283 0.46952 0.0
H242 H 0.92958 0.28297 0.59737 0.0
H243 H 0.96682 0.28037 0.60322 0.0
H244 H 0.06284 0.24812 0.68019 0.0
H245 H 0.11907 0.26571 0.61436 0.0
H246 H 0.10109 0.26707 0.5413 0.0
H247 H 0.04495 0.2493 0.60635 0.0
C248 C 0.74059 0.96447 0.64161 0.0
C249 C 0.74225 0.94391 0.62819 0.0
C250 C 0.74523 0.93356 0.70748 0.0
C251 C 0.74454 0.92861 0.66077 0.0
C252 C 0.74357 0.95423 0.72074 0.0
C253 C 0.74125 0.96956 0.68802 0.0
U254 U 0.73754 0.97845 0.51781 0.0
O255 O 0.71784 1.00005 0.48047 0.0
O256 O 0.75129 0.0034 0.4788 0.0
C257 C 0.73344 0.01123 0.46745 0.0
C258 C 0.73834 0.98047 0.60703 0.0
C259 C 0.73128 0.03346 0.47385 0.0
C260 C 0.73766 0.06479 0.51673 0.0
C261 C 0.73892 0.04346 0.51286 0.0
C262 C 0.72061 0.0662 0.44326 0.0
C263 C 0.72869 0.07644 0.48169 0.0
C264 C 0.72194 0.04494 0.43939 0.0
C265 C 0.74196 0.93354 0.43191 0.0
C266 C 0.76182 0.92024 0.36838 0.0
C267 C 0.72502 0.91598 0.36863 0.0
C268 C 0.72404 0.92628 0.41045 0.0
C269 C 0.74396 0.91257 0.34741 0.0
C270 C 0.76084 0.93053 0.41019 0.0
C271 C 0.74121 0.94246 0.47845 0.0
O272 O 0.7546 0.98342 0.58183 0.0
O273 O 0.72127 0.9796 0.58309 0.0
O274 O 0.72357 0.95002 0.49175 0.0
O275 O 0.75695 0.95368 0.49136 0.0
H276 H 0.74187 0.93972 0.59242 0.0
H277 H 0.74611 0.91292 0.64929 0.0
H278 H 0.74385 0.95855 0.75641 0.0
H279 H 0.73996 0.98537 0.69893 0.0
H280 H 0.74418 0.07217 0.54661 0.0
H281 H 0.74616 0.03483 0.53992 0.0
H282 H 0.71325 0.07461 0.41605 0.0
H283 H 0.71586 0.03745 0.40915 0.0
H284 H 0.77669 0.9176 0.3534 0.0
H285 H 0.71095 0.91044 0.35319 0.0
H286 H 0.70926 0.92813 0.42643 0.0
H287 H 0.77499 0.9356 0.42606 0.0
C288 C 0.53652 0.2474 0.86604 0.0
C289 C 0.53812 0.26501 0.83919 0.0
C290 C 0.5672 0.25042 0.79872 0.0
C291 C 0.55332 0.26655 0.80606 0.0
C292 C 0.56517 0.23255 0.82468 0.0
C293 C 0.55005 0.23105 0.85794 0.0
U294 U 0.52434 0.2473 0.99223 0.0
O295 O 0.50036 0.26296 0.03166 0.0
O296 O 0.50262 0.22946 0.0326 0.0
C297 C 0.49206 0.24569 0.04481 0.0
C298 C 0.52125 0.24661 0.90316 0.0
C299 C 0.46969 0.24417 0.03934 0.0
C300 C 0.43582 0.2498 0.07059 0.0
C301 C 0.45709 0.25157 0.07414 0.0
C302 C 0.43942 0.2333 0.99696 0.0
C303 C 0.42669 0.2405 0.03212 0.0
C304 C 0.46074 0.23516 1.0005 0.0
C305 C 0.57092 0.25059 0.07331 0.0
C306 C 0.57022 0.25847 0.15434 0.0
C307 C 0.60154 0.24644 0.11952 0.0
C308 C 0.59156 0.24516 0.07742 0.0
C309 C 0.59104 0.25319 0.15849 0.0
C310 C 0.5602 0.25711 0.11205 0.0
C311 C 0.56121 0.24974 0.02804 0.0
O312 O 0.52116 0.22997 0.92809 0.0
O313 O 0.5194 0.26346 0.92753 0.0
O314 O 0.55037 0.26582 0.01628 0.0
O315 O 0.55246 0.2323 0.01686 0.0
H316 H 0.52787 0.27782 0.84448 0.0
H317 H 0.55452 0.28064 0.7871 0.0
H318 H 0.57532 0.21966 0.81939 0.0
H319 H 0.54918 0.21715 0.87765 0.0
H320 H 0.42653 0.25588 0.0979 0.0
H321 H 0.46373 0.25868 0.10426 0.0
H322 H 0.43296 0.22589 0.96706 0.0
H323 H 0.47022 0.22937 0.97318 0.0
H324 H 0.56167 0.26356 0.18377 0.0
H325 H 0.61765 0.24258 0.12127 0.0
H326 H 0.60008 0.24016 0.04782 0.0
H327 H 0.54419 0.26129 0.1095 0.0
C328 C 0.2592 0.03903 0.36394 0.0
C329 C 0.27167 0.05653 0.36514 0.0
C330 C 0.25483 0.06967 0.29699 0.0
C331 C 0.26961 0.07159 0.33189 0.0
C332 C 0.24257 0.05195 0.29553 0.0
C333 C 0.24478 0.03678 0.32862 0.0
U334 U 0.26114 0.02703 0.48961 0.0
O335 O 0.24542 0.00357 0.52994 0.0
O336 O 0.27901 0.00491 0.52939 0.0
C337 C 0.26268 0.99479 0.54225 0.0
C338 C 0.26019 0.0237 0.40063 0.0
C339 C 0.26352 0.97243 0.53644 0.0
C340 C 0.27328 0.94206 0.49353 0.0
C341 C 0.27197 0.96338 0.49737 0.0
C342 C 0.25728 0.93865 0.56724 0.0
C343 C 0.26608 0.92942 0.5286 0.0
C344 C 0.25606 0.95993 0.57111 0.0
C345 C 0.26024 0.07369 0.57034 0.0
C346 C 0.25491 0.07255 0.65212 0.0
C347 C 0.26345 0.10461 0.61594 0.0
C348 C 0.26423 0.09467 0.57377 0.0
C349 C 0.25865 0.09372 0.65563 0.0
C350 C 0.25575 0.06259 0.60976 0.0
C351 C 0.26026 0.06399 0.52508 0.0
O352 O 0.27727 0.02322 0.42464 0.0
O353 O 0.2437 0.02248 0.42583 0.0
O354 O 0.24371 0.05359 0.51407 0.0
O355 O 0.27729 0.05473 0.51338 0.0
H356 H 0.28286 0.05877 0.39213 0.0
H357 H 0.27958 0.0848 0.33374 0.0
H358 H 0.23084 0.05002 0.26962 0.0
H359 H 0.23489 0.02349 0.32722 0.0
H360 H 0.28031 0.93552 0.4635 0.0
H361 H 0.27776 0.97279 0.47012 0.0
H362 H 0.25119 0.92944 0.59449 0.0
H363 H 0.24938 0.96665 0.60138 0.0
H364 H 0.25136 0.0637 0.68207 0.0
H365 H 0.26606 0.12096 0.61719 0.0
H366 H 0.26764 0.10347 0.54362 0.0
H367 H 0.25269 0.04633 0.60768 0.0
C368 C 0.46472 0.76364 0.14305 0.0
C369 C 0.44807 0.77725 0.14366 0.0
C370 C 0.43381 0.76001 0.20956 0.0
C371 C 0.43288 0.77553 0.17667 0.0
C372 C 0.4507 0.74662 0.20935 0.0
C373 C 0.466 0.74847 0.1765 0.0
U374 U 0.47675 0.76442 0.01744 0.0
O375 O 0.49863 0.78247 0.97761 0.0
O376 O 0.50027 0.74891 0.97672 0.0
C377 C 0.50885 0.76619 0.96437 0.0
C378 C 0.48012 0.76434 0.1064 0.0
C379 C 0.53124 0.76741 0.96952 0.0
C380 C 0.56276 0.76033 0.01107 0.0
C381 C 0.54138 0.75939 0.00774 0.0
C382 C 0.564 0.7777 0.93855 0.0
C383 C 0.57436 0.76939 0.97635 0.0
C384 C 0.54268 0.77667 0.93519 0.0
C385 C 0.4298 0.76236 0.93727 0.0
C386 C 0.43026 0.7553 0.85589 0.0
C387 C 0.39881 0.76608 0.89212 0.0
C388 C 0.409 0.76725 0.934 0.0
C389 C 0.40926 0.75997 0.85257 0.0
C390 C 0.44048 0.75654 0.89795 0.0
C391 C 0.4397 0.76281 0.98235 0.0
O392 O 0.48155 0.74763 0.08146 0.0
O393 O 0.48055 0.78117 0.08213 0.0
O394 O 0.44878 0.78004 0.99389 0.0
O395 O 0.45034 0.74649 0.99329 0.0
H396 H 0.44656 0.7891 0.11825 0.0
H397 H 0.42035 0.78636 0.1762 0.0
H398 H 0.45183 0.73432 0.23371 0.0
H399 H 0.47863 0.73772 0.17659 0.0
H400 H 0.57021 0.75361 0.04044 0.0
H401 H 0.5328 0.75224 0.03475 0.0
H402 H 0.57235 0.78514 0.9116 0.0
H403 H 0.5351 0.78307 0.9056 0.0
H404 H 0.43878 0.75072 0.82602 0.0
H405 H 0.38258 0.76945 0.89101 0.0
H406 H 0.40051 0.77169 0.96406 0.0
H407 H 0.45661 0.75276 0.89989 0.0
H408 H 0.14409 0.21082 0.07417 0.0
H409 H 0.10252 0.27317 0.29036 0.0
H410 H 0.18009 0.25512 0.14962 0.0
H411 H 0.06758 0.22659 0.21967 0.0
H412 H 0.13024 0.26832 0.23604 0.0
H413 H 0.1152 0.21788 0.12411 0.0
C414 C 0.14594 0.22211 0.10104 0.0
C415 C 0.16468 0.23231 0.10769 0.0
C416 C 0.11649 0.25919 0.2323 0.0
C417 C 0.13152 0.24044 0.16522 0.0
C418 C 0.10058 0.26205 0.26316 0.0
C419 C 0.08265 0.25026 0.25968 0.0
C420 C 0.11454 0.24443 0.19754 0.0
C421 C 0.0812 0.23584 0.22409 0.0
C422 C 0.1294 0.22611 0.12964 0.0
C423 C 0.16603 0.2468 0.14319 0.0
N424 N 0.09693 0.23332 0.19448 0.0
N425 N 0.14972 0.25037 0.17063 0.0
H426 H 0.28647 0.64645 0.575 0.0
H427 H 0.2266 0.60938 0.79663 0.0
H428 H 0.24611 0.68534 0.65289 0.0
H429 H 0.26802 0.57103 0.72043 0.0
H430 H 0.23204 0.63677 0.74188 0.0
H431 H 0.27818 0.61807 0.62504 0.0
C432 C 0.27577 0.64905 0.60244 0.0
C433 C 0.26708 0.66845 0.60977 0.0
C434 C 0.23987 0.62234 0.737 0.0
C435 C 0.25756 0.63585 0.66748 0.0
C436 C 0.23686 0.60671 0.76841 0.0
C437 C 0.24697 0.58787 0.76337 0.0
C438 C 0.25314 0.61919 0.70019 0.0
C439 C 0.25977 0.5852 0.72555 0.0
C440 C 0.27106 0.63278 0.63107 0.0
C441 C 0.25326 0.67074 0.64591 0.0
N442 N 0.26256 0.60071 0.69561 0.0
N443 N 0.24902 0.65468 0.67349 0.0
H444 H 0.815 0.74066 0.14779 0.0
H445 H 0.9144 0.77772 0.28502 0.0
H446 H 0.85195 0.79202 0.10687 0.0
H447 H 0.88014 0.72334 0.31725 0.0
H448 H 0.89344 0.78185 0.21631 0.0
H449 H 0.84019 0.73281 0.20673 0.0
C450 C 0.82848 0.75023 0.15093 0.0
C451 C 0.83121 0.76717 0.12248 0.0
C452 C 0.89063 0.76892 0.23822 0.0
C453 C 0.86016 0.75829 0.19041 0.0
C454 C 0.90268 0.76648 0.27735 0.0
C455 C 0.8989 0.75028 0.30729 0.0
C456 C 0.87464 0.75508 0.22898 0.0
C457 C 0.88334 0.73631 0.29573 0.0
C458 C 0.8429 0.74571 0.18465 0.0
C459 C 0.84913 0.77886 0.12806 0.0
N460 N 0.87171 0.73913 0.25776 0.0
N461 N 0.86281 0.77432 0.16166 0.0
H462 H 0.76178 0.31674 0.64942 0.0
H463 H 0.72753 0.41583 0.78941 0.0
H464 H 0.71011 0.35405 0.61033 0.0
H465 H 0.78275 0.38173 0.81693 0.0
H466 H 0.72194 0.39505 0.72077 0.0
H467 H 0.77063 0.34175 0.70809 0.0
C468 C 0.75232 0.33026 0.65299 0.0
C469 C 0.73503 0.33316 0.6251 0.0
C470 C 0.73537 0.39225 0.74162 0.0
C471 C 0.74508 0.36195 0.69274 0.0
C472 C 0.73864 0.40419 0.78071 0.0
C473 C 0.75552 0.40038 0.80932 0.0
C474 C 0.74906 0.37635 0.73114 0.0
C475 C 0.7693 0.38493 0.79647 0.0
C476 C 0.75743 0.34459 0.68652 0.0
C477 C 0.72353 0.35113 0.6311 0.0
N478 N 0.76567 0.37341 0.75862 0.0
N479 N 0.72864 0.36474 0.6646 0.0
H480 H 0.68503 0.24413 0.36351 0.0
H481 H 0.58838 0.28412 0.22216 0.0
H482 H 0.65101 0.29815 0.4015 0.0
H483 H 0.61912 0.2269 0.19557 0.0
H484 H 0.60942 0.2886 0.29089 0.0
H485 H 0.65959 0.23673 0.3047 0.0
C486 C 0.67214 0.25441 0.35968 0.0
C487 C 0.6703 0.27192 0.38731 0.0
C488 C 0.61143 0.27498 0.27021 0.0
C489 C 0.64103 0.26355 0.31948 0.0
C490 C 0.59934 0.27236 0.23108 0.0
C491 C 0.60214 0.25521 0.20271 0.0
C492 C 0.62645 0.26039 0.28098 0.0
C493 C 0.61672 0.24057 0.21583 0.0
C494 C 0.65756 0.25014 0.32606 0.0
C495 C 0.6531 0.28451 0.38095 0.0
N496 N 0.6284 0.24357 0.25373 0.0
N497 N 0.63924 0.2802 0.34738 0.0
H498 H 0.26361 0.18898 0.85889 0.0
H499 H 0.22984 0.08843 0.72226 0.0
H500 H 0.21371 0.15018 0.9004 0.0
H501 H 0.28317 0.12431 0.68989 0.0
H502 H 0.22517 0.10916 0.79105 0.0
H503 H 0.27239 0.16402 0.80022 0.0
C504 C 0.25457 0.17514 0.85595 0.0
C505 C 0.23774 0.17182 0.88445 0.0
C506 C 0.238 0.11238 0.7691 0.0
C507 C 0.24769 0.14313 0.81683 0.0
C508 C 0.24076 0.10046 0.72992 0.0
C509 C 0.25681 0.10475 0.69991 0.0
C510 C 0.25135 0.12877 0.77831 0.0
C511 C 0.27033 0.1207 0.71146 0.0
C512 C 0.25962 0.16085 0.82238 0.0
C513 C 0.22675 0.15347 0.87915 0.0
N514 N 0.2672 0.13221 0.74947 0.0
N515 N 0.23178 0.13992 0.84568 0.0
H516 H 0.35959 0.72441 0.43955 0.0
H517 H 0.39252 0.76526 0.1954 0.0
H518 H 0.31779 0.75372 0.34592 0.0
H519 H 0.43627 0.74857 0.29969 0.0
H520 H 0.36496 0.76041 0.24966 0.0
H521 H 0.38783 0.7324 0.38854 0.0
C522 C 0.35633 0.73263 0.40843 0.0
C523 C 0.3362 0.73832 0.39702 0.0
C524 C 0.3806 0.75791 0.26078 0.0
C525 C 0.36854 0.74736 0.33824 0.0
C526 C 0.39642 0.7608 0.22983 0.0
C527 C 0.41688 0.7574 0.24284 0.0
C528 C 0.38513 0.75138 0.30515 0.0
C529 C 0.42077 0.75111 0.28778 0.0
C530 C 0.3725 0.7372 0.37933 0.0
C531 C 0.33301 0.74901 0.35624 0.0
N532 N 0.40506 0.74824 0.31721 0.0
N533 N 0.34896 0.75304 0.32823 0.0
H534 H 0.78778 0.85895 0.93225 0.0
H535 H 0.72761 0.89547 0.70843 0.0
H536 H 0.74817 0.81971 0.85193 0.0
H537 H 0.769 0.93421 0.78516 0.0
H538 H 0.73356 0.86814 0.76314 0.0
H539 H 0.77952 0.88727 0.88156 0.0
C540 C 0.77727 0.85627 0.90413 0.0
C541 C 0.76876 0.8368 0.89635 0.0
C542 C 0.7413 0.88263 0.76814 0.0
C543 C 0.75927 0.86928 0.83798 0.0
C544 C 0.73799 0.89823 0.73674 0.0
C545 C 0.74792 0.91717 0.74195 0.0
C546 C 0.75468 0.8859 0.80515 0.0
C547 C 0.76088 0.91995 0.77991 0.0
C548 C 0.77258 0.87248 0.87514 0.0
C549 C 0.7552 0.83437 0.8593 0.0
N550 N 0.76395 0.90447 0.80989 0.0
N551 N 0.75095 0.85037 0.83148 0.0
H552 H 0.85814 0.79006 0.93502 0.0
H553 H 0.89605 0.73549 0.70574 0.0
H554 H 0.8196 0.75167 0.85016 0.0
H555 H 0.93539 0.77205 0.7926 0.0
H556 H 0.86825 0.74033 0.75973 0.0
H557 H 0.88686 0.78283 0.88468 0.0
C558 C 0.85569 0.78003 0.90596 0.0
C559 C 0.83631 0.77154 0.89684 0.0
C560 C 0.88298 0.74725 0.7671 0.0
C561 C 0.86925 0.76326 0.83885 0.0
C562 C 0.89894 0.74437 0.73639 0.0
C563 C 0.91817 0.75336 0.74453 0.0
C564 C 0.88616 0.75925 0.80636 0.0
C565 C 0.92079 0.76505 0.78451 0.0
C566 C 0.87214 0.77593 0.87718 0.0
C567 C 0.83419 0.75863 0.85862 0.0
N568 N 0.90497 0.76768 0.81384 0.0
N569 N 0.85041 0.75497 0.83101 0.0
H570 H 0.72385 0.36117 0.4421 0.0
H571 H 0.76365 0.39319 0.19651 0.0
H572 H 0.75113 0.31865 0.34709 0.0
H573 H 0.7497 0.43722 0.30214 0.0
H574 H 0.75829 0.36571 0.2507 0.0
H575 H 0.73231 0.3892 0.39095 0.0
C576 C 0.73171 0.3577 0.41063 0.0
C577 C 0.73669 0.33744 0.3989 0.0
C578 C 0.75651 0.38139 0.26211 0.0
C579 C 0.74629 0.36954 0.33996 0.0
C580 C 0.75969 0.39716 0.2312 0.0
C581 C 0.75721 0.41768 0.24462 0.0
C582 C 0.75059 0.38604 0.30685 0.0
C583 C 0.75153 0.42169 0.28992 0.0
C584 C 0.73656 0.37375 0.38146 0.0
C585 C 0.74696 0.33398 0.35768 0.0
N586 N 0.74834 0.40603 0.31931 0.0
N587 N 0.75127 0.34983 0.3296 0.0
H588 H 0.14926 0.21138 0.90017 0.0
H589 H 0.12183 0.28266 0.68763 0.0
H590 H 0.18676 0.26167 0.85539 0.0
H591 H 0.08891 0.22734 0.71889 0.0
H592 H 0.14288 0.27781 0.7557 0.0
H593 H 0.12418 0.2197 0.84082 0.0
C594 C 0.15215 0.22429 0.87822 0.0
C595 C 0.1703 0.23571 0.88259 0.0
C596 C 0.13097 0.26679 0.74787 0.0
C597 C 0.14162 0.24527 0.81454 0.0
C598 C 0.11899 0.26951 0.70889 0.0
C599 C 0.10373 0.25525 0.69714 0.0
C600 C 0.12776 0.24966 0.77549 0.0
C601 C 0.10044 0.23876 0.72664 0.0
C602 C 0.13784 0.22899 0.84425 0.0
C603 C 0.17314 0.25228 0.85311 0.0
N604 N 0.11247 0.23632 0.76424 0.0
N605 N 0.15903 0.25648 0.82028 0.0
H606 H 0.2954 0.65191 0.40479 0.0
H607 H 0.22545 0.62053 0.1903 0.0
H608 H 0.24465 0.68796 0.35509 0.0
H609 H 0.28216 0.59021 0.22423 0.0
H610 H 0.22959 0.64235 0.25754 0.0
H611 H 0.28812 0.62632 0.34563 0.0
C612 C 0.28261 0.65438 0.38178 0.0
C613 C 0.27074 0.67225 0.38474 0.0
C614 C 0.24107 0.63084 0.25047 0.0
C615 C 0.26236 0.643 0.31695 0.0
C616 C 0.23864 0.61826 0.21225 0.0
C617 C 0.25352 0.60356 0.20148 0.0
C618 C 0.2585 0.62871 0.27833 0.0
C619 C 0.27045 0.60153 0.23089 0.0
C620 C 0.27852 0.63979 0.34791 0.0
C621 C 0.25436 0.67456 0.35391 0.0
N622 N 0.27252 0.61402 0.26788 0.0
N623 N 0.25072 0.66016 0.32127 0.0
H624 H 0.35283 0.71238 0.60523 0.0
H625 H 0.37992 0.78542 0.81735 0.0
H626 H 0.31454 0.76208 0.65146 0.0
H627 H 0.41268 0.72963 0.78772 0.0
H628 H 0.35885 0.77979 0.74947 0.0
H629 H 0.37784 0.72122 0.66471 0.0
C630 C 0.34975 0.72526 0.62754 0.0
C631 C 0.33142 0.73638 0.62354 0.0
C632 C 0.37072 0.76882 0.75762 0.0
C633 C 0.36001 0.74656 0.69161 0.0
C634 C 0.38272 0.772 0.79649 0.0
C635 C 0.39793 0.75784 0.80866 0.0
C636 C 0.37389 0.75135 0.73051 0.0
C637 C 0.40118 0.74099 0.77964 0.0
C638 C 0.36402 0.73025 0.66158 0.0
C639 C 0.32831 0.75292 0.65348 0.0
N640 N 0.38915 0.73812 0.74211 0.0
N641 N 0.3424 0.75743 0.68627 0.0
H642 H 0.78579 0.85512 0.09843 0.0
H643 H 0.7228 0.87756 0.32599 0.0
H644 H 0.74205 0.81322 0.15596 0.0
H645 H 0.76835 0.91861 0.27273 0.0
H646 H 0.72707 0.85557 0.25931 0.0
H647 H 0.7771 0.88013 0.15737 0.0
C648 C 0.77423 0.85121 0.12314 0.0
C649 C 0.7648 0.83189 0.12235 0.0
C650 C 0.73604 0.86946 0.262 0.0
C651 C 0.75484 0.86052 0.19014 0.0
C652 C 0.7335 0.88213 0.29997 0.0
C653 C 0.7453 0.89996 0.30516 0.0
C654 C 0.75052 0.87457 0.22885 0.0
C655 C 0.75916 0.90486 0.27055 0.0
C656 C 0.76931 0.86551 0.15688 0.0
C657 C 0.74988 0.82781 0.1553 0.0
N658 N 0.76146 0.89219 0.23401 0.0
N659 N 0.74548 0.84193 0.18795 0.0
H660 H 0.64349 0.28772 0.57372 0.0
H661 H 0.60691 0.23696 0.80646 0.0
H662 H 0.6829 0.25144 0.65995 0.0
H663 H 0.56622 0.26876 0.71457 0.0
H664 H 0.63466 0.24139 0.75231 0.0
H665 H 0.61488 0.28032 0.62394 0.0
C666 C 0.64615 0.27811 0.60305 0.0
C667 C 0.66575 0.27029 0.61261 0.0
C668 C 0.61965 0.24733 0.74387 0.0
C669 C 0.63292 0.26182 0.67056 0.0
C670 C 0.60371 0.24469 0.77471 0.0
C671 C 0.5841 0.25249 0.76521 0.0
C672 C 0.61607 0.25793 0.70317 0.0
C673 C 0.5811 0.26273 0.72377 0.0
C674 C 0.62976 0.27389 0.63176 0.0
C675 C 0.66813 0.25786 0.65114 0.0
N676 N 0.5969 0.2652 0.69441 0.0
N677 N 0.65196 0.25411 0.67878 0.0
H678 H 0.2471 0.18727 0.16394 0.0
H679 H 0.24527 0.06647 0.20552 0.0
H680 H 0.22037 0.14435 0.06808 0.0
H681 H 0.25726 0.11117 0.31141 0.0
H682 H 0.23946 0.09433 0.1518 0.0
H683 H 0.25479 0.15899 0.21501 0.0
C684 C 0.24294 0.1719 0.15341 0.0
C685 C 0.23296 0.16826 0.11159 0.0
C686 C 0.24342 0.09799 0.1868 0.0
C687 C 0.24177 0.13573 0.17023 0.0
C688 C 0.24664 0.08209 0.21761 0.0
C689 C 0.25179 0.08638 0.26327 0.0
C690 C 0.24547 0.11837 0.20157 0.0
C691 C 0.25369 0.107 0.27652 0.0
C692 C 0.24728 0.15575 0.18276 0.0
C693 C 0.22797 0.14795 0.10002 0.0
N694 N 0.25055 0.12217 0.24588 0.0
N695 N 0.23242 0.13246 0.12918 0.0
H696 H 0.2322 0.30195 0.93557 0.0
H697 H 0.22035 0.40203 0.09183 0.0
H698 H 0.22239 0.30021 0.08081 0.0
H699 H 0.23922 0.40366 0.95131 0.0
H700 H 0.21813 0.36484 0.08675 0.0
H701 H 0.23172 0.33925 0.9391 0.0
C702 C 0.22985 0.30936 0.96821 0.0
C703 C 0.22743 0.29782 0.00801 0.0
C704 C 0.22273 0.37332 0.05699 0.0
C705 C 0.22688 0.34067 0.01219 0.0
C706 C 0.22411 0.39459 0.0599 0.0
C707 C 0.23017 0.40607 0.02204 0.0
C708 C 0.22737 0.36335 0.01586 0.0
C709 C 0.23434 0.39552 0.98129 0.0
C710 C 0.22963 0.3307 0.97017 0.0
C711 C 0.22443 0.3084 0.04925 0.0
N712 N 0.23293 0.37477 0.97934 0.0
N713 N 0.22427 0.32919 0.05025 0.0
H714 H 0.20426 0.72832 0.42216 0.0
H715 H 0.099 0.74355 0.55568 0.0
H716 H 0.20081 0.73446 0.56845 0.0
H717 H 0.10229 0.72776 0.41289 0.0
H718 H 0.13624 0.74074 0.56108 0.0
H719 H 0.16693 0.72869 0.41802 0.0
C720 C 0.19569 0.72969 0.45347 0.0
C721 C 0.20579 0.73143 0.49573 0.0
C722 C 0.12879 0.73784 0.52859 0.0
C723 C 0.1629 0.73195 0.49114 0.0
C724 C 0.10749 0.73934 0.52551 0.0
C725 C 0.0974 0.73597 0.4837 0.0
C726 C 0.14017 0.73301 0.48956 0.0
C727 C 0.10935 0.73087 0.44566 0.0
C728 C 0.17434 0.72987 0.45106 0.0
C729 C 0.19376 0.73307 0.5351 0.0
N730 N 0.13006 0.72962 0.44949 0.0
N731 N 0.17299 0.73341 0.53181 0.0
H732 H 0.77513 0.70205 0.06785 0.0
H733 H 0.76629 0.60264 0.90845 0.0
H734 H 0.7715 0.70427 0.92103 0.0
H735 H 0.77744 0.60002 0.05342 0.0
H736 H 0.76766 0.63987 0.91271 0.0
H737 H 0.77545 0.66475 0.06353 0.0
C738 C 0.77444 0.69474 0.03466 0.0
C739 C 0.77322 0.70642 0.99473 0.0
C740 C 0.76986 0.63116 0.94359 0.0
C741 C 0.77352 0.66357 0.98963 0.0
C742 C 0.76919 0.60985 0.94117 0.0
C743 C 0.77182 0.59807 0.98062 0.0
C744 C 0.77308 0.6409 0.98581 0.0
C745 C 0.77508 0.60841 0.02218 0.0
C746 C 0.77465 0.6734 0.03226 0.0
C747 C 0.77245 0.69598 0.95275 0.0
N748 N 0.7756 0.6292 0.02367 0.0
N749 N 0.77252 0.67519 0.95134 0.0
H750 H 0.80087 0.27835 0.44038 0.0
H751 H 0.89987 0.26166 0.59824 0.0
H752 H 0.79823 0.26712 0.585 0.0
H753 H 0.90304 0.27796 0.45625 0.0
H754 H 0.86262 0.26327 0.59363 0.0
H755 H 0.8382 0.27788 0.44513 0.0
C756 C 0.80809 0.27582 0.47318 0.0
C757 C 0.79627 0.27273 0.51235 0.0
C758 C 0.87144 0.26653 0.56347 0.0
C759 C 0.83916 0.27211 0.51792 0.0
C760 C 0.89277 0.26573 0.56613 0.0
C761 C 0.90471 0.26975 0.52761 0.0
C762 C 0.86185 0.27133 0.52194 0.0
C763 C 0.89452 0.27451 0.48671 0.0
C764 C 0.82945 0.27556 0.47583 0.0
C765 C 0.80661 0.26956 0.55386 0.0
N766 N 0.87371 0.27517 0.48497 0.0
N767 N 0.82741 0.26929 0.55549 0.0
H768 H 0.72295 0.20307 0.57224 0.0
H769 H 0.73513 0.10392 0.41315 0.0
H770 H 0.73296 0.20544 0.42712 0.0
H771 H 0.72132 0.10095 0.5565 0.0
H772 H 0.73427 0.14114 0.41793 0.0
H773 H 0.72224 0.16577 0.56742 0.0
C774 C 0.72495 0.1958 0.53932 0.0
C775 C 0.72808 0.20752 0.50003 0.0
C776 C 0.73138 0.13237 0.44836 0.0
C777 C 0.72733 0.16468 0.49439 0.0
C778 C 0.73174 0.11107 0.44561 0.0
C779 C 0.7282 0.09919 0.48445 0.0
C780 C 0.72751 0.14201 0.49029 0.0
C781 C 0.72435 0.10943 0.52576 0.0
C782 C 0.72454 0.17446 0.53663 0.0
C783 C 0.73053 0.19713 0.45837 0.0
N784 N 0.72411 0.13023 0.52758 0.0
N785 N 0.73016 0.17635 0.4567 0.0
H786 H 0.30036 0.23592 0.93926 0.0
H787 H 0.39971 0.23111 0.10024 0.0
H788 H 0.29766 0.2297 0.08545 0.0
H789 H 0.4018 0.2448 0.95672 0.0
H790 H 0.3625 0.22852 0.0948 0.0
H791 H 0.33762 0.23687 0.94436 0.0
C792 C 0.30755 0.23468 0.97248 0.0
C793 C 0.29573 0.2328 0.01203 0.0
C794 C 0.37109 0.23207 0.06448 0.0
C795 C 0.3386 0.2339 0.01801 0.0
C796 C 0.39237 0.23368 0.06759 0.0
C797 C 0.404 0.23831 0.02892 0.0
C798 C 0.36126 0.23504 0.02237 0.0
C799 C 0.39357 0.241 0.98736 0.0
C800 C 0.32889 0.23527 0.97533 0.0
C801 C 0.30606 0.23124 0.05403 0.0
N802 N 0.37283 0.23937 0.98523 0.0
N803 N 0.32686 0.23185 0.0559 0.0
H804 H 0.26965 0.80304 0.43567 0.0
H805 H 0.27545 0.90227 0.59658 0.0
H806 H 0.27395 0.80054 0.58239 0.0
H807 H 0.26092 0.90469 0.45303 0.0
H808 H 0.27747 0.86509 0.59103 0.0
H809 H 0.26923 0.84035 0.44042 0.0
C810 C 0.27059 0.81029 0.4689 0.0
C811 C 0.27177 0.79853 0.50872 0.0
C812 C 0.27384 0.87375 0.56073 0.0
C813 C 0.27129 0.84136 0.5143 0.0
C814 C 0.27256 0.89502 0.5639 0.0
C815 C 0.26785 0.90673 0.52527 0.0
C816 C 0.27049 0.86401 0.51857 0.0
C817 C 0.26477 0.89639 0.48365 0.0
C818 C 0.27029 0.83163 0.47156 0.0
C819 C 0.27293 0.80889 0.55076 0.0
N820 N 0.26611 0.87564 0.48143 0.0
N821 N 0.27266 0.82967 0.55242 0.0
H822 H 0.70103 0.77464 0.06755 0.0
H823 H 0.60194 0.76395 0.90719 0.0
H824 H 0.70358 0.77009 0.92088 0.0
H825 H 0.59889 0.77614 0.05169 0.0
H826 H 0.63919 0.76536 0.91199 0.0
H827 H 0.6637 0.77438 0.06283 0.0
C828 C 0.69379 0.77362 0.03431 0.0
C829 C 0.70557 0.77234 0.99454 0.0
C830 C 0.63039 0.76777 0.94266 0.0
C831 C 0.66269 0.77197 0.98899 0.0
C832 C 0.60906 0.76707 0.93993 0.0
C833 C 0.59715 0.77001 0.97908 0.0
C834 C 0.64001 0.77133 0.9849 0.0
C835 C 0.60738 0.77355 0.02068 0.0
C836 C 0.67243 0.77349 0.03168 0.0
C837 C 0.69522 0.77111 0.95249 0.0
N838 N 0.62818 0.7741 0.02248 0.0
N839 N 0.67441 0.77089 0.95086 0.0
loop_
_geom_bond_atom_site_label_1
_geom_bond_atom_site_label_2
_geom_bond_distance
_geom_bond_site_symmetry_2
_ccdc_geom_bond_type
Sc0 O3 2.025 . S
Sc0 O10 2.105 . S
Sc0 O13 2.105 . S
Sc0 O16 2.105 . S
Sc0 O19 2.105 . S
Sc1 O3 2.025 . S
Sc1 O11 2.120 . S
Sc1 O15 2.089 1_554 S
Sc1 O17 2.120 . S
Sc1 O21 2.089 1_554 S
Sc2 O3 2.025 1_556 S
Sc2 O12 2.105 . S
Sc2 O14 2.105 . S
Sc2 O18 2.105 . S
Sc2 O20 2.105 . S
O3 Sc0 2.025 . S
O3 Sc1 2.025 . S
O3 Sc2 2.025 1_554 S
C4 O10 1.268 . S
C4 O20 1.268 1_554 S
C5 O11 1.268 . S
C5 O19 1.268 . S
C6 O12 1.268 . S
C6 O21 1.268 . S
C7 O13 1.268 . S
C7 O17 1.268 . S
C8 O14 1.268 1_554 S
C8 O16 1.268 . S
C9 O15 1.268 . S
C9 O18 1.268 . S
O10 Sc0 2.105 . S
O10 C4 1.268 . S
O11 Sc1 2.120 . S
O11 C5 1.268 . S
O12 Sc2 2.105 . S
O12 C6 1.268 . S
O13 Sc0 2.105 . S
O13 C7 1.268 . S
O14 Sc2 2.105 . S
O14 C8 1.268 1_556 S
O15 Sc1 2.089 1_556 S
O15 C9 1.268 . S
O16 Sc0 2.105 . S
O16 C8 1.268 . S
O17 Sc1 2.120 . S
O17 C7 1.268 . S
O18 Sc2 2.105 . S
O18 C9 1.268 . S
O19 Sc0 2.105 . S
O19 C5 1.268 . S
O20 Sc2 2.105 . S
O20 C4 1.268 1_556 S
O21 Sc1 2.089 1_556 S
O21 C6 1.268 . S
Sc22 O25 2.025 . S
Sc22 O32 2.105 . S
Sc22 O35 2.105 . S
Sc22 O38 2.105 . S
Sc22 O41 2.105 . S
Sc23 O25 2.025 . S
Sc23 O33 2.105 . S
Sc23 O37 2.105 . S
Sc23 O39 2.105 . S
Sc23 O43 2.105 . S
Sc24 O25 2.025 . S
Sc24 O34 2.105 . S
Sc24 O36 2.105 . S
Sc24 O40 2.105 . S
Sc24 O42 2.105 . S
O25 Sc22 2.025 . S
O25 Sc23 2.025 . S
O25 Sc24 2.025 . S
C26 O32 1.268 . S
C26 O42 1.268 . S
C27 O33 1.268 . S
C27 O41 1.268 . S
C28 O34 1.268 . S
C28 O43 1.268 . S
C29 O35 1.268 . S
C29 O39 1.268 . S
C30 O36 1.268 . S
C30 O38 1.268 . S
C31 O37 1.268 . S
C31 O40 1.268 . S
O32 Sc22 2.105 . S
O32 C26 1.268 . S
O33 Sc23 2.105 . S
O33 C27 1.268 . S
O34 Sc24 2.105 . S
O34 C28 1.268 . S
O35 Sc22 2.105 . S
O35 C29 1.268 . S
O36 Sc24 2.105 . S
O36 C30 1.268 . S
O37 Sc23 2.105 . S
O37 C31 1.268 . S
O38 Sc22 2.105 . S
O38 C30 1.268 . S
O39 Sc23 2.105 . S
O39 C29 1.268 . S
O40 Sc24 2.105 . S
O40 C31 1.268 . S
O41 Sc22 2.105 . S
O41 C27 1.268 . S
O42 Sc24 2.105 . S
O42 C26 1.268 . S
O43 Sc23 2.105 . S
O43 C28 1.268 . S
Sc44 O47 2.025 1_556 S
Sc44 O54 2.105 . S
Sc44 O57 2.105 . S
Sc44 O60 2.105 . S
Sc44 O63 2.105 . S
Sc45 O47 2.025 . S
Sc45 O55 2.105 1_554 S
Sc45 O59 2.105 . S
Sc45 O61 2.105 1_554 S
Sc45 O65 2.105 . S
Sc46 O47 2.025 . S
Sc46 O56 2.105 . S
Sc46 O58 2.105 . S
Sc46 O62 2.105 . S
Sc46 O64 2.105 . S
O47 Sc44 2.025 1_554 S
O47 Sc45 2.025 . S
O47 Sc46 2.025 . S
C48 O54 1.268 1_554 S
C48 O64 1.268 . S
C49 O55 1.268 . S
C49 O63 1.268 . S
C50 O56 1.268 . S
C50 O65 1.268 . S
C51 O57 1.268 . S
C51 O61 1.268 . S
C52 O58 1.268 . S
C52 O60 1.268 1_554 S
C53 O59 1.268 . S
C53 O62 1.268 . S
O54 Sc44 2.105 . S
O54 C48 1.268 1_556 S
O55 Sc45 2.105 1_556 S
O55 C49 1.268 . S
O56 Sc46 2.105 . S
O56 C50 1.268 . S
O57 Sc44 2.105 . S
O57 C51 1.268 . S
O58 Sc46 2.105 . S
O58 C52 1.268 . S
O59 Sc45 2.105 . S
O59 C53 1.268 . S
O60 Sc44 2.105 . S
O60 C52 1.268 1_556 S
O61 Sc45 2.105 1_556 S
O61 C51 1.268 . S
O62 Sc46 2.105 . S
O62 C53 1.268 . S
O63 Sc44 2.105 . S
O63 C49 1.268 . S
O64 Sc46 2.105 . S
O64 C48 1.268 . S
O65 Sc45 2.105 . S
O65 C50 1.268 . S
Sc66 O69 2.025 . S
Sc66 O76 2.105 . S
Sc66 O79 2.105 . S
Sc66 O82 2.105 . S
Sc66 O85 2.105 . S
Sc67 O69 2.025 . S
Sc67 O77 2.105 . S
Sc67 O81 2.105 . S
Sc67 O83 2.105 . S
Sc67 O87 2.105 . S
Sc68 O69 2.025 . S
Sc68 O78 2.105 . S
Sc68 O80 2.105 . S
Sc68 O84 2.105 . S
Sc68 O86 2.105 . S
O69 Sc66 2.025 . S
O69 Sc67 2.025 . S
O69 Sc68 2.025 . S
C70 O76 1.268 . S
C70 O86 1.268 . S
C71 O77 1.268 . S
C71 O85 1.268 . S
C72 O78 1.268 . S
C72 O87 1.268 . S
C73 O79 1.268 . S
C73 O83 1.268 . S
C74 O80 1.268 . S
C74 O82 1.268 . S
C75 O81 1.268 . S
C75 O84 1.268 . S
O76 Sc66 2.105 . S
O76 C70 1.268 . S
O77 Sc67 2.105 . S
O77 C71 1.268 . S
O78 Sc68 2.105 . S
O78 C72 1.268 . S
O79 Sc66 2.105 . S
O79 C73 1.268 . S
O80 Sc68 2.105 . S
O80 C74 1.268 . S
O81 Sc67 2.105 . S
O81 C75 1.268 . S
O82 Sc66 2.105 . S
O82 C74 1.268 . S
O83 Sc67 2.105 . S
O83 C73 1.268 . S
O84 Sc68 2.105 . S
O84 C75 1.268 . S
O85 Sc66 2.105 . S
O85 C71 1.268 . S
O86 Sc68 2.105 . S
O86 C70 1.268 . S
O87 Sc67 2.105 . S
O87 C72 1.268 . S
C88 C89 1.264 . S
C88 C93 1.479 . S
C88 C98 1.465 . S
C89 C88 1.264 . S
C89 C91 1.339 . S
C89 H116 0.931 . S
C90 C91 1.395 . S
C90 C92 1.320 . S
C91 C89 1.339 . S
C91 C90 1.395 . S
C91 H117 0.929 . S
C92 C90 1.320 . S
C92 C93 1.405 . S
C92 H118 0.930 . S
C93 C88 1.479 . S
C93 C92 1.405 . S
C93 H119 0.931 . S
U94 O95 2.454 . S
U94 O96 2.458 1_556 S
U94 C97 2.984 . S
U94 C98 2.847 . S
U94 C111 2.882 1_556 S
U94 O112 2.441 . S
U94 O113 2.420 . S
U94 O114 2.455 1_556 S
U94 O115 2.449 1_556 S
O95 U94 2.454 . S
O95 C97 1.353 . S
O96 U94 2.458 1_554 S
O96 C97 1.286 1_554 S
C97 U94 2.984 . S
C97 O95 1.353 . S
C97 O96 1.286 1_556 S
C97 C99 1.363 . S
C98 C88 1.465 . S
C98 U94 2.847 . S
C98 O112 1.249 . S
C98 O113 1.202 . S
C99 C97 1.363 . S
C99 C101 1.416 . S
C99 C104 1.334 1_556 S
C100 C101 1.310 . S
C100 C103 1.461 1_556 S
C100 H120 0.932 . S
C101 C99 1.416 . S
C101 C100 1.310 . S
C101 H121 0.930 . S
C102 C103 1.474 . S
C102 C104 1.285 . S
C102 H122 0.929 . S
C103 C100 1.461 1_554 S
C103 C102 1.474 . S
C104 C99 1.334 1_554 S
C104 C102 1.285 . S
C104 H123 0.930 . S
C105 C108 1.424 . S
C105 C110 1.245 . S
C105 C111 1.428 . S
C106 C109 1.260 . S
C106 C110 1.477 . S
C106 H124 0.932 . S
C107 C108 1.384 . S
C107 C109 1.479 . S
C107 H125 0.929 . S
C108 C105 1.424 . S
C108 C107 1.384 . S
C108 H126 0.928 . S
C109 C106 1.260 . S
C109 C107 1.479 . S
C110 C105 1.245 . S
C110 C106 1.477 . S
C110 H127 0.932 . S
C111 U94 2.882 1_554 S
C111 C105 1.428 . S
C111 O114 1.301 . S
C111 O115 1.282 . S
O112 U94 2.441 . S
O112 C98 1.249 . S
O113 U94 2.420 . S
O113 C98 1.202 . S
O114 U94 2.455 1_554 S
O114 C111 1.301 . S
O115 U94 2.449 1_554 S
O115 C111 1.282 . S
H116 C89 0.931 . S
H117 C91 0.929 . S
H118 C92 0.930 . S
H119 C93 0.931 . S
H120 C100 0.932 . S
H121 C101 0.930 . S
H122 C102 0.929 . S
H123 C104 0.930 . S
H124 C106 0.932 . S
H125 C107 0.929 . S
H126 C108 0.928 . S
H127 C110 0.932 . S
C128 C129 1.264 . S
C128 C133 1.479 . S
C128 C138 1.465 . S
C129 C128 1.264 . S
C129 C131 1.339 . S
C129 H156 0.931 . S
C130 C131 1.395 . S
C130 C132 1.320 . S
C131 C129 1.339 . S
C131 C130 1.395 . S
C131 H157 0.929 . S
C132 C130 1.320 . S
C132 C133 1.405 . S
C132 H158 0.930 . S
C133 C128 1.479 . S
C133 C132 1.405 . S
C133 H159 0.931 . S
U134 O135 2.454 1_655 S
U134 O136 2.458 1_655 S
U134 C137 2.984 1_655 S
U134 C138 2.847 . S
U134 C151 2.882 . S
U134 O152 2.441 . S
U134 O153 2.420 . S
U134 O154 2.455 . S
U134 O155 2.449 . S
O135 U134 2.454 1_455 S
O135 C137 1.353 . S
O136 U134 2.458 1_455 S
O136 C137 1.286 . S
C137 U134 2.984 1_455 S
C137 O135 1.353 . S
C137 O136 1.286 . S
C137 C139 1.363 . S
C138 C128 1.465 . S
C138 U134 2.847 . S
C138 O152 1.249 . S
C138 O153 1.202 . S
C139 C137 1.363 . S
C139 C141 1.408 . S
C139 C144 1.342 . S
C140 C141 1.310 . S
C140 C143 1.461 . S
C140 H160 0.932 . S
C141 C139 1.408 . S
C141 C140 1.310 . S
C141 H161 0.930 . S
C142 C143 1.474 . S
C142 C144 1.285 . S
C142 H162 0.929 . S
C143 C140 1.461 . S
C143 C142 1.474 . S
C144 C139 1.342 . S
C144 C142 1.285 . S
C144 H163 0.930 . S
C145 C148 1.424 . S
C145 C150 1.245 . S
C145 C151 1.428 . S
C146 C149 1.260 . S
C146 C150 1.477 . S
C146 H164 0.932 . S
C147 C148 1.384 . S
C147 C149 1.479 . S
C147 H165 0.929 . S
C148 C145 1.424 . S
C148 C147 1.384 . S
C148 H166 0.928 . S
C149 C146 1.260 . S
C149 C147 1.479 . S
C150 C145 1.245 . S
C150 C146 1.477 . S
C150 H167 0.932 . S
C151 U134 2.882 . S
C151 C145 1.428 . S
C151 O154 1.301 . S
C151 O155 1.282 . S
O152 U134 2.441 . S
O152 C138 1.249 . S
O153 U134 2.420 . S
O153 C138 1.202 . S
O154 U134 2.455 . S
O154 C151 1.301 . S
O155 U134 2.449 . S
O155 C151 1.282 . S
H156 C129 0.931 . S
H157 C131 0.929 . S
H158 C132 0.930 . S
H159 C133 0.931 . S
H160 C140 0.932 . S
H161 C141 0.930 . S
H162 C142 0.929 . S
H163 C144 0.930 . S
H164 C146 0.932 . S
H165 C147 0.929 . S
H166 C148 0.928 . S
H167 C150 0.932 . S
C168 C169 1.264 . S
C168 C173 1.479 . S
C168 C178 1.465 . S
C169 C168 1.264 . S
C169 C171 1.339 . S
C169 H196 0.931 . S
C170 C171 1.395 . S
C170 C172 1.320 . S
C171 C169 1.339 . S
C171 C170 1.395 . S
C171 H197 0.929 . S
C172 C170 1.320 . S
C172 C173 1.405 . S
C172 H198 0.930 . S
C173 C168 1.479 . S
C173 C172 1.405 . S
C173 H199 0.931 . S
U174 O175 2.454 . S
U174 O176 2.458 1_554 S
U174 C177 2.984 . S
U174 C178 2.847 . S
U174 C191 2.882 1_554 S
U174 O192 2.441 . S
U174 O193 2.420 . S
U174 O194 2.455 1_554 S
U174 O195 2.449 1_554 S
O175 U174 2.454 . S
O175 C177 1.353 . S
O176 U174 2.458 1_556 S
O176 C177 1.286 1_556 S
C177 U174 2.984 . S
C177 O175 1.353 . S
C177 O176 1.286 1_554 S
C177 C179 1.363 . S
C178 C168 1.465 . S
C178 U174 2.847 . S
C178 O192 1.249 . S
C178 O193 1.202 . S
C179 C177 1.363 . S
C179 C181 1.408 . S
C179 C184 1.342 1_554 S
C180 C181 1.310 . S
C180 C183 1.461 . S
C180 H200 0.932 . S
C181 C179 1.408 . S
C181 C180 1.310 . S
C181 H201 0.930 . S
C182 C183 1.474 1_556 S
C182 C184 1.285 . S
C182 H202 0.929 . S
C183 C180 1.461 . S
C183 C182 1.474 1_554 S
C184 C179 1.342 1_556 S
C184 C182 1.285 . S
C184 H203 0.930 . S
C185 C188 1.424 . S
C185 C190 1.245 . S
C185 C191 1.428 . S
C186 C189 1.260 . S
C186 C190 1.477 . S
C186 H204 0.932 . S
C187 C188 1.384 . S
C187 C189 1.479 . S
C187 H205 0.929 . S
C188 C185 1.424 . S
C188 C187 1.384 . S
C188 H206 0.928 . S
C189 C186 1.260 . S
C189 C187 1.479 . S
C190 C185 1.245 . S
C190 C186 1.477 . S
C190 H207 0.932 . S
C191 U174 2.882 1_556 S
C191 C185 1.428 . S
C191 O194 1.301 . S
C191 O195 1.282 . S
O192 U174 2.441 . S
O192 C178 1.249 . S
O193 U174 2.420 . S
O193 C178 1.202 . S
O194 U174 2.455 1_556 S
O194 C191 1.301 . S
O195 U174 2.449 1_556 S
O195 C191 1.282 . S
H196 C169 0.931 . S
H197 C171 0.929 . S
H198 C172 0.930 . S
H199 C173 0.931 . S
H200 C180 0.932 . S
H201 C181 0.930 . S
H202 C182 0.929 . S
H203 C184 0.930 . S
H204 C186 0.932 . S
H205 C187 0.929 . S
H206 C188 0.928 . S
H207 C190 0.932 . S
C208 C209 1.264 . S
C208 C213 1.479 . S
C208 C218 1.465 . S
C209 C208 1.264 . S
C209 C211 1.339 . S
C209 H236 0.931 . S
C210 C211 1.395 . S
C210 C212 1.320 . S
C211 C209 1.339 . S
C211 C210 1.395 . S
C211 H237 0.929 . S
C212 C210 1.320 . S
C212 C213 1.405 . S
C212 H238 0.930 . S
C213 C208 1.479 . S
C213 C212 1.405 . S
C213 H239 0.931 . S
U214 O215 2.454 1_455 S
U214 O216 2.458 1_455 S
U214 C217 2.984 1_455 S
U214 C218 2.847 . S
U214 C231 2.882 . S
U214 O232 2.441 . S
U214 O233 2.420 . S
U214 O234 2.455 . S
U214 O235 2.449 . S
O215 U214 2.454 1_655 S
O215 C217 1.353 . S
O216 U214 2.458 1_655 S
O216 C217 1.286 . S
C217 U214 2.984 1_655 S
C217 O215 1.353 . S
C217 O216 1.286 . S
C217 C219 1.363 . S
C218 C208 1.465 . S
C218 U214 2.847 . S
C218 O232 1.249 . S
C218 O233 1.202 . S
C219 C217 1.363 . S
C219 C221 1.408 . S
C219 C224 1.342 . S
C220 C221 1.310 . S
C220 C223 1.461 . S
C220 H240 0.932 . S
C221 C219 1.408 . S
C221 C220 1.310 . S
C221 H241 0.930 . S
C222 C223 1.474 . S
C222 C224 1.285 . S
C222 H242 0.929 . S
C223 C220 1.461 . S
C223 C222 1.474 . S
C224 C219 1.342 . S
C224 C222 1.285 . S
C224 H243 0.930 . S
C225 C228 1.424 . S
C225 C230 1.245 . S
C225 C231 1.428 . S
C226 C229 1.260 . S
C226 C230 1.477 . S
C226 H244 0.932 . S
C227 C228 1.384 . S
C227 C229 1.479 . S
C227 H245 0.929 . S
C228 C225 1.424 . S
C228 C227 1.384 . S
C228 H246 0.928 . S
C229 C226 1.260 . S
C229 C227 1.479 . S
C230 C225 1.245 . S
C230 C226 1.477 . S
C230 H247 0.932 . S
C231 U214 2.882 . S
C231 C225 1.428 . S
C231 O234 1.301 . S
C231 O235 1.282 . S
O232 U214 2.441 . S
O232 C218 1.249 . S
O233 U214 2.420 . S
O233 C218 1.202 . S
O234 U214 2.455 . S
O234 C231 1.301 . S
O235 U214 2.449 . S
O235 C231 1.282 . S
H236 C209 0.931 . S
H237 C211 0.929 . S
H238 C212 0.930 . S
H239 C213 0.931 . S
H240 C220 0.932 . S
H241 C221 0.930 . S
H242 C222 0.929 . S
H243 C224 0.930 . S
H244 C226 0.932 . S
H245 C227 0.929 . S
H246 C228 0.928 . S
H247 C230 0.932 . S
C248 C249 1.264 . S
C248 C253 1.479 . S
C248 C258 1.465 . S
C249 C248 1.264 . S
C249 C251 1.339 . S
C249 H276 0.931 . S
C250 C251 1.395 . S
C250 C252 1.320 . S
C251 C249 1.339 . S
C251 C250 1.395 . S
C251 H277 0.929 . S
C252 C250 1.320 . S
C252 C253 1.405 . S
C252 H278 0.930 . S
C253 C248 1.479 . S
C253 C252 1.405 . S
C253 H279 0.931 . S
U254 O255 2.454 1_565 S
U254 O256 2.458 1_565 S
U254 C257 2.984 1_565 S
U254 C258 2.847 . S
U254 C271 2.882 . S
U254 O272 2.441 . S
U254 O273 2.420 . S
U254 O274 2.455 . S
U254 O275 2.449 . S
O255 U254 2.454 1_545 S
O255 C257 1.353 . S
O256 U254 2.458 1_545 S
O256 C257 1.286 . S
C257 U254 2.984 1_545 S
C257 O255 1.353 . S
C257 O256 1.286 . S
C257 C259 1.363 . S
C258 C248 1.465 . S
C258 U254 2.847 . S
C258 O272 1.249 . S
C258 O273 1.202 . S
C259 C257 1.363 . S
C259 C261 1.408 . S
C259 C264 1.342 . S
C260 C261 1.310 . S
C260 C263 1.461 . S
C260 H280 0.932 . S
C261 C259 1.408 . S
C261 C260 1.310 . S
C261 H281 0.930 . S
C262 C263 1.474 . S
C262 C264 1.285 . S
C262 H282 0.929 . S
C263 C260 1.461 . S
C263 C262 1.474 . S
C264 C259 1.342 . S
C264 C262 1.285 . S
C264 H283 0.930 . S
C265 C268 1.424 . S
C265 C270 1.245 . S
C265 C271 1.428 . S
C266 C269 1.260 . S
C266 C270 1.477 . S
C266 H284 0.932 . S
C267 C268 1.384 . S
C267 C269 1.479 . S
C267 H285 0.929 . S
C268 C265 1.424 . S
C268 C267 1.384 . S
C268 H286 0.928 . S
C269 C266 1.260 . S
C269 C267 1.479 . S
C270 C265 1.245 . S
C270 C266 1.477 . S
C270 H287 0.932 . S
C271 U254 2.882 . S
C271 C265 1.428 . S
C271 O274 1.301 . S
C271 O275 1.282 . S
O272 U254 2.441 . S
O272 C258 1.249 . S
O273 U254 2.420 . S
O273 C258 1.202 . S
O274 U254 2.455 . S
O274 C271 1.301 . S
O275 U254 2.449 . S
O275 C271 1.282 . S
H276 C249 0.931 . S
H277 C251 0.929 . S
H278 C252 0.930 . S
H279 C253 0.931 . S
H280 C260 0.932 . S
H281 C261 0.930 . S
H282 C262 0.929 . S
H283 C264 0.930 . S
H284 C266 0.932 . S
H285 C267 0.929 . S
H286 C268 0.928 . S
H287 C270 0.932 . S
C288 C289 1.264 . S
C288 C293 1.479 . S
C288 C298 1.465 . S
C289 C288 1.264 . S
C289 C291 1.339 . S
C289 H316 0.931 . S
C290 C291 1.395 . S
C290 C292 1.320 . S
C291 C289 1.339 . S
C291 C290 1.395 . S
C291 H317 0.929 . S
C292 C290 1.320 . S
C292 C293 1.405 . S
C292 H318 0.930 . S
C293 C288 1.479 . S
C293 C292 1.405 . S
C293 H319 0.931 . S
U294 O295 2.454 . S
U294 O296 2.458 1_556 S
U294 C297 2.984 . S
U294 C298 2.847 . S
U294 C311 2.882 1_556 S
U294 O312 2.441 . S
U294 O313 2.420 . S
U294 O314 2.455 1_556 S
U294 O315 2.449 1_556 S
O295 U294 2.454 . S
O295 C297 1.353 . S
O296 U294 2.458 1_554 S
O296 C297 1.286 1_554 S
C297 U294 2.984 . S
C297 O295 1.353 . S
C297 O296 1.286 1_556 S
C297 C299 1.363 . S
C298 C288 1.465 . S
C298 U294 2.847 . S
C298 O312 1.249 . S
C298 O313 1.202 . S
C299 C297 1.363 . S
C299 C301 1.412 . S
C299 C304 1.337 1_556 S
C300 C301 1.310 . S
C300 C303 1.461 1_556 S
C300 H320 0.932 . S
C301 C299 1.412 . S
C301 C300 1.310 . S
C301 H321 0.930 . S
C302 C303 1.474 . S
C302 C304 1.285 . S
C302 H322 0.929 . S
C303 C300 1.461 1_554 S
C303 C302 1.474 . S
C304 C299 1.337 1_554 S
C304 C302 1.285 . S
C304 H323 0.930 . S
C305 C308 1.424 . S
C305 C310 1.245 . S
C305 C311 1.428 . S
C306 C309 1.260 . S
C306 C310 1.477 . S
C306 H324 0.932 . S
C307 C308 1.384 . S
C307 C309 1.479 . S
C307 H325 0.929 . S
C308 C305 1.424 . S
C308 C307 1.384 . S
C308 H326 0.928 . S
C309 C306 1.260 . S
C309 C307 1.479 . S
C310 C305 1.245 . S
C310 C306 1.477 . S
C310 H327 0.932 . S
C311 U294 2.882 1_554 S
C311 C305 1.428 . S
C311 O314 1.301 . S
C311 O315 1.282 . S
O312 U294 2.441 . S
O312 C298 1.249 . S
O313 U294 2.420 . S
O313 C298 1.202 . S
O314 U294 2.455 1_554 S
O314 C311 1.301 . S
O315 U294 2.449 1_554 S
O315 C311 1.282 . S
H316 C289 0.931 . S
H317 C291 0.929 . S
H318 C292 0.930 . S
H319 C293 0.931 . S
H320 C300 0.932 . S
H321 C301 0.930 . S
H322 C302 0.929 . S
H323 C304 0.930 . S
H324 C306 0.932 . S
H325 C307 0.929 . S
H326 C308 0.928 . S
H327 C310 0.932 . S
C328 C329 1.264 . S
C328 C333 1.479 . S
C328 C338 1.465 . S
C329 C328 1.264 . S
C329 C331 1.339 . S
C329 H356 0.931 . S
C330 C331 1.395 . S
C330 C332 1.320 . S
C331 C329 1.339 . S
C331 C330 1.395 . S
C331 H357 0.929 . S
C332 C330 1.320 . S
C332 C333 1.405 . S
C332 H358 0.930 . S
C333 C328 1.479 . S
C333 C332 1.405 . S
C333 H359 0.931 . S
U334 O335 2.454 1_545 S
U334 O336 2.458 1_545 S
U334 C337 2.984 1_545 S
U334 C338 2.847 . S
U334 C351 2.882 . S
U334 O352 2.441 . S
U334 O353 2.420 . S
U334 O354 2.455 . S
U334 O355 2.449 . S
O335 U334 2.454 1_565 S
O335 C337 1.353 . S
O336 U334 2.458 1_565 S
O336 C337 1.286 . S
C337 U334 2.984 1_565 S
C337 O335 1.353 . S
C337 O336 1.286 . S
C337 C339 1.363 . S
C338 C328 1.465 . S
C338 U334 2.847 . S
C338 O352 1.249 . S
C338 O353 1.202 . S
C339 C337 1.363 . S
C339 C341 1.408 . S
C339 C344 1.342 . S
C340 C341 1.310 . S
C340 C343 1.461 . S
C340 H360 0.932 . S
C341 C339 1.408 . S
C341 C340 1.310 . S
C341 H361 0.930 . S
C342 C343 1.474 . S
C342 C344 1.285 . S
C342 H362 0.929 . S
C343 C340 1.461 . S
C343 C342 1.474 . S
C344 C339 1.342 . S
C344 C342 1.285 . S
C344 H363 0.930 . S
C345 C348 1.424 . S
C345 C350 1.245 . S
C345 C351 1.428 . S
C346 C349 1.260 . S
C346 C350 1.477 . S
C346 H364 0.932 . S
C347 C348 1.384 . S
C347 C349 1.479 . S
C347 H365 0.929 . S
C348 C345 1.424 . S
C348 C347 1.384 . S
C348 H366 0.928 . S
C349 C346 1.260 . S
C349 C347 1.479 . S
C350 C345 1.245 . S
C350 C346 1.477 . S
C350 H367 0.932 . S
C351 U334 2.882 . S
C351 C345 1.428 . S
C351 O354 1.301 . S
C351 O355 1.282 . S
O352 U334 2.441 . S
O352 C338 1.249 . S
O353 U334 2.420 . S
O353 C338 1.202 . S
O354 U334 2.455 . S
O354 C351 1.301 . S
O355 U334 2.449 . S
O355 C351 1.282 . S
H356 C329 0.931 . S
H357 C331 0.929 . S
H358 C332 0.930 . S
H359 C333 0.931 . S
H360 C340 0.932 . S
H361 C341 0.930 . S
H362 C342 0.929 . S
H363 C344 0.930 . S
H364 C346 0.932 . S
H365 C347 0.929 . S
H366 C348 0.928 . S
H367 C350 0.932 . S
C368 C369 1.264 . S
C368 C373 1.479 . S
C368 C378 1.465 . S
C369 C368 1.264 . S
C369 C371 1.339 . S
C369 H396 0.931 . S
C370 C371 1.395 . S
C370 C372 1.320 . S
C371 C369 1.339 . S
C371 C370 1.395 . S
C371 H397 0.929 . S
C372 C370 1.320 . S
C372 C373 1.405 . S
C372 H398 0.930 . S
C373 C368 1.479 . S
C373 C372 1.405 . S
C373 H399 0.931 . S
U374 O375 2.454 . S
U374 O376 2.458 1_554 S
U374 C377 2.984 . S
U374 C378 2.847 . S
U374 C391 2.882 1_554 S
U374 O392 2.441 . S
U374 O393 2.420 . S
U374 O394 2.455 1_554 S
U374 O395 2.449 1_554 S
O375 U374 2.454 . S
O375 C377 1.353 . S
O376 U374 2.458 1_556 S
O376 C377 1.286 1_556 S
C377 U374 2.984 . S
C377 O375 1.353 . S
C377 O376 1.286 1_554 S
C377 C379 1.363 . S
C378 C368 1.465 . S
C378 U374 2.847 . S
C378 O392 1.249 . S
C378 O393 1.202 . S
C379 C377 1.363 . S
C379 C381 1.408 . S
C379 C384 1.342 1_554 S
C380 C381 1.310 . S
C380 C383 1.461 . S
C380 H400 0.932 . S
C381 C379 1.408 . S
C381 C380 1.310 . S
C381 H401 0.930 . S
C382 C383 1.474 1_556 S
C382 C384 1.285 . S
C382 H402 0.929 . S
C383 C380 1.461 . S
C383 C382 1.474 1_554 S
C384 C379 1.342 1_556 S
C384 C382 1.285 . S
C384 H403 0.930 . S
C385 C388 1.424 . S
C385 C390 1.245 . S
C385 C391 1.428 . S
C386 C389 1.260 . S
C386 C390 1.477 . S
C386 H404 0.932 . S
C387 C388 1.384 . S
C387 C389 1.479 . S
C387 H405 0.929 . S
C388 C385 1.424 . S
C388 C387 1.384 . S
C388 H406 0.928 . S
C389 C386 1.260 . S
C389 C387 1.479 . S
C390 C385 1.245 . S
C390 C386 1.477 . S
C390 H407 0.932 . S
C391 U374 2.882 1_556 S
C391 C385 1.428 . S
C391 O394 1.301 . S
C391 O395 1.282 . S
O392 U374 2.441 . S
O392 C378 1.249 . S
O393 U374 2.420 . S
O393 C378 1.202 . S
O394 U374 2.455 1_556 S
O394 C391 1.301 . S
O395 U374 2.449 1_556 S
O395 C391 1.282 . S
H396 C369 0.931 . S
H397 C371 0.929 . S
H398 C372 0.930 . S
H399 C373 0.931 . S
H400 C380 0.932 . S
H401 C381 0.930 . S
H402 C382 0.929 . S
H403 C384 0.930 . S
H404 C386 0.932 . S
H405 C387 0.929 . S
H406 C388 0.928 . S
H407 C390 0.932 . S
H408 C414 0.930 . S
H409 C418 0.930 . S
H410 C423 0.929 . S
H411 C421 0.929 . S
H412 C416 0.929 . S
H413 C422 0.929 . S
C414 H408 0.930 . S
C414 C415 1.367 . S
C414 C422 1.378 . S
C415 C414 1.367 . S
C415 C423 1.433 . S
C416 H412 0.929 . S
C416 C418 1.378 . S
C416 C420 1.350 . S
C417 C420 1.463 . S
C417 C422 1.350 . S
C417 N425 1.427 . S
C418 H409 0.930 . S
C418 C416 1.378 . S
C418 C419 1.367 . S
C419 C418 1.367 . S
C419 C421 1.433 . S
C420 C416 1.350 . S
C420 C417 1.463 . S
C420 N424 1.427 . S
C421 H411 0.929 . S
C421 C419 1.433 . S
C421 N424 1.384 . S
C422 H413 0.929 . S
C422 C414 1.378 . S
C422 C417 1.350 . S
C423 H410 0.929 . S
C423 C415 1.433 . S
C423 N425 1.384 . S
N424 C420 1.427 . S
N424 C421 1.384 . S
N425 C417 1.427 . S
N425 C423 1.384 . S
H426 C432 0.930 . S
H427 C436 0.930 . S
H428 C441 0.929 . S
H429 C439 0.929 . S
H430 C434 0.929 . S
H431 C440 0.929 . S
C432 H426 0.930 . S
C432 C433 1.367 . S
C432 C440 1.378 . S
C433 C432 1.367 . S
C433 C441 1.433 . S
C434 H430 0.929 . S
C434 C436 1.378 . S
C434 C438 1.350 . S
C435 C438 1.463 . S
C435 C440 1.350 . S
C435 N443 1.427 . S
C436 H427 0.930 . S
C436 C434 1.378 . S
C436 C437 1.367 . S
C437 C436 1.367 . S
C437 C439 1.433 . S
C438 C434 1.350 . S
C438 C435 1.463 . S
C438 N442 1.427 . S
C439 H429 0.929 . S
C439 C437 1.433 . S
C439 N442 1.384 . S
C440 H431 0.929 . S
C440 C432 1.378 . S
C440 C435 1.350 . S
C441 H428 0.929 . S
C441 C433 1.433 . S
C441 N443 1.384 . S
N442 C438 1.427 . S
N442 C439 1.384 . S
N443 C435 1.427 . S
N443 C441 1.384 . S
H444 C450 0.930 . S
H445 C454 0.930 . S
H446 C459 0.929 . S
H447 C457 0.929 . S
H448 C452 0.929 . S
H449 C458 0.929 . S
C450 H444 0.930 . S
C450 C451 1.367 . S
C450 C458 1.378 . S
C451 C450 1.367 . S
C451 C459 1.433 . S
C452 H448 0.929 . S
C452 C454 1.378 . S
C452 C456 1.350 . S
C453 C456 1.463 . S
C453 C458 1.350 . S
C453 N461 1.427 . S
C454 H445 0.930 . S
C454 C452 1.378 . S
C454 C455 1.367 . S
C455 C454 1.367 . S
C455 C457 1.433 . S
C456 C452 1.350 . S
C456 C453 1.463 . S
C456 N460 1.427 . S
C457 H447 0.929 . S
C457 C455 1.433 . S
C457 N460 1.384 . S
C458 H449 0.929 . S
C458 C450 1.378 . S
C458 C453 1.350 . S
C459 H446 0.929 . S
C459 C451 1.433 . S
C459 N461 1.384 . S
N460 C456 1.427 . S
N460 C457 1.384 . S
N461 C453 1.427 . S
N461 C459 1.384 . S
H462 C468 0.930 . S
H463 C472 0.930 . S
H464 C477 0.929 . S
H465 C475 0.929 . S
H466 C470 0.929 . S
H467 C476 0.929 . S
C468 H462 0.930 . S
C468 C469 1.367 . S
C468 C476 1.378 . S
C469 C468 1.367 . S
C469 C477 1.433 . S
C470 H466 0.929 . S
C470 C472 1.378 . S
C470 C474 1.350 . S
C471 C474 1.463 . S
C471 C476 1.350 . S
C471 N479 1.427 . S
C472 H463 0.930 . S
C472 C470 1.378 . S
C472 C473 1.367 . S
C473 C472 1.367 . S
C473 C475 1.433 . S
C474 C470 1.350 . S
C474 C471 1.463 . S
C474 N478 1.427 . S
C475 H465 0.929 . S
C475 C473 1.433 . S
C475 N478 1.384 . S
C476 H467 0.929 . S
C476 C468 1.378 . S
C476 C471 1.350 . S
C477 H464 0.929 . S
C477 C469 1.433 . S
C477 N479 1.384 . S
N478 C474 1.427 . S
N478 C475 1.384 . S
N479 C471 1.427 . S
N479 C477 1.384 . S
H480 C486 0.930 . S
H481 C490 0.930 . S
H482 C495 0.929 . S
H483 C493 0.929 . S
H484 C488 0.929 . S
H485 C494 0.929 . S
C486 H480 0.930 . S
C486 C487 1.367 . S
C486 C494 1.378 . S
C487 C486 1.367 . S
C487 C495 1.433 . S
C488 H484 0.929 . S
C488 C490 1.378 . S
C488 C492 1.350 . S
C489 C492 1.463 . S
C489 C494 1.350 . S
C489 N497 1.427 . S
C490 H481 0.930 . S
C490 C488 1.378 . S
C490 C491 1.367 . S
C491 C490 1.367 . S
C491 C493 1.433 . S
C492 C488 1.350 . S
C492 C489 1.463 . S
C492 N496 1.427 . S
C493 H483 0.929 . S
C493 C491 1.433 . S
C493 N496 1.384 . S
C494 H485 0.929 . S
C494 C486 1.378 . S
C494 C489 1.350 . S
C495 H482 0.929 . S
C495 C487 1.433 . S
C495 N497 1.384 . S
N496 C492 1.427 . S
N496 C493 1.384 . S
N497 C489 1.427 . S
N497 C495 1.384 . S
H498 C504 0.930 . S
H499 C508 0.930 . S
H500 C513 0.929 . S
H501 C511 0.929 . S
H502 C506 0.929 . S
H503 C512 0.929 . S
C504 H498 0.930 . S
C504 C505 1.367 . S
C504 C512 1.378 . S
C505 C504 1.367 . S
C505 C513 1.433 . S
C506 H502 0.929 . S
C506 C508 1.378 . S
C506 C510 1.350 . S
C507 C510 1.463 . S
C507 C512 1.350 . S
C507 N515 1.427 . S
C508 H499 0.930 . S
C508 C506 1.378 . S
C508 C509 1.367 . S
C509 C508 1.367 . S
C509 C511 1.433 . S
C510 C506 1.350 . S
C510 C507 1.463 . S
C510 N514 1.427 . S
C511 H501 0.929 . S
C511 C509 1.433 . S
C511 N514 1.384 . S
C512 H503 0.929 . S
C512 C504 1.378 . S
C512 C507 1.350 . S
C513 H500 0.929 . S
C513 C505 1.433 . S
C513 N515 1.384 . S
N514 C510 1.427 . S
N514 C511 1.384 . S
N515 C507 1.427 . S
N515 C513 1.384 . S
H516 C522 0.930 . S
H517 C526 0.930 . S
H518 C531 0.929 . S
H519 C529 0.929 . S
H520 C524 0.929 . S
H521 C530 0.929 . S
C522 H516 0.930 . S
C522 C523 1.367 . S
C522 C530 1.378 . S
C523 C522 1.367 . S
C523 C531 1.433 . S
C524 H520 0.929 . S
C524 C526 1.378 . S
C524 C528 1.350 . S
C525 C528 1.463 . S
C525 C530 1.350 . S
C525 N533 1.427 . S
C526 H517 0.930 . S
C526 C524 1.378 . S
C526 C527 1.367 . S
C527 C526 1.367 . S
C527 C529 1.433 . S
C528 C524 1.350 . S
C528 C525 1.463 . S
C528 N532 1.427 . S
C529 H519 0.929 . S
C529 C527 1.433 . S
C529 N532 1.384 . S
C530 H521 0.929 . S
C530 C522 1.378 . S
C530 C525 1.350 . S
C531 H518 0.929 . S
C531 C523 1.433 . S
C531 N533 1.384 . S
N532 C528 1.427 . S
N532 C529 1.384 . S
N533 C525 1.427 . S
N533 C531 1.384 . S
H534 C540 0.930 . S
H535 C544 0.930 . S
H536 C549 0.929 . S
H537 C547 0.929 . S
H538 C542 0.929 . S
H539 C548 0.929 . S
C540 H534 0.930 . S
C540 C541 1.367 . S
C540 C548 1.378 . S
C541 C540 1.367 . S
C541 C549 1.433 . S
C542 H538 0.929 . S
C542 C544 1.378 . S
C542 C546 1.350 . S
C543 C546 1.463 . S
C543 C548 1.350 . S
C543 N551 1.427 . S
C544 H535 0.930 . S
C544 C542 1.378 . S
C544 C545 1.367 . S
C545 C544 1.367 . S
C545 C547 1.433 . S
C546 C542 1.350 . S
C546 C543 1.463 . S
C546 N550 1.427 . S
C547 H537 0.929 . S
C547 C545 1.433 . S
C547 N550 1.384 . S
C548 H539 0.929 . S
C548 C540 1.378 . S
C548 C543 1.350 . S
C549 H536 0.929 . S
C549 C541 1.433 . S
C549 N551 1.384 . S
N550 C546 1.427 . S
N550 C547 1.384 . S
N551 C543 1.427 . S
N551 C549 1.384 . S
H552 C558 0.930 . S
H553 C562 0.930 . S
H554 C567 0.929 . S
H555 C565 0.929 . S
H556 C560 0.929 . S
H557 C566 0.929 . S
C558 H552 0.930 . S
C558 C559 1.367 . S
C558 C566 1.378 . S
C559 C558 1.367 . S
C559 C567 1.433 . S
C560 H556 0.929 . S
C560 C562 1.378 . S
C560 C564 1.350 . S
C561 C564 1.463 . S
C561 C566 1.350 . S
C561 N569 1.427 . S
C562 H553 0.930 . S
C562 C560 1.378 . S
C562 C563 1.367 . S
C563 C562 1.367 . S
C563 C565 1.433 . S
C564 C560 1.350 . S
C564 C561 1.463 . S
C564 N568 1.427 . S
C565 H555 0.929 . S
C565 C563 1.433 . S
C565 N568 1.384 . S
C566 H557 0.929 . S
C566 C558 1.378 . S
C566 C561 1.350 . S
C567 H554 0.929 . S
C567 C559 1.433 . S
C567 N569 1.384 . S
N568 C564 1.427 . S
N568 C565 1.384 . S
N569 C561 1.427 . S
N569 C567 1.384 . S
H570 C576 0.930 . S
H571 C580 0.930 . S
H572 C585 0.929 . S
H573 C583 0.929 . S
H574 C578 0.929 . S
H575 C584 0.929 . S
C576 H570 0.930 . S
C576 C577 1.367 . S
C576 C584 1.378 . S
C577 C576 1.367 . S
C577 C585 1.433 . S
C578 H574 0.929 . S
C578 C580 1.378 . S
C578 C582 1.350 . S
C579 C582 1.463 . S
C579 C584 1.350 . S
C579 N587 1.427 . S
C580 H571 0.930 . S
C580 C578 1.378 . S
C580 C581 1.367 . S
C581 C580 1.367 . S
C581 C583 1.433 . S
C582 C578 1.350 . S
C582 C579 1.463 . S
C582 N586 1.427 . S
C583 H573 0.929 . S
C583 C581 1.433 . S
C583 N586 1.384 . S
C584 H575 0.929 . S
C584 C576 1.378 . S
C584 C579 1.350 . S
C585 H572 0.929 . S
C585 C577 1.433 . S
C585 N587 1.384 . S
N586 C582 1.427 . S
N586 C583 1.384 . S
N587 C579 1.427 . S
N587 C585 1.384 . S
H588 C594 0.930 . S
H589 C598 0.930 . S
H590 C603 0.929 . S
H591 C601 0.929 . S
H592 C596 0.929 . S
H593 C602 0.929 . S
C594 H588 0.930 . S
C594 C595 1.367 . S
C594 C602 1.378 . S
C595 C594 1.367 . S
C595 C603 1.433 . S
C596 H592 0.929 . S
C596 C598 1.378 . S
C596 C600 1.350 . S
C597 C600 1.463 . S
C597 C602 1.350 . S
C597 N605 1.427 . S
C598 H589 0.930 . S
C598 C596 1.378 . S
C598 C599 1.367 . S
C599 C598 1.367 . S
C599 C601 1.433 . S
C600 C596 1.350 . S
C600 C597 1.463 . S
C600 N604 1.427 . S
C601 H591 0.929 . S
C601 C599 1.433 . S
C601 N604 1.384 . S
C602 H593 0.929 . S
C602 C594 1.378 . S
C602 C597 1.350 . S
C603 H590 0.929 . S
C603 C595 1.433 . S
C603 N605 1.384 . S
N604 C600 1.427 . S
N604 C601 1.384 . S
N605 C597 1.427 . S
N605 C603 1.384 . S
H606 C612 0.930 . S
H607 C616 0.930 . S
H608 C621 0.929 . S
H609 C619 0.929 . S
H610 C614 0.929 . S
H611 C620 0.929 . S
C612 H606 0.930 . S
C612 C613 1.367 . S
C612 C620 1.378 . S
C613 C612 1.367 . S
C613 C621 1.433 . S
C614 H610 0.929 . S
C614 C616 1.378 . S
C614 C618 1.350 . S
C615 C618 1.463 . S
C615 C620 1.350 . S
C615 N623 1.427 . S
C616 H607 0.930 . S
C616 C614 1.378 . S
C616 C617 1.367 . S
C617 C616 1.367 . S
C617 C619 1.433 . S
C618 C614 1.350 . S
C618 C615 1.463 . S
C618 N622 1.427 . S
C619 H609 0.929 . S
C619 C617 1.433 . S
C619 N622 1.384 . S
C620 H611 0.929 . S
C620 C612 1.378 . S
C620 C615 1.350 . S
C621 H608 0.929 . S
C621 C613 1.433 . S
C621 N623 1.384 . S
N622 C618 1.427 . S
N622 C619 1.384 . S
N623 C615 1.427 . S
N623 C621 1.384 . S
H624 C630 0.930 . S
H625 C634 0.930 . S
H626 C639 0.929 . S
H627 C637 0.929 . S
H628 C632 0.929 . S
H629 C638 0.929 . S
C630 H624 0.930 . S
C630 C631 1.367 . S
C630 C638 1.378 . S
C631 C630 1.367 . S
C631 C639 1.433 . S
C632 H628 0.929 . S
C632 C634 1.378 . S
C632 C636 1.350 . S
C633 C636 1.463 . S
C633 C638 1.350 . S
C633 N641 1.427 . S
C634 H625 0.930 . S
C634 C632 1.378 . S
C634 C635 1.367 . S
C635 C634 1.367 . S
C635 C637 1.433 . S
C636 C632 1.350 . S
C636 C633 1.463 . S
C636 N640 1.427 . S
C637 H627 0.929 . S
C637 C635 1.433 . S
C637 N640 1.384 . S
C638 H629 0.929 . S
C638 C630 1.378 . S
C638 C633 1.350 . S
C639 H626 0.929 . S
C639 C631 1.433 . S
C639 N641 1.384 . S
N640 C636 1.427 . S
N640 C637 1.384 . S
N641 C633 1.427 . S
N641 C639 1.384 . S
H642 C648 0.930 . S
H643 C652 0.930 . S
H644 C657 0.929 . S
H645 C655 0.929 . S
H646 C650 0.929 . S
H647 C656 0.929 . S
C648 H642 0.930 . S
C648 C649 1.367 . S
C648 C656 1.378 . S
C649 C648 1.367 . S
C649 C657 1.433 . S
C650 H646 0.929 . S
C650 C652 1.378 . S
C650 C654 1.350 . S
C651 C654 1.463 . S
C651 C656 1.350 . S
C651 N659 1.427 . S
C652 H643 0.930 . S
C652 C650 1.378 . S
C652 C653 1.367 . S
C653 C652 1.367 . S
C653 C655 1.433 . S
C654 C650 1.350 . S
C654 C651 1.463 . S
C654 N658 1.427 . S
C655 H645 0.929 . S
C655 C653 1.433 . S
C655 N658 1.384 . S
C656 H647 0.929 . S
C656 C648 1.378 . S
C656 C651 1.350 . S
C657 H644 0.929 . S
C657 C649 1.433 . S
C657 N659 1.384 . S
N658 C654 1.427 . S
N658 C655 1.384 . S
N659 C651 1.427 . S
N659 C657 1.384 . S
H660 C666 0.930 . S
H661 C670 0.930 . S
H662 C675 0.929 . S
H663 C673 0.929 . S
H664 C668 0.929 . S
H665 C674 0.929 . S
C666 H660 0.930 . S
C666 C667 1.367 . S
C666 C674 1.378 . S
C667 C666 1.367 . S
C667 C675 1.433 . S
C668 H664 0.929 . S
C668 C670 1.378 . S
C668 C672 1.350 . S
C669 C672 1.463 . S
C669 C674 1.350 . S
C669 N677 1.427 . S
C670 H661 0.930 . S
C670 C668 1.378 . S
C670 C671 1.367 . S
C671 C670 1.367 . S
C671 C673 1.433 . S
C672 C668 1.350 . S
C672 C669 1.463 . S
C672 N676 1.427 . S
C673 H663 0.929 . S
C673 C671 1.433 . S
C673 N676 1.384 . S
C674 H665 0.929 . S
C674 C666 1.378 . S
C674 C669 1.350 . S
C675 H662 0.929 . S
C675 C667 1.433 . S
C675 N677 1.384 . S
N676 C672 1.427 . S
N676 C673 1.384 . S
N677 C669 1.427 . S
N677 C675 1.384 . S
H678 C684 0.930 . S
H679 C688 0.930 . S
H680 C693 0.929 . S
H681 C691 0.929 . S
H682 C686 0.929 . S
H683 C692 0.929 . S
C684 H678 0.930 . S
C684 C685 1.367 . S
C684 C692 1.378 . S
C685 C684 1.367 . S
C685 C693 1.433 . S
C686 H682 0.929 . S
C686 C688 1.378 . S
C686 C690 1.350 . S
C687 C690 1.463 . S
C687 C692 1.350 . S
C687 N695 1.427 . S
C688 H679 0.930 . S
C688 C686 1.378 . S
C688 C689 1.367 . S
C689 C688 1.367 . S
C689 C691 1.433 . S
C690 C686 1.350 . S
C690 C687 1.463 . S
C690 N694 1.427 . S
C691 H681 0.929 . S
C691 C689 1.433 . S
C691 N694 1.384 . S
C692 H683 0.929 . S
C692 C684 1.378 . S
C692 C687 1.350 . S
C693 H680 0.929 . S
C693 C685 1.433 . S
C693 N695 1.384 . S
N694 C690 1.427 . S
N694 C691 1.384 . S
N695 C687 1.427 . S
N695 C693 1.384 . S
H696 C702 0.931 . S
H697 C706 0.930 . S
H698 C711 0.929 . S
H699 C709 0.929 1_556 S
H700 C704 0.929 . S
H701 C710 0.929 . S
C702 H696 0.931 . S
C702 C703 1.366 1_556 S
C702 C710 1.378 . S
C703 C702 1.366 1_554 S
C703 C711 1.433 . S
C704 H700 0.929 . S
C704 C706 1.378 . S
C704 C708 1.350 . S
C705 C708 1.463 . S
C705 C710 1.349 1_554 S
C705 N713 1.427 . S
C706 H697 0.930 . S
C706 C704 1.378 . S
C706 C707 1.367 . S
C707 C706 1.367 . S
C707 C709 1.433 . S
C708 C704 1.350 . S
C708 C705 1.463 . S
C708 N712 1.427 1_554 S
C709 H699 0.929 1_554 S
C709 C707 1.433 . S
C709 N712 1.384 1_554 S
C710 H701 0.929 . S
C710 C702 1.378 . S
C710 C705 1.349 1_556 S
C711 H698 0.929 . S
C711 C703 1.433 . S
C711 N713 1.384 . S
N712 C708 1.427 1_556 S
N712 C709 1.384 1_556 S
N713 C705 1.427 . S
N713 C711 1.384 . S
H714 C720 0.930 . S
H715 C724 0.930 . S
H716 C729 0.929 . S
H717 C727 0.929 . S
H718 C722 0.929 . S
H719 C728 0.929 . S
C720 H714 0.930 . S
C720 C721 1.367 . S
C720 C728 1.378 . S
C721 C720 1.367 . S
C721 C729 1.433 . S
C722 H718 0.929 . S
C722 C724 1.378 . S
C722 C726 1.350 . S
C723 C726 1.463 . S
C723 C728 1.350 . S
C723 N731 1.427 . S
C724 H715 0.930 . S
C724 C722 1.378 . S
C724 C725 1.367 . S
C725 C724 1.367 . S
C725 C727 1.433 . S
C726 C722 1.350 . S
C726 C723 1.463 . S
C726 N730 1.427 . S
C727 H717 0.929 . S
C727 C725 1.433 . S
C727 N730 1.384 . S
C728 H719 0.929 . S
C728 C720 1.378 . S
C728 C723 1.350 . S
C729 H716 0.929 . S
C729 C721 1.433 . S
C729 N731 1.384 . S
N730 C726 1.427 . S
N730 C727 1.384 . S
N731 C723 1.427 . S
N731 C729 1.384 . S
H732 C738 0.930 . S
H733 C742 0.930 . S
H734 C747 0.929 . S
H735 C745 0.929 . S
H736 C740 0.929 . S
H737 C746 0.929 . S
C738 H732 0.930 . S
C738 C739 1.367 . S
C738 C746 1.378 . S
C739 C738 1.367 . S
C739 C747 1.433 1_554 S
C740 H736 0.929 . S
C740 C742 1.378 . S
C740 C744 1.350 1_556 S
C741 C744 1.463 . S
C741 C746 1.350 . S
C741 N749 1.427 1_554 S
C742 H733 0.930 . S
C742 C740 1.378 . S
C742 C743 1.367 1_556 S
C743 C742 1.367 1_554 S
C743 C745 1.433 . S
C744 C740 1.350 1_554 S
C744 C741 1.463 . S
C744 N748 1.427 . S
C745 H735 0.929 . S
C745 C743 1.433 . S
C745 N748 1.384 . S
C746 H737 0.929 . S
C746 C738 1.378 . S
C746 C741 1.350 . S
C747 H734 0.929 . S
C747 C739 1.433 1_556 S
C747 N749 1.384 . S
N748 C744 1.427 . S
N748 C745 1.384 . S
N749 C741 1.427 1_556 S
N749 C747 1.384 . S
H750 C756 0.930 . S
H751 C760 0.930 . S
H752 C765 0.929 . S
H753 C763 0.929 . S
H754 C758 0.929 . S
H755 C764 0.929 . S
C756 H750 0.930 . S
C756 C757 1.367 . S
C756 C764 1.378 . S
C757 C756 1.367 . S
C757 C765 1.433 . S
C758 H754 0.929 . S
C758 C760 1.378 . S
C758 C762 1.350 . S
C759 C762 1.463 . S
C759 C764 1.350 . S
C759 N767 1.427 . S
C760 H751 0.930 . S
C760 C758 1.378 . S
C760 C761 1.367 . S
C761 C760 1.367 . S
C761 C763 1.433 . S
C762 C758 1.350 . S
C762 C759 1.463 . S
C762 N766 1.427 . S
C763 H753 0.929 . S
C763 C761 1.433 . S
C763 N766 1.384 . S
C764 H755 0.929 . S
C764 C756 1.378 . S
C764 C759 1.350 . S
C765 H752 0.929 . S
C765 C757 1.433 . S
C765 N767 1.384 . S
N766 C762 1.427 . S
N766 C763 1.384 . S
N767 C759 1.427 . S
N767 C765 1.384 . S
H768 C774 0.930 . S
H769 C778 0.930 . S
H770 C783 0.929 . S
H771 C781 0.929 . S
H772 C776 0.929 . S
H773 C782 0.929 . S
C774 H768 0.930 . S
C774 C775 1.367 . S
C774 C782 1.378 . S
C775 C774 1.367 . S
C775 C783 1.433 . S
C776 H772 0.929 . S
C776 C778 1.378 . S
C776 C780 1.350 . S
C777 C780 1.463 . S
C777 C782 1.350 . S
C777 N785 1.427 . S
C778 H769 0.930 . S
C778 C776 1.378 . S
C778 C779 1.367 . S
C779 C778 1.367 . S
C779 C781 1.433 . S
C780 C776 1.350 . S
C780 C777 1.463 . S
C780 N784 1.427 . S
C781 H771 0.929 . S
C781 C779 1.433 . S
C781 N784 1.384 . S
C782 H773 0.929 . S
C782 C774 1.378 . S
C782 C777 1.350 . S
C783 H770 0.929 . S
C783 C775 1.433 . S
C783 N785 1.384 . S
N784 C780 1.427 . S
N784 C781 1.384 . S
N785 C777 1.427 . S
N785 C783 1.384 . S
H786 C792 0.930 . S
H787 C796 0.930 . S
H788 C801 0.929 . S
H789 C799 0.929 . S
H790 C794 0.929 . S
H791 C800 0.929 . S
C792 H786 0.930 . S
C792 C793 1.367 1_556 S
C792 C800 1.378 . S
C793 C792 1.367 1_554 S
C793 C801 1.433 . S
C794 H790 0.929 . S
C794 C796 1.378 . S
C794 C798 1.350 . S
C795 C798 1.463 . S
C795 C800 1.350 1_554 S
C795 N803 1.427 . S
C796 H787 0.930 . S
C796 C794 1.378 . S
C796 C797 1.367 . S
C797 C796 1.367 . S
C797 C799 1.433 1_554 S
C798 C794 1.350 . S
C798 C795 1.463 . S
C798 N802 1.427 1_554 S
C799 H789 0.929 . S
C799 C797 1.433 1_556 S
C799 N802 1.384 . S
C800 H791 0.929 . S
C800 C792 1.378 . S
C800 C795 1.350 1_556 S
C801 H788 0.929 . S
C801 C793 1.433 . S
C801 N803 1.384 . S
N802 C798 1.427 1_556 S
N802 C799 1.384 . S
N803 C795 1.427 . S
N803 C801 1.384 . S
H804 C810 0.930 . S
H805 C814 0.930 . S
H806 C819 0.929 . S
H807 C817 0.929 . S
H808 C812 0.929 . S
H809 C818 0.929 . S
C810 H804 0.930 . S
C810 C811 1.367 . S
C810 C818 1.378 . S
C811 C810 1.367 . S
C811 C819 1.433 . S
C812 H808 0.929 . S
C812 C814 1.378 . S
C812 C816 1.350 . S
C813 C816 1.463 . S
C813 C818 1.350 . S
C813 N821 1.427 . S
C814 H805 0.930 . S
C814 C812 1.378 . S
C814 C815 1.367 . S
C815 C814 1.367 . S
C815 C817 1.433 . S
C816 C812 1.350 . S
C816 C813 1.463 . S
C816 N820 1.427 . S
C817 H807 0.929 . S
C817 C815 1.433 . S
C817 N820 1.384 . S
C818 H809 0.929 . S
C818 C810 1.378 . S
C818 C813 1.350 . S
C819 H806 0.929 . S
C819 C811 1.433 . S
C819 N821 1.384 . S
N820 C816 1.427 . S
N820 C817 1.384 . S
N821 C813 1.427 . S
N821 C819 1.384 . S
H822 C828 0.930 . S
H823 C832 0.930 . S
H824 C837 0.929 . S
H825 C835 0.929 . S
H826 C830 0.929 . S
H827 C836 0.929 . S
C828 H822 0.930 . S
C828 C829 1.367 . S
C828 C836 1.378 . S
C829 C828 1.367 . S
C829 C837 1.433 1_554 S
C830 H826 0.929 . S
C830 C832 1.378 . S
C830 C834 1.350 1_556 S
C831 C834 1.463 . S
C831 C836 1.350 . S
C831 N839 1.427 1_554 S
C832 H823 0.930 . S
C832 C830 1.378 . S
C832 C833 1.367 1_556 S
C833 C832 1.367 1_554 S
C833 C835 1.433 . S
C834 C830 1.350 1_554 S
C834 C831 1.463 . S
C834 N838 1.427 . S
C835 H825 0.929 . S
C835 C833 1.433 . S
C835 N838 1.384 . S
C836 H827 0.929 . S
C836 C828 1.378 . S
C836 C831 1.350 . S
C837 H824 0.929 . S
C837 C829 1.433 1_556 S
C837 N839 1.384 . S
N838 C834 1.427 . S
N838 C835 1.384 . S
N839 C831 1.427 1_556 S
N839 C837 1.384 . S
C415 C5 1.495 . S
C419 C210 1.508 . S
C433 C31 1.505 . S
C437 C90 1.513 . S
C455 C149 1.462 . S
C451 C53 1.520 . S
C469 C71 1.510 . S
C473 C189 1.464 . S
C491 C309 1.454 . S
C487 C75 1.515 . S
C509 C349 1.465 . S
C505 C9 1.519 . S
C527 C370 1.512 . S
C523 C27 1.508 . S
C545 C250 1.506 . S
C541 C49 1.499 . S
C559 C51 1.496 . S
C563 C130 1.473 . S
C577 C72 1.508 . S
C581 C170 1.468 . S
C595 C6 1.523 . S
C599 C229 1.508 . S
C617 C109 1.502 . S
C613 C29 1.516 . S
C631 C28 1.514 . S
C635 C389 1.503 . S
C653 C269 1.508 . S
C649 C50 1.523 . S
C671 C290 1.480 . S
C667 C73 1.502 . S
C685 C7 1.494 . S
C689 C330 1.471 . S
C707 C103 1.518 . S
C703 C4 1.515 . S
C725 C143 1.509 . S
C721 C30 1.518 . S
C739 C52 1.518 . S
C743 C183 1.510 . S
C757 C70 1.519 . S
C761 C223 1.513 . S
C779 C263 1.514 . S
C775 C74 1.518 . S
C793 C8 1.520 . S
C797 C303 1.507 . S
C811 C26 1.517 . S
C815 C343 1.512 . S
C829 C48 1.518 . S
C833 C383 1.514 . S
