# Generated by pormake.
# Topology gar, (4,6)-cn, num edge types: 1
# Building blocks:
#     Node 0, Type 0, BuildingBlock: QUQFOY_clean_sbu_1, # of connection points: 4
#     Node 1, Type 0, BuildingBlock: QUQFOY_clean_sbu_1, # of connection points: 4
#     Node 2, Type 0, BuildingBlock: QUQFOY_clean_sbu_1, # of connection points: 4
#     Node 3, Type 0, BuildingBlock: QUQFOY_clean_sbu_1, # of connection points: 4
#     Node 4, Type 0, BuildingBlock: QUQFOY_clean_sbu_1, # of connection points: 4
#     Node 5, Type 0, BuildingBlock: QUQFOY_clean_sbu_1, # of connection points: 4
#     Node 6, Type 0, BuildingBlock: QUQFOY_clean_sbu_1, # of connection points: 4
#     Node 7, Type 0, BuildingBlock: QUQFOY_clean_sbu_1, # of connection points: 4
#     Node 8, Type 0, BuildingBlock: QUQFOY_clean_sbu_1, # of connection points: 4
#     Node 9, Type 0, BuildingBlock: QUQFOY_clean_sbu_1, # of connection points: 4
#     Node 10, Type 0, BuildingBlock: QUQFOY_clean_sbu_1, # of connection points: 4
#     Node 11, Type 0, BuildingBlock: QUQFOY_clean_sbu_1, # of connection points: 4
#     Node 12, Type 0, BuildingBlock: QUQFOY_clean_sbu_1, # of connection points: 4
#     Node 13, Type 0, BuildingBlock: QUQFOY_clean_sbu_1, # of connection points: 4
#     Node 14, Type 0, BuildingBlock: QUQFOY_clean_sbu_1, # of connection points: 4
#     Node 15, Type 0, BuildingBlock: QUQFOY_clean_sbu_1, # of connection points: 4
#     Node 16, Type 0, BuildingBlock: QUQFOY_clean_sbu_1, # of connection points: 4
#     Node 17, Type 0, BuildingBlock: QUQFOY_clean_sbu_1, # of connection points: 4
#     Node 18, Type 0, BuildingBlock: QUQFOY_clean_sbu_1, # of connection points: 4
#     Node 19, Type 0, BuildingBlock: QUQFOY_clean_sbu_1, # of connection points: 4
#     Node 20, Type 0, BuildingBlock: QUQFOY_clean_sbu_1, # of connection points: 4
#     Node 21, Type 0, BuildingBlock: QUQFOY_clean_sbu_1, # of connection points: 4
#     Node 22, Type 0, BuildingBlock: QUQFOY_clean_sbu_1, # of connection points: 4
#     Node 23, Type 0, BuildingBlock: QUQFOY_clean_sbu_1, # of connection points: 4
#     Node 24, Type 1, BuildingBlock: NUHQIS_clean_sbu_0, # of connection points: 6
#     Node 25, Type 1, BuildingBlock: NUHQIS_clean_sbu_0, # of connection points: 6
#     Node 26, Type 1, BuildingBlock: NUHQIS_clean_sbu_0, # of connection points: 6
#     Node 27, Type 1, BuildingBlock: NUHQIS_clean_sbu_0, # of connection points: 6
#     Node 28, Type 1, BuildingBlock: NUHQIS_clean_sbu_0, # of connection points: 6
#     Node 29, Type 1, BuildingBlock: NUHQIS_clean_sbu_0, # of connection points: 6
#     Node 30, Type 1, BuildingBlock: NUHQIS_clean_sbu_0, # of connection points: 6
#     Node 31, Type 1, BuildingBlock: NUHQIS_clean_sbu_0, # of connection points: 6
#     Node 32, Type 1, BuildingBlock: NUHQIS_clean_sbu_0, # of connection points: 6
#     Node 33, Type 1, BuildingBlock: NUHQIS_clean_sbu_0, # of connection points: 6
#     Node 34, Type 1, BuildingBlock: NUHQIS_clean_sbu_0, # of connection points: 6
#     Node 35, Type 1, BuildingBlock: NUHQIS_clean_sbu_0, # of connection points: 6
#     Node 36, Type 1, BuildingBlock: NUHQIS_clean_sbu_0, # of connection points: 6
#     Node 37, Type 1, BuildingBlock: NUHQIS_clean_sbu_0, # of connection points: 6
#     Node 38, Type 1, BuildingBlock: NUHQIS_clean_sbu_0, # of connection points: 6
#     Node 39, Type 1, BuildingBlock: NUHQIS_clean_sbu_0, # of connection points: 6
#     Edge 40, Type (0, 1), BuildingBlock: OJICUG_clean_linker_0, # of connection points: 2
#     Edge 41, Type (0, 1), BuildingBlock: OJICUG_clean_linker_0, # of connection points: 2
#     Edge 42, Type (0, 1), BuildingBlock: OJICUG_clean_linker_0, # of connection points: 2
#     Edge 43, Type (0, 1), BuildingBlock: OJICUG_clean_linker_0, # of connection points: 2
#     Edge 44, Type (0, 1), BuildingBlock: OJICUG_clean_linker_0, # of connection points: 2
#     Edge 45, Type (0, 1), BuildingBlock: OJICUG_clean_linker_0, # of connection points: 2
#     Edge 46, Type (0, 1), BuildingBlock: OJICUG_clean_linker_0, # of connection points: 2
#     Edge 47, Type (0, 1), BuildingBlock: OJICUG_clean_linker_0, # of connection points: 2
#     Edge 48, Type (0, 1), BuildingBlock: OJICUG_clean_linker_0, # of connection points: 2
#     Edge 49, Type (0, 1), BuildingBlock: OJICUG_clean_linker_0, # of connection points: 2
#     Edge 50, Type (0, 1), BuildingBlock: OJICUG_clean_linker_0, # of connection points: 2
#     Edge 51, Type (0, 1), BuildingBlock: OJICUG_clean_linker_0, # of connection points: 2
#     Edge 52, Type (0, 1), BuildingBlock: OJICUG_clean_linker_0, # of connection points: 2
#     Edge 53, Type (0, 1), BuildingBlock: OJICUG_clean_linker_0, # of connection points: 2
#     Edge 54, Type (0, 1), BuildingBlock: OJICUG_clean_linker_0, # of connection points: 2
#     Edge 55, Type (0, 1), BuildingBlock: OJICUG_clean_linker_0, # of connection points: 2
#     Edge 56, Type (0, 1), BuildingBlock: OJICUG_clean_linker_0, # of connection points: 2
#     Edge 57, Type (0, 1), BuildingBlock: OJICUG_clean_linker_0, # of connection points: 2
#     Edge 58, Type (0, 1), BuildingBlock: OJICUG_clean_linker_0, # of connection points: 2
#     Edge 59, Type (0, 1), BuildingBlock: OJICUG_clean_linker_0, # of connection points: 2
#     Edge 60, Type (0, 1), BuildingBlock: OJICUG_clean_linker_0, # of connection points: 2
#     Edge 61, Type (0, 1), BuildingBlock: OJICUG_clean_linker_0, # of connection points: 2
#     Edge 62, Type (0, 1), BuildingBlock: OJICUG_clean_linker_0, # of connection points: 2
#     Edge 63, Type (0, 1), BuildingBlock: OJICUG_clean_linker_0, # of connection points: 2
#     Edge 64, Type (0, 1), BuildingBlock: OJICUG_clean_linker_0, # of connection points: 2
#     Edge 65, Type (0, 1), BuildingBlock: OJICUG_clean_linker_0, # of connection points: 2
#     Edge 66, Type (0, 1), BuildingBlock: OJICUG_clean_linker_0, # of connection points: 2
#     Edge 67, Type (0, 1), BuildingBlock: OJICUG_clean_linker_0, # of connection points: 2
#     Edge 68, Type (0, 1), BuildingBlock: OJICUG_clean_linker_0, # of connection points: 2
#     Edge 69, Type (0, 1), BuildingBlock: OJICUG_clean_linker_0, # of connection points: 2
#     Edge 70, Type (0, 1), BuildingBlock: OJICUG_clean_linker_0, # of connection points: 2
#     Edge 71, Type (0, 1), BuildingBlock: OJICUG_clean_linker_0, # of connection points: 2
#     Edge 72, Type (0, 1), BuildingBlock: OJICUG_clean_linker_0, # of connection points: 2
#     Edge 73, Type (0, 1), BuildingBlock: OJICUG_clean_linker_0, # of connection points: 2
#     Edge 74, Type (0, 1), BuildingBlock: OJICUG_clean_linker_0, # of connection points: 2
#     Edge 75, Type (0, 1), BuildingBlock: OJICUG_clean_linker_0, # of connection points: 2
#     Edge 76, Type (0, 1), BuildingBlock: OJICUG_clean_linker_0, # of connection points: 2
#     Edge 77, Type (0, 1), BuildingBlock: OJICUG_clean_linker_0, # of connection points: 2
#     Edge 78, Type (0, 1), BuildingBlock: OJICUG_clean_linker_0, # of connection points: 2
#     Edge 79, Type (0, 1), BuildingBlock: OJICUG_clean_linker_0, # of connection points: 2
#     Edge 80, Type (0, 1), BuildingBlock: OJICUG_clean_linker_0, # of connection points: 2
#     Edge 81, Type (0, 1), BuildingBlock: OJICUG_clean_linker_0, # of connection points: 2
#     Edge 82, Type (0, 1), BuildingBlock: OJICUG_clean_linker_0, # of connection points: 2
#     Edge 83, Type (0, 1), BuildingBlock: OJICUG_clean_linker_0, # of connection points: 2
#     Edge 84, Type (0, 1), BuildingBlock: OJICUG_clean_linker_0, # of connection points: 2
#     Edge 85, Type (0, 1), BuildingBlock: OJICUG_clean_linker_0, # of connection points: 2
#     Edge 86, Type (0, 1), BuildingBlock: OJICUG_clean_linker_0, # of connection points: 2
#     Edge 87, Type (0, 1), BuildingBlock: OJICUG_clean_linker_0, # of connection points: 2
#     Edge 88, Type (0, 1), BuildingBlock: OJICUG_clean_linker_0, # of connection points: 2
#     Edge 89, Type (0, 1), BuildingBlock: OJICUG_clean_linker_0, # of connection points: 2
#     Edge 90, Type (0, 1), BuildingBlock: OJICUG_clean_linker_0, # of connection points: 2
#     Edge 91, Type (0, 1), BuildingBlock: OJICUG_clean_linker_0, # of connection points: 2
#     Edge 92, Type (0, 1), BuildingBlock: OJICUG_clean_linker_0, # of connection points: 2
#     Edge 93, Type (0, 1), BuildingBlock: OJICUG_clean_linker_0, # of connection points: 2
#     Edge 94, Type (0, 1), BuildingBlock: OJICUG_clean_linker_0, # of connection points: 2
#     Edge 95, Type (0, 1), BuildingBlock: OJICUG_clean_linker_0, # of connection points: 2
#     Edge 96, Type (0, 1), BuildingBlock: OJICUG_clean_linker_0, # of connection points: 2
#     Edge 97, Type (0, 1), BuildingBlock: OJICUG_clean_linker_0, # of connection points: 2
#     Edge 98, Type (0, 1), BuildingBlock: OJICUG_clean_linker_0, # of connection points: 2
#     Edge 99, Type (0, 1), BuildingBlock: OJICUG_clean_linker_0, # of connection points: 2
#     Edge 100, Type (0, 1), BuildingBlock: OJICUG_clean_linker_0, # of connection points: 2
#     Edge 101, Type (0, 1), BuildingBlock: OJICUG_clean_linker_0, # of connection points: 2
#     Edge 102, Type (0, 1), BuildingBlock: OJICUG_clean_linker_0, # of connection points: 2
#     Edge 103, Type (0, 1), BuildingBlock: OJICUG_clean_linker_0, # of connection points: 2
#     Edge 104, Type (0, 1), BuildingBlock: OJICUG_clean_linker_0, # of connection points: 2
#     Edge 105, Type (0, 1), BuildingBlock: OJICUG_clean_linker_0, # of connection points: 2
#     Edge 106, Type (0, 1), BuildingBlock: OJICUG_clean_linker_0, # of connection points: 2
#     Edge 107, Type (0, 1), BuildingBlock: OJICUG_clean_linker_0, # of connection points: 2
#     Edge 108, Type (0, 1), BuildingBlock: OJICUG_clean_linker_0, # of connection points: 2
#     Edge 109, Type (0, 1), BuildingBlock: OJICUG_clean_linker_0, # of connection points: 2
#     Edge 110, Type (0, 1), BuildingBlock: OJICUG_clean_linker_0, # of connection points: 2
#     Edge 111, Type (0, 1), BuildingBlock: OJICUG_clean_linker_0, # of connection points: 2
#     Edge 112, Type (0, 1), BuildingBlock: OJICUG_clean_linker_0, # of connection points: 2
#     Edge 113, Type (0, 1), BuildingBlock: OJICUG_clean_linker_0, # of connection points: 2
#     Edge 114, Type (0, 1), BuildingBlock: OJICUG_clean_linker_0, # of connection points: 2
#     Edge 115, Type (0, 1), BuildingBlock: OJICUG_clean_linker_0, # of connection points: 2
#     Edge 116, Type (0, 1), BuildingBlock: OJICUG_clean_linker_0, # of connection points: 2
#     Edge 117, Type (0, 1), BuildingBlock: OJICUG_clean_linker_0, # of connection points: 2
#     Edge 118, Type (0, 1), BuildingBlock: OJICUG_clean_linker_0, # of connection points: 2
#     Edge 119, Type (0, 1), BuildingBlock: OJICUG_clean_linker_0, # of connection points: 2
#     Edge 120, Type (0, 1), BuildingBlock: OJICUG_clean_linker_0, # of connection points: 2
#     Edge 121, Type (0, 1), BuildingBlock: OJICUG_clean_linker_0, # of connection points: 2
#     Edge 122, Type (0, 1), BuildingBlock: OJICUG_clean_linker_0, # of connection points: 2
#     Edge 123, Type (0, 1), BuildingBlock: OJICUG_clean_linker_0, # of connection points: 2
#     Edge 124, Type (0, 1), BuildingBlock: OJICUG_clean_linker_0, # of connection points: 2
#     Edge 125, Type (0, 1), BuildingBlock: OJICUG_clean_linker_0, # of connection points: 2
#     Edge 126, Type (0, 1), BuildingBlock: OJICUG_clean_linker_0, # of connection points: 2
#     Edge 127, Type (0, 1), BuildingBlock: OJICUG_clean_linker_0, # of connection points: 2
#     Edge 128, Type (0, 1), BuildingBlock: OJICUG_clean_linker_0, # of connection points: 2
#     Edge 129, Type (0, 1), BuildingBlock: OJICUG_clean_linker_0, # of connection points: 2
#     Edge 130, Type (0, 1), BuildingBlock: OJICUG_clean_linker_0, # of connection points: 2
#     Edge 131, Type (0, 1), BuildingBlock: OJICUG_clean_linker_0, # of connection points: 2
#     Edge 132, Type (0, 1), BuildingBlock: OJICUG_clean_linker_0, # of connection points: 2
#     Edge 133, Type (0, 1), BuildingBlock: OJICUG_clean_linker_0, # of connection points: 2
#     Edge 134, Type (0, 1), BuildingBlock: OJICUG_clean_linker_0, # of connection points: 2
#     Edge 135, Type (0, 1), BuildingBlock: OJICUG_clean_linker_0, # of connection points: 2
# Relax obj value: 0.301
# Max RMSD: 0.369
# Mean RMSD: 0.180
data_MOF--net-gar--node1-QUQFOY_clean_sbu_1--node2-NUHQIS_clean_sbu_0--edge1-OJICUG_clean_linker_0
_symmetry_space_group_name_H-M    P1
_symmetry_Int_Tables_number       1
_symmetry_cell_setting            triclinic
loop_
_symmetry_equiv_pos_as_xyz
'x, y, z'
_cell_length_a     41.943789
_cell_length_b     44.705242
_cell_length_c     41.767843
_cell_angle_alpha  93.130157
_cell_angle_beta   96.49729
_cell_angle_gamma 101.80142
loop_
_atom_site_label
_atom_site_type_symbol
_atom_site_fract_x
_atom_site_fract_y
_atom_site_fract_z
_atom_type_partial_charge
O0 O 0.12821 0.28706 0.45652 0.0
Cd1 Cd 0.13309 0.31903 0.4197 0.0
Cd2 Cd 0.10533 0.35557 0.48065 0.0
O3 O 0.11381 0.31078 0.4996 0.0
O4 O 0.1589 0.30364 0.38409 0.0
O5 O 0.1794 0.34602 0.41414 0.0
C6 C 0.18324 0.3268 0.39134 0.0
C7 C 0.11233 0.41032 0.50392 0.0
C8 C 0.12063 0.28639 0.48557 0.0
C9 C 1.06335 0.33716 0.41139 0.0
O10 O 1.06808 0.34755 0.4411 0.0
O11 O 0.08585 0.32673 0.39847 0.0
O12 O 0.09155 0.38773 0.51292 0.0
O13 O 0.13137 0.40201 0.4844 0.0
O14 O 0.08606 0.79128 0.6688 0.0
Cd15 Cd 0.08717 0.82681 0.70542 0.0
Cd16 Cd 0.12199 0.86428 0.64965 0.0
O17 O 0.10734 0.81552 0.6281 0.0
O18 O 1.05573 0.80914 0.73867 0.0
O19 O 1.04901 0.84913 0.71322 0.0
C20 C 1.03882 0.82995 0.73382 0.0
C21 C 0.11762 0.91501 0.62685 0.0
C22 C 0.09572 0.79015 0.6407 0.0
C23 C 0.16266 0.85692 0.71656 0.0
O24 O 0.16069 0.86717 0.6884 0.0
O25 O 0.13685 0.84247 0.72753 0.0
O26 O 0.13731 0.8984 0.61758 0.0
O27 O 0.09902 0.90255 0.64733 0.0
O28 O 0.68546 0.84057 0.9442 0.0
Cd29 Cd 0.65136 0.83597 0.98024 0.0
Cd30 Cd 0.61413 0.86117 0.91891 0.0
O31 O 0.65667 0.85106 0.89948 0.0
O32 O 0.66507 0.80593 1.01533 0.0
O33 O 0.62194 0.79047 0.98028 0.0
C34 C 0.64127 0.78334 1.00371 0.0
C35 C 0.55877 0.85299 0.89012 0.0
C36 C 0.68339 0.8455 0.91394 0.0
C37 C 0.63347 0.9043 0.9833 0.0
O38 O 0.62358 0.89911 0.95305 0.0
O39 O 0.64273 0.88242 0.99906 0.0
O40 O 0.5828 0.87338 0.88281 0.0
O41 O 0.56626 0.83559 0.91224 0.0
O42 O 0.60164 0.28022 0.16845 0.0
Cd43 Cd 0.60088 0.31583 0.20482 0.0
Cd44 Cd 0.63829 0.3537 0.15043 0.0
O45 O 0.62408 0.30486 0.12851 0.0
O46 O 0.56735 0.29862 0.23657 0.0
O47 O 0.56236 0.33855 0.21036 0.0
C48 C 0.55089 0.31961 0.23067 0.0
C49 C 0.63494 0.40503 0.12779 0.0
C50 C 0.61222 0.27931 0.14073 0.0
C51 C 0.67633 0.34581 0.219 0.0
O52 O 0.67545 0.35582 0.19067 0.0
O53 O 0.64984 0.33174 0.22915 0.0
O54 O 0.65496 0.38848 0.11918 0.0
O55 O 0.61556 0.39225 0.14748 0.0
O56 O 0.19184 0.9002 0.27399 0.0
Cd57 Cd 0.20958 0.94441 0.29572 0.0
Cd58 Cd 0.23041 0.9558 0.24107 0.0
O59 O 0.21004 0.91061 0.22755 0.0
O60 O 0.1895 0.94579 0.33623 0.0
O61 O 0.1812 0.9757 0.29703 0.0
C62 C 0.17581 0.96708 0.32526 0.0
C63 C 0.2135 0.99176 0.20924 0.0
C64 C 0.19574 0.89145 0.24544 0.0
C65 C 0.28191 0.95888 0.29673 0.0
O66 O 0.27649 0.96295 0.2669 0.0
O67 O 0.25812 0.9533 0.31321 0.0
O68 O 0.23507 0.97703 0.20087 0.0
O69 O 0.20204 0.98658 0.23629 0.0
O70 O 0.59932 0.80451 0.45554 0.0
Cd71 Cd 0.55842 0.79386 0.4787 0.0
Cd72 Cd 0.53007 0.77746 0.42013 0.0
O73 O 0.57576 0.76841 0.41773 0.0
O74 O 0.57115 0.77795 0.52018 0.0
O75 O 0.53936 0.74982 0.4782 0.0
C76 C 0.55565 0.75143 0.50671 0.0
C77 C 0.48939 0.75018 0.38039 0.0
C78 C 0.60136 0.78679 0.43147 0.0
C79 C 0.52328 0.83686 0.45428 0.0
O80 O 0.52575 0.82279 0.42768 0.0
O81 O 0.5301 0.82547 0.48069 0.0
O82 O 0.48808 0.74494 0.41034 0.0
O83 O 0.514 0.76993 0.37353 0.0
O84 O 0.68057 0.39396 0.7244 0.0
Cd85 Cd 0.6978 0.4399 0.7395 0.0
Cd86 Cd 0.72415 0.43785 0.68294 0.0
O87 O 0.7061 0.39198 0.68117 0.0
O88 O 0.68416 0.44043 0.78328 0.0
O89 O 0.6659 0.46774 0.74577 0.0
C90 C 0.66619 0.45938 0.77483 0.0
C91 C 0.69127 0.46487 0.65424 0.0
C92 C 0.68797 0.37871 0.70078 0.0
C93 C 0.7722 0.45423 0.74078 0.0
O94 O 0.76968 0.45171 0.71004 0.0
O95 O 0.7467 0.45218 0.75485 0.0
O96 O 0.71344 0.45442 0.64057 0.0
O97 O 0.69009 0.46199 0.68472 0.0
O98 O 0.07278 0.22072 0.93767 0.0
Cd99 Cd 1.05186 0.24111 0.90082 0.0
Cd100 Cd 1.02303 0.26515 0.95003 0.0
O101 O 1.0529 0.24211 0.97772 0.0
O102 O 0.07965 0.24208 0.86537 0.0
O103 O 0.07442 0.28344 0.89438 0.0
C104 C 0.08729 0.27144 0.87165 0.0
C105 C 1.03203 0.31822 0.96078 0.0
C106 C 0.07147 0.22539 0.96769 0.0
C107 C 0.97903 0.22997 0.89145 0.0
O108 O 0.98105 0.2436 0.91946 0.0
O109 O 1.0047 0.22603 0.87997 0.0
O110 O 1.01388 0.29999 0.97762 0.0
O111 O 1.04468 0.30618 0.93792 0.0
O112 O 0.61395 0.16946 0.31128 0.0
Cd113 Cd 0.57173 0.14574 0.32649 0.0
Cd114 Cd 0.61818 0.1416 0.38013 0.0
O115 O 0.65046 0.15981 0.34927 0.0
O116 O 0.53531 0.16627 0.33716 0.0
O117 O 0.53961 0.14769 0.28813 0.0
C118 C 0.52364 0.16096 0.30696 0.0
C119 C 0.62975 0.16395 0.43295 0.0
C120 C 0.64365 0.17115 0.32283 0.0
C121 C 0.57567 0.08262 0.34959 0.0
O122 O 0.59696 0.0951 0.37319 0.0
O123 O 0.56447 0.09896 0.32896 0.0
O124 O 0.64757 0.14677 0.42138 0.0
O125 O 0.60457 0.16838 0.41447 0.0
O126 O 0.40005 0.23216 0.62473 0.0
Cd127 Cd 0.39437 0.19491 0.58977 0.0
Cd128 Cd 0.36422 0.24162 0.55039 0.0
O129 O 0.37649 0.26545 0.59798 0.0
O130 O 0.42338 0.16647 0.609 0.0
O131 O 0.43242 0.18801 0.56418 0.0
C132 C 0.44136 0.17078 0.58586 0.0
C133 C 0.37147 0.26447 0.49878 0.0
C134 C 0.39012 0.2574 0.62442 0.0
C135 C 0.31976 0.17921 0.56299 0.0
O136 O 0.32413 0.20436 0.54925 0.0
O137 O 0.34405 0.17107 0.57922 0.0
O138 O 0.34844 0.26846 0.51555 0.0
O139 O 0.39157 0.24877 0.51161 0.0
O140 O 0.29739 0.08819 0.84576 0.0
Cd141 Cd 0.33451 0.11027 0.88137 0.0
Cd142 Cd 0.28922 0.12332 0.91137 0.0
O143 O 0.2589 0.09979 0.87265 0.0
O144 O 0.37528 0.1007 0.86888 0.0
O145 O 0.35729 0.0886 0.91533 0.0
C146 C 0.3797 0.08957 0.8964 0.0
C147 C 0.27678 0.10832 0.9608 0.0
C148 C 0.26724 0.08762 0.84769 0.0
C149 C 0.33255 0.17658 0.89119 0.0
O150 O 0.30771 0.16871 0.90591 0.0
O151 O 0.34676 0.15652 0.88036 0.0
O152 O 0.25912 0.12349 0.94373 0.0
O153 O 0.30267 0.10213 0.95032 0.0
O154 O 0.37394 0.93969 0.13898 0.0
Cd155 Cd 0.38218 0.9779 0.11365 0.0
Cd156 Cd 0.39142 0.9279 0.06633 0.0
O157 O 0.37667 0.90121 0.10424 0.0
O158 O 0.37796 1.01031 0.14696 0.0
O159 O 0.34795 1.00217 0.0993 0.0
C160 C 0.3561 1.01799 0.12687 0.0
C161 C 0.37413 0.91274 1.01075 0.0
C162 C 0.37276 0.91135 0.13239 0.0
C163 C 0.44861 0.98126 0.0908 0.0
O164 O 0.4382 0.95547 0.07454 0.0
O165 O 0.42974 0.99366 0.10626 0.0
O166 O 0.39245 0.89844 1.0283 0.0
O167 O 0.3639 0.93472 1.02496 0.0
O168 O 0.35776 0.46321 0.13831 0.0
Cd169 Cd 0.35863 0.49913 0.10605 0.0
Cd170 Cd 0.38099 0.44438 0.06487 0.0
O171 O 0.36906 0.42405 0.10938 0.0
O172 O 0.33448 0.53146 0.12411 0.0
O173 O 0.31457 0.50295 0.07936 0.0
C174 C 0.31106 0.52398 0.10038 0.0
C175 C 0.3735 0.41752 1.01083 0.0
C176 C 0.36197 0.4355 0.13608 0.0
C177 C 0.42826 0.50983 0.08153 0.0
O178 O 0.42127 0.48183 0.07002 0.0
O179 O 0.40697 0.52122 0.09533 0.0
O180 O 0.39506 0.41336 1.03381 0.0
O181 O 0.35434 0.43519 1.01875 0.0
O182 O 0.8858 0.25693 0.12004 0.0
Cd183 Cd 0.87617 0.23014 0.07669 0.0
Cd184 Cd 0.84595 0.27655 0.05871 0.0
O185 O 0.86605 0.29669 0.10448 0.0
O186 O 0.89842 0.19585 0.0864 0.0
O187 O 0.91041 0.22569 0.0472 0.0
C188 C 0.91479 0.20226 0.06253 0.0
C189 C 0.85775 0.29576 1.01002 0.0
C190 C 0.87999 0.28331 0.12641 0.0
C191 C 0.80266 0.21504 0.05674 0.0
O192 O 0.80321 0.24344 0.05505 0.0
O193 O 0.82906 0.20585 0.06378 0.0
O194 O 0.8396 0.3079 1.02763 0.0
O195 O 0.87097 0.27406 1.02113 0.0
O196 O 0.15201 0.44709 0.2112 0.0
Cd197 Cd 0.17536 0.4813 0.24656 0.0
Cd198 Cd 0.09362 0.49316 0.23872 0.0
O199 O 0.10592 0.453 0.22404 0.0
O200 O 0.22271 0.48225 0.25077 0.0
O201 O 0.19244 0.47236 0.2908 0.0
C202 C 0.22096 0.47724 0.28073 0.0
C203 C 1.06027 0.49145 0.27887 0.0
C204 C 0.12466 0.45366 0.20232 0.0
C205 C 0.15412 0.54537 0.23762 0.0
O206 O 0.12294 0.53627 0.23435 0.0
O207 O 0.17322 0.52678 0.24209 0.0
O208 O 1.04824 0.49288 0.24923 0.0
O209 O 0.0908 0.49028 0.28503 0.0
O210 O 0.84614 0.9654 0.6429 0.0
Cd211 Cd 0.84462 0.99917 0.60829 0.0
Cd212 Cd 0.87032 0.94447 0.57052 0.0
O213 O 0.85943 0.92589 0.61638 0.0
O214 O 0.81839 1.03033 0.62481 0.0
O215 O 0.79976 0.9999 0.58109 0.0
C216 C 0.79507 1.02109 0.60126 0.0
C217 C 0.8653 0.91673 0.51728 0.0
C218 C 0.85181 0.93817 0.64244 0.0
C219 C 0.91379 1.01187 0.58288 0.0
O220 O 0.90844 0.9834 0.57358 0.0
O221 O 0.89178 1.02284 0.59592 0.0
O222 O 0.88698 0.9141 0.54089 0.0
O223 O 0.84437 0.93285 0.52431 0.0
O224 O 0.97028 0.073 0.15664 0.0
Cd225 Cd 0.93481 0.05472 0.18503 0.0
Cd226 Cd 0.99526 0.05303 0.22121 0.0
O227 O 0.99849 1.04057 0.17455 0.0
O228 O 0.89638 0.07467 0.18421 0.0
O229 O 0.9382 0.08347 0.22358 0.0
C230 C 0.91015 0.08852 0.21182 0.0
C231 C 1.04423 0.07396 0.25356 0.0
C232 C 0.99563 0.06175 0.15642 0.0
C233 C 0.93671 1.00776 0.22971 0.0
O234 O 0.96075 1.02744 0.24433 0.0
O235 O 0.92598 1.01064 0.20051 0.0
O236 O 1.03647 0.04536 0.24352 0.0
O237 O 1.02427 0.09123 0.24434 0.0
O238 O 0.37623 0.75295 0.6169 0.0
Cd239 Cd 0.36543 0.72348 0.57534 0.0
Cd240 Cd 0.34088 0.76931 0.54938 0.0
O241 O 0.35685 0.79102 0.5959 0.0
O242 O 0.38514 0.68738 0.58367 0.0
O243 O 0.39612 0.71617 0.54321 0.0
C244 C 0.39873 0.69182 0.5577 0.0
C245 C 0.35498 0.78654 0.49979 0.0
C246 C 0.3693 0.7793 0.62028 0.0
C247 C 0.29296 0.71128 0.5534 0.0
O248 O 0.29658 0.73847 0.54494 0.0
O249 O 0.31745 0.70145 0.56568 0.0
O250 O 0.335 0.79835 0.51535 0.0
O251 O 0.36911 0.76666 0.51373 0.0
O252 O 0.41083 0.57783 0.66321 0.0
Cd253 Cd 0.38442 0.56246 0.69912 0.0
Cd254 Cd 0.44813 0.58548 0.74239 0.0
O255 O 0.4536 0.6014 0.69778 0.0
O256 O 0.34139 0.57429 0.69993 0.0
O257 O 0.38588 0.59228 0.73562 0.0
C258 C 0.3553 0.59135 0.7258 0.0
C259 C 0.49677 0.60207 0.77798 0.0
C260 C 0.43905 0.59533 0.66911 0.0
C261 C 0.40818 0.51749 0.7371 0.0
O262 O 0.4303 0.54012 0.74986 0.0
O263 O 0.38706 0.52065 0.71401 0.0
O264 O 0.49474 0.58301 0.75341 0.0
O265 O 0.47124 0.61306 0.78208 0.0
O266 O 0.65903 0.95749 0.67905 0.0
Cd267 Cd 0.68736 0.99205 0.71151 0.0
Cd268 Cd 0.61498 0.99714 0.73717 0.0
O269 O 0.62643 0.95978 0.71418 0.0
O270 O 0.73379 0.98976 0.72028 0.0
O271 O 0.69869 0.98341 0.75686 0.0
C272 C 0.72838 0.98609 0.74985 0.0
C273 C 0.58086 0.99203 0.77712 0.0
C274 C 0.62981 0.95654 0.68443 0.0
C275 C 0.66696 0.05373 0.72149 0.0
O276 O 0.6415 1.04129 0.73382 0.0
O277 O 0.68476 1.03773 0.70853 0.0
O278 O 0.56947 0.99547 0.74782 0.0
O279 O 0.61128 0.9902 0.78316 0.0
O280 O 0.91194 0.73527 0.13378 0.0
Cd281 Cd 0.91008 0.69804 0.09929 0.0
Cd282 Cd 0.87486 0.74361 0.05877 0.0
O283 O 0.88488 0.76623 0.10683 0.0
O284 O 0.94125 0.67158 0.11959 0.0
O285 O 0.94922 0.69254 0.07434 0.0
C286 C 0.95911 0.6761 0.09637 0.0
C287 C 0.87794 0.76942 1.00824 0.0
C288 C 0.89926 0.75908 0.13337 0.0
C289 C 0.83582 0.67813 0.07051 0.0
O290 O 0.83832 0.70332 0.05687 0.0
O291 O 0.86082 0.67173 0.08736 0.0
O292 O 0.8546 0.76975 1.02581 0.0
O293 O 0.90055 0.75571 1.01961 0.0
O294 O 0.11366 0.68975 0.80009 0.0
Cd295 Cd 0.07172 0.66468 0.81451 0.0
Cd296 Cd 0.11767 0.66364 0.87174 0.0
O297 O 0.14916 0.68402 0.84116 0.0
O298 O 1.03657 0.68427 0.82971 0.0
O299 O 1.03732 0.66813 0.77882 0.0
C300 C 1.02277 0.68017 0.80008 0.0
C301 C 0.13617 0.67797 0.92633 0.0
C302 C 0.14302 0.69389 0.81374 0.0
C303 C 0.07602 0.60331 0.83919 0.0
O304 O 0.09533 0.61754 0.86338 0.0
O305 O 1.06572 0.61787 0.81632 0.0
O306 O 0.15082 0.66198 0.90878 0.0
O307 O 0.11069 0.68655 0.91274 0.0
O308 O 0.87663 0.42985 0.64911 0.0
Cd309 Cd 0.86952 0.46632 0.62395 0.0
Cd310 Cd 0.88273 0.42248 0.57149 0.0
O311 O 0.87956 0.39482 0.61032 0.0
O312 O 0.85725 0.4948 0.65669 0.0
O313 O 0.82492 0.4756 0.61172 0.0
C314 C 0.83015 0.49319 0.6382 0.0
C315 C 0.86757 0.40026 0.51779 0.0
C316 C 0.87951 0.40308 0.64 0.0
C317 C 0.92912 0.48528 0.59096 0.0
O318 O 0.92221 0.45932 0.5748 0.0
O319 O 0.91063 0.49261 0.61064 0.0
O320 O 0.89229 0.3948 0.53595 0.0
O321 O 0.85017 0.41737 0.53041 0.0
O322 O 0.81851 0.60075 0.36745 0.0
Cd323 Cd 0.84772 0.62006 0.40967 0.0
Cd324 Cd 0.79503 0.63307 0.42997 0.0
O325 O 0.77438 0.60858 0.3873 0.0
O326 O 0.88922 0.60699 0.40787 0.0
O327 O 0.85757 0.59422 0.44613 0.0
C328 C 0.88405 0.593 0.43353 0.0
C329 C 0.75739 0.6247 0.46685 0.0
C330 C 0.78764 0.59831 0.36452 0.0
C331 C 0.84703 0.68582 0.41745 0.0
O332 O 0.81884 0.67751 0.42637 0.0
O333 O 0.86367 0.66611 0.41125 0.0
O334 O 0.75372 0.64094 0.44285 0.0
O335 O 0.7841 0.6146 0.47157 0.0
Tb336 Tb 0.13213 0.10354 0.07164 0.0
Eu337 Eu 0.18868 0.1529 0.12032 0.0
C338 C 0.20501 0.107 0.06302 0.0
C339 C 0.17346 0.08153 0.12962 0.0
C340 C 1.05246 0.09074 1.0278 0.0
C341 C 0.99549 0.09257 1.03131 0.0
C342 C 1.02039 0.07594 1.03141 0.0
C343 C 1.05873 0.12194 1.02192 0.0
C344 C 1.034 0.13858 1.02201 0.0
C345 C 1.00238 0.1244 1.02802 0.0
C346 C 0.08022 0.07628 0.03765 0.0
O347 O 0.1139 0.13881 0.09626 0.0
O348 O 0.14272 0.14031 0.1445 0.0
O349 O 0.16265 0.18082 0.08698 0.0
O350 O 0.15251 0.14277 0.04621 0.0
C351 C 0.11423 0.13833 0.12724 0.0
O352 O 0.21346 0.1685 0.16905 0.0
O353 O 0.231 0.19142 0.12812 0.0
O354 O 0.21235 0.13387 0.07997 0.0
O355 O 0.17575 0.08878 0.06048 0.0
O356 O 0.144 0.07851 0.11346 0.0
O357 O 0.1965 0.10609 0.12931 0.0
C358 C 0.15365 0.17132 0.05632 0.0
O359 O 0.10743 0.08642 1.02553 0.0
O360 O 0.08563 0.07435 0.06877 0.0
C361 C 0.26931 0.17198 0.16277 0.0
C362 C 0.30715 0.12701 0.15687 0.0
C363 C 0.29136 0.1298 0.18447 0.0
C364 C 0.27273 0.15222 0.18749 0.0
C365 C 0.28911 0.17192 0.13769 0.0
C366 C 0.30756 0.14946 0.13461 0.0
C367 C 0.2389 0.18422 0.1575 0.0
H368 H 0.97123 0.08078 1.03539 0.0
H369 H 1.01507 0.05203 1.03642 0.0
H370 H 0.08335 0.1341 1.01965 0.0
H371 H 1.04042 0.16302 1.01974 0.0
H372 H 0.29096 0.11304 0.20228 0.0
H373 H 0.25819 0.15183 0.20738 0.0
H374 H 0.2877 0.1871 0.11847 0.0
H375 H 0.32042 0.14843 0.11362 0.0
Tb376 Tb 0.40883 0.833 0.31353 0.0
Eu377 Eu 0.3301 0.79914 0.29105 0.0
C378 C 0.35344 0.87144 0.31539 0.0
C379 C 0.36438 0.8058 0.3644 0.0
C380 C 0.48612 0.8899 0.33144 0.0
C381 C 0.48397 0.9436 0.32915 0.0
C382 C 0.46812 0.91276 0.32616 0.0
C383 C 0.52029 0.89829 0.33958 0.0
C384 C 0.53627 0.92929 0.34255 0.0
C385 C 0.51824 0.95229 0.33733 0.0
C386 C 0.46884 0.85757 0.32922 0.0
O387 O 0.40264 0.79006 0.2842 0.0
O388 O 0.3582 0.76244 0.30203 0.0
O389 O 0.35332 0.81473 0.24638 0.0
O390 O 0.39364 0.85457 0.2709 0.0
C391 C 0.38782 0.76433 0.29437 0.0
O392 O 0.29094 0.77977 0.25209 0.0
O393 O 0.28061 0.77838 0.30153 0.0
O394 O 0.3312 0.84962 0.29812 0.0
O395 O 0.38288 0.86821 0.32707 0.0
O396 O 0.39233 0.80618 0.35288 0.0
O397 O 0.33811 0.80899 0.34553 0.0
C398 C 0.37409 0.84097 0.24512 0.0
O399 O 0.4479 0.851 0.34989 0.0
O400 O 0.45642 0.84542 0.30024 0.0
C401 C 0.25192 0.73679 0.26439 0.0
C402 C 0.21765 0.67483 0.2519 0.0
C403 C 0.2467 0.68567 0.23831 0.0
C404 C 0.26371 0.71614 0.24464 0.0
C405 C 0.22257 0.72639 0.27736 0.0
C406 C 0.20568 0.69575 0.27134 0.0
C407 C 0.26973 0.76914 0.2714 0.0
H408 H 0.46928 0.96071 0.32538 0.0
H409 H 0.4417 0.90675 0.31991 0.0
H410 H 0.53455 0.88091 0.34376 0.0
H411 H 0.5627 0.93524 0.34866 0.0
H412 H 0.25631 0.67066 0.22249 0.0
H413 H 0.28611 0.72349 0.23398 0.0
H414 H 0.21283 0.74194 0.29246 0.0
H415 H 0.18361 0.68838 0.28248 0.0
Tb416 Tb 0.60874 0.08428 0.55132 0.0
Eu417 Eu 0.63178 0.11815 0.62242 0.0
C418 C 0.5963 0.04654 0.61178 0.0
C419 C 0.56165 0.12063 0.58599 0.0
C420 C 0.57774 1.02841 0.48313 0.0
C421 C 0.57211 0.97561 0.49584 0.0
C422 C 0.58655 1.00643 0.50304 0.0
C423 C 0.55496 1.01913 0.45533 0.0
C424 C 0.54047 0.98804 0.44799 0.0
C425 C 0.54841 0.96616 0.4687 0.0
C426 C 0.58845 0.0608 0.49449 0.0
O427 O 0.64892 0.12303 0.55088 0.0
O428 O 0.63202 0.15394 0.58604 0.0
O429 O 0.67472 0.09749 0.60917 0.0
O430 O 0.64894 0.06131 0.56833 0.0
C431 C 0.6457 0.1504 0.55998 0.0
O432 O 0.67279 0.14424 0.65551 0.0
O433 O 0.62432 0.13455 0.67075 0.0
O434 O 0.61512 0.06888 0.63124 0.0
O435 O 0.58805 0.04891 0.58095 0.0
O436 O 0.57451 0.11539 0.55926 0.0
O437 O 0.57727 0.11699 0.61408 0.0
C438 C 0.67481 0.07313 0.58981 0.0
O439 O 0.56981 0.07009 0.514 0.0
O440 O 0.61944 0.07007 0.50559 0.0
C441 C 0.65865 0.18356 0.68677 0.0
C442 C 0.66536 0.24735 0.69574 0.0
C443 C 0.69226 0.23487 0.6893 0.0
C444 C 0.68898 0.2033 0.68495 0.0
C445 C 0.63228 0.19597 0.69534 0.0
C446 C 0.63566 0.22772 0.69985 0.0
C447 C 0.65432 0.15069 0.67689 0.0
H448 H 0.57929 0.95914 0.51177 0.0
H449 H 0.60378 1.01321 0.52484 0.0
H450 H 0.54759 1.03595 0.44 0.0
H451 H 0.52242 0.98121 0.42681 0.0
H452 H 0.7157 0.24959 0.68692 0.0
H453 H 0.70998 0.19438 0.6792 0.0
H454 H 0.60872 0.1813 0.69731 0.0
H455 H 0.61464 0.23692 0.70499 0.0
Tb456 Tb 0.34693 0.347 0.80272 0.0
Eu457 Eu 0.4233 0.34836 0.82576 0.0
C458 C 0.40046 0.40009 0.78879 0.0
C459 C 0.3884 0.3179 0.75353 0.0
C460 C 0.25804 0.35006 0.79488 0.0
C461 C 0.19884 0.33894 0.78358 0.0
C462 C 0.22951 0.34548 0.77275 0.0
C463 C 0.25593 0.35012 0.82811 0.0
C464 C 0.22523 0.34377 0.83899 0.0
C465 C 0.19652 0.33702 0.81669 0.0
C466 C 0.28932 0.35129 0.78262 0.0
O467 O 0.34567 0.31011 0.83455 0.0
O468 O 0.39663 0.30038 0.8295 0.0
O469 O 0.40155 0.35535 0.87208 0.0
O470 O 0.35681 0.37307 0.85124 0.0
C471 C 0.36726 0.29265 0.83844 0.0
O472 O 0.47287 0.34737 0.81565 0.0
O473 O 0.46347 0.35348 0.86511 0.0
O474 O 0.4185 0.39605 0.81506 0.0
O475 O 0.37747 0.37756 0.77515 0.0
O476 O 0.3595 0.31903 0.76272 0.0
O477 O 0.41592 0.32975 0.77264 0.0
C478 C 0.37752 0.36933 0.87639 0.0
O479 O 0.31284 0.3748 0.79338 0.0
O480 O 0.29943 0.32554 0.7822 0.0
C481 C 0.51257 0.38152 0.85073 0.0
C482 C 0.56487 0.43074 0.8462 0.0
C483 C 0.57085 0.40236 0.85559 0.0
C484 C 0.54482 0.37787 0.85767 0.0
C485 C 0.50644 0.41052 0.84455 0.0
C486 C 0.53246 0.43503 0.84226 0.0
C487 C 0.48571 0.35454 0.84566 0.0
H488 H 0.17697 0.33388 0.76604 0.0
H489 H 0.23095 0.3454 0.747 0.0
H490 H 0.27792 0.35349 0.84539 0.0
H491 H 0.22401 0.34203 0.86462 0.0
H492 H 0.59549 0.39809 0.85836 0.0
H493 H 0.54986 0.35561 0.8625 0.0
H494 H 0.48153 0.41369 0.83938 0.0
H495 H 0.52717 0.45663 0.83515 0.0
Tb496 Tb 0.11061 0.089 0.52931 0.0
Eu497 Eu 0.1168 0.11595 0.60122 0.0
C498 C 0.18062 0.12069 0.56455 0.0
C499 C 0.1183 1.04274 0.58511 0.0
C500 C 0.11136 0.0819 0.44034 0.0
C501 C 0.1367 0.0804 0.391 0.0
C502 C 0.13445 0.07231 0.42262 0.0
C503 C 0.0926 0.10188 0.42701 0.0
C504 C 0.0944 0.1095 0.39532 0.0
C505 C 0.11522 0.09753 0.37628 0.0
C506 C 0.10499 0.06885 0.4712 0.0
O507 O 1.06339 0.06903 0.54648 0.0
O508 O 1.06166 0.10579 0.5855 0.0
O509 O 0.11668 0.15981 0.5737 0.0
O510 O 0.10553 0.13732 0.5219 0.0
C511 C 1.04668 0.08139 0.56653 0.0
O512 O 0.0988 0.11554 0.6482 0.0
O513 O 0.14416 0.14645 0.64216 0.0
O514 O 0.16897 0.11353 0.5917 0.0
O515 O 0.16011 0.11808 0.53792 0.0
O516 O 0.12402 0.0501 0.55564 0.0
O517 O 0.11181 0.06378 0.60544 0.0
C518 C 0.11134 0.16244 0.54215 0.0
O519 O 0.13058 0.06854 0.49199 0.0
O520 O 0.08112 0.07664 0.48497 0.0
C521 C 0.14257 0.12032 0.68912 0.0
C522 C 0.1766 0.0952 0.73914 0.0
C523 C 0.15972 0.1185 0.74613 0.0
C524 C 0.1428 0.13097 0.72124 0.0
C525 C 0.15868 0.09659 0.68206 0.0
C526 C 0.17559 0.08414 0.70686 0.0
C527 C 0.12556 0.13347 0.66266 0.0
H528 H 0.15369 0.07146 0.37741 0.0
H529 H 0.14956 0.05726 0.43261 0.0
H530 H 0.07493 0.11014 0.44026 0.0
H531 H 0.07724 0.12257 0.38511 0.0
H532 H 0.16053 0.12787 0.77075 0.0
H533 H 0.13037 0.14918 0.72702 0.0
H534 H 0.15854 0.08799 0.65728 0.0
H535 H 0.18818 0.06614 0.70077 0.0
Tb536 Tb 0.3458 0.82357 0.82099 0.0
Eu537 Eu 0.37387 0.89103 0.79942 0.0
C538 C 0.35728 0.88017 0.87236 0.0
C539 C 0.29601 0.85957 0.78227 0.0
C540 C 0.31018 0.74064 0.82077 0.0
C541 C 0.30099 0.68574 0.82324 0.0
C542 C 0.30479 0.71492 0.83863 0.0
C543 C 0.30823 0.73697 0.78703 0.0
C544 C 0.30449 0.70781 0.77161 0.0
C545 C 0.30285 0.68218 0.7899 0.0
C546 C 0.32344 0.77071 0.83775 0.0
O547 O 0.36307 0.81528 0.77417 0.0
O548 O 0.36112 0.86116 0.75296 0.0
O549 O 0.41805 0.86985 0.81118 0.0
O550 O 0.39671 0.83627 0.8461 0.0
C551 C 0.36325 0.83236 0.74938 0.0
O552 O 0.37339 0.93925 0.79566 0.0
O553 O 0.41244 0.92059 0.77785 0.0
O554 O 0.37579 0.8972 0.85402 0.0
O555 O 0.33878 0.85357 0.86107 0.0
O556 O 0.30324 0.83327 0.79012 0.0
O557 O 0.31848 0.8853 0.787 0.0
C558 C 0.42243 0.85212 0.83456 0.0
O559 O 0.35428 0.78154 0.83547 0.0
O560 O 0.30593 0.79134 0.83323 0.0
C561 C 0.42625 0.96874 0.80694 0.0
C562 C 0.45039 1.01487 0.85682 0.0
C563 C 0.44156 1.02236 0.82509 0.0
C564 C 0.42942 0.99936 0.80034 0.0
C565 C 0.43962 0.96135 0.83714 0.0
C566 C 0.45179 0.98439 0.86202 0.0
C567 C 0.40243 0.94531 0.78606 0.0
H568 H 0.29924 0.66623 0.83773 0.0
H569 H 0.30607 0.71754 0.86472 0.0
H570 H 0.31233 0.75678 0.77299 0.0
H571 H 0.30609 0.70576 0.74591 0.0
H572 H 0.44008 0.04558 0.82009 0.0
H573 H 0.41925 1.00536 0.77713 0.0
H574 H 0.43743 0.93763 0.84251 0.0
H575 H 0.45867 0.97803 0.88609 0.0
Tb576 Tb 0.64653 0.08941 0.09093 0.0
Eu577 Eu 0.60589 0.09935 1.02322 0.0
C578 C 0.63199 1.03384 1.03496 0.0
C579 C 0.68006 0.12638 0.04018 0.0
C580 C 0.69971 0.11027 0.16847 0.0
C581 C 0.71246 0.12137 0.22631 0.0
C582 C 0.70611 0.1004 0.19923 0.0
C583 C 0.70324 0.14175 0.16463 0.0
C584 C 0.70978 0.16281 0.19171 0.0
C585 C 0.71225 0.15255 0.22296 0.0
C586 C 0.68519 0.08754 0.14143 0.0
O587 O 0.63861 0.13737 0.09971 0.0
O588 O 0.60072 0.14082 0.05647 0.0
O589 O 0.57283 0.06302 0.04511 0.0
O590 O 0.5956 0.07158 0.09825 0.0
C591 C 0.61849 0.1529 0.08422 0.0
O592 O 0.60534 0.10627 0.97215 0.0
O593 O 0.56068 0.10432 0.99473 0.0
O594 O 0.62433 0.05386 1.0143 0.0
O595 O 0.63822 1.04238 0.06637 0.0
O596 O 0.67847 0.10069 0.0539 0.0
O597 O 0.6529 0.13415 1.02954 0.0
C598 C 0.5719 0.05826 0.07554 0.0
O599 O 0.65347 0.07809 0.13907 0.0
O600 O 0.69471 0.09378 0.11357 0.0
C601 C 0.55588 0.08329 0.94097 0.0
C602 C 0.53816 1.04073 0.88678 0.0
C603 C 0.54346 0.07242 0.88309 0.0
C604 C 0.5522 0.09352 0.91004 0.0
C605 C 0.54763 0.05182 0.94508 0.0
C606 C 0.53854 1.03063 0.91809 0.0
C607 C 0.57368 0.10492 0.96769 0.0
H608 H 0.714 0.11243 0.24988 0.0
H609 H 0.70367 0.0762 0.20254 0.0
H610 H 0.69873 0.14985 0.1409 0.0
H611 H 0.71001 0.18669 0.18827 0.0
H612 H 0.54375 0.08107 0.85939 0.0
H613 H 0.55861 0.11776 0.90654 0.0
H614 H 0.55045 0.04357 0.96894 0.0
H615 H 0.53424 1.00638 0.92166 0.0
Tb616 Tb 0.38529 0.3652 0.32877 0.0
Eu617 Eu 0.35166 0.30143 0.29061 0.0
C618 C 0.37574 0.30727 0.36718 0.0
C619 C 0.42989 0.3283 0.29084 0.0
C620 C 0.38907 0.43804 0.37186 0.0
C621 C 0.33408 0.4437 0.37934 0.0
C622 C 0.35926 0.4278 0.38423 0.0
C623 C 0.3955 0.46727 0.36035 0.0
C624 C 0.37034 0.48339 0.35577 0.0
C625 C 0.33849 0.47007 0.36216 0.0
C626 C 0.40795 0.41552 0.36198 0.0
O627 O 0.3627 0.3794 0.28294 0.0
O628 O 0.35813 0.33521 0.2512 0.0
O629 O 0.30671 0.31842 0.30356 0.0
O630 O 0.33406 0.35608 0.34227 0.0
C631 C 0.35948 0.36499 0.25386 0.0
O632 O 0.33167 0.27142 0.24652 0.0
O633 O 0.33448 0.2524 0.29285 0.0
O634 O 0.35129 0.29554 0.34464 0.0
O635 O 0.39829 0.33027 0.36033 0.0
O636 O 0.42474 0.35524 0.30106 0.0
O637 O 0.40695 0.30342 0.29186 0.0
C638 C 0.30628 0.33768 0.32856 0.0
O639 O 0.40172 0.3892 0.37435 0.0
O640 O 0.40842 0.41182 0.33094 0.0
C641 C 0.35124 0.22544 0.25136 0.0
C642 C 0.4031 0.19442 0.25725 0.0
C643 C 0.40628 0.2216 0.2415 0.0
C644 C 0.38057 0.23714 0.23874 0.0
C645 C 0.3466 0.19626 0.26312 0.0
C646 C 0.37252 0.18094 0.26634 0.0
C647 C 0.33103 0.24656 0.26166 0.0
H648 H 0.31009 0.43299 0.38516 0.0
H649 H 0.35377 0.40562 0.39395 0.0
H650 H 0.41852 0.47587 0.35119 0.0
H651 H 0.37479 0.50436 0.34361 0.0
H652 H 0.42967 0.23242 0.23433 0.0
H653 H 0.38498 0.25975 0.22983 0.0
H654 H 0.32427 0.18691 0.27313 0.0
H655 H 0.3695 0.15978 0.27823 0.0
Tb656 Tb 0.62793 0.58253 1.03449 0.0
Eu657 Eu 0.63596 0.60691 0.10731 0.0
C658 C 0.69887 0.61253 0.07021 0.0
C659 C 0.63691 0.53404 0.08799 0.0
C660 C 0.61359 0.5825 0.94617 0.0
C661 C 0.61722 0.5881 0.88922 0.0
C662 C 0.62739 0.57647 0.91818 0.0
C663 C 0.59177 0.60252 0.94558 0.0
C664 C 0.58094 0.6134 0.91663 0.0
C665 C 0.59226 0.60512 0.88764 0.0
C666 C 0.61943 0.56594 0.975 0.0
O667 O 0.58112 0.56254 0.05203 0.0
O668 O 0.58061 0.59872 0.09199 0.0
O669 O 0.63932 0.65154 0.08074 0.0
O670 O 0.61827 0.63001 1.02996 0.0
C671 C 0.56483 0.57507 0.07228 0.0
O672 O 0.62057 0.60363 0.15541 0.0
O673 O 0.66182 0.63901 0.14757 0.0
O674 O 0.68766 0.60417 0.0972 0.0
O675 O 0.67796 0.61084 0.04395 0.0
O676 O 0.64193 0.54234 0.05853 0.0
O677 O 0.63125 0.55459 0.10946 0.0
C678 C 0.6292 0.655 0.05021 0.0
O679 O 0.64836 0.57365 0.99185 0.0
O680 O 0.59611 0.56262 0.99339 0.0
C681 C 0.66547 0.61507 0.19596 0.0
C682 C 0.7038 0.59693 0.24802 0.0
C683 C 0.68022 0.61434 0.25355 0.0
C684 C 0.66121 0.62334 0.22769 0.0
C685 C 0.68859 0.59733 0.19022 0.0
C686 C 0.70776 0.58845 0.21608 0.0
C687 C 0.64552 0.62453 0.16886 0.0
H688 H 0.62766 0.58227 0.8678 0.0
H689 H 0.64486 0.56165 0.91833 0.0
H690 H 0.58131 0.60817 0.96709 0.0
H691 H 0.56176 0.62628 0.91692 0.0
H692 H 0.67702 0.6217 0.27791 0.0
H693 H 0.6434 0.63695 0.23247 0.0
H694 H 0.6919 0.59051 0.16573 0.0
H695 H 0.72563 0.57498 0.21113 0.0
Tb696 Tb 0.85594 0.30964 0.32575 0.0
Eu697 Eu 0.88252 0.38073 0.31551 0.0
C698 C 0.8574 0.36024 0.38201 0.0
C699 C 0.80765 0.34871 0.29089 0.0
C700 C 0.83748 0.22588 0.31363 0.0
C701 C 0.85059 0.17553 0.31365 0.0
C702 C 0.84269 0.20052 0.33014 0.0
C703 C 0.83897 0.22548 0.28017 0.0
C704 C 0.84666 0.2005 0.26368 0.0
C705 C 0.85329 0.17561 0.28039 0.0
C706 C 0.83351 0.25367 0.33175 0.0
O707 O 0.86664 0.30706 0.27619 0.0
O708 O 0.89168 0.3569 0.26961 0.0
O709 O 0.9211 0.36537 0.34959 0.0
O710 O 0.91025 0.31533 0.33076 0.0
C711 C 0.88179 0.32792 0.25896 0.0
O712 O 0.87768 0.42816 0.31361 0.0
O713 O 0.92488 0.41644 0.30956 0.0
O714 O 0.85734 0.38065 0.36061 0.0
O715 O 0.86146 0.33262 0.37397 0.0
O716 O 0.81175 0.32911 0.31288 0.0
O717 O 0.8333 0.36839 0.28388 0.0
C718 C 0.93084 0.33942 0.34633 0.0
O719 O 0.86005 0.26962 0.34877 0.0
O720 O 0.81728 0.27111 0.31568 0.0
C721 C 0.92393 0.46013 0.34256 0.0
C722 C 0.93772 0.5025 0.39693 0.0
C723 C 0.93905 0.5125 0.36556 0.0
C724 C 0.93203 0.49142 0.33855 0.0
C725 C 0.92562 0.4499 0.37382 0.0
C726 C 0.93243 0.47098 0.40088 0.0
C727 C 0.90933 0.43832 0.31487 0.0
H728 H 0.85537 0.15649 0.32701 0.0
H729 H 0.84172 0.20049 0.35595 0.0
H730 H 0.83531 0.24491 0.2669 0.0
H731 H 0.84901 0.20136 0.23816 0.0
H732 H 0.94255 0.53663 0.3616 0.0
H733 H 0.93083 0.4996 0.31458 0.0
H734 H 0.91941 0.42565 0.37725 0.0
H735 H 0.93114 0.46267 0.42469 0.0
Tb736 Tb 0.12229 0.59785 0.59646 0.0
Eu737 Eu 0.09094 0.60924 0.5256 0.0
C738 C 0.11018 0.54238 0.54182 0.0
C739 C 0.16438 0.63461 0.54952 0.0
C740 C 0.17874 0.61596 0.67141 0.0
C741 C 0.20126 0.63318 0.72663 0.0
C742 C 0.1873 0.60938 0.70311 0.0
C743 C 0.18834 0.64596 0.66239 0.0
C744 C 0.20234 0.66986 0.68594 0.0
C745 C 0.20623 0.66397 0.71873 0.0
C746 C 0.15506 0.59306 0.64966 0.0
O747 O 0.11797 0.64695 0.60289 0.0
O748 O 0.08504 0.65192 0.55649 0.0
O749 O 1.05164 0.57615 0.54418 0.0
O750 O 1.07015 0.58077 0.59847 0.0
C751 C 0.10048 0.6634 0.5854 0.0
O752 O 0.09633 0.61422 0.47493 0.0
O753 O 1.04987 0.61659 0.49236 0.0
O754 O 0.10949 0.56334 0.52036 0.0
O755 O 0.1098 0.55057 0.57267 0.0
O756 O 0.1608 0.61034 0.56587 0.0
O757 O 0.1387 0.64266 0.53524 0.0
C758 C 1.04737 0.5705 0.5739 0.0
O759 O 0.12513 0.59742 0.64686 0.0
O760 O 0.16396 0.58669 0.62171 0.0
C761 C 1.04843 0.59194 0.44106 0.0
C762 C 1.02781 0.5472 0.38897 0.0
C763 C 1.03349 0.57862 0.38373 0.0
C764 C 1.04375 0.60081 0.40963 0.0
C765 C 1.04061 0.56082 0.44677 0.0
C766 C 1.03027 0.53856 0.4209 0.0
C767 C 1.06535 0.61461 0.46715 0.0
H768 H 0.20404 0.62747 0.7515 0.0
H769 H 0.18037 0.58625 0.7103 0.0
H770 H 0.18231 0.65129 0.63773 0.0
H771 H 0.20659 0.69318 0.67895 0.0
H772 H 1.03244 0.58617 0.35951 0.0
H773 H 1.04987 0.62479 0.40494 0.0
H774 H 1.0441 0.55368 0.47108 0.0
H775 H 1.02559 0.51461 0.42577 0.0
Tb776 Tb 0.84569 0.84323 0.31132 0.0
Eu777 Eu 0.92355 0.85076 0.33321 0.0
C778 C 0.89423 0.90049 0.29633 0.0
C779 C 0.89004 0.81827 0.2614 0.0
C780 C 0.75902 0.82916 0.31885 0.0
C781 C 0.70186 0.81223 0.32554 0.0
C782 C 0.72608 0.82064 0.3055 0.0
C783 C 0.76769 0.82937 0.35232 0.0
C784 C 0.74353 0.82108 0.37236 0.0
C785 C 0.71043 0.81224 0.35911 0.0
C786 C 0.78468 0.83587 0.29794 0.0
O787 O 0.85151 0.81054 0.34687 0.0
O788 O 0.90169 0.8018 0.33836 0.0
O789 O 0.90301 0.86042 0.37974 0.0
O790 O 0.85427 0.87133 0.35857 0.0
C791 C 0.87399 0.7941 0.35036 0.0
O792 O 0.97354 0.86229 0.32173 0.0
O793 O 0.96485 0.85154 0.37043 0.0
O794 O 0.91308 0.89657 0.32221 0.0
O795 O 0.86968 0.87868 0.28375 0.0
O796 O 0.86068 0.81906 0.26971 0.0
O797 O 0.91702 0.82993 0.28122 0.0
C798 C 0.87658 0.87105 0.38368 0.0
O799 O 0.80436 0.86279 0.30408 0.0
O800 O 0.80062 0.81398 0.29427 0.0
C801 C 1.01064 0.89014 0.36419 0.0
C802 C 1.06233 0.94189 0.37497 0.0
C803 C 1.06691 0.91317 0.38473 0.0
C804 C 1.04126 0.88748 0.3792 0.0
C805 C 1.00476 0.91924 0.35797 0.0
C806 C 1.0305 0.94502 0.36333 0.0
C807 C 0.98648 0.86235 0.35163 0.0
H808 H 0.67642 0.80591 0.31483 0.0
H809 H 0.71917 0.8202 0.27966 0.0
H810 H 0.79318 0.83552 0.36287 0.0
H811 H 0.75075 0.82104 0.39809 0.0
H812 H 0.09106 0.90965 0.39351 0.0
H813 H 1.04603 0.86521 0.38441 0.0
H814 H 0.98092 0.92168 0.3468 0.0
H815 H 1.02612 0.96682 0.35591 0.0
Tb816 Tb 0.90581 0.35181 0.82882 0.0
Eu817 Eu 0.83058 0.30967 0.80185 0.0
C818 C 0.8489 0.38326 0.8055 0.0
C819 C 0.85786 0.32274 0.87638 0.0
C820 C 0.98092 0.41446 0.84586 0.0
C821 C 0.9856 0.46346 0.82241 0.0
C822 C 0.96779 0.43387 0.82527 0.0
C823 C 1.0125 0.42456 0.86269 0.0
C824 C 1.03047 0.45408 0.85967 0.0
C825 C 1.01701 0.47417 0.83995 0.0
C826 C 0.96077 0.38494 0.85228 0.0
O827 O 0.90731 0.30469 0.83709 0.0
O828 O 0.86413 0.27636 0.80135 0.0
O829 O 0.85118 0.3288 0.7584 0.0
O830 O 0.9065 0.34486 0.77672 0.0
C831 C 0.89138 0.27883 0.82107 0.0
O832 O 0.79437 0.28643 0.76225 0.0
O833 O 0.78056 0.28843 0.81054 0.0
O834 O 0.82756 0.3593 0.81263 0.0
O835 O 0.87986 0.38284 0.80475 0.0
O836 O 0.87584 0.34833 0.86862 0.0
O837 O 0.84208 0.30156 0.85402 0.0
C838 C 0.88165 0.33896 0.75331 0.0
O839 O 0.93295 0.38661 0.86255 0.0
O840 O 0.95737 0.36209 0.83047 0.0
C841 C 0.75585 0.24424 0.7751 0.0
C842 C 0.7244 0.18238 0.75718 0.0
C843 C 0.75891 0.19137 0.76173 0.0
C844 C 0.77445 0.22194 0.77064 0.0
C845 C 0.72153 0.23534 0.77175 0.0
C846 C 0.70594 0.20467 0.76317 0.0
C847 C 0.77186 0.277 0.78065 0.0
H848 H 0.97412 0.47829 0.80741 0.0
H849 H 0.9433 0.42651 0.81226 0.0
H850 H 1.02297 0.40989 0.8788 0.0
H851 H 1.05474 0.46127 0.87314 0.0
H852 H 0.77402 0.1748 0.75829 0.0
H853 H 0.80103 0.22829 0.77332 0.0
H854 H 0.70672 0.25225 0.77486 0.0
H855 H 0.67937 0.19877 0.75986 0.0
Tb856 Tb 0.879 0.87555 0.83937 0.0
Eu857 Eu 0.84323 0.81154 0.80344 0.0
C858 C 0.87278 0.81818 0.87891 0.0
C859 C 0.92135 0.83767 0.79978 0.0
C860 C 0.88352 0.95206 0.87222 0.0
C861 C 0.82785 0.96008 0.86897 0.0
C862 C 0.85176 0.94488 0.88142 0.0
C863 C 0.89264 0.97861 0.85612 0.0
C864 C 0.86871 0.99403 0.84386 0.0
C865 C 0.83556 0.98282 0.84752 0.0
C866 C 0.90185 0.92748 0.86906 0.0
O867 O 0.8547 0.88838 0.79331 0.0
O868 O 0.85042 0.84365 0.76279 0.0
O869 O 0.79934 0.82996 0.81785 0.0
O870 O 0.82949 0.86623 0.85637 0.0
C871 C 0.85158 0.87336 0.76448 0.0
O872 O 0.819 0.78072 0.76108 0.0
O873 O 0.82816 0.76252 0.80726 0.0
O874 O 0.84706 0.8064 0.85778 0.0
O875 O 0.89436 0.84157 0.87108 0.0
O876 O 0.91748 0.86462 0.8113 0.0
O877 O 0.89801 0.81306 0.80072 0.0
C878 C 0.80082 0.84892 0.84363 0.0
O879 O 0.89173 0.90287 0.88348 0.0
O880 O 0.90647 0.92051 0.83954 0.0
C881 C 0.84178 0.73628 0.76339 0.0
C882 C 0.89643 0.70901 0.76391 0.0
C883 C 0.89553 0.73539 0.74741 0.0
C884 C 0.86844 0.74906 0.7473 0.0
C885 C 0.84094 0.70776 0.77608 0.0
C886 C 0.86823 0.69431 0.77658 0.0
C887 C 0.82156 0.75629 0.77612 0.0
H888 H 0.80267 0.95112 0.87277 0.0
H889 H 0.84405 0.92492 0.89447 0.0
H890 H 0.91712 0.98491 0.84923 0.0
H891 H 0.87552 1.01231 0.82835 0.0
H892 H 0.91699 0.74713 0.73745 0.0
H893 H 0.86998 0.77123 0.73761 0.0
H894 H 0.82079 0.69763 0.78883 0.0
H895 H 0.86829 0.6737 0.78907 0.0
Tb896 Tb 0.57242 0.56791 0.53937 0.0
Eu897 Eu 0.6217 0.60354 0.60333 0.0
C898 C 0.64751 0.58943 0.53726 0.0
C899 C 0.60545 0.53278 0.58921 0.0
C900 C 0.49705 0.55557 0.49026 0.0
C901 C 0.47262 0.59879 0.47596 0.0
C902 C 0.49378 0.57919 0.47002 0.0
C903 C 0.4751 0.54921 0.51327 0.0
C904 C 0.45439 0.569 0.51954 0.0
C905 C 0.45442 0.59529 0.50239 0.0
C906 C 0.52844 0.54487 0.49439 0.0
O907 O 0.54376 0.57033 0.57947 0.0
O908 O 0.57283 0.61328 0.61054 0.0
O909 O 0.61173 0.64142 0.57296 0.0
O910 O 0.56498 0.61444 0.54113 0.0
C911 C 0.54506 0.59414 0.59992 0.0
O912 O 0.63546 0.60712 0.65563 0.0
O913 O 0.66807 0.63286 0.6254 0.0
O914 O 0.65232 0.58685 0.56838 0.0
O915 O 0.61804 0.58783 0.52205 0.0
O916 O 0.60124 0.53582 0.5581 0.0
O917 O 0.60067 0.55431 0.60933 0.0
C918 C 0.58532 0.64029 0.55222 0.0
O919 O 0.55427 0.56536 0.49002 0.0
O920 O 0.53403 0.53088 0.5205 0.0
C921 C 0.69195 0.60554 0.66459 0.0
C922 C 0.74013 0.56982 0.66718 0.0
C923 C 0.74883 0.60137 0.66358 0.0
C924 C 0.72486 0.61913 0.66227 0.0
C925 C 0.68411 0.57453 0.67124 0.0
C926 C 0.70802 0.5569 0.6725 0.0
C927 C 0.66552 0.6214 0.65335 0.0
H928 H 0.47218 0.61777 0.46102 0.0
H929 H 0.50989 0.58442 0.45163 0.0
H930 H 0.47635 0.53087 0.52896 0.0
H931 H 0.44064 0.56485 0.53981 0.0
H932 H 0.77356 0.61179 0.65945 0.0
H933 H 0.73156 0.64291 0.65702 0.0
H934 H 0.65909 0.56322 0.67328 0.0
H935 H 0.70112 0.53277 0.67606 0.0
Tb936 Tb 0.12053 0.58267 0.06237 0.0
Eu937 Eu 0.15547 0.63045 0.12386 0.0
C938 C 0.12664 0.55995 0.13147 0.0
C939 C 0.08047 0.62725 0.09436 0.0
C940 C 0.08283 0.51353 1.00616 0.0
C941 C 0.0771 0.46158 1.0224 0.0
C942 C 0.08626 0.49323 1.03014 0.0
C943 C 0.07045 0.50189 0.97435 0.0
C944 C 1.0614 0.47024 0.96655 0.0
C945 C 1.0645 0.44972 0.99053 0.0
C946 C 0.09131 0.5468 1.01414 0.0
O947 O 0.15403 0.61999 0.04508 0.0
O948 O 0.14894 0.65811 0.08105 0.0
O949 O 0.19622 0.60792 0.10752 0.0
O950 O 0.16527 0.56506 0.07723 0.0
C951 C 0.15505 0.64893 0.05262 0.0
O952 O 0.19581 0.66749 0.14503 0.0
O953 O 0.15679 0.64952 0.17326 0.0
O954 O 0.15024 0.58368 0.14163 0.0
O955 O 0.10713 0.55904 0.10448 0.0
O956 O 0.08857 0.61628 0.06708 0.0
O957 O 0.10038 0.62854 0.12141 0.0
C958 C 0.19383 0.58051 0.09248 0.0
O959 O 0.07662 0.55696 1.03695 0.0
O960 O 0.12241 0.55959 1.01756 0.0
C961 C 0.18236 0.70259 0.18332 0.0
C962 C 0.18231 0.76359 0.20475 0.0
C963 C 0.20801 0.75683 0.18876 0.0
C964 C 0.2081 0.72669 0.1783 0.0
C965 C 0.15706 0.70918 0.20016 0.0
C966 C 0.15709 0.73943 0.21084 0.0
C967 C 0.18291 0.67084 0.17171 0.0
H968 H 0.08023 0.44638 0.04129 0.0
H969 H 0.0959 0.50189 0.05483 0.0
H970 H 1.06757 0.51729 0.95559 0.0
H971 H 1.05153 0.46183 0.94186 0.0
H972 H 0.22822 0.7749 0.18446 0.0
H973 H 0.22838 0.72226 0.1662 0.0
H974 H 0.13715 0.69106 0.20494 0.0
H975 H 0.13705 0.74399 0.22324 0.0
C976 C 0.0965 0.22076 1.02431 0.0
C977 C 0.09372 0.21297 0.99087 0.0
H978 H 0.11866 0.21424 0.07156 0.0
C979 C 0.11372 0.1942 0.97935 0.0
H980 H 0.08168 0.23546 1.0339 0.0
C981 C 0.13511 0.18256 1.00076 0.0
C982 C 0.13705 0.18941 1.03419 0.0
H983 H 0.11254 0.188 0.95374 0.0
H984 H 0.14927 0.1672 0.99119 0.0
C985 C 0.11809 0.20911 0.04582 0.0
C986 C 0.31371 0.93527 0.33836 0.0
C987 C 0.31241 0.94918 0.30886 0.0
H988 H 0.32748 0.89815 0.36322 0.0
C989 C 0.33365 0.9434 0.28663 0.0
H990 H 0.29828 0.93974 0.35641 0.0
C991 C 0.35026 0.9196 0.2907 0.0
C992 C 0.34649 0.90209 0.31735 0.0
H993 H 0.33384 0.95411 0.26398 0.0
H994 H 0.36318 0.91287 0.27144 0.0
C995 C 0.3302 0.91131 0.3423 0.0
C996 C 0.51649 0.88425 0.48439 0.0
C997 C 0.51977 0.86902 0.45506 0.0
H998 H 0.52239 0.92743 0.51143 0.0
C999 C 0.52581 0.88612 0.42825 0.0
H1000 H 0.51126 0.87166 0.5053 0.0
C1001 C 0.53251 0.91813 0.43189 0.0
C1002 C 0.53301 0.93329 0.46229 0.0
H1003 H 0.52824 0.87496 0.40526 0.0
H1004 H 0.54 0.93092 0.41177 0.0
C1005 C 0.523 0.91614 0.48795 0.0
C1006 C 0.64958 0.46322 0.82958 0.0
C1007 C 0.64301 0.46655 0.79639 0.0
H1008 H 0.62905 0.45035 0.87265 0.0
C1009 C 0.61125 0.46835 0.78334 0.0
H1010 H 0.67414 0.46249 0.84033 0.0
C1011 C 0.58537 0.46108 0.80178 0.0
C1012 C 0.59127 0.45217 0.83336 0.0
H1013 H 0.60567 0.47121 0.75787 0.0
H1014 H 0.56055 0.45844 0.7898 0.0
C1015 C 0.62381 0.45627 0.84808 0.0
C1016 C 0.10303 0.96869 0.63246 0.0
C1017 C 0.11735 0.94751 0.61556 0.0
H1018 H 0.09256 1.01403 0.63717 0.0
C1019 C 0.1322 0.95845 0.58834 0.0
H1020 H 0.09144 0.96194 0.65359 0.0
C1021 C 0.13234 0.98864 0.57841 0.0
C1022 C 0.11836 1.00994 0.5956 0.0
H1023 H 0.14368 0.9435 0.57436 0.0
H1024 H 0.14384 0.9954 0.55724 0.0
C1025 C 0.10382 0.99905 0.62298 0.0
C1026 C 0.49674 0.83155 0.88552 0.0
C1027 C 0.52377 0.85114 0.87495 0.0
H1028 H 0.44407 0.81637 0.88157 0.0
C1029 C 0.51685 0.87045 0.85068 0.0
H1030 H 0.50081 0.81645 0.90427 0.0
C1031 C 0.48431 0.87038 0.83765 0.0
C1032 C 0.45719 0.8511 0.84839 0.0
H1033 H 0.53668 0.88603 0.84187 0.0
H1034 H 0.48048 0.88589 0.81925 0.0
C1035 C 0.46403 0.83157 0.87252 0.0
C1036 C 0.6084 0.23888 0.09131 0.0
C1037 C 0.6137 0.24726 0.12505 0.0
H1038 H 0.60456 0.20362 0.05234 0.0
C1039 C 0.62062 0.22383 0.14476 0.0
H1040 H 0.60302 0.25557 0.07482 0.0
C1041 C 0.62258 0.19413 0.13175 0.0
C1042 C 0.61651 0.18541 0.09816 0.0
H1043 H 0.62518 0.22865 0.17076 0.0
H1044 H 0.62848 0.17769 0.14835 0.0
C1045 C 0.60918 0.20864 0.0783 0.0
C1046 C 0.2166 0.31084 0.34768 0.0
C1047 C 0.21441 0.33072 0.3745 0.0
H1048 H 0.24581 0.2975 0.31233 0.0
C1049 C 0.24274 0.35384 0.3852 0.0
H1050 H 0.19576 0.29269 0.33837 0.0
C1051 C 0.27195 0.35653 0.37018 0.0
C1052 C 0.27418 0.33649 0.34346 0.0
H1053 H 0.24259 0.36971 0.40568 0.0
H1054 H 0.29303 0.37423 0.37989 0.0
C1055 C 0.24564 0.31372 0.33249 0.0
C1056 C 1.05651 0.0793 0.16497 0.0
C1057 C 1.02596 0.08121 0.14822 0.0
H1058 H 0.10834 0.09708 0.17275 0.0
C1059 C 1.02464 0.10408 0.12677 0.0
H1060 H 1.05839 0.06222 0.18209 0.0
C1061 C 1.05342 0.12413 0.1215 0.0
C1062 C 0.08388 0.12203 0.13816 0.0
H1063 H 1.00145 0.10628 0.11392 0.0
H1064 H 1.052 0.14078 0.10377 0.0
C1065 C 0.08512 0.09973 0.16026 0.0
C1066 C 0.33581 0.8065 0.44761 0.0
C1067 C 0.35901 0.79343 0.46584 0.0
H1068 H 0.31893 0.82011 0.40135 0.0
C1069 C 0.38436 0.78492 0.4505 0.0
H1070 H 0.3158 0.81309 0.45854 0.0
C1071 C 0.38634 0.78927 0.4177 0.0
C1072 C 0.3626 0.8016 0.39929 0.0
H1073 H 0.40255 0.77469 0.46377 0.0
H1074 H 0.40615 0.78244 0.40664 0.0
C1075 C 0.33741 0.81028 0.4147 0.0
C1076 C 0.61946 0.97361 0.62913 0.0
C1077 C 0.61005 0.97058 0.66027 0.0
H1078 H 0.62093 1.00043 0.58831 0.0
C1079 C 0.58622 0.98612 0.66947 0.0
H1080 H 0.63666 0.96091 0.62057 0.0
C1081 C 0.57839 1.00975 0.6517 0.0
C1082 C 0.59216 1.01595 0.62317 0.0
H1083 H 0.57602 0.98206 0.6917 0.0
H1084 H 0.56374 1.02455 0.66143 0.0
C1085 C 0.61029 0.99609 0.61053 0.0
C1086 C 0.35053 0.40976 0.95036 0.0
C1087 C 0.37253 0.40398 0.97642 0.0
H1088 H 0.33443 0.40366 0.8989 0.0
C1089 C 0.39523 0.38618 0.96894 0.0
H1090 H 0.33271 0.42342 0.95481 0.0
C1091 C 0.39633 0.37502 0.93692 0.0
C1092 C 0.37475 0.38103 0.91069 0.0
H1093 H 0.41271 0.38112 0.98792 0.0
H1094 H 0.41456 0.36172 0.93279 0.0
C1095 C 0.35156 0.39843 0.91809 0.0
C1096 C 0.09045 0.06397 0.291 0.0
C1097 C 0.07227 0.08492 0.2789 0.0
H1098 H 0.11851 0.05147 0.3316 0.0
C1099 C 0.07698 0.11402 0.29531 0.0
H1100 H 0.08805 1.0416 0.27846 0.0
C1101 C 0.09552 0.12018 0.32581 0.0
C1102 C 0.10883 0.09704 0.34047 0.0
H1103 H 1.06397 0.13096 0.28608 0.0
H1104 H 0.09663 0.14194 0.33911 0.0
C1105 C 0.1084 0.06986 0.3216 0.0
C1106 C 0.36477 0.8237 0.65825 0.0
C1107 C 0.37135 0.79428 0.65353 0.0
H1108 H 0.35708 0.85867 0.69182 0.0
C1109 C 0.37627 0.77785 0.68091 0.0
H1110 H 0.36065 0.83698 0.63784 0.0
C1111 C 0.3737 0.79009 0.71194 0.0
C1112 C 0.36649 0.81927 0.71655 0.0
H1113 H 0.38109 0.755 0.67831 0.0
H1114 H 0.3771 0.77655 0.73228 0.0
C1115 C 0.36255 0.83607 0.68931 0.0
C1116 C 0.57225 0.98737 0.83472 0.0
C1117 C 0.56153 0.99524 0.80389 0.0
H1118 H 0.57243 0.99518 0.88552 0.0
C1119 C 0.53647 1.01181 0.80034 0.0
H1120 H 0.59126 0.97424 0.83804 0.0
C1121 C 0.5259 1.02418 0.8276 0.0
C1122 C 0.53967 1.01953 0.85872 0.0
H1123 H 0.52755 1.01802 0.77679 0.0
H1124 H 0.50928 1.03967 0.82433 0.0
C1125 C 0.56121 0.99924 0.86195 0.0
C1126 C 0.3571 0.43053 0.19661 0.0
C1127 C 0.35986 0.41686 0.1659 0.0
H1128 H 0.35493 0.42578 0.24754 0.0
C1129 C 0.36157 0.38556 0.16463 0.0
H1130 H 0.35581 0.45447 0.19921 0.0
C1131 C 0.36072 0.36885 0.19265 0.0
C1132 C 0.35846 0.38267 0.22343 0.0
H1133 H 0.36376 0.37383 0.14186 0.0
H1134 H 0.36242 0.34501 0.19019 0.0
C1135 C 0.3566 0.41392 0.22468 0.0
C1136 C 0.32282 0.05679 0.11122 0.0
C1137 C 0.34234 0.04507 0.13487 0.0
H1138 H 0.29654 0.09191 0.09972 0.0
C1139 C 0.35007 0.0604 0.16602 0.0
H1140 H 0.3164 0.04555 0.08704 0.0
C1141 C 0.3388 0.08704 0.17326 0.0
C1142 C 0.31986 0.0991 0.14941 0.0
H1143 H 0.36507 0.05195 0.18482 0.0
H1144 H 0.34528 0.09845 0.19737 0.0
C1145 C 0.31177 0.08356 0.1184 0.0
C1146 C 0.79247 0.64004 0.09457 0.0
C1147 C 0.80198 0.65783 0.06896 0.0
H1148 H 0.7529 0.61234 0.11557 0.0
C1149 C 0.77746 0.65899 0.0433 0.0
H1150 H 0.81038 0.63883 0.11502 0.0
C1151 C 0.74466 0.64349 0.0434 0.0
C1152 C 0.73476 0.6267 0.06951 0.0
H1153 H 0.78351 0.67246 1.02319 0.0
H1154 H 0.72676 0.64559 1.02329 0.0
C1155 C 0.75934 0.62498 0.095 0.0
C1156 C 0.93745 0.57849 0.4359 0.0
C1157 C 0.90519 0.57199 0.44354 0.0
H1158 H 0.9736 0.56053 0.41425 0.0
C1159 C 0.89049 0.54176 0.44837 0.0
H1160 H 0.94952 0.60182 0.43274 0.0
C1161 C 0.90477 0.51784 0.43822 0.0
C1162 C 0.93356 0.52436 0.42321 0.0
H1163 H 0.86574 0.53627 0.45472 0.0
H1164 H 0.89054 0.4946 0.43733 0.0
C1165 C 0.95146 0.55471 0.42542 0.0
C1166 C 0.97495 0.52944 0.61205 0.0
C1167 C 0.95927 0.50732 0.58687 0.0
H1168 H 1.0158 0.56674 0.62792 0.0
C1169 C 0.97266 0.50634 0.5577 0.0
H1170 H 0.9651 0.5305 0.63487 0.0
C1171 C 1.00107 0.52729 0.55359 0.0
C1172 C 1.01698 0.54924 0.57879 0.0
H1173 H 0.961 0.48959 0.5379 0.0
H1174 H 1.01085 0.52593 0.53075 0.0
C1175 C 1.0039 0.55004 0.60817 0.0
C1176 C 0.48515 0.17127 0.26075 0.0
C1177 C 0.49258 0.16906 0.29413 0.0
H1178 H 0.45075 0.18111 0.22277 0.0
C1179 C 0.46975 0.17387 0.31489 0.0
H1180 H 0.50236 0.16768 0.24419 0.0
C1181 C 0.44003 0.18079 0.3025 0.0
C1182 C 0.43284 0.18351 0.26922 0.0
H1183 H 0.47477 0.17214 0.34066 0.0
H1184 H 0.42304 0.18496 0.31909 0.0
C1185 C 0.45566 0.1788 0.24844 0.0
C1186 C 0.48854 0.15754 0.5576 0.0
C1187 C 0.47164 0.1572 0.58504 0.0
H1188 H 0.52934 0.14613 0.53595 0.0
C1189 C 0.48451 0.14416 0.61231 0.0
H1190 H 0.47963 0.16731 0.53607 0.0
C1191 C 0.51332 0.13242 0.6124 0.0
C1192 C 0.53028 0.1327 0.58505 0.0
H1193 H 0.47255 0.14342 0.634 0.0
H1194 H 0.52229 0.12299 0.63414 0.0
C1195 C 0.51716 0.14528 0.5575 0.0
C1196 C 0.88683 0.72482 0.39361 0.0
C1197 C 0.85724 0.71686 0.40701 0.0
H1198 H 0.9151 0.75521 0.36461 0.0
C1199 C 0.8348 0.73624 0.40434 0.0
H1200 H 0.90472 0.71041 0.3954 0.0
C1201 C 0.84058 0.76167 0.38634 0.0
C1202 C 0.869 0.76827 0.37088 0.0
H1203 H 0.81181 0.73078 0.41442 0.0
H1204 H 0.82223 0.77556 0.38377 0.0
C1205 C 0.89262 0.75028 0.37563 0.0
C1206 C 1.04631 0.55292 0.81026 0.0
C1207 C 1.06365 0.56969 0.83859 0.0
H1208 H 1.01901 0.5096 0.78812 0.0
C1209 C 1.06732 0.55435 0.86683 0.0
H1210 H 1.04326 0.56395 0.788 0.0
C1211 C 1.05289 0.52325 0.86707 0.0
C1212 C 1.03471 0.50661 0.83896 0.0
H1213 H 0.08037 0.56659 0.88913 0.0
H1214 H 1.05503 0.51261 0.88967 0.0
C1215 C 1.0322 0.52175 0.8104 0.0
C1216 C 0.17058 1.01955 0.18771 0.0
C1217 C 0.20242 1.01394 0.18823 0.0
H1218 H 0.13584 0.04494 0.16755 0.0
C1219 C 0.22375 1.02948 0.16814 0.0
H1220 H 0.15366 1.00761 0.20288 0.0
C1221 C 0.21382 0.051 0.14859 0.0
C1222 C 0.18209 0.05672 0.14809 0.0
H1223 H 0.24841 1.02558 0.16813 0.0
H1224 H 0.23109 0.06334 0.13396 0.0
C1225 C 0.16029 1.04055 0.16736 0.0
C1226 C 0.91957 0.23057 0.88094 0.0
C1227 C 0.94859 0.22706 0.86892 0.0
H1228 H 0.87641 0.24883 0.87296 0.0
C1229 C 0.95103 0.23019 0.83581 0.0
H1230 H 0.91672 0.22786 0.90615 0.0
C1231 C 0.92822 0.2429 0.81711 0.0
C1232 C 0.9023 0.25139 0.83107 0.0
H1233 H 0.97291 0.22723 0.8256 0.0
H1234 H 0.93331 0.24979 0.79341 0.0
C1235 C 0.89638 0.24248 0.8619 0.0
C1236 C 0.66283 0.32907 0.72195 0.0
C1237 C 0.67822 0.34497 0.69777 0.0
H1238 H 0.64685 0.28535 0.74041 0.0
C1239 C 0.68697 0.32827 0.67192 0.0
H1240 H 0.65579 0.34132 0.74218 0.0
C1241 C 0.68198 0.29651 0.67106 0.0
C1242 C 0.66806 0.28074 0.69595 0.0
H1243 H 0.6986 0.33976 0.65274 0.0
H1244 H 0.68949 0.28427 0.65109 0.0
C1245 C 0.65772 0.29712 0.721 0.0
C1246 C 0.65836 0.81488 0.4268 0.0
C1247 C 0.63181 0.79033 0.41637 0.0
H1248 H 0.7041 0.84129 0.41645 0.0
C1249 C 0.63302 0.77122 0.38888 0.0
H1250 H 0.65812 0.82996 0.44793 0.0
C1251 C 0.65922 0.77774 0.37092 0.0
C1252 C 0.68473 0.8034 0.38018 0.0
H1253 H 0.61308 0.75192 0.38041 0.0
H1254 H 0.65914 0.76315 0.34931 0.0
C1255 C 0.68466 0.82137 0.40881 0.0
C1256 C 0.11754 0.2277 0.48236 0.0
C1257 C 0.11815 0.2552 0.50149 0.0
H1258 H 0.11452 0.17878 0.47894 0.0
C1259 C 0.11592 0.25138 0.5348 0.0
H1260 H 0.11894 0.22855 0.45669 0.0
C1261 C 0.11376 0.22199 0.54796 0.0
C1262 C 0.11297 0.19455 0.52852 0.0
H1263 H 0.11616 0.27122 0.55095 0.0
H1264 H 0.11255 0.22082 0.57362 0.0
C1265 C 0.11479 0.19849 0.4953 0.0
C1266 C 0.73842 0.36648 0.23044 0.0
C1267 C 0.70951 0.34832 0.23927 0.0
H1268 H 0.79099 0.3811 0.23934 0.0
C1269 C 0.71334 0.33087 0.26615 0.0
H1270 H 0.737 0.3802 0.20995 0.0
C1271 C 0.74475 0.33108 0.28298 0.0
C1272 C 0.77364 0.34903 0.27385 0.0
H1273 H 0.69204 0.31631 0.27379 0.0
H1274 H 0.74637 0.3169 0.30305 0.0
C1275 C 0.76969 0.36696 0.24744 0.0
C1276 C 0.64281 0.94774 1.03138 0.0
C1277 C 0.63369 0.93718 0.9983 0.0
H1278 H 0.6495 0.98505 0.06873 0.0
C1279 C 0.62432 0.95939 0.97803 0.0
H1280 H 0.65023 0.93222 0.04833 0.0
C1281 C 0.62406 0.98989 0.98969 0.0
C1282 C 0.63306 1.00055 1.02259 0.0
H1283 H 0.617 0.95328 0.95242 0.0
H1284 H 0.61648 1.0052 0.97256 0.0
C1285 C 0.6424 0.97852 0.04318 0.0
C1286 C 0.99784 0.8594 0.75478 0.0
C1287 C 1.00897 0.83178 0.7512 0.0
H1288 H 0.96295 0.88312 0.77308 0.0
C1289 C 0.99101 0.80603 0.7644 0.0
H1290 H 1.01066 0.87983 0.74518 0.0
C1291 C 0.96288 0.80774 0.77996 0.0
C1292 C 0.95202 0.83551 0.78386 0.0
H1293 H 0.99836 0.78422 0.76223 0.0
H1294 H 0.94973 0.78722 0.78916 0.0
C1295 C 0.97032 0.86131 0.77108 0.0
C1296 C 0.2373 0.07708 0.99075 0.0
C1297 C 0.26663 0.09885 0.99148 0.0
H1298 H 0.19463 0.062 1.01379 0.0
C1299 C 0.27929 0.11815 1.01947 0.0
H1300 H 0.22713 0.06224 0.96905 0.0
C1301 C 0.2605 0.1185 0.04491 0.0
C1302 C 0.22894 0.09957 0.04234 0.0
H1303 H 0.30177 0.13532 1.02015 0.0
H1304 H 0.26938 0.13556 0.06507 0.0
C1305 C 0.21862 0.0772 1.01626 0.0
C1306 C 0.86269 0.35431 0.66608 0.0
C1307 C 0.88469 0.38234 0.66527 0.0
H1308 H 0.84464 0.31807 0.69518 0.0
C1309 C 0.90929 0.39286 0.69145 0.0
H1310 H 0.84343 0.34594 0.64618 0.0
C1311 C 0.91058 0.37669 0.71904 0.0
C1312 C 0.88664 0.35017 0.72126 0.0
H1313 H 0.92651 0.4145 0.69121 0.0
H1314 H 0.9285 0.38649 0.73962 0.0
C1315 C 0.86344 0.33846 0.69408 0.0
C1316 C 0.66822 0.17704 0.48362 0.0
C1317 C 0.63653 0.17492 0.46744 0.0
H1318 H 0.69657 0.17273 0.52828 0.0
C1319 C 0.61067 0.1767 0.48559 0.0
H1320 H 0.68874 0.17639 0.47018 0.0
C1321 C 0.61539 0.17511 0.51915 0.0
C1322 C 0.64585 0.17149 0.53438 0.0
H1323 H 0.58606 0.1754 0.47366 0.0
H1324 H 0.59413 0.17195 0.53211 0.0
C1325 C 0.67288 0.17549 0.51699 0.0
C1326 C 0.87173 0.79036 0.17062 0.0
C1327 C 0.89835 0.77661 0.16534 0.0
H1328 H 0.8477 0.81325 0.20452 0.0
C1329 C 0.92238 0.77717 0.19208 0.0
H1330 H 0.85242 0.79012 0.15101 0.0
C1331 C 0.91999 0.79103 0.22276 0.0
C1332 C 0.89289 0.80397 0.22828 0.0
H1333 H 0.94313 0.76671 0.18934 0.0
H1334 H 0.93911 0.79093 0.24246 0.0
C1335 C 0.86883 0.8034 0.20157 0.0
C1336 C 0.20911 0.07759 0.82224 0.0
C1337 C 0.24241 0.07921 0.8189 0.0
H1338 H 0.16189 0.08106 0.79931 0.0
C1339 C 0.25216 0.07977 0.78782 0.0
H1340 H 0.20073 0.07666 0.84584 0.0
C1341 C 0.22989 0.08257 0.7612 0.0
C1342 C 0.19756 0.08467 0.76528 0.0
H1343 H 0.27761 0.081 0.78445 0.0
H1344 H 0.2388 0.0857 0.738 0.0
C1345 C 0.1869 0.08037 0.79567 0.0
C1346 C 0.87075 0.36154 0.47347 0.0
C1347 C 0.86106 0.38853 0.48323 0.0
H1348 H 0.87651 0.33121 0.43422 0.0
C1349 C 0.84811 0.40539 0.45941 0.0
H1350 H 0.88089 0.34811 0.49124 0.0
C1351 C 0.84625 0.39605 0.42643 0.0
C1352 C 0.85653 0.36927 0.4167 0.0
H1353 H 0.8408 0.42649 0.4662 0.0
H1354 H 0.83725 0.41005 0.40858 0.0
C1355 C 0.86816 0.35184 0.44071 0.0
C1356 C 0.66121 0.19071 0.27162 0.0
C1357 C 0.66948 0.18005 0.3018 0.0
H1358 H 0.66915 0.19081 0.2223 0.0
C1359 C 0.69961 0.17094 0.30795 0.0
H1360 H 0.6387 0.19887 0.26645 0.0
C1361 C 0.7176 0.16671 0.28251 0.0
C1362 C 0.70537 0.17127 0.25079 0.0
H1363 H 0.70725 0.16349 0.3313 0.0
H1364 H 0.73863 0.15623 0.28697 0.0
C1365 C 0.67903 0.18633 0.24623 0.0
C1366 C 0.84754 0.78486 0.95764 0.0
C1367 C 0.87752 0.78285 0.97554 0.0
H1368 H 0.8226 0.79664 0.91375 0.0
C1369 C 0.90645 0.79314 0.96132 0.0
H1370 H 0.82466 0.77717 0.96739 0.0
C1371 C 0.90533 0.8053 0.93055 0.0
C1372 C 0.87515 0.80652 0.91241 0.0
H1373 H 0.93007 0.79207 0.97413 0.0
H1374 H 0.92808 0.81309 0.92063 0.0
C1375 C 0.84634 0.79598 0.9266 0.0
C1376 C 0.95534 0.1889 1.027 0.0
C1377 C 0.93683 0.18241 0.05275 0.0
H1378 H 0.99005 0.17531 0.99835 0.0
C1379 C 0.93879 0.156 0.06896 0.0
H1380 H 0.95411 0.20892 1.01382 0.0
C1381 C 0.95911 0.13675 0.06007 0.0
C1382 C 0.97821 0.14339 1.03478 0.0
H1383 H 0.92472 0.15017 0.0888 0.0
H1384 H 0.96047 0.11711 0.07377 0.0
C1385 C 0.97589 0.16961 1.01814 0.0
C1386 C 0.48204 0.51718 0.0575 0.0
C1387 C 0.46238 0.52851 0.07855 0.0
H1388 H 0.52821 0.5225 0.03884 0.0
C1389 C 0.47661 0.55648 0.09704 0.0
H1390 H 0.47245 0.49593 0.04264 0.0
C1391 C 0.50947 0.57195 0.09499 0.0
C1392 C 0.5291 0.56017 0.07413 0.0
H1393 H 0.46265 0.5661 0.11365 0.0
H1394 H 0.51958 0.593 0.11004 0.0
C1395 C 0.51442 0.53264 0.05525 0.0
C1396 C 0.34903 0.62045 0.77592 0.0
C1397 C 0.33732 0.61019 0.74361 0.0
H1398 H 0.34664 0.65094 0.81607 0.0
C1399 C 0.31021 0.62003 0.72815 0.0
H1400 H 0.36962 0.61285 0.78851 0.0
C1401 C 0.29691 0.64201 0.74404 0.0
C1402 C 0.31028 0.65389 0.77566 0.0
H1403 H 0.30064 0.61221 0.70326 0.0
H1404 H 0.2774 0.65086 0.73111 0.0
C1405 C 0.33553 0.64197 0.79186 0.0
C1406 C 0.23236 0.7005 0.53579 0.0
C1407 C 0.26013 0.691 0.55021 0.0
H1408 H 0.18013 0.68987 0.52398 0.0
C1409 C 0.25624 0.66207 0.56269 0.0
H1410 H 0.23461 0.72262 0.52587 0.0
C1411 C 0.22516 0.64341 0.56169 0.0
C1412 C 0.19734 0.65319 0.548 0.0
H1413 H 0.27715 0.65401 0.5739 0.0
H1414 H 0.22296 0.62156 0.57218 0.0
C1415 C 0.20121 0.6817 0.53462 0.0
C1416 C 0.75142 0.98836 0.80808 0.0
C1417 C 0.75592 0.98673 0.77525 0.0
H1418 H 0.77356 0.98987 0.85711 0.0
C1419 C 0.7874 0.98707 0.7668 0.0
H1420 H 0.72748 0.98867 0.81531 0.0
C1421 C 0.81367 0.9879 0.7906 0.0
C1422 C 0.80913 0.98855 0.82348 0.0
H1423 H 0.79171 0.98602 0.74171 0.0
H1424 H 0.83718 0.98642 0.78299 0.0
C1425 C 0.77782 0.98933 0.83201 0.0
C1426 C 0.73747 1.02273 0.57347 0.0
C1427 C 0.76407 1.03415 0.59794 0.0
H1428 H 0.68899 1.0254 0.55168 0.0
C1429 C 0.76051 0.05821 0.61969 0.0
H1430 H 0.73885 1.00419 0.55624 0.0
C1431 C 0.73186 0.07049 0.61699 0.0
C1432 C 0.70526 0.05922 0.59251 0.0
H1433 H 0.78004 0.06776 0.63897 0.0
H1434 H 0.73066 0.089 0.63435 0.0
C1435 C 0.70863 1.03494 0.57086 0.0
C1436 C 0.42925 0.48389 0.77673 0.0
C1437 C 0.40738 0.48726 0.74965 0.0
H1438 H 0.4444 0.45349 0.81043 0.0
C1439 C 0.38455 0.4615 0.73482 0.0
H1440 H 0.44731 0.50339 0.78862 0.0
C1441 C 0.38311 0.43309 0.7472 0.0
C1442 C 0.40434 0.42984 0.77475 0.0
H1443 H 0.36759 0.46327 0.71384 0.0
H1444 H 0.36483 0.41378 0.73539 0.0
C1445 C 0.42772 0.45539 0.78923 0.0
C1446 C 0.20371 0.58791 0.24 0.0
C1447 C 0.16938 0.57858 0.23835 0.0
H1448 H 0.24561 0.62481 0.2464 0.0
C1449 C 0.15071 0.60129 0.23995 0.0
H1450 H 0.21904 0.5712 0.23888 0.0
C1451 C 0.16616 0.63249 0.24411 0.0
C1452 C 0.20063 0.64174 0.24648 0.0
H1453 H 0.12423 0.59498 0.23875 0.0
H1454 H 0.15102 0.64933 0.24528 0.0
C1455 C 0.21906 0.61891 0.24411 0.0
C1456 C 0.54265 0.6947 0.50699 0.0
C1457 C 0.56006 0.72324 0.52153 0.0
H1458 H 0.53706 0.64618 0.5052 0.0
C1459 C 0.58477 0.72439 0.54756 0.0
H1460 H 0.52362 0.69313 0.48678 0.0
C1461 C 0.59298 0.69743 0.55784 0.0
C1462 C 0.57636 0.66893 0.54244 0.0
H1463 H 0.59875 0.74614 0.55912 0.0
H1464 H 0.61262 0.69898 0.57747 0.0
C1465 C 0.55059 0.6678 0.51743 0.0
C1466 C 0.79991 0.44402 0.79351 0.0
C1467 C 0.80155 0.44816 0.76039 0.0
H1468 H 0.81232 0.41842 0.83334 0.0
C1469 C 0.82517 0.43653 0.74515 0.0
H1470 H 0.78256 0.45325 0.80634 0.0
C1471 C 0.84291 0.41726 0.76118 0.0
C1472 C 0.83683 0.40916 0.79232 0.0
H1473 H 0.82736 0.43943 0.71985 0.0
H1474 H 0.85895 0.40641 0.74811 0.0
C1475 C 0.81662 0.42385 0.80901 0.0
C1476 C 1.0296 0.36499 0.99563 0.0
C1477 C 1.03891 0.35188 0.96776 0.0
H1478 H 1.03027 0.40621 1.02462 0.0
C1479 C 1.05578 0.37124 0.94693 0.0
H1480 H 1.01652 0.3507 1.01211 0.0
C1481 C 1.06361 0.40298 0.95406 0.0
C1482 C 1.05498 0.41608 0.98231 0.0
H1483 H 1.06323 0.36186 0.92519 0.0
H1484 H 0.07713 0.41721 0.93781 0.0
C1485 C 1.03767 0.39675 1.0029 0.0
C1486 C 0.12183 0.98156 0.32457 0.0
C1487 C 0.1505 0.97684 0.34241 0.0
H1488 H 1.06981 0.97456 0.32183 0.0
C1489 C 0.15079 0.97291 0.37554 0.0
H1490 H 0.12119 0.98535 0.29913 0.0
C1491 C 0.12136 0.96743 0.38892 0.0
C1492 C 0.09152 0.96483 0.36888 0.0
H1493 H 0.17298 0.97021 0.39006 0.0
H1494 H 0.12158 0.96059 0.41342 0.0
C1495 C 0.09228 0.9755 0.33779 0.0
C1496 C 0.6504 0.44919 0.0899 0.0
C1497 C 0.63509 0.43781 0.11676 0.0
H1498 H 0.66265 0.48668 0.05945 0.0
C1499 C 0.62057 0.45884 0.13363 0.0
H1500 H 0.66207 0.4344 0.07592 0.0
C1501 C 0.62164 0.48939 0.12457 0.0
C1502 C 0.63664 0.50077 0.09757 0.0
H1503 H 0.6086 0.45184 0.15447 0.0
H1504 H 0.6102 0.50417 0.13882 0.0
C1505 C 0.65078 0.47961 0.08032 0.0
C1506 C 1.01431 0.31536 0.36743 0.0
C1507 C 1.03041 0.33781 0.3924 0.0
H1508 H 0.97036 0.29747 0.33384 0.0
C1509 C 1.01331 0.36041 0.40134 0.0
H1510 H 1.0263 0.29734 0.35996 0.0
C1511 C 0.98165 0.36073 0.3862 0.0
C1512 C 0.96506 0.33804 0.36179 0.0
H1513 H 1.02449 0.37814 0.42036 0.0
H1514 H 0.96989 0.37875 0.39417 0.0
C1515 C 0.98199 0.31527 0.35261 0.0
C1516 C 0.0928 0.74996 0.59139 0.0
C1517 C 0.09657 0.75801 0.62513 0.0
H1518 H 0.08997 0.71478 0.55257 0.0
C1519 C 0.10164 0.73423 0.64509 0.0
H1520 H 0.08892 0.767 0.57476 0.0
C1521 C 0.10324 0.70444 0.63234 0.0
C1522 C 0.09878 0.69605 0.59874 0.0
H1523 H 0.10504 0.73881 0.67112 0.0
H1524 H 0.10764 0.68767 0.64915 0.0
C1525 C 0.09332 0.71962 0.57856 0.0
C1526 C 0.71008 0.83948 0.86163 0.0
C1527 C 0.71325 0.84611 0.89556 0.0
H1528 H 0.73406 0.8344 0.81899 0.0
C1529 C 0.7457 0.85416 0.91169 0.0
H1530 H 0.68584 0.83321 0.84797 0.0
C1531 C 0.77352 0.85587 0.89479 0.0
C1532 C 0.7704 0.84873 0.86099 0.0
H1533 H 0.74973 0.85967 0.9376 0.0
H1534 H 0.79773 0.86224 0.90853 0.0
C1535 C 0.73797 0.84023 0.84484 0.0
C1536 C 0.48767 0.62559 0.64891 0.0
C1537 C 0.45968 0.60169 0.64323 0.0
H1538 H 0.53707 0.64177 0.63977 0.0
C1539 C 0.45771 0.57857 0.61857 0.0
H1540 H 0.48959 0.64381 0.66769 0.0
C1541 C 0.48522 0.57685 0.60334 0.0
C1542 C 0.51467 0.59863 0.61204 0.0
H1543 H 0.43642 0.55984 0.61373 0.0
H1544 H 0.48403 0.55726 0.5865 0.0
C1545 C 0.51503 0.62408 0.63338 0.0
C1546 C 0.84952 0.27967 0.95154 0.0
C1547 C 0.85931 0.30331 0.9763 0.0
H1548 H 0.83926 0.2675 0.90078 0.0
C1549 C 0.86773 0.33376 0.96827 0.0
H1550 H 0.84217 0.25607 0.95722 0.0
C1551 C 0.8674 0.34031 0.93576 0.0
C1552 C 0.85728 0.31657 0.91087 0.0
H1553 H 0.87489 0.35237 0.98709 0.0
H1554 H 0.8747 0.3639 0.93012 0.0
C1555 C 0.8478 0.28628 0.91921 0.0
C1556 C 0.15471 0.49635 0.17373 0.0
C1557 C 0.12491 0.47879 0.18086 0.0
H1558 H 0.17838 0.53673 0.15366 0.0
C1559 C 0.09526 0.4869 0.16929 0.0
H1560 H 0.17798 0.49051 0.18179 0.0
C1561 C 0.09556 0.51317 0.15262 0.0
C1562 C 0.12553 0.53184 0.14793 0.0
H1563 H 0.07195 0.4734 0.174 0.0
H1564 H 0.07255 0.51942 0.14438 0.0
C1565 C 0.15503 0.52299 0.15796 0.0
C1566 C 0.89213 0.88943 0.47615 0.0
C1567 C 0.86637 0.90367 0.48307 0.0
H1568 H 0.91557 0.86854 0.44061 0.0
C1569 C 0.84332 0.90674 0.45662 0.0
H1570 H 0.91057 0.8866 0.49543 0.0
C1571 C 0.84615 0.89614 0.42455 0.0
C1572 C 0.87235 0.88235 0.41771 0.0
H1573 H 0.82316 0.91765 0.46062 0.0
H1574 H 0.82795 0.89905 0.40509 0.0
C1575 C 0.89509 0.8791 0.4443 0.0
C1576 C 0.54638 0.5863 0.80351 0.0
C1577 C 0.52595 0.60758 0.80248 0.0
H1578 H 0.5826 0.56828 0.83111 0.0
C1579 C 0.53184 0.63164 0.82677 0.0
H1580 H 0.5426 0.56755 0.78501 0.0
C1581 C 0.55612 0.63294 0.85301 0.0
C1582 C 0.57403 0.60949 0.856 0.0
H1583 H 0.51685 0.64875 0.82616 0.0
H1584 H 0.55949 0.65139 0.87174 0.0
C1585 C 0.56982 0.587 0.83007 0.0
C1586 C 0.88442 0.32718 0.16842 0.0
C1587 C 0.88551 0.29643 0.16053 0.0
H1588 H 0.88312 0.36153 0.20599 0.0
C1589 C 0.88852 0.27714 0.18572 0.0
H1590 H 0.88211 0.34261 0.14959 0.0
C1591 C 0.88843 0.28777 0.21778 0.0
C1592 C 0.88609 0.31814 0.22556 0.0
H1593 H 0.88929 0.2533 0.1806 0.0
H1594 H 0.88941 0.27195 0.23644 0.0
C1595 C 0.88509 0.33803 0.2007 0.0
C1596 C 1.01835 0.51431 0.30294 0.0
C1597 C 1.04175 0.49593 0.30586 0.0
H1598 H 0.99473 0.54499 0.32781 0.0
C1599 C 1.05291 0.48804 0.33652 0.0
H1600 H 1.00905 0.52041 0.27947 0.0
C1601 C 1.04481 0.50207 0.36411 0.0
C1602 C 1.02556 0.52433 0.36135 0.0
H1603 H 0.07055 0.47343 0.33929 0.0
H1604 H 1.05684 0.49803 0.38732 0.0
C1605 C 1.01039 0.52857 0.33062 0.0
C1606 C 0.84732 0.93599 0.70354 0.0
C1607 C 0.85055 0.92116 0.6735 0.0
H1608 H 0.84527 0.93348 0.75487 0.0
C1609 C 0.85337 0.89021 0.67407 0.0
H1610 H 0.84515 0.95973 0.70477 0.0
C1611 C 0.85305 0.87494 0.70308 0.0
C1612 C 0.85027 0.88987 0.73316 0.0
H1613 H 0.85595 0.87761 0.65197 0.0
H1614 H 0.85551 0.85127 0.70191 0.0
C1615 C 0.8474 0.92081 0.73264 0.0
C1616 C 0.77581 0.50822 0.62802 0.0
C1617 C 0.80657 0.51192 0.64665 0.0
H1618 H 0.7309 0.52404 0.6201 0.0
C1619 C 0.81517 0.53457 0.67277 0.0
H1620 H 0.7685 0.49113 0.60769 0.0
C1621 C 0.79362 0.55346 0.67971 0.0
C1622 C 0.76295 0.54964 0.66102 0.0
H1623 H 0.83878 0.53809 0.68751 0.0
H1624 H 0.80086 0.57101 0.69963 0.0
C1625 C 0.75421 0.52687 0.63521 0.0
C1626 C 0.27471 0.144 0.58803 0.0
C1627 C 0.28496 0.16108 0.56217 0.0
H1628 H 0.23421 0.11849 0.60962 0.0
C1629 C 0.2606 0.16353 0.53686 0.0
H1630 H 0.29249 0.14187 0.60823 0.0
C1631 C 0.22732 0.14978 0.53743 0.0
C1632 C 0.21679 0.13359 0.56372 0.0
H1633 H 0.26723 0.17655 0.51659 0.0
H1634 H 0.20961 0.15267 0.51748 0.0
C1635 C 0.24113 0.13076 0.58897 0.0
C1636 C 0.40297 0.04554 0.91337 0.0
C1637 C 0.40794 0.07531 0.90332 0.0
H1638 H 0.41511 1.00181 0.90709 0.0
C1639 C 0.43697 0.08736 0.89049 0.0
H1640 H 0.381 1.03599 0.92387 0.0
C1641 C 0.45694 0.06792 0.88129 0.0
C1642 C 0.44715 1.0363 0.88394 0.0
H1643 H 0.44168 0.11066 0.88339 0.0
H1644 H 0.47615 0.07662 0.86682 0.0
C1645 C 0.42281 1.02598 0.90385 0.0
C1646 C 0.50005 0.99148 0.06495 0.0
C1647 C 0.48254 0.99832 0.09006 0.0
H1648 H 0.54235 1.00542 0.04093 0.0
C1649 C 0.49673 1.02319 0.11294 0.0
H1650 H 0.48987 0.97246 0.04705 0.0
C1651 C 0.52714 1.04186 0.10969 0.0
C1652 C 0.54332 1.03616 0.08321 0.0
H1653 H 0.48387 1.0288 0.13277 0.0
H1654 H 0.53701 0.06163 0.12672 0.0
C1655 C 0.53001 1.0104 0.06141 0.0
C1656 C 0.97972 0.69034 0.75806 0.0
C1657 C 0.99061 0.68782 0.79073 0.0
H1658 H 0.94113 0.69905 0.72385 0.0
C1659 C 0.96999 0.69151 0.81417 0.0
H1660 H 0.99517 0.68762 0.73947 0.0
C1661 C 0.93895 0.69737 0.80512 0.0
C1662 C 0.92812 0.70006 0.77252 0.0
H1663 H 0.97769 0.68956 0.83948 0.0
H1664 H 0.92367 0.70052 0.82376 0.0
C1665 C 0.94885 0.69674 0.74907 0.0
C1666 C 1.0045 0.66071 0.06681 0.0
C1667 C 0.99001 0.66331 0.09551 0.0
H1668 H 1.04333 0.64704 0.04363 0.0
C1669 C 1.0057 0.65371 0.12366 0.0
H1670 H 0.99342 0.66775 0.04456 0.0
C1671 C 1.03484 0.6424 0.12327 0.0
C1672 C 1.04916 0.63946 0.09455 0.0
H1673 H 0.99567 0.65532 0.14631 0.0
H1674 H 1.04603 0.63562 0.14562 0.0
C1675 C 1.03325 0.64868 0.06626 0.0
C1676 C 0.32103 0.22814 0.88113 0.0
C1677 C 0.34292 0.2082 0.8826 0.0
H1678 H 0.31136 0.27057 0.86542 0.0
C1679 C 0.3735 0.21711 0.87139 0.0
H1680 H 0.2972 0.22171 0.88943 0.0
C1681 C 0.38146 0.24473 0.85747 0.0
C1682 C 0.35898 0.26405 0.85441 0.0
H1683 H 0.39093 0.20222 0.87237 0.0
H1684 H 0.40498 0.25051 0.84843 0.0
C1685 C 0.32898 0.25589 0.86702 0.0
C1686 C 0.53872 1.03589 0.32003 0.0
C1687 C 0.5627 0.04893 0.34609 0.0
H1688 H 0.50649 0.99542 0.29665 0.0
C1689 C 0.57316 1.02959 0.36868 0.0
H1690 H 0.53017 0.04993 0.30198 0.0
C1691 C 0.55941 0.99803 0.36552 0.0
C1692 C 0.53475 0.98529 0.3399 0.0
H1693 H 0.59158 1.03885 0.38903 0.0
H1694 H 0.56744 0.98377 0.38359 0.0
C1695 C 0.52496 1.00456 0.31701 0.0
C1696 C 0.66839 0.48399 0.60285 0.0
C1697 C 0.66703 0.47908 0.63569 0.0
H1698 H 0.64926 0.50477 0.56182 0.0
C1699 C 0.642 0.48795 0.65115 0.0
H1700 H 0.68712 0.47694 0.59019 0.0
C1701 C 0.62027 0.50332 0.6349 0.0
C1702 C 0.62294 0.51011 0.6028 0.0
H1703 H 0.63982 0.48399 0.67624 0.0
H1704 H 0.60228 0.51121 0.64801 0.0
C1705 C 0.64649 0.4995 0.58649 0.0
C1706 C 0.42932 0.7325 0.3635 0.0
C1707 C 0.46136 0.73894 0.35517 0.0
H1708 H 0.37933 0.73467 0.34937 0.0
C1709 C 0.46597 0.74285 0.32274 0.0
H1710 H 0.42504 0.72901 0.38826 0.0
C1711 C 0.43987 0.74628 0.3005 0.0
C1712 C 0.40897 0.74566 0.3105 0.0
H1713 H 0.4904 0.74709 0.3155 0.0
H1714 H 0.44486 0.75331 0.27682 0.0
C1715 C 0.40306 0.7357 0.3411 0.0
C1716 C 0.17849 0.83573 0.25533 0.0
C1717 C 0.18739 0.85846 0.23404 0.0
H1718 H 0.17014 0.78775 0.26283 0.0
C1719 C 0.19185 0.84936 0.20238 0.0
H1720 H 0.175 0.84196 0.27992 0.0
C1721 C 0.1892 0.8185 0.19275 0.0
C1722 C 0.18192 0.79592 0.21445 0.0
H1723 H 0.1985 0.86617 0.18524 0.0
H1724 H 0.19346 0.81234 0.16839 0.0
C1725 C 0.17573 0.80471 0.24559 0.0
C1726 C 0.12808 0.31984 0.86837 0.0
C1727 C 0.11177 0.2905 0.85478 0.0
H1728 H 0.16815 0.35791 0.86669 0.0
C1729 C 0.12097 0.27852 0.82634 0.0
H1730 H 0.12134 0.32962 0.89028 0.0
C1731 C 0.14731 0.29484 0.81272 0.0
C1732 C 0.16505 0.32323 0.82754 0.0
H1733 H 0.10861 0.25604 0.81528 0.0
H1734 H 0.15502 0.28438 0.79172 0.0
C1735 C 0.15479 0.336 0.85498 0.0
C1736 C 0.61729 0.724 0.99778 0.0
C1737 C 0.6371 0.75047 1.01598 0.0
H1738 H 0.59955 0.67459 0.99305 0.0
C1739 C 0.65372 0.74463 0.04578 0.0
H1740 H 0.60404 0.7266 0.97467 0.0
C1741 C 0.65055 0.71445 0.05679 0.0
C1742 C 0.63113 0.68791 0.03845 0.0
H1743 H 0.66937 0.76362 0.06094 0.0
H1744 H 0.66404 0.71192 0.0798 0.0
C1745 C 0.6147 0.69367 1.00848 0.0
C1746 C 0.20234 0.83682 0.75659 0.0
C1747 C 0.19633 0.8592 0.73544 0.0
H1748 H 0.2378 0.8189 0.78707 0.0
C1749 C 0.22355 0.88218 0.73058 0.0
H1750 H 0.18237 0.81848 0.76079 0.0
C1751 C 0.25545 0.88279 0.74629 0.0
C1752 C 0.26159 0.85989 0.7667 0.0
H1753 H 0.22024 0.89975 0.71442 0.0
H1754 H 0.27553 0.90083 0.74171 0.0
C1755 C 0.23437 0.83693 0.77156 0.0
C1756 C 0.09964 0.4532 0.54192 0.0
C1757 C 0.11283 0.44436 0.51401 0.0
H1758 H 0.08902 0.48954 0.57259 0.0
C1759 C 0.12501 0.4686 0.49509 0.0
H1760 H 0.08971 0.43585 0.55733 0.0
C1761 C 0.12368 0.4998 0.50342 0.0
C1762 C 0.11097 0.50865 0.53166 0.0
H1763 H 0.1351 0.4634 0.47322 0.0
H1764 H 0.13312 0.51714 0.48779 0.0
C1765 C 0.09921 0.48443 0.55074 0.0
C1766 C 0.50884 0.34951 0.24894 0.0
C1767 C 0.52014 0.32185 0.24657 0.0
H1768 H 0.47305 0.37351 0.26496 0.0
C1769 C 0.50146 0.29638 0.25959 0.0
H1770 H 0.52217 0.36976 0.23942 0.0
C1771 C 0.47258 0.29837 0.27376 0.0
C1772 C 0.4615 0.32615 0.27645 0.0
H1773 H 0.50886 0.27456 0.25835 0.0
H1774 H 0.45896 0.27799 0.28283 0.0
C1775 C 0.48049 0.35171 0.26388 0.0
C1776 C 0.69889 0.62008 0.47368 0.0
C1777 C 0.73013 0.61596 0.48599 0.0
H1778 H 0.64842 0.61438 0.4799 0.0
C1779 C 0.73412 0.60226 0.51522 0.0
H1780 H 0.69491 0.63028 0.45103 0.0
C1781 C 0.70717 0.59324 0.53206 0.0
C1782 C 0.67593 0.59728 0.51944 0.0
H1783 H 0.75795 0.59868 0.52507 0.0
H1784 H 0.71074 0.58304 0.55479 0.0
C1785 C 0.67209 0.61065 0.49007 0.0
C1786 C 0.38995 0.90505 0.18984 0.0
C1787 C 0.37266 0.89178 0.15998 0.0
H1788 H 0.40484 0.89949 0.23909 0.0
C1789 C 0.35656 0.86072 0.15758 0.0
H1790 H 0.40315 0.92875 0.19243 0.0
C1791 C 0.35685 0.84375 0.18509 0.0
C1792 C 0.37408 0.8574 0.21505 0.0
H1793 H 0.34322 0.84986 0.13479 0.0
H1794 H 0.34364 0.82009 0.18293 0.0
C1795 C 0.39102 0.8881 0.21673 0.0
C1796 C 0.12364 0.68693 0.9828 0.0
C1797 C 0.14612 0.68218 0.96153 0.0
H1798 H 0.10963 0.68059 1.03023 0.0
C1799 C 0.17601 0.67513 0.974 0.0
H1800 H 0.10048 0.69252 0.97382 0.0
C1801 C 0.18112 0.66828 1.00602 0.0
C1802 C 0.15669 0.66894 1.02609 0.0
H1803 H 0.19408 0.67187 0.95828 0.0
H1804 H 0.2026 0.65941 1.01411 0.0
C1805 C 0.12896 0.68035 1.01511 0.0
C1806 C 0.41616 0.27516 0.68238 0.0
C1807 C 0.39153 0.27564 0.65647 0.0
H1808 H 0.43506 0.28837 0.73248 0.0
C1809 C 0.3663 0.29084 0.66285 0.0
H1810 H 0.43587 0.26353 0.67874 0.0
C1811 C 0.3652 0.30417 0.69414 0.0
C1812 C 0.38979 0.30361 0.72006 0.0
H1813 H 0.34659 0.29141 0.64391 0.0
H1814 H 0.345 0.31507 0.69801 0.0
C1815 C 0.41563 0.28935 0.7134 0.0
C1816 C 0.78033 0.59441 0.30414 0.0
C1817 C 0.76709 0.58876 0.33318 0.0
H1818 H 0.77038 0.60178 0.25408 0.0
C1819 C 0.73285 0.58015 0.33245 0.0
H1820 H 0.80664 0.60122 0.30404 0.0
C1821 C 0.71217 0.58047 0.30398 0.0
C1822 C 0.72533 0.58948 0.27572 0.0
H1823 H 0.72197 0.57529 0.35444 0.0
H1824 H 0.68586 0.57544 0.30456 0.0
C1825 C 0.75956 0.59485 0.27557 0.0
C1826 C 0.36929 0.92785 0.95335 0.0
C1827 C 0.36676 0.90486 0.97526 0.0
H1828 H 0.36927 0.93828 0.90355 0.0
C1829 C 0.35996 0.87408 0.96293 0.0
H1830 H 0.37499 0.95181 0.96222 0.0
C1831 C 0.35573 0.86635 0.92954 0.0
C1832 C 0.35934 0.88923 0.90755 0.0
H1833 H 0.35812 0.85591 0.97919 0.0
H1834 H 0.35078 0.84234 0.92099 0.0
C1835 C 0.36621 0.92013 0.91982 0.0
C1836 C 0.16296 0.7127 0.76319 0.0
C1837 C 0.17 0.70287 0.79404 0.0
H1838 H 0.17077 0.70892 0.71393 0.0
C1839 C 0.19938 0.69273 0.80141 0.0
H1840 H 0.1412 0.72182 0.75713 0.0
C1841 C 0.2165 0.68518 0.77645 0.0
C1842 C 0.20435 0.68786 0.7442 0.0
H1843 H 0.20624 0.686 0.82532 0.0
H1844 H 0.23555 0.67253 0.78188 0.0
C1845 C 0.18028 0.70542 0.73832 0.0
C1846 C 0.40339 0.28421 0.4524 0.0
C1847 C 0.37338 0.27603 0.46536 0.0
H1848 H 0.42806 0.30126 0.41217 0.0
C1849 C 0.34458 0.27842 0.44556 0.0
H1850 H 0.42614 0.28276 0.46671 0.0
C1851 C 0.34558 0.28794 0.4139 0.0
C1852 C 0.37552 0.29654 0.40103 0.0
H1853 H 0.32096 0.27228 0.45432 0.0
H1854 H 0.32271 0.28906 0.39958 0.0
C1855 C 0.40451 0.29488 0.42102 0.0
C1856 C 0.43886 0.67476 0.52423 0.0
C1857 C 0.41321 0.66772 0.54317 0.0
H1858 H 0.47258 0.65774 0.49731 0.0
C1859 C 0.39978 0.63688 0.54691 0.0
H1860 H 0.44948 0.69838 0.52078 0.0
C1861 C 0.41186 0.61344 0.53226 0.0
C1862 C 0.43856 0.62019 0.51432 0.0
H1863 H 0.37934 0.63076 0.5607 0.0
H1864 H 0.40011 0.59004 0.53519 0.0
C1865 C 0.45173 0.65128 0.51037 0.0
C1866 C 0.96632 1.02026 0.5567 0.0
C1867 C 0.94673 1.03162 0.57783 0.0
H1868 H 1.01169 1.02653 0.53635 0.0
C1869 C 0.95999 0.06073 0.59437 0.0
H1870 H 0.9574 0.99815 0.54324 0.0
C1871 C 0.99196 0.07723 0.59051 0.0
C1872 C 1.0116 0.06541 0.56966 0.0
H1873 H 0.94604 0.07044 0.61093 0.0
H1874 H 1.00144 0.09913 0.60422 0.0
C1875 C 0.99782 1.03676 0.55261 0.0
C1876 C 0.86585 0.11804 0.21564 0.0
C1877 C 0.89437 0.10955 0.22974 0.0
H1878 H 0.83011 0.14547 0.22089 0.0
C1879 C 0.90804 0.12154 0.26123 0.0
H1880 H 0.85468 0.10903 0.19146 0.0
C1881 C 0.89392 0.14216 0.27805 0.0
C1882 C 0.86593 0.15132 0.26368 0.0
H1883 H 0.92993 0.11532 0.27282 0.0
H1884 H 0.90559 0.15173 0.30192 0.0
C1885 C 0.85181 0.13887 0.23243 0.0
C1886 C 0.742 0.20059 0.03898 0.0
C1887 C 0.77134 0.19217 0.05076 0.0
H1888 H 0.6901 0.18616 1.02581 0.0
C1889 C 0.77063 0.16143 0.057 0.0
H1890 H 0.74178 0.22402 1.03374 0.0
C1891 C 0.7411 0.13978 0.05247 0.0
C1892 C 0.71168 0.14833 0.04138 0.0
H1893 H 0.79282 0.15413 0.06601 0.0
H1894 H 0.74127 0.11649 0.05829 0.0
C1895 C 0.71245 0.17883 1.03421 0.0
C1896 C 0.2815 0.48306 0.29065 0.0
C1897 C 0.25119 0.47815 0.30281 0.0
H1898 H 0.33269 0.48473 0.29985 0.0
C1899 C 0.25037 0.47472 0.33596 0.0
H1900 H 0.28305 0.48612 0.26528 0.0
C1901 C 0.27928 0.47466 0.35624 0.0
C1902 C 0.30942 0.4779 0.34363 0.0
H1903 H 0.22737 0.47145 0.34611 0.0
H1904 H 0.27786 0.47092 0.38149 0.0
C1905 C 0.31021 0.48289 0.31075 0.0
C1906 C 0.28034 0.56489 0.11793 0.0
C1907 C 0.28116 0.53868 0.0978 0.0
H1908 H 0.25329 0.59852 0.13197 0.0
C1909 C 0.25278 0.52653 0.07566 0.0
H1910 H 0.30139 0.57512 0.13538 0.0
C1911 C 0.22472 0.53984 0.07397 0.0
C1912 C 0.224 0.56619 0.09398 0.0
H1913 H 0.25204 0.50638 0.05975 0.0
H1914 H 0.20354 0.52945 0.05675 0.0
C1915 C 0.25251 0.57846 0.11591 0.0
C1916 C 0.89846 0.95687 0.2318 0.0
C1917 C 0.92309 0.98117 0.24703 0.0
H1918 H 0.86971 0.91204 0.23569 0.0
C1919 C 0.93622 0.9795 0.27926 0.0
H1920 H 0.88783 0.95759 0.20705 0.0
C1921 C 0.92606 0.95364 0.29549 0.0
C1922 C 0.90236 0.92887 0.27999 0.0
H1923 H 0.95505 0.99792 0.29193 0.0
H1924 H 0.93729 0.95289 0.32003 0.0
C1925 C 0.88809 0.93089 0.24822 0.0
C1926 C 0.66443 0.10495 0.74781 0.0
C1927 C 0.67886 0.08756 0.72675 0.0
H1928 H 0.66772 0.14789 0.77457 0.0
C1929 C 0.7071 0.10224 0.71405 0.0
H1930 H 0.64273 0.09448 0.75819 0.0
C1931 C 0.72137 0.13308 0.72335 0.0
C1932 C 0.70792 0.15005 0.74575 0.0
H1933 H 0.71876 0.08971 0.69757 0.0
H1934 H 0.74314 0.14354 0.71308 0.0
C1935 C 0.67882 0.13572 0.75728 0.0
loop_
_geom_bond_atom_site_label_1
_geom_bond_atom_site_label_2
_geom_bond_distance
_geom_bond_site_symmetry_2
_ccdc_geom_bond_type
O0 Cd1 2.223 . S
O0 C8 1.315 . S
Cd1 O0 2.223 . S
Cd1 O4 2.297 . S
Cd1 O5 2.439 . S
Cd1 O11 2.240 . S
Cd2 O3 2.240 . S
Cd2 O10 2.223 1_455 S
Cd2 O12 2.297 . S
Cd2 O13 2.439 . S
O3 Cd2 2.240 . S
O3 C8 1.279 . S
O4 Cd1 2.297 . S
O4 C6 1.247 . S
O5 Cd1 2.439 . S
O5 C6 1.208 . S
C6 O4 1.247 . S
C6 O5 1.208 . S
C7 O12 1.247 . S
C7 O13 1.208 . S
C8 O0 1.315 . S
C8 O3 1.279 . S
C9 O10 1.315 . S
C9 O11 1.279 1_655 S
O10 Cd2 2.223 1_655 S
O10 C9 1.315 . S
O11 Cd1 2.240 . S
O11 C9 1.279 1_455 S
O12 Cd2 2.297 . S
O12 C7 1.247 . S
O13 Cd2 2.439 . S
O13 C7 1.208 . S
O14 Cd15 2.223 . S
O14 C22 1.315 . S
Cd15 O14 2.223 . S
Cd15 O18 2.297 1_455 S
Cd15 O19 2.439 1_455 S
Cd15 O25 2.240 . S
Cd16 O17 2.240 . S
Cd16 O24 2.223 . S
Cd16 O26 2.297 . S
Cd16 O27 2.439 . S
O17 Cd16 2.240 . S
O17 C22 1.279 . S
O18 Cd15 2.297 1_655 S
O18 C20 1.247 . S
O19 Cd15 2.439 1_655 S
O19 C20 1.208 . S
C20 O18 1.247 . S
C20 O19 1.208 . S
C21 O26 1.247 . S
C21 O27 1.208 . S
C22 O14 1.315 . S
C22 O17 1.279 . S
C23 O24 1.315 . S
C23 O25 1.279 . S
O24 Cd16 2.223 . S
O24 C23 1.315 . S
O25 Cd15 2.240 . S
O25 C23 1.279 . S
O26 Cd16 2.297 . S
O26 C21 1.247 . S
O27 Cd16 2.439 . S
O27 C21 1.208 . S
O28 Cd29 2.223 . S
O28 C36 1.315 . S
Cd29 O28 2.223 . S
Cd29 O32 2.297 . S
Cd29 O33 2.439 . S
Cd29 O39 2.240 . S
Cd30 O31 2.240 . S
Cd30 O38 2.223 . S
Cd30 O40 2.297 . S
Cd30 O41 2.439 . S
O31 Cd30 2.240 . S
O31 C36 1.279 . S
O32 Cd29 2.297 . S
O32 C34 1.247 . S
O33 Cd29 2.439 . S
O33 C34 1.208 . S
C34 O32 1.247 . S
C34 O33 1.208 . S
C35 O40 1.247 . S
C35 O41 1.208 . S
C36 O28 1.315 . S
C36 O31 1.279 . S
C37 O38 1.315 . S
C37 O39 1.279 . S
O38 Cd30 2.223 . S
O38 C37 1.315 . S
O39 Cd29 2.240 . S
O39 C37 1.279 . S
O40 Cd30 2.297 . S
O40 C35 1.247 . S
O41 Cd30 2.439 . S
O41 C35 1.208 . S
O42 Cd43 2.223 . S
O42 C50 1.315 . S
Cd43 O42 2.223 . S
Cd43 O46 2.297 . S
Cd43 O47 2.439 . S
Cd43 O53 2.240 . S
Cd44 O45 2.240 . S
Cd44 O52 2.223 . S
Cd44 O54 2.297 . S
Cd44 O55 2.439 . S
O45 Cd44 2.240 . S
O45 C50 1.279 . S
O46 Cd43 2.297 . S
O46 C48 1.247 . S
O47 Cd43 2.439 . S
O47 C48 1.208 . S
C48 O46 1.247 . S
C48 O47 1.208 . S
C49 O54 1.247 . S
C49 O55 1.208 . S
C50 O42 1.315 . S
C50 O45 1.279 . S
C51 O52 1.315 . S
C51 O53 1.279 . S
O52 Cd44 2.223 . S
O52 C51 1.315 . S
O53 Cd43 2.240 . S
O53 C51 1.279 . S
O54 Cd44 2.297 . S
O54 C49 1.247 . S
O55 Cd44 2.439 . S
O55 C49 1.208 . S
O56 Cd57 2.223 . S
O56 C64 1.315 . S
Cd57 O56 2.223 . S
Cd57 O60 2.297 . S
Cd57 O61 2.439 . S
Cd57 O67 2.240 . S
Cd58 O59 2.240 . S
Cd58 O66 2.223 . S
Cd58 O68 2.297 . S
Cd58 O69 2.439 . S
O59 Cd58 2.240 . S
O59 C64 1.279 . S
O60 Cd57 2.297 . S
O60 C62 1.247 . S
O61 Cd57 2.439 . S
O61 C62 1.208 . S
C62 O60 1.247 . S
C62 O61 1.208 . S
C63 O68 1.247 . S
C63 O69 1.208 . S
C64 O56 1.315 . S
C64 O59 1.279 . S
C65 O66 1.315 . S
C65 O67 1.279 . S
O66 Cd58 2.223 . S
O66 C65 1.315 . S
O67 Cd57 2.240 . S
O67 C65 1.279 . S
O68 Cd58 2.297 . S
O68 C63 1.247 . S
O69 Cd58 2.439 . S
O69 C63 1.208 . S
O70 Cd71 2.223 . S
O70 C78 1.315 . S
Cd71 O70 2.223 . S
Cd71 O74 2.297 . S
Cd71 O75 2.439 . S
Cd71 O81 2.240 . S
Cd72 O73 2.240 . S
Cd72 O80 2.223 . S
Cd72 O82 2.297 . S
Cd72 O83 2.439 . S
O73 Cd72 2.240 . S
O73 C78 1.279 . S
O74 Cd71 2.297 . S
O74 C76 1.247 . S
O75 Cd71 2.439 . S
O75 C76 1.208 . S
C76 O74 1.247 . S
C76 O75 1.208 . S
C77 O82 1.247 . S
C77 O83 1.208 . S
C78 O70 1.315 . S
C78 O73 1.279 . S
C79 O80 1.315 . S
C79 O81 1.279 . S
O80 Cd72 2.223 . S
O80 C79 1.315 . S
O81 Cd71 2.240 . S
O81 C79 1.279 . S
O82 Cd72 2.297 . S
O82 C77 1.247 . S
O83 Cd72 2.439 . S
O83 C77 1.208 . S
O84 Cd85 2.223 . S
O84 C92 1.315 . S
Cd85 O84 2.223 . S
Cd85 O88 2.297 . S
Cd85 O89 2.439 . S
Cd85 O95 2.240 . S
Cd86 O87 2.240 . S
Cd86 O94 2.223 . S
Cd86 O96 2.297 . S
Cd86 O97 2.439 . S
O87 Cd86 2.240 . S
O87 C92 1.279 . S
O88 Cd85 2.297 . S
O88 C90 1.247 . S
O89 Cd85 2.439 . S
O89 C90 1.208 . S
C90 O88 1.247 . S
C90 O89 1.208 . S
C91 O96 1.247 . S
C91 O97 1.208 . S
C92 O84 1.315 . S
C92 O87 1.279 . S
C93 O94 1.315 . S
C93 O95 1.279 . S
O94 Cd86 2.223 . S
O94 C93 1.315 . S
O95 Cd85 2.240 . S
O95 C93 1.279 . S
O96 Cd86 2.297 . S
O96 C91 1.247 . S
O97 Cd86 2.439 . S
O97 C91 1.208 . S
O98 Cd99 2.223 1_655 S
O98 C106 1.315 . S
Cd99 O98 2.223 1_455 S
Cd99 O102 2.297 . S
Cd99 O103 2.439 . S
Cd99 O109 2.240 1_455 S
Cd100 O101 2.240 1_655 S
Cd100 O108 2.223 . S
Cd100 O110 2.297 . S
Cd100 O111 2.439 1_655 S
O101 Cd100 2.240 1_455 S
O101 C106 1.279 1_455 S
O102 Cd99 2.297 . S
O102 C104 1.247 . S
O103 Cd99 2.439 . S
O103 C104 1.208 . S
C104 O102 1.247 . S
C104 O103 1.208 . S
C105 O110 1.247 1_455 S
C105 O111 1.208 . S
C106 O98 1.315 . S
C106 O101 1.279 1_655 S
C107 O108 1.315 . S
C107 O109 1.279 . S
O108 Cd100 2.223 . S
O108 C107 1.315 . S
O109 Cd99 2.240 1_655 S
O109 C107 1.279 . S
O110 Cd100 2.297 . S
O110 C105 1.247 1_655 S
O111 Cd100 2.439 1_455 S
O111 C105 1.208 . S
O112 Cd113 2.223 . S
O112 C120 1.315 . S
Cd113 O112 2.223 . S
Cd113 O116 2.297 . S
Cd113 O117 2.439 . S
Cd113 O123 2.240 . S
Cd114 O115 2.240 . S
Cd114 O122 2.223 . S
Cd114 O124 2.297 . S
Cd114 O125 2.439 . S
O115 Cd114 2.240 . S
O115 C120 1.279 . S
O116 Cd113 2.297 . S
O116 C118 1.247 . S
O117 Cd113 2.439 . S
O117 C118 1.208 . S
C118 O116 1.247 . S
C118 O117 1.208 . S
C119 O124 1.247 . S
C119 O125 1.208 . S
C120 O112 1.315 . S
C120 O115 1.279 . S
C121 O122 1.315 . S
C121 O123 1.279 . S
O122 Cd114 2.223 . S
O122 C121 1.315 . S
O123 Cd113 2.240 . S
O123 C121 1.279 . S
O124 Cd114 2.297 . S
O124 C119 1.247 . S
O125 Cd114 2.439 . S
O125 C119 1.208 . S
O126 Cd127 2.223 . S
O126 C134 1.315 . S
Cd127 O126 2.223 . S
Cd127 O130 2.297 . S
Cd127 O131 2.439 . S
Cd127 O137 2.240 . S
Cd128 O129 2.240 . S
Cd128 O136 2.223 . S
Cd128 O138 2.297 . S
Cd128 O139 2.439 . S
O129 Cd128 2.240 . S
O129 C134 1.279 . S
O130 Cd127 2.297 . S
O130 C132 1.247 . S
O131 Cd127 2.439 . S
O131 C132 1.208 . S
C132 O130 1.247 . S
C132 O131 1.208 . S
C133 O138 1.247 . S
C133 O139 1.208 . S
C134 O126 1.315 . S
C134 O129 1.279 . S
C135 O136 1.315 . S
C135 O137 1.279 . S
O136 Cd128 2.223 . S
O136 C135 1.315 . S
O137 Cd127 2.240 . S
O137 C135 1.279 . S
O138 Cd128 2.297 . S
O138 C133 1.247 . S
O139 Cd128 2.439 . S
O139 C133 1.208 . S
O140 Cd141 2.223 . S
O140 C148 1.315 . S
Cd141 O140 2.223 . S
Cd141 O144 2.297 . S
Cd141 O145 2.439 . S
Cd141 O151 2.240 . S
Cd142 O143 2.240 . S
Cd142 O150 2.223 . S
Cd142 O152 2.297 . S
Cd142 O153 2.439 . S
O143 Cd142 2.240 . S
O143 C148 1.279 . S
O144 Cd141 2.297 . S
O144 C146 1.247 . S
O145 Cd141 2.439 . S
O145 C146 1.208 . S
C146 O144 1.247 . S
C146 O145 1.208 . S
C147 O152 1.247 . S
C147 O153 1.208 . S
C148 O140 1.315 . S
C148 O143 1.279 . S
C149 O150 1.315 . S
C149 O151 1.279 . S
O150 Cd142 2.223 . S
O150 C149 1.315 . S
O151 Cd141 2.240 . S
O151 C149 1.279 . S
O152 Cd142 2.297 . S
O152 C147 1.247 . S
O153 Cd142 2.439 . S
O153 C147 1.208 . S
O154 Cd155 2.223 . S
O154 C162 1.315 . S
Cd155 O154 2.223 . S
Cd155 O158 2.297 . S
Cd155 O159 2.439 . S
Cd155 O165 2.240 . S
Cd156 O157 2.240 . S
Cd156 O164 2.223 . S
Cd156 O166 2.297 1_554 S
Cd156 O167 2.439 1_554 S
O157 Cd156 2.240 . S
O157 C162 1.279 . S
O158 Cd155 2.297 . S
O158 C160 1.247 . S
O159 Cd155 2.439 . S
O159 C160 1.208 . S
C160 O158 1.247 . S
C160 O159 1.208 . S
C161 O166 1.247 . S
C161 O167 1.208 . S
C162 O154 1.315 . S
C162 O157 1.279 . S
C163 O164 1.315 . S
C163 O165 1.279 . S
O164 Cd156 2.223 . S
O164 C163 1.315 . S
O165 Cd155 2.240 . S
O165 C163 1.279 . S
O166 Cd156 2.297 1_556 S
O166 C161 1.247 . S
O167 Cd156 2.439 1_556 S
O167 C161 1.208 . S
O168 Cd169 2.223 . S
O168 C176 1.315 . S
Cd169 O168 2.223 . S
Cd169 O172 2.297 . S
Cd169 O173 2.439 . S
Cd169 O179 2.240 . S
Cd170 O171 2.240 . S
Cd170 O178 2.223 . S
Cd170 O180 2.297 1_554 S
Cd170 O181 2.439 1_554 S
O171 Cd170 2.240 . S
O171 C176 1.279 . S
O172 Cd169 2.297 . S
O172 C174 1.247 . S
O173 Cd169 2.439 . S
O173 C174 1.208 . S
C174 O172 1.247 . S
C174 O173 1.208 . S
C175 O180 1.247 . S
C175 O181 1.208 . S
C176 O168 1.315 . S
C176 O171 1.279 . S
C177 O178 1.315 . S
C177 O179 1.279 . S
O178 Cd170 2.223 . S
O178 C177 1.315 . S
O179 Cd169 2.240 . S
O179 C177 1.279 . S
O180 Cd170 2.297 1_556 S
O180 C175 1.247 . S
O181 Cd170 2.439 1_556 S
O181 C175 1.208 . S
O182 Cd183 2.223 . S
O182 C190 1.315 . S
Cd183 O182 2.223 . S
Cd183 O186 2.297 . S
Cd183 O187 2.425 1_554 S
Cd183 O193 2.240 1_554 S
Cd184 O185 2.240 1_556 S
Cd184 O192 2.222 . S
Cd184 O194 2.297 . S
Cd184 O195 2.439 . S
O185 Cd184 2.240 1_554 S
O185 C190 1.279 . S
O186 Cd183 2.297 . S
O186 C188 1.247 . S
O187 Cd183 2.425 1_556 S
O187 C188 1.191 1_556 S
C188 O186 1.247 . S
C188 O187 1.191 1_554 S
C189 O194 1.247 . S
C189 O195 1.208 . S
C190 O182 1.315 . S
C190 O185 1.279 . S
C191 O192 1.315 . S
C191 O193 1.279 . S
O192 Cd184 2.222 . S
O192 C191 1.315 . S
O193 Cd183 2.240 1_556 S
O193 C191 1.279 . S
O194 Cd184 2.297 . S
O194 C189 1.247 . S
O195 Cd184 2.439 . S
O195 C189 1.208 . S
O196 Cd197 2.223 . S
O196 C204 1.315 . S
Cd197 O196 2.223 . S
Cd197 O200 2.297 . S
Cd197 O201 2.439 . S
Cd197 O207 2.240 . S
Cd198 O199 2.240 . S
Cd198 O206 2.223 . S
Cd198 O208 2.297 . S
Cd198 O209 2.439 . S
O199 Cd198 2.240 . S
O199 C204 1.279 . S
O200 Cd197 2.297 . S
O200 C202 1.247 . S
O201 Cd197 2.439 . S
O201 C202 1.208 . S
C202 O200 1.247 . S
C202 O201 1.208 . S
C203 O208 1.247 . S
C203 O209 1.208 . S
C204 O196 1.315 . S
C204 O199 1.279 . S
C205 O206 1.315 . S
C205 O207 1.279 . S
O206 Cd198 2.223 . S
O206 C205 1.315 . S
O207 Cd197 2.240 . S
O207 C205 1.279 . S
O208 Cd198 2.297 . S
O208 C203 1.247 . S
O209 Cd198 2.439 . S
O209 C203 1.208 . S
O210 Cd211 2.223 . S
O210 C218 1.315 . S
Cd211 O210 2.223 . S
Cd211 O214 2.297 . S
Cd211 O215 2.439 . S
Cd211 O221 2.240 . S
Cd212 O213 2.240 . S
Cd212 O220 2.223 . S
Cd212 O222 2.297 . S
Cd212 O223 2.439 . S
O213 Cd212 2.240 . S
O213 C218 1.279 . S
O214 Cd211 2.297 . S
O214 C216 1.247 . S
O215 Cd211 2.439 . S
O215 C216 1.208 . S
C216 O214 1.247 . S
C216 O215 1.208 . S
C217 O222 1.247 . S
C217 O223 1.208 . S
C218 O210 1.315 . S
C218 O213 1.279 . S
C219 O220 1.315 . S
C219 O221 1.279 . S
O220 Cd212 2.223 . S
O220 C219 1.315 . S
O221 Cd211 2.240 . S
O221 C219 1.279 . S
O222 Cd212 2.297 . S
O222 C217 1.247 . S
O223 Cd212 2.439 . S
O223 C217 1.208 . S
O224 Cd225 2.223 . S
O224 C232 1.315 . S
Cd225 O224 2.223 . S
Cd225 O228 2.298 1_565 S
Cd225 O229 2.439 1_565 S
Cd225 O235 2.240 . S
Cd226 O227 2.240 1_565 S
Cd226 O234 2.223 . S
Cd226 O236 2.297 . S
Cd226 O237 2.439 1_565 S
O227 Cd226 2.240 1_545 S
O227 C232 1.279 1_545 S
O228 Cd225 2.298 1_545 S
O228 C230 1.247 . S
O229 Cd225 2.439 1_545 S
O229 C230 1.208 . S
C230 O228 1.247 . S
C230 O229 1.208 . S
C231 O236 1.247 . S
C231 O237 1.208 1_565 S
C232 O224 1.315 . S
C232 O227 1.279 1_565 S
C233 O234 1.315 . S
C233 O235 1.279 . S
O234 Cd226 2.223 . S
O234 C233 1.315 . S
O235 Cd225 2.240 . S
O235 C233 1.279 . S
O236 Cd226 2.297 . S
O236 C231 1.247 . S
O237 Cd226 2.439 1_545 S
O237 C231 1.208 1_545 S
O238 Cd239 2.223 . S
O238 C246 1.315 . S
Cd239 O238 2.223 . S
Cd239 O242 2.297 . S
Cd239 O243 2.439 . S
Cd239 O249 2.240 . S
Cd240 O241 2.240 . S
Cd240 O248 2.223 . S
Cd240 O250 2.297 . S
Cd240 O251 2.439 . S
O241 Cd240 2.240 . S
O241 C246 1.279 . S
O242 Cd239 2.297 . S
O242 C244 1.247 . S
O243 Cd239 2.439 . S
O243 C244 1.208 . S
C244 O242 1.247 . S
C244 O243 1.208 . S
C245 O250 1.247 . S
C245 O251 1.208 . S
C246 O238 1.315 . S
C246 O241 1.279 . S
C247 O248 1.315 . S
C247 O249 1.279 . S
O248 Cd240 2.223 . S
O248 C247 1.315 . S
O249 Cd239 2.240 . S
O249 C247 1.279 . S
O250 Cd240 2.297 . S
O250 C245 1.247 . S
O251 Cd240 2.439 . S
O251 C245 1.208 . S
O252 Cd253 2.223 . S
O252 C260 1.315 . S
Cd253 O252 2.223 . S
Cd253 O256 2.297 . S
Cd253 O257 2.439 . S
Cd253 O263 2.240 . S
Cd254 O255 2.240 . S
Cd254 O262 2.223 . S
Cd254 O264 2.297 . S
Cd254 O265 2.439 . S
O255 Cd254 2.240 . S
O255 C260 1.279 . S
O256 Cd253 2.297 . S
O256 C258 1.247 . S
O257 Cd253 2.439 . S
O257 C258 1.208 . S
C258 O256 1.247 . S
C258 O257 1.208 . S
C259 O264 1.247 . S
C259 O265 1.208 . S
C260 O252 1.315 . S
C260 O255 1.279 . S
C261 O262 1.315 . S
C261 O263 1.279 . S
O262 Cd254 2.223 . S
O262 C261 1.315 . S
O263 Cd253 2.240 . S
O263 C261 1.279 . S
O264 Cd254 2.297 . S
O264 C259 1.247 . S
O265 Cd254 2.439 . S
O265 C259 1.208 . S
O266 Cd267 2.223 . S
O266 C274 1.315 . S
Cd267 O266 2.223 . S
Cd267 O270 2.297 1_545 S
Cd267 O271 2.439 1_545 S
Cd267 O277 2.240 . S
Cd268 O269 2.221 1_545 S
Cd268 O276 2.223 . S
Cd268 O278 2.297 . S
Cd268 O279 2.439 . S
O269 Cd268 2.221 1_565 S
O269 C274 1.267 1_565 S
O270 Cd267 2.297 1_565 S
O270 C272 1.247 . S
O271 Cd267 2.439 1_565 S
O271 C272 1.208 . S
C272 O270 1.247 . S
C272 O271 1.208 . S
C273 O278 1.247 . S
C273 O279 1.208 . S
C274 O266 1.315 . S
C274 O269 1.267 1_545 S
C275 O276 1.315 . S
C275 O277 1.279 . S
O276 Cd268 2.223 . S
O276 C275 1.315 . S
O277 Cd267 2.240 . S
O277 C275 1.279 . S
O278 Cd268 2.297 . S
O278 C273 1.247 . S
O279 Cd268 2.439 . S
O279 C273 1.208 . S
O280 Cd281 2.223 . S
O280 C288 1.315 . S
Cd281 O280 2.223 . S
Cd281 O284 2.297 . S
Cd281 O285 2.439 . S
Cd281 O291 2.240 . S
Cd282 O283 2.240 . S
Cd282 O290 2.223 . S
Cd282 O292 2.297 1_554 S
Cd282 O293 2.439 1_554 S
O283 Cd282 2.240 . S
O283 C288 1.279 . S
O284 Cd281 2.297 . S
O284 C286 1.247 . S
O285 Cd281 2.439 . S
O285 C286 1.208 . S
C286 O284 1.247 . S
C286 O285 1.208 . S
C287 O292 1.247 . S
C287 O293 1.208 . S
C288 O280 1.315 . S
C288 O283 1.279 . S
C289 O290 1.315 . S
C289 O291 1.279 . S
O290 Cd282 2.223 . S
O290 C289 1.315 . S
O291 Cd281 2.240 . S
O291 C289 1.279 . S
O292 Cd282 2.297 1_556 S
O292 C287 1.247 . S
O293 Cd282 2.439 1_556 S
O293 C287 1.208 . S
O294 Cd295 2.223 . S
O294 C302 1.315 1_655 S
Cd295 O294 2.223 . S
Cd295 O298 2.297 . S
Cd295 O299 2.439 . S
Cd295 O305 2.240 . S
Cd296 O297 2.240 . S
Cd296 O304 2.223 . S
Cd296 O306 2.297 . S
Cd296 O307 2.439 . S
O297 Cd296 2.240 . S
O297 C302 1.279 . S
O298 Cd295 2.297 . S
O298 C300 1.247 . S
O299 Cd295 2.439 . S
O299 C300 1.208 . S
C300 O298 1.247 . S
C300 O299 1.208 . S
C301 O306 1.247 . S
C301 O307 1.208 . S
C302 O294 1.315 1_455 S
C302 O297 1.279 . S
C303 O304 1.315 1_655 S
C303 O305 1.279 . S
O304 Cd296 2.223 . S
O304 C303 1.315 1_455 S
O305 Cd295 2.240 . S
O305 C303 1.279 . S
O306 Cd296 2.297 . S
O306 C301 1.247 . S
O307 Cd296 2.439 . S
O307 C301 1.208 . S
O308 Cd309 2.223 . S
O308 C316 1.315 . S
Cd309 O308 2.223 . S
Cd309 O312 2.297 . S
Cd309 O313 2.439 . S
Cd309 O319 2.240 . S
Cd310 O311 2.240 . S
Cd310 O318 2.223 . S
Cd310 O320 2.297 . S
Cd310 O321 2.439 . S
O311 Cd310 2.240 . S
O311 C316 1.279 . S
O312 Cd309 2.297 . S
O312 C314 1.247 . S
O313 Cd309 2.439 . S
O313 C314 1.208 . S
C314 O312 1.247 . S
C314 O313 1.208 . S
C315 O320 1.247 . S
C315 O321 1.208 . S
C316 O308 1.315 . S
C316 O311 1.279 . S
C317 O318 1.315 . S
C317 O319 1.279 . S
O318 Cd310 2.223 . S
O318 C317 1.315 . S
O319 Cd309 2.240 . S
O319 C317 1.279 . S
O320 Cd310 2.297 . S
O320 C315 1.247 . S
O321 Cd310 2.439 . S
O321 C315 1.208 . S
O322 Cd323 2.223 . S
O322 C330 1.315 . S
Cd323 O322 2.223 . S
Cd323 O326 2.297 . S
Cd323 O327 2.439 . S
Cd323 O333 2.240 . S
Cd324 O325 2.240 . S
Cd324 O332 2.223 . S
Cd324 O334 2.297 . S
Cd324 O335 2.439 . S
O325 Cd324 2.240 . S
O325 C330 1.279 . S
O326 Cd323 2.297 . S
O326 C328 1.247 . S
O327 Cd323 2.439 . S
O327 C328 1.208 . S
C328 O326 1.247 . S
C328 O327 1.208 . S
C329 O334 1.247 . S
C329 O335 1.208 . S
C330 O322 1.315 . S
C330 O325 1.279 . S
C331 O332 1.315 . S
C331 O333 1.279 . S
O332 Cd324 2.223 . S
O332 C331 1.315 . S
O333 Cd323 2.240 . S
O333 C331 1.279 . S
O334 Cd324 2.297 . S
O334 C329 1.247 . S
O335 Cd324 2.439 . S
O335 C329 1.208 . S
Tb336 C346 2.825 1_454 S
Tb336 O347 2.347 . S
Tb336 O350 2.366 . S
Tb336 O355 2.418 1_554 S
Tb336 O356 2.384 . S
Tb336 O359 2.479 1_454 S
Tb336 O360 2.471 1_455 S
Eu337 O348 2.418 . S
Eu337 O349 2.384 . S
Eu337 O352 2.479 . S
Eu337 O353 2.471 . S
Eu337 O354 2.347 . S
Eu337 O357 2.366 . S
Eu337 C367 2.825 . S
C338 O354 1.259 1_556 S
C338 O355 1.265 . S
C339 O356 1.255 . S
C339 O357 1.265 . S
C340 C342 1.380 . S
C340 C343 1.374 1_556 S
C340 C346 1.507 . S
C341 C342 1.384 . S
C341 C345 1.387 . S
C341 H368 0.930 . S
C342 C340 1.380 . S
C342 C341 1.384 . S
C342 H369 0.931 . S
C343 C340 1.374 1_554 S
C343 C344 1.390 1_554 S
C343 H370 0.930 . S
C344 C343 1.390 1_556 S
C344 C345 1.391 . S
C344 H371 0.930 1_556 S
C345 C341 1.387 . S
C345 C344 1.391 . S
C346 Tb336 2.825 1_656 S
C346 C340 1.507 . S
C346 O359 1.238 . S
C346 O360 1.247 1_556 S
O347 Tb336 2.347 . S
O347 C351 1.259 . S
O348 Eu337 2.418 . S
O348 C351 1.265 . S
O349 Eu337 2.384 . S
O349 C358 1.255 . S
O350 Tb336 2.366 . S
O350 C358 1.265 . S
C351 O347 1.259 . S
C351 O348 1.265 . S
O352 Eu337 2.479 . S
O352 C367 1.238 . S
O353 Eu337 2.471 . S
O353 C367 1.247 . S
O354 Eu337 2.347 . S
O354 C338 1.259 1_554 S
O355 Tb336 2.418 1_556 S
O355 C338 1.265 . S
O356 Tb336 2.384 . S
O356 C339 1.255 . S
O357 Eu337 2.366 . S
O357 C339 1.265 . S
C358 O349 1.255 . S
C358 O350 1.265 . S
O359 Tb336 2.479 1_656 S
O359 C346 1.238 . S
O360 Tb336 2.471 1_655 S
O360 C346 1.247 1_554 S
C361 C364 1.380 . S
C361 C365 1.374 . S
C361 C367 1.507 . S
C362 C363 1.387 . S
C362 C366 1.391 . S
C363 C362 1.387 . S
C363 C364 1.384 . S
C363 H372 0.930 . S
C364 C361 1.380 . S
C364 C363 1.384 . S
C364 H373 0.931 . S
C365 C361 1.374 . S
C365 C366 1.390 . S
C365 H374 0.930 . S
C366 C362 1.391 . S
C366 C365 1.390 . S
C366 H375 0.930 . S
C367 Eu337 2.825 . S
C367 O352 1.238 . S
C367 O353 1.247 . S
C367 C361 1.507 . S
H368 C341 0.930 . S
H369 C342 0.931 . S
H370 C343 0.930 . S
H371 C344 0.930 1_554 S
H372 C363 0.930 . S
H373 C364 0.931 . S
H374 C365 0.930 . S
H375 C366 0.930 . S
Tb376 C386 2.825 . S
Tb376 O387 2.347 . S
Tb376 O390 2.366 . S
Tb376 O395 2.418 . S
Tb376 O396 2.384 . S
Tb376 O399 2.479 . S
Tb376 O400 2.471 . S
Eu377 O388 2.418 . S
Eu377 O389 2.384 . S
Eu377 O392 2.479 . S
Eu377 O393 2.471 . S
Eu377 O394 2.347 . S
Eu377 O397 2.366 . S
Eu377 C407 2.825 . S
C378 O394 1.259 . S
C378 O395 1.265 . S
C379 O396 1.255 . S
C379 O397 1.265 . S
C380 C382 1.380 . S
C380 C383 1.374 . S
C380 C386 1.507 . S
C381 C382 1.384 . S
C381 C385 1.387 . S
C381 H408 0.930 . S
C382 C380 1.380 . S
C382 C381 1.384 . S
C382 H409 0.931 . S
C383 C380 1.374 . S
C383 C384 1.390 . S
C383 H410 0.930 . S
C384 C383 1.390 . S
C384 C385 1.391 . S
C384 H411 0.930 . S
C385 C381 1.387 . S
C385 C384 1.391 . S
C386 Tb376 2.825 . S
C386 C380 1.507 . S
C386 O399 1.238 . S
C386 O400 1.247 . S
O387 Tb376 2.347 . S
O387 C391 1.259 . S
O388 Eu377 2.418 . S
O388 C391 1.265 . S
O389 Eu377 2.384 . S
O389 C398 1.255 . S
O390 Tb376 2.366 . S
O390 C398 1.265 . S
C391 O387 1.259 . S
C391 O388 1.265 . S
O392 Eu377 2.479 . S
O392 C407 1.238 . S
O393 Eu377 2.471 . S
O393 C407 1.247 . S
O394 Eu377 2.347 . S
O394 C378 1.259 . S
O395 Tb376 2.418 . S
O395 C378 1.265 . S
O396 Tb376 2.384 . S
O396 C379 1.255 . S
O397 Eu377 2.366 . S
O397 C379 1.265 . S
C398 O389 1.255 . S
C398 O390 1.265 . S
O399 Tb376 2.479 . S
O399 C386 1.238 . S
O400 Tb376 2.471 . S
O400 C386 1.247 . S
C401 C404 1.380 . S
C401 C405 1.374 . S
C401 C407 1.507 . S
C402 C403 1.387 . S
C402 C406 1.391 . S
C403 C402 1.387 . S
C403 C404 1.384 . S
C403 H412 0.930 . S
C404 C401 1.380 . S
C404 C403 1.384 . S
C404 H413 0.931 . S
C405 C401 1.374 . S
C405 C406 1.390 . S
C405 H414 0.930 . S
C406 C402 1.391 . S
C406 C405 1.390 . S
C406 H415 0.930 . S
C407 Eu377 2.825 . S
C407 O392 1.238 . S
C407 O393 1.247 . S
C407 C401 1.507 . S
H408 C381 0.930 . S
H409 C382 0.931 . S
H410 C383 0.930 . S
H411 C384 0.930 . S
H412 C403 0.930 . S
H413 C404 0.931 . S
H414 C405 0.930 . S
H415 C406 0.930 . S
Tb416 C426 2.825 1_545 S
Tb416 O427 2.347 . S
Tb416 O430 2.366 . S
Tb416 O435 2.418 . S
Tb416 O436 2.384 . S
Tb416 O439 2.479 1_545 S
Tb416 O440 2.471 1_545 S
Eu417 O428 2.418 . S
Eu417 O429 2.384 . S
Eu417 O432 2.479 . S
Eu417 O433 2.471 . S
Eu417 O434 2.347 . S
Eu417 O437 2.366 . S
Eu417 C447 2.825 . S
C418 O434 1.259 . S
C418 O435 1.265 . S
C419 O436 1.255 . S
C419 O437 1.265 . S
C420 C422 1.380 . S
C420 C423 1.374 . S
C420 C426 1.507 . S
C421 C422 1.384 . S
C421 C425 1.387 . S
C421 H448 0.930 . S
C422 C420 1.380 . S
C422 C421 1.384 . S
C422 H449 0.931 . S
C423 C420 1.374 . S
C423 C424 1.390 . S
C423 H450 0.930 . S
C424 C423 1.390 . S
C424 C425 1.391 . S
C424 H451 0.930 . S
C425 C421 1.387 . S
C425 C424 1.391 . S
C426 Tb416 2.825 1_565 S
C426 C420 1.507 . S
C426 O439 1.238 . S
C426 O440 1.247 . S
O427 Tb416 2.347 . S
O427 C431 1.259 . S
O428 Eu417 2.418 . S
O428 C431 1.265 . S
O429 Eu417 2.384 . S
O429 C438 1.255 . S
O430 Tb416 2.366 . S
O430 C438 1.265 . S
C431 O427 1.259 . S
C431 O428 1.265 . S
O432 Eu417 2.479 . S
O432 C447 1.238 . S
O433 Eu417 2.471 . S
O433 C447 1.247 . S
O434 Eu417 2.347 . S
O434 C418 1.259 . S
O435 Tb416 2.418 . S
O435 C418 1.265 . S
O436 Tb416 2.384 . S
O436 C419 1.255 . S
O437 Eu417 2.366 . S
O437 C419 1.265 . S
C438 O429 1.255 . S
C438 O430 1.265 . S
O439 Tb416 2.479 1_565 S
O439 C426 1.238 . S
O440 Tb416 2.471 1_565 S
O440 C426 1.247 . S
C441 C444 1.380 . S
C441 C445 1.374 . S
C441 C447 1.507 . S
C442 C443 1.387 . S
C442 C446 1.391 . S
C443 C442 1.387 . S
C443 C444 1.384 . S
C443 H452 0.930 . S
C444 C441 1.380 . S
C444 C443 1.384 . S
C444 H453 0.931 . S
C445 C441 1.374 . S
C445 C446 1.390 . S
C445 H454 0.930 . S
C446 C442 1.391 . S
C446 C445 1.390 . S
C446 H455 0.930 . S
C447 Eu417 2.825 . S
C447 O432 1.238 . S
C447 O433 1.247 . S
C447 C441 1.507 . S
H448 C421 0.930 . S
H449 C422 0.931 . S
H450 C423 0.930 . S
H451 C424 0.930 . S
H452 C443 0.930 . S
H453 C444 0.931 . S
H454 C445 0.930 . S
H455 C446 0.930 . S
Tb456 C466 2.825 . S
Tb456 O467 2.347 . S
Tb456 O470 2.366 . S
Tb456 O475 2.418 . S
Tb456 O476 2.384 . S
Tb456 O479 2.479 . S
Tb456 O480 2.471 . S
Eu457 O468 2.418 . S
Eu457 O469 2.384 . S
Eu457 O472 2.479 . S
Eu457 O473 2.471 . S
Eu457 O474 2.347 . S
Eu457 O477 2.366 . S
Eu457 C487 2.825 . S
C458 O474 1.259 . S
C458 O475 1.265 . S
C459 O476 1.255 . S
C459 O477 1.265 . S
C460 C462 1.380 . S
C460 C463 1.374 . S
C460 C466 1.507 . S
C461 C462 1.384 . S
C461 C465 1.387 . S
C461 H488 0.930 . S
C462 C460 1.380 . S
C462 C461 1.384 . S
C462 H489 0.931 . S
C463 C460 1.374 . S
C463 C464 1.390 . S
C463 H490 0.930 . S
C464 C463 1.390 . S
C464 C465 1.391 . S
C464 H491 0.930 . S
C465 C461 1.387 . S
C465 C464 1.391 . S
C466 Tb456 2.825 . S
C466 C460 1.507 . S
C466 O479 1.238 . S
C466 O480 1.247 . S
O467 Tb456 2.347 . S
O467 C471 1.259 . S
O468 Eu457 2.418 . S
O468 C471 1.265 . S
O469 Eu457 2.384 . S
O469 C478 1.255 . S
O470 Tb456 2.366 . S
O470 C478 1.265 . S
C471 O467 1.259 . S
C471 O468 1.265 . S
O472 Eu457 2.479 . S
O472 C487 1.238 . S
O473 Eu457 2.471 . S
O473 C487 1.247 . S
O474 Eu457 2.347 . S
O474 C458 1.259 . S
O475 Tb456 2.418 . S
O475 C458 1.265 . S
O476 Tb456 2.384 . S
O476 C459 1.255 . S
O477 Eu457 2.366 . S
O477 C459 1.265 . S
C478 O469 1.255 . S
C478 O470 1.265 . S
O479 Tb456 2.479 . S
O479 C466 1.238 . S
O480 Tb456 2.471 . S
O480 C466 1.247 . S
C481 C484 1.380 . S
C481 C485 1.374 . S
C481 C487 1.507 . S
C482 C483 1.387 . S
C482 C486 1.391 . S
C483 C482 1.387 . S
C483 C484 1.384 . S
C483 H492 0.930 . S
C484 C481 1.380 . S
C484 C483 1.384 . S
C484 H493 0.931 . S
C485 C481 1.374 . S
C485 C486 1.390 . S
C485 H494 0.930 . S
C486 C482 1.391 . S
C486 C485 1.390 . S
C486 H495 0.930 . S
C487 Eu457 2.825 . S
C487 O472 1.238 . S
C487 O473 1.247 . S
C487 C481 1.507 . S
H488 C461 0.930 . S
H489 C462 0.931 . S
H490 C463 0.930 . S
H491 C464 0.930 . S
H492 C483 0.930 . S
H493 C484 0.931 . S
H494 C485 0.930 . S
H495 C486 0.930 . S
Tb496 C506 2.825 . S
Tb496 O507 2.347 . S
Tb496 O510 2.366 . S
Tb496 O515 2.418 . S
Tb496 O516 2.384 . S
Tb496 O519 2.479 . S
Tb496 O520 2.471 . S
Eu497 O508 2.418 . S
Eu497 O509 2.384 . S
Eu497 O512 2.479 . S
Eu497 O513 2.471 . S
Eu497 O514 2.347 . S
Eu497 O517 2.366 . S
Eu497 C527 2.825 . S
C498 O514 1.259 . S
C498 O515 1.265 . S
C499 O516 1.255 . S
C499 O517 1.265 . S
C500 C502 1.380 . S
C500 C503 1.374 1_455 S
C500 C506 1.507 . S
C501 C502 1.384 . S
C501 C505 1.387 1_455 S
C501 H528 0.930 . S
C502 C500 1.380 . S
C502 C501 1.384 . S
C502 H529 0.931 . S
C503 C500 1.374 1_655 S
C503 C504 1.390 . S
C503 H530 0.930 . S
C504 C503 1.390 . S
C504 C505 1.391 . S
C504 H531 0.930 . S
C505 C501 1.387 1_655 S
C505 C504 1.391 . S
C506 Tb496 2.825 . S
C506 C500 1.507 . S
C506 O519 1.238 . S
C506 O520 1.247 . S
O507 Tb496 2.347 . S
O507 C511 1.259 . S
O508 Eu497 2.418 . S
O508 C511 1.265 . S
O509 Eu497 2.384 . S
O509 C518 1.255 . S
O510 Tb496 2.366 . S
O510 C518 1.265 . S
C511 O507 1.259 . S
C511 O508 1.265 . S
O512 Eu497 2.479 . S
O512 C527 1.238 . S
O513 Eu497 2.471 . S
O513 C527 1.247 . S
O514 Eu497 2.347 . S
O514 C498 1.259 . S
O515 Tb496 2.418 . S
O515 C498 1.265 . S
O516 Tb496 2.384 . S
O516 C499 1.255 . S
O517 Eu497 2.366 . S
O517 C499 1.265 . S
C518 O509 1.255 . S
C518 O510 1.265 . S
O519 Tb496 2.479 . S
O519 C506 1.238 . S
O520 Tb496 2.471 . S
O520 C506 1.247 . S
C521 C524 1.380 . S
C521 C525 1.374 . S
C521 C527 1.507 . S
C522 C523 1.387 . S
C522 C526 1.391 . S
C523 C522 1.387 . S
C523 C524 1.384 . S
C523 H532 0.930 . S
C524 C521 1.380 . S
C524 C523 1.384 . S
C524 H533 0.931 . S
C525 C521 1.374 . S
C525 C526 1.390 . S
C525 H534 0.930 . S
C526 C522 1.391 . S
C526 C525 1.390 . S
C526 H535 0.930 . S
C527 Eu497 2.825 . S
C527 O512 1.238 . S
C527 O513 1.247 . S
C527 C521 1.507 . S
H528 C501 0.930 . S
H529 C502 0.931 . S
H530 C503 0.930 . S
H531 C504 0.930 . S
H532 C523 0.930 . S
H533 C524 0.931 . S
H534 C525 0.930 . S
H535 C526 0.930 . S
Tb536 C546 2.825 . S
Tb536 O547 2.347 . S
Tb536 O550 2.366 . S
Tb536 O555 2.418 . S
Tb536 O556 2.384 . S
Tb536 O559 2.479 . S
Tb536 O560 2.471 . S
Eu537 O548 2.418 . S
Eu537 O549 2.384 . S
Eu537 O552 2.479 . S
Eu537 O553 2.471 . S
Eu537 O554 2.347 . S
Eu537 O557 2.366 . S
Eu537 C567 2.825 . S
C538 O554 1.259 . S
C538 O555 1.265 . S
C539 O556 1.255 . S
C539 O557 1.265 . S
C540 C542 1.380 . S
C540 C543 1.374 . S
C540 C546 1.507 . S
C541 C542 1.384 . S
C541 C545 1.387 . S
C541 H568 0.930 . S
C542 C540 1.380 . S
C542 C541 1.384 . S
C542 H569 0.931 . S
C543 C540 1.374 . S
C543 C544 1.390 . S
C543 H570 0.930 . S
C544 C543 1.390 . S
C544 C545 1.391 . S
C544 H571 0.930 . S
C545 C541 1.387 . S
C545 C544 1.391 . S
C546 Tb536 2.825 . S
C546 C540 1.507 . S
C546 O559 1.238 . S
C546 O560 1.247 . S
O547 Tb536 2.347 . S
O547 C551 1.259 . S
O548 Eu537 2.418 . S
O548 C551 1.265 . S
O549 Eu537 2.384 . S
O549 C558 1.255 . S
O550 Tb536 2.366 . S
O550 C558 1.265 . S
C551 O547 1.259 . S
C551 O548 1.265 . S
O552 Eu537 2.479 . S
O552 C567 1.238 . S
O553 Eu537 2.471 . S
O553 C567 1.247 . S
O554 Eu537 2.347 . S
O554 C538 1.259 . S
O555 Tb536 2.418 . S
O555 C538 1.265 . S
O556 Tb536 2.384 . S
O556 C539 1.255 . S
O557 Eu537 2.366 . S
O557 C539 1.265 . S
C558 O549 1.255 . S
C558 O550 1.265 . S
O559 Tb536 2.479 . S
O559 C546 1.238 . S
O560 Tb536 2.471 . S
O560 C546 1.247 . S
C561 C564 1.380 . S
C561 C565 1.374 . S
C561 C567 1.507 . S
C562 C563 1.387 . S
C562 C566 1.391 . S
C563 C562 1.387 . S
C563 C564 1.384 . S
C563 H572 0.930 . S
C564 C561 1.380 . S
C564 C563 1.384 . S
C564 H573 0.931 . S
C565 C561 1.374 . S
C565 C566 1.390 . S
C565 H574 0.930 . S
C566 C562 1.391 . S
C566 C565 1.390 . S
C566 H575 0.930 . S
C567 Eu537 2.825 . S
C567 O552 1.238 . S
C567 O553 1.247 . S
C567 C561 1.507 . S
H568 C541 0.930 . S
H569 C542 0.931 . S
H570 C543 0.930 . S
H571 C544 0.930 . S
H572 C563 0.930 . S
H573 C564 0.931 . S
H574 C565 0.930 . S
H575 C566 0.930 . S
Tb576 C586 2.825 . S
Tb576 O587 2.347 . S
Tb576 O590 2.366 . S
Tb576 O595 2.442 . S
Tb576 O596 2.384 . S
Tb576 O599 2.479 . S
Tb576 O600 2.471 . S
Eu577 O588 2.418 1_556 S
Eu577 O589 2.384 1_556 S
Eu577 O592 2.479 . S
Eu577 O593 2.471 . S
Eu577 O594 2.347 1_556 S
Eu577 O597 2.366 1_556 S
Eu577 C607 2.825 . S
C578 O594 1.269 . S
C578 O595 1.267 . S
C579 O596 1.255 . S
C579 O597 1.265 . S
C580 C582 1.380 . S
C580 C583 1.374 . S
C580 C586 1.507 . S
C581 C582 1.384 . S
C581 C585 1.387 . S
C581 H608 0.930 1_545 S
C582 C580 1.380 . S
C582 C581 1.384 . S
C582 H609 0.931 . S
C583 C580 1.374 . S
C583 C584 1.390 . S
C583 H610 0.930 . S
C584 C583 1.390 . S
C584 C585 1.391 . S
C584 H611 0.930 . S
C585 C581 1.387 . S
C585 C584 1.391 . S
C586 Tb576 2.825 . S
C586 C580 1.507 . S
C586 O599 1.238 . S
C586 O600 1.247 . S
O587 Tb576 2.347 . S
O587 C591 1.259 . S
O588 Eu577 2.418 1_554 S
O588 C591 1.265 . S
O589 Eu577 2.384 1_554 S
O589 C598 1.255 . S
O590 Tb576 2.366 . S
O590 C598 1.265 . S
C591 O587 1.259 . S
C591 O588 1.265 . S
O592 Eu577 2.479 . S
O592 C607 1.238 . S
O593 Eu577 2.471 . S
O593 C607 1.247 . S
O594 Eu577 2.347 1_554 S
O594 C578 1.269 . S
O595 Tb576 2.442 . S
O595 C578 1.267 . S
O596 Tb576 2.384 . S
O596 C579 1.255 . S
O597 Eu577 2.366 1_554 S
O597 C579 1.265 . S
C598 O589 1.255 . S
C598 O590 1.265 . S
O599 Tb576 2.479 . S
O599 C586 1.238 . S
O600 Tb576 2.471 . S
O600 C586 1.247 . S
C601 C604 1.380 . S
C601 C605 1.374 . S
C601 C607 1.507 . S
C602 C603 1.387 . S
C602 C606 1.391 . S
C603 C602 1.387 . S
C603 C604 1.384 . S
C603 H612 0.930 . S
C604 C601 1.380 . S
C604 C603 1.384 . S
C604 H613 0.931 . S
C605 C601 1.374 . S
C605 C606 1.390 . S
C605 H614 0.930 . S
C606 C602 1.391 . S
C606 C605 1.390 . S
C606 H615 0.930 . S
C607 Eu577 2.825 . S
C607 O592 1.238 . S
C607 O593 1.247 . S
C607 C601 1.507 . S
H608 C581 0.930 1_565 S
H609 C582 0.931 . S
H610 C583 0.930 . S
H611 C584 0.930 . S
H612 C603 0.930 . S
H613 C604 0.931 . S
H614 C605 0.930 . S
H615 C606 0.930 . S
Tb616 C626 2.825 . S
Tb616 O627 2.347 . S
Tb616 O630 2.366 . S
Tb616 O635 2.418 . S
Tb616 O636 2.384 . S
Tb616 O639 2.479 . S
Tb616 O640 2.471 . S
Eu617 O628 2.418 . S
Eu617 O629 2.384 . S
Eu617 O632 2.479 . S
Eu617 O633 2.471 . S
Eu617 O634 2.347 . S
Eu617 O637 2.366 . S
Eu617 C647 2.825 . S
C618 O634 1.259 . S
C618 O635 1.265 . S
C619 O636 1.255 . S
C619 O637 1.265 . S
C620 C622 1.380 . S
C620 C623 1.374 . S
C620 C626 1.507 . S
C621 C622 1.384 . S
C621 C625 1.387 . S
C621 H648 0.930 . S
C622 C620 1.380 . S
C622 C621 1.384 . S
C622 H649 0.931 . S
C623 C620 1.374 . S
C623 C624 1.390 . S
C623 H650 0.930 . S
C624 C623 1.390 . S
C624 C625 1.391 . S
C624 H651 0.930 . S
C625 C621 1.387 . S
C625 C624 1.391 . S
C626 Tb616 2.825 . S
C626 C620 1.507 . S
C626 O639 1.238 . S
C626 O640 1.247 . S
O627 Tb616 2.347 . S
O627 C631 1.259 . S
O628 Eu617 2.418 . S
O628 C631 1.265 . S
O629 Eu617 2.384 . S
O629 C638 1.255 . S
O630 Tb616 2.366 . S
O630 C638 1.265 . S
C631 O627 1.259 . S
C631 O628 1.265 . S
O632 Eu617 2.479 . S
O632 C647 1.238 . S
O633 Eu617 2.471 . S
O633 C647 1.247 . S
O634 Eu617 2.347 . S
O634 C618 1.259 . S
O635 Tb616 2.418 . S
O635 C618 1.265 . S
O636 Tb616 2.384 . S
O636 C619 1.255 . S
O637 Eu617 2.366 . S
O637 C619 1.265 . S
C638 O629 1.255 . S
C638 O630 1.265 . S
O639 Tb616 2.479 . S
O639 C626 1.238 . S
O640 Tb616 2.471 . S
O640 C626 1.247 . S
C641 C644 1.380 . S
C641 C645 1.374 . S
C641 C647 1.507 . S
C642 C643 1.387 . S
C642 C646 1.391 . S
C643 C642 1.387 . S
C643 C644 1.384 . S
C643 H652 0.930 . S
C644 C641 1.380 . S
C644 C643 1.384 . S
C644 H653 0.931 . S
C645 C641 1.374 . S
C645 C646 1.390 . S
C645 H654 0.930 . S
C646 C642 1.391 . S
C646 C645 1.390 . S
C646 H655 0.930 . S
C647 Eu617 2.825 . S
C647 O632 1.238 . S
C647 O633 1.247 . S
C647 C641 1.507 . S
H648 C621 0.930 . S
H649 C622 0.931 . S
H650 C623 0.930 . S
H651 C624 0.930 . S
H652 C643 0.930 . S
H653 C644 0.931 . S
H654 C645 0.930 . S
H655 C646 0.930 . S
Tb656 C666 2.823 . S
Tb656 O667 2.349 1_556 S
Tb656 O670 2.366 . S
Tb656 O675 2.418 1_556 S
Tb656 O676 2.385 1_556 S
Tb656 O679 2.476 . S
Tb656 O680 2.470 . S
Eu657 O668 2.418 . S
Eu657 O669 2.384 . S
Eu657 O672 2.479 . S
Eu657 O673 2.471 . S
Eu657 O674 2.347 . S
Eu657 O677 2.366 . S
Eu657 C687 2.825 . S
C658 O674 1.259 . S
C658 O675 1.265 . S
C659 O676 1.255 . S
C659 O677 1.265 . S
C660 C662 1.380 . S
C660 C663 1.374 . S
C660 C666 1.507 . S
C661 C662 1.384 . S
C661 C665 1.387 . S
C661 H688 0.930 . S
C662 C660 1.380 . S
C662 C661 1.384 . S
C662 H689 0.931 . S
C663 C660 1.374 . S
C663 C664 1.390 . S
C663 H690 0.930 . S
C664 C663 1.390 . S
C664 C665 1.391 . S
C664 H691 0.930 . S
C665 C661 1.387 . S
C665 C664 1.391 . S
C666 Tb656 2.823 . S
C666 C660 1.507 . S
C666 O679 1.238 . S
C666 O680 1.247 . S
O667 Tb656 2.349 1_554 S
O667 C671 1.259 . S
O668 Eu657 2.418 . S
O668 C671 1.265 . S
O669 Eu657 2.384 . S
O669 C678 1.255 . S
O670 Tb656 2.366 . S
O670 C678 1.265 1_556 S
C671 O667 1.259 . S
C671 O668 1.265 . S
O672 Eu657 2.479 . S
O672 C687 1.238 . S
O673 Eu657 2.471 . S
O673 C687 1.247 . S
O674 Eu657 2.347 . S
O674 C658 1.259 . S
O675 Tb656 2.418 1_554 S
O675 C658 1.265 . S
O676 Tb656 2.385 1_554 S
O676 C659 1.255 . S
O677 Eu657 2.366 . S
O677 C659 1.265 . S
C678 O669 1.255 . S
C678 O670 1.265 1_554 S
O679 Tb656 2.476 . S
O679 C666 1.238 . S
O680 Tb656 2.470 . S
O680 C666 1.247 . S
C681 C684 1.380 . S
C681 C685 1.374 . S
C681 C687 1.507 . S
C682 C683 1.387 . S
C682 C686 1.391 . S
C683 C682 1.387 . S
C683 C684 1.384 . S
C683 H692 0.930 . S
C684 C681 1.380 . S
C684 C683 1.384 . S
C684 H693 0.931 . S
C685 C681 1.374 . S
C685 C686 1.390 . S
C685 H694 0.930 . S
C686 C682 1.391 . S
C686 C685 1.390 . S
C686 H695 0.930 . S
C687 Eu657 2.825 . S
C687 O672 1.238 . S
C687 O673 1.247 . S
C687 C681 1.507 . S
H688 C661 0.930 . S
H689 C662 0.931 . S
H690 C663 0.930 . S
H691 C664 0.930 . S
H692 C683 0.930 . S
H693 C684 0.931 . S
H694 C685 0.930 . S
H695 C686 0.930 . S
Tb696 C706 2.825 . S
Tb696 O707 2.347 . S
Tb696 O710 2.366 . S
Tb696 O715 2.418 . S
Tb696 O716 2.384 . S
Tb696 O719 2.479 . S
Tb696 O720 2.471 . S
Eu697 O708 2.418 . S
Eu697 O709 2.384 . S
Eu697 O712 2.479 . S
Eu697 O713 2.471 . S
Eu697 O714 2.347 . S
Eu697 O717 2.366 . S
Eu697 C727 2.825 . S
C698 O714 1.259 . S
C698 O715 1.265 . S
C699 O716 1.255 . S
C699 O717 1.265 . S
C700 C702 1.380 . S
C700 C703 1.374 . S
C700 C706 1.507 . S
C701 C702 1.384 . S
C701 C705 1.387 . S
C701 H728 0.930 . S
C702 C700 1.380 . S
C702 C701 1.384 . S
C702 H729 0.931 . S
C703 C700 1.374 . S
C703 C704 1.390 . S
C703 H730 0.930 . S
C704 C703 1.390 . S
C704 C705 1.391 . S
C704 H731 0.930 . S
C705 C701 1.387 . S
C705 C704 1.391 . S
C706 Tb696 2.825 . S
C706 C700 1.507 . S
C706 O719 1.238 . S
C706 O720 1.247 . S
O707 Tb696 2.347 . S
O707 C711 1.259 . S
O708 Eu697 2.418 . S
O708 C711 1.265 . S
O709 Eu697 2.384 . S
O709 C718 1.255 . S
O710 Tb696 2.366 . S
O710 C718 1.265 . S
C711 O707 1.259 . S
C711 O708 1.265 . S
O712 Eu697 2.479 . S
O712 C727 1.238 . S
O713 Eu697 2.471 . S
O713 C727 1.247 . S
O714 Eu697 2.347 . S
O714 C698 1.259 . S
O715 Tb696 2.418 . S
O715 C698 1.265 . S
O716 Tb696 2.384 . S
O716 C699 1.255 . S
O717 Eu697 2.366 . S
O717 C699 1.265 . S
C718 O709 1.255 . S
C718 O710 1.265 . S
O719 Tb696 2.479 . S
O719 C706 1.238 . S
O720 Tb696 2.471 . S
O720 C706 1.247 . S
C721 C724 1.380 . S
C721 C725 1.374 . S
C721 C727 1.507 . S
C722 C723 1.387 . S
C722 C726 1.391 . S
C723 C722 1.387 . S
C723 C724 1.384 . S
C723 H732 0.930 . S
C724 C721 1.380 . S
C724 C723 1.384 . S
C724 H733 0.931 . S
C725 C721 1.374 . S
C725 C726 1.390 . S
C725 H734 0.930 . S
C726 C722 1.391 . S
C726 C725 1.390 . S
C726 H735 0.930 . S
C727 Eu697 2.825 . S
C727 O712 1.238 . S
C727 O713 1.247 . S
C727 C721 1.507 . S
H728 C701 0.930 . S
H729 C702 0.931 . S
H730 C703 0.930 . S
H731 C704 0.930 . S
H732 C723 0.930 . S
H733 C724 0.931 . S
H734 C725 0.930 . S
H735 C726 0.930 . S
Tb736 C746 2.825 . S
Tb736 O747 2.347 . S
Tb736 O750 2.366 . S
Tb736 O755 2.418 . S
Tb736 O756 2.384 . S
Tb736 O759 2.479 . S
Tb736 O760 2.471 . S
Eu737 O748 2.418 . S
Eu737 O749 2.384 1_455 S
Eu737 O752 2.479 . S
Eu737 O753 2.471 . S
Eu737 O754 2.347 . S
Eu737 O757 2.366 . S
Eu737 C767 2.825 . S
C738 O754 1.259 . S
C738 O755 1.265 . S
C739 O756 1.255 . S
C739 O757 1.265 . S
C740 C742 1.380 . S
C740 C743 1.374 . S
C740 C746 1.507 . S
C741 C742 1.384 . S
C741 C745 1.387 . S
C741 H768 0.930 . S
C742 C740 1.380 . S
C742 C741 1.384 . S
C742 H769 0.931 . S
C743 C740 1.374 . S
C743 C744 1.390 . S
C743 H770 0.930 . S
C744 C743 1.390 . S
C744 C745 1.391 . S
C744 H771 0.930 1_455 S
C745 C741 1.387 . S
C745 C744 1.391 . S
C746 Tb736 2.825 . S
C746 C740 1.507 . S
C746 O759 1.238 . S
C746 O760 1.247 . S
O747 Tb736 2.347 . S
O747 C751 1.259 . S
O748 Eu737 2.418 . S
O748 C751 1.265 . S
O749 Eu737 2.384 1_655 S
O749 C758 1.255 . S
O750 Tb736 2.366 . S
O750 C758 1.265 1_455 S
C751 O747 1.259 . S
C751 O748 1.265 . S
O752 Eu737 2.479 . S
O752 C767 1.238 . S
O753 Eu737 2.471 . S
O753 C767 1.247 . S
O754 Eu737 2.347 . S
O754 C738 1.259 . S
O755 Tb736 2.418 . S
O755 C738 1.265 . S
O756 Tb736 2.384 . S
O756 C739 1.255 . S
O757 Eu737 2.366 . S
O757 C739 1.265 . S
C758 O749 1.255 . S
C758 O750 1.265 1_655 S
O759 Tb736 2.479 . S
O759 C746 1.238 . S
O760 Tb736 2.471 . S
O760 C746 1.247 . S
C761 C764 1.380 . S
C761 C765 1.374 . S
C761 C767 1.507 . S
C762 C763 1.387 . S
C762 C766 1.391 . S
C763 C762 1.387 . S
C763 C764 1.384 . S
C763 H772 0.930 . S
C764 C761 1.380 . S
C764 C763 1.384 . S
C764 H773 0.931 . S
C765 C761 1.374 . S
C765 C766 1.390 . S
C765 H774 0.930 . S
C766 C762 1.391 . S
C766 C765 1.390 . S
C766 H775 0.930 . S
C767 Eu737 2.825 . S
C767 O752 1.238 . S
C767 O753 1.247 . S
C767 C761 1.507 . S
H768 C741 0.930 . S
H769 C742 0.931 . S
H770 C743 0.930 . S
H771 C744 0.930 1_655 S
H772 C763 0.930 . S
H773 C764 0.931 . S
H774 C765 0.930 . S
H775 C766 0.930 . S
Tb776 C786 2.825 . S
Tb776 O787 2.347 . S
Tb776 O790 2.366 . S
Tb776 O795 2.418 . S
Tb776 O796 2.384 . S
Tb776 O799 2.479 . S
Tb776 O800 2.471 . S
Eu777 O788 2.418 . S
Eu777 O789 2.384 . S
Eu777 O792 2.479 . S
Eu777 O793 2.471 . S
Eu777 O794 2.347 . S
Eu777 O797 2.366 . S
Eu777 C807 2.825 . S
C778 O794 1.259 . S
C778 O795 1.265 . S
C779 O796 1.255 . S
C779 O797 1.265 . S
C780 C782 1.380 . S
C780 C783 1.374 . S
C780 C786 1.507 . S
C781 C782 1.384 . S
C781 C785 1.387 . S
C781 H808 0.930 . S
C782 C780 1.380 . S
C782 C781 1.384 . S
C782 H809 0.931 . S
C783 C780 1.374 . S
C783 C784 1.390 . S
C783 H810 0.930 . S
C784 C783 1.390 . S
C784 C785 1.391 . S
C784 H811 0.930 . S
C785 C781 1.387 . S
C785 C784 1.391 . S
C786 Tb776 2.825 . S
C786 C780 1.507 . S
C786 O799 1.238 . S
C786 O800 1.247 . S
O787 Tb776 2.347 . S
O787 C791 1.259 . S
O788 Eu777 2.418 . S
O788 C791 1.265 . S
O789 Eu777 2.384 . S
O789 C798 1.255 . S
O790 Tb776 2.366 . S
O790 C798 1.265 . S
C791 O787 1.259 . S
C791 O788 1.265 . S
O792 Eu777 2.479 . S
O792 C807 1.238 . S
O793 Eu777 2.471 . S
O793 C807 1.247 . S
O794 Eu777 2.347 . S
O794 C778 1.259 . S
O795 Tb776 2.418 . S
O795 C778 1.265 . S
O796 Tb776 2.384 . S
O796 C779 1.255 . S
O797 Eu777 2.366 . S
O797 C779 1.265 . S
C798 O789 1.255 . S
C798 O790 1.265 . S
O799 Tb776 2.479 . S
O799 C786 1.238 . S
O800 Tb776 2.471 . S
O800 C786 1.247 . S
C801 C804 1.380 . S
C801 C805 1.374 . S
C801 C807 1.507 . S
C802 C803 1.387 . S
C802 C806 1.391 . S
C803 C802 1.387 . S
C803 C804 1.384 . S
C803 H812 0.930 . S
C804 C801 1.380 . S
C804 C803 1.384 . S
C804 H813 0.931 . S
C805 C801 1.374 . S
C805 C806 1.390 . S
C805 H814 0.930 . S
C806 C802 1.391 . S
C806 C805 1.390 . S
C806 H815 0.930 . S
C807 Eu777 2.825 . S
C807 O792 1.238 . S
C807 O793 1.247 . S
C807 C801 1.507 . S
H808 C781 0.930 . S
H809 C782 0.931 . S
H810 C783 0.930 . S
H811 C784 0.930 . S
H812 C803 0.930 . S
H813 C804 0.931 . S
H814 C805 0.930 . S
H815 C806 0.930 . S
Tb816 C826 2.825 . S
Tb816 O827 2.347 . S
Tb816 O830 2.366 . S
Tb816 O835 2.418 . S
Tb816 O836 2.384 . S
Tb816 O839 2.479 . S
Tb816 O840 2.471 . S
Eu817 O828 2.418 . S
Eu817 O829 2.384 . S
Eu817 O832 2.479 . S
Eu817 O833 2.471 . S
Eu817 O834 2.347 . S
Eu817 O837 2.366 . S
Eu817 C847 2.825 . S
C818 O834 1.259 . S
C818 O835 1.265 . S
C819 O836 1.255 . S
C819 O837 1.265 . S
C820 C822 1.380 . S
C820 C823 1.374 . S
C820 C826 1.507 . S
C821 C822 1.384 . S
C821 C825 1.387 . S
C821 H848 0.930 . S
C822 C820 1.380 . S
C822 C821 1.384 . S
C822 H849 0.931 . S
C823 C820 1.374 . S
C823 C824 1.390 . S
C823 H850 0.930 . S
C824 C823 1.390 . S
C824 C825 1.391 . S
C824 H851 0.930 . S
C825 C821 1.387 . S
C825 C824 1.391 . S
C826 Tb816 2.825 . S
C826 C820 1.507 . S
C826 O839 1.238 . S
C826 O840 1.247 . S
O827 Tb816 2.347 . S
O827 C831 1.259 . S
O828 Eu817 2.418 . S
O828 C831 1.265 . S
O829 Eu817 2.384 . S
O829 C838 1.255 . S
O830 Tb816 2.366 . S
O830 C838 1.265 . S
C831 O827 1.259 . S
C831 O828 1.265 . S
O832 Eu817 2.479 . S
O832 C847 1.238 . S
O833 Eu817 2.471 . S
O833 C847 1.247 . S
O834 Eu817 2.347 . S
O834 C818 1.259 . S
O835 Tb816 2.418 . S
O835 C818 1.265 . S
O836 Tb816 2.384 . S
O836 C819 1.255 . S
O837 Eu817 2.366 . S
O837 C819 1.265 . S
C838 O829 1.255 . S
C838 O830 1.265 . S
O839 Tb816 2.479 . S
O839 C826 1.238 . S
O840 Tb816 2.471 . S
O840 C826 1.247 . S
C841 C844 1.380 . S
C841 C845 1.374 . S
C841 C847 1.507 . S
C842 C843 1.387 . S
C842 C846 1.391 . S
C843 C842 1.387 . S
C843 C844 1.384 . S
C843 H852 0.930 . S
C844 C841 1.380 . S
C844 C843 1.384 . S
C844 H853 0.931 . S
C845 C841 1.374 . S
C845 C846 1.390 . S
C845 H854 0.930 . S
C846 C842 1.391 . S
C846 C845 1.390 . S
C846 H855 0.930 . S
C847 Eu817 2.825 . S
C847 O832 1.238 . S
C847 O833 1.247 . S
C847 C841 1.507 . S
H848 C821 0.930 . S
H849 C822 0.931 . S
H850 C823 0.930 . S
H851 C824 0.930 . S
H852 C843 0.930 . S
H853 C844 0.931 . S
H854 C845 0.930 . S
H855 C846 0.930 . S
Tb856 C866 2.825 . S
Tb856 O867 2.347 . S
Tb856 O870 2.366 . S
Tb856 O875 2.418 . S
Tb856 O876 2.384 . S
Tb856 O879 2.479 . S
Tb856 O880 2.471 . S
Eu857 O868 2.418 . S
Eu857 O869 2.384 . S
Eu857 O872 2.479 . S
Eu857 O873 2.471 . S
Eu857 O874 2.347 . S
Eu857 O877 2.366 . S
Eu857 C887 2.825 . S
C858 O874 1.259 . S
C858 O875 1.265 . S
C859 O876 1.255 . S
C859 O877 1.265 . S
C860 C862 1.380 . S
C860 C863 1.374 . S
C860 C866 1.507 . S
C861 C862 1.384 . S
C861 C865 1.387 . S
C861 H888 0.930 . S
C862 C860 1.380 . S
C862 C861 1.384 . S
C862 H889 0.931 . S
C863 C860 1.374 . S
C863 C864 1.390 . S
C863 H890 0.930 . S
C864 C863 1.390 . S
C864 C865 1.391 . S
C864 H891 0.930 . S
C865 C861 1.387 . S
C865 C864 1.391 . S
C866 Tb856 2.825 . S
C866 C860 1.507 . S
C866 O879 1.238 . S
C866 O880 1.247 . S
O867 Tb856 2.347 . S
O867 C871 1.259 . S
O868 Eu857 2.418 . S
O868 C871 1.265 . S
O869 Eu857 2.384 . S
O869 C878 1.255 . S
O870 Tb856 2.366 . S
O870 C878 1.265 . S
C871 O867 1.259 . S
C871 O868 1.265 . S
O872 Eu857 2.479 . S
O872 C887 1.238 . S
O873 Eu857 2.471 . S
O873 C887 1.247 . S
O874 Eu857 2.347 . S
O874 C858 1.259 . S
O875 Tb856 2.418 . S
O875 C858 1.265 . S
O876 Tb856 2.384 . S
O876 C859 1.255 . S
O877 Eu857 2.366 . S
O877 C859 1.265 . S
C878 O869 1.255 . S
C878 O870 1.265 . S
O879 Tb856 2.479 . S
O879 C866 1.238 . S
O880 Tb856 2.471 . S
O880 C866 1.247 . S
C881 C884 1.380 . S
C881 C885 1.374 . S
C881 C887 1.507 . S
C882 C883 1.387 . S
C882 C886 1.391 . S
C883 C882 1.387 . S
C883 C884 1.384 . S
C883 H892 0.930 . S
C884 C881 1.380 . S
C884 C883 1.384 . S
C884 H893 0.931 . S
C885 C881 1.374 . S
C885 C886 1.390 . S
C885 H894 0.930 . S
C886 C882 1.391 . S
C886 C885 1.390 . S
C886 H895 0.930 . S
C887 Eu857 2.825 . S
C887 O872 1.238 . S
C887 O873 1.247 . S
C887 C881 1.507 . S
H888 C861 0.930 . S
H889 C862 0.931 . S
H890 C863 0.930 . S
H891 C864 0.930 . S
H892 C883 0.930 . S
H893 C884 0.931 . S
H894 C885 0.930 . S
H895 C886 0.930 . S
Tb896 C906 2.825 . S
Tb896 O907 2.347 . S
Tb896 O910 2.366 . S
Tb896 O915 2.418 . S
Tb896 O916 2.384 . S
Tb896 O919 2.479 . S
Tb896 O920 2.471 . S
Eu897 O908 2.418 . S
Eu897 O909 2.384 . S
Eu897 O912 2.479 . S
Eu897 O913 2.471 . S
Eu897 O914 2.347 . S
Eu897 O917 2.366 . S
Eu897 C927 2.825 . S
C898 O914 1.259 . S
C898 O915 1.265 . S
C899 O916 1.255 . S
C899 O917 1.265 . S
C900 C902 1.380 . S
C900 C903 1.374 . S
C900 C906 1.507 . S
C901 C902 1.384 . S
C901 C905 1.387 . S
C901 H928 0.930 . S
C902 C900 1.380 . S
C902 C901 1.384 . S
C902 H929 0.931 . S
C903 C900 1.374 . S
C903 C904 1.390 . S
C903 H930 0.930 . S
C904 C903 1.390 . S
C904 C905 1.391 . S
C904 H931 0.930 . S
C905 C901 1.387 . S
C905 C904 1.391 . S
C906 Tb896 2.825 . S
C906 C900 1.507 . S
C906 O919 1.238 . S
C906 O920 1.247 . S
O907 Tb896 2.347 . S
O907 C911 1.259 . S
O908 Eu897 2.418 . S
O908 C911 1.265 . S
O909 Eu897 2.384 . S
O909 C918 1.255 . S
O910 Tb896 2.366 . S
O910 C918 1.265 . S
C911 O907 1.259 . S
C911 O908 1.265 . S
O912 Eu897 2.479 . S
O912 C927 1.238 . S
O913 Eu897 2.471 . S
O913 C927 1.247 . S
O914 Eu897 2.347 . S
O914 C898 1.259 . S
O915 Tb896 2.418 . S
O915 C898 1.265 . S
O916 Tb896 2.384 . S
O916 C899 1.255 . S
O917 Eu897 2.366 . S
O917 C899 1.265 . S
C918 O909 1.255 . S
C918 O910 1.265 . S
O919 Tb896 2.479 . S
O919 C906 1.238 . S
O920 Tb896 2.471 . S
O920 C906 1.247 . S
C921 C924 1.380 . S
C921 C925 1.374 . S
C921 C927 1.507 . S
C922 C923 1.387 . S
C922 C926 1.391 . S
C923 C922 1.387 . S
C923 C924 1.384 . S
C923 H932 0.930 . S
C924 C921 1.380 . S
C924 C923 1.384 . S
C924 H933 0.931 . S
C925 C921 1.374 . S
C925 C926 1.390 . S
C925 H934 0.930 . S
C926 C922 1.391 . S
C926 C925 1.390 . S
C926 H935 0.930 . S
C927 Eu897 2.825 . S
C927 O912 1.238 . S
C927 O913 1.247 . S
C927 C921 1.507 . S
H928 C901 0.930 . S
H929 C902 0.931 . S
H930 C903 0.930 . S
H931 C904 0.930 . S
H932 C923 0.930 . S
H933 C924 0.931 . S
H934 C925 0.930 . S
H935 C926 0.930 . S
Tb936 C946 2.825 . S
Tb936 O947 2.347 . S
Tb936 O950 2.366 . S
Tb936 O955 2.418 . S
Tb936 O956 2.384 . S
Tb936 O959 2.479 . S
Tb936 O960 2.471 . S
Eu937 O948 2.418 . S
Eu937 O949 2.384 . S
Eu937 O952 2.479 . S
Eu937 O953 2.471 . S
Eu937 O954 2.347 . S
Eu937 O957 2.366 . S
Eu937 C967 2.825 . S
C938 O954 1.259 . S
C938 O955 1.265 . S
C939 O956 1.255 . S
C939 O957 1.265 . S
C940 C942 1.380 . S
C940 C943 1.374 1_554 S
C940 C946 1.507 . S
C941 C942 1.384 . S
C941 C945 1.387 1_554 S
C941 H968 0.930 . S
C942 C940 1.380 . S
C942 C941 1.384 . S
C942 H969 0.931 . S
C943 C940 1.374 1_556 S
C943 C944 1.390 . S
C943 H970 0.930 . S
C944 C943 1.390 . S
C944 C945 1.391 . S
C944 H971 0.930 . S
C945 C941 1.387 1_556 S
C945 C944 1.391 . S
C946 Tb936 2.825 . S
C946 C940 1.507 . S
C946 O959 1.238 . S
C946 O960 1.247 . S
O947 Tb936 2.347 . S
O947 C951 1.259 . S
O948 Eu937 2.418 . S
O948 C951 1.265 . S
O949 Eu937 2.384 . S
O949 C958 1.255 . S
O950 Tb936 2.366 . S
O950 C958 1.265 . S
C951 O947 1.259 . S
C951 O948 1.265 . S
O952 Eu937 2.479 . S
O952 C967 1.238 . S
O953 Eu937 2.471 . S
O953 C967 1.247 . S
O954 Eu937 2.347 . S
O954 C938 1.259 . S
O955 Tb936 2.418 . S
O955 C938 1.265 . S
O956 Tb936 2.384 . S
O956 C939 1.255 . S
O957 Eu937 2.366 . S
O957 C939 1.265 . S
C958 O949 1.255 . S
C958 O950 1.265 . S
O959 Tb936 2.479 . S
O959 C946 1.238 . S
O960 Tb936 2.471 . S
O960 C946 1.247 . S
C961 C964 1.380 . S
C961 C965 1.374 . S
C961 C967 1.507 . S
C962 C963 1.387 . S
C962 C966 1.391 . S
C963 C962 1.387 . S
C963 C964 1.384 . S
C963 H972 0.930 . S
C964 C961 1.380 . S
C964 C963 1.384 . S
C964 H973 0.931 . S
C965 C961 1.374 . S
C965 C966 1.390 . S
C965 H974 0.930 . S
C966 C962 1.391 . S
C966 C965 1.390 . S
C966 H975 0.930 . S
C967 Eu937 2.825 . S
C967 O952 1.238 . S
C967 O953 1.247 . S
C967 C961 1.507 . S
H968 C941 0.930 . S
H969 C942 0.931 . S
H970 C943 0.930 . S
H971 C944 0.930 . S
H972 C963 0.930 . S
H973 C964 0.931 . S
H974 C965 0.930 . S
H975 C966 0.930 . S
C976 C977 1.387 . S
C976 H980 0.950 . S
C976 C985 1.390 1_556 S
C977 C976 1.387 . S
C977 C979 1.387 . S
H978 C985 0.950 . S
C979 C977 1.387 . S
C979 C981 1.390 . S
C979 H983 0.950 . S
H980 C976 0.950 . S
C981 C979 1.390 . S
C981 C982 1.387 1_556 S
C981 H984 0.950 . S
C982 C981 1.387 1_554 S
C982 C985 1.387 . S
H983 C979 0.950 . S
H984 C981 0.950 . S
C985 C976 1.390 1_554 S
C985 H978 0.950 . S
C985 C982 1.387 . S
C986 C987 1.387 . S
C986 H990 0.950 . S
C986 C995 1.390 . S
C987 C986 1.387 . S
C987 C989 1.387 . S
H988 C995 0.950 . S
C989 C987 1.387 . S
C989 C991 1.390 . S
C989 H993 0.950 . S
H990 C986 0.950 . S
C991 C989 1.390 . S
C991 C992 1.387 . S
C991 H994 0.950 . S
C992 C991 1.387 . S
C992 C995 1.387 . S
H993 C989 0.950 . S
H994 C991 0.950 . S
C995 C986 1.390 . S
C995 H988 0.950 . S
C995 C992 1.387 . S
C996 C997 1.387 . S
C996 H1000 0.950 . S
C996 C1005 1.390 . S
C997 C996 1.387 . S
C997 C999 1.387 . S
H998 C1005 0.950 . S
C999 C997 1.387 . S
C999 C1001 1.390 . S
C999 H1003 0.950 . S
H1000 C996 0.950 . S
C1001 C999 1.390 . S
C1001 C1002 1.387 . S
C1001 H1004 0.950 . S
C1002 C1001 1.387 . S
C1002 C1005 1.387 . S
H1003 C999 0.950 . S
H1004 C1001 0.950 . S
C1005 C996 1.390 . S
C1005 H998 0.950 . S
C1005 C1002 1.387 . S
C1006 C1007 1.387 . S
C1006 H1010 0.950 . S
C1006 C1015 1.390 . S
C1007 C1006 1.387 . S
C1007 C1009 1.387 . S
H1008 C1015 0.950 . S
C1009 C1007 1.387 . S
C1009 C1011 1.390 . S
C1009 H1013 0.950 . S
H1010 C1006 0.950 . S
C1011 C1009 1.390 . S
C1011 C1012 1.387 . S
C1011 H1014 0.950 . S
C1012 C1011 1.387 . S
C1012 C1015 1.387 . S
H1013 C1009 0.950 . S
H1014 C1011 0.950 . S
C1015 C1006 1.390 . S
C1015 H1008 0.950 . S
C1015 C1012 1.387 . S
C1016 C1017 1.387 . S
C1016 H1020 0.950 . S
C1016 C1025 1.390 . S
C1017 C1016 1.387 . S
C1017 C1019 1.387 . S
H1018 C1025 0.950 . S
C1019 C1017 1.387 . S
C1019 C1021 1.390 . S
C1019 H1023 0.950 . S
H1020 C1016 0.950 . S
C1021 C1019 1.390 . S
C1021 C1022 1.387 . S
C1021 H1024 0.950 . S
C1022 C1021 1.387 . S
C1022 C1025 1.387 . S
H1023 C1019 0.950 . S
H1024 C1021 0.950 . S
C1025 C1016 1.390 . S
C1025 H1018 0.950 . S
C1025 C1022 1.387 . S
C1026 C1027 1.387 . S
C1026 H1030 0.950 . S
C1026 C1035 1.390 . S
C1027 C1026 1.387 . S
C1027 C1029 1.387 . S
H1028 C1035 0.950 . S
C1029 C1027 1.387 . S
C1029 C1031 1.390 . S
C1029 H1033 0.950 . S
H1030 C1026 0.950 . S
C1031 C1029 1.390 . S
C1031 C1032 1.387 . S
C1031 H1034 0.950 . S
C1032 C1031 1.387 . S
C1032 C1035 1.387 . S
H1033 C1029 0.950 . S
H1034 C1031 0.950 . S
C1035 C1026 1.390 . S
C1035 H1028 0.950 . S
C1035 C1032 1.387 . S
C1036 C1037 1.387 . S
C1036 H1040 0.950 . S
C1036 C1045 1.390 . S
C1037 C1036 1.387 . S
C1037 C1039 1.387 . S
H1038 C1045 0.950 . S
C1039 C1037 1.387 . S
C1039 C1041 1.390 . S
C1039 H1043 0.950 . S
H1040 C1036 0.950 . S
C1041 C1039 1.390 . S
C1041 C1042 1.387 . S
C1041 H1044 0.950 . S
C1042 C1041 1.387 . S
C1042 C1045 1.387 . S
H1043 C1039 0.950 . S
H1044 C1041 0.950 . S
C1045 C1036 1.390 . S
C1045 H1038 0.950 . S
C1045 C1042 1.387 . S
C1046 C1047 1.387 . S
C1046 H1050 0.950 . S
C1046 C1055 1.390 . S
C1047 C1046 1.387 . S
C1047 C1049 1.387 . S
H1048 C1055 0.950 . S
C1049 C1047 1.387 . S
C1049 C1051 1.390 . S
C1049 H1053 0.950 . S
H1050 C1046 0.950 . S
C1051 C1049 1.390 . S
C1051 C1052 1.387 . S
C1051 H1054 0.950 . S
C1052 C1051 1.387 . S
C1052 C1055 1.387 . S
H1053 C1049 0.950 . S
H1054 C1051 0.950 . S
C1055 C1046 1.390 . S
C1055 H1048 0.950 . S
C1055 C1052 1.387 . S
C1056 C1057 1.387 . S
C1056 H1060 0.950 1_545 S
C1056 C1065 1.390 . S
C1057 C1056 1.387 . S
C1057 C1059 1.387 . S
H1058 C1065 0.950 1_455 S
C1059 C1057 1.387 . S
C1059 C1061 1.390 . S
C1059 H1063 0.950 . S
H1060 C1056 0.950 1_565 S
C1061 C1059 1.390 . S
C1061 C1062 1.380 1_655 S
C1061 H1064 0.950 . S
C1062 C1061 1.380 1_455 S
C1062 C1065 1.387 1_455 S
H1063 C1059 0.950 . S
H1064 C1061 0.950 . S
C1065 C1056 1.390 . S
C1065 H1058 0.950 1_655 S
C1065 C1062 1.387 1_655 S
C1066 C1067 1.387 . S
C1066 H1070 0.950 . S
C1066 C1075 1.390 . S
C1067 C1066 1.387 . S
C1067 C1069 1.387 . S
H1068 C1075 0.950 . S
C1069 C1067 1.387 . S
C1069 C1071 1.390 . S
C1069 H1073 0.950 . S
H1070 C1066 0.950 . S
C1071 C1069 1.390 . S
C1071 C1072 1.387 . S
C1071 H1074 0.950 . S
C1072 C1071 1.387 . S
C1072 C1075 1.387 . S
H1073 C1069 0.950 . S
H1074 C1071 0.950 . S
C1075 C1066 1.390 . S
C1075 H1068 0.950 . S
C1075 C1072 1.387 . S
C1076 C1077 1.387 . S
C1076 H1080 0.950 . S
C1076 C1085 1.390 . S
C1077 C1076 1.387 . S
C1077 C1079 1.387 . S
H1078 C1085 0.950 . S
C1079 C1077 1.387 . S
C1079 C1081 1.390 . S
C1079 H1083 0.950 . S
H1080 C1076 0.950 . S
C1081 C1079 1.390 . S
C1081 C1082 1.387 . S
C1081 H1084 0.950 . S
C1082 C1081 1.387 . S
C1082 C1085 1.387 . S
H1083 C1079 0.950 . S
H1084 C1081 0.950 . S
C1085 C1076 1.390 . S
C1085 H1078 0.950 . S
C1085 C1082 1.387 . S
C1086 C1087 1.387 . S
C1086 H1090 0.950 . S
C1086 C1095 1.390 . S
C1087 C1086 1.387 . S
C1087 C1089 1.387 . S
H1088 C1095 0.950 . S
C1089 C1087 1.387 . S
C1089 C1091 1.390 . S
C1089 H1093 0.950 . S
H1090 C1086 0.950 . S
C1091 C1089 1.390 . S
C1091 C1092 1.387 . S
C1091 H1094 0.950 . S
C1092 C1091 1.387 . S
C1092 C1095 1.387 . S
H1093 C1089 0.950 . S
H1094 C1091 0.950 . S
C1095 C1086 1.390 . S
C1095 H1088 0.950 . S
C1095 C1092 1.387 . S
C1096 C1097 1.401 . S
C1096 H1100 0.950 . S
C1096 C1105 1.390 1_565 S
C1097 C1096 1.401 . S
C1097 C1099 1.357 1_565 S
H1098 C1105 0.950 . S
C1099 C1097 1.357 1_545 S
C1099 C1101 1.390 . S
C1099 H1103 0.950 . S
H1100 C1096 0.950 . S
C1101 C1099 1.390 . S
C1101 C1102 1.387 . S
C1101 H1104 0.950 . S
C1102 C1101 1.387 . S
C1102 C1105 1.387 . S
H1103 C1099 0.950 . S
H1104 C1101 0.950 . S
C1105 C1096 1.390 1_545 S
C1105 H1098 0.950 . S
C1105 C1102 1.387 . S
C1106 C1107 1.387 . S
C1106 H1110 0.950 . S
C1106 C1115 1.390 . S
C1107 C1106 1.387 . S
C1107 C1109 1.387 . S
H1108 C1115 0.950 . S
C1109 C1107 1.387 . S
C1109 C1111 1.390 . S
C1109 H1113 0.950 . S
H1110 C1106 0.950 . S
C1111 C1109 1.390 . S
C1111 C1112 1.387 . S
C1111 H1114 0.950 . S
C1112 C1111 1.387 . S
C1112 C1115 1.387 . S
H1113 C1109 0.950 . S
H1114 C1111 0.950 . S
C1115 C1106 1.390 . S
C1115 H1108 0.950 . S
C1115 C1112 1.387 . S
C1116 C1117 1.387 . S
C1116 H1120 0.950 . S
C1116 C1125 1.390 . S
C1117 C1116 1.387 . S
C1117 C1119 1.387 . S
H1118 C1125 0.950 . S
C1119 C1117 1.387 . S
C1119 C1121 1.390 . S
C1119 H1123 0.950 . S
H1120 C1116 0.950 . S
C1121 C1119 1.390 . S
C1121 C1122 1.387 . S
C1121 H1124 0.950 . S
C1122 C1121 1.387 . S
C1122 C1125 1.387 . S
H1123 C1119 0.950 . S
H1124 C1121 0.950 . S
C1125 C1116 1.390 . S
C1125 H1118 0.950 . S
C1125 C1122 1.387 . S
C1126 C1127 1.387 . S
C1126 H1130 0.950 . S
C1126 C1135 1.390 . S
C1127 C1126 1.387 . S
C1127 C1129 1.387 . S
H1128 C1135 0.950 . S
C1129 C1127 1.387 . S
C1129 C1131 1.390 . S
C1129 H1133 0.950 . S
H1130 C1126 0.950 . S
C1131 C1129 1.390 . S
C1131 C1132 1.387 . S
C1131 H1134 0.950 . S
C1132 C1131 1.387 . S
C1132 C1135 1.387 . S
H1133 C1129 0.950 . S
H1134 C1131 0.950 . S
C1135 C1126 1.390 . S
C1135 H1128 0.950 . S
C1135 C1132 1.387 . S
C1136 C1137 1.387 . S
C1136 H1140 0.950 . S
C1136 C1145 1.390 . S
C1137 C1136 1.387 . S
C1137 C1139 1.387 . S
H1138 C1145 0.950 1_545 S
C1139 C1137 1.387 . S
C1139 C1141 1.390 . S
C1139 H1143 0.950 . S
H1140 C1136 0.950 . S
C1141 C1139 1.390 . S
C1141 C1142 1.387 1_565 S
C1141 H1144 0.950 . S
C1142 C1141 1.387 1_545 S
C1142 C1145 1.387 1_545 S
H1143 C1139 0.950 . S
H1144 C1141 0.950 . S
C1145 C1136 1.390 . S
C1145 H1138 0.950 1_565 S
C1145 C1142 1.387 1_565 S
C1146 C1147 1.387 . S
C1146 H1150 0.950 . S
C1146 C1155 1.390 . S
C1147 C1146 1.387 . S
C1147 C1149 1.387 . S
H1148 C1155 0.950 . S
C1149 C1147 1.387 . S
C1149 C1151 1.390 . S
C1149 H1153 0.972 . S
H1150 C1146 0.950 . S
C1151 C1149 1.390 . S
C1151 C1152 1.387 . S
C1151 H1154 0.950 . S
C1152 C1151 1.387 . S
C1152 C1155 1.387 . S
H1153 C1149 0.972 . S
H1154 C1151 0.950 . S
C1155 C1146 1.390 . S
C1155 H1148 0.950 . S
C1155 C1152 1.387 . S
C1156 C1157 1.387 . S
C1156 H1160 0.950 . S
C1156 C1165 1.390 . S
C1157 C1156 1.387 . S
C1157 C1159 1.387 . S
H1158 C1165 0.950 . S
C1159 C1157 1.387 . S
C1159 C1161 1.390 . S
C1159 H1163 0.950 . S
H1160 C1156 0.950 . S
C1161 C1159 1.390 . S
C1161 C1162 1.387 . S
C1161 H1164 0.950 . S
C1162 C1161 1.387 . S
C1162 C1165 1.387 . S
H1163 C1159 0.950 . S
H1164 C1161 0.950 . S
C1165 C1156 1.390 . S
C1165 H1158 0.950 . S
C1165 C1162 1.387 . S
C1166 C1167 1.387 . S
C1166 H1170 0.950 . S
C1166 C1175 1.390 . S
C1167 C1166 1.387 . S
C1167 C1169 1.387 . S
H1168 C1175 0.950 . S
C1169 C1167 1.387 . S
C1169 C1171 1.390 . S
C1169 H1173 0.950 . S
H1170 C1166 0.950 . S
C1171 C1169 1.390 . S
C1171 C1172 1.387 . S
C1171 H1174 0.950 . S
C1172 C1171 1.387 . S
C1172 C1175 1.387 . S
H1173 C1169 0.950 . S
H1174 C1171 0.950 . S
C1175 C1166 1.390 . S
C1175 H1168 0.950 . S
C1175 C1172 1.387 . S
C1176 C1177 1.387 . S
C1176 H1180 0.950 . S
C1176 C1185 1.390 . S
C1177 C1176 1.387 . S
C1177 C1179 1.387 . S
H1178 C1185 0.950 . S
C1179 C1177 1.387 . S
C1179 C1181 1.390 . S
C1179 H1183 0.950 . S
H1180 C1176 0.950 . S
C1181 C1179 1.390 . S
C1181 C1182 1.387 . S
C1181 H1184 0.950 . S
C1182 C1181 1.387 . S
C1182 C1185 1.387 . S
H1183 C1179 0.950 . S
H1184 C1181 0.950 . S
C1185 C1176 1.390 . S
C1185 H1178 0.950 . S
C1185 C1182 1.387 . S
C1186 C1187 1.387 . S
C1186 H1190 0.950 . S
C1186 C1195 1.390 . S
C1187 C1186 1.387 . S
C1187 C1189 1.387 . S
H1188 C1195 0.950 . S
C1189 C1187 1.387 . S
C1189 C1191 1.390 . S
C1189 H1193 0.950 . S
H1190 C1186 0.950 . S
C1191 C1189 1.390 . S
C1191 C1192 1.387 . S
C1191 H1194 0.950 . S
C1192 C1191 1.387 . S
C1192 C1195 1.387 . S
H1193 C1189 0.950 . S
H1194 C1191 0.950 . S
C1195 C1186 1.390 . S
C1195 H1188 0.950 . S
C1195 C1192 1.387 . S
C1196 C1197 1.387 . S
C1196 H1200 0.950 . S
C1196 C1205 1.390 . S
C1197 C1196 1.387 . S
C1197 C1199 1.387 . S
H1198 C1205 0.950 . S
C1199 C1197 1.387 . S
C1199 C1201 1.390 . S
C1199 H1203 0.950 . S
H1200 C1196 0.950 . S
C1201 C1199 1.390 . S
C1201 C1202 1.387 . S
C1201 H1204 0.950 . S
C1202 C1201 1.387 . S
C1202 C1205 1.387 . S
H1203 C1199 0.950 . S
H1204 C1201 0.950 . S
C1205 C1196 1.390 . S
C1205 H1198 0.950 . S
C1205 C1202 1.387 . S
C1206 C1207 1.387 . S
C1206 H1210 0.950 . S
C1206 C1215 1.390 . S
C1207 C1206 1.387 . S
C1207 C1209 1.387 . S
H1208 C1215 0.950 . S
C1209 C1207 1.387 . S
C1209 C1211 1.390 . S
C1209 H1213 0.950 . S
H1210 C1206 0.950 . S
C1211 C1209 1.390 . S
C1211 C1212 1.387 . S
C1211 H1214 0.950 . S
C1212 C1211 1.387 . S
C1212 C1215 1.387 . S
H1213 C1209 0.950 . S
H1214 C1211 0.950 . S
C1215 C1206 1.390 . S
C1215 H1208 0.950 . S
C1215 C1212 1.387 . S
C1216 C1217 1.387 . S
C1216 H1220 0.950 . S
C1216 C1225 1.390 . S
C1217 C1216 1.387 . S
C1217 C1219 1.387 . S
H1218 C1225 0.950 . S
C1219 C1217 1.387 . S
C1219 C1221 1.390 1_565 S
C1219 H1223 0.949 1_565 S
H1220 C1216 0.950 . S
C1221 C1219 1.390 1_545 S
C1221 C1222 1.387 1_545 S
C1221 H1224 0.950 . S
C1222 C1221 1.387 1_565 S
C1222 C1225 1.387 . S
H1223 C1219 0.949 1_545 S
H1224 C1221 0.950 . S
C1225 C1216 1.390 . S
C1225 H1218 0.950 . S
C1225 C1222 1.387 . S
C1226 C1227 1.387 . S
C1226 H1230 0.950 . S
C1226 C1235 1.390 . S
C1227 C1226 1.387 . S
C1227 C1229 1.387 . S
H1228 C1235 0.950 . S
C1229 C1227 1.387 . S
C1229 C1231 1.390 . S
C1229 H1233 0.950 . S
H1230 C1226 0.950 . S
C1231 C1229 1.390 . S
C1231 C1232 1.387 . S
C1231 H1234 0.950 . S
C1232 C1231 1.387 . S
C1232 C1235 1.387 . S
H1233 C1229 0.950 . S
H1234 C1231 0.950 . S
C1235 C1226 1.390 . S
C1235 H1228 0.950 . S
C1235 C1232 1.387 . S
C1236 C1237 1.387 . S
C1236 H1240 0.950 . S
C1236 C1245 1.390 . S
C1237 C1236 1.387 . S
C1237 C1239 1.387 . S
H1238 C1245 0.950 . S
C1239 C1237 1.387 . S
C1239 C1241 1.390 . S
C1239 H1243 0.950 . S
H1240 C1236 0.950 . S
C1241 C1239 1.390 . S
C1241 C1242 1.387 . S
C1241 H1244 0.950 . S
C1242 C1241 1.387 . S
C1242 C1245 1.387 . S
H1243 C1239 0.950 . S
H1244 C1241 0.950 . S
C1245 C1236 1.390 . S
C1245 H1238 0.950 . S
C1245 C1242 1.387 . S
C1246 C1247 1.387 . S
C1246 H1250 0.950 . S
C1246 C1255 1.390 . S
C1247 C1246 1.387 . S
C1247 C1249 1.387 . S
H1248 C1255 0.950 . S
C1249 C1247 1.387 . S
C1249 C1251 1.390 . S
C1249 H1253 0.950 . S
H1250 C1246 0.950 . S
C1251 C1249 1.390 . S
C1251 C1252 1.387 . S
C1251 H1254 0.950 . S
C1252 C1251 1.387 . S
C1252 C1255 1.387 . S
H1253 C1249 0.950 . S
H1254 C1251 0.950 . S
C1255 C1246 1.390 . S
C1255 H1248 0.950 . S
C1255 C1252 1.387 . S
C1256 C1257 1.387 . S
C1256 H1260 0.950 . S
C1256 C1265 1.390 . S
C1257 C1256 1.387 . S
C1257 C1259 1.387 . S
H1258 C1265 0.950 . S
C1259 C1257 1.387 . S
C1259 C1261 1.390 . S
C1259 H1263 0.950 . S
H1260 C1256 0.950 . S
C1261 C1259 1.390 . S
C1261 C1262 1.387 . S
C1261 H1264 0.950 . S
C1262 C1261 1.387 . S
C1262 C1265 1.387 . S
H1263 C1259 0.950 . S
H1264 C1261 0.950 . S
C1265 C1256 1.390 . S
C1265 H1258 0.950 . S
C1265 C1262 1.387 . S
C1266 C1267 1.387 . S
C1266 H1270 0.950 . S
C1266 C1275 1.390 . S
C1267 C1266 1.387 . S
C1267 C1269 1.387 . S
H1268 C1275 0.950 . S
C1269 C1267 1.387 . S
C1269 C1271 1.390 . S
C1269 H1273 0.950 . S
H1270 C1266 0.950 . S
C1271 C1269 1.390 . S
C1271 C1272 1.387 . S
C1271 H1274 0.950 . S
C1272 C1271 1.387 . S
C1272 C1275 1.387 . S
H1273 C1269 0.950 . S
H1274 C1271 0.950 . S
C1275 C1266 1.390 . S
C1275 H1268 0.950 . S
C1275 C1272 1.387 . S
C1276 C1277 1.387 . S
C1276 H1280 0.950 . S
C1276 C1285 1.390 . S
C1277 C1276 1.387 . S
C1277 C1279 1.387 . S
H1278 C1285 0.950 1_554 S
C1279 C1277 1.387 . S
C1279 C1281 1.390 . S
C1279 H1283 0.950 . S
H1280 C1276 0.950 . S
C1281 C1279 1.390 . S
C1281 C1282 1.387 . S
C1281 H1284 0.950 . S
C1282 C1281 1.387 . S
C1282 C1285 1.387 . S
H1283 C1279 0.950 . S
H1284 C1281 0.950 . S
C1285 C1276 1.390 . S
C1285 H1278 0.950 1_556 S
C1285 C1282 1.387 . S
C1286 C1287 1.387 . S
C1286 H1290 0.950 . S
C1286 C1295 1.390 . S
C1287 C1286 1.387 . S
C1287 C1289 1.387 . S
H1288 C1295 0.950 . S
C1289 C1287 1.387 . S
C1289 C1291 1.390 . S
C1289 H1293 0.950 . S
H1290 C1286 0.950 . S
C1291 C1289 1.390 . S
C1291 C1292 1.387 . S
C1291 H1294 0.950 . S
C1292 C1291 1.387 . S
C1292 C1295 1.387 . S
H1293 C1289 0.950 . S
H1294 C1291 0.950 . S
C1295 C1286 1.390 . S
C1295 H1288 0.950 . S
C1295 C1292 1.387 . S
C1296 C1297 1.387 . S
C1296 H1300 0.950 . S
C1296 C1305 1.390 . S
C1297 C1296 1.387 . S
C1297 C1299 1.387 . S
H1298 C1305 0.950 1_554 S
C1299 C1297 1.387 . S
C1299 C1301 1.390 . S
C1299 H1303 0.950 . S
H1300 C1296 0.950 . S
C1301 C1299 1.390 . S
C1301 C1302 1.387 . S
C1301 H1304 0.950 . S
C1302 C1301 1.387 . S
C1302 C1305 1.387 . S
H1303 C1299 0.950 . S
H1304 C1301 0.950 . S
C1305 C1296 1.390 . S
C1305 H1298 0.950 1_556 S
C1305 C1302 1.387 . S
C1306 C1307 1.387 . S
C1306 H1310 0.950 . S
C1306 C1315 1.390 . S
C1307 C1306 1.387 . S
C1307 C1309 1.387 . S
H1308 C1315 0.950 . S
C1309 C1307 1.387 . S
C1309 C1311 1.390 . S
C1309 H1313 0.950 . S
H1310 C1306 0.950 . S
C1311 C1309 1.390 . S
C1311 C1312 1.387 . S
C1311 H1314 0.950 . S
C1312 C1311 1.387 . S
C1312 C1315 1.387 . S
H1313 C1309 0.950 . S
H1314 C1311 0.950 . S
C1315 C1306 1.390 . S
C1315 H1308 0.950 . S
C1315 C1312 1.387 . S
C1316 C1317 1.387 . S
C1316 H1320 0.950 . S
C1316 C1325 1.390 . S
C1317 C1316 1.387 . S
C1317 C1319 1.387 . S
H1318 C1325 0.950 . S
C1319 C1317 1.387 . S
C1319 C1321 1.390 . S
C1319 H1323 0.950 . S
H1320 C1316 0.950 . S
C1321 C1319 1.390 . S
C1321 C1322 1.387 . S
C1321 H1324 0.950 . S
C1322 C1321 1.387 . S
C1322 C1325 1.387 . S
H1323 C1319 0.950 . S
H1324 C1321 0.950 . S
C1325 C1316 1.390 . S
C1325 H1318 0.950 . S
C1325 C1322 1.387 . S
C1326 C1327 1.387 . S
C1326 H1330 0.950 . S
C1326 C1335 1.390 . S
C1327 C1326 1.387 . S
C1327 C1329 1.387 . S
H1328 C1335 0.950 . S
C1329 C1327 1.387 . S
C1329 C1331 1.390 . S
C1329 H1333 0.950 . S
H1330 C1326 0.950 . S
C1331 C1329 1.390 . S
C1331 C1332 1.387 . S
C1331 H1334 0.950 . S
C1332 C1331 1.387 . S
C1332 C1335 1.387 . S
H1333 C1329 0.950 . S
H1334 C1331 0.950 . S
C1335 C1326 1.390 . S
C1335 H1328 0.950 . S
C1335 C1332 1.387 . S
C1336 C1337 1.387 . S
C1336 H1340 0.950 . S
C1336 C1345 1.390 . S
C1337 C1336 1.387 . S
C1337 C1339 1.387 . S
H1338 C1345 0.950 . S
C1339 C1337 1.387 . S
C1339 C1341 1.390 . S
C1339 H1343 0.950 . S
H1340 C1336 0.950 . S
C1341 C1339 1.390 . S
C1341 C1342 1.387 . S
C1341 H1344 0.950 . S
C1342 C1341 1.387 . S
C1342 C1345 1.387 . S
H1343 C1339 0.950 . S
H1344 C1341 0.950 . S
C1345 C1336 1.390 . S
C1345 H1338 0.950 . S
C1345 C1342 1.387 . S
C1346 C1347 1.387 . S
C1346 H1350 0.950 . S
C1346 C1355 1.390 . S
C1347 C1346 1.387 . S
C1347 C1349 1.387 . S
H1348 C1355 0.950 . S
C1349 C1347 1.387 . S
C1349 C1351 1.390 . S
C1349 H1353 0.950 . S
H1350 C1346 0.950 . S
C1351 C1349 1.390 . S
C1351 C1352 1.387 . S
C1351 H1354 0.950 . S
C1352 C1351 1.387 . S
C1352 C1355 1.387 . S
H1353 C1349 0.950 . S
H1354 C1351 0.950 . S
C1355 C1346 1.390 . S
C1355 H1348 0.950 . S
C1355 C1352 1.387 . S
C1356 C1357 1.387 . S
C1356 H1360 0.950 . S
C1356 C1365 1.390 . S
C1357 C1356 1.387 . S
C1357 C1359 1.387 . S
H1358 C1365 0.950 . S
C1359 C1357 1.387 . S
C1359 C1361 1.390 . S
C1359 H1363 0.950 . S
H1360 C1356 0.950 . S
C1361 C1359 1.390 . S
C1361 C1362 1.387 . S
C1361 H1364 0.950 . S
C1362 C1361 1.387 . S
C1362 C1365 1.387 . S
H1363 C1359 0.950 . S
H1364 C1361 0.950 . S
C1365 C1356 1.390 . S
C1365 H1358 0.950 . S
C1365 C1362 1.387 . S
C1366 C1367 1.387 . S
C1366 H1370 0.950 . S
C1366 C1375 1.390 . S
C1367 C1366 1.387 . S
C1367 C1369 1.387 . S
H1368 C1375 0.950 . S
C1369 C1367 1.387 . S
C1369 C1371 1.390 . S
C1369 H1373 0.950 . S
H1370 C1366 0.950 . S
C1371 C1369 1.390 . S
C1371 C1372 1.387 . S
C1371 H1374 0.950 . S
C1372 C1371 1.387 . S
C1372 C1375 1.387 . S
H1373 C1369 0.950 . S
H1374 C1371 0.950 . S
C1375 C1366 1.390 . S
C1375 H1368 0.950 . S
C1375 C1372 1.387 . S
C1376 C1377 1.387 . S
C1376 H1380 0.950 . S
C1376 C1385 1.390 1_554 S
C1377 C1376 1.387 . S
C1377 C1379 1.387 1_554 S
H1378 C1385 0.950 . S
C1379 C1377 1.387 1_556 S
C1379 C1381 1.390 . S
C1379 H1383 0.950 . S
H1380 C1376 0.950 . S
C1381 C1379 1.390 . S
C1381 C1382 1.387 . S
C1381 H1384 0.950 . S
C1382 C1381 1.387 . S
C1382 C1385 1.387 . S
H1383 C1379 0.950 . S
H1384 C1381 0.950 . S
C1385 C1376 1.390 1_556 S
C1385 H1378 0.950 . S
C1385 C1382 1.387 . S
C1386 C1387 1.387 . S
C1386 H1390 0.950 . S
C1386 C1395 1.390 . S
C1387 C1386 1.387 . S
C1387 C1389 1.387 . S
H1388 C1395 0.950 . S
C1389 C1387 1.387 . S
C1389 C1391 1.390 . S
C1389 H1393 0.950 . S
H1390 C1386 0.950 . S
C1391 C1389 1.390 . S
C1391 C1392 1.387 . S
C1391 H1394 0.950 . S
C1392 C1391 1.387 . S
C1392 C1395 1.387 . S
H1393 C1389 0.950 . S
H1394 C1391 0.950 . S
C1395 C1386 1.390 . S
C1395 H1388 0.950 . S
C1395 C1392 1.387 . S
C1396 C1397 1.387 . S
C1396 H1400 0.950 . S
C1396 C1405 1.390 . S
C1397 C1396 1.387 . S
C1397 C1399 1.387 . S
H1398 C1405 0.950 . S
C1399 C1397 1.387 . S
C1399 C1401 1.390 . S
C1399 H1403 0.950 . S
H1400 C1396 0.950 . S
C1401 C1399 1.390 . S
C1401 C1402 1.387 . S
C1401 H1404 0.950 . S
C1402 C1401 1.387 . S
C1402 C1405 1.387 . S
H1403 C1399 0.950 . S
H1404 C1401 0.950 . S
C1405 C1396 1.390 . S
C1405 H1398 0.950 . S
C1405 C1402 1.387 . S
C1406 C1407 1.387 . S
C1406 H1410 0.950 . S
C1406 C1415 1.390 . S
C1407 C1406 1.387 . S
C1407 C1409 1.387 . S
H1408 C1415 0.950 . S
C1409 C1407 1.387 . S
C1409 C1411 1.390 . S
C1409 H1413 0.950 . S
H1410 C1406 0.950 . S
C1411 C1409 1.390 . S
C1411 C1412 1.387 . S
C1411 H1414 0.950 . S
C1412 C1411 1.387 . S
C1412 C1415 1.387 . S
H1413 C1409 0.950 . S
H1414 C1411 0.950 . S
C1415 C1406 1.390 . S
C1415 H1408 0.950 . S
C1415 C1412 1.387 . S
C1416 C1417 1.387 . S
C1416 H1420 0.950 . S
C1416 C1425 1.390 . S
C1417 C1416 1.387 . S
C1417 C1419 1.387 . S
H1418 C1425 0.950 . S
C1419 C1417 1.387 . S
C1419 C1421 1.390 . S
C1419 H1423 0.950 . S
H1420 C1416 0.950 . S
C1421 C1419 1.390 . S
C1421 C1422 1.387 . S
C1421 H1424 0.950 . S
C1422 C1421 1.387 . S
C1422 C1425 1.387 . S
H1423 C1419 0.950 . S
H1424 C1421 0.950 . S
C1425 C1416 1.390 . S
C1425 H1418 0.950 . S
C1425 C1422 1.387 . S
C1426 C1427 1.387 . S
C1426 H1430 0.950 . S
C1426 C1435 1.390 . S
C1427 C1426 1.387 . S
C1427 C1429 1.387 . S
H1428 C1435 0.950 . S
C1429 C1427 1.387 . S
C1429 C1431 1.390 . S
C1429 H1433 0.950 . S
H1430 C1426 0.950 . S
C1431 C1429 1.390 . S
C1431 C1432 1.387 1_565 S
C1431 H1434 0.950 1_565 S
C1432 C1431 1.387 1_545 S
C1432 C1435 1.387 1_545 S
H1433 C1429 0.950 . S
H1434 C1431 0.950 1_545 S
C1435 C1426 1.390 . S
C1435 H1428 0.950 . S
C1435 C1432 1.387 1_565 S
C1436 C1437 1.387 . S
C1436 H1440 0.950 . S
C1436 C1445 1.390 . S
C1437 C1436 1.387 . S
C1437 C1439 1.387 . S
H1438 C1445 0.950 . S
C1439 C1437 1.387 . S
C1439 C1441 1.390 . S
C1439 H1443 0.950 . S
H1440 C1436 0.950 . S
C1441 C1439 1.390 . S
C1441 C1442 1.387 . S
C1441 H1444 0.950 . S
C1442 C1441 1.387 . S
C1442 C1445 1.387 . S
H1443 C1439 0.950 . S
H1444 C1441 0.950 . S
C1445 C1436 1.390 . S
C1445 H1438 0.950 . S
C1445 C1442 1.387 . S
C1446 C1447 1.387 . S
C1446 H1450 0.950 . S
C1446 C1455 1.390 . S
C1447 C1446 1.387 . S
C1447 C1449 1.387 . S
H1448 C1455 0.950 . S
C1449 C1447 1.387 . S
C1449 C1451 1.390 . S
C1449 H1453 0.950 . S
H1450 C1446 0.950 . S
C1451 C1449 1.390 . S
C1451 C1452 1.387 . S
C1451 H1454 0.950 . S
C1452 C1451 1.387 . S
C1452 C1455 1.387 . S
H1453 C1449 0.950 . S
H1454 C1451 0.950 . S
C1455 C1446 1.390 . S
C1455 H1448 0.950 . S
C1455 C1452 1.387 . S
C1456 C1457 1.387 . S
C1456 H1460 0.950 . S
C1456 C1465 1.390 . S
C1457 C1456 1.387 . S
C1457 C1459 1.387 . S
H1458 C1465 0.950 . S
C1459 C1457 1.387 . S
C1459 C1461 1.390 . S
C1459 H1463 0.950 . S
H1460 C1456 0.950 . S
C1461 C1459 1.390 . S
C1461 C1462 1.387 . S
C1461 H1464 0.950 . S
C1462 C1461 1.387 . S
C1462 C1465 1.387 . S
H1463 C1459 0.950 . S
H1464 C1461 0.950 . S
C1465 C1456 1.390 . S
C1465 H1458 0.950 . S
C1465 C1462 1.387 . S
C1466 C1467 1.387 . S
C1466 H1470 0.950 . S
C1466 C1475 1.390 . S
C1467 C1466 1.387 . S
C1467 C1469 1.387 . S
H1468 C1475 0.950 . S
C1469 C1467 1.387 . S
C1469 C1471 1.390 . S
C1469 H1473 0.950 . S
H1470 C1466 0.950 . S
C1471 C1469 1.390 . S
C1471 C1472 1.387 . S
C1471 H1474 0.950 . S
C1472 C1471 1.387 . S
C1472 C1475 1.387 . S
H1473 C1469 0.950 . S
H1474 C1471 0.950 . S
C1475 C1466 1.390 . S
C1475 H1468 0.950 . S
C1475 C1472 1.387 . S
C1476 C1477 1.387 1_655 S
C1476 H1480 0.950 . S
C1476 C1485 1.390 . S
C1477 C1476 1.387 1_455 S
C1477 C1479 1.387 . S
H1478 C1485 0.950 . S
C1479 C1477 1.387 . S
C1479 C1481 1.390 . S
C1479 H1483 0.950 . S
H1480 C1476 0.950 . S
C1481 C1479 1.390 . S
C1481 C1482 1.387 . S
C1481 H1484 0.950 . S
C1482 C1481 1.387 . S
C1482 C1485 1.387 1_455 S
H1483 C1479 0.950 . S
H1484 C1481 0.950 . S
C1485 C1476 1.390 . S
C1485 H1478 0.950 . S
C1485 C1482 1.387 1_655 S
C1486 C1487 1.387 . S
C1486 H1490 0.950 . S
C1486 C1495 1.390 1_455 S
C1487 C1486 1.387 . S
C1487 C1489 1.387 . S
H1488 C1495 0.950 . S
C1489 C1487 1.387 . S
C1489 C1491 1.390 . S
C1489 H1493 0.950 . S
H1490 C1486 0.950 . S
C1491 C1489 1.390 . S
C1491 C1492 1.387 1_455 S
C1491 H1494 0.950 . S
C1492 C1491 1.387 1_655 S
C1492 C1495 1.387 . S
H1493 C1489 0.950 . S
H1494 C1491 0.950 . S
C1495 C1486 1.390 1_655 S
C1495 H1488 0.950 . S
C1495 C1492 1.387 . S
C1496 C1497 1.387 . S
C1496 H1500 0.950 . S
C1496 C1505 1.390 . S
C1497 C1496 1.387 . S
C1497 C1499 1.387 . S
H1498 C1505 0.950 . S
C1499 C1497 1.387 . S
C1499 C1501 1.390 . S
C1499 H1503 0.950 . S
H1500 C1496 0.950 . S
C1501 C1499 1.390 . S
C1501 C1502 1.387 . S
C1501 H1504 0.950 . S
C1502 C1501 1.387 . S
C1502 C1505 1.387 . S
H1503 C1499 0.950 . S
H1504 C1501 0.950 . S
C1505 C1496 1.390 . S
C1505 H1498 0.950 . S
C1505 C1502 1.387 . S
C1506 C1507 1.387 . S
C1506 H1510 0.950 . S
C1506 C1515 1.390 . S
C1507 C1506 1.387 . S
C1507 C1509 1.387 . S
H1508 C1515 0.950 . S
C1509 C1507 1.387 . S
C1509 C1511 1.390 . S
C1509 H1513 0.950 . S
H1510 C1506 0.950 . S
C1511 C1509 1.390 . S
C1511 C1512 1.387 . S
C1511 H1514 0.950 . S
C1512 C1511 1.387 . S
C1512 C1515 1.387 . S
H1513 C1509 0.950 . S
H1514 C1511 0.950 . S
C1515 C1506 1.390 . S
C1515 H1508 0.950 . S
C1515 C1512 1.387 . S
C1516 C1517 1.387 . S
C1516 H1520 0.950 1_455 S
C1516 C1525 1.390 . S
C1517 C1516 1.387 . S
C1517 C1519 1.387 . S
H1518 C1525 0.950 1_655 S
C1519 C1517 1.387 . S
C1519 C1521 1.390 . S
C1519 H1523 0.950 . S
H1520 C1516 0.950 1_655 S
C1521 C1519 1.390 . S
C1521 C1522 1.387 . S
C1521 H1524 0.950 . S
C1522 C1521 1.387 . S
C1522 C1525 1.387 . S
H1523 C1519 0.950 . S
H1524 C1521 0.950 . S
C1525 C1516 1.390 . S
C1525 H1518 0.950 1_455 S
C1525 C1522 1.387 . S
C1526 C1527 1.387 . S
C1526 H1530 0.950 . S
C1526 C1535 1.390 . S
C1527 C1526 1.387 . S
C1527 C1529 1.387 . S
H1528 C1535 0.950 . S
C1529 C1527 1.387 . S
C1529 C1531 1.390 . S
C1529 H1533 0.950 . S
H1530 C1526 0.950 . S
C1531 C1529 1.390 . S
C1531 C1532 1.387 . S
C1531 H1534 0.950 . S
C1532 C1531 1.387 . S
C1532 C1535 1.387 . S
H1533 C1529 0.950 . S
H1534 C1531 0.950 . S
C1535 C1526 1.390 . S
C1535 H1528 0.950 . S
C1535 C1532 1.387 . S
C1536 C1537 1.387 . S
C1536 H1540 0.950 . S
C1536 C1545 1.390 . S
C1537 C1536 1.387 . S
C1537 C1539 1.387 . S
H1538 C1545 0.950 . S
C1539 C1537 1.387 . S
C1539 C1541 1.390 . S
C1539 H1543 0.950 . S
H1540 C1536 0.950 . S
C1541 C1539 1.390 . S
C1541 C1542 1.387 . S
C1541 H1544 0.950 . S
C1542 C1541 1.387 . S
C1542 C1545 1.387 . S
H1543 C1539 0.950 . S
H1544 C1541 0.950 . S
C1545 C1536 1.390 . S
C1545 H1538 0.950 . S
C1545 C1542 1.387 . S
C1546 C1547 1.387 . S
C1546 H1550 0.950 . S
C1546 C1555 1.390 . S
C1547 C1546 1.387 . S
C1547 C1549 1.387 . S
H1548 C1555 0.950 . S
C1549 C1547 1.387 . S
C1549 C1551 1.390 . S
C1549 H1553 0.950 . S
H1550 C1546 0.950 . S
C1551 C1549 1.390 . S
C1551 C1552 1.387 . S
C1551 H1554 0.950 . S
C1552 C1551 1.387 . S
C1552 C1555 1.387 . S
H1553 C1549 0.950 . S
H1554 C1551 0.950 . S
C1555 C1546 1.390 . S
C1555 H1548 0.950 . S
C1555 C1552 1.387 . S
C1556 C1557 1.387 . S
C1556 H1560 0.950 . S
C1556 C1565 1.390 . S
C1557 C1556 1.387 . S
C1557 C1559 1.387 . S
H1558 C1565 0.950 . S
C1559 C1557 1.387 . S
C1559 C1561 1.390 . S
C1559 H1563 0.950 . S
H1560 C1556 0.950 . S
C1561 C1559 1.390 . S
C1561 C1562 1.387 . S
C1561 H1564 0.950 . S
C1562 C1561 1.387 . S
C1562 C1565 1.387 . S
H1563 C1559 0.950 . S
H1564 C1561 0.950 . S
C1565 C1556 1.390 . S
C1565 H1558 0.950 . S
C1565 C1562 1.387 . S
C1566 C1567 1.387 . S
C1566 H1570 0.950 . S
C1566 C1575 1.390 . S
C1567 C1566 1.387 . S
C1567 C1569 1.387 . S
H1568 C1575 0.950 . S
C1569 C1567 1.387 . S
C1569 C1571 1.390 . S
C1569 H1573 0.950 . S
H1570 C1566 0.950 . S
C1571 C1569 1.390 . S
C1571 C1572 1.387 . S
C1571 H1574 0.950 . S
C1572 C1571 1.387 . S
C1572 C1575 1.387 . S
H1573 C1569 0.950 . S
H1574 C1571 0.950 . S
C1575 C1566 1.390 . S
C1575 H1568 0.950 . S
C1575 C1572 1.387 . S
C1576 C1577 1.387 . S
C1576 H1580 0.950 . S
C1576 C1585 1.390 . S
C1577 C1576 1.387 . S
C1577 C1579 1.387 . S
H1578 C1585 0.950 . S
C1579 C1577 1.387 . S
C1579 C1581 1.390 . S
C1579 H1583 0.950 . S
H1580 C1576 0.950 . S
C1581 C1579 1.390 . S
C1581 C1582 1.387 . S
C1581 H1584 0.950 . S
C1582 C1581 1.387 . S
C1582 C1585 1.387 . S
H1583 C1579 0.950 . S
H1584 C1581 0.950 . S
C1585 C1576 1.390 . S
C1585 H1578 0.950 . S
C1585 C1582 1.387 . S
C1586 C1587 1.387 . S
C1586 H1590 0.950 . S
C1586 C1595 1.390 . S
C1587 C1586 1.387 . S
C1587 C1589 1.387 . S
H1588 C1595 0.950 . S
C1589 C1587 1.387 . S
C1589 C1591 1.390 . S
C1589 H1593 0.950 . S
H1590 C1586 0.950 . S
C1591 C1589 1.390 . S
C1591 C1592 1.387 . S
C1591 H1594 0.950 . S
C1592 C1591 1.387 . S
C1592 C1595 1.387 . S
H1593 C1589 0.950 . S
H1594 C1591 0.950 . S
C1595 C1586 1.390 . S
C1595 H1588 0.950 . S
C1595 C1592 1.387 . S
C1596 C1597 1.387 . S
C1596 H1600 0.950 . S
C1596 C1605 1.390 . S
C1597 C1596 1.387 . S
C1597 C1599 1.387 . S
H1598 C1605 0.950 . S
C1599 C1597 1.387 . S
C1599 C1601 1.390 . S
C1599 H1603 0.950 . S
H1600 C1596 0.950 . S
C1601 C1599 1.390 . S
C1601 C1602 1.387 . S
C1601 H1604 0.950 . S
C1602 C1601 1.387 . S
C1602 C1605 1.387 . S
H1603 C1599 0.950 . S
H1604 C1601 0.950 . S
C1605 C1596 1.390 . S
C1605 H1598 0.950 . S
C1605 C1602 1.387 . S
C1606 C1607 1.387 . S
C1606 H1610 0.950 . S
C1606 C1615 1.390 . S
C1607 C1606 1.387 . S
C1607 C1609 1.387 . S
H1608 C1615 0.950 . S
C1609 C1607 1.387 . S
C1609 C1611 1.390 . S
C1609 H1613 0.950 . S
H1610 C1606 0.950 . S
C1611 C1609 1.390 . S
C1611 C1612 1.387 . S
C1611 H1614 0.950 . S
C1612 C1611 1.387 . S
C1612 C1615 1.387 . S
H1613 C1609 0.950 . S
H1614 C1611 0.950 . S
C1615 C1606 1.390 . S
C1615 H1608 0.950 . S
C1615 C1612 1.387 . S
C1616 C1617 1.387 . S
C1616 H1620 0.950 . S
C1616 C1625 1.390 . S
C1617 C1616 1.387 . S
C1617 C1619 1.387 . S
H1618 C1625 0.950 . S
C1619 C1617 1.387 . S
C1619 C1621 1.390 . S
C1619 H1623 0.950 . S
H1620 C1616 0.950 . S
C1621 C1619 1.390 . S
C1621 C1622 1.387 . S
C1621 H1624 0.950 . S
C1622 C1621 1.387 . S
C1622 C1625 1.387 . S
H1623 C1619 0.950 . S
H1624 C1621 0.950 . S
C1625 C1616 1.390 . S
C1625 H1618 0.950 . S
C1625 C1622 1.387 . S
C1626 C1627 1.387 . S
C1626 H1630 0.950 . S
C1626 C1635 1.390 . S
C1627 C1626 1.387 . S
C1627 C1629 1.387 . S
H1628 C1635 0.950 . S
C1629 C1627 1.387 . S
C1629 C1631 1.390 . S
C1629 H1633 0.950 . S
H1630 C1626 0.950 . S
C1631 C1629 1.390 . S
C1631 C1632 1.387 . S
C1631 H1634 0.950 . S
C1632 C1631 1.387 . S
C1632 C1635 1.387 . S
H1633 C1629 0.950 . S
H1634 C1631 0.950 . S
C1635 C1626 1.390 . S
C1635 H1628 0.950 . S
C1635 C1632 1.387 . S
C1636 C1637 1.387 1_565 S
C1636 H1640 0.950 . S
C1636 C1645 1.390 . S
C1637 C1636 1.387 1_545 S
C1637 C1639 1.387 . S
H1638 C1645 0.950 . S
C1639 C1637 1.387 . S
C1639 C1641 1.390 . S
C1639 H1643 0.950 . S
H1640 C1636 0.950 . S
C1641 C1639 1.390 . S
C1641 C1642 1.387 1_545 S
C1641 H1644 0.950 . S
C1642 C1641 1.387 1_565 S
C1642 C1645 1.387 . S
H1643 C1639 0.950 . S
H1644 C1641 0.950 . S
C1645 C1636 1.390 . S
C1645 H1638 0.950 . S
C1645 C1642 1.387 . S
C1646 C1647 1.387 . S
C1646 H1650 0.950 . S
C1646 C1655 1.390 . S
C1647 C1646 1.387 . S
C1647 C1649 1.387 . S
H1648 C1655 0.950 . S
C1649 C1647 1.387 . S
C1649 C1651 1.390 . S
C1649 H1653 0.950 . S
H1650 C1646 0.950 . S
C1651 C1649 1.390 . S
C1651 C1652 1.387 . S
C1651 H1654 0.950 1_565 S
C1652 C1651 1.387 . S
C1652 C1655 1.387 . S
H1653 C1649 0.950 . S
H1654 C1651 0.950 1_545 S
C1655 C1646 1.390 . S
C1655 H1648 0.950 . S
C1655 C1652 1.387 . S
C1656 C1657 1.387 . S
C1656 H1660 0.950 . S
C1656 C1665 1.390 . S
C1657 C1656 1.387 . S
C1657 C1659 1.387 . S
H1658 C1665 0.950 . S
C1659 C1657 1.387 . S
C1659 C1661 1.390 . S
C1659 H1663 0.950 . S
H1660 C1656 0.950 . S
C1661 C1659 1.390 . S
C1661 C1662 1.387 . S
C1661 H1664 0.950 . S
C1662 C1661 1.387 . S
C1662 C1665 1.387 . S
H1663 C1659 0.950 . S
H1664 C1661 0.950 . S
C1665 C1656 1.390 . S
C1665 H1658 0.950 . S
C1665 C1662 1.387 . S
C1666 C1667 1.387 . S
C1666 H1670 0.950 . S
C1666 C1675 1.390 . S
C1667 C1666 1.387 . S
C1667 C1669 1.387 . S
H1668 C1675 0.950 . S
C1669 C1667 1.387 . S
C1669 C1671 1.390 . S
C1669 H1673 0.950 . S
H1670 C1666 0.950 . S
C1671 C1669 1.390 . S
C1671 C1672 1.387 . S
C1671 H1674 0.950 . S
C1672 C1671 1.387 . S
C1672 C1675 1.387 . S
H1673 C1669 0.950 . S
H1674 C1671 0.950 . S
C1675 C1666 1.390 . S
C1675 H1668 0.950 . S
C1675 C1672 1.387 . S
C1676 C1677 1.387 . S
C1676 H1680 0.950 . S
C1676 C1685 1.390 . S
C1677 C1676 1.387 . S
C1677 C1679 1.387 . S
H1678 C1685 0.950 . S
C1679 C1677 1.387 . S
C1679 C1681 1.390 . S
C1679 H1683 0.950 . S
H1680 C1676 0.950 . S
C1681 C1679 1.390 . S
C1681 C1682 1.387 . S
C1681 H1684 0.950 . S
C1682 C1681 1.387 . S
C1682 C1685 1.387 . S
H1683 C1679 0.950 . S
H1684 C1681 0.950 . S
C1685 C1676 1.390 . S
C1685 H1678 0.950 . S
C1685 C1682 1.387 . S
C1686 C1687 1.387 . S
C1686 H1690 0.950 . S
C1686 C1695 1.390 . S
C1687 C1686 1.387 . S
C1687 C1689 1.387 1_545 S
H1688 C1695 0.950 . S
C1689 C1687 1.387 1_565 S
C1689 C1691 1.390 . S
C1689 H1693 0.950 . S
H1690 C1686 0.950 . S
C1691 C1689 1.390 . S
C1691 C1692 1.387 . S
C1691 H1694 0.950 . S
C1692 C1691 1.387 . S
C1692 C1695 1.387 1_565 S
H1693 C1689 0.950 . S
H1694 C1691 0.950 . S
C1695 C1686 1.390 . S
C1695 H1688 0.950 . S
C1695 C1692 1.387 1_545 S
C1696 C1697 1.387 . S
C1696 H1700 0.950 . S
C1696 C1705 1.390 . S
C1697 C1696 1.387 . S
C1697 C1699 1.387 . S
H1698 C1705 0.950 . S
C1699 C1697 1.387 . S
C1699 C1701 1.390 . S
C1699 H1703 0.950 . S
H1700 C1696 0.950 . S
C1701 C1699 1.390 . S
C1701 C1702 1.387 . S
C1701 H1704 0.950 . S
C1702 C1701 1.387 . S
C1702 C1705 1.387 . S
H1703 C1699 0.950 . S
H1704 C1701 0.950 . S
C1705 C1696 1.390 . S
C1705 H1698 0.950 . S
C1705 C1702 1.387 . S
C1706 C1707 1.387 . S
C1706 H1710 0.950 . S
C1706 C1715 1.390 . S
C1707 C1706 1.387 . S
C1707 C1709 1.387 . S
H1708 C1715 0.950 . S
C1709 C1707 1.387 . S
C1709 C1711 1.390 . S
C1709 H1713 0.950 . S
H1710 C1706 0.950 . S
C1711 C1709 1.390 . S
C1711 C1712 1.387 . S
C1711 H1714 0.950 . S
C1712 C1711 1.387 . S
C1712 C1715 1.387 . S
H1713 C1709 0.950 . S
H1714 C1711 0.950 . S
C1715 C1706 1.390 . S
C1715 H1708 0.950 . S
C1715 C1712 1.387 . S
C1716 C1717 1.387 . S
C1716 H1720 0.950 . S
C1716 C1725 1.390 . S
C1717 C1716 1.387 . S
C1717 C1719 1.387 . S
H1718 C1725 0.950 . S
C1719 C1717 1.387 . S
C1719 C1721 1.390 . S
C1719 H1723 0.950 . S
H1720 C1716 0.950 . S
C1721 C1719 1.390 . S
C1721 C1722 1.387 . S
C1721 H1724 0.950 . S
C1722 C1721 1.387 . S
C1722 C1725 1.387 . S
H1723 C1719 0.950 . S
H1724 C1721 0.950 . S
C1725 C1716 1.390 . S
C1725 H1718 0.950 . S
C1725 C1722 1.387 . S
C1726 C1727 1.387 . S
C1726 H1730 0.950 . S
C1726 C1735 1.390 . S
C1727 C1726 1.387 . S
C1727 C1729 1.387 . S
H1728 C1735 0.950 . S
C1729 C1727 1.387 . S
C1729 C1731 1.390 . S
C1729 H1733 0.950 . S
H1730 C1726 0.950 . S
C1731 C1729 1.390 . S
C1731 C1732 1.387 . S
C1731 H1734 0.950 . S
C1732 C1731 1.387 . S
C1732 C1735 1.387 . S
H1733 C1729 0.950 . S
H1734 C1731 0.950 . S
C1735 C1726 1.390 . S
C1735 H1728 0.950 . S
C1735 C1732 1.387 . S
C1736 C1737 1.387 . S
C1736 H1740 0.950 . S
C1736 C1745 1.390 . S
C1737 C1736 1.387 . S
C1737 C1739 1.387 . S
H1738 C1745 0.950 . S
C1739 C1737 1.387 . S
C1739 C1741 1.390 . S
C1739 H1743 0.950 . S
H1740 C1736 0.950 . S
C1741 C1739 1.390 . S
C1741 C1742 1.387 . S
C1741 H1744 0.950 . S
C1742 C1741 1.387 . S
C1742 C1745 1.387 . S
H1743 C1739 0.950 . S
H1744 C1741 0.950 . S
C1745 C1736 1.390 . S
C1745 H1738 0.950 . S
C1745 C1742 1.387 . S
C1746 C1747 1.387 . S
C1746 H1750 0.950 . S
C1746 C1755 1.390 . S
C1747 C1746 1.387 . S
C1747 C1749 1.387 . S
H1748 C1755 0.950 . S
C1749 C1747 1.387 . S
C1749 C1751 1.390 . S
C1749 H1753 0.950 . S
H1750 C1746 0.950 . S
C1751 C1749 1.390 . S
C1751 C1752 1.387 . S
C1751 H1754 0.950 . S
C1752 C1751 1.387 . S
C1752 C1755 1.387 . S
H1753 C1749 0.950 . S
H1754 C1751 0.950 . S
C1755 C1746 1.390 . S
C1755 H1748 0.950 . S
C1755 C1752 1.387 . S
C1756 C1757 1.387 . S
C1756 H1760 0.950 . S
C1756 C1765 1.390 . S
C1757 C1756 1.387 . S
C1757 C1759 1.387 . S
H1758 C1765 0.950 . S
C1759 C1757 1.387 . S
C1759 C1761 1.390 . S
C1759 H1763 0.950 . S
H1760 C1756 0.950 . S
C1761 C1759 1.390 . S
C1761 C1762 1.387 . S
C1761 H1764 0.950 . S
C1762 C1761 1.387 . S
C1762 C1765 1.387 . S
H1763 C1759 0.950 . S
H1764 C1761 0.950 . S
C1765 C1756 1.390 . S
C1765 H1758 0.950 . S
C1765 C1762 1.387 . S
C1766 C1767 1.387 . S
C1766 H1770 0.950 . S
C1766 C1775 1.390 . S
C1767 C1766 1.387 . S
C1767 C1769 1.387 . S
H1768 C1775 0.950 . S
C1769 C1767 1.387 . S
C1769 C1771 1.390 . S
C1769 H1773 0.950 . S
H1770 C1766 0.950 . S
C1771 C1769 1.390 . S
C1771 C1772 1.387 . S
C1771 H1774 0.950 . S
C1772 C1771 1.387 . S
C1772 C1775 1.387 . S
H1773 C1769 0.950 . S
H1774 C1771 0.950 . S
C1775 C1766 1.390 . S
C1775 H1768 0.950 . S
C1775 C1772 1.387 . S
C1776 C1777 1.387 . S
C1776 H1780 0.950 . S
C1776 C1785 1.390 . S
C1777 C1776 1.387 . S
C1777 C1779 1.387 . S
H1778 C1785 0.950 . S
C1779 C1777 1.387 . S
C1779 C1781 1.390 . S
C1779 H1783 0.950 . S
H1780 C1776 0.950 . S
C1781 C1779 1.390 . S
C1781 C1782 1.387 . S
C1781 H1784 0.950 . S
C1782 C1781 1.387 . S
C1782 C1785 1.387 . S
H1783 C1779 0.950 . S
H1784 C1781 0.950 . S
C1785 C1776 1.390 . S
C1785 H1778 0.950 . S
C1785 C1782 1.387 . S
C1786 C1787 1.387 . S
C1786 H1790 0.950 . S
C1786 C1795 1.390 . S
C1787 C1786 1.387 . S
C1787 C1789 1.387 . S
H1788 C1795 0.950 . S
C1789 C1787 1.387 . S
C1789 C1791 1.390 . S
C1789 H1793 0.950 . S
H1790 C1786 0.950 . S
C1791 C1789 1.390 . S
C1791 C1792 1.387 . S
C1791 H1794 0.950 . S
C1792 C1791 1.387 . S
C1792 C1795 1.387 . S
H1793 C1789 0.950 . S
H1794 C1791 0.950 . S
C1795 C1786 1.390 . S
C1795 H1788 0.950 . S
C1795 C1792 1.387 . S
C1796 C1797 1.387 . S
C1796 H1800 0.950 . S
C1796 C1805 1.390 . S
C1797 C1796 1.387 . S
C1797 C1799 1.387 . S
H1798 C1805 0.924 1_554 S
C1799 C1797 1.387 . S
C1799 C1801 1.390 . S
C1799 H1803 0.950 . S
H1800 C1796 0.950 . S
C1801 C1799 1.390 . S
C1801 C1802 1.387 . S
C1801 H1804 0.950 . S
C1802 C1801 1.387 . S
C1802 C1805 1.387 . S
H1803 C1799 0.950 . S
H1804 C1801 0.950 . S
C1805 C1796 1.390 . S
C1805 H1798 0.924 1_556 S
C1805 C1802 1.387 . S
C1806 C1807 1.387 . S
C1806 H1810 0.950 . S
C1806 C1815 1.390 . S
C1807 C1806 1.387 . S
C1807 C1809 1.387 . S
H1808 C1815 0.950 . S
C1809 C1807 1.387 . S
C1809 C1811 1.390 . S
C1809 H1813 0.950 . S
H1810 C1806 0.950 . S
C1811 C1809 1.390 . S
C1811 C1812 1.387 . S
C1811 H1814 0.950 . S
C1812 C1811 1.387 . S
C1812 C1815 1.387 . S
H1813 C1809 0.950 . S
H1814 C1811 0.950 . S
C1815 C1806 1.390 . S
C1815 H1808 0.950 . S
C1815 C1812 1.387 . S
C1816 C1817 1.387 . S
C1816 H1820 0.950 . S
C1816 C1825 1.390 . S
C1817 C1816 1.387 . S
C1817 C1819 1.387 . S
H1818 C1825 0.950 . S
C1819 C1817 1.387 . S
C1819 C1821 1.390 . S
C1819 H1823 0.950 . S
H1820 C1816 0.950 . S
C1821 C1819 1.390 . S
C1821 C1822 1.387 . S
C1821 H1824 0.950 . S
C1822 C1821 1.387 . S
C1822 C1825 1.387 . S
H1823 C1819 0.950 . S
H1824 C1821 0.950 . S
C1825 C1816 1.390 . S
C1825 H1818 0.950 . S
C1825 C1822 1.387 . S
C1826 C1827 1.387 . S
C1826 H1830 0.950 . S
C1826 C1835 1.390 . S
C1827 C1826 1.387 . S
C1827 C1829 1.387 . S
H1828 C1835 0.950 . S
C1829 C1827 1.387 . S
C1829 C1831 1.390 . S
C1829 H1833 0.950 . S
H1830 C1826 0.950 . S
C1831 C1829 1.390 . S
C1831 C1832 1.387 . S
C1831 H1834 0.950 . S
C1832 C1831 1.387 . S
C1832 C1835 1.387 . S
H1833 C1829 0.950 . S
H1834 C1831 0.950 . S
C1835 C1826 1.390 . S
C1835 H1828 0.950 . S
C1835 C1832 1.387 . S
C1836 C1837 1.387 1_655 S
C1836 H1840 0.950 . S
C1836 C1845 1.390 . S
C1837 C1836 1.387 1_455 S
C1837 C1839 1.387 . S
H1838 C1845 0.950 . S
C1839 C1837 1.387 . S
C1839 C1841 1.390 . S
C1839 H1843 0.950 . S
H1840 C1836 0.950 . S
C1841 C1839 1.390 . S
C1841 C1842 1.387 . S
C1841 H1844 0.950 . S
C1842 C1841 1.387 . S
C1842 C1845 1.387 1_455 S
H1843 C1839 0.950 . S
H1844 C1841 0.950 . S
C1845 C1836 1.390 . S
C1845 H1838 0.950 . S
C1845 C1842 1.387 1_655 S
C1846 C1847 1.387 . S
C1846 H1850 0.950 . S
C1846 C1855 1.390 . S
C1847 C1846 1.387 . S
C1847 C1849 1.387 . S
H1848 C1855 0.950 . S
C1849 C1847 1.387 . S
C1849 C1851 1.390 . S
C1849 H1853 0.950 . S
H1850 C1846 0.950 . S
C1851 C1849 1.390 . S
C1851 C1852 1.387 . S
C1851 H1854 0.950 . S
C1852 C1851 1.387 . S
C1852 C1855 1.387 . S
H1853 C1849 0.950 . S
H1854 C1851 0.950 . S
C1855 C1846 1.390 . S
C1855 H1848 0.950 . S
C1855 C1852 1.387 . S
C1856 C1857 1.387 . S
C1856 H1860 0.950 . S
C1856 C1865 1.390 . S
C1857 C1856 1.387 . S
C1857 C1859 1.387 . S
H1858 C1865 0.950 . S
C1859 C1857 1.387 . S
C1859 C1861 1.390 . S
C1859 H1863 0.950 . S
H1860 C1856 0.950 . S
C1861 C1859 1.390 . S
C1861 C1862 1.387 . S
C1861 H1864 0.950 . S
C1862 C1861 1.387 . S
C1862 C1865 1.387 . S
H1863 C1859 0.950 . S
H1864 C1861 0.950 . S
C1865 C1856 1.390 . S
C1865 H1858 0.950 . S
C1865 C1862 1.387 . S
C1866 C1867 1.387 . S
C1866 H1870 0.950 . S
C1866 C1875 1.390 . S
C1867 C1866 1.387 . S
C1867 C1869 1.387 . S
H1868 C1875 0.950 . S
C1869 C1867 1.387 . S
C1869 C1871 1.390 1_565 S
C1869 H1873 0.950 . S
H1870 C1866 0.950 . S
C1871 C1869 1.390 1_545 S
C1871 C1872 1.387 . S
C1871 H1874 0.950 . S
C1872 C1871 1.387 . S
C1872 C1875 1.387 1_545 S
H1873 C1869 0.950 . S
H1874 C1871 0.950 . S
C1875 C1866 1.390 . S
C1875 H1868 0.950 . S
C1875 C1872 1.387 1_565 S
C1876 C1877 1.387 . S
C1876 H1880 0.950 . S
C1876 C1885 1.390 . S
C1877 C1876 1.387 . S
C1877 C1879 1.387 . S
H1878 C1885 0.950 . S
C1879 C1877 1.387 . S
C1879 C1881 1.390 . S
C1879 H1883 0.950 . S
H1880 C1876 0.950 . S
C1881 C1879 1.390 . S
C1881 C1882 1.387 . S
C1881 H1884 0.950 . S
C1882 C1881 1.387 . S
C1882 C1885 1.387 . S
H1883 C1879 0.950 . S
H1884 C1881 0.950 . S
C1885 C1876 1.390 . S
C1885 H1878 0.950 . S
C1885 C1882 1.387 . S
C1886 C1887 1.387 1_556 S
C1886 H1890 0.950 . S
C1886 C1895 1.390 . S
C1887 C1886 1.387 1_554 S
C1887 C1889 1.387 . S
H1888 C1895 0.950 . S
C1889 C1887 1.387 . S
C1889 C1891 1.390 . S
C1889 H1893 0.950 . S
H1890 C1886 0.950 . S
C1891 C1889 1.390 . S
C1891 C1892 1.387 . S
C1891 H1894 0.950 . S
C1892 C1891 1.387 . S
C1892 C1895 1.387 1_554 S
H1893 C1889 0.950 . S
H1894 C1891 0.950 . S
C1895 C1886 1.390 . S
C1895 H1888 0.950 . S
C1895 C1892 1.387 1_556 S
C1896 C1897 1.387 . S
C1896 H1900 0.950 . S
C1896 C1905 1.390 . S
C1897 C1896 1.387 . S
C1897 C1899 1.387 . S
H1898 C1905 0.950 . S
C1899 C1897 1.387 . S
C1899 C1901 1.390 . S
C1899 H1903 0.950 . S
H1900 C1896 0.950 . S
C1901 C1899 1.390 . S
C1901 C1902 1.387 . S
C1901 H1904 0.950 . S
C1902 C1901 1.387 . S
C1902 C1905 1.387 . S
H1903 C1899 0.950 . S
H1904 C1901 0.950 . S
C1905 C1896 1.390 . S
C1905 H1898 0.950 . S
C1905 C1902 1.387 . S
C1906 C1907 1.387 . S
C1906 H1910 0.950 . S
C1906 C1915 1.390 . S
C1907 C1906 1.387 . S
C1907 C1909 1.387 . S
H1908 C1915 0.950 . S
C1909 C1907 1.387 . S
C1909 C1911 1.390 . S
C1909 H1913 0.950 . S
H1910 C1906 0.950 . S
C1911 C1909 1.390 . S
C1911 C1912 1.387 . S
C1911 H1914 0.950 . S
C1912 C1911 1.387 . S
C1912 C1915 1.387 . S
H1913 C1909 0.950 . S
H1914 C1911 0.950 . S
C1915 C1906 1.390 . S
C1915 H1908 0.950 . S
C1915 C1912 1.387 . S
C1916 C1917 1.387 . S
C1916 H1920 0.950 . S
C1916 C1925 1.390 . S
C1917 C1916 1.387 . S
C1917 C1919 1.387 . S
H1918 C1925 0.950 . S
C1919 C1917 1.387 . S
C1919 C1921 1.390 . S
C1919 H1923 0.950 . S
H1920 C1916 0.950 . S
C1921 C1919 1.390 . S
C1921 C1922 1.387 . S
C1921 H1924 0.950 . S
C1922 C1921 1.387 . S
C1922 C1925 1.387 . S
H1923 C1919 0.950 . S
H1924 C1921 0.950 . S
C1925 C1916 1.390 . S
C1925 H1918 0.950 . S
C1925 C1922 1.387 . S
C1926 C1927 1.387 . S
C1926 H1930 0.950 . S
C1926 C1935 1.390 . S
C1927 C1926 1.387 . S
C1927 C1929 1.387 . S
H1928 C1935 0.950 . S
C1929 C1927 1.387 . S
C1929 C1931 1.390 . S
C1929 H1933 0.950 . S
H1930 C1926 0.950 . S
C1931 C1929 1.390 . S
C1931 C1932 1.387 . S
C1931 H1934 0.950 . S
C1932 C1931 1.387 . S
C1932 C1935 1.387 . S
H1933 C1929 0.950 . S
H1934 C1931 0.950 . S
C1935 C1926 1.390 . S
C1935 H1928 0.950 . S
C1935 C1932 1.387 . S
C977 C106 2.371 1_455 S
C982 C358 2.349 . S
C987 C65 1.466 . S
C992 C378 1.408 . S
C997 C79 1.115 . S
C1002 C425 1.100 . S
C1012 C482 1.075 . S
C1007 C90 1.082 . S
C1017 C21 2.408 . S
C1022 C499 2.427 1_565 S
C1032 C558 1.940 . S
C1027 C35 1.891 . S
C1042 C591 2.810 . S
C1037 C50 2.808 . S
C1047 C6 2.532 . S
C1052 C638 2.572 . S
C1062 C351 2.355 . S
C1057 C232 2.256 1_545 S
C1067 C245 1.679 . S
C1072 C379 1.702 . S
C1082 C418 0.655 . S
C1077 C274 0.661 . S
C1092 C478 2.348 . S
C1087 C175 2.245 . S
C1097 C231 0.725 . S
C1102 C505 0.720 . S
C1112 C551 2.243 . S
C1107 C246 2.215 . S
C1122 C602 0.808 . S
C1117 C273 0.828 . S
C1132 C631 2.616 . S
C1127 C176 2.618 . S
C1142 C362 2.360 . S
C1137 C160 2.290 . S
C1147 C289 2.213 . S
C1152 C658 2.167 . S
C1162 C722 1.643 . S
C1157 C328 1.599 . S
C1172 C758 1.729 . S
C1167 C317 1.743 . S
C1177 C118 1.816 . S
C1182 C642 2.058 . S
C1187 C132 2.615 . S
C1192 C419 2.674 . S
C1197 C331 1.661 . S
C1202 C791 1.678 . S
C1212 C825 0.717 . S
C1207 C303 0.698 . S
C1222 C339 2.019 1_565 S
C1217 C63 1.943 . S
C1232 C831 2.070 . S
C1227 C107 2.016 . S
C1237 C92 0.974 . S
C1242 C442 0.991 . S
C1247 C78 1.318 . S
C1252 C785 1.272 . S
C1262 C518 2.971 . S
C1257 C8 2.948 . S
C1267 C51 2.042 . S
C1272 C699 2.026 . S
C1282 C578 3.063 1_566 S
C1277 C37 3.011 . S
C1292 C859 2.446 . S
C1287 C20 2.436 . S
C1302 C338 1.816 . S
C1297 C147 1.648 . S
C1312 C838 1.766 . S
C1307 C316 1.755 . S
C1317 C119 0.613 . S
C1322 C431 0.628 . S
C1327 C288 2.386 . S
C1332 C779 2.392 . S
C1337 C148 0.806 . S
C1342 C522 0.805 . S
C1352 C698 2.216 . S
C1347 C315 2.211 . S
C1357 C120 1.016 . S
C1362 C585 0.964 . S
C1367 C287 2.319 . S
C1372 C858 2.404 . S
C1377 C188 1.884 . S
C1382 C345 1.888 . S
C1387 C177 2.348 . S
C1392 C671 2.350 . S
C1397 C258 1.627 . S
C1402 C545 1.616 . S
C1407 C247 1.892 . S
C1412 C739 1.866 . S
C1422 C865 1.897 . S
C1417 C272 1.765 . S
C1427 C216 2.357 . S
C1432 C438 2.416 . S
C1442 C458 1.939 . S
C1437 C261 1.783 . S
C1452 C402 0.686 . S
C1447 C205 0.687 . S
C1457 C76 1.999 . S
C1462 C918 2.138 . S
C1472 C818 1.478 . S
C1467 C93 1.555 . S
C1477 C105 0.750 . S
C1482 C945 0.750 . S
C1487 C62 1.092 . S
C1492 C802 1.088 . S
C1497 C49 2.369 . S
C1502 C659 2.380 . S
C1512 C718 2.360 . S
C1507 C9 2.357 . S
C1522 C751 2.740 . S
C1517 C22 2.739 . S
C1532 C878 2.829 . S
C1527 C36 2.881 . S
C1542 C911 2.179 . S
C1537 C260 2.098 . S
C1547 C189 1.593 . S
C1552 C819 1.617 . S
C1562 C938 0.683 . S
C1557 C204 0.648 . S
C1572 C798 2.060 . S
C1567 C217 1.992 . S
C1582 C665 0.734 . S
C1577 C259 0.735 . S
C1587 C190 2.343 . S
C1592 C711 2.375 . S
C1602 C762 0.823 . S
C1597 C203 0.847 . S
C1607 C218 2.611 . S
C1612 C871 2.607 . S
C1622 C922 2.377 . S
C1617 C314 2.299 . S
C1627 C135 2.314 . S
C1632 C498 2.274 . S
C1642 C562 1.581 . S
C1637 C146 1.539 . S
C1652 C598 1.766 1_565 S
C1647 C163 1.768 . S
C1662 C882 1.785 . S
C1657 C300 1.593 . S
C1667 C286 2.538 . S
C1672 C939 2.611 1_655 S
C1682 C471 1.621 . S
C1677 C149 1.612 . S
C1692 C385 0.896 . S
C1687 C121 0.923 . S
C1697 C91 1.957 . S
C1702 C899 2.043 . S
C1712 C391 1.500 . S
C1707 C77 1.385 . S
C1717 C64 1.001 . S
C1722 C962 1.019 . S
C1727 C104 1.050 . S
C1732 C465 1.042 . S
C1737 C34 2.583 . S
C1742 C678 2.612 1_556 S
C1752 C539 2.008 . S
C1747 C23 2.019 . S
C1757 C7 2.610 . S
C1762 C738 2.686 . S
C1767 C48 2.354 . S
C1772 C619 2.364 . S
C1782 C898 1.798 . S
C1777 C329 1.628 . S
C1787 C162 1.731 . S
C1792 C398 1.763 . S
C1802 C951 0.637 1_556 S
C1797 C301 0.631 . S
C1807 C134 2.341 . S
C1812 C459 2.348 . S
C1817 C330 0.822 . S
C1822 C682 0.817 . S
C1832 C538 2.222 . S
C1827 C161 2.224 . S
C1837 C302 0.978 . S
C1842 C745 0.937 . S
C1852 C618 2.355 . S
C1847 C133 2.274 . S
C1862 C905 2.039 . S
C1857 C244 2.024 . S
C1872 C511 2.397 1_655 S
C1867 C219 2.397 . S
C1877 C230 1.565 . S
C1882 C705 1.538 . S
C1892 C579 1.823 . S
C1887 C191 1.858 1_554 S
C1897 C202 1.819 . S
C1902 C625 1.940 . S
C1907 C174 2.664 . S
C1912 C958 2.733 . S
C1922 C778 1.950 . S
C1917 C233 1.776 . S
C1932 C842 0.823 . S
C1927 C275 0.822 . S
