# Generated by pormake.
# Topology zzz, (3,6)-cn, num edge types: 1
# Building blocks:
#     Node 0, Type 0, BuildingBlock: OLANEW_clean_sbu_2, # of connection points: 3
#     Node 1, Type 0, BuildingBlock: OLANEW_clean_sbu_2, # of connection points: 3
#     Node 2, Type 0, BuildingBlock: OLANEW_clean_sbu_2, # of connection points: 3
#     Node 3, Type 0, BuildingBlock: OLANEW_clean_sbu_2, # of connection points: 3
#     Node 4, Type 0, BuildingBlock: OLANEW_clean_sbu_2, # of connection points: 3
#     Node 5, Type 0, BuildingBlock: OLANEW_clean_sbu_2, # of connection points: 3
#     Node 6, Type 0, BuildingBlock: OLANEW_clean_sbu_2, # of connection points: 3
#     Node 7, Type 0, BuildingBlock: OLANEW_clean_sbu_2, # of connection points: 3
#     Node 8, Type 1, BuildingBlock: BETFEN_clean_sbu_0, # of connection points: 6
#     Node 9, Type 1, BuildingBlock: BETFEN_clean_sbu_0, # of connection points: 6
#     Node 10, Type 1, BuildingBlock: BETFEN_clean_sbu_0, # of connection points: 6
#     Node 11, Type 1, BuildingBlock: BETFEN_clean_sbu_0, # of connection points: 6
#     Edge 12, Type (0, 1), BuildingBlock: CIFDUS_clean_linker_0, # of connection points: 2
#     Edge 13, Type (0, 1), BuildingBlock: CIFDUS_clean_linker_0, # of connection points: 2
#     Edge 14, Type (0, 1), BuildingBlock: CIFDUS_clean_linker_0, # of connection points: 2
#     Edge 15, Type (0, 1), BuildingBlock: CIFDUS_clean_linker_0, # of connection points: 2
#     Edge 16, Type (0, 1), BuildingBlock: CIFDUS_clean_linker_0, # of connection points: 2
#     Edge 17, Type (0, 1), BuildingBlock: CIFDUS_clean_linker_0, # of connection points: 2
#     Edge 18, Type (0, 1), BuildingBlock: CIFDUS_clean_linker_0, # of connection points: 2
#     Edge 19, Type (0, 1), BuildingBlock: CIFDUS_clean_linker_0, # of connection points: 2
#     Edge 20, Type (0, 1), BuildingBlock: CIFDUS_clean_linker_0, # of connection points: 2
#     Edge 21, Type (0, 1), BuildingBlock: CIFDUS_clean_linker_0, # of connection points: 2
#     Edge 22, Type (0, 1), BuildingBlock: CIFDUS_clean_linker_0, # of connection points: 2
#     Edge 23, Type (0, 1), BuildingBlock: CIFDUS_clean_linker_0, # of connection points: 2
#     Edge 24, Type (0, 1), BuildingBlock: CIFDUS_clean_linker_0, # of connection points: 2
#     Edge 25, Type (0, 1), BuildingBlock: CIFDUS_clean_linker_0, # of connection points: 2
#     Edge 26, Type (0, 1), BuildingBlock: CIFDUS_clean_linker_0, # of connection points: 2
#     Edge 27, Type (0, 1), BuildingBlock: CIFDUS_clean_linker_0, # of connection points: 2
#     Edge 28, Type (0, 1), BuildingBlock: CIFDUS_clean_linker_0, # of connection points: 2
#     Edge 29, Type (0, 1), BuildingBlock: CIFDUS_clean_linker_0, # of connection points: 2
#     Edge 30, Type (0, 1), BuildingBlock: CIFDUS_clean_linker_0, # of connection points: 2
#     Edge 31, Type (0, 1), BuildingBlock: CIFDUS_clean_linker_0, # of connection points: 2
#     Edge 32, Type (0, 1), BuildingBlock: CIFDUS_clean_linker_0, # of connection points: 2
#     Edge 33, Type (0, 1), BuildingBlock: CIFDUS_clean_linker_0, # of connection points: 2
#     Edge 34, Type (0, 1), BuildingBlock: CIFDUS_clean_linker_0, # of connection points: 2
#     Edge 35, Type (0, 1), BuildingBlock: CIFDUS_clean_linker_0, # of connection points: 2
# Relax obj value: 0.275
# Max RMSD: 0.199
# Mean RMSD: 0.173
data_MOF--net-zzz--node1-OLANEW_clean_sbu_2--node2-BETFEN_clean_sbu_0--edge1-CIFDUS_clean_linker_0
_symmetry_space_group_name_H-M    P1
_symmetry_Int_Tables_number       1
_symmetry_cell_setting            triclinic
loop_
_symmetry_equiv_pos_as_xyz
'x, y, z'
_cell_length_a     50.221316
_cell_length_b     50.297445
_cell_length_c     13.531082
_cell_angle_alpha  89.657177
_cell_angle_beta   89.862453
_cell_angle_gamma 89.996075
loop_
_atom_site_label
_atom_site_type_symbol
_atom_site_fract_x
_atom_site_fract_y
_atom_site_fract_z
_atom_type_partial_charge
O0 O 0.73648 0.51427 0.35399 0.0
Cd1 Cd 0.69741 0.52527 0.45348 0.0
O2 O 0.74461 0.478 0.43987 0.0
Cd3 Cd 0.72566 0.49424 0.57172 0.0
O4 O 0.76076 0.50892 0.64998 0.0
C5 C 0.78013 0.49274 0.64409 0.0
O6 O 0.77621 0.46938 0.60392 0.0
C7 C 0.74921 0.49263 0.36494 0.0
C8 C 0.65358 0.51709 0.33175 0.0
O9 O 0.66594 0.53938 0.3325 0.0
O10 O 0.66123 0.49888 0.39198 0.0
O11 O 0.96589 0.72135 0.25086 0.0
Cd12 Cd 0.95828 0.6774 0.32309 0.0
O13 O 0.99648 0.72727 0.36297 0.0
Cd14 Cd 0.02113 0.75206 0.45623 0.0
O15 O 0.0264 0.7891 0.53402 0.0
C16 C 0.0084 0.80618 0.51618 0.0
O17 O 0.9887 0.79994 0.45708 0.0
C18 C 0.98314 0.73632 0.29037 0.0
C19 C 0.96042 0.63904 0.17713 0.0
O20 O 0.93899 0.65212 0.19375 0.0
O21 O 0.98083 0.64378 0.23096 0.0
O22 O 0.76417 0.96508 0.29481 0.0
Cd23 Cd 0.80927 0.96179 0.36144 0.0
O24 O 0.76401 0.00526 0.35583 0.0
Cd25 Cd 0.74246 0.03926 0.41308 0.0
O26 O 0.70385 0.03825 0.48349 0.0
C27 C 0.70118 0.03602 0.5765 0.0
O28 O 0.7222 0.03764 0.63371 0.0
C29 C 0.75181 0.98662 0.3116 0.0
C30 C 0.84928 0.96993 0.22191 0.0
O31 O 0.84106 0.94643 0.24286 0.0
O32 O 0.83834 0.98958 0.2662 0.0
O33 O 0.53376 0.76426 0.28671 0.0
Cd34 Cd 0.5429 0.80824 0.35345 0.0
O35 O 0.50039 0.76036 0.3904 0.0
Cd36 Cd 0.46813 0.7376 0.45649 0.0
O37 O 0.4581 0.6997 0.52266 0.0
C38 C 0.47037 0.69393 0.60182 0.0
O39 O 0.48518 0.71226 0.64336 0.0
C40 C 0.51491 0.75049 0.32278 0.0
C41 C 0.53653 0.84623 0.20597 0.0
O42 O 0.55854 0.83362 0.21625 0.0
O43 O 0.51757 0.84121 0.26687 0.0
O44 O 0.27404 0.51905 0.22493 0.0
Cd45 Cd 0.31836 0.50187 0.18781 0.0
O46 O 0.26534 0.49461 0.09659 0.0
Cd47 Cd 0.23993 0.47366 0.9935 0.0
O48 O 0.20429 0.46364 0.91252 0.0
C49 C 0.19987 0.47393 0.82825 0.0
O50 O 0.21806 0.48934 0.78782 0.0
C51 C 0.25708 0.50999 0.16447 0.0
C52 C 0.35115 0.49579 0.35151 0.0
O53 O 0.35254 0.51654 0.29625 0.0
O54 O 0.33384 0.478 0.33048 0.0
O55 O 0.97548 0.26836 0.05616 0.0
Cd56 Cd 0.98299 0.3117 0.97986 0.0
O57 O 0.01697 0.27304 0.10392 0.0
Cd58 Cd 0.05167 0.2523 0.16307 0.0
O59 O 0.05597 0.21113 0.11691 0.0
C60 C 0.05163 0.2083 0.02509 0.0
O61 O 0.04782 0.22967 0.97058 0.0
C62 C 0.9955 0.25963 0.10337 0.0
C63 C 0.99135 0.34722 0.1332 0.0
O64 O 0.96842 0.34507 0.09265 0.0
O65 O 0.01056 0.33326 0.09888 0.0
O66 O 0.22953 0.97844 0.16395 0.0
Cd67 Cd 0.18393 0.9794 0.10161 0.0
O68 O 0.24334 0.00739 0.05321 0.0
Cd69 Cd 0.27183 0.03627 0.9928 0.0
O70 O 0.27964 0.07481 0.92306 0.0
C71 C 0.30053 0.08268 0.87854 0.0
O72 O 0.30019 0.10588 0.83345 0.0
C73 C 0.24815 0.99243 0.12696 0.0
C74 C 0.14828 0.97802 0.2601 0.0
O75 O 0.15705 0.95654 0.22123 0.0
O76 O 0.15605 0.00021 0.22293 0.0
O77 O 0.51183 0.24087 0.16271 0.0
Cd78 Cd 0.49897 0.1964 0.10992 0.0
O79 O 0.48888 0.25383 0.03476 0.0
Cd80 Cd 0.46649 0.27929 0.93413 0.0
O81 O 0.4356 0.28045 0.81097 0.0
C82 C 0.43532 0.29759 0.74081 0.0
O83 O 0.43471 0.27965 0.81075 0.0
C84 C 0.50262 0.25973 0.11019 0.0
C85 C 0.49427 0.16146 0.26912 0.0
O86 O 0.51556 0.16228 0.2167 0.0
O87 O 0.47516 0.1772 0.2463 0.0
Pr88 Pr 0.01579 0.99273 0.87786 0.0
Pr89 Pr 0.99811 0.02226 0.686 0.0
C90 C 0.02166 0.96943 0.05634 0.0
C91 C 0.01878 0.94186 0.09217 0.0
C92 C 0.03071 0.93377 0.18096 0.0
C93 C 0.02884 0.90725 0.2127 0.0
C94 C 0.01498 0.8884 0.15599 0.0
C95 C 0.00292 0.89674 0.0673 0.0
C96 C 0.00483 0.92317 0.03571 0.0
C97 C 0.05455 0.99714 0.73133 0.0
C98 C 0.99808 0.95581 0.69486 0.0
C99 C 0.98945 0.04096 0.50141 0.0
C100 C 0.98989 0.06545 0.44117 0.0
C101 C 0.96864 0.07075 0.37691 0.0
C102 C 0.96835 0.09395 0.31952 0.0
C103 C 0.9894 0.11231 0.32518 0.0
C104 C 0.01095 0.10665 0.38836 0.0
C105 C 0.01115 0.0835 0.4461 0.0
C106 C 0.95902 0.01617 0.83027 0.0
C107 C 0.01932 0.05918 0.86658 0.0
O108 O 0.99968 0.98129 0.02848 0.0
O109 O 0.0416 0.97378 0.996 0.0
O110 O 0.03875 0.01537 0.75653 0.0
O111 O 0.05169 0.97606 0.78629 0.0
O112 O 0.99962 0.97735 0.63886 0.0
O113 O 0.99931 0.95685 0.79185 0.0
O114 O 0.01232 0.03129 0.53079 0.0
O115 O 0.97067 0.03892 0.56807 0.0
O116 O 0.97529 0.99847 0.8042 0.0
O117 O 0.96199 0.03793 0.77911 0.0
O118 O 0.01689 0.03784 0.92371 0.0
O119 O 0.01652 0.05804 0.76956 0.0
H120 H 0.04162 0.94791 0.22539 0.0
H121 H 0.03812 0.90153 0.28182 0.0
H122 H 0.99245 0.88269 0.02109 0.0
H123 H 0.99563 0.92895 0.96655 0.0
H124 H 0.95209 0.057 0.37181 0.0
H125 H 0.95133 0.09779 0.27258 0.0
H126 H 0.0277 0.12013 0.39328 0.0
H127 H 0.02786 0.07981 0.49478 0.0
Pr128 Pr 0.50292 0.01265 0.84046 0.0
Pr129 Pr 0.49001 0.98734 0.63749 0.0
C130 C 0.52339 0.01992 0.0222 0.0
C131 C 0.55061 0.02129 0.06298 0.0
C132 C 0.5715 0.03269 0.00801 0.0
C133 C 0.59756 0.03227 0.04429 0.0
C134 C 0.60335 0.02017 0.1358 0.0
C135 C 0.58236 0.00889 0.19094 0.0
C136 C 0.55623 0.00951 0.15489 0.0
C137 C 0.50084 0.04843 0.68348 0.0
C138 C 0.5528 0.99204 0.69033 0.0
C139 C 0.47235 0.97388 0.45659 0.0
C140 C 0.44814 0.97829 0.39856 0.0
C141 C 0.44281 0.96246 0.31608 0.0
C142 C 0.41881 0.9654 0.2649 0.0
C143 C 0.3998 0.98411 0.2962 0.0
C144 C 0.40565 0.00043 0.37731 0.0
C145 C 0.42963 0.99753 0.428 0.0
C146 C 0.49508 0.95209 0.79486 0.0
C147 C 0.44181 0.01689 0.76961 0.0
O148 O 0.51608 0.99662 0.98933 0.0
O149 O 0.51579 0.03961 0.96499 0.0
O150 O 0.51113 0.02564 0.68126 0.0
O151 O 0.49229 0.05444 0.7716 0.0
O152 O 0.53559 0.98836 0.61848 0.0
O153 O 0.5451 0.99882 0.7805 0.0
O154 O 0.48701 0.99489 0.47308 0.0
O155 O 0.4696 0.95858 0.53445 0.0
O156 O 0.48263 0.97381 0.79743 0.0
O157 O 0.50503 0.94751 0.70788 0.0
O158 O 0.45661 0.01519 0.84999 0.0
O159 O 0.45132 0.01077 0.68139 0.0
H160 H 0.56777 0.04151 0.93613 0.0
H161 H 0.61331 0.04078 0.9994 0.0
H162 H 0.58617 -0.00041 0.26193 0.0
H163 H 0.54045 0.00042 0.19813 0.0
H164 H 0.45695 0.94749 0.29255 0.0
H165 H 0.41476 0.95245 0.20305 0.0
H166 H 0.39158 0.01529 0.40218 0.0
H167 H 0.43357 0.01003 0.4911 0.0
Pr168 Pr 0.50286 0.4984 0.90951 0.0
Pr169 Pr 0.52843 0.48953 0.70073 0.0
C170 C 0.4936 0.51673 0.0931 0.0
C171 C 0.49714 0.54308 0.13835 0.0
C172 C 0.48146 0.55073 0.21925 0.0
C173 C 0.4835 0.57652 0.25732 0.0
C174 C 0.50103 0.59512 0.21412 0.0
C175 C 0.51701 0.58714 0.13419 0.0
C176 C 0.51517 0.56137 0.09705 0.0
C177 C 0.4669 0.49412 0.75354 0.0
C178 C 0.51853 0.55048 0.7655 0.0
C179 C 0.54126 0.47303 0.5177 0.0
C180 C 0.53444 0.44908 0.46136 0.0
C181 C 0.55196 0.43919 0.38951 0.0
C182 C 0.54685 0.41473 0.34429 0.0
C183 C 0.52433 0.39979 0.37163 0.0
C184 C 0.50632 0.4103 0.44059 0.0
C185 C 0.51131 0.43473 0.48505 0.0
C186 C 0.56394 0.49905 0.85316 0.0
C187 C 0.50306 0.43809 0.83192 0.0
O188 O 0.51545 0.50418 0.06839 0.0
O189 O 0.47508 0.51527 0.02556 0.0
O190 O 0.48876 0.50618 0.75217 0.0
O191 O 0.46169 0.4846 0.84129 0.0
O192 O 0.52014 0.53471 0.68822 0.0
O193 O 0.51669 0.54107 0.85665 0.0
O194 O 0.5216 0.48941 0.53565 0.0
O195 O 0.55657 0.46905 0.59447 0.0
O196 O 0.54386 0.48403 0.85895 0.0
O197 O 0.56705 0.50874 0.76456 0.0
O198 O 0.5032 0.45228 0.91364 0.0
O199 O 0.50862 0.44872 0.74456 0.0
H200 H 0.46736 0.53693 0.25193 0.0
H201 H 0.47088 0.58211 0.31881 0.0
H202 H 0.53103 0.60084 0.10039 0.0
H203 H 0.5277 0.55585 0.03531 0.0
H204 H 0.56999 0.44995 0.37092 0.0
H205 H 0.56106 0.40692 0.29156 0.0
H206 H 0.48864 0.39931 0.46165 0.0
H207 H 0.49749 0.44203 0.54019 0.0
Pr208 Pr 0.98208 0.47389 0.76781 0.0
Pr209 Pr 0.99923 0.50555 0.58341 0.0
C210 C 0.96065 0.45522 0.93725 0.0
C211 C 0.93572 0.45757 0.99338 0.0
C212 C 0.92734 0.43634 0.05313 0.0
C213 C 0.90366 0.43813 0.10701 0.0
C214 C 0.88795 0.4613 0.1023 0.0
C215 C 0.89646 0.48253 0.04164 0.0
C216 C 0.92009 0.48063 0.98737 0.0
C217 C 0.98559 0.44487 0.59341 0.0
C218 C 0.93635 0.50614 0.63694 0.0
C219 C 0.02294 0.52132 0.41389 0.0
C220 C 0.05102 0.52132 0.38113 0.0
C221 C 0.06066 0.54109 0.31659 0.0
C222 C 0.08786 0.54218 0.29253 0.0
C223 C 0.10574 0.5238 0.33433 0.0
C224 C 0.09589 0.50372 0.39687 0.0
C225 C 0.0688 0.50236 0.41929 0.0
C226 C 0.99352 0.53579 0.7522 0.0
C227 C 0.0449 0.47347 0.72382 0.0
O228 O 0.9757 0.47643 0.93269 0.0
O229 O 0.95927 0.44245 0.85358 0.0
O230 O 0.97533 0.46748 0.60224 0.0
O231 O 0.99463 0.43592 0.67718 0.0
O232 O 0.95317 0.50694 0.56166 0.0
O233 O 0.94416 0.49881 0.72621 0.0
O234 O 0.01189 0.49792 0.42556 0.0
O235 O 0.01712 0.53774 0.48538 0.0
O236 O 0.0046 0.51327 0.74931 0.0
O237 O 0.98594 0.54398 0.66531 0.0
O238 O 0.02705 0.46966 0.79347 0.0
O239 O 0.03862 0.48413 0.63735 0.0
H240 H 0.93909 0.41831 0.05783 0.0
H241 H 0.89755 0.42124 0.15155 0.0
H242 H 0.88511 0.5008 0.03717 0.0
H243 H 0.92621 0.49722 0.94118 0.0
H244 H 0.04727 0.5559 0.28625 0.0
H245 H 0.09505 0.5578 0.24391 0.0
H246 H 0.10922 0.48908 0.42877 0.0
H247 H 0.06184 0.48665 0.46772 0.0
H248 H 0.12309 0.01957 0.34852 0.0
H249 H 0.13324 0.93445 0.36744 0.0
H250 H 0.10542 0.933 0.51541 0.0
H251 H 0.07889 0.95591 0.64133 0.0
H252 H 0.06751 0.04075 0.62071 0.0
H253 H 0.09518 0.04234 0.47157 0.0
C254 C 0.11918 0.0007 0.38488 0.0
C255 C 0.13037 0.97718 0.34716 0.0
C256 C 0.10307 -2e-05 0.46992 0.0
C257 C 0.12493 0.95286 0.39485 0.0
C258 C 0.10906 0.95201 0.47969 0.0
C259 C 0.0826 0.97475 0.6044 0.0
C260 C 0.07148 0.99821 0.64226 0.0
C261 C 0.09821 0.97544 0.51827 0.0
C262 C 0.07605 0.02245 0.59305 0.0
C263 C 0.09182 0.02336 0.50781 0.0
H264 H 0.52209 0.11609 0.2987 0.0
H265 H 0.4608 0.16501 0.42777 0.0
H266 H 0.45756 0.13455 0.56903 0.0
H267 H 0.4726 0.09402 0.65668 0.0
H268 H 0.53201 0.04407 0.5209 0.0
H269 H 0.53549 0.07482 0.38146 0.0
C270 C 0.50807 0.1201 0.35788 0.0
C271 C 0.49188 0.14283 0.35338 0.0
C272 C 0.50598 0.1023 0.43766 0.0
C273 C 0.47349 0.1476 0.42973 0.0
C274 C 0.47167 0.13024 0.51054 0.0
C275 C 0.48631 0.09 0.59652 0.0
C276 C 0.5022 0.06704 0.59927 0.0
C277 C 0.48788 0.10755 0.51548 0.0
C278 C 0.51962 0.06171 0.52042 0.0
C279 C 0.52166 0.07928 0.44072 0.0
H280 H 0.39913 0.5189 0.37415 0.0
H281 H 0.34478 0.46412 0.51507 0.0
H282 H 0.37581 0.4584 0.65314 0.0
H283 H 0.41854 0.46959 0.73458 0.0
H284 H 0.47322 0.52259 0.5853 0.0
H285 H 0.44207 0.52824 0.44987 0.0
C286 C 0.39401 0.5058 0.43531 0.0
C287 C 0.36964 0.49218 0.43513 0.0
C288 C 0.41209 0.50222 0.51291 0.0
C289 C 0.36346 0.47488 0.51387 0.0
C290 C 0.38117 0.47162 0.59275 0.0
C291 C 0.42355 0.48229 0.6722 0.0
C292 C 0.44799 0.49585 0.67055 0.0
C293 C 0.40557 0.48524 0.5932 0.0
C294 C 0.45445 0.51204 0.58882 0.0
C295 C 0.43664 0.51534 0.51116 0.0
H296 H 0.96153 0.38953 0.18761 0.0
H297 H 0.02964 0.34278 0.27459 0.0
H298 H 0.03381 0.36862 0.42631 0.0
H299 H 0.01706 0.40373 0.53708 0.0
H300 H 0.95084 0.45224 0.4433 0.0
H301 H 0.94693 0.42657 0.29151 0.0
C302 C 0.97737 0.38514 0.23952 0.0
C303 C 0.99515 0.36425 0.22039 0.0
C304 C 0.97988 0.4003 0.32563 0.0
C305 C 0.01576 0.35887 0.2877 0.0
C306 C 0.01808 0.37354 0.37464 0.0
C307 C 0.00182 0.40857 0.48321 0.0
C308 C 0.98408 0.42952 0.50144 0.0
C309 C 1.00008 0.39412 0.3949 0.0
C310 C 0.96466 0.43606 0.43072 0.0
C311 C 0.96239 0.42141 0.34401 0.0
H312 H 0.86485 0.01673 0.13883 0.0
H313 H 0.88245 0.93272 0.1425 0.0
H314 H 0.91857 0.93977 0.02402 0.0
H315 H 0.94485 0.96972 0.91795 0.0
H316 H 0.92621 0.05343 0.90957 0.0
H317 H 0.89085 0.04661 0.0317 0.0
C318 C 0.8766 -3e-05 0.11379 0.0
C319 C 0.87097 0.97425 0.14943 0.0
C320 C 0.89714 0.00411 0.04485 0.0
C321 C 0.8863 0.95272 0.11589 0.0
C322 C 0.907 0.95672 0.04829 0.0
C323 C 0.93304 0.98645 0.94307 0.0
C324 C 0.93803 0.01202 0.905 0.0
C325 C 0.91254 0.98231 0.0121 0.0
C326 C 0.92262 0.03354 0.93777 0.0
C327 C 0.90243 0.02966 0.00753 0.0
H328 H 0.49906 0.88507 0.18981 0.0
H329 H 0.56587 0.84993 0.03755 0.0
H330 H 0.55868 0.8795 0.89664 0.0
H331 H 0.53285 0.91451 0.81491 0.0
H332 H 0.46756 0.95162 0.96888 0.0
H333 H 0.47468 0.92215 0.11129 0.0
C334 C 0.51205 0.88397 0.12582 0.0
C335 C 0.53284 0.86525 0.12372 0.0
C336 C 0.50802 0.90128 0.04545 0.0
C337 C 0.54974 0.8642 0.04095 0.0
C338 C 0.5456 0.88103 0.96021 0.0
C339 C 0.52016 0.91607 0.87963 0.0
C340 C 0.49954 0.93485 0.88141 0.0
C341 C 0.52469 0.89947 0.96136 0.0
C342 C 0.48349 0.93711 0.96604 0.0
C343 C 0.48755 0.9203 0.04727 0.0
H344 H 0.64394 0.54512 0.1648 0.0
H345 H 0.61681 0.47684 0.33125 0.0
H346 H 0.58537 0.46593 0.19943 0.0
H347 H 0.56752 0.47446 0.03225 0.0
H348 H 0.59727 0.54119 0.86336 0.0
H349 H 0.62573 0.55409 0.00087 0.0
C350 C 0.63091 0.52804 0.17298 0.0
C351 C 0.63267 0.51185 0.25765 0.0
C352 C 0.61352 0.52149 0.09603 0.0
C353 C 0.61585 0.48962 0.26661 0.0
C354 C 0.59791 0.48334 0.19128 0.0
C355 C 0.58018 0.49187 0.02607 0.0
C356 C 0.58049 0.50678 0.9379 0.0
C357 C 0.59691 0.49889 0.10488 0.0
C358 C 0.59694 0.52927 0.93031 0.0
C359 C 0.61314 0.53671 0.00895 0.0
H360 H 0.99534 0.59817 0.15445 0.0
H361 H 0.9287 0.63743 0.01525 0.0
H362 H 0.93295 0.60855 0.87192 0.0
H363 H 0.95681 0.57364 0.78289 0.0
H364 H 0.0217 0.53226 0.92397 0.0
H365 H 0.01692 0.56038 0.07046 0.0
C366 C 0.9817 0.60027 0.09284 0.0
C367 C 0.96191 0.62004 0.0948 0.0
C368 C 0.98402 0.58334 0.01115 0.0
C369 C 0.9441 0.62235 0.01535 0.0
C370 C 0.94656 0.60593 0.93324 0.0
C371 C 0.96986 0.57081 0.84588 0.0
C372 C 0.98983 0.55135 0.84268 0.0
C373 C 0.96665 0.58663 0.92984 0.0
C374 C 0.00629 0.54733 0.92509 0.0
C375 C 0.00358 0.5634 0.00852 0.0
H376 H 0.97761 0.21171 0.03729 0.0
H377 H 0.01101 0.25094 0.29075 0.0
H378 H 0.01204 0.20889 0.3817 0.0
H379 H 0.00393 0.16118 0.38899 0.0
H380 H 0.9723 0.12075 0.1346 0.0
H381 H 0.96991 0.16298 0.04439 0.0
C382 C 0.98484 0.21093 0.11272 0.0
C383 C 0.9943 0.2342 0.15759 0.0
C384 C 0.98578 0.18653 0.16414 0.0
C385 C 0.00383 0.23312 0.2549 0.0
C386 C 0.00444 0.20913 0.30679 0.0
C387 C 0.99681 0.16148 0.31339 0.0
C388 C 0.98838 0.13778 0.26876 0.0
C389 C 0.99569 0.1857 0.2619 0.0
C390 C 0.97861 0.13874 0.17137 0.0
C391 C 0.97732 0.16288 0.11954 0.0
H392 H 0.29597 0.99125 0.03364 0.0
H393 H 0.25943 0.99158 0.32229 0.0
H394 H 0.30329 0.98966 0.40016 0.0
H395 H 0.35177 0.98712 0.38603 0.0
H396 H 0.38863 0.98421 0.09802 0.0
H397 H 0.3448 0.98696 0.01972 0.0
C398 C 0.29774 0.99115 0.11353 0.0
C399 C 0.2747 0.99192 0.1725 0.0
C400 C 0.32296 0.98924 0.15764 0.0
C401 C 0.27702 0.9911 0.27579 0.0
C402 C 0.30203 0.99 0.3202 0.0
C403 C 0.35024 0.98748 0.30607 0.0
C404 C 0.37339 0.98582 0.24788 0.0
C405 C 0.3251 0.98902 0.26183 0.0
C406 C 0.37107 0.98544 0.14442 0.0
C407 C 0.34605 0.98717 0.09966 0.0
H408 H 0.50669 0.27768 0.29623 0.0
H409 H 0.50805 0.30401 0.99249 0.0
H410 H 0.51638 0.34976 0.04602 0.0
H411 H 0.52196 0.38256 0.18069 0.0
H412 H 0.51875 0.35556 0.48352 0.0
H413 H 0.51188 0.3099 0.42917 0.0
C414 C 0.5087 0.29347 0.24174 0.0
C415 C 0.50669 0.28757 0.14076 0.0
C416 C 0.51276 0.31966 0.27303 0.0
C417 C 0.50915 0.30818 0.0708 0.0
C418 C 0.51393 0.3343 0.10135 0.0
C419 C 0.51984 0.36658 0.2343 0.0
C420 C 0.52065 0.3723 0.33586 0.0
C421 C 0.51559 0.34033 0.20237 0.0
C422 C 0.51777 0.35157 0.40503 0.0
C423 C 0.51398 0.32549 0.37402 0.0
H424 H 0.23103 0.51924 0.33609 0.0
H425 H 0.21871 0.51483 0.02148 0.0
H426 H 0.17072 0.51976 0.0452 0.0
H427 H 0.13177 0.52301 0.15728 0.0
H428 H 0.14461 0.52874 0.471 0.0
H429 H 0.19276 0.52607 0.44621 0.0
C430 C 0.21785 0.51959 0.27267 0.0
C431 C 0.22833 0.51565 0.17748 0.0
C432 C 0.19031 0.52274 0.28693 0.0
C433 C 0.21104 0.51649 0.09593 0.0
C434 C 0.1836 0.5197 0.10937 0.0
C435 C 0.14522 0.52404 0.21975 0.0
C436 C 0.13479 0.52557 0.31602 0.0
C437 C 0.17293 0.52238 0.20473 0.0
C438 C 0.1523 0.52689 0.39659 0.0
C439 C 0.17978 0.52551 0.38234 0.0
H440 H 0.02739 0.76816 0.29066 0.0
H441 H 0.94407 0.76746 0.2142 0.0
H442 H 0.94649 0.81427 0.16637 0.0
H443 H 0.9718 0.85576 0.15077 0.0
H444 H 0.05475 0.85723 0.23238 0.0
H445 H 0.05264 0.81016 0.2781 0.0
C446 C 0.00968 0.77836 0.26515 0.0
C447 C 0.98544 0.76446 0.25817 0.0
C448 C 0.01108 0.80551 0.23955 0.0
C449 C 0.96294 0.77772 0.22089 0.0
C450 C 0.96426 0.80454 0.19398 0.0
C451 C 0.98948 0.84575 0.17792 0.0
C452 C 0.01342 0.86002 0.18766 0.0
C453 C 0.98815 0.81868 0.20369 0.0
C454 C 0.036 0.84682 0.22488 0.0
C455 C 0.03487 0.81983 0.25025 0.0
H456 H 0.72535 0.03055 0.24576 0.0
H457 H 0.7142 0.94778 0.31906 0.0
H458 H 0.66696 0.95114 0.27692 0.0
H459 H 0.62909 0.9773 0.21422 0.0
H460 H 0.64054 0.05982 0.13687 0.0
H461 H 0.68722 0.057 0.18675 0.0
C462 C 0.71247 0.01339 0.25406 0.0
C463 C 0.72317 0.98904 0.28672 0.0
C464 C 0.68537 0.01542 0.22868 0.0
C465 C 0.70642 0.96674 0.29404 0.0
C466 C 0.6794 0.96867 0.27025 0.0
C467 C 0.64173 0.99474 0.20944 0.0
C468 C 0.63133 0.01873 0.17171 0.0
C469 C 0.66867 0.99287 0.23693 0.0
C470 C 0.6481 0.04105 0.1647 0.0
C471 C 0.67478 0.03947 0.19342 0.0
H472 H 0.5103 0.70566 0.43358 0.0
H473 H 0.5112 0.7342 0.13285 0.0
H474 H 0.50606 0.68867 0.07235 0.0
H475 H 0.50212 0.64072 0.10527 0.0
H476 H 0.50386 0.61176 0.4059 0.0
H477 H 0.50797 0.65737 0.46601 0.0
C478 C 0.50894 0.70183 0.35497 0.0
C479 C 0.51058 0.72313 0.28758 0.0
C480 C 0.50667 0.67555 0.32086 0.0
C481 C 0.50972 0.71802 0.18581 0.0
C482 C 0.50682 0.69204 0.15134 0.0
C483 C 0.50327 0.6444 0.18405 0.0
C484 C 0.50254 0.62288 0.25103 0.0
C485 C 0.50541 0.67064 0.21819 0.0
C486 C 0.5039 0.62799 0.3529 0.0
C487 C 0.50616 0.65405 0.38738 0.0
H488 H 0.79262 0.46293 0.40751 0.0
H489 H 0.75627 0.50869 0.1734 0.0
H490 H 0.79559 0.50186 0.06923 0.0
H491 H 0.84099 0.48456 0.04808 0.0
H492 H 0.87882 0.44299 0.29028 0.0
H493 H 0.83817 0.44653 0.38791 0.0
C494 C 0.79316 0.47117 0.33331 0.0
C495 C 0.77155 0.4862 0.29799 0.0
C496 C 0.81619 0.46809 0.27566 0.0
C497 C 0.77268 0.49702 0.20212 0.0
C498 C 0.79517 0.4932 0.14277 0.0
C499 C 0.84046 0.47644 0.12249 0.0
C500 C 0.86299 0.46339 0.16128 0.0
C501 C 0.81722 0.47915 0.17946 0.0
C502 C 0.86169 0.45267 0.25749 0.0
C503 C 0.83848 0.45481 0.31377 0.0
H504 H 0.04556 0.16083 0.12143 0.0
H505 H 0.04861 0.19626 0.83013 0.0
H506 H 0.03896 0.15335 0.75595 0.0
H507 H 0.02863 0.10618 0.77313 0.0
H508 H 0.02478 0.07034 0.06367 0.0
H509 H 0.0358 0.11299 0.13849 0.0
C510 C 0.04444 0.15907 0.04169 0.0
C511 C 0.04791 0.18171 0.98142 0.0
C512 C 0.03856 0.13432 0.99928 0.0
C513 C 0.04604 0.17917 0.87828 0.0
C514 C 0.04046 0.15464 0.83568 0.0
C515 C 0.03018 0.10761 0.85286 0.0
C516 C 0.02588 0.08502 0.91246 0.0
C517 C 0.03645 0.13216 0.89544 0.0
C518 C 0.02803 0.08736 0.01575 0.0
C519 C 0.03435 0.11176 0.05873 0.0
H520 H 0.33065 0.07343 0.71848 0.0
H521 H 0.325 0.05618 0.02993 0.0
H522 H 0.36901 0.03493 0.02557 0.0
H523 H 0.40929 0.02144 0.9322 0.0
H524 H 0.41298 0.03766 0.61857 0.0
H525 H 0.36917 0.05796 0.6241 0.0
C526 C 0.33887 0.06449 0.78493 0.0
C527 C 0.32479 0.06627 0.87423 0.0
C528 C 0.36362 0.05165 0.78117 0.0
C529 C 0.33547 0.05471 0.96008 0.0
C530 C 0.36058 0.04257 0.95757 0.0
C531 C 0.40043 0.02934 0.86515 0.0
C532 C 0.41451 0.02799 0.77516 0.0
C533 C 0.37491 0.04097 0.86849 0.0
C534 C 0.40262 0.03815 0.68876 0.0
C535 C 0.37754 0.04992 0.69176 0.0
H536 H 0.45048 0.32563 0.90521 0.0
H537 H 0.45551 0.32428 0.58708 0.0
H538 H 0.47925 0.36664 0.58757 0.0
H539 H 0.49603 0.40504 0.67665 0.0
H540 H 0.48857 0.40832 0.9944 0.0
H541 H 0.46852 0.36402 0.99575 0.0
C542 C 0.45742 0.3343 0.83631 0.0
C543 C 0.4518 0.32171 0.74606 0.0
C544 C 0.47046 0.35903 0.837 0.0
C545 C 0.45992 0.3336 0.65719 0.0
C546 C 0.47347 0.35779 0.65744 0.0
C547 C 0.49037 0.39604 0.74658 0.0
C548 C 0.49373 0.41014 0.83523 0.0
C549 C 0.47849 0.37085 0.74671 0.0
C550 C 0.48619 0.39801 0.92494 0.0
C551 C 0.4747 0.37266 0.9258 0.0
H552 H 0.15701 0.44847 0.90525 0.0
H553 H 0.18249 0.49482 0.65248 0.0
H554 H 0.13666 0.49636 0.59242 0.0
H555 H 0.08902 0.48902 0.62156 0.0
H556 H 0.06379 0.44382 0.87742 0.0
H557 H 0.11001 0.43761 0.92643 0.0
C558 C 0.15267 0.45867 0.83629 0.0
C559 C 0.1731 0.47179 0.78415 0.0
C560 C 0.1263 0.46005 0.80331 0.0
C561 C 0.1671 0.48474 0.6946 0.0
C562 C 0.14091 0.48575 0.6603 0.0
C563 C 0.09363 0.47737 0.68689 0.0
C564 C 0.07296 0.4671 0.74599 0.0
C565 C 0.12027 0.47414 0.71551 0.0
C566 C 0.0793 0.45222 0.83104 0.0
C567 C 0.10573 0.44862 0.8592 0.0
H568 H 0.98905 0.85187 0.43981 0.0
H569 H 0.02981 0.81935 0.69351 0.0
H570 H 0.02906 0.86289 0.77296 0.0
H571 H 0.01647 0.90981 0.77056 0.0
H572 H 0.97852 0.94337 0.51265 0.0
H573 H 0.97846 0.89963 0.43394 0.0
C574 C 0.99769 0.8544 0.51261 0.0
C575 C 0.0092 0.83257 0.56162 0.0
C576 C 0.99759 0.8795 0.55681 0.0
C577 C 0.02086 0.83599 0.65477 0.0
C578 C 0.02033 0.86079 0.70023 0.0
C579 C 0.00793 0.90749 0.69751 0.0
C580 C 0.99711 0.92956 0.6479 0.0
C581 C 0.0086 0.8826 0.65214 0.0
C582 C 0.98676 0.92652 0.55234 0.0
C583 C 0.98675 0.90159 0.50743 0.0
H584 H 0.66269 0.0093 0.48172 0.0
H585 H 0.68204 0.04372 0.76382 0.0
H586 H 0.63841 0.0303 0.829 0.0
H587 H 0.59379 0.01136 0.80094 0.0
H588 H 0.5757 0.97634 0.51797 0.0
H589 H 0.6202 0.98696 0.4587 0.0
C590 C 0.65733 0.01397 0.55744 0.0
C591 C 0.67521 0.02795 0.61746 0.0
C592 C 0.63261 0.00585 0.59443 0.0
C593 C 0.66838 0.03322 0.71609 0.0
C594 C 0.64352 0.02549 0.75332 0.0
C595 C 0.59975 0.00557 0.72705 0.0
C596 C 0.58129 0.99338 0.66367 0.0
C597 C 0.62535 0.01206 0.69267 0.0
C598 C 0.58939 0.98595 0.56814 0.0
C599 C 0.61481 0.99213 0.53382 0.0
H600 H 0.49977 0.67406 0.75375 0.0
H601 H 0.44738 0.65061 0.51689 0.0
H602 H 0.45914 0.60417 0.54401 0.0
H603 H 0.48637 0.57066 0.62716 0.0
H604 H 0.53619 0.59285 0.87212 0.0
H605 H 0.52372 0.63968 0.84866 0.0
C606 C 0.49059 0.65877 0.70909 0.0
C607 C 0.47308 0.66584 0.63232 0.0
C608 C 0.49748 0.63206 0.72491 0.0
C609 C 0.46103 0.64574 0.57616 0.0
C610 C 0.46791 0.61919 0.59096 0.0
C611 C 0.49475 0.58584 0.6745 0.0
C612 C 0.51279 0.57871 0.74906 0.0
C613 C 0.48665 0.61226 0.66317 0.0
C614 C 0.52272 0.5982 0.81282 0.0
C615 C 0.51543 0.62482 0.79986 0.0
H616 H 0.8171 0.49902 0.50417 0.0
H617 H 0.80431 0.50571 0.8178 0.0
H618 H 0.85216 0.51346 0.84268 0.0
H619 H 0.89779 0.51359 0.77549 0.0
H620 H 0.91007 0.50647 0.46063 0.0
H621 H 0.86204 0.50417 0.43524 0.0
C622 C 0.82484 0.50259 0.57765 0.0
C623 C 0.80759 0.50169 0.65926 0.0
C624 C 0.85214 0.50691 0.59081 0.0
C625 C 0.81745 0.50648 0.75424 0.0
C626 C 0.84473 0.51076 0.76825 0.0
C627 C 0.88996 0.51196 0.70113 0.0
C628 C 0.90751 0.5099 0.62012 0.0
C629 C 0.86232 0.51035 0.6872 0.0
C630 C 0.89704 0.50811 0.52422 0.0
C631 C 0.86957 0.50661 0.50966 0.0
loop_
_geom_bond_atom_site_label_1
_geom_bond_atom_site_label_2
_geom_bond_distance
_geom_bond_site_symmetry_2
_ccdc_geom_bond_type
O0 Cd1 2.300 . S
O0 C7 1.275 . S
Cd1 O0 2.300 . S
Cd1 O9 2.381 . S
Cd1 O10 2.378 . S
O2 Cd3 2.385 . S
O2 C7 1.255 . S
Cd3 O2 2.385 . S
Cd3 O4 2.317 . S
O4 Cd3 2.317 . S
O4 C5 1.232 . S
C5 O4 1.232 . S
C5 O6 1.218 . S
O6 C5 1.218 . S
C7 O0 1.275 . S
C7 O2 1.255 . S
C8 O9 1.258 . S
C8 O10 1.256 . S
O9 Cd1 2.381 . S
O9 C8 1.258 . S
O10 Cd1 2.378 . S
O10 C8 1.256 . S
O11 Cd12 2.300 1_655 S
O11 C18 1.275 1_655 S
Cd12 O11 2.300 1_455 S
Cd12 O20 2.381 1_455 S
Cd12 O21 2.378 . S
O13 Cd14 2.385 . S
O13 C18 1.255 . S
Cd14 O13 2.385 . S
Cd14 O15 2.317 . S
O15 Cd14 2.317 . S
O15 C16 1.232 . S
C16 O15 1.232 . S
C16 O17 1.218 . S
O17 C16 1.218 . S
C18 O11 1.275 1_455 S
C18 O13 1.255 . S
C19 O20 1.258 1_455 S
C19 O21 1.256 . S
O20 Cd12 2.381 1_655 S
O20 C19 1.258 1_655 S
O21 Cd12 2.378 . S
O21 C19 1.256 . S
O22 Cd23 2.300 1_565 S
O22 C29 1.275 1_565 S
Cd23 O22 2.300 1_545 S
Cd23 O31 2.381 1_545 S
Cd23 O32 2.378 . S
O24 Cd25 2.385 . S
O24 C29 1.255 . S
Cd25 O24 2.385 . S
Cd25 O26 2.317 . S
O26 Cd25 2.317 . S
O26 C27 1.232 . S
C27 O26 1.232 . S
C27 O28 1.218 . S
O28 C27 1.218 . S
C29 O22 1.275 1_545 S
C29 O24 1.255 . S
C30 O31 1.258 1_545 S
C30 O32 1.256 . S
O31 Cd23 2.381 1_565 S
O31 C30 1.258 1_565 S
O32 Cd23 2.378 . S
O32 C30 1.256 . S
O33 Cd34 2.300 . S
O33 C40 1.275 . S
Cd34 O33 2.300 . S
Cd34 O42 2.381 . S
Cd34 O43 2.378 . S
O35 Cd36 2.385 . S
O35 C40 1.255 . S
Cd36 O35 2.385 . S
Cd36 O37 2.317 . S
O37 Cd36 2.317 . S
O37 C38 1.232 . S
C38 O37 1.232 . S
C38 O39 1.218 . S
O39 C38 1.218 . S
C40 O33 1.275 . S
C40 O35 1.255 . S
C41 O42 1.258 . S
C41 O43 1.256 . S
O42 Cd34 2.381 . S
O42 C41 1.258 . S
O43 Cd34 2.378 . S
O43 C41 1.256 . S
O44 Cd45 2.300 . S
O44 C51 1.275 . S
Cd45 O44 2.300 . S
Cd45 O53 2.381 . S
Cd45 O54 2.378 . S
O46 Cd47 2.385 1_554 S
O46 C51 1.255 . S
Cd47 O46 2.385 1_556 S
Cd47 O48 2.317 . S
O48 Cd47 2.317 . S
O48 C49 1.232 . S
C49 O48 1.232 . S
C49 O50 1.218 . S
O50 C49 1.218 . S
C51 O44 1.275 . S
C51 O46 1.255 . S
C52 O53 1.258 . S
C52 O54 1.256 . S
O53 Cd45 2.381 . S
O53 C52 1.258 . S
O54 Cd45 2.378 . S
O54 C52 1.256 . S
O55 Cd56 2.300 1_655 S
O55 C62 1.275 1_655 S
Cd56 O55 2.300 1_455 S
Cd56 O64 2.381 1_455 S
Cd56 O65 2.378 . S
O57 Cd58 2.385 1_554 S
O57 C62 1.255 . S
Cd58 O57 2.385 1_556 S
Cd58 O59 2.317 . S
O59 Cd58 2.317 . S
O59 C60 1.232 . S
C60 O59 1.232 . S
C60 O61 1.218 . S
O61 C60 1.218 . S
C62 O55 1.275 1_455 S
C62 O57 1.255 . S
C63 O64 1.258 1_455 S
C63 O65 1.256 . S
O64 Cd56 2.381 1_655 S
O64 C63 1.258 1_655 S
O65 Cd56 2.378 . S
O65 C63 1.256 . S
O66 Cd67 2.300 1_565 S
O66 C73 1.275 1_565 S
Cd67 O66 2.300 1_545 S
Cd67 O75 2.381 1_545 S
Cd67 O76 2.378 . S
O68 Cd69 2.385 1_554 S
O68 C73 1.255 . S
Cd69 O68 2.385 1_556 S
Cd69 O70 2.317 . S
O70 Cd69 2.317 . S
O70 C71 1.232 . S
C71 O70 1.232 . S
C71 O72 1.218 . S
O72 C71 1.218 . S
C73 O66 1.275 1_545 S
C73 O68 1.255 . S
C74 O75 1.258 1_545 S
C74 O76 1.256 . S
O75 Cd67 2.381 1_565 S
O75 C74 1.258 1_565 S
O76 Cd67 2.378 . S
O76 C74 1.256 . S
O77 Cd78 2.300 . S
O77 C84 1.275 . S
Cd78 O77 2.300 . S
Cd78 O86 2.381 . S
Cd78 O87 2.378 . S
O79 Cd80 2.385 1_554 S
O79 C84 1.255 . S
Cd80 O79 2.385 1_556 S
Cd80 O81 2.317 . S
O81 Cd80 2.317 . S
O81 C82 1.232 . S
C82 O81 1.232 . S
C82 O83 1.218 . S
O83 C82 1.218 . S
C84 O77 1.275 . S
C84 O79 1.255 . S
C85 O86 1.258 . S
C85 O87 1.256 . S
O86 Cd78 2.381 . S
O86 C85 1.258 . S
O87 Cd78 2.378 . S
O87 C85 1.256 . S
Pr88 C90 2.880 . S
Pr88 O108 2.562 . S
Pr88 O109 2.490 . S
Pr88 O110 2.695 1_565 S
Pr88 O111 2.512 . S
Pr88 O113 2.437 . S
Pr88 O116 2.436 1_455 S
Pr88 O118 2.438 1_565 S
Pr89 C99 2.880 . S
Pr89 O110 2.436 1_655 S
Pr89 O112 2.438 1_545 S
Pr89 O114 2.562 . S
Pr89 O115 2.490 . S
Pr89 O116 2.695 1_545 S
Pr89 O117 2.512 . S
Pr89 O119 2.437 . S
C90 Pr88 2.880 . S
C90 C91 1.491 . S
C90 O108 1.254 . S
C90 O109 1.225 . S
C91 C90 1.491 . S
C91 C92 1.392 1_556 S
C91 C96 1.356 1_556 S
C92 C91 1.392 1_554 S
C92 C93 1.368 . S
C92 H120 0.929 1_554 S
C93 C92 1.368 . S
C93 C94 1.386 . S
C93 H121 0.929 . S
C94 C93 1.386 . S
C94 C95 1.373 . S
C95 C94 1.373 . S
C95 C96 1.409 . S
C95 H122 0.931 1_455 S
C96 C91 1.356 1_554 S
C96 C95 1.409 . S
C96 H123 0.930 1_455 S
C97 O110 1.270 1_565 S
C97 O111 1.248 . S
C98 O112 1.267 . S
C98 O113 1.278 1_655 S
C99 Pr89 2.880 . S
C99 C100 1.491 . S
C99 O114 1.254 . S
C99 O115 1.225 . S
C100 C99 1.491 . S
C100 C101 1.392 . S
C100 C105 1.356 . S
C101 C100 1.392 . S
C101 C102 1.368 . S
C101 H124 0.929 . S
C102 C101 1.368 . S
C102 C103 1.386 . S
C102 H125 0.929 . S
C103 C102 1.386 . S
C103 C104 1.373 . S
C104 C103 1.373 . S
C104 C105 1.409 . S
C104 H126 0.931 1_655 S
C105 C100 1.356 . S
C105 C104 1.409 . S
C105 H127 0.930 1_655 S
C106 O116 1.270 1_545 S
C106 O117 1.248 . S
C107 O118 1.267 . S
C107 O119 1.278 1_455 S
O108 Pr88 2.562 . S
O108 C90 1.254 . S
O109 Pr88 2.490 . S
O109 C90 1.225 . S
O110 Pr88 2.695 1_545 S
O110 Pr89 2.436 1_455 S
O110 C97 1.270 1_545 S
O111 Pr88 2.512 . S
O111 C97 1.248 . S
O112 Pr89 2.438 1_565 S
O112 C98 1.267 . S
O113 Pr88 2.437 . S
O113 C98 1.278 1_455 S
O114 Pr89 2.562 . S
O114 C99 1.254 . S
O115 Pr89 2.490 . S
O115 C99 1.225 . S
O116 Pr88 2.436 1_655 S
O116 Pr89 2.695 1_565 S
O116 C106 1.270 1_565 S
O117 Pr89 2.512 . S
O117 C106 1.248 . S
O118 Pr88 2.438 1_545 S
O118 C107 1.267 . S
O119 Pr89 2.437 . S
O119 C107 1.278 1_655 S
H120 C92 0.929 1_556 S
H121 C93 0.929 . S
H122 C95 0.931 1_655 S
H123 C96 0.930 1_655 S
H124 C101 0.929 . S
H125 C102 0.929 . S
H126 C104 0.931 1_455 S
H127 C105 0.930 1_455 S
Pr128 C130 2.880 . S
Pr128 O148 2.562 . S
Pr128 O149 2.490 . S
Pr128 O150 2.695 . S
Pr128 O151 2.512 . S
Pr128 O153 2.437 . S
Pr128 O156 2.436 1_545 S
Pr128 O158 2.438 . S
Pr129 C139 2.880 . S
Pr129 O150 2.436 1_565 S
Pr129 O152 2.438 . S
Pr129 O154 2.562 . S
Pr129 O155 2.490 . S
Pr129 O156 2.695 . S
Pr129 O157 2.512 . S
Pr129 O159 2.437 . S
C130 Pr128 2.880 . S
C130 C131 1.491 . S
C130 O148 1.254 . S
C130 O149 1.225 . S
C131 C130 1.491 . S
C131 C132 1.392 1_556 S
C131 C136 1.356 1_556 S
C132 C131 1.392 1_554 S
C132 C133 1.368 . S
C132 H160 0.929 1_554 S
C133 C132 1.368 . S
C133 C134 1.386 . S
C133 H161 0.929 . S
C134 C133 1.386 . S
C134 C135 1.373 . S
C135 C134 1.373 . S
C135 C136 1.409 . S
C135 H162 0.931 1_545 S
C136 C131 1.356 1_554 S
C136 C135 1.409 . S
C136 H163 0.930 1_545 S
C137 O150 1.270 . S
C137 O151 1.248 . S
C138 O152 1.267 . S
C138 O153 1.278 1_565 S
C139 Pr129 2.880 . S
C139 C140 1.491 . S
C139 O154 1.254 . S
C139 O155 1.225 . S
C140 C139 1.491 . S
C140 C141 1.392 . S
C140 C145 1.356 . S
C141 C140 1.392 . S
C141 C142 1.368 . S
C141 H164 0.929 . S
C142 C141 1.368 . S
C142 C143 1.386 . S
C142 H165 0.929 . S
C143 C142 1.386 . S
C143 C144 1.373 . S
C144 C143 1.373 . S
C144 C145 1.409 . S
C144 H166 0.931 1_565 S
C145 C140 1.356 . S
C145 C144 1.409 . S
C145 H167 0.930 1_565 S
C146 O156 1.270 . S
C146 O157 1.248 . S
C147 O158 1.267 . S
C147 O159 1.278 1_545 S
O148 Pr128 2.562 . S
O148 C130 1.254 . S
O149 Pr128 2.490 . S
O149 C130 1.225 . S
O150 Pr128 2.695 . S
O150 Pr129 2.436 1_545 S
O150 C137 1.270 . S
O151 Pr128 2.512 . S
O151 C137 1.248 . S
O152 Pr129 2.438 . S
O152 C138 1.267 . S
O153 Pr128 2.437 . S
O153 C138 1.278 1_545 S
O154 Pr129 2.562 . S
O154 C139 1.254 . S
O155 Pr129 2.490 . S
O155 C139 1.225 . S
O156 Pr128 2.436 1_565 S
O156 Pr129 2.695 . S
O156 C146 1.270 . S
O157 Pr129 2.512 . S
O157 C146 1.248 . S
O158 Pr128 2.438 . S
O158 C147 1.267 . S
O159 Pr129 2.437 . S
O159 C147 1.278 1_565 S
H160 C132 0.929 1_556 S
H161 C133 0.929 . S
H162 C135 0.931 1_565 S
H163 C136 0.930 1_565 S
H164 C141 0.929 . S
H165 C142 0.929 . S
H166 C144 0.931 1_545 S
H167 C145 0.930 1_545 S
Pr168 C170 2.880 . S
Pr168 O188 2.562 . S
Pr168 O189 2.490 . S
Pr168 O190 2.695 . S
Pr168 O191 2.512 . S
Pr168 O193 2.437 . S
Pr168 O196 2.436 . S
Pr168 O198 2.438 . S
Pr169 C179 2.880 . S
Pr169 O190 2.436 . S
Pr169 O192 2.438 . S
Pr169 O194 2.562 . S
Pr169 O195 2.490 . S
Pr169 O196 2.695 . S
Pr169 O197 2.512 . S
Pr169 O199 2.437 . S
C170 Pr168 2.880 . S
C170 C171 1.491 . S
C170 O188 1.254 . S
C170 O189 1.225 . S
C171 C170 1.491 . S
C171 C172 1.392 1_556 S
C171 C176 1.356 1_556 S
C172 C171 1.392 1_554 S
C172 C173 1.368 . S
C172 H200 0.929 1_554 S
C173 C172 1.368 . S
C173 C174 1.386 . S
C173 H201 0.929 . S
C174 C173 1.386 . S
C174 C175 1.373 . S
C175 C174 1.373 . S
C175 C176 1.409 . S
C175 H202 0.931 . S
C176 C171 1.356 1_554 S
C176 C175 1.409 . S
C176 H203 0.930 . S
C177 O190 1.270 . S
C177 O191 1.248 . S
C178 O192 1.267 . S
C178 O193 1.278 . S
C179 Pr169 2.880 . S
C179 C180 1.491 . S
C179 O194 1.254 . S
C179 O195 1.225 . S
C180 C179 1.491 . S
C180 C181 1.392 . S
C180 C185 1.356 . S
C181 C180 1.392 . S
C181 C182 1.368 . S
C181 H204 0.929 . S
C182 C181 1.368 . S
C182 C183 1.386 . S
C182 H205 0.929 . S
C183 C182 1.386 . S
C183 C184 1.373 . S
C184 C183 1.373 . S
C184 C185 1.409 . S
C184 H206 0.931 . S
C185 C180 1.356 . S
C185 C184 1.409 . S
C185 H207 0.930 . S
C186 O196 1.270 . S
C186 O197 1.248 . S
C187 O198 1.267 . S
C187 O199 1.278 . S
O188 Pr168 2.562 . S
O188 C170 1.254 . S
O189 Pr168 2.490 . S
O189 C170 1.225 . S
O190 Pr168 2.695 . S
O190 Pr169 2.436 . S
O190 C177 1.270 . S
O191 Pr168 2.512 . S
O191 C177 1.248 . S
O192 Pr169 2.438 . S
O192 C178 1.267 . S
O193 Pr168 2.437 . S
O193 C178 1.278 . S
O194 Pr169 2.562 . S
O194 C179 1.254 . S
O195 Pr169 2.490 . S
O195 C179 1.225 . S
O196 Pr168 2.436 . S
O196 Pr169 2.695 . S
O196 C186 1.270 . S
O197 Pr169 2.512 . S
O197 C186 1.248 . S
O198 Pr168 2.438 . S
O198 C187 1.267 . S
O199 Pr169 2.437 . S
O199 C187 1.278 . S
H200 C172 0.929 1_556 S
H201 C173 0.929 . S
H202 C175 0.931 . S
H203 C176 0.930 . S
H204 C181 0.929 . S
H205 C182 0.929 . S
H206 C184 0.931 . S
H207 C185 0.930 . S
Pr208 C210 2.880 . S
Pr208 O228 2.562 . S
Pr208 O229 2.490 . S
Pr208 O230 2.695 1_655 S
Pr208 O231 2.512 . S
Pr208 O233 2.437 . S
Pr208 O236 2.436 . S
Pr208 O238 2.438 1_655 S
Pr209 C219 2.880 . S
Pr209 O230 2.436 . S
Pr209 O232 2.438 1_455 S
Pr209 O234 2.562 . S
Pr209 O235 2.490 . S
Pr209 O236 2.695 1_455 S
Pr209 O237 2.512 . S
Pr209 O239 2.437 . S
C210 Pr208 2.880 . S
C210 C211 1.491 . S
C210 O228 1.254 . S
C210 O229 1.225 . S
C211 C210 1.491 . S
C211 C212 1.392 1_556 S
C211 C216 1.356 1_556 S
C212 C211 1.392 1_554 S
C212 C213 1.368 . S
C212 H240 0.929 1_554 S
C213 C212 1.368 . S
C213 C214 1.386 . S
C213 H241 0.929 . S
C214 C213 1.386 . S
C214 C215 1.373 . S
C215 C214 1.373 . S
C215 C216 1.409 . S
C215 H242 0.931 . S
C216 C211 1.356 1_554 S
C216 C215 1.409 . S
C216 H243 0.930 . S
C217 O230 1.259 1_655 S
C217 O231 1.267 . S
C218 O232 1.267 . S
C218 O233 1.278 . S
C219 Pr209 2.880 . S
C219 C220 1.491 . S
C219 O234 1.254 . S
C219 O235 1.225 . S
C220 C219 1.491 . S
C220 C221 1.392 . S
C220 C225 1.356 . S
C221 C220 1.392 . S
C221 C222 1.368 . S
C221 H244 0.929 . S
C222 C221 1.368 . S
C222 C223 1.386 . S
C222 H245 0.929 . S
C223 C222 1.386 . S
C223 C224 1.373 . S
C224 C223 1.373 . S
C224 C225 1.409 . S
C224 H246 0.931 . S
C225 C220 1.356 . S
C225 C224 1.409 . S
C225 H247 0.930 . S
C226 O236 1.270 1_455 S
C226 O237 1.248 . S
C227 O238 1.267 . S
C227 O239 1.278 . S
O228 Pr208 2.562 . S
O228 C210 1.254 . S
O229 Pr208 2.490 . S
O229 C210 1.225 . S
O230 Pr208 2.695 1_455 S
O230 Pr209 2.436 . S
O230 C217 1.259 1_455 S
O231 Pr208 2.512 . S
O231 C217 1.267 . S
O232 Pr209 2.438 1_655 S
O232 C218 1.267 . S
O233 Pr208 2.437 . S
O233 C218 1.278 . S
O234 Pr209 2.562 . S
O234 C219 1.254 . S
O235 Pr209 2.490 . S
O235 C219 1.225 . S
O236 Pr208 2.436 . S
O236 Pr209 2.695 1_655 S
O236 C226 1.270 1_655 S
O237 Pr209 2.512 . S
O237 C226 1.248 . S
O238 Pr208 2.438 1_455 S
O238 C227 1.267 . S
O239 Pr209 2.437 . S
O239 C227 1.278 . S
H240 C212 0.929 1_556 S
H241 C213 0.929 . S
H242 C215 0.931 . S
H243 C216 0.930 . S
H244 C221 0.929 . S
H245 C222 0.929 . S
H246 C224 0.931 . S
H247 C225 0.930 . S
H248 C254 0.930 . S
H249 C257 0.930 . S
H250 C258 0.930 . S
H251 C259 0.930 . S
H252 C262 0.930 . S
H253 C263 0.930 . S
C254 H248 0.930 . S
C254 C255 1.339 1_545 S
C254 C256 1.415 . S
C255 C254 1.339 1_565 S
C255 C257 1.438 . S
C256 C254 1.415 . S
C256 C261 1.425 1_545 S
C256 C263 1.409 . S
C257 H249 0.930 . S
C257 C255 1.438 . S
C257 C258 1.362 . S
C258 H250 0.930 . S
C258 C257 1.362 . S
C258 C261 1.409 . S
C259 H251 0.930 . S
C259 C260 1.355 1_565 S
C259 C261 1.415 . S
C260 C259 1.355 1_545 S
C260 C262 1.419 . S
C261 C256 1.425 1_565 S
C261 C258 1.409 . S
C261 C259 1.415 . S
C262 H252 0.930 . S
C262 C260 1.419 . S
C262 C263 1.362 . S
C263 H253 0.930 . S
C263 C256 1.409 . S
C263 C262 1.362 . S
H264 C270 0.930 . S
H265 C273 0.930 . S
H266 C274 0.930 . S
H267 C275 0.930 . S
H268 C278 0.930 . S
H269 C279 0.930 . S
C270 H264 0.930 . S
C270 C271 1.355 . S
C270 C272 1.415 . S
C271 C270 1.355 . S
C271 C273 1.419 . S
C272 C270 1.415 . S
C272 C277 1.425 . S
C272 C279 1.409 . S
C273 H265 0.930 . S
C273 C271 1.419 . S
C273 C274 1.362 . S
C274 H266 0.930 . S
C274 C273 1.362 . S
C274 C277 1.409 . S
C275 H267 0.930 . S
C275 C276 1.355 . S
C275 C277 1.415 . S
C276 C275 1.355 . S
C276 C278 1.419 . S
C277 C272 1.425 . S
C277 C274 1.409 . S
C277 C275 1.415 . S
C278 H268 0.930 . S
C278 C276 1.419 . S
C278 C279 1.362 . S
C279 H269 0.930 . S
C279 C272 1.409 . S
C279 C278 1.362 . S
H280 C286 0.930 . S
H281 C289 0.930 . S
H282 C290 0.930 . S
H283 C291 0.930 . S
H284 C294 0.930 . S
H285 C295 0.930 . S
C286 H280 0.930 . S
C286 C287 1.355 . S
C286 C288 1.415 . S
C287 C286 1.355 . S
C287 C289 1.419 . S
C288 C286 1.415 . S
C288 C293 1.425 . S
C288 C295 1.409 . S
C289 H281 0.930 . S
C289 C287 1.419 . S
C289 C290 1.362 . S
C290 H282 0.930 . S
C290 C289 1.362 . S
C290 C293 1.409 . S
C291 H283 0.930 . S
C291 C292 1.355 . S
C291 C293 1.415 . S
C292 C291 1.355 . S
C292 C294 1.419 . S
C293 C288 1.425 . S
C293 C290 1.409 . S
C293 C291 1.415 . S
C294 H284 0.930 . S
C294 C292 1.419 . S
C294 C295 1.362 . S
C295 H285 0.930 . S
C295 C288 1.409 . S
C295 C294 1.362 . S
H296 C302 0.930 . S
H297 C305 0.930 . S
H298 C306 0.930 . S
H299 C307 0.930 . S
H300 C310 0.930 . S
H301 C311 0.930 . S
C302 H296 0.930 . S
C302 C303 1.355 1_655 S
C302 C304 1.415 . S
C303 C302 1.355 1_455 S
C303 C305 1.419 . S
C304 C302 1.415 . S
C304 C309 1.425 1_655 S
C304 C311 1.409 . S
C305 H297 0.930 . S
C305 C303 1.419 . S
C305 C306 1.362 . S
C306 H298 0.930 . S
C306 C305 1.362 . S
C306 C309 1.409 . S
C307 H299 0.930 . S
C307 C308 1.356 . S
C307 C309 1.415 . S
C308 C307 1.356 . S
C308 C310 1.418 1_455 S
C309 C304 1.425 1_455 S
C309 C306 1.409 . S
C309 C307 1.415 . S
C310 H300 0.930 . S
C310 C308 1.418 1_655 S
C310 C311 1.362 . S
C311 H301 0.930 . S
C311 C304 1.409 . S
C311 C310 1.362 . S
H312 C318 0.930 . S
H313 C321 0.930 . S
H314 C322 0.930 . S
H315 C323 0.930 . S
H316 C326 0.930 . S
H317 C327 0.930 . S
C318 H312 0.930 . S
C318 C319 1.355 1_545 S
C318 C320 1.415 . S
C319 C318 1.355 1_565 S
C319 C321 1.419 . S
C320 C318 1.415 . S
C320 C325 1.425 1_545 S
C320 C327 1.409 . S
C321 H313 0.930 . S
C321 C319 1.419 . S
C321 C322 1.362 . S
C322 H314 0.930 . S
C322 C321 1.362 . S
C322 C325 1.409 . S
C323 H315 0.930 . S
C323 C324 1.355 1_565 S
C323 C325 1.415 1_556 S
C324 C323 1.355 1_545 S
C324 C326 1.419 . S
C325 C320 1.425 1_565 S
C325 C322 1.409 . S
C325 C323 1.415 1_554 S
C326 H316 0.930 . S
C326 C324 1.419 . S
C326 C327 1.362 1_556 S
C327 H317 0.930 . S
C327 C320 1.409 . S
C327 C326 1.362 1_554 S
H328 C334 0.930 . S
H329 C337 0.930 . S
H330 C338 0.930 . S
H331 C339 0.930 . S
H332 C342 0.930 . S
H333 C343 0.930 . S
C334 H328 0.930 . S
C334 C335 1.355 . S
C334 C336 1.415 . S
C335 C334 1.355 . S
C335 C337 1.419 . S
C336 C334 1.415 . S
C336 C341 1.425 . S
C336 C343 1.409 . S
C337 H329 0.930 . S
C337 C335 1.419 . S
C337 C338 1.362 . S
C338 H330 0.930 . S
C338 C337 1.362 . S
C338 C341 1.409 . S
C339 H331 0.930 . S
C339 C340 1.355 . S
C339 C341 1.415 1_556 S
C340 C339 1.355 . S
C340 C342 1.419 1_556 S
C341 C336 1.425 . S
C341 C338 1.409 . S
C341 C339 1.415 1_554 S
C342 H332 0.930 . S
C342 C340 1.419 1_554 S
C342 C343 1.362 . S
C343 H333 0.930 . S
C343 C336 1.409 . S
C343 C342 1.362 . S
H344 C350 0.930 . S
H345 C353 0.930 . S
H346 C354 0.930 . S
H347 C355 0.930 . S
H348 C358 0.930 . S
H349 C359 0.930 . S
C350 H344 0.930 . S
C350 C351 1.355 . S
C350 C352 1.415 . S
C351 C350 1.355 . S
C351 C353 1.419 . S
C352 C350 1.415 . S
C352 C357 1.425 . S
C352 C359 1.409 1_554 S
C353 H345 0.930 . S
C353 C351 1.419 . S
C353 C354 1.362 . S
C354 H346 0.930 . S
C354 C353 1.362 . S
C354 C357 1.409 . S
C355 H347 0.930 . S
C355 C356 1.355 1_554 S
C355 C357 1.415 . S
C356 C355 1.355 1_556 S
C356 C358 1.419 . S
C357 C352 1.425 . S
C357 C354 1.409 . S
C357 C355 1.415 . S
C358 H348 0.930 . S
C358 C356 1.419 . S
C358 C359 1.362 . S
C359 H349 0.930 . S
C359 C352 1.409 1_556 S
C359 C358 1.362 . S
H360 C366 0.930 . S
H361 C369 0.930 . S
H362 C370 0.930 . S
H363 C371 0.930 . S
H364 C374 0.930 . S
H365 C375 0.930 . S
C366 H360 0.930 . S
C366 C367 1.355 1_455 S
C366 C368 1.415 . S
C367 C366 1.355 1_655 S
C367 C369 1.419 . S
C368 C366 1.415 . S
C368 C373 1.425 1_455 S
C368 C375 1.409 . S
C369 H361 0.930 . S
C369 C367 1.419 . S
C369 C370 1.362 . S
C370 H362 0.930 . S
C370 C369 1.362 . S
C370 C373 1.409 . S
C371 H363 0.930 . S
C371 C372 1.356 . S
C371 C373 1.415 1_556 S
C372 C371 1.356 . S
C372 C374 1.417 1_655 S
C373 C368 1.425 1_655 S
C373 C370 1.409 . S
C373 C371 1.415 1_554 S
C374 H364 0.930 . S
C374 C372 1.417 1_455 S
C374 C375 1.362 1_556 S
C375 H365 0.930 . S
C375 C368 1.409 . S
C375 C374 1.362 1_554 S
H376 C382 0.930 . S
H377 C385 0.930 . S
H378 C386 0.930 . S
H379 C387 0.930 . S
H380 C390 0.930 . S
H381 C391 0.930 . S
C382 H376 0.930 . S
C382 C383 1.349 1_655 S
C382 C384 1.415 . S
C383 C382 1.349 1_455 S
C383 C385 1.420 . S
C384 C382 1.415 . S
C384 C389 1.425 . S
C384 C391 1.409 . S
C385 H377 0.930 . S
C385 C383 1.420 . S
C385 C386 1.362 1_455 S
C386 H378 0.930 . S
C386 C385 1.362 1_655 S
C386 C389 1.409 . S
C387 H379 0.930 . S
C387 C388 1.355 . S
C387 C389 1.415 . S
C388 C387 1.355 . S
C388 C390 1.419 . S
C389 C384 1.425 . S
C389 C386 1.409 . S
C389 C387 1.415 . S
C390 H380 0.930 . S
C390 C388 1.419 . S
C390 C391 1.362 . S
C391 H381 0.930 . S
C391 C384 1.409 . S
C391 C390 1.362 . S
H392 C398 0.930 . S
H393 C401 0.930 . S
H394 C402 0.930 . S
H395 C403 0.930 . S
H396 C406 0.930 . S
H397 C407 0.930 1_545 S
C398 H392 0.930 . S
C398 C399 1.355 1_545 S
C398 C400 1.415 1_545 S
C399 C398 1.355 1_565 S
C399 C401 1.419 . S
C400 C398 1.415 1_565 S
C400 C405 1.425 . S
C400 C407 1.409 . S
C401 H393 0.930 . S
C401 C399 1.419 . S
C401 C402 1.362 . S
C402 H394 0.930 . S
C402 C401 1.362 . S
C402 C405 1.409 . S
C403 H395 0.930 . S
C403 C404 1.355 . S
C403 C405 1.415 . S
C404 C403 1.355 . S
C404 C406 1.419 . S
C405 C400 1.425 . S
C405 C402 1.409 . S
C405 C403 1.415 . S
C406 H396 0.930 . S
C406 C404 1.419 . S
C406 C407 1.362 . S
C407 H397 0.930 1_565 S
C407 C400 1.409 . S
C407 C406 1.362 . S
H408 C414 0.930 . S
H409 C417 0.930 . S
H410 C418 0.930 . S
H411 C419 0.930 . S
H412 C422 0.930 . S
H413 C423 0.930 . S
C414 H408 0.930 . S
C414 C415 1.355 . S
C414 C416 1.415 . S
C415 C414 1.355 . S
C415 C417 1.419 . S
C416 C414 1.415 . S
C416 C421 1.425 . S
C416 C423 1.409 . S
C417 H409 0.930 . S
C417 C415 1.419 . S
C417 C418 1.362 . S
C418 H410 0.930 . S
C418 C417 1.362 . S
C418 C421 1.409 . S
C419 H411 0.930 . S
C419 C420 1.355 . S
C419 C421 1.415 . S
C420 C419 1.355 . S
C420 C422 1.419 . S
C421 C416 1.425 . S
C421 C418 1.409 . S
C421 C419 1.415 . S
C422 H412 0.930 . S
C422 C420 1.419 . S
C422 C423 1.362 . S
C423 H413 0.930 . S
C423 C416 1.409 . S
C423 C422 1.362 . S
H424 C430 0.930 . S
H425 C433 0.930 . S
H426 C434 0.930 . S
H427 C435 0.930 . S
H428 C438 0.930 . S
H429 C439 0.930 . S
C430 H424 0.930 . S
C430 C431 1.355 . S
C430 C432 1.415 . S
C431 C430 1.355 . S
C431 C433 1.419 . S
C432 C430 1.415 . S
C432 C437 1.425 . S
C432 C439 1.409 . S
C433 H425 0.930 . S
C433 C431 1.419 . S
C433 C434 1.362 . S
C434 H426 0.930 . S
C434 C433 1.362 . S
C434 C437 1.409 . S
C435 H427 0.930 . S
C435 C436 1.355 . S
C435 C437 1.415 . S
C436 C435 1.355 . S
C436 C438 1.419 . S
C437 C432 1.425 . S
C437 C434 1.409 . S
C437 C435 1.415 . S
C438 H428 0.930 . S
C438 C436 1.419 . S
C438 C439 1.362 . S
C439 H429 0.930 . S
C439 C432 1.409 . S
C439 C438 1.362 . S
H440 C446 0.930 . S
H441 C449 0.930 . S
H442 C450 0.930 . S
H443 C451 0.930 . S
H444 C454 0.930 . S
H445 C455 0.930 . S
C446 H440 0.930 . S
C446 C447 1.355 1_455 S
C446 C448 1.415 . S
C447 C446 1.355 1_655 S
C447 C449 1.419 . S
C448 C446 1.415 . S
C448 C453 1.425 . S
C448 C455 1.409 . S
C449 H441 0.930 . S
C449 C447 1.419 . S
C449 C450 1.362 . S
C450 H442 0.930 . S
C450 C449 1.362 . S
C450 C453 1.409 1_655 S
C451 H443 0.930 . S
C451 C452 1.355 . S
C451 C453 1.415 . S
C452 C451 1.355 . S
C452 C454 1.419 . S
C453 C448 1.425 . S
C453 C450 1.409 1_455 S
C453 C451 1.415 . S
C454 H444 0.930 . S
C454 C452 1.419 . S
C454 C455 1.362 . S
C455 H445 0.930 . S
C455 C448 1.409 . S
C455 C454 1.362 . S
H456 C462 0.930 . S
H457 C465 0.930 . S
H458 C466 0.930 . S
H459 C467 0.930 . S
H460 C470 0.930 . S
H461 C471 0.930 . S
C462 H456 0.930 . S
C462 C463 1.355 1_545 S
C462 C464 1.415 . S
C463 C462 1.355 1_565 S
C463 C465 1.419 . S
C464 C462 1.415 . S
C464 C469 1.425 . S
C464 C471 1.409 . S
C465 H457 0.930 . S
C465 C463 1.419 . S
C465 C466 1.362 . S
C466 H458 0.930 . S
C466 C465 1.362 . S
C466 C469 1.409 1_565 S
C467 H459 0.930 . S
C467 C468 1.355 . S
C467 C469 1.415 . S
C468 C467 1.355 . S
C468 C470 1.419 . S
C469 C464 1.425 . S
C469 C466 1.409 1_545 S
C469 C467 1.415 . S
C470 H460 0.930 . S
C470 C468 1.419 . S
C470 C471 1.362 . S
C471 H461 0.930 . S
C471 C464 1.409 . S
C471 C470 1.362 . S
H472 C478 0.930 . S
H473 C481 0.930 . S
H474 C482 0.930 . S
H475 C483 0.930 . S
H476 C486 0.930 . S
H477 C487 0.930 . S
C478 H472 0.930 . S
C478 C479 1.355 . S
C478 C480 1.415 . S
C479 C478 1.355 . S
C479 C481 1.419 . S
C480 C478 1.415 . S
C480 C485 1.425 . S
C480 C487 1.409 . S
C481 H473 0.930 . S
C481 C479 1.419 . S
C481 C482 1.362 . S
C482 H474 0.930 . S
C482 C481 1.362 . S
C482 C485 1.409 . S
C483 H475 0.930 . S
C483 C484 1.355 . S
C483 C485 1.415 . S
C484 C483 1.355 . S
C484 C486 1.419 . S
C485 C480 1.425 . S
C485 C482 1.409 . S
C485 C483 1.415 . S
C486 H476 0.930 . S
C486 C484 1.419 . S
C486 C487 1.362 . S
C487 H477 0.930 . S
C487 C480 1.409 . S
C487 C486 1.362 . S
H488 C494 0.930 . S
H489 C497 0.930 . S
H490 C498 0.930 . S
H491 C499 0.930 . S
H492 C502 0.930 . S
H493 C503 0.930 . S
C494 H488 0.930 . S
C494 C495 1.355 . S
C494 C496 1.415 . S
C495 C494 1.355 . S
C495 C497 1.419 . S
C496 C494 1.415 . S
C496 C501 1.425 . S
C496 C503 1.409 . S
C497 H489 0.930 . S
C497 C495 1.419 . S
C497 C498 1.362 . S
C498 H490 0.930 . S
C498 C497 1.362 . S
C498 C501 1.409 . S
C499 H491 0.930 . S
C499 C500 1.355 . S
C499 C501 1.415 . S
C500 C499 1.355 . S
C500 C502 1.419 . S
C501 C496 1.425 . S
C501 C498 1.409 . S
C501 C499 1.415 . S
C502 H492 0.930 . S
C502 C500 1.419 . S
C502 C503 1.362 . S
C503 H493 0.930 . S
C503 C496 1.409 . S
C503 C502 1.362 . S
H504 C510 0.930 . S
H505 C513 0.928 1_655 S
H506 C514 0.931 . S
H507 C515 0.930 . S
H508 C518 0.930 . S
H509 C519 0.930 1_554 S
C510 H504 0.930 . S
C510 C511 1.355 . S
C510 C512 1.415 . S
C511 C510 1.355 . S
C511 C513 1.421 . S
C512 C510 1.415 . S
C512 C517 1.425 . S
C512 C519 1.409 . S
C513 H505 0.928 1_455 S
C513 C511 1.421 . S
C513 C514 1.363 . S
C514 H506 0.931 . S
C514 C513 1.363 . S
C514 C517 1.409 . S
C515 H507 0.930 . S
C515 C516 1.355 . S
C515 C517 1.415 . S
C516 C515 1.355 . S
C516 C518 1.419 . S
C517 C512 1.425 . S
C517 C514 1.409 . S
C517 C515 1.415 . S
C518 H508 0.930 . S
C518 C516 1.419 . S
C518 C519 1.362 . S
C519 H509 0.930 1_556 S
C519 C512 1.409 . S
C519 C518 1.362 . S
H520 C526 0.930 . S
H521 C529 0.930 . S
H522 C530 0.930 . S
H523 C531 0.930 . S
H524 C534 0.930 . S
H525 C535 0.930 . S
C526 H520 0.930 . S
C526 C527 1.355 1_565 S
C526 C528 1.415 . S
C527 C526 1.355 1_545 S
C527 C529 1.419 . S
C528 C526 1.415 . S
C528 C533 1.425 1_565 S
C528 C535 1.409 . S
C529 H521 0.930 . S
C529 C527 1.419 . S
C529 C530 1.362 . S
C530 H522 0.930 . S
C530 C529 1.362 . S
C530 C533 1.409 . S
C531 H523 0.930 . S
C531 C532 1.355 . S
C531 C533 1.415 . S
C532 C531 1.355 . S
C532 C534 1.419 1_545 S
C533 C528 1.425 1_545 S
C533 C530 1.409 . S
C533 C531 1.415 . S
C534 H524 0.930 . S
C534 C532 1.419 1_565 S
C534 C535 1.362 . S
C535 H525 0.930 . S
C535 C528 1.409 . S
C535 C534 1.362 . S
H536 C542 0.930 . S
H537 C545 0.930 . S
H538 C546 0.930 . S
H539 C547 0.930 . S
H540 C550 0.930 . S
H541 C551 0.930 . S
C542 H536 0.930 . S
C542 C543 1.355 . S
C542 C544 1.415 . S
C543 C542 1.355 . S
C543 C545 1.419 . S
C544 C542 1.415 . S
C544 C549 1.425 . S
C544 C551 1.409 . S
C545 H537 0.930 . S
C545 C543 1.419 . S
C545 C546 1.362 . S
C546 H538 0.930 . S
C546 C545 1.362 . S
C546 C549 1.409 . S
C547 H539 0.930 . S
C547 C548 1.355 . S
C547 C549 1.415 . S
C548 C547 1.355 . S
C548 C550 1.419 . S
C549 C544 1.425 . S
C549 C546 1.409 . S
C549 C547 1.415 . S
C550 H540 0.930 . S
C550 C548 1.419 . S
C550 C551 1.362 . S
C551 H541 0.930 . S
C551 C544 1.409 . S
C551 C550 1.362 . S
H552 C558 0.930 . S
H553 C561 0.930 . S
H554 C562 0.930 . S
H555 C563 0.930 . S
H556 C566 0.930 . S
H557 C567 0.930 . S
C558 H552 0.930 . S
C558 C559 1.355 . S
C558 C560 1.415 . S
C559 C558 1.355 . S
C559 C561 1.419 . S
C560 C558 1.415 . S
C560 C565 1.425 . S
C560 C567 1.409 . S
C561 H553 0.930 . S
C561 C559 1.419 . S
C561 C562 1.362 . S
C562 H554 0.930 . S
C562 C561 1.362 . S
C562 C565 1.409 . S
C563 H555 0.930 . S
C563 C564 1.355 . S
C563 C565 1.415 . S
C564 C563 1.355 . S
C564 C566 1.419 . S
C565 C560 1.425 . S
C565 C562 1.409 . S
C565 C563 1.415 . S
C566 H556 0.930 . S
C566 C564 1.419 . S
C566 C567 1.362 . S
C567 H557 0.930 . S
C567 C560 1.409 . S
C567 C566 1.362 . S
H568 C574 0.930 . S
H569 C577 0.930 . S
H570 C578 0.930 . S
H571 C579 0.930 . S
H572 C582 0.930 . S
H573 C583 0.930 . S
C574 H568 0.930 . S
C574 C575 1.362 . S
C574 C576 1.415 . S
C575 C574 1.362 . S
C575 C577 1.411 1_655 S
C576 C574 1.415 . S
C576 C581 1.425 1_655 S
C576 C583 1.409 . S
C577 H569 0.930 . S
C577 C575 1.411 1_455 S
C577 C578 1.362 . S
C578 H570 0.930 . S
C578 C577 1.362 . S
C578 C581 1.409 . S
C579 H571 0.930 . S
C579 C580 1.355 1_455 S
C579 C581 1.415 . S
C580 C579 1.355 1_655 S
C580 C582 1.419 . S
C581 C576 1.425 1_455 S
C581 C578 1.409 . S
C581 C579 1.415 . S
C582 H572 0.930 . S
C582 C580 1.419 . S
C582 C583 1.362 . S
C583 H573 0.930 . S
C583 C576 1.409 . S
C583 C582 1.362 . S
H584 C590 0.930 . S
H585 C593 0.930 . S
H586 C594 0.930 . S
H587 C595 0.929 . S
H588 C598 0.930 . S
H589 C599 0.930 . S
C590 H584 0.930 . S
C590 C591 1.355 . S
C590 C592 1.415 . S
C591 C590 1.355 . S
C591 C593 1.419 1_565 S
C592 C590 1.415 . S
C592 C597 1.425 . S
C592 C599 1.409 . S
C593 H585 0.930 . S
C593 C591 1.419 1_545 S
C593 C594 1.362 . S
C594 H586 0.930 . S
C594 C593 1.362 . S
C594 C597 1.409 1_545 S
C595 H587 0.929 . S
C595 C596 1.355 . S
C595 C597 1.415 . S
C596 C595 1.355 . S
C596 C598 1.419 . S
C597 C592 1.425 . S
C597 C594 1.409 1_565 S
C597 C595 1.415 . S
C598 H588 0.930 . S
C598 C596 1.419 . S
C598 C599 1.362 . S
C599 H589 0.930 . S
C599 C592 1.409 . S
C599 C598 1.362 . S
H600 C606 0.930 . S
H601 C609 0.930 . S
H602 C610 0.930 . S
H603 C611 0.930 . S
H604 C614 0.930 . S
H605 C615 0.930 . S
C606 H600 0.930 . S
C606 C607 1.355 . S
C606 C608 1.415 . S
C607 C606 1.355 . S
C607 C609 1.419 . S
C608 C606 1.415 . S
C608 C613 1.425 . S
C608 C615 1.409 . S
C609 H601 0.930 . S
C609 C607 1.419 . S
C609 C610 1.362 . S
C610 H602 0.930 . S
C610 C609 1.362 . S
C610 C613 1.409 . S
C611 H603 0.930 . S
C611 C612 1.355 . S
C611 C613 1.415 . S
C612 C611 1.355 . S
C612 C614 1.419 . S
C613 C608 1.425 . S
C613 C610 1.409 . S
C613 C611 1.415 . S
C614 H604 0.930 . S
C614 C612 1.419 . S
C614 C615 1.362 . S
C615 H605 0.930 . S
C615 C608 1.409 . S
C615 C614 1.362 . S
H616 C622 0.930 . S
H617 C625 0.930 . S
H618 C626 0.930 . S
H619 C627 0.930 . S
H620 C630 0.930 . S
H621 C631 0.930 . S
C622 H616 0.930 . S
C622 C623 1.355 . S
C622 C624 1.415 . S
C623 C622 1.355 . S
C623 C625 1.419 . S
C624 C622 1.415 . S
C624 C629 1.425 . S
C624 C631 1.409 . S
C625 H617 0.930 . S
C625 C623 1.419 . S
C625 C626 1.362 . S
C626 H618 0.930 . S
C626 C625 1.362 . S
C626 C629 1.409 . S
C627 H619 0.930 . S
C627 C628 1.355 . S
C627 C629 1.415 . S
C628 C627 1.355 . S
C628 C630 1.419 . S
C629 C624 1.425 . S
C629 C626 1.409 . S
C629 C627 1.415 . S
C630 H620 0.930 . S
C630 C628 1.419 . S
C630 C631 1.362 . S
C631 H621 0.930 . S
C631 C624 1.409 . S
C631 C630 1.362 . S
C255 C74 1.797 1_565 S
C260 C97 1.966 1_545 S
C276 C137 1.972 . S
C271 C85 1.795 . S
C292 C177 1.976 . S
C287 C52 1.803 . S
C308 C217 1.962 1_455 S
C303 C63 1.797 . S
C324 C106 1.955 . S
C319 C30 1.837 1_565 S
C335 C41 1.808 . S
C340 C146 1.981 . S
C351 C8 1.887 . S
C356 C186 1.970 . S
C367 C19 1.814 1_655 S
C372 C226 1.963 1_655 S
C388 C103 0.701 . S
C383 C62 0.676 . S
C404 C143 0.653 . S
C399 C73 0.683 1_565 S
C420 C183 0.702 . S
C415 C84 0.725 . S
C431 C51 0.713 . S
C436 C223 0.660 . S
C447 C18 0.788 1_655 S
C452 C94 0.756 . S
C468 C134 0.783 . S
C463 C29 0.807 1_565 S
C484 C174 0.729 . S
C479 C40 0.716 . S
C495 C7 0.689 . S
C500 C214 0.710 . S
C511 C60 1.822 . S
C516 C107 2.369 . S
C527 C71 1.724 . S
C532 C147 2.341 . S
C548 C187 2.362 . S
C543 C82 1.815 . S
C564 C227 2.383 . S
C559 C49 1.830 . S
C575 C16 1.839 1_655 S
C580 C98 2.397 . S
C596 C138 2.369 . S
C591 C27 1.869 1_565 S
C612 C178 2.351 . S
C607 C38 1.837 . S
C623 C5 1.949 . S
C628 C218 2.356 . S
